drugbank_target|Q16787 Laminin subunit alpha-3 (DB06245)
 OpenBabel12092120053D

  0  0  0     0  0            999 V3000
M  V30 BEGIN CTAB
M  V30 COUNTS 50789 51341 0 0 0
M  V30 BEGIN ATOM
M  V30 1 H -0.908 1.98254 -0.117106 0
M  V30 2 N 0 1.576 0 0
M  V30 3 C 0.933 2.03868 1.02534 0
M  V30 4 C 1.911 0.928543 1.3348 0
M  V30 5 O 3.095 1.19667 1.45644 0
M  V30 6 C 0.222 2.43627 2.35294 0
M  V30 7 C -0.732 3.65373 2.2001 0
M  V30 8 S 0.101 5.13292 1.52614 0
M  V30 9 C 1.257 5.56322 2.86805 0
M  V30 10 H 1.49 2.90518 0.631377 0
M  V30 11 H -0.977 1.52953 0.210867 0
M  V30 12 H 0.981 2.67203 3.11629 0
M  V30 13 H -0.358 1.57376 2.7183 0
M  V30 14 H -1.165 3.90944 3.18086 0
M  V30 15 H -1.563 3.418 1.51819 0
M  V30 16 H 0.729 5.58782 3.83104 0
M  V30 17 H 1.672 6.56266 2.65933 0
M  V30 18 H 2.08 4.83886 2.90714 0
M  V30 19 N 1.4781 -0.272755 1.55222 0
M  V30 20 C 2.4411 -1.32041 1.87344 0
M  V30 21 C 3.4411 -1.42342 0.74803 0
M  V30 22 O 4.6311 -1.41488 1.0162 0
M  V30 23 C 1.7631 -2.70173 2.07893 0
M  V30 24 H 2.9561 -1.04789 2.80997 0
M  V30 25 H 0.5091 -0.51083 1.47717 0
M  V30 26 H 1.2441 -3.02605 1.16622 0
M  V30 27 H 1.0291 -2.64082 2.89833 0
M  V30 28 H 2.5191 -3.45869 2.34017 0
M  V30 29 N 2.9562 -1.48159 -0.537278 0
M  V30 30 C 3.9192 -1.61665 -1.62472 0
M  V30 31 C 4.9192 -0.490395 -1.5314 0
M  V30 32 O 6.1092 -0.755998 -1.5694 0
M  V30 33 C 3.2412 -1.57997 -3.02076 0
M  V30 34 H 4.4342 -2.58621 -1.51839 0
M  V30 35 H 1.9872 -1.36647 -0.758771 0
M  V30 36 H 2.7222 -0.624913 -3.18222 0
M  V30 37 H 2.5072 -2.39755 -3.10258 0
M  V30 38 H 3.9972 -1.70627 -3.81151 0
M  V30 39 N 4.4343 0.785586 -1.36625 0
M  V30 40 C 5.3973 1.87999 -1.31107 0
M  V30 41 C 6.3973 1.59316 -0.217959 0
M  V30 42 O 7.5873 1.67656 -0.472977 0
M  V30 43 C 4.7193 3.24861 -1.03334 0
M  V30 44 H 5.9123 1.94307 -2.2844 0
M  V30 45 H 3.4653 0.983813 -1.21453 0
M  V30 46 H 4.2003 3.24235 -0.0647432 0
M  V30 47 H 3.9853 3.4707 -1.82441 0
M  V30 48 H 5.4753 4.04929 -1.02088 0
M  V30 49 N 5.9124 1.20967 1.01018 0
M  V30 50 C 6.8754 0.965918 2.07853 0
M  V30 51 C 7.8754 -0.0610545 1.60684 0
M  V30 52 O 9.0654 0.175681 1.73312 0
M  V30 53 C 6.1974 0.455513 3.37843 0
M  V30 54 H 7.3904 1.91365 2.3091 0
M  V30 55 H 4.9434 1.02594 1.17916 0
M  V30 56 H 5.6784 -0.497381 3.20463 0
M  V30 57 H 5.4634 1.19622 3.73407 0
M  V30 58 H 6.9534 0.304667 4.16487 0
M  V30 59 N 7.3905 -1.2043 1.01659 0
M  V30 60 C 8.8065 -1.41852 0.731442 0
M  V30 61 C 9.0065 -1.89358 -0.688898 0
M  V30 62 O 8.0625 -2.06247 -1.45666 0
M  V30 63 C 9.3755 -2.44019 1.75714 0
M  V30 64 C 10.9235 -2.57785 1.77527 0
M  V30 65 C 11.3985 -3.63194 2.79023 0
M  V30 66 N 12.8895 -3.70678 2.77763 0
M  V30 67 C 13.6245 -4.51897 3.52954 0
M  V30 68 N 13.1205 -5.36921 4.37821 0
M  V30 69 N 14.9135 -4.4643 3.41551 0
M  V30 70 H 7.0645 -0.879093 1.93354 0
M  V30 71 H 9.3275 -0.448425 0.835236 0
M  V30 72 H 9.0335 -2.1611 2.77469 0
M  V30 73 H 8.9075 -3.43007 1.56927 0
M  V30 74 H 11.2945 -2.85023 0.764569 0
M  V30 75 H 11.3755 -1.58992 2.00387 0
M  V30 76 H 11.0195 -3.36699 3.80258 0
M  V30 77 H 10.9495 -4.61609 2.53425 0
M  V30 78 H 13.4405 -3.09944 2.16201 0
M  V30 79 H 13.7535 -5.95981 4.91962 0
M  V30 80 H 12.0985 -5.36424 4.41899 0
M  V30 81 H 15.2895 -3.79042 2.74672 0
M  V30 82 H 15.4625 -5.09491 4.00404 0
M  V30 83 N 8.8686 -0.792821 -1.36206 0
M  V30 84 C 10.2796 -0.429513 -1.81692 0
M  V30 85 C 10.6306 1.04695 -1.65932 0
M  V30 86 O 9.7556 1.81256 -1.18218 0
M  V30 87 C 10.3506 -0.772831 -3.29868 0
M  V30 88 C 8.9096 -0.462307 -3.7355 0
M  V30 89 C 8.0566 -1.00569 -2.5842 0
M  V30 90 H 11.0076 -0.985672 -1.24379 0
M  V30 91 H 11.0286 -0.0651928 -3.80444 0
M  V30 92 H 10.5406 -1.84747 -3.41307 0
M  V30 93 H 8.6416 0.604158 -3.67669 0
M  V30 94 H 8.7546 -0.985299 -4.68859 0
M  V30 95 H 7.1186 -0.428734 -2.51066 0
M  V30 96 H 7.9016 -2.08616 -2.72643 0
M  V30 97 N 10.3467 1.47872 -0.545128 0
M  V30 98 C 11.7627 1.5829 -0.204032 0
M  V30 99 C 11.9627 1.54529 1.29317 0
M  V30 100 O 11.0187 1.44232 2.07252 0
M  V30 101 C 12.3317 2.89304 -0.819987 0
M  V30 102 C 13.8797 3.02864 -0.790105 0
M  V30 103 C 14.3547 4.3656 -1.38491 0
M  V30 104 N 15.8457 4.43165 -1.34755 0
M  V30 105 C 16.5807 5.45153 -1.77753 0
M  V30 106 N 16.0767 6.54016 -2.2855 0
M  V30 107 N 17.8697 5.36125 -1.68897 0
M  V30 108 H 10.0207 1.4856 -1.51802 0
M  V30 109 H 12.2837 0.706305 -0.632327 0
M  V30 110 H 11.9897 2.97757 -1.87173 0
M  V30 111 H 11.8637 3.75957 -0.305915 0
M  V30 112 H 14.2507 2.94014 0.252913 0
M  V30 113 H 14.3317 2.17782 -1.34181 0
M  V30 114 H 13.9757 4.46164 -2.42693 0
M  V30 115 H 13.9057 5.20353 -0.808754 0
M  V30 116 H 16.3967 3.65083 -0.975855 0
M  V30 117 H 16.7097 7.27994 -2.59314 0
M  V30 118 H 15.0547 6.54938 -2.32553 0
M  V30 119 H 18.2457 4.49975 -1.28998 0
M  V30 120 H 18.4187 6.15472 -2.02726 0
M  V30 121 N 11.8248 0.280983 1.55075 0
M  V30 122 C 13.0728 -0.333455 1.9933 0
M  V30 123 C 13.3938 -1.55937 1.17085 0
M  V30 124 O 12.6638 -1.94143 0.261805 0
M  V30 125 H 11.2438 -0.126197 0.736263 0
M  V30 126 H 13.9058 0.387678 1.91005 0
M  V30 127 H 13.0018 -0.619292 3.05894 0
M  V30 128 N 13.3029 -1.57598 0.00835791 0
M  V30 129 C 14.7189 -1.55764 -0.347822 0
M  V30 130 C 14.9189 -1.01186 -1.74252 0
M  V30 131 O 13.9749 -0.649371 -2.44007 0
M  V30 132 C 15.2879 -2.99927 -0.215407 0
M  V30 133 C 16.8359 -3.11656 -0.289725 0
M  V30 134 C 17.3109 -4.57621 -0.18634 0
M  V30 135 N 18.8019 -4.62557 -0.243978 0
M  V30 136 C 19.5369 -5.73094 -0.18745 0
M  V30 137 N 19.0329 -6.92753 -0.0810331 0
M  V30 138 N 20.8259 -5.61588 -0.239925 0
M  V30 139 H 12.9769 -1.91411 0.92062 0
M  V30 140 H 15.2399 -0.879562 0.353659 0
M  V30 141 H 14.9459 -3.43729 0.744512 0
M  V30 142 H 14.8199 -3.63865 -0.994097 0
M  V30 143 H 17.2069 -2.67779 -1.24009 0
M  V30 144 H 17.2879 -2.5048 0.51898 0
M  V30 145 H 16.9319 -5.02174 0.760519 0
M  V30 146 H 16.8619 -5.16752 -1.01364 0
M  V30 147 H 19.3529 -3.76481 -0.327217 0
M  V30 148 H 19.6659 -7.72787 -0.0440241 0
M  V30 149 H 18.0109 -6.94984 -0.0465419 0
M  V30 150 H 21.2019 -4.66996 -0.321317 0
M  V30 151 H 21.3749 -6.47714 -0.192407 0
M  V30 152 N 14.781 0.264519 -1.55364 0
M  V30 153 C 15.744 1.31046 -1.88042 0
M  V30 154 C 16.744 1.41943 -0.755569 0
M  V30 155 O 17.934 1.40947 -1.02369 0
M  V30 156 C 15.066 2.69067 -2.09323 0
M  V30 157 H 16.259 1.03297 -2.81549 0
M  V30 158 H 13.812 0.502989 -1.47986 0
M  V30 159 H 14.547 3.01982 -1.18226 0
M  V30 160 H 14.332 2.62542 -2.91229 0
M  V30 161 H 15.822 3.44623 -2.35848 0
M  V30 162 N 16.2591 1.48442 0.529413 0
M  V30 163 C 17.1891 1.65902 1.64313 0
M  V30 164 C 18.1701 0.507897 1.6234 0
M  V30 165 O 19.3551 0.740503 1.79528 0
M  V30 166 C 16.4851 1.69911 3.02898 0
M  V30 167 C 15.4391 2.8453 3.19729 0
M  V30 168 C 14.7651 2.73629 4.59381 0
M  V30 169 C 16.0651 4.25821 3.02447 0
M  V30 170 H 17.7591 2.5914 1.49955 0
M  V30 171 H 15.3051 1.24709 0.719982 0
M  V30 172 H 17.2581 1.80715 3.80684 0
M  V30 173 H 15.9821 0.732524 3.18279 0
M  V30 174 H 14.6411 2.73283 2.44361 0
M  V30 175 H 14.2891 1.74938 4.71599 0
M  V30 176 H 13.9891 3.50541 4.71588 0
M  V30 177 H 15.5131 2.86401 5.39265 0
M  V30 178 H 16.9271 4.37898 3.70024 0
M  V30 179 H 15.3241 5.03735 3.26146 0
M  V30 180 H 16.3941 4.42244 1.98867 0
M  V30 181 N 17.7372 -0.778329 1.37039 0
M  V30 182 C 18.9852 -1.53361 1.31623 0
M  V30 183 C 19.3062 -1.94739 -0.100831 0
M  V30 184 O 18.5762 -1.65797 -1.04347 0
M  V30 185 H 17.1562 -0.568794 0.484234 0
M  V30 186 H 19.8182 -0.926742 1.71457 0
M  V30 187 H 18.9142 -2.43606 1.95096 0
M  V30 188 N 19.2153 -1.21501 -1.00376 0
M  V30 189 C 20.6263 -1.03146 -1.55621 0
M  V30 190 C 20.9773 0.408375 -1.91903 0
M  V30 191 O 20.1023 1.29177 -1.73616 0
M  V30 192 C 20.6973 -1.86612 -2.82775 0
M  V30 193 C 19.2563 -1.72586 -3.34501 0
M  V30 194 C 18.4033 -1.83747 -2.07683 0
M  V30 195 H 21.3543 -1.35505 -0.826081 0
M  V30 196 H 21.3753 -1.3771 -3.54706 0
M  V30 197 H 20.8873 -2.91399 -2.56336 0
M  V30 198 H 18.9883 -0.704877 -3.65872 0
M  V30 199 H 19.1013 -2.54623 -4.05837 0
M  V30 200 H 17.4653 -1.27069 -2.20739 0
M  V30 201 H 18.2483 -2.90044 -1.83655 0
M  V30 202 N 20.6934 1.19889 -1.02296 0
M  V30 203 C 21.9394 1.89701 -0.717033 0
M  V30 204 C 22.2724 1.7905 0.751989 0
M  V30 205 O 21.5474 1.17891 1.547 0
M  V30 206 C 21.8304 3.40858 -1.16136 0
M  V30 207 C 21.6834 3.60411 -2.69117 0
M  V30 208 C 23.0024 4.33876 -0.737549 0
M  V30 209 H 20.1214 0.688874 -0.261957 0
M  V30 210 H 22.7634 1.41154 -1.27183 0
M  V30 211 H 20.9134 3.82335 -0.689342 0
M  V30 212 H 22.5854 3.28145 -3.2422 0
M  V30 213 H 20.8284 3.03665 -3.0979 0
M  V30 214 H 21.4994 4.66396 -2.95261 0
M  V30 215 H 23.9754 4.00081 -1.14344 0
M  V30 216 H 22.8514 5.38242 -1.0764 0
M  V30 217 H 23.1124 4.40628 0.360436 0
M  V30 218 N 22.1715 0.800033 1.35784 0
M  V30 219 C 23.1015 0.220184 2.3246 0
M  V30 220 C 24.0825 -0.65073 1.57161 0
M  V30 221 O 25.2675 -0.582359 1.85263 0
M  V30 222 C 22.3975 -0.637353 3.41402 0
M  V30 223 C 21.3515 0.134531 4.27789 0
M  V30 224 C 20.6775 -0.844285 5.27992 0
M  V30 225 C 21.9775 1.32979 5.05088 0
M  V30 226 H 23.6715 1.02787 2.81203 0
M  V30 227 H 21.2175 0.495717 1.35199 0
M  V30 228 H 23.1705 -1.05302 4.08031 0
M  V30 229 H 21.8945 -1.47785 2.91251 0
M  V30 230 H 20.5535 0.531296 3.6273 0
M  V30 231 H 20.2015 -1.68011 4.74111 0
M  V30 232 H 19.9015 -0.332184 5.8666 0
M  V30 233 H 21.4255 -1.2583 5.97494 0
M  V30 234 H 22.8395 0.98934 5.64699 0
M  V30 235 H 21.2365 1.77593 5.7322 0
M  V30 236 H 22.3065 2.11978 4.36111 0
M  V30 237 N 23.6496 -1.47581 0.552962 0
M  V30 238 C 25.0606 -1.86324 0.118463 0
M  V30 239 C 25.4116 -1.46006 -1.3106 0
M  V30 240 O 24.5366 -0.861182 -1.98526 0
M  V30 241 C 25.1316 -3.3816 0.20821 0
M  V30 242 C 23.6906 -3.7601 -0.171226 0
M  V30 243 C 22.8376 -2.71634 0.557686 0
M  V30 244 H 25.7886 -1.39159 0.762928 0
M  V30 245 H 25.8096 -3.76141 -0.574278 0
M  V30 246 H 25.3216 -3.67473 1.24841 0
M  V30 247 H 23.4226 -3.52313 -1.21269 0
M  V30 248 H 23.5356 -4.78745 0.184379 0
M  V30 249 H 21.8996 -2.547 0.00125792 0
M  V30 250 H 22.6826 -3.0379 1.59896 0
M  V30 251 N 25.1277 -0.289203 -1.54924 0
M  V30 252 C 26.5387 0.205791 -1.85562 0
M  V30 253 C 26.8897 1.54351 -1.2112 0
M  V30 254 O 26.0147 2.10435 -0.504601 0
M  V30 255 C 26.6097 0.380177 -3.3666 0
M  V30 256 C 25.1687 0.819395 -3.67373 0
M  V30 257 C 24.3157 -0.079159 -2.77187 0
M  V30 258 H 27.2667 -0.510577 -1.50262 0
M  V30 259 H 27.2877 1.21659 -3.60526 0
M  V30 260 H 26.7997 -0.593589 -3.83534 0
M  V30 261 H 24.9007 1.80413 -3.26009 0
M  V30 262 H 25.0137 0.646957 -4.74712 0
M  V30 263 H 23.3777 0.439565 -2.50878 0
M  V30 264 H 24.1607 -1.04906 -3.26878 0
M  V30 265 N 26.6058 1.57591 -0.0167156 0
M  V30 266 C 27.8338 1.95575 0.675128 0
M  V30 267 C 28.2488 0.892542 1.6637 0
M  V30 268 O 27.6058 -0.126912 1.82058 0
M  V30 269 C 27.6568 3.33608 1.39239 0
M  V30 270 O 27.3778 4.3585 0.443444 0
M  V30 271 C 28.8788 3.86151 2.17721 0
M  V30 272 H 26.0988 0.644423 0.186978 0
M  V30 273 H 28.6428 2.0437 -0.0728 0
M  V30 274 H 26.7978 3.2607 2.09182 0
M  V30 275 H 27.2118 5.158 0.951358 0
M  V30 276 H 28.6858 4.85114 2.63379 0
M  V30 277 H 29.1628 3.19738 3.01105 0
M  V30 278 H 29.7688 3.96918 1.52761 0
M  V30 279 N 28.0839 -0.256276 1.55502 0
M  V30 280 C 29.4949 -0.826068 1.67431 0
M  V30 281 C 29.8459 -1.86396 0.612446 0
M  V30 282 O 28.9709 -2.15031 -0.243025 0
M  V30 283 C 29.5659 -1.50512 3.03532 0
M  V30 284 C 28.1249 -2.02273 3.17431 0
M  V30 285 C 27.2719 -0.870548 2.63281 0
M  V30 286 H 30.2229 -0.0322728 1.58667 0
M  V30 287 H 30.2439 -2.37279 2.97454 0
M  V30 288 H 29.7559 -0.749484 3.80794 0
M  V30 289 H 27.8569 -2.80746 2.44974 0
M  V30 290 H 27.9699 -2.22655 4.24219 0
M  V30 291 H 26.3339 -1.26851 2.20864 0
M  V30 292 H 27.1169 -0.128149 3.43061 0
M  V30 293 N 29.562 -1.4872 -0.521534 0
M  V30 294 C 30.492 -1.66771 -1.63431 0
M  V30 295 C 31.473 -0.516499 -1.62069 0
M  V30 296 O 32.658 -0.750013 -1.79132 0
M  V30 297 C 29.788 -1.71515 -3.01993 0
M  V30 298 C 28.742 -2.86222 -3.18216 0
M  V30 299 C 28.068 -2.76061 -4.57924 0
M  V30 300 C 29.368 -4.27419 -3.00184 0
M  V30 301 H 31.062 -2.59932 -1.48579 0
M  V30 302 H 28.608 -1.25089 -0.713358 0
M  V30 303 H 30.561 -1.82731 -3.7972 0
M  V30 304 H 29.285 -0.749393 -3.17886 0
M  V30 305 H 27.944 -2.74575 -2.42908 0
M  V30 306 H 27.592 -1.77437 -4.70665 0
M  V30 307 H 27.292 -3.53037 -4.69722 0
M  V30 308 H 28.816 -2.89256 -5.37739 0
M  V30 309 H 30.23 -4.39855 -3.67697 0
M  V30 310 H 28.627 -5.05458 -3.2347 0
M  V30 311 H 29.697 -4.43293 -1.96518 0
M  V30 312 N 31.0401 0.771051 -1.3745 0
M  V30 313 C 31.9701 1.89827 -1.3597 0
M  V30 314 C 32.9511 1.68562 -0.228216 0
M  V30 315 O 34.1361 1.8941 -0.428675 0
M  V30 316 C 31.2661 3.2712 -1.16662 0
M  V30 317 C 30.2201 3.6295 -2.2683 0
M  V30 318 C 29.5461 4.98791 -1.92644 0
M  V30 319 C 30.8461 3.69627 -3.69017 0
M  V30 320 H 32.5401 1.91323 -2.30295 0
M  V30 321 H 30.0861 0.919082 -1.10855 0
M  V30 322 H 32.0391 4.05615 -1.14256 0
M  V30 323 H 30.7631 3.26059 -0.187926 0
M  V30 324 H 29.4221 2.86763 -2.28392 0
M  V30 325 H 29.0701 4.94271 -0.933021 0
M  V30 326 H 28.7701 5.23733 -2.66416 0
M  V30 327 H 30.2941 5.79685 -1.91826 0
M  V30 328 H 31.7081 4.38273 -3.69581 0
M  V30 329 H 30.1051 4.06067 -4.41848 0
M  V30 330 H 31.1751 2.70273 -4.02592 0
M  V30 331 N 32.5182 1.22032 0.997298 0
M  V30 332 C 33.4482 1.01065 2.10495 0
M  V30 333 C 34.4292 -0.0669542 1.69968 0
M  V30 334 O 35.6142 0.0943987 1.9397 0
M  V30 335 C 32.7442 0.582874 3.42374 0
M  V30 336 C 31.6982 1.60592 3.96729 0
M  V30 337 C 31.0242 1.03412 5.24605 0
M  V30 338 C 32.3242 2.99478 4.27914 0
M  V30 339 H 34.0182 1.93708 2.28292 0
M  V30 340 H 31.5642 0.932761 1.09707 0
M  V30 341 H 33.5172 0.423332 4.19268 0
M  V30 342 H 32.2412 -0.379213 3.24391 0
M  V30 343 H 30.9002 1.75316 3.21963 0
M  V30 344 H 30.5482 0.063518 5.0296 0
M  V30 345 H 30.2482 1.71754 5.61938 0
M  V30 346 H 31.7722 0.886066 6.04137 0
M  V30 347 H 33.1862 2.88153 4.95622 0
M  V30 348 H 31.5832 3.64903 4.76409 0
M  V30 349 H 32.6532 3.49742 3.3587 0
M  V30 350 N 33.9963 -1.19345 1.0293 0
M  V30 351 C 34.9263 -2.2481 0.631105 0
M  V30 352 C 35.9073 -1.66245 -0.360104 0
M  V30 353 O 37.0923 -1.92677 -0.242726 0
M  V30 354 C 34.2223 -3.47295 -0.0184607 0
M  V30 355 C 33.1763 -4.18536 0.895073 0
M  V30 356 C 32.5023 -5.34586 0.110592 0
M  V30 357 C 33.8023 -4.73287 2.209 0
M  V30 358 H 35.4963 -2.58372 1.51275 0
M  V30 359 H 33.0423 -1.24194 0.728818 0
M  V30 360 H 34.9953 -4.20268 -0.308675 0
M  V30 361 H 33.7193 -3.12933 -0.934907 0
M  V30 362 H 32.3783 -3.47446 1.16949 0
M  V30 363 H 32.0263 -4.96469 -0.807902 0
M  V30 364 H 31.7263 -5.83183 0.719087 0
M  V30 365 H 33.2503 -6.10355 -0.172871 0
M  V30 366 H 34.6643 -5.38013 1.98028 0
M  V30 367 H 33.0613 -5.32373 2.76946 0
M  V30 368 H 34.1313 -3.91331 2.86336 0
M  V30 369 N 35.4744 -0.807222 -1.35358 0
M  V30 370 C 36.7204 -0.388463 -1.99045 0
M  V30 371 C 37.0534 1.04184 -1.63888 0
M  V30 372 O 36.3284 1.72292 -0.902535 0
M  V30 373 C 36.6114 -0.572783 -3.55515 0
M  V30 374 C 36.4644 -2.04807 -4.00468 0
M  V30 375 C 37.7834 0.00114064 -4.401 0
M  V30 376 H 34.9024 -0.142619 -0.723069 0
M  V30 377 H 37.5444 -1.01687 -1.60498 0
M  V30 378 H 35.6944 -0.0378425 -3.88482 0
M  V30 379 H 37.3664 -2.64544 -3.77908 0
M  V30 380 H 35.6094 -2.54427 -3.51353 0
M  V30 381 H 36.2804 -2.12792 -5.09337 0
M  V30 382 H 38.7564 -0.455716 -4.13597 0
M  V30 383 H 37.6324 -0.157737 -5.48673 0
M  V30 384 H 37.8934 1.09488 -4.28328 0
M  V30 385 N 36.9525 1.47285 -0.560781 0
M  V30 386 C 37.8825 2.32857 0.173105 0
M  V30 387 C 38.8635 1.44009 0.905281 0
M  V30 388 O 40.0485 1.7286 0.885046 0
M  V30 389 C 37.1785 3.25861 1.20133 0
M  V30 390 C 36.1325 4.23978 0.585388 0
M  V30 391 C 35.4585 5.06332 1.7185 0
M  V30 392 C 36.7585 5.20242 -0.463178 0
M  V30 393 H 38.4525 2.94466 -0.541307 0
M  V30 394 H 35.9985 1.41601 -0.261764 0
M  V30 395 H 37.9515 3.84569 1.72293 0
M  V30 396 H 36.6755 2.62315 1.94573 0
M  V30 397 H 35.3345 3.66501 0.085054 0
M  V30 398 H 34.9825 4.39186 2.45203 0
M  V30 399 H 34.6825 5.72762 1.31213 0
M  V30 400 H 36.2065 5.67899 2.24329 0
M  V30 401 H 37.6205 5.73293 -0.027502 0
M  V30 402 H 36.0175 5.94896 -0.788627 0
M  V30 403 H 37.0875 4.65504 -1.35773 0
M  V30 404 N 38.4306 0.297415 1.54768 0
M  V30 405 C 39.8466 -0.0560823 1.59501 0
M  V30 406 C 40.0466 -1.52725 1.31444 0
M  V30 407 O 39.1026 -2.27947 1.08611 0
M  V30 408 C 40.4156 0.338631 2.98787 0
M  V30 409 C 41.9636 0.287097 3.11681 0
M  V30 410 C 42.4386 0.656579 4.53269 0
M  V30 411 N 43.9296 0.608977 4.59179 0
M  V30 412 C 44.6646 0.867385 5.66802 0
M  V30 413 N 44.1606 1.19157 6.82476 0
M  V30 414 N 45.9536 0.794687 5.56454 0
M  V30 415 H 38.1046 1.25624 1.71267 0
M  V30 416 H 40.3676 0.509057 0.799728 0
M  V30 417 H 40.0736 1.36263 3.2423 0
M  V30 418 H 39.9476 -0.309508 3.75928 0
M  V30 419 H 42.3346 -0.727649 2.85988 0
M  V30 420 H 42.4156 0.969809 2.36703 0
M  V30 421 H 42.0596 1.66912 4.7969 0
M  V30 422 H 41.9896 -0.0481649 5.26578 0
M  V30 423 H 44.4806 0.369198 3.76092 0
M  V30 424 H 44.7936 1.37482 7.60473 0
M  V30 425 H 43.1386 1.22958 6.84037 0
M  V30 426 H 46.3296 0.541098 4.64962 0
M  V30 427 H 46.5026 0.999445 6.40246 0
M  V30 428 N 39.9087 -1.5758 0.0250728 0
M  V30 429 C 41.1547 -1.91917 -0.655413 0
M  V30 430 C 41.4877 -0.901433 -1.72011 0
M  V30 431 O 40.7627 0.0764069 -1.9435 0
M  V30 432 C 41.0457 -3.36751 -1.27558 0
M  V30 433 C 40.8987 -4.49258 -0.220719 0
M  V30 434 C 42.2177 -3.81469 -2.19475 0
M  V30 435 H 39.3367 -0.697925 -0.23679 0
M  V30 436 H 41.9787 -1.89825 0.0815036 0
M  V30 437 H 40.1287 -3.38664 -1.90365 0
M  V30 438 H 41.8007 -4.59478 0.409601 0
M  V30 439 H 40.0437 -4.31415 0.454264 0
M  V30 440 H 40.7147 -5.47618 -0.694175 0
M  V30 441 H 43.1907 -3.81266 -1.66659 0
M  V30 442 H 42.0667 -4.83512 -2.59822 0
M  V30 443 H 42.3277 -3.16744 -3.08424 0
M  V30 444 N 41.3868 0.248026 -1.55636 0
M  V30 445 C 42.3168 1.31079 -1.93237 0
M  V30 446 C 43.2978 1.50264 -0.797174 0
M  V30 447 O 44.4828 1.62891 -1.05737 0
M  V30 448 C 41.6128 2.66575 -2.22609 0
M  V30 449 C 40.5668 2.62087 -3.3837 0
M  V30 450 C 39.8928 4.01369 -3.53281 0
M  V30 451 C 41.1928 2.19171 -4.7409 0
M  V30 452 H 42.8868 0.998556 -2.82257 0
M  V30 453 H 40.4328 0.47891 -1.35803 0
M  V30 454 H 42.3858 3.41057 -2.47503 0
M  V30 455 H 41.1098 2.99432 -1.30414 0
M  V30 456 H 39.7688 1.90063 -3.13483 0
M  V30 457 H 39.4168 4.31489 -2.58508 0
M  V30 458 H 39.1168 3.99254 -4.31127 0
M  V30 459 H 40.6408 4.77552 -3.80495 0
M  V30 460 H 42.0548 2.83384 -4.98363 0
M  V30 461 H 40.4518 2.2817 -5.5503 0
M  V30 462 H 41.5218 1.14336 -4.71227 0
M  V30 463 N 42.8649 1.48995 0.513639 0
M  V30 464 C 44.2759 1.5119 1.09537 0
M  V30 465 C 44.6269 0.290906 1.94031 0
M  V30 466 O 43.7519 -0.60049 2.07902 0
M  V30 467 C 44.3469 2.73964 1.99322 0
M  V30 468 C 42.9059 2.78978 2.52682 0
M  V30 469 C 42.0529 2.44934 1.30009 0
M  V30 470 H 45.0039 1.55875 0.298125 0
M  V30 471 H 45.0249 2.53409 2.83838 0
M  V30 472 H 44.5369 3.62813 1.37799 0
M  V30 473 H 42.6379 1.94378 3.1788 0
M  V30 474 H 42.7509 3.8083 2.90698 0
M  V30 475 H 41.1149 1.9644 1.62122 0
M  V30 476 H 41.8979 3.36043 0.702131 0
M  V30 477 N 44.343 -0.763751 1.37857 0
M  V30 478 C 45.306 -1.85889 1.34081 0
M  V30 479 C 46.306 -1.58949 0.243277 0
M  V30 480 O 47.496 -1.66882 0.499589 0
M  V30 481 C 44.628 -3.23176 1.08489 0
M  V30 482 H 45.821 -1.90648 2.31502 0
M  V30 483 H 43.374 -0.964367 1.23003 0
M  V30 484 H 44.109 -3.24091 0.116318 0
M  V30 485 H 43.894 -3.44124 1.8794 0
M  V30 486 H 45.384 -4.03254 1.08517 0
M  V30 487 N 45.8211 -1.22559 -0.990812 0
M  V30 488 C 47.0611 -1.06302 -1.74583 0
M  V30 489 C 47.4251 0.394737 -1.87898 0
M  V30 490 O 48.6261 0.678214 -2.60103 0
M  V30 491 C 46.8971 -1.75699 -3.11231 0
M  V30 492 S 48.4561 -1.74882 -4.02445 0
M  V30 493 H 45.2741 -0.380639 -0.600529 0
M  V30 494 H 47.8761 -1.55532 -1.18449 0
M  V30 495 H 46.5801 -2.80923 -2.99183 0
M  V30 496 H 46.1111 -1.26708 -3.72436 0
M  V30 497 H 48.1261 -0.799997 -4.89709 0
M  V30 498 N 47.2992 1.18797 -1.03562 0
M  V30 499 C 48.5472 1.88278 -0.734569 0
M  V30 500 C 48.8682 1.8043 0.739586 0
M  V30 501 O 48.1382 1.21925 1.53333 0
M  V30 502 H 46.7182 0.696991 -0.268725 0
M  V30 503 H 49.3802 1.44192 -1.31129 0
M  V30 504 H 48.4762 2.94443 -1.03489 0
M  V30 505 N 48.7773 0.814389 1.34928 0
M  V30 506 C 49.7403 0.235759 2.27984 0
M  V30 507 C 50.7403 -0.581412 1.49921 0
M  V30 508 O 51.9303 -0.398758 1.69575 0
M  V30 509 C 49.0623 -0.670433 3.34242 0
M  V30 510 H 50.2553 1.05659 2.80671 0
M  V30 511 H 47.8083 0.585614 1.44915 0
M  V30 512 H 48.5433 -1.51466 2.86755 0
M  V30 513 H 48.3283 -0.0860822 3.92005 0
M  V30 514 H 49.8183 -1.06935 4.03676 0
M  V30 515 N 50.2554 -1.46986 0.568584 0
M  V30 516 C 51.4834 -2.0683 0.0539956 0
M  V30 517 C 51.8984 -1.41953 -1.24478 0
M  V30 518 O 51.2554 -0.519933 -1.74937 0
M  V30 519 C 51.3064 -3.61254 -0.133362 0
M  V30 520 O 51.0274 -4.237 1.11399 0
M  V30 521 C 52.5284 -4.37992 -0.683927 0
M  V30 522 H 49.7484 -0.669058 0.0510141 0
M  V30 523 H 52.2924 -1.88824 0.785234 0
M  V30 524 H 50.4474 -3.78735 -0.81477 0
M  V30 525 H 50.8614 -5.16388 0.91888 0
M  V30 526 H 52.3354 -5.46684 -0.764263 0
M  V30 527 H 52.8124 -4.05058 -1.69778 0
M  V30 528 H 53.4184 -4.25283 -0.0378494 0
M  V30 529 N 51.7335 -0.305618 -1.54608 0
M  V30 530 C 52.6965 0.555591 -2.22364 0
M  V30 531 C 53.6965 1.05768 -1.21119 0
M  V30 532 O 54.8865 0.952972 -1.45822 0
M  V30 533 C 52.0185 1.76974 -2.91364 0
M  V30 534 H 53.2115 -0.0364572 -2.99878 0
M  V30 535 H 50.7645 -0.0565007 -1.56198 0
M  V30 536 H 51.4995 2.40151 -2.17941 0
M  V30 537 H 51.2845 1.41732 -3.65588 0
M  V30 538 H 52.7745 2.38148 -3.43038 0
M  V30 539 N 53.2116 1.57565 -0.0334293 0
M  V30 540 C 54.6276 1.56297 0.322997 0
M  V30 541 C 54.8276 1.03945 1.7262 0
M  V30 542 O 53.8836 0.688109 2.42943 0
M  V30 543 C 55.1966 3.00232 0.167664 0
M  V30 544 C 56.7446 3.12078 0.240107 0
M  V30 545 C 57.2196 4.57859 0.113513 0
M  V30 546 N 58.7106 4.62887 0.170359 0
M  V30 547 C 59.4456 5.73319 0.0962517 0
M  V30 548 N 58.9416 6.92794 -0.0291881 0
M  V30 549 N 60.7346 5.61898 0.150551 0
M  V30 550 H 52.8856 1.89923 -0.950956 0
M  V30 551 H 55.1486 0.873824 -0.367608 0
M  V30 552 H 54.8546 3.42501 -0.799102 0
M  V30 553 H 54.7286 3.654 0.936083 0
M  V30 554 H 57.1156 2.69718 1.19733 0
M  V30 555 H 57.1966 2.49623 -0.558763 0
M  V30 556 H 56.8406 5.009 -0.840314 0
M  V30 557 H 56.7706 5.18299 0.931302 0
M  V30 558 H 59.2616 3.76954 0.26728 0
M  V30 559 H 59.5746 7.7276 -0.0789252 0
M  V30 560 H 57.9196 6.94971 -0.0640299 0
M  V30 561 H 61.1106 4.67448 0.246981 0
M  V30 562 H 61.2836 6.47938 0.0893365 0
M  V30 563 N 54.6897 -0.239769 1.55765 0
M  V30 564 C 55.9667 -0.990056 1.68693 0
M  V30 565 C 56.3467 -2.03107 0.5754 0
M  V30 566 O 55.6947 -2.24604 -0.42017 0
M  V30 567 C 55.9047 -1.61696 3.09282 0
M  V30 568 C 57.2527 -2.11613 3.6811 0
M  V30 569 O 58.2767 -1.71624 3.12127 0
M  V30 570 O 57.1357 -2.85057 4.66267 0
M  V30 571 H 54.2297 -0.461299 0.686391 0
M  V30 572 H 56.7757 -0.232991 1.68093 0
M  V30 573 H 55.5477 -0.864357 3.81634 0
M  V30 574 H 55.1707 -2.44005 3.13923 0
M  V30 575 N 56.1678 -1.49265 -0.50573 0
M  V30 576 C 57.5788 -1.51769 -1.08734 0
M  V30 577 C 57.9298 -0.301192 -1.93874 0
M  V30 578 O 57.0548 0.589456 -2.08217 0
M  V30 579 C 57.6498 -2.75017 -1.97867 0
M  V30 580 C 56.2088 -2.80314 -2.51199 0
M  V30 581 C 55.3558 -2.4562 -1.28709 0
M  V30 582 H 58.3068 -1.56031 -0.289855 0
M  V30 583 H 58.3278 -2.5491 -2.82491 0
M  V30 584 H 57.8398 -3.63539 -1.35873 0
M  V30 585 H 55.9408 -1.96061 -3.16845 0
M  V30 586 H 56.0538 -3.82366 -2.88675 0
M  V30 587 H 54.4178 -1.97297 -1.61078 0
M  V30 588 H 55.2008 -3.36411 -0.6843 0
M  V30 589 N 57.6459 0.756429 -1.3826 0
M  V30 590 C 58.8939 1.51248 -1.34047 0
M  V30 591 C 59.2149 1.94875 0.0698372 0
M  V30 592 O 58.4849 1.67436 1.01696 0
M  V30 593 H 57.0649 0.561018 -0.493222 0
M  V30 594 H 59.7269 0.899347 -1.7291 0
M  V30 595 H 58.8229 2.40472 -1.98947 0
M  V30 596 N 59.124 1.23083 0.984299 0
M  V30 597 C 60.087 1.00979 2.05757 0
M  V30 598 C 61.087 -0.0269573 1.60777 0
M  V30 599 O 62.277 0.212403 1.729 0
M  V30 600 C 59.409 0.527072 3.36801 0
M  V30 601 H 60.602 1.9622 2.26799 0
M  V30 602 H 58.155 1.05072 1.15714 0
M  V30 603 H 58.89 -0.429294 3.21446 0
M  V30 604 H 58.675 1.27515 3.70786 0
M  V30 605 H 60.165 0.392942 4.15747 0
M  V30 606 N 60.6021 -1.18246 1.0419 0
M  V30 607 C 61.5651 -2.20128 0.638452 0
M  V30 608 C 62.5651 -1.57885 -0.304805 0
M  V30 609 O 63.7551 -1.73967 -0.0900369 0
M  V30 610 C 60.8871 -3.4084 -0.0637751 0
M  V30 611 H 62.0801 -2.57336 1.54007 0
M  V30 612 H 59.6331 -1.32152 0.834598 0
M  V30 613 H 60.3681 -3.09166 -0.979136 0
M  V30 614 H 60.1531 -3.8726 0.614198 0
M  V30 615 H 61.6431 -4.16274 -0.332512 0
M  V30 616 N 62.0802 -0.821533 -1.34494 0
M  V30 617 C 63.0432 -0.247847 -2.27856 0
M  V30 618 C 64.0432 0.573453 -1.50227 0
M  V30 619 O 65.2332 0.389759 -1.69784 0
M  V30 620 C 62.3652 0.652698 -3.34593 0
M  V30 621 H 63.5582 -1.07146 -2.80107 0
M  V30 622 H 61.1112 -0.593291 -1.44602 0
M  V30 623 H 61.8462 1.49943 -2.87555 0
M  V30 624 H 61.6312 0.065292 -3.92046 0
M  V30 625 H 63.1212 1.04793 -4.04238 0
M  V30 626 N 63.5583 1.46682 -0.576371 0
M  V30 627 C 64.8063 2.02013 -0.0594163 0
M  V30 628 C 65.1273 1.45101 1.30271 0
M  V30 629 O 64.3973 0.633317 1.8538 0
M  V30 630 H 62.9773 0.746759 -0.0189745 0
M  V30 631 H 65.6393 1.79862 -0.750717 0
M  V30 632 H 64.7353 3.12097 0.014345 0
M  V30 633 N 65.0364 0.313813 1.54444 0
M  V30 634 C 65.9664 -0.549454 2.26943 0
M  V30 635 C 66.9474 -1.12741 1.27372 0
M  V30 636 O 68.1324 -1.15436 1.56167 0
M  V30 637 C 65.2624 -1.71523 3.01989 0
M  V30 638 C 64.2164 -1.26703 4.08816 0
M  V30 639 C 63.5424 -2.51898 4.71647 0
M  V30 640 C 64.8424 -0.388962 5.2085 0
M  V30 641 H 66.5364 0.0552661 2.99349 0
M  V30 642 H 64.0824 0.0280207 1.43973 0
M  V30 643 H 66.0354 -2.32535 3.51433 0
M  V30 644 H 64.7594 -2.34639 2.27183 0
M  V30 645 H 63.4184 -0.679896 3.6024 0
M  V30 646 H 63.0664 -3.13356 3.93468 0
M  V30 647 H 62.7664 -2.22605 5.43802 0
M  V30 648 H 64.2904 -3.1369 5.23861 0
M  V30 649 H 65.7044 -0.905107 5.6611 0
M  V30 650 H 64.1014 -0.18924 5.99802 0
M  V30 651 H 65.1714 0.582699 4.81386 0
M  V30 652 N 66.5145 -1.57545 0.0417849 0
M  V30 653 C 67.7395 -1.97035 -0.647455 0
M  V30 654 C 68.1645 -0.918775 -1.64135 0
M  V30 655 O 67.5225 0.119006 -1.80909 0
M  V30 656 C 67.5705 -3.35609 -1.31905 0
M  V30 657 O 66.6745 -3.3287 -2.43457 0
M  V30 658 H 66.0155 -0.64211 -0.169086 0
M  V30 659 H 68.5455 -2.04318 0.107399 0
M  V30 660 H 68.5555 -3.72126 -1.67291 0
M  V30 661 H 67.2305 -4.11685 -0.590586 0
M  V30 662 H 65.8075 -3.08087 -2.10088 0
M  V30 663 N 67.9926 0.231505 -1.5589 0
M  V30 664 C 68.9226 1.29022 -1.94617 0
M  V30 665 C 69.9036 1.4941 -0.813067 0
M  V30 666 O 71.0886 1.6176 -1.07459 0
M  V30 667 C 68.2186 2.64199 -2.25424 0
M  V30 668 C 67.1726 2.58484 -3.41131 0
M  V30 669 C 66.4986 3.97599 -3.57518 0
M  V30 670 C 67.7986 2.1413 -4.76388 0
M  V30 671 H 69.4926 0.968563 -2.83301 0
M  V30 672 H 67.0386 0.464479 -1.36303 0
M  V30 673 H 68.9916 3.38413 -2.51107 0
M  V30 674 H 67.7156 2.98032 -1.33583 0
M  V30 675 H 66.3746 1.86727 -3.15481 0
M  V30 676 H 66.0226 4.28723 -2.6307 0
M  V30 677 H 65.7226 3.94659 -4.35337 0
M  V30 678 H 67.2466 4.7349 -3.85538 0
M  V30 679 H 68.6606 2.78083 -5.01341 0
M  V30 680 H 67.0576 2.2227 -5.57419 0
M  V30 681 H 68.1276 1.09331 -4.72414 0
M  V30 682 N 69.4707 1.49531 0.497807 0
M  V30 683 C 70.4207 1.62829 1.59596 0
M  V30 684 C 71.4047 0.483824 1.53453 0
M  V30 685 O 72.5967 0.736937 1.60929 0
M  V30 686 C 69.7257 1.7011 2.98191 0
M  V30 687 C 68.8117 2.90144 3.09317 0
M  V30 688 N 69.2027 4.1418 2.90324 0
M  V30 689 C 67.5007 2.88148 3.40422 0
M  V30 690 C 68.2017 4.94886 3.05717 0
M  V30 691 N 67.1777 4.28314 3.34736 0
M  V30 692 H 70.9797 2.56446 1.4357 0
M  V30 693 H 68.4937 1.46347 0.704001 0
M  V30 694 H 70.4907 1.77735 3.77115 0
M  V30 695 H 69.1507 0.776315 3.15283 0
M  V30 696 H 70.1617 4.44109 2.66436 0
M  V30 697 H 66.8387 2.05061 3.63671 0
M  V30 698 H 68.2287 6.03432 2.95499 0
M  V30 699 N 70.9488 -0.749086 1.3866 0
M  V30 700 C 72.3598 -1.32664 1.31366 0
M  V30 701 C 72.7108 -1.96179 -0.028484 0
M  V30 702 O 71.8358 -1.9537 -0.93057 0
M  V30 703 C 72.4308 -2.41219 2.37905 0
M  V30 704 C 70.9898 -2.94684 2.34176 0
M  V30 705 C 70.1368 -1.68108 2.20533 0
M  V30 706 H 73.0878 -0.547628 1.48952 0
M  V30 707 H 73.1088 -3.21268 2.0388 0
M  V30 708 H 72.6208 -1.94962 3.35576 0
M  V30 709 H 70.7218 -3.45258 1.401 0
M  V30 710 H 70.8348 -3.48757 3.2849 0
M  V30 711 H 69.1988 -1.91907 1.67463 0
M  V30 712 H 69.9818 -1.23923 3.20153 0
M  V30 713 N 72.4269 -1.23603 -0.977757 0
M  V30 714 C 73.6549 -1.09646 -1.75458 0
M  V30 715 C 74.0699 0.351859 -1.85492 0
M  V30 716 O 73.4269 1.24327 -1.336 0
M  V30 717 C 73.4779 -1.71895 -3.18016 0
M  V30 718 O 73.1989 -3.11063 -3.08498 0
M  V30 719 C 74.6999 -1.63415 -4.12081 0
M  V30 720 H 71.9199 -0.38359 -0.550545 0
M  V30 721 H 74.4639 -1.63507 -1.22824 0
M  V30 722 H 72.6189 -1.22061 -3.67668 0
M  V30 723 H 73.0329 -3.41305 -3.9826 0
M  V30 724 H 74.5069 -2.11669 -5.09804 0
M  V30 725 H 74.9839 -0.593462 -4.35172 0
M  V30 726 H 75.5899 -2.12628 -3.68334 0
M  V30 727 N 73.905 1.17692 -1.04816 0
M  V30 728 C 75.135 1.91508 -0.775128 0
M  V30 729 C 75.543 1.76844 0.67253 0
M  V30 730 O 74.886 1.10057 1.47082 0
M  V30 731 C 74.948 3.43167 -1.0713 0
M  V30 732 C 74.612 3.81612 -2.51438 0
M  V30 733 C 75.609 3.84772 -3.49638 0
M  V30 734 C 73.294 4.12687 -2.86348 0
M  V30 735 C 75.288 4.18469 -4.80794 0
M  V30 736 C 72.975 4.46053 -4.17708 0
M  V30 737 C 73.973 4.48921 -5.14741 0
M  V30 738 O 73.661 4.81504 -6.43746 0
M  V30 739 H 73.393 0.614575 -0.281555 0
M  V30 740 H 75.947 1.50206 -1.40098 0
M  V30 741 H 74.177 3.84745 -0.388342 0
M  V30 742 H 75.866 3.98239 -0.784883 0
M  V30 743 H 76.632 3.60893 -3.24008 0
M  V30 744 H 72.511 4.09627 -2.11486 0
M  V30 745 H 76.055 4.20623 -5.56527 0
M  V30 746 H 71.952 4.69393 -4.43103 0
M  V30 747 H 72.72 4.99377 -6.4851 0
M  V30 748 N 75.3831 0.828654 1.34056 0
M  V30 749 C 76.6301 0.419458 1.98108 0
M  V30 750 C 76.9581 -1.01886 1.65679 0
M  V30 751 O 76.2131 -1.72539 0.923512 0
M  V30 752 C 76.5121 0.575226 3.52741 0
M  V30 753 C 76.1781 1.98012 4.05095 0
M  V30 754 C 74.8401 2.36442 4.19104 0
M  V30 755 C 77.1921 2.89824 4.33188 0
M  V30 756 C 74.5201 3.66009 4.58535 0
M  V30 757 C 76.8721 4.1886 4.74066 0
M  V30 758 C 75.5361 4.5726 4.86281 0
M  V30 759 H 74.8061 0.153491 0.724929 0
M  V30 760 H 77.4531 1.05371 1.59904 0
M  V30 761 H 75.7581 -0.142385 3.91541 0
M  V30 762 H 77.4551 0.239057 4.00287 0
M  V30 763 H 74.0451 1.67162 3.94658 0
M  V30 764 H 78.2291 2.61375 4.21897 0
M  V30 765 H 73.4851 3.95579 4.66184 0
M  V30 766 H 77.6591 4.90086 4.94761 0
M  V30 767 H 75.2861 5.57707 5.16592 0
M  V30 768 N 76.8612 -1.46375 0.584142 0
M  V30 769 C 77.8092 -2.32042 -0.161047 0
M  V30 770 C 78.8032 -1.44569 -0.882966 0
M  V30 771 O 80.0092 -1.61186 -0.801191 0
M  V30 772 H 76.3842 -0.748659 -0.0708033 0
M  V30 773 H 78.3552 -2.92704 0.580269 0
M  V30 774 C 77.1042 -3.27762 -1.1605 0
M  V30 775 H 76.4272 -3.95051 -0.614419 0
M  V30 776 H 77.8672 -3.90481 -1.65228 0
M  V30 777 C 76.3262 -2.53218 -2.22221 0
M  V30 778 O 76.8562 -2.29628 -3.29597 0
M  V30 779 N 75.0622 -2.13756 -1.96868 0
M  V30 780 H 74.6092 -2.33142 -1.09557 0
M  V30 781 H 74.5672 -1.642 -2.68115 0
M  V30 782 N 78.3393 -0.321999 -1.54275 0
M  V30 783 C 79.2693 0.537411 -2.27231 0
M  V30 784 C 80.2503 1.12064 -1.27968 0
M  V30 785 O 81.4353 1.14606 -1.56777 0
M  V30 786 C 78.5653 1.69919 -3.02894 0
M  V30 787 C 77.5193 1.24534 -4.09482 0
M  V30 788 C 76.8453 2.49394 -4.72977 0
M  V30 789 C 78.1453 0.361335 -5.21049 0
M  V30 790 H 79.8393 -0.0711406 -2.99315 0
M  V30 791 H 77.3853 -0.0356555 -1.43956 0
M  V30 792 H 79.3383 2.30668 -3.52662 0
M  V30 793 H 78.0623 2.33431 -2.28424 0
M  V30 794 H 76.7213 0.660782 -3.60596 0
M  V30 795 H 76.3693 3.11265 -3.95124 0
M  V30 796 H 76.0693 2.19718 -5.44975 0
M  V30 797 H 77.5933 3.10908 -5.25517 0
M  V30 798 H 79.0073 0.875072 -5.66582 0
M  V30 799 H 77.4043 0.157428 -5.99893 0
M  V30 800 H 78.4743 -0.60822 -4.8107 0
M  V30 801 N 79.8174 1.5752 -0.0501392 0
M  V30 802 C 80.7804 2.1037 0.909786 0
M  V30 803 C 81.7804 1.02308 1.24056 0
M  V30 804 O 82.9704 1.28385 1.17741 0
M  V30 805 C 80.1024 2.58708 2.21998 0
M  V30 806 H 81.2954 2.96479 0.451665 0
M  V30 807 H 78.8484 1.55038 0.198248 0
M  V30 808 H 79.5834 1.75989 2.72394 0
M  V30 809 H 79.3684 3.37675 1.99295 0
M  V30 810 H 80.8584 2.99747 2.9076 0
M  V30 811 N 81.2955 -0.223234 1.56011 0
M  V30 812 C 82.2055 -1.29766 1.95443 0
M  V30 813 C 83.2215 -1.51373 0.858028 0
M  V30 814 O 84.3975 -1.64536 1.16146 0
M  V30 815 C 81.4625 -2.62772 2.26167 0
M  V30 816 C 80.5235 -2.49482 3.49367 0
M  V30 817 C 79.7565 -3.76145 3.78616 0
M  V30 818 O 79.9795 -4.79087 3.09568 0
M  V30 819 O 78.9135 -3.73358 4.72109 0
M  V30 820 H 82.7395 -0.99309 2.87004 0
M  V30 821 H 80.3245 -0.425958 1.43199 0
M  V30 822 H 82.2065 -3.41327 2.47131 0
M  V30 823 H 80.8815 -2.92913 1.37781 0
M  V30 824 H 79.7885 -1.69133 3.33684 0
M  V30 825 H 81.1215 -2.2428 4.38131 0
M  V30 826 N 82.7736 -1.49793 -0.48987 0
M  V30 827 C 83.7366 -1.66752 -1.57246 0
M  V30 828 C 84.7366 -0.538867 -1.51502 0
M  V30 829 O 85.9266 -0.805545 -1.54456 0
M  V30 830 C 83.0586 -1.67528 -2.96896 0
M  V30 831 H 84.2516 -2.63321 -1.43534 0
M  V30 832 H 81.8046 -1.38992 -0.714914 0
M  V30 833 H 82.5396 -0.725837 -3.16073 0
M  V30 834 H 82.3246 -2.49504 -3.02473 0
M  V30 835 H 83.8146 -1.82667 -3.7553 0
M  V30 836 N 84.2517 0.741722 -1.39055 0
M  V30 837 C 85.2147 1.83733 -1.37021 0
M  V30 838 C 86.2147 1.58542 -0.268534 0
M  V30 839 O 87.4047 1.66067 -0.526076 0
M  V30 840 C 84.5367 3.2141 -1.13617 0
M  V30 841 H 85.7297 1.86941 -2.34506 0
M  V30 842 H 83.2827 0.944676 -1.24521 0
M  V30 843 H 84.0177 3.23865 -0.167863 0
M  V30 844 H 83.8027 3.4109 -1.93391 0
M  V30 845 H 85.2927 4.01477 -1.14918 0
M  V30 846 N 85.7298 1.2412 0.971189 0
M  V30 847 C 87.1458 1.00584 1.23916 0
M  V30 848 C 87.3458 -0.287481 1.99439 0
M  V30 849 O 86.4018 -1.00454 2.31658 0
M  V30 850 C 87.7148 2.21864 2.0297 0
M  V30 851 C 89.2628 2.26452 2.16076 0
M  V30 852 C 89.7378 3.47343 2.98524 0
M  V30 853 N 91.2288 3.47639 3.06107 0
M  V30 854 C 91.9638 4.37837 3.70251 0
M  V30 855 N 91.4598 5.38286 4.36142 0
M  V30 856 N 93.2528 4.25558 3.67228 0
M  V30 857 H 85.4038 2.07236 0.465499 0
M  V30 858 H 87.6668 0.909236 0.268315 0
M  V30 859 H 87.3728 3.15771 1.54861 0
M  V30 860 H 87.2468 2.23698 3.03709 0
M  V30 861 H 89.6338 1.33078 2.6339 0
M  V30 862 H 89.7148 2.28645 1.14696 0
M  V30 863 H 89.3588 4.41029 2.51905 0
M  V30 864 H 89.2888 3.42393 4.00093 0
M  V30 865 H 91.7798 2.74966 2.59233 0
M  V30 866 H 92.0928 6.03352 4.82894 0
M  V30 867 H 90.4378 5.42176 4.34822 0
M  V30 868 H 93.6288 3.46322 3.14927 0
M  V30 869 H 93.8018 4.96054 4.16935 0
M  V30 870 N 87.2079 -1.17134 1.05439 0
M  V30 871 C 88.4569 -1.86791 0.761049 0
M  V30 872 C 88.7699 -1.82072 -0.714795 0
M  V30 873 O 89.9759 -2.47223 -1.12218 0
M  V30 874 C 88.4319 -3.35166 1.31117 0
M  V30 875 C 88.0399 -3.48381 2.81664 0
M  V30 876 C 89.7839 -4.10134 1.09499 0
M  V30 877 C 87.6909 -4.90793 3.29964 0
M  V30 878 H 86.6209 -0.699681 0.281002 0
M  V30 879 H 89.2719 -1.3226 1.27199 0
M  V30 880 H 87.6539 -3.8925 0.72803 0
M  V30 881 H 88.8279 -3.04502 3.45855 0
M  V30 882 H 87.1429 -2.86836 3.01851 0
M  V30 883 H 89.7399 -5.152 1.43084 0
M  V30 884 H 90.0829 -4.16287 0.0328772 0
M  V30 885 H 90.6159 -3.62264 1.64346 0
M  V30 886 H 87.3549 -4.89816 4.35616 0
M  V30 887 H 86.8749 -5.35333 2.70516 0
M  V30 888 H 88.5539 -5.59573 3.24787 0
M  V30 889 N 88.686 -0.835752 -1.33615 0
M  V30 890 C 89.932 -0.439817 -1.98588 0
M  V30 891 C 90.287 0.989274 -1.65019 0
M  V30 892 O 89.58 1.68168 -0.918159 0
M  V30 893 C 89.774 -0.593925 -3.52431 0
M  V30 894 C 89.603 -2.03644 -4.00948 0
M  V30 895 C 88.373 -2.67103 -4.28934 0
M  V30 896 C 90.571 -3.00479 -4.17393 0
M  V30 897 N 88.553 -4.02462 -4.6357 0
M  V30 898 C 89.924 -4.20777 -4.55353 0
M  V30 899 C 91.979 -2.96926 -3.99674 0
M  V30 900 C 90.682 -5.37994 -4.77447 0
M  V30 901 C 92.708 -4.1337 -4.22941 0
M  V30 902 C 92.07 -5.32422 -4.61201 0
M  V30 903 H 88.169 -0.209303 -0.75347 0
M  V30 904 H 90.753 -1.08316 -1.61789 0
M  V30 905 H 88.924 0.019599 -3.88395 0
M  V30 906 H 90.656 -0.169738 -4.04344 0
M  V30 907 H 87.411 -2.18259 -4.20309 0
M  V30 908 H 87.835 -4.72232 -4.85104 0
M  V30 909 H 92.477 -2.06015 -3.69212 0
M  V30 910 H 90.195 -6.29451 -5.06771 0
M  V30 911 H 93.781 -4.12034 -4.10754 0
M  V30 912 H 92.661 -6.21027 -4.78848 0
M  V30 913 N 90.1641 1.46063 -0.591896 0
M  V30 914 C 91.1271 2.28854 0.125973 0
M  V30 915 C 92.1271 1.38903 0.810107 0
M  V30 916 O 93.3171 1.61186 0.66066 0
M  V30 917 C 90.4491 3.19526 1.1881 0
M  V30 918 H 91.6421 2.93802 -0.601717 0
M  V30 919 H 89.1951 1.52325 -0.350254 0
M  V30 920 H 89.9301 2.59345 1.94707 0
M  V30 921 H 89.7151 3.85766 0.701936 0
M  V30 922 H 91.2051 3.81817 1.69132 0
M  V30 923 N 91.6422 0.330177 1.54103 0
M  V30 924 C 92.8702 -0.272179 2.05102 0
M  V30 925 C 93.2852 -1.45267 1.20595 0
M  V30 926 O 92.6422 -1.8094 0.238144 0
M  V30 927 C 92.6932 -0.70023 3.54653 0
M  V30 928 O 92.4142 0.433301 4.35952 0
M  V30 929 C 93.9152 -1.3647 4.21771 0
M  V30 930 H 91.1352 -0.0549159 0.668749 0
M  V30 931 H 93.6792 0.478285 1.98828 0
M  V30 932 H 91.8342 -1.40066 3.61193 0
M  V30 933 H 92.2482 0.0947539 5.24414 0
M  V30 934 H 93.7222 -1.61509 5.27843 0
M  V30 935 H 94.1992 -2.31409 3.73292 0
M  V30 936 H 94.8052 -0.706675 4.19388 0
M  V30 937 N 93.1203 -1.57491 0.0584922 0
M  V30 938 C 94.0833 -2.1085 -0.898617 0
M  V30 939 C 95.0833 -1.02964 -1.23511 0
M  V30 940 O 96.2733 -1.29007 -1.17059 0
M  V30 941 C 93.4053 -2.59881 -2.20623 0
M  V30 942 H 94.5983 -2.96715 -0.435936 0
M  V30 943 H 92.1513 -1.55141 -0.190023 0
M  V30 944 H 92.8863 -1.77431 -2.71457 0
M  V30 945 H 92.6713 -3.38727 -1.97501 0
M  V30 946 H 94.1613 -3.01285 -2.89166 0
M  V30 947 N 94.5984 0.214957 -1.56127 0
M  V30 948 C 95.8264 0.955092 -1.83536 0
M  V30 949 C 96.2414 1.77677 -0.638472 0
M  V30 950 O 95.5984 1.78219 0.392968 0
M  V30 951 C 95.6494 1.86734 -3.09536 0
M  V30 952 O 95.3704 1.07887 -4.24608 0
M  V30 953 C 96.8714 2.72082 -3.4998 0
M  V30 954 H 94.0914 0.279611 -0.609966 0
M  V30 955 H 96.6354 0.228197 -2.03223 0
M  V30 956 H 94.7904 2.5481 -2.91806 0
M  V30 957 H 95.2044 1.69872 -4.9623 0
M  V30 958 H 96.6784 3.31782 -4.41163 0
M  V30 959 H 97.1554 3.44806 -2.7204 0
M  V30 960 H 97.7614 2.09409 -3.70173 0
M  V30 961 N 96.0765 1.50051 0.48192 0
M  V30 962 C 97.3165 1.62128 1.24474 0
M  V30 963 C 97.6805 0.309742 1.89485 0
M  V30 964 O 98.8815 0.305854 2.67054 0
M  V30 965 C 97.1525 2.76151 2.26882 0
M  V30 966 S 98.7115 3.08297 3.12247 0
M  V30 967 H 95.5295 0.571661 0.422759 0
M  V30 968 H 98.1315 1.87791 0.54359 0
M  V30 969 H 96.8355 3.69942 1.77683 0
M  V30 970 H 96.3665 2.52541 3.0164 0
M  V30 971 H 98.3815 2.51287 4.27866 0
M  V30 972 N 97.5546 -0.734337 1.39446 0
M  V30 973 C 98.8026 -1.49096 1.36436 0
M  V30 974 C 99.1236 -1.94961 -0.0388255 0
M  V30 975 O 98.3936 -1.69033 -0.990191 0
M  V30 976 H 96.9736 -0.5531 0.502085 0
M  V30 977 H 99.6356 -0.871725 1.74319 0
M  V30 978 H 98.7316 -2.37276 2.02747 0
M  V30 979 N 99.0327 -1.24633 -0.964593 0
M  V30 980 C 99.9427 -1.05859 -2.09359 0
M  V30 981 C 100.959 0.00148855 -1.74 0
M  V30 982 O 102.135 -0.197346 -2.00431 0
M  V30 983 C 99.1997 -0.668879 -3.40187 0
M  V30 984 C 98.2607 -1.80578 -3.89474 0
M  V30 985 C 97.4937 -1.43457 -5.14058 0
M  V30 986 O 97.7167 -0.325775 -5.69469 0
M  V30 987 O 96.6507 -2.2613 -5.57807 0
M  V30 988 H 100.477 -2.00516 -2.28094 0
M  V30 989 H 98.0617 -1.03481 -1.0776 0
M  V30 990 H 99.9437 -0.463211 -4.18846 0
M  V30 991 H 98.6187 0.248536 -3.22744 0
M  V30 992 H 97.5257 -2.06623 -3.11862 0
M  V30 993 H 98.8587 -2.70208 -4.11398 0
M  V30 994 N 100.511 1.16574 -1.06058 0
M  V30 995 C 101.927 1.3904 -0.783585 0
M  V30 996 C 102.127 1.91784 0.618145 0
M  V30 997 O 101.183 2.11511 1.37911 0
M  V30 998 C 102.496 2.37329 -1.84649 0
M  V30 999 C 104.044 2.51018 -1.86973 0
M  V30 1000 C 104.519 3.52588 -2.92311 0
M  V30 1001 N 106.01 3.60113 -2.91329 0
M  V30 1002 C 106.745 4.38486 -3.69482 0
M  V30 1003 N 106.241 5.20302 -4.57447 0
M  V30 1004 N 108.034 4.33446 -3.57885 0
M  V30 1005 H 100.185 0.806725 -1.96483 0
M  V30 1006 H 102.448 0.417117 -0.851303 0
M  V30 1007 H 102.154 2.05663 -2.85299 0
M  V30 1008 H 102.028 3.36946 -1.6955 0
M  V30 1009 H 104.415 2.81989 -0.869827 0
M  V30 1010 H 104.496 1.51445 -2.0615 0
M  V30 1011 H 104.14 3.22354 -3.92492 0
M  V30 1012 H 104.07 4.51886 -2.70383 0
M  V30 1013 H 106.561 3.01707 -2.27555 0
M  V30 1014 H 106.874 5.77311 -5.13743 0
M  V30 1015 H 105.219 5.19653 -4.61503 0
M  V30 1016 H 108.41 3.68586 -2.88551 0
M  V30 1017 H 108.583 4.94279 -4.19037 0
M  V30 1018 N 101.989 0.842826 1.3317 0
M  V30 1019 C 103.237 0.439577 1.97262 0
M  V30 1020 C 103.558 -1.00548 1.67078 0
M  V30 1021 O 102.828 -1.70098 0.971779 0
M  V30 1022 H 101.408 0.159558 0.72976 0
M  V30 1023 H 104.07 1.07665 1.62463 0
M  V30 1024 H 103.166 0.574886 3.0676 0
M  V30 1025 N 103.467 -1.45747 0.599634 0
M  V30 1026 C 104.878 -1.85853 0.177681 0
M  V30 1027 C 105.229 -1.50102 -1.26348 0
M  V30 1028 O 104.354 -0.923905 -1.95686 0
M  V30 1029 C 104.949 -3.37326 0.315688 0
M  V30 1030 C 103.508 -3.76365 -0.0515144 0
M  V30 1031 C 102.655 -2.69722 0.643822 0
M  V30 1032 H 105.606 -1.36661 0.806814 0
M  V30 1033 H 105.627 -3.77778 -0.454321 0
M  V30 1034 H 105.139 -3.63315 1.36468 0
M  V30 1035 H 103.24 -3.55993 -1.09999 0
M  V30 1036 H 103.353 -4.77916 0.336594 0
M  V30 1037 H 101.717 -2.54567 0.0822881 0
M  V30 1038 H 102.5 -2.98549 1.6948 0
M  V30 1039 N 104.945 -0.338344 -1.53925 0
M  V30 1040 C 106.193 0.259245 -2.0043 0
M  V30 1041 C 106.514 1.51484 -1.22791 0
M  V30 1042 O 105.784 1.93037 -0.33368 0
M  V30 1043 H 104.364 0.0987845 -0.740439 0
M  V30 1044 H 107.026 -0.458302 -1.89435 0
M  V30 1045 H 106.122 0.505334 -3.07982 0
M  V30 1046 N 106.423 1.57458 -0.0668435 0
M  V30 1047 C 107.333 2.15937 0.916975 0
M  V30 1048 C 108.349 1.12123 1.33058 0
M  V30 1049 O 109.525 1.44366 1.40429 0
M  V30 1050 C 106.59 2.70547 2.16807 0
M  V30 1051 C 105.651 3.89215 1.81135 0
M  V30 1052 C 104.884 4.41211 3.0028 0
M  V30 1053 O 105.107 3.92225 4.14144 0
M  V30 1054 O 104.041 5.32605 2.80384 0
M  V30 1055 H 107.867 3.00354 0.449561 0
M  V30 1056 H 105.452 1.48584 0.155949 0
M  V30 1057 H 107.334 3.0557 2.90181 0
M  V30 1058 H 106.009 1.89192 2.62656 0
M  V30 1059 H 104.916 3.59054 1.05028 0
M  V30 1060 H 106.249 4.71848 1.40073 0
M  V30 1061 N 107.901 -0.206675 1.56239 0
M  V30 1062 C 109.149 -0.927007 1.79586 0
M  V30 1063 C 109.47 -1.8427 0.637929 0
M  V30 1064 O 108.74 -1.92849 -0.344398 0
M  V30 1065 H 107.32 -0.345292 0.662407 0
M  V30 1066 H 109.982 -0.21496 1.93711 0
M  V30 1067 H 109.078 -1.52501 2.72305 0
M  V30 1068 N 109.379 -1.50304 -0.473955 0
M  V30 1069 C 110.795 -1.37667 -0.807466 0
M  V30 1070 C 110.995 -0.430555 -1.96846 0
M  V30 1071 O 110.051 0.127874 -2.52176 0
M  V30 1072 C 111.364 -2.78974 -1.12223 0
M  V30 1073 C 112.912 -2.87868 -1.22885 0
M  V30 1074 C 113.387 -4.30003 -1.57676 0
M  V30 1075 N 114.878 -4.3294 -1.64673 0
M  V30 1076 C 115.613 -5.3991 -1.93091 0
M  V30 1077 N 115.109 -6.57092 -2.1955 0
M  V30 1078 N 116.902 -5.27351 -1.94569 0
M  V30 1079 H 109.053 -2.10394 0.291212 0
M  V30 1080 H 111.316 -0.945575 0.0677609 0
M  V30 1081 H 111.022 -3.50031 -0.342229 0
M  V30 1082 H 110.896 -3.16038 -2.05913 0
M  V30 1083 H 113.283 -2.17032 -1.99953 0
M  V30 1084 H 113.364 -2.54352 -0.271814 0
M  V30 1085 H 113.008 -5.01375 -0.81149 0
M  V30 1086 H 112.938 -4.61004 -2.54525 0
M  V30 1087 H 115.429 -3.48441 -1.46277 0
M  V30 1088 H 115.742 -7.34425 -2.405 0
M  V30 1089 H 114.087 -6.60272 -2.16948 0
M  V30 1090 H 117.278 -4.34801 -1.73394 0
M  V30 1091 H 117.451 -6.10805 -2.16381 0
M  V30 1092 N 110.857 0.726932 -1.39834 0
M  V30 1093 C 112.268 1.30558 -1.3346 0
M  V30 1094 C 112.619 1.962 -0.00273003 0
M  V30 1095 O 111.744 1.96826 0.899371 0
M  V30 1096 C 112.339 2.37404 -2.41713 0
M  V30 1097 C 110.898 2.90921 -2.38835 0
M  V30 1098 C 110.045 1.64578 -2.2318 0
M  V30 1099 H 112.996 0.523862 -1.49804 0
M  V30 1100 H 113.017 3.17984 -2.08966 0
M  V30 1101 H 112.529 1.89599 -3.38635 0
M  V30 1102 H 110.63 3.42985 -1.45575 0
M  V30 1103 H 110.743 3.43487 -3.33997 0
M  V30 1104 H 109.107 1.89219 -1.70494 0
M  V30 1105 H 109.89 1.18814 -3.22084 0
M  V30 1106 N 112.336 1.25143 0.95797 0
M  V30 1107 C 113.268 1.01023 2.05735 0
M  V30 1108 C 114.281 -0.0236902 1.62783 0
M  V30 1109 O 115.47 0.21448 1.77207 0
M  V30 1110 C 112.57 0.504595 3.35122 0
M  V30 1111 C 111.743 1.6039 4.06932 0
M  V30 1112 C 110.802 1.09922 5.14591 0
M  V30 1113 O 109.828 1.79293 5.40225 0
M  V30 1114 N 111.03 -0.0612545 5.80468 0
M  V30 1115 H 113.795 1.95683 2.26998 0
M  V30 1116 H 111.356 1.16303 1.12629 0
M  V30 1117 H 113.348 0.151516 4.04416 0
M  V30 1118 H 111.918 -0.347989 3.10657 0
M  V30 1119 H 111.138 2.12872 3.31782 0
M  V30 1120 H 112.426 2.34252 4.51667 0
M  V30 1121 H 111.824 -0.640985 5.62057 0
M  V30 1122 H 110.381 -0.355395 6.5083 0
M  V30 1123 N 113.814 -1.1601 1.06675 0
M  V30 1124 C 115.225 -1.68235 0.809565 0
M  V30 1125 C 115.576 -1.8454 -0.666303 0
M  V30 1126 O 114.701 -1.54374 -1.5165 0
M  V30 1127 C 115.296 -3.05585 1.46299 0
M  V30 1128 C 113.855 -3.54915 1.25349 0
M  V30 1129 C 113.002 -2.30804 1.53703 0
M  V30 1130 H 115.953 -1.00318 1.22971 0
M  V30 1131 H 115.974 -3.70174 0.880431 0
M  V30 1132 H 115.486 -2.93686 2.53713 0
M  V30 1133 H 113.587 -3.72067 0.199261 0
M  V30 1134 H 113.7 -4.36774 1.9689 0
M  V30 1135 H 112.064 -2.36007 0.957739 0
M  V30 1136 H 112.847 -2.21499 2.62284 0
M  V30 1137 N 115.292 -0.849877 -1.32721 0
M  V30 1138 C 116.202 -0.293791 -2.32753 0
M  V30 1139 C 117.218 0.585906 -1.63839 0
M  V30 1140 O 118.394 0.487413 -1.95413 0
M  V30 1141 C 115.459 0.512752 -3.42887 0
M  V30 1142 C 114.52 -0.39252 -4.27502 0
M  V30 1143 C 113.753 0.375625 -5.32377 0
M  V30 1144 O 113.976 1.60613 -5.4732 0
M  V30 1145 O 112.91 -0.256094 -6.01355 0
M  V30 1146 H 116.736 -1.12242 -2.82197 0
M  V30 1147 H 114.321 -0.612685 -1.36259 0
M  V30 1148 H 116.203 0.970704 -4.10067 0
M  V30 1149 H 114.878 1.31826 -2.95641 0
M  V30 1150 H 113.785 -0.898547 -3.63149 0
M  V30 1151 H 115.118 -1.16309 -4.7826 0
M  V30 1152 N 116.77 1.45427 -0.607355 0
M  V30 1153 C 117.7 2.3329 0.0989352 0
M  V30 1154 C 118.681 1.46816 0.859007 0
M  V30 1155 O 119.866 1.75588 0.829604 0
M  V30 1156 C 116.996 3.29518 1.09705 0
M  V30 1157 C 115.95 4.25626 0.450206 0
M  V30 1158 C 115.276 5.11542 1.55655 0
M  V30 1159 C 116.576 5.18505 -0.628455 0
M  V30 1160 H 118.27 2.92595 -0.634716 0
M  V30 1161 H 115.816 1.40696 -0.306681 0
M  V30 1162 H 117.769 3.89855 1.59971 0
M  V30 1163 H 116.493 2.68372 1.86129 0
M  V30 1164 H 115.152 3.66586 -0.0315886 0
M  V30 1165 H 114.8 4.46765 2.31107 0
M  V30 1166 H 114.5 5.76647 1.12925 0
M  V30 1167 H 116.024 5.74748 2.06148 0
M  V30 1168 H 117.438 5.72916 -0.209877 0
M  V30 1169 H 115.835 5.92085 -0.977489 0
M  V30 1170 H 116.905 4.60948 -1.50514 0
M  V30 1171 N 118.248 0.346503 1.53744 0
M  V30 1172 C 119.478 -0.250047 2.05081 0
M  V30 1173 C 119.886 -1.44529 1.22098 0
M  V30 1174 O 119.229 -1.81992 0.249917 0
M  V30 1175 C 119.291 -0.725934 3.52094 0
M  V30 1176 C 118.955 0.350053 4.55657 0
M  V30 1177 C 119.952 1.19372 5.0601 0
M  V30 1178 C 117.637 0.504827 4.99757 0
M  V30 1179 C 119.631 2.17768 5.99046 0
M  V30 1180 C 117.318 1.49218 5.92602 0
M  V30 1181 C 118.316 2.32706 6.42135 0
M  V30 1182 O 118.004 3.2976 7.33153 0
M  V30 1183 H 117.736 -0.0515469 0.674032 0
M  V30 1184 H 120.29 0.497559 1.99282 0
M  V30 1185 H 118.52 -1.52483 3.55367 0
M  V30 1186 H 120.209 -1.24336 3.86388 0
M  V30 1187 H 120.975 1.08525 4.72702 0
M  V30 1188 H 116.854 -0.135178 4.60802 0
M  V30 1189 H 120.398 2.82971 6.37631 0
M  V30 1190 H 116.295 1.6012 6.25325 0
M  V30 1191 H 117.063 3.25265 7.51096 0
M  V30 1192 N 119.726 -1.57421 0.075193 0
M  V30 1193 C 120.966 -1.95495 -0.596757 0
M  V30 1194 C 121.33 -0.954886 -1.66571 0
M  V30 1195 O 122.531 -1.22341 -2.39345 0
M  V30 1196 C 120.802 -3.382 -1.15566 0
M  V30 1197 S 122.361 -3.98254 -1.84226 0
M  V30 1198 H 119.179 -0.683649 -0.195307 0
M  V30 1199 H 121.781 -1.94925 0.149859 0
M  V30 1200 H 120.485 -4.08766 -0.36588 0
M  V30 1201 H 120.016 -3.42321 -1.93856 0
M  V30 1202 H 122.031 -3.85435 -3.12497 0
M  V30 1203 N 121.204 0.198386 -1.56346 0
M  V30 1204 C 122.151 1.24589 -1.94284 0
M  V30 1205 C 123.121 1.454 -0.802997 0
M  V30 1206 O 124.306 1.58588 -1.06087 0
M  V30 1207 C 121.446 2.58631 -2.28482 0
M  V30 1208 C 120.559 2.45426 -3.55514 0
M  V30 1209 C 119.694 3.7215 -3.79049 0
M  V30 1210 C 118.733 3.53763 -4.99518 0
M  V30 1211 N 117.87 4.72491 -5.19323 0
M  V30 1212 H 122.71 0.915356 -2.83593 0
M  V30 1213 H 120.247 0.440629 -1.40346 0
M  V30 1214 H 122.205 3.3672 -2.46324 0
M  V30 1215 H 120.835 2.89734 -1.42317 0
M  V30 1216 H 119.887 1.58652 -3.45737 0
M  V30 1217 H 121.199 2.27772 -4.43758 0
M  V30 1218 H 120.353 4.58679 -3.97113 0
M  V30 1219 H 119.092 3.92754 -2.89129 0
M  V30 1220 H 118.097 2.65619 -4.8138 0
M  V30 1221 H 119.322 3.34607 -5.90944 0
M  V30 1222 H 117.268 4.93365 -4.3235 0
M  V30 1223 H 117.185 4.5765 -6.01741 0
M  V30 1224 H 118.453 5.6038 -5.41843 0
M  V30 1225 N 122.682 1.50554 0.465978 0
M  V30 1226 C 123.612 1.72722 1.57128 0
M  V30 1227 C 124.593 0.576294 1.6004 0
M  V30 1228 O 125.778 0.81598 1.76225 0
M  V30 1229 C 122.908 1.82605 2.95419 0
M  V30 1230 C 121.862 2.97835 3.07373 0
M  V30 1231 C 121.188 2.92867 4.47363 0
M  V30 1232 C 122.488 4.38265 2.84114 0
M  V30 1233 H 124.182 2.65267 1.38829 0
M  V30 1234 H 121.728 1.2765 0.666441 0
M  V30 1235 H 123.681 1.96698 3.72677 0
M  V30 1236 H 122.405 0.866858 3.14886 0
M  V30 1237 H 121.064 2.83401 2.3255 0
M  V30 1238 H 120.712 1.94783 4.63755 0
M  V30 1239 H 120.412 3.70227 4.56296 0
M  V30 1240 H 121.936 3.09015 5.26633 0
M  V30 1241 H 123.35 4.53198 3.51118 0
M  V30 1242 H 121.747 5.17115 3.04487 0
M  V30 1243 H 122.817 4.50281 1.7993 0
M  V30 1244 N 124.16 -0.719506 1.40217 0
M  V30 1245 C 125.406 -1.48152 1.38488 0
M  V30 1246 C 125.739 -1.94195 -0.0141867 0
M  V30 1247 O 125.014 -1.67884 -0.982096 0
M  V30 1248 C 125.297 -2.71035 2.37091 0
M  V30 1249 C 125.15 -2.30912 3.86005 0
M  V30 1250 C 126.469 -3.73182 2.33288 0
M  V30 1251 H 123.588 -0.537395 0.504357 0
M  V30 1252 H 126.23 -0.821472 1.71324 0
M  V30 1253 H 124.38 -3.27352 2.0922 0
M  V30 1254 H 126.052 -1.80107 4.24687 0
M  V30 1255 H 124.295 -1.62958 4.02029 0
M  V30 1256 H 124.966 -3.18978 4.50508 0
M  V30 1257 H 127.442 -3.26485 2.57966 0
M  V30 1258 H 126.318 -4.56806 3.04334 0
M  V30 1259 H 126.579 -4.21202 1.34317 0
M  V30 1260 N 125.638 -1.25649 -0.95132 0
M  V30 1261 C 126.886 -1.10375 -1.69298 0
M  V30 1262 C 127.207 0.355339 -1.91735 0
M  V30 1263 O 126.477 1.25188 -1.50681 0
M  V30 1264 H 125.057 -0.405461 -0.627384 0
M  V30 1265 H 127.719 -1.57823 -1.14358 0
M  V30 1266 H 126.815 -1.61465 -2.67087 0
M  V30 1267 N 127.117 1.15442 -1.07289 0
M  V30 1268 C 128.365 1.85845 -0.794096 0
M  V30 1269 C 128.686 1.82692 0.681809 0
M  V30 1270 O 127.956 1.26741 1.49377 0
M  V30 1271 H 126.536 0.688089 -0.290763 0
M  V30 1272 H 129.198 1.39947 -1.3565 0
M  V30 1273 H 128.294 2.91001 -1.12804 0
M  V30 1274 N 128.595 0.856903 1.32268 0
M  V30 1275 C 130.006 0.515711 1.79436 0
M  V30 1276 C 130.357 -0.966586 1.70738 0
M  V30 1277 O 129.482 -1.75409 1.26731 0
M  V30 1278 C 130.077 0.929335 3.25805 0
M  V30 1279 C 128.636 0.640006 3.70919 0
M  V30 1280 C 127.783 1.12784 2.53328 0
M  V30 1281 H 130.734 1.04389 1.19535 0
M  V30 1282 H 130.755 0.246633 3.797 0
M  V30 1283 H 130.267 2.00821 3.32103 0
M  V30 1284 H 128.368 -0.428051 3.70133 0
M  V30 1285 H 128.481 1.20788 4.63624 0
M  V30 1286 H 126.845 0.548033 2.48734 0
M  V30 1287 H 127.628 2.21387 2.62379 0
M  V30 1288 N 130.073 -1.45103 0.615059 0
M  V30 1289 C 131.301 -2.06553 0.11977 0
M  V30 1290 C 131.716 -1.45842 -1.19898 0
M  V30 1291 O 131.073 -0.575325 -1.73194 0
M  V30 1292 C 131.124 -3.61495 -0.018364 0
M  V30 1293 O 130.845 -4.19942 1.24822 0
M  V30 1294 C 132.346 -4.39947 -0.544237 0
M  V30 1295 H 129.566 -0.667096 0.0722739 0
M  V30 1296 H 132.11 -1.8623 0.84491 0
M  V30 1297 H 130.265 -3.81135 -0.693865 0
M  V30 1298 H 130.679 -5.13204 1.0827 0
M  V30 1299 H 132.153 -5.48838 -0.589953 0
M  V30 1300 H 132.63 -4.10255 -1.56805 0
M  V30 1301 H 133.236 -4.25188 0.0974703 0
M  V30 1302 N 131.551 -0.354651 -1.53558 0
M  V30 1303 C 132.514 0.484566 -2.24019 0
M  V30 1304 C 133.514 1.01861 -1.24422 0
M  V30 1305 O 134.704 0.906097 -1.4878 0
M  V30 1306 C 131.836 1.67615 -2.96847 0
M  V30 1307 H 133.029 -0.131843 -2.9961 0
M  V30 1308 H 130.582 -0.106165 -1.55939 0
M  V30 1309 H 131.317 2.33095 -2.25471 0
M  V30 1310 H 131.102 1.30029 -3.69912 0
M  V30 1311 H 132.592 2.27114 -3.50441 0
M  V30 1312 N 133.029 1.57378 -0.0835403 0
M  V30 1313 C 134.44 1.81261 0.447358 0
M  V30 1314 C 134.791 0.998331 1.68902 0
M  V30 1315 O 133.916 0.224282 2.15235 0
M  V30 1316 C 134.511 3.28767 0.818386 0
M  V30 1317 C 133.07 3.53455 1.29409 0
M  V30 1318 C 132.217 2.75831 0.285024 0
M  V30 1319 H 135.168 1.5566 -0.309115 0
M  V30 1320 H 135.189 3.41459 1.67887 0
M  V30 1321 H 134.701 3.88006 -0.0855019 0
M  V30 1322 H 132.802 2.99534 2.21608 0
M  V30 1323 H 132.915 4.62128 1.2639 0
M  V30 1324 H 131.279 2.42947 0.764767 0
M  V30 1325 H 132.062 3.37813 -0.611341 0
M  V30 1326 N 134.507 -0.190092 1.56449 0
M  V30 1327 C 135.755 -0.907908 1.80559 0
M  V30 1328 C 136.076 -1.83583 0.657438 0
M  V30 1329 O 135.346 -1.93203 -0.323924 0
M  V30 1330 H 133.926 -0.338247 0.666032 0
M  V30 1331 H 136.588 -0.194403 1.93928 0
M  V30 1332 H 135.684 -1.49604 2.73907 0
M  V30 1333 N 135.985 -1.50799 -0.457987 0
M  V30 1334 C 137.21 -1.66496 -1.23668 0
M  V30 1335 C 137.635 -0.353288 -1.84752 0
M  V30 1336 O 136.993 0.684346 -1.67888 0
M  V30 1337 C 137.041 -2.76763 -2.3116 0
M  V30 1338 O 136.145 -2.38928 -3.36136 0
M  V30 1339 H 135.486 -0.555828 -0.363252 0
M  V30 1340 H 138.016 -1.9725 -0.543474 0
M  V30 1341 H 138.026 -3.00232 -2.76269 0
M  V30 1342 H 136.701 -3.71954 -1.86073 0
M  V30 1343 H 135.278 -2.25953 -2.96647 0
M  V30 1344 N 137.463 0.71206 -1.40597 0
M  V30 1345 C 138.711 1.46907 -1.38791 0
M  V30 1346 C 139.032 1.94998 0.00780391 0
M  V30 1347 O 138.302 1.70587 0.963174 0
M  V30 1348 H 136.882 0.545043 -0.51082 0
M  V30 1349 H 139.544 0.843882 -1.75683 0
M  V30 1350 H 138.64 2.34021 -2.06496 0
M  V30 1351 N 138.941 1.26152 0.944643 0
M  V30 1352 C 139.891 1.04081 2.02857 0
M  V30 1353 C 140.875 -0.0256555 1.6088 0
M  V30 1354 O 142.067 0.190884 1.75968 0
M  V30 1355 C 139.196 0.672118 3.36656 0
M  V30 1356 C 138.282 1.77586 3.85128 0
M  V30 1357 N 138.673 3.01272 4.06287 0
M  V30 1358 C 136.971 1.65867 4.1401 0
M  V30 1359 C 137.672 3.72983 4.46384 0
M  V30 1360 N 136.648 3.00653 4.52889 0
M  V30 1361 H 140.45 1.97968 2.17223 0
M  V30 1362 H 137.964 1.16618 1.13022 0
M  V30 1363 H 139.961 0.495166 4.13949 0
M  V30 1364 H 138.621 -0.259307 3.23663 0
M  V30 1365 H 139.632 3.37213 3.93075 0
M  V30 1366 H 136.309 0.796907 4.09824 0
M  V30 1367 H 137.699 4.792 4.70975 0
M  V30 1368 N 140.419 -1.14872 1.07899 0
M  V30 1369 C 141.647 -1.89661 0.82683 0
M  V30 1370 C 142.062 -1.78312 -0.620519 0
M  V30 1371 O 141.419 -1.13888 -1.42604 0
M  V30 1372 C 141.47 -3.39817 1.23316 0
M  V30 1373 O 141.191 -3.50845 2.62372 0
M  V30 1374 C 142.692 -4.31615 1.0111 0
M  V30 1375 H 139.912 -0.60092 0.298557 0
M  V30 1376 H 142.456 -1.4551 1.43691 0
M  V30 1377 H 140.611 -3.8161 0.667286 0
M  V30 1378 H 141.025 -4.44076 2.79101 0
M  V30 1379 H 142.499 -5.35367 1.34486 0
M  V30 1380 H 142.976 -4.39169 -0.0522168 0
M  V30 1381 H 143.582 -3.95572 1.56215 0
M  V30 1382 N 141.898 -0.863906 -1.31812 0
M  V30 1383 C 143.147 -0.46801 -1.96195 0
M  V30 1384 C 143.46 0.983474 -1.69077 0
M  V30 1385 O 144.666 1.48523 -2.27273 0
M  V30 1386 C 143.122 -0.785995 -3.51212 0
M  V30 1387 C 142.73 -2.25383 -3.87178 0
M  V30 1388 C 144.474 -0.458274 -4.22019 0
M  V30 1389 C 142.381 -2.51455 -5.3528 0
M  V30 1390 H 141.311 -0.171283 -0.734287 0
M  V30 1391 H 143.962 -1.05597 -1.50072 0
M  V30 1392 H 142.344 -0.127359 -3.95795 0
M  V30 1393 H 143.518 -2.95502 -3.53575 0
M  V30 1394 H 141.833 -2.54698 -3.2942 0
M  V30 1395 H 144.43 -0.630369 -5.30971 0
M  V30 1396 H 144.773 0.600834 -4.11941 0
M  V30 1397 H 145.306 -1.07319 -3.8305 0
M  V30 1398 H 142.045 -3.56025 -5.50387 0
M  V30 1399 H 141.565 -1.85923 -5.70257 0
M  V30 1400 H 143.244 -2.35874 -6.02472 0
M  V30 1401 N 143.376 1.44774 -0.622745 0
M  V30 1402 C 144.308 2.28856 0.125485 0
M  V30 1403 C 145.321 1.40811 0.817069 0
M  V30 1404 O 146.51 1.65044 0.679918 0
M  V30 1405 C 143.61 3.16963 1.19949 0
M  V30 1406 C 142.783 4.33374 0.592064 0
M  V30 1407 C 141.842 5.02577 1.55893 0
M  V30 1408 O 140.868 5.58873 1.07933 0
M  V30 1409 N 142.07 5.03256 2.89334 0
M  V30 1410 H 144.835 2.93713 -0.596068 0
M  V30 1411 H 142.396 1.55129 -0.463303 0
M  V30 1412 H 144.388 3.60123 1.84644 0
M  V30 1413 H 142.958 2.53913 1.82337 0
M  V30 1414 H 142.178 3.93509 -0.233322 0
M  V30 1415 H 143.466 5.08527 0.166738 0
M  V30 1416 H 142.864 4.58836 3.30887 0
M  V30 1417 H 141.421 5.50232 3.49412 0
M  V30 1418 N 144.854 0.36279 1.53368 0
M  V30 1419 C 146.102 -0.227326 2.00817 0
M  V30 1420 C 146.423 -1.49511 1.25186 0
M  V30 1421 O 145.693 -1.92482 0.364348 0
M  V30 1422 H 144.273 -0.0869923 0.741917 0
M  V30 1423 H 146.935 0.488381 1.88682 0
M  V30 1424 H 146.031 -0.456273 3.08747 0
M  V30 1425 N 146.332 -1.57332 0.0918853 0
M  V30 1426 C 147.264 -2.10869 -0.898168 0
M  V30 1427 C 148.277 -1.04521 -1.24817 0
M  V30 1428 O 149.466 -1.31977 -1.20184 0
M  V30 1429 C 146.566 -2.57083 -2.2082 0
M  V30 1430 C 145.739 -3.87229 -2.03402 0
M  V30 1431 C 144.798 -4.19324 -3.17889 0
M  V30 1432 O 143.824 -4.88598 -2.91994 0
M  V30 1433 N 145.026 -3.74471 -4.43567 0
M  V30 1434 H 147.791 -2.96439 -0.440943 0
M  V30 1435 H 145.352 -1.61631 -0.0933064 0
M  V30 1436 H 147.344 -2.75602 -2.96354 0
M  V30 1437 H 145.914 -1.76541 -2.57977 0
M  V30 1438 H 145.134 -3.7789 -1.12218 0
M  V30 1439 H 146.422 -4.72379 -1.89038 0
M  V30 1440 H 145.82 -3.18546 -4.67488 0
M  V30 1441 H 144.377 -3.98151 -5.16061 0
M  V30 1442 N 147.81 0.181792 -1.56548 0
M  V30 1443 C 149.057 0.900097 -1.81396 0
M  V30 1444 C 149.385 1.82695 -0.667281 0
M  V30 1445 O 148.64 1.92614 0.346146 0
M  V30 1446 C 148.939 1.73728 -3.12335 0
M  V30 1447 C 148.605 0.960255 -4.40556 0
M  V30 1448 C 147.267 0.745766 -4.75386 0
M  V30 1449 C 149.619 0.414477 -5.19549 0
M  V30 1450 C 146.947 -0.0257694 -5.86694 0
M  V30 1451 C 149.299 -0.343916 -6.31664 0
M  V30 1452 C 147.963 -0.569301 -6.65068 0
M  V30 1453 H 147.233 0.329369 -0.663775 0
M  V30 1454 H 149.88 0.165647 -1.90782 0
M  V30 1455 H 148.185 2.54081 -2.98245 0
M  V30 1456 H 149.882 2.29591 -3.28769 0
M  V30 1457 H 146.472 1.13746 -4.13231 0
M  V30 1458 H 150.656 0.567554 -4.93044 0
M  V30 1459 H 145.912 -0.210233 -6.11038 0
M  V30 1460 H 150.086 -0.774133 -6.92084 0
M  V30 1461 H 147.713 -1.16903 -7.51158 0
M  V30 1462 N 149.288 1.51039 0.449983 0
M  V30 1463 C 150.528 1.64732 1.21007 0
M  V30 1464 C 150.892 0.349865 1.88785 0
M  V30 1465 O 152.093 0.362431 2.66345 0
M  V30 1466 C 150.364 2.80902 2.20973 0
M  V30 1467 S 151.923 3.14851 3.05638 0
M  V30 1468 H 148.741 0.5805 0.410538 0
M  V30 1469 H 151.343 1.88901 0.503634 0
M  V30 1470 H 150.047 3.73627 1.69796 0
M  V30 1471 H 149.578 2.58882 2.96215 0
M  V30 1472 H 151.593 2.60306 4.22439 0
M  V30 1473 N 150.766 -0.704594 1.40972 0
M  V30 1474 C 152.043 -1.45847 1.30338 0
M  V30 1475 C 152.423 -2.10973 -0.0732344 0
M  V30 1476 O 151.771 -2.00997 -1.08685 0
M  V30 1477 C 151.981 -2.48525 2.45023 0
M  V30 1478 C 153.329 -3.1404 2.8577 0
M  V30 1479 O 154.353 -2.58848 2.44696 0
M  V30 1480 O 153.212 -4.13981 3.56766 0
M  V30 1481 H 150.306 -0.649092 0.512454 0
M  V30 1482 H 152.852 -0.735836 1.52917 0
M  V30 1483 H 151.624 -1.98994 3.36923 0
M  V30 1484 H 151.247 -3.2831 2.24272 0
M  V30 1485 N 152.244 -1.26651 -0.937939 0
M  V30 1486 C 153.474 -1.15006 -1.71631 0
M  V30 1487 C 153.882 0.297026 -1.86854 0
M  V30 1488 O 153.225 1.21493 -1.37786 0
M  V30 1489 C 153.287 -1.74984 -3.14039 0
M  V30 1490 C 152.951 -3.24103 -3.2219 0
M  V30 1491 C 153.948 -4.20877 -3.05219 0
M  V30 1492 C 151.633 -3.64625 -3.45476 0
M  V30 1493 C 153.627 -5.56151 -3.11408 0
M  V30 1494 C 151.314 -5.00032 -3.513 0
M  V30 1495 C 152.312 -5.95604 -3.34282 0
M  V30 1496 O 152 -7.28545 -3.3982 0
M  V30 1497 H 151.732 -0.401183 -0.544085 0
M  V30 1498 H 154.286 -1.67832 -1.18413 0
M  V30 1499 H 152.516 -1.16624 -3.68695 0
M  V30 1500 H 154.205 -1.58199 -3.73802 0
M  V30 1501 H 154.971 -3.90908 -2.87081 0
M  V30 1502 H 150.85 -2.90718 -3.57777 0
M  V30 1503 H 154.394 -6.30727 -2.98043 0
M  V30 1504 H 150.291 -5.29659 -3.68959 0
M  V30 1505 H 151.059 -7.3686 -3.56343 0
M  V30 1506 N 153.722 1.14298 -1.08507 0
M  V30 1507 C 154.962 1.87016 -0.824894 0
M  V30 1508 C 155.326 1.81099 0.637735 0
M  V30 1509 O 156.527 2.48963 1.01345 0
M  V30 1510 C 154.798 3.31584 -1.33368 0
M  V30 1511 S 156.357 4.21903 -1.20596 0
M  V30 1512 H 153.175 0.645259 -0.2986 0
M  V30 1513 H 155.777 1.37822 -1.38656 0
M  V30 1514 H 154.481 3.33439 -2.39262 0
M  V30 1515 H 154.012 3.85836 -0.767734 0
M  V30 1516 H 156.027 4.95971 -0.150891 0
M  V30 1517 N 155.201 0.870884 1.31352 0
M  V30 1518 C 156.149 0.316445 2.30437 0
M  V30 1519 C 157.143 -0.568965 1.59559 0
M  V30 1520 O 158.349 -0.454964 1.74155 0
M  V30 1521 H 154.724 0.0836521 0.747333 0
M  V30 1522 H 156.695 1.16606 2.74673 0
M  V30 1523 C 155.444 -0.46635 3.44558 0
M  V30 1524 H 154.767 0.205687 3.99271 0
M  V30 1525 H 156.207 -0.819614 4.16003 0
M  V30 1526 C 154.666 -1.65797 2.9328 0
M  V30 1527 O 155.196 -2.75728 2.92125 0
M  V30 1528 N 153.402 -1.49041 2.4947 0
M  V30 1529 H 152.949 -0.59612 2.50608 0
M  V30 1530 H 152.907 -2.28911 2.15516 0
M  V30 1531 N 156.679 -1.44442 0.630414 0
M  V30 1532 C 157.904 -2.06927 0.139944 0
M  V30 1533 C 158.329 -1.46795 -1.17613 0
M  V30 1534 O 157.687 -0.569144 -1.72135 0
M  V30 1535 C 157.735 -3.6058 0.0379581 0
M  V30 1536 O 156.839 -3.99937 -1.0062 0
M  V30 1537 H 156.18 -0.658608 0.0844483 0
M  V30 1538 H 158.71 -1.85327 0.866891 0
M  V30 1539 H 158.72 -4.07714 -0.152856 0
M  V30 1540 H 157.395 -4.03728 0.998809 0
M  V30 1541 H 155.972 -3.64436 -0.79001 0
M  V30 1542 N 158.157 -0.370918 -1.53173 0
M  V30 1543 C 159.067 0.480823 -2.2962 0
M  V30 1544 C 160.083 1.08789 -1.35798 0
M  V30 1545 O 161.259 1.09768 -1.68858 0
M  V30 1546 C 158.324 1.60227 -3.07454 0
M  V30 1547 C 157.385 1.0222 -4.16953 0
M  V30 1548 C 156.618 2.0902 -4.91066 0
M  V30 1549 O 156.841 3.30222 -4.65091 0
M  V30 1550 O 155.775 1.71778 -5.76867 0
M  V30 1551 H 159.601 -0.141421 -3.03371 0
M  V30 1552 H 157.186 -0.135146 -1.48787 0
M  V30 1553 H 159.068 2.25417 -3.56041 0
M  V30 1554 H 157.743 2.20982 -2.36535 0
M  V30 1555 H 156.65 0.334064 -3.72605 0
M  V30 1556 H 157.983 0.459131 -4.90054 0
M  V30 1557 N 159.635 1.57281 -0.100228 0
M  V30 1558 C 160.912 1.86014 0.604812 0
M  V30 1559 C 161.292 0.998025 1.86018 0
M  V30 1560 O 160.64 0.0718184 2.28387 0
M  V30 1561 C 160.85 3.36784 0.915278 0
M  V30 1562 C 162.198 4.04957 1.27651 0
M  V30 1563 O 163.222 3.41695 1.00613 0
M  V30 1564 O 162.081 5.16593 1.7831 0
M  V30 1565 H 159.175 0.76942 0.303185 0
M  V30 1566 H 161.721 1.69176 -0.133313 0
M  V30 1567 H 160.493 3.91292 0.0248896 0
M  V30 1568 H 160.116 3.58987 1.70921 0
M  V30 1569 N 161.113 -0.173488 1.56642 0
M  V30 1570 C 162.524 -0.736155 1.71574 0
M  V30 1571 C 162.875 -1.82888 0.710389 0
M  V30 1572 O 162 -2.16017 -0.1287 0
M  V30 1573 C 162.595 -1.34211 3.11083 0
M  V30 1574 C 161.154 -1.85162 3.27707 0
M  V30 1575 C 160.301 -0.729765 2.67525 0
M  V30 1576 H 163.252 0.0518786 1.58615 0
M  V30 1577 H 163.273 -2.21178 3.09613 0
M  V30 1578 H 162.785 -0.546579 3.84232 0
M  V30 1579 H 160.886 -2.67366 2.59512 0
M  V30 1580 H 160.999 -1.99855 4.35425 0
M  V30 1581 H 159.363 -1.14965 2.27278 0
M  V30 1582 H 160.146 0.0538806 3.43258 0
M  V30 1583 N 162.591 -1.51276 -0.441967 0
M  V30 1584 C 164.007 -1.39349 -0.778083 0
M  V30 1585 C 164.207 -0.472212 -1.95889 0
M  V30 1586 O 163.263 0.0743551 -2.5239 0
M  V30 1587 C 164.576 -2.81292 -1.0628 0
M  V30 1588 C 166.124 -2.9041 -1.16751 0
M  V30 1589 C 166.599 -4.33251 -1.48519 0
M  V30 1590 N 168.09 -4.36336 -1.55453 0
M  V30 1591 C 168.825 -5.43885 -1.81596 0
M  V30 1592 N 168.321 -6.61601 -2.05562 0
M  V30 1593 N 170.114 -5.3136 -1.8334 0
M  V30 1594 H 162.265 -2.09729 0.335774 0
M  V30 1595 H 164.528 -0.943925 0.0878028 0
M  V30 1596 H 164.234 -3.50678 -0.267905 0
M  V30 1597 H 164.108 -3.20334 -1.99163 0
M  V30 1598 H 166.495 -2.21225 -1.95304 0
M  V30 1599 H 166.576 -2.54871 -0.217801 0
M  V30 1600 H 166.22 -5.02984 -0.704958 0
M  V30 1601 H 166.15 -4.66299 -2.44689 0
M  V30 1602 H 168.641 -3.51466 -1.38853 0
M  V30 1603 H 168.954 -7.39361 -2.24867 0
M  V30 1604 H 167.299 -6.64725 -2.02894 0
M  V30 1605 H 170.49 -4.38382 -1.64132 0
M  V30 1606 H 170.663 -6.15258 -2.03377 0
M  V30 1607 N 164.069 0.697108 -1.41344 0
M  V30 1608 C 165.016 1.81106 -1.43071 0
M  V30 1609 C 165.986 1.63632 -0.285275 0
M  V30 1610 O 167.171 1.84504 -0.486091 0
M  V30 1611 C 164.311 3.18975 -1.31715 0
M  V30 1612 C 163.424 3.47892 -2.56115 0
M  V30 1613 C 162.559 4.75367 -2.37064 0
M  V30 1614 C 161.598 4.97247 -3.56948 0
M  V30 1615 N 160.735 6.15947 -3.36977 0
M  V30 1616 H 165.575 1.78965 -2.38276 0
M  V30 1617 H 163.112 0.873975 -1.18322 0
M  V30 1618 H 165.07 3.98615 -1.23133 0
M  V30 1619 H 163.7 3.20297 -0.401183 0
M  V30 1620 H 162.752 2.62669 -2.75153 0
M  V30 1621 H 164.064 3.59962 -3.45295 0
M  V30 1622 H 163.218 5.63059 -2.25941 0
M  V30 1623 H 161.957 4.65541 -1.45338 0
M  V30 1624 H 160.962 4.08004 -3.68527 0
M  V30 1625 H 162.187 5.08934 -4.49626 0
M  V30 1626 H 160.133 6.07336 -2.47949 0
M  V30 1627 H 160.05 6.28777 -4.19732 0
M  V30 1628 H 161.318 7.06377 -3.29623 0
M  V30 1629 N 165.547 1.27147 0.931209 0
M  V30 1630 C 166.51 1.09615 2.01289 0
M  V30 1631 C 167.51 0.0412581 1.60747 0
M  V30 1632 O 168.7 0.285545 1.71844 0
M  V30 1633 C 165.832 0.669447 3.34262 0
M  V30 1634 H 167.025 2.05662 2.18273 0
M  V30 1635 H 164.578 1.09885 1.11153 0
M  V30 1636 H 165.313 -0.292572 3.22978 0
M  V30 1637 H 165.098 1.43127 3.65044 0
M  V30 1638 H 166.588 0.568921 4.13706 0
M  V30 1639 N 167.025 -1.13721 1.09112 0
M  V30 1640 C 167.975 -2.17082 0.697091 0
M  V30 1641 C 168.959 -1.58321 -0.286923 0
M  V30 1642 O 170.151 -1.7673 -0.0978008 0
M  V30 1643 C 167.28 -3.43105 0.115729 0
M  V30 1644 C 166.366 -4.0888 1.12596 0
M  V30 1645 N 166.757 -4.4987 2.31195 0
M  V30 1646 C 165.055 -4.35471 0.963366 0
M  V30 1647 C 165.756 -5.01094 2.95431 0
M  V30 1648 N 164.732 -4.95751 2.23006 0
M  V30 1649 H 168.534 -2.46524 1.6001 0
M  V30 1650 H 166.048 -1.30481 0.966869 0
M  V30 1651 H 168.045 -4.16491 -0.184555 0
M  V30 1652 H 166.705 -3.15138 -0.78217 0
M  V30 1653 H 167.716 -4.42678 2.68806 0
M  V30 1654 H 164.393 -4.17328 0.119878 0
M  V30 1655 H 165.783 -5.4263 3.96236 0
M  V30 1656 N 168.503 -0.877838 -1.30888 0
M  V30 1657 C 169.914 -0.544193 -1.78593 0
M  V30 1658 C 170.265 0.939301 -1.72254 0
M  V30 1659 O 169.39 1.7337 -1.29505 0
M  V30 1660 C 169.985 -0.98105 -3.24285 0
M  V30 1661 C 168.544 -0.698935 -3.69854 0
M  V30 1662 C 167.691 -1.168 -2.51502 0
M  V30 1663 H 170.642 -1.06278 -1.17859 0
M  V30 1664 H 170.663 -0.307009 -3.79259 0
M  V30 1665 H 170.175 -2.06079 -3.28866 0
M  V30 1666 H 168.276 0.369112 -3.70767 0
M  V30 1667 H 168.389 -1.28148 -4.61644 0
M  V30 1668 H 166.753 -0.587535 -2.47831 0
M  V30 1669 H 167.536 -2.25533 -2.58824 0
M  V30 1670 N 169.982 1.44106 -0.638065 0
M  V30 1671 C 171.228 2.02277 -0.145546 0
M  V30 1672 C 171.561 1.50125 1.23191 0
M  V30 1673 O 170.836 0.688133 1.8192 0
M  V30 1674 C 171.119 3.59829 -0.139791 0
M  V30 1675 C 170.972 4.22247 -1.55008 0
M  V30 1676 C 172.291 4.36873 0.531966 0
M  V30 1677 H 169.41 0.734992 -0.0543632 0
M  V30 1678 H 172.052 1.71592 -0.815863 0
M  V30 1679 H 170.202 3.86102 0.431007 0
M  V30 1680 H 171.874 4.07057 -2.1703 0
M  V30 1681 H 170.117 3.79476 -2.10191 0
M  V30 1682 H 170.788 5.31284 -1.49804 0
M  V30 1683 H 173.264 4.16074 0.0464781 0
M  V30 1684 H 172.14 5.4657 0.505206 0
M  V30 1685 H 172.401 4.11995 1.60352 0
M  V30 1686 N 171.46 0.379036 1.52974 0
M  V30 1687 C 172.688 -0.20679 2.05864 0
M  V30 1688 C 173.103 -1.41356 1.25155 0
M  V30 1689 O 172.46 -1.8009 0.295588 0
M  V30 1690 C 172.511 -0.587045 3.56702 0
M  V30 1691 O 172.232 0.571776 4.34353 0
M  V30 1692 C 173.733 -1.22983 4.25899 0
M  V30 1693 H 170.953 -0.0336123 0.670158 0
M  V30 1694 H 173.497 0.541298 1.97206 0
M  V30 1695 H 171.652 -1.28504 3.65466 0
M  V30 1696 H 172.066 0.261544 5.23847 0
M  V30 1697 H 173.54 -1.44635 5.32715 0
M  V30 1698 H 174.017 -2.19416 3.80465 0
M  V30 1699 H 174.623 -0.572892 4.21424 0
M  V30 1700 N 172.938 -1.57226 0.108567 0
M  V30 1701 C 173.886 -2.16002 -0.862885 0
M  V30 1702 C 174.88 -1.10644 -1.28274 0
M  V30 1703 O 176.086 -1.28966 -1.2557 0
M  V30 1704 H 172.461 -0.691148 -0.296342 0
M  V30 1705 H 174.432 -2.96427 -0.342575 0
M  V30 1706 C 173.181 -2.76576 -2.10716 0
M  V30 1707 H 172.504 -3.5734 -1.793 0
M  V30 1708 H 173.944 -3.21253 -2.76717 0
M  V30 1709 C 172.403 -1.73137 -2.89007 0
M  V30 1710 O 172.933 -1.17842 -3.84026 0
M  V30 1711 N 171.139 -1.43317 -2.52801 0
M  V30 1712 H 170.686 -1.88473 -1.75601 0
M  V30 1713 H 170.644 -0.743485 -3.05483 0
M  V30 1714 N 174.416 0.165178 -1.56732 0
M  V30 1715 C 175.379 1.18822 -1.95995 0
M  V30 1716 C 176.379 1.3685 -0.84431 0
M  V30 1717 O 177.569 1.34152 -1.11126 0
M  V30 1718 C 174.701 2.5521 -2.26011 0
M  V30 1719 H 175.894 0.851825 -2.87548 0
M  V30 1720 H 173.447 0.407857 -1.50885 0
M  V30 1721 H 174.182 2.93852 -1.37191 0
M  V30 1722 H 173.967 2.43489 -3.07336 0
M  V30 1723 H 175.457 3.28927 -2.57288 0
M  V30 1724 N 175.894 1.51508 0.433938 0
M  V30 1725 C 177.143 1.63578 1.18005 0
M  V30 1726 C 177.456 0.359514 1.92268 0
M  V30 1727 O 178.662 0.359632 2.69108 0
M  V30 1728 C 177.118 2.88901 2.14626 0
M  V30 1729 C 176.726 4.23544 1.45995 0
M  V30 1730 C 178.47 3.10328 2.89649 0
M  V30 1731 C 176.377 5.40014 2.4112 0
M  V30 1732 H 175.307 0.609277 0.444182 0
M  V30 1733 H 177.958 1.77978 0.446773 0
M  V30 1734 H 176.34 2.68142 2.91403 0
M  V30 1735 H 177.514 4.54696 0.747532 0
M  V30 1736 H 175.829 4.08021 0.831115 0
M  V30 1737 H 178.426 3.94518 3.60915 0
M  V30 1738 H 178.769 2.23544 3.51189 0
M  V30 1739 H 179.302 3.31443 2.19978 0
M  V30 1740 H 176.041 6.29068 1.84264 0
M  V30 1741 H 175.561 5.13233 3.10406 0
M  V30 1742 H 177.24 5.72099 3.02177 0
M  V30 1743 N 177.372 -0.689602 1.41712 0
M  V30 1744 C 178.649 -1.44457 1.31877 0
M  V30 1745 C 179.029 -2.11039 -0.0508537 0
M  V30 1746 O 178.377 -2.02138 -1.06547 0
M  V30 1747 C 178.587 -2.45913 2.47645 0
M  V30 1748 C 179.935 -3.10991 2.89084 0
M  V30 1749 O 180.959 -2.56238 2.47428 0
M  V30 1750 O 179.818 -4.10174 3.61137 0
M  V30 1751 H 176.912 -0.64362 0.519309 0
M  V30 1752 H 179.458 -0.719576 1.53689 0
M  V30 1753 H 178.23 -1.95409 3.39015 0
M  V30 1754 H 177.853 -3.25913 2.27742 0
M  V30 1755 N 178.85 -1.27639 -0.924453 0
M  V30 1756 C 180.098 -1.13941 -1.66918 0
M  V30 1757 C 180.419 0.314589 -1.92446 0
M  V30 1758 O 179.689 1.21964 -1.53303 0
M  V30 1759 H 178.269 -0.418678 -0.618642 0
M  V30 1760 H 180.931 -1.60213 -1.10985 0
M  V30 1761 H 180.027 -1.67094 -2.63602 0
M  V30 1762 N 180.328 1.1314 -1.09713 0
M  V30 1763 C 181.553 1.88862 -0.857081 0
M  V30 1764 C 181.978 1.78729 0.586304 0
M  V30 1765 O 181.336 1.13692 1.41222 0
M  V30 1766 C 181.384 3.36325 -1.30069 0
M  V30 1767 O 180.488 4.09815 -0.461007 0
M  V30 1768 H 179.829 0.587108 -0.310162 0
M  V30 1769 H 182.359 1.43129 -1.46203 0
M  V30 1770 H 182.369 3.87157 -1.28738 0
M  V30 1771 H 181.044 3.43017 -2.35185 0
M  V30 1772 H 179.621 3.68986 -0.538888 0
M  V30 1773 N 181.806 0.884767 1.30421 0
M  V30 1774 C 182.716 0.355398 2.31892 0
M  V30 1775 C 183.732 -0.542261 1.65335 0
M  V30 1776 O 184.908 -0.435432 1.96637 0
M  V30 1777 C 181.973 -0.421661 3.44126 0
M  V30 1778 C 181.034 0.505727 4.26311 0
M  V30 1779 C 180.267 -0.234343 5.33185 0
M  V30 1780 O 180.49 -1.46045 5.51386 0
M  V30 1781 O 179.424 0.415443 6.00465 0
M  V30 1782 H 183.25 1.19685 2.79122 0
M  V30 1783 H 180.835 0.648596 1.34587 0
M  V30 1784 H 182.717 -0.861641 4.12497 0
M  V30 1785 H 181.392 -1.23942 2.99032 0
M  V30 1786 H 180.299 0.994513 3.60639 0
M  V30 1787 H 181.632 1.28948 4.75009 0
M  V30 1788 N 183.284 -1.43765 0.645699 0
M  V30 1789 C 184.7 -1.56509 0.312591 0
M  V30 1790 C 184.9 -1.6307 -1.18365 0
M  V30 1791 O 183.956 -1.58167 -1.96824 0
M  V30 1792 C 185.269 -2.82968 1.01733 0
M  V30 1793 C 186.817 -2.96701 0.996865 0
M  V30 1794 C 187.292 -4.25982 1.68236 0
M  V30 1795 N 188.783 -4.32829 1.64964 0
M  V30 1796 C 189.518 -5.31613 2.14885 0
M  V30 1797 N 189.014 -6.36718 2.73061 0
M  V30 1798 N 190.807 -5.23217 2.05428 0
M  V30 1799 H 182.958 -1.3775 1.61675 0
M  V30 1800 H 185.221 -0.661067 0.679481 0
M  V30 1801 H 184.927 -2.84156 2.0724 0
M  V30 1802 H 184.801 -3.72957 0.564177 0
M  V30 1803 H 187.188 -2.95058 -0.0497719 0
M  V30 1804 H 187.269 -2.08022 1.48865 0
M  V30 1805 H 186.913 -4.28386 2.72852 0
M  V30 1806 H 186.843 -5.13545 1.16529 0
M  V30 1807 H 189.334 -3.57493 1.22503 0
M  V30 1808 H 189.647 -7.08401 3.08848 0
M  V30 1809 H 187.992 -6.37362 2.77118 0
M  V30 1810 H 191.183 -4.40019 1.59689 0
M  V30 1811 H 191.356 -6.00045 2.44643 0
M  V30 1812 N 184.763 -0.387143 -1.52771 0
M  V30 1813 C 186.009 0.188506 -2.02525 0
M  V30 1814 C 186.364 1.44649 -1.26864 0
M  V30 1815 O 185.657 1.88189 -0.359945 0
M  V30 1816 C 185.851 0.512209 -3.53711 0
M  V30 1817 C 185.68 -0.712855 -4.44014 0
M  V30 1818 C 184.45 -1.23147 -4.90064 0
M  V30 1819 C 186.648 -1.58453 -4.89282 0
M  V30 1820 N 184.63 -2.41431 -5.64433 0
M  V30 1821 C 186.001 -2.61381 -5.6221 0
M  V30 1822 C 188.056 -1.60488 -4.71326 0
M  V30 1823 C 186.759 -3.66227 -6.19088 0
M  V30 1824 C 188.785 -2.6424 -5.29085 0
M  V30 1825 C 188.147 -3.6589 -6.01917 0
M  V30 1826 H 184.246 0.0311236 -0.78138 0
M  V30 1827 H 186.83 -0.536548 -1.87161 0
M  V30 1828 H 185.001 1.20632 -3.69192 0
M  V30 1829 H 186.733 1.07482 -3.90166 0
M  V30 1830 H 183.488 -0.792795 -4.66917 0
M  V30 1831 H 183.912 -3.01274 -6.0627 0
M  V30 1832 H 188.554 -0.83247 -4.14524 0
M  V30 1833 H 186.272 -4.44337 -6.74974 0
M  V30 1834 H 189.858 -2.66695 -5.17074 0
M  V30 1835 H 188.738 -4.44855 -6.45813 0
M  V30 1836 N 186.241 1.57166 -0.116904 0
M  V30 1837 C 187.487 1.96206 0.536166 0
M  V30 1838 C 187.842 0.99915 1.64422 0
M  V30 1839 O 187.135 0.0288195 1.91578 0
M  V30 1840 C 187.329 3.39508 1.11664 0
M  V30 1841 C 187.158 4.49651 0.0663474 0
M  V30 1842 C 185.928 5.03982 -0.36474 0
M  V30 1843 C 188.126 5.09322 -0.713829 0
M  V30 1844 N 186.108 5.97699 -1.40102 0
M  V30 1845 C 187.479 5.98963 -1.60136 0
M  V30 1846 C 189.534 4.91989 -0.764948 0
M  V30 1847 C 188.237 6.73128 -2.53556 0
M  V30 1848 C 190.263 5.66833 -1.68685 0
M  V30 1849 C 189.625 6.56158 -2.56196 0
M  V30 1850 H 185.724 0.764203 0.165886 0
M  V30 1851 H 188.308 1.93623 -0.204535 0
M  V30 1852 H 186.479 3.42743 1.82707 0
M  V30 1853 H 188.211 3.65677 1.73386 0
M  V30 1854 H 184.966 4.73592 0.027252 0
M  V30 1855 H 185.39 6.49262 -1.91802 0
M  V30 1856 H 190.032 4.22676 -0.102501 0
M  V30 1857 H 187.75 7.41689 -3.20816 0
M  V30 1858 H 191.336 5.55427 -1.73181 0
M  V30 1859 H 190.216 7.13057 -3.26372 0
M  V30 1860 N 187.719 -0.156864 1.56817 0
M  V30 1861 C 188.651 -1.21883 1.94106 0
M  V30 1862 C 189.664 -1.3971 0.835754 0
M  V30 1863 O 190.853 -1.39457 1.11418 0
M  V30 1864 C 187.953 -2.58527 2.19127 0
M  V30 1865 C 187.126 -2.61809 3.50393 0
M  V30 1866 C 186.185 -3.7992 3.64071 0
M  V30 1867 O 185.211 -3.65249 4.36557 0
M  V30 1868 N 186.413 -4.96973 2.99997 0
M  V30 1869 H 189.178 -0.901974 2.85805 0
M  V30 1870 H 186.739 -0.346513 1.58148 0
M  V30 1871 H 188.731 -3.36034 2.25529 0
M  V30 1872 H 187.301 -2.82545 1.33742 0
M  V30 1873 H 186.521 -1.7029 3.5552 0
M  V30 1874 H 187.809 -2.61024 4.36742 0
M  V30 1875 H 187.207 -5.11794 2.41004 0
M  V30 1876 H 185.764 -5.7229 3.11974 0
M  V30 1877 N 189.197 -1.51736 -0.425897 0
M  V30 1878 C 190.422 -1.69082 -1.20108 0
M  V30 1879 C 190.847 -0.392398 -1.83962 0
M  V30 1880 O 190.205 0.64858 -1.69302 0
M  V30 1881 C 190.253 -2.81604 -2.25237 0
M  V30 1882 O 189.357 -2.46004 -3.30992 0
M  V30 1883 H 188.698 -0.563408 -0.35138 0
M  V30 1884 H 191.228 -1.98358 -0.501512 0
M  V30 1885 H 191.238 -3.06025 -2.69838 0
M  V30 1886 H 189.913 -3.75817 -1.78142 0
M  V30 1887 H 188.49 -2.32195 -2.91787 0
M  V30 1888 N 190.675 0.682077 -1.42076 0
M  V30 1889 C 192.086 1.26246 -1.37546 0
M  V30 1890 C 192.437 1.96092 -0.0651481 0
M  V30 1891 O 191.562 1.99587 0.836297 0
M  V30 1892 C 192.157 2.29594 -2.49143 0
M  V30 1893 C 190.716 2.83175 -2.47969 0
M  V30 1894 C 189.863 1.57395 -2.28303 0
M  V30 1895 H 192.814 0.475937 -1.51395 0
M  V30 1896 H 192.835 3.11175 -2.18976 0
M  V30 1897 H 192.347 1.78729 -3.44496 0
M  V30 1898 H 190.448 3.3818 -1.56413 0
M  V30 1899 H 190.561 3.32687 -3.44755 0
M  V30 1900 H 188.925 1.83699 -1.76428 0
M  V30 1901 H 189.708 1.08507 -3.25701 0
M  V30 1902 N 192.153 1.28127 0.917671 0
M  V30 1903 C 193.564 1.13622 1.48145 0
M  V30 1904 C 193.915 -0.275207 1.9426 0
M  V30 1905 O 193.04 -1.1691 1.82102 0
M  V30 1906 C 193.635 2.05648 2.69248 0
M  V30 1907 C 192.194 1.95219 3.21818 0
M  V30 1908 C 191.341 1.97618 1.94532 0
M  V30 1909 H 194.292 1.40874 0.730772 0
M  V30 1910 H 194.313 1.61818 3.44377 0
M  V30 1911 H 193.825 3.08365 2.35653 0
M  V30 1912 H 191.926 0.955244 3.60147 0
M  V30 1913 H 192.039 2.81976 3.87333 0
M  V30 1914 H 190.403 1.41973 2.11461 0
M  V30 1915 H 191.186 3.02007 1.63238 0
M  V30 1916 N 193.631 -1.12557 1.10312 0
M  V30 1917 C 194.561 -2.20341 0.772798 0
M  V30 1918 C 195.542 -1.68198 -0.25365 0
M  V30 1919 O 196.727 -1.93831 -0.119699 0
M  V30 1920 C 193.857 -3.46709 0.202443 0
M  V30 1921 C 192.811 -4.11996 1.15943 0
M  V30 1922 C 192.137 -5.328 0.450345 0
M  V30 1923 C 193.437 -4.5828 2.50552 0
M  V30 1924 H 195.131 -2.48229 1.674 0
M  V30 1925 H 192.677 -1.19308 0.806326 0
M  V30 1926 H 194.63 -4.2138 -0.0407752 0
M  V30 1927 H 193.354 -3.18245 -0.734001 0
M  V30 1928 H 192.013 -3.39305 1.38808 0
M  V30 1929 H 191.661 -5.00602 -0.490531 0
M  V30 1930 H 191.361 -5.7743 1.08851 0
M  V30 1931 H 192.885 -6.10219 0.215642 0
M  V30 1932 H 194.299 -5.2433 2.31843 0
M  V30 1933 H 192.696 -5.13683 3.10242 0
M  V30 1934 H 193.766 -3.72329 3.10643 0
M  V30 1935 N 195.109 -0.891671 -1.2995 0
M  V30 1936 C 196.334 -0.527932 -2.00568 0
M  V30 1937 C 196.759 0.877969 -1.66353 0
M  V30 1938 O 196.117 1.58301 -0.883762 0
M  V30 1939 C 196.165 -0.717745 -3.53385 0
M  V30 1940 O 195.269 0.233376 -4.11739 0
M  V30 1941 H 194.61 -0.20722 -0.630837 0
M  V30 1942 H 197.14 -1.20105 -1.65638 0
M  V30 1943 H 197.15 -0.619307 -4.03272 0
M  V30 1944 H 195.825 -1.74276 -3.77625 0
M  V30 1945 H 194.402 0.0880706 -3.72796 0
M  V30 1946 N 196.587 1.43421 -0.653314 0
M  V30 1947 C 197.812 2.06678 -0.172846 0
M  V30 1948 C 198.237 1.48648 1.15262 0
M  V30 1949 O 197.595 0.596457 1.71208 0
M  V30 1950 C 197.643 3.60474 -0.0953184 0
M  V30 1951 O 196.747 4.01487 0.942442 0
M  V30 1952 H 196.088 0.657181 -0.0949155 0
M  V30 1953 H 198.618 1.83925 -0.896265 0
M  V30 1954 H 198.628 4.07905 0.0879728 0
M  V30 1955 H 197.303 4.02088 -1.06291 0
M  V30 1956 H 195.88 3.65646 0.731932 0
M  V30 1957 N 198.065 0.39524 1.52563 0
M  V30 1958 C 199.313 -0.184678 2.01254 0
M  V30 1959 C 199.634 -1.46822 1.28329 0
M  V30 1960 O 198.904 -1.91666 0.405094 0
M  V30 1961 H 197.484 -0.0712355 0.743596 0
M  V30 1962 H 200.146 0.528293 1.87603 0
M  V30 1963 H 199.242 -0.390681 3.09645 0
M  V30 1964 N 199.544 -1.57102 0.125237 0
M  V30 1965 C 200.772 -1.99761 -0.538797 0
M  V30 1966 C 201.187 -1.00503 -1.59827 0
M  V30 1967 O 200.544 0.00119474 -1.825 0
M  V30 1968 C 200.595 -3.42408 -1.15927 0
M  V30 1969 O 200.316 -4.37869 -0.142143 0
M  V30 1970 C 201.817 -4.00232 -1.90602 0
M  V30 1971 H 199.037 -0.655772 -0.14214 0
M  V30 1972 H 201.581 -2.03383 0.213413 0
M  V30 1973 H 199.736 -3.39706 -1.86223 0
M  V30 1974 H 200.15 -5.21128 -0.593775 0
M  V30 1975 H 201.624 -5.02105 -2.29335 0
M  V30 1976 H 202.101 -3.39721 -2.78363 0
M  V30 1977 H 202.707 -4.06499 -1.25055 0
M  V30 1978 N 201.022 0.148545 -1.56898 0
M  V30 1979 C 201.954 1.20852 -1.9475 0
M  V30 1980 C 202.967 1.39265 -0.843152 0
M  V30 1981 O 204.156 1.38864 -1.12156 0
M  V30 1982 C 201.256 2.57362 -2.20495 0
M  V30 1983 C 200.429 2.59947 -3.51776 0
M  V30 1984 C 199.488 3.77984 -3.6608 0
M  V30 1985 O 198.514 3.62929 -4.38487 0
M  V30 1986 N 199.716 4.95375 -3.02629 0
M  V30 1987 H 202.481 0.886804 -2.86279 0
M  V30 1988 H 200.042 0.338121 -1.5833 0
M  V30 1989 H 202.034 3.34833 -2.27307 0
M  V30 1990 H 200.604 2.81832 -1.35238 0
M  V30 1991 H 199.824 1.68403 -3.56419 0
M  V30 1992 H 201.112 2.58704 -4.38121 0
M  V30 1993 H 200.51 5.10509 -2.43715 0
M  V30 1994 H 199.067 5.70627 -3.15004 0
M  V30 1995 N 202.5 1.5196 0.417844 0
M  V30 1996 C 203.73 1.69181 1.18581 0
M  V30 1997 C 204.138 0.397104 1.84986 0
M  V30 1998 O 203.481 -0.636011 1.72339 0
M  V30 1999 C 203.543 2.76497 2.29759 0
M  V30 2000 C 203.207 4.18514 1.83563 0
M  V30 2001 C 204.204 5.02648 1.32821 0
M  V30 2002 C 201.889 4.64708 1.90661 0
M  V30 2003 C 203.883 6.31044 0.897894 0
M  V30 2004 C 201.57 5.93096 1.47241 0
M  V30 2005 C 202.568 6.76093 0.968891 0
M  V30 2006 O 202.256 8.02078 0.540924 0
M  V30 2007 H 201.988 0.570457 0.362705 0
M  V30 2008 H 204.542 1.99249 0.498885 0
M  V30 2009 H 202.772 2.41786 3.01789 0
M  V30 2010 H 204.461 2.82403 2.91553 0
M  V30 2011 H 205.227 4.68154 1.26716 0
M  V30 2012 H 201.106 4.00216 2.28797 0
M  V30 2013 H 204.65 6.95776 0.504192 0
M  V30 2014 H 200.547 6.271 1.53022 0
M  V30 2015 H 201.315 8.15794 0.66502 0
M  V30 2016 N 203.978 -0.674533 1.42435 0
M  V30 2017 C 204.926 -1.80934 1.46169 0
M  V30 2018 C 205.92 -1.66006 0.3374 0
M  V30 2019 O 207.126 -1.72611 0.510425 0
M  V30 2020 H 203.501 -0.596594 0.457798 0
M  V30 2021 H 205.472 -1.74903 2.41767 0
M  V30 2022 C 204.221 -3.19088 1.38123 0
M  V30 2023 H 203.544 -3.31203 2.23931 0
M  V30 2024 H 204.984 -3.9851 1.44797 0
M  V30 2025 C 203.443 -3.36763 0.0960517 0
M  V30 2026 O 203.973 -3.92581 -0.851073 0
M  V30 2027 N 202.179 -2.90597 0.0131186 0
M  V30 2028 H 201.726 -2.45359 0.784639 0
M  V30 2029 H 201.684 -3.028 -0.846133 0
M  V30 2030 N 205.456 -1.28612 -0.910864 0
M  V30 2031 C 206.872 -1.06381 -1.18976 0
M  V30 2032 C 207.072 0.191998 -2.00583 0
M  V30 2033 O 206.128 0.892869 -2.36187 0
M  V30 2034 C 207.441 -2.31295 -1.92154 0
M  V30 2035 C 208.989 -2.36503 -2.05025 0
M  V30 2036 C 209.464 -3.61191 -2.81612 0
M  V30 2037 N 210.955 -3.61847 -2.89172 0
M  V30 2038 C 211.69 -4.55004 -3.4894 0
M  V30 2039 N 211.186 -5.58482 -4.09963 0
M  V30 2040 N 212.979 -4.42594 -3.46506 0
M  V30 2041 H 205.13 -2.09221 -0.366094 0
M  V30 2042 H 207.393 -0.921003 -0.224629 0
M  V30 2043 H 207.099 -3.228 -1.39618 0
M  V30 2044 H 206.973 -2.37934 -2.9269 0
M  V30 2045 H 209.36 -1.45494 -2.5674 0
M  V30 2046 H 209.441 -2.33857 -1.03657 0
M  V30 2047 H 209.085 -4.52545 -2.30576 0
M  V30 2048 H 209.015 -3.61092 -3.83302 0
M  V30 2049 H 211.506 -2.87022 -2.45819 0
M  V30 2050 H 211.819 -6.25704 -4.53557 0
M  V30 2051 H 210.164 -5.62305 -4.08459 0
M  V30 2052 H 213.355 -3.60953 -2.98045 0
M  V30 2053 H 213.528 -5.15381 -3.92793 0
M  V30 2054 N 206.934 1.1197 -1.10907 0
M  V30 2055 C 208.18 1.8386 -0.855773 0
M  V30 2056 C 208.513 1.84134 0.617103 0
M  V30 2057 O 207.788 1.29041 1.45529 0
M  V30 2058 C 208.071 3.31305 -1.411 0
M  V30 2059 C 207.924 3.39456 -2.9511 0
M  V30 2060 C 209.243 4.2721 -1.05736 0
M  V30 2061 H 206.362 0.667545 -0.312334 0
M  V30 2062 H 209.004 1.31331 -1.37303 0
M  V30 2063 H 207.154 3.76169 -0.97105 0
M  V30 2064 H 208.826 3.03191 -3.47668 0
M  V30 2065 H 207.069 2.79849 -3.31462 0
M  V30 2066 H 207.74 4.43209 -3.29044 0
M  V30 2067 H 210.216 3.90497 -1.43706 0
M  V30 2068 H 209.092 5.28775 -1.47269 0
M  V30 2069 H 209.353 4.42088 0.0325958 0
M  V30 2070 N 208.412 0.89855 1.29475 0
M  V30 2071 C 209.36 0.365253 2.29714 0
M  V30 2072 C 210.354 -0.534993 1.6073 0
M  V30 2073 O 211.56 -0.417921 1.75081 0
M  V30 2074 H 207.935 0.0994853 0.74539 0
M  V30 2075 H 209.906 1.22406 2.72138 0
M  V30 2076 C 208.655 -0.393159 3.4547 0
M  V30 2077 H 207.978 0.290332 3.98744 0
M  V30 2078 H 209.418 -0.731189 4.17648 0
M  V30 2079 C 207.877 -1.59539 2.9673 0
M  V30 2080 O 208.407 -2.69469 2.97908 0
M  V30 2081 N 206.613 -1.43716 2.52575 0
M  V30 2082 H 206.16 -0.542828 2.51816 0
M  V30 2083 H 206.118 -2.24288 2.20323 0
M  V30 2084 N 209.89 -1.43072 0.660911 0
M  V30 2085 C 210.82 -2.33497 -0.0122829 0
M  V30 2086 C 211.801 -1.49903 -0.803925 0
M  V30 2087 O 212.986 -1.78546 -0.763864 0
M  V30 2088 C 210.116 -3.33363 -0.973994 0
M  V30 2089 C 209.07 -4.27003 -0.291928 0
M  V30 2090 C 208.396 -5.16967 -1.36562 0
M  V30 2091 C 209.696 -5.15816 0.820462 0
M  V30 2092 H 211.39 -2.90038 0.742873 0
M  V30 2093 H 208.936 -1.39461 0.358688 0
M  V30 2094 H 210.889 -3.95524 -1.45392 0
M  V30 2095 H 209.613 -2.75095 -1.7604 0
M  V30 2096 H 208.272 -3.66217 0.167623 0
M  V30 2097 H 207.92 -4.55034 -2.14366 0
M  V30 2098 H 207.62 -5.80441 -0.914454 0
M  V30 2099 H 209.144 -5.82003 -1.84675 0
M  V30 2100 H 210.558 -5.71742 0.422366 0
M  V30 2101 H 208.955 -5.8805 1.19656 0
M  V30 2102 H 210.025 -4.55045 1.67518 0
M  V30 2103 N 211.368 -0.403325 -1.52352 0
M  V30 2104 C 212.596 0.174012 -2.06167 0
M  V30 2105 C 213.011 1.39347 -1.27388 0
M  V30 2106 O 212.368 1.79597 -0.324201 0
M  V30 2107 C 212.419 0.530223 -3.5759 0
M  V30 2108 O 212.14 -0.640806 -4.33388 0
M  V30 2109 C 213.641 1.16192 -4.27802 0
M  V30 2110 H 210.861 0.0229464 -0.670608 0
M  V30 2111 H 213.405 -0.572604 -1.9632 0
M  V30 2112 H 211.56 1.22673 -3.67464 0
M  V30 2113 H 211.974 -0.344851 -5.23365 0
M  V30 2114 H 213.448 1.36141 -5.34948 0
M  V30 2115 H 213.925 2.13335 -3.83907 0
M  V30 2116 H 214.531 0.505775 -4.22282 0
M  V30 2117 N 212.846 1.57033 -0.133567 0
M  V30 2118 C 213.776 2.1909 0.807567 0
M  V30 2119 C 214.757 1.13517 1.26681 0
M  V30 2120 O 215.942 1.41809 1.32679 0
M  V30 2121 C 213.072 2.80188 2.05212 0
M  V30 2122 C 212.026 3.91471 1.73015 0
M  V30 2123 C 211.352 4.39443 3.04622 0
M  V30 2124 C 212.652 5.12886 0.987168 0
M  V30 2125 H 214.346 2.97988 0.290403 0
M  V30 2126 H 211.892 1.43335 0.138239 0
M  V30 2127 H 213.845 3.22264 2.71521 0
M  V30 2128 H 212.569 1.98601 2.59278 0
M  V30 2129 H 211.228 3.49993 1.0909 0
M  V30 2130 H 210.876 3.54695 3.56651 0
M  V30 2131 H 210.576 5.14495 2.83847 0
M  V30 2132 H 212.1 4.8418 3.72024 0
M  V30 2133 H 213.514 5.51891 1.55208 0
M  V30 2134 H 211.911 5.93615 0.87985 0
M  V30 2135 H 212.981 4.84894 -0.0235286 0
M  V30 2136 N 214.325 -0.140222 1.56975 0
M  V30 2137 C 215.602 -0.880769 1.74648 0
M  V30 2138 C 215.982 -1.99036 0.703404 0
M  V30 2139 O 215.33 -2.26821 -0.27648 0
M  V30 2140 C 215.54 -1.417 3.18939 0
M  V30 2141 C 216.888 -1.87774 3.80823 0
M  V30 2142 O 217.912 -1.51427 3.2241 0
M  V30 2143 O 216.771 -2.54827 4.83452 0
M  V30 2144 H 213.865 -0.416713 0.714338 0
M  V30 2145 H 216.411 -0.125618 1.69234 0
M  V30 2146 H 215.183 -0.619902 3.86359 0
M  V30 2147 H 214.806 -2.23546 3.28805 0
M  V30 2148 N 215.803 -1.52179 -0.40978 0
M  V30 2149 C 216.733 -1.78435 -1.5061 0
M  V30 2150 C 217.714 -0.635295 -1.57791 0
M  V30 2151 O 218.899 -0.880823 -1.73076 0
M  V30 2152 C 216.029 -1.93444 -2.88439 0
M  V30 2153 C 214.983 -3.09038 -2.96108 0
M  V30 2154 C 214.309 -3.09268 -4.36185 0
M  V30 2155 C 215.609 -4.48508 -2.67652 0
M  V30 2156 H 217.303 -2.70237 -1.28889 0
M  V30 2157 H 214.849 -1.30036 -0.618605 0
M  V30 2158 H 216.802 -2.10394 -3.65119 0
M  V30 2159 H 215.526 -0.983129 -3.11452 0
M  V30 2160 H 214.185 -2.91837 -2.21872 0
M  V30 2161 H 213.833 -2.11861 -4.56206 0
M  V30 2162 H 213.533 -3.86907 -4.42241 0
M  V30 2163 H 215.057 -3.28348 -5.14801 0
M  V30 2164 H 216.471 -4.65918 -3.34056 0
M  V30 2165 H 214.868 -5.28059 -2.85085 0
M  V30 2166 H 215.938 -4.56649 -1.63095 0
M  V30 2167 N 217.281 0.66697 -1.42791 0
M  V30 2168 C 218.529 1.42417 -1.43394 0
M  V30 2169 C 218.85 1.94925 -0.0542373 0
M  V30 2170 O 218.12 1.73564 0.908415 0
M  V30 2171 H 216.7 0.528515 -0.527902 0
M  V30 2172 H 219.362 0.787562 -1.78279 0
M  V30 2173 H 218.458 2.27333 -2.13837 0
M  V30 2174 N 218.759 1.29093 0.90403 0
M  V30 2175 C 219.691 1.09658 2.01266 0
M  V30 2176 C 220.704 0.0453729 1.62737 0
M  V30 2177 O 221.893 0.289446 1.76138 0
M  V30 2178 C 218.993 0.646278 3.32681 0
M  V30 2179 C 218.166 1.77505 3.99763 0
M  V30 2180 C 217.225 1.31649 5.09465 0
M  V30 2181 O 216.251 2.02045 5.32134 0
M  V30 2182 N 217.453 0.184997 5.80205 0
M  V30 2183 H 220.218 2.05135 2.18494 0
M  V30 2184 H 217.779 1.20975 1.07594 0
M  V30 2185 H 219.771 0.322906 4.0341 0
M  V30 2186 H 218.341 -0.215916 3.11853 0
M  V30 2187 H 217.561 2.26752 3.22455 0
M  V30 2188 H 218.849 2.53198 4.41325 0
M  V30 2189 H 218.247 -0.402021 5.6427 0
M  V30 2190 H 216.804 -0.0790358 6.51752 0
M  V30 2191 N 220.237 -1.11381 1.11499 0
M  V30 2192 C 221.167 -2.19509 0.796125 0
M  V30 2193 C 222.148 -1.68458 -0.235796 0
M  V30 2194 O 223.333 -1.93947 -0.0991344 0
M  V30 2195 C 220.463 -3.46475 0.239205 0
M  V30 2196 C 219.417 -4.10744 1.20307 0
M  V30 2197 C 218.743 -5.32293 0.50683 0
M  V30 2198 C 220.043 -4.55597 2.55399 0
M  V30 2199 H 221.737 -2.46439 1.70024 0
M  V30 2200 H 219.283 -1.18446 0.818935 0
M  V30 2201 H 221.236 -4.214 0.00392006 0
M  V30 2202 H 219.96 -3.19006 -0.700206 0
M  V30 2203 H 218.619 -3.37813 1.42399 0
M  V30 2204 H 218.267 -5.01095 -0.437408 0
M  V30 2205 H 217.967 -5.76243 1.1497 0
M  V30 2206 H 219.491 -6.09956 0.280351 0
M  V30 2207 H 220.905 -5.21841 2.37391 0
M  V30 2208 H 219.302 -5.10363 3.15673 0
M  V30 2209 H 220.372 -3.69013 3.14575 0
M  V30 2210 N 221.715 -0.905404 -1.28997 0
M  V30 2211 C 222.962 -0.534248 -1.95325 0
M  V30 2212 C 223.29 0.920535 -1.71337 0
M  V30 2213 O 222.545 1.66861 -1.02254 0
M  V30 2214 C 222.844 -0.779906 -3.48787 0
M  V30 2215 C 222.51 -2.21293 -3.92861 0
M  V30 2216 C 221.172 -2.60475 -4.04606 0
M  V30 2217 C 223.524 -3.14587 -4.15553 0
M  V30 2218 C 220.852 -3.9212 -4.36416 0
M  V30 2219 C 223.204 -4.45787 -4.48839 0
M  V30 2220 C 221.868 -4.84834 -4.58794 0
M  V30 2221 H 221.138 -0.195495 -0.714747 0
M  V30 2222 H 223.785 -1.14514 -1.53488 0
M  V30 2223 H 222.09 -0.0861365 -3.91705 0
M  V30 2224 H 223.787 -0.472029 -3.98212 0
M  V30 2225 H 220.377 -1.89887 -3.84241 0
M  V30 2226 H 224.561 -2.85528 -4.0594 0
M  V30 2227 H 219.817 -4.22086 -4.42327 0
M  V30 2228 H 223.991 -5.18098 -4.65346 0
M  V30 2229 H 221.618 -5.86877 -4.83197 0
M  V30 2230 N 223.193 1.4272 -0.668489 0
M  V30 2231 C 224.143 2.27971 0.0363806 0
M  V30 2232 C 225.127 1.40741 0.779794 0
M  V30 2233 O 226.319 1.64245 0.659745 0
M  V30 2234 C 223.448 3.28673 0.991398 0
M  V30 2235 C 222.534 4.23388 0.245658 0
M  V30 2236 N 222.925 5.00267 -0.746069 0
M  V30 2237 C 221.223 4.43355 0.484988 0
M  V30 2238 C 221.924 5.69396 -1.19009 0
M  V30 2239 N 220.9 5.41095 -0.521287 0
M  V30 2240 H 224.702 2.84833 -0.724394 0
M  V30 2241 H 222.216 1.54607 -0.497028 0
M  V30 2242 H 224.213 3.88543 1.51129 0
M  V30 2243 H 222.873 2.73373 1.75207 0
M  V30 2244 H 223.884 5.05525 -1.12537 0
M  V30 2245 H 220.561 3.99104 1.22565 0
M  V30 2246 H 221.951 6.41083 -2.01153 0
M  V30 2247 N 224.671 0.411399 1.52136 0
M  V30 2248 C 225.917 -0.163888 2.02137 0
M  V30 2249 C 226.25 -1.44597 1.29636 0
M  V30 2250 O 225.525 -1.90272 0.403353 0
M  V30 2251 C 225.808 -0.40927 3.57767 0
M  V30 2252 C 225.661 0.889643 4.40914 0
M  V30 2253 C 226.98 -1.19042 4.23694 0
M  V30 2254 H 224.099 -0.0580896 0.734707 0
M  V30 2255 H 226.741 0.54531 1.82007 0
M  V30 2256 H 224.891 -1.0134 3.7505 0
M  V30 2257 H 226.563 1.52575 4.35337 0
M  V30 2258 H 224.806 1.50011 4.07037 0
M  V30 2259 H 225.477 0.672314 5.4789 0
M  V30 2260 H 227.953 -0.678942 4.10524 0
M  V30 2261 H 226.829 -1.33086 5.32522 0
M  V30 2262 H 227.09 -2.21166 3.82803 0
M  V30 2263 N 226.149 -1.5696 0.141893 0
M  V30 2264 C 227.112 -2.15316 -0.785587 0
M  V30 2265 C 228.112 -1.09366 -1.1788 0
M  V30 2266 O 229.302 -1.35031 -1.10056 0
M  V30 2267 C 226.434 -2.71211 -2.06537 0
M  V30 2268 H 227.627 -2.98608 -0.278041 0
M  V30 2269 H 225.18 -1.5593 -0.107519 0
M  V30 2270 H 225.915 -1.91571 -2.6167 0
M  V30 2271 H 225.7 -3.4872 -1.79268 0
M  V30 2272 H 227.19 -3.16189 -2.72789 0
M  V30 2273 N 227.627 0.131896 -1.57047 0
M  V30 2274 C 228.857 0.855219 -1.88068 0
M  V30 2275 C 229.265 1.74557 -0.729817 0
M  V30 2276 O 228.608 1.81083 0.308962 0
M  V30 2277 C 228.67 1.75119 -3.13964 0
M  V30 2278 C 228.334 1.03646 -4.45091 0
M  V30 2279 C 229.331 0.383276 -5.18485 0
M  V30 2280 C 227.016 1.02148 -4.91804 0
M  V30 2281 C 229.01 -0.275347 -6.36805 0
M  V30 2282 C 226.697 0.359047 -6.10044 0
M  V30 2283 C 227.695 -0.288222 -6.82392 0
M  V30 2284 O 227.383 -0.94011 -7.98384 0
M  V30 2285 H 227.115 0.251864 -0.627328 0
M  V30 2286 H 229.669 0.124782 -2.05021 0
M  V30 2287 H 227.899 2.52295 -2.9306 0
M  V30 2288 H 229.588 2.3478 -3.31109 0
M  V30 2289 H 230.354 0.386562 -4.83457 0
M  V30 2290 H 226.233 1.5147 -4.35405 0
M  V30 2291 H 229.777 -0.781148 -6.93213 0
M  V30 2292 H 225.674 0.35348 -6.44531 0
M  V30 2293 H 226.442 -0.84329 -8.14144 0
M  V30 2294 N 229.106 1.52395 0.401703 0
M  V30 2295 C 230.355 1.66044 1.14509 0
M  V30 2296 C 230.668 0.400216 1.91462 0
M  V30 2297 O 231.874 0.416632 2.68284 0
M  V30 2298 C 230.33 2.93388 2.0845 0
M  V30 2299 C 229.938 4.26545 1.36978 0
M  V30 2300 C 231.682 3.16402 2.83001 0
M  V30 2301 C 229.589 5.45007 2.29611 0
M  V30 2302 H 228.519 0.618562 0.431158 0
M  V30 2303 H 231.17 1.78886 0.40892 0
M  V30 2304 H 229.552 2.74263 2.8565 0
M  V30 2305 H 230.726 4.56179 0.650916 0
M  V30 2306 H 229.041 4.09692 0.74438 0
M  V30 2307 H 231.638 4.02085 3.52465 0
M  V30 2308 H 231.981 2.30943 3.46368 0
M  V30 2309 H 232.514 3.36034 2.12898 0
M  V30 2310 H 229.253 6.32835 1.70879 0
M  V30 2311 H 228.773 5.19702 2.9945 0
M  V30 2312 H 230.452 5.7838 2.89974 0
M  V30 2313 N 230.584 -0.659388 1.43143 0
M  V30 2314 C 231.514 -1.78422 1.50625 0
M  V30 2315 C 232.495 -1.66216 0.361443 0
M  V30 2316 O 233.68 -1.85404 0.577834 0
M  V30 2317 C 230.81 -3.16815 1.42287 0
M  V30 2318 C 229.764 -3.43777 2.54954 0
M  V30 2319 C 229.09 -4.81905 2.31671 0
M  V30 2320 C 230.39 -3.39134 3.97222 0
M  V30 2321 H 232.084 -1.72417 2.44771 0
M  V30 2322 H 229.63 -0.828084 1.17808 0
M  V30 2323 H 231.583 -3.95253 1.46127 0
M  V30 2324 H 230.307 -3.23534 0.446435 0
M  V30 2325 H 228.966 -2.67707 2.50457 0
M  V30 2326 H 228.614 -4.85294 1.32284 0
M  V30 2327 H 228.314 -5.00906 3.07192 0
M  V30 2328 H 229.838 -5.62609 2.37284 0
M  V30 2329 H 231.252 -4.07518 4.03239 0
M  V30 2330 H 229.649 -3.69671 4.72719 0
M  V30 2331 H 230.719 -2.37426 4.22797 0
M  V30 2332 N 232.062 -1.29571 -0.897171 0
M  V30 2333 C 233.311 -1.1706 -1.64256 0
M  V30 2334 C 233.624 0.276476 -1.93636 0
M  V30 2335 O 234.83 0.52294 -2.66416 0
M  V30 2336 C 233.286 -2.0475 -2.95982 0
M  V30 2337 C 232.894 -3.54295 -2.74187 0
M  V30 2338 C 234.638 -2.0097 -3.73914 0
M  V30 2339 C 232.545 -4.34081 -4.01656 0
M  V30 2340 H 231.475 -0.43452 -0.616205 0
M  V30 2341 H 234.126 -1.54229 -0.994268 0
M  V30 2342 H 232.508 -1.60452 -3.62038 0
M  V30 2343 H 233.682 -4.06662 -2.1671 0
M  V30 2344 H 231.997 -3.59773 -2.09648 0
M  V30 2345 H 234.594 -2.57838 -4.68427 0
M  V30 2346 H 234.937 -0.990273 -4.0435 0
M  V30 2347 H 235.47 -2.43325 -3.14703 0
M  V30 2348 H 232.209 -5.36671 -3.76384 0
M  V30 2349 H 231.729 -3.86483 -4.58684 0
M  V30 2350 H 233.408 -4.44877 -4.69781 0
M  V30 2351 N 233.54 1.10788 -1.12088 0
M  V30 2352 C 234.487 2.17025 -0.785407 0
M  V30 2353 C 235.457 1.64265 0.246191 0
M  V30 2354 O 236.642 1.90412 0.121584 0
M  V30 2355 C 233.782 3.44249 -0.242177 0
M  V30 2356 C 232.895 4.1098 -1.33115 0
M  V30 2357 C 232.03 5.25911 -0.747741 0
M  V30 2358 C 231.069 5.84538 -1.81609 0
M  V30 2359 N 230.206 6.90853 -1.25167 0
M  V30 2360 H 235.046 2.45066 -1.69548 0
M  V30 2361 H 232.583 1.20297 -0.846582 0
M  V30 2362 H 234.541 4.17101 0.0908026 0
M  V30 2363 H 233.171 3.16571 0.631072 0
M  V30 2364 H 232.223 3.36133 -1.78097 0
M  V30 2365 H 233.535 4.50601 -2.13917 0
M  V30 2366 H 232.689 6.056 -0.365216 0
M  V30 2367 H 231.428 4.87614 0.0915188 0
M  V30 2368 H 230.433 5.03522 -2.20785 0
M  V30 2369 H 231.658 6.249 -2.6585 0
M  V30 2370 H 229.604 6.54562 -0.434174 0
M  V30 2371 H 229.521 7.29166 -1.99633 0
M  V30 2372 H 230.789 7.7433 -0.896259 0
M  V30 2373 N 235.018 0.912232 1.28515 0
M  V30 2374 C 236.265 0.544599 1.95039 0
M  V30 2375 C 236.593 -0.911435 1.71823 0
M  V30 2376 O 235.848 -1.66317 1.03137 0
M  V30 2377 C 236.147 0.798392 3.48368 0
M  V30 2378 C 235.813 2.23374 3.91682 0
M  V30 2379 C 234.475 2.62617 4.03219 0
M  V30 2380 C 236.827 3.16786 4.13879 0
M  V30 2381 C 234.155 3.94429 4.3433 0
M  V30 2382 C 236.507 4.48161 4.46469 0
M  V30 2383 C 235.171 4.8726 4.56217 0
M  V30 2384 H 234.441 0.199283 0.7137 0
M  V30 2385 H 237.088 1.15327 1.52879 0
M  V30 2386 H 235.393 0.106908 3.91654 0
M  V30 2387 H 237.09 0.493141 3.97956 0
M  V30 2388 H 233.68 1.91922 3.83228 0
M  V30 2389 H 237.864 2.87677 4.0442 0
M  V30 2390 H 233.12 4.24426 4.40082 0
M  V30 2391 H 237.294 5.20559 4.62592 0
M  V30 2392 H 234.921 5.89431 4.80078 0
M  V30 2393 N 236.496 -1.42363 0.676048 0
M  V30 2394 C 237.459 -2.29199 0.00766941 0
M  V30 2395 C 238.459 -1.43389 -0.727745 0
M  V30 2396 O 239.649 -1.64764 -0.56556 0
M  V30 2397 C 236.781 -3.2591 -0.999785 0
M  V30 2398 H 237.974 -2.89794 0.771988 0
M  V30 2399 H 235.527 -1.50024 0.438468 0
M  V30 2400 H 236.262 -2.70256 -1.79255 0
M  V30 2401 H 236.047 -3.89202 -0.475829 0
M  V30 2402 H 237.537 -3.91028 -1.46583 0
M  V30 2403 N 237.974 -0.419461 -1.51915 0
M  V30 2404 C 238.922 0.415502 -2.28859 0
M  V30 2405 C 239.916 1.03674 -1.3397 0
M  V30 2406 O 241.122 0.973757 -1.51387 0
M  V30 2407 H 237.497 0.152786 -0.736315 0
M  V30 2408 H 239.468 -0.254531 -2.97312 0
M  V30 2409 C 238.217 1.51425 -3.12995 0
M  V30 2410 H 237.54 1.04556 -3.85886 0
M  V30 2411 H 238.98 2.07208 -3.6992 0
M  V30 2412 C 237.439 2.48745 -2.27217 0
M  V30 2413 O 237.969 3.52871 -1.9195 0
M  V30 2414 N 236.175 2.19202 -1.90785 0
M  V30 2415 H 235.722 1.34556 -2.19664 0
M  V30 2416 H 235.68 2.84561 -1.33687 0
M  V30 2417 N 239.452 1.56882 -0.150215 0
M  V30 2418 C 240.677 2.01027 0.510184 0
M  V30 2419 C 241.102 1.02966 1.57415 0
M  V30 2420 O 240.46 0.00590158 1.81299 0
M  V30 2421 C 240.508 3.43899 1.08472 0
M  V30 2422 O 239.612 3.4885 2.19948 0
M  V30 2423 H 238.953 0.652233 0.124451 0
M  V30 2424 H 241.483 2.03093 -0.247894 0
M  V30 2425 H 241.493 3.82766 1.41259 0
M  V30 2426 H 240.168 4.14776 0.305582 0
M  V30 2427 H 238.745 3.21827 1.88366 0
M  V30 2428 N 240.93 -0.123565 1.57115 0
M  V30 2429 C 242.341 -0.681198 1.73829 0
M  V30 2430 C 242.692 -1.80535 0.768214 0
M  V30 2431 O 241.817 -2.16317 -0.0599103 0
M  V30 2432 C 242.412 -1.24246 3.15196 0
M  V30 2433 C 240.971 -1.74643 3.33432 0
M  V30 2434 C 240.118 -0.644284 2.69711 0
M  V30 2435 H 243.069 0.102315 1.5837 0
M  V30 2436 H 243.09 -2.11216 3.16493 0
M  V30 2437 H 242.602 -0.424062 3.85776 0
M  V30 2438 H 240.703 -2.58974 2.67886 0
M  V30 2439 H 240.816 -1.85902 4.41562 0
M  V30 2440 H 239.18 -1.07676 2.3082 0
M  V30 2441 H 239.963 0.163058 3.42913 0
M  V30 2442 N 242.408 -1.52605 -0.393616 0
M  V30 2443 C 243.824 -1.41753 -0.733357 0
M  V30 2444 C 244.024 -0.534293 -1.94287 0
M  V30 2445 O 243.08 -0.0059787 -2.52499 0
M  V30 2446 C 244.393 -2.84531 -0.972772 0
M  V30 2447 C 245.941 -2.93978 -1.07453 0
M  V30 2448 C 246.416 -4.37756 -1.3466 0
M  V30 2449 N 247.907 -4.4106 -1.41492 0
M  V30 2450 C 248.642 -5.49387 -1.642 0
M  V30 2451 N 248.138 -6.67806 -1.8441 0
M  V30 2452 N 249.931 -5.36923 -1.66342 0
M  V30 2453 H 242.082 -2.08555 0.402328 0
M  V30 2454 H 244.345 -0.940654 0.117789 0
M  V30 2455 H 244.051 -3.51353 -0.156204 0
M  V30 2456 H 243.925 -3.26508 -1.88871 0
M  V30 2457 H 246.312 -2.27326 -1.88167 0
M  V30 2458 H 246.393 -2.55435 -0.136605 0
M  V30 2459 H 246.037 -5.04972 -0.544581 0
M  V30 2460 H 245.967 -4.73848 -2.2973 0
M  V30 2461 H 248.458 -3.55705 -1.27601 0
M  V30 2462 H 248.771 -7.46141 -2.01231 0
M  V30 2463 H 247.116 -6.70843 -1.81644 0
M  V30 2464 H 250.307 -4.43381 -1.50102 0
M  V30 2465 H 250.48 -6.21416 -1.837 0
M  V30 2466 N 243.887 0.651787 -1.4349 0
M  V30 2467 C 245.298 1.233 -1.40193 0
M  V30 2468 C 245.649 1.9591 -0.106727 0
M  V30 2469 O 244.774 2.01316 0.793773 0
M  V30 2470 C 245.369 2.24257 -2.53957 0
M  V30 2471 C 243.928 2.77852 -2.5392 0
M  V30 2472 C 243.075 1.52517 -2.3159 0
M  V30 2473 H 246.026 0.443717 -1.52371 0
M  V30 2474 H 246.047 3.0646 -2.25528 0
M  V30 2475 H 245.559 1.71382 -3.4821 0
M  V30 2476 H 243.66 3.34786 -1.63551 0
M  V30 2477 H 243.773 3.25299 -3.51735 0
M  V30 2478 H 242.137 1.79915 -1.80285 0
M  V30 2479 H 242.92 1.01574 -3.27929 0
M  V30 2480 N 245.365 1.30045 0.890287 0
M  V30 2481 C 246.642 1.09227 1.62262 0
M  V30 2482 C 247.022 -0.360305 2.08002 0
M  V30 2483 O 246.37 -1.35084 1.84295 0
M  V30 2484 C 246.58 2.08835 2.79623 0
M  V30 2485 C 247.928 2.40266 3.50082 0
M  V30 2486 O 248.952 2.07104 2.89804 0
M  V30 2487 O 247.811 2.96967 4.58773 0
M  V30 2488 H 244.905 0.419132 0.712922 0
M  V30 2489 H 247.451 1.41451 0.937529 0
M  V30 2490 H 246.223 3.06633 2.43089 0
M  V30 2491 H 245.846 1.77397 3.55832 0
M  V30 2492 N 246.843 -1.10192 1.12674 0
M  V30 2493 C 247.773 -2.18652 0.819362 0
M  V30 2494 C 248.754 -1.68698 -0.217915 0
M  V30 2495 O 249.939 -1.94041 -0.0785581 0
M  V30 2496 C 247.069 -3.46202 0.27594 0
M  V30 2497 C 246.023 -4.09444 1.24656 0
M  V30 2498 C 245.349 -5.31725 0.563258 0
M  V30 2499 C 246.649 -4.52863 2.60217 0
M  V30 2500 H 248.343 -2.44622 1.72628 0
M  V30 2501 H 245.889 -1.17571 0.831451 0
M  V30 2502 H 247.842 -4.21372 0.0486149 0
M  V30 2503 H 246.566 -3.1973 -0.666331 0
M  V30 2504 H 245.225 -3.36284 1.45974 0
M  V30 2505 H 244.873 -5.0153 -0.384235 0
M  V30 2506 H 244.573 -5.74991 1.21075 0
M  V30 2507 H 246.097 -6.09624 0.34503 0
M  V30 2508 H 247.511 -5.19294 2.42913 0
M  V30 2509 H 245.908 -5.06986 3.21068 0
M  V30 2510 H 246.978 -3.65656 3.18471 0
M  V30 2511 N 248.321 -0.919034 -1.28029 0
M  V30 2512 C 249.567 -0.565221 -1.95389 0
M  V30 2513 C 249.922 0.882325 -1.70976 0
M  V30 2514 O 249.215 1.61988 -1.02325 0
M  V30 2515 C 249.409 -0.816855 -3.4794 0
M  V30 2516 C 249.238 -2.28731 -3.87185 0
M  V30 2517 C 248.008 -2.93841 -4.11079 0
M  V30 2518 C 250.206 -3.26415 -3.97439 0
M  V30 2519 N 248.188 -4.31129 -4.37037 0
M  V30 2520 C 249.559 -4.48884 -4.27672 0
M  V30 2521 C 251.614 -3.21742 -3.79982 0
M  V30 2522 C 250.317 -5.67268 -4.42266 0
M  V30 2523 C 252.343 -4.39431 -3.95796 0
M  V30 2524 C 251.705 -5.60675 -4.26407 0
M  V30 2525 H 247.804 -0.256797 -0.738633 0
M  V30 2526 H 250.388 -1.18386 -1.54573 0
M  V30 2527 H 248.559 -0.227445 -3.87733 0
M  V30 2528 H 250.291 -0.426542 -4.02446 0
M  V30 2529 H 247.046 -2.44547 -4.05578 0
M  V30 2530 H 247.47 -5.02127 -4.5409 0
M  V30 2531 H 252.112 -2.29079 -3.55363 0
M  V30 2532 H 249.83 -6.60406 -4.65714 0
M  V30 2533 H 253.416 -4.37323 -3.83719 0
M  V30 2534 H 252.296 -6.50223 -4.38383 0
M  V30 2535 N 249.799 1.42003 -0.683588 0
M  V30 2536 C 251.045 2.01712 -0.209825 0
M  V30 2537 C 251.378 1.53968 1.18353 0
M  V30 2538 O 250.653 0.745661 1.79639 0
M  V30 2539 C 250.936 3.59202 -0.254197 0
M  V30 2540 C 250.789 4.17102 -1.68363 0
M  V30 2541 C 252.108 4.38344 0.392709 0
M  V30 2542 H 249.227 0.732891 -0.0777189 0
M  V30 2543 H 251.869 1.68909 -0.87004 0
M  V30 2544 H 250.019 3.87278 0.307954 0
M  V30 2545 H 251.691 3.99946 -2.29871 0
M  V30 2546 H 249.934 3.72597 -2.22157 0
M  V30 2547 H 250.605 5.26249 -1.6663 0
M  V30 2548 H 253.081 4.16011 -0.0859162 0
M  V30 2549 H 251.957 5.47901 0.331063 0
M  V30 2550 H 252.218 4.16887 1.47164 0
M  V30 2551 N 251.277 0.427512 1.51691 0
M  V30 2552 C 252.207 -0.3796 2.30394 0
M  V30 2553 C 253.188 -1.02982 1.35384 0
M  V30 2554 O 254.373 -1.03534 1.643 0
M  V30 2555 C 251.503 -1.48649 3.1388 0
M  V30 2556 C 250.457 -0.960294 4.17088 0
M  V30 2557 C 249.783 -2.16219 4.89033 0
M  V30 2558 C 251.083 -0.00153679 5.223 0
M  V30 2559 H 252.777 0.277164 2.98114 0
M  V30 2560 H 250.323 0.134739 1.43368 0
M  V30 2561 H 252.276 -2.05826 3.67714 0
M  V30 2562 H 251 -2.1714 2.43962 0
M  V30 2563 H 249.659 -0.410806 3.64291 0
M  V30 2564 H 249.307 -2.83307 4.15628 0
M  V30 2565 H 249.007 -1.81654 5.58816 0
M  V30 2566 H 250.531 -2.73968 5.45687 0
M  V30 2567 H 251.945 -0.482687 5.71264 0
M  V30 2568 H 250.342 0.256199 5.99553 0
M  V30 2569 H 251.412 0.938174 4.75738 0
M  V30 2570 N 252.755 -1.56801 0.158532 0
M  V30 2571 C 253.665 -2.20916 -0.789518 0
M  V30 2572 C 254.681 -1.1969 -1.26294 0
M  V30 2573 O 255.857 -1.52308 -1.31773 0
M  V30 2574 C 252.922 -2.82727 -2.00665 0
M  V30 2575 C 251.983 -3.99114 -1.58134 0
M  V30 2576 C 251.216 -4.57968 -2.74045 0
M  V30 2577 O 251.439 -4.15704 -3.90572 0
M  V30 2578 O 250.373 -5.48047 -2.48855 0
M  V30 2579 H 254.199 -3.02464 -0.273681 0
M  V30 2580 H 251.784 -1.4924 -0.0690548 0
M  V30 2581 H 253.666 -3.21968 -2.71872 0
M  V30 2582 H 252.341 -2.04184 -2.51179 0
M  V30 2583 H 251.248 -3.64567 -0.839155 0
M  V30 2584 H 252.581 -4.79212 -1.12325 0
M  V30 2585 N 254.233 0.115231 -1.57178 0
M  V30 2586 C 255.649 0.468877 -1.52557 0
M  V30 2587 C 255.849 1.81649 -0.872125 0
M  V30 2588 O 254.905 2.48347 -0.45606 0
M  V30 2589 C 256.218 0.4499 -2.97315 0
M  V30 2590 C 257.766 0.533185 -3.08425 0
M  V30 2591 C 258.241 0.54456 -4.54751 0
M  V30 2592 N 259.732 0.605892 -4.5922 0
M  V30 2593 C 260.467 0.636203 -5.6986 0
M  V30 2594 N 259.963 0.623931 -6.89985 0
M  V30 2595 N 261.756 0.679496 -5.57978 0
M  V30 2596 H 253.907 -0.767712 -1.9804 0
M  V30 2597 H 256.17 -0.283609 -0.904583 0
M  V30 2598 H 255.876 -0.472721 -3.48509 0
M  V30 2599 H 255.75 1.27632 -3.5495 0
M  V30 2600 H 258.137 1.44623 -2.57232 0
M  V30 2601 H 258.218 -0.320995 -2.53778 0
M  V30 2602 H 257.862 -0.364452 -5.06591 0
M  V30 2603 H 257.792 1.41568 -5.07214 0
M  V30 2604 H 260.283 0.621386 -3.72756 0
M  V30 2605 H 260.596 0.649787 -7.70063 0
M  V30 2606 H 258.941 0.591296 -6.9248 0
M  V30 2607 H 262.132 0.686472 -4.63039 0
M  V30 2608 H 262.305 0.69965 -6.44212 0
M  V30 2609 N 255.711 1.52812 0.385517 0
M  V30 2610 C 256.936 1.72207 1.15583 0
M  V30 2611 C 257.361 0.441034 1.82857 0
M  V30 2612 O 256.719 -0.603465 1.70962 0
M  V30 2613 C 256.767 2.87476 2.17692 0
M  V30 2614 O 255.871 2.54693 3.24354 0
M  V30 2615 H 255.212 0.572526 0.336319 0
M  V30 2616 H 257.742 1.99618 0.448744 0
M  V30 2617 H 257.752 3.13072 2.6163 0
M  V30 2618 H 256.427 3.80408 1.68115 0
M  V30 2619 H 255.004 2.3985 2.85529 0
M  V30 2620 N 257.189 -0.644168 1.43834 0
M  V30 2621 C 258.435 -1.40603 1.46146 0
M  V30 2622 C 258.768 -1.93997 0.0887717 0
M  V30 2623 O 258.043 -1.72854 -0.891724 0
M  V30 2624 C 258.326 -2.58086 2.51124 0
M  V30 2625 C 258.179 -2.10126 3.97702 0
M  V30 2626 C 259.498 -3.60291 2.52742 0
M  V30 2627 H 256.617 -0.509905 0.532134 0
M  V30 2628 H 259.259 -0.729502 1.75437 0
M  V30 2629 H 257.409 -3.15801 2.26278 0
M  V30 2630 H 259.081 -1.57342 4.33637 0
M  V30 2631 H 257.324 -1.41419 4.10101 0
M  V30 2632 H 257.995 -2.94649 4.66783 0
M  V30 2633 H 260.471 -3.12352 2.7491 0
M  V30 2634 H 259.347 -4.40032 3.28121 0
M  V30 2635 H 259.608 -4.1349 1.56455 0
M  V30 2636 N 258.668 -1.30515 -0.883378 0
M  V30 2637 C 259.945 -1.10086 -1.6168 0
M  V30 2638 C 260.325 0.349269 -2.08191 0
M  V30 2639 O 259.673 1.34105 -1.85008 0
M  V30 2640 C 259.883 -2.10315 -2.78511 0
M  V30 2641 C 261.231 -2.42119 -3.48803 0
M  V30 2642 O 262.255 -2.08638 -2.88702 0
M  V30 2643 O 261.114 -2.99396 -4.57192 0
M  V30 2644 H 258.208 -0.422907 -0.710689 0
M  V30 2645 H 260.754 -1.41947 -0.930015 0
M  V30 2646 H 259.526 -3.07917 -2.41459 0
M  V30 2647 H 259.149 -1.79282 -3.54886 0
M  V30 2648 N 260.146 1.09593 -1.13257 0
M  V30 2649 C 261.393 1.81734 -0.893257 0
M  V30 2650 C 261.721 1.8563 0.580656 0
M  V30 2651 O 260.976 1.31906 1.44566 0
M  V30 2652 C 261.275 3.27802 -1.42411 0
M  V30 2653 C 260.941 3.44041 -2.91456 0
M  V30 2654 C 259.603 3.48181 -3.3215 0
M  V30 2655 C 261.955 3.48719 -3.87356 0
M  V30 2656 C 259.283 3.54575 -4.67433 0
M  V30 2657 C 261.635 3.56648 -5.2248 0
M  V30 2658 C 260.299 3.59055 -5.62704 0
M  V30 2659 H 259.569 0.665011 -0.326866 0
M  V30 2660 H 262.216 1.2912 -1.41422 0
M  V30 2661 H 260.521 3.83042 -0.823795 0
M  V30 2662 H 262.218 3.82149 -1.21503 0
M  V30 2663 H 258.808 3.41502 -2.58987 0
M  V30 2664 H 262.992 3.44763 -3.57004 0
M  V30 2665 H 258.248 3.54725 -4.97976 0
M  V30 2666 H 262.422 3.59212 -5.96607 0
M  V30 2667 H 260.049 3.63763 -6.67518 0
M  V30 2668 N 261.624 0.925811 1.2754 0
M  V30 2669 C 262.872 0.564138 1.94067 0
M  V30 2670 C 263.193 -0.897188 1.73134 0
M  V30 2671 O 262.463 -1.63573 1.07799 0
M  V30 2672 H 261.043 0.205645 0.718136 0
M  V30 2673 H 263.705 1.1778 1.55287 0
M  V30 2674 H 262.801 0.76881 3.02483 0
M  V30 2675 N 263.102 -1.41638 0.69111 0
M  V30 2676 C 264.327 -2.06148 0.227583 0
M  V30 2677 C 264.752 -1.51652 -1.11281 0
M  V30 2678 O 264.11 -0.64164 -1.69566 0
M  V30 2679 C 264.158 -3.60095 0.190858 0
M  V30 2680 O 263.262 -4.03845 -0.835664 0
M  V30 2681 H 262.603 -0.654434 0.112306 0
M  V30 2682 H 265.133 -1.81484 0.944714 0
M  V30 2683 H 265.143 -4.07995 0.020207 0
M  V30 2684 H 263.818 -3.99129 1.16915 0
M  V30 2685 H 262.395 -3.67458 -0.63473 0
M  V30 2686 N 264.58 -0.43555 -1.51462 0
M  V30 2687 C 265.808 0.130242 -2.0649 0
M  V30 2688 C 266.223 1.36614 -1.30315 0
M  V30 2689 O 265.58 1.78869 -0.362223 0
M  V30 2690 C 265.631 0.454253 -3.58635 0
M  V30 2691 O 265.352 -0.73259 -4.31931 0
M  V30 2692 C 266.853 1.07091 -4.3017 0
M  V30 2693 H 264.073 0.00871669 -0.670943 0
M  V30 2694 H 266.617 -0.614117 -1.95061 0
M  V30 2695 H 264.772 1.14851 -3.69984 0
M  V30 2696 H 265.186 -0.455787 -5.22516 0
M  V30 2697 H 266.66 1.24764 -5.37716 0
M  V30 2698 H 267.137 2.05144 -3.88346 0
M  V30 2699 H 267.743 0.416089 -4.2326 0
M  V30 2700 N 266.058 1.56714 -0.166846 0
M  V30 2701 C 267.288 2.00828 0.48494 0
M  V30 2702 C 267.696 1.04612 1.57648 0
M  V30 2703 O 267.039 0.0383201 1.8366 0
M  V30 2704 C 267.101 3.4137 1.12723 0
M  V30 2705 C 266.765 4.56654 0.177886 0
M  V30 2706 C 267.762 5.16402 -0.60207 0
M  V30 2707 C 265.447 5.02244 0.0750139 0
M  V30 2708 C 267.441 6.20167 -1.47215 0
M  V30 2709 C 265.128 6.05859 -0.798649 0
M  V30 2710 C 266.126 6.64691 -1.57082 0
M  V30 2711 O 265.814 7.66297 -2.42989 0
M  V30 2712 H 265.546 0.663587 0.128953 0
M  V30 2713 H 268.1 2.03692 -0.264365 0
M  V30 2714 H 266.33 3.35406 1.92457 0
M  V30 2715 H 268.019 3.69466 1.68076 0
M  V30 2716 H 268.785 4.82065 -0.53274 0
M  V30 2717 H 264.664 4.56167 0.665812 0
M  V30 2718 H 268.208 6.66016 -2.07531 0
M  V30 2719 H 264.105 6.39621 -0.869199 0
M  V30 2720 H 264.873 7.83601 -2.36455 0
M  V30 2721 N 267.536 -0.106894 1.57237 0
M  V30 2722 C 268.761 -0.830287 1.90055 0
M  V30 2723 C 269.186 -1.72064 0.75998 0
M  V30 2724 O 268.544 -1.78982 -0.288991 0
M  V30 2725 C 268.592 -1.6295 3.21683 0
M  V30 2726 O 267.696 -2.73748 3.08441 0
M  V30 2727 H 267.037 -0.228855 0.623315 0
M  V30 2728 H 269.567 -0.085658 2.04421 0
M  V30 2729 H 269.577 -2.01621 3.54701 0
M  V30 2730 H 268.252 -0.975989 4.04286 0
M  V30 2731 H 266.829 -2.38192 2.86913 0
M  V30 2732 N 269.014 -1.53014 -0.377408 0
M  V30 2733 C 270.425 -1.60438 -0.954798 0
M  V30 2734 C 270.776 -0.464418 -1.90624 0
M  V30 2735 O 269.901 0.41087 -2.12464 0
M  V30 2736 C 270.496 -2.90797 -1.73847 0
M  V30 2737 C 269.055 -3.00595 -2.26538 0
M  V30 2738 C 268.202 -2.55645 -1.07429 0
M  V30 2739 H 271.153 -1.57926 -0.156575 0
M  V30 2740 H 271.174 -2.77935 -2.5987 0
M  V30 2741 H 270.686 -3.73746 -1.04574 0
M  V30 2742 H 268.787 -2.22208 -2.99089 0
M  V30 2743 H 268.9 -4.05456 -2.5523 0
M  V30 2744 H 267.264 -2.10239 -1.43777 0
M  V30 2745 H 268.047 -3.41 -0.396728 0
M  V30 2746 N 270.492 0.636531 -1.44174 0
M  V30 2747 C 271.738 1.39649 -1.47884 0
M  V30 2748 C 272.093 1.92098 -0.107747 0
M  V30 2749 O 271.386 1.70391 0.876208 0
M  V30 2750 C 271.58 2.58309 -2.47005 0
M  V30 2751 C 271.409 2.17476 -3.93617 0
M  V30 2752 C 270.179 2.0501 -4.61843 0
M  V30 2753 C 272.377 1.76722 -4.82984 0
M  V30 2754 N 270.359 1.57683 -5.93304 0
M  V30 2755 C 271.73 1.40601 -6.03847 0
M  V30 2756 C 273.785 1.64054 -4.70096 0
M  V30 2757 C 272.488 0.930787 -7.13252 0
M  V30 2758 C 274.514 1.17937 -5.79521 0
M  V30 2759 C 273.876 0.827625 -6.99521 0
M  V30 2760 H 269.975 0.506027 -0.596205 0
M  V30 2761 H 272.559 0.730791 -1.80465 0
M  V30 2762 H 270.73 3.22514 -2.16423 0
M  V30 2763 H 272.462 3.25083 -2.41045 0
M  V30 2764 H 269.217 2.25294 -4.16581 0
M  V30 2765 H 269.641 1.36334 -6.63131 0
M  V30 2766 H 274.283 1.89882 -3.77762 0
M  V30 2767 H 272.001 0.660012 -8.054 0
M  V30 2768 H 275.587 1.08601 -5.71574 0
M  V30 2769 H 274.467 0.476231 -7.82753 0
M  V30 2770 N 271.97 1.30982 0.876444 0
M  V30 2771 C 272.902 1.13902 1.98894 0
M  V30 2772 C 273.915 0.0798815 1.62604 0
M  V30 2773 O 275.104 0.326743 1.75484 0
M  V30 2774 C 272.204 0.716699 3.31235 0
M  V30 2775 C 271.377 1.85945 3.95908 0
M  V30 2776 C 270.436 1.42426 5.06558 0
M  V30 2777 O 269.462 2.13287 5.27729 0
M  V30 2778 N 270.664 0.308025 5.79682 0
M  V30 2779 H 273.429 2.09724 2.14094 0
M  V30 2780 H 270.99 1.2323 1.05004 0
M  V30 2781 H 272.982 0.408403 4.02634 0
M  V30 2782 H 271.552 -0.149719 3.12241 0
M  V30 2783 H 270.772 2.33541 3.17573 0
M  V30 2784 H 272.06 2.62503 4.35855 0
M  V30 2785 H 271.458 -0.282241 5.64995 0
M  V30 2786 H 270.015 0.0592282 6.51773 0
M  V30 2787 N 273.449 -1.08991 1.13837 0
M  V30 2788 C 274.679 -1.84743 0.924859 0
M  V30 2789 C 275.087 -1.81629 -0.529874 0
M  V30 2790 O 274.43 -1.21397 -1.37872 0
M  V30 2791 C 274.492 -3.33568 1.34061 0
M  V30 2792 C 274.156 -3.60425 2.80968 0
M  V30 2793 C 275.153 -3.55771 3.79108 0
M  V30 2794 C 272.838 -3.88627 3.18236 0
M  V30 2795 C 274.832 -3.78939 5.12527 0
M  V30 2796 C 272.519 -4.11449 4.51833 0
M  V30 2797 C 273.517 -4.06598 5.48787 0
M  V30 2798 O 273.205 -4.28826 6.79973 0
M  V30 2799 H 272.937 -0.590258 0.329502 0
M  V30 2800 H 275.491 -1.38598 1.51591 0
M  V30 2801 H 273.721 -3.80442 0.692853 0
M  V30 2802 H 275.41 -3.90743 1.09886 0
M  V30 2803 H 276.176 -3.34005 3.51661 0
M  V30 2804 H 272.055 -3.91526 2.43369 0
M  V30 2805 H 275.599 -3.75068 5.88192 0
M  V30 2806 H 271.496 -4.32698 4.79002 0
M  V30 2807 H 272.264 -4.46264 6.86142 0
M  V30 2808 N 274.927 -0.932562 -1.27047 0
M  V30 2809 C 276.174 -0.575559 -1.94148 0
M  V30 2810 C 276.502 0.883984 -1.73251 0
M  V30 2811 O 275.757 1.64655 -1.0577 0
M  V30 2812 C 276.056 -0.853713 -3.47054 0
M  V30 2813 C 275.722 -2.29577 -3.88079 0
M  V30 2814 C 274.384 -2.68999 -3.9899 0
M  V30 2815 C 276.736 -3.23331 -4.08787 0
M  V30 2816 C 274.064 -4.01289 -4.28 0
M  V30 2817 C 276.416 -4.55207 -4.39282 0
M  V30 2818 C 275.08 -4.94457 -4.48407 0
M  V30 2819 H 274.35 -0.210612 -0.710439 0
M  V30 2820 H 276.997 -1.17744 -1.51025 0
M  V30 2821 H 275.302 -0.169204 -3.91434 0
M  V30 2822 H 276.999 -0.55639 -3.97121 0
M  V30 2823 H 273.589 -1.97994 -3.80127 0
M  V30 2824 H 277.773 -2.94074 -3.99793 0
M  V30 2825 H 273.029 -4.31374 -4.33275 0
M  V30 2826 H 277.203 -5.27852 -4.54252 0
M  V30 2827 H 274.83 -5.96994 -4.7064 0
M  V30 2828 N 276.405 1.4127 -0.698611 0
M  V30 2829 C 277.368 2.29158 -0.044132 0
M  V30 2830 C 278.368 1.44529 0.704841 0
M  V30 2831 O 279.558 1.65643 0.539276 0
M  V30 2832 C 276.69 3.27459 0.947809 0
M  V30 2833 H 277.883 2.88529 -0.817994 0
M  V30 2834 H 275.436 1.49307 -0.46228 0
M  V30 2835 H 276.171 2.73073 1.74933 0
M  V30 2836 H 275.956 3.8991 0.41385 0
M  V30 2837 H 277.446 3.93311 1.40344 0
M  V30 2838 N 277.883 0.443576 1.51229 0
M  V30 2839 C 278.833 -0.382787 2.24764 0
M  V30 2840 C 279.817 -0.984836 1.27239 0
M  V30 2841 O 281.009 -0.901943 1.52296 0
M  V30 2842 C 278.138 -1.47989 3.09765 0
M  V30 2843 C 277.224 -0.886931 4.14722 0
M  V30 2844 N 277.615 -0.0237103 5.05794 0
M  V30 2845 C 275.913 -1.15385 4.30816 0
M  V30 2846 C 276.614 0.309971 5.80874 0
M  V30 2847 N 275.59 -0.307989 5.42727 0
M  V30 2848 H 279.392 0.282624 2.92538 0
M  V30 2849 H 276.906 0.256027 1.60369 0
M  V30 2850 H 278.903 -2.08482 3.61027 0
M  V30 2851 H 277.563 -2.14758 2.43535 0
M  V30 2852 H 278.574 0.34318 5.16762 0
M  V30 2853 H 275.251 -1.81857 3.75812 0
M  V30 2854 H 276.641 1.01279 6.64223 0
M  V30 2855 N 279.361 -1.56624 0.175154 0
M  V30 2856 C 280.586 -2.01813 -0.478137 0
M  V30 2857 C 281.011 -1.05457 -1.55757 0
M  V30 2858 O 280.369 -0.0347439 -1.81267 0
M  V30 2859 C 280.417 -3.45581 -1.02987 0
M  V30 2860 O 279.521 -3.52305 -2.14371 0
M  V30 2861 H 278.862 -0.65413 -0.114059 0
M  V30 2862 H 281.392 -2.02673 0.280173 0
M  V30 2863 H 281.402 -3.84965 -1.35151 0
M  V30 2864 H 280.077 -4.1521 -0.239556 0
M  V30 2865 H 278.654 -3.24783 -1.83222 0
M  V30 2866 N 280.839 0.0985539 -1.57292 0
M  V30 2867 C 281.786 1.11981 -2.01814 0
M  V30 2868 C 282.756 1.39999 -0.89384 0
M  V30 2869 O 283.941 1.5152 -1.15958 0
M  V30 2870 C 281.081 2.43577 -2.44467 0
M  V30 2871 C 280.194 2.2232 -3.70402 0
M  V30 2872 C 279.329 3.4729 -4.01949 0
M  V30 2873 C 278.368 3.2128 -5.21005 0
M  V30 2874 N 277.505 4.38507 -5.48321 0
M  V30 2875 H 282.345 0.733149 -2.88841 0
M  V30 2876 H 279.882 0.350482 -1.42864 0
M  V30 2877 H 281.84 3.20373 -2.6724 0
M  V30 2878 H 280.47 2.80097 -1.60455 0
M  V30 2879 H 279.522 1.36343 -3.55126 0
M  V30 2880 H 280.834 1.99089 -4.57345 0
M  V30 2881 H 279.988 4.32495 -4.25479 0
M  V30 2882 H 278.727 3.73572 -3.13521 0
M  V30 2883 H 277.732 2.34468 -4.97298 0
M  V30 2884 H 278.957 2.96348 -6.11028 0
M  V30 2885 H 276.903 4.64871 -4.62851 0
M  V30 2886 H 276.82 4.18455 -6.29628 0
M  V30 2887 H 278.088 5.24787 -5.76385 0
M  V30 2888 N 282.317 1.53212 0.369288 0
M  V30 2889 C 283.563 1.69466 1.11397 0
M  V30 2890 C 283.896 0.443257 1.89074 0
M  V30 2891 O 283.171 -0.559386 1.86282 0
M  V30 2892 C 283.454 2.9422 2.07621 0
M  V30 2893 C 283.307 4.29508 1.33577 0
M  V30 2894 C 284.626 3.14565 3.07794 0
M  V30 2895 H 281.745 0.616667 0.403597 0
M  V30 2896 H 284.387 1.85845 0.395179 0
M  V30 2897 H 282.537 2.80387 2.68916 0
M  V30 2898 H 284.209 4.55147 0.750955 0
M  V30 2899 H 282.452 4.29088 0.637618 0
M  V30 2900 H 283.123 5.12926 2.03989 0
M  V30 2901 H 285.599 3.2756 2.56601 0
M  V30 2902 H 284.475 4.03297 3.72348 0
M  V30 2903 H 284.736 2.29675 3.77759 0
M  V30 2904 N 283.795 -0.628877 1.44509 0
M  V30 2905 C 285.072 -1.38733 1.37886 0
M  V30 2906 C 285.452 -2.11065 0.0387008 0
M  V30 2907 O 284.8 -2.06476 -0.97878 0
M  V30 2908 C 285.01 -2.35188 2.57852 0
M  V30 2909 C 286.358 -2.9845 3.02014 0
M  V30 2910 O 287.382 -2.45513 2.58073 0
M  V30 2911 O 286.241 -3.94487 3.78209 0
M  V30 2912 H 283.335 -0.621015 0.54614 0
M  V30 2913 H 285.881 -0.653744 1.56602 0
M  V30 2914 H 284.653 -1.80855 3.46998 0
M  V30 2915 H 284.276 -3.1596 2.4136 0
M  V30 2916 N 285.273 -1.31445 -0.869486 0
M  V30 2917 C 286.513 -1.22458 -1.63656 0
M  V30 2918 C 286.877 0.213846 -1.90805 0
M  V30 2919 O 288.078 0.427212 -2.65383 0
M  V30 2920 C 286.349 -2.04564 -2.93067 0
M  V30 2921 S 287.908 -2.12445 -3.83944 0
M  V30 2922 H 284.726 -0.436145 -0.561514 0
M  V30 2923 H 287.328 -1.66114 -1.03085 0
M  V30 2924 H 286.032 -3.0816 -2.71045 0
M  V30 2925 H 285.563 -1.6163 -3.58663 0
M  V30 2926 H 287.578 -1.26312 -4.79854 0
M  V30 2927 N 286.751 1.08385 -1.14413 0
M  V30 2928 C 287.681 2.17321 -0.854044 0
M  V30 2929 C 288.662 1.69024 0.191049 0
M  V30 2930 O 289.847 1.94141 0.0476779 0
M  V30 2931 C 286.977 3.45719 -0.330983 0
M  V30 2932 C 285.931 4.07409 -1.31155 0
M  V30 2933 C 285.257 5.30762 -0.64778 0
M  V30 2934 C 286.557 4.48665 -2.67388 0
M  V30 2935 H 288.251 2.41845 -1.76498 0
M  V30 2936 H 285.797 1.16233 -0.850051 0
M  V30 2937 H 287.75 4.21241 -0.115645 0
M  V30 2938 H 286.474 3.2075 0.615381 0
M  V30 2939 H 285.133 3.33919 -1.51306 0
M  V30 2940 H 284.781 5.02078 0.304398 0
M  V30 2941 H 284.481 5.72992 -1.30207 0
M  V30 2942 H 286.005 6.08998 -0.441972 0
M  V30 2943 H 287.419 5.15364 -2.51143 0
M  V30 2944 H 285.816 5.01814 -3.29093 0
M  V30 2945 H 286.886 3.60543 -3.24248 0
M  V30 2946 N 288.23 0.939286 1.26551 0
M  V30 2947 C 289.177 0.446088 2.26448 0
M  V30 2948 C 290.147 -0.493234 1.58608 0
M  V30 2949 O 291.332 -0.409857 1.86346 0
M  V30 2950 C 288.472 -0.284375 3.43926 0
M  V30 2951 C 287.585 0.690399 4.26448 0
M  V30 2952 C 286.72 -0.0610712 5.31165 0
M  V30 2953 C 285.759 0.905649 6.05363 0
M  V30 2954 N 284.896 0.186055 7.01853 0
M  V30 2955 H 289.736 1.30291 2.68008 0
M  V30 2956 H 287.273 0.65371 1.31776 0
M  V30 2957 H 289.231 -0.724313 4.10864 0
M  V30 2958 H 287.861 -1.10535 3.03285 0
M  V30 2959 H 286.913 1.24885 3.59316 0
M  V30 2960 H 288.225 1.42873 4.779 0
M  V30 2961 H 287.379 -0.56038 6.04106 0
M  V30 2962 H 286.118 -0.832297 4.80546 0
M  V30 2963 H 285.123 1.4161 5.3125 0
M  V30 2964 H 286.348 1.67685 6.58072 0
M  V30 2965 H 284.294 -0.566714 6.53548 0
M  V30 2966 H 284.211 0.863752 7.51049 0
M  V30 2967 H 285.479 -0.292221 7.78952 0
M  V30 2968 N 289.708 -1.40897 0.706093 0
M  V30 2969 C 290.618 -2.3455 0.0482286 0
M  V30 2970 C 291.634 -1.56796 -0.754396 0
M  V30 2971 O 292.81 -1.89228 -0.689538 0
M  V30 2972 C 289.875 -3.35625 -0.869303 0
M  V30 2973 C 288.936 -4.29261 -0.0576994 0
M  V30 2974 C 288.169 -5.25508 -0.931531 0
M  V30 2975 O 288.392 -5.27472 -2.17092 0
M  V30 2976 O 287.326 -6.00727 -0.375587 0
M  V30 2977 H 291.152 -2.92407 0.820476 0
M  V30 2978 H 288.737 -1.4193 0.4665 0
M  V30 2979 H 290.619 -3.97635 -1.39514 0
M  V30 2980 H 289.294 -2.80196 -1.62086 0
M  V30 2981 H 288.201 -3.70566 0.512988 0
M  V30 2982 H 289.534 -4.87817 0.655426 0
M  V30 2983 N 291.186 -0.45159 -1.50991 0
M  V30 2984 C 292.433 0.110074 -2.02201 0
M  V30 2985 C 292.761 1.4146 -1.33489 0
M  V30 2986 O 292.016 1.90617 -0.443125 0
M  V30 2987 C 292.315 0.361728 -3.55565 0
M  V30 2988 C 291.981 -0.858717 -4.42648 0
M  V30 2989 C 290.643 -1.19338 -4.66167 0
M  V30 2990 C 292.995 -1.67221 -4.93646 0
M  V30 2991 C 290.323 -2.34195 -5.37931 0
M  V30 2992 C 292.675 -2.8119 -5.6667 0
M  V30 2993 C 291.339 -3.15094 -5.88449 0
M  V30 2994 H 290.609 0.040279 -0.739904 0
M  V30 2995 H 293.256 -0.601696 -1.81802 0
M  V30 2996 H 291.561 1.15554 -3.74372 0
M  V30 2997 H 293.258 0.80996 -3.92735 0
M  V30 2998 H 289.848 -0.58796 -4.24548 0
M  V30 2999 H 294.032 -1.42686 -4.75347 0
M  V30 3000 H 289.288 -2.6076 -5.53005 0
M  V30 3001 H 293.462 -3.44585 -6.05173 0
M  V30 3002 H 291.089 -4.04204 -6.43835 0
M  V30 3003 N 292.664 1.56529 -0.183458 0
M  V30 3004 C 293.912 1.96855 0.457452 0
M  V30 3005 C 294.233 1.07104 1.62953 0
M  V30 3006 O 293.503 0.139887 1.954 0
M  V30 3007 H 292.083 0.72693 0.171992 0
M  V30 3008 H 294.745 1.93056 -0.267476 0
M  V30 3009 H 293.841 3.01423 0.809368 0
M  V30 3010 N 294.142 -0.090211 1.57342 0
M  V30 3011 C 295.558 -0.444547 1.53284 0
M  V30 3012 C 295.758 -1.80238 0.900914 0
M  V30 3013 O 294.814 -2.4759 0.495513 0
M  V30 3014 C 296.127 -0.402543 2.97993 0
M  V30 3015 C 297.675 -0.48405 3.09234 0
M  V30 3016 C 298.15 -0.472144 4.5556 0
M  V30 3017 N 299.641 -0.532757 4.60126 0
M  V30 3018 C 300.376 -0.545462 5.708 0
M  V30 3019 N 299.872 -0.514082 6.9089 0
M  V30 3020 N 301.665 -0.59064 5.58988 0
M  V30 3021 H 293.816 0.799121 1.96794 0
M  V30 3022 H 296.079 0.297965 0.899956 0
M  V30 3023 H 295.785 0.528106 3.47712 0
M  V30 3024 H 295.659 -1.21969 3.56936 0
M  V30 3025 H 298.046 -1.40512 2.595 0
M  V30 3026 H 298.127 0.361328 2.53235 0
M  V30 3027 H 297.771 0.445 5.05947 0
M  V30 3028 H 297.701 -1.3348 5.09402 0
M  V30 3029 H 300.192 -0.562006 3.73698 0
M  V30 3030 H 300.505 -0.527195 7.71 0
M  V30 3031 H 298.85 -0.481054 6.93333 0
M  V30 3032 H 302.041 -0.61272 4.64073 0
M  V30 3033 H 302.214 -0.597073 6.45243 0
M  V30 3034 N 295.62 -1.53406 -0.361157 0
M  V30 3035 C 296.53 -1.83122 -1.4664 0
M  V30 3036 C 297.546 -0.719943 -1.58407 0
M  V30 3037 O 298.722 -1.01046 -1.74218 0
M  V30 3038 C 295.787 -2.01891 -2.81853 0
M  V30 3039 C 294.848 -3.25784 -2.79577 0
M  V30 3040 C 294.081 -3.43648 -4.0834 0
M  V30 3041 O 294.304 -2.65714 -5.0473 0
M  V30 3042 O 293.238 -4.37018 -4.13883 0
M  V30 3043 H 297.064 -2.7703 -1.24451 0
M  V30 3044 H 294.649 -1.38841 -0.551678 0
M  V30 3045 H 296.531 -2.15782 -3.61962 0
M  V30 3046 H 295.206 -1.11173 -3.0401 0
M  V30 3047 H 294.113 -3.17312 -1.98151 0
M  V30 3048 H 295.446 -4.16439 -2.62373 0
M  V30 3049 N 297.098 0.621204 -1.44841 0
M  V30 3050 C 298.061 1.71459 -1.521 0
M  V30 3051 C 299.061 1.55696 -0.401933 0
M  V30 3052 O 300.251 1.61011 -0.664925 0
M  V30 3053 C 297.383 3.10624 -1.40447 0
M  V30 3054 H 298.576 1.66394 -2.49506 0
M  V30 3055 H 296.129 0.835745 -1.3208 0
M  V30 3056 H 296.864 3.21277 -0.441737 0
M  V30 3057 H 296.649 3.23473 -2.21602 0
M  V30 3058 H 298.139 3.90293 -1.4853 0
M  V30 3059 N 298.576 1.31904 0.862503 0
M  V30 3060 C 299.524 1.20125 1.9918 0
M  V30 3061 C 300.518 0.107824 1.69056 0
M  V30 3062 O 301.724 0.270223 1.7796 0
M  V30 3063 H 298.099 0.372148 0.65346 0
M  V30 3064 H 300.07 2.15652 2.06244 0
M  V30 3065 C 298.819 0.933099 3.34946 0
M  V30 3066 H 298.142 1.76664 3.5865 0
M  V30 3067 H 299.582 0.890892 4.14535 0
M  V30 3068 C 298.041 -0.364172 3.34926 0
M  V30 3069 O 298.571 -1.37858 3.77304 0
M  V30 3070 N 296.777 -0.383362 2.8806 0
M  V30 3071 H 296.324 0.442651 2.53768 0
M  V30 3072 H 296.282 -1.25123 2.8843 0
M  V30 3073 N 300.054 -1.07777 1.14986 0
M  V30 3074 C 300.987 -2.14228 0.786243 0
M  V30 3075 C 301.965 -1.60888 -0.235347 0
M  V30 3076 O 303.149 -1.88099 -0.122909 0
M  V30 3077 C 300.276 -3.38281 0.168433 0
M  V30 3078 C 299.322 -4.10387 1.16123 0
M  V30 3079 S 300.155 -4.62371 2.70135 0
M  V30 3080 C 301.311 -5.89704 2.09762 0
M  V30 3081 H 301.544 -2.44741 1.68787 0
M  V30 3082 H 299.077 -1.19984 0.971756 0
M  V30 3083 H 301.035 -4.10098 -0.181588 0
M  V30 3084 H 299.696 -3.05953 -0.710725 0
M  V30 3085 H 298.889 -4.99431 0.677086 0
M  V30 3086 H 298.491 -3.44513 1.45556 0
M  V30 3087 H 300.783 -6.61648 1.45701 0
M  V30 3088 H 301.726 -6.42824 2.96955 0
M  V30 3089 H 302.134 -5.4302 1.54239 0
M  V30 3090 N 301.532 -0.945985 -1.26051 0
M  V30 3091 C 302.495 -0.463897 -2.24456 0
M  V30 3092 C 303.495 0.427655 -1.55009 0
M  V30 3093 O 304.685 0.226157 -1.72726 0
M  V30 3094 C 301.817 0.330812 -3.39291 0
M  V30 3095 H 303.01 -1.33357 -2.68619 0
M  V30 3096 H 300.563 -0.728416 -1.38289 0
M  V30 3097 H 301.298 1.21852 -3.00537 0
M  V30 3098 H 301.083 -0.308679 -3.90883 0
M  V30 3099 H 302.573 0.657865 -4.12386 0
M  V30 3100 N 303.011 1.40521 -0.713556 0
M  V30 3101 C 304.257 2.01221 -0.252564 0
M  V30 3102 C 304.59 1.56444 1.1506 0
M  V30 3103 O 303.865 0.783597 1.78017 0
M  V30 3104 C 304.148 3.58582 -0.330332 0
M  V30 3105 C 304.001 4.13437 -1.77173 0
M  V30 3106 C 305.32 4.39079 0.299641 0
M  V30 3107 H 302.439 0.731077 -0.0932471 0
M  V30 3108 H 305.081 1.67026 -0.905673 0
M  V30 3109 H 303.231 3.87844 0.225737 0
M  V30 3110 H 304.903 3.9498 -2.38303 0
M  V30 3111 H 303.146 3.67801 -2.3001 0
M  V30 3112 H 303.817 5.22597 -1.77755 0
M  V30 3113 H 306.293 4.15735 -0.174139 0
M  V30 3114 H 305.169 5.4848 0.214771 0
M  V30 3115 H 305.43 4.19915 1.38288 0
M  V30 3116 N 304.489 0.459591 1.5075 0
M  V30 3117 C 305.717 -0.0973749 2.06671 0
M  V30 3118 C 306.132 -1.34524 1.32472 0
M  V30 3119 O 305.489 -1.7827 0.390634 0
M  V30 3120 C 305.54 -0.39714 3.59312 0
M  V30 3121 O 305.261 0.801214 4.30711 0
M  V30 3122 C 306.762 -1.00234 4.31819 0
M  V30 3123 H 303.982 0.00195854 0.670997 0
M  V30 3124 H 306.526 0.645072 1.94059 0
M  V30 3125 H 304.681 -1.08951 3.71764 0
M  V30 3126 H 305.095 0.538857 5.21725 0
M  V30 3127 H 306.569 -1.16193 5.39632 0
M  V30 3128 H 307.046 -1.98939 3.91561 0
M  V30 3129 H 307.652 -0.348699 4.23868 0
M  V30 3130 N 305.967 -1.56429 0.191757 0
M  V30 3131 C 307.383 -1.58754 -0.164137 0
M  V30 3132 C 307.583 -1.20782 -1.61288 0
M  V30 3133 O 306.639 -0.928999 -2.34789 0
M  V30 3134 C 307.952 -3.00396 0.135195 0
M  V30 3135 C 309.5 -3.1291 0.0750351 0
M  V30 3136 C 309.975 -4.56679 0.347632 0
M  V30 3137 N 311.466 -4.62252 0.296131 0
M  V30 3138 C 312.201 -5.71379 0.480948 0
M  V30 3139 N 311.697 -6.88986 0.725933 0
M  V30 3140 N 313.49 -5.60563 0.415435 0
M  V30 3141 H 305.641 -1.79393 1.13718 0
M  V30 3142 H 307.904 -0.832414 0.453643 0
M  V30 3143 H 307.61 -3.32726 1.13958 0
M  V30 3144 H 307.484 -3.72963 -0.563773 0
M  V30 3145 H 309.871 -2.80394 -0.919948 0
M  V30 3146 H 309.952 -2.42736 0.807029 0
M  V30 3147 H 309.596 -4.89907 1.33992 0
M  V30 3148 H 309.526 -5.25039 -0.405212 0
M  V30 3149 H 312.017 -3.7773 0.113259 0
M  V30 3150 H 312.33 -7.68046 0.855857 0
M  V30 3151 H 310.675 -6.90801 0.762788 0
M  V30 3152 H 313.866 -4.67561 0.224486 0
M  V30 3153 H 314.039 -6.45551 0.562889 0
M  V30 3154 N 307.445 0.0818655 -1.57387 0
M  V30 3155 C 308.722 0.815343 -1.77796 0
M  V30 3156 C 309.102 1.96289 -0.77679 0
M  V30 3157 O 308.45 2.27691 0.192106 0
M  V30 3158 C 308.66 1.29765 -3.23978 0
M  V30 3159 C 310.008 1.7351 -3.8753 0
M  V30 3160 O 311.032 1.39356 -3.27808 0
M  V30 3161 O 309.891 2.36708 -4.92576 0
M  V30 3162 H 306.985 0.389914 -0.729312 0
M  V30 3163 H 309.531 0.0627213 -1.69584 0
M  V30 3164 H 308.303 0.47608 -3.88393 0
M  V30 3165 H 307.926 2.11189 -3.36875 0
M  V30 3166 N 308.923 1.53595 0.353017 0
M  V30 3167 C 310.2 1.61002 1.11075 0
M  V30 3168 C 310.58 0.425356 2.0677 0
M  V30 3169 O 309.928 -0.583267 2.2093 0
M  V30 3170 C 310.138 2.96631 1.83877 0
M  V30 3171 C 311.486 3.51653 2.37961 0
M  V30 3172 O 312.51 2.98743 1.93987 0
M  V30 3173 O 311.369 4.44177 3.18386 0
M  V30 3174 H 308.463 0.650825 0.510251 0
M  V30 3175 H 311.009 1.6594 0.35527 0
M  V30 3176 H 309.781 3.74293 1.14108 0
M  V30 3177 H 309.404 2.95242 2.66304 0
M  V30 3178 N 310.401 -0.613514 1.45168 0
M  V30 3179 C 311.678 -1.37263 1.39349 0
M  V30 3180 C 312.058 -2.11012 0.0610848 0
M  V30 3181 O 311.406 -2.07502 -0.956825 0
M  V30 3182 C 311.616 -2.3244 2.60332 0
M  V30 3183 C 312.964 -2.9523 3.05163 0
M  V30 3184 O 313.988 -2.42762 2.60663 0
M  V30 3185 O 312.847 -3.90454 3.82372 0
M  V30 3186 H 309.941 -0.615188 0.552696 0
M  V30 3187 H 312.487 -0.637097 1.57287 0
M  V30 3188 H 311.259 -1.77164 3.48896 0
M  V30 3189 H 310.882 -3.13383 2.44698 0
M  V30 3190 N 311.879 -1.3236 -0.855495 0
M  V30 3191 C 313.125 -1.23054 -1.612 0
M  V30 3192 C 313.458 0.207404 -1.93089 0
M  V30 3193 O 312.733 1.14432 -1.57275 0
M  V30 3194 C 313.016 -2.08937 -2.93287 0
M  V30 3195 C 312.869 -3.61105 -2.68185 0
M  V30 3196 C 314.188 -1.94986 -3.94549 0
M  V30 3197 H 311.307 -0.448364 -0.584926 0
M  V30 3198 H 313.949 -1.62297 -0.987917 0
M  V30 3199 H 312.099 -1.75599 -3.46551 0
M  V30 3200 H 313.771 -4.04652 -2.21483 0
M  V30 3201 H 312.014 -3.83813 -2.02164 0
M  V30 3202 H 312.685 -4.16522 -3.62234 0
M  V30 3203 H 315.161 -2.24189 -3.5054 0
M  V30 3204 H 314.037 -2.57356 -4.84829 0
M  V30 3205 H 314.298 -0.917263 -4.3248 0
M  V30 3206 N 313.357 1.07166 -1.15556 0
M  V30 3207 C 314.287 2.16403 -0.877046 0
M  V30 3208 C 315.268 1.69217 0.173111 0
M  V30 3209 O 316.453 1.94181 0.027084 0
M  V30 3210 C 313.583 3.45349 -0.367632 0
M  V30 3211 C 312.537 4.05995 -1.35468 0
M  V30 3212 C 311.863 5.30045 -0.704038 0
M  V30 3213 C 313.163 4.45804 -2.72132 0
M  V30 3214 H 314.857 2.39959 -1.79053 0
M  V30 3215 H 312.403 1.15325 -0.862331 0
M  V30 3216 H 314.356 4.21095 -0.160317 0
M  V30 3217 H 313.08 3.21385 0.581326 0
M  V30 3218 H 311.739 3.32296 -1.54839 0
M  V30 3219 H 311.387 5.02373 0.251128 0
M  V30 3220 H 311.087 5.71579 -1.36277 0
M  V30 3221 H 312.611 6.08495 -0.50654 0
M  V30 3222 H 314.025 5.12671 -2.56595 0
M  V30 3223 H 312.422 4.98296 -3.34397 0
M  V30 3224 H 313.492 3.57083 -3.28054 0
M  V30 3225 N 314.835 0.952656 1.25548 0
M  V30 3226 C 316.075 0.614013 1.9496 0
M  V30 3227 C 316.439 -0.833215 1.72978 0
M  V30 3228 O 317.64 -1.28135 2.36294 0
M  V30 3229 C 315.911 0.960562 3.4425 0
M  V30 3230 S 317.47 0.734195 4.32614 0
M  V30 3231 H 314.288 0.225754 0.674208 0
M  V30 3232 H 316.89 1.22641 1.52248 0
M  V30 3233 H 315.594 2.01103 3.57751 0
M  V30 3234 H 315.125 0.338336 3.91942 0
M  V30 3235 H 317.14 -0.395995 4.94617 0
M  V30 3236 N 316.313 -1.40141 0.720998 0
M  V30 3237 C 317.559 -2.01084 0.263231 0
M  V30 3238 C 317.892 -1.57052 -1.14229 0
M  V30 3239 O 317.167 -0.793027 -1.77599 0
M  V30 3240 C 317.45 -3.58401 0.349344 0
M  V30 3241 C 317.303 -4.12491 1.79363 0
M  V30 3242 C 318.622 -4.39231 -0.276351 0
M  V30 3243 H 315.741 -0.730572 0.0971228 0
M  V30 3244 H 318.383 -1.66543 0.914518 0
M  V30 3245 H 316.533 -3.87958 -0.205165 0
M  V30 3246 H 318.205 -3.93711 2.40394 0
M  V30 3247 H 316.448 -3.66576 2.31958 0
M  V30 3248 H 317.119 -5.21646 1.80524 0
M  V30 3249 H 319.595 -4.15637 0.196184 0
M  V30 3250 H 318.471 -5.48586 -0.185681 0
M  V30 3251 H 318.732 -4.20643 -1.36059 0
M  V30 3252 N 317.792 -0.46758 -1.50504 0
M  V30 3253 C 319.02 0.0864133 -2.06719 0
M  V30 3254 C 319.435 1.33819 -1.33184 0
M  V30 3255 O 318.792 1.78061 -0.400083 0
M  V30 3256 C 318.843 0.378079 -3.59517 0
M  V30 3257 O 318.564 -0.824044 -4.3028 0
M  V30 3258 C 320.065 0.979426 -4.32345 0
M  V30 3259 H 317.285 -0.00551697 -0.670977 0
M  V30 3260 H 319.829 -0.655354 -1.93715 0
M  V30 3261 H 317.984 1.06977 -3.72337 0
M  V30 3262 H 318.398 -0.566518 -5.21432 0
M  V30 3263 H 319.872 1.1333 -5.40241 0
M  V30 3264 H 320.349 1.9686 -3.9261 0
M  V30 3265 H 320.955 0.326216 -4.24047 0
M  V30 3266 N 319.27 1.56325 -0.20005 0
M  V30 3267 C 320.18 2.22931 0.730668 0
M  V30 3268 C 321.196 1.22997 1.23076 0
M  V30 3269 O 322.372 1.55748 1.27689 0
M  V30 3270 C 319.437 2.87948 1.93098 0
M  V30 3271 C 318.498 4.03166 1.47497 0
M  V30 3272 C 317.731 4.65073 2.61807 0
M  V30 3273 O 317.954 4.25913 3.79413 0
M  V30 3274 O 316.888 5.54452 2.34237 0
M  V30 3275 H 320.714 3.03084 0.193391 0
M  V30 3276 H 318.299 1.49371 0.0294621 0
M  V30 3277 H 320.181 3.29063 2.6324 0
M  V30 3278 H 318.856 2.10771 2.45677 0
M  V30 3279 H 317.763 3.66664 0.742201 0
M  V30 3280 H 319.096 4.82022 0.995796 0
M  V30 3281 N 320.748 -0.0735177 1.57428 0
M  V30 3282 C 321.978 -0.78483 1.91112 0
M  V30 3283 C 322.386 -1.71729 0.7941 0
M  V30 3284 O 321.729 -1.82105 -0.241542 0
M  V30 3285 C 321.791 -1.63346 3.20247 0
M  V30 3286 C 321.455 -0.870557 4.48632 0
M  V30 3287 C 322.452 -0.19058 5.19551 0
M  V30 3288 C 320.137 -0.838242 4.95256 0
M  V30 3289 C 322.131 0.511503 6.35344 0
M  V30 3290 C 319.818 -0.132386 6.10957 0
M  V30 3291 C 320.816 0.541288 6.80852 0
M  V30 3292 O 320.504 1.23578 7.94345 0
M  V30 3293 H 320.236 -0.228408 0.636244 0
M  V30 3294 H 322.79 -0.0486039 2.05342 0
M  V30 3295 H 321.02 -2.41245 3.02222 0
M  V30 3296 H 322.709 -2.22329 3.39595 0
M  V30 3297 H 323.475 -0.206864 4.84559 0
M  V30 3298 H 319.354 -1.35206 4.40727 0
M  V30 3299 H 322.898 1.03789 6.89836 0
M  V30 3300 H 318.795 -0.114023 6.45399 0
M  V30 3301 H 319.563 1.14487 8.10454 0
M  V30 3302 N 322.226 -1.5378 -0.344866 0
M  V30 3303 C 323.451 -1.75211 -1.10977 0
M  V30 3304 C 323.876 -0.48936 -1.81623 0
M  V30 3305 O 323.234 0.557925 -1.72502 0
M  V30 3306 C 323.282 -2.93147 -2.09993 0
M  V30 3307 O 322.386 -2.63203 -3.17487 0
M  V30 3308 H 321.727 -0.581241 -0.321021 0
M  V30 3309 H 324.257 -2.00738 -0.395661 0
M  V30 3310 H 324.267 -3.19898 -2.53237 0
M  V30 3311 H 322.942 -3.84731 -1.5797 0
M  V30 3312 H 321.519 -2.47336 -2.79069 0
M  V30 3313 N 323.704 0.605807 -1.45491 0
M  V30 3314 C 325.12 0.926751 -1.29936 0
M  V30 3315 C 325.32 1.99896 -0.253706 0
M  V30 3316 O 324.376 2.50038 0.351737 0
M  V30 3317 C 325.689 1.36599 -2.67883 0
M  V30 3318 C 327.237 1.4801 -2.75793 0
M  V30 3319 C 327.712 1.95309 -4.14268 0
M  V30 3320 N 329.203 2.0254 -4.16571 0
M  V30 3321 C 329.938 2.40363 -5.20589 0
M  V30 3322 N 329.434 2.77143 -6.34952 0
M  V30 3323 N 331.227 2.40718 -5.07948 0
M  V30 3324 H 323.378 -0.102862 -2.12151 0
M  V30 3325 H 325.641 0.016639 -0.947854 0
M  V30 3326 H 325.347 0.652306 -3.45598 0
M  V30 3327 H 325.221 2.33215 -2.96463 0
M  V30 3328 H 327.608 2.1847 -1.98381 0
M  V30 3329 H 327.689 0.497041 -2.50925 0
M  V30 3330 H 327.333 1.25436 -4.92167 0
M  V30 3331 H 327.263 2.94532 -4.3653 0
M  V30 3332 H 329.754 1.76699 -3.34045 0
M  V30 3333 H 330.067 3.0489 -7.10114 0
M  V30 3334 H 328.412 2.74834 -6.3835 0
M  V30 3335 H 331.603 2.11392 -4.1765 0
M  V30 3336 H 331.776 2.69869 -5.89131 0
M  V30 3337 N 325.182 1.32811 0.848464 0
M  V30 3338 C 326.431 1.23075 1.59798 0
M  V30 3339 C 326.744 -0.204419 1.94529 0
M  V30 3340 O 327.95 -0.423701 2.68173 0
M  V30 3341 C 326.406 2.15594 2.88179 0
M  V30 3342 C 326.014 3.64228 2.60849 0
M  V30 3343 C 327.758 2.14709 3.66197 0
M  V30 3344 C 325.665 4.48689 3.85269 0
M  V30 3345 H 324.595 0.457091 0.599653 0
M  V30 3346 H 327.246 1.57813 0.936342 0
M  V30 3347 H 325.628 1.73778 3.55833 0
M  V30 3348 H 326.802 4.14424 2.01467 0
M  V30 3349 H 325.117 3.67306 1.96151 0
M  V30 3350 H 327.714 2.75046 4.58534 0
M  V30 3351 H 328.057 1.13966 4.00397 0
M  V30 3352 H 328.59 2.54837 3.05455 0
M  V30 3353 H 325.329 5.5027 3.56207 0
M  V30 3354 H 324.849 4.03241 4.44024 0
M  V30 3355 H 326.528 4.62006 4.52946 0
M  V30 3356 N 326.66 -1.06551 1.16123 0
M  V30 3357 C 327.906 -1.79567 0.94252 0
M  V30 3358 C 328.239 -1.86869 -0.528547 0
M  V30 3359 O 327.514 -1.35838 -1.39206 0
M  V30 3360 C 327.797 -3.24195 1.56747 0
M  V30 3361 C 327.65 -3.24989 3.10969 0
M  V30 3362 C 328.969 -4.21678 1.25998 0
M  V30 3363 H 326.088 -0.651883 0.343828 0
M  V30 3364 H 328.73 -1.2463 1.43413 0
M  V30 3365 H 326.88 -3.71107 1.14942 0
M  V30 3366 H 328.552 -2.86258 3.61737 0
M  V30 3367 H 326.795 -2.63716 3.44436 0
M  V30 3368 H 327.466 -4.27005 3.49815 0
M  V30 3369 H 329.942 -3.83196 1.62174 0
M  V30 3370 H 328.818 -5.21146 1.7233 0
M  V30 3371 H 329.079 -4.4174 0.178367 0
M  V30 3372 N 328.138 -0.959301 -1.25041 0
M  V30 3373 C 329.549 -0.65667 -1.74771 0
M  V30 3374 C 329.9 0.827852 -1.77879 0
M  V30 3375 O 329.025 1.64783 -1.40269 0
M  V30 3376 C 329.62 -1.1853 -3.1739 0
M  V30 3377 C 328.179 -0.932734 -3.6466 0
M  V30 3378 C 327.326 -1.32558 -2.43564 0
M  V30 3379 H 330.277 -1.13558 -1.10862 0
M  V30 3380 H 330.298 -0.547582 -3.76539 0
M  V30 3381 H 329.81 -2.26576 -3.15095 0
M  V30 3382 H 327.911 0.13257 -3.72364 0
M  V30 3383 H 328.024 -1.57248 -4.52559 0
M  V30 3384 H 326.388 -0.743956 -2.43593 0
M  V30 3385 H 327.171 -2.41537 -2.43957 0
M  V30 3386 N 329.616 1.39756 -0.72842 0
M  V30 3387 C 330.546 2.33289 -0.0991354 0
M  V30 3388 C 331.527 1.53568 0.731489 0
M  V30 3389 O 332.712 1.81987 0.677807 0
M  V30 3390 C 329.842 3.3763 0.813834 0
M  V30 3391 C 328.796 4.2791 0.0878663 0
M  V30 3392 C 328.122 5.22894 1.11741 0
M  V30 3393 C 329.422 5.11314 -1.06563 0
M  V30 3394 H 331.116 2.86163 -0.880408 0
M  V30 3395 H 328.662 1.37591 -0.424819 0
M  V30 3396 H 330.615 4.0201 1.26355 0
M  V30 3397 H 329.339 2.83181 1.62715 0
M  V30 3398 H 327.998 3.65 -0.342159 0
M  V30 3399 H 327.646 4.64744 1.92412 0
M  V30 3400 H 327.346 5.84143 0.636477 0
M  V30 3401 H 328.87 5.90151 1.56697 0
M  V30 3402 H 330.284 5.69076 -0.694671 0
M  V30 3403 H 328.681 5.81671 -1.47577 0
M  V30 3404 H 329.751 4.46534 -1.89038 0
M  V30 3405 N 331.094 0.475555 1.50254 0
M  V30 3406 C 332.004 -0.321501 2.32387 0
M  V30 3407 C 333.02 -0.991755 1.42969 0
M  V30 3408 O 334.196 -0.978747 1.76018 0
M  V30 3409 C 331.261 -1.38667 3.17762 0
M  V30 3410 C 330.322 -0.732538 4.23004 0
M  V30 3411 C 329.555 -1.74695 5.04299 0
M  V30 3412 O 329.778 -2.97399 4.86734 0
M  V30 3413 O 328.712 -1.31631 5.8733 0
M  V30 3414 H 332.538 0.350071 3.01676 0
M  V30 3415 H 330.123 0.237321 1.47503 0
M  V30 3416 H 332.005 -2.00354 3.70724 0
M  V30 3417 H 330.68 -2.04163 2.51196 0
M  V30 3418 H 329.587 -0.0765902 3.74022 0
M  V30 3419 H 330.92 -0.120452 4.92053 0
M  V30 3420 N 332.573 -1.56217 0.208337 0
M  V30 3421 C 333.521 -2.21053 -0.723769 0
M  V30 3422 C 334.515 -1.18578 -1.20978 0
M  V30 3423 O 335.721 -1.36691 -1.17114 0
M  V30 3424 H 332.096 -0.708595 -0.251788 0
M  V30 3425 H 334.067 -2.98006 -0.153365 0
M  V30 3426 C 332.816 -2.89417 -1.927 0
M  V30 3427 H 332.139 -3.68019 -1.56212 0
M  V30 3428 H 333.579 -3.38201 -2.55727 0
M  V30 3429 C 332.038 -1.91166 -2.77411 0
M  V30 3430 O 332.568 -1.42026 -3.75754 0
M  V30 3431 N 330.774 -1.59105 -2.43175 0
M  V30 3432 H 330.321 -1.99259 -1.63259 0
M  V30 3433 H 330.279 -0.936255 -3.00136 0
M  V30 3434 N 334.051 0.0651679 -1.57465 0
M  V30 3435 C 335.299 0.761555 -1.87202 0
M  V30 3436 C 335.62 1.77778 -0.801243 0
M  V30 3437 O 334.89 1.95166 0.16937 0
M  V30 3438 H 333.47 0.284251 -0.690804 0
M  V30 3439 H 336.132 0.0396827 -1.9486 0
M  V30 3440 H 335.228 1.27365 -2.84929 0
M  V30 3441 N 335.529 1.53961 0.336706 0
M  V30 3442 C 336.439 1.85432 1.43708 0
M  V30 3443 C 337.455 0.745053 1.57242 0
M  V30 3444 O 338.631 1.03804 1.72588 0
M  V30 3445 C 335.696 2.06349 2.78605 0
M  V30 3446 C 334.757 3.30191 2.74358 0
M  V30 3447 C 333.99 3.50101 4.02822 0
M  V30 3448 O 334.213 2.7371 5.00439 0
M  V30 3449 O 333.147 4.43547 4.06878 0
M  V30 3450 H 336.973 2.78975 1.20028 0
M  V30 3451 H 334.558 1.39701 0.52952 0
M  V30 3452 H 336.44 2.21513 3.58483 0
M  V30 3453 H 335.115 1.15995 3.02203 0
M  V30 3454 H 334.022 3.20425 1.93078 0
M  V30 3455 H 335.355 4.2056 2.55715 0
M  V30 3456 N 337.007 -0.598083 1.45811 0
M  V30 3457 C 338.253 -1.35882 1.50545 0
M  V30 3458 C 338.586 -1.93616 0.150445 0
M  V30 3459 O 337.861 -1.75604 -0.83628 0
M  V30 3460 C 338.144 -2.49966 2.59208 0
M  V30 3461 C 337.997 -1.97367 4.04186 0
M  V30 3462 C 339.316 -3.52068 2.64076 0
M  V30 3463 H 336.435 -0.492717 0.548087 0
M  V30 3464 H 339.077 -0.673319 1.77669 0
M  V30 3465 H 337.227 -3.08443 2.3621 0
M  V30 3466 H 338.899 -1.43466 4.38423 0
M  V30 3467 H 337.142 -1.283 4.14393 0
M  V30 3468 H 337.813 -2.79649 4.75921 0
M  V30 3469 H 340.289 -3.03448 2.84708 0
M  V30 3470 H 339.165 -4.2937 3.41954 0
M  V30 3471 H 339.426 -4.08304 1.69531 0
M  V30 3472 N 338.485 -1.33259 -0.841409 0
M  V30 3473 C 339.731 -1.24757 -1.59886 0
M  V30 3474 C 340.064 0.186913 -1.93298 0
M  V30 3475 O 339.339 1.12757 -1.5848 0
M  V30 3476 C 339.622 -2.12036 -2.91055 0
M  V30 3477 C 339.475 -3.63929 -2.6434 0
M  V30 3478 C 340.794 -1.9916 -3.92458 0
M  V30 3479 H 337.913 -0.454542 -0.580138 0
M  V30 3480 H 340.555 -1.63335 -0.970647 0
M  V30 3481 H 338.705 -1.79265 -3.44669 0
M  V30 3482 H 340.377 -4.06978 -2.17178 0
M  V30 3483 H 338.62 -3.85935 -1.98082 0
M  V30 3484 H 339.291 -4.20341 -3.57796 0
M  V30 3485 H 341.767 -2.27895 -3.48143 0
M  V30 3486 H 340.643 -2.62484 -4.82072 0
M  V30 3487 H 340.904 -0.963082 -4.31482 0
M  V30 3488 N 339.963 1.05934 -1.16686 0
M  V30 3489 C 341.209 1.79065 -0.95203 0
M  V30 3490 C 341.542 1.87147 0.518629 0
M  V30 3491 O 340.817 1.36574 1.38484 0
M  V30 3492 C 341.1 3.23359 -1.58464 0
M  V30 3493 C 340.953 3.23336 -3.12689 0
M  V30 3494 C 342.272 4.21004 -1.28232 0
M  V30 3495 H 339.391 0.65005 -0.34728 0
M  V30 3496 H 342.033 1.23868 -1.44072 0
M  V30 3497 H 340.183 3.70493 -1.16908 0
M  V30 3498 H 341.855 2.84336 -3.6325 0
M  V30 3499 H 340.098 2.61886 -3.4583 0
M  V30 3500 H 340.769 4.25144 -3.52075 0
M  V30 3501 H 343.245 3.8233 -1.64203 0
M  V30 3502 H 342.121 5.20225 -1.75092 0
M  V30 3503 H 342.382 4.41639 -0.201791 0
M  V30 3504 N 341.441 0.965919 1.2453 0
M  V30 3505 C 342.666 0.643971 1.97149 0
M  V30 3506 C 343.091 -0.779487 1.71189 0
M  V30 3507 O 342.449 -1.5288 0.974553 0
M  V30 3508 C 342.497 0.922557 3.48599 0
M  V30 3509 O 341.601 0.00707672 4.12399 0
M  V30 3510 H 340.942 0.243647 0.617683 0
M  V30 3511 H 343.472 1.29558 1.58353 0
M  V30 3512 H 343.482 0.853373 3.98976 0
M  V30 3513 H 342.157 1.95996 3.66822 0
M  V30 3514 H 340.734 0.12943 3.72675 0
M  V30 3515 N 342.919 -1.39368 0.735821 0
M  V30 3516 C 343.849 -2.33234 0.111506 0
M  V30 3517 C 344.83 -1.53954 -0.723334 0
M  V30 3518 O 346.015 -1.82344 -0.668147 0
M  V30 3519 C 343.145 -3.38057 -0.795917 0
M  V30 3520 C 342.099 -4.2795 -0.065172 0
M  V30 3521 C 341.425 -5.23479 -1.08967 0
M  V30 3522 C 342.725 -5.10741 1.09273 0
M  V30 3523 H 344.419 -2.85692 0.895571 0
M  V30 3524 H 341.965 -1.37364 0.432109 0
M  V30 3525 H 343.918 -4.02675 -1.24221 0
M  V30 3526 H 342.642 -2.8404 -1.61211 0
M  V30 3527 H 341.301 -3.64813 0.361511 0
M  V30 3528 H 340.949 -4.65758 -1.89944 0
M  V30 3529 H 340.649 -5.84472 -0.605489 0
M  V30 3530 H 342.173 -5.90974 -1.53565 0
M  V30 3531 H 343.587 -5.68699 0.724841 0
M  V30 3532 H 341.984 -5.8088 1.50659 0
M  V30 3533 H 343.054 -4.45525 1.91404 0
M  V30 3534 N 344.397 -0.483516 -1.5 0
M  V30 3535 C 345.646 0.0689102 -2.01582 0
M  V30 3536 C 345.959 1.39655 -1.36952 0
M  V30 3537 O 347.165 2.03465 -1.79762 0
M  V30 3538 C 345.621 0.173302 -3.59483 0
M  V30 3539 C 345.229 -1.14665 -4.33077 0
M  V30 3540 C 346.973 0.677024 -4.19066 0
M  V30 3541 C 344.88 -1.00537 -5.82792 0
M  V30 3542 H 343.81 0.0295277 -0.753422 0
M  V30 3543 H 346.461 -0.620295 -1.72698 0
M  V30 3544 H 344.843 0.926569 -3.85007 0
M  V30 3545 H 346.017 -1.91184 -4.19268 0
M  V30 3546 H 344.332 -1.58244 -3.85159 0
M  V30 3547 H 346.929 0.799952 -5.28682 0
M  V30 3548 H 347.272 1.67151 -3.81269 0
M  V30 3549 H 347.805 -0.0192083 -3.97795 0
M  V30 3550 H 344.544 -1.9736 -6.25083 0
M  V30 3551 H 344.064 -0.280776 -5.99142 0
M  V30 3552 H 345.743 -0.677 -6.43448 0
M  V30 3553 N 345.875 1.56104 -0.216619 0
M  V30 3554 C 346.823 2.21434 0.712036 0
M  V30 3555 C 347.817 1.19218 1.20348 0
M  V30 3556 O 349.023 1.3731 1.16387 0
M  V30 3557 H 345.398 0.70992 0.248026 0
M  V30 3558 H 347.369 2.98083 0.137558 0
M  V30 3559 C 346.118 2.90434 1.91163 0
M  V30 3560 H 345.441 3.68842 1.54258 0
M  V30 3561 H 346.881 3.39552 2.5393 0
M  V30 3562 C 345.34 1.92635 2.76394 0
M  V30 3563 O 345.87 1.44017 3.74996 0
M  V30 3564 N 344.076 1.60392 2.42328 0
M  V30 3565 H 343.623 2.00122 1.622 0
M  V30 3566 H 343.581 0.952159 2.99635 0
M  V30 3567 N 347.353 -0.0568162 1.57498 0
M  V30 3568 C 348.601 -0.751617 1.87604 0
M  V30 3569 C 348.922 -1.77351 0.81066 0
M  V30 3570 O 348.192 -1.95254 -0.159018 0
M  V30 3571 H 346.772 -0.280583 0.692302 0
M  V30 3572 H 349.434 -0.0293483 1.94878 0
M  V30 3573 H 348.53 -1.25852 2.856 0
M  V30 3574 N 348.832 -1.54138 -0.328536 0
M  V30 3575 C 350.248 -1.44736 -0.672574 0
M  V30 3576 C 350.448 -0.616217 -1.91846 0
M  V30 3577 O 349.504 -0.113067 -2.52247 0
M  V30 3578 C 350.817 -2.884 -0.851217 0
M  V30 3579 C 352.365 -2.98271 -0.948877 0
M  V30 3580 C 352.84 -4.43074 -1.15973 0
M  V30 3581 N 354.331 -4.46665 -1.22658 0
M  V30 3582 C 355.066 -5.55857 -1.40751 0
M  V30 3583 N 354.562 -6.75026 -1.5592 0
M  V30 3584 N 356.355 -5.43495 -1.4342 0
M  V30 3585 H 348.506 -2.06661 0.490421 0
M  V30 3586 H 350.769 -0.934812 0.157579 0
M  V30 3587 H 350.475 -3.51699 -0.00704236 0
M  V30 3588 H 350.349 -3.34225 -1.74853 0
M  V30 3589 H 352.736 -2.35102 -1.78356 0
M  V30 3590 H 352.817 -2.55785 -0.0281435 0
M  V30 3591 H 352.461 -5.06827 -0.329915 0
M  V30 3592 H 352.391 -4.83165 -2.09426 0
M  V30 3593 H 354.882 -3.60797 -1.124 0
M  V30 3594 H 355.195 -7.54004 -1.69404 0
M  V30 3595 H 353.54 -6.77944 -1.53027 0
M  V30 3596 H 356.731 -4.49349 -1.31162 0
M  V30 3597 H 356.904 -6.28649 -1.57178 0
M  V30 3598 N 350.31 0.590341 -1.46126 0
M  V30 3599 C 351.721 1.17243 -1.45296 0
M  V30 3600 C 352.072 1.95281 -0.189723 0
M  V30 3601 O 351.197 2.04502 0.707674 0
M  V30 3602 C 351.792 2.13284 -2.6324 0
M  V30 3603 C 350.351 2.66832 -2.65476 0
M  V30 3604 C 349.498 1.42557 -2.3785 0
M  V30 3605 H 352.449 0.378692 -1.54116 0
M  V30 3606 H 352.47 2.96619 -2.38323 0
M  V30 3607 H 351.982 1.56459 -3.55165 0
M  V30 3608 H 350.083 3.27548 -1.77603 0
M  V30 3609 H 350.196 3.10088 -3.65215 0
M  V30 3610 H 348.56 1.72107 -1.87753 0
M  V30 3611 H 349.343 0.875741 -3.31942 0
M  V30 3612 N 351.788 1.33704 0.83433 0
M  V30 3613 C 353.036 1.25169 1.58673 0
M  V30 3614 C 353.357 -0.18127 1.94156 0
M  V30 3615 O 352.627 -1.11113 1.6134 0
M  V30 3616 H 351.207 0.4603 0.58833 0
M  V30 3617 H 353.869 1.67478 0.996847 0
M  V30 3618 H 352.965 1.84856 2.51465 0
M  V30 3619 N 353.266 -1.05314 1.17247 0
M  V30 3620 C 354.229 -2.112 0.890357 0
M  V30 3621 C 355.229 -1.60359 -0.118943 0
M  V30 3622 O 356.419 -1.73833 0.113086 0
M  V30 3623 C 353.551 -3.39266 0.333422 0
M  V30 3624 H 354.744 -2.37659 1.82916 0
M  V30 3625 H 352.297 -1.21538 0.982758 0
M  V30 3626 H 353.032 -3.18462 -0.612587 0
M  V30 3627 H 352.817 -3.77477 1.06082 0
M  V30 3628 H 354.307 -4.17315 0.154322 0
M  V30 3629 N 354.744 -0.972509 -1.24016 0
M  V30 3630 C 355.691 -0.505969 -2.25186 0
M  V30 3631 C 356.661 0.451009 -1.5986 0
M  V30 3632 O 357.846 0.360307 -1.87367 0
M  V30 3633 C 354.986 0.193089 -3.44559 0
M  V30 3634 C 354.099 -0.803222 -4.24467 0
M  V30 3635 C 353.234 -0.0797793 -5.3114 0
M  V30 3636 C 352.273 -1.06583 -6.02749 0
M  V30 3637 N 351.41 -0.372074 -7.01113 0
M  V30 3638 H 356.25 -1.37351 -2.64459 0
M  V30 3639 H 353.787 -0.688419 -1.29997 0
M  V30 3640 H 355.745 0.615125 -4.1264 0
M  V30 3641 H 354.375 1.02455 -3.06109 0
M  V30 3642 H 353.427 -1.34368 -3.55878 0
M  V30 3643 H 354.739 -1.55494 -4.73944 0
M  V30 3644 H 353.893 0.400015 -6.0538 0
M  V30 3645 H 352.632 0.704597 -4.82583 0
M  V30 3646 H 351.637 -1.55645 -5.27309 0
M  V30 3647 H 352.862 -1.85074 -6.53395 0
M  V30 3648 H 350.808 0.393238 -6.5482 0
M  V30 3649 H 350.725 -1.06258 -7.48495 0
M  V30 3650 H 351.993 0.0855932 -7.79453 0
M  V30 3651 N 356.222 1.38976 -0.743202 0
M  V30 3652 C 357.17 2.32394 -0.0978389 0
M  V30 3653 C 358.164 1.53486 0.716824 0
M  V30 3654 O 359.37 1.69092 0.617088 0
M  V30 3655 H 355.745 0.75189 -0.0128402 0
M  V30 3656 H 357.716 2.84441 -0.901981 0
M  V30 3657 C 356.465 3.38629 0.789036 0
M  V30 3658 H 355.788 3.99432 0.171559 0
M  V30 3659 H 357.228 4.06426 1.20807 0
M  V30 3660 C 355.687 2.76347 1.92702 0
M  V30 3661 O 356.217 2.64836 3.02034 0
M  V30 3662 N 354.423 2.34311 1.71891 0
M  V30 3663 H 353.97 2.43873 0.829675 0
M  V30 3664 H 353.928 1.9298 2.48205 0
M  V30 3665 N 357.7 0.491464 1.49741 0
M  V30 3666 C 358.947 -0.0564256 2.02421 0
M  V30 3667 C 359.275 -1.37872 1.37192 0
M  V30 3668 O 358.53 -1.89375 0.493508 0
M  V30 3669 C 358.829 -0.267329 3.56399 0
M  V30 3670 C 358.495 0.975775 4.40215 0
M  V30 3671 C 357.157 1.31655 4.62839 0
M  V30 3672 C 359.509 1.80251 4.89039 0
M  V30 3673 C 356.837 2.48375 5.31532 0
M  V30 3674 C 359.189 2.96116 5.59015 0
M  V30 3675 C 357.853 3.30585 5.79888 0
M  V30 3676 H 357.123 -0.0206476 0.740712 0
M  V30 3677 H 359.77 0.649686 1.80143 0
M  V30 3678 H 358.075 -1.05588 3.77304 0
M  V30 3679 H 359.772 -0.705549 3.94744 0
M  V30 3680 H 356.362 0.700315 4.2284 0
M  V30 3681 H 360.546 1.55239 4.71396 0
M  V30 3682 H 355.802 2.7533 5.45897 0
M  V30 3683 H 359.976 3.60509 5.95824 0
M  V30 3684 H 357.603 4.21132 6.32892 0
M  V30 3685 N 359.178 -1.55987 0.224894 0
M  V30 3686 C 360.406 -2.02784 -0.410665 0
M  V30 3687 C 360.821 -1.10464 -1.53112 0
M  V30 3688 O 360.178 -0.114871 -1.82138 0
M  V30 3689 C 360.229 -3.49087 -0.939165 0
M  V30 3690 O 359.95 -4.37887 0.136614 0
M  V30 3691 C 361.451 -4.11543 -1.64763 0
M  V30 3692 H 358.671 -0.663484 -0.100148 0
M  V30 3693 H 361.215 -2.01614 0.342326 0
M  V30 3694 H 359.37 -3.50861 -1.64242 0
M  V30 3695 H 359.784 -5.23849 -0.261155 0
M  V30 3696 H 361.258 -5.15673 -1.96939 0
M  V30 3697 H 361.735 -3.56736 -2.56195 0
M  V30 3698 H 362.341 -4.13629 -0.989503 0
M  V30 3699 N 360.656 0.0484629 -1.57525 0
M  V30 3700 C 361.903 0.743125 -1.88372 0
M  V30 3701 C 362.231 1.76383 -0.819715 0
M  V30 3702 O 361.486 1.94855 0.181659 0
M  V30 3703 C 361.785 1.46632 -3.25935 0
M  V30 3704 C 361.451 0.583427 -4.4711 0
M  V30 3705 C 360.113 0.340191 -4.79996 0
M  V30 3706 C 362.465 -0.0273345 -5.21193 0
M  V30 3707 C 359.793 -0.522903 -5.84365 0
M  V30 3708 C 362.145 -0.878017 -6.26477 0
M  V30 3709 C 360.809 -1.1309 -6.5785 0
M  V30 3710 H 360.079 0.271929 -0.689301 0
M  V30 3711 H 362.726 0.00336166 -1.915 0
M  V30 3712 H 361.031 2.2789 -3.18706 0
M  V30 3713 H 362.728 2.00902 -3.47044 0
M  V30 3714 H 359.318 0.783151 -4.21384 0
M  V30 3715 H 363.502 0.147654 -4.9608 0
M  V30 3716 H 358.758 -0.727335 -6.07058 0
M  V30 3717 H 362.932 -1.35789 -6.83033 0
M  V30 3718 H 360.559 -1.80144 -7.38547 0
M  V30 3719 N 362.134 1.5431 0.320358 0
M  V30 3720 C 363.359 1.76954 1.08175 0
M  V30 3721 C 363.784 0.518193 1.80821 0
M  V30 3722 O 363.142 -0.530411 1.73368 0
M  V30 3723 C 363.19 2.96451 2.05303 0
M  V30 3724 O 362.294 2.68221 3.13259 0
M  V30 3725 H 361.635 0.586275 0.311733 0
M  V30 3726 H 364.165 2.01342 0.363676 0
M  V30 3727 H 364.175 3.23887 2.48116 0
M  V30 3728 H 362.85 3.87196 1.51829 0
M  V30 3729 H 361.427 2.51744 2.75099 0
M  V30 3730 N 363.613 -0.582584 1.46437 0
M  V30 3731 C 364.563 -1.68654 1.53426 0
M  V30 3732 C 365.547 -1.55971 0.395194 0
M  V30 3733 O 366.739 -1.64884 0.643612 0
M  V30 3734 C 363.868 -3.07439 1.52762 0
M  V30 3735 C 362.954 -3.25418 2.71963 0
M  V30 3736 N 363.345 -3.13556 3.96883 0
M  V30 3737 C 361.643 -3.56357 2.68189 0
M  V30 3738 C 362.344 -3.33543 4.76575 0
M  V30 3739 N 361.32 -3.58704 4.08451 0
M  V30 3740 H 365.122 -1.58014 2.47808 0
M  V30 3741 H 362.636 -0.786617 1.42078 0
M  V30 3742 H 364.633 -3.86671 1.55857 0
M  V30 3743 H 363.293 -3.1921 0.594573 0
M  V30 3744 H 364.304 -2.9142 4.28129 0
M  V30 3745 H 360.981 -3.74812 1.83908 0
M  V30 3746 H 362.371 -3.29555 5.85528 0
M  V30 3747 N 365.091 -1.34144 -0.827227 0
M  V30 3748 C 366.319 -1.29325 -1.61501 0
M  V30 3749 C 366.734 0.13354 -1.88327 0
M  V30 3750 O 366.091 1.0793 -1.47164 0
M  V30 3751 C 366.142 -2.07746 -2.95844 0
M  V30 3752 O 365.863 -3.4486 -2.70191 0
M  V30 3753 C 367.364 -2.10273 -3.90256 0
M  V30 3754 H 364.584 -0.445069 -0.50215 0
M  V30 3755 H 367.128 -1.76693 -1.02955 0
M  V30 3756 H 365.283 -1.6403 -3.5096 0
M  V30 3757 H 365.697 -3.85345 -3.55822 0
M  V30 3758 H 367.171 -2.69575 -4.81698 0
M  V30 3759 H 367.648 -1.096 -4.25305 0
M  V30 3760 H 368.254 -2.54059 -3.41078 0
M  V30 3761 N 366.569 1.04691 -1.17803 0
M  V30 3762 C 367.499 2.14494 -0.92275 0
M  V30 3763 C 368.48 1.69546 0.137179 0
M  V30 3764 O 369.665 1.94195 -0.0141108 0
M  V30 3765 C 366.795 3.44491 -0.440803 0
M  V30 3766 C 365.749 4.03031 -1.4405 0
M  V30 3767 C 365.075 5.28432 -0.81631 0
M  V30 3768 C 366.375 4.39932 -2.81527 0
M  V30 3769 H 368.069 2.36107 -1.84103 0
M  V30 3770 H 365.615 1.1347 -0.886599 0
M  V30 3771 H 367.568 4.2066 -0.249602 0
M  V30 3772 H 366.292 3.22546 0.513025 0
M  V30 3773 H 364.951 3.28937 -1.61853 0
M  V30 3774 H 364.599 5.02792 0.144511 0
M  V30 3775 H 364.299 5.68559 -1.48371 0
M  V30 3776 H 365.823 6.07284 -0.635496 0
M  V30 3777 H 367.237 5.07113 -2.67412 0
M  V30 3778 H 365.634 4.9109 -3.44892 0
M  V30 3779 H 366.704 3.50045 -3.35554 0
M  V30 3780 N 368.047 0.979072 1.23499 0
M  V30 3781 C 369.463 0.687475 1.44034 0
M  V30 3782 C 369.663 -0.746801 1.8715 0
M  V30 3783 O 368.719 -1.51939 2.0167 0
M  V30 3784 C 370.032 1.68127 2.49307 0
M  V30 3785 C 371.58 1.69516 2.63122 0
M  V30 3786 C 372.055 2.67723 3.71603 0
M  V30 3787 N 373.546 2.66233 3.79044 0
M  V30 3788 C 374.281 3.38891 4.62537 0
M  V30 3789 N 373.777 4.21103 5.50131 0
M  V30 3790 N 375.57 3.27661 4.56721 0
M  V30 3791 H 367.721 1.90559 0.938135 0
M  V30 3792 H 369.984 0.821051 0.473897 0
M  V30 3793 H 369.69 2.70693 2.2454 0
M  V30 3794 H 369.564 1.46306 3.4767 0
M  V30 3795 H 371.951 0.676561 2.8724 0
M  V30 3796 H 372.032 1.95404 1.65079 0
M  V30 3797 H 371.676 3.69724 3.48233 0
M  V30 3798 H 371.606 2.39111 4.69184 0
M  V30 3799 H 374.097 2.06568 3.16446 0
M  V30 3800 H 374.41 4.73403 6.10827 0
M  V30 3801 H 372.755 4.25195 5.49759 0
M  V30 3802 H 375.946 2.62887 3.87309 0
M  V30 3803 H 376.119 3.84547 5.21562 0
M  V30 3804 N 369.525 -1.3858 0.750561 0
M  V30 3805 C 370.435 -2.34278 0.122825 0
M  V30 3806 C 371.451 -1.59116 -0.704131 0
M  V30 3807 O 372.627 -1.91326 -0.628987 0
M  V30 3808 C 369.692 -3.38221 -0.762086 0
M  V30 3809 C 368.753 -4.29227 0.078896 0
M  V30 3810 C 367.986 -5.28205 -0.763874 0
M  V30 3811 O 368.209 -5.34112 -2.00201 0
M  V30 3812 O 367.143 -6.01618 -0.18428 0
M  V30 3813 H 370.969 -2.89649 0.913088 0
M  V30 3814 H 368.554 -1.40374 0.511417 0
M  V30 3815 H 370.436 -4.01872 -1.26793 0
M  V30 3816 H 369.111 -2.85211 -1.5309 0
M  V30 3817 H 368.018 -3.68747 0.630621 0
M  V30 3818 H 369.351 -4.85484 0.810289 0
M  V30 3819 N 371.003 -0.499398 -1.49478 0
M  V30 3820 C 372.25 0.0456899 -2.02448 0
M  V30 3821 C 372.578 1.37142 -1.37921 0
M  V30 3822 O 371.833 1.89111 -0.503544 0
M  V30 3823 C 372.132 0.248424 -3.56536 0
M  V30 3824 C 371.798 -0.999107 -4.39692 0
M  V30 3825 C 370.46 -1.34108 -4.62135 0
M  V30 3826 C 372.812 -1.82842 -4.88076 0
M  V30 3827 C 370.14 -2.51191 -5.30208 0
M  V30 3828 C 372.492 -2.99076 -5.57437 0
M  V30 3829 C 371.156 -3.33655 -5.78127 0
M  V30 3830 H 370.426 0.0167191 -0.740811 0
M  V30 3831 H 373.073 -0.65923 -1.79795 0
M  V30 3832 H 371.378 1.03586 -3.77859 0
M  V30 3833 H 373.075 0.684605 -3.95113 0
M  V30 3834 H 369.665 -0.722729 -4.22463 0
M  V30 3835 H 373.849 -1.57737 -4.70566 0
M  V30 3836 H 369.105 -2.78221 -5.44429 0
M  V30 3837 H 373.279 -3.63664 -5.93904 0
M  V30 3838 H 370.906 -4.24483 -6.30649 0
M  V30 3839 N 372.481 1.55866 -0.233164 0
M  V30 3840 C 373.709 2.02998 0.399905 0
M  V30 3841 C 374.124 1.11274 1.52524 0
M  V30 3842 O 373.481 0.124528 1.82075 0
M  V30 3843 C 373.532 3.4958 0.920639 0
M  V30 3844 O 373.253 4.37808 -0.159834 0
M  V30 3845 C 374.754 4.12411 1.62578 0
M  V30 3846 H 371.974 0.664006 0.0966281 0
M  V30 3847 H 374.518 2.0143 -0.353013 0
M  V30 3848 H 372.673 3.51727 1.62379 0
M  V30 3849 H 373.087 5.23981 0.23337 0
M  V30 3850 H 374.561 5.16711 1.94201 0
M  V30 3851 H 375.038 3.5809 2.54299 0
M  V30 3852 H 375.644 4.14148 0.967553 0
M  V30 3853 N 373.959 -0.0401083 1.57549 0
M  V30 3854 C 374.906 -1.04413 2.05831 0
M  V30 3855 C 375.876 -1.36585 0.945184 0
M  V30 3856 O 377.061 -1.47112 1.21502 0
M  V30 3857 C 374.201 -2.34336 2.53339 0
M  V30 3858 C 373.314 -2.08419 3.78398 0
M  V30 3859 C 372.449 -3.32133 4.14561 0
M  V30 3860 C 371.488 -3.01721 5.3257 0
M  V30 3861 N 370.625 -4.17855 5.64218 0
M  V30 3862 H 375.465 -0.625442 2.91363 0
M  V30 3863 H 373.002 -0.297218 1.44066 0
M  V30 3864 H 374.96 -3.10234 2.78946 0
M  V30 3865 H 373.59 -2.73948 1.7074 0
M  V30 3866 H 372.642 -1.23069 3.59942 0
M  V30 3867 H 373.954 -1.81978 4.64419 0
M  V30 3868 H 373.108 -4.16406 4.41238 0
M  V30 3869 H 371.847 -3.61678 3.2717 0
M  V30 3870 H 370.852 -2.15849 5.05657 0
M  V30 3871 H 372.077 -2.73466 6.21605 0
M  V30 3872 H 370.023 -4.47372 4.79786 0
M  V30 3873 H 369.94 -3.94798 6.44725 0
M  V30 3874 H 371.208 -5.03033 5.95465 0
M  V30 3875 N 375.437 -1.54477 -0.31217 0
M  V30 3876 C 376.4 -1.83923 -1.36766 0
M  V30 3877 C 377.4 -0.711563 -1.44199 0
M  V30 3878 O 378.59 -0.979866 -1.44029 0
M  V30 3879 C 375.722 -2.0095 -2.75376 0
M  V30 3880 H 376.915 -2.78239 -1.11906 0
M  V30 3881 H 374.468 -1.46369 -0.548257 0
M  V30 3882 H 375.203 -1.08883 -3.05475 0
M  V30 3883 H 374.988 -2.83018 -2.71373 0
M  V30 3884 H 376.478 -2.2514 -3.51713 0
M  V30 3885 N 376.915 0.57481 -1.46744 0
M  V30 3886 C 378.143 1.35856 -1.56047 0
M  V30 3887 C 378.558 1.87691 -0.204365 0
M  V30 3888 O 377.915 1.64049 0.79963 0
M  V30 3889 C 377.966 2.54066 -2.57163 0
M  V30 3890 O 377.687 2.04377 -3.87507 0
M  V30 3891 C 379.188 3.46514 -2.76483 0
M  V30 3892 H 376.408 0.414754 -0.527466 0
M  V30 3893 H 378.952 0.698035 -1.92218 0
M  V30 3894 H 377.107 3.16092 -2.23974 0
M  V30 3895 H 377.521 2.81419 -4.4261 0
M  V30 3896 H 378.995 4.25919 -3.51137 0
M  V30 3897 H 379.472 3.98951 -1.83671 0
M  V30 3898 H 380.078 2.90318 -3.10799 0
M  V30 3899 N 378.394 1.34581 0.820102 0
M  V30 3900 C 379.342 1.26401 1.95258 0
M  V30 3901 C 380.336 0.161553 1.68628 0
M  V30 3902 O 381.542 0.326703 1.7701 0
M  V30 3903 H 377.917 0.392749 0.64129 0
M  V30 3904 H 379.888 2.22105 1.99279 0
M  V30 3905 C 378.637 1.03919 3.31807 0
M  V30 3906 H 377.96 1.87984 3.52848 0
M  V30 3907 H 379.4 1.02232 4.11491 0
M  V30 3908 C 377.859 -0.257433 3.35915 0
M  V30 3909 O 378.389 -1.25784 3.81499 0
M  V30 3910 N 376.595 -0.291524 2.89134 0
M  V30 3911 H 376.142 0.523161 2.52232 0
M  V30 3912 H 376.1 -1.15883 2.92264 0
M  V30 3913 N 379.872 -1.04064 1.18357 0
M  V30 3914 C 381.121 -1.76662 0.973313 0
M  V30 3915 C 381.434 -1.89154 -0.497991 0
M  V30 3916 O 382.64 -2.58606 -0.826762 0
M  V30 3917 C 381.096 -3.17624 1.69242 0
M  V30 3918 C 380.704 -3.13225 3.20303 0
M  V30 3919 C 382.448 -3.946 1.56497 0
M  V30 3920 C 380.355 -4.49046 3.84853 0
M  V30 3921 H 379.285 -0.662214 0.36054 0
M  V30 3922 H 381.936 -1.16553 1.41731 0
M  V30 3923 H 380.318 -3.78129 1.1762 0
M  V30 3924 H 381.492 -2.62172 3.78949 0
M  V30 3925 H 379.807 -2.49749 3.33189 0
M  V30 3926 H 382.404 -4.95042 2.02084 0
M  V30 3927 H 382.747 -4.13074 0.517243 0
M  V30 3928 H 383.28 -3.4067 2.05399 0
M  V30 3929 H 380.019 -4.35777 4.89672 0
M  V30 3930 H 379.539 -5.00203 3.30994 0
M  V30 3931 H 381.218 -5.17961 3.87718 0
M  V30 3932 N 381.35 -0.985608 -1.22978 0
M  V30 3933 C 382.766 -0.695104 -1.43668 0
M  V30 3934 C 382.966 0.736866 -1.87543 0
M  V30 3935 O 382.022 1.50868 -2.02473 0
M  V30 3936 C 383.335 -1.69447 -2.48412 0
M  V30 3937 C 384.883 -1.70909 -2.62219 0
M  V30 3938 C 385.358 -2.6969 -3.70178 0
M  V30 3939 N 386.849 -2.6824 -3.77626 0
M  V30 3940 C 387.584 -3.41339 -4.60733 0
M  V30 3941 N 387.08 -4.24015 -5.4789 0
M  V30 3942 N 388.873 -3.30079 -4.54977 0
M  V30 3943 H 381.024 -1.91054 -0.928016 0
M  V30 3944 H 383.287 -0.823553 -0.469536 0
M  V30 3945 H 382.993 -2.7188 -2.23102 0
M  V30 3946 H 382.867 -1.48147 -3.46889 0
M  V30 3947 H 385.254 -0.691785 -2.86877 0
M  V30 3948 H 385.335 -1.96276 -1.6404 0
M  V30 3949 H 384.979 -3.71566 -3.46268 0
M  V30 3950 H 384.909 -2.41595 -4.67909 0
M  V30 3951 H 387.4 -2.08243 -3.15346 0
M  V30 3952 H 387.713 -4.76636 -6.08308 0
M  V30 3953 H 386.058 -4.28104 -5.47496 0
M  V30 3954 H 389.249 -2.64937 -3.85909 0
M  V30 3955 H 389.422 -3.87308 -5.19516 0
M  V30 3956 N 382.828 1.3818 -0.7579 0
M  V30 3957 C 383.758 2.33027 -0.148597 0
M  V30 3958 C 384.739 1.55085 0.69875 0
M  V30 3959 O 385.924 1.83384 0.639053 0
M  V30 3960 C 383.054 3.3928 0.742034 0
M  V30 3961 C 382.008 4.28 -0.00291946 0
M  V30 3962 C 381.334 5.25146 1.00625 0
M  V30 3963 C 382.634 5.08938 -1.17385 0
M  V30 3964 H 384.328 2.84231 -0.940909 0
M  V30 3965 H 381.874 1.36659 -0.453908 0
M  V30 3966 H 383.827 4.046 1.17799 0
M  V30 3967 H 382.551 2.86569 1.56671 0
M  V30 3968 H 381.21 3.64192 -0.419504 0
M  V30 3969 H 380.858 4.68721 1.8251 0
M  V30 3970 H 380.558 5.85361 0.512428 0
M  V30 3971 H 382.082 5.93342 1.44143 0
M  V30 3972 H 383.496 5.67474 -0.815224 0
M  V30 3973 H 381.893 5.7841 -1.59882 0
M  V30 3974 H 382.963 4.42424 -1.98468 0
M  V30 3975 N 384.306 0.507319 1.49211 0
M  V30 3976 C 385.722 0.163682 1.58758 0
M  V30 3977 C 385.922 -1.33208 1.51188 0
M  V30 3978 O 384.978 -2.10855 1.38911 0
M  V30 3979 C 386.291 0.746095 2.91297 0
M  V30 3980 C 387.839 0.712773 3.04776 0
M  V30 3981 C 388.314 1.27336 4.39943 0
M  V30 3982 N 389.805 1.23433 4.46451 0
M  V30 3983 C 390.54 1.63821 5.495 0
M  V30 3984 N 390.036 2.11832 6.5962 0
M  V30 3985 N 391.829 1.55198 5.4025 0
M  V30 3986 H 383.98 1.47972 1.52375 0
M  V30 3987 H 386.243 0.614147 0.722168 0
M  V30 3988 H 385.949 1.79534 3.02424 0
M  V30 3989 H 385.823 0.210137 3.76614 0
M  V30 3990 H 388.21 -0.327656 2.93275 0
M  V30 3991 H 388.291 1.28595 2.21127 0
M  V30 3992 H 387.935 2.3126 4.52196 0
M  V30 3993 H 387.865 0.676066 5.22242 0
M  V30 3994 H 390.356 0.882627 3.67448 0
M  V30 3995 H 390.669 2.40703 7.34358 0
M  V30 3996 H 389.014 2.1581 6.60644 0
M  V30 3997 H 392.205 1.17505 4.53112 0
M  V30 3998 H 392.378 1.86997 6.20432 0
M  V30 3999 N 385.784 -1.5574 0.241426 0
M  V30 4000 C 387.031 -1.9881 -0.384836 0
M  V30 4001 C 387.359 -1.12947 -1.58346 0
M  V30 4002 O 386.614 -0.178993 -1.9488 0
M  V30 4003 C 386.913 -3.47308 -0.843317 0
M  V30 4004 C 386.579 -4.50223 0.246946 0
M  V30 4005 C 385.241 -4.78088 0.546399 0
M  V30 4006 C 387.593 -5.11841 0.983282 0
M  V30 4007 C 384.921 -5.64846 1.58636 0
M  V30 4008 C 387.273 -5.99727 2.01272 0
M  V30 4009 C 385.937 -6.25927 2.31888 0
M  V30 4010 H 385.207 -0.727496 -0.140821 0
M  V30 4011 H 387.854 -1.8831 0.348106 0
M  V30 4012 H 386.159 -3.55112 -1.65537 0
M  V30 4013 H 387.856 -3.78017 -1.33806 0
M  V30 4014 H 384.446 -4.286 0.00340639 0
M  V30 4015 H 388.63 -4.90366 0.765182 0
M  V30 4016 H 383.886 -5.83403 1.82896 0
M  V30 4017 H 388.06 -6.46517 2.58823 0
M  V30 4018 H 385.687 -6.92949 3.12611 0
M  V30 4019 N 387.262 0.0317525 -1.57568 0
M  V30 4020 C 388.192 1.03274 -2.0942 0
M  V30 4021 C 389.173 1.3788 -0.996143 0
M  V30 4022 O 390.358 1.46811 -1.27122 0
M  V30 4023 C 387.488 2.33448 -2.57137 0
M  V30 4024 C 386.442 2.13091 -3.71182 0
M  V30 4025 C 385.768 3.49001 -4.05095 0
M  V30 4026 C 387.068 1.51928 -4.99715 0
M  V30 4027 H 388.762 0.60112 -2.93303 0
M  V30 4028 H 386.308 0.287705 -1.41097 0
M  V30 4029 H 388.261 3.03802 -2.92032 0
M  V30 4030 H 386.985 2.78665 -1.70333 0
M  V30 4031 H 385.644 1.45171 -3.36632 0
M  V30 4032 H 385.292 3.91862 -3.15362 0
M  V30 4033 H 384.992 3.36207 -4.81911 0
M  V30 4034 H 386.516 4.20721 -4.42522 0
M  V30 4035 H 387.93 2.12196 -5.32584 0
M  V30 4036 H 386.327 1.49716 -5.81124 0
M  V30 4037 H 387.397 0.484811 -4.8247 0
M  V30 4038 N 388.74 1.54641 0.303973 0
M  V30 4039 C 390.156 1.45788 0.649463 0
M  V30 4040 C 390.356 0.64666 1.90842 0
M  V30 4041 O 389.412 0.153183 2.52035 0
M  V30 4042 C 390.725 2.89718 0.805227 0
M  V30 4043 C 392.273 2.99742 0.901305 0
M  V30 4044 C 392.748 4.44863 1.08909 0
M  V30 4045 N 394.239 4.48559 1.15536 0
M  V30 4046 C 394.974 5.58026 1.3189 0
M  V30 4047 N 394.47 6.77422 1.45161 0
M  V30 4048 N 396.263 5.45708 1.34755 0
M  V30 4049 H 388.414 2.05854 -0.523237 0
M  V30 4050 H 390.677 0.932186 -0.172431 0
M  V30 4051 H 390.383 3.51666 -0.0489108 0
M  V30 4052 H 390.257 3.36964 1.69513 0
M  V30 4053 H 392.644 2.3791 1.74593 0
M  V30 4054 H 392.725 2.55797 -0.0125531 0
M  V30 4055 H 392.369 5.07288 0.249241 0
M  V30 4056 H 392.299 4.86436 2.01713 0
M  V30 4057 H 394.79 3.6254 1.06646 0
M  V30 4058 H 395.103 7.56604 1.57387 0
M  V30 4059 H 393.448 6.80292 1.42223 0
M  V30 4060 H 396.639 4.51378 1.23996 0
M  V30 4061 H 396.812 6.3107 1.47157 0
M  V30 4062 N 390.218 -0.567019 1.47046 0
M  V30 4063 C 391.446 -1.35027 1.56765 0
M  V30 4064 C 391.861 -1.8758 0.214316 0
M  V30 4065 O 391.218 -1.64471 -0.790919 0
M  V30 4066 C 391.269 -2.52698 2.58507 0
M  V30 4067 O 390.99 -2.0232 3.88585 0
M  V30 4068 C 392.491 -3.45043 2.78316 0
M  V30 4069 H 389.711 -0.41195 0.529658 0
M  V30 4070 H 392.255 -0.687832 1.92585 0
M  V30 4071 H 390.41 -3.149 2.25648 0
M  V30 4072 H 390.824 -2.79068 4.44096 0
M  V30 4073 H 392.298 -4.2405 3.53391 0
M  V30 4074 H 392.775 -3.97971 1.85784 0
M  V30 4075 H 393.381 -2.88665 3.12334 0
M  V30 4076 N 391.696 -1.35014 -0.812953 0
M  V30 4077 C 392.644 -1.27435 -1.94585 0
M  V30 4078 C 393.638 -0.170494 -1.6854 0
M  V30 4079 O 394.844 -0.336085 -1.76835 0
M  V30 4080 H 391.219 -0.396144 -0.639198 0
M  V30 4081 H 393.19 -2.23158 -1.98098 0
M  V30 4082 C 391.939 -1.05677 -3.31252 0
M  V30 4083 H 391.262 -1.89853 -3.51846 0
M  V30 4084 H 392.702 -1.04413 -4.10943 0
M  V30 4085 C 391.161 0.239615 -3.36047 0
M  V30 4086 O 391.691 1.23759 -3.8216 0
M  V30 4087 N 389.897 0.276186 -2.89285 0
M  V30 4088 H 389.444 -0.53653 -2.51951 0
M  V30 4089 H 389.402 1.14332 -2.92875 0
M  V30 4090 N 393.175 1.03435 -1.18907 0
M  V30 4091 C 394.403 1.80381 -1.01342 0
M  V30 4092 C 394.818 1.83649 0.438005 0
M  V30 4093 O 394.175 1.27655 1.30424 0
M  V30 4094 C 394.226 3.25689 -1.56873 0
M  V30 4095 O 393.947 3.22673 -2.96334 0
M  V30 4096 C 395.448 4.19255 -1.44014 0
M  V30 4097 H 392.668 0.56784 -0.35749 0
M  V30 4098 H 395.212 1.30317 -1.576 0
M  V30 4099 H 393.367 3.72962 -1.04777 0
M  V30 4100 H 393.781 4.13748 -3.22355 0
M  V30 4101 H 395.255 5.19123 -1.87657 0
M  V30 4102 H 395.732 4.37467 -0.389815 0
M  V30 4103 H 396.338 3.77851 -1.95214 0
M  V30 4104 N 394.653 0.992116 1.22453 0
M  V30 4105 C 395.583 0.561677 2.26644 0
M  V30 4106 C 396.564 -0.411055 1.65059 0
M  V30 4107 O 397.749 -0.301861 1.9184 0
M  V30 4108 C 394.879 -0.125247 3.47074 0
M  V30 4109 C 393.833 0.765948 4.21091 0
M  V30 4110 C 393.159 -0.0538484 5.34673 0
M  V30 4111 C 394.459 2.06242 4.79856 0
M  V30 4112 H 396.153 1.43259 2.62902 0
M  V30 4113 H 393.699 0.690283 1.26377 0
M  V30 4114 H 395.652 -0.437764 4.1912 0
M  V30 4115 H 394.376 -1.03069 3.0991 0
M  V30 4116 H 393.035 1.0621 3.50878 0
M  V30 4117 H 392.683 -0.960188 4.9375 0
M  V30 4118 H 392.383 0.539415 5.85119 0
M  V30 4119 H 393.907 -0.360477 6.09535 0
M  V30 4120 H 395.321 1.8139 5.43848 0
M  V30 4121 H 393.718 2.60444 5.40638 0
M  V30 4122 H 394.788 2.74167 3.99951 0
M  V30 4123 N 396.131 -1.37776 0.765217 0
M  V30 4124 C 397.061 -2.32945 0.160953 0
M  V30 4125 C 398.042 -1.55454 -0.690516 0
M  V30 4126 O 399.227 -1.83721 -0.629318 0
M  V30 4127 C 396.357 -3.39669 -0.724031 0
M  V30 4128 C 395.311 -4.27992 0.0256173 0
M  V30 4129 C 394.637 -5.25673 -0.978383 0
M  V30 4130 C 395.937 -5.08309 1.20082 0
M  V30 4131 H 397.631 -2.83728 0.955969 0
M  V30 4132 H 395.177 -1.36416 0.461149 0
M  V30 4133 H 397.13 -4.05219 -1.15652 0
M  V30 4134 H 395.854 -2.87396 -1.5515 0
M  V30 4135 H 394.513 -3.63964 0.438812 0
M  V30 4136 H 394.161 -4.69682 -1.80022 0
M  V30 4137 H 393.861 -5.85625 -0.481378 0
M  V30 4138 H 395.385 -5.94098 -1.40995 0
M  V30 4139 H 396.799 -5.67034 0.845307 0
M  V30 4140 H 395.196 -5.77554 1.62947 0
M  V30 4141 H 396.266 -4.41365 2.00811 0
M  V30 4142 N 397.609 -0.515225 -1.4894 0
M  V30 4143 C 398.857 0.0241671 -2.02086 0
M  V30 4144 C 399.178 1.3616 -1.3959 0
M  V30 4145 O 398.448 1.87841 -0.556121 0
M  V30 4146 H 397.028 0.0119203 -0.746905 0
M  V30 4147 H 399.69 -0.675702 -1.82812 0
M  V30 4148 H 398.786 0.143385 -3.1177 0
M  V30 4149 N 399.087 1.5561 -0.249682 0
M  V30 4150 C 400.037 2.18157 0.662673 0
M  V30 4151 C 401.021 1.1383 1.13717 0
M  V30 4152 O 402.213 1.39731 1.08648 0
M  V30 4153 C 399.342 2.88672 1.85805 0
M  V30 4154 C 398.428 4.00258 1.40193 0
M  V30 4155 N 398.819 5.01473 0.660213 0
M  V30 4156 C 397.117 4.12864 1.68698 0
M  V30 4157 C 397.818 5.80155 0.423695 0
M  V30 4158 N 396.794 5.34533 0.988721 0
M  V30 4159 H 400.596 2.93769 0.0878688 0
M  V30 4160 H 398.11 1.62316 -0.0521183 0
M  V30 4161 H 400.107 3.31912 2.5227 0
M  V30 4162 H 398.767 2.14564 2.43705 0
M  V30 4163 H 399.778 5.16971 0.310047 0
M  V30 4164 H 396.455 3.4993 2.27717 0
M  V30 4165 H 397.845 6.71688 -0.168616 0
M  V30 4166 N 400.565 -0.0233959 1.57583 0
M  V30 4167 C 401.495 -1.02162 2.09965 0
M  V30 4168 C 402.476 -1.3735 1.00344 0
M  V30 4169 O 403.661 -1.46135 1.27899 0
M  V30 4170 C 400.791 -2.32081 2.58371 0
M  V30 4171 C 399.745 -2.1112 3.72307 0
M  V30 4172 C 399.071 -3.46848 4.06941 0
M  V30 4173 C 400.371 -1.49276 5.00514 0
M  V30 4174 H 402.065 -0.585557 2.93618 0
M  V30 4175 H 399.611 -0.280218 1.41247 0
M  V30 4176 H 401.564 -3.02249 2.93639 0
M  V30 4177 H 400.288 -2.77758 1.71808 0
M  V30 4178 H 398.947 -1.43384 3.37397 0
M  V30 4179 H 398.595 -3.90184 3.17436 0
M  V30 4180 H 398.295 -3.33646 4.83688 0
M  V30 4181 H 399.819 -4.18369 4.44747 0
M  V30 4182 H 401.233 -2.09368 5.33702 0
M  V30 4183 H 399.63 -1.46632 5.8191 0
M  V30 4184 H 400.7 -0.459217 4.82721 0
M  V30 4185 N 402.043 -1.548 -0.295768 0
M  V30 4186 C 403.292 -1.73538 -1.02798 0
M  V30 4187 C 403.605 -0.531159 -1.8825 0
M  V30 4188 O 404.811 -0.600458 -2.64777 0
M  V30 4189 C 403.267 -3.07051 -1.87744 0
M  V30 4190 C 402.875 -4.34968 -1.07269 0
M  V30 4191 C 404.619 -3.35146 -2.60533 0
M  V30 4192 C 402.526 -5.5953 -1.91521 0
M  V30 4193 H 401.456 -0.646794 -0.387522 0
M  V30 4194 H 404.107 -1.81278 -0.284718 0
M  V30 4195 H 402.489 -2.93289 -2.66078 0
M  V30 4196 H 403.663 -4.5958 -0.335117 0
M  V30 4197 H 401.978 -4.13847 -0.460384 0
M  V30 4198 H 404.575 -4.2541 -3.23929 0
M  V30 4199 H 404.918 -2.54255 -3.29636 0
M  V30 4200 H 405.451 -3.49902 -1.89244 0
M  V30 4201 H 402.19 -6.43103 -1.26878 0
M  V30 4202 H 401.71 -5.39096 -2.62937 0
M  V30 4203 H 403.389 -5.96982 -2.49442 0
M  V30 4204 N 403.521 0.559213 -1.47345 0
M  V30 4205 C 404.746 1.34676 -1.57725 0
M  V30 4206 C 405.171 1.86723 -0.227164 0
M  V30 4207 O 404.529 1.6286 0.796642 0
M  V30 4208 C 404.577 2.49399 -2.60447 0
M  V30 4209 O 403.681 3.51567 -2.15578 0
M  V30 4210 H 403.022 0.400115 -0.52991 0
M  V30 4211 H 405.552 0.676009 -1.93109 0
M  V30 4212 H 405.562 2.95996 -2.80803 0
M  V30 4213 H 404.237 2.10873 -3.58477 0
M  V30 4214 H 402.814 3.11289 -2.05313 0
M  V30 4215 N 404.999 1.35443 0.805782 0
M  V30 4216 C 405.946 1.28431 1.91766 0
M  V30 4217 C 406.916 0.156102 1.65365 0
M  V30 4218 O 408.101 0.339936 1.87747 0
M  V30 4219 C 405.241 1.06301 3.2832 0
M  V30 4220 C 404.354 2.2805 3.66902 0
M  V30 4221 C 403.489 1.99064 4.92491 0
M  V30 4222 C 402.528 3.16863 5.23703 0
M  V30 4223 N 401.665 2.87647 6.40471 0
M  V30 4224 H 406.505 2.23511 1.97096 0
M  V30 4225 H 404.042 1.11105 0.964054 0
M  V30 4226 H 406 0.915012 4.07042 0
M  V30 4227 H 404.63 0.148822 3.22457 0
M  V30 4228 H 403.682 2.53711 2.83434 0
M  V30 4229 H 404.994 3.1601 3.85927 0
M  V30 4230 H 404.148 1.81099 5.7904 0
M  V30 4231 H 402.887 1.0839 4.75503 0
M  V30 4232 H 401.892 3.35404 4.35642 0
M  V30 4233 H 403.117 4.08339 5.4262 0
M  V30 4234 H 401.063 1.99568 6.24907 0
M  V30 4235 H 400.98 3.69141 6.59751 0
M  V30 4236 H 402.248 2.73226 7.30047 0
M  V30 4237 N 406.477 -1.02803 1.19454 0
M  V30 4238 C 407.44 -2.09264 0.934955 0
M  V30 4239 C 408.44 -1.60576 -0.0849015 0
M  V30 4240 O 409.63 -1.73554 0.149933 0
M  V30 4241 C 406.762 -3.38482 0.40531 0
M  V30 4242 H 407.955 -2.33726 1.87916 0
M  V30 4243 H 405.508 -1.19426 1.00832 0
M  V30 4244 H 406.243 -3.19689 -0.544899 0
M  V30 4245 H 406.028 -3.75142 1.14065 0
M  V30 4246 H 407.518 -4.16894 0.242806 0
M  V30 4247 N 407.956 -0.998596 -1.21925 0
M  V30 4248 C 408.888 -0.511879 -2.23411 0
M  V30 4249 C 409.901 0.396094 -1.57908 0
M  V30 4250 O 411.09 0.197316 -1.77406 0
M  V30 4251 C 408.19 0.276802 -3.37768 0
M  V30 4252 C 407.363 -0.628687 -4.32858 0
M  V30 4253 C 406.422 0.109272 -5.26087 0
M  V30 4254 O 405.448 -0.507237 -5.66935 0
M  V30 4255 N 406.65 1.38983 -5.63617 0
M  V30 4256 H 409.415 -1.38457 -2.658 0
M  V30 4257 H 406.976 -0.873981 -1.36283 0
M  V30 4258 H 408.968 0.77928 -3.97126 0
M  V30 4259 H 407.538 1.05063 -2.94415 0
M  V30 4260 H 406.758 -1.31175 -3.71735 0
M  V30 4261 H 408.046 -1.24514 -4.93329 0
M  V30 4262 H 407.444 1.91194 -5.32411 0
M  V30 4263 H 406.001 1.83739 -6.25367 0
M  V30 4264 N 409.434 1.37368 -0.772513 0
M  V30 4265 C 410.85 1.53059 -0.452231 0
M  V30 4266 C 411.05 1.73065 1.03203 0
M  V30 4267 O 410.106 1.75245 1.81784 0
M  V30 4268 C 411.419 2.72659 -1.26797 0
M  V30 4269 C 412.967 2.86521 -1.25995 0
M  V30 4270 C 413.442 4.09105 -2.05905 0
M  V30 4271 N 414.933 4.16219 -2.03263 0
M  V30 4272 C 415.668 5.10107 -2.61875 0
M  V30 4273 N 415.164 6.09547 -3.29278 0
M  V30 4274 N 416.957 5.02596 -2.51701 0
M  V30 4275 H 409.108 1.22634 -1.7342 0
M  V30 4276 H 411.371 0.597206 -0.736239 0
M  V30 4277 H 411.077 2.64343 -2.31982 0
M  V30 4278 H 410.951 3.66363 -0.897672 0
M  V30 4279 H 413.338 2.94308 -0.216081 0
M  V30 4280 H 413.419 1.93774 -1.66989 0
M  V30 4281 H 413.063 4.0208 -3.10313 0
M  V30 4282 H 412.993 5.00968 -1.62292 0
M  V30 4283 H 415.484 3.45012 -1.54192 0
M  V30 4284 H 415.797 6.77718 -3.71374 0
M  V30 4285 H 414.142 6.09824 -3.33377 0
M  V30 4286 H 417.333 4.23855 -1.98657 0
M  V30 4287 H 417.506 5.75582 -2.97673 0
M  V30 4288 N 410.912 0.523116 1.48665 0
M  V30 4289 C 412.189 -0.0775449 1.95446 0
M  V30 4290 C 412.569 -1.5197 1.4652 0
M  V30 4291 O 411.917 -2.17876 0.688657 0
M  V30 4292 C 412.127 0.0326135 3.48985 0
M  V30 4293 C 413.475 -0.130141 4.24401 0
M  V30 4294 O 414.499 -0.0415142 3.56176 0
M  V30 4295 O 413.358 -0.31491 5.45592 0
M  V30 4296 H 410.452 -0.0831012 0.822814 0
M  V30 4297 H 412.998 0.587227 1.59216 0
M  V30 4298 H 411.77 1.03748 3.77296 0
M  V30 4299 H 411.393 -0.671317 3.91892 0
M  V30 4300 N 412.39 -1.55475 0.257931 0
M  V30 4301 C 413.801 -1.8511 -0.243135 0
M  V30 4302 C 414.152 -1.17986 -1.5676 0
M  V30 4303 O 413.277 -0.462102 -2.11409 0
M  V30 4304 C 413.872 -3.35826 -0.447929 0
M  V30 4305 C 412.431 -3.65647 -0.893245 0
M  V30 4306 C 411.578 -2.7729 0.0232965 0
M  V30 4307 H 414.529 -1.51261 0.480199 0
M  V30 4308 H 414.55 -3.58002 -1.28898 0
M  V30 4309 H 414.062 -3.84652 0.516196 0
M  V30 4310 H 412.163 -3.22308 -1.86945 0
M  V30 4311 H 412.276 -4.73312 -0.742469 0
M  V30 4312 H 410.64 -2.49942 -0.490021 0
M  V30 4313 H 411.423 -3.28926 0.982994 0
M  V30 4314 N 413.868 0.0150385 -1.57593 0
M  V30 4315 C 415.096 0.714395 -1.94175 0
M  V30 4316 C 415.511 1.68135 -0.858841 0
M  V30 4317 O 414.868 1.81766 0.163567 0
M  V30 4318 C 414.919 1.45933 -3.30735 0
M  V30 4319 O 414.64 0.531167 -4.34868 0
M  V30 4320 C 416.141 2.25456 -3.81686 0
M  V30 4321 H 413.361 0.199923 -0.640525 0
M  V30 4322 H 415.905 -0.0316096 -2.04476 0
M  V30 4323 H 414.06 2.15709 -3.21789 0
M  V30 4324 H 414.474 1.05509 -5.13778 0
M  V30 4325 H 415.948 2.731 -4.79709 0
M  V30 4326 H 416.425 3.07485 -3.13607 0
M  V30 4327 H 417.031 1.60727 -3.9376 0
M  V30 4328 N 415.346 1.54954 0.287554 0
M  V30 4329 C 416.592 1.75132 1.02257 0
M  V30 4330 C 416.925 0.542858 1.86458 0
M  V30 4331 O 416.2 -0.459856 1.88986 0
M  V30 4332 C 416.483 3.04812 1.91733 0
M  V30 4333 C 416.336 4.35985 1.10622 0
M  V30 4334 C 417.655 3.30438 2.90687 0
M  V30 4335 H 414.774 0.637194 0.370341 0
M  V30 4336 H 417.416 1.87678 0.296111 0
M  V30 4337 H 415.566 2.94247 2.53675 0
M  V30 4338 H 417.238 4.58487 0.508636 0
M  V30 4339 H 415.481 4.31865 0.409271 0
M  V30 4340 H 416.152 5.23017 1.76513 0
M  V30 4341 H 418.628 3.40701 2.38877 0
M  V30 4342 H 417.504 4.22467 3.50447 0
M  V30 4343 H 417.765 2.49377 3.65053 0
M  V30 4344 N 416.824 -0.551391 1.4764 0
M  V30 4345 C 418.052 -1.33357 1.58189 0
M  V30 4346 C 418.467 -1.87342 0.234199 0
M  V30 4347 O 417.824 -1.65301 -0.77343 0
M  V30 4348 C 417.875 -2.49942 2.61173 0
M  V30 4349 O 417.596 -1.98187 3.90709 0
M  V30 4350 C 419.097 -3.42072 2.8196 0
M  V30 4351 H 416.317 -0.40631 0.533998 0
M  V30 4352 H 418.861 -0.667367 1.93304 0
M  V30 4353 H 417.016 -3.12489 2.28975 0
M  V30 4354 H 417.43 -2.74342 4.47031 0
M  V30 4355 H 418.904 -4.20278 3.57869 0
M  V30 4356 H 419.381 -3.95978 1.89995 0
M  V30 4357 H 419.987 -2.85336 3.15378 0
M  V30 4358 N 418.302 -1.35869 -0.798587 0
M  V30 4359 C 419.718 -1.16082 -1.09532 0
M  V30 4360 C 419.918 0.0213124 -2.01489 0
M  V30 4361 O 418.974 0.689488 -2.42904 0
M  V30 4362 C 420.287 -2.46748 -1.7186 0
M  V30 4363 C 421.835 -2.53028 -1.84244 0
M  V30 4364 C 422.31 -3.83758 -2.49988 0
M  V30 4365 N 423.801 -3.85053 -2.57465 0
M  V30 4366 C 424.536 -4.8294 -3.09122 0
M  V30 4367 N 424.032 -5.91217 -3.61157 0
M  V30 4368 N 425.825 -4.70369 -3.0775 0
M  V30 4369 H 417.976 -2.11571 -0.187461 0
M  V30 4370 H 420.239 -0.936726 -0.145765 0
M  V30 4371 H 419.945 -3.33471 -1.11759 0
M  V30 4372 H 419.819 -2.61883 -2.71472 0
M  V30 4373 H 422.206 -1.66729 -2.43486 0
M  V30 4374 H 422.287 -2.418 -0.834643 0
M  V30 4375 H 421.931 -4.70459 -1.91393 0
M  V30 4376 H 421.861 -3.92278 -3.5132 0
M  V30 4377 H 424.352 -3.06822 -2.20609 0
M  V30 4378 H 424.665 -6.61892 -3.98896 0
M  V30 4379 H 423.01 -5.94899 -3.59333 0
M  V30 4380 H 426.201 -3.84914 -2.66381 0
M  V30 4381 H 426.374 -5.46816 -3.47701 0
M  V30 4382 N 419.78 1.02168 -1.19998 0
M  V30 4383 C 421.196 1.27969 -0.953737 0
M  V30 4384 C 421.396 1.98079 0.369703 0
M  V30 4385 O 420.452 2.27306 1.09947 0
M  V30 4386 C 421.765 2.11971 -2.13281 0
M  V30 4387 C 423.313 2.25255 -2.17323 0
M  V30 4388 C 423.788 3.12632 -3.34702 0
M  V30 4389 N 425.279 3.2022 -3.34684 0
M  V30 4390 C 426.014 3.88039 -4.22153 0
M  V30 4391 N 425.51 4.58027 -5.19791 0
M  V30 4392 N 427.303 3.84511 -4.10009 0
M  V30 4393 H 419.454 0.550794 -2.05134 0
M  V30 4394 H 421.717 0.305683 -0.897364 0
M  V30 4395 H 421.423 1.67785 -3.09097 0
M  V30 4396 H 421.297 3.12699 -2.10949 0
M  V30 4397 H 423.684 2.68667 -1.22073 0
M  V30 4398 H 423.765 1.24053 -2.23706 0
M  V30 4399 H 423.409 2.69926 -4.30235 0
M  V30 4400 H 423.339 4.13909 -3.25556 0
M  V30 4401 H 425.83 2.70382 -2.64012 0
M  V30 4402 H 426.143 5.07429 -5.82868 0
M  V30 4403 H 424.488 4.56869 -5.23733 0
M  V30 4404 H 427.679 3.28978 -3.33003 0
M  V30 4405 H 427.852 4.3709 -4.78389 0
M  V30 4406 N 421.258 1.00505 1.21394 0
M  V30 4407 C 422.488 0.705584 1.94178 0
M  V30 4408 C 422.896 -0.735846 1.74304 0
M  V30 4409 O 422.239 -1.50954 1.04683 0
M  V30 4410 C 422.301 0.94689 3.46806 0
M  V30 4411 C 421.965 2.37517 3.90429 0
M  V30 4412 C 422.962 3.35539 3.97127 0
M  V30 4413 C 420.647 2.71284 4.22742 0
M  V30 4414 C 422.641 4.65395 4.3553 0
M  V30 4415 C 420.328 4.01356 4.60822 0
M  V30 4416 C 421.326 4.98223 4.67186 0
M  V30 4417 O 421.014 6.25969 5.04399 0
M  V30 4418 H 420.746 0.259216 0.624326 0
M  V30 4419 H 423.3 1.34592 1.55159 0
M  V30 4420 H 421.53 0.249386 3.85895 0
M  V30 4421 H 423.219 0.640804 4.0081 0
M  V30 4422 H 423.985 3.10786 3.7234 0
M  V30 4423 H 419.864 1.96581 4.16985 0
M  V30 4424 H 423.408 5.41002 4.40412 0
M  V30 4425 H 419.305 4.25893 4.85063 0
M  V30 4426 H 420.073 6.30085 5.22431 0
M  V30 4427 N 422.737 -1.36956 0.779787 0
M  V30 4428 C 423.967 -2.03459 0.358877 0
M  V30 4429 C 424.375 -1.58939 -1.02641 0
M  V30 4430 O 423.718 -0.769777 -1.66794 0
M  V30 4431 C 423.78 -3.5796 0.332393 0
M  V30 4432 C 423.444 -4.25644 1.66362 0
M  V30 4433 C 424.441 -4.49205 2.61746 0
M  V30 4434 C 422.126 -4.63313 1.94027 0
M  V30 4435 C 424.12 -5.09503 3.82996 0
M  V30 4436 C 421.807 -5.2333 3.15546 0
M  V30 4437 C 422.805 -5.46363 4.0985 0
M  V30 4438 O 422.493 -6.05122 5.29228 0
M  V30 4439 H 422.225 -0.659767 0.147254 0
M  V30 4440 H 424.779 -1.76111 1.05708 0
M  V30 4441 H 423.009 -3.84388 -0.422237 0
M  V30 4442 H 424.698 -4.05852 -0.0625389 0
M  V30 4443 H 425.464 -4.20508 2.41657 0
M  V30 4444 H 421.343 -4.44715 1.21448 0
M  V30 4445 H 424.887 -5.27397 4.56617 0
M  V30 4446 H 420.784 -5.51451 3.35517 0
M  V30 4447 H 421.552 -6.23595 5.30161 0
M  V30 4448 N 424.215 -0.530993 -1.48385 0
M  V30 4449 C 425.445 -0.00133928 -2.066 0
M  V30 4450 C 425.853 1.28599 -1.38777 0
M  V30 4451 O 425.196 1.77599 -0.469495 0
M  V30 4452 C 425.258 0.292137 -3.58311 0
M  V30 4453 C 424.922 -0.901864 -4.48013 0
M  V30 4454 C 425.919 -1.80053 -4.87726 0
M  V30 4455 C 423.604 -1.10915 -4.89901 0
M  V30 4456 C 425.598 -2.89038 -5.68098 0
M  V30 4457 C 423.285 -2.20213 -5.70043 0
M  V30 4458 C 424.283 -3.09107 -6.0905 0
M  V30 4459 O 423.971 -4.16514 -6.87583 0
M  V30 4460 H 423.703 -0.0308475 -0.675296 0
M  V30 4461 H 426.257 -0.736335 -1.91748 0
M  V30 4462 H 424.487 1.08112 -3.7128 0
M  V30 4463 H 426.176 0.763994 -3.98645 0
M  V30 4464 H 426.942 -1.65234 -4.55986 0
M  V30 4465 H 422.821 -0.426498 -4.59023 0
M  V30 4466 H 426.365 -3.58451 -5.98464 0
M  V30 4467 H 422.262 -2.35016 -6.01197 0
M  V30 4468 H 423.03 -4.14237 -7.05939 0
M  V30 4469 N 425.693 1.55336 -0.266172 0
M  V30 4470 C 426.918 2.04258 0.359661 0
M  V30 4471 C 427.343 1.14359 1.49344 0
M  V30 4472 O 426.701 0.140369 1.80756 0
M  V30 4473 C 426.749 3.50997 0.826635 0
M  V30 4474 O 425.853 3.64204 1.93466 0
M  V30 4475 H 425.194 0.659668 0.075727 0
M  V30 4476 H 427.724 2.00694 -0.39786 0
M  V30 4477 H 427.734 3.9219 1.12477 0
M  V30 4478 H 426.409 4.159 -0.00293032 0
M  V30 4479 H 424.986 3.34913 1.63974 0
M  V30 4480 N 427.171 -0.0066808 1.57599 0
M  V30 4481 C 428.42 -0.692078 1.89455 0
M  V30 4482 C 428.733 -1.75306 0.867586 0
M  V30 4483 O 429.939 -2.49262 1.07614 0
M  V30 4484 C 428.395 -1.2821 3.36289 0
M  V30 4485 C 428.003 -0.256291 4.47266 0
M  V30 4486 C 429.747 -1.94608 3.77264 0
M  V30 4487 C 427.654 -0.855927 5.85173 0
M  V30 4488 H 426.584 -0.262252 0.706923 0
M  V30 4489 H 429.235 0.052769 1.83424 0
M  V30 4490 H 427.617 -2.0774 3.37135 0
M  V30 4491 H 428.791 0.513923 4.57925 0
M  V30 4492 H 427.106 0.306862 4.15268 0
M  V30 4493 H 429.703 -2.40364 4.77629 0
M  V30 4494 H 430.046 -2.77382 3.10427 0
M  V30 4495 H 430.579 -1.21822 3.78688 0
M  V30 4496 H 427.318 -0.0671161 6.55466 0
M  V30 4497 H 426.838 -1.59546 5.78191 0
M  V30 4498 H 428.517 -1.35658 6.32618 0
M  V30 4499 N 428.649 -1.55105 -0.279332 0
M  V30 4500 C 429.596 -1.8755 -1.34513 0
M  V30 4501 C 430.566 -0.726384 -1.49375 0
M  V30 4502 O 431.751 -0.977063 -1.63884 0
M  V30 4503 C 428.891 -2.14738 -2.70151 0
M  V30 4504 C 428.004 -3.42285 -2.63562 0
M  V30 4505 C 427.139 -3.59206 -3.91337 0
M  V30 4506 C 426.178 -4.80467 -3.79233 0
M  V30 4507 N 425.315 -4.94079 -4.98829 0
M  V30 4508 H 430.155 -2.78456 -1.06143 0
M  V30 4509 H 427.692 -1.37867 -0.512936 0
M  V30 4510 H 429.65 -2.28501 -3.49061 0
M  V30 4511 H 428.28 -1.27075 -2.96735 0
M  V30 4512 H 427.332 -3.37029 -1.76397 0
M  V30 4513 H 428.644 -4.31328 -2.50515 0
M  V30 4514 H 427.798 -3.72751 -4.78687 0
M  V30 4515 H 426.537 -2.68337 -4.07243 0
M  V30 4516 H 425.542 -4.66932 -2.90266 0
M  V30 4517 H 426.767 -5.72765 -3.64852 0
M  V30 4518 H 424.713 -4.06139 -5.15158 0
M  V30 4519 H 424.63 -5.77156 -4.8829 0
M  V30 4520 H 425.898 -5.12003 -5.8777 0
M  V30 4521 N 430.127 0.543554 -1.4793 0
M  V30 4522 C 431.404 1.30458 -1.4574 0
M  V30 4523 C 431.784 2.1048 -0.161692 0
M  V30 4524 O 431.132 2.11831 0.856734 0
M  V30 4525 C 431.342 2.19754 -2.71126 0
M  V30 4526 C 432.69 2.80334 -3.18901 0
M  V30 4527 O 433.714 2.30049 -2.71948 0
M  V30 4528 O 432.573 3.71766 -4.00565 0
M  V30 4529 H 429.667 0.588117 -0.581418 0
M  V30 4530 H 432.213 0.561328 -1.60147 0
M  V30 4531 H 430.985 1.60316 -3.56952 0
M  V30 4532 H 430.608 3.01351 -2.59371 0
M  V30 4533 N 431.605 1.3629 0.791371 0
M  V30 4534 C 432.854 1.29742 1.54434 0
M  V30 4535 C 433.167 -0.121729 1.95221 0
M  V30 4536 O 434.373 -0.309579 2.69729 0
M  V30 4537 C 432.829 2.27623 2.78776 0
M  V30 4538 C 432.437 3.74963 2.45166 0
M  V30 4539 C 434.181 2.30047 3.56761 0
M  V30 4540 C 432.088 4.64626 3.65891 0
M  V30 4541 H 431.018 0.482113 0.579727 0
M  V30 4542 H 433.669 1.61642 0.868565 0
M  V30 4543 H 432.051 1.88714 3.48142 0
M  V30 4544 H 433.225 4.22596 1.83709 0
M  V30 4545 H 431.54 3.75295 1.80396 0
M  V30 4546 H 434.137 2.94247 4.46456 0
M  V30 4547 H 434.48 1.30846 3.95203 0
M  V30 4548 H 435.013 2.67563 2.94372 0
M  V30 4549 H 431.752 5.64883 3.32547 0
M  V30 4550 H 431.272 4.2171 4.26521 0
M  V30 4551 H 432.951 4.80801 4.32943 0
M  V30 4552 N 433.083 -1.0153 1.20538 0
M  V30 4553 C 434.308 -1.79283 1.04271 0
M  V30 4554 C 434.733 -1.8372 -0.403544 0
M  V30 4555 O 434.091 -1.27321 -1.2907 0
M  V30 4556 C 434.139 -3.21535 1.63241 0
M  V30 4557 O 433.243 -4.03099 0.870908 0
M  V30 4558 H 432.584 -0.55293 0.367647 0
M  V30 4559 H 435.114 -1.27696 1.59859 0
M  V30 4560 H 435.124 -3.72243 1.6703 0
M  V30 4561 H 433.799 -3.1762 2.68497 0
M  V30 4562 H 432.376 -3.61693 0.907323 0
M  V30 4563 N 434.561 -1.01147 -1.20859 0
M  V30 4564 C 435.81 -0.693214 -1.89413 0
M  V30 4565 C 436.123 0.779969 -1.79376 0
M  V30 4566 O 437.329 1.21057 -2.43017 0
M  V30 4567 C 435.785 -1.18949 -3.39675 0
M  V30 4568 C 435.393 -2.68921 -3.58309 0
M  V30 4569 C 437.137 -0.94642 -4.13815 0
M  V30 4570 C 435.044 -3.12056 -5.0237 0
M  V30 4571 H 433.974 -0.255595 -0.709357 0
M  V30 4572 H 436.625 -1.22349 -1.36759 0
M  V30 4573 H 435.007 -0.587228 -3.91622 0
M  V30 4574 H 436.181 -3.34652 -3.16772 0
M  V30 4575 H 434.496 -2.91314 -2.97532 0
M  V30 4576 H 437.093 -1.24417 -5.20023 0
M  V30 4577 H 437.436 0.117219 -4.16135 0
M  V30 4578 H 437.969 -1.5118 -3.67953 0
M  V30 4579 H 434.708 -4.17674 -5.05202 0
M  V30 4580 H 434.228 -2.51041 -5.44737 0
M  V30 4581 H 435.907 -3.04403 -5.70918 0
M  V30 4582 N 436.039 1.36541 -0.78704 0
M  V30 4583 C 437.287 1.98911 -0.357633 0
M  V30 4584 C 437.608 1.62778 1.07371 0
M  V30 4585 O 436.878 0.900612 1.73971 0
M  V30 4586 H 435.458 0.735734 -0.129246 0
M  V30 4587 H 438.12 1.66776 -1.00855 0
M  V30 4588 H 437.216 3.08874 -0.447549 0
M  V30 4589 N 437.518 0.538854 1.48102 0
M  V30 4590 C 438.766 0.00798599 2.02098 0
M  V30 4591 C 439.087 -1.33922 1.41739 0
M  V30 4592 O 438.357 -1.86932 0.585934 0
M  V30 4593 H 436.937 -3.62179e-05 0.747 0
M  V30 4594 H 439.599 0.7047 1.81714 0
M  V30 4595 H 438.695 -0.0937672 3.11959 0
M  V30 4596 N 438.996 -1.55193 0.274407 0
M  V30 4597 C 439.928 -2.1989 -0.646595 0
M  V30 4598 C 440.941 -1.1834 -1.11801 0
M  V30 4599 O 442.13 -1.4507 -1.04004 0
M  V30 4600 C 439.23 -2.8104 -1.89393 0
M  V30 4601 C 438.403 -4.08274 -1.56943 0
M  V30 4602 C 437.462 -4.53478 -2.66916 0
M  V30 4603 O 436.488 -5.19267 -2.33132 0
M  V30 4604 N 437.69 -4.2356 -3.9696 0
M  V30 4605 H 440.455 -2.99556 -0.0928686 0
M  V30 4606 H 438.016 -1.61618 0.0954783 0
M  V30 4607 H 440.008 -3.08226 -2.62257 0
M  V30 4608 H 438.578 -2.05372 -2.35672 0
M  V30 4609 H 437.798 -3.88384 -0.674655 0
M  V30 4610 H 439.086 -4.91173 -1.32764 0
M  V30 4611 H 438.484 -3.70799 -4.27229 0
M  V30 4612 H 437.041 -4.55518 -4.66205 0
M  V30 4613 N 440.474 -0.00167713 -1.576 0
M  V30 4614 C 441.714 0.687302 -1.92498 0
M  V30 4615 C 442.078 1.70844 -0.876144 0
M  V30 4616 O 443.279 2.44792 -1.11043 0
M  V30 4617 C 441.55 1.31217 -3.32441 0
M  V30 4618 S 443.109 2.02604 -3.89226 0
M  V30 4619 H 439.927 0.226985 -0.673794 0
M  V30 4620 H 442.529 -0.0587666 -1.95412 0
M  V30 4621 H 441.233 0.556164 -4.06614 0
M  V30 4622 H 440.764 2.09613 -3.32905 0
M  V30 4623 H 442.779 3.30137 -3.70438 0
M  V30 4624 N 441.952 1.55251 0.271103 0
M  V30 4625 C 443.198 1.76207 1.00394 0
M  V30 4626 C 443.531 0.562604 1.85872 0
M  V30 4627 O 442.806 -0.439785 1.89463 0
M  V30 4628 C 443.089 3.06828 1.8849 0
M  V30 4629 C 442.942 4.37134 1.05992 0
M  V30 4630 C 444.261 3.33503 2.87165 0
M  V30 4631 H 441.38 0.641086 0.363562 0
M  V30 4632 H 444.022 1.87982 0.276189 0
M  V30 4633 H 442.172 2.96921 2.5054 0
M  V30 4634 H 443.844 4.59001 0.459978 0
M  V30 4635 H 442.087 4.32275 0.363443 0
M  V30 4636 H 442.758 5.2486 1.70955 0
M  V30 4637 H 445.234 3.43215 2.3525 0
M  V30 4638 H 444.11 4.2616 3.45946 0
M  V30 4639 H 444.371 2.53235 3.62387 0
M  V30 4640 N 443.43 -0.535701 1.48216 0
M  V30 4641 C 444.67 -1.30238 1.57536 0
M  V30 4642 C 445.034 -1.90479 0.241229 0
M  V30 4643 O 446.235 -2.67983 0.20938 0
M  V30 4644 C 444.506 -2.3669 2.67792 0
M  V30 4645 S 446.065 -3.23159 2.9684 0
M  V30 4646 H 442.883 -0.443093 0.556048 0
M  V30 4647 H 445.485 -0.610937 1.85709 0
M  V30 4648 H 444.189 -1.90905 3.63296 0
M  V30 4649 H 443.72 -3.10548 2.41502 0
M  V30 4650 H 445.735 -4.36647 2.35699 0
M  V30 4651 N 444.908 -1.36708 -0.784132 0
M  V30 4652 C 445.856 -1.31533 -1.91838 0
M  V30 4653 C 446.85 -0.206205 -1.6814 0
M  V30 4654 O 448.056 -0.373519 -1.76082 0
M  V30 4655 H 444.431 -0.409613 -0.630651 0
M  V30 4656 H 446.402 -2.2731 -1.9332 0
M  V30 4657 C 445.151 -1.12679 -3.28936 0
M  V30 4658 H 444.474 -1.97274 -3.4774 0
M  V30 4659 H 445.914 -1.13106 -4.08636 0
M  V30 4660 C 444.373 0.168281 -3.36479 0
M  V30 4661 O 444.903 1.15625 -3.84699 0
M  V30 4662 N 443.109 0.214762 -2.89805 0
M  V30 4663 H 442.656 -0.589852 -2.50756 0
M  V30 4664 H 442.614 1.08094 -2.95234 0
M  V30 4665 N 446.386 1.0089 -1.21074 0
M  V30 4666 C 447.634 1.74262 -1.02358 0
M  V30 4667 C 447.955 1.89869 0.444393 0
M  V30 4668 O 447.225 1.44677 1.32081 0
M  V30 4669 H 445.805 0.645615 -0.375754 0
M  V30 4670 H 448.467 1.21596 -1.52317 0
M  V30 4671 H 447.563 2.74328 -1.4883 0
M  V30 4672 N 447.864 1.01787 1.20321 0
M  V30 4673 C 448.814 0.559976 2.21016 0
M  V30 4674 C 449.798 -0.385366 1.56217 0
M  V30 4675 O 450.99 -0.208126 1.75772 0
M  V30 4676 C 448.119 -0.0990553 3.43157 0
M  V30 4677 C 447.205 0.86807 4.15121 0
M  V30 4678 N 447.596 2.0261 4.63447 0
M  V30 4679 C 445.894 0.689162 4.40643 0
M  V30 4680 C 446.595 2.63518 5.18588 0
M  V30 4681 N 445.571 1.91569 5.08726 0
M  V30 4682 H 449.373 1.44281 2.56048 0
M  V30 4683 H 446.887 0.883381 1.36272 0
M  V30 4684 H 448.884 -0.444643 4.14522 0
M  V30 4685 H 447.544 -0.977709 3.0963 0
M  V30 4686 H 448.555 2.40598 4.58621 0
M  V30 4687 H 445.232 -0.14133 4.17261 0
M  V30 4688 H 446.622 3.61527 5.66346 0
M  V30 4689 N 449.342 -1.36122 0.79427 0
M  V30 4690 C 450.305 -2.28309 0.201889 0
M  V30 4691 C 451.305 -1.49041 -0.603603 0
M  V30 4692 O 452.495 -1.68964 -0.423888 0
M  V30 4693 C 449.627 -3.3321 -0.719978 0
M  V30 4694 H 450.82 -2.82208 1.01481 0
M  V30 4695 H 448.373 -1.45768 0.564037 0
M  V30 4696 H 449.108 -2.84475 -1.55706 0
M  V30 4697 H 448.893 -3.91835 -0.144266 0
M  V30 4698 H 450.383 -4.02044 -1.12916 0
M  V30 4699 N 450.82 -0.546701 -1.47814 0
M  V30 4700 C 451.73 0.21026 -2.33656 0
M  V30 4701 C 452.746 0.922413 -1.47538 0
M  V30 4702 O 453.922 0.893652 -1.80488 0
M  V30 4703 C 450.987 1.23348 -3.24016 0
M  V30 4704 C 450.048 0.529883 -4.26017 0
M  V30 4705 C 449.281 1.50435 -5.12059 0
M  V30 4706 O 449.504 2.73837 -5.00369 0
M  V30 4707 O 448.438 1.03459 -5.92942 0
M  V30 4708 H 452.264 -0.493605 -2.99662 0
M  V30 4709 H 449.849 -0.307427 -1.46203 0
M  V30 4710 H 451.731 1.82438 -3.79861 0
M  V30 4711 H 450.406 1.91945 -2.60651 0
M  V30 4712 H 449.313 -0.101948 -3.73961 0
M  V30 4713 H 450.646 -0.11445 -4.92067 0
M  V30 4714 N 452.299 1.55045 -0.282633 0
M  V30 4715 C 453.545 2.00056 0.332481 0
M  V30 4716 C 453.878 1.1708 1.54939 0
M  V30 4717 O 453.153 0.2427 1.9298 0
M  V30 4718 C 453.436 3.53086 0.70725 0
M  V30 4719 C 453.289 4.46813 -0.517521 0
M  V30 4720 C 454.608 4.12245 1.54084 0
M  V30 4721 H 451.727 0.727268 0.119373 0
M  V30 4722 H 454.369 1.85932 -0.391076 0
M  V30 4723 H 452.519 3.65253 1.32372 0
M  V30 4724 H 454.191 4.46579 -1.15607 0
M  V30 4725 H 452.434 4.18163 -1.1542 0
M  V30 4726 H 453.105 5.51595 -0.211426 0
M  V30 4727 H 455.581 4.03401 1.02013 0
M  V30 4728 H 454.457 5.19515 1.77186 0
M  V30 4729 H 454.718 3.62951 2.52427 0
M  V30 4730 N 453.777 0.010035 1.57597 0
M  V30 4731 C 455.017 -0.677084 1.9286 0
M  V30 4732 C 455.381 -1.70377 0.885192 0
M  V30 4733 O 456.582 -2.44199 1.12339 0
M  V30 4734 C 454.853 -1.29452 3.33132 0
M  V30 4735 S 456.412 -2.00537 3.90295 0
M  V30 4736 H 453.23 -0.223409 0.674989 0
M  V30 4737 H 455.832 0.0691289 1.95378 0
M  V30 4738 H 454.536 -0.534593 4.06903 0
M  V30 4739 H 454.067 -2.07845 3.34012 0
M  V30 4740 H 456.082 -3.28168 3.72183 0
M  V30 4741 N 455.255 -1.55392 -0.262866 0
M  V30 4742 C 456.203 -1.8977 -1.345 0
M  V30 4743 C 457.197 -0.775063 -1.50629 0
M  V30 4744 O 458.403 -0.959519 -1.52293 0
M  V30 4745 H 454.778 -0.602467 -0.450041 0
M  V30 4746 H 456.749 -2.80147 -1.02762 0
M  V30 4747 C 455.498 -2.19501 -2.69657 0
M  V30 4748 H 454.821 -3.05378 -2.5804 0
M  V30 4749 H 456.261 -2.47469 -3.44289 0
M  V30 4750 C 454.72 -1.00597 -3.21531 0
M  V30 4751 O 455.25 -0.245768 -4.00947 0
M  V30 4752 N 453.456 -0.800911 -2.79345 0
M  V30 4753 H 453.003 -1.42079 -2.14875 0
M  V30 4754 H 452.961 -0.00697996 -3.14399 0
M  V30 4755 N 456.733 0.527833 -1.48498 0
M  V30 4756 C 457.982 1.28003 -1.55878 0
M  V30 4757 C 458.295 1.9414 -0.238577 0
M  V30 4758 O 459.501 2.7083 -0.190643 0
M  V30 4759 C 457.957 2.32272 -2.74914 0
M  V30 4760 C 457.565 1.72196 -4.13585 0
M  V30 4761 C 459.309 3.08488 -2.91608 0
M  V30 4762 C 457.216 2.74417 -5.23879 0
M  V30 4763 H 456.146 0.481413 -0.580308 0
M  V30 4764 H 458.797 0.557195 -1.74836 0
M  V30 4765 H 457.179 3.07601 -2.49395 0
M  V30 4766 H 458.353 1.03041 -4.49132 0
M  V30 4767 H 456.668 1.08464 -4.02025 0
M  V30 4768 H 459.265 3.84879 -3.71177 0
M  V30 4769 H 459.608 3.64481 -2.01145 0
M  V30 4770 H 460.141 2.40274 -3.17038 0
M  V30 4771 H 456.88 2.23242 -6.16314 0
M  V30 4772 H 456.4 3.41893 -4.92818 0
M  V30 4773 H 458.079 3.37362 -5.52083 0
M  V30 4774 N 458.211 1.37122 0.776871 0
M  V30 4775 C 459.159 1.32549 1.91138 0
M  V30 4776 C 460.153 0.215119 1.68029 0
M  V30 4777 O 461.359 0.382852 1.75881 0
M  V30 4778 H 457.734 0.412952 0.62847 0
M  V30 4779 H 459.705 2.28332 1.92112 0
M  V30 4780 C 458.454 1.14422 3.28333 0
M  V30 4781 H 457.777 1.99115 3.46689 0
M  V30 4782 H 459.217 1.15272 4.0803 0
M  V30 4783 C 457.676 -0.150434 3.36564 0
M  V30 4784 O 458.206 -1.13584 3.85307 0
M  V30 4785 N 456.412 -0.19939 2.89915 0
M  V30 4786 H 455.959 0.603142 2.5044 0
M  V30 4787 H 455.917 -1.06526 2.95803 0
M  V30 4788 N 459.689 -1.00246 1.21608 0
M  V30 4789 C 460.637 -2.11193 0.97469 0
M  V30 4790 C 461.631 -1.69216 -0.0789303 0
M  V30 4791 O 462.837 -1.79853 0.0726806 0
M  V30 4792 H 459.212 -0.690455 0.297953 0
M  V30 4793 H 461.183 -2.2873 1.91638 0
M  V30 4794 C 459.932 -3.43182 0.558717 0
M  V30 4795 H 459.255 -3.75918 1.3611 0
M  V30 4796 H 460.695 -4.21823 0.429154 0
M  V30 4797 C 459.154 -3.28882 -0.730648 0
M  V30 4798 O 459.684 -3.59835 -1.78554 0
M  V30 4799 N 457.89 -2.8209 -0.698131 0
M  V30 4800 H 457.437 -2.57099 0.16061 0
M  V30 4801 H 457.395 -2.72903 -1.56113 0
M  V30 4802 N 461.167 -1.02423 -1.1978 0
M  V30 4803 C 462.578 -0.748389 -1.71044 0
M  V30 4804 C 462.929 0.732398 -1.82017 0
M  V30 4805 O 462.054 1.57116 -1.48807 0
M  V30 4806 C 462.649 -1.35187 -3.1066 0
M  V30 4807 C 461.208 -1.12472 -3.59203 0
M  V30 4808 C 460.355 -1.45283 -2.36195 0
M  V30 4809 H 463.306 -1.19275 -1.04686 0
M  V30 4810 H 463.327 -0.746408 -3.73107 0
M  V30 4811 H 462.839 -2.4296 -3.02642 0
M  V30 4812 H 460.94 -0.0649983 -3.72543 0
M  V30 4813 H 461.053 -1.81016 -4.43588 0
M  V30 4814 H 459.417 -0.872034 -2.39307 0
M  V30 4815 H 460.2 -2.54129 -2.30811 0
M  V30 4816 N 462.645 1.35699 -0.801477 0
M  V30 4817 C 463.555 2.33661 -0.209691 0
M  V30 4818 C 464.571 1.6162 0.644591 0
M  V30 4819 O 465.747 1.93529 0.557545 0
M  V30 4820 C 462.812 3.40816 0.636033 0
M  V30 4821 C 461.873 4.28639 -0.238147 0
M  V30 4822 C 461.106 5.30676 0.567307 0
M  V30 4823 O 461.329 5.41174 1.8024 0
M  V30 4824 O 460.263 6.01887 -0.0391336 0
M  V30 4825 H 464.089 2.8606 -1.01996 0
M  V30 4826 H 461.674 1.38379 -0.563164 0
M  V30 4827 H 463.556 4.06301 1.11791 0
M  V30 4828 H 462.231 2.90696 1.42399 0
M  V30 4829 H 461.138 3.66152 -0.767044 0
M  V30 4830 H 462.471 4.82143 -0.989915 0
M  V30 4831 N 464.123 0.554532 1.47522 0
M  V30 4832 C 465.07 -0.19466 2.29978 0
M  V30 4833 C 466.04 -0.910882 1.38896 0
M  V30 4834 O 467.225 -0.907102 1.67858 0
M  V30 4835 C 464.365 -1.22035 3.22802 0
M  V30 4836 C 463.478 -0.510474 4.28973 0
M  V30 4837 C 462.613 -1.52123 5.08952 0
M  V30 4838 C 461.652 -0.796173 6.069 0
M  V30 4839 N 460.789 -1.75363 6.79847 0
M  V30 4840 H 465.629 0.51461 2.93523 0
M  V30 4841 H 463.166 0.265607 1.44682 0
M  V30 4842 H 465.124 -1.8276 3.7504 0
M  V30 4843 H 463.754 -1.89769 2.61127 0
M  V30 4844 H 462.806 0.211234 3.79813 0
M  V30 4845 H 464.118 0.0576503 4.98767 0
M  V30 4846 H 463.272 -2.20207 5.65326 0
M  V30 4847 H 462.011 -2.12327 4.39054 0
M  V30 4848 H 461.016 -0.101388 5.49707 0
M  V30 4849 H 462.241 -0.199911 6.78806 0
M  V30 4850 H 460.187 -2.3443 6.12682 0
M  V30 4851 H 460.104 -1.23759 7.45801 0
M  V30 4852 H 461.372 -2.4257 7.40797 0
M  V30 4853 N 465.601 -1.54893 0.290851 0
M  V30 4854 C 466.531 -2.26103 -0.583084 0
M  V30 4855 C 467.512 -1.25684 -1.14619 0
M  V30 4856 O 468.697 -1.54436 -1.17741 0
M  V30 4857 C 465.827 -2.99409 -1.75987 0
M  V30 4858 C 464.781 -4.0689 -1.32758 0
M  V30 4859 C 464.107 -4.67856 -2.58872 0
M  V30 4860 C 465.407 -5.20215 -0.46624 0
M  V30 4861 H 467.101 -2.99398 0.0108214 0
M  V30 4862 H 464.647 -1.43998 0.00664468 0
M  V30 4863 H 466.6 -3.47943 -2.37727 0
M  V30 4864 H 465.324 -2.23675 -2.37985 0
M  V30 4865 H 463.983 -3.59191 -0.733299 0
M  V30 4866 H 463.631 -3.88772 -3.19163 0
M  V30 4867 H 463.331 -5.40438 -2.30653 0
M  V30 4868 H 464.855 -5.19147 -3.21433 0
M  V30 4869 H 466.269 -5.64704 -0.989047 0
M  V30 4870 H 464.666 -5.99455 -0.27826 0
M  V30 4871 H 465.736 -4.82198 0.511173 0
M  V30 4872 N 467.08 -0.0183926 -1.57589 0
M  V30 4873 C 468.327 0.662562 -1.91354 0
M  V30 4874 C 468.655 1.72747 -0.893788 0
M  V30 4875 O 467.91 1.9545 0.0988509 0
M  V30 4876 C 468.209 1.32676 -3.31861 0
M  V30 4877 C 467.875 0.393267 -4.49182 0
M  V30 4878 C 466.537 0.136302 -4.81007 0
M  V30 4879 C 468.889 -0.248366 -5.20608 0
M  V30 4880 C 466.217 -0.770282 -5.81621 0
M  V30 4881 C 468.569 -1.14294 -6.22189 0
M  V30 4882 C 467.233 -1.4089 -6.52462 0
M  V30 4883 H 466.503 0.242448 -0.700214 0
M  V30 4884 H 469.15 -0.0778629 -1.91342 0
M  V30 4885 H 467.455 2.14168 -3.28084 0
M  V30 4886 H 469.152 1.86001 -3.55253 0
M  V30 4887 H 465.742 0.603723 -4.24327 0
M  V30 4888 H 469.926 -0.062883 -4.9626 0
M  V30 4889 H 465.182 -0.984154 -6.03427 0
M  V30 4890 H 469.356 -1.64637 -6.76659 0
M  V30 4891 H 466.983 -2.11306 -7.30242 0
M  V30 4892 N 468.558 1.5553 0.254621 0
M  V30 4893 C 469.974 1.4778 0.602753 0
M  V30 4894 C 470.174 0.707047 1.88688 0
M  V30 4895 O 469.23 0.233288 2.5142 0
M  V30 4896 C 470.543 2.92133 0.712648 0
M  V30 4897 C 472.091 3.02458 0.805488 0
M  V30 4898 C 472.566 4.48102 0.947009 0
M  V30 4899 N 474.057 4.52008 1.01207 0
M  V30 4900 C 474.792 5.61939 1.1407 0
M  V30 4901 N 474.288 6.81697 1.23536 0
M  V30 4902 N 476.081 5.49719 1.17325 0
M  V30 4903 H 468.232 2.04085 -0.588463 0
M  V30 4904 H 470.495 0.926229 -0.202001 0
M  V30 4905 H 470.201 3.51332 -0.160766 0
M  V30 4906 H 470.075 3.42187 1.58707 0
M  V30 4907 H 472.462 2.43344 1.66936 0
M  V30 4908 H 472.543 2.55627 -0.0939266 0
M  V30 4909 H 472.187 5.07824 0.087725 0
M  V30 4910 H 472.117 4.92607 1.86135 0
M  V30 4911 H 474.608 3.65749 0.950577 0
M  V30 4912 H 474.921 7.61228 1.33236 0
M  V30 4913 H 473.266 6.84473 1.20508 0
M  V30 4914 H 476.457 4.55095 1.09573 0
M  V30 4915 H 476.63 6.35432 1.27005 0
M  V30 4916 N 470.036 -0.519951 1.48776 0
M  V30 4917 C 471.276 -1.2856 1.58908 0
M  V30 4918 C 471.64 -1.90212 0.261418 0
M  V30 4919 O 472.841 -2.67746 0.237791 0
M  V30 4920 C 471.112 -2.33836 2.70288 0
M  V30 4921 S 472.671 -3.19992 3.0025 0
M  V30 4922 H 469.489 -0.43717 0.560717 0
M  V30 4923 H 472.091 -0.591205 1.86346 0
M  V30 4924 H 470.795 -1.87041 3.653 0
M  V30 4925 H 470.326 -3.07969 2.44783 0
M  V30 4926 H 472.341 -4.34122 2.40317 0
M  V30 4927 N 471.514 -1.37532 -0.769588 0
M  V30 4928 C 472.424 -1.35668 -1.91393 0
M  V30 4929 C 473.44 -0.255954 -1.72107 0
M  V30 4930 O 474.616 -0.491704 -1.95305 0
M  V30 4931 C 471.681 -1.16481 -3.26547 0
M  V30 4932 C 470.742 -2.36212 -3.58472 0
M  V30 4933 C 469.975 -2.17932 -4.87177 0
M  V30 4934 O 470.198 -1.1647 -5.58382 0
M  V30 4935 O 469.132 -3.06167 -5.18214 0
M  V30 4936 H 472.958 -2.32055 -1.95918 0
M  V30 4937 H 470.543 -1.18284 -0.912641 0
M  V30 4938 H 472.425 -1.07778 -4.07384 0
M  V30 4939 H 471.1 -0.231687 -3.2287 0
M  V30 4940 H 470.007 -2.50488 -2.77861 0
M  V30 4941 H 471.34 -3.281 -3.66894 0
M  V30 4942 N 472.992 0.995999 -1.22138 0
M  V30 4943 C 474.232 1.75032 -1.05561 0
M  V30 4944 C 474.596 1.87729 0.402698 0
M  V30 4945 O 475.797 2.59813 0.689234 0
M  V30 4946 C 474.068 3.11973 -1.74379 0
M  V30 4947 S 475.627 4.03182 -1.73175 0
M  V30 4948 H 472.445 0.602137 -0.37809 0
M  V30 4949 H 475.047 1.19107 -1.55028 0
M  V30 4950 H 473.751 3.00371 -2.79652 0
M  V30 4951 H 473.282 3.7297 -1.25128 0
M  V30 4952 H 475.297 4.90043 -0.77923 0
M  V30 4953 N 474.47 1.03057 1.19235 0
M  V30 4954 C 475.402 0.570932 2.21975 0
M  V30 4955 C 476.415 -0.354088 1.58903 0
M  V30 4956 O 477.604 -0.150211 1.77867 0
M  V30 4957 C 474.704 -0.187152 3.38383 0
M  V30 4958 C 473.877 0.743231 4.31039 0
M  V30 4959 C 472.936 0.0302493 5.26191 0
M  V30 4960 O 471.962 0.657371 5.65391 0
M  V30 4961 N 473.164 -1.23991 5.67104 0
M  V30 4962 H 475.929 1.45456 2.62036 0
M  V30 4963 H 473.49 0.909807 1.33918 0
M  V30 4964 H 475.482 -0.673715 3.99053 0
M  V30 4965 H 474.052 -0.972205 2.97098 0
M  V30 4966 H 473.272 1.40985 3.68126 0
M  V30 4967 H 474.56 1.3755 4.89854 0
M  V30 4968 H 473.958 -1.77011 5.37293 0
M  V30 4969 H 472.515 -1.67093 6.30018 0
M  V30 4970 N 475.948 -1.35272 0.808662 0
M  V30 4971 C 476.898 -2.27181 0.193124 0
M  V30 4972 C 477.882 -1.47871 -0.634265 0
M  V30 4973 O 479.074 -1.70048 -0.491182 0
M  V30 4974 C 476.203 -3.36979 -0.655751 0
M  V30 4975 C 475.289 -4.23712 0.181481 0
M  V30 4976 N 475.68 -4.90225 1.24551 0
M  V30 4977 C 473.978 -4.45985 -0.0365493 0
M  V30 4978 C 474.679 -5.54537 1.75682 0
M  V30 4979 N 473.655 -5.33107 1.06294 0
M  V30 4980 H 477.457 -2.76101 1.00724 0
M  V30 4981 H 474.971 -1.48823 0.650029 0
M  V30 4982 H 476.968 -4.01774 -1.11279 0
M  V30 4983 H 475.628 -2.89611 -1.46819 0
M  V30 4984 H 476.639 -4.91641 1.62818 0
M  V30 4985 H 473.316 -4.09409 -0.817964 0
M  V30 4986 H 474.706 -6.17597 2.64621 0
M  V30 4987 N 477.426 -0.562348 -1.47226 0
M  V30 4988 C 478.376 0.202967 -2.27095 0
M  V30 4989 C 479.36 0.880611 -1.34663 0
M  V30 4990 O 480.552 0.778069 -1.58981 0
M  V30 4991 C 477.681 1.22906 -3.20545 0
M  V30 4992 C 476.767 0.554566 -4.20459 0
M  V30 4993 N 477.158 -0.378295 -5.04383 0
M  V30 4994 C 475.456 0.807854 -4.38623 0
M  V30 4995 C 476.157 -0.770583 -5.76573 0
M  V30 4996 N 475.133 -0.124263 -5.43458 0
M  V30 4997 H 478.935 -0.514196 -2.89367 0
M  V30 4998 H 476.449 -0.382655 -1.57827 0
M  V30 4999 H 478.446 1.79134 -3.76453 0
M  V30 5000 H 477.106 1.94726 -2.59831 0
M  V30 5001 H 478.117 -0.75274 -5.124 0
M  V30 5002 H 474.794 1.51418 -3.89075 0
M  V30 5003 H 476.184 -1.53742 -6.54074 0
M  V30 5004 N 478.904 1.54736 -0.299062 0
M  V30 5005 C 480.132 2.04512 0.313447 0
M  V30 5006 C 480.547 1.17643 1.47667 0
M  V30 5007 O 479.904 0.20164 1.81383 0
M  V30 5008 C 479.955 3.53171 0.771542 0
M  V30 5009 O 479.676 4.36736 -0.345379 0
M  V30 5010 C 481.177 4.18936 1.4494 0
M  V30 5011 H 478.397 0.667507 0.0683784 0
M  V30 5012 H 480.941 1.99752 -0.438129 0
M  V30 5013 H 479.096 3.58298 1.47314 0
M  V30 5014 H 479.51 5.24499 0.0109219 0
M  V30 5015 H 480.984 5.24482 1.72111 0
M  V30 5016 H 481.461 3.68554 2.38883 0
M  V30 5017 H 482.067 4.17879 0.791028 0
M  V30 5018 N 480.382 0.0267497 1.57577 0
M  V30 5019 C 481.622 -0.65659 1.93567 0
M  V30 5020 C 481.986 -1.69429 0.903213 0
M  V30 5021 O 483.187 -2.42994 1.14923 0
M  V30 5022 C 481.458 -1.25912 3.34486 0
M  V30 5023 S 483.017 -1.96386 3.924 0
M  V30 5024 H 479.835 -0.216237 0.67732 0
M  V30 5025 H 482.437 0.0898475 1.95293 0
M  V30 5026 H 481.141 -0.491405 4.07447 0
M  V30 5027 H 480.672 -2.04291 3.36198 0
M  V30 5028 H 482.687 -3.24202 3.75643 0
M  V30 5029 N 481.861 -1.55662 -0.24637 0
M  V30 5030 C 483.109 -1.77168 -0.972411 0
M  V30 5031 C 483.43 -0.590827 -1.85834 0
M  V30 5032 O 482.7 0.393365 -1.9191 0
M  V30 5033 H 481.28 -0.653405 -0.362038 0
M  V30 5034 H 483.942 -1.93101 -0.264189 0
M  V30 5035 H 483.038 -2.68335 -1.59382 0
M  V30 5036 N 483.339 0.512053 -1.4905 0
M  V30 5037 C 484.249 1.64139 -1.67617 0
M  V30 5038 C 485.265 1.64786 -0.558701 0
M  V30 5039 O 486.441 1.8341 -0.832034 0
M  V30 5040 C 483.506 3.00548 -1.72835 0
M  V30 5041 C 482.567 3.10615 -2.96339 0
M  V30 5042 C 481.8 4.40517 -3.01298 0
M  V30 5043 O 482.023 5.28671 -2.14157 0
M  V30 5044 O 480.957 4.55325 -3.93653 0
M  V30 5045 H 484.783 1.51407 -2.63267 0
M  V30 5046 H 482.368 0.687131 -1.32661 0
M  V30 5047 H 484.25 3.81641 -1.78683 0
M  V30 5048 H 482.925 3.13566 -0.803616 0
M  V30 5049 H 481.832 2.2875 -2.96014 0
M  V30 5050 H 483.165 3.0252 -3.88256 0
M  V30 5051 N 484.817 1.37938 0.762283 0
M  V30 5052 C 486.045 1.36883 1.55147 0
M  V30 5053 C 486.46 -0.0435348 1.8875 0
M  V30 5054 O 485.817 -1.00786 1.52146 0
M  V30 5055 C 485.868 2.21624 2.85596 0
M  V30 5056 O 485.589 3.57358 2.5343 0
M  V30 5057 C 487.09 2.28653 3.7978 0
M  V30 5058 H 484.31 0.468521 0.480343 0
M  V30 5059 H 486.854 1.81404 0.944079 0
M  V30 5060 H 485.009 1.80588 3.42734 0
M  V30 5061 H 485.423 4.01883 3.37032 0
M  V30 5062 H 486.897 2.9225 4.68288 0
M  V30 5063 H 487.374 1.29767 4.19592 0
M  V30 5064 H 487.98 2.70043 3.28568 0
M  V30 5065 N 486.295 -0.989507 1.22664 0
M  V30 5066 C 487.535 -1.7447 1.06488 0
M  V30 5067 C 487.899 -1.8794 -0.392737 0
M  V30 5068 O 489.1 -2.60175 -0.675446 0
M  V30 5069 C 487.371 -3.11043 1.76031 0
M  V30 5070 S 488.93 -4.02258 1.7531 0
M  V30 5071 H 485.748 -0.600123 0.381278 0
M  V30 5072 H 488.35 -1.18283 1.55658 0
M  V30 5073 H 487.054 -2.98884 2.81241 0
M  V30 5074 H 486.585 -3.72301 1.27105 0
M  V30 5075 H 488.6 -4.89623 0.805208 0
M  V30 5076 N 487.773 -1.03688 -1.18687 0
M  V30 5077 C 489.05 -0.652397 -1.84399 0
M  V30 5078 C 489.43 0.868386 -1.92412 0
M  V30 5079 O 488.778 1.76832 -1.44716 0
M  V30 5080 C 488.988 -1.3238 -3.22919 0
M  V30 5081 C 490.336 -1.45216 -3.98996 0
M  V30 5082 O 491.36 -1.2816 -3.32345 0
M  V30 5083 O 490.219 -1.72975 -5.18403 0
M  V30 5084 H 487.313 -0.227793 -0.795009 0
M  V30 5085 H 489.859 -1.13553 -1.2611 0
M  V30 5086 H 488.631 -2.36202 -3.11968 0
M  V30 5087 H 488.254 -0.829039 -3.88861 0
M  V30 5088 N 489.251 1.34841 -0.815825 0
M  V30 5089 C 490.667 1.51543 -0.500697 0
M  V30 5090 C 490.867 1.76261 0.976444 0
M  V30 5091 O 489.923 1.8094 1.76117 0
M  V30 5092 C 491.236 2.68487 -1.35407 0
M  V30 5093 C 492.784 2.82368 -1.35046 0
M  V30 5094 C 493.259 4.02347 -2.18816 0
M  V30 5095 N 494.75 4.09542 -2.16402 0
M  V30 5096 C 495.485 5.01517 -2.77971 0
M  V30 5097 N 494.981 5.98763 -3.48503 0
M  V30 5098 N 496.774 4.94334 -2.67563 0
M  V30 5099 H 488.925 1.17055 -1.77234 0
M  V30 5100 H 491.188 0.573481 -0.754866 0
M  V30 5101 H 490.894 2.56829 -2.40274 0
M  V30 5102 H 490.768 3.63321 -1.01377 0
M  V30 5103 H 493.155 2.93471 -0.309604 0
M  V30 5104 H 493.236 1.88363 -1.73069 0
M  V30 5105 H 492.88 3.92004 -3.22948 0
M  V30 5106 H 492.81 4.95551 -1.78148 0
M  V30 5107 H 495.301 3.39932 -1.65091 0
M  V30 5108 H 495.614 6.6556 -3.92747 0
M  V30 5109 H 493.959 5.98909 -3.52609 0
M  V30 5110 H 497.15 4.1732 -2.12041 0
M  V30 5111 H 497.323 5.6582 -3.15834 0
M  V30 5112 N 490.729 0.570148 1.46925 0
M  V30 5113 C 491.969 0.0534743 2.0433 0
M  V30 5114 C 492.333 -1.27729 1.4335 0
M  V30 5115 O 493.534 -1.88244 1.91879 0
M  V30 5116 C 491.805 -0.0244296 3.57392 0
M  V30 5117 S 493.364 -0.485351 4.36108 0
M  V30 5118 H 490.182 0.0313908 0.710307 0
M  V30 5119 H 492.784 0.759808 1.80131 0
M  V30 5120 H 491.488 0.948261 3.99295 0
M  V30 5121 H 491.019 -0.753922 3.86108 0
M  V30 5122 H 493.034 -1.74258 4.64595 0
M  V30 5123 N 492.207 -1.54576 0.307264 0
M  V30 5124 C 493.447 -2.02172 -0.300962 0
M  V30 5125 C 493.811 -1.19081 -1.50611 0
M  V30 5126 O 495.012 -1.56405 -2.18612 0
M  V30 5127 C 493.283 -3.51576 -0.642591 0
M  V30 5128 S 494.842 -4.21127 -1.23279 0
M  V30 5129 H 491.66 -0.705021 -0.0920141 0
M  V30 5130 H 494.262 -1.90563 0.436594 0
M  V30 5131 H 492.966 -4.09681 0.242901 0
M  V30 5132 H 492.497 -3.67234 -1.41077 0
M  V30 5133 H 494.512 -4.27426 -2.52034 0
M  V30 5134 N 493.685 -0.035106 -1.57561 0
M  V30 5135 C 494.913 0.652258 -1.9635 0
M  V30 5136 C 495.328 1.65317 -0.911897 0
M  V30 5137 O 494.685 1.82194 0.105657 0
M  V30 5138 C 494.736 1.35337 -3.35211 0
M  V30 5139 O 494.457 0.392548 -4.36338 0
M  V30 5140 C 495.958 2.13199 -3.88666 0
M  V30 5141 H 493.178 0.179444 -0.646561 0
M  V30 5142 H 495.722 -0.0966459 -2.04271 0
M  V30 5143 H 493.877 2.05362 -3.28489 0
M  V30 5144 H 494.291 0.891097 -5.16875 0
M  V30 5145 H 495.765 2.577 -4.88154 0
M  V30 5146 H 496.242 2.97353 -3.23231 0
M  V30 5147 H 496.848 1.48118 -3.98674 0
M  V30 5148 N 495.163 1.55791 0.238111 0
M  V30 5149 C 496.411 1.77681 0.963001 0
M  V30 5150 C 496.732 0.600674 1.85518 0
M  V30 5151 O 496.002 -0.383182 1.92116 0
M  V30 5152 H 494.582 0.655315 0.358568 0
M  V30 5153 H 497.244 1.93239 0.253945 0
M  V30 5154 H 496.34 2.69177 1.57956 0
M  V30 5155 N 496.642 -0.504142 1.49319 0
M  V30 5156 C 497.872 -1.28071 1.62116 0
M  V30 5157 C 498.28 -1.86955 0.290566 0
M  V30 5158 O 497.623 -1.68415 -0.733616 0
M  V30 5159 C 497.685 -2.4521 2.62893 0
M  V30 5160 C 497.349 -2.07218 4.0732 0
M  V30 5161 C 498.346 -1.61375 4.94221 0
M  V30 5162 C 496.031 -2.16949 4.53033 0
M  V30 5163 C 498.025 -1.25763 6.2487 0
M  V30 5164 C 495.712 -1.80949 5.83696 0
M  V30 5165 C 496.71 -1.3543 6.69438 0
M  V30 5166 O 496.398 -0.99915 7.97667 0
M  V30 5167 H 496.13 -0.394763 0.54876 0
M  V30 5168 H 498.684 -0.612118 1.96067 0
M  V30 5169 H 496.914 -3.15134 2.24115 0
M  V30 5170 H 498.603 -3.0724 2.65252 0
M  V30 5171 H 499.369 -1.53306 4.60133 0
M  V30 5172 H 495.248 -2.5133 3.86463 0
M  V30 5173 H 498.792 -0.901631 6.91749 0
M  V30 5174 H 494.689 -1.88667 6.17313 0
M  V30 5175 H 495.457 -1.13089 8.1065 0
M  V30 5176 N 498.12 -1.38341 -0.754957 0
M  V30 5177 C 499.068 -1.35573 -1.89005 0
M  V30 5178 C 500.062 -0.241824 -1.67665 0
M  V30 5179 O 501.268 -0.410785 -1.7525 0
M  V30 5180 H 497.643 -0.422898 -0.621821 0
M  V30 5181 H 499.614 -2.31359 -1.88455 0
M  V30 5182 C 498.363 -1.19631 -3.26471 0
M  V30 5183 H 497.686 -2.04605 -3.43477 0
M  V30 5184 H 499.126 -1.21748 -4.06144 0
M  V30 5185 C 497.585 0.0968705 -3.36761 0
M  V30 5186 O 498.115 1.07439 -3.87066 0
M  V30 5187 N 496.321 0.153242 -2.90196 0
M  V30 5188 H 495.868 -0.642908 -2.49448 0
M  V30 5189 H 495.826 1.01807 -2.9746 0
M  V30 5190 N 499.598 0.982988 -1.23187 0
M  V30 5191 C 500.53 2.07729 -0.968572 0
M  V30 5192 C 501.543 1.62702 0.0564821 0
M  V30 5193 O 502.732 1.77603 -0.178733 0
M  V30 5194 C 499.832 3.36071 -0.436974 0
M  V30 5195 C 499.005 4.10081 -1.52159 0
M  V30 5196 C 498.064 5.16701 -0.99532 0
M  V30 5197 O 497.09 5.43727 -1.68373 0
M  V30 5198 N 498.292 5.80226 0.178192 0
M  V30 5199 H 501.057 2.30894 -1.9107 0
M  V30 5200 H 498.618 1.14949 -1.1401 0
M  V30 5201 H 500.61 4.04639 -0.0700051 0
M  V30 5202 H 499.18 3.09893 0.410509 0
M  V30 5203 H 498.4 3.36004 -2.06144 0
M  V30 5204 H 499.688 4.56295 -2.25105 0
M  V30 5205 H 499.086 5.60651 0.754096 0
M  V30 5206 H 497.643 6.49982 0.486449 0
M  V30 5207 N 501.076 1.04316 1.18135 0
M  V30 5208 C 502.492 0.762858 1.40188 0
M  V30 5209 C 502.692 -0.646547 1.90846 0
M  V30 5210 O 501.748 -1.41036 2.0944 0
M  V30 5211 C 503.061 1.81106 2.40044 0
M  V30 5212 C 504.609 1.83226 2.53766 0
M  V30 5213 C 505.084 2.87044 3.56889 0
M  V30 5214 N 506.575 2.85951 3.64398 0
M  V30 5215 C 507.31 3.62932 4.43923 0
M  V30 5216 N 506.806 4.49672 5.27036 0
M  V30 5217 N 508.599 3.51411 4.38711 0
M  V30 5218 H 500.75 1.95264 0.835805 0
M  V30 5219 H 503.013 0.845017 0.429709 0
M  V30 5220 H 502.719 2.82214 2.09876 0
M  V30 5221 H 502.593 1.64529 3.39426 0
M  V30 5222 H 504.98 0.827869 2.8325 0
M  V30 5223 H 505.061 2.03879 1.54489 0
M  V30 5224 H 504.705 3.87663 3.28145 0
M  V30 5225 H 504.635 2.63645 4.5585 0
M  V30 5226 H 507.126 2.23051 3.05052 0
M  V30 5227 H 507.439 5.05116 5.84874 0
M  V30 5228 H 505.784 4.53738 5.26447 0
M  V30 5229 H 508.975 2.83047 3.72829 0
M  V30 5230 H 509.148 4.11654 5.00445 0
M  V30 5231 N 502.554 -1.34406 0.822964 0
M  V30 5232 C 503.97 -1.51275 0.508727 0
M  V30 5233 C 504.17 -1.76776 -0.967083 0
M  V30 5234 O 503.226 -1.81871 -1.75155 0
M  V30 5235 C 504.539 -2.67765 1.36829 0
M  V30 5236 C 506.087 -2.81647 1.36542 0
M  V30 5237 C 506.562 -4.01181 2.20947 0
M  V30 5238 N 508.053 -4.08388 2.18571 0
M  V30 5239 C 508.788 -5.00036 2.80627 0
M  V30 5240 N 508.284 -5.96906 3.51674 0
M  V30 5241 N 510.077 -4.92908 2.70181 0
M  V30 5242 H 502.228 -1.16113 1.77852 0
M  V30 5243 H 504.491 -0.56947 0.757897 0
M  V30 5244 H 504.197 -2.55551 2.41633 0
M  V30 5245 H 504.071 -3.62779 1.03303 0
M  V30 5246 H 506.458 -2.93303 0.325163 0
M  V30 5247 H 506.539 -1.87443 1.74066 0
M  V30 5248 H 506.183 -3.90286 3.25022 0
M  V30 5249 H 506.113 -4.94599 1.80774 0
M  V30 5250 H 508.604 -3.39051 1.66891 0
M  V30 5251 H 508.917 -6.63468 3.96271 0
M  V30 5252 H 507.262 -5.9703 3.5578 0
M  V30 5253 H 510.453 -4.1619 2.14251 0
M  V30 5254 H 510.626 -5.64137 3.18831 0
M  V30 5255 N 504.032 -0.577932 -1.46621 0
M  V30 5256 C 505.278 -0.0700937 -2.03279 0
M  V30 5257 C 505.633 1.27376 -1.44198 0
M  V30 5258 O 504.926 1.82097 -0.595911 0
M  V30 5259 C 505.12 0.0590832 -3.57351 0
M  V30 5260 C 504.949 -1.2707 -4.31374 0
M  V30 5261 C 503.719 -1.84357 -4.70469 0
M  V30 5262 C 505.917 -2.19278 -4.65211 0
M  V30 5263 N 503.899 -3.11124 -5.29221 0
M  V30 5264 C 505.27 -3.30631 -5.24484 0
M  V30 5265 C 507.325 -2.19018 -4.47142 0
M  V30 5266 C 506.028 -4.41849 -5.67593 0
M  V30 5267 C 508.054 -3.29262 -4.91264 0
M  V30 5268 C 507.416 -4.39335 -5.50604 0
M  V30 5269 H 503.515 -0.0683127 -0.779011 0
M  V30 5270 H 506.099 -0.76978 -1.78836 0
M  V30 5271 H 504.27 0.727929 -3.81518 0
M  V30 5272 H 506.002 0.57087 -4.00653 0
M  V30 5273 H 502.757 -1.37906 -4.53077 0
M  V30 5274 H 503.181 -3.75794 -5.63123 0
M  V30 5275 H 507.823 -1.35191 -4.00604 0
M  V30 5276 H 505.541 -5.26421 -6.13112 0
M  V30 5277 H 509.127 -3.30172 -4.79038 0
M  V30 5278 H 508.007 -5.23233 -5.84121 0
M  V30 5279 N 505.51 1.54411 -0.315457 0
M  V30 5280 C 506.926 1.59556 0.037464 0
M  V30 5281 C 507.126 1.33217 1.5118 0
M  V30 5282 O 506.182 1.11264 2.26664 0
M  V30 5283 C 507.495 2.98372 -0.373477 0
M  V30 5284 C 509.043 3.11324 -0.323452 0
M  V30 5285 C 509.518 4.52472 -0.709433 0
M  V30 5286 N 511.009 4.58437 -0.662524 0
M  V30 5287 C 511.744 5.65751 -0.933474 0
M  V30 5288 N 511.24 6.81039 -1.27114 0
M  V30 5289 N 513.033 5.55489 -0.859573 0
M  V30 5290 H 505.184 1.6979 -1.27614 0
M  V30 5291 H 507.447 0.793732 -0.518356 0
M  V30 5292 H 507.153 3.22618 -1.40037 0
M  V30 5293 H 507.027 3.76264 0.265615 0
M  V30 5294 H 509.414 2.86818 0.694223 0
M  V30 5295 H 509.495 2.35555 -0.997367 0
M  V30 5296 H 509.139 4.7771 -1.72498 0
M  V30 5297 H 509.069 5.26598 -0.0132923 0
M  V30 5298 H 511.56 3.75636 -0.413065 0
M  V30 5299 H 511.873 7.58816 -1.46348 0
M  V30 5300 H 510.218 6.82555 -1.30932 0
M  V30 5301 H 513.409 4.64299 -0.595324 0
M  V30 5302 H 513.582 6.39036 -1.0741 0
M  V30 5303 N 506.988 0.0434614 1.5754 0
M  V30 5304 C 508.399 -0.493343 1.80064 0
M  V30 5305 C 508.75 -1.71388 0.955023 0
M  V30 5306 O 507.875 -2.15736 0.169434 0
M  V30 5307 C 508.47 -0.90179 3.26578 0
M  V30 5308 C 507.029 -1.38362 3.50047 0
M  V30 5309 C 506.176 -0.355129 2.75017 0
M  V30 5310 H 509.127 0.2694 1.56397 0
M  V30 5311 H 509.148 -1.76523 3.37075 0
M  V30 5312 H 508.66 -0.013271 3.88098 0
M  V30 5313 H 506.761 -2.29159 2.93798 0
M  V30 5314 H 506.874 -1.3811 4.58762 0
M  V30 5315 H 505.238 -0.826348 2.40922 0
M  V30 5316 H 506.021 0.525172 3.39259 0
M  V30 5317 N 508.466 -1.55915 -0.229846 0
M  V30 5318 C 509.429 -1.90914 -1.26824 0
M  V30 5319 C 510.429 -0.786999 -1.40225 0
M  V30 5320 O 511.619 -1.05484 -1.38632 0
M  V30 5321 C 508.751 -2.15264 -2.64337 0
M  V30 5322 H 509.944 -2.8378 -0.969998 0
M  V30 5323 H 507.497 -1.49069 -0.4699 0
M  V30 5324 H 508.232 -1.24923 -2.99274 0
M  V30 5325 H 508.017 -2.97005 -2.55989 0
M  V30 5326 H 509.507 -2.43467 -3.39284 0
M  V30 5327 N 509.944 0.496216 -1.49584 0
M  V30 5328 C 510.907 1.57952 -1.66084 0
M  V30 5329 C 511.907 1.51729 -0.53244 0
M  V30 5330 O 513.097 1.54796 -0.79899 0
M  V30 5331 C 510.229 2.97604 -1.66268 0
M  V30 5332 H 511.422 1.44649 -2.6271 0
M  V30 5333 H 508.975 0.7208 -1.38687 0
M  V30 5334 H 509.71 3.16378 -0.712432 0
M  V30 5335 H 509.495 3.03528 -2.4822 0
M  V30 5336 H 510.985 3.76301 -1.81073 0
M  V30 5337 N 511.423 1.38739 0.74761 0
M  V30 5338 C 512.669 1.3648 1.50814 0
M  V30 5339 C 513.024 -0.0431982 1.92351 0
M  V30 5340 O 512.317 -1.0071 1.62997 0
M  V30 5341 C 512.511 2.25992 2.7688 0
M  V30 5342 C 512.34 3.75354 2.47668 0
M  V30 5343 C 511.11 4.44348 2.40589 0
M  V30 5344 C 513.308 4.67642 2.14046 0
M  V30 5345 N 511.29 5.79114 2.03715 0
M  V30 5346 C 512.661 5.90965 1.87512 0
M  V30 5347 C 514.716 4.55787 2.00407 0
M  V30 5348 C 513.419 7.03759 1.48714 0
M  V30 5349 C 515.445 5.68491 1.63011 0
M  V30 5350 C 514.807 6.90879 1.37353 0
M  V30 5351 H 510.906 0.554695 0.551214 0
M  V30 5352 H 513.49 1.7418 0.870033 0
M  V30 5353 H 511.661 1.9047 3.3849 0
M  V30 5354 H 513.393 2.14815 3.42982 0
M  V30 5355 H 510.148 3.97634 2.57262 0
M  V30 5356 H 510.572 6.504 1.87906 0
M  V30 5357 H 515.214 3.61712 2.18916 0
M  V30 5358 H 512.932 7.97746 1.28945 0
M  V30 5359 H 516.518 5.613 1.53081 0
M  V30 5360 H 515.398 7.76609 1.08848 0
M  V30 5361 N 512.901 -0.976442 1.23707 0
M  V30 5362 C 513.811 -2.10359 1.03856 0
M  V30 5363 C 514.827 -1.73991 -0.0180919 0
M  V30 5364 O 516.003 -2.0061 0.178211 0
M  V30 5365 C 513.068 -3.40809 0.636387 0
M  V30 5366 C 512.129 -3.91179 1.76854 0
M  V30 5367 C 511.362 -5.15404 1.38546 0
M  V30 5368 O 511.585 -5.69754 0.27142 0
M  V30 5369 O 510.519 -5.5994 2.20797 0
M  V30 5370 H 514.345 -2.29997 1.98331 0
M  V30 5371 H 511.93 -1.08742 1.02448 0
M  V30 5372 H 513.812 -4.19269 0.423223 0
M  V30 5373 H 512.487 -3.22493 -0.279322 0
M  V30 5374 H 511.394 -3.13819 2.03638 0
M  V30 5375 H 512.727 -4.13958 2.6627 0
M  V30 5376 N 514.379 -1.04941 -1.1758 0
M  V30 5377 C 515.311 -0.606174 -2.21039 0
M  V30 5378 C 516.324 0.328763 -1.59446 0
M  V30 5379 O 517.513 0.121895 -1.78083 0
M  V30 5380 C 514.613 0.133294 -3.38638 0
M  V30 5381 C 513.786 -0.811711 -4.29802 0
M  V30 5382 C 512.845 -0.113958 -5.26077 0
M  V30 5383 O 511.871 -0.747237 -5.64274 0
M  V30 5384 N 513.073 1.14953 -5.69004 0
M  V30 5385 H 515.838 -1.49606 -2.59689 0
M  V30 5386 H 513.399 -0.930997 -1.32454 0
M  V30 5387 H 515.391 0.610144 -4.00074 0
M  V30 5388 H 513.961 0.924816 -2.98607 0
M  V30 5389 H 513.181 -1.46824 -3.65837 0
M  V30 5390 H 514.469 -1.45326 -4.87604 0
M  V30 5391 H 513.867 1.68441 -5.40041 0
M  V30 5392 H 512.424 1.57049 -6.32597 0
M  V30 5393 N 515.857 1.33968 -0.830081 0
M  V30 5394 C 517.082 2.02813 -0.433796 0
M  V30 5395 C 517.507 1.62076 0.954614 0
M  V30 5396 O 516.865 0.808955 1.62252 0
M  V30 5397 C 516.913 3.56348 -0.552115 0
M  V30 5398 O 516.017 4.10202 0.425191 0
M  V30 5399 H 515.358 0.639817 -0.177567 0
M  V30 5400 H 517.888 1.7106 -1.12248 0
M  V30 5401 H 517.898 4.05722 -0.430513 0
M  V30 5402 H 516.573 3.85344 -1.56471 0
M  V30 5403 H 515.15 3.71979 0.261878 0
M  V30 5404 N 517.335 0.585699 1.46312 0
M  V30 5405 C 518.285 -0.166813 2.27389 0
M  V30 5406 C 519.269 -0.859076 1.36047 0
M  V30 5407 O 520.461 -0.752678 1.60199 0
M  V30 5408 C 517.59 -1.17791 3.2246 0
M  V30 5409 C 516.676 -0.487605 4.21288 0
M  V30 5410 N 517.067 0.45849 5.03718 0
M  V30 5411 C 515.365 -0.737971 4.39852 0
M  V30 5412 C 516.066 0.862213 5.75275 0
M  V30 5413 N 515.042 0.210707 5.43191 0
M  V30 5414 H 518.844 0.560167 2.88512 0
M  V30 5415 H 516.358 0.407715 1.57199 0
M  V30 5416 H 518.355 -1.73122 3.79255 0
M  V30 5417 H 517.015 -1.90568 2.62896 0
M  V30 5418 H 518.026 0.834163 5.11138 0
M  V30 5419 H 514.703 -1.45209 3.91434 0
M  V30 5420 H 516.093 1.64128 6.51546 0
M  V30 5421 N 518.813 -1.54241 0.323641 0
M  V30 5422 C 519.723 -2.28033 -0.551205 0
M  V30 5423 C 520.739 -1.32388 -1.12913 0
M  V30 5424 O 521.915 -1.65403 -1.14908 0
M  V30 5425 C 518.98 -3.02382 -1.69606 0
M  V30 5426 C 518.041 -4.13612 -1.14993 0
M  V30 5427 C 517.274 -4.84407 -2.24022 0
M  V30 5428 O 517.497 -4.54716 -3.44368 0
M  V30 5429 O 516.431 -5.71312 -1.89436 0
M  V30 5430 H 520.257 -3.03662 0.048066 0
M  V30 5431 H 517.842 -1.49133 0.0893289 0
M  V30 5432 H 519.724 -3.48941 -2.36259 0
M  V30 5433 H 518.399 -2.29628 -2.28151 0
M  V30 5434 H 517.306 -3.71402 -0.448484 0
M  V30 5435 H 518.639 -4.8841 -0.609608 0
M  V30 5436 N 520.291 -0.0518155 -1.57515 0
M  V30 5437 C 521.531 0.625712 -1.94587 0
M  V30 5438 C 521.895 1.6797 -0.930053 0
M  V30 5439 O 523.096 2.41135 -1.18774 0
M  V30 5440 C 521.367 1.20574 -3.36447 0
M  V30 5441 S 522.926 1.90118 -3.95475 0
M  V30 5442 H 519.744 0.205434 -0.680675 0
M  V30 5443 H 522.346 -0.120906 -1.95126 0
M  V30 5444 H 521.05 0.426521 -4.08178 0
M  V30 5445 H 520.581 1.98916 -3.39405 0
M  V30 5446 H 522.596 3.18184 -3.80753 0
M  V30 5447 N 521.769 1.56035 0.221574 0
M  V30 5448 C 522.679 1.95581 1.29558 0
M  V30 5449 C 523.695 0.859639 1.51282 0
M  V30 5450 O 524.871 1.16321 1.64413 0
M  V30 5451 C 521.936 2.26447 2.62531 0
M  V30 5452 C 520.997 3.49632 2.4911 0
M  V30 5453 C 520.23 3.79017 3.75742 0
M  V30 5454 O 520.453 3.10077 4.78757 0
M  V30 5455 O 519.387 4.72507 3.72855 0
M  V30 5456 H 523.213 2.8711 0.990035 0
M  V30 5457 H 520.798 1.43244 0.424434 0
M  V30 5458 H 522.68 2.47494 3.41064 0
M  V30 5459 H 521.355 1.38092 2.92766 0
M  V30 5460 H 520.262 3.33864 1.68777 0
M  V30 5461 H 521.595 4.3837 2.23814 0
M  V30 5462 N 523.247 -0.488276 1.49845 0
M  V30 5463 C 524.21 -1.57069 1.66919 0
M  V30 5464 C 525.21 -1.51445 0.540479 0
M  V30 5465 O 526.4 -1.5437 0.807188 0
M  V30 5466 C 523.532 -2.96718 1.67844 0
M  V30 5467 H 524.725 -1.43254 2.63474 0
M  V30 5468 H 522.278 -0.713435 1.39068 0
M  V30 5469 H 523.013 -3.15996 0.7292 0
M  V30 5470 H 522.798 -3.02208 2.49826 0
M  V30 5471 H 524.288 -3.75335 1.83066 0
M  V30 5472 N 524.725 -1.39134 -0.740242 0
M  V30 5473 C 525.965 -1.37499 -1.51239 0
M  V30 5474 C 526.329 0.0310084 -1.91975 0
M  V30 5475 O 527.53 0.172319 -2.68247 0
M  V30 5476 C 525.801 -2.31566 -2.72235 0
M  V30 5477 S 527.36 -2.48073 -3.61947 0
M  V30 5478 H 524.178 -0.48768 -0.517387 0
M  V30 5479 H 526.78 -1.75183 -0.867826 0
M  V30 5480 H 525.484 -3.32592 -2.40439 0
M  V30 5481 H 525.015 -1.9508 -3.41625 0
M  V30 5482 H 527.03 -1.71473 -4.6563 0
M  V30 5483 N 526.204 0.969867 -1.24223 0
M  V30 5484 C 527.152 2.08535 -1.03034 0
M  V30 5485 C 528.146 1.69366 0.0340379 0
M  V30 5486 O 529.352 1.79597 -0.12034 0
M  V30 5487 H 525.727 0.682313 -0.316154 0
M  V30 5488 H 527.698 2.23569 -1.97635 0
M  V30 5489 C 526.447 3.4158 -0.649509 0
M  V30 5490 H 525.77 3.72177 -1.46028 0
M  V30 5491 H 527.21 4.20536 -0.540841 0
M  V30 5492 C 525.669 3.30703 0.643194 0
M  V30 5493 O 526.199 3.64443 1.68951 0
M  V30 5494 N 524.405 2.83841 0.623095 0
M  V30 5495 H 523.952 2.56583 -0.228719 0
M  V30 5496 H 523.91 2.76946 1.48823 0
M  V30 5497 N 527.682 1.05563 1.17022 0
M  V30 5498 C 528.922 0.777033 1.89054 0
M  V30 5499 C 529.286 -0.683617 1.79418 0
M  V30 5500 O 530.487 -1.07648 2.46303 0
M  V30 5501 C 528.758 1.24886 3.34871 0
M  V30 5502 S 530.317 1.0982 4.24835 0
M  V30 5503 H 527.135 0.282082 0.652649 0
M  V30 5504 H 529.737 1.35103 1.41306 0
M  V30 5505 H 528.441 2.30699 3.3942 0
M  V30 5506 H 527.972 0.669292 3.87665 0
M  V30 5507 H 529.987 0.02462 4.96194 0
M  V30 5508 N 529.16 -1.33526 0.837174 0
M  V30 5509 C 530.11 -2.2672 0.241269 0
M  V30 5510 C 531.094 -1.49183 -0.602756 0
M  V30 5511 O 532.286 -1.71052 -0.455002 0
M  V30 5512 C 529.415 -3.38294 -0.584125 0
M  V30 5513 C 528.501 -4.23231 0.271315 0
M  V30 5514 N 528.892 -4.87473 1.34922 0
M  V30 5515 C 527.19 -4.45962 0.0580589 0
M  V30 5516 C 527.891 -5.50685 1.87405 0
M  V30 5517 N 526.867 -5.30732 1.17578 0
M  V30 5518 H 530.669 -2.73903 1.06558 0
M  V30 5519 H 528.183 -1.47411 0.68145 0
M  V30 5520 H 530.18 -4.04044 -1.02731 0
M  V30 5521 H 528.84 -2.9266 -1.40643 0
M  V30 5522 H 529.851 -4.88077 1.7321 0
M  V30 5523 H 526.528 -4.11052 -0.730938 0
M  V30 5524 H 527.918 -6.11845 2.77661 0
M  V30 5525 N 530.638 -0.59345 -1.46 0
M  V30 5526 C 531.886 -0.082988 -2.0193 0
M  V30 5527 C 532.207 1.28569 -1.46612 0
M  V30 5528 O 531.477 1.84629 -0.654909 0
M  V30 5529 H 530.057 -0.0276882 -0.746487 0
M  V30 5530 H 532.719 -0.771657 -1.78973 0
M  V30 5531 H 531.815 -0.022079 -3.12092 0
M  V30 5532 N 532.116 1.54067 -0.331816 0
M  V30 5533 C 533.066 2.21363 0.546101 0
M  V30 5534 C 534.05 1.19698 1.07523 0
M  V30 5535 O 535.242 1.45293 1.01088 0
M  V30 5536 C 532.371 2.98115 1.70242 0
M  V30 5537 C 531.457 4.07127 1.18779 0
M  V30 5538 N 531.848 5.04267 0.393465 0
M  V30 5539 C 530.146 4.21226 1.46576 0
M  V30 5540 C 530.847 5.81585 0.115572 0
M  V30 5541 N 529.823 5.39022 0.703987 0
M  V30 5542 H 533.625 2.93821 -0.0679751 0
M  V30 5543 H 531.139 1.61812 -0.138085 0
M  V30 5544 H 533.136 3.44818 2.34321 0
M  V30 5545 H 531.796 2.27181 2.31989 0
M  V30 5546 H 532.807 5.17888 0.0355757 0
M  V30 5547 H 529.484 3.61509 2.08848 0
M  V30 5548 H 530.874 6.6985 -0.524426 0
M  V30 5549 N 533.594 0.0601682 1.57485 0
M  V30 5550 C 534.557 -0.896373 2.10945 0
M  V30 5551 C 535.557 -1.23402 1.03095 0
M  V30 5552 O 536.747 -1.16921 1.29132 0
M  V30 5553 C 533.879 -2.20346 2.60116 0
M  V30 5554 H 535.072 -0.432778 2.96761 0
M  V30 5555 H 532.625 -0.188372 1.55161 0
M  V30 5556 H 533.36 -2.71268 1.7772 0
M  V30 5557 H 533.145 -1.9714 3.38937 0
M  V30 5558 H 534.635 -2.88846 3.01592 0
M  V30 5559 N 535.072 -1.5615 -0.213296 0
M  V30 5560 C 536.297 -1.83986 -0.957282 0
M  V30 5561 C 536.722 -0.641526 -1.76822 0
M  V30 5562 O 536.08 0.409722 -1.7661 0
M  V30 5563 C 536.128 -3.09889 -1.84393 0
M  V30 5564 O 535.232 -2.89163 -2.94038 0
M  V30 5565 H 534.573 -0.606357 -0.270605 0
M  V30 5566 H 537.103 -2.03369 -0.224111 0
M  V30 5567 H 537.113 -3.40209 -2.25215 0
M  V30 5568 H 535.788 -3.96735 -1.24795 0
M  V30 5569 H 534.365 -2.70097 -2.57103 0
M  V30 5570 N 536.55 0.480323 -1.50102 0
M  V30 5571 C 537.498 1.60024 -1.68805 0
M  V30 5572 C 538.492 1.60089 -0.553888 0
M  V30 5573 O 539.698 1.64349 -0.734127 0
M  V30 5574 H 536.073 0.530841 -0.532646 0
M  V30 5575 H 538.044 1.41408 -2.62767 0
M  V30 5576 C 536.793 2.98029 -1.79092 0
M  V30 5577 H 536.116 2.98694 -2.65748 0
M  V30 5578 H 537.556 3.75871 -1.96206 0
M  V30 5579 C 536.015 3.32538 -0.540388 0
M  V30 5580 O 536.545 4.00386 0.324637 0
M  V30 5581 N 534.751 2.87873 -0.397154 0
M  V30 5582 H 534.298 2.32834 -1.1021 0
M  V30 5583 H 534.256 3.11328 0.438425 0
M  V30 5584 N 538.028 1.39524 0.732853 0
M  V30 5585 C 539.268 1.383 1.50508 0
M  V30 5586 C 539.632 -0.0208271 1.91989 0
M  V30 5587 O 540.833 -0.158091 2.68335 0
M  V30 5588 C 539.104 2.33007 2.71003 0
M  V30 5589 S 540.663 2.49989 3.60626 0
M  V30 5590 H 537.481 0.490417 0.514794 0
M  V30 5591 H 540.083 1.75641 0.858524 0
M  V30 5592 H 538.787 3.33862 2.38672 0
M  V30 5593 H 538.318 1.96889 3.40585 0
M  V30 5594 H 540.333 1.7394 4.64714 0
M  V30 5595 N 539.506 -0.963266 1.24736 0
M  V30 5596 C 540.736 -1.73913 1.11524 0
M  V30 5597 C 541.144 -1.86218 -0.334612 0
M  V30 5598 O 540.487 -1.3531 -1.24245 0
M  V30 5599 C 540.549 -3.17501 1.68622 0
M  V30 5600 C 540.213 -3.28655 3.17546 0
M  V30 5601 C 541.21 -3.13637 4.14642 0
M  V30 5602 C 538.895 -3.52753 3.5759 0
M  V30 5603 C 540.889 -3.2255 5.49764 0
M  V30 5604 C 538.576 -3.61303 4.92852 0
M  V30 5605 C 539.574 -3.46214 5.88748 0
M  V30 5606 O 539.262 -3.5443 7.2155 0
M  V30 5607 H 538.994 -0.552057 0.390139 0
M  V30 5608 H 541.548 -1.2177 1.65412 0
M  V30 5609 H 539.778 -3.70969 1.09172 0
M  V30 5610 H 541.467 -3.76914 1.50635 0
M  V30 5611 H 542.233 -2.94899 3.85045 0
M  V30 5612 H 538.112 -3.63561 2.83451 0
M  V30 5613 H 541.656 -3.1069 6.24594 0
M  V30 5614 H 537.553 -3.79556 5.22118 0
M  V30 5615 H 538.321 -3.71116 7.29531 0
M  V30 5616 N 540.985 -1.06182 -1.16461 0
M  V30 5617 C 542.215 -0.797425 -1.9059 0
M  V30 5618 C 542.623 0.651845 -1.77616 0
M  V30 5619 O 541.966 1.45788 -1.11766 0
M  V30 5620 C 542.028 -1.11128 -3.41893 0
M  V30 5621 C 541.692 -2.55874 -3.78652 0
M  V30 5622 C 542.689 -3.54104 -3.80665 0
M  V30 5623 C 540.374 -2.91144 -4.09317 0
M  V30 5624 C 542.368 -4.85645 -4.12829 0
M  V30 5625 C 540.055 -4.22885 -4.41148 0
M  V30 5626 C 541.053 -5.19945 -4.42883 0
M  V30 5627 O 540.741 -6.49322 -4.73959 0
M  V30 5628 H 540.473 -0.288709 -0.611247 0
M  V30 5629 H 543.027 -1.41841 -1.4856 0
M  V30 5630 H 541.257 -0.433217 -3.84266 0
M  V30 5631 H 542.946 -0.831306 -3.97296 0
M  V30 5632 H 543.712 -3.28197 -3.57088 0
M  V30 5633 H 539.591 -2.16252 -4.07131 0
M  V30 5634 H 543.135 -5.61398 -4.14099 0
M  V30 5635 H 539.032 -4.48551 -4.6419 0
M  V30 5636 H 539.8 -6.54294 -4.91774 0
M  V30 5637 N 542.463 1.3308 -0.844243 0
M  V30 5638 C 543.74 1.92178 -0.364261 0
M  V30 5639 C 544.12 1.76961 1.15101 0
M  V30 5640 O 543.468 1.16128 1.9679 0
M  V30 5641 C 543.678 3.393 -0.817106 0
M  V30 5642 C 545.026 4.16444 -0.828236 0
M  V30 5643 O 546.05 3.47975 -0.761062 0
M  V30 5644 O 544.909 5.38685 -0.920926 0
M  V30 5645 H 542.003 0.820411 -0.10419 0
M  V30 5646 H 544.549 1.41918 -0.930453 0
M  V30 5647 H 543.321 3.44272 -1.85991 0
M  V30 5648 H 542.944 3.96947 -0.227785 0
M  V30 5649 N 543.941 0.601185 1.45683 0
M  V30 5650 C 545.352 0.179659 1.85834 0
M  V30 5651 C 545.703 -1.26189 1.50236 0
M  V30 5652 O 544.828 -1.95587 0.925987 0
M  V30 5653 C 545.423 0.319277 3.37292 0
M  V30 5654 C 543.982 -0.0475092 3.7637 0
M  V30 5655 C 543.129 0.646692 2.69654 0
M  V30 5656 H 546.08 0.808268 1.36575 0
M  V30 5657 H 546.101 -0.4503 3.77826 0
M  V30 5658 H 545.613 1.36855 3.6317 0
M  V30 5659 H 543.714 -1.0962 3.5611 0
M  V30 5660 H 543.827 0.34168 4.7788 0
M  V30 5661 H 542.191 0.0849971 2.54558 0
M  V30 5662 H 542.974 1.69797 2.98369 0
M  V30 5663 N 545.419 -1.53889 0.339982 0
M  V30 5664 C 546.696 -1.93084 -0.312719 0
M  V30 5665 C 547.076 -1.2712 -1.68534 0
M  V30 5666 O 546.424 -0.420835 -2.24591 0
M  V30 5667 C 546.634 -3.4683 -0.388558 0
M  V30 5668 C 547.982 -4.19732 -0.641088 0
M  V30 5669 O 549.006 -3.53075 -0.470818 0
M  V30 5670 O 547.865 -5.3781 -0.970685 0
M  V30 5671 H 544.959 -0.806784 -0.18174 0
M  V30 5672 H 547.505 -1.65137 0.390898 0
M  V30 5673 H 546.277 -3.87055 0.574821 0
M  V30 5674 H 545.9 -3.80933 -1.1391 0
M  V30 5675 N 546.897 -0.0685191 -1.57451 0
M  V30 5676 C 548.143 0.602239 -1.93652 0
M  V30 5677 C 548.476 1.6946 -0.948526 0
M  V30 5678 O 547.751 1.94487 0.022782 0
M  V30 5679 C 548.034 1.18223 -3.4014 0
M  V30 5680 C 547.887 0.0967431 -4.49696 0
M  V30 5681 C 549.206 2.08872 -3.87377 0
M  V30 5682 H 546.325 0.217453 -0.70419 0
M  V30 5683 H 548.967 -0.133821 -1.89528 0
M  V30 5684 H 547.117 1.80953 -3.43785 0
M  V30 5685 H 548.789 -0.536155 -4.58174 0
M  V30 5686 H 547.032 -0.573063 -4.29998 0
M  V30 5687 H 547.703 0.542894 -5.49324 0
M  V30 5688 H 550.179 1.56081 -3.85717 0
M  V30 5689 H 549.055 2.46389 -4.90493 0
M  V30 5690 H 549.316 2.99572 -3.25129 0
M  V30 5691 N 548.375 1.56261 0.205012 0
M  V30 5692 C 549.285 1.96944 1.27476 0
M  V30 5693 C 550.301 0.875636 1.50362 0
M  V30 5694 O 551.477 1.18058 1.6317 0
M  V30 5695 C 548.542 2.29219 2.60115 0
M  V30 5696 C 547.603 3.52255 2.45387 0
M  V30 5697 C 546.836 3.8298 3.71701 0
M  V30 5698 O 547.059 3.15138 4.75441 0
M  V30 5699 O 545.993 4.76435 3.67823 0
M  V30 5700 H 549.819 2.88144 0.959527 0
M  V30 5701 H 547.404 1.43686 0.409217 0
M  V30 5702 H 549.286 2.51098 3.3842 0
M  V30 5703 H 547.961 1.4119 2.91285 0
M  V30 5704 H 546.868 3.35635 1.65227 0
M  V30 5705 H 548.201 4.40719 2.19152 0
M  V30 5706 N 549.853 -0.472356 1.50355 0
M  V30 5707 C 551.269 -0.806001 1.37753 0
M  V30 5708 C 551.469 -1.968 0.432649 0
M  V30 5709 O 550.525 -2.52189 -0.12519 0
M  V30 5710 C 551.838 -1.11926 2.79093 0
M  V30 5711 C 553.386 -1.22579 2.87999 0
M  V30 5712 C 553.861 -1.57218 4.3017 0
M  V30 5713 N 555.352 -1.64212 4.33115 0
M  V30 5714 C 556.087 -1.92517 5.40116 0
M  V30 5715 N 555.583 -2.1885 6.57325 0
M  V30 5716 N 557.376 -1.94008 5.27558 0
M  V30 5717 H 549.527 0.293451 2.10363 0
M  V30 5718 H 551.79 0.0687672 0.945503 0
M  V30 5719 H 551.496 -0.338504 3.50067 0
M  V30 5720 H 551.37 -2.05577 3.16256 0
M  V30 5721 H 553.757 -1.99722 2.17245 0
M  V30 5722 H 553.838 -0.269107 2.54381 0
M  V30 5723 H 553.482 -0.806154 5.01461 0
M  V30 5724 H 553.412 -2.54034 4.61275 0
M  V30 5725 H 555.903 -1.45906 3.48597 0
M  V30 5726 H 556.216 -2.39718 7.3468 0
M  V30 5727 H 554.561 -2.16245 6.60502 0
M  V30 5728 H 557.752 -1.72931 4.34986 0
M  V30 5729 H 557.925 -2.15731 6.11035 0
M  V30 5730 N 551.331 -1.39911 -0.725443 0
M  V30 5731 C 552.263 -1.35301 -1.85003 0
M  V30 5732 C 553.276 -0.260102 -1.60709 0
M  V30 5733 O 554.465 -0.519749 -1.70766 0
M  V30 5734 C 551.565 -1.08039 -3.21218 0
M  V30 5735 C 550.738 -2.28793 -3.7279 0
M  V30 5736 C 549.797 -1.97841 -4.87591 0
M  V30 5737 O 548.823 -2.70616 -5.00755 0
M  V30 5738 N 550.025 -0.950367 -5.72668 0
M  V30 5739 H 552.79 -2.32218 -1.89459 0
M  V30 5740 H 550.351 -1.34137 -0.90658 0
M  V30 5741 H 552.343 -0.853354 -3.95601 0
M  V30 5742 H 550.913 -0.198229 -3.11971 0
M  V30 5743 H 550.133 -2.67388 -2.8965 0
M  V30 5744 H 551.421 -3.09317 -4.03981 0
M  V30 5745 H 550.819 -0.347436 -5.64632 0
M  V30 5746 H 549.376 -0.783232 -6.47077 0
M  V30 5747 N 552.809 0.956637 -1.25245 0
M  V30 5748 C 553.741 2.05628 -1.01242 0
M  V30 5749 C 554.754 1.62785 0.0219579 0
M  V30 5750 O 555.943 1.77184 -0.216365 0
M  V30 5751 C 553.043 3.35069 -0.508161 0
M  V30 5752 C 552.216 4.06761 -1.60823 0
M  V30 5753 C 551.275 5.14473 -1.1047 0
M  V30 5754 O 550.301 5.40033 -1.79868 0
M  V30 5755 N 551.503 5.80474 0.0550773 0
M  V30 5756 H 554.268 2.2679 -1.95925 0
M  V30 5757 H 551.829 1.12505 -1.16423 0
M  V30 5758 H 553.821 4.044 -0.155819 0
M  V30 5759 H 552.391 3.10694 0.344683 0
M  V30 5760 H 551.611 3.31555 -2.13224 0
M  V30 5761 H 552.899 4.51418 -2.34733 0
M  V30 5762 H 552.297 5.62125 0.635004 0
M  V30 5763 H 550.854 6.50868 0.348469 0
M  V30 5764 N 554.287 1.06798 1.15896 0
M  V30 5765 C 555.25 0.687328 2.18651 0
M  V30 5766 C 556.25 -0.269559 1.58524 0
M  V30 5767 O 557.44 -0.0512627 1.74125 0
M  V30 5768 C 554.572 0.0121642 3.40898 0
M  V30 5769 H 555.765 1.59701 2.53842 0
M  V30 5770 H 553.318 0.863828 1.3026 0
M  V30 5771 H 554.053 -0.910025 3.1127 0
M  V30 5772 H 553.838 0.700309 3.85795 0
M  V30 5773 H 555.328 -0.239703 4.16911 0
M  V30 5774 N 555.766 -1.3263 0.851289 0
M  V30 5775 C 556.991 -2.02097 0.466006 0
M  V30 5776 C 557.416 -1.63574 -0.928709 0
M  V30 5777 O 556.774 -0.834665 -1.60944 0
M  V30 5778 C 556.822 -3.55425 0.608737 0
M  V30 5779 O 555.926 -4.10827 -0.359878 0
M  V30 5780 H 555.267 -0.636911 0.187724 0
M  V30 5781 H 557.797 -1.69253 1.14955 0
M  V30 5782 H 557.807 -4.04986 0.495006 0
M  V30 5783 H 556.482 -3.82806 1.62581 0
M  V30 5784 H 555.059 -3.72349 -0.202666 0
M  V30 5785 N 557.244 -0.608902 -1.45362 0
M  V30 5786 C 558.174 0.0964526 -2.33301 0
M  V30 5787 C 559.155 0.857444 -1.46908 0
M  V30 5788 O 560.34 0.827735 -1.75676 0
M  V30 5789 C 557.47 1.09354 -3.29635 0
M  V30 5790 C 556.424 0.445676 -4.25673 0
M  V30 5791 C 555.75 1.5511 -5.11708 0
M  V30 5792 C 557.05 -0.633972 -5.18438 0
M  V30 5793 H 558.744 -0.637829 -2.92527 0
M  V30 5794 H 556.29 -0.308178 -1.40664 0
M  V30 5795 H 558.243 1.59556 -3.90025 0
M  V30 5796 H 556.967 1.85843 -2.6857 0
M  V30 5797 H 555.626 -0.0354897 -3.66583 0
M  V30 5798 H 555.274 2.30631 -4.4701 0
M  V30 5799 H 554.974 1.12311 -5.76767 0
M  V30 5800 H 556.498 2.05537 -5.74967 0
M  V30 5801 H 557.912 -0.215974 -5.72893 0
M  V30 5802 H 556.309 -0.983789 -5.91981 0
M  V30 5803 H 557.379 -1.51005 -4.60788 0
M  V30 5804 N 558.722 1.53707 -0.348139 0
M  V30 5805 C 559.67 2.26671 0.521808 0
M  V30 5806 C 560.664 1.28988 1.09811 0
M  V30 5807 O 561.87 1.4668 1.04332 0
M  V30 5808 H 558.245 0.728387 0.186968 0
M  V30 5809 H 560.216 2.98176 -0.115563 0
M  V30 5810 C 558.965 3.05591 1.6586 0
M  V30 5811 H 558.288 3.80589 1.22443 0
M  V30 5812 H 559.728 3.59851 2.24239 0
M  V30 5813 C 558.187 2.15366 2.59073 0
M  V30 5814 O 558.717 1.7528 3.61441 0
M  V30 5815 N 556.923 1.80352 2.27863 0
M  V30 5816 H 556.47 2.13149 1.44656 0
M  V30 5817 H 556.428 1.20268 2.90488 0
M  V30 5818 N 560.2 0.0768682 1.57412 0
M  V30 5819 C 561.428 -0.59997 1.9801 0
M  V30 5820 C 561.843 -1.62842 0.955408 0
M  V30 5821 O 561.2 -1.8241 -0.057314 0
M  V30 5822 C 561.251 -1.26401 3.38681 0
M  V30 5823 O 560.972 -0.276723 4.37225 0
M  V30 5824 C 562.473 -2.0282 3.94182 0
M  V30 5825 H 559.693 -0.162239 0.651091 0
M  V30 5826 H 562.237 0.150771 2.03943 0
M  V30 5827 H 560.392 -1.96581 3.33819 0
M  V30 5828 H 560.806 -0.753744 5.19056 0
M  V30 5829 H 562.28 -2.44667 4.94815 0
M  V30 5830 H 562.757 -2.88678 3.31001 0
M  V30 5831 H 563.363 -1.37496 4.02461 0
M  V30 5832 N 561.678 -1.56367 -0.196722 0
M  V30 5833 C 562.61 -1.90941 -1.26784 0
M  V30 5834 C 563.623 -0.799928 -1.41792 0
M  V30 5835 O 564.812 -1.07833 -1.42247 0
M  V30 5836 C 561.912 -2.12477 -2.6402 0
M  V30 5837 C 561.085 -3.43616 -2.70641 0
M  V30 5838 C 560.144 -3.54284 -3.89062 0
M  V30 5839 O 559.17 -4.2712 -3.76241 0
M  V30 5840 N 560.372 -2.87252 -5.04447 0
M  V30 5841 H 563.137 -2.83417 -0.974417 0
M  V30 5842 H 560.698 -1.57215 -0.386649 0
M  V30 5843 H 562.69 -2.16904 -3.41665 0
M  V30 5844 H 561.26 -1.26508 -2.85857 0
M  V30 5845 H 560.48 -3.51072 -1.79283 0
M  V30 5846 H 561.768 -4.29958 -2.72054 0
M  V30 5847 H 561.166 -2.27901 -5.17762 0
M  V30 5848 H 559.723 -2.97308 -5.80044 0
M  V30 5849 N 563.156 0.464375 -1.50603 0
M  V30 5850 C 564.404 1.21356 -1.61608 0
M  V30 5851 C 564.725 1.92329 -0.321643 0
M  V30 5852 O 563.995 1.84403 0.661232 0
M  V30 5853 H 562.575 0.45094 -0.595535 0
M  V30 5854 H 565.237 0.535046 -1.87412 0
M  V30 5855 H 564.333 1.95783 -2.43054 0
M  V30 5856 N 564.634 1.40294 0.718013 0
M  V30 5857 C 565.883 1.37746 1.4734 0
M  V30 5858 C 566.196 -0.0180754 1.95592 0
M  V30 5859 O 567.402 -0.166166 2.70991 0
M  V30 5860 C 565.858 2.4208 2.66318 0
M  V30 5861 C 565.466 3.87432 2.24945 0
M  V30 5862 C 567.21 2.48635 3.44065 0
M  V30 5863 C 565.117 4.83368 3.40748 0
M  V30 5864 H 564.047 0.512165 0.553356 0
M  V30 5865 H 566.698 1.66019 0.781661 0
M  V30 5866 H 565.08 2.06903 3.3765 0
M  V30 5867 H 566.254 4.3174 1.6105 0
M  V30 5868 H 564.569 3.8433 1.60249 0
M  V30 5869 H 567.166 3.17499 4.30231 0
M  V30 5870 H 567.509 1.51611 3.87711 0
M  V30 5871 H 568.042 2.82791 2.79775 0
M  V30 5872 H 564.781 5.81716 3.02136 0
M  V30 5873 H 564.301 4.43726 4.03568 0
M  V30 5874 H 565.98 5.03074 4.06848 0
M  V30 5875 N 566.112 -0.949982 1.2575 0
M  V30 5876 C 567.342 -1.72721 1.13363 0
M  V30 5877 C 567.75 -1.86562 -0.314842 0
M  V30 5878 O 567.093 -1.36621 -1.22803 0
M  V30 5879 C 567.155 -3.15695 1.7198 0
M  V30 5880 C 566.819 -3.25268 3.21014 0
M  V30 5881 C 567.816 -3.09222 4.17945 0
M  V30 5882 C 565.501 -3.4894 3.61312 0
M  V30 5883 C 567.495 -3.16701 5.53154 0
M  V30 5884 C 565.182 -3.56055 4.96657 0
M  V30 5885 C 566.18 -3.3995 5.92387 0
M  V30 5886 O 565.868 -3.46757 7.25269 0
M  V30 5887 H 565.6 -0.547888 0.395973 0
M  V30 5888 H 568.154 -1.20009 1.66694 0
M  V30 5889 H 566.384 -3.69791 1.13101 0
M  V30 5890 H 568.073 -3.75295 1.54624 0
M  V30 5891 H 568.839 -2.90798 3.88151 0
M  V30 5892 H 564.718 -3.60534 2.87291 0
M  V30 5893 H 568.262 -3.04048 6.27854 0
M  V30 5894 H 564.159 -3.73997 5.26115 0
M  V30 5895 H 564.927 -3.63358 7.33426 0
M  V30 5896 N 567.59 -1.07411 -1.15328 0
M  V30 5897 C 568.553 -0.698914 -2.18284 0
M  V30 5898 C 569.553 0.261149 -1.58665 0
M  V30 5899 O 570.743 0.0420277 -1.74149 0
M  V30 5900 C 567.875 -0.0302427 -3.40887 0
M  V30 5901 H 569.068 -1.61045 -2.52991 0
M  V30 5902 H 566.621 -0.870724 -1.298 0
M  V30 5903 H 567.356 0.893505 -3.11748 0
M  V30 5904 H 567.141 -0.720759 -3.85419 0
M  V30 5905 H 568.631 0.21759 -4.17033 0
M  V30 5906 N 569.068 1.32177 -0.85831 0
M  V30 5907 C 570.316 1.96735 -0.462568 0
M  V30 5908 C 570.637 1.6824 0.985911 0
M  V30 5909 O 569.907 0.991564 1.68952 0
M  V30 5910 H 568.487 0.727849 -0.168064 0
M  V30 5911 H 571.149 1.61195 -1.09554 0
M  V30 5912 H 570.245 3.06068 -0.610647 0
M  V30 5913 N 570.547 0.616602 1.45037 0
M  V30 5914 C 571.795 0.115103 2.01772 0
M  V30 5915 C 572.116 -1.2622 1.48639 0
M  V30 5916 O 571.386 -1.83563 0.684199 0
M  V30 5917 H 569.966 0.0395607 0.745952 0
M  V30 5918 H 572.628 0.800032 1.77723 0
M  V30 5919 H 571.724 0.0717274 3.12018 0
M  V30 5920 N 572.025 -1.5352 0.356285 0
M  V30 5921 C 573.273 -2.00719 -0.235837 0
M  V30 5922 C 573.594 -1.24551 -1.5004 0
M  V30 5923 O 572.864 -0.356185 -1.92635 0
M  V30 5924 H 571.444 -0.741542 -0.0901366 0
M  V30 5925 H 574.106 -1.88887 0.480378 0
M  V30 5926 H 573.202 -3.08551 -0.469357 0
M  V30 5927 N 573.503 -0.0852151 -1.57369 0
M  V30 5928 C 574.749 0.581666 -1.94279 0
M  V30 5929 C 575.082 1.68444 -0.966446 0
M  V30 5930 O 574.357 1.945 0.00215277 0
M  V30 5931 C 574.64 1.14609 -3.41375 0
M  V30 5932 C 574.493 0.0490414 -4.49773 0
M  V30 5933 C 575.812 2.04751 -3.8957 0
M  V30 5934 H 572.931 0.209972 -0.706456 0
M  V30 5935 H 575.573 -0.153915 -1.89376 0
M  V30 5936 H 573.723 1.77297 -3.45685 0
M  V30 5937 H 575.395 -0.584721 -4.57579 0
M  V30 5938 H 573.638 -0.618638 -4.29366 0
M  V30 5939 H 574.309 0.484601 -5.49869 0
M  V30 5940 H 576.785 1.51981 -3.87351 0
M  V30 5941 H 575.661 2.41173 -4.93079 0
M  V30 5942 H 575.922 2.96107 -3.28288 0
M  V30 5943 N 574.981 1.5647 0.188427 0
M  V30 5944 C 576.221 1.82803 0.914469 0
M  V30 5945 C 576.585 0.663681 1.80165 0
M  V30 5946 O 577.786 0.807059 2.56398 0
M  V30 5947 C 576.057 3.14187 1.70357 0
M  V30 5948 S 577.616 3.61947 2.48072 0
M  V30 5949 H 574.434 0.641497 0.306599 0
M  V30 5950 H 577.036 1.94694 0.177361 0
M  V30 5951 H 575.74 3.96937 1.04255 0
M  V30 5952 H 575.271 3.05192 2.48237 0
M  V30 5953 H 577.286 3.27913 3.72407 0
M  V30 5954 N 576.459 -0.456382 1.50847 0
M  V30 5955 C 577.708 -1.2042 1.61808 0
M  V30 5956 C 578.021 -1.9278 0.330932 0
M  V30 5957 O 579.227 -2.69612 0.319643 0
M  V30 5958 C 577.683 -2.18891 2.85683 0
M  V30 5959 C 577.291 -1.52267 4.2133 0
M  V30 5960 C 579.035 -2.94224 3.05994 0
M  V30 5961 C 576.942 -2.4911 5.36375 0
M  V30 5962 H 575.872 -0.453177 0.602616 0
M  V30 5963 H 578.523 -0.473144 1.77295 0
M  V30 5964 H 576.905 -2.95351 2.63787 0
M  V30 5965 H 578.079 -0.814949 4.53536 0
M  V30 5966 H 576.394 -0.891594 4.06743 0
M  V30 5967 H 578.991 -3.66732 3.89117 0
M  V30 5968 H 579.334 -3.54469 2.18306 0
M  V30 5969 H 579.867 -2.24874 3.28141 0
M  V30 5970 H 576.606 -1.93582 6.26264 0
M  V30 5971 H 576.126 -3.17991 5.08569 0
M  V30 5972 H 577.805 -3.10637 5.67551 0
M  V30 5973 N 577.937 -1.40673 -0.710563 0
M  V30 5974 C 578.885 -1.41517 -1.84596 0
M  V30 5975 C 579.879 -0.295043 -1.66811 0
M  V30 5976 O 581.085 -0.466331 -1.73854 0
M  V30 5977 H 577.46 -0.442467 -0.608052 0
M  V30 5978 H 579.431 -2.37238 -1.80999 0
M  V30 5979 C 578.18 -1.29957 -3.225 0
M  V30 5980 H 577.503 -2.15429 -3.36794 0
M  V30 5981 H 578.943 -1.34608 -4.02066 0
M  V30 5982 C 577.402 -0.0103164 -3.36898 0
M  V30 5983 O 577.932 0.950707 -3.90288 0
M  V30 5984 N 576.138 0.0608409 -2.90536 0
M  V30 5985 H 575.685 -0.721943 -2.47277 0
M  V30 5986 H 575.643 0.92292 -3.00549 0
M  V30 5987 N 579.415 0.9433 -1.26252 0
M  V30 5988 C 580.655 1.70397 -1.1289 0
M  V30 5989 C 581.019 1.89268 0.322713 0
M  V30 5990 O 582.22 2.62503 0.578418 0
M  V30 5991 C 580.491 3.04296 -1.87453 0
M  V30 5992 S 582.05 3.95475 -1.90119 0
M  V30 5993 H 578.868 0.585559 -0.403289 0
M  V30 5994 H 581.47 1.12424 -1.59941 0
M  V30 5995 H 580.174 2.8824 -2.9214 0
M  V30 5996 H 579.705 3.67327 -1.40835 0
M  V30 5997 H 581.72 4.86297 -0.986373 0
M  V30 5998 N 580.893 1.08022 1.14757 0
M  V30 5999 C 581.825 0.664566 2.19354 0
M  V30 6000 C 582.838 -0.286374 1.60261 0
M  V30 6001 O 584.027 -0.0746362 1.78344 0
M  V30 6002 C 581.127 -0.0434634 3.38872 0
M  V30 6003 C 580.3 0.925381 4.27499 0
M  V30 6004 C 579.359 0.253398 5.2559 0
M  V30 6005 O 578.385 0.896581 5.62094 0
M  V30 6006 N 579.587 -0.998263 5.71852 0
M  V30 6007 H 582.352 1.56438 2.55631 0
M  V30 6008 H 579.913 0.965788 1.29939 0
M  V30 6009 H 581.905 -0.503857 4.01551 0
M  V30 6010 H 580.475 -0.845321 3.00954 0
M  V30 6011 H 579.695 1.56472 3.61815 0
M  V30 6012 H 580.983 1.58203 4.8358 0
M  V30 6013 H 580.381 -1.54063 5.44317 0
M  V30 6014 H 578.938 -1.40222 6.36538 0
M  V30 6015 N 582.371 -1.3172 0.865308 0
M  V30 6016 C 583.321 -2.26157 0.289305 0
M  V30 6017 C 584.305 -1.50428 -0.570977 0
M  V30 6018 O 585.497 -1.71978 -0.418617 0
M  V30 6019 C 582.626 -3.39457 -0.512237 0
M  V30 6020 C 581.712 -4.22561 0.361028 0
M  V30 6021 N 582.103 -4.84501 1.45231 0
M  V30 6022 C 580.401 -4.45739 0.152641 0
M  V30 6023 C 581.102 -5.46586 1.99043 0
M  V30 6024 N 580.078 -5.28119 1.28809 0
M  V30 6025 H 583.88 -2.71581 1.12344 0
M  V30 6026 H 581.394 -1.45932 0.712565 0
M  V30 6027 H 583.391 -4.06133 -0.941379 0
M  V30 6028 H 582.051 -2.95577 -1.34404 0
M  V30 6029 H 583.062 -4.84293 1.83524 0
M  V30 6030 H 579.739 -4.1251 -0.643583 0
M  V30 6031 H 581.129 -6.05817 2.90577 0
M  V30 6032 N 583.85 -0.624285 -1.44708 0
M  V30 6033 C 584.798 0.0969952 -2.32398 0
M  V30 6034 C 585.792 0.842762 -1.46949 0
M  V30 6035 O 586.998 0.756436 -1.63334 0
M  V30 6036 H 583.373 0.0501306 -0.750327 0
M  V30 6037 H 585.344 -0.660767 -2.90992 0
M  V30 6038 C 584.093 1.06967 -3.30837 0
M  V30 6039 H 583.416 0.505242 -3.96595 0
M  V30 6040 H 584.856 1.54397 -3.94889 0
M  V30 6041 C 583.315 2.15153 -2.5925 0
M  V30 6042 O 583.845 3.23139 -2.3863 0
M  V30 6043 N 582.051 1.90898 -2.19103 0
M  V30 6044 H 581.598 1.03086 -2.36074 0
M  V30 6045 H 581.556 2.63485 -1.71531 0
M  V30 6046 N 585.328 1.53329 -0.364422 0
M  V30 6047 C 586.556 2.05657 0.226424 0
M  V30 6048 C 586.971 1.23801 1.42544 0
M  V30 6049 O 586.328 0.27839 1.80364 0
M  V30 6050 C 586.379 3.56125 0.621056 0
M  V30 6051 O 586.1 4.34879 -0.530304 0
M  V30 6052 C 587.601 4.24706 1.27041 0
M  V30 6053 H 584.821 0.669806 0.0400056 0
M  V30 6054 H 587.365 1.97714 -0.522456 0
M  V30 6055 H 585.52 3.64223 1.31985 0
M  V30 6056 H 585.934 5.24073 -0.211546 0
M  V30 6057 H 587.408 5.3131 1.49711 0
M  V30 6058 H 587.885 3.78354 2.23036 0
M  V30 6059 H 588.491 4.20858 0.613079 0
M  V30 6060 N 586.806 0.0935595 1.57322 0
M  V30 6061 C 587.769 -0.851426 2.12799 0
M  V30 6062 C 588.769 -1.21187 1.0569 0
M  V30 6063 O 589.959 -1.14156 1.31583 0
M  V30 6064 C 587.091 -2.14779 2.64731 0
M  V30 6065 H 588.284 -0.369733 2.97612 0
M  V30 6066 H 585.837 -0.155417 1.55525 0
M  V30 6067 H 586.572 -2.67437 1.83434 0
M  V30 6068 H 586.357 -1.89907 3.43042 0
M  V30 6069 H 587.847 -2.82383 3.07651 0
M  V30 6070 N 588.284 -1.56567 -0.180126 0
M  V30 6071 C 589.532 -1.81133 -0.896392 0
M  V30 6072 C 589.853 -0.669114 -1.83161 0
M  V30 6073 O 589.123 0.311616 -1.93406 0
M  V30 6074 H 587.703 -0.668172 -0.333999 0
M  V30 6075 H 590.365 -1.94048 -0.182051 0
M  V30 6076 H 589.461 -2.74854 -1.47857 0
M  V30 6077 N 589.762 0.448376 -1.51087 0
M  V30 6078 C 591.008 1.20049 -1.6345 0
M  V30 6079 C 591.341 1.91121 -0.344444 0
M  V30 6080 O 590.616 1.83125 0.655396 0
M  V30 6081 C 590.899 2.22624 -2.83038 0
M  V30 6082 C 590.752 1.55708 -4.21989 0
M  V30 6083 C 592.071 3.23718 -2.98152 0
M  V30 6084 H 589.19 0.435085 -0.59487 0
M  V30 6085 H 591.832 0.491183 -1.83541 0
M  V30 6086 H 589.982 2.83117 -2.66039 0
M  V30 6087 H 591.654 0.986367 -4.50631 0
M  V30 6088 H 589.897 0.859647 -4.25197 0
M  V30 6089 H 590.568 2.30357 -5.01637 0
M  V30 6090 H 593.044 2.73269 -3.13788 0
M  V30 6091 H 591.92 3.92795 -3.83411 0
M  V30 6092 H 592.181 3.89179 -2.09743 0
M  V30 6093 N 591.24 1.41047 0.703093 0
M  V30 6094 C 592.188 1.42494 1.83843 0
M  V30 6095 C 593.182 0.303885 1.66652 0
M  V30 6096 O 594.388 0.475544 1.73605 0
M  V30 6097 H 590.763 0.445685 0.605697 0
M  V30 6098 H 592.734 2.38194 1.79739 0
M  V30 6099 C 591.483 1.31666 3.21807 0
M  V30 6100 H 590.806 2.17212 3.35647 0
M  V30 6101 H 592.246 1.36738 4.01346 0
M  V30 6102 C 590.705 0.0281828 3.36888 0
M  V30 6103 O 591.235 -0.929995 3.90786 0
M  V30 6104 N 589.441 -0.0454322 2.90564 0
M  V30 6105 H 588.988 0.735046 2.4689 0
M  V30 6106 H 588.946 -0.906968 3.01034 0
M  V30 6107 N 592.718 -0.936591 1.26751 0
M  V30 6108 C 593.958 -1.69796 1.13792 0
M  V30 6109 C 594.322 -1.89437 -0.312671 0
M  V30 6110 O 595.523 -2.62806 -0.564489 0
M  V30 6111 C 593.794 -3.03297 1.89065 0
M  V30 6112 S 595.353 -3.94461 1.92214 0
M  V30 6113 H 592.171 -0.583412 0.406389 0
M  V30 6114 H 594.773 -1.11575 1.60535 0
M  V30 6115 H 593.477 -2.86687 2.93665 0
M  V30 6116 H 593.008 -3.66575 1.42781 0
M  V30 6117 H 595.023 -4.85767 1.01215 0
M  V30 6118 N 594.196 -1.08629 -1.14182 0
M  V30 6119 C 595.106 -0.730126 -2.22949 0
M  V30 6120 C 596.122 0.26436 -1.7198 0
M  V30 6121 O 597.298 0.107742 -2.01112 0
M  V30 6122 C 594.363 -0.147227 -3.46387 0
M  V30 6123 C 593.424 -1.19662 -4.12286 0
M  V30 6124 C 592.657 -0.641437 -5.29831 0
M  V30 6125 O 592.88 0.538351 -5.67854 0
M  V30 6126 O 591.814 -1.39257 -5.85569 0
M  V30 6127 H 595.64 -1.63753 -2.55771 0
M  V30 6128 H 593.225 -0.860118 -1.22157 0
M  V30 6129 H 595.107 0.174923 -4.21037 0
M  V30 6130 H 593.782 0.733304 -3.15285 0
M  V30 6131 H 592.689 -1.57133 -3.395 0
M  V30 6132 H 594.022 -2.0495 -4.475 0
M  V30 6133 N 595.674 1.31259 -0.872281 0
M  V30 6134 C 596.606 2.27396 -0.28697 0
M  V30 6135 C 597.619 1.53181 0.551297 0
M  V30 6136 O 598.808 1.74561 0.372914 0
M  V30 6137 C 595.908 3.33335 0.611617 0
M  V30 6138 C 595.081 4.36966 -0.194729 0
M  V30 6139 C 594.14 5.22387 0.632358 0
M  V30 6140 O 593.166 5.69169 0.0595691 0
M  V30 6141 N 594.368 5.46985 1.94391 0
M  V30 6142 H 597.133 2.78261 -1.11314 0
M  V30 6143 H 594.694 1.44306 -0.733994 0
M  V30 6144 H 596.686 3.87398 1.17068 0
M  V30 6145 H 595.256 2.82496 1.33846 0
M  V30 6146 H 594.476 3.82945 -0.935241 0
M  V30 6147 H 595.764 5.03273 -0.747935 0
M  V30 6148 H 595.162 5.10737 2.43237 0
M  V30 6149 H 593.719 6.03973 2.45071 0
M  V30 6150 N 597.152 0.631951 1.44375 0
M  V30 6151 C 598.392 0.14009 2.03919 0
M  V30 6152 C 598.756 -1.21534 1.48639 0
M  V30 6153 O 599.957 -1.79936 1.99691 0
M  V30 6154 C 598.228 0.127174 3.57174 0
M  V30 6155 S 599.787 -0.299946 4.37774 0
M  V30 6156 H 596.605 0.0614891 0.708336 0
M  V30 6157 H 599.207 0.835524 1.76746 0
M  V30 6158 H 597.911 1.11676 3.94913 0
M  V30 6159 H 597.442 -0.589482 3.88958 0
M  V30 6160 H 599.457 -1.54396 4.71568 0
M  V30 6161 N 598.631 -1.53133 0.372548 0
M  V30 6162 C 599.594 -2.24569 -0.458389 0
M  V30 6163 C 600.594 -1.25603 -1.00402 0
M  V30 6164 O 601.784 -1.49827 -0.888672 0
M  V30 6165 C 598.916 -2.98783 -1.6414 0
M  V30 6166 H 600.109 -2.99436 0.166799 0
M  V30 6167 H 597.662 -1.55805 0.124357 0
M  V30 6168 H 598.397 -2.28176 -2.30448 0
M  V30 6169 H 598.182 -3.71404 -1.25704 0
M  V30 6170 H 599.672 -3.53068 -2.23008 0
M  V30 6171 N 600.109 -0.101901 -1.5727 0
M  V30 6172 C 601.056 0.854577 -2.14396 0
M  V30 6173 C 602.026 1.27521 -1.06432 0
M  V30 6174 O 603.211 1.35575 -1.34253 0
M  V30 6175 C 600.351 2.10576 -2.73408 0
M  V30 6176 C 599.464 1.73504 -3.95626 0
M  V30 6177 C 598.599 2.9346 -4.42781 0
M  V30 6178 C 597.638 2.52547 -5.57572 0
M  V30 6179 N 596.775 3.65359 -5.99547 0
M  V30 6180 H 601.615 0.360578 -2.9581 0
M  V30 6181 H 599.152 0.166303 -1.46157 0
M  V30 6182 H 601.11 2.83859 -3.05745 0
M  V30 6183 H 599.74 2.57463 -1.94711 0
M  V30 6184 H 598.792 0.901622 -3.6956 0
M  V30 6185 H 600.104 1.39426 -4.78917 0
M  V30 6186 H 599.258 3.74988 -4.76937 0
M  V30 6187 H 597.997 3.30753 -3.58404 0
M  V30 6188 H 597.002 1.69446 -5.23037 0
M  V30 6189 H 598.227 2.1639 -6.43702 0
M  V30 6190 H 596.173 4.02358 -5.18116 0
M  V30 6191 H 596.09 3.35148 -6.77652 0
M  V30 6192 H 597.358 4.47378 -6.38336 0
M  V30 6193 N 601.587 1.56661 0.17182 0
M  V30 6194 C 602.835 1.81606 0.886774 0
M  V30 6195 C 603.156 0.678818 1.82803 0
M  V30 6196 O 602.426 -0.301354 1.93568 0
M  V30 6197 H 601.006 0.669934 0.330451 0
M  V30 6198 H 603.668 1.94142 0.171757 0
M  V30 6199 H 602.764 2.75634 1.46398 0
M  V30 6200 N 603.065 -0.440357 1.51323 0
M  V30 6201 C 604.295 -1.21079 1.67402 0
M  V30 6202 C 604.703 -1.85555 0.369599 0
M  V30 6203 O 604.046 -1.71375 -0.661525 0
M  V30 6204 C 604.108 -2.33839 2.73056 0
M  V30 6205 C 603.772 -1.89755 4.15743 0
M  V30 6206 C 604.769 -1.40268 5.0062 0
M  V30 6207 C 602.454 -1.97539 4.61826 0
M  V30 6208 C 604.448 -0.991474 6.29642 0
M  V30 6209 C 602.135 -1.56029 5.90845 0
M  V30 6210 C 603.133 -1.06915 6.7458 0
M  V30 6211 O 602.821 -0.659933 8.01187 0
M  V30 6212 H 602.553 -0.371133 0.56501 0
M  V30 6213 H 605.107 -0.528409 1.98487 0
M  V30 6214 H 603.337 -3.05345 2.37279 0
M  V30 6215 H 605.026 -2.95713 2.78044 0
M  V30 6216 H 605.792 -1.33652 4.66221 0
M  V30 6217 H 601.671 -2.34713 3.96776 0
M  V30 6218 H 605.215 -0.607425 6.9495 0
M  V30 6219 H 601.112 -1.62315 6.24759 0
M  V30 6220 H 601.88 -0.786052 8.14717 0
M  V30 6221 N 604.543 -1.41418 -0.695603 0
M  V30 6222 C 605.773 -1.43921 -1.48224 0
M  V30 6223 C 606.181 -0.0428855 -1.89151 0
M  V30 6224 O 605.524 0.948138 -1.5734 0
M  V30 6225 C 605.586 -2.28466 -2.77567 0
M  V30 6226 C 605.25 -3.76629 -2.58844 0
M  V30 6227 C 606.247 -4.6879 -2.24793 0
M  V30 6228 C 603.932 -4.2067 -2.74485 0
M  V30 6229 C 605.926 -6.02981 -2.06622 0
M  V30 6230 C 603.613 -5.54926 -2.55931 0
M  V30 6231 C 604.611 -6.45897 -2.2205 0
M  V30 6232 O 604.299 -7.77675 -2.03657 0
M  V30 6233 H 604.031 -0.492252 -0.463318 0
M  V30 6234 H 606.585 -1.86347 -0.863952 0
M  V30 6235 H 604.815 -1.80853 -3.41802 0
M  V30 6236 H 606.504 -2.2267 -3.39371 0
M  V30 6237 H 607.27 -4.36055 -2.12323 0
M  V30 6238 H 603.149 -3.50167 -2.9984 0
M  V30 6239 H 606.693 -6.73951 -1.80099 0
M  V30 6240 H 602.59 -5.8724 -2.67991 0
M  V30 6241 H 603.358 -7.88819 -2.1842 0
M  V30 6242 N 606.021 0.929856 -1.27246 0
M  V30 6243 C 607.437 1.20542 -1.04603 0
M  V30 6244 C 607.637 2.00276 0.221754 0
M  V30 6245 O 606.693 2.34835 0.927833 0
M  V30 6246 C 608.006 1.95566 -2.28417 0
M  V30 6247 C 609.554 2.08513 -2.33433 0
M  V30 6248 C 610.029 2.86943 -3.5697 0
M  V30 6249 N 611.52 2.94512 -3.57515 0
M  V30 6250 C 612.255 3.55656 -4.49774 0
M  V30 6251 N 611.751 4.18209 -5.52334 0
M  V30 6252 N 613.544 3.53038 -4.37402 0
M  V30 6253 H 605.695 0.397113 -2.08655 0
M  V30 6254 H 607.958 0.238277 -0.917566 0
M  V30 6255 H 607.664 1.44395 -3.20691 0
M  V30 6256 H 607.538 2.9619 -2.33563 0
M  V30 6257 H 609.925 2.58872 -1.41666 0
M  V30 6258 H 610.006 1.07117 -2.32292 0
M  V30 6259 H 609.65 2.37268 -4.49072 0
M  V30 6260 H 609.58 3.8862 -3.55362 0
M  V30 6261 H 612.071 2.50053 -2.83341 0
M  V30 6262 H 612.384 4.62796 -6.18902 0
M  V30 6263 H 610.729 4.16761 -5.56179 0
M  V30 6264 H 613.92 3.0337 -3.56489 0
M  V30 6265 H 614.093 4.004 -5.09493 0
M  V30 6266 N 607.499 1.09233 1.13605 0
M  V30 6267 C 608.91 0.846839 1.6639 0
M  V30 6268 C 609.261 -0.625031 1.85978 0
M  V30 6269 O 608.386 -1.48173 1.57714 0
M  V30 6270 C 608.981 1.5307 3.0225 0
M  V30 6271 C 607.54 1.33223 3.52035 0
M  V30 6272 C 606.687 1.58806 2.27323 0
M  V30 6273 H 609.638 1.25175 0.975541 0
M  V30 6274 H 609.659 0.96267 3.68121 0
M  V30 6275 H 609.171 2.60192 2.87961 0
M  V30 6276 H 607.272 0.282091 3.71531 0
M  V30 6277 H 607.385 2.0657 4.32279 0
M  V30 6278 H 605.749 1.01007 2.33815 0
M  V30 6279 H 606.532 2.67153 2.15602 0
M  V30 6280 N 608.977 -1.30795 0.87923 0
M  V30 6281 C 610.207 -2.00237 0.50881 0
M  V30 6282 C 610.615 -1.66115 -0.905682 0
M  V30 6283 O 609.958 -0.89138 -1.60624 0
M  V30 6284 C 610.02 -3.54508 0.597003 0
M  V30 6285 C 609.684 -4.12131 1.97477 0
M  V30 6286 C 610.681 -4.28552 2.94346 0
M  V30 6287 C 608.366 -4.47644 2.2786 0
M  V30 6288 C 610.36 -4.79689 4.19735 0
M  V30 6289 C 608.047 -4.98481 3.53496 0
M  V30 6290 C 609.045 -5.14456 4.49248 0
M  V30 6291 O 608.733 -5.64199 5.72656 0
M  V30 6292 H 608.465 -0.647026 0.195788 0
M  V30 6293 H 611.019 -1.67785 1.1848 0
M  V30 6294 H 609.249 -3.86461 -0.135945 0
M  V30 6295 H 610.938 -4.05198 0.238684 0
M  V30 6296 H 611.704 -4.01424 2.72183 0
M  V30 6297 H 607.583 -4.34481 1.54102 0
M  V30 6298 H 611.127 -4.92073 4.9448 0
M  V30 6299 H 607.024 -5.25044 3.75498 0
M  V30 6300 H 607.792 -5.82551 5.74957 0
M  V30 6301 N 610.455 -0.639598 -1.44038 0
M  V30 6302 C 611.703 -0.147188 -2.01563 0
M  V30 6303 C 612.024 1.2384 -1.50628 0
M  V30 6304 O 611.294 1.82452 -0.713316 0
M  V30 6305 H 609.874 -0.0514231 -0.745228 0
M  V30 6306 H 612.536 -0.828205 -1.76428 0
M  V30 6307 H 611.632 -0.121358 -3.11864 0
M  V30 6308 N 611.933 1.52934 -0.380664 0
M  V30 6309 C 613.179 2.01765 0.20458 0
M  V30 6310 C 613.512 1.26696 1.47179 0
M  V30 6311 O 612.787 0.364936 1.91046 0
M  V30 6312 C 613.07 3.56869 0.481269 0
M  V30 6313 C 612.923 4.42617 -0.800629 0
M  V30 6314 C 614.242 4.2121 1.27554 0
M  V30 6315 H 611.361 0.733388 0.0728803 0
M  V30 6316 H 614.003 1.83068 -0.50853 0
M  V30 6317 H 612.153 3.72932 1.08875 0
M  V30 6318 H 613.825 4.38323 -1.43773 0
M  V30 6319 H 612.068 4.09977 -1.4178 0
M  V30 6320 H 612.739 5.49134 -0.561791 0
M  V30 6321 H 615.215 4.09072 0.761514 0
M  V30 6322 H 614.091 5.29732 1.43788 0
M  V30 6323 H 614.352 3.78269 2.28833 0
M  V30 6324 N 613.412 0.11024 1.57214 0
M  V30 6325 C 614.823 -0.416527 1.81994 0
M  V30 6326 C 615.174 -1.67183 1.02686 0
M  V30 6327 O 614.299 -2.14823 0.260782 0
M  V30 6328 C 614.894 -0.762466 3.30109 0
M  V30 6329 C 613.453 -1.23391 3.556 0
M  V30 6330 C 612.6 -0.238166 2.76275 0
M  V30 6331 H 615.551 0.335491 1.55113 0
M  V30 6332 H 615.572 -1.62068 3.44259 0
M  V30 6333 H 615.084 0.151346 3.87805 0
M  V30 6334 H 613.185 -2.16492 3.03253 0
M  V30 6335 H 613.298 -1.18528 4.64207 0
M  V30 6336 H 611.662 -0.723421 2.4421 0
M  V30 6337 H 612.445 0.668591 3.36727 0
M  V30 6338 N 614.89 -1.56749 -0.16351 0
M  V30 6339 C 616.136 -1.82704 -0.880168 0
M  V30 6340 C 616.469 -0.689311 -1.81555 0
M  V30 6341 O 615.744 0.308224 -1.92042 0
M  V30 6342 C 616.027 -3.19084 -1.66905 0
M  V30 6343 C 615.88 -4.43397 -0.756269 0
M  V30 6344 C 617.199 -3.52493 -2.63509 0
M  V30 6345 H 614.318 -0.664608 -0.318535 0
M  V30 6346 H 616.96 -1.89438 -0.146036 0
M  V30 6347 H 615.11 -3.13475 -2.2949 0
M  V30 6348 H 616.782 -4.61079 -0.14269 0
M  V30 6349 H 615.025 -4.33752 -0.0647944 0
M  V30 6350 H 615.696 -5.3539 -1.34393 0
M  V30 6351 H 618.172 -3.58606 -2.11047 0
M  V30 6352 H 617.048 -4.48979 -3.15767 0
M  V30 6353 H 617.309 -2.77597 -3.44082 0
M  V30 6354 N 616.368 0.432326 -1.51554 0
M  V30 6355 C 617.645 1.19288 -1.55015 0
M  V30 6356 C 618.025 2.08701 -0.317375 0
M  V30 6357 O 617.373 2.17602 0.697243 0
M  V30 6358 C 617.583 1.99037 -2.86679 0
M  V30 6359 C 618.931 2.55907 -3.38817 0
M  V30 6360 O 619.955 2.09243 -2.88263 0
M  V30 6361 O 618.814 3.41029 -4.27038 0
M  V30 6362 H 615.908 0.543369 -0.623441 0
M  V30 6363 H 618.454 0.440988 -1.6387 0
M  V30 6364 H 617.226 1.33397 -3.6786 0
M  V30 6365 H 616.849 2.81281 -2.8101 0
M  V30 6366 N 617.846 1.41785 0.688094 0
M  V30 6367 C 618.809 1.43936 1.78368 0
M  V30 6368 C 619.809 0.328866 1.57401 0
M  V30 6369 O 620.999 0.589093 1.63937 0
M  V30 6370 C 618.131 1.25804 3.16838 0
M  V30 6371 H 619.324 2.41472 1.77852 0
M  V30 6372 H 616.877 1.28037 0.896448 0
M  V30 6373 H 617.612 0.291386 3.22988 0
M  V30 6374 H 617.397 2.06272 3.33458 0
M  V30 6375 H 618.887 1.30162 3.96797 0
M  V30 6376 N 619.324 -0.923095 1.27737 0
M  V30 6377 C 620.735 -1.48626 1.12993 0
M  V30 6378 C 621.086 -1.94142 -0.283439 0
M  V30 6379 O 620.211 -1.81605 -1.17681 0
M  V30 6380 C 620.806 -2.70117 2.04505 0
M  V30 6381 C 619.365 -3.22642 1.93853 0
M  V30 6382 C 618.512 -1.95368 1.96791 0
M  V30 6383 H 621.463 -0.736737 1.40563 0
M  V30 6384 H 621.484 -3.4506 1.60356 0
M  V30 6385 H 620.996 -2.36959 3.07363 0
M  V30 6386 H 619.097 -3.60549 0.939968 0
M  V30 6387 H 619.21 -3.88525 2.80331 0
M  V30 6388 H 617.574 -2.12061 1.41076 0
M  V30 6389 H 618.357 -1.64517 3.01312 0
M  V30 6390 N 620.802 -1.09834 -1.13024 0
M  V30 6391 C 622.079 -0.749225 -1.80682 0
M  V30 6392 C 622.459 0.765171 -1.96744 0
M  V30 6393 O 621.807 1.68912 -1.53886 0
M  V30 6394 C 622.017 -1.49311 -3.15448 0
M  V30 6395 C 623.365 -1.66162 -3.90737 0
M  V30 6396 O 624.389 -1.45597 -3.25085 0
M  V30 6397 O 623.248 -2.00211 -5.08505 0
M  V30 6398 H 620.342 -0.269614 -0.781817 0
M  V30 6399 H 622.888 -1.20078 -1.19914 0
M  V30 6400 H 621.66 -2.52407 -2.99009 0
M  V30 6401 H 621.283 -1.034 -3.8392 0
M  V30 6402 N 622.28 1.30327 -0.886154 0
M  V30 6403 C 623.528 1.9571 -0.504195 0
M  V30 6404 C 623.849 1.70294 0.950003 0
M  V30 6405 O 623.119 1.02718 1.66811 0
M  V30 6406 H 621.699 0.72412 -0.183465 0
M  V30 6407 H 624.361 1.58835 -1.12949 0
M  V30 6408 H 623.457 3.04704 -0.675431 0
M  V30 6409 N 623.758 0.647228 1.43697 0
M  V30 6410 C 624.998 0.16171 2.03759 0
M  V30 6411 C 625.362 -1.19951 1.49919 0
M  V30 6412 O 626.563 -1.77808 2.01588 0
M  V30 6413 C 624.834 0.16505 3.57019 0
M  V30 6414 S 626.393 -0.253497 4.38067 0
M  V30 6415 H 623.211 0.0689985 0.707644 0
M  V30 6416 H 625.813 0.854224 1.7585 0
M  V30 6417 H 624.517 1.15858 3.93707 0
M  V30 6418 H 624.048 -0.548194 3.89562 0
M  V30 6419 H 626.063 -1.49385 4.73179 0
M  V30 6420 N 625.236 -1.5273 0.388769 0
M  V30 6421 C 626.485 -2.00757 -0.194833 0
M  V30 6422 C 626.798 -1.27951 -1.47946 0
M  V30 6423 O 628.004 -1.66686 -2.14308 0
M  V30 6424 C 626.46 -3.57695 -0.397762 0
M  V30 6425 C 626.068 -4.394 0.873583 0
M  V30 6426 C 627.812 -4.14012 -0.937759 0
M  V30 6427 C 625.719 -5.87938 0.638962 0
M  V30 6428 H 624.649 -0.750101 -0.0765845 0
M  V30 6429 H 627.3 -1.76239 0.511086 0
M  V30 6430 H 625.682 -3.7846 -1.16552 0
M  V30 6431 H 626.856 -4.30403 1.64591 0
M  V30 6432 H 625.171 -3.94301 1.33849 0
M  V30 6433 H 627.768 -5.22645 -1.12899 0
M  V30 6434 H 628.111 -3.7007 -1.90666 0
M  V30 6435 H 628.644 -3.97137 -0.229588 0
M  V30 6436 H 625.383 -6.36202 1.57885 0
M  V30 6437 H 624.903 -5.99726 -0.094443 0
M  V30 6438 H 626.582 -6.46423 0.273299 0
M  V30 6439 N 626.714 -0.118576 -1.57153 0
M  V30 6440 C 628.125 0.40687 -1.82213 0
M  V30 6441 C 628.476 1.66636 -1.03571 0
M  V30 6442 O 627.601 2.14682 -0.272171 0
M  V30 6443 C 628.196 0.744949 -3.30509 0
M  V30 6444 C 626.755 1.21503 -3.5625 0
M  V30 6445 C 625.902 0.223511 -2.76398 0
M  V30 6446 H 628.853 -0.343712 -1.54933 0
M  V30 6447 H 628.874 1.6024 -3.45114 0
M  V30 6448 H 628.386 -0.171911 -3.87719 0
M  V30 6449 H 626.487 2.1488 -3.04396 0
M  V30 6450 H 626.6 1.16065 -4.64829 0
M  V30 6451 H 624.964 0.71046 -2.44591 0
M  V30 6452 H 625.747 -0.686439 -3.36367 0
M  V30 6453 N 628.193 1.56834 0.155195 0
M  V30 6454 C 629.433 1.84701 0.875488 0
M  V30 6455 C 629.797 0.701747 1.78716 0
M  V30 6456 O 630.998 0.861263 2.54629 0
M  V30 6457 C 629.269 3.1773 1.63654 0
M  V30 6458 S 630.828 3.67128 2.40338 0
M  V30 6459 H 627.646 0.647856 0.292923 0
M  V30 6460 H 630.248 1.95026 0.136024 0
M  V30 6461 H 628.952 3.99059 0.958117 0
M  V30 6462 H 628.483 3.10388 2.41708 0
M  V30 6463 H 630.498 3.35739 3.65368 0
M  V30 6464 N 629.671 -0.424282 1.51781 0
M  V30 6465 C 630.896 -1.19928 1.6921 0
M  V30 6466 C 631.321 -1.8392 0.394355 0
M  V30 6467 O 630.679 -1.69371 -0.646778 0
M  V30 6468 C 630.727 -2.24937 2.81843 0
M  V30 6469 O 629.831 -3.3073 2.46356 0
M  V30 6470 H 629.172 -0.35078 0.563781 0
M  V30 6471 H 631.702 -0.499401 1.98412 0
M  V30 6472 H 631.712 -2.69512 3.06312 0
M  V30 6473 H 630.387 -1.77742 3.76006 0
M  V30 6474 H 628.964 -2.9154 2.32505 0
M  V30 6475 N 631.149 -1.42148 -0.680565 0
M  V30 6476 C 632.389 -1.4379 -1.45271 0
M  V30 6477 C 632.753 -0.0504426 -1.91934 0
M  V30 6478 O 633.954 0.0583916 -2.68737 0
M  V30 6479 C 632.225 -2.42904 -2.62168 0
M  V30 6480 S 633.784 -2.63201 -3.51099 0
M  V30 6481 H 630.602 -0.509185 -0.496237 0
M  V30 6482 H 633.204 -1.78706 -0.792744 0
M  V30 6483 H 631.908 -3.4249 -2.26116 0
M  V30 6484 H 631.439 -2.09394 -3.33043 0
M  V30 6485 H 633.454 -1.91068 -4.57938 0
M  V30 6486 N 632.627 0.916307 -1.28225 0
M  V30 6487 C 633.904 1.64429 -1.05936 0
M  V30 6488 C 634.284 2.07234 0.402139 0
M  V30 6489 O 633.632 1.81535 1.3877 0
M  V30 6490 C 633.842 2.83773 -2.03159 0
M  V30 6491 C 635.19 3.54852 -2.33164 0
M  V30 6492 O 636.214 2.93918 -2.01223 0
M  V30 6493 O 635.073 4.64663 -2.87664 0
M  V30 6494 H 632.167 0.721221 -0.404683 0
M  V30 6495 H 634.713 0.965838 -1.39534 0
M  V30 6496 H 633.485 2.49217 -3.01673 0
M  V30 6497 H 633.108 3.59333 -1.70192 0
M  V30 6498 N 634.105 1.10431 1.1244 0
M  V30 6499 C 635.516 0.864439 1.65482 0
M  V30 6500 C 635.867 -0.60527 1.8663 0
M  V30 6501 O 634.992 -1.46492 1.59276 0
M  V30 6502 C 635.587 1.56267 3.0061 0
M  V30 6503 C 634.146 1.3695 3.50602 0
M  V30 6504 C 633.293 1.61209 2.25626 0
M  V30 6505 H 636.244 1.26203 0.962209 0
M  V30 6506 H 636.265 1.00166 3.67079 0
M  V30 6507 H 635.777 2.63231 2.85186 0
M  V30 6508 H 633.878 0.321481 3.71211 0
M  V30 6509 H 633.991 2.11143 4.30064 0
M  V30 6510 H 632.355 1.03482 2.32731 0
M  V30 6511 H 633.138 2.69425 2.12756 0
M  V30 6512 N 635.583 -1.29855 0.893053 0
M  V30 6513 C 636.493 -2.31661 0.370157 0
M  V30 6514 C 637.509 -1.65677 -0.531723 0
M  V30 6515 O 638.685 -1.9691 -0.422902 0
M  V30 6516 C 635.75 -3.44388 -0.399741 0
M  V30 6517 C 634.811 -4.2598 0.532861 0
M  V30 6518 C 634.044 -5.33324 -0.200388 0
M  V30 6519 O 634.267 -5.52305 -1.42531 0
M  V30 6520 O 633.201 -6.00188 0.453668 0
M  V30 6521 H 637.027 -2.78354 1.2146 0
M  V30 6522 H 634.612 -1.34171 0.657153 0
M  V30 6523 H 636.494 -4.13037 -0.835358 0
M  V30 6524 H 635.169 -2.99815 -1.22035 0
M  V30 6525 H 634.076 -3.59998 1.01746 0
M  V30 6526 H 635.409 -4.74178 1.3197 0
M  V30 6527 N 637.061 -0.65484 -1.43351 0
M  V30 6528 C 638.011 0.0581325 -2.27926 0
M  V30 6529 C 638.995 0.793188 -1.3999 0
M  V30 6530 O 640.187 0.675387 -1.63608 0
M  V30 6531 C 637.316 1.02272 -3.27712 0
M  V30 6532 C 636.402 0.286048 -4.23134 0
M  V30 6533 N 636.793 -0.698298 -5.00957 0
M  V30 6534 C 635.091 0.527272 -4.42872 0
M  V30 6535 C 635.792 -1.1357 -5.70506 0
M  V30 6536 N 634.768 -0.469631 -5.41568 0
M  V30 6537 H 638.57 -0.697182 -2.85511 0
M  V30 6538 H 636.084 -0.482252 -1.55074 0
M  V30 6539 H 638.081 1.5483 -3.87083 0
M  V30 6540 H 636.741 1.77807 -2.71688 0
M  V30 6541 H 637.752 -1.07708 -5.06576 0
M  V30 6542 H 634.429 1.26367 -3.97916 0
M  V30 6543 H 635.819 -1.95027 -6.42973 0
M  V30 6544 N 638.539 1.52521 -0.396863 0
M  V30 6545 C 639.502 2.2527 0.422604 0
M  V30 6546 C 640.502 1.27184 0.983913 0
M  V30 6547 O 641.692 1.51222 0.864723 0
M  V30 6548 C 638.824 3.01356 1.59365 0
M  V30 6549 H 640.017 2.99133 -0.214416 0
M  V30 6550 H 637.57 1.55587 -0.149128 0
M  V30 6551 H 638.305 2.31813 2.26789 0
M  V30 6552 H 638.09 3.73357 1.19779 0
M  V30 6553 H 639.58 3.56571 2.17363 0
M  V30 6554 N 640.017 0.126909 1.57088 0
M  V30 6555 C 641.294 -0.573152 1.87014 0
M  V30 6556 C 641.674 -1.84297 1.02945 0
M  V30 6557 O 641.022 -2.28232 0.110573 0
M  V30 6558 C 641.232 -0.857984 3.38289 0
M  V30 6559 C 642.58 -1.20759 4.07066 0
M  V30 6560 O 643.604 -0.947992 3.43353 0
M  V30 6561 O 642.463 -1.69516 5.19545 0
M  V30 6562 H 639.557 -0.290082 0.774456 0
M  V30 6563 H 642.103 0.162008 1.68925 0
M  V30 6564 H 640.875 0.0415286 3.91278 0
M  V30 6565 H 640.498 -1.64803 3.61837 0
M  V30 6566 N 641.495 -1.56914 -0.146875 0
M  V30 6567 C 642.743 -1.82994 -0.85777 0
M  V30 6568 C 643.064 -0.707814 -1.817 0
M  V30 6569 O 642.334 0.270521 -1.94023 0
M  V30 6570 H 640.914 -0.675106 -0.319751 0
M  V30 6571 H 643.576 -1.9439 -0.140849 0
M  V30 6572 H 642.672 -2.77928 -1.41994 0
M  V30 6573 N 642.974 0.416227 -1.52004 0
M  V30 6574 C 644.214 1.17307 -1.67387 0
M  V30 6575 C 644.578 1.87959 -0.39183 0
M  V30 6576 O 645.779 2.65472 -0.421671 0
M  V30 6577 C 644.05 2.14661 -2.85754 0
M  V30 6578 S 645.609 2.98549 -3.21581 0
M  V30 6579 H 642.427 0.397505 -0.5895 0
M  V30 6580 H 645.029 0.461431 -1.89976 0
M  V30 6581 H 643.733 1.61431 -3.77317 0
M  V30 6582 H 643.264 2.90375 -2.65417 0
M  V30 6583 H 645.279 4.16536 -2.69652 0
M  V30 6584 N 644.452 1.42507 0.673017 0
M  V30 6585 C 645.362 1.4853 1.81593 0
M  V30 6586 C 646.378 0.373907 1.69935 0
M  V30 6587 O 647.554 0.625078 1.91454 0
M  V30 6588 C 644.619 1.387 3.17747 0
M  V30 6589 C 643.68 2.60346 3.41348 0
M  V30 6590 C 642.913 2.50975 4.71007 0
M  V30 6591 O 643.136 1.54659 5.49033 0
M  V30 6592 O 642.07 3.41138 4.95892 0
M  V30 6593 H 645.896 2.45001 1.79467 0
M  V30 6594 H 643.481 1.2429 0.82899 0
M  V30 6595 H 645.363 1.35586 3.98992 0
M  V30 6596 H 644.038 0.453555 3.20507 0
M  V30 6597 H 642.945 2.69034 2.59945 0
M  V30 6598 H 644.278 3.52595 3.43421 0
M  V30 6599 N 645.93 -0.909495 1.28709 0
M  V30 6600 C 646.862 -2.01729 1.08804 0
M  V30 6601 C 647.875 -1.62755 0.0384739 0
M  V30 6602 O 649.064 -1.76259 0.281977 0
M  V30 6603 C 646.164 -3.32952 0.63217 0
M  V30 6604 C 645.337 -4.00512 1.75809 0
M  V30 6605 C 644.396 -5.10019 1.29488 0
M  V30 6606 O 643.422 -5.32986 1.99787 0
M  V30 6607 N 644.624 -5.80278 0.1604 0
M  V30 6608 H 647.389 -2.19362 2.04207 0
M  V30 6609 H 644.95 -1.08106 1.20518 0
M  V30 6610 H 646.942 -4.03543 0.305802 0
M  V30 6611 H 645.512 -3.11759 -0.229134 0
M  V30 6612 H 644.732 -3.23413 2.25383 0
M  V30 6613 H 646.02 -4.42395 2.51325 0
M  V30 6614 H 645.418 -5.64094 -0.425937 0
M  V30 6615 H 643.975 -6.51713 -0.106663 0
M  V30 6616 N 647.408 -1.11026 -1.11852 0
M  V30 6617 C 648.656 -0.854769 -1.83134 0
M  V30 6618 C 648.977 0.621375 -1.84835 0
M  V30 6619 O 648.247 1.45129 -1.31584 0
M  V30 6620 H 646.827 -0.313229 -0.678157 0
M  V30 6621 H 649.489 -1.40178 -1.35411 0
M  V30 6622 H 648.585 -1.22311 -2.87135 0
M  V30 6623 N 648.886 1.2938 -0.899927 0
M  V30 6624 C 650.111 2.00228 -0.540692 0
M  V30 6625 C 650.536 1.66909 0.867359 0
M  V30 6626 O 649.894 0.893824 1.57735 0
M  V30 6627 C 649.942 3.52921 -0.740232 0
M  V30 6628 O 649.046 4.11879 0.207154 0
M  V30 6629 H 648.387 0.629505 -0.211233 0
M  V30 6630 H 650.917 1.6487 -1.21158 0
M  V30 6631 H 650.927 4.0287 -0.644973 0
M  V30 6632 H 649.602 3.76508 -1.76677 0
M  V30 6633 H 648.179 3.72845 0.0643315 0
M  V30 6634 N 650.364 0.662433 1.43002 0
M  V30 6635 C 651.612 0.179237 2.01304 0
M  V30 6636 C 651.933 -1.21428 1.52579 0
M  V30 6637 O 651.203 -1.81294 0.742252 0
M  V30 6638 H 649.783 0.0632725 0.744316 0
M  V30 6639 H 652.445 0.856169 1.75088 0
M  V30 6640 H 651.541 0.170957 3.11631 0
M  V30 6641 N 651.842 -1.52309 0.404946 0
M  V30 6642 C 653.258 -1.59503 0.0556255 0
M  V30 6643 C 653.458 -1.41805 -1.43156 0
M  V30 6644 O 652.514 -1.2429 -2.19792 0
M  V30 6645 C 653.827 -2.95687 0.546801 0
M  V30 6646 C 655.375 -3.08909 0.504413 0
M  V30 6647 C 655.85 -4.47566 0.97203 0
M  V30 6648 N 657.341 -4.53795 0.928679 0
M  V30 6649 C 658.076 -5.59346 1.26174 0
M  V30 6650 N 657.572 -6.72469 1.66604 0
M  V30 6651 N 659.365 -5.49532 1.18198 0
M  V30 6652 H 651.516 -1.6206 1.37296 0
M  V30 6653 H 653.779 -0.762161 0.563751 0
M  V30 6654 H 653.485 -3.13905 1.58609 0
M  V30 6655 H 653.359 -3.77172 -0.0457905 0
M  V30 6656 H 655.746 -2.90378 -0.525819 0
M  V30 6657 H 655.827 -2.2934 1.13301 0
M  V30 6658 H 655.471 -4.6684 2.00057 0
M  V30 6659 H 655.401 -5.25625 0.320292 0
M  V30 6660 H 657.892 -3.72588 0.631369 0
M  V30 6661 H 658.205 -7.48993 1.9034 0
M  V30 6662 H 656.55 -6.73761 1.70504 0
M  V30 6663 H 659.741 -4.60038 0.865011 0
M  V30 6664 H 659.914 -6.31687 1.44485 0
M  V30 6665 N 653.32 -0.135238 -1.57019 0
M  V30 6666 C 654.56 0.521686 -1.9763 0
M  V30 6667 C 654.924 1.62804 -1.01778 0
M  V30 6668 O 656.125 2.345 -1.31389 0
M  V30 6669 C 654.396 1.0257 -3.42365 0
M  V30 6670 S 655.955 1.68888 -4.04997 0
M  V30 6671 H 652.773 0.169064 -0.690607 0
M  V30 6672 H 655.375 -0.224168 -1.94211 0
M  V30 6673 H 654.079 0.209556 -4.09865 0
M  V30 6674 H 653.61 1.80645 -3.49472 0
M  V30 6675 H 655.625 2.97554 -3.97084 0
M  V30 6676 N 654.798 1.5699 0.138552 0
M  V30 6677 C 655.748 1.9532 1.17619 0
M  V30 6678 C 656.732 0.825545 1.38107 0
M  V30 6679 O 657.924 1.08908 1.39528 0
M  V30 6680 C 655.053 2.34451 2.50774 0
M  V30 6681 C 654.139 3.53805 2.33844 0
M  V30 6682 N 654.53 4.70088 1.86685 0
M  V30 6683 C 652.828 3.59055 2.64567 0
M  V30 6684 C 653.529 5.52165 1.82998 0
M  V30 6685 N 652.505 4.94108 2.26624 0
M  V30 6686 H 656.307 2.82694 0.803809 0
M  V30 6687 H 653.821 1.5866 0.346519 0
M  V30 6688 H 655.818 2.60119 3.25797 0
M  V30 6689 H 654.478 1.48431 2.88788 0
M  V30 6690 H 655.489 4.93681 1.56523 0
M  V30 6691 H 652.166 2.83596 3.06398 0
M  V30 6692 H 653.556 6.55407 1.47957 0
M  V30 6693 N 656.276 -0.40816 1.52223 0
M  V30 6694 C 657.516 -1.16418 1.68006 0
M  V30 6695 C 657.88 -1.87749 0.401793 0
M  V30 6696 O 659.081 -2.65245 0.435743 0
M  V30 6697 C 657.352 -2.13143 2.86889 0
M  V30 6698 S 658.911 -2.96839 3.2316 0
M  V30 6699 H 655.729 -0.394373 0.5916 0
M  V30 6700 H 658.331 -0.451349 1.90219 0
M  V30 6701 H 657.035 -1.59428 3.78168 0
M  V30 6702 H 656.566 -2.88963 2.66953 0
M  V30 6703 H 658.581 -4.151 2.71857 0
M  V30 6704 N 657.755 -1.42862 -0.66545 0
M  V30 6705 C 658.702 -1.4707 -1.77874 0
M  V30 6706 C 659.672 -0.321654 -1.62956 0
M  V30 6707 O 660.857 -0.52707 -1.83376 0
M  V30 6708 C 657.997 -1.38788 -3.15962 0
M  V30 6709 C 657.11 -2.63801 -3.42101 0
M  V30 6710 C 656.245 -2.47594 -4.69969 0
M  V30 6711 C 655.284 -3.67936 -4.89172 0
M  V30 6712 N 654.421 -3.50614 -6.08288 0
M  V30 6713 H 659.261 -2.42204 -1.73613 0
M  V30 6714 H 656.798 -1.20239 -0.847401 0
M  V30 6715 H 658.756 -1.31982 -3.95773 0
M  V30 6716 H 657.386 -0.472431 -3.19324 0
M  V30 6717 H 656.438 -2.80935 -2.56475 0
M  V30 6718 H 657.75 -3.53228 -3.52181 0
M  V30 6719 H 656.904 -2.38427 -5.57886 0
M  V30 6720 H 655.643 -1.55672 -4.62188 0
M  V30 6721 H 654.648 -3.77525 -3.99694 0
M  V30 6722 H 655.873 -4.60851 -4.98792 0
M  V30 6723 H 653.819 -2.61417 -6.01662 0
M  V30 6724 H 653.736 -4.33634 -6.19272 0
M  V30 6725 H 655.004 -3.45276 -6.98859 0
M  V30 6726 N 659.233 0.902656 -1.29189 0
M  V30 6727 C 660.644 1.46809 -1.15343 0
M  V30 6728 C 660.995 1.94568 0.252517 0
M  V30 6729 O 660.12 1.83454 1.14777 0
M  V30 6730 C 660.715 2.66829 -2.08776 0
M  V30 6731 C 659.274 3.19518 -1.98961 0
M  V30 6732 C 658.421 1.92212 -1.99874 0
M  V30 6733 H 661.372 0.714282 -1.41717 0
M  V30 6734 H 661.393 3.42465 -1.65826 0
M  V30 6735 H 660.905 2.32039 -3.11094 0
M  V30 6736 H 659.006 3.59008 -0.99721 0
M  V30 6737 H 659.119 3.84016 -2.86477 0
M  V30 6738 H 657.483 2.0979 -1.44431 0
M  V30 6739 H 658.266 1.59702 -3.03891 0
M  V30 6740 N 660.711 1.11618 1.11262 0
M  V30 6741 C 661.659 0.771291 2.1944 0
M  V30 6742 C 662.653 -0.238073 1.67719 0
M  V30 6743 O 663.859 -0.0971628 1.79738 0
M  V30 6744 H 660.234 0.231548 0.715465 0
M  V30 6745 H 662.205 1.69226 2.45775 0
M  V30 6746 C 660.954 0.232765 3.4692 0
M  V30 6747 H 660.277 1.00072 3.87073 0
M  V30 6748 H 661.717 0.0296561 4.2399 0
M  V30 6749 C 660.176 -1.03738 3.20531 0
M  V30 6750 O 660.706 -2.11675 3.41404 0
M  V30 6751 N 658.912 -0.960906 2.74253 0
M  V30 6752 H 658.459 -0.0824323 2.57468 0
M  V30 6753 H 658.417 -1.8114 2.56974 0
M  V30 6754 N 662.189 -1.289 0.906776 0
M  V30 6755 C 663.436 -1.95269 0.536326 0
M  V30 6756 C 663.764 -1.71435 -0.918711 0
M  V30 6757 O 663.019 -1.02431 -1.66752 0
M  V30 6758 C 663.318 -3.48704 0.783617 0
M  V30 6759 C 662.984 -3.92626 2.21711 0
M  V30 6760 C 661.646 -4.04329 2.60906 0
M  V30 6761 C 663.998 -4.15218 3.15029 0
M  V30 6762 C 661.326 -4.35998 3.92584 0
M  V30 6763 C 663.678 -4.48365 4.46264 0
M  V30 6764 C 662.342 -4.58278 4.85322 0
M  V30 6765 H 661.612 -0.714538 0.196256 0
M  V30 6766 H 664.259 -1.53366 1.14678 0
M  V30 6767 H 662.564 -3.91696 0.0903048 0
M  V30 6768 H 664.261 -3.98162 0.476267 0
M  V30 6769 H 660.851 -3.84038 1.90296 0
M  V30 6770 H 665.035 -4.05636 2.8596 0
M  V30 6771 H 660.291 -4.41878 4.22557 0
M  V30 6772 H 664.465 -4.64795 5.18593 0
M  V30 6773 H 662.092 -4.82573 5.87391 0
M  V30 6774 N 663.667 -0.670007 -1.42649 0
M  V30 6775 C 664.617 0.0339546 -2.27975 0
M  V30 6776 C 665.601 0.778295 -1.40824 0
M  V30 6777 O 666.793 0.657997 -1.64315 0
M  V30 6778 C 663.922 0.987899 -3.28779 0
M  V30 6779 C 663.008 0.241153 -4.23414 0
M  V30 6780 N 663.399 -0.751392 -5.00188 0
M  V30 6781 C 661.697 0.480269 -4.43407 0
M  V30 6782 C 662.398 -1.19615 -5.69269 0
M  V30 6783 N 661.374 -0.527045 -5.41039 0
M  V30 6784 H 665.176 -0.727425 -2.84756 0
M  V30 6785 H 662.69 -0.498673 -1.54554 0
M  V30 6786 H 664.687 1.50716 -3.88703 0
M  V30 6787 H 663.347 1.74916 -2.73559 0
M  V30 6788 H 664.358 -1.13075 -5.05405 0
M  V30 6789 H 661.035 1.2214 -3.99234 0
M  V30 6790 H 662.425 -2.01836 -6.40868 0
M  V30 6791 N 665.145 1.52092 -0.413018 0
M  V30 6792 C 666.393 2.01456 0.161178 0
M  V30 6793 C 666.714 1.30034 1.45314 0
M  V30 6794 O 665.984 0.427435 1.9118 0
M  V30 6795 H 664.564 0.744376 0.0625526 0
M  V30 6796 H 667.226 1.86974 -0.550151 0
M  V30 6797 H 666.322 3.1008 0.354517 0
M  V30 6798 N 666.623 0.143563 1.56945 0
M  V30 6799 C 667.9 -0.553285 1.87612 0
M  V30 6800 C 668.28 -1.83195 1.04894 0
M  V30 6801 O 667.628 -2.28102 0.134773 0
M  V30 6802 C 667.838 -0.822055 3.3918 0
M  V30 6803 C 669.186 -1.16435 4.08324 0
M  V30 6804 O 670.21 -0.911522 3.4434 0
M  V30 6805 O 669.069 -1.63996 5.21313 0
M  V30 6806 H 666.163 -0.281851 0.777489 0
M  V30 6807 H 668.709 0.179916 1.68744 0
M  V30 6808 H 667.481 0.0830265 3.91212 0
M  V30 6809 H 667.104 -1.60956 3.63564 0
M  V30 6810 N 668.101 -1.57061 -0.130224 0
M  V30 6811 C 669.049 -2.00486 -1.17933 0
M  V30 6812 C 670.043 -0.899933 -1.43519 0
M  V30 6813 O 671.249 -1.08514 -1.43613 0
M  V30 6814 H 667.624 -0.638441 -0.397363 0
M  V30 6815 H 669.595 -2.87848 -0.786501 0
M  V30 6816 C 668.344 -2.41565 -2.50084 0
M  V30 6817 H 667.667 -3.26148 -2.31231 0
M  V30 6818 H 669.107 -2.75757 -3.22078 0
M  V30 6819 C 667.566 -1.27485 -3.11848 0
M  V30 6820 O 668.096 -0.584688 -3.97422 0
M  V30 6821 N 666.302 -1.03478 -2.71552 0
M  V30 6822 H 665.849 -1.59779 -2.02061 0
M  V30 6823 H 665.807 -0.27341 -3.13209 0
M  V30 6824 N 669.579 0.400081 -1.52437 0
M  V30 6825 C 670.819 1.15526 -1.68622 0
M  V30 6826 C 671.183 1.87533 -0.411744 0
M  V30 6827 O 672.384 2.6501 -0.449804 0
M  V30 6828 C 670.655 2.11618 -2.88015 0
M  V30 6829 S 672.214 2.95121 -3.24729 0
M  V30 6830 H 669.032 0.39123 -0.593683 0
M  V30 6831 H 671.634 0.441255 -1.90455 0
M  V30 6832 H 670.338 1.5742 -3.79008 0
M  V30 6833 H 669.869 2.87544 -2.68481 0
M  V30 6834 H 671.884 4.13653 -2.74055 0
M  V30 6835 N 671.057 1.43213 0.657864 0
M  V30 6836 C 671.967 1.50448 1.80007 0
M  V30 6837 C 672.983 0.39191 1.69529 0
M  V30 6838 O 674.159 0.645349 1.90781 0
M  V30 6839 C 671.224 1.42062 3.16258 0
M  V30 6840 C 670.285 2.63951 3.38568 0
M  V30 6841 C 669.518 2.55956 4.68318 0
M  V30 6842 O 669.741 1.60473 5.47361 0
M  V30 6843 O 668.675 3.46378 4.92245 0
M  V30 6844 H 672.501 2.4689 1.76858 0
M  V30 6845 H 670.086 1.25163 0.81576 0
M  V30 6846 H 671.968 1.3981 3.97531 0
M  V30 6847 H 670.643 0.487524 3.20008 0
M  V30 6848 H 669.55 2.71776 2.57077 0
M  V30 6849 H 670.883 3.56217 3.39662 0
M  V30 6850 N 672.536 -0.895792 1.29666 0
M  V30 6851 C 673.483 -2.00035 1.15129 0
M  V30 6852 C 674.453 -1.66043 0.0435819 0
M  V30 6853 O 675.638 -1.89621 0.211811 0
M  V30 6854 C 672.778 -3.34774 0.83787 0
M  V30 6855 C 671.891 -3.81525 2.0264 0
M  V30 6856 C 671.026 -5.04858 1.65201 0
M  V30 6857 C 670.065 -5.43988 2.80612 0
M  V30 6858 N 669.202 -6.58507 2.43544 0
M  V30 6859 H 674.042 -2.11802 2.09628 0
M  V30 6860 H 671.579 -1.03719 1.04311 0
M  V30 6861 H 673.537 -4.12311 0.636824 0
M  V30 6862 H 672.167 -3.22724 -0.0702314 0
M  V30 6863 H 671.219 -2.9999 2.33903 0
M  V30 6864 H 672.531 -4.06472 2.89106 0
M  V30 6865 H 671.685 -5.8999 1.41408 0
M  V30 6866 H 670.424 -4.81759 0.758893 0
M  V30 6867 H 669.429 -4.57388 3.05083 0
M  V30 6868 H 670.654 -5.69066 3.70595 0
M  V30 6869 H 668.6 -6.37004 1.56724 0
M  V30 6870 H 668.517 -6.83269 3.23542 0
M  V30 6871 H 669.785 -7.46897 2.2308 0
M  V30 6872 N 674.014 -1.12206 -1.10668 0
M  V30 6873 C 675.254 -0.885935 -1.84202 0
M  V30 6874 C 675.618 0.577849 -1.83098 0
M  V30 6875 O 676.819 0.931051 -2.5216 0
M  V30 6876 C 675.09 -1.44197 -3.2702 0
M  V30 6877 S 676.649 -1.34402 -4.1771 0
M  V30 6878 H 673.467 -0.319653 -0.635093 0
M  V30 6879 H 676.069 -1.43112 -1.33189 0
M  V30 6880 H 674.773 -2.50096 -3.25392 0
M  V30 6881 H 674.304 -0.894173 -3.83103 0
M  V30 6882 H 676.319 -0.313873 -4.95206 0
M  V30 6883 N 675.492 1.28418 -0.913599 0
M  V30 6884 C 676.455 2.25564 -0.406624 0
M  V30 6885 C 677.455 1.5387 0.466965 0
M  V30 6886 O 678.645 1.72094 0.270042 0
M  V30 6887 C 675.777 3.38339 0.417053 0
M  V30 6888 H 676.97 2.71926 -1.26477 0
M  V30 6889 H 674.523 1.40098 -0.692986 0
M  V30 6890 H 675.258 2.97339 1.29461 0
M  V30 6891 H 675.043 3.91542 -0.209102 0
M  V30 6892 H 676.533 4.10578 0.762602 0
M  V30 6893 N 676.97 0.677563 1.42291 0
M  V30 6894 C 678.219 0.198173 2.00724 0
M  V30 6895 C 678.532 -1.20325 1.54211 0
M  V30 6896 O 679.738 -1.77916 2.05081 0
M  V30 6897 C 678.194 0.303432 3.58619 0
M  V30 6898 C 677.802 1.70909 4.14119 0
M  V30 6899 C 679.546 -0.117103 4.24338 0
M  V30 6900 C 677.453 1.76696 5.64387 0
M  V30 6901 H 676.383 0.070329 0.750713 0
M  V30 6902 H 679.034 0.843147 1.62982 0
M  V30 6903 H 677.416 -0.409482 3.93877 0
M  V30 6904 H 678.59 2.44931 3.90315 0
M  V30 6905 H 676.905 2.07771 3.6086 0
M  V30 6906 H 679.502 -0.0940471 5.34617 0
M  V30 6907 H 679.845 -1.15283 4.00019 0
M  V30 6908 H 680.378 0.5449 3.9405 0
M  V30 6909 H 677.117 2.7826 5.93508 0
M  V30 6910 H 676.637 1.07034 5.90173 0
M  V30 6911 H 678.316 1.52166 6.28852 0
M  V30 6912 N 678.448 -1.51871 0.421078 0
M  V30 6913 C 679.696 -2.01539 -0.150492 0
M  V30 6914 C 680.017 -1.30803 -1.44623 0
M  V30 6915 O 679.287 -0.437568 -1.90951 0
M  V30 6916 H 677.867 -0.744698 -0.0586041 0
M  V30 6917 H 680.529 -1.8668 0.560059 0
M  V30 6918 H 679.625 -3.10264 -0.338068 0
M  V30 6919 N 679.926 -0.151884 -1.56866 0
M  V30 6920 C 681.156 0.504081 -2.00356 0
M  V30 6921 C 681.564 1.58639 -1.03103 0
M  V30 6922 O 680.907 1.83688 -0.0207931 0
M  V30 6923 C 680.969 1.15975 -3.40279 0
M  V30 6924 C 680.633 0.221453 -4.56463 0
M  V30 6925 C 681.63 -0.552766 -5.16953 0
M  V30 6926 C 679.315 0.122936 -5.0215 0
M  V30 6927 C 681.309 -1.4129 -6.21543 0
M  V30 6928 C 678.996 -0.740801 -6.06593 0
M  V30 6929 C 679.994 -1.50732 -6.6616 0
M  V30 6930 O 679.682 -2.35666 -7.68581 0
M  V30 6931 H 679.414 0.135279 -0.662326 0
M  V30 6932 H 681.968 -0.244916 -2.03935 0
M  V30 6933 H 680.198 1.95649 -3.33554 0
M  V30 6934 H 681.887 1.71594 -3.67846 0
M  V30 6935 H 682.653 -0.486716 -4.82552 0
M  V30 6936 H 678.532 0.70931 -4.5551 0
M  V30 6937 H 682.076 -2.01166 -6.67966 0
M  V30 6938 H 677.973 -0.808125 -6.40421 0
M  V30 6939 H 678.741 -2.28967 -7.85822 0
M  V30 6940 N 681.404 1.57128 0.121893 0
M  V30 6941 C 682.634 1.88609 0.843227 0
M  V30 6942 C 683.042 0.740917 1.74089 0
M  V30 6943 O 682.385 -0.297426 1.81276 0
M  V30 6944 C 682.447 3.15073 1.73117 0
M  V30 6945 C 682.111 4.45742 1.0081 0
M  V30 6946 C 683.108 5.18719 0.350255 0
M  V30 6947 C 680.793 4.92444 0.99014 0
M  V30 6948 C 682.787 6.36617 -0.315889 0
M  V30 6949 C 680.474 6.10261 0.320196 0
M  V30 6950 C 681.472 6.82194 -0.331666 0
M  V30 6951 O 681.16 7.97769 -0.990927 0
M  V30 6952 H 680.892 0.628919 0.247865 0
M  V30 6953 H 683.446 2.05096 0.111725 0
M  V30 6954 H 681.676 2.9466 2.50424 0
M  V30 6955 H 683.365 3.32597 2.32667 0
M  V30 6956 H 684.131 4.83693 0.35577 0
M  V30 6957 H 680.01 4.36361 1.48695 0
M  V30 6958 H 683.554 6.92701 -0.825272 0
M  V30 6959 H 679.451 6.44743 0.312433 0
M  V30 6960 H 680.219 8.13591 -0.895113 0
M  V30 6961 N 682.882 -0.391992 1.52647 0
M  V30 6962 C 683.83 -1.4991 1.77848 0
M  V30 6963 C 684.824 -1.56587 0.646282 0
M  V30 6964 O 686.03 -1.59789 0.828698 0
M  V30 6965 H 682.405 -0.498883 0.56269 0
M  V30 6966 H 684.376 -1.25847 2.70564 0
M  V30 6967 C 683.125 -2.87081 1.96163 0
M  V30 6968 H 682.448 -2.82692 2.82711 0
M  V30 6969 H 683.888 -3.63792 2.17787 0
M  V30 6970 C 682.347 -3.28822 0.733348 0
M  V30 6971 O 682.877 -4.01598 -0.0906481 0
M  V30 6972 N 681.083 -2.85068 0.564317 0
M  V30 6973 H 680.63 -2.26012 1.23598 0
M  V30 6974 H 680.588 -3.13355 -0.256166 0
M  V30 6975 N 684.36 -1.4356 -0.65026 0
M  V30 6976 C 685.607 -1.45333 -1.41012 0
M  V30 6977 C 685.935 -0.0787282 -1.94341 0
M  V30 6978 O 685.19 0.916715 -1.72901 0
M  V30 6979 C 685.489 -2.44528 -2.60654 0
M  V30 6980 C 685.155 -3.90331 -2.25727 0
M  V30 6981 C 683.817 -4.3004 -2.15914 0
M  V30 6982 C 686.169 -4.822 -1.97821 0
M  V30 6983 C 683.497 -5.59568 -1.76354 0
M  V30 6984 C 685.849 -6.12095 -1.59759 0
M  V30 6985 C 684.513 -6.50778 -1.48473 0
M  V30 6986 H 683.783 -0.531813 -0.516 0
M  V30 6987 H 686.43 -1.76657 -0.739219 0
M  V30 6988 H 684.735 -2.06619 -3.3289 0
M  V30 6989 H 686.432 -2.43155 -3.18868 0
M  V30 6990 H 683.022 -3.58905 -2.34276 0
M  V30 6991 H 687.206 -4.5229 -2.04322 0
M  V30 6992 H 682.462 -5.88376 -1.66205 0
M  V30 6993 H 686.636 -6.82751 -1.37198 0
M  V30 6994 H 684.263 -7.5105 -1.17591 0
M  V30 6995 N 685.838 0.888903 -1.30139 0
M  V30 6996 C 687.249 1.45578 -1.16893 0
M  V30 6997 C 687.6 1.94825 0.231866 0
M  V30 6998 O 686.725 1.84661 1.12824 0
M  V30 6999 C 687.32 2.646 -2.11595 0
M  V30 7000 C 685.879 3.17389 -2.02339 0
M  V30 7001 C 685.026 1.90081 -2.01902 0
M  V30 7002 H 687.977 0.69921 -1.42467 0
M  V30 7003 H 687.998 3.40687 -1.69449 0
M  V30 7004 H 687.51 2.28726 -3.13538 0
M  V30 7005 H 685.611 3.5793 -1.03523 0
M  V30 7006 H 685.724 3.80955 -2.90534 0
M  V30 7007 H 684.088 2.08246 -1.46648 0
M  V30 7008 H 684.871 1.5647 -3.05568 0
M  V30 7009 N 687.317 1.12792 1.10072 0
M  V30 7010 C 688.564 0.885545 1.82111 0
M  V30 7011 C 688.892 -0.588519 1.85383 0
M  V30 7012 O 688.147 -1.45124 1.31292 0
M  V30 7013 C 688.446 1.4102 3.28403 0
M  V30 7014 C 688.112 2.89995 3.45273 0
M  V30 7015 C 686.774 3.30671 3.49585 0
M  V30 7016 C 689.126 3.85874 3.50358 0
M  V30 7017 C 686.454 4.65925 3.56553 0
M  V30 7018 C 688.806 5.20963 3.58859 0
M  V30 7019 C 687.47 5.61177 3.61437 0
M  V30 7020 H 686.74 0.324044 0.666391 0
M  V30 7021 H 689.387 1.40874 1.29718 0
M  V30 7022 H 687.692 0.807551 3.83387 0
M  V30 7023 H 689.389 1.19882 3.82661 0
M  V30 7024 H 685.979 2.57537 3.42597 0
M  V30 7025 H 690.163 3.5554 3.46273 0
M  V30 7026 H 685.419 4.96468 3.56833 0
M  V30 7027 H 689.593 5.95079 3.61738 0
M  V30 7028 H 687.22 6.6597 3.66589 0
M  V30 7029 N 688.795 -1.27931 0.920396 0
M  V30 7030 C 690.035 -1.96459 0.564198 0
M  V30 7031 C 690.399 -1.70802 -0.876967 0
M  V30 7032 O 691.6 -2.32956 -1.34107 0
M  V30 7033 C 689.871 -3.46583 0.872641 0
M  V30 7034 S 691.43 -4.34343 0.623859 0
M  V30 7035 H 688.248 -0.679735 0.208523 0
M  V30 7036 H 690.85 -1.55319 1.18727 0
M  V30 7037 H 689.554 -3.62753 1.91933 0
M  V30 7038 H 689.085 -3.92677 0.238479 0
M  V30 7039 H 691.1 -4.93449 -0.521744 0
M  V30 7040 N 690.273 -0.685099 -1.4193 0
M  V30 7041 C 691.203 -0.0273506 -2.33484 0
M  V30 7042 C 692.184 0.778366 -1.51246 0
M  V30 7043 O 693.369 0.733449 -1.79817 0
M  V30 7044 C 690.499 0.917272 -3.34968 0
M  V30 7045 C 689.453 0.21941 -4.27437 0
M  V30 7046 C 688.779 1.27768 -5.1921 0
M  V30 7047 C 690.079 -0.907894 -5.14349 0
M  V30 7048 H 691.773 -0.791994 -2.88735 0
M  V30 7049 H 689.319 -0.382308 -1.38832 0
M  V30 7050 H 691.272 1.38657 -3.97935 0
M  V30 7051 H 689.996 1.71346 -2.78043 0
M  V30 7052 H 688.655 -0.229757 -3.65879 0
M  V30 7053 H 688.303 2.06612 -4.58607 0
M  V30 7054 H 688.003 0.815803 -5.81909 0
M  V30 7055 H 689.527 1.7477 -5.85054 0
M  V30 7056 H 690.941 -0.519348 -5.70943 0
M  V30 7057 H 689.338 -1.2962 -5.85934 0
M  V30 7058 H 690.408 -1.75218 -4.52136 0
M  V30 7059 N 691.751 1.51645 -0.429126 0
M  V30 7060 C 693.167 1.59394 -0.080994 0
M  V30 7061 C 693.367 1.44064 1.40882 0
M  V30 7062 O 692.423 1.27771 2.17786 0
M  V30 7063 C 693.736 2.94779 -0.593773 0
M  V30 7064 C 695.284 3.08067 -0.553494 0
M  V30 7065 C 695.759 4.45963 -1.04311 0
M  V30 7066 N 697.25 4.5226 -1.00076 0
M  V30 7067 C 697.985 5.57268 -1.35056 0
M  V30 7068 N 697.481 6.69734 -1.77282 0
M  V30 7069 N 699.274 5.47582 -1.26925 0
M  V30 7070 H 691.425 1.59856 -1.39857 0
M  V30 7071 H 693.688 0.753095 -0.575805 0
M  V30 7072 H 693.394 3.11342 -1.63583 0
M  V30 7073 H 693.268 3.77197 -0.0142202 0
M  V30 7074 H 695.655 2.91177 0.479556 0
M  V30 7075 H 695.736 2.27508 -1.16935 0
M  V30 7076 H 695.38 4.63598 -2.07459 0
M  V30 7077 H 695.31 5.25049 -0.403873 0
M  V30 7078 H 697.801 3.71537 -0.690564 0
M  V30 7079 H 698.114 7.4587 -2.02232 0
M  V30 7080 H 696.459 6.70963 -1.81202 0
M  V30 7081 H 699.65 4.58604 -0.93809 0
M  V30 7082 H 699.823 6.29308 -1.54516 0
M  V30 7083 N 693.229 0.160201 1.56784 0
M  V30 7084 C 694.478 -0.487619 1.95717 0
M  V30 7085 C 694.791 -1.65136 1.0483 0
M  V30 7086 O 695.997 -2.36468 1.33398 0
M  V30 7087 C 694.453 -0.91888 3.47972 0
M  V30 7088 C 694.061 0.218655 4.47466 0
M  V30 7089 C 695.805 -1.53575 3.95746 0
M  V30 7090 C 693.712 -0.231614 5.90946 0
M  V30 7091 H 692.642 -0.185939 0.730714 0
M  V30 7092 H 695.293 0.246657 1.81835 0
M  V30 7093 H 693.675 -1.70881 3.57234 0
M  V30 7094 H 694.849 0.995825 4.49911 0
M  V30 7095 H 693.164 0.744767 4.09685 0
M  V30 7096 H 695.761 -1.88448 5.00391 0
M  V30 7097 H 696.104 -2.42959 3.38048 0
M  V30 7098 H 696.637 -0.810467 3.89456 0
M  V30 7099 H 693.376 0.62718 6.52493 0
M  V30 7100 H 692.896 -0.974379 5.91833 0
M  V30 7101 H 694.575 -0.67922 6.43425 0
M  V30 7102 N 694.707 -1.5719 -0.113559 0
M  V30 7103 C 696.118 -1.74259 -0.670116 0
M  V30 7104 C 696.469 -0.779694 -1.80042 0
M  V30 7105 O 695.594 0.0461353 -2.16351 0
M  V30 7106 C 696.189 -3.15981 -1.22236 0
M  V30 7107 C 694.748 -3.34537 -1.72516 0
M  V30 7108 C 693.895 -2.70116 -0.627098 0
M  V30 7109 H 696.846 -1.58301 0.112396 0
M  V30 7110 H 696.867 -3.17832 -2.09197 0
M  V30 7111 H 696.379 -3.86038 -0.39949 0
M  V30 7112 H 694.48 -2.6953 -2.57263 0
M  V30 7113 H 694.593 -4.42737 -1.83086 0
M  V30 7114 H 692.957 -2.31501 -1.06204 0
M  V30 7115 H 693.74 -3.42802 0.184889 0
M  V30 7116 N 696.185 0.383891 -1.52853 0
M  V30 7117 C 697.434 1.12563 -1.67369 0
M  V30 7118 C 697.747 1.90982 -0.422533 0
M  V30 7119 O 698.953 2.6778 -0.447914 0
M  V30 7120 C 697.409 2.05011 -2.95801 0
M  V30 7121 C 697.017 1.31991 -4.28115 0
M  V30 7122 C 698.761 2.79289 -3.19684 0
M  V30 7123 C 696.668 2.23235 -5.4765 0
M  V30 7124 H 695.598 0.42391 -0.623552 0
M  V30 7125 H 698.249 0.388016 -1.79351 0
M  V30 7126 H 696.631 2.82429 -2.77578 0
M  V30 7127 H 697.805 0.597633 -4.56908 0
M  V30 7128 H 696.12 0.696517 -4.10533 0
M  V30 7129 H 698.717 3.47749 -4.06171 0
M  V30 7130 H 699.06 3.43649 -2.3497 0
M  V30 7131 H 699.593 2.08962 -3.38496 0
M  V30 7132 H 696.332 1.63482 -6.34786 0
M  V30 7133 H 695.852 2.93364 -5.23161 0
M  V30 7134 H 697.531 2.83205 -5.81725 0
M  V30 7135 N 697.663 1.43903 0.642637 0
M  V30 7136 C 698.91 1.46079 1.40239 0
M  V30 7137 C 699.238 0.0890335 1.94296 0
M  V30 7138 O 698.493 -0.907533 1.73385 0
M  V30 7139 C 698.792 2.45907 2.59354 0
M  V30 7140 C 698.458 3.91522 2.23654 0
M  V30 7141 C 697.12 4.31179 2.1363 0
M  V30 7142 C 699.472 4.83242 1.95261 0
M  V30 7143 C 696.8 5.60495 1.73384 0
M  V30 7144 C 699.152 6.12933 1.56511 0
M  V30 7145 C 697.816 6.51556 1.4502 0
M  V30 7146 H 697.086 0.534542 0.513172 0
M  V30 7147 H 699.733 1.77047 0.72984 0
M  V30 7148 H 698.038 2.08381 3.3179 0
M  V30 7149 H 699.735 2.44842 3.17574 0
M  V30 7150 H 696.325 3.60142 2.32369 0
M  V30 7151 H 700.509 4.53367 2.0192 0
M  V30 7152 H 695.765 5.89249 1.63082 0
M  V30 7153 H 699.939 6.83469 1.33576 0
M  V30 7154 H 697.566 7.51663 1.13606 0
M  V30 7155 N 699.141 -0.881989 1.30609 0
M  V30 7156 C 700.552 -1.44956 1.17664 0
M  V30 7157 C 700.903 -1.94945 -0.221531 0
M  V30 7158 O 700.028 -1.85257 -1.11844 0
M  V30 7159 C 700.623 -2.63474 2.12995 0
M  V30 7160 C 699.182 -3.16312 2.04019 0
M  V30 7161 C 698.329 -1.89008 2.02907 0
M  V30 7162 H 701.28 -0.691645 1.42835 0
M  V30 7163 H 701.301 -3.39783 1.71253 0
M  V30 7164 H 700.813 -2.2706 3.14746 0
M  V30 7165 H 698.914 -3.57376 1.0542 0
M  V30 7166 H 699.027 -3.79409 2.9255 0
M  V30 7167 H 697.391 -2.07465 1.47751 0
M  V30 7168 H 698.174 -1.54848 3.06394 0
M  V30 7169 N 700.619 -1.13374 -1.09472 0
M  V30 7170 C 701.865 -0.896516 -1.81908 0
M  V30 7171 C 702.198 0.575933 -1.85463 0
M  V30 7172 O 701.473 1.42618 -1.32251 0
M  V30 7173 C 701.756 -1.48445 -3.28079 0
M  V30 7174 C 701.609 -3.02598 -3.32798 0
M  V30 7175 C 702.928 -1.15226 -4.24748 0
M  V30 7176 H 700.047 -0.327127 -0.660422 0
M  V30 7177 H 702.689 -1.40195 -1.2824 0
M  V30 7178 H 700.839 -1.0546 -3.73912 0
M  V30 7179 H 702.511 -3.54335 -2.95372 0
M  V30 7180 H 700.754 -3.37613 -2.72397 0
M  V30 7181 H 701.425 -3.38835 -4.3577 0
M  V30 7182 H 703.901 -1.52369 -3.87199 0
M  V30 7183 H 702.777 -1.59012 -5.25363 0
M  V30 7184 H 703.038 -0.0658891 -4.42051 0
M  V30 7185 N 702.098 1.27442 -0.927168 0
M  V30 7186 C 703.323 1.99036 -0.583042 0
M  V30 7187 C 703.748 1.68711 0.83176 0
M  V30 7188 O 703.106 0.927081 1.55804 0
M  V30 7189 C 703.154 3.51271 -0.814925 0
M  V30 7190 O 702.258 4.12226 0.119742 0
M  V30 7191 H 701.599 0.624883 -0.224538 0
M  V30 7192 H 704.129 1.62263 -1.24628 0
M  V30 7193 H 704.139 4.01411 -0.730282 0
M  V30 7194 H 702.814 3.72676 -1.84623 0
M  V30 7195 H 701.391 3.72897 -0.0147688 0
M  V30 7196 N 703.576 0.692616 1.41565 0
M  V30 7197 C 704.804 0.231279 2.05603 0
M  V30 7198 C 705.219 -1.11837 1.52111 0
M  V30 7199 O 704.576 -1.6983 0.66813 0
M  V30 7200 C 704.627 0.177125 3.61066 0
M  V30 7201 O 704.348 1.47346 4.12578 0
M  V30 7202 C 705.849 -0.30556 4.42246 0
M  V30 7203 H 703.069 0.108238 0.662213 0
M  V30 7204 H 705.613 0.944369 1.81389 0
M  V30 7205 H 703.768 -0.486769 3.8433 0
M  V30 7206 H 704.182 1.35861 5.06599 0
M  V30 7207 H 705.656 -0.29233 5.51225 0
M  V30 7208 H 706.133 -1.34393 4.18133 0
M  V30 7209 H 706.739 0.327229 4.24039 0
M  V30 7210 N 705.054 -1.51416 0.437162 0
M  V30 7211 C 706.465 -1.86682 -0.0260005 0
M  V30 7212 C 706.816 -1.35432 -1.4196 0
M  V30 7213 O 705.941 -0.705055 -2.04592 0
M  V30 7214 C 706.536 -3.38757 -0.0539577 0
M  V30 7215 C 705.095 -3.7356 -0.461532 0
M  V30 7216 C 704.242 -2.75134 0.345924 0
M  V30 7217 H 707.193 -1.44642 0.653013 0
M  V30 7218 H 707.214 -3.70573 -0.863478 0
M  V30 7219 H 706.726 -3.76028 0.96045 0
M  V30 7220 H 704.827 -3.41878 -1.48155 0
M  V30 7221 H 704.94 -4.78737 -0.186451 0
M  V30 7222 H 703.304 -2.53947 -0.195739 0
M  V30 7223 H 704.087 -3.15247 1.35921 0
M  V30 7224 N 706.532 -0.168513 -1.56696 0
M  V30 7225 C 707.757 0.486688 -2.01609 0
M  V30 7226 C 708.182 1.56203 -1.04796 0
M  V30 7227 O 707.54 1.8128 -0.0270596 0
M  V30 7228 C 707.588 1.04451 -3.45141 0
M  V30 7229 O 706.692 2.15862 -3.51393 0
M  V30 7230 H 706.033 0.116831 -0.653641 0
M  V30 7231 H 708.563 -0.271579 -2.0279 0
M  V30 7232 H 708.573 1.36782 -3.84389 0
M  V30 7233 H 707.248 0.257155 -4.15104 0
M  V30 7234 H 705.825 1.84597 -3.24004 0
M  V30 7235 N 708.01 1.57248 0.105221 0
M  V30 7236 C 709.235 1.90143 0.828264 0
M  V30 7237 C 709.66 0.761811 1.71983 0
M  V30 7238 O 709.018 -0.287086 1.79013 0
M  V30 7239 C 709.066 3.21856 1.62608 0
M  V30 7240 O 708.17 3.08732 2.7342 0
M  V30 7241 H 707.511 0.623558 0.228192 0
M  V30 7242 H 710.041 2.0443 0.0834826 0
M  V30 7243 H 710.051 3.54916 2.01243 0
M  V30 7244 H 708.726 4.0439 0.971687 0
M  V30 7245 H 707.303 2.87167 2.37886 0
M  V30 7246 N 709.488 -0.375779 1.53054 0
M  V30 7247 C 710.398 -1.48381 1.81715 0
M  V30 7248 C 711.414 -1.59087 0.704795 0
M  V30 7249 O 712.59 -1.75174 0.993785 0
M  V30 7250 C 709.655 -2.83767 1.99192 0
M  V30 7251 C 708.716 -2.82673 3.23102 0
M  V30 7252 C 707.949 -4.11601 3.39736 0
M  V30 7253 O 708.172 -5.07243 2.60885 0
M  V30 7254 O 707.106 -4.18034 4.33049 0
M  V30 7255 H 710.932 -1.27089 2.7583 0
M  V30 7256 H 708.517 -0.564902 1.38308 0
M  V30 7257 H 710.399 -3.64004 2.12318 0
M  V30 7258 H 709.074 -3.05057 1.08267 0
M  V30 7259 H 707.981 -2.0117 3.15407 0
M  V30 7260 H 709.314 -2.66335 4.13916 0
M  V30 7261 N 710.966 -1.44241 -0.634997 0
M  V30 7262 C 712.243 -1.37296 -1.39317 0
M  V30 7263 C 712.623 -0.0297532 -2.11079 0
M  V30 7264 O 711.971 0.987524 -2.06059 0
M  V30 7265 C 712.181 -2.56853 -2.36279 0
M  V30 7266 C 713.529 -3.00747 -2.99728 0
M  V30 7267 O 714.553 -2.5703 -2.46605 0
M  V30 7268 O 713.412 -3.76533 -3.96087 0
M  V30 7269 H 710.506 -0.543503 -0.623325 0
M  V30 7270 H 713.052 -1.56324 -0.660376 0
M  V30 7271 H 711.824 -3.46228 -1.82324 0
M  V30 7272 H 711.447 -2.40019 -3.16981 0
M  V30 7273 N 712.444 0.87505 -1.31075 0
M  V30 7274 C 713.855 1.4433 -1.18431 0
M  V30 7275 C 714.206 1.9506 0.211189 0
M  V30 7276 O 713.331 1.85847 1.10859 0
M  V30 7277 C 713.926 2.62341 -2.14389 0
M  V30 7278 C 712.485 3.15225 -2.05694 0
M  V30 7279 C 711.632 1.87929 -2.03907 0
M  V30 7280 H 714.583 0.684061 -1.432 0
M  V30 7281 H 714.604 3.3887 -1.73053 0
M  V30 7282 H 714.116 2.25388 -3.15946 0
M  V30 7283 H 712.217 3.56812 -1.07314 0
M  V30 7284 H 712.33 3.77853 -2.94558 0
M  V30 7285 H 710.694 2.06679 -1.48849 0
M  V30 7286 H 711.477 1.53221 -3.07211 0
M  V30 7287 N 713.922 1.13953 1.08869 0
M  V30 7288 C 715.168 0.906151 1.8143 0
M  V30 7289 C 715.501 -0.566089 1.85766 0
M  V30 7290 O 714.776 -1.41915 1.33006 0
M  V30 7291 C 715.059 1.50183 3.27287 0
M  V30 7292 C 714.912 3.04359 3.31189 0
M  V30 7293 C 716.231 1.17477 4.24131 0
M  V30 7294 H 713.35 0.330624 0.658678 0
M  V30 7295 H 715.992 1.40873 1.27495 0
M  V30 7296 H 714.142 1.07442 3.73348 0
M  V30 7297 H 715.814 3.55896 2.93488 0
M  V30 7298 H 714.057 3.39053 2.70602 0
M  V30 7299 H 714.728 3.41141 4.33966 0
M  V30 7300 H 717.204 1.5442 3.86385 0
M  V30 7301 H 716.08 1.61795 5.24513 0
M  V30 7302 H 716.341 0.0893312 4.4201 0
M  V30 7303 N 715.4 -1.26948 0.933913 0
M  V30 7304 C 716.363 -2.24889 0.442457 0
M  V30 7305 C 717.363 -1.54594 -0.442426 0
M  V30 7306 O 718.553 -1.72502 -0.242629 0
M  V30 7307 C 715.685 -3.3896 -0.363173 0
M  V30 7308 H 716.878 -2.69879 1.30787 0
M  V30 7309 H 714.431 -1.38978 0.715187 0
M  V30 7310 H 715.166 -2.99361 -1.24714 0
M  V30 7311 H 714.951 -3.9116 0.271366 0
M  V30 7312 H 716.441 -4.11739 -0.697186 0
M  V30 7313 N 716.879 -0.700114 -1.41195 0
M  V30 7314 C 718.127 -0.232546 -2.00758 0
M  V30 7315 C 718.448 1.1734 -1.55745 0
M  V30 7316 O 717.718 1.79262 -0.790058 0
M  V30 7317 H 716.298 -0.0829845 -0.742376 0
M  V30 7318 H 718.96 -0.902289 -1.72756 0
M  V30 7319 H 718.056 -0.253521 -3.11069 0
M  V30 7320 N 718.357 1.51182 -0.445186 0
M  V30 7321 C 719.634 1.9478 0.178965 0
M  V30 7322 C 720.014 1.38428 1.59376 0
M  V30 7323 O 719.362 0.574552 2.21159 0
M  V30 7324 C 719.572 3.48683 0.148711 0
M  V30 7325 C 720.92 4.23152 0.35042 0
M  V30 7326 O 721.944 3.55479 0.226474 0
M  V30 7327 O 720.803 5.4322 0.597893 0
M  V30 7328 H 717.897 0.817387 0.12573 0
M  V30 7329 H 720.443 1.62051 -0.503729 0
M  V30 7330 H 719.215 3.82176 -0.84009 0
M  V30 7331 H 718.838 3.87875 0.873979 0
M  V30 7332 N 719.835 0.176821 1.56605 0
M  V30 7333 C 721.084 -0.466833 1.96223 0
M  V30 7334 C 721.397 -1.64015 1.06576 0
M  V30 7335 O 722.603 -2.3504 1.35898 0
M  V30 7336 C 721.059 -0.881921 3.48927 0
M  V30 7337 C 720.667 0.266102 4.47209 0
M  V30 7338 C 722.411 -1.49368 3.97353 0
M  V30 7339 C 720.318 -0.168923 5.91159 0
M  V30 7340 H 719.248 -0.178178 0.732645 0
M  V30 7341 H 721.899 0.265929 1.81563 0
M  V30 7342 H 720.281 -1.67082 3.59026 0
M  V30 7343 H 721.455 1.04349 4.4883 0
M  V30 7344 H 719.77 0.788178 4.08872 0
M  V30 7345 H 722.367 -1.8313 5.02362 0
M  V30 7346 H 722.71 -2.3936 3.40606 0
M  V30 7347 H 723.243 -0.769114 3.90294 0
M  V30 7348 H 719.982 0.696351 6.51791 0
M  V30 7349 H 719.502 -0.911552 5.92833 0
M  V30 7350 H 721.181 -0.610938 6.44109 0
M  V30 7351 N 721.313 -1.57302 -0.09688 0
M  V30 7352 C 722.26 -2.01933 -1.11766 0
M  V30 7353 C 723.23 -0.895329 -1.39904 0
M  V30 7354 O 724.415 -1.16119 -1.51397 0
M  V30 7355 C 721.555 -2.44726 -2.43317 0
M  V30 7356 C 720.668 -3.70639 -2.21925 0
M  V30 7357 C 719.803 -4.02318 -3.46862 0
M  V30 7358 C 718.842 -5.21346 -3.20725 0
M  V30 7359 N 717.979 -5.48787 -4.37924 0
M  V30 7360 H 722.819 -2.88919 -0.730075 0
M  V30 7361 H 720.356 -1.42901 -0.348962 0
M  V30 7362 H 722.314 -2.6758 -3.20088 0
M  V30 7363 H 720.944 -1.60753 -2.79926 0
M  V30 7364 H 719.996 -3.55271 -1.35965 0
M  V30 7365 H 721.308 -4.57557 -1.98603 0
M  V30 7366 H 720.462 -4.25939 -4.32042 0
M  V30 7367 H 719.201 -3.13918 -3.73238 0
M  V30 7368 H 718.206 -4.97547 -2.33938 0
M  V30 7369 H 719.431 -6.11343 -2.95697 0
M  V30 7370 H 717.377 -4.63346 -4.64378 0
M  V30 7371 H 717.294 -6.30073 -4.17785 0
M  V30 7372 H 718.562 -5.76943 -5.24173 0
M  V30 7373 N 722.791 0.367657 -1.53252 0
M  V30 7374 C 724.039 1.10832 -1.68999 0
M  V30 7375 C 724.36 1.89894 -0.443306 0
M  V30 7376 O 723.63 1.88235 0.54262 0
M  V30 7377 H 722.21 0.412153 -0.623008 0
M  V30 7378 H 724.872 0.414775 -1.90435 0
M  V30 7379 H 723.968 1.7993 -2.55013 0
M  V30 7380 N 724.269 1.44576 0.627338 0
M  V30 7381 C 725.509 1.49083 1.39834 0
M  V30 7382 C 725.873 0.121643 1.91614 0
M  V30 7383 O 727.074 0.0413885 2.68768 0
M  V30 7384 C 725.345 2.52467 2.52973 0
M  V30 7385 S 726.904 2.7605 3.41089 0
M  V30 7386 H 723.722 0.527252 0.476997 0
M  V30 7387 H 726.324 1.81525 0.725872 0
M  V30 7388 H 725.028 3.50646 2.13249 0
M  V30 7389 H 724.559 2.2161 3.25042 0
M  V30 7390 H 726.574 2.07932 4.50531 0
M  V30 7391 N 725.747 -0.868086 1.31537 0
M  V30 7392 C 727.024 -1.60384 1.11965 0
M  V30 7393 C 727.404 -2.08584 -0.324949 0
M  V30 7394 O 726.752 -1.86561 -1.31937 0
M  V30 7395 C 726.962 -2.76038 2.13551 0
M  V30 7396 C 728.31 -3.45954 2.46173 0
M  V30 7397 O 729.334 -2.86247 2.11993 0
M  V30 7398 O 728.193 -4.53666 3.04711 0
M  V30 7399 H 725.287 -0.705705 0.431172 0
M  V30 7400 H 727.833 -0.913385 1.43022 0
M  V30 7401 H 726.605 -2.37849 3.10714 0
M  V30 7402 H 726.228 -3.52769 1.83411 0
M  V30 7403 N 727.225 -1.14528 -1.08264 0
M  V30 7404 C 728.465 -0.924808 -1.82282 0
M  V30 7405 C 728.829 0.538881 -1.84283 0
M  V30 7406 O 730.03 0.877355 -2.54079 0
M  V30 7407 C 728.301 -1.51102 -3.23887 0
M  V30 7408 S 729.86 -1.43232 -4.14765 0
M  V30 7409 H 726.678 -0.333052 -0.62817 0
M  V30 7410 H 729.28 -1.45905 -1.30123 0
M  V30 7411 H 727.984 -2.56942 -3.20014 0
M  V30 7412 H 727.515 -0.975234 -3.8112 0
M  V30 7413 H 729.53 -0.418843 -4.94429 0
M  V30 7414 N 728.703 1.26451 -0.940633 0
M  V30 7415 C 729.651 2.28389 -0.440581 0
M  V30 7416 C 730.645 1.62402 0.481859 0
M  V30 7417 O 731.851 1.76361 0.360132 0
M  V30 7418 H 728.226 0.741716 -0.123938 0
M  V30 7419 H 730.197 2.67967 -1.31288 0
M  V30 7420 C 728.946 3.46576 0.279364 0
M  V30 7421 H 728.269 3.97574 -0.421274 0
M  V30 7422 H 729.709 4.19826 0.59348 0
M  V30 7423 C 728.168 3.01815 1.49697 0
M  V30 7424 O 728.698 3.06607 2.59529 0
M  V30 7425 N 726.904 2.57163 1.35334 0
M  V30 7426 H 726.451 2.53464 0.459743 0
M  V30 7427 H 726.409 2.27578 2.16923 0
M  V30 7428 N 730.181 0.707592 1.40822 0
M  V30 7429 C 731.111 0.0644925 2.33411 0
M  V30 7430 C 732.092 -0.754205 1.52466 0
M  V30 7431 O 733.277 -0.704749 1.80961 0
M  V30 7432 C 730.407 -0.863865 3.36385 0
M  V30 7433 C 729.361 -0.15138 4.27732 0
M  V30 7434 C 728.687 -1.19491 5.21177 0
M  V30 7435 C 729.987 0.989607 5.12839 0
M  V30 7436 H 731.681 0.837829 2.87438 0
M  V30 7437 H 729.227 0.404346 1.38207 0
M  V30 7438 H 731.18 -1.32309 4.0009 0
M  V30 7439 H 729.904 -1.66901 2.80734 0
M  V30 7440 H 728.563 0.287937 3.65467 0
M  V30 7441 H 728.211 -1.9929 4.61836 0
M  V30 7442 H 727.911 -0.723123 5.83134 0
M  V30 7443 H 729.435 -1.6544 5.8776 0
M  V30 7444 H 730.849 0.610114 5.70044 0
M  V30 7445 H 729.246 1.38926 5.83798 0
M  V30 7446 H 730.316 1.82389 4.49291 0
M  V30 7447 N 731.66 -1.50943 0.453197 0
M  V30 7448 C 732.57 -2.31884 -0.355963 0
M  V30 7449 C 733.586 -1.41481 -1.01287 0
M  V30 7450 O 734.762 -1.74546 -1.00477 0
M  V30 7451 C 731.827 -3.15668 -1.43369 0
M  V30 7452 C 730.888 -4.2187 -0.795253 0
M  V30 7453 C 730.121 -5.0165 -1.82162 0
M  V30 7454 O 730.344 -4.82266 -3.04592 0
M  V30 7455 O 729.278 -5.85311 -1.40336 0
M  V30 7456 H 733.104 -3.02162 0.305248 0
M  V30 7457 H 730.689 -1.47839 0.215398 0
M  V30 7458 H 732.571 -3.67709 -2.05836 0
M  V30 7459 H 731.246 -2.48137 -2.07869 0
M  V30 7460 H 730.153 -3.73867 -0.132106 0
M  V30 7461 H 731.486 -4.9182 -0.193484 0
M  V30 7462 N 733.138 -0.185124 -1.56509 0
M  V30 7463 C 734.386 0.455357 -1.96903 0
M  V30 7464 C 734.707 1.62839 -1.07277 0
M  V30 7465 O 733.977 1.95385 -0.141966 0
M  V30 7466 H 732.557 0.171218 -0.727113 0
M  V30 7467 H 735.219 -0.26953 -1.93027 0
M  V30 7468 H 734.315 0.80616 -3.01509 0
M  V30 7469 N 734.616 1.57351 0.0885366 0
M  V30 7470 C 735.862 1.86696 0.791996 0
M  V30 7471 C 736.195 0.775148 1.78059 0
M  V30 7472 O 735.47 -0.216247 1.93294 0
M  V30 7473 C 735.753 3.26684 1.51491 0
M  V30 7474 C 735.606 4.465 0.543858 0
M  V30 7475 C 736.925 3.64664 2.46391 0
M  V30 7476 H 734.044 0.679049 0.286463 0
M  V30 7477 H 736.686 1.89919 0.0554866 0
M  V30 7478 H 734.836 3.24067 2.14273 0
M  V30 7479 H 736.508 4.61235 -0.0774597 0
M  V30 7480 H 734.751 4.33567 -0.142228 0
M  V30 7481 H 735.422 5.41192 1.08696 0
M  V30 7482 H 737.898 3.68267 1.93698 0
M  V30 7483 H 736.774 4.63534 2.93986 0
M  V30 7484 H 737.035 2.93698 3.30445 0
M  V30 7485 N 736.094 -0.359525 1.53444 0
M  V30 7486 C 737.024 -1.44662 1.8329 0
M  V30 7487 C 738.005 -1.55617 0.68683 0
M  V30 7488 O 739.19 -1.70086 0.93725 0
M  V30 7489 C 736.32 -2.81923 2.02822 0
M  V30 7490 C 735.274 -2.85787 3.18606 0
M  V30 7491 C 734.6 -4.25781 3.23442 0
M  V30 7492 C 735.9 -2.52762 4.57065 0
M  V30 7493 H 737.594 -1.19934 2.74329 0
M  V30 7494 H 735.14 -0.575517 1.31999 0
M  V30 7495 H 737.093 -3.58005 2.22285 0
M  V30 7496 H 735.817 -3.08051 1.085 0
M  V30 7497 H 734.476 -2.12157 2.98973 0
M  V30 7498 H 734.124 -4.48994 2.26745 0
M  V30 7499 H 733.824 -4.29281 4.01238 0
M  V30 7500 H 735.348 -5.03727 3.45096 0
M  V30 7501 H 736.762 -3.18557 4.76649 0
M  V30 7502 H 735.159 -2.67569 5.37147 0
M  V30 7503 H 736.229 -1.47993 4.61764 0
M  V30 7504 N 737.572 -1.44907 -0.619662 0
M  V30 7505 C 738.983 -1.42905 -1.20146 0
M  V30 7506 C 739.334 -0.150341 -1.95623 0
M  V30 7507 O 738.459 0.748732 -2.03034 0
M  V30 7508 C 739.054 -2.58889 -2.18545 0
M  V30 7509 C 737.613 -2.60046 -2.72127 0
M  V30 7510 C 736.76 -2.3493 -1.4732 0
M  V30 7511 H 739.711 -1.53321 -0.409666 0
M  V30 7512 H 739.732 -2.32298 -3.0136 0
M  V30 7513 H 739.244 -3.51941 -1.63583 0
M  V30 7514 H 737.345 -1.70968 -3.3106 0
M  V30 7515 H 737.458 -3.58893 -3.17384 0
M  V30 7516 H 735.822 -1.84248 -1.75855 0
M  V30 7517 H 736.605 -3.3011 -0.942442 0
M  V30 7518 N 739.05 0.861098 -1.31996 0
M  V30 7519 C 739.96 2.00154 -1.22374 0
M  V30 7520 C 740.976 1.73447 -0.138631 0
M  V30 7521 O 742.152 1.98191 -0.358104 0
M  V30 7522 C 739.217 3.33696 -0.940645 0
M  V30 7523 C 738.278 3.73668 -2.11355 0
M  V30 7524 C 737.511 5.00837 -1.84386 0
M  V30 7525 O 737.734 5.64996 -0.783287 0
M  V30 7526 O 736.668 5.37787 -2.70313 0
M  V30 7527 H 740.494 2.11207 -2.18233 0
M  V30 7528 H 738.079 0.990768 -1.11822 0
M  V30 7529 H 739.961 4.13756 -0.798987 0
M  V30 7530 H 738.636 3.23698 -0.0121636 0
M  V30 7531 H 737.543 2.94211 -2.31065 0
M  V30 7532 H 738.876 3.88303 -3.02459 0
M  V30 7533 N 740.528 1.15101 1.07655 0
M  V30 7534 C 741.777 0.918528 1.79572 0
M  V30 7535 C 742.09 -0.555922 1.87534 0
M  V30 7536 O 743.296 -0.905893 2.55941 0
M  V30 7537 C 741.752 1.59394 3.22679 0
M  V30 7538 C 741.36 3.1052 3.22927 0
M  V30 7539 C 743.104 1.44289 3.99225 0
M  V30 7540 C 741.011 3.70862 4.60668 0
M  V30 7541 H 739.941 0.340006 0.672987 0
M  V30 7542 H 742.592 1.38079 1.20857 0
M  V30 7543 H 740.974 1.05936 3.81567 0
M  V30 7544 H 742.148 3.70708 2.737 0
M  V30 7545 H 740.463 3.25351 2.59876 0
M  V30 7546 H 743.06 1.86766 5.01022 0
M  V30 7547 H 743.403 0.389975 4.14469 0
M  V30 7548 H 743.936 1.94826 3.46825 0
M  V30 7549 H 740.675 4.7604 4.50628 0
M  V30 7550 H 740.195 3.15456 5.10145 0
M  V30 7551 H 741.874 3.71607 5.29639 0
M  V30 7552 N 742.006 -1.2595 0.947325 0
M  V30 7553 C 743.246 -1.95218 0.605743 0
M  V30 7554 C 743.61 -1.72624 -0.84054 0
M  V30 7555 O 744.811 -2.35748 -1.29136 0
M  V30 7556 C 743.082 -3.44654 0.94596 0
M  V30 7557 S 744.641 -4.32922 0.715849 0
M  V30 7558 H 741.459 -0.675159 0.222894 0
M  V30 7559 H 744.061 -1.52766 1.21995 0
M  V30 7560 H 742.765 -3.586 1.99585 0
M  V30 7561 H 742.296 -3.92082 0.321718 0
M  V30 7562 H 744.311 -4.94445 -0.416959 0
M  V30 7563 N 743.484 -0.715051 -1.40445 0
M  V30 7564 C 744.761 -0.181503 -1.94756 0
M  V30 7565 C 745.141 1.31268 -1.65324 0
M  V30 7566 O 744.489 2.0686 -0.970631 0
M  V30 7567 C 744.699 -0.493663 -3.45491 0
M  V30 7568 C 746.047 -0.432032 -4.22396 0
M  V30 7569 O 747.071 -0.429692 -3.53599 0
M  V30 7570 O 745.93 -0.409091 -5.44967 0
M  V30 7571 H 743.024 -0.0263989 -0.826579 0
M  V30 7572 H 745.57 -0.792546 -1.50056 0
M  V30 7573 H 744.342 -1.52713 -3.6027 0
M  V30 7574 H 743.965 0.14737 -3.97327 0
M  V30 7575 N 744.962 1.50701 -0.461195 0
M  V30 7576 C 745.925 2.2686 0.326679 0
M  V30 7577 C 746.925 1.31243 0.929085 0
M  V30 7578 O 748.115 1.54754 0.799807 0
M  V30 7579 C 745.247 3.07844 1.46441 0
M  V30 7580 H 746.44 2.97954 -0.341095 0
M  V30 7581 H 743.993 1.54814 -0.214984 0
M  V30 7582 H 744.728 2.41223 2.16753 0
M  V30 7583 H 744.513 3.78101 1.03836 0
M  V30 7584 H 746.003 3.65469 2.02044 0
M  V30 7585 N 746.441 0.193421 1.56409 0
M  V30 7586 C 747.391 -0.74089 2.15627 0
M  V30 7587 C 748.375 -1.17747 1.09656 0
M  V30 7588 O 749.567 -1.13615 1.35723 0
M  V30 7589 C 746.696 -1.96091 2.81786 0
M  V30 7590 C 745.782 -1.54531 3.94944 0
M  V30 7591 N 746.173 -0.840569 4.98767 0
M  V30 7592 C 744.471 -1.83473 4.06514 0
M  V30 7593 C 745.172 -0.632571 5.7825 0
M  V30 7594 N 744.148 -1.18078 5.30621 0
M  V30 7595 H 747.95 -0.193718 2.93261 0
M  V30 7596 H 745.464 -0.00643211 1.62399 0
M  V30 7597 H 747.461 -2.64071 3.22602 0
M  V30 7598 H 746.121 -2.51282 2.05639 0
M  V30 7599 H 747.132 -0.496218 5.15517 0
M  V30 7600 H 743.809 -2.40184 3.41493 0
M  V30 7601 H 745.199 -0.0736433 6.7186 0
M  V30 7602 N 747.919 -1.57396 -0.0801906 0
M  V30 7603 C 749.167 -1.86467 -0.779384 0
M  V30 7604 C 749.488 -0.784243 -1.78535 0
M  V30 7605 O 748.758 0.187986 -1.94996 0
M  V30 7606 H 747.338 -0.68806 -0.29083 0
M  V30 7607 H 750 -1.94813 -0.0582749 0
M  V30 7608 H 749.096 -2.83701 -1.30078 0
M  V30 7609 N 749.397 0.351382 -1.53633 0
M  V30 7610 C 750.813 0.693987 -1.43722 0
M  V30 7611 C 751.013 1.9274 -0.587669 0
M  V30 7612 O 750.069 2.52387 -0.0756082 0
M  V30 7613 C 751.382 0.893937 -2.87105 0
M  V30 7614 C 752.93 0.993051 -2.96829 0
M  V30 7615 C 753.405 1.22537 -4.41303 0
M  V30 7616 N 754.896 1.29275 -4.44795 0
M  V30 7617 C 755.631 1.48988 -5.53706 0
M  V30 7618 N 755.127 1.65924 -6.72637 0
M  V30 7619 N 756.92 1.51472 -5.41306 0
M  V30 7620 H 749.071 -0.459688 -2.07366 0
M  V30 7621 H 751.334 -0.143684 -0.937048 0
M  V30 7622 H 751.04 0.0592517 -3.5165 0
M  V30 7623 H 750.914 1.79795 -3.31592 0
M  V30 7624 H 753.301 1.81827 -2.32429 0
M  V30 7625 H 753.382 0.0661119 -2.55715 0
M  V30 7626 H 753.026 0.405117 -5.06282 0
M  V30 7627 H 752.956 2.16575 -4.80003 0
M  V30 7628 H 755.447 1.17743 -3.59089 0
M  V30 7629 H 755.76 1.80578 -7.51406 0
M  V30 7630 H 754.105 1.63075 -6.75597 0
M  V30 7631 H 757.296 1.37818 -4.47352 0
M  V30 7632 H 757.469 1.66493 -6.26246 0
M  V30 7633 N 750.875 1.45233 0.611969 0
M  V30 7634 C 752.115 1.50558 1.38245 0
M  V30 7635 C 752.479 0.141959 1.91474 0
M  V30 7636 O 753.68 0.0698926 2.68709 0
M  V30 7637 C 751.951 2.55136 2.50281 0
M  V30 7638 S 753.51 2.79652 3.38142 0
M  V30 7639 H 750.328 0.532281 0.471378 0
M  V30 7640 H 752.93 1.82285 0.706578 0
M  V30 7641 H 751.634 3.52888 2.09518 0
M  V30 7642 H 751.165 2.25045 3.22674 0
M  V30 7643 H 753.18 2.12699 4.48301 0
M  V30 7644 N 752.353 -0.854086 1.3245 0
M  V30 7645 C 753.283 -1.97827 1.24044 0
M  V30 7646 C 754.264 -1.69646 0.124166 0
M  V30 7647 O 755.449 -1.91687 0.31143 0
M  V30 7648 C 752.579 -3.33673 0.963324 0
M  V30 7649 C 751.533 -3.76207 2.04089 0
M  V30 7650 C 750.859 -5.0969 1.61618 0
M  V30 7651 C 752.159 -3.91612 3.45597 0
M  V30 7652 H 753.853 -2.05118 2.18099 0
M  V30 7653 H 751.399 -0.985489 1.04996 0
M  V30 7654 H 753.352 -4.11871 0.891061 0
M  V30 7655 H 752.076 -3.26597 -0.0128649 0
M  V30 7656 H 750.735 -3.0026 2.10332 0
M  V30 7657 H 750.383 -4.99072 0.627418 0
M  V30 7658 H 750.083 -5.3912 2.33717 0
M  V30 7659 H 751.607 -5.90381 1.55829 0
M  V30 7660 H 753.021 -4.60163 3.4194 0
M  V30 7661 H 751.418 -4.3246 4.16051 0
M  V30 7662 H 752.488 -2.9451 3.85217 0
M  V30 7663 N 753.831 -1.1567 -1.07043 0
M  V30 7664 C 755.071 -0.944089 -1.81291 0
M  V30 7665 C 755.435 0.519305 -1.84844 0
M  V30 7666 O 756.636 0.850357 -2.54995 0
M  V30 7667 C 754.907 -1.54528 -3.22267 0
M  V30 7668 S 756.466 -1.47623 -4.13223 0
M  V30 7669 H 753.284 -0.339696 -0.624602 0
M  V30 7670 H 755.886 -1.47277 -1.28568 0
M  V30 7671 H 754.59 -2.60321 -3.17271 0
M  V30 7672 H 754.121 -1.0156 -3.80065 0
M  V30 7673 H 756.136 -0.471261 -4.93957 0
M  V30 7674 N 755.309 1.25446 -0.953992 0
M  V30 7675 C 756.725 1.4539 -0.658316 0
M  V30 7676 C 756.925 1.85607 0.784356 0
M  V30 7677 O 755.981 1.98568 1.55972 0
M  V30 7678 C 757.294 2.52643 -1.6307 0
M  V30 7679 C 758.842 2.66484 -1.64181 0
M  V30 7680 C 759.317 3.76921 -2.60182 0
M  V30 7681 N 760.808 3.84331 -2.58542 0
M  V30 7682 C 761.543 4.69271 -3.29503 0
M  V30 7683 N 761.039 5.58503 -4.09934 0
M  V30 7684 N 762.832 4.6323 -3.18393 0
M  V30 7685 H 754.983 0.976337 -1.8863 0
M  V30 7686 H 757.246 0.490343 -0.811337 0
M  V30 7687 H 756.952 2.29949 -2.66114 0
M  V30 7688 H 756.826 3.50547 -1.39271 0
M  V30 7689 H 759.213 2.88545 -0.618552 0
M  V30 7690 H 759.294 1.68982 -1.92038 0
M  V30 7691 H 758.938 3.55612 -3.62633 0
M  V30 7692 H 758.868 4.73906 -2.29609 0
M  V30 7693 H 761.359 3.20544 -2.0015 0
M  V30 7694 H 761.672 6.20241 -4.61 0
M  V30 7695 H 760.017 5.58214 -4.14032 0
M  V30 7696 H 763.208 3.92527 -2.5503 0
M  V30 7697 H 763.381 5.29204 -3.73961 0
M  V30 7698 N 756.787 0.722489 1.40064 0
M  V30 7699 C 758.198 0.336507 1.83642 0
M  V30 7700 C 758.549 -1.13002 1.6039 0
M  V30 7701 O 757.674 -1.87036 1.08842 0
M  V30 7702 C 758.269 0.603985 3.33373 0
M  V30 7703 C 756.828 0.271637 3.75419 0
M  V30 7704 C 755.975 0.872898 2.63203 0
M  V30 7705 H 758.926 0.921108 1.29233 0
M  V30 7706 H 758.947 -0.128471 3.80283 0
M  V30 7707 H 758.459 1.67141 3.50265 0
M  V30 7708 H 756.56 -0.790455 3.64119 0
M  V30 7709 H 756.673 0.745457 4.73265 0
M  V30 7710 H 755.037 0.300431 2.52922 0
M  V30 7711 H 755.82 1.94473 2.82905 0
M  V30 7712 N 758.265 -1.50454 0.469181 0
M  V30 7713 C 759.513 -2.01916 -0.0862982 0
M  V30 7714 C 759.834 -1.35337 -1.40388 0
M  V30 7715 O 759.104 -0.498096 -1.89462 0
M  V30 7716 H 757.684 -0.746185 -0.0348825 0
M  V30 7717 H 760.346 -1.84804 0.619167 0
M  V30 7718 H 759.442 -3.11182 -0.239189 0
M  V30 7719 N 759.743 -0.201713 -1.56304 0
M  V30 7720 C 760.989 0.435952 -1.98059 0
M  V30 7721 C 761.322 1.60811 -1.08873 0
M  V30 7722 O 760.597 1.9398 -0.142128 0
M  V30 7723 C 760.88 0.889706 -3.48936 0
M  V30 7724 C 760.733 -0.284725 -4.48898 0
M  V30 7725 C 762.052 1.7529 -4.03685 0
M  V30 7726 H 759.171 0.15699 -0.720085 0
M  V30 7727 H 761.813 -0.293965 -1.87712 0
M  V30 7728 H 759.963 1.51166 -3.57884 0
M  V30 7729 H 761.635 -0.922531 -4.51981 0
M  V30 7730 H 759.878 -0.935427 -4.23594 0
M  V30 7731 H 760.549 0.0753865 -5.51949 0
M  V30 7732 H 763.025 1.2283 -3.97558 0
M  V30 7733 H 761.901 2.03933 -5.0961 0
M  V30 7734 H 762.162 2.70939 -3.49348 0
M  V30 7735 N 761.222 1.57436 0.0718424 0
M  V30 7736 C 762.132 2.07039 1.10326 0
M  V30 7737 C 763.148 0.999918 1.424 0
M  V30 7738 O 764.324 1.31462 1.52577 0
M  V30 7739 C 761.389 2.50439 2.39752 0
M  V30 7740 C 760.45 3.71784 2.14651 0
M  V30 7741 C 759.683 4.13104 3.37906 0
M  V30 7742 O 759.906 3.54298 4.47023 0
M  V30 7743 O 758.84 5.05894 3.26121 0
M  V30 7744 H 762.666 2.95239 0.711872 0
M  V30 7745 H 760.251 1.46638 0.28597 0
M  V30 7746 H 762.133 2.78876 3.15921 0
M  V30 7747 H 760.808 1.65368 2.78271 0
M  V30 7748 H 759.715 3.48431 1.36187 0
M  V30 7749 H 761.048 4.57707 1.81012 0
M  V30 7750 N 762.7 -0.34323 1.53817 0
M  V30 7751 C 763.948 -1.0813 1.70741 0
M  V30 7752 C 764.269 -1.89165 0.473461 0
M  V30 7753 O 763.539 -1.89075 -0.512605 0
M  V30 7754 H 762.119 -0.40219 0.629486 0
M  V30 7755 H 764.781 -0.384426 1.91071 0
M  V30 7756 H 763.877 -1.7585 2.57843 0
M  V30 7757 N 764.178 -1.45556 -0.604258 0
M  V30 7758 C 765.589 -1.44171 -1.18624 0
M  V30 7759 C 765.94 -0.171081 -1.95453 0
M  V30 7760 O 765.065 0.727156 -2.03817 0
M  V30 7761 C 765.66 -2.61193 -2.15786 0
M  V30 7762 C 764.219 -2.62918 -2.69353 0
M  V30 7763 C 763.366 -2.36479 -1.4482 0
M  V30 7764 H 766.317 -1.53747 -0.393381 0
M  V30 7765 H 766.338 -2.35481 -2.98879 0
M  V30 7766 H 765.85 -3.53656 -1.59841 0
M  V30 7767 H 763.951 -1.7447 -3.29228 0
M  V30 7768 H 764.064 -3.6224 -3.13559 0
M  V30 7769 H 762.428 -1.86103 -1.73891 0
M  V30 7770 H 763.211 -3.31091 -0.907376 0
M  V30 7771 N 765.656 0.84705 -1.32902 0
M  V30 7772 C 767.072 1.13645 -1.12058 0
M  V30 7773 C 767.272 2.01281 0.093937 0
M  V30 7774 O 766.328 2.4026 0.776608 0
M  V30 7775 C 767.641 1.80644 -2.40392 0
M  V30 7776 C 769.189 1.93246 -2.46221 0
M  V30 7777 C 769.664 2.6366 -3.74496 0
M  V30 7778 N 771.155 2.71179 -3.75521 0
M  V30 7779 C 771.89 3.26332 -4.71482 0
M  V30 7780 N 771.386 3.82236 -5.77813 0
M  V30 7781 N 773.179 3.24507 -4.58968 0
M  V30 7782 H 765.33 0.263612 -2.10758 0
M  V30 7783 H 767.593 0.17944 -0.930863 0
M  V30 7784 H 767.299 1.23708 -3.29225 0
M  V30 7785 H 767.173 2.80736 -2.51926 0
M  V30 7786 H 769.56 2.49338 -1.57843 0
M  V30 7787 H 769.641 0.921272 -2.38634 0
M  V30 7788 H 769.285 2.08229 -4.63253 0
M  V30 7789 H 769.215 3.65234 -3.79357 0
M  V30 7790 H 771.706 2.31527 -2.9867 0
M  V30 7791 H 772.019 4.22499 -6.47082 0
M  V30 7792 H 770.364 3.80546 -5.81558 0
M  V30 7793 H 773.555 2.80085 -3.7506 0
M  V30 7794 H 773.728 3.67188 -5.33926 0
M  V30 7795 N 767.134 1.16236 1.06428 0
M  V30 7796 C 768.374 0.95369 1.80787 0
M  V30 7797 C 768.738 -0.509495 1.85117 0
M  V30 7798 O 769.939 -0.836822 2.55442 0
M  V30 7799 C 768.21 1.56235 3.21443 0
M  V30 7800 S 769.769 1.49812 4.12434 0
M  V30 7801 H 766.587 0.343004 0.622792 0
M  V30 7802 H 769.189 1.47957 1.27785 0
M  V30 7803 H 767.893 2.62 3.15886 0
M  V30 7804 H 767.424 1.03574 3.79521 0
M  V30 7805 H 769.439 0.49745 4.937 0
M  V30 7806 N 768.612 -1.24939 0.960631 0
M  V30 7807 C 769.889 -1.88118 0.535807 0
M  V30 7808 C 770.269 -1.86605 -0.987009 0
M  V30 7809 O 769.617 -1.33375 -1.85536 0
M  V30 7810 C 769.827 -3.30565 1.11927 0
M  V30 7811 C 771.175 -4.07296 1.19981 0
M  V30 7812 O 772.199 -3.39709 1.07126 0
M  V30 7813 O 771.058 -5.28206 1.40218 0
M  V30 7814 H 768.152 -0.807698 0.177631 0
M  V30 7815 H 770.698 -1.32964 1.05445 0
M  V30 7816 H 769.47 -3.26128 2.16231 0
M  V30 7817 H 769.093 -3.93284 0.584245 0
M  V30 7818 N 770.09 -0.729906 -1.39679 0
M  V30 7819 C 771.318 -0.285709 -2.04918 0
M  V30 7820 C 771.733 1.07765 -1.55023 0
M  V30 7821 O 771.09 1.67999 -0.712923 0
M  V30 7822 C 771.141 -0.272793 -3.60469 0
M  V30 7823 O 770.862 -1.58233 -4.08527 0
M  V30 7824 C 772.363 0.188199 -4.429 0
M  V30 7825 H 769.583 -0.125758 -0.65911 0
M  V30 7826 H 772.127 -0.992129 -1.78821 0
M  V30 7827 H 770.282 0.384699 -3.85485 0
M  V30 7828 H 770.696 -1.49245 -5.02818 0
M  V30 7829 H 772.17 0.14608 -5.51807 0
M  V30 7830 H 772.647 1.2326 -4.21549 0
M  V30 7831 H 773.253 -0.439541 -4.23023 0
M  V30 7832 N 771.568 1.50203 -0.477153 0
M  V30 7833 C 772.808 2.04265 0.0744065 0
M  V30 7834 C 773.172 1.35082 1.36443 0
M  V30 7835 O 774.373 1.79732 1.99875 0
M  V30 7836 C 772.644 3.56539 0.247874 0
M  V30 7837 S 774.203 4.32219 0.757117 0
M  V30 7838 H 771.021 0.71088 0.0130891 0
M  V30 7839 H 773.623 1.8453 -0.645678 0
M  V30 7840 H 772.327 4.04443 -0.696709 0
M  V30 7841 H 771.858 3.80638 0.993896 0
M  V30 7842 H 773.873 4.52789 2.0297 0
M  V30 7843 N 773.046 0.209999 1.56195 0
M  V30 7844 C 774.462 -0.145598 1.58934 0
M  V30 7845 C 774.662 -1.59868 1.22656 0
M  V30 7846 O 773.718 -2.33689 0.956336 0
M  V30 7847 C 775.031 0.170243 3.00218 0
M  V30 7848 C 776.579 0.111548 3.12801 0
M  V30 7849 C 777.054 0.400904 4.56242 0
M  V30 7850 N 778.545 0.350058 4.61875 0
M  V30 7851 C 779.28 0.547598 5.70779 0
M  V30 7852 N 778.776 0.806291 6.88092 0
M  V30 7853 N 780.569 0.480827 5.6004 0
M  V30 7854 H 772.72 1.15804 1.78054 0
M  V30 7855 H 774.983 0.463326 0.827063 0
M  V30 7856 H 774.689 1.17833 3.31373 0
M  V30 7857 H 774.563 -0.520208 3.73596 0
M  V30 7858 H 776.95 -0.887162 2.81449 0
M  V30 7859 H 777.031 0.835302 2.41777 0
M  V30 7860 H 776.675 1.397 4.8831 0
M  V30 7861 H 776.605 -0.34391 5.25476 0
M  V30 7862 H 779.096 0.157334 3.77572 0
M  V30 7863 H 779.409 0.945433 7.66995 0
M  V30 7864 H 777.754 0.843355 6.89864 0
M  V30 7865 H 780.945 0.279037 4.67268 0
M  V30 7866 H 781.118 0.638189 6.4485 0
M  V30 7867 N 774.524 -1.57472 -0.0634922 0
M  V30 7868 C 775.749 -1.92273 -0.77756 0
M  V30 7869 C 776.174 -0.807141 -1.69902 0
M  V30 7870 O 775.532 0.239523 -1.79711 0
M  V30 7871 C 775.58 -3.26054 -1.54017 0
M  V30 7872 O 774.684 -3.15873 -2.65138 0
M  V30 7873 H 774.025 -0.629389 -0.211579 0
M  V30 7874 H 776.555 -2.04579 -0.0292523 0
M  V30 7875 H 776.565 -3.60127 -1.91763 0
M  V30 7876 H 775.24 -4.06824 -0.864128 0
M  V30 7877 H 773.817 -2.93373 -2.30189 0
M  V30 7878 N 776.003 0.335068 -1.53997 0
M  V30 7879 C 777.251 1.07223 -1.71312 0
M  V30 7880 C 777.572 1.88911 -0.483486 0
M  V30 7881 O 776.842 1.89344 0.50257 0
M  V30 7882 H 775.422 0.398846 -0.63161 0
M  V30 7883 H 778.084 0.374288 -1.91272 0
M  V30 7884 H 777.18 1.7448 -2.58772 0
M  V30 7885 N 777.481 1.45874 0.596531 0
M  V30 7886 C 778.728 1.50467 1.35521 0
M  V30 7887 C 779.056 0.150802 1.93915 0
M  V30 7888 O 778.311 -0.851913 1.76184 0
M  V30 7889 C 778.61 2.54034 2.51399 0
M  V30 7890 C 778.276 3.9844 2.11085 0
M  V30 7891 C 776.938 4.37758 1.99804 0
M  V30 7892 C 779.29 4.89209 1.79788 0
M  V30 7893 C 776.618 5.65727 1.55465 0
M  V30 7894 C 778.97 6.17602 1.36931 0
M  V30 7895 C 777.634 6.5584 1.24218 0
M  V30 7896 H 776.904 0.550597 0.495907 0
M  V30 7897 H 779.551 1.79279 0.673145 0
M  V30 7898 H 777.856 2.18832 3.24992 0
M  V30 7899 H 779.553 2.54822 3.09624 0
M  V30 7900 H 776.143 3.67353 2.20794 0
M  V30 7901 H 780.327 4.59562 1.87395 0
M  V30 7902 H 775.583 5.94139 1.44253 0
M  V30 7903 H 779.757 6.87373 1.11764 0
M  V30 7904 H 777.384 7.54897 0.896353 0
M  V30 7905 N 778.959 -0.83999 1.33349 0
M  V30 7906 C 780.189 -1.62492 1.27593 0
M  V30 7907 C 780.597 -1.88559 -0.155597 0
M  V30 7908 O 779.94 -1.46537 -1.10782 0
M  V30 7909 C 780.002 -2.99984 1.98116 0
M  V30 7910 C 779.666 -2.96892 3.47425 0
M  V30 7911 C 780.663 -2.72688 4.42648 0
M  V30 7912 C 778.348 -3.17063 3.89585 0
M  V30 7913 C 780.342 -2.68681 5.78004 0
M  V30 7914 C 778.029 -3.12682 5.25046 0
M  V30 7915 C 779.027 -2.88522 6.19067 0
M  V30 7916 O 778.715 -2.84042 7.52047 0
M  V30 7917 H 778.447 -0.512358 0.440982 0
M  V30 7918 H 781.001 -1.0545 1.76265 0
M  V30 7919 H 779.231 -3.58875 1.44034 0
M  V30 7920 H 780.92 -3.6084 1.85875 0
M  V30 7921 H 781.686 -2.56856 4.114 0
M  V30 7922 H 777.565 -3.34889 3.16813 0
M  V30 7923 H 781.109 -2.49743 6.51363 0
M  V30 7924 H 777.006 -3.28063 5.55918 0
M  V30 7925 H 777.774 -2.99892 7.61582 0
M  V30 7926 N 780.437 -1.16799 -1.0581 0
M  V30 7927 C 781.662 -0.977402 -1.82925 0
M  V30 7928 C 782.087 0.469514 -1.82146 0
M  V30 7929 O 781.445 1.33576 -1.22585 0
M  V30 7930 C 781.493 -1.51543 -3.27211 0
M  V30 7931 O 780.597 -0.725021 -4.05977 0
M  V30 7932 H 779.938 -0.347474 -0.565825 0
M  V30 7933 H 782.468 -1.55151 -1.33376 0
M  V30 7934 H 782.478 -1.53502 -3.78023 0
M  V30 7935 H 781.153 -2.56872 -3.27093 0
M  V30 7936 H 779.73 -0.77634 -3.64729 0
M  V30 7937 N 781.915 1.24427 -0.967243 0
M  V30 7938 C 783.162 1.92487 -0.62888 0
M  V30 7939 C 783.49 1.75623 0.835871 0
M  V30 7940 O 782.745 1.1027 1.61675 0
M  V30 7941 C 783.044 3.44568 -0.949096 0
M  V30 7942 C 782.71 3.816 -2.40192 0
M  V30 7943 C 781.372 3.9142 -2.799 0
M  V30 7944 C 783.724 3.99715 -3.34481 0
M  V30 7945 C 781.052 4.16771 -4.12939 0
M  V30 7946 C 783.404 4.26562 -4.67148 0
M  V30 7947 C 782.068 4.34601 -5.06634 0
M  V30 7948 H 781.338 0.704361 -0.230124 0
M  V30 7949 H 783.985 1.4772 -1.21864 0
M  V30 7950 H 782.29 3.90819 -0.277085 0
M  V30 7951 H 783.987 3.95436 -0.665692 0
M  V30 7952 H 780.577 3.74522 -2.08402 0
M  V30 7953 H 784.761 3.91531 -3.04987 0
M  V30 7954 H 780.017 4.21214 -4.43158 0
M  V30 7955 H 784.191 4.39523 -5.40178 0
M  V30 7956 H 781.818 4.53998 -6.09746 0
M  V30 7957 N 783.393 0.737304 1.3929 0
M  V30 7958 C 784.804 0.355966 1.83275 0
M  V30 7959 C 785.155 -1.11295 1.6158 0
M  V30 7960 O 784.28 -1.85871 1.10819 0
M  V30 7961 C 784.875 0.63931 3.32713 0
M  V30 7962 C 783.434 0.31144 3.75109 0
M  V30 7963 C 782.581 0.900765 2.62262 0
M  V30 7964 H 785.532 0.934763 1.28249 0
M  V30 7965 H 785.553 -0.0881293 3.80398 0
M  V30 7966 H 785.065 1.70847 3.48472 0
M  V30 7967 H 783.166 -0.751791 3.64937 0
M  V30 7968 H 783.279 0.795611 4.72448 0
M  V30 7969 H 781.643 0.327239 2.52589 0
M  V30 7970 H 782.426 1.97463 2.80826 0
M  V30 7971 N 784.871 -1.49948 0.485112 0
M  V30 7972 C 786.12 -2.01589 -0.066765 0
M  V30 7973 C 786.433 -1.371 -1.39509 0
M  V30 7974 O 787.639 -1.79978 -2.03274 0
M  V30 7975 C 786.095 -3.59501 -0.169476 0
M  V30 7976 C 785.703 -4.32955 1.15126 0
M  V30 7977 C 787.447 -4.19138 -0.672564 0
M  V30 7978 C 785.354 -5.82684 1.01158 0
M  V30 7979 H 784.284 -0.753453 -0.0287259 0
M  V30 7980 H 786.935 -1.72632 0.622132 0
M  V30 7981 H 785.317 -3.85106 -0.922471 0
M  V30 7982 H 786.491 -4.19064 1.9163 0
M  V30 7983 H 784.806 -3.84991 1.58654 0
M  V30 7984 H 787.403 -5.28767 -0.794325 0
M  V30 7985 H 787.746 -3.81447 -1.66745 0
M  V30 7986 H 788.279 -3.97793 0.0234415 0
M  V30 7987 H 785.018 -6.24873 1.98025 0
M  V30 7988 H 784.538 -5.99112 0.287151 0
M  V30 7989 H 786.217 -6.43376 0.683847 0
M  V30 7990 N 786.349 -0.21828 -1.56081 0
M  V30 7991 C 787.589 0.416193 -2.00118 0
M  V30 7992 C 787.953 1.5718 -1.10265 0
M  V30 7993 O 789.154 2.27206 -1.43635 0
M  V30 7994 C 787.425 0.842781 -3.47321 0
M  V30 7995 S 788.984 1.47182 -4.1338 0
M  V30 7996 H 785.802 0.132219 -0.698598 0
M  V30 7997 H 788.404 -0.326799 -1.92749 0
M  V30 7998 H 787.108 -0.00799925 -4.10399 0
M  V30 7999 H 786.639 1.61867 -3.58556 0
M  V30 8000 H 788.654 2.76087 -4.12299 0
M  V30 8001 N 787.827 1.57504 0.0551401 0
M  V30 8002 C 788.759 2.0158 1.09078 0
M  V30 8003 C 789.772 0.92434 1.34014 0
M  V30 8004 O 790.961 1.20202 1.31961 0
M  V30 8005 C 788.061 2.35385 2.43818 0
M  V30 8006 C 787.234 3.66588 2.38605 0
M  V30 8007 C 786.293 3.87874 3.55585 0
M  V30 8008 O 785.319 4.59259 3.36258 0
M  V30 8009 N 786.521 3.31503 4.76536 0
M  V30 8010 H 789.286 2.91039 0.71529 0
M  V30 8011 H 786.847 1.60058 0.243532 0
M  V30 8012 H 788.839 2.46784 3.20749 0
M  V30 8013 H 787.409 1.51731 2.73307 0
M  V30 8014 H 786.629 3.65787 1.46947 0
M  V30 8015 H 787.917 4.52706 2.32239 0
M  V30 8016 H 787.315 2.73592 4.9514 0
M  V30 8017 H 785.872 3.48324 5.50921 0
M  V30 8018 N 789.305 -0.326896 1.54172 0
M  V30 8019 C 790.268 -1.38515 1.8261 0
M  V30 8020 C 791.268 -1.44872 0.697771 0
M  V30 8021 O 792.458 -1.44957 0.966078 0
M  V30 8022 C 789.59 -2.77281 1.98313 0
M  V30 8023 H 790.783 -1.14556 2.77159 0
M  V30 8024 H 788.336 -0.562199 1.45839 0
M  V30 8025 H 789.071 -3.065 1.05964 0
M  V30 8026 H 788.856 -2.74061 2.80416 0
M  V30 8027 H 790.346 -3.53845 2.21773 0
M  V30 8028 N 790.784 -1.46188 -0.588786 0
M  V30 8029 C 792.024 -1.52738 -1.35833 0
M  V30 8030 C 792.388 -0.172403 -1.91224 0
M  V30 8031 O 793.589 -0.112633 -2.68564 0
M  V30 8032 C 791.86 -2.59085 -2.4619 0
M  V30 8033 S 793.419 -2.84997 -3.3365 0
M  V30 8034 H 790.237 -0.539713 -0.462851 0
M  V30 8035 H 792.839 -1.83386 -0.677489 0
M  V30 8036 H 791.543 -3.56177 -2.03878 0
M  V30 8037 H 791.074 -2.3015 -3.19053 0
M  V30 8038 H 793.089 -2.19804 -4.4486 0
M  V30 8039 N 792.262 0.832906 -1.33792 0
M  V30 8040 C 793.508 1.59053 -1.26782 0
M  V30 8041 C 793.863 1.91705 0.163399 0
M  V30 8042 O 793.156 1.5638 1.10706 0
M  V30 8043 C 793.35 2.9047 -2.08235 0
M  V30 8044 C 793.179 2.70656 -3.59132 0
M  V30 8045 C 791.949 2.67905 -4.28433 0
M  V30 8046 C 794.147 2.42871 -4.53341 0
M  V30 8047 N 792.129 2.39531 -5.65242 0
M  V30 8048 C 793.5 2.24101 -5.78082 0
M  V30 8049 C 795.555 2.28517 -4.42362 0
M  V30 8050 C 794.258 1.92432 -6.93082 0
M  V30 8051 C 796.284 1.98242 -5.57184 0
M  V30 8052 C 795.646 1.80288 -6.80937 0
M  V30 8053 H 791.745 0.584823 -0.51914 0
M  V30 8054 H 794.329 0.977252 -1.68398 0
M  V30 8055 H 792.5 3.49739 -1.6893 0
M  V30 8056 H 794.232 3.55744 -1.92947 0
M  V30 8057 H 790.987 2.81624 -3.80768 0
M  V30 8058 H 791.411 2.28211 -6.37377 0
M  V30 8059 H 796.053 2.41107 -3.47314 0
M  V30 8060 H 793.771 1.78579 -7.88121 0
M  V30 8061 H 797.357 1.87882 -5.50628 0
M  V30 8062 H 796.237 1.57199 -7.68283 0
M  V30 8063 N 793.74 1.17359 1.05189 0
M  V30 8064 C 794.98 0.972812 1.79766 0
M  V30 8065 C 795.344 -0.489832 1.85647 0
M  V30 8066 O 796.545 -0.809682 2.56315 0
M  V30 8067 C 794.816 1.59636 3.19767 0
M  V30 8068 S 796.375 1.54178 4.10822 0
M  V30 8069 H 793.193 0.34959 0.619119 0
M  V30 8070 H 795.795 1.49304 1.26209 0
M  V30 8071 H 794.499 2.65336 3.13089 0
M  V30 8072 H 794.03 1.07594 3.78401 0
M  V30 8073 H 796.045 0.549785 4.93145 0
M  V30 8074 N 795.218 -1.23913 0.973828 0
M  V30 8075 C 796.443 -1.96735 0.656511 0
M  V30 8076 C 796.868 -1.71682 -0.768571 0
M  V30 8077 O 796.226 -0.984267 -1.52256 0
M  V30 8078 C 796.274 -3.48004 0.944735 0
M  V30 8079 O 795.378 -4.12387 0.0333357 0
M  V30 8080 H 794.719 -0.616119 0.247575 0
M  V30 8081 H 797.249 -1.57525 1.30564 0
M  V30 8082 H 797.259 -3.98424 0.87876 0
M  V30 8083 H 795.934 -3.65567 1.98328 0
M  V30 8084 H 794.511 -3.72585 0.153157 0
M  V30 8085 N 796.696 -0.74468 -1.38897 0
M  V30 8086 C 797.659 -0.11945 -2.28889 0
M  V30 8087 C 798.659 0.656942 -1.46768 0
M  V30 8088 O 799.849 0.484525 -1.67326 0
M  V30 8089 C 796.981 0.839635 -3.30398 0
M  V30 8090 H 798.174 -0.912414 -2.85683 0
M  V30 8091 H 795.727 -0.511119 -1.47707 0
M  V30 8092 H 796.462 1.6586 -2.78677 0
M  V30 8093 H 796.247 0.285432 -3.9106 0
M  V30 8094 H 797.737 1.27337 -3.97712 0
M  V30 8095 N 798.174 1.49689 -0.493057 0
M  V30 8096 C 799.104 2.31826 0.279073 0
M  V30 8097 C 800.085 1.39733 0.969987 0
M  V30 8098 O 801.27 1.68646 0.962925 0
M  V30 8099 C 798.4 3.20046 1.34862 0
M  V30 8100 C 797.354 4.20869 0.77805 0
M  V30 8101 C 796.68 4.97971 1.94753 0
M  V30 8102 C 797.98 5.21813 -0.225543 0
M  V30 8103 H 799.674 2.96627 -0.406512 0
M  V30 8104 H 797.22 1.42647 -0.196943 0
M  V30 8105 H 799.173 3.76315 1.89645 0
M  V30 8106 H 797.897 2.53172 2.06328 0
M  V30 8107 H 796.556 3.65733 0.252036 0
M  V30 8108 H 796.204 4.27552 2.64969 0
M  V30 8109 H 795.904 5.66186 1.57187 0
M  V30 8110 H 797.428 5.57082 2.49984 0
M  V30 8111 H 798.842 5.72823 0.233864 0
M  V30 8112 H 797.239 5.97872 -0.516622 0
M  V30 8113 H 798.309 4.71209 -1.14412 0
M  V30 8114 N 799.652 0.226554 1.55963 0
M  V30 8115 C 800.9 -0.402991 1.98041 0
M  V30 8116 C 801.221 -1.59938 1.11557 0
M  V30 8117 O 800.491 -1.9494 0.193719 0
M  V30 8118 H 799.071 -0.15188 0.731397 0
M  V30 8119 H 801.733 0.320613 1.92245 0
M  V30 8120 H 800.829 -0.725937 3.0354 0
M  V30 8121 N 801.13 -1.57531 -0.0467866 0
M  V30 8122 C 802.355 -1.93087 -0.757123 0
M  V30 8123 C 802.78 -0.825116 -1.69037 0
M  V30 8124 O 802.138 0.220449 -1.79955 0
M  V30 8125 C 802.186 -3.27669 -1.5055 0
M  V30 8126 O 801.29 -3.18667 -2.61773 0
M  V30 8127 H 800.631 -0.631597 -0.204892 0
M  V30 8128 H 803.161 -2.04599 -0.00755232 0
M  V30 8129 H 803.171 -3.6214 -1.87932 0
M  V30 8130 H 801.846 -4.07717 -0.820931 0
M  V30 8131 H 800.423 -2.95798 -2.27064 0
M  V30 8132 N 802.608 0.318715 -1.54344 0
M  V30 8133 C 803.838 1.07394 -1.76494 0
M  V30 8134 C 804.246 1.82031 -0.515881 0
M  V30 8135 O 803.589 1.7609 0.52325 0
M  V30 8136 C 803.651 2.11401 -2.90775 0
M  V30 8137 C 803.315 1.56118 -4.29507 0
M  V30 8138 C 804.312 1.00043 -5.10184 0
M  V30 8139 C 801.997 1.60215 -4.76063 0
M  V30 8140 C 803.991 0.487993 -6.35529 0
M  V30 8141 C 801.678 1.08584 -6.01376 0
M  V30 8142 C 802.676 0.529714 -6.80943 0
M  V30 8143 O 802.364 0.0211823 -8.03897 0
M  V30 8144 H 802.096 0.325061 -0.592715 0
M  V30 8145 H 804.65 0.36901 -2.02058 0
M  V30 8146 H 802.88 2.85524 -2.60793 0
M  V30 8147 H 804.569 2.72683 -3.00664 0
M  V30 8148 H 805.335 0.961811 -4.75367 0
M  V30 8149 H 801.214 2.02441 -4.14172 0
M  V30 8150 H 804.758 0.0532608 -6.9758 0
M  V30 8151 H 800.655 1.12155 -6.35682 0
M  V30 8152 H 801.423 0.136151 -8.18387 0
M  V30 8153 N 804.086 1.46499 0.581025 0
M  V30 8154 C 805.018 1.53225 1.70455 0
M  V30 8155 C 806.031 0.420443 1.57277 0
M  V30 8156 O 807.22 0.688888 1.64671 0
M  V30 8157 C 804.32 1.39803 3.08721 0
M  V30 8158 C 803.493 2.65132 3.47884 0
M  V30 8159 C 802.552 2.45886 4.65217 0
M  V30 8160 O 801.578 3.19615 4.70993 0
M  V30 8161 N 802.78 1.5216 5.60203 0
M  V30 8162 H 805.545 2.50098 1.65139 0
M  V30 8163 H 803.106 1.42576 0.76705 0
M  V30 8164 H 805.098 1.24697 3.8501 0
M  V30 8165 H 803.668 0.51104 3.08394 0
M  V30 8166 H 802.888 2.95169 2.61284 0
M  V30 8167 H 804.176 3.48385 3.70817 0
M  V30 8168 H 803.574 0.913646 5.58273 0
M  V30 8169 H 802.131 1.43017 6.35916 0
M  V30 8170 N 805.565 -0.825799 1.34232 0
M  V30 8171 C 806.498 -1.94155 1.19914 0
M  V30 8172 C 807.476 -1.62343 0.0914533 0
M  V30 8173 O 808.66 -1.86752 0.256082 0
M  V30 8174 C 805.787 -3.28064 0.842138 0
M  V30 8175 C 804.833 -3.78839 1.95917 0
M  V30 8176 S 805.666 -3.98943 3.57218 0
M  V30 8177 C 806.822 -5.35783 3.23554 0
M  V30 8178 H 807.055 -2.06003 2.14359 0
M  V30 8179 H 804.588 -0.981053 1.19225 0
M  V30 8180 H 806.546 -4.05434 0.642952 0
M  V30 8181 H 805.207 -3.13988 -0.0839363 0
M  V30 8182 H 804.4 -4.75771 1.66306 0
M  V30 8183 H 804.002 -3.08406 2.11569 0
M  V30 8184 H 806.294 -6.19094 2.7519 0
M  V30 8185 H 807.237 -5.70376 4.19615 0
M  V30 8186 H 807.645 -5.01158 2.5981 0
M  V30 8187 N 807.043 -1.17915 -1.04565 0
M  V30 8188 C 808.454 -0.976383 -1.59134 0
M  V30 8189 C 808.805 0.475267 -1.90357 0
M  V30 8190 O 807.93 1.35172 -1.6899 0
M  V30 8191 C 808.525 -1.76604 -2.89131 0
M  V30 8192 C 807.084 -1.60777 -3.40335 0
M  V30 8193 C 806.231 -1.76369 -2.13985 0
M  V30 8194 H 809.182 -1.32532 -0.872985 0
M  V30 8195 H 809.203 -1.25215 -3.59307 0
M  V30 8196 H 808.715 -2.82252 -2.66375 0
M  V30 8197 H 806.816 -0.576436 -3.68114 0
M  V30 8198 H 806.929 -2.40268 -4.14497 0
M  V30 8199 H 805.293 -1.19268 -2.25049 0
M  V30 8200 H 806.076 -2.83441 -1.9369 0
M  V30 8201 N 808.521 1.23394 -0.980386 0
M  V30 8202 C 809.761 1.93543 -0.657288 0
M  V30 8203 C 810.125 1.74791 0.794477 0
M  V30 8204 O 811.326 2.39089 1.2284 0
M  V30 8205 C 809.597 3.42025 -1.03701 0
M  V30 8206 S 811.156 4.30871 -0.830379 0
M  V30 8207 H 807.974 0.669012 -0.240717 0
M  V30 8208 H 810.576 1.49478 -1.26002 0
M  V30 8209 H 809.28 3.53183 -2.09022 0
M  V30 8210 H 808.811 3.91091 -0.425559 0
M  V30 8211 H 810.826 4.95377 0.285719 0
M  V30 8212 N 809.999 0.752036 1.385 0
M  V30 8213 C 811.224 0.316993 2.04963 0
M  V30 8214 C 811.649 -1.04582 1.56346 0
M  V30 8215 O 811.007 -1.66616 0.714755 0
M  V30 8216 C 811.055 0.347235 3.58924 0
M  V30 8217 O 810.159 -0.659296 4.07096 0
M  V30 8218 H 809.5 0.140652 0.648932 0
M  V30 8219 H 812.03 1.02272 1.77205 0
M  V30 8220 H 812.04 0.19757 4.07521 0
M  V30 8221 H 810.715 1.34157 3.93668 0
M  V30 8222 H 809.292 -0.474371 3.6987 0
M  V30 8223 N 811.477 -1.49425 0.500989 0
M  V30 8224 C 812.702 -2.07356 -0.0425154 0
M  V30 8225 C 813.127 -1.35887 -1.30063 0
M  V30 8226 O 812.485 -0.41561 -1.76472 0
M  V30 8227 C 812.533 -3.59518 -0.279188 0
M  V30 8228 O 811.637 -3.89542 -1.3539 0
M  V30 8229 H 810.978 -0.663482 0.0262207 0
M  V30 8230 H 813.508 -1.92231 0.700607 0
M  V30 8231 H 813.518 -4.04791 -0.5107 0
M  V30 8232 H 812.193 -4.10946 0.640009 0
M  V30 8233 H 810.77 -3.56079 -1.10734 0
M  V30 8234 N 812.955 -0.234822 -1.55841 0
M  V30 8235 C 814.201 0.393843 -1.98939 0
M  V30 8236 C 814.534 1.58466 -1.1226 0
M  V30 8237 O 813.809 1.93635 -0.183242 0
M  V30 8238 C 814.092 0.815492 -3.50745 0
M  V30 8239 C 813.945 -0.379878 -4.48193 0
M  V30 8240 C 815.264 1.66687 -4.07312 0
M  V30 8241 H 812.383 0.141681 -0.723253 0
M  V30 8242 H 815.025 -0.333716 -1.87046 0
M  V30 8243 H 813.175 1.43541 -3.6101 0
M  V30 8244 H 814.847 -1.0182 -4.49923 0
M  V30 8245 H 813.09 -1.02507 -4.21515 0
M  V30 8246 H 813.761 -0.0417069 -5.51984 0
M  V30 8247 H 816.237 1.14369 -4.00074 0
M  V30 8248 H 815.113 1.93078 -5.13821 0
M  V30 8249 H 815.374 2.63468 -3.55017 0
M  V30 8250 N 814.433 1.57553 0.0384317 0
M  V30 8251 C 815.661 1.93093 0.743141 0
M  V30 8252 C 816.076 0.833787 1.69391 0
M  V30 8253 O 815.433 -0.190532 1.81503 0
M  V30 8254 C 815.484 3.28533 1.50826 0
M  V30 8255 O 815.205 4.34032 0.595665 0
M  V30 8256 C 816.706 3.78297 2.31098 0
M  V30 8257 H 813.926 0.637486 0.20941 0
M  V30 8258 H 816.47 2.045 -0.00125154 0
M  V30 8259 H 814.625 3.18552 2.20462 0
M  V30 8260 H 815.039 5.12155 1.13124 0
M  V30 8261 H 816.513 4.75602 2.80191 0
M  V30 8262 H 816.99 3.09008 3.12107 0
M  V30 8263 H 817.596 3.91331 1.66555 0
M  V30 8264 N 815.911 -0.310526 1.54511 0
M  V30 8265 C 817.159 -1.04484 1.72996 0
M  V30 8266 C 817.48 -1.88118 0.513479 0
M  V30 8267 O 816.75 -1.90119 -0.472384 0
M  V30 8268 H 815.33 -0.388747 0.637875 0
M  V30 8269 H 817.992 -0.343811 1.91844 0
M  V30 8270 H 817.088 -1.70341 2.61515 0
M  V30 8271 N 817.389 -1.46805 -0.573248 0
M  V30 8272 C 818.321 -1.54127 -1.6964 0
M  V30 8273 C 819.334 -0.428778 -1.57052 0
M  V30 8274 O 820.523 -0.697612 -1.64303 0
M  V30 8275 C 817.623 -1.41438 -3.07975 0
M  V30 8276 C 816.796 -2.66974 -3.46474 0
M  V30 8277 C 815.855 -2.48349 -4.63906 0
M  V30 8278 O 814.881 -3.22109 -4.69292 0
M  V30 8279 N 816.083 -1.55129 -5.59388 0
M  V30 8280 H 818.848 -2.50971 -1.6381 0
M  V30 8281 H 816.409 -1.42981 -0.759479 0
M  V30 8282 H 818.401 -1.26737 -3.84343 0
M  V30 8283 H 816.971 -0.527388 -3.08119 0
M  V30 8284 H 816.191 -2.9655 -2.59715 0
M  V30 8285 H 817.479 -3.50347 -3.68964 0
M  V30 8286 H 816.877 -0.94324 -5.57781 0
M  V30 8287 H 815.434 -1.46387 -6.35149 0
M  V30 8288 N 818.867 0.818669 -1.34668 0
M  V30 8289 C 820.107 1.58862 -1.28617 0
M  V30 8290 C 820.471 1.91483 0.140845 0
M  V30 8291 O 821.672 2.66821 0.325583 0
M  V30 8292 C 819.943 2.85044 -2.15604 0
M  V30 8293 S 821.502 3.75553 -2.26948 0
M  V30 8294 H 818.32 0.544454 -0.457265 0
M  V30 8295 H 820.922 0.966679 -1.69928 0
M  V30 8296 H 819.626 2.59083 -3.18284 0
M  V30 8297 H 819.157 3.52231 -1.75205 0
M  V30 8298 H 821.172 4.74682 -1.44539 0
M  V30 8299 N 820.346 1.18468 1.03938 0
M  V30 8300 C 821.256 0.927889 2.1547 0
M  V30 8301 C 822.272 -0.108447 1.73662 0
M  V30 8302 O 823.448 0.0737636 2.01265 0
M  V30 8303 C 820.513 0.458494 3.43655 0
M  V30 8304 C 819.574 1.56295 3.99838 0
M  V30 8305 C 818.807 1.11586 5.21904 0
M  V30 8306 O 819.03 -0.0249057 5.70395 0
M  V30 8307 O 817.964 1.91412 5.70653 0
M  V30 8308 H 821.79 1.86116 2.39989 0
M  V30 8309 H 819.375 0.966607 1.13917 0
M  V30 8310 H 821.257 0.204861 4.20902 0
M  V30 8311 H 819.932 -0.446464 3.20606 0
M  V30 8312 H 818.839 1.87061 3.23974 0
M  V30 8313 H 820.172 2.44408 4.2723 0
M  V30 8314 N 821.824 -1.22873 0.986916 0
M  V30 8315 C 823.064 -1.93192 0.667543 0
M  V30 8316 C 823.428 -1.7521 -0.785196 0
M  V30 8317 O 824.629 -2.39737 -1.2157 0
M  V30 8318 C 822.9 -3.4147 1.05513 0
M  V30 8319 S 824.459 -4.30425 0.853218 0
M  V30 8320 H 821.277 -0.667726 0.244261 0
M  V30 8321 H 823.879 -1.48808 1.26793 0
M  V30 8322 H 822.583 -3.52069 2.10892 0
M  V30 8323 H 822.114 -3.9086 0.446293 0
M  V30 8324 H 824.129 -4.95521 -0.259444 0
M  V30 8325 N 823.302 -0.75937 -1.38099 0
M  V30 8326 C 824.718 -0.437606 -1.53483 0
M  V30 8327 C 824.918 1.04849 -1.72072 0
M  V30 8328 O 823.974 1.83448 -1.73502 0
M  V30 8329 C 825.287 -1.24189 -2.73857 0
M  V30 8330 C 826.835 -1.23255 -2.8771 0
M  V30 8331 C 827.31 -2.01992 -4.11051 0
M  V30 8332 N 828.801 -1.99282 -4.1814 0
M  V30 8333 C 829.536 -2.56996 -5.12583 0
M  V30 8334 N 829.032 -3.23446 -6.12662 0
M  V30 8335 N 830.825 -2.46894 -5.04975 0
M  V30 8336 H 822.976 -1.72242 -1.24283 0
M  V30 8337 H 825.239 -0.730507 -0.604205 0
M  V30 8338 H 824.945 -2.29449 -2.66545 0
M  V30 8339 H 824.819 -0.862672 -3.67203 0
M  V30 8340 H 827.206 -0.187988 -2.94501 0
M  V30 8341 H 827.287 -1.65132 -1.95359 0
M  V30 8342 H 826.931 -3.06462 -4.05023 0
M  V30 8343 H 826.861 -1.57505 -5.02494 0
M  V30 8344 H 829.352 -1.50893 -3.46467 0
M  V30 8345 H 829.665 -3.6489 -6.81231 0
M  V30 8346 H 828.01 -3.27543 -6.12977 0
M  V30 8347 H 831.201 -1.94604 -4.25731 0
M  V30 8348 H 831.374 -2.92168 -5.78396 0
M  V30 8349 N 824.78 1.49157 -0.508906 0
M  V30 8350 C 826.191 1.86593 -0.0630975 0
M  V30 8351 C 826.542 1.42051 1.35337 0
M  V30 8352 O 825.667 0.801866 2.00995 0
M  V30 8353 C 826.262 3.38629 -0.107729 0
M  V30 8354 C 824.821 3.75336 0.282776 0
M  V30 8355 C 823.968 2.7317 -0.4768 0
M  V30 8356 H 826.919 1.41362 -0.72128 0
M  V30 8357 H 826.94 3.74271 0.685689 0
M  V30 8358 H 826.452 3.71017 -1.13876 0
M  V30 8359 H 824.553 3.48558 1.31675 0
M  V30 8360 H 824.666 4.79081 -0.0421728 0
M  V30 8361 H 823.03 2.54591 0.0743552 0
M  V30 8362 H 823.813 3.08403 -1.50807 0
M  V30 8363 N 826.258 0.243083 1.55714 0
M  V30 8364 C 827.506 -0.381964 1.98458 0
M  V30 8365 C 827.827 -1.58745 1.13247 0
M  V30 8366 O 827.097 -1.94723 0.214384 0
M  V30 8367 H 825.677 -0.144114 0.732967 0
M  V30 8368 H 828.339 0.340985 1.91894 0
M  V30 8369 H 827.435 -0.693702 3.04293 0
M  V30 8370 N 827.736 -1.57571 -0.0300757 0
M  V30 8371 C 828.982 -1.89506 -0.722159 0
M  V30 8372 C 829.315 -0.840699 -1.7506 0
M  V30 8373 O 828.59 0.144358 -1.93964 0
M  V30 8374 C 828.873 -3.32081 -1.39262 0
M  V30 8375 C 828.726 -4.48211 -0.377768 0
M  V30 8376 C 830.045 -3.73557 -2.32687 0
M  V30 8377 H 827.164 -0.689213 -0.261064 0
M  V30 8378 H 829.806 -1.89994 0.0150388 0
M  V30 8379 H 827.956 -3.31796 -2.02098 0
M  V30 8380 H 829.628 -4.6063 0.248591 0
M  V30 8381 H 827.871 -4.3274 0.303045 0
M  V30 8382 H 828.542 -5.44854 -0.885347 0
M  V30 8383 H 831.018 -3.75202 -1.79896 0
M  V30 8384 H 829.894 -4.74125 -2.7658 0
M  V30 8385 H 830.155 -3.05759 -3.19317 0
M  V30 8386 N 829.214 0.302327 -1.54673 0
M  V30 8387 C 830.442 1.05669 -1.77881 0
M  V30 8388 C 830.857 1.80983 -0.537648 0
M  V30 8389 O 830.214 1.7573 0.492467 0
M  V30 8390 C 830.265 2.03828 -2.98557 0
M  V30 8391 O 829.986 1.3157 -4.17877 0
M  V30 8392 C 831.487 2.91314 -3.34143 0
M  V30 8393 H 828.707 0.313436 -0.593295 0
M  V30 8394 H 831.251 0.342003 -2.0162 0
M  V30 8395 H 829.406 2.70801 -2.7703 0
M  V30 8396 H 829.82 1.97481 -4.85903 0
M  V30 8397 H 831.294 3.56042 -4.21827 0
M  V30 8398 H 831.771 3.59544 -2.52239 0
M  V30 8399 H 832.377 2.29874 -3.57824 0
M  V30 8400 N 830.692 1.47107 0.565454 0
M  V30 8401 C 831.94 1.53005 1.32038 0
M  V30 8402 C 832.261 0.190453 1.94068 0
M  V30 8403 O 831.531 -0.784783 1.79494 0
M  V30 8404 H 830.111 0.563578 0.490294 0
M  V30 8405 H 832.773 1.83351 0.660928 0
M  V30 8406 H 831.869 2.29215 2.11818 0
M  V30 8407 N 832.17 -0.811516 1.35101 0
M  V30 8408 C 833.102 -1.93102 1.23468 0
M  V30 8409 C 834.115 -1.62021 0.159095 0
M  V30 8410 O 835.304 -1.73682 0.411945 0
M  V30 8411 C 832.404 -3.27345 0.877404 0
M  V30 8412 C 831.577 -3.86368 2.05033 0
M  V30 8413 C 830.636 -4.99009 1.66963 0
M  V30 8414 O 829.662 -5.16698 2.38772 0
M  V30 8415 N 830.864 -5.7749 0.590394 0
M  V30 8416 H 833.629 -2.0361 2.19916 0
M  V30 8417 H 831.19 -0.988687 1.28205 0
M  V30 8418 H 833.182 -4.00163 0.604298 0
M  V30 8419 H 831.752 -3.126 0.00275267 0
M  V30 8420 H 830.972 -3.05804 2.48752 0
M  V30 8421 H 832.26 -4.22533 2.83449 0
M  V30 8422 H 831.658 -5.657 -0.00633259 0
M  V30 8423 H 830.215 -6.50708 0.377055 0
M  V30 8424 N 833.648 -1.19017 -1.03309 0
M  V30 8425 C 835.064 -0.941483 -1.28873 0
M  V30 8426 C 835.264 0.388587 -1.97718 0
M  V30 8427 O 834.32 1.12111 -2.26246 0
M  V30 8428 C 835.633 -2.11249 -2.13996 0
M  V30 8429 C 837.181 -2.15164 -2.27318 0
M  V30 8430 C 837.656 -3.31704 -3.15811 0
M  V30 8431 N 839.147 -3.31613 -3.23399 0
M  V30 8432 C 839.882 -4.18431 -3.9205 0
M  V30 8433 N 839.378 -5.15397 -4.62966 0
M  V30 8434 N 841.171 -4.06321 -3.88406 0
M  V30 8435 H 833.322 -2.04599 -0.570343 0
M  V30 8436 H 835.585 -0.894406 -0.314232 0
M  V30 8437 H 835.291 -3.07482 -1.70727 0
M  V30 8438 H 835.165 -2.07955 -3.14697 0
M  V30 8439 H 837.552 -1.19504 -2.6982 0
M  V30 8440 H 837.633 -2.22513 -1.26182 0
M  V30 8441 H 837.277 -4.2764 -2.74019 0
M  V30 8442 H 837.207 -3.21592 -4.16997 0
M  V30 8443 H 839.698 -2.6142 -2.72888 0
M  V30 8444 H 840.011 -5.78 -5.12968 0
M  V30 8445 H 838.356 -5.19349 -4.61846 0
M  V30 8446 H 841.547 -3.29849 -3.3214 0
M  V30 8447 H 841.72 -4.74196 -4.41635 0
M  V30 8448 N 835.127 1.22348 -0.993418 0
M  V30 8449 C 836.367 1.92835 -0.677779 0
M  V30 8450 C 836.731 1.75624 0.775893 0
M  V30 8451 O 837.932 2.40379 1.20297 0
M  V30 8452 C 836.203 3.40906 -1.07322 0
M  V30 8453 S 837.762 4.29966 -0.876032 0
M  V30 8454 H 834.58 0.666421 -0.247799 0
M  V30 8455 H 837.182 1.48133 -1.27581 0
M  V30 8456 H 835.886 3.50946 -2.12756 0
M  V30 8457 H 835.417 3.90618 -0.467015 0
M  V30 8458 H 837.432 4.95652 0.233162 0
M  V30 8459 N 836.605 0.766683 1.37694 0
M  V30 8460 C 837.882 0.25366 1.93948 0
M  V30 8461 C 838.262 -1.25041 1.70082 0
M  V30 8462 O 837.61 -2.03115 1.04674 0
M  V30 8463 C 837.82 0.621549 3.43421 0
M  V30 8464 C 839.168 0.588504 4.20502 0
M  V30 8465 O 840.192 0.560632 3.5176 0
M  V30 8466 O 839.051 0.61107 5.43073 0
M  V30 8467 H 836.145 0.0570586 0.825029 0
M  V30 8468 H 838.691 0.847693 1.47011 0
M  V30 8469 H 837.463 1.65979 3.54354 0
M  V30 8470 H 837.086 0.000197027 3.976 0
M  V30 8471 N 838.083 -1.48885 0.516809 0
M  V30 8472 C 839.499 -1.58651 0.173788 0
M  V30 8473 C 839.699 -1.52033 -1.32243 0
M  V30 8474 O 838.755 -1.40251 -2.09967 0
M  V30 8475 C 840.068 -2.90816 0.764628 0
M  V30 8476 C 841.616 -3.04316 0.732164 0
M  V30 8477 C 842.091 -4.39123 1.30135 0
M  V30 8478 N 843.582 -4.45656 1.26273 0
M  V30 8479 C 844.317 -5.48446 1.67317 0
M  V30 8480 N 843.813 -6.58258 2.16028 0
M  V30 8481 N 845.606 -5.39251 1.58635 0
M  V30 8482 H 837.757 -1.5143 1.48939 0
M  V30 8483 H 840.02 -0.718243 0.618733 0
M  V30 8484 H 839.726 -3.01275 1.81456 0
M  V30 8485 H 839.6 -3.76473 0.234113 0
M  V30 8486 H 841.987 -2.93478 -0.308975 0
M  V30 8487 H 842.068 -2.20303 1.3 0
M  V30 8488 H 841.712 -4.50714 2.34135 0
M  V30 8489 H 841.642 -5.21801 0.709305 0
M  V30 8490 H 844.133 -3.66879 0.906006 0
M  V30 8491 H 844.446 -7.32811 2.45374 0
M  V30 8492 H 842.791 -6.59257 2.20013 0
M  V30 8493 H 845.982 -4.52354 1.20387 0
M  V30 8494 H 846.155 -6.19229 1.90944 0
M  V30 8495 N 839.561 -0.251338 -1.55583 0
M  V30 8496 C 840.801 0.373651 -2.00956 0
M  V30 8497 C 841.165 1.54806 -1.13574 0
M  V30 8498 O 842.366 2.24108 -1.48422 0
M  V30 8499 C 840.637 0.768919 -3.49031 0
M  V30 8500 S 842.196 1.38381 -4.16409 0
M  V30 8501 H 839.014 0.117371 -0.701245 0
M  V30 8502 H 841.616 -0.367611 -1.92013 0
M  V30 8503 H 840.32 -0.0950492 -4.1029 0
M  V30 8504 H 839.851 1.54225 -3.61909 0
M  V30 8505 H 841.866 2.6728 -4.18062 0
M  V30 8506 N 841.039 1.57585 0.0217189 0
M  V30 8507 C 841.969 2.10073 1.01939 0
M  V30 8508 C 842.95 1.0049 1.37243 0
M  V30 8509 O 844.135 1.28055 1.45999 0
M  V30 8510 C 841.265 2.58618 2.31806 0
M  V30 8511 C 840.219 3.72531 2.10724 0
M  V30 8512 C 839.545 4.07309 3.46415 0
M  V30 8513 C 840.845 5.00672 1.48743 0
M  V30 8514 H 842.539 2.9368 0.582432 0
M  V30 8515 H 840.085 1.41277 0.278715 0
M  V30 8516 H 842.038 2.9396 3.01936 0
M  V30 8517 H 840.762 1.72104 2.77575 0
M  V30 8518 H 839.421 3.37549 1.43025 0
M  V30 8519 H 839.069 3.17851 3.89846 0
M  V30 8520 H 838.769 4.84042 3.33132 0
M  V30 8521 H 840.293 4.45192 4.17895 0
M  V30 8522 H 841.707 5.33925 2.088 0
M  V30 8523 H 840.104 5.82065 1.46013 0
M  V30 8524 H 841.174 4.82769 0.45408 0
M  V30 8525 N 842.517 -0.29412 1.54831 0
M  V30 8526 C 843.742 -1.05156 1.78765 0
M  V30 8527 C 844.167 -1.79916 0.548809 0
M  V30 8528 O 843.525 -1.74243 -0.500909 0
M  V30 8529 C 843.573 -2.00242 2.99893 0
M  V30 8530 O 842.677 -3.08662 2.73499 0
M  V30 8531 H 842.018 -0.301737 0.591482 0
M  V30 8532 H 844.548 -0.329449 2.0193 0
M  V30 8533 H 844.558 -2.42583 3.28051 0
M  V30 8534 H 843.233 -1.45235 3.89717 0
M  V30 8535 H 841.81 -2.70786 2.56377 0
M  V30 8536 N 843.995 -1.47404 -0.557645 0
M  V30 8537 C 845.243 -1.53703 -1.31224 0
M  V30 8538 C 845.564 -0.200742 -1.93964 0
M  V30 8539 O 844.834 0.775253 -1.79907 0
M  V30 8540 H 843.414 -0.566171 -0.487299 0
M  V30 8541 H 846.076 -1.83699 -0.651195 0
M  V30 8542 H 845.172 -2.30335 -2.10599 0
M  V30 8543 N 845.473 0.80434 -1.35529 0
M  V30 8544 C 846.436 1.89788 -1.28503 0
M  V30 8545 C 847.436 1.59601 -0.195983 0
M  V30 8546 O 848.626 1.68292 -0.449827 0
M  V30 8547 C 845.758 3.26255 -0.98847 0
M  V30 8548 H 846.951 1.97436 -2.25741 0
M  V30 8549 H 844.504 1.00046 -1.20086 0
M  V30 8550 H 845.239 3.24294 -0.0200541 0
M  V30 8551 H 845.024 3.49551 -1.77641 0
M  V30 8552 H 846.514 4.06298 -0.964975 0
M  V30 8553 N 846.951 1.19563 1.02676 0
M  V30 8554 C 848.181 1.0234 1.79472 0
M  V30 8555 C 848.589 -0.430891 1.84228 0
M  V30 8556 O 847.932 -1.31106 1.28674 0
M  V30 8557 C 847.994 1.51901 3.25832 0
M  V30 8558 C 847.658 3.00045 3.44706 0
M  V30 8559 C 848.655 3.9779 3.34752 0
M  V30 8560 C 846.34 3.38784 3.70851 0
M  V30 8561 C 848.334 5.32267 3.50672 0
M  V30 8562 C 846.021 4.73419 3.86416 0
M  V30 8563 C 847.019 5.69969 3.7633 0
M  V30 8564 O 846.707 7.02165 3.91432 0
M  V30 8565 H 846.439 0.360936 0.571578 0
M  V30 8566 H 848.993 1.58863 1.30198 0
M  V30 8567 H 847.223 0.897546 3.7614 0
M  V30 8568 H 848.912 1.30853 3.84229 0
M  V30 8569 H 849.678 3.69207 3.14502 0
M  V30 8570 H 845.557 2.64183 3.77794 0
M  V30 8571 H 849.101 6.07612 3.42715 0
M  V30 8572 H 844.998 5.01697 4.06165 0
M  V30 8573 H 845.766 7.09268 4.08511 0
M  V30 8574 N 848.429 -1.21819 0.999893 0
M  V30 8575 C 849.706 -1.86318 0.595384 0
M  V30 8576 C 850.086 -1.8965 -0.927143 0
M  V30 8577 O 849.434 -1.3921 -1.81199 0
M  V30 8578 C 849.644 -3.26837 1.22387 0
M  V30 8579 C 850.992 -4.03272 1.32878 0
M  V30 8580 O 852.016 -3.36129 1.1788 0
M  V30 8581 O 850.875 -5.23477 1.56952 0
M  V30 8582 H 847.969 -0.801638 0.203238 0
M  V30 8583 H 850.515 -1.29542 1.09622 0
M  V30 8584 H 849.287 -3.19084 2.26497 0
M  V30 8585 H 848.91 -3.91226 0.709069 0
M  V30 8586 N 849.908 -0.773975 -1.37286 0
M  V30 8587 C 851.155 -0.339306 -1.99637 0
M  V30 8588 C 851.483 1.08478 -1.61439 0
M  V30 8589 O 850.738 1.7612 -0.853252 0
M  V30 8590 C 851.037 -0.432651 -3.54772 0
M  V30 8591 C 850.703 -1.81531 -4.12744 0
M  V30 8592 C 849.365 -2.19366 -4.2829 0
M  V30 8593 C 851.717 -2.72137 -4.44512 0
M  V30 8594 C 849.045 -3.47239 -4.72908 0
M  V30 8595 C 851.397 -3.99421 -4.90556 0
M  V30 8596 C 850.061 -4.37298 -5.04308 0
M  V30 8597 H 849.331 -0.124161 -0.730524 0
M  V30 8598 H 851.978 -0.988432 -1.64019 0
M  V30 8599 H 850.283 0.30001 -3.9065 0
M  V30 8600 H 851.98 -0.0776 -4.00925 0
M  V30 8601 H 848.57 -1.51126 -4.01072 0
M  V30 8602 H 852.754 -2.44165 -4.32084 0
M  V30 8603 H 848.01 -3.76477 -4.81742 0
M  V30 8604 H 852.184 -4.69756 -5.14104 0
M  V30 8605 H 849.811 -5.36442 -5.38641 0
M  V30 8606 N 851.386 1.48609 -0.524698 0
M  V30 8607 C 852.797 1.86516 -0.0828846 0
M  V30 8608 C 853.148 1.43478 1.33822 0
M  V30 8609 O 852.273 0.823139 2.00133 0
M  V30 8610 C 852.868 3.38495 -0.143639 0
M  V30 8611 C 851.427 3.75615 0.242951 0
M  V30 8612 C 850.574 2.72649 -0.505747 0
M  V30 8613 H 853.525 1.40589 -0.736233 0
M  V30 8614 H 853.546 3.74977 0.645955 0
M  V30 8615 H 853.058 3.69789 -1.17805 0
M  V30 8616 H 851.159 3.49935 1.27971 0
M  V30 8617 H 851.272 4.7901 -0.0929834 0
M  V30 8618 H 849.636 2.54656 0.0473482 0
M  V30 8619 H 850.419 3.06786 -1.54069 0
M  V30 8620 N 852.864 0.259585 1.55447 0
M  V30 8621 C 853.814 -0.648769 2.18575 0
M  V30 8622 C 854.798 -1.1299 1.14552 0
M  V30 8623 O 855.99 -1.07756 1.4042 0
M  V30 8624 C 853.119 -1.83963 2.89849 0
M  V30 8625 C 852.205 -1.37641 4.01143 0
M  V30 8626 N 852.596 -0.628269 5.01883 0
M  V30 8627 C 850.894 -1.66066 4.1393 0
M  V30 8628 C 851.595 -0.386746 5.80413 0
M  V30 8629 N 850.571 -0.954665 5.35151 0
M  V30 8630 H 854.373 -0.0691616 2.93819 0
M  V30 8631 H 851.887 0.0624525 1.6228 0
M  V30 8632 H 853.884 -2.50151 3.33512 0
M  V30 8633 H 852.544 -2.42334 2.16112 0
M  V30 8634 H 853.555 -0.277123 5.17158 0
M  V30 8635 H 850.232 -2.25484 3.51373 0
M  V30 8636 H 851.622 0.211382 6.71567 0
M  V30 8637 N 854.342 -1.57594 -0.0133615 0
M  V30 8638 C 855.582 -1.91834 -0.705639 0
M  V30 8639 C 855.946 -0.859801 -1.71672 0
M  V30 8640 O 857.147 -1.08702 -2.4584 0
M  V30 8641 C 855.418 -3.31174 -1.34383 0
M  V30 8642 S 856.977 -3.87275 -2.06309 0
M  V30 8643 H 853.795 -0.671598 -0.233404 0
M  V30 8644 H 856.397 -1.95459 0.0401173 0
M  V30 8645 H 855.101 -4.06065 -0.594939 0
M  V30 8646 H 854.632 -3.3089 -2.12781 0
M  V30 8647 H 856.647 -3.67271 -3.33657 0
M  V30 8648 N 855.82 0.285905 -1.54985 0
M  V30 8649 C 856.752 1.37505 -1.83371 0
M  V30 8650 C 857.765 1.46138 -0.717454 0
M  V30 8651 O 858.954 1.48186 -0.995142 0
M  V30 8652 C 856.054 2.7575 -1.97016 0
M  V30 8653 C 855.227 2.89866 -3.27561 0
M  V30 8654 C 854.286 4.08704 -3.31433 0
M  V30 8655 O 853.312 4.00073 -4.04883 0
M  V30 8656 N 854.514 5.20062 -2.57907 0
M  V30 8657 H 857.279 1.13505 -2.77375 0
M  V30 8658 H 854.84 0.476006 -1.54744 0
M  V30 8659 H 856.832 3.5352 -1.96991 0
M  V30 8660 H 855.402 2.9263 -1.09938 0
M  V30 8661 H 854.622 1.99085 -3.40234 0
M  V30 8662 H 855.91 2.96219 -4.13681 0
M  V30 8663 H 855.308 5.29958 -1.97891 0
M  V30 8664 H 853.865 5.96111 -2.63619 0
M  V30 8665 N 857.298 1.47698 0.54982 0
M  V30 8666 C 858.546 1.54397 1.30407 0
M  V30 8667 C 858.867 0.211026 1.93855 0
M  V30 8668 O 858.137 -0.765701 1.80316 0
M  V30 8669 H 856.717 0.568747 0.484289 0
M  V30 8670 H 859.379 1.84042 0.641444 0
M  V30 8671 H 858.475 2.31449 2.09375 0
M  V30 8672 N 858.776 -0.797141 1.35954 0
M  V30 8673 C 860.001 -1.59097 1.33053 0
M  V30 8674 C 860.426 -1.87897 -0.0874592 0
M  V30 8675 O 859.784 -1.47291 -1.05712 0
M  V30 8676 C 859.832 -2.89346 2.152 0
M  V30 8677 O 858.936 -3.826 1.5392 0
M  V30 8678 H 858.277 -0.482895 0.45575 0
M  V30 8679 H 860.807 -0.988633 1.79129 0
M  V30 8680 H 860.817 -3.38686 2.27499 0
M  V30 8681 H 859.492 -2.6771 3.18283 0
M  V30 8682 H 858.069 -3.41174 1.50516 0
M  V30 8683 N 860.254 -1.20106 -1.0204 0
M  V30 8684 C 861.479 -1.0351 -1.79723 0
M  V30 8685 C 861.904 0.411328 -1.83548 0
M  V30 8686 O 861.262 1.29608 -1.26773 0
M  V30 8687 C 861.31 -1.61876 -3.22224 0
M  V30 8688 O 860.414 -0.853813 -4.03465 0
M  V30 8689 H 859.755 -0.365299 -0.554484 0
M  V30 8690 H 862.285 -1.59316 -1.28373 0
M  V30 8691 H 862.295 -1.65451 -3.72948 0
M  V30 8692 H 860.97 -2.67148 -3.18755 0
M  V30 8693 H 859.547 -0.891983 -3.62075 0
M  V30 8694 N 861.732 1.21287 -1.00634 0
M  V30 8695 C 862.957 1.94925 -0.708441 0
M  V30 8696 C 863.382 1.73659 0.722783 0
M  V30 8697 O 862.74 1.02429 1.49593 0
M  V30 8698 C 862.788 3.45377 -1.03667 0
M  V30 8699 O 861.892 4.12153 -0.142661 0
M  V30 8700 H 861.233 0.609338 -0.263824 0
M  V30 8701 H 863.763 1.54008 -1.34695 0
M  V30 8702 H 863.773 3.95954 -0.984086 0
M  V30 8703 H 862.448 3.6018 -2.0795 0
M  V30 8704 H 861.025 3.72048 -0.251888 0
M  V30 8705 N 863.21 0.781244 1.36873 0
M  V30 8706 C 864.173 0.180094 2.28491 0
M  V30 8707 C 865.173 -0.617798 1.48458 0
M  V30 8708 O 866.363 -0.439991 1.68552 0
M  V30 8709 C 863.495 -0.751741 3.32508 0
M  V30 8710 H 864.688 0.987837 2.83164 0
M  V30 8711 H 862.241 0.550102 1.463 0
M  V30 8712 H 862.976 -1.58413 2.82977 0
M  V30 8713 H 862.761 -0.181649 3.91679 0
M  V30 8714 H 864.251 -1.16748 4.00949 0
M  V30 8715 N 864.689 -1.48329 0.532571 0
M  V30 8716 C 865.929 -2.044 0.00145618 0
M  V30 8717 C 866.293 -1.40053 -1.31336 0
M  V30 8718 O 867.494 -1.87026 -1.93066 0
M  V30 8719 C 865.765 -3.57214 -0.115376 0
M  V30 8720 S 867.324 -4.34731 -0.59618 0
M  V30 8721 H 864.142 -0.710876 0.0133038 0
M  V30 8722 H 866.744 -1.82006 0.71372 0
M  V30 8723 H 865.448 -4.01579 0.846335 0
M  V30 8724 H 864.979 -3.84065 -0.85194 0
M  V30 8725 H 866.994 -4.6001 -1.86025 0
M  V30 8726 N 866.167 -0.267825 -1.55308 0
M  V30 8727 C 867.444 0.402449 -1.91415 0
M  V30 8728 C 867.824 1.7428 -1.1912 0
M  V30 8729 O 867.172 2.2631 -0.315609 0
M  V30 8730 C 867.382 0.549926 -3.4464 0
M  V30 8731 C 868.73 0.836188 -4.16285 0
M  V30 8732 O 869.754 0.635009 -3.50494 0
M  V30 8733 O 868.613 1.22051 -5.32697 0
M  V30 8734 H 865.707 0.219177 -0.797427 0
M  V30 8735 H 868.253 -0.313439 -1.6678 0
M  V30 8736 H 867.025 -0.393641 -3.89315 0
M  V30 8737 H 866.648 1.31556 -3.75205 0
M  V30 8738 N 867.645 1.57599 0.00500368 0
M  V30 8739 C 869.056 1.78462 0.54848 0
M  V30 8740 C 869.407 0.901869 1.74243 0
M  V30 8741 O 868.532 0.103014 2.16155 0
M  V30 8742 C 869.127 3.2365 1.00179 0
M  V30 8743 C 867.686 3.45627 1.49061 0
M  V30 8744 C 866.833 2.73794 0.439531 0
M  V30 8745 H 869.784 1.57151 -0.22118 0
M  V30 8746 H 869.805 3.31488 1.86805 0
M  V30 8747 H 869.317 3.87873 0.132607 0
M  V30 8748 H 867.418 2.86612 2.38085 0
M  V30 8749 H 867.531 4.54298 1.52152 0
M  V30 8750 H 865.895 2.38267 0.900043 0
M  V30 8751 H 866.678 3.40714 -0.420599 0
M  V30 8752 N 869.123 -0.277682 1.55134 0
M  V30 8753 C 870.086 -1.32635 1.86924 0
M  V30 8754 C 871.086 -1.42578 0.743507 0
M  V30 8755 O 872.276 -1.4181 1.01171 0
M  V30 8756 C 869.408 -2.70832 2.07034 0
M  V30 8757 H 870.601 -1.0568 2.80663 0
M  V30 8758 H 868.154 -0.515517 1.47554 0
M  V30 8759 H 868.889 -3.02974 1.15661 0
M  V30 8760 H 868.674 -2.65001 2.88993 0
M  V30 8761 H 870.164 -3.46611 2.32918 0
M  V30 8762 N 870.601 -1.47988 -0.541979 0
M  V30 8763 C 871.849 -1.55086 -1.29587 0
M  V30 8764 C 872.17 -0.221304 -1.9374 0
M  V30 8765 O 871.44 0.756128 -1.80719 0
M  V30 8766 H 870.02 -0.571307 -0.481266 0
M  V30 8767 H 872.682 -1.8438 -0.631675 0
M  V30 8768 H 871.778 -2.32556 -2.08144 0
M  V30 8769 N 872.079 0.78992 -1.36375 0
M  V30 8770 C 873.307 1.57873 -1.3373 0
M  V30 8771 C 873.722 1.88624 0.0815544 0
M  V30 8772 O 873.079 1.50085 1.03831 0
M  V30 8773 C 873.13 2.90003 -2.15825 0
M  V30 8774 O 872.851 2.60578 -3.5218 0
M  V30 8775 C 874.352 3.84309 -2.20955 0
M  V30 8776 H 871.572 0.489685 -0.458748 0
M  V30 8777 H 874.116 0.980436 -1.79465 0
M  V30 8778 H 872.271 3.46303 -1.73646 0
M  V30 8779 H 872.685 3.4506 -3.95011 0
M  V30 8780 H 874.159 4.74081 -2.82756 0
M  V30 8781 H 874.636 4.22121 -1.21287 0
M  V30 8782 H 875.242 3.33942 -2.63368 0
M  V30 8783 N 873.557 1.20646 1.01402 0
M  V30 8784 C 874.806 1.01242 1.7445 0
M  V30 8785 C 875.119 -0.455732 1.90217 0
M  V30 8786 O 876.325 -0.768951 2.60383 0
M  V30 8787 C 874.781 1.76275 3.13776 0
M  V30 8788 C 874.389 3.27201 3.06013 0
M  V30 8789 C 876.133 1.65248 3.91016 0
M  V30 8790 C 874.04 3.9476 4.40362 0
M  V30 8791 H 872.97 0.375202 0.654018 0
M  V30 8792 H 875.621 1.44292 1.13367 0
M  V30 8793 H 874.003 1.26013 3.75415 0
M  V30 8794 H 875.177 3.84695 2.53665 0
M  V30 8795 H 873.492 3.38669 2.42265 0
M  V30 8796 H 876.089 2.13061 4.90417 0
M  V30 8797 H 876.432 0.609128 4.1182 0
M  V30 8798 H 876.965 2.12937 3.3601 0
M  V30 8799 H 873.704 4.99258 4.24761 0
M  V30 8800 H 873.224 3.42054 4.92706 0
M  V30 8801 H 874.903 3.99159 5.09196 0
M  V30 8802 N 875.035 -1.20752 1.01276 0
M  V30 8803 C 875.983 -2.25432 0.572989 0
M  V30 8804 C 876.977 -1.64935 -0.386354 0
M  V30 8805 O 878.183 -1.7816 -0.256696 0
M  V30 8806 H 874.558 -0.733229 0.166972 0
M  V30 8807 H 876.529 -2.59856 1.46687 0
M  V30 8808 C 875.278 -3.47615 -0.0768249 0
M  V30 8809 H 874.601 -3.94442 0.652354 0
M  V30 8810 H 876.041 -4.22572 -0.3477 0
M  V30 8811 C 874.5 -3.1003 -1.31845 0
M  V30 8812 O 875.03 -3.21216 -2.41211 0
M  V30 8813 N 873.236 -2.64616 -1.20111 0
M  V30 8814 H 872.783 -2.55714 -0.311184 0
M  V30 8815 H 872.741 -2.39838 -2.03286 0
M  V30 8816 N 876.513 -0.788492 -1.36457 0
M  V30 8817 C 877.738 -0.371224 -2.04051 0
M  V30 8818 C 878.163 1.004 -1.59064 0
M  V30 8819 O 877.521 1.64663 -0.758679 0
M  V30 8820 C 877.569 -0.442275 -3.57877 0
M  V30 8821 O 876.673 0.55113 -4.08701 0
M  V30 8822 H 876.014 -0.157808 -0.644975 0
M  V30 8823 H 878.544 -1.06935 -1.74431 0
M  V30 8824 H 878.554 -0.305548 -4.06854 0
M  V30 8825 H 877.229 -1.44547 -3.89973 0
M  V30 8826 H 875.806 0.37614 -3.70998 0
M  V30 8827 N 877.991 1.48044 -0.54043 0
M  V30 8828 C 878.939 2.31461 0.229862 0
M  V30 8829 C 879.933 1.41884 0.925495 0
M  V30 8830 O 881.139 1.58736 0.848689 0
M  V30 8831 H 877.514 0.746227 0.0929975 0
M  V30 8832 H 879.485 2.94297 -0.493118 0
M  V30 8833 C 878.234 3.24172 1.25729 0
M  V30 8834 H 877.557 3.93052 0.731426 0
M  V30 8835 H 878.997 3.85404 1.76747 0
M  V30 8836 C 877.456 2.4651 2.2964 0
M  V30 8837 O 877.986 2.19742 3.36268 0
M  V30 8838 N 876.192 2.07817 2.03127 0
M  V30 8839 H 875.739 2.29786 1.1643 0
M  V30 8840 H 875.697 1.56168 2.72872 0
M  V30 8841 N 879.47 0.276058 1.55163 0
M  V30 8842 C 880.4 -0.604633 2.25536 0
M  V30 8843 C 881.381 -1.15813 1.24585 0
M  V30 8844 O 882.566 -1.1921 1.53306 0
M  V30 8845 C 879.696 -1.78836 2.97716 0
M  V30 8846 C 878.65 -1.36635 4.05604 0
M  V30 8847 C 877.976 -2.63325 4.65364 0
M  V30 8848 C 879.276 -0.515858 5.19746 0
M  V30 8849 H 880.97 -0.0177483 2.99395 0
M  V30 8850 H 878.516 -0.00709627 1.43998 0
M  V30 8851 H 880.469 -2.41036 3.45658 0
M  V30 8852 H 879.193 -2.40109 2.21394 0
M  V30 8853 H 877.852 -0.767541 3.58475 0
M  V30 8854 H 877.5 -3.22858 3.85709 0
M  V30 8855 H 877.2 -2.358 5.38212 0
M  V30 8856 H 878.724 -3.26372 5.16056 0
M  V30 8857 H 880.138 -1.04289 5.63735 0
M  V30 8858 H 878.535 -0.335449 5.99162 0
M  V30 8859 H 879.605 0.465137 4.82664 0
M  V30 8860 N 880.948 -1.576 0.00335426 0
M  V30 8861 C 882.196 -1.90336 -0.679446 0
M  V30 8862 C 882.517 -0.877777 -1.74127 0
M  V30 8863 O 881.787 0.0843585 -1.95718 0
M  V30 8864 H 880.367 -0.702509 -0.253948 0
M  V30 8865 H 883.029 -1.94848 0.0450731 0
M  V30 8866 H 882.125 -2.90197 -1.14857 0
M  V30 8867 N 882.426 0.269451 -1.5528 0
M  V30 8868 C 883.656 1.01724 -1.79821 0
M  V30 8869 C 884.064 1.80298 -0.573532 0
M  V30 8870 O 883.407 1.77666 0.466963 0
M  V30 8871 C 883.469 2.02043 -2.97353 0
M  V30 8872 C 883.133 1.42375 -4.34256 0
M  V30 8873 C 884.13 0.837611 -5.13108 0
M  V30 8874 C 881.815 1.44988 -4.8092 0
M  V30 8875 C 883.809 0.285557 -6.3676 0
M  V30 8876 C 881.496 0.893969 -6.04526 0
M  V30 8877 C 882.494 0.312809 -6.82283 0
M  V30 8878 O 882.182 -0.234582 -8.03558 0
M  V30 8879 H 881.914 0.30604 -0.602757 0
M  V30 8880 H 884.468 0.30454 -2.0313 0
M  V30 8881 H 882.698 2.77082 -2.69745 0
M  V30 8882 H 884.387 2.6298 -3.09187 0
M  V30 8883 H 885.153 0.81009 -4.78187 0
M  V30 8884 H 881.032 1.89162 -4.20403 0
M  V30 8885 H 884.576 -0.168696 -6.97396 0
M  V30 8886 H 880.473 0.918742 -6.38928 0
M  V30 8887 H 881.241 -0.124282 -8.18406 0
M  V30 8888 N 883.904 1.48273 0.534124 0
M  V30 8889 C 885.144 1.57674 1.3007 0
M  V30 8890 C 885.508 0.243256 1.90453 0
M  V30 8891 O 886.709 0.212231 2.67961 0
M  V30 8892 C 884.98 2.68044 2.36405 0
M  V30 8893 S 886.539 2.97183 3.22843 0
M  V30 8894 H 883.357 0.55652 0.442501 0
M  V30 8895 H 885.959 1.85774 0.60896 0
M  V30 8896 H 884.663 3.63498 1.90518 0
M  V30 8897 H 884.194 2.41833 3.10291 0
M  V30 8898 H 886.209 2.36164 4.36396 0
M  V30 8899 N 885.382 -0.782676 1.36792 0
M  V30 8900 C 886.314 -1.9044 1.27536 0
M  V30 8901 C 887.327 -1.61647 0.193426 0
M  V30 8902 O 888.516 -1.72769 0.448692 0
M  V30 8903 C 885.616 -3.2541 0.946641 0
M  V30 8904 C 884.789 -3.81932 2.13183 0
M  V30 8905 C 883.848 -4.95355 1.7751 0
M  V30 8906 O 882.874 -5.11517 2.49678 0
M  V30 8907 N 884.076 -5.76108 0.712755 0
M  V30 8908 H 886.841 -1.98899 2.24186 0
M  V30 8909 H 884.402 -0.96127 1.30274 0
M  V30 8910 H 886.394 -3.98791 0.689043 0
M  V30 8911 H 884.964 -3.12524 0.0690591 0
M  V30 8912 H 884.184 -3.00459 2.55183 0
M  V30 8913 H 885.472 -4.16426 2.92347 0
M  V30 8914 H 884.87 -5.65586 0.113662 0
M  V30 8915 H 883.427 -6.49762 0.514995 0
M  V30 8916 N 886.86 -1.21182 -1.00761 0
M  V30 8917 C 888.1 -1.03886 -1.76031 0
M  V30 8918 C 888.464 0.420593 -1.87337 0
M  V30 8919 O 889.665 0.713994 -2.59144 0
M  V30 8920 C 887.936 -1.71394 -3.13622 0
M  V30 8921 S 889.495 -1.69319 -4.04816 0
M  V30 8922 H 886.313 -0.372327 -0.605717 0
M  V30 8923 H 888.915 -1.53885 -1.20581 0
M  V30 8924 H 887.619 -2.76773 -3.03026 0
M  V30 8925 H 887.15 -1.21564 -3.74147 0
M  V30 8926 H 889.165 -0.732434 -4.90765 0
M  V30 8927 N 888.338 1.20213 -1.01915 0
M  V30 8928 C 889.285 2.2309 -0.591571 0
M  V30 8929 C 890.255 1.61465 0.389649 0
M  V30 8930 O 891.44 1.88606 0.288511 0
M  V30 8931 C 888.58 3.45045 0.0614028 0
M  V30 8932 C 887.693 4.21091 -0.964688 0
M  V30 8933 C 886.828 5.30448 -0.282499 0
M  V30 8934 C 885.867 5.98241 -1.29517 0
M  V30 8935 N 885.004 6.99182 -0.639472 0
M  V30 8936 H 889.844 2.59023 -1.47347 0
M  V30 8937 H 887.381 1.27274 -0.737547 0
M  V30 8938 H 889.339 4.14688 0.45714 0
M  V30 8939 H 887.969 3.09797 0.906937 0
M  V30 8940 H 887.021 3.50489 -1.47857 0
M  V30 8941 H 888.333 4.67662 -1.73475 0
M  V30 8942 H 887.487 6.06466 0.168603 0
M  V30 8943 H 886.226 4.84922 0.519843 0
M  V30 8944 H 885.231 5.20982 -1.75663 0
M  V30 8945 H 886.456 6.45853 -2.09884 0
M  V30 8946 H 884.402 6.55844 0.142955 0
M  V30 8947 H 884.319 7.43893 -1.34756 0
M  V30 8948 H 885.587 7.79212 -0.212047 0
M  V30 8949 N 889.816 0.795718 1.36037 0
M  V30 8950 C 890.746 0.212803 2.32528 0
M  V30 8951 C 891.727 -0.655716 1.56953 0
M  V30 8952 O 892.912 -0.588238 1.85077 0
M  V30 8953 C 890.042 -0.648189 3.41198 0
M  V30 8954 C 888.996 0.120948 4.27829 0
M  V30 8955 C 888.322 -0.861044 5.27722 0
M  V30 8956 C 889.622 1.31375 5.05508 0
M  V30 8957 H 891.316 1.01893 2.81528 0
M  V30 8958 H 888.862 0.491422 1.35355 0
M  V30 8959 H 890.815 -1.06597 4.07695 0
M  V30 8960 H 889.539 -1.48709 2.9078 0
M  V30 8961 H 888.198 0.519777 3.62897 0
M  V30 8962 H 887.846 -1.69515 4.73575 0
M  V30 8963 H 887.546 -0.350808 5.86552 0
M  V30 8964 H 889.07 -1.27726 5.97092 0
M  V30 8965 H 890.484 0.971406 5.6501 0
M  V30 8966 H 888.881 1.75772 5.73781 0
M  V30 8967 H 889.951 2.10593 4.36782 0
M  V30 8968 N 891.294 -1.47756 0.548274 0
M  V30 8969 C 892.244 -2.26891 -0.224628 0
M  V30 8970 C 893.228 -1.33816 -0.893421 0
M  V30 8971 O 894.42 -1.58232 -0.793204 0
M  V30 8972 C 891.549 -3.19358 -1.25959 0
M  V30 8973 C 890.635 -4.1991 -0.594662 0
M  V30 8974 N 891.026 -5.04721 0.330148 0
M  V30 8975 C 889.324 -4.37832 -0.849672 0
M  V30 8976 C 890.025 -5.77282 0.71553 0
M  V30 8977 N 889.001 -5.43552 0.0723997 0
M  V30 8978 H 892.803 -2.89844 0.486561 0
M  V30 8979 H 890.317 -1.58185 0.367577 0
M  V30 8980 H 892.314 -3.74726 -1.82718 0
M  V30 8981 H 890.974 -2.57961 -1.97196 0
M  V30 8982 H 891.985 -5.13095 0.703811 0
M  V30 8983 H 888.662 -3.87612 -1.55123 0
M  V30 8984 H 890.052 -6.55512 1.47493 0
M  V30 8985 N 892.772 -0.284283 -1.55015 0
M  V30 8986 C 894.018 0.330352 -2.00091 0
M  V30 8987 C 894.351 1.54814 -1.17244 0
M  V30 8988 O 893.626 1.92954 -0.244753 0
M  V30 8989 C 893.909 0.703492 -3.53161 0
M  V30 8990 C 893.762 -0.522275 -4.46758 0
M  V30 8991 C 895.081 1.53645 -4.12409 0
M  V30 8992 H 892.2 0.118599 -0.727395 0
M  V30 8993 H 894.842 -0.393054 -1.8589 0
M  V30 8994 H 892.992 1.31983 -3.65394 0
M  V30 8995 H 894.664 -1.16082 -4.46456 0
M  V30 8996 H 892.907 -1.15865 -4.1804 0
M  V30 8997 H 893.578 -0.217295 -5.51572 0
M  V30 8998 H 896.054 1.01583 -4.0351 0
M  V30 8999 H 894.93 1.76633 -5.19704 0
M  V30 9000 H 895.191 2.5204 -3.63219 0
M  V30 9001 N 894.251 1.57596 -0.0117121 0
M  V30 9002 C 895.161 2.12596 0.991964 0
M  V30 9003 C 896.177 1.07399 1.36899 0
M  V30 9004 O 897.353 1.39365 1.45394 0
M  V30 9005 C 894.418 2.62796 2.2614 0
M  V30 9006 C 893.479 3.8264 1.94642 0
M  V30 9007 C 892.712 4.30435 3.15533 0
M  V30 9008 O 892.935 3.77495 4.27614 0
M  V30 9009 O 891.869 5.22469 2.98847 0
M  V30 9010 H 895.695 2.98597 0.554371 0
M  V30 9011 H 893.28 1.47947 0.207839 0
M  V30 9012 H 895.162 2.9523 3.00695 0
M  V30 9013 H 893.837 1.79886 2.69114 0
M  V30 9014 H 892.744 3.5516 1.17526 0
M  V30 9015 H 894.077 4.66658 1.56496 0
M  V30 9016 N 895.729 -0.261212 1.5542 0
M  V30 9017 C 896.977 -0.989272 1.76232 0
M  V30 9018 C 897.298 -1.86389 0.573067 0
M  V30 9019 O 896.568 -1.91526 -0.41166 0
M  V30 9020 H 895.148 -0.368256 0.64992 0
M  V30 9021 H 897.81 -0.282603 1.9284 0
M  V30 9022 H 896.906 -1.61935 2.66802 0
M  V30 9023 N 897.207 -1.48554 -0.526253 0
M  V30 9024 C 898.618 -1.50256 -1.10815 0
M  V30 9025 C 898.969 -0.274445 -1.94271 0
M  V30 9026 O 898.094 0.618094 -2.07385 0
M  V30 9027 C 898.689 -2.72264 -2.01638 0
M  V30 9028 C 897.248 -2.76826 -2.55038 0
M  V30 9029 C 896.395 -2.43823 -1.32081 0
M  V30 9030 H 899.346 -1.55616 -0.31133 0
M  V30 9031 H 899.367 -2.50993 -2.85977 0
M  V30 9032 H 898.879 -3.61632 -1.4087 0
M  V30 9033 H 896.98 -1.91676 -3.19517 0
M  V30 9034 H 897.093 -3.78351 -2.93917 0
M  V30 9035 H 895.457 -1.95058 -1.63781 0
M  V30 9036 H 896.24 -3.35436 -0.730596 0
M  V30 9037 N 898.685 0.775411 -1.37205 0
M  V30 9038 C 899.913 1.56446 -1.35397 0
M  V30 9039 C 900.328 1.887 0.0615437 0
M  V30 9040 O 899.685 1.51178 1.02233 0
M  V30 9041 C 899.736 2.87697 -2.18889 0
M  V30 9042 O 899.457 2.56828 -3.54924 0
M  V30 9043 C 900.958 3.81944 -2.25019 0
M  V30 9044 H 898.178 0.484792 -0.463916 0
M  V30 9045 H 900.722 0.961346 -1.80495 0
M  V30 9046 H 898.877 3.44442 -1.7731 0
M  V30 9047 H 899.291 3.40851 -3.98649 0
M  V30 9048 H 900.765 4.71055 -2.87769 0
M  V30 9049 H 901.242 4.20811 -1.25757 0
M  V30 9050 H 901.848 3.3113 -2.66895 0
M  V30 9051 N 900.163 1.21714 1.00117 0
M  V30 9052 C 901.403 1.04818 1.75478 0
M  V30 9053 C 901.767 -0.410653 1.87557 0
M  V30 9054 O 902.968 -0.700241 2.59519 0
M  V30 9055 C 901.239 1.73055 3.12709 0
M  V30 9056 S 902.798 1.71464 4.03913 0
M  V30 9057 H 899.616 0.375534 0.603734 0
M  V30 9058 H 902.218 1.54522 1.19763 0
M  V30 9059 H 900.922 2.78376 3.01554 0
M  V30 9060 H 900.453 1.23546 3.73497 0
M  V30 9061 H 902.468 0.75845 4.90369 0
M  V30 9062 N 901.641 -1.19671 1.02551 0
M  V30 9063 C 902.866 -1.93774 0.739363 0
M  V30 9064 C 903.291 -1.74787 -0.695064 0
M  V30 9065 O 902.649 -1.04796 -1.47944 0
M  V30 9066 C 902.697 -3.43684 1.09149 0
M  V30 9067 O 901.801 -4.11874 0.208213 0
M  V30 9068 H 901.142 -0.605064 0.273484 0
M  V30 9069 H 903.672 -1.51846 1.37128 0
M  V30 9070 H 903.682 -3.94339 1.04695 0
M  V30 9071 H 902.357 -3.56826 2.13654 0
M  V30 9072 H 900.934 -3.716 0.311045 0
M  V30 9073 N 903.119 -0.802921 -1.35613 0
M  V30 9074 C 904.535 -0.486214 -1.52014 0
M  V30 9075 C 904.735 0.993219 -1.75321 0
M  V30 9076 O 903.791 1.77835 -1.79251 0
M  V30 9077 C 905.104 -1.32839 -2.69767 0
M  V30 9078 C 906.652 -1.32346 -2.83643 0
M  V30 9079 C 907.127 -2.14967 -4.04417 0
M  V30 9080 N 908.618 -2.12484 -4.11588 0
M  V30 9081 C 909.353 -2.73173 -5.04147 0
M  V30 9082 N 908.849 -3.42774 -6.02061 0
M  V30 9083 N 910.642 -2.62834 -4.96865 0
M  V30 9084 H 902.793 -1.76109 -1.18741 0
M  V30 9085 H 905.056 -0.74936 -0.580658 0
M  V30 9086 H 904.762 -2.37813 -2.5911 0
M  V30 9087 H 904.636 -0.979058 -3.64272 0
M  V30 9088 H 907.023 -0.281586 -2.93753 0
M  V30 9089 H 907.104 -1.71264 -1.90006 0
M  V30 9090 H 906.748 -3.19193 -3.95068 0
M  V30 9091 H 906.678 -1.73411 -4.97228 0
M  V30 9092 H 909.169 -1.61839 -3.41492 0
M  V30 9093 H 909.482 -3.86378 -6.69277 0
M  V30 9094 H 907.827 -3.46878 -6.02246 0
M  V30 9095 H 911.018 -2.08049 -4.19325 0
M  V30 9096 H 911.191 -3.10421 -5.68808 0
M  V30 9097 N 904.597 1.47463 -0.556102 0
M  V30 9098 C 905.837 2.04372 -0.0339743 0
M  V30 9099 C 906.201 1.42125 1.29091 0
M  V30 9100 O 907.402 1.90074 1.90066 0
M  V30 9101 C 905.673 3.57352 0.0585316 0
M  V30 9102 S 907.232 4.35625 0.526943 0
M  V30 9103 H 904.05 0.710574 -0.0246115 0
M  V30 9104 H 906.652 1.80848 -0.742585 0
M  V30 9105 H 905.356 4.00181 -0.910116 0
M  V30 9106 H 904.887 3.85371 0.790731 0
M  V30 9107 H 906.902 4.62911 1.78683 0
M  V30 9108 N 906.075 0.2925 1.54862 0
M  V30 9109 C 907.022 -0.587365 2.23201 0
M  V30 9110 C 907.992 -1.13623 1.21157 0
M  V30 9111 O 909.177 -1.18233 1.49752 0
M  V30 9112 C 906.317 -1.75745 2.96998 0
M  V30 9113 C 905.43 -1.24078 4.13798 0
M  V30 9114 C 904.565 -2.37405 4.75197 0
M  V30 9115 C 903.604 -1.82829 5.84157 0
M  V30 9116 N 902.741 -2.89696 6.39547 0
M  V30 9117 H 907.581 0.00202207 2.98 0
M  V30 9118 H 905.118 0.012766 1.47094 0
M  V30 9119 H 907.076 -2.44549 3.38011 0
M  V30 9120 H 905.706 -2.3186 2.24591 0
M  V30 9121 H 904.758 -0.445268 3.77785 0
M  V30 9122 H 906.07 -0.801186 4.92324 0
M  V30 9123 H 905.224 -3.14172 5.19019 0
M  V30 9124 H 903.963 -2.84688 3.95985 0
M  V30 9125 H 902.968 -1.04548 5.39768 0
M  V30 9126 H 904.193 -1.36461 6.65248 0
M  V30 9127 H 902.139 -3.36328 5.63222 0
M  V30 9128 H 902.056 -2.50206 7.13395 0
M  V30 9129 H 903.324 -3.66386 6.88027 0
M  V30 9130 N 907.553 -1.57587 0.0200696 0
M  V30 9131 C 908.483 -2.12702 -0.963333 0
M  V30 9132 C 909.464 -1.04094 -1.34531 0
M  V30 9133 O 910.649 -1.31881 -1.42552 0
M  V30 9134 C 907.779 -2.64673 -2.24868 0
M  V30 9135 C 906.733 -3.77987 -2.00772 0
M  V30 9136 C 906.059 -4.16351 -3.35494 0
M  V30 9137 C 907.359 -5.0444 -1.35416 0
M  V30 9138 H 909.053 -2.95121 -0.504363 0
M  V30 9139 H 906.599 -1.41966 -0.24116 0
M  V30 9140 H 908.552 -3.01862 -2.94036 0
M  V30 9141 H 907.276 -1.79403 -2.72914 0
M  V30 9142 H 905.935 -3.41223 -1.34025 0
M  V30 9143 H 905.583 -3.28075 -3.81282 0
M  V30 9144 H 905.283 -4.92705 -3.20181 0
M  V30 9145 H 906.807 -4.56115 -4.05945 0
M  V30 9146 H 908.221 -5.39273 -1.94571 0
M  V30 9147 H 906.618 -5.85732 -1.30529 0
M  V30 9148 H 907.688 -4.83803 -0.325923 0
M  V30 9149 N 909.032 0.252966 -1.55557 0
M  V30 9150 C 909.962 1.31691 -1.9282 0
M  V30 9151 C 910.943 1.50516 -0.7924 0
M  V30 9152 O 912.128 1.63225 -1.05219 0
M  V30 9153 C 909.258 2.67281 -2.21762 0
M  V30 9154 C 908.212 2.6316 -3.37536 0
M  V30 9155 C 907.538 4.02488 -3.52005 0
M  V30 9156 C 908.838 2.20675 -4.73392 0
M  V30 9157 H 910.532 1.00751 -2.81939 0
M  V30 9158 H 908.078 0.483219 -1.3565 0
M  V30 9159 H 910.031 3.41842 -2.46419 0
M  V30 9160 H 908.755 2.99845 -1.29463 0
M  V30 9161 H 907.414 1.91057 -3.12878 0
M  V30 9162 H 907.062 4.32307 -2.57137 0
M  V30 9163 H 906.762 4.00621 -4.29857 0
M  V30 9164 H 908.286 4.78758 -3.78977 0
M  V30 9165 H 909.7 2.84965 -4.97461 0
M  V30 9166 H 908.097 2.29931 -5.54303 0
M  V30 9167 H 909.167 1.15831 -4.70862 0
M  V30 9168 N 910.51 1.48831 0.518367 0
M  V30 9169 C 911.74 1.60886 1.29612 0
M  V30 9170 C 912.148 0.272713 1.87224 0
M  V30 9171 O 911.491 -0.749653 1.67708 0
M  V30 9172 C 911.553 2.60541 2.47707 0
M  V30 9173 C 911.217 4.05324 2.11095 0
M  V30 9174 C 912.214 4.92658 1.66084 0
M  V30 9175 C 909.899 4.50942 2.21262 0
M  V30 9176 C 911.893 6.23641 1.3172 0
M  V30 9177 C 909.58 5.81943 1.8651 0
M  V30 9178 C 910.578 6.68116 1.41812 0
M  V30 9179 O 910.266 7.96677 1.07522 0
M  V30 9180 H 909.998 0.544968 0.399982 0
M  V30 9181 H 912.552 1.95474 0.630799 0
M  V30 9182 H 910.782 2.21098 3.17258 0
M  V30 9183 H 912.471 2.62308 3.09757 0
M  V30 9184 H 913.237 4.58649 1.5769 0
M  V30 9185 H 909.116 3.84048 2.55007 0
M  V30 9186 H 912.66 6.90857 0.967598 0
M  V30 9187 H 908.557 6.15484 1.94549 0
M  V30 9188 H 909.325 8.09534 1.2082 0
M  V30 9189 N 911.988 -0.768124 1.37614 0
M  V30 9190 C 913.234 -1.52823 1.34226 0
M  V30 9191 C 913.589 -1.92266 -0.0717482 0
M  V30 9192 O 912.882 -1.61484 -1.03119 0
M  V30 9193 C 913.076 -2.80204 2.21856 0
M  V30 9194 C 912.905 -2.53213 3.71636 0
M  V30 9195 C 911.675 -2.47159 4.40727 0
M  V30 9196 C 913.873 -2.20965 4.64413 0
M  V30 9197 N 911.855 -2.12289 5.76026 0
M  V30 9198 C 913.226 -1.96264 5.88116 0
M  V30 9199 C 915.281 -2.07151 4.52761 0
M  V30 9200 C 913.984 -1.59145 7.01474 0
M  V30 9201 C 916.01 -1.71432 5.66008 0
M  V30 9202 C 915.372 -1.47594 6.88764 0
M  V30 9203 H 911.471 -0.559388 0.546451 0
M  V30 9204 H 914.055 -0.895795 1.72869 0
M  V30 9205 H 912.226 -3.4128 1.85424 0
M  V30 9206 H 913.958 -3.46133 2.097 0
M  V30 9207 H 910.713 -2.63137 3.93772 0
M  V30 9208 H 911.137 -1.97541 6.47539 0
M  V30 9209 H 915.779 -2.24262 3.58422 0
M  V30 9210 H 913.497 -1.40773 7.95744 0
M  V30 9211 H 917.083 -1.61397 5.58965 0
M  V30 9212 H 915.963 -1.20365 7.74908 0
M  V30 9213 N 913.466 -1.22244 -0.994698 0
M  V30 9214 C 914.414 -0.988118 -2.10568 0
M  V30 9215 C 915.408 0.0681541 -1.69263 0
M  V30 9216 O 916.614 -0.0841311 -1.79803 0
M  V30 9217 H 912.989 -0.302343 -0.688544 0
M  V30 9218 H 914.96 -1.93091 -2.27505 0
M  V30 9219 C 913.709 -0.580557 -3.42819 0
M  V30 9220 H 913.032 -1.385 -3.75044 0
M  V30 9221 H 914.472 -0.456004 -4.21541 0
M  V30 9222 C 912.931 0.709692 -3.2934 0
M  V30 9223 O 913.461 1.76259 -3.60965 0
M  V30 9224 N 911.667 0.680155 -2.82528 0
M  V30 9225 H 911.214 -0.176977 -2.56991 0
M  V30 9226 H 911.172 1.54372 -2.73892 0
M  V30 9227 N 914.944 1.19125 -1.03184 0
M  V30 9228 C 915.874 2.24675 -0.635889 0
M  V30 9229 C 916.855 1.66321 0.356565 0
M  V30 9230 O 918.04 1.92728 0.238625 0
M  V30 9231 C 915.17 3.47298 0.011069 0
M  V30 9232 C 914.124 4.18345 -0.903979 0
M  V30 9233 C 913.45 5.34561 -0.12197 0
M  V30 9234 C 914.75 4.72816 -2.21907 0
M  V30 9235 H 916.444 2.5805 -1.51825 0
M  V30 9236 H 913.99 1.24039 -0.73146 0
M  V30 9237 H 915.943 4.20333 0.299729 0
M  V30 9238 H 914.667 3.13131 0.928245 0
M  V30 9239 H 913.326 3.47196 -1.17688 0
M  V30 9240 H 912.974 4.9664 0.797334 0
M  V30 9241 H 912.674 5.83029 -0.731498 0
M  V30 9242 H 914.198 6.10391 0.159881 0
M  V30 9243 H 915.612 5.3759 -1.99173 0
M  V30 9244 H 914.009 5.31782 -2.78078 0
M  V30 9245 H 915.079 3.9072 -2.87168 0
M  V30 9246 N 916.422 0.810101 1.35185 0
M  V30 9247 C 917.699 0.315235 1.93043 0
M  V30 9248 C 918.079 -1.19567 1.73974 0
M  V30 9249 O 917.427 -1.99682 1.11083 0
M  V30 9250 C 917.637 0.730492 3.41269 0
M  V30 9251 C 918.985 0.721985 4.18417 0
M  V30 9252 O 920.009 0.672258 3.49799 0
M  V30 9253 O 918.868 0.783535 5.40854 0
M  V30 9254 H 915.962 0.0832774 0.822796 0
M  V30 9255 H 918.508 0.894034 1.4424 0
M  V30 9256 H 917.28 1.77169 3.48894 0
M  V30 9257 H 916.903 0.12669 3.97398 0
M  V30 9258 N 917.9 -1.47166 0.563914 0
M  V30 9259 C 918.847 -2.30097 -0.180013 0
M  V30 9260 C 919.817 -1.39473 -0.902019 0
M  V30 9261 O 921.002 -1.68432 -0.896396 0
M  V30 9262 C 918.142 -3.23573 -1.19978 0
M  V30 9263 C 917.255 -4.2929 -0.483149 0
M  V30 9264 C 916.39 -5.0991 -1.48879 0
M  V30 9265 C 915.429 -6.07395 -0.757513 0
M  V30 9266 N 914.566 -6.8095 -1.71031 0
M  V30 9267 H 919.406 -2.93189 0.53329 0
M  V30 9268 H 916.943 -1.4451 0.274814 0
M  V30 9269 H 918.901 -3.76196 -1.80368 0
M  V30 9270 H 917.531 -2.6233 -1.88103 0
M  V30 9271 H 916.583 -3.79671 0.235414 0
M  V30 9272 H 917.895 -4.9872 0.0894075 0
M  V30 9273 H 917.049 -5.66717 -2.16603 0
M  V30 9274 H 915.788 -4.40397 -2.09527 0
M  V30 9275 H 914.793 -5.4976 -0.0663841 0
M  V30 9276 H 916.018 -6.78919 -0.156685 0
M  V30 9277 H 913.964 -6.14162 -2.30524 0
M  V30 9278 H 913.881 -7.46574 -1.19007 0
M  V30 9279 H 915.149 -7.42326 -2.37849 0
M  V30 9280 N 919.378 -0.300708 -1.54705 0
M  V30 9281 C 920.288 0.584996 -2.27189 0
M  V30 9282 C 921.304 1.14866 -1.30697 0
M  V30 9283 O 922.48 1.17351 -1.63679 0
M  V30 9284 C 919.545 1.74076 -2.99831 0
M  V30 9285 C 918.606 1.2112 -4.1186 0
M  V30 9286 C 917.839 2.31188 -4.81028 0
M  V30 9287 O 918.062 3.5108 -4.49554 0
M  V30 9288 O 916.996 1.97897 -5.68437 0
M  V30 9289 H 920.822 -0.00298177 -3.037 0
M  V30 9290 H 918.407 -0.0671802 -1.49249 0
M  V30 9291 H 920.289 2.41413 -3.45395 0
M  V30 9292 H 918.964 2.31535 -2.26215 0
M  V30 9293 H 917.871 0.50357 -3.70695 0
M  V30 9294 H 919.204 0.682046 -4.87452 0
M  V30 9295 N 920.856 1.57574 -0.0284266 0
M  V30 9296 C 921.804 2.11332 0.971675 0
M  V30 9297 C 922.798 1.03974 1.33738 0
M  V30 9298 O 924.004 1.22409 1.31969 0
M  V30 9299 H 920.379 0.675174 0.331125 0
M  V30 9300 H 922.35 2.943 0.49296 0
M  V30 9301 C 921.099 2.65496 2.24516 0
M  V30 9302 H 920.422 3.47753 1.9725 0
M  V30 9303 H 921.862 3.06757 2.92705 0
M  V30 9304 C 920.321 1.58207 2.97443 0
M  V30 9305 O 920.851 0.981496 3.89525 0
M  V30 9306 N 919.057 1.30269 2.59766 0
M  V30 9307 H 918.604 1.79294 1.84963 0
M  V30 9308 H 918.562 0.587085 3.0887 0
M  V30 9309 N 922.334 -0.244713 1.55689 0
M  V30 9310 C 923.745 -0.813603 1.6804 0
M  V30 9311 C 924.096 -1.85936 0.626281 0
M  V30 9312 O 923.221 -2.15206 -0.227038 0
M  V30 9313 C 923.816 -1.48252 3.04642 0
M  V30 9314 C 922.375 -1.99908 3.18926 0
M  V30 9315 C 921.522 -0.850958 2.6392 0
M  V30 9316 H 924.473 -0.0204805 1.58687 0
M  V30 9317 H 924.494 -2.35062 2.99209 0
M  V30 9318 H 924.006 -0.721164 3.81341 0
M  V30 9319 H 922.107 -2.78918 2.47054 0
M  V30 9320 H 922.22 -2.19497 4.25862 0
M  V30 9321 H 920.584 -1.25206 2.21801 0
M  V30 9322 H 921.367 -0.10265 3.43146 0
M  V30 9323 N 923.813 -1.49104 -0.510467 0
M  V30 9324 C 925.038 -1.62068 -1.29417 0
M  V30 9325 C 925.463 -0.288432 -1.85875 0
M  V30 9326 O 924.821 0.742667 -1.65391 0
M  V30 9327 C 924.869 -2.68506 -2.40701 0
M  V30 9328 O 923.973 -2.27021 -3.4429 0
M  V30 9329 H 923.314 -0.542778 -0.382476 0
M  V30 9330 H 925.844 -1.95228 -0.612154 0
M  V30 9331 H 925.854 -2.90383 -2.86604 0
M  V30 9332 H 924.529 -3.65216 -1.98973 0
M  V30 9333 H 923.106 -2.15436 -3.04371 0
M  V30 9334 N 925.291 0.760815 -1.38019 0
M  V30 9335 C 926.539 1.51673 -1.33566 0
M  V30 9336 C 926.86 1.94852 0.076024 0
M  V30 9337 O 926.13 1.67112 1.02227 0
M  V30 9338 H 924.71 0.562581 -0.491438 0
M  V30 9339 H 927.372 0.904832 -1.72623 0
M  V30 9340 H 926.468 2.41102 -1.98182 0
M  V30 9341 N 926.769 1.22769 0.988202 0
M  V30 9342 C 928.009 1.06673 1.74356 0
M  V30 9343 C 928.373 -0.390737 1.87982 0
M  V30 9344 O 929.574 -0.672677 2.60247 0
M  V30 9345 C 927.845 1.76361 3.10856 0
M  V30 9346 S 929.404 1.75738 4.02071 0
M  V30 9347 H 926.222 0.381917 0.599717 0
M  V30 9348 H 928.824 1.55784 1.18117 0
M  V30 9349 H 927.528 2.81559 2.98584 0
M  V30 9350 H 927.059 1.27501 3.72165 0
M  V30 9351 H 929.074 0.810418 4.89537 0
M  V30 9352 N 928.247 -1.18576 1.03814 0
M  V30 9353 C 929.472 -1.92978 0.759873 0
M  V30 9354 C 929.897 -1.75514 -0.676486 0
M  V30 9355 O 929.255 -1.06359 -1.46824 0
M  V30 9356 C 929.303 -3.42507 1.12788 0
M  V30 9357 O 928.407 -4.1163 0.251886 0
M  V30 9358 H 927.748 -0.602129 0.279886 0
M  V30 9359 H 930.278 -1.50383 1.3873 0
M  V30 9360 H 930.288 -3.93206 1.08872 0
M  V30 9361 H 928.963 -3.5454 2.17427 0
M  V30 9362 H 927.54 -3.7125 0.350441 0
M  V30 9363 N 929.725 -0.817259 -1.34754 0
M  V30 9364 C 930.635 -0.236946 -2.334 0
M  V30 9365 C 931.651 0.625685 -1.62361 0
M  V30 9366 O 932.827 0.534921 -1.94166 0
M  V30 9367 C 929.892 0.596215 -3.41535 0
M  V30 9368 C 928.953 -0.288154 -4.28332 0
M  V30 9369 C 928.186 0.505337 -5.31302 0
M  V30 9370 O 928.409 1.73912 -5.43241 0
M  V30 9371 O 927.343 -0.109374 -6.01801 0
M  V30 9372 H 931.169 -1.05327 -2.84851 0
M  V30 9373 H 928.754 -0.579275 -1.37713 0
M  V30 9374 H 930.636 1.07041 -4.07578 0
M  V30 9375 H 929.311 1.38997 -2.92338 0
M  V30 9376 H 928.218 -0.809724 -3.65232 0
M  V30 9377 H 929.551 -1.04612 -4.80955 0
M  V30 9378 N 931.203 1.46865 -0.571711 0
M  V30 9379 C 932.443 2.04324 -0.0556487 0
M  V30 9380 C 932.807 1.43486 1.27576 0
M  V30 9381 O 934.008 1.92079 1.8804 0
M  V30 9382 C 932.279 3.57394 0.0206263 0
M  V30 9383 S 933.838 4.36159 0.480709 0
M  V30 9384 H 930.656 0.710273 -0.0321467 0
M  V30 9385 H 933.258 1.8005 -0.761725 0
M  V30 9386 H 931.962 3.99193 -0.952509 0
M  V30 9387 H 931.493 3.86188 0.749812 0
M  V30 9388 H 933.508 4.6478 1.73763 0
M  V30 9389 N 932.681 0.308908 1.54543 0
M  V30 9390 C 933.628 -0.563659 2.23811 0
M  V30 9391 C 934.598 -1.12332 1.22355 0
M  V30 9392 O 935.783 -1.16638 1.50997 0
M  V30 9393 C 932.923 -1.72585 2.98845 0
M  V30 9394 C 932.036 -1.19682 4.1509 0
M  V30 9395 C 931.171 -2.32351 4.77688 0
M  V30 9396 C 930.21 -1.76623 5.86064 0
M  V30 9397 N 929.347 -2.82896 6.42584 0
M  V30 9398 H 934.187 0.0336288 2.97981 0
M  V30 9399 H 931.724 0.0283666 1.47073 0
M  V30 9400 H 933.682 -2.40951 3.40586 0
M  V30 9401 H 932.312 -2.29464 2.27037 0
M  V30 9402 H 931.364 -0.405173 3.78236 0
M  V30 9403 H 932.676 -0.748923 4.93146 0
M  V30 9404 H 931.83 -3.0865 5.22322 0
M  V30 9405 H 930.569 -2.80472 3.98982 0
M  V30 9406 H 929.574 -0.988171 5.40847 0
M  V30 9407 H 930.799 -1.29398 6.66658 0
M  V30 9408 H 928.745 -3.30336 5.66758 0
M  V30 9409 H 928.662 -2.42626 7.16009 0
M  V30 9410 H 929.93 -3.59068 6.91875 0
M  V30 9411 N 934.159 -1.57557 0.0367827 0
M  V30 9412 C 935.399 -1.93981 -0.644252 0
M  V30 9413 C 935.763 -0.913982 -1.6885 0
M  V30 9414 O 936.964 -1.16468 -2.42257 0
M  V30 9415 C 935.235 -3.35281 -1.23779 0
M  V30 9416 S 936.794 -3.93643 -1.93883 0
M  V30 9417 H 933.612 -0.678683 -0.21192 0
M  V30 9418 H 936.214 -1.95232 0.102281 0
M  V30 9419 H 934.918 -4.07752 -0.465451 0
M  V30 9420 H 934.449 -3.37492 -2.02146 0
M  V30 9421 H 936.464 -3.777 -3.21803 0
M  V30 9422 N 935.637 0.236453 -1.55816 0
M  V30 9423 C 936.587 1.29603 -1.87582 0
M  V30 9424 C 937.571 1.42999 -0.737566 0
M  V30 9425 O 938.763 1.46065 -0.999701 0
M  V30 9426 C 935.892 2.64945 -2.1831 0
M  V30 9427 C 934.978 2.55511 -3.38489 0
M  V30 9428 N 935.369 2.15716 -4.57494 0
M  V30 9429 C 933.667 2.86502 -3.41808 0
M  V30 9430 C 934.368 2.17169 -5.39641 0
M  V30 9431 N 933.344 2.5708 -4.78969 0
M  V30 9432 H 937.146 0.979016 -2.77115 0
M  V30 9433 H 934.66 0.445058 -1.56183 0
M  V30 9434 H 936.657 3.41426 -2.39236 0
M  V30 9435 H 935.317 2.97504 -1.30082 0
M  V30 9436 H 936.328 1.87089 -4.82927 0
M  V30 9437 H 933.005 3.23533 -2.6388 0
M  V30 9438 H 934.395 1.88653 -6.44872 0
M  V30 9439 N 937.115 1.49373 0.502552 0
M  V30 9440 C 938.062 1.65927 1.60427 0
M  V30 9441 C 939.032 0.500768 1.58371 0
M  V30 9442 O 940.217 0.727606 1.76382 0
M  V30 9443 C 937.357 1.73043 2.9858 0
M  V30 9444 C 936.47 3.00187 3.10663 0
M  V30 9445 C 935.605 2.98292 4.3954 0
M  V30 9446 C 934.644 4.20022 4.4525 0
M  V30 9447 N 933.781 4.16046 5.65553 0
M  V30 9448 H 938.621 2.59998 1.45619 0
M  V30 9449 H 936.158 1.28912 0.708519 0
M  V30 9450 H 938.116 1.7515 3.78653 0
M  V30 9451 H 936.746 0.824397 3.12095 0
M  V30 9452 H 935.798 3.07699 2.23663 0
M  V30 9453 H 937.11 3.9018 3.10742 0
M  V30 9454 H 936.264 2.98953 5.27932 0
M  V30 9455 H 935.003 2.06075 4.42023 0
M  V30 9456 H 934.008 4.19607 3.5526 0
M  V30 9457 H 935.233 5.13431 4.44484 0
M  V30 9458 H 933.179 3.26665 5.68881 0
M  V30 9459 H 933.096 4.99773 5.67242 0
M  V30 9460 H 934.364 4.20807 6.56156 0
M  V30 9461 N 938.594 -0.753485 1.38421 0
M  V30 9462 C 939.557 -1.84888 1.35459 0
M  V30 9463 C 940.557 -1.58764 0.255083 0
M  V30 9464 O 941.747 -1.66507 0.511978 0
M  V30 9465 C 938.879 -3.22361 1.10888 0
M  V30 9466 H 940.072 -1.88922 2.32913 0
M  V30 9467 H 937.625 -0.955199 1.23716 0
M  V30 9468 H 938.36 -3.23996 0.1404 0
M  V30 9469 H 938.145 -3.42717 1.90492 0
M  V30 9470 H 939.635 -4.02437 1.1151 0
M  V30 9471 N 940.072 -1.23292 -0.981677 0
M  V30 9472 C 941.32 -1.06214 -1.71939 0
M  V30 9473 C 941.641 0.401989 -1.90812 0
M  V30 9474 O 940.911 1.28825 -1.47584 0
M  V30 9475 H 939.491 -0.390042 -0.637084 0
M  V30 9476 H 942.153 -1.54988 -1.18173 0
M  V30 9477 H 941.249 -1.54904 -2.70945 0
M  V30 9478 N 941.55 1.18024 -1.04442 0
M  V30 9479 C 942.778 1.92032 -0.770161 0
M  V30 9480 C 943.193 1.76391 0.673181 0
M  V30 9481 O 942.55 1.09604 1.45922 0
M  V30 9482 C 942.601 3.43328 -1.13173 0
M  V30 9483 O 942.322 3.5848 -2.51841 0
M  V30 9484 C 943.823 4.34427 -0.882523 0
M  V30 9485 H 941.043 0.609518 -0.280586 0
M  V30 9486 H 943.587 1.49711 -1.39308 0
M  V30 9487 H 941.742 3.83423 -0.553704 0
M  V30 9488 H 942.156 4.52166 -2.65794 0
M  V30 9489 H 943.63 5.39123 -1.18533 0
M  V30 9490 H 944.107 4.3882 0.18257 0
M  V30 9491 H 944.713 4.00035 -1.44403 0
M  V30 9492 N 943.028 0.824394 1.34319 0
M  V30 9493 C 944.274 0.413779 1.98534 0
M  V30 9494 C 944.607 -1.02089 1.65201 0
M  V30 9495 O 943.882 -1.71129 0.924402 0
M  V30 9496 C 944.165 0.61801 3.54757 0
M  V30 9497 C 944.018 2.0989 3.97827 0
M  V30 9498 C 945.337 0.0549041 4.40066 0
M  V30 9499 H 942.456 0.151815 0.721194 0
M  V30 9500 H 945.098 1.03723 1.5919 0
M  V30 9501 H 943.248 0.0873107 3.88402 0
M  V30 9502 H 944.92 2.69335 3.74508 0
M  V30 9503 H 943.163 2.58881 3.48085 0
M  V30 9504 H 943.834 2.1926 5.06586 0
M  V30 9505 H 946.31 0.508348 4.12983 0
M  V30 9506 H 945.186 0.227595 5.48428 0
M  V30 9507 H 945.447 -1.04025 4.29687 0
M  V30 9508 N 944.506 -1.46559 0.579492 0
M  V30 9509 C 945.731 -2.0729 0.0674595 0
M  V30 9510 C 946.156 -1.4259 -1.22677 0
M  V30 9511 O 945.514 -0.50857 -1.74021 0
M  V30 9512 C 945.562 -3.60492 -0.0882227 0
M  V30 9513 O 944.666 -3.96172 -1.14551 0
M  V30 9514 H 944.007 -0.661159 0.0613536 0
M  V30 9515 H 946.537 -1.88247 0.801519 0
M  V30 9516 H 946.547 -4.06929 -0.295411 0
M  V30 9517 H 945.222 -4.06976 0.856943 0
M  V30 9518 H 943.799 -3.61448 -0.917033 0
M  V30 9519 N 945.984 -0.3171 -1.54377 0
M  V30 9520 C 947.232 0.286842 -2.00054 0
M  V30 9521 C 947.553 1.53161 -1.20692 0
M  V30 9522 O 946.823 1.93479 -0.307045 0
M  V30 9523 H 945.403 0.108979 -0.739008 0
M  V30 9524 H 948.065 -0.432152 -1.90049 0
M  V30 9525 H 947.161 0.547729 -3.07256 0
M  V30 9526 N 947.462 1.57535 -0.0451378 0
M  V30 9527 C 948.69 1.96761 0.639742 0
M  V30 9528 C 949.105 0.922405 1.64734 0
M  V30 9529 O 948.462 -0.0940535 1.82257 0
M  V30 9530 C 948.513 3.36066 1.33199 0
M  V30 9531 O 948.234 4.36579 0.364757 0
M  V30 9532 C 949.735 3.90015 2.1072 0
M  V30 9533 H 946.955 0.64769 0.175324 0
M  V30 9534 H 949.499 2.04206 -0.109651 0
M  V30 9535 H 947.654 3.2979 2.03266 0
M  V30 9536 H 948.068 5.17432 0.858168 0
M  V30 9537 H 949.542 4.89785 2.54586 0
M  V30 9538 H 950.019 3.25117 2.95288 0
M  V30 9539 H 950.625 3.99609 1.45577 0
M  V30 9540 N 948.94 -0.228186 1.55939 0
M  V30 9541 C 950.188 -0.951668 1.78291 0
M  V30 9542 C 950.509 -1.85132 0.612474 0
M  V30 9543 O 949.779 -1.92356 -0.370942 0
M  V30 9544 H 948.359 -0.354388 0.657585 0
M  V30 9545 H 951.021 -0.241635 1.93396 0
M  V30 9546 H 950.117 -1.56239 2.70177 0
M  V30 9547 N 950.418 -1.49637 -0.494624 0
M  V30 9548 C 951.328 -1.69522 -1.62172 0
M  V30 9549 C 952.344 -0.577894 -1.64123 0
M  V30 9550 O 953.52 -0.853382 -1.82426 0
M  V30 9551 C 950.585 -1.7633 -2.9851 0
M  V30 9552 C 949.646 -2.99944 -3.07135 0
M  V30 9553 C 948.879 -3.06419 -4.36971 0
M  V30 9554 O 949.102 -2.20312 -5.26136 0
M  V30 9555 O 948.036 -3.9894 -4.507 0
M  V30 9556 H 951.862 -2.65017 -1.48324 0
M  V30 9557 H 949.447 -1.33454 -0.671603 0
M  V30 9558 H 951.329 -1.83125 -3.7953 0
M  V30 9559 H 950.004 -0.840155 -3.12607 0
M  V30 9560 H 948.911 -2.98664 -2.2528 0
M  V30 9561 H 950.244 -3.9176 -2.97968 0
M  V30 9562 N 951.896 0.746133 -1.38819 0
M  V30 9563 C 953.136 1.51821 -1.36857 0
M  V30 9564 C 953.5 1.9196 0.0391461 0
M  V30 9565 O 954.701 2.68172 0.183689 0
M  V30 9566 C 952.972 2.73214 -2.3041 0
M  V30 9567 S 954.531 3.62995 -2.46536 0
M  V30 9568 H 951.349 0.51945 -0.485482 0
M  V30 9569 H 953.951 0.875244 -1.74813 0
M  V30 9570 H 952.655 2.41847 -3.31569 0
M  V30 9571 H 952.186 3.42449 -1.9363 0
M  V30 9572 H 954.201 4.66353 -1.69498 0
M  V30 9573 N 953.375 1.23811 0.975125 0
M  V30 9574 C 954.791 1.0019 1.24234 0
M  V30 9575 C 954.991 -0.293811 1.99346 0
M  V30 9576 O 954.047 -1.01189 2.31337 0
M  V30 9577 C 955.36 2.21218 2.03674 0
M  V30 9578 C 956.908 2.25764 2.16793 0
M  V30 9579 C 957.383 3.46394 2.99626 0
M  V30 9580 N 958.874 3.46665 3.07209 0
M  V30 9581 C 959.609 4.3666 3.71639 0
M  V30 9582 N 959.105 5.36899 4.37849 0
M  V30 9583 N 960.898 4.2439 3.68578 0
M  V30 9584 H 953.049 2.07087 0.472076 0
M  V30 9585 H 955.312 0.90838 0.271201 0
M  V30 9586 H 955.018 3.15277 1.55862 0
M  V30 9587 H 954.892 2.22733 3.04417 0
M  V30 9588 H 957.279 1.32242 2.63811 0
M  V30 9589 H 957.36 2.28279 1.15422 0
M  V30 9590 H 957.004 4.40227 2.53304 0
M  V30 9591 H 956.934 3.41121 4.01178 0
M  V30 9592 H 959.425 2.74142 2.60105 0
M  V30 9593 H 959.738 6.01816 4.84807 0
M  V30 9594 H 958.083 5.40793 4.36541 0
M  V30 9595 H 961.274 3.4532 3.16025 0
M  V30 9596 H 961.447 4.94727 4.18508 0
M  V30 9597 N 954.853 -1.17469 1.05066 0
M  V30 9598 C 955.785 -2.20974 0.608526 0
M  V30 9599 C 956.798 -1.59481 -0.327066 0
M  V30 9600 O 957.987 -1.78096 -0.12 0
M  V30 9601 C 955.087 -3.38652 -0.12969 0
M  V30 9602 C 954.26 -4.29716 0.816285 0
M  V30 9603 C 953.319 -5.26064 0.119556 0
M  V30 9604 O 952.345 -5.64194 0.753241 0
M  V30 9605 N 953.547 -5.69126 -1.14347 0
M  V30 9606 H 956.312 -2.59529 1.49882 0
M  V30 9607 H 953.873 -1.32355 0.932406 0
M  V30 9608 H 955.865 -4.00139 -0.605886 0
M  V30 9609 H 954.435 -2.98705 -0.921638 0
M  V30 9610 H 953.655 -3.6568 1.47213 0
M  V30 9611 H 954.943 -4.87449 1.45845 0
M  V30 9612 H 954.341 -5.4022 -1.67866 0
M  V30 9613 H 952.898 -6.32764 -1.56376 0
M  V30 9614 N 956.331 -0.831506 -1.3388 0
M  V30 9615 C 957.579 -0.422837 -1.97627 0
M  V30 9616 C 957.9 1.01961 -1.6622 0
M  V30 9617 O 957.17 1.70916 -0.957323 0
M  V30 9618 H 955.75 -0.153365 -0.731087 0
M  V30 9619 H 958.412 -1.06284 -1.6337 0
M  V30 9620 H 957.508 -0.548858 -3.07236 0
M  V30 9621 N 957.809 1.4625 -0.587256 0
M  V30 9622 C 959.086 1.95599 -0.00750181 0
M  V30 9623 C 959.466 1.52989 1.45457 0
M  V30 9624 O 958.814 0.782731 2.14676 0
M  V30 9625 C 959.024 3.48513 -0.184309 0
M  V30 9626 C 960.372 4.24565 -0.0544972 0
M  V30 9627 O 961.396 3.5602 -0.113378 0
M  V30 9628 O 960.255 5.46445 0.0774075 0
M  V30 9629 H 957.349 0.825649 0.0472495 0
M  V30 9630 H 959.895 1.56512 -0.655893 0
M  V30 9631 H 958.667 3.72428 -1.20053 0
M  V30 9632 H 958.29 3.9444 0.500301 0
M  V30 9633 N 959.287 0.325282 1.54207 0
M  V30 9634 C 960.535 -0.276229 2.00203 0
M  V30 9635 C 960.856 -1.52519 1.21503 0
M  V30 9636 O 960.126 -1.93313 0.317302 0
M  V30 9637 H 958.706 -0.105059 0.739575 0
M  V30 9638 H 961.368 0.442225 1.89817 0
M  V30 9639 H 960.464 -0.531427 3.07542 0
M  V30 9640 N 960.765 -1.57509 0.0534917 0
M  V30 9641 C 962.042 -1.84137 -0.659767 0
M  V30 9642 C 962.422 -0.942362 -1.88899 0
M  V30 9643 O 961.77 -0.00398566 -2.285 0
M  V30 9644 C 961.98 -3.33919 -1.01486 0
M  V30 9645 C 963.328 -4.00989 -1.39616 0
M  V30 9646 O 964.352 -3.38557 -1.10713 0
M  V30 9647 O 963.211 -5.11071 -1.93567 0
M  V30 9648 H 960.305 -0.760081 -0.325893 0
M  V30 9649 H 962.851 -1.69497 0.0830315 0
M  V30 9650 H 961.623 -3.91046 -0.141041 0
M  V30 9651 H 961.246 -3.53755 -1.81503 0
M  V30 9652 N 962.243 0.219913 -1.56058 0
M  V30 9653 C 963.483 0.951113 -1.80923 0
M  V30 9654 C 963.847 1.81465 -0.627247 0
M  V30 9655 O 965.048 2.57972 -0.755237 0
M  V30 9656 C 963.319 1.76652 -3.10691 0
M  V30 9657 S 964.878 2.55314 -3.56876 0
M  V30 9658 H 961.696 0.319461 -0.635189 0
M  V30 9659 H 964.298 0.216551 -1.94297 0
M  V30 9660 H 963.002 1.12231 -3.94756 0
M  V30 9661 H 962.533 2.54335 -3.00128 0
M  V30 9662 H 964.548 3.78938 -3.20344 0
M  V30 9663 N 963.721 1.49897 0.486681 0
M  V30 9664 C 964.671 1.6401 1.58381 0
M  V30 9665 C 965.655 0.495215 1.5309 0
M  V30 9666 O 966.847 0.748876 1.60377 0
M  V30 9667 C 963.976 1.72321 2.96918 0
M  V30 9668 C 963.062 2.92435 3.07152 0
M  V30 9669 N 963.453 4.16326 2.87238 0
M  V30 9670 C 961.751 2.90669 3.38271 0
M  V30 9671 C 962.452 4.97144 3.02031 0
M  V30 9672 N 961.428 4.3079 3.31544 0
M  V30 9673 H 965.23 2.57506 1.41661 0
M  V30 9674 H 962.744 1.46867 0.693106 0
M  V30 9675 H 964.741 1.80532 3.75784 0
M  V30 9676 H 963.401 0.799724 3.14697 0
M  V30 9677 H 964.412 4.46076 2.63128 0
M  V30 9678 H 961.089 2.07758 3.62137 0
M  V30 9679 H 962.479 6.05611 2.91006 0
M  V30 9680 N 965.199 -0.738761 1.39212 0
M  V30 9681 C 966.439 -1.51093 1.3766 0
M  V30 9682 C 966.803 -1.91978 -0.0289655 0
M  V30 9683 O 968.004 -2.68265 -0.169465 0
M  V30 9684 C 966.275 -2.71988 2.31856 0
M  V30 9685 S 967.834 -3.61683 2.48458 0
M  V30 9686 H 964.652 -0.516868 0.48823 0
M  V30 9687 H 967.254 -0.865961 1.75275 0
M  V30 9688 H 965.958 -2.40085 3.32847 0
M  V30 9689 H 965.489 -3.41417 1.95443 0
M  V30 9690 H 967.504 -4.65447 1.71969 0
M  V30 9691 N 966.677 -1.24326 -0.968545 0
M  V30 9692 C 967.624 -1.0349 -2.06297 0
M  V30 9693 C 968.594 0.0515333 -1.6602 0
M  V30 9694 O 969.779 -0.102924 -1.90522 0
M  V30 9695 C 966.919 -0.64487 -3.39021 0
M  V30 9696 C 966.032 -1.80469 -3.92498 0
M  V30 9697 C 965.167 -1.36032 -5.13487 0
M  V30 9698 C 964.206 -2.49014 -5.59159 0
M  V30 9699 N 963.343 -2.05451 -6.71367 0
M  V30 9700 H 968.183 -1.97161 -2.23454 0
M  V30 9701 H 965.72 -0.982028 -1.0952 0
M  V30 9702 H 967.678 -0.399771 -4.1528 0
M  V30 9703 H 966.308 0.254845 -3.21792 0
M  V30 9704 H 965.36 -2.16348 -3.12886 0
M  V30 9705 H 966.672 -2.65365 -4.22354 0
M  V30 9706 H 965.826 -1.07405 -5.97117 0
M  V30 9707 H 964.565 -0.481887 -4.85313 0
M  V30 9708 H 963.57 -2.78402 -4.74102 0
M  V30 9709 H 964.795 -3.37413 -5.89346 0
M  V30 9710 H 962.741 -1.20004 -6.4493 0
M  V30 9711 H 962.658 -2.83901 -7.00668 0
M  V30 9712 H 963.926 -1.79962 -7.58442 0
M  V30 9713 N 968.156 1.1691 -1.05688 0
M  V30 9714 C 969.381 1.91745 -0.790478 0
M  V30 9715 C 969.806 1.76568 0.648478 0
M  V30 9716 O 969.164 1.08682 1.45114 0
M  V30 9717 C 969.212 3.4067 -1.18222 0
M  V30 9718 O 968.316 4.11177 -0.317341 0
M  V30 9719 H 967.657 0.5976 -0.28943 0
M  V30 9720 H 970.187 1.48157 -1.41105 0
M  V30 9721 H 970.197 3.91424 -1.15114 0
M  V30 9722 H 968.872 3.51036 -2.2304 0
M  V30 9723 H 967.449 3.70645 -0.409459 0
M  V30 9724 N 969.634 0.838594 1.33437 0
M  V30 9725 C 970.584 0.243681 2.26694 0
M  V30 9726 C 971.568 -0.601168 1.49247 0
M  V30 9727 O 972.76 -0.453181 1.711 0
M  V30 9728 C 969.889 -0.580525 3.38356 0
M  V30 9729 C 968.975 0.275819 4.23202 0
M  V30 9730 N 969.366 1.3544 4.87329 0
M  V30 9731 C 967.664 0.0628047 4.45956 0
M  V30 9732 C 968.365 1.87991 5.50486 0
M  V30 9733 N 967.341 1.18143 5.30607 0
M  V30 9734 H 971.143 1.06849 2.73789 0
M  V30 9735 H 968.657 0.683019 1.47338 0
M  V30 9736 H 970.654 -1.02301 4.04153 0
M  V30 9737 H 969.314 -1.40331 2.92809 0
M  V30 9738 H 970.325 1.73729 4.87892 0
M  V30 9739 H 967.002 -0.726563 4.11129 0
M  V30 9740 H 968.392 2.78312 6.11549 0
M  V30 9741 N 971.112 -1.45937 0.595003 0
M  V30 9742 C 972.358 -2.0262 0.0854317 0
M  V30 9743 C 972.691 -1.46402 -1.27594 0
M  V30 9744 O 971.966 -0.633823 -1.83883 0
M  V30 9745 C 972.249 -3.60085 0.0329075 0
M  V30 9746 C 972.102 -4.26663 1.42405 0
M  V30 9747 C 973.421 -4.35101 -0.661426 0
M  V30 9748 H 970.54 -0.736282 0.0325196 0
M  V30 9749 H 973.182 -1.73938 0.764563 0
M  V30 9750 H 971.332 -3.84652 -0.545439 0
M  V30 9751 H 973.004 -4.13321 2.04851 0
M  V30 9752 H 971.247 -3.85549 1.98833 0
M  V30 9753 H 971.918 -5.35497 1.33965 0
M  V30 9754 H 974.394 -4.15753 -0.169977 0
M  V30 9755 H 973.27 -5.44829 -0.667243 0
M  V30 9756 H 973.531 -4.07053 -1.72513 0
M  V30 9757 N 972.59 -0.333456 -1.54032 0
M  V30 9758 C 973.838 0.265608 -2.00347 0
M  V30 9759 C 974.159 1.51873 -1.2231 0
M  V30 9760 O 973.429 1.93142 -0.327549 0
M  V30 9761 H 972.009 0.101135 -0.740122 0
M  V30 9762 H 974.671 -0.452285 -1.8958 0
M  V30 9763 H 973.767 0.51511 -3.0782 0
M  V30 9764 N 974.068 1.57479 -0.061844 0
M  V30 9765 C 975.316 1.92727 0.608336 0
M  V30 9766 C 975.637 0.941799 1.70749 0
M  V30 9767 O 974.907 -0.0116608 1.95897 0
M  V30 9768 H 973.487 0.71145 0.2277 0
M  V30 9769 H 976.149 1.94546 -0.117359 0
M  V30 9770 H 975.245 2.9426 1.04007 0
M  V30 9771 N 975.546 -0.211634 1.56173 0
M  V30 9772 C 976.823 -0.959467 1.70451 0
M  V30 9773 C 977.203 -2.02036 0.611942 0
M  V30 9774 O 976.551 -2.25325 -0.37959 0
M  V30 9775 C 976.761 -1.56092 3.12148 0
M  V30 9776 C 978.109 -2.04939 3.71867 0
M  V30 9777 O 979.133 -1.65966 3.15172 0
M  V30 9778 O 977.992 -2.766 4.71333 0
M  V30 9779 H 975.086 -0.448844 0.6946 0
M  V30 9780 H 977.632 -0.202633 1.68486 0
M  V30 9781 H 976.404 -0.79538 3.83131 0
M  V30 9782 H 976.027 -2.38303 3.18273 0
M  V30 9783 N 977.024 -1.50153 -0.478725 0
M  V30 9784 C 978.249 -1.64776 -1.2595 0
M  V30 9785 C 978.674 -0.327794 -1.85222 0
M  V30 9786 O 978.032 0.707418 -1.66929 0
M  V30 9787 C 978.08 -2.73551 -2.34952 0
M  V30 9788 O 977.184 -2.34273 -3.39397 0
M  V30 9789 H 976.525 -0.550769 -0.370877 0
M  V30 9790 H 979.055 -1.96482 -0.570605 0
M  V30 9791 H 979.065 -2.96397 -2.8038 0
M  V30 9792 H 977.74 -3.69354 -1.91181 0
M  V30 9793 H 976.317 -2.21844 -2.99733 0
M  V30 9794 N 978.502 0.731368 -1.39602 0
M  V30 9795 C 979.742 1.5036 -1.3846 0
M  V30 9796 C 980.106 1.91991 0.018784 0
M  V30 9797 O 981.307 2.68351 0.155236 0
M  V30 9798 C 979.578 2.70755 -2.33295 0
M  V30 9799 S 981.137 3.6036 -2.50372 0
M  V30 9800 H 977.955 0.514271 -0.490964 0
M  V30 9801 H 980.557 0.856654 -1.75732 0
M  V30 9802 H 979.261 2.38316 -3.34116 0
M  V30 9803 H 978.792 3.40376 -1.97251 0
M  V30 9804 H 980.807 4.64529 -1.74435 0
M  V30 9805 N 979.98 1.24838 0.961938 0
M  V30 9806 C 981.257 0.99939 1.68141 0
M  V30 9807 C 981.637 -0.476588 2.0565 0
M  V30 9808 O 980.985 -1.45224 1.76415 0
M  V30 9809 C 981.195 1.92797 2.90913 0
M  V30 9810 C 982.543 2.20219 3.63027 0
M  V30 9811 O 983.567 1.90496 3.00981 0
M  V30 9812 O 982.426 2.70725 4.74731 0
M  V30 9813 H 979.52 0.37842 0.735342 0
M  V30 9814 H 982.066 1.35961 1.01551 0
M  V30 9815 H 980.838 2.92492 2.59931 0
M  V30 9816 H 980.461 1.57127 3.65235 0
M  V30 9817 N 981.458 -1.16348 1.06306 0
M  V30 9818 C 982.686 -1.90782 0.800614 0
M  V30 9819 C 983.101 -1.77439 -0.645033 0
M  V30 9820 O 982.458 -1.11912 -1.4416 0
M  V30 9821 C 982.509 -3.41484 1.18621 0
M  V30 9822 O 982.23 -3.54428 2.57512 0
M  V30 9823 C 983.731 -4.32968 0.951525 0
M  V30 9824 H 980.951 -0.604977 0.290247 0
M  V30 9825 H 983.495 -1.47476 1.41672 0
M  V30 9826 H 981.65 -3.82493 0.614633 0
M  V30 9827 H 982.064 -4.4788 2.72954 0
M  V30 9828 H 983.538 -5.37169 1.27095 0
M  V30 9829 H 984.015 -4.39055 -0.112734 0
M  V30 9830 H 984.621 -3.97687 1.50749 0
M  V30 9831 N 982.937 -0.845659 -1.3299 0
M  V30 9832 C 984.177 -0.450819 -1.99366 0
M  V30 9833 C 984.541 0.973297 -1.65502 0
M  V30 9834 O 985.742 1.47222 -2.24898 0
M  V30 9835 C 984.013 -0.672825 -3.5101 0
M  V30 9836 S 985.572 -0.374216 -4.37201 0
M  V30 9837 H 982.39 -0.169273 -0.690556 0
M  V30 9838 H 984.992 -1.09642 -1.61861 0
M  V30 9839 H 983.696 -1.70855 -3.73145 0
M  V30 9840 H 983.227 -0.0133185 -3.93398 0
M  V30 9841 H 985.242 0.803342 -4.89654 0
M  V30 9842 N 984.415 1.45619 -0.602734 0
M  V30 9843 C 985.325 2.34288 0.120902 0
M  V30 9844 C 986.341 1.50952 0.865414 0
M  V30 9845 O 987.517 1.83768 0.824094 0
M  V30 9846 C 984.582 3.28489 1.10888 0
M  V30 9847 C 983.643 4.2773 0.366853 0
M  V30 9848 C 982.876 5.17429 1.30776 0
M  V30 9849 O 983.099 5.10459 2.54535 0
M  V30 9850 O 982.033 5.96459 0.807464 0
M  V30 9851 H 985.859 2.97559 -0.60765 0
M  V30 9852 H 983.444 1.44922 -0.363019 0
M  V30 9853 H 985.326 3.86549 1.67803 0
M  V30 9854 H 984.001 2.67789 1.81854 0
M  V30 9855 H 982.908 3.73299 -0.244643 0
M  V30 9856 H 984.241 4.91271 -0.302226 0
M  V30 9857 N 985.893 0.34162 1.53853 0
M  V30 9858 C 987.17 -0.310664 1.93117 0
M  V30 9859 C 987.55 -1.68398 1.273 0
M  V30 9860 O 986.898 -2.24546 0.423225 0
M  V30 9861 C 987.108 -0.384867 3.46871 0
M  V30 9862 C 988.456 -0.636621 4.198 0
M  V30 9863 O 989.48 -0.467061 3.53125 0
M  V30 9864 O 988.339 -0.964962 5.37913 0
M  V30 9865 H 985.433 -0.180881 0.806977 0
M  V30 9866 H 987.979 0.392656 1.65095 0
M  V30 9867 H 986.751 0.57894 3.86994 0
M  V30 9868 H 986.374 -1.13505 3.81054 0
M  V30 9869 N 987.371 -1.57444 0.0701946 0
M  V30 9870 C 988.619 -1.93047 -0.598106 0
M  V30 9871 C 988.94 -0.950841 -1.70247 0
M  V30 9872 O 988.21 0.00127177 -1.959 0
M  V30 9873 H 986.79 -0.712648 -0.223924 0
M  V30 9874 H 989.452 -1.94481 0.127674 0
M  V30 9875 H 988.548 -2.94807 -1.02445 0
M  V30 9876 N 988.849 0.203349 -1.56283 0
M  V30 9877 C 990.079 0.940061 -1.83974 0
M  V30 9878 C 990.487 1.77703 -0.649486 0
M  V30 9879 O 989.83 1.79487 0.391189 0
M  V30 9880 C 989.892 1.89249 -3.05655 0
M  V30 9881 C 989.556 1.23828 -4.39904 0
M  V30 9882 C 990.553 0.619231 -5.16199 0
M  V30 9883 C 988.238 1.2446 -4.86636 0
M  V30 9884 C 990.232 0.0152287 -6.37398 0
M  V30 9885 C 987.919 0.636764 -6.07773 0
M  V30 9886 C 988.917 0.0231481 -6.82996 0
M  V30 9887 O 988.605 -0.575187 -8.0184 0
M  V30 9888 H 988.337 0.280199 -0.615194 0
M  V30 9889 H 990.891 0.218111 -2.04239 0
M  V30 9890 H 989.121 2.65392 -2.81254 0
M  V30 9891 H 990.81 2.4963 -3.20062 0
M  V30 9892 H 991.576 0.606545 -4.81192 0
M  V30 9893 H 987.455 1.71161 -4.28048 0
M  V30 9894 H 990.999 -0.464333 -6.96053 0
M  V30 9895 H 986.896 0.646924 -6.4225 0
M  V30 9896 H 987.664 -0.471284 -8.17142 0
M  V30 9897 N 990.327 1.50405 0.470755 0
M  V30 9898 C 991.574 1.61411 1.22281 0
M  V30 9899 C 991.902 0.314603 1.91939 0
M  V30 9900 O 991.157 -0.699531 1.82771 0
M  V30 9901 C 991.456 2.74426 2.28965 0
M  V30 9902 C 991.122 4.14896 1.76557 0
M  V30 9903 C 989.784 4.53116 1.61985 0
M  V30 9904 C 992.136 5.02686 1.3768 0
M  V30 9905 C 989.464 5.76868 1.0696 0
M  V30 9906 C 991.816 6.26985 0.840967 0
M  V30 9907 C 990.48 6.64008 0.68188 0
M  V30 9908 H 989.75 0.590645 0.447459 0
M  V30 9909 H 992.397 1.84339 0.518783 0
M  V30 9910 H 990.702 2.45588 3.05277 0
M  V30 9911 H 992.399 2.80146 2.86914 0
M  V30 9912 H 988.989 3.84743 1.88867 0
M  V30 9913 H 993.173 4.7379 1.47772 0
M  V30 9914 H 988.429 6.04227 0.933808 0
M  V30 9915 H 992.603 6.94372 0.531066 0
M  V30 9916 H 990.23 7.59778 0.25335 0
M  V30 9917 N 991.805 -0.723954 1.39988 0
M  V30 9918 C 992.768 -1.81973 1.3935 0
M  V30 9919 C 993.768 -1.58187 0.288702 0
M  V30 9920 O 994.958 -1.65383 0.547181 0
M  V30 9921 C 992.09 -3.19937 1.177 0
M  V30 9922 H 993.283 -1.83939 2.36868 0
M  V30 9923 H 990.836 -0.928742 1.25714 0
M  V30 9924 H 991.571 -3.23625 0.209093 0
M  V30 9925 H 991.356 -3.386 1.97719 0
M  V30 9926 H 992.846 -3.99981 1.20022 0
M  V30 9927 N 993.283 -1.25346 -0.955304 0
M  V30 9928 C 994.213 -1.08152 -2.06943 0
M  V30 9929 C 995.194 0.00922598 -1.70097 0
M  V30 9930 O 996.379 -0.160181 -1.93538 0
M  V30 9931 C 993.509 -0.698745 -3.40198 0
M  V30 9932 C 992.463 -1.73965 -3.9105 0
M  V30 9933 C 991.789 -1.21158 -5.20792 0
M  V30 9934 C 993.089 -3.13829 -4.17503 0
M  V30 9935 H 994.783 -2.01345 -2.21586 0
M  V30 9936 H 992.329 -0.969459 -1.06478 0
M  V30 9937 H 994.282 -0.565394 -4.1759 0
M  V30 9938 H 993.006 0.268892 -3.25491 0
M  V30 9939 H 991.665 -1.86143 -3.15827 0
M  V30 9940 H 991.313 -0.234193 -5.02455 0
M  V30 9941 H 991.013 -1.90728 -5.55785 0
M  V30 9942 H 992.537 -1.09061 -6.00781 0
M  V30 9943 H 993.951 -3.04809 -4.85556 0
M  V30 9944 H 992.348 -3.80863 -4.63749 0
M  V30 9945 H 993.418 -3.6094 -3.23806 0
M  V30 9946 N 994.761 1.15782 -1.06922 0
M  V30 9947 C 995.671 2.24008 -0.696948 0
M  V30 9948 C 996.687 1.71569 0.289862 0
M  V30 9949 O 997.863 2.00929 0.137585 0
M  V30 9950 C 994.928 3.46568 -0.0957895 0
M  V30 9951 C 993.989 4.14017 -1.13528 0
M  V30 9952 C 993.222 5.30725 -0.562713 0
M  V30 9953 O 993.445 5.66992 0.62259 0
M  V30 9954 O 992.379 5.87572 -1.30549 0
M  V30 9955 H 996.205 2.58174 -1.59938 0
M  V30 9956 H 993.79 1.2342 -0.841889 0
M  V30 9957 H 995.672 4.20731 0.237407 0
M  V30 9958 H 994.347 3.14161 0.780027 0
M  V30 9959 H 993.254 3.41795 -1.52076 0
M  V30 9960 H 994.587 4.50493 -1.98285 0
M  V30 9961 N 996.239 0.8527 1.3254 0
M  V30 9962 C 997.186 0.293905 2.28921 0
M  V30 9963 C 998.156 -0.598027 1.54961 0
M  V30 9964 O 999.341 -0.533355 1.83194 0
M  V30 9965 C 996.481 -0.513361 3.4126 0
M  V30 9966 C 995.594 0.404144 4.30105 0
M  V30 9967 C 994.729 -0.415564 5.29572 0
M  V30 9968 C 993.768 0.499461 6.10059 0
M  V30 9969 N 992.905 -0.282949 7.0153 0
M  V30 9970 H 997.745 1.12107 2.76109 0
M  V30 9971 H 995.282 0.564272 1.35847 0
M  V30 9972 H 997.24 -0.997008 4.05112 0
M  V30 9973 H 995.87 -1.30537 2.95229 0
M  V30 9974 H 994.922 1.00617 3.66852 0
M  V30 9975 H 996.234 1.10648 4.86373 0
M  V30 9976 H 995.388 -0.962458 5.99017 0
M  V30 9977 H 994.127 -1.15127 4.73917 0
M  V30 9978 H 993.132 1.05825 5.39519 0
M  V30 9979 H 994.357 1.23375 6.67799 0
M  V30 9980 H 992.303 -1.00179 6.48306 0
M  V30 9981 H 992.22 0.36039 7.55141 0
M  V30 9982 H 993.488 -0.811632 7.75263 0
M  V30 9983 N 997.718 -1.45297 0.610449 0
M  V30 9984 C 998.943 -2.07101 0.111414 0
M  V30 9985 C 999.368 -1.45161 -1.19625 0
M  V30 9986 O 998.726 -0.545368 -1.72903 0
M  V30 9987 C 998.774 -3.60598 -0.0117372 0
M  V30 9988 O 997.878 -3.98512 -1.06122 0
M  V30 9989 H 997.219 -0.659709 0.075364 0
M  V30 9990 H 999.749 -1.86504 0.841269 0
M  V30 9991 H 999.759 -4.07464 -0.209028 0
M  V30 9992 H 998.434 -4.05067 0.943076 0
M  V30 9993 H 997.011 -3.63312 -0.840158 0
M  V30 9994 N 999.196 -0.349774 -1.5367 0
M  V30 9995 C 1000.14 0.519396 -2.26727 0
M  V30 9996 C 1001.14 1.09673 -1.29105 0
M  V30 9997 O 1002.34 1.04176 -1.46791 0
M  V30 9998 H 998.719 0.186192 -0.728585 0
M  V30 9999 H 1000.69 -0.118736 -2.98164 0
M  V30 10000 C 999.439 1.65535 -3.05767 0
M  V30 10001 H 998.762 1.22038 -3.80719 0
M  V30 10002 H 1000.2 2.23856 -3.6009 0
M  V30 10003 C 998.661 2.58844 -2.15642 0
M  V30 10004 O 999.191 3.61254 -1.75665 0
M  V30 10005 N 997.397 2.27671 -1.80595 0
M  V30 10006 H 996.944 1.44429 -2.13302 0
M  V30 10007 H 996.902 2.90359 -1.20577 0
M  V30 10008 N 1000.67 1.57404 -0.0785433 0
M  V30 10009 C 1001.9 1.97787 0.596995 0
M  V30 10010 C 1002.31 0.955904 1.63276 0
M  V30 10011 O 1001.65 -0.0649169 1.83585 0
M  V30 10012 C 1001.72 3.34499 1.31723 0
M  V30 10013 C 1001.38 4.54933 0.434144 0
M  V30 10014 C 1002.38 5.18969 -0.311015 0
M  V30 10015 C 1000.06 5.01029 0.357046 0
M  V30 10016 C 1002.06 6.27457 -1.12142 0
M  V30 10017 C 999.744 6.09389 -0.457029 0
M  V30 10018 C 1000.74 6.72466 -1.19493 0
M  V30 10019 O 1000.43 7.78738 -1.99556 0
M  V30 10020 H 1000.16 0.655294 0.166028 0
M  V30 10021 H 1002.72 2.04855 -0.149517 0
M  V30 10022 H 1000.95 3.24064 2.10996 0
M  V30 10023 H 1002.63 3.5944 1.88567 0
M  V30 10024 H 1003.4 4.84297 -0.261084 0
M  V30 10025 H 999.28 4.51706 0.921026 0
M  V30 10026 H 1002.82 6.76622 -1.69788 0
M  V30 10027 H 998.721 6.43494 -0.508499 0
M  V30 10028 H 999.489 7.95648 -1.9206 0
M  V30 10029 N 1002.15 -0.195058 1.56388 0
M  V30 10030 C 1003.4 -0.915444 1.80626 0
M  V30 10031 C 1003.73 -1.83255 0.651768 0
M  V30 10032 O 1002.98 -1.92314 -0.362464 0
M  V30 10033 C 1003.28 -1.7637 3.10851 0
M  V30 10034 C 1002.95 -0.997572 4.39726 0
M  V30 10035 C 1001.61 -0.786043 4.74737 0
M  V30 10036 C 1003.96 -0.45851 5.19179 0
M  V30 10037 C 1001.29 -0.023972 5.86695 0
M  V30 10038 C 1003.64 0.29035 6.31933 0
M  V30 10039 C 1002.3 0.512895 6.65527 0
M  V30 10040 H 1001.57 -0.334985 0.660959 0
M  V30 10041 H 1004.22 -0.181815 1.90635 0
M  V30 10042 H 1002.53 -2.566 2.9608 0
M  V30 10043 H 1004.22 -2.3237 3.26811 0
M  V30 10044 H 1000.81 -1.17245 4.12252 0
M  V30 10045 H 1005 -0.609334 4.92545 0
M  V30 10046 H 1000.25 0.158421 6.11195 0
M  V30 10047 H 1004.43 0.715429 6.92715 0
M  V30 10048 H 1002.05 1.10531 7.52122 0
M  V30 10049 N 1003.63 -1.50653 -0.462772 0
M  V30 10050 C 1004.88 -1.61737 -1.21184 0
M  V30 10051 C 1005.2 -0.32369 -1.92295 0
M  V30 10052 O 1004.47 0.659269 -1.84473 0
M  V30 10053 H 1003.05 -0.596015 -0.450306 0
M  V30 10054 H 1005.71 -1.87469 -0.533051 0
M  V30 10055 H 1004.81 -2.43262 -1.95525 0
M  V30 10056 N 1005.11 0.71652 -1.4037 0
M  V30 10057 C 1006.35 1.48883 -1.40047 0
M  V30 10058 C 1006.71 1.92 -0.00158027 0
M  V30 10059 O 1007.91 2.68501 0.126765 0
M  V30 10060 C 1006.18 2.68265 -2.36154 0
M  V30 10061 S 1007.74 3.57684 -2.5418 0
M  V30 10062 H 1004.56 0.509035 -0.496391 0
M  V30 10063 H 1007.16 0.837967 -1.76631 0
M  V30 10064 H 1005.87 2.34759 -3.36625 0
M  V30 10065 H 1005.4 3.38264 -2.0085 0
M  V30 10066 H 1007.41 4.62653 -1.79352 0
M  V30 10067 N 1006.59 1.25851 0.948643 0
M  V30 10068 C 1007.52 1.02549 2.04979 0
M  V30 10069 C 1008.53 -0.0115923 1.62796 0
M  V30 10070 O 1009.72 0.227643 1.77042 0
M  V30 10071 C 1006.82 0.529486 3.34738 0
M  V30 10072 C 1005.99 1.6341 4.05729 0
M  V30 10073 C 1005.05 1.13743 5.1376 0
M  V30 10074 O 1004.08 1.83303 5.38877 0
M  V30 10075 N 1005.28 -0.0181151 5.80497 0
M  V30 10076 H 1008.05 1.97365 2.25537 0
M  V30 10077 H 1005.61 1.17137 1.11761 0
M  V30 10078 H 1007.6 0.181566 4.04293 0
M  V30 10079 H 1006.17 -0.324893 3.10907 0
M  V30 10080 H 1005.39 2.15331 3.30191 0
M  V30 10081 H 1006.68 2.37603 4.49914 0
M  V30 10082 H 1006.07 -0.599198 5.62518 0
M  V30 10083 H 1004.63 -0.307019 6.51077 0
M  V30 10084 N 1008.06 -1.15214 1.07534 0
M  V30 10085 C 1009.31 -1.85676 0.79805 0
M  V30 10086 C 1009.63 -1.82837 -0.677919 0
M  V30 10087 O 1008.9 -1.27059 -1.49107 0
M  V30 10088 H 1007.48 -0.687468 0.292227 0
M  V30 10089 H 1010.15 -1.39658 1.35947 0
M  V30 10090 H 1009.24 -2.9076 1.13423 0
M  V30 10091 N 1009.54 -0.859717 -1.32086 0
M  V30 10092 C 1010.78 -0.471939 -1.98877 0
M  V30 10093 C 1011.15 0.955689 -1.66525 0
M  V30 10094 O 1012.35 1.44829 -2.26447 0
M  V30 10095 C 1010.62 -0.710016 -3.50276 0
M  V30 10096 S 1012.18 -0.420566 -4.3678 0
M  V30 10097 H 1009 -0.176588 -0.688722 0
M  V30 10098 H 1011.6 -1.11352 -1.60689 0
M  V30 10099 H 1010.3 -1.74803 -3.71311 0
M  V30 10100 H 1009.83 -0.0550429 -3.93361 0
M  V30 10101 H 1011.85 0.751362 -4.90478 0
M  V30 10102 N 1011.02 1.44971 -0.618145 0
M  V30 10103 C 1011.95 2.28815 0.132751 0
M  V30 10104 C 1012.97 1.40551 0.821535 0
M  V30 10105 O 1014.15 1.64827 0.685155 0
M  V30 10106 C 1011.25 3.1658 1.20955 0
M  V30 10107 C 1010.43 4.33184 0.605821 0
M  V30 10108 C 1009.49 5.0208 1.57488 0
M  V30 10109 O 1008.51 5.58528 1.09706 0
M  V30 10110 N 1009.71 5.02335 2.9093 0
M  V30 10111 H 1012.48 2.939 -0.58674 0
M  V30 10112 H 1010.04 1.55276 -0.458375 0
M  V30 10113 H 1012.03 3.59535 1.85787 0
M  V30 10114 H 1010.6 2.53333 1.83143 0
M  V30 10115 H 1009.82 3.93581 -0.220827 0
M  V30 10116 H 1011.11 5.08471 0.182883 0
M  V30 10117 H 1010.51 4.57783 3.32342 0
M  V30 10118 H 1009.07 5.49119 3.51157 0
M  V30 10119 N 1012.5 0.357919 1.53482 0
M  V30 10120 C 1013.74 -0.23433 2.03052 0
M  V30 10121 C 1014.1 -1.46614 1.23969 0
M  V30 10122 O 1015.3 -2.13351 1.63508 0
M  V30 10123 C 1013.57 -0.526653 3.53498 0
M  V30 10124 S 1015.13 -1.09366 4.24952 0
M  V30 10125 H 1011.95 -0.0687848 0.707665 0
M  V30 10126 H 1014.55 0.499011 1.89024 0
M  V30 10127 H 1013.26 0.377463 4.0866 0
M  V30 10128 H 1012.79 -1.28927 3.71674 0
M  V30 10129 H 1014.8 -2.37845 4.35481 0
M  V30 10130 N 1013.98 -1.5736 0.0868897 0
M  V30 10131 C 1015.25 -1.85495 -0.620561 0
M  V30 10132 C 1015.63 -0.982218 -1.86857 0
M  V30 10133 O 1014.98 -0.0524529 -2.2844 0
M  V30 10134 C 1015.19 -3.35996 -0.943798 0
M  V30 10135 C 1016.54 -4.03861 -1.31079 0
M  V30 10136 O 1017.56 -3.4083 -1.03507 0
M  V30 10137 O 1016.42 -5.15062 -1.82683 0
M  V30 10138 H 1013.52 -0.766822 -0.309697 0
M  V30 10139 H 1016.06 -1.69282 0.118966 0
M  V30 10140 H 1014.83 -3.91257 -0.0580628 0
M  V30 10141 H 1014.46 -3.57525 -1.73958 0
M  V30 10142 N 1015.45 0.186762 -1.56489 0
M  V30 10143 C 1016.7 0.904077 -1.80303 0
M  V30 10144 C 1017.02 1.84073 -0.661538 0
M  V30 10145 O 1018.22 2.59928 -0.784197 0
M  V30 10146 C 1016.68 1.65806 -3.19432 0
M  V30 10147 C 1016.29 0.765807 -4.41406 0
M  V30 10148 C 1018.03 2.36451 -3.52549 0
M  V30 10149 C 1015.94 1.51913 -5.71556 0
M  V30 10150 H 1014.87 0.34133 -0.672317 0
M  V30 10151 H 1017.52 0.157218 -1.82825 0
M  V30 10152 H 1015.9 2.44911 -3.11183 0
M  V30 10153 H 1017.07 0.0128225 -4.60798 0
M  V30 10154 H 1015.39 0.169772 -4.16054 0
M  V30 10155 H 1017.99 2.93378 -4.47027 0
M  V30 10156 H 1018.33 3.11044 -2.7669 0
M  V30 10157 H 1018.86 1.64305 -3.62283 0
M  V30 10158 H 1015.6 0.815829 -6.50403 0
M  V30 10159 H 1015.12 2.24583 -5.56168 0
M  V30 10160 H 1016.8 2.07073 -6.12968 0
M  V30 10161 N 1016.93 1.50896 0.454776 0
M  V30 10162 C 1018.18 1.62378 1.20324 0
M  V30 10163 C 1018.5 0.333883 1.9212 0
M  V30 10164 O 1017.77 -0.649477 1.8482 0
M  V30 10165 H 1016.35 0.598395 0.447139 0
M  V30 10166 H 1019.01 1.87749 0.523102 0
M  V30 10167 H 1018.11 2.44296 1.94232 0
M  V30 10168 N 1018.41 -0.709066 1.40748 0
M  V30 10169 C 1019.66 -1.46611 1.39103 0
M  V30 10170 C 1019.98 -1.95 -0.00365366 0
M  V30 10171 O 1019.25 -1.70791 -0.959541 0
M  V30 10172 H 1017.83 -0.543954 0.511979 0
M  V30 10173 H 1020.49 -0.840141 1.75863 0
M  V30 10174 H 1019.59 -2.33581 2.06994 0
M  V30 10175 N 1019.89 -1.26353 -0.941956 0
M  V30 10176 C 1020.85 -1.07904 -2.02211 0
M  V30 10177 C 1021.85 -0.0276283 -1.60776 0
M  V30 10178 O 1023.04 -0.270965 -1.7208 0
M  V30 10179 C 1020.17 -0.641084 -3.34818 0
M  V30 10180 H 1021.37 -2.03804 -2.20009 0
M  V30 10181 H 1018.92 -1.08939 -1.12081 0
M  V30 10182 H 1019.66 0.319943 -3.22718 0
M  V30 10183 H 1019.44 -1.40027 -3.66244 0
M  V30 10184 H 1020.93 -0.533826 -4.14174 0
M  V30 10185 N 1021.37 1.14642 -1.08144 0
M  V30 10186 C 1022.3 2.21775 -0.730609 0
M  V30 10187 C 1023.28 1.67683 0.285702 0
M  V30 10188 O 1024.46 1.93567 0.156667 0
M  V30 10189 C 1021.59 3.47033 -0.136242 0
M  V30 10190 C 1020.55 4.14134 -1.0806 0
M  V30 10191 C 1019.87 5.33563 -0.348585 0
M  V30 10192 C 1021.17 4.62978 -2.41761 0
M  V30 10193 H 1022.87 2.51378 -1.62633 0
M  V30 10194 H 1020.41 1.20825 -0.783411 0
M  V30 10195 H 1022.37 4.21226 0.121182 0
M  V30 10196 H 1021.09 3.16786 0.7946 0
M  V30 10197 H 1019.75 3.41892 -1.32308 0
M  V30 10198 H 1019.4 4.99575 0.585974 0
M  V30 10199 H 1019.1 5.79402 -0.978122 0
M  V30 10200 H 1020.62 6.10519 -0.0991508 0
M  V30 10201 H 1022.04 5.28659 -2.21795 0
M  V30 10202 H 1020.43 5.1951 -3.00383 0
M  V30 10203 H 1021.5 3.78189 -3.03482 0
M  V30 10204 N 1022.85 0.866709 1.31628 0
M  V30 10205 C 1024.07 0.48956 2.01539 0
M  V30 10206 C 1024.5 -0.909556 1.64647 0
M  V30 10207 O 1023.85 -1.59959 0.853391 0
M  V30 10208 C 1023.9 0.650176 3.5469 0
M  V30 10209 O 1023.01 -0.311908 4.11219 0
M  V30 10210 H 1022.35 0.195144 0.634677 0
M  V30 10211 H 1024.88 1.16923 1.679 0
M  V30 10212 H 1024.89 0.542236 4.04381 0
M  V30 10213 H 1023.56 1.67038 3.80882 0
M  V30 10214 H 1022.14 -0.159197 3.7256 0
M  V30 10215 N 1024.32 -1.44642 0.625825 0
M  V30 10216 C 1025.55 -2.06971 0.133373 0
M  V30 10217 C 1025.97 -1.46421 -1.18078 0
M  V30 10218 O 1025.33 -0.563676 -1.72315 0
M  V30 10219 C 1025.38 -3.6059 0.0265097 0
M  V30 10220 O 1024.48 -3.99615 -1.01889 0
M  V30 10221 H 1023.82 -0.658873 0.0823568 0
M  V30 10222 H 1026.35 -1.85601 0.861002 0
M  V30 10223 H 1026.36 -4.07663 -0.1658 0
M  V30 10224 H 1025.04 -4.04043 0.985986 0
M  V30 10225 H 1023.62 -3.64183 -0.801577 0
M  V30 10226 N 1025.8 -0.366053 -1.5329 0
M  V30 10227 C 1026.73 0.523781 -2.22108 0
M  V30 10228 C 1027.71 1.08262 -1.21318 0
M  V30 10229 O 1028.9 1.13866 -1.50222 0
M  V30 10230 C 1026.02 1.72273 -2.91616 0
M  V30 10231 C 1025.07 1.29129 -4.06482 0
M  V30 10232 S 1025.9 0.292195 -5.34702 0
M  V30 10233 C 1027.06 1.49746 -6.07723 0
M  V30 10234 H 1027.29 -0.0606687 -2.97238 0
M  V30 10235 H 1024.82 -0.15016 -1.53668 0
M  V30 10236 H 1026.78 2.41045 -3.32277 0
M  V30 10237 H 1025.44 2.27843 -2.16209 0
M  V30 10238 H 1024.64 2.18583 -4.54134 0
M  V30 10239 H 1024.24 0.682783 -3.67715 0
M  V30 10240 H 1026.53 2.4284 -6.32483 0
M  V30 10241 H 1027.47 1.06232 -7.00086 0
M  V30 10242 H 1027.88 1.70373 -5.38176 0
M  V30 10243 N 1027.28 1.57312 -0.0952337 0
M  V30 10244 C 1028.52 1.96239 0.571813 0
M  V30 10245 C 1028.88 0.97602 1.65342 0
M  V30 10246 O 1030.08 1.25379 2.37768 0
M  V30 10247 C 1028.36 3.39644 1.1125 0
M  V30 10248 S 1029.91 4.00568 1.7914 0
M  V30 10249 H 1026.73 0.686081 0.186585 0
M  V30 10250 H 1029.33 1.94718 -0.174669 0
M  V30 10251 H 1028.04 4.09199 0.313796 0
M  V30 10252 H 1027.57 3.44762 1.89481 0
M  V30 10253 H 1029.58 3.89383 3.07563 0
M  V30 10254 N 1028.76 -0.17846 1.56586 0
M  V30 10255 C 1029.98 -0.916061 1.86073 0
M  V30 10256 C 1030.41 -1.75349 0.680754 0
M  V30 10257 O 1029.77 -1.77479 -0.37028 0
M  V30 10258 C 1029.81 -1.77445 3.1392 0
M  V30 10259 O 1028.92 -2.87524 2.95641 0
M  V30 10260 H 1028.26 -0.257031 0.612234 0
M  V30 10261 H 1030.79 -0.178755 2.03818 0
M  V30 10262 H 1030.8 -2.1758 3.45142 0
M  V30 10263 H 1029.47 -1.15927 3.99417 0
M  V30 10264 H 1028.05 -2.51023 2.75757 0
M  V30 10265 N 1030.24 -1.51135 -0.446768 0
M  V30 10266 C 1031.48 -1.63013 -1.19461 0
M  V30 10267 C 1031.8 -0.344067 -1.91941 0
M  V30 10268 O 1031.07 0.639666 -1.85162 0
M  V30 10269 H 1029.65 -0.600757 -0.443959 0
M  V30 10270 H 1032.32 -1.88024 -0.513137 0
M  V30 10271 H 1031.41 -2.45322 -1.92933 0
M  V30 10272 N 1031.71 0.701592 -1.41122 0
M  V30 10273 C 1033.12 1.28129 -1.35793 0
M  V30 10274 C 1033.48 1.96163 -0.0381185 0
M  V30 10275 O 1032.6 1.98416 0.863723 0
M  V30 10276 C 1033.2 2.33005 -2.45955 0
M  V30 10277 C 1031.75 2.86566 -2.44043 0
M  V30 10278 C 1030.9 1.60526 -2.26112 0
M  V30 10279 H 1033.85 0.496756 -1.50725 0
M  V30 10280 H 1033.87 3.14163 -2.14667 0
M  V30 10281 H 1033.39 1.8346 -3.42 0
M  V30 10282 H 1031.49 3.40304 -1.51737 0
M  V30 10283 H 1031.6 3.37406 -3.40138 0
M  V30 10284 H 1029.96 1.86113 -1.7388 0
M  V30 10285 H 1030.75 1.12985 -3.24175 0
M  V30 10286 N 1033.19 1.2685 0.935242 0
M  V30 10287 C 1034.42 1.15645 1.72165 0
M  V30 10288 C 1034.84 -0.283909 1.85945 0
M  V30 10289 O 1034.2 -1.20567 1.354 0
M  V30 10290 C 1034.25 1.83689 3.10307 0
M  V30 10291 O 1033.35 1.12972 3.96625 0
M  V30 10292 H 1032.69 0.402629 0.528002 0
M  V30 10293 H 1035.22 1.67781 1.17093 0
M  V30 10294 H 1035.23 1.90749 3.60664 0
M  V30 10295 H 1033.91 2.88472 2.99595 0
M  V30 10296 H 1032.48 1.13929 3.5507 0
M  V30 10297 N 1034.67 -1.14067 1.0875 0
M  V30 10298 C 1035.92 -1.84819 0.817698 0
M  V30 10299 C 1036.24 -1.83545 -0.658488 0
M  V30 10300 O 1035.51 -1.28633 -1.47751 0
M  V30 10301 H 1034.09 -0.68433 0.299502 0
M  V30 10302 H 1036.75 -1.38208 1.37421 0
M  V30 10303 H 1035.85 -2.89541 1.16501 0
M  V30 10304 N 1036.15 -0.873678 -1.31166 0
M  V30 10305 C 1037.39 -0.487178 -1.96861 0
M  V30 10306 C 1037.73 0.95887 -1.68877 0
M  V30 10307 O 1037 1.6758 -0.987279 0
M  V30 10308 C 1037.29 -0.74925 -3.52219 0
M  V30 10309 C 1037.14 -2.2451 -3.89763 0
M  V30 10310 C 1038.46 -0.218194 -4.39559 0
M  V30 10311 H 1035.58 -0.178477 -0.715063 0
M  V30 10312 H 1038.22 -1.0956 -1.55231 0
M  V30 10313 H 1036.37 -0.231403 -3.8781 0
M  V30 10314 H 1038.04 -2.83049 -3.64254 0
M  V30 10315 H 1036.28 -2.71621 -3.38237 0
M  V30 10316 H 1036.95 -2.37911 -4.98099 0
M  V30 10317 H 1039.43 -0.661274 -4.10812 0
M  V30 10318 H 1038.31 -0.430983 -5.47205 0
M  V30 10319 H 1038.57 0.880056 -4.33252 0
M  V30 10320 N 1037.63 1.44308 -0.633487 0
M  V30 10321 C 1038.87 2.03904 -0.14226 0
M  V30 10322 C 1039.23 1.48768 1.21376 0
M  V30 10323 O 1040.43 1.99882 1.79724 0
M  V30 10324 C 1038.7 3.5716 -0.130975 0
M  V30 10325 S 1040.26 4.37805 0.295287 0
M  V30 10326 H 1037.08 0.70827 -0.0622429 0
M  V30 10327 H 1039.68 1.76657 -0.837405 0
M  V30 10328 H 1038.39 3.94794 -1.12096 0
M  V30 10329 H 1037.92 3.89021 0.585342 0
M  V30 10330 H 1039.93 4.71732 1.53894 0
M  V30 10331 N 1039.1 0.374177 1.53094 0
M  V30 10332 C 1040.04 -0.503065 2.23611 0
M  V30 10333 C 1041.05 -1.03915 1.25321 0
M  V30 10334 O 1042.24 -0.944064 1.51492 0
M  V30 10335 C 1039.34 -1.70825 2.92698 0
M  V30 10336 C 1038.51 -1.30217 4.17567 0
M  V30 10337 C 1037.57 -2.37036 4.69788 0
M  V30 10338 O 1036.6 -1.99069 5.33254 0
M  V30 10339 N 1037.8 -3.68743 4.4834 0
M  V30 10340 H 1040.56 0.101013 2.9953 0
M  V30 10341 H 1038.12 0.199778 1.60663 0
M  V30 10342 H 1040.12 -2.41779 3.24538 0
M  V30 10343 H 1038.69 -2.219 2.2018 0
M  V30 10344 H 1037.91 -0.422121 3.91933 0
M  V30 10345 H 1039.19 -1.00728 4.9873 0
M  V30 10346 H 1038.59 -4.0236 3.97647 0
M  V30 10347 H 1037.15 -4.35776 4.84709 0
M  V30 10348 N 1040.58 -1.57259 0.103575 0
M  V30 10349 C 1041.82 -1.96539 -0.561398 0
M  V30 10350 C 1042.19 -0.984775 -1.64822 0
M  V30 10351 O 1043.39 -1.26638 -2.371 0
M  V30 10352 C 1041.66 -3.40229 -1.09447 0
M  V30 10353 S 1043.22 -4.01512 -1.77013 0
M  V30 10354 H 1040.04 -0.687061 -0.182944 0
M  V30 10355 H 1042.64 -1.94623 0.184993 0
M  V30 10356 H 1041.34 -4.09359 -0.292091 0
M  V30 10357 H 1040.87 -3.45762 -1.8765 0
M  V30 10358 H 1042.89 -3.91009 -3.05494 0
M  V30 10359 N 1042.06 0.170153 -1.56679 0
M  V30 10360 C 1043.48 0.521966 -1.50823 0
M  V30 10361 C 1043.68 1.84589 -0.808037 0
M  V30 10362 O 1042.73 2.49791 -0.368891 0
M  V30 10363 C 1044.05 0.553648 -2.95559 0
M  V30 10364 C 1045.59 0.640769 -3.06371 0
M  V30 10365 C 1046.07 0.703332 -4.52567 0
M  V30 10366 N 1047.56 0.76619 -4.56819 0
M  V30 10367 C 1048.29 0.835192 -5.67285 0
M  V30 10368 N 1047.79 0.864957 -6.87379 0
M  V30 10369 N 1049.58 0.874302 -5.55259 0
M  V30 10370 H 1041.73 -0.697952 -2.00605 0
M  V30 10371 H 1044 -0.251787 -0.913952 0
M  V30 10372 H 1043.7 -0.350498 -3.49949 0
M  V30 10373 H 1043.58 1.39973 -3.50268 0
M  V30 10374 H 1045.96 1.53534 -2.52015 0
M  V30 10375 H 1046.05 -0.232008 -2.54746 0
M  V30 10376 H 1045.69 -0.186986 -5.07556 0
M  V30 10377 H 1045.62 1.59227 -5.0195 0
M  V30 10378 H 1048.11 0.751424 -3.70354 0
M  V30 10379 H 1048.42 0.918814 -7.67318 0
M  V30 10380 H 1046.77 0.833215 -6.89987 0
M  V30 10381 H 1049.96 0.848057 -4.60354 0
M  V30 10382 H 1050.13 0.924615 -6.4137 0
M  V30 10383 N 1043.54 1.5137 0.438746 0
M  V30 10384 C 1044.45 1.75424 1.55768 0
M  V30 10385 C 1045.46 0.638409 1.61865 0
M  V30 10386 O 1046.64 0.9205 1.79133 0
M  V30 10387 C 1043.71 1.87288 2.9176 0
M  V30 10388 C 1042.77 3.11137 2.95791 0
M  V30 10389 C 1042 3.22425 4.25297 0
M  V30 10390 O 1042.22 2.39688 5.17596 0
M  V30 10391 O 1041.16 4.15393 4.35583 0
M  V30 10392 H 1044.98 2.70339 1.38386 0
M  V30 10393 H 1042.57 1.35854 0.621609 0
M  V30 10394 H 1044.45 1.97085 3.72472 0
M  V30 10395 H 1043.12 0.955599 3.09273 0
M  V30 10396 H 1042.03 3.06819 2.1404 0
M  V30 10397 H 1043.36 4.02549 2.83223 0
M  V30 10398 N 1045.02 -0.694098 1.41492 0
M  V30 10399 C 1045.97 -1.80016 1.39923 0
M  V30 10400 C 1046.95 -1.58561 0.273377 0
M  V30 10401 O 1048.14 -1.69368 0.514157 0
M  V30 10402 C 1045.27 -3.18333 1.28526 0
M  V30 10403 C 1044.36 -3.45478 2.45979 0
M  V30 10404 N 1044.75 -3.43313 3.71443 0
M  V30 10405 C 1043.05 -3.76033 2.39824 0
M  V30 10406 C 1043.75 -3.69404 4.4935 0
M  V30 10407 N 1042.72 -3.89221 3.79484 0
M  V30 10408 H 1046.53 -1.76707 2.34844 0
M  V30 10409 H 1044.04 -0.894148 1.35568 0
M  V30 10410 H 1046.04 -3.97567 1.25484 0
M  V30 10411 H 1044.7 -3.22852 0.345904 0
M  V30 10412 H 1045.71 -3.2366 4.04308 0
M  V30 10413 H 1042.38 -3.87913 1.54368 0
M  V30 10414 H 1043.77 -3.73854 5.58285 0
M  V30 10415 N 1046.49 -1.27344 -0.928501 0
M  V30 10416 C 1047.74 -1.13804 -1.67859 0
M  V30 10417 C 1048.07 0.31555 -1.91619 0
M  V30 10418 O 1047.35 1.23087 -1.50599 0
M  V30 10419 C 1047.63 -1.9213 -3.04562 0
M  V30 10420 C 1047.48 -3.45468 -2.88048 0
M  V30 10421 C 1048.8 -1.72513 -4.04879 0
M  V30 10422 H 1045.92 -0.414796 -0.609191 0
M  V30 10423 H 1048.56 -1.5649 -1.07753 0
M  V30 10424 H 1046.71 -1.55853 -3.55868 0
M  V30 10425 H 1048.39 -3.9157 -2.43865 0
M  V30 10426 H 1046.63 -3.71849 -2.23407 0
M  V30 10427 H 1047.3 -3.95515 -3.85061 0
M  V30 10428 H 1049.78 -2.04143 -3.62581 0
M  V30 10429 H 1048.65 -2.29713 -4.98521 0
M  V30 10430 H 1048.91 -0.672856 -4.3695 0
M  V30 10431 N 1047.97 1.13488 -1.09353 0
M  V30 10432 C 1049.22 1.85022 -0.830354 0
M  V30 10433 C 1049.55 1.83266 0.64242 0
M  V30 10434 O 1048.83 1.27024 1.47293 0
M  V30 10435 C 1049.11 3.33218 -1.36521 0
M  V30 10436 C 1048.96 3.43491 -2.90404 0
M  V30 10437 C 1050.28 4.28626 -0.998381 0
M  V30 10438 H 1047.4 0.671786 -0.303105 0
M  V30 10439 H 1050.04 1.33211 -1.3548 0
M  V30 10440 H 1048.19 3.77471 -0.919117 0
M  V30 10441 H 1049.86 3.07954 -3.43456 0
M  V30 10442 H 1048.11 2.84391 -3.27573 0
M  V30 10443 H 1048.78 4.47702 -3.22905 0
M  V30 10444 H 1051.25 3.9244 -1.38311 0
M  V30 10445 H 1050.13 5.30754 -1.39968 0
M  V30 10446 H 1050.39 4.42001 0.093517 0
M  V30 10447 N 1049.45 0.880621 1.30701 0
M  V30 10448 C 1050.7 0.495894 1.95922 0
M  V30 10449 C 1051.02 -0.957214 1.69889 0
M  V30 10450 O 1050.29 -1.67245 1.0201 0
M  V30 10451 H 1048.87 0.180394 0.724891 0
M  V30 10452 H 1051.53 1.12274 1.59313 0
M  V30 10453 H 1050.63 0.662508 3.04987 0
M  V30 10454 N 1050.93 -1.4397 0.641131 0
M  V30 10455 C 1051.88 -2.30728 -0.0577905 0
M  V30 10456 C 1052.85 -1.44059 -0.826819 0
M  V30 10457 O 1054.03 -1.72947 -0.805853 0
M  V30 10458 C 1051.17 -3.29478 -1.02657 0
M  V30 10459 C 1050.28 -4.31247 -0.254913 0
M  V30 10460 C 1049.42 -5.17085 -1.2164 0
M  V30 10461 C 1048.46 -6.10556 -0.434481 0
M  V30 10462 N 1047.6 -6.89059 -1.34694 0
M  V30 10463 H 1052.44 -2.8995 0.687953 0
M  V30 10464 H 1049.97 -1.4285 0.351029 0
M  V30 10465 H 1051.93 -3.85228 -1.60173 0
M  V30 10466 H 1050.56 -2.71932 -1.73933 0
M  V30 10467 H 1049.61 -3.77889 0.436338 0
M  V30 10468 H 1050.92 -4.97545 0.353642 0
M  V30 10469 H 1050.08 -5.77402 -1.86258 0
M  V30 10470 H 1048.82 -4.50885 -1.85888 0
M  V30 10471 H 1047.82 -5.49339 0.225125 0
M  V30 10472 H 1049.05 -6.78795 0.203415 0
M  V30 10473 H 1046.99 -6.25518 -1.97644 0
M  V30 10474 H 1046.91 -7.51833 -0.792657 0
M  V30 10475 H 1048.18 -7.5389 -1.98165 0
M  V30 10476 N 1052.41 -0.382291 -1.52893 0
M  V30 10477 C 1053.65 0.202433 -2.01787 0
M  V30 10478 C 1053.99 1.47044 -1.26853 0
M  V30 10479 O 1053.26 1.91007 -0.366969 0
M  V30 10480 C 1053.54 0.477471 -3.5692 0
M  V30 10481 C 1053.4 -0.805339 -4.42532 0
M  V30 10482 C 1054.72 1.27106 -4.21346 0
M  V30 10483 H 1051.84 0.0720998 -0.733465 0
M  V30 10484 H 1054.48 -0.510478 -1.83014 0
M  V30 10485 H 1052.63 1.08478 -3.73048 0
M  V30 10486 H 1054.3 -1.4424 -4.3817 0
M  V30 10487 H 1052.54 -1.42216 -4.09826 0
M  V30 10488 H 1053.21 -0.567635 -5.49074 0
M  V30 10489 H 1055.69 0.757161 -4.09153 0
M  V30 10490 H 1054.57 1.43225 -5.29885 0
M  V30 10491 H 1054.83 2.28431 -3.78513 0
M  V30 10492 N 1053.89 1.57202 -0.111913 0
M  V30 10493 C 1055.13 1.96834 0.550967 0
M  V30 10494 C 1055.49 0.993502 1.64297 0
M  V30 10495 O 1056.69 1.27894 2.36425 0
M  V30 10496 C 1054.96 3.40805 1.07641 0
M  V30 10497 S 1056.52 4.02445 1.74881 0
M  V30 10498 H 1053.34 0.688021 0.179298 0
M  V30 10499 H 1055.94 1.94522 -0.195312 0
M  V30 10500 H 1054.64 4.09508 0.270377 0
M  V30 10501 H 1054.18 3.46752 1.85814 0
M  V30 10502 H 1056.19 3.92623 3.03416 0
M  V30 10503 N 1055.36 -0.161842 1.56767 0
M  V30 10504 C 1056.3 -1.22499 1.93718 0
M  V30 10505 C 1057.31 -1.39975 0.831314 0
M  V30 10506 O 1058.5 -1.3981 1.10975 0
M  V30 10507 C 1055.6 -2.59222 2.18306 0
M  V30 10508 C 1054.77 -2.6292 3.4956 0
M  V30 10509 C 1053.83 -3.81074 3.62863 0
M  V30 10510 O 1052.86 -3.66633 4.35395 0
M  V30 10511 N 1054.06 -4.97923 2.98418 0
M  V30 10512 H 1056.82 -0.911043 2.85517 0
M  V30 10513 H 1054.38 -0.351533 1.58038 0
M  V30 10514 H 1056.38 -3.36749 2.24461 0
M  V30 10515 H 1054.95 -2.82969 1.32844 0
M  V30 10516 H 1054.17 -1.71418 3.54978 0
M  V30 10517 H 1055.45 -2.62409 4.35911 0
M  V30 10518 H 1054.85 -5.12557 2.39378 0
M  V30 10519 H 1053.41 -5.73277 3.10155 0
M  V30 10520 N 1056.84 -1.516 -0.430713 0
M  V30 10521 C 1058.26 -1.39923 -0.767706 0
M  V30 10522 C 1058.46 -0.486756 -1.95532 0
M  V30 10523 O 1057.51 0.0555965 -2.52439 0
M  V30 10524 C 1058.83 -2.82074 -1.04187 0
M  V30 10525 C 1060.37 -2.9127 -1.1459 0
M  V30 10526 C 1060.85 -4.34342 -1.45295 0
M  V30 10527 N 1062.34 -4.37479 -1.52206 0
M  V30 10528 C 1063.08 -5.45219 -1.77549 0
M  V30 10529 N 1062.57 -6.6311 -2.0064 0
M  V30 10530 N 1064.36 -5.32707 -1.79386 0
M  V30 10531 H 1056.52 -2.09474 0.351351 0
M  V30 10532 H 1058.78 -0.943247 0.0948151 0
M  V30 10533 H 1058.48 -3.50868 -0.241837 0
M  V30 10534 H 1058.36 -3.21805 -1.96777 0
M  V30 10535 H 1060.75 -2.2267 -1.93655 0
M  V30 10536 H 1060.83 -2.55026 -0.198854 0
M  V30 10537 H 1060.47 -5.03494 -0.667559 0
M  V30 10538 H 1060.4 -4.68105 -2.41217 0
M  V30 10539 H 1062.89 -3.52488 -1.36237 0
M  V30 10540 H 1063.2 -7.41012 -2.19366 0
M  V30 10541 H 1061.55 -6.66214 -1.97948 0
M  V30 10542 H 1064.74 -4.39589 -1.60869 0
M  V30 10543 H 1064.91 -6.16752 -1.98799 0
M  V30 10544 N 1058.32 0.686584 -1.41858 0
M  V30 10545 C 1059.73 1.26682 -1.37145 0
M  V30 10546 C 1060.08 1.96112 -0.058922 0
M  V30 10547 O 1059.21 1.99321 0.842629 0
M  V30 10548 C 1059.8 2.30383 -2.48413 0
M  V30 10549 C 1058.36 2.83961 -2.47069 0
M  V30 10550 C 1057.51 1.58119 -2.27802 0
M  V30 10551 H 1060.46 0.480742 -1.51243 0
M  V30 10552 H 1060.48 3.11868 -2.17987 0
M  V30 10553 H 1059.99 1.79822 -3.43927 0
M  V30 10554 H 1058.09 3.38675 -1.55338 0
M  V30 10555 H 1058.21 3.3378 -3.43697 0
M  V30 10556 H 1056.57 1.84258 -1.75844 0
M  V30 10557 H 1057.35 1.09541 -3.25355 0
M  V30 10558 N 1059.8 1.27835 0.921735 0
M  V30 10559 C 1060.71 1.12904 2.05645 0
M  V30 10560 C 1061.72 0.0575704 1.73905 0
M  V30 10561 O 1062.9 0.265261 1.99645 0
M  V30 10562 C 1059.96 0.783957 3.3772 0
M  V30 10563 C 1059.03 1.93694 3.8312 0
M  V30 10564 C 1058.26 1.60823 5.08893 0
M  V30 10565 O 1058.48 0.518873 5.68035 0
M  V30 10566 O 1057.42 2.44932 5.49811 0
M  V30 10567 H 1061.24 2.08143 2.21157 0
M  V30 10568 H 1058.83 1.07078 1.04185 0
M  V30 10569 H 1060.71 0.605107 4.17033 0
M  V30 10570 H 1059.38 -0.138849 3.23402 0
M  V30 10571 H 1058.29 2.17089 3.04669 0
M  V30 10572 H 1059.62 2.84016 4.0199 0
M  V30 10573 N 1061.28 -1.12907 1.09954 0
M  V30 10574 C 1062.22 -2.20561 0.73863 0
M  V30 10575 C 1063.22 -1.67347 -0.262944 0
M  V30 10576 O 1064.42 -1.79574 -0.123834 0
M  V30 10577 H 1060.8 -0.718823 0.220901 0
M  V30 10578 H 1062.77 -2.4826 1.65559 0
M  V30 10579 C 1061.52 -3.47227 0.181239 0
M  V30 10580 H 1060.84 -3.88516 0.943144 0
M  V30 10581 H 1062.28 -4.23987 -0.0332888 0
M  V30 10582 C 1060.74 -3.18956 -1.08485 0
M  V30 10583 O 1061.27 -3.38224 -2.1672 0
M  V30 10584 N 1059.48 -2.72797 -1.00151 0
M  V30 10585 H 1059.02 -2.57317 -0.120645 0
M  V30 10586 H 1058.98 -2.54256 -1.84935 0
M  V30 10587 N 1062.75 -0.88754 -1.30232 0
M  V30 10588 C 1063.7 -0.345765 -2.30016 0
M  V30 10589 C 1064.7 0.5486 -1.60271 0
M  V30 10590 O 1065.9 0.43275 -1.74721 0
M  V30 10591 H 1062.28 -0.0931623 -0.746207 0
M  V30 10592 H 1064.25 -1.20095 -2.73166 0
M  V30 10593 C 1063 0.422435 -3.45124 0
M  V30 10594 H 1062.32 -0.256516 -3.98976 0
M  V30 10595 H 1063.76 0.766572 -4.17013 0
M  V30 10596 C 1062.22 1.62049 -2.95367 0
M  V30 10597 O 1062.75 2.71985 -2.95613 0
M  V30 10598 N 1060.95 1.45852 -2.51347 0
M  V30 10599 H 1060.5 0.564158 -2.51346 0
M  V30 10600 H 1060.46 2.26148 -2.18413 0
M  V30 10601 N 1064.23 1.43628 -0.648757 0
M  V30 10602 C 1065.46 2.05918 -0.167701 0
M  V30 10603 C 1065.87 1.48681 1.17006 0
M  V30 10604 O 1065.21 0.610984 1.73242 0
M  V30 10605 C 1065.28 3.595 0.00265514 0
M  V30 10606 C 1064.94 4.39295 -1.2597 0
M  V30 10607 C 1065.94 4.71643 -2.18743 0
M  V30 10608 C 1063.62 4.79379 -1.50004 0
M  V30 10609 C 1065.62 5.42978 -3.33846 0
M  V30 10610 C 1063.3 5.50459 -2.65401 0
M  V30 10611 C 1064.3 5.82181 -3.57148 0
M  V30 10612 O 1063.99 6.5181 -4.7053 0
M  V30 10613 H 1063.72 0.670619 -0.0851261 0
M  V30 10614 H 1066.27 1.85196 -0.888351 0
M  V30 10615 H 1064.5 3.7878 0.77863 0
M  V30 10616 H 1066.19 4.03503 0.440501 0
M  V30 10617 H 1066.96 4.41199 -2.01416 0
M  V30 10618 H 1062.84 4.54098 -0.794745 0
M  V30 10619 H 1066.38 5.67656 -4.05479 0
M  V30 10620 H 1062.28 5.8032 -2.82664 0
M  V30 10621 H 1063.05 6.7029 -4.69738 0
M  V30 10622 N 1065.71 0.390394 1.52688 0
M  V30 10623 C 1066.94 -0.191207 2.05713 0
M  V30 10624 C 1067.35 -1.40973 1.26188 0
M  V30 10625 O 1066.69 -1.81202 0.301938 0
M  V30 10626 C 1066.75 -0.624794 3.54029 0
M  V30 10627 C 1066.42 0.480413 4.54468 0
M  V30 10628 C 1067.41 1.33816 5.02384 0
M  V30 10629 C 1065.1 0.647754 4.98106 0
M  V30 10630 C 1067.09 2.34836 5.92563 0
M  V30 10631 C 1064.78 1.66129 5.88085 0
M  V30 10632 C 1065.78 2.51001 6.35206 0
M  V30 10633 O 1065.47 3.50622 7.23408 0
M  V30 10634 H 1065.2 -0.032221 0.675232 0
M  V30 10635 H 1067.75 0.554431 1.97776 0
M  V30 10636 H 1065.98 -1.42243 3.59589 0
M  V30 10637 H 1067.67 -1.13219 3.8979 0
M  V30 10638 H 1068.44 1.22019 4.694 0
M  V30 10639 H 1064.32 -0.00314511 4.61 0
M  V30 10640 H 1067.86 3.01117 6.29265 0
M  V30 10641 H 1063.76 1.77964 6.20483 0
M  V30 10642 H 1064.53 3.46644 7.41472 0
M  V30 10643 N 1067.19 -1.57141 0.120249 0
M  V30 10644 C 1068.44 -1.95238 -0.537449 0
M  V30 10645 C 1068.76 -1.00361 -1.66607 0
M  V30 10646 O 1068.02 -0.0277306 -1.9568 0
M  V30 10647 C 1068.32 -3.39745 -1.10941 0
M  V30 10648 C 1067.98 -4.50785 -0.102012 0
M  V30 10649 C 1066.65 -4.80882 0.174994 0
M  V30 10650 C 1069 -5.17913 0.584462 0
M  V30 10651 C 1066.33 -5.75424 1.14474 0
M  V30 10652 C 1068.68 -6.13497 1.54284 0
M  V30 10653 C 1067.34 -6.41987 1.82782 0
M  V30 10654 H 1066.61 -0.714425 -0.196666 0
M  V30 10655 H 1069.26 -1.90438 0.201418 0
M  V30 10656 H 1067.56 -3.41246 -1.92506 0
M  V30 10657 H 1069.26 -3.66536 -1.62642 0
M  V30 10658 H 1065.85 -4.27342 -0.328097 0
M  V30 10659 H 1070.03 -4.94815 0.383625 0
M  V30 10660 H 1065.29 -5.95801 1.37226 0
M  V30 10661 H 1069.46 -6.64598 2.08044 0
M  V30 10662 H 1067.09 -7.15052 2.5808 0
M  V30 10663 N 1068.67 0.153526 -1.5685 0
M  V30 10664 C 1070.08 0.714247 -1.72498 0
M  V30 10665 C 1070.43 1.81968 -0.733621 0
M  V30 10666 O 1069.55 2.16163 0.10118 0
M  V30 10667 C 1070.15 1.30238 -3.12767 0
M  V30 10668 C 1068.71 1.80974 -3.30038 0
M  V30 10669 C 1067.85 0.695638 -2.68433 0
M  V30 10670 H 1070.81 -0.0720733 -1.58536 0
M  V30 10671 H 1070.83 2.17217 -3.12405 0
M  V30 10672 H 1070.34 0.497605 -3.84897 0
M  V30 10673 H 1068.44 2.64039 -2.62895 0
M  V30 10674 H 1068.55 1.94294 -4.37934 0
M  V30 10675 H 1066.92 1.12061 -2.28723 0
M  V30 10676 H 1067.7 -0.0975885 -3.43161 0
M  V30 10677 N 1070.14 1.51827 0.422667 0
M  V30 10678 C 1071.42 1.55772 1.18299 0
M  V30 10679 C 1071.8 0.330657 2.08494 0
M  V30 10680 O 1071.15 -0.683373 2.18042 0
M  V30 10681 C 1071.36 2.87941 1.97208 0
M  V30 10682 C 1072.71 3.4044 2.53744 0
M  V30 10683 O 1073.73 2.8959 2.07403 0
M  V30 10684 O 1072.59 4.29201 3.38303 0
M  V30 10685 H 1069.68 0.626889 0.539388 0
M  V30 10686 H 1072.23 1.64147 0.430545 0
M  V30 10687 H 1071 3.68702 1.31052 0
M  V30 10688 H 1070.63 2.82795 2.79486 0
M  V30 10689 N 1071.62 -0.679052 1.4222 0
M  V30 10690 C 1072.55 -1.80481 1.48152 0
M  V30 10691 C 1073.53 -1.66698 0.338502 0
M  V30 10692 O 1074.72 -1.86183 0.552228 0
M  V30 10693 C 1071.85 -3.18746 1.37908 0
M  V30 10694 C 1070.8 -3.47258 2.50192 0
M  V30 10695 C 1070.13 -4.85052 2.25008 0
M  V30 10696 C 1071.43 -3.44576 3.92511 0
M  V30 10697 H 1073.12 -1.75774 2.42371 0
M  V30 10698 H 1070.67 -0.844241 1.16656 0
M  V30 10699 H 1072.62 -3.97229 1.40666 0
M  V30 10700 H 1071.35 -3.24119 0.401806 0
M  V30 10701 H 1070 -2.71133 2.46744 0
M  V30 10702 H 1069.65 -4.8707 1.25584 0
M  V30 10703 H 1069.35 -5.05092 3.00259 0
M  V30 10704 H 1070.88 -5.65825 2.29508 0
M  V30 10705 H 1072.29 -4.13036 3.97585 0
M  V30 10706 H 1070.69 -3.76151 4.67579 0
M  V30 10707 H 1071.76 -2.4323 4.19484 0
M  V30 10708 N 1073.1 -1.28322 -0.914942 0
M  V30 10709 C 1074.05 -1.08788 -2.00373 0
M  V30 10710 C 1075.03 -0.0118996 -1.60896 0
M  V30 10711 O 1076.23 -0.231902 -1.75474 0
M  V30 10712 C 1073.36 -0.750508 -3.34996 0
M  V30 10713 C 1072.44 -1.86527 -3.80879 0
M  V30 10714 N 1072.83 -3.10672 -3.99145 0
M  V30 10715 C 1071.13 -1.75485 -4.10026 0
M  V30 10716 C 1071.83 -3.833 -4.37557 0
M  V30 10717 N 1070.81 -3.11141 -4.45749 0
M  V30 10718 H 1074.61 -2.02984 -2.12544 0
M  V30 10719 H 1072.12 -1.19224 -1.1027 0
M  V30 10720 H 1074.12 -0.591644 -4.1268 0
M  V30 10721 H 1072.78 0.183696 -3.2418 0
M  V30 10722 H 1073.79 -3.46295 -3.85097 0
M  V30 10723 H 1070.47 -0.89234 -4.07852 0
M  V30 10724 H 1071.86 -4.90061 -4.59662 0
M  V30 10725 N 1074.58 1.12322 -1.10551 0
M  V30 10726 C 1075.53 2.16177 -0.724679 0
M  V30 10727 C 1076.51 1.58674 0.266739 0
M  V30 10728 O 1077.7 1.7684 0.0752872 0
M  V30 10729 C 1074.83 3.4293 -0.159413 0
M  V30 10730 C 1073.92 4.07413 -1.17794 0
M  V30 10731 N 1074.31 4.46889 -2.36905 0
M  V30 10732 C 1072.61 4.34209 -1.01874 0
M  V30 10733 C 1073.31 4.97291 -3.01789 0
M  V30 10734 N 1072.29 4.92871 -2.29302 0
M  V30 10735 H 1076.09 2.44466 -1.63136 0
M  V30 10736 H 1073.6 1.2924 -0.983407 0
M  V30 10737 H 1075.6 4.16693 0.131502 0
M  V30 10738 H 1074.26 3.16109 0.741975 0
M  V30 10739 H 1075.27 4.39219 -2.74422 0
M  V30 10740 H 1071.95 4.17141 -0.173013 0
M  V30 10741 H 1073.34 5.3754 -4.03114 0
M  V30 10742 N 1076.06 0.894434 1.2976 0
M  V30 10743 C 1076.99 0.312806 2.26046 0
M  V30 10744 C 1077.97 -0.572024 1.52206 0
M  V30 10745 O 1079.15 -0.520009 1.81185 0
M  V30 10746 C 1076.28 -0.554624 3.34128 0
M  V30 10747 C 1075.32 0.262168 4.25693 0
M  V30 10748 S 1076.16 1.65656 5.09233 0
M  V30 10749 C 1077.31 0.795914 6.20819 0
M  V30 10750 H 1077.55 1.12895 2.75031 0
M  V30 10751 H 1075.08 0.694446 1.37901 0
M  V30 10752 H 1077.04 -1.04933 3.96862 0
M  V30 10753 H 1075.7 -1.34495 2.83848 0
M  V30 10754 H 1074.89 -0.400216 5.02408 0
M  V30 10755 H 1074.49 0.689829 3.67583 0
M  V30 10756 H 1076.79 0.0169942 6.77498 0
M  V30 10757 H 1077.73 1.53497 6.91263 0
M  V30 10758 H 1078.14 0.35263 5.63398 0
M  V30 10759 N 1077.53 -1.43282 0.656365 0
M  V30 10760 C 1078.48 -2.30776 -0.0333155 0
M  V30 10761 C 1079.45 -1.44928 -0.811493 0
M  V30 10762 O 1080.64 -1.73792 -0.787465 0
M  V30 10763 C 1077.78 -3.30548 -0.991566 0
M  V30 10764 C 1076.89 -4.31493 -0.209159 0
M  V30 10765 C 1076.02 -5.18346 -1.16149 0
M  V30 10766 C 1075.06 -6.10983 -0.369699 0
M  V30 10767 N 1074.2 -6.90449 -1.27378 0
M  V30 10768 H 1079.04 -2.89204 0.718668 0
M  V30 10769 H 1076.58 -1.4247 0.366161 0
M  V30 10770 H 1078.54 -3.86905 -1.56078 0
M  V30 10771 H 1077.17 -2.73762 -1.71039 0
M  V30 10772 H 1076.22 -3.77405 0.476394 0
M  V30 10773 H 1077.53 -4.97142 0.406394 0
M  V30 10774 H 1076.68 -5.79345 -1.80124 0
M  V30 10775 H 1075.42 -4.52831 -1.81095 0
M  V30 10776 H 1074.43 -5.49069 0.283377 0
M  V30 10777 H 1075.65 -6.78541 0.275399 0
M  V30 10778 H 1073.6 -6.27579 -1.90999 0
M  V30 10779 H 1073.52 -7.52631 -0.71287 0
M  V30 10780 H 1074.78 -7.5595 -1.90158 0
M  V30 10781 N 1079.01 -0.398486 -1.52479 0
M  V30 10782 C 1080.24 0.180295 -2.05812 0
M  V30 10783 C 1080.65 1.40301 -1.26934 0
M  V30 10784 O 1079.99 1.81039 -0.311544 0
M  V30 10785 C 1080.06 0.60601 -3.54355 0
M  V30 10786 C 1079.72 -0.504508 -4.54207 0
M  V30 10787 C 1080.72 -1.36478 -5.01667 0
M  V30 10788 C 1078.4 -0.674161 -4.97755 0
M  V30 10789 C 1080.4 -2.37975 -5.91309 0
M  V30 10790 C 1078.08 -1.69246 -5.87196 0
M  V30 10791 C 1079.08 -2.54367 -6.33866 0
M  V30 10792 O 1078.77 -3.54454 -7.21538 0
M  V30 10793 H 1078.5 0.0286396 -0.675393 0
M  V30 10794 H 1081.06 -0.564912 -1.97479 0
M  V30 10795 H 1079.29 1.40334 -3.60338 0
M  V30 10796 H 1080.97 1.1115 -3.90385 0
M  V30 10797 H 1081.74 -1.24506 -4.68746 0
M  V30 10798 H 1077.62 -0.0213029 -4.60995 0
M  V30 10799 H 1081.16 -3.0445 -6.27659 0
M  V30 10800 H 1077.06 -1.81252 -6.1953 0
M  V30 10801 H 1077.83 -3.50571 -7.39623 0
M  V30 10802 N 1080.49 1.57075 -0.12858 0
M  V30 10803 C 1081.4 2.19369 0.831533 0
M  V30 10804 C 1082.42 1.17258 1.28555 0
M  V30 10805 O 1083.59 1.49766 1.34656 0
M  V30 10806 C 1080.66 2.78846 2.06024 0
M  V30 10807 C 1079.72 3.96024 1.65722 0
M  V30 10808 C 1078.95 4.52655 2.82735 0
M  V30 10809 O 1079.18 4.08175 3.98434 0
M  V30 10810 O 1078.11 5.43198 2.59268 0
M  V30 10811 H 1081.94 3.01887 0.331352 0
M  V30 10812 H 1079.52 1.49081 0.0975226 0
M  V30 10813 H 1081.4 3.16721 2.77967 0
M  V30 10814 H 1080.08 1.99353 2.5503 0
M  V30 10815 H 1078.98 3.62899 0.908574 0
M  V30 10816 H 1080.32 4.76981 1.21449 0
M  V30 10817 N 1081.97 -0.145205 1.5693 0
M  V30 10818 C 1083.22 -0.855955 1.82637 0
M  V30 10819 C 1083.53 -1.82255 0.710109 0
M  V30 10820 O 1084.74 -2.57758 0.852837 0
M  V30 10821 C 1083.19 -1.57278 3.23715 0
M  V30 10822 C 1082.8 -0.648507 4.43281 0
M  V30 10823 C 1084.55 -2.27021 3.58695 0
M  V30 10824 C 1082.45 -1.36706 5.75383 0
M  V30 10825 H 1081.38 -0.323385 0.68113 0
M  V30 10826 H 1084.03 -0.10869 1.83178 0
M  V30 10827 H 1082.42 -2.36574 3.17567 0
M  V30 10828 H 1083.59 0.109355 4.6067 0
M  V30 10829 H 1081.9 -0.0594029 4.16358 0
M  V30 10830 H 1084.5 -2.81423 4.54648 0
M  V30 10831 H 1084.84 -3.03598 2.8484 0
M  V30 10832 H 1085.38 -1.54642 3.66512 0
M  V30 10833 H 1082.12 -0.6431 6.52338 0
M  V30 10834 H 1081.64 -2.09759 5.61926 0
M  V30 10835 H 1083.32 -1.90748 6.18243 0
M  V30 10836 N 1083.45 -1.52049 -0.414609 0
M  V30 10837 C 1084.36 -1.7788 -1.52958 0
M  V30 10838 C 1085.37 -0.66408 -1.60829 0
M  V30 10839 O 1086.55 -0.948882 -1.77646 0
M  V30 10840 C 1083.61 -1.91906 -2.88744 0
M  V30 10841 C 1082.68 -3.15803 -2.90804 0
M  V30 10842 C 1081.91 -3.29151 -4.20114 0
M  V30 10843 O 1082.13 -2.47892 -5.13718 0
M  V30 10844 O 1081.07 -4.2227 -4.28919 0
M  V30 10845 H 1084.89 -2.72506 -1.34067 0
M  V30 10846 H 1082.48 -1.36826 -0.599918 0
M  V30 10847 H 1084.36 -2.02986 -3.6929 0
M  V30 10848 H 1083.03 -1.00468 -3.07714 0
M  V30 10849 H 1081.94 -3.10185 -2.09131 0
M  V30 10850 H 1083.27 -4.07004 -2.76783 0
M  V30 10851 N 1084.93 0.6715 -1.42579 0
M  V30 10852 C 1086.2 1.42766 -1.33706 0
M  V30 10853 C 1086.58 2.11086 0.0239748 0
M  V30 10854 O 1085.93 2.03479 1.03964 0
M  V30 10855 C 1086.14 2.42739 -2.50756 0
M  V30 10856 C 1087.49 3.07284 -2.93021 0
M  V30 10857 O 1088.51 2.53066 -2.50671 0
M  V30 10858 O 1087.37 4.05541 -3.66331 0
M  V30 10859 H 1084.47 0.636955 -0.527463 0
M  V30 10860 H 1087.01 0.699946 -1.54593 0
M  V30 10861 H 1085.78 1.91076 -3.41476 0
M  V30 10862 H 1085.41 3.22986 -2.31874 0
M  V30 10863 N 1086.4 1.28806 0.908124 0
M  V30 10864 C 1087.65 1.16058 1.65454 0
M  V30 10865 C 1087.97 -0.290057 1.92831 0
M  V30 10866 O 1087.24 -1.20001 1.54843 0
M  V30 10867 H 1085.82 0.426522 0.61326 0
M  V30 10868 H 1088.48 1.61614 1.08936 0
M  V30 10869 H 1087.58 1.70437 2.61453 0
M  V30 10870 N 1087.88 -1.11734 1.11145 0
M  V30 10871 C 1089.11 -1.87755 0.881062 0
M  V30 10872 C 1089.53 -1.79461 -0.563496 0
M  V30 10873 O 1088.89 -1.15481 -1.39763 0
M  V30 10874 C 1088.94 -3.34641 1.34342 0
M  V30 10875 O 1088.04 -4.09195 0.513157 0
M  V30 10876 H 1087.38 -0.583111 0.317613 0
M  V30 10877 H 1089.91 -1.41256 1.48013 0
M  V30 10878 H 1089.92 -3.85486 1.33658 0
M  V30 10879 H 1088.6 -3.39994 2.39534 0
M  V30 10880 H 1087.17 -3.68269 0.585833 0
M  V30 10881 N 1089.36 -0.901303 -1.29284 0
M  V30 10882 C 1090.59 -0.543511 -1.99634 0
M  V30 10883 C 1091 0.872154 -1.67448 0
M  V30 10884 O 1090.36 1.57591 -0.920406 0
M  V30 10885 C 1090.41 -0.728148 -3.54091 0
M  V30 10886 O 1090.13 -2.08809 -3.85137 0
M  V30 10887 C 1091.63 -0.375519 -4.41707 0
M  V30 10888 H 1088.85 -0.208405 -0.637815 0
M  V30 10889 H 1091.4 -1.21109 -1.64781 0
M  V30 10890 H 1089.55 -0.107728 -3.8725 0
M  V30 10891 H 1089.97 -2.11863 -4.79807 0
M  V30 10892 H 1091.44 -0.555538 -5.49197 0
M  V30 10893 H 1091.92 0.687532 -4.33785 0
M  V30 10894 H 1092.52 -0.972949 -4.14021 0
M  V30 10895 N 1090.84 1.42931 -0.663954 0
M  V30 10896 C 1092.25 1.84877 -0.260283 0
M  V30 10897 C 1092.6 1.5558 1.19538 0
M  V30 10898 O 1091.72 1.01015 1.91377 0
M  V30 10899 C 1092.32 3.35585 -0.465618 0
M  V30 10900 C 1090.88 3.76221 -0.116169 0
M  V30 10901 C 1090.03 2.66587 -0.763317 0
M  V30 10902 H 1092.98 1.32932 -0.866882 0
M  V30 10903 H 1093 3.79427 0.285608 0
M  V30 10904 H 1092.51 3.56877 -1.52515 0
M  V30 10905 H 1090.61 3.60539 0.940342 0
M  V30 10906 H 1090.72 4.75943 -0.549123 0
M  V30 10907 H 1089.09 2.53948 -0.19559 0
M  V30 10908 H 1089.87 2.90704 -1.82609 0
M  V30 10909 N 1092.32 0.406567 1.52266 0
M  V30 10910 C 1093.26 -0.43489 2.28498 0
M  V30 10911 C 1094.26 -1.04806 1.33086 0
M  V30 10912 O 1095.46 -0.986557 1.50556 0
M  V30 10913 H 1091.84 -0.159023 0.734994 0
M  V30 10914 H 1093.81 0.229316 2.97518 0
M  V30 10915 C 1092.56 -1.54073 3.117 0
M  V30 10916 H 1091.88 -1.07824 3.84986 0
M  V30 10917 H 1093.32 -2.10337 3.6815 0
M  V30 10918 C 1091.78 -2.50662 2.251 0
M  V30 10919 O 1092.31 -3.54486 1.88951 0
M  V30 10920 N 1090.52 -2.20811 1.8892 0
M  V30 10921 H 1090.06 -1.36413 2.18516 0
M  V30 10922 H 1090.02 -2.85684 1.3127 0
M  V30 10923 N 1093.79 -1.57004 0.136909 0
M  V30 10924 C 1095.04 -1.9541 -0.51569 0
M  V30 10925 C 1095.36 -1.02219 -1.66061 0
M  V30 10926 O 1094.63 -0.0818172 -1.95729 0
M  V30 10927 H 1093.21 -0.721504 -0.193497 0
M  V30 10928 H 1095.88 -1.93765 0.210046 0
M  V30 10929 H 1094.97 -2.98887 -0.898494 0
M  V30 10930 N 1095.27 0.136881 -1.57004 0
M  V30 10931 C 1096.69 0.489856 -1.51897 0
M  V30 10932 C 1096.89 1.82833 -0.847009 0
M  V30 10933 O 1095.94 2.48952 -0.421792 0
M  V30 10934 C 1097.26 0.490831 -2.96667 0
M  V30 10935 C 1098.81 0.575639 -3.07661 0
M  V30 10936 C 1099.28 0.607178 -4.53957 0
M  V30 10937 N 1100.77 0.66912 -4.58342 0
M  V30 10938 C 1101.51 0.714675 -5.68929 0
M  V30 10939 N 1101 0.718959 -6.89059 0
M  V30 10940 N 1102.8 0.756326 -5.56988 0
M  V30 10941 H 1094.95 -0.740347 -1.99079 0
M  V30 10942 H 1097.21 -0.271116 -0.908405 0
M  V30 10943 H 1096.92 -0.424648 -3.49127 0
M  V30 10944 H 1096.79 1.32512 -3.53158 0
M  V30 10945 H 1099.18 1.48154 -2.55215 0
M  V30 10946 H 1099.26 -0.285991 -2.54196 0
M  V30 10947 H 1098.9 -0.294604 -5.07045 0
M  V30 10948 H 1098.83 1.48544 -5.05215 0
M  V30 10949 H 1101.32 0.672697 -3.71864 0
M  V30 10950 H 1101.64 0.755848 -7.69095 0
M  V30 10951 H 1099.98 0.686671 -6.91599 0
M  V30 10952 H 1103.17 0.750219 -4.62049 0
M  V30 10953 H 1103.34 0.788363 -6.43186 0
M  V30 10954 N 1096.75 1.52266 0.40654 0
M  V30 10955 C 1098.03 1.57018 1.1664 0
M  V30 10956 C 1098.41 0.352752 2.08132 0
M  V30 10957 O 1097.76 -0.660208 2.18754 0
M  V30 10958 C 1097.97 2.90016 1.94143 0
M  V30 10959 C 1099.31 3.43112 2.50119 0
M  V30 10960 O 1100.34 2.91773 2.0432 0
M  V30 10961 O 1099.2 4.32765 3.33731 0
M  V30 10962 H 1096.29 0.632574 0.532709 0
M  V30 10963 H 1098.84 1.64595 0.413111 0
M  V30 10964 H 1097.61 3.70071 1.27134 0
M  V30 10965 H 1097.23 2.85744 2.76471 0
M  V30 10966 N 1098.23 -0.663929 1.42933 0
M  V30 10967 C 1099.16 -1.78899 1.50058 0
M  V30 10968 C 1100.14 -1.66329 0.356164 0
M  V30 10969 O 1101.32 -1.85587 0.571944 0
M  V30 10970 C 1098.45 -3.17265 1.41281 0
M  V30 10971 C 1097.41 -3.44584 2.53861 0
M  V30 10972 C 1096.73 -4.82638 2.3014 0
M  V30 10973 C 1098.03 -3.40394 3.96143 0
M  V30 10974 H 1099.73 -1.73194 2.44222 0
M  V30 10975 H 1097.27 -0.83182 1.17545 0
M  V30 10976 H 1099.23 -3.95715 1.44872 0
M  V30 10977 H 1097.95 -3.23675 0.43616 0
M  V30 10978 H 1096.61 -2.685 2.49606 0
M  V30 10979 H 1096.26 -4.85711 1.30743 0
M  V30 10980 H 1095.96 -5.01879 3.056 0
M  V30 10981 H 1097.48 -5.63359 2.35497 0
M  V30 10982 H 1098.9 -4.08796 4.01943 0
M  V30 10983 H 1097.29 -3.7117 4.71543 0
M  V30 10984 H 1098.36 -2.38767 4.22041 0
M  V30 10985 N 1099.71 -1.29285 -0.901281 0
M  V30 10986 C 1101.12 -1.07263 -1.18182 0
M  V30 10987 C 1101.32 0.177087 -2.0072 0
M  V30 10988 O 1100.38 0.875292 -2.36844 0
M  V30 10989 C 1101.69 -2.32717 -1.9043 0
M  V30 10990 C 1103.24 -2.3802 -2.03262 0
M  V30 10991 C 1103.71 -3.63273 -2.7892 0
M  V30 10992 N 1105.21 -3.63986 -2.86475 0
M  V30 10993 C 1105.94 -4.57585 -3.45549 0
M  V30 10994 N 1105.44 -5.61513 -4.05801 0
M  V30 10995 N 1107.23 -4.45157 -3.43208 0
M  V30 10996 H 1099.38 -2.09487 -0.350536 0
M  V30 10997 H 1101.64 -0.922647 -0.217778 0
M  V30 10998 H 1101.35 -3.23828 -1.37216 0
M  V30 10999 H 1101.22 -2.40102 -2.90913 0
M  V30 11000 H 1103.61 -1.47398 -2.55652 0
M  V30 11001 H 1103.69 -2.3462 -1.01916 0
M  V30 11002 H 1103.34 -4.54246 -2.27206 0
M  V30 11003 H 1103.27 -3.6393 -3.80608 0
M  V30 11004 H 1105.76 -2.8884 -2.43679 0
M  V30 11005 H 1106.07 -6.29058 -4.48894 0
M  V30 11006 H 1104.41 -5.65325 -4.04268 0
M  V30 11007 H 1107.61 -3.63158 -2.95354 0
M  V30 11008 H 1107.78 -5.18286 -3.88952 0
M  V30 11009 N 1101.18 1.11143 -1.11736 0
M  V30 11010 C 1102.43 1.82948 -0.868127 0
M  V30 11011 C 1102.76 1.84813 0.606182 0
M  V30 11012 O 1102.01 1.29901 1.4637 0
M  V30 11013 C 1102.31 3.29733 -1.3788 0
M  V30 11014 C 1101.98 3.48025 -2.86687 0
M  V30 11015 C 1100.64 3.52725 -3.2732 0
M  V30 11016 C 1102.99 3.54024 -3.82513 0
M  V30 11017 C 1100.32 3.60983 -4.62502 0
M  V30 11018 C 1102.67 3.63814 -5.17515 0
M  V30 11019 C 1101.34 3.66776 -5.57702 0
M  V30 11020 H 1100.61 0.669452 -0.31767 0
M  V30 11021 H 1103.25 1.31057 -1.3963 0
M  V30 11022 H 1101.56 3.8414 -0.77093 0
M  V30 11023 H 1103.26 3.83787 -1.16225 0
M  V30 11024 H 1099.85 3.45039 -2.54256 0
M  V30 11025 H 1104.03 3.4965 -3.52219 0
M  V30 11026 H 1099.29 3.61554 -4.9304 0
M  V30 11027 H 1103.46 3.674 -5.916 0
M  V30 11028 H 1101.09 3.72927 -6.62442 0
M  V30 11029 N 1102.66 0.908147 1.28804 0
M  V30 11030 C 1103.91 0.53734 1.94826 0
M  V30 11031 C 1104.23 -0.920962 1.71882 0
M  V30 11032 O 1103.5 -1.65043 1.05534 0
M  V30 11033 H 1102.08 0.195729 0.720902 0
M  V30 11034 H 1104.74 1.15628 1.56895 0
M  V30 11035 H 1103.84 0.727052 3.03513 0
M  V30 11036 N 1104.14 -1.42577 0.671525 0
M  V30 11037 C 1105.39 -2.01584 0.192431 0
M  V30 11038 C 1105.72 -1.53076 -1.19992 0
M  V30 11039 O 1104.97 -0.722196 -1.81887 0
M  V30 11040 C 1105.27 -3.56985 0.172097 0
M  V30 11041 C 1104.94 -4.24912 1.50867 0
M  V30 11042 C 1103.6 -4.43182 1.87464 0
M  V30 11043 C 1105.95 -4.6322 2.38908 0
M  V30 11044 C 1103.28 -4.97031 3.11732 0
M  V30 11045 C 1105.63 -5.18447 3.62485 0
M  V30 11046 C 1104.29 -5.34932 3.99255 0
M  V30 11047 H 1103.56 -0.737647 0.0704155 0
M  V30 11048 H 1106.21 -1.70807 0.865862 0
M  V30 11049 H 1104.52 -3.87411 -0.584835 0
M  V30 11050 H 1106.21 -4.00419 -0.215749 0
M  V30 11051 H 1102.8 -4.11048 1.21397 0
M  V30 11052 H 1106.99 -4.4878 2.1192 0
M  V30 11053 H 1102.24 -5.07979 3.40246 0
M  V30 11054 H 1106.42 -5.47075 4.30909 0
M  V30 11055 H 1104.04 -5.76422 4.95623 0
M  V30 11056 N 1105.62 -0.414636 -1.52048 0
M  V30 11057 C 1106.9 0.218172 -1.94379 0
M  V30 11058 C 1107.28 1.62133 -1.35189 0
M  V30 11059 O 1106.62 2.22271 -0.529877 0
M  V30 11060 C 1106.83 0.218932 -3.48313 0
M  V30 11061 C 1108.18 0.435604 -4.2236 0
M  V30 11062 O 1109.21 0.298049 -3.54951 0
M  V30 11063 O 1108.06 0.707217 -5.41905 0
M  V30 11064 H 1105.16 0.142173 -0.814688 0
M  V30 11065 H 1107.7 -0.470977 -1.63033 0
M  V30 11066 H 1106.48 -0.76292 -3.83791 0
M  V30 11067 H 1106.1 0.951949 -3.86036 0
M  V30 11068 N 1107.1 1.56929 -0.145233 0
M  V30 11069 C 1108.51 1.82877 0.375884 0
M  V30 11070 C 1108.86 1.06384 1.64854 0
M  V30 11071 O 1107.98 0.30857 2.14189 0
M  V30 11072 C 1108.58 3.31725 0.688744 0
M  V30 11073 C 1107.14 3.58261 1.15439 0
M  V30 11074 C 1106.28 2.76737 0.176565 0
M  V30 11075 H 1109.24 1.54328 -0.36996 0
M  V30 11076 H 1109.26 3.47784 1.54359 0
M  V30 11077 H 1108.77 3.87371 -0.237694 0
M  V30 11078 H 1106.87 3.08 2.09683 0
M  V30 11079 H 1106.98 4.66732 1.08158 0
M  V30 11080 H 1105.35 2.45761 0.668843 0
M  V30 11081 H 1106.13 3.35154 -0.743432 0
M  V30 11082 N 1108.58 -0.128553 1.57075 0
M  V30 11083 C 1109.51 -1.15953 2.02675 0
M  V30 11084 C 1110.49 -1.43743 0.909501 0
M  V30 11085 O 1111.67 -1.54348 1.17857 0
M  V30 11086 C 1108.8 -2.48813 2.423 0
M  V30 11087 C 1107.76 -2.35506 3.57381 0
M  V30 11088 C 1107.08 -3.73243 3.82875 0
M  V30 11089 C 1108.38 -1.82359 4.89431 0
M  V30 11090 H 1110.08 -0.780283 2.89054 0
M  V30 11091 H 1107.62 -0.373896 1.39061 0
M  V30 11092 H 1109.57 -3.21179 2.72804 0
M  V30 11093 H 1108.3 -2.88609 1.52881 0
M  V30 11094 H 1106.96 -1.6559 3.27071 0
M  V30 11095 H 1106.61 -4.10507 2.90677 0
M  V30 11096 H 1106.31 -3.65195 4.60333 0
M  V30 11097 H 1107.83 -4.47128 4.15823 0
M  V30 11098 H 1109.24 -2.44533 5.18533 0
M  V30 11099 H 1107.64 -1.85156 5.70822 0
M  V30 11100 H 1108.71 -0.780478 4.78578 0
M  V30 11101 N 1110.05 -1.5248 -0.398459 0
M  V30 11102 C 1111.02 -1.75949 -1.46883 0
M  V30 11103 C 1112.02 -0.629431 -1.47969 0
M  V30 11104 O 1113.21 -0.897407 -1.49306 0
M  V30 11105 C 1110.34 -1.85162 -2.8623 0
M  V30 11106 H 1111.53 -2.71513 -1.2736 0
M  V30 11107 H 1109.08 -1.43058 -0.629619 0
M  V30 11108 H 1109.82 -0.915505 -3.11109 0
M  V30 11109 H 1109.6 -2.67326 -2.86844 0
M  V30 11110 H 1111.09 -2.05025 -3.63805 0
M  V30 11111 N 1111.53 0.65634 -1.43283 0
M  V30 11112 C 1112.78 1.41627 -1.44734 0
M  V30 11113 C 1113.11 1.94372 -0.0704893 0
M  V30 11114 O 1112.36 1.72511 0.924037 0
M  V30 11115 C 1112.66 2.61688 -2.43421 0
M  V30 11116 C 1112.33 2.2738 -3.8937 0
M  V30 11117 C 1110.99 2.17735 -4.29121 0
M  V30 11118 C 1113.34 1.99863 -4.81357 0
M  V30 11119 C 1110.67 1.78725 -5.58815 0
M  V30 11120 C 1113.02 1.62352 -6.11412 0
M  V30 11121 C 1111.68 1.51231 -6.50143 0
M  V30 11122 H 1110.95 0.51825 -0.529621 0
M  V30 11123 H 1113.6 0.746701 -1.76342 0
M  V30 11124 H 1111.91 3.33763 -2.05206 0
M  V30 11125 H 1113.6 3.19896 -2.41801 0
M  V30 11126 H 1110.19 2.35795 -3.57908 0
M  V30 11127 H 1114.38 2.06237 -4.5142 0
M  V30 11128 H 1109.63 1.68698 -5.87666 0
M  V30 11129 H 1113.81 1.40091 -6.82164 0
M  V30 11130 H 1111.43 1.20774 -7.50545 0
M  V30 11131 N 1113.01 1.29761 0.894412 0
M  V30 11132 C 1114.42 1.16275 1.46072 0
M  V30 11133 C 1114.77 -0.240123 1.94725 0
M  V30 11134 O 1113.9 -1.13606 1.84181 0
M  V30 11135 C 1114.49 2.10471 2.65494 0
M  V30 11136 C 1113.05 2.00992 3.18244 0
M  V30 11137 C 1112.2 2.01094 1.90936 0
M  V30 11138 H 1115.15 1.42169 0.705243 0
M  V30 11139 H 1115.17 1.68003 3.41402 0
M  V30 11140 H 1114.68 3.12566 2.30053 0
M  V30 11141 H 1112.78 1.02005 3.58365 0
M  V30 11142 H 1112.9 2.88916 3.82184 0
M  V30 11143 H 1111.26 1.45764 2.08866 0
M  V30 11144 H 1112.04 3.04902 1.57764 0
M  V30 11145 N 1114.49 -1.10549 1.12324 0
M  V30 11146 C 1115.4 -2.20428 0.803032 0
M  V30 11147 C 1116.41 -1.72756 -0.207674 0
M  V30 11148 O 1117.59 -2.01357 -0.0415623 0
M  V30 11149 C 1114.65 -3.45716 0.261032 0
M  V30 11150 C 1113.72 -4.08129 1.33152 0
M  V30 11151 C 1112.95 -5.27436 0.815288 0
M  V30 11152 O 1113.17 -5.69317 -0.351361 0
M  V30 11153 O 1112.11 -5.80674 1.58434 0
M  V30 11154 H 1115.93 -2.50249 1.72073 0
M  V30 11155 H 1113.52 -1.19263 0.899815 0
M  V30 11156 H 1115.4 -4.21384 -0.0364007 0
M  V30 11157 H 1114.07 -3.17525 -0.629249 0
M  V30 11158 H 1112.98 -3.3415 1.6821 0
M  V30 11159 H 1114.31 -4.4052 2.19552 0
M  V30 11160 N 1115.97 -0.914965 -1.28321 0
M  V30 11161 C 1117.21 -0.548749 -1.94923 0
M  V30 11162 C 1117.54 0.907776 -1.72016 0
M  V30 11163 O 1116.8 1.66097 -1.03491 0
M  V30 11164 C 1117.09 -0.805805 -3.48198 0
M  V30 11165 C 1116.76 -2.24207 -3.91206 0
M  V30 11166 C 1115.42 -2.63475 -4.02659 0
M  V30 11167 C 1117.77 -3.17667 -4.13204 0
M  V30 11168 C 1115.1 -3.95353 -4.3349 0
M  V30 11169 C 1117.45 -4.4911 -4.45514 0
M  V30 11170 C 1116.12 -4.8823 -4.55179 0
M  V30 11171 H 1115.39 -0.200801 -0.713274 0
M  V30 11172 H 1118.04 -1.15652 -1.52633 0
M  V30 11173 H 1116.34 -0.115244 -3.9163 0
M  V30 11174 H 1118.04 -0.501609 -3.9785 0
M  V30 11175 H 1114.63 -1.92737 -3.82819 0
M  V30 11176 H 1118.81 -2.88537 -4.03807 0
M  V30 11177 H 1114.07 -4.25362 -4.39178 0
M  V30 11178 H 1118.24 -5.21542 -4.61483 0
M  V30 11179 H 1115.87 -5.90451 -4.78823 0
M  V30 11180 N 1117.44 1.42219 -0.679077 0
M  V30 11181 C 1118.67 2.06333 -0.210097 0
M  V30 11182 C 1119.09 1.50703 1.12562 0
M  V30 11183 O 1118.45 0.627241 1.70104 0
M  V30 11184 C 1118.5 3.60243 -0.160322 0
M  V30 11185 O 1117.6 4.03122 0.869872 0
M  V30 11186 H 1116.94 0.655362 -0.106754 0
M  V30 11187 H 1119.47 1.82278 -0.929294 0
M  V30 11188 H 1119.48 4.07997 0.014384 0
M  V30 11189 H 1118.16 4.00106 -1.13526 0
M  V30 11190 H 1116.74 3.66907 0.66586 0
M  V30 11191 N 1118.92 0.422693 1.51826 0
M  V30 11192 C 1120.17 -0.141187 2.02909 0
M  V30 11193 C 1120.52 -1.41649 1.30205 0
M  V30 11194 O 1119.82 -1.87297 0.403769 0
M  V30 11195 C 1120.01 -0.429516 3.5481 0
M  V30 11196 C 1119.84 0.816291 4.42229 0
M  V30 11197 C 1118.61 1.34551 4.87057 0
M  V30 11198 C 1120.81 1.69829 4.85451 0
M  V30 11199 N 1118.79 2.54538 5.58644 0
M  V30 11200 C 1120.16 2.74431 5.55956 0
M  V30 11201 C 1122.21 1.71445 4.67452 0
M  V30 11202 C 1120.92 3.80576 6.10372 0
M  V30 11203 C 1122.94 2.76516 5.22774 0
M  V30 11204 C 1122.31 3.79839 5.93213 0
M  V30 11205 H 1118.4 -0.0128783 0.781894 0
M  V30 11206 H 1120.99 0.580083 1.85858 0
M  V30 11207 H 1119.16 -1.11982 3.71907 0
M  V30 11208 H 1120.89 -0.983467 3.92568 0
M  V30 11209 H 1117.65 0.901554 4.6494 0
M  V30 11210 H 1118.07 3.15342 5.99073 0
M  V30 11211 H 1122.71 0.92899 4.12468 0
M  V30 11212 H 1120.43 4.59969 6.6442 0
M  V30 11213 H 1124.02 2.7869 5.10708 0
M  V30 11214 H 1122.9 4.59806 6.35254 0
M  V30 11215 N 1120.4 -1.5685 0.153553 0
M  V30 11216 C 1121.82 -1.58306 -0.202801 0
M  V30 11217 C 1122.02 -1.16813 -1.64186 0
M  V30 11218 O 1121.07 -0.871468 -2.36985 0
M  V30 11219 C 1122.38 -3.00636 0.0619012 0
M  V30 11220 C 1123.93 -3.13 -0.00129219 0
M  V30 11221 C 1124.41 -4.57391 0.236164 0
M  V30 11222 N 1125.9 -4.62837 0.18332 0
M  V30 11223 C 1126.63 -5.72382 0.341471 0
M  V30 11224 N 1126.13 -6.90552 0.557704 0
M  V30 11225 N 1127.92 -5.61409 0.278615 0
M  V30 11226 H 1120.07 -1.82113 1.09309 0
M  V30 11227 H 1122.34 -0.843228 0.433209 0
M  V30 11228 H 1122.04 -3.35406 1.0581 0
M  V30 11229 H 1121.92 -3.71477 -0.654555 0
M  V30 11230 H 1124.3 -2.78068 -0.98805 0
M  V30 11231 H 1124.38 -2.44632 0.747596 0
M  V30 11232 H 1124.03 -4.93029 1.22005 0
M  V30 11233 H 1123.96 -5.23894 -0.533125 0
M  V30 11234 H 1126.45 -3.77894 0.0211138 0
M  V30 11235 H 1126.76 -7.69905 0.66831 0
M  V30 11236 H 1125.11 -6.92456 0.594105 0
M  V30 11237 H 1128.3 -4.6797 0.110401 0
M  V30 11238 H 1128.47 -6.46731 0.4053 0
M  V30 11239 N 1121.88 0.120221 -1.57141 0
M  V30 11240 C 1123.13 0.826586 -1.84423 0
M  V30 11241 C 1123.45 1.80473 -0.738553 0
M  V30 11242 O 1122.72 1.94454 0.23755 0
M  V30 11243 H 1121.3 0.308246 -0.680436 0
M  V30 11244 H 1123.96 0.107835 -1.94601 0
M  V30 11245 H 1123.05 1.37256 -2.80298 0
M  V30 11246 N 1123.36 1.52689 0.390367 0
M  V30 11247 C 1124.59 1.71292 1.1551 0
M  V30 11248 C 1124.99 0.430405 1.84239 0
M  V30 11249 O 1124.34 -0.604823 1.73458 0
M  V30 11250 C 1124.4 2.80597 2.24735 0
M  V30 11251 C 1124.06 4.21757 1.75984 0
M  V30 11252 C 1125.06 5.04961 1.23733 0
M  V30 11253 C 1122.75 4.68071 1.82248 0
M  V30 11254 C 1124.74 6.32561 0.783926 0
M  V30 11255 C 1122.43 5.95656 1.36519 0
M  V30 11256 C 1123.42 6.7773 0.846786 0
M  V30 11257 O 1123.11 8.02923 0.396164 0
M  V30 11258 H 1122.84 0.576906 0.352356 0
M  V30 11259 H 1125.4 2.00117 0.462865 0
M  V30 11260 H 1123.63 2.4719 2.97378 0
M  V30 11261 H 1125.32 2.87616 2.86412 0
M  V30 11262 H 1126.08 4.70363 1.18251 0
M  V30 11263 H 1121.96 4.04278 2.21541 0
M  V30 11264 H 1125.51 6.96572 0.378612 0
M  V30 11265 H 1121.4 6.29758 1.41686 0
M  V30 11266 H 1122.17 8.16861 0.517766 0
M  V30 11267 N 1124.83 -0.648732 1.43629 0
M  V30 11268 C 1125.8 -1.74331 1.488 0
M  V30 11269 C 1126.8 -1.56434 0.372147 0
M  V30 11270 O 1127.99 -1.6225 0.634078 0
M  V30 11271 C 1125.12 -3.13248 1.34494 0
M  V30 11272 H 1126.31 -1.71125 2.46285 0
M  V30 11273 H 1123.87 -0.860798 1.30461 0
M  V30 11274 H 1124.6 -3.22062 0.380345 0
M  V30 11275 H 1124.39 -3.27643 2.15389 0
M  V30 11276 H 1125.88 -3.93056 1.41055 0
M  V30 11277 N 1126.31 -1.30234 -0.887518 0
M  V30 11278 C 1127.24 -1.12212 -1.99853 0
M  V30 11279 C 1128.26 -0.0660929 -1.62666 0
M  V30 11280 O 1129.45 -0.311853 -1.75755 0
M  V30 11281 C 1126.55 -0.688591 -3.31831 0
M  V30 11282 C 1125.72 -1.82581 -3.97471 0
M  V30 11283 C 1124.78 -1.38126 -5.07748 0
M  V30 11284 O 1123.8 -2.08805 -5.29518 0
M  V30 11285 N 1125.01 -0.258868 -5.79923 0
M  V30 11286 H 1127.77 -2.07901 -2.15864 0
M  V30 11287 H 1125.33 -1.22336 -1.06045 0
M  V30 11288 H 1127.32 -0.374252 -4.02966 0
M  V30 11289 H 1125.89 0.176185 -3.12103 0
M  V30 11290 H 1125.11 -2.3084 -3.19541 0
M  V30 11291 H 1126.4 -2.58798 -4.38065 0
M  V30 11292 H 1125.8 0.330131 -5.64736 0
M  V30 11293 H 1124.36 -0.00396813 -6.518 0
M  V30 11294 N 1127.79 1.09952 -1.12909 0
M  V30 11295 C 1128.72 2.15689 -0.745217 0
M  V30 11296 C 1129.7 1.60409 0.266007 0
M  V30 11297 O 1130.89 1.8783 0.158783 0
M  V30 11298 C 1128.01 3.38541 -0.103846 0
M  V30 11299 C 1127.06 4.12529 -1.0827 0
M  V30 11300 S 1127.89 4.67442 -2.61262 0
M  V30 11301 C 1129.05 5.936 -1.9847 0
M  V30 11302 H 1129.28 2.47918 -1.64086 0
M  V30 11303 H 1126.81 1.21817 -0.948682 0
M  V30 11304 H 1128.77 4.09677 0.259816 0
M  V30 11305 H 1127.43 3.04541 0.768982 0
M  V30 11306 H 1126.63 5.00632 -0.581653 0
M  V30 11307 H 1126.23 3.47228 -1.38955 0
M  V30 11308 H 1128.52 6.64308 -1.33048 0
M  V30 11309 H 1129.46 6.48374 -2.84634 0
M  V30 11310 H 1129.87 5.45864 -1.43848 0
M  V30 11311 N 1129.27 0.921757 1.27833 0
M  V30 11312 C 1130.5 0.575202 1.98744 0
M  V30 11313 C 1130.91 -0.845405 1.68815 0
M  V30 11314 O 1130.27 -1.56106 0.94536 0
M  V30 11315 C 1130.32 0.784389 3.52888 0
M  V30 11316 O 1130.04 2.1491 3.81766 0
M  V30 11317 C 1131.54 0.445744 4.41053 0
M  V30 11318 H 1128.76 0.218525 0.634419 0
M  V30 11319 H 1131.31 1.23715 1.62834 0
M  V30 11320 H 1129.46 0.169323 3.8703 0
M  V30 11321 H 1129.87 2.19469 4.76375 0
M  V30 11322 H 1131.35 0.64284 5.48244 0
M  V30 11323 H 1131.83 -0.618433 4.34824 0
M  V30 11324 H 1132.43 1.03869 4.12421 0
M  V30 11325 N 1130.75 -1.41857 0.686609 0
M  V30 11326 C 1131.97 -2.06219 0.221037 0
M  V30 11327 C 1132.4 -1.51298 -1.11762 0
M  V30 11328 O 1131.75 -0.636253 -1.69769 0
M  V30 11329 C 1131.8 -3.60153 0.179425 0
M  V30 11330 O 1130.91 -4.03577 -0.848481 0
M  V30 11331 H 1130.25 -0.654787 0.110228 0
M  V30 11332 H 1132.78 -1.81783 0.938948 0
M  V30 11333 H 1132.79 -4.07999 0.00725332 0
M  V30 11334 H 1131.46 -3.99498 1.15647 0
M  V30 11335 H 1130.04 -3.67255 -0.646393 0
M  V30 11336 N 1132.22 -0.430739 -1.51599 0
M  V30 11337 C 1133.47 0.138133 -2.02329 0
M  V30 11338 C 1133.8 1.42934 -1.31466 0
M  V30 11339 O 1133.08 1.89743 -0.427551 0
M  V30 11340 C 1133.36 0.363677 -3.58259 0
M  V30 11341 C 1133.21 -0.94572 -4.39746 0
M  V30 11342 C 1134.53 1.13637 -4.25176 0
M  V30 11343 H 1131.65 0.0487287 -0.735387 0
M  V30 11344 H 1134.29 -0.568444 -1.81297 0
M  V30 11345 H 1132.44 0.965552 -3.7631 0
M  V30 11346 H 1134.12 -1.58107 -4.33359 0
M  V30 11347 H 1132.36 -1.55183 -4.05094 0
M  V30 11348 H 1133.03 -0.742031 -5.4699 0
M  V30 11349 H 1135.51 0.626608 -4.11355 0
M  V30 11350 H 1134.38 1.26294 -5.34173 0
M  V30 11351 H 1134.64 2.16273 -3.85588 0
M  V30 11352 N 1133.7 1.56767 -0.161869 0
M  V30 11353 C 1134.63 2.1466 0.803356 0
M  V30 11354 C 1135.65 1.09977 1.20037 0
M  V30 11355 O 1136.84 1.37199 1.14187 0
M  V30 11356 C 1133.94 2.66663 2.09151 0
M  V30 11357 C 1133.11 3.95904 1.85953 0
M  V30 11358 C 1132.17 4.33067 2.98897 0
M  V30 11359 O 1131.19 5.01119 2.69942 0
M  V30 11360 N 1132.4 3.93856 4.26448 0
M  V30 11361 H 1135.16 2.98108 0.308472 0
M  V30 11362 H 1132.72 1.61886 0.0212238 0
M  V30 11363 H 1134.71 2.88528 2.83784 0
M  V30 11364 H 1133.28 1.87856 2.49857 0
M  V30 11365 H 1132.5 3.82513 0.952751 0
M  V30 11366 H 1133.79 4.8033 1.67811 0
M  V30 11367 H 1133.19 3.39051 4.52836 0
M  V30 11368 H 1131.75 4.20741 4.97815 0
M  V30 11369 N 1135.18 -0.111886 1.57202 0
M  V30 11370 C 1136.13 -1.15585 2.01849 0
M  V30 11371 C 1137.12 -1.42458 0.916621 0
M  V30 11372 O 1138.33 -1.42337 1.10182 0
M  V30 11373 H 1134.7 -0.389885 0.643035 0
M  V30 11374 H 1136.67 -0.752854 2.88747 0
M  V30 11375 C 1135.42 -2.47247 2.44467 0
M  V30 11376 H 1134.75 -2.27409 3.28824 0
M  V30 11377 H 1136.19 -3.18837 2.79497 0
M  V30 11378 C 1134.65 -3.10339 1.31115 0
M  V30 11379 O 1135.18 -3.96713 0.631029 0
M  V30 11380 N 1133.38 -2.70326 1.0664 0
M  V30 11381 H 1132.93 -2.00182 1.62126 0
M  V30 11382 H 1132.89 -3.12869 0.309944 0
M  V30 11383 N 1136.66 -1.52894 -0.382264 0
M  V30 11384 C 1137.94 -1.58853 -1.14127 0
M  V30 11385 C 1138.32 -0.38582 -2.07544 0
M  V30 11386 O 1137.66 0.625323 -2.19777 0
M  V30 11387 C 1137.87 -2.93068 -1.89504 0
M  V30 11388 C 1139.22 -3.47048 -2.44629 0
M  V30 11389 O 1140.25 -2.94987 -1.99652 0
M  V30 11390 O 1139.1 -4.3802 -3.26804 0
M  V30 11391 H 1136.2 -0.640969 -0.522578 0
M  V30 11392 H 1138.74 -1.65231 -0.386873 0
M  V30 11393 H 1137.52 -3.72047 -1.2123 0
M  V30 11394 H 1137.14 -2.90106 -2.7189 0
M  V30 11395 N 1138.14 0.641106 -1.43971 0
M  V30 11396 C 1139.38 1.40291 -1.46445 0
M  V30 11397 C 1139.72 1.93978 -0.0929004 0
M  V30 11398 O 1138.99 1.73043 0.888043 0
M  V30 11399 C 1139.27 2.57551 -2.51673 0
M  V30 11400 C 1139.13 2.09279 -3.98149 0
M  V30 11401 C 1140.45 3.59752 -2.53508 0
M  V30 11402 H 1137.57 0.508771 -0.533218 0
M  V30 11403 H 1140.21 0.725767 -1.75592 0
M  V30 11404 H 1138.36 3.15319 -2.2695 0
M  V30 11405 H 1140.03 1.56418 -4.33971 0
M  V30 11406 H 1138.27 1.40545 -4.10402 0
M  V30 11407 H 1138.94 2.93655 -4.67409 0
M  V30 11408 H 1141.42 3.11766 -2.75574 0
M  V30 11409 H 1140.3 4.39332 -3.29057 0
M  V30 11410 H 1140.56 4.13156 -1.57335 0
M  V30 11411 N 1139.62 1.30703 0.880598 0
M  V30 11412 C 1141.03 1.09129 1.1646 0
M  V30 11413 C 1141.23 -0.145131 2.00977 0
M  V30 11414 O 1140.29 -0.837502 2.38206 0
M  V30 11415 C 1141.6 2.35717 1.86703 0
M  V30 11416 C 1143.15 2.41224 1.9945 0
M  V30 11417 C 1143.62 3.67665 2.73105 0
M  V30 11418 N 1145.11 3.68498 2.80648 0
M  V30 11419 C 1145.85 4.63024 3.38225 0
M  V30 11420 N 1145.35 5.67898 3.96817 0
M  V30 11421 N 1147.14 4.50561 3.36082 0
M  V30 11422 H 1139.29 2.10019 0.317164 0
M  V30 11423 H 1141.55 0.925994 0.203072 0
M  V30 11424 H 1141.26 3.2597 1.32046 0
M  V30 11425 H 1141.13 2.447 2.87057 0
M  V30 11426 H 1143.52 1.51446 2.53275 0
M  V30 11427 H 1143.6 2.36212 0.981704 0
M  V30 11428 H 1143.24 4.57803 2.19951 0
M  V30 11429 H 1143.17 3.69939 3.7477 0
M  V30 11430 H 1145.67 2.92681 2.39053 0
M  V30 11431 H 1145.98 6.3612 4.3883 0
M  V30 11432 H 1144.32 5.71685 3.95223 0
M  V30 11433 H 1147.51 3.67811 2.89539 0
M  V30 11434 H 1147.69 5.24408 3.80657 0
M  V30 11435 N 1141.09 -1.09351 1.1349 0
M  V30 11436 C 1142.34 -1.80915 0.89177 0
M  V30 11437 C 1142.66 -1.86688 -0.5837 0
M  V30 11438 O 1143.86 -2.54568 -0.943788 0
M  V30 11439 C 1142.32 -3.25009 1.54587 0
M  V30 11440 C 1141.93 -3.27501 3.05691 0
M  V30 11441 C 1143.67 -4.01323 1.38346 0
M  V30 11442 C 1141.58 -4.66123 3.63983 0
M  V30 11443 H 1140.51 -0.677961 0.329978 0
M  V30 11444 H 1143.16 -1.22893 1.3627 0
M  V30 11445 H 1141.54 -3.83098 1.0026 0
M  V30 11446 H 1142.71 -2.79174 3.66604 0
M  V30 11447 H 1141.03 -2.64677 3.21457 0
M  V30 11448 H 1143.63 -5.03739 1.79307 0
M  V30 11449 H 1143.97 -4.15003 0.328404 0
M  V30 11450 H 1144.5 -3.49679 1.89656 0
M  V30 11451 H 1141.24 -4.57646 4.69298 0
M  V30 11452 H 1140.76 -5.14772 3.07848 0
M  V30 11453 H 1142.44 -5.35097 3.63703 0
M  V30 11454 N 1142.57 -0.928524 -1.27343 0
M  V30 11455 C 1143.8 -0.585734 -1.98436 0
M  V30 11456 C 1144.21 0.83644 -1.69261 0
M  V30 11457 O 1143.57 1.55603 -0.953626 0
M  V30 11458 C 1143.62 -0.803092 -3.52467 0
M  V30 11459 O 1143.34 -2.16932 -3.80621 0
M  V30 11460 C 1144.84 -0.469127 -4.40811 0
M  V30 11461 H 1142.06 -0.221887 -0.633251 0
M  V30 11462 H 1144.61 -1.24577 -1.62175 0
M  V30 11463 H 1142.76 -0.189846 -3.86935 0
M  V30 11464 H 1143.18 -2.21992 -4.75205 0
M  V30 11465 H 1144.65 -0.671906 -5.47895 0
M  V30 11466 H 1145.13 0.595365 -4.35146 0
M  V30 11467 H 1145.73 -1.06055 -4.11865 0
M  V30 11468 N 1144.05 1.41491 -0.694123 0
M  V30 11469 C 1144.98 2.33462 -0.0422169 0
M  V30 11470 C 1145.96 1.51739 0.76872 0
M  V30 11471 O 1147.15 1.8028 0.721985 0
M  V30 11472 C 1144.28 3.35545 0.895925 0
M  V30 11473 C 1143.23 4.27568 0.192188 0
M  V30 11474 C 1142.56 5.20014 1.24459 0
M  V30 11475 C 1143.86 5.1376 -0.940626 0
M  V30 11476 H 1145.55 2.88225 -0.810363 0
M  V30 11477 H 1143.1 1.38586 -0.39114 0
M  V30 11478 H 1145.05 3.9881 1.36121 0
M  V30 11479 H 1143.77 2.79129 1.69572 0
M  V30 11480 H 1142.43 3.65726 -0.25305 0
M  V30 11481 H 1142.08 4.59913 2.03687 0
M  V30 11482 H 1141.78 5.82417 0.778734 0
M  V30 11483 H 1143.3 5.86155 1.71041 0
M  V30 11484 H 1144.72 5.70601 -0.555692 0
M  V30 11485 H 1143.11 5.85097 -1.33349 0
M  V30 11486 H 1144.18 4.51011 -1.78093 0
M  V30 11487 N 1145.53 0.438773 1.51369 0
M  V30 11488 C 1146.48 -0.386324 2.29369 0
M  V30 11489 C 1147.47 -1.0196 1.3528 0
M  V30 11490 O 1148.68 -0.9544 1.52615 0
M  V30 11491 H 1145.05 -0.143397 0.738201 0
M  V30 11492 H 1147.02 0.292372 2.96964 0
M  V30 11493 C 1145.77 -1.47426 3.14898 0
M  V30 11494 H 1145.09 -0.996335 3.87186 0
M  V30 11495 H 1146.53 -2.02481 3.72529 0
M  V30 11496 C 1144.99 -2.45831 2.30366 0
M  V30 11497 O 1145.52 -3.50398 1.96428 0
M  V30 11498 N 1143.73 -2.16754 1.93561 0
M  V30 11499 H 1143.28 -1.31748 2.2136 0
M  V30 11500 H 1143.23 -2.82836 1.373 0
M  V30 11501 N 1147.01 -1.56678 0.170181 0
M  V30 11502 C 1148.25 -1.9714 -0.475767 0
M  V30 11503 C 1148.58 -1.05611 -1.62972 0
M  V30 11504 O 1147.86 -0.103017 -1.94227 0
M  V30 11505 C 1148.14 -3.47072 -0.959828 0
M  V30 11506 C 1148 -4.4938 0.194225 0
M  V30 11507 C 1149.31 -4.00071 -1.83387 0
M  V30 11508 H 1146.43 -0.716776 -0.171466 0
M  V30 11509 H 1149.08 -1.88266 0.256086 0
M  V30 11510 H 1147.23 -3.54766 -1.58346 0
M  V30 11511 H 1148.9 -4.53748 0.83128 0
M  V30 11512 H 1147.14 -4.25393 0.849893 0
M  V30 11513 H 1147.81 -5.51685 -0.186575 0
M  V30 11514 H 1150.29 -3.95002 -1.30815 0
M  V30 11515 H 1149.16 -5.05398 -2.14159 0
M  V30 11516 H 1149.42 -3.43819 -2.77923 0
M  V30 11517 N 1148.48 0.103547 -1.57259 0
M  V30 11518 C 1149.73 0.806979 -1.8529 0
M  V30 11519 C 1150.05 1.79679 -0.757653 0
M  V30 11520 O 1149.32 1.94695 0.216913 0
M  V30 11521 H 1147.9 0.301012 -0.683667 0
M  V30 11522 H 1150.56 0.0871886 -1.94705 0
M  V30 11523 H 1149.66 1.34275 -2.81738 0
M  V30 11524 N 1149.96 1.53094 0.37415 0
M  V30 11525 C 1150.91 1.78927 1.45787 0
M  V30 11526 C 1151.88 0.633187 1.53558 0
M  V30 11527 O 1153.06 0.874472 1.69581 0
M  V30 11528 C 1150.2 1.97726 2.8284 0
M  V30 11529 C 1149.32 3.25436 2.84104 0
M  V30 11530 C 1148.45 3.3447 4.12678 0
M  V30 11531 C 1147.49 4.56246 4.08051 0
M  V30 11532 N 1146.63 4.6248 5.28258 0
M  V30 11533 H 1151.47 2.71404 1.2306 0
M  V30 11534 H 1149 1.34453 0.596716 0
M  V30 11535 H 1150.96 2.06611 3.62447 0
M  V30 11536 H 1149.59 1.08593 3.03986 0
M  V30 11537 H 1148.64 3.25548 1.96781 0
M  V30 11538 H 1149.96 4.15112 2.76556 0
M  V30 11539 H 1149.11 3.4262 5.00696 0
M  V30 11540 H 1147.85 2.42795 4.22968 0
M  V30 11541 H 1146.85 4.48206 3.1842 0
M  V30 11542 H 1148.08 5.49254 3.99371 0
M  V30 11543 H 1146.03 3.73703 5.3915 0
M  V30 11544 H 1145.94 5.46049 5.22845 0
M  V30 11545 H 1147.21 4.74903 6.18132 0
M  V30 11546 N 1151.44 -0.633461 1.44309 0
M  V30 11547 C 1152.66 -1.42527 1.50668 0
M  V30 11548 C 1153.09 -1.87637 0.131861 0
M  V30 11549 O 1152.45 -1.58595 -0.878477 0
M  V30 11550 C 1152.5 -2.62328 2.47419 0
M  V30 11551 O 1151.6 -3.62081 1.97411 0
M  V30 11552 H 1150.94 -0.426559 0.508864 0
M  V30 11553 H 1153.47 -0.773392 1.8942 0
M  V30 11554 H 1153.48 -3.09901 2.65378 0
M  V30 11555 H 1152.16 -2.2884 3.47283 0
M  V30 11556 H 1150.73 -3.21333 1.89208 0
M  V30 11557 N 1152.92 -1.31168 -0.873655 0
M  V30 11558 C 1154.14 -1.23728 -1.66452 0
M  V30 11559 C 1154.57 0.194869 -1.87088 0
M  V30 11560 O 1153.93 1.1397 -1.40998 0
M  V30 11561 C 1153.97 -1.98285 -3.0119 0
M  V30 11562 O 1153.08 -1.31767 -3.90783 0
M  V30 11563 H 1152.42 -0.427362 -0.508191 0
M  V30 11564 H 1154.95 -1.73176 -1.08955 0
M  V30 11565 H 1154.96 -2.0774 -3.51153 0
M  V30 11566 H 1153.63 -3.02437 -2.8549 0
M  V30 11567 H 1152.21 -1.3074 -3.4923 0
M  V30 11568 N 1154.4 1.08748 -1.14068 0
M  V30 11569 C 1155.64 1.80707 -0.904947 0
M  V30 11570 C 1155.97 1.86478 0.570167 0
M  V30 11571 O 1155.24 1.35536 1.41445 0
M  V30 11572 H 1153.82 0.669261 -0.331811 0
M  V30 11573 H 1156.48 1.31494 -1.43859 0
M  V30 11574 H 1155.57 2.83653 -1.30182 0
M  V30 11575 N 1155.87 0.935264 1.26849 0
M  V30 11576 C 1157.1 0.595704 1.98661 0
M  V30 11577 C 1157.52 -0.821001 1.69237 0
M  V30 11578 O 1156.88 -1.55211 0.936982 0
M  V30 11579 C 1156.93 0.837275 3.50745 0
M  V30 11580 O 1156.03 -0.0934914 4.12294 0
M  V30 11581 H 1155.38 0.228512 0.623441 0
M  V30 11582 H 1157.91 1.25658 1.61466 0
M  V30 11583 H 1157.92 0.755827 4.00938 0
M  V30 11584 H 1156.59 1.86993 3.71492 0
M  V30 11585 H 1155.17 0.0385124 3.7288 0
M  V30 11586 N 1157.35 -1.41121 0.701616 0
M  V30 11587 C 1158.28 -2.33436 0.0545974 0
M  V30 11588 C 1159.26 -1.52144 -0.760662 0
M  V30 11589 O 1160.45 -1.80661 -0.712414 0
M  V30 11590 C 1157.58 -3.36015 -0.878117 0
M  V30 11591 C 1156.53 -4.27664 -0.169511 0
M  V30 11592 C 1155.86 -5.20666 -1.21699 0
M  V30 11593 C 1157.16 -5.13254 0.967859 0
M  V30 11594 H 1158.85 -2.87791 0.825637 0
M  V30 11595 H 1156.4 -1.38377 0.398484 0
M  V30 11596 H 1158.35 -3.99526 -1.34004 0
M  V30 11597 H 1157.08 -2.80024 -1.68089 0
M  V30 11598 H 1155.73 -3.65586 0.272441 0
M  V30 11599 H 1155.38 -4.60987 -2.01246 0
M  V30 11600 H 1155.08 -5.82822 -0.747836 0
M  V30 11601 H 1156.61 -5.87053 -1.6793 0
M  V30 11602 H 1158.02 -5.70298 0.585944 0
M  V30 11603 H 1156.42 -5.84381 1.3645 0
M  V30 11604 H 1157.49 -4.5006 1.80483 0
M  V30 11605 N 1158.83 -0.446794 -1.51134 0
M  V30 11606 C 1160.08 0.116493 -2.02165 0
M  V30 11607 C 1160.41 1.41884 -1.33039 0
M  V30 11608 O 1159.66 1.90757 -0.437071 0
M  V30 11609 C 1159.96 0.373015 -3.55448 0
M  V30 11610 C 1159.63 -0.844659 -4.42918 0
M  V30 11611 C 1158.29 -1.17857 -4.66544 0
M  V30 11612 C 1160.64 -1.65653 -4.94174 0
M  V30 11613 C 1157.97 -2.32486 -5.38672 0
M  V30 11614 C 1160.32 -2.7939 -5.6756 0
M  V30 11615 C 1158.98 -3.13224 -5.89446 0
M  V30 11616 H 1158.25 0.0426279 -0.739773 0
M  V30 11617 H 1160.9 -0.595921 -1.81992 0
M  V30 11618 H 1159.21 1.16742 -3.74003 0
M  V30 11619 H 1160.9 0.822425 -3.92476 0
M  V30 11620 H 1157.49 -0.574478 -4.24733 0
M  V30 11621 H 1161.68 -1.41176 -4.75797 0
M  V30 11622 H 1156.93 -2.59003 -5.5383 0
M  V30 11623 H 1161.11 -3.42662 -6.06264 0
M  V30 11624 H 1158.73 -4.02158 -6.45115 0
M  V30 11625 N 1160.31 1.56586 -0.178487 0
M  V30 11626 C 1161.72 1.58609 0.17759 0
M  V30 11627 C 1161.92 1.19411 1.62306 0
M  V30 11628 O 1160.98 0.90906 2.35568 0
M  V30 11629 C 1162.29 3.005 -0.109722 0
M  V30 11630 C 1163.84 3.12962 -0.0485036 0
M  V30 11631 C 1164.32 4.56957 -0.308901 0
M  V30 11632 N 1165.81 4.62487 -0.25693 0
M  V30 11633 C 1166.54 5.71767 -0.432488 0
M  V30 11634 N 1166.04 6.89577 -0.667494 0
M  V30 11635 N 1167.83 5.60895 -0.367895 0
M  V30 11636 H 1159.98 1.80351 -1.12193 0
M  V30 11637 H 1162.25 0.83623 -0.446569 0
M  V30 11638 H 1161.95 3.3368 -1.11133 0
M  V30 11639 H 1161.83 3.72472 0.595373 0
M  V30 11640 H 1164.21 2.79604 0.943687 0
M  V30 11641 H 1164.29 2.43411 -0.78642 0
M  V30 11642 H 1163.94 4.91025 -1.29833 0
M  V30 11643 H 1163.87 5.24676 0.449711 0
M  V30 11644 H 1166.36 3.77813 -0.0812308 0
M  V30 11645 H 1166.67 7.68744 -0.79071 0
M  V30 11646 H 1165.02 6.91423 -0.704193 0
M  V30 11647 H 1168.21 4.67735 -0.184837 0
M  V30 11648 H 1168.38 6.46005 -0.508138 0
M  V30 11649 N 1161.79 -0.095206 1.57312 0
M  V30 11650 C 1163.03 -0.799903 1.86358 0
M  V30 11651 C 1163.37 -1.78386 0.767593 0
M  V30 11652 O 1162.64 -1.93201 -0.224439 0
M  V30 11653 C 1162.92 -1.52875 3.26039 0
M  V30 11654 C 1162.78 -0.562781 4.46265 0
M  V30 11655 C 1164.1 -2.47935 3.63616 0
M  V30 11656 H 1161.21 -0.289339 0.677829 0
M  V30 11657 H 1163.86 -0.0635369 1.89894 0
M  V30 11658 H 1162.01 -2.15645 3.23156 0
M  V30 11659 H 1163.68 0.0579068 4.61264 0
M  V30 11660 H 1161.92 0.123847 4.33623 0
M  V30 11661 H 1162.59 -1.10989 5.40727 0
M  V30 11662 H 1165.07 -1.95257 3.67442 0
M  V30 11663 H 1163.94 -2.95948 4.62283 0
M  V30 11664 H 1164.21 -3.31687 2.92294 0
M  V30 11665 N 1163.26 -1.53291 -0.366026 0
M  V30 11666 C 1164.51 -1.68671 -1.10602 0
M  V30 11667 C 1164.83 -0.444793 -1.90476 0
M  V30 11668 O 1166.03 -0.479135 -2.67239 0
M  V30 11669 C 1164.49 -2.98174 -2.01545 0
M  V30 11670 C 1164.1 -4.29626 -1.26986 0
M  V30 11671 C 1165.84 -3.22921 -2.7554 0
M  V30 11672 C 1163.75 -5.50218 -2.16828 0
M  V30 11673 H 1162.68 -0.628456 -0.416604 0
M  V30 11674 H 1165.33 -1.79791 -0.367058 0
M  V30 11675 H 1163.71 -2.80855 -2.79171 0
M  V30 11676 H 1164.88 -4.57574 -0.544269 0
M  V30 11677 H 1163.2 -4.11318 -0.648558 0
M  V30 11678 H 1165.8 -4.10202 -3.42985 0
M  V30 11679 H 1166.14 -2.38964 -3.40884 0
M  V30 11680 H 1166.67 -3.40912 -2.04997 0
M  V30 11681 H 1163.41 -6.36651 -1.56063 0
M  V30 11682 H 1162.93 -5.26549 -2.87238 0
M  V30 11683 H 1164.61 -5.84991 -2.76396 0
M  V30 11684 N 1164.74 0.6258 -1.44643 0
M  V30 11685 C 1165.67 1.74858 -1.54748 0
M  V30 11686 C 1166.65 1.65327 -0.400138 0
M  V30 11687 O 1167.84 1.84005 -0.620948 0
M  V30 11688 C 1164.97 3.13408 -1.49643 0
M  V30 11689 C 1163.92 3.37733 -2.62908 0
M  V30 11690 C 1163.25 4.76367 -2.42855 0
M  V30 11691 C 1164.55 3.29771 -4.05029 0
M  V30 11692 H 1166.24 1.66658 -2.48728 0
M  V30 11693 H 1163.79 0.800363 -1.19709 0
M  V30 11694 H 1165.74 3.91735 -1.55312 0
M  V30 11695 H 1164.47 3.22404 -0.521824 0
M  V30 11696 H 1163.12 2.61788 -2.56637 0
M  V30 11697 H 1162.77 4.82074 -1.43575 0
M  V30 11698 H 1162.47 4.936 -3.18799 0
M  V30 11699 H 1164 5.56917 -2.50351 0
M  V30 11700 H 1165.41 3.97996 -4.12641 0
M  V30 11701 H 1163.81 3.58538 -4.81218 0
M  V30 11702 H 1164.88 2.27493 -4.28223 0
M  V30 11703 N 1166.22 1.31629 0.866686 0
M  V30 11704 C 1167.64 1.10358 1.15296 0
M  V30 11705 C 1167.84 -0.123807 2.01119 0
M  V30 11706 O 1166.89 -0.81219 2.39081 0
M  V30 11707 C 1168.21 2.37684 1.84193 0
M  V30 11708 C 1169.75 2.43326 1.9688 0
M  V30 11709 C 1170.23 3.70541 2.69191 0
M  V30 11710 N 1171.72 3.71454 2.76724 0
M  V30 11711 C 1172.45 4.66585 3.33295 0
M  V30 11712 N 1171.95 5.72075 3.90771 0
M  V30 11713 N 1173.74 4.541 3.31284 0
M  V30 11714 H 1165.89 2.10343 0.29487 0
M  V30 11715 H 1168.16 0.928096 0.193239 0
M  V30 11716 H 1167.86 3.27352 1.28582 0
M  V30 11717 H 1167.74 2.47731 2.84445 0
M  V30 11718 H 1170.12 1.54124 2.51654 0
M  V30 11719 H 1170.21 2.3724 0.956596 0
M  V30 11720 H 1169.85 4.60111 2.15083 0
M  V30 11721 H 1169.78 3.73894 3.70825 0
M  V30 11722 H 1172.27 2.952 2.35936 0
M  V30 11723 H 1172.58 6.40738 4.32058 0
M  V30 11724 H 1170.93 5.75844 3.89138 0
M  V30 11725 H 1174.12 3.70861 2.85622 0
M  V30 11726 H 1174.29 5.28416 3.75074 0
M  V30 11727 N 1167.7 -1.08142 1.14644 0
M  V30 11728 C 1168.93 -1.8405 0.938563 0
M  V30 11729 C 1169.34 -1.82017 -0.516361 0
M  V30 11730 O 1168.68 -1.22418 -1.36966 0
M  V30 11731 C 1168.74 -3.32563 1.36536 0
M  V30 11732 C 1168.41 -3.58327 2.83638 0
M  V30 11733 C 1169.4 -3.52944 3.81741 0
M  V30 11734 C 1167.09 -3.86251 3.21115 0
M  V30 11735 C 1169.08 -3.7512 5.15329 0
M  V30 11736 C 1166.77 -4.0808 4.54878 0
M  V30 11737 C 1167.77 -4.02508 5.51794 0
M  V30 11738 O 1167.46 -4.23761 6.83141 0
M  V30 11739 H 1167.19 -0.587793 0.33388 0
M  V30 11740 H 1169.74 -1.37467 1.52617 0
M  V30 11741 H 1167.97 -3.79917 0.721106 0
M  V30 11742 H 1169.66 -3.89915 1.12787 0
M  V30 11743 H 1170.43 -3.31382 3.54134 0
M  V30 11744 H 1166.31 -3.89707 2.46272 0
M  V30 11745 H 1169.85 -3.70686 5.90963 0
M  V30 11746 H 1165.75 -4.29126 4.82204 0
M  V30 11747 H 1166.51 -4.41152 6.8944 0
M  V30 11748 N 1169.18 -0.941978 -1.26351 0
M  V30 11749 C 1170.42 -0.590845 -1.94002 0
M  V30 11750 C 1170.76 0.868004 -1.73722 0
M  V30 11751 O 1170.03 1.62111 -1.07472 0
M  V30 11752 C 1170.31 -0.934901 -3.47752 0
M  V30 11753 C 1170.17 -2.44855 -3.77314 0
M  V30 11754 C 1171.49 -0.450888 -4.37784 0
M  V30 11755 H 1168.61 -0.21613 -0.704597 0
M  V30 11756 H 1171.25 -1.17634 -1.49205 0
M  V30 11757 H 1169.4 -0.436648 -3.86038 0
M  V30 11758 H 1171.07 -3.01959 -3.48738 0
M  V30 11759 H 1169.31 -2.89169 -3.23363 0
M  V30 11760 H 1169.98 -2.6398 -4.84787 0
M  V30 11761 H 1172.46 -0.878107 -4.06729 0
M  V30 11762 H 1171.34 -0.720439 -5.44152 0
M  V30 11763 H 1171.6 0.649162 -4.37308 0
M  V30 11764 N 1170.66 1.40747 -0.709091 0
M  V30 11765 C 1171.6 2.32564 -0.0411392 0
M  V30 11766 C 1172.6 1.51692 0.75404 0
M  V30 11767 O 1173.8 1.67537 0.658139 0
M  V30 11768 H 1170.18 0.75198 0.00549889 0
M  V30 11769 H 1172.15 2.86556 -0.83235 0
M  V30 11770 C 1170.9 3.36604 0.871378 0
M  V30 11771 H 1170.22 3.98895 0.268912 0
M  V30 11772 H 1171.66 4.03359 1.30682 0
M  V30 11773 C 1170.12 2.71566 1.99384 0
M  V30 11774 O 1170.65 2.57392 3.08403 0
M  V30 11775 N 1168.86 2.3005 1.77554 0
M  V30 11776 H 1168.4 2.41778 0.888898 0
M  V30 11777 H 1168.36 1.8687 2.52838 0
M  V30 11778 N 1172.13 0.454803 1.50895 0
M  V30 11779 C 1173.54 -0.00421212 1.867 0
M  V30 11780 C 1173.9 -1.4037 1.3708 0
M  V30 11781 O 1173.02 -2.03755 0.728884 0
M  V30 11782 C 1173.62 -0.0144196 3.38797 0
M  V30 11783 C 1172.17 -0.417905 3.74073 0
M  V30 11784 C 1171.32 0.37801 2.74711 0
M  V30 11785 H 1174.27 0.669849 1.4387 0
M  V30 11786 H 1174.29 -0.820172 3.71555 0
M  V30 11787 H 1173.81 1.00427 3.74881 0
M  V30 11788 H 1171.91 -1.44155 3.43584 0
M  V30 11789 H 1172.02 -0.130568 4.78922 0
M  V30 11790 H 1170.38 -0.166089 2.54158 0
M  V30 11791 H 1171.17 1.3959 3.13639 0
M  V30 11792 N 1173.61 -1.56489 0.186789 0
M  V30 11793 C 1174.86 -1.96952 -0.453261 0
M  V30 11794 C 1175.18 -1.07451 -1.62725 0
M  V30 11795 O 1174.45 -0.144046 -1.9537 0
M  V30 11796 H 1173.03 -0.727295 -0.170445 0
M  V30 11797 H 1175.69 -1.92999 0.271584 0
M  V30 11798 H 1174.79 -3.01594 -0.802951 0
M  V30 11799 N 1175.09 0.086862 -1.5736 0
M  V30 11800 C 1176.32 0.802167 -1.90717 0
M  V30 11801 C 1176.73 1.71875 -0.781304 0
M  V30 11802 O 1176.09 1.80831 0.246255 0
M  V30 11803 C 1176.14 1.60858 -3.23739 0
M  V30 11804 O 1175.86 0.728851 -4.31995 0
M  V30 11805 C 1177.36 2.42621 -3.71012 0
M  V30 11806 H 1174.58 0.228914 -0.630745 0
M  V30 11807 H 1177.13 0.061634 -2.04407 0
M  V30 11808 H 1175.28 2.30153 -3.11622 0
M  V30 11809 H 1175.7 1.2882 -5.08435 0
M  V30 11810 H 1177.17 2.94683 -4.66761 0
M  V30 11811 H 1177.65 3.21462 -2.99264 0
M  V30 11812 H 1178.25 1.78509 -3.86024 0
M  V30 11813 N 1176.57 1.53483 0.357892 0
M  V30 11814 C 1177.48 1.83434 1.4625 0
M  V30 11815 C 1178.49 0.723313 1.58254 0
M  V30 11816 O 1179.67 1.01416 1.74002 0
M  V30 11817 C 1176.73 2.0249 2.81423 0
M  V30 11818 C 1175.8 3.26378 2.78883 0
M  V30 11819 C 1175.03 3.44516 4.07608 0
M  V30 11820 O 1175.25 2.66787 5.04163 0
M  V30 11821 O 1174.19 4.37898 4.12952 0
M  V30 11822 H 1178.01 2.77294 1.23861 0
M  V30 11823 H 1175.6 1.38958 0.548722 0
M  V30 11824 H 1177.48 2.16552 3.61501 0
M  V30 11825 H 1176.15 1.11819 3.03773 0
M  V30 11826 H 1175.06 3.17733 1.97475 0
M  V30 11827 H 1176.39 4.16996 2.61486 0
M  V30 11828 N 1178.05 -0.61812 1.44973 0
M  V30 11829 C 1179.01 -1.71135 1.52465 0
M  V30 11830 C 1180.01 -1.5561 0.405246 0
M  V30 11831 O 1181.2 -1.60869 0.668351 0
M  V30 11832 C 1178.33 -3.10324 1.41108 0
M  V30 11833 H 1179.52 -1.65862 2.49859 0
M  V30 11834 H 1177.08 -0.832932 1.32257 0
M  V30 11835 H 1177.81 -3.21183 0.448574 0
M  V30 11836 H 1177.6 -3.23001 2.2229 0
M  V30 11837 H 1179.09 -3.89976 1.49361 0
M  V30 11838 N 1179.52 -1.32087 -0.859693 0
M  V30 11839 C 1180.77 -1.22542 -1.6159 0
M  V30 11840 C 1181.1 0.213533 -1.93022 0
M  V30 11841 O 1180.38 1.14931 -1.56911 0
M  V30 11842 C 1180.66 -2.08004 -2.93949 0
M  V30 11843 C 1180.51 -3.60252 -2.6933 0
M  V30 11844 C 1181.83 -1.93732 -3.95166 0
M  V30 11845 H 1178.95 -0.446504 -0.586347 0
M  V30 11846 H 1181.59 -1.61982 -0.993064 0
M  V30 11847 H 1179.74 -1.74498 -3.47106 0
M  V30 11848 H 1181.42 -4.03947 -2.22766 0
M  V30 11849 H 1179.66 -3.83169 -2.03382 0
M  V30 11850 H 1180.33 -4.1537 -3.63555 0
M  V30 11851 H 1182.81 -2.23075 -3.5125 0
M  V30 11852 H 1181.68 -2.55815 -4.85644 0
M  V30 11853 H 1181.94 -0.903528 -4.32769 0
M  V30 11854 N 1181 1.07532 -1.15215 0
M  V30 11855 C 1182.23 1.84356 -0.950139 0
M  V30 11856 C 1182.65 1.81429 0.496502 0
M  V30 11857 O 1182.01 1.20589 1.35381 0
M  V30 11858 C 1182.06 3.29425 -1.46669 0
M  V30 11859 O 1181.16 4.07008 -0.664674 0
M  V30 11860 H 1180.5 0.570921 -0.339036 0
M  V30 11861 H 1183.03 1.35665 -1.53154 0
M  V30 11862 H 1183.04 3.8026 -1.47873 0
M  V30 11863 H 1181.72 3.3087 -2.51988 0
M  V30 11864 H 1180.29 3.65841 -0.72211 0
M  V30 11865 N 1182.48 0.948665 1.2585 0
M  V30 11866 C 1183.73 0.59905 1.93018 0
M  V30 11867 C 1184.05 -0.865813 1.74725 0
M  V30 11868 O 1183.32 -1.61602 1.10732 0
M  V30 11869 H 1181.9 0.218565 0.71431 0
M  V30 11870 H 1184.56 1.20561 1.53137 0
M  V30 11871 H 1183.66 0.823244 3.01047 0
M  V30 11872 N 1183.96 -1.40369 0.716545 0
M  V30 11873 C 1184.91 -2.27963 0.0410169 0
M  V30 11874 C 1185.89 -1.43307 -0.731575 0
M  V30 11875 O 1187.08 -1.66389 -0.603618 0
M  V30 11876 C 1184.21 -3.31849 -0.87927 0
M  V30 11877 C 1183.3 -4.23978 -0.101813 0
M  V30 11878 N 1183.69 -4.97447 0.915437 0
M  V30 11879 C 1181.99 -4.44746 -0.334227 0
M  V30 11880 C 1182.69 -5.65029 1.38266 0
M  V30 11881 N 1181.67 -5.39014 0.704642 0
M  V30 11882 H 1185.47 -2.8221 0.820653 0
M  V30 11883 H 1182.98 -1.52831 0.549217 0
M  V30 11884 H 1184.98 -3.93448 -1.37855 0
M  V30 11885 H 1183.64 -2.79162 -1.65827 0
M  V30 11886 H 1184.65 -5.01414 1.29631 0
M  V30 11887 H 1181.33 -4.03034 -1.08948 0
M  V30 11888 H 1182.72 -6.33886 2.22797 0
M  V30 11889 N 1185.44 -0.462799 -1.50652 0
M  V30 11890 C 1186.69 0.0966838 -2.01468 0
M  V30 11891 C 1187 1.41529 -1.35014 0
M  V30 11892 O 1188.2 2.05923 -1.76941 0
M  V30 11893 C 1186.66 0.222826 -3.5921 0
M  V30 11894 C 1186.27 -1.08686 -4.34616 0
M  V30 11895 C 1188.01 0.734711 -4.18094 0
M  V30 11896 C 1185.92 -0.924964 -5.84122 0
M  V30 11897 H 1184.85 0.0399078 -0.752943 0
M  V30 11898 H 1187.5 -0.596437 -1.73536 0
M  V30 11899 H 1185.88 0.979539 -3.83694 0
M  V30 11900 H 1187.06 -1.85388 -4.21862 0
M  V30 11901 H 1185.37 -1.52922 -3.87303 0
M  V30 11902 H 1187.97 0.872734 -5.2753 0
M  V30 11903 H 1188.31 1.72389 -3.7893 0
M  V30 11904 H 1188.84 0.0356139 -3.97784 0
M  V30 11905 H 1185.58 -1.88727 -6.27744 0
M  V30 11906 H 1185.1 -0.198181 -5.99473 0
M  V30 11907 H 1186.78 -0.588262 -6.4432 0
M  V30 11908 N 1186.91 1.56388 -0.195085 0
M  V30 11909 C 1188.14 2.01963 0.449289 0
M  V30 11910 C 1188.56 1.07522 1.55192 0
M  V30 11911 O 1187.91 0.0800915 1.82324 0
M  V30 11912 C 1187.97 3.47231 1.00561 0
M  V30 11913 O 1187.69 4.38068 -0.0530241 0
M  V30 11914 C 1189.19 4.08324 1.72587 0
M  V30 11915 H 1186.41 0.661452 0.112792 0
M  V30 11916 H 1188.95 2.02231 -0.303788 0
M  V30 11917 H 1187.11 3.47663 1.70907 0
M  V30 11918 H 1187.52 5.23256 0.361076 0
M  V30 11919 H 1188.99 5.11821 2.06744 0
M  V30 11920 H 1189.47 3.51782 2.62956 0
M  V30 11921 H 1190.08 4.11665 1.06826 0
M  V30 11922 N 1188.39 -0.0785156 1.57404 0
M  V30 11923 C 1189.64 -0.777722 1.86103 0
M  V30 11924 C 1189.95 -1.79079 0.786771 0
M  V30 11925 O 1191.16 -2.53908 0.961393 0
M  V30 11926 C 1189.62 -1.43407 3.30095 0
M  V30 11927 C 1189.22 -0.459912 4.45633 0
M  V30 11928 C 1190.97 -2.11603 3.68 0
M  V30 11929 C 1188.88 -1.12179 5.80663 0
M  V30 11930 H 1187.81 -0.294205 0.694233 0
M  V30 11931 H 1190.46 -0.0309003 1.83474 0
M  V30 11932 H 1188.84 -2.22892 3.27315 0
M  V30 11933 H 1190.01 0.304642 4.59792 0
M  V30 11934 H 1188.33 0.117242 4.16235 0
M  V30 11935 H 1190.92 -2.61887 4.66175 0
M  V30 11936 H 1191.27 -2.91244 2.9746 0
M  V30 11937 H 1191.8 -1.38958 3.72741 0
M  V30 11938 H 1188.54 -0.365842 6.54478 0
M  V30 11939 H 1188.06 -1.85737 5.70317 0
M  V30 11940 H 1189.74 -1.64355 6.25777 0
M  V30 11941 N 1189.87 -1.5367 -0.349747 0
M  V30 11942 C 1191.1 -1.74294 -1.10928 0
M  V30 11943 C 1191.51 -0.479102 -1.83033 0
M  V30 11944 O 1190.85 0.558621 -1.75 0
M  V30 11945 C 1190.91 -2.86457 -2.17216 0
M  V30 11946 C 1190.58 -4.26274 -1.6474 0
M  V30 11947 C 1191.57 -5.08065 -1.10302 0
M  V30 11948 C 1189.26 -4.72739 -1.69774 0
M  V30 11949 C 1191.25 -6.34417 -0.615938 0
M  V30 11950 C 1188.94 -5.99066 -1.20678 0
M  V30 11951 C 1189.94 -6.79737 -0.6668 0
M  V30 11952 O 1189.63 -8.03691 -0.183143 0
M  V30 11953 H 1189.36 -0.586046 -0.336937 0
M  V30 11954 H 1191.91 -2.01274 -0.409645 0
M  V30 11955 H 1190.14 -2.54988 -2.9072 0
M  V30 11956 H 1191.83 -2.95109 -2.78686 0
M  V30 11957 H 1192.6 -4.73333 -1.05739 0
M  V30 11958 H 1188.48 -4.1001 -2.10744 0
M  V30 11959 H 1192.02 -6.97331 -0.193795 0
M  V30 11960 H 1187.92 -6.33293 -1.24939 0
M  V30 11961 H 1188.69 -8.17946 -0.301008 0
M  V30 11962 N 1191.35 0.610423 -1.45298 0
M  V30 11963 C 1192.76 1.19234 -1.43667 0
M  V30 11964 C 1193.11 1.95523 -0.162794 0
M  V30 11965 O 1192.24 2.03507 0.735789 0
M  V30 11966 C 1192.83 2.16892 -2.60276 0
M  V30 11967 C 1191.39 2.70465 -2.61774 0
M  V30 11968 C 1190.54 1.45821 -2.35863 0
M  V30 11969 H 1193.49 0.399895 -1.53579 0
M  V30 11970 H 1193.51 2.99875 -2.34212 0
M  V30 11971 H 1193.02 1.61339 -3.52975 0
M  V30 11972 H 1191.12 3.29965 -1.73072 0
M  V30 11973 H 1191.23 3.15092 -3.60907 0
M  V30 11974 H 1189.6 1.74678 -1.85364 0
M  V30 11975 H 1190.38 0.921403 -3.30704 0
M  V30 11976 N 1192.83 1.32541 0.852676 0
M  V30 11977 C 1194.05 1.2636 1.64462 0
M  V30 11978 C 1194.48 -0.16508 1.87374 0
M  V30 11979 O 1193.83 -1.11712 1.42794 0
M  V30 11980 C 1193.88 2.03052 2.97997 0
M  V30 11981 O 1192.99 1.37967 3.88637 0
M  V30 11982 H 1192.33 0.435393 0.501327 0
M  V30 11983 H 1194.86 1.74888 1.06186 0
M  V30 11984 H 1194.87 2.133 3.47803 0
M  V30 11985 H 1193.54 3.06941 2.80642 0
M  V30 11986 H 1192.12 1.36279 3.47106 0
M  V30 11987 N 1194.3 -1.0692 1.15784 0
M  V30 11988 C 1195.55 -1.8002 0.946795 0
M  V30 11989 C 1195.91 -1.85232 -0.520268 0
M  V30 11990 O 1195.2 -1.32825 -1.38087 0
M  V30 11991 C 1195.39 -3.24389 1.50022 0
M  V30 11992 C 1195.22 -3.33245 3.01957 0
M  V30 11993 C 1193.99 -3.43549 3.70543 0
M  V30 11994 C 1196.19 -3.23634 3.99707 0
M  V30 11995 N 1194.17 -3.41354 5.10246 0
M  V30 11996 C 1195.54 -3.28608 5.25754 0
M  V30 11997 C 1197.6 -3.07475 3.91617 0
M  V30 11998 C 1196.3 -3.19084 6.44653 0
M  V30 11999 C 1198.33 -2.99286 5.1008 0
M  V30 12000 C 1197.69 -3.04876 6.35004 0
M  V30 12001 H 1193.79 -0.671859 0.400162 0
M  V30 12002 H 1196.37 -1.27592 1.47066 0
M  V30 12003 H 1194.54 -3.75228 1.00293 0
M  V30 12004 H 1196.27 -3.85633 1.22756 0
M  V30 12005 H 1193.03 -3.48079 3.21151 0
M  V30 12006 H 1193.45 -3.43772 5.83223 0
M  V30 12007 H 1198.1 -3.02004 2.95895 0
M  V30 12008 H 1195.81 -3.23313 7.40604 0
M  V30 12009 H 1199.4 -2.8788 5.05585 0
M  V30 12010 H 1198.28 -2.9859 7.2513 0
M  V30 12011 N 1195.78 -0.955326 -1.25345 0
M  V30 12012 C 1197.03 -0.609278 -1.92697 0
M  V30 12013 C 1197.35 0.856535 -1.75181 0
M  V30 12014 O 1196.62 1.61013 -1.11587 0
M  V30 12015 H 1195.2 -0.22235 -0.713141 0
M  V30 12016 H 1197.86 -1.21372 -1.52496 0
M  V30 12017 H 1196.96 -0.839198 -3.00606 0
M  V30 12018 N 1197.26 1.39987 -0.723979 0
M  V30 12019 C 1198.22 2.29041 -0.0854583 0
M  V30 12020 C 1199.22 1.45777 0.678657 0
M  V30 12021 O 1200.41 1.66588 0.509311 0
M  V30 12022 C 1197.55 3.29115 0.88859 0
M  V30 12023 H 1198.74 2.87006 -0.869903 0
M  V30 12024 H 1196.29 1.48449 -0.489136 0
M  V30 12025 H 1197.03 2.76184 1.69979 0
M  V30 12026 H 1196.81 3.90593 0.343454 0
M  V30 12027 H 1198.3 3.95778 1.33227 0
M  V30 12028 N 1198.74 0.470782 1.50404 0
M  V30 12029 C 1199.7 -0.312227 2.27063 0
M  V30 12030 C 1200.7 -0.920709 1.31832 0
M  V30 12031 O 1201.89 -0.789937 1.5526 0
M  V30 12032 C 1199.02 -1.44477 3.0877 0
M  V30 12033 H 1200.22 0.36006 2.97731 0
M  V30 12034 H 1197.77 0.224837 1.54674 0
M  V30 12035 H 1198.51 -2.15212 2.42599 0
M  V30 12036 H 1198.29 -1.01426 3.78755 0
M  V30 12037 H 1199.78 -1.99713 3.66749 0
M  V30 12038 N 1200.22 -1.56282 0.203376 0
M  V30 12039 C 1201.15 -2.16714 -0.74616 0
M  V30 12040 C 1202.16 -1.13121 -1.17079 0
M  V30 12041 O 1203.35 -1.40179 -1.10509 0
M  V30 12042 C 1200.45 -2.72115 -2.02007 0
M  V30 12043 C 1199.62 -4.00695 -1.75391 0
M  V30 12044 C 1198.68 -4.40839 -2.8731 0
M  V30 12045 O 1197.71 -5.081 -2.56561 0
M  V30 12046 N 1198.91 -4.05024 -4.15856 0
M  V30 12047 H 1201.68 -2.98821 -0.229326 0
M  V30 12048 H 1199.24 -1.61885 0.0217049 0
M  V30 12049 H 1201.23 -2.95951 -2.76035 0
M  V30 12050 H 1199.8 -1.94415 -2.44789 0
M  V30 12051 H 1199.02 -3.84905 -0.851 0
M  V30 12052 H 1200.31 -4.8461 -1.55017 0
M  V30 12053 H 1199.71 -3.50938 -4.43688 0
M  V30 12054 H 1198.26 -4.33792 -4.86485 0
M  V30 12055 N 1201.7 0.070167 -1.57444 0
M  V30 12056 C 1202.92 0.785703 -1.91941 0
M  V30 12057 C 1203.35 1.70243 -0.799932 0
M  V30 12058 O 1202.7 1.79608 0.247139 0
M  V30 12059 C 1202.75 1.55398 -3.25398 0
M  V30 12060 O 1201.86 2.66475 -3.14746 0
M  V30 12061 H 1201.2 0.214245 -0.628486 0
M  V30 12062 H 1203.73 0.0379243 -2.04565 0
M  V30 12063 H 1203.74 1.93287 -3.5931 0
M  V30 12064 H 1202.41 0.881366 -4.06454 0
M  V30 12065 H 1200.99 2.3143 -2.92394 0
M  V30 12066 N 1203.17 1.53854 0.341593 0
M  V30 12067 C 1204.12 1.81979 1.41959 0
M  V30 12068 C 1205.09 0.665616 1.5218 0
M  V30 12069 O 1206.28 0.910246 1.67688 0
M  V30 12070 C 1203.42 2.03681 2.78583 0
M  V30 12071 C 1202.53 3.31389 2.77137 0
M  V30 12072 C 1201.66 3.43148 4.05491 0
M  V30 12073 C 1200.7 4.64799 3.98282 0
M  V30 12074 N 1199.84 4.73581 5.18329 0
M  V30 12075 H 1204.68 2.73953 1.17275 0
M  V30 12076 H 1202.22 1.35689 0.568062 0
M  V30 12077 H 1204.17 2.14253 3.57983 0
M  V30 12078 H 1202.8 1.15017 3.01614 0
M  V30 12079 H 1201.86 3.29649 1.89832 0
M  V30 12080 H 1203.17 4.20885 2.67689 0
M  V30 12081 H 1202.32 3.53163 4.93316 0
M  V30 12082 H 1201.06 2.51712 4.17723 0
M  V30 12083 H 1200.07 4.54859 3.08842 0
M  V30 12084 H 1201.29 5.57601 3.87631 0
M  V30 12085 H 1199.24 3.85055 5.31102 0
M  V30 12086 H 1199.15 5.57016 5.11145 0
M  V30 12087 H 1200.42 4.87908 6.0792 0
M  V30 12088 N 1204.65 -0.602709 1.4562 0
M  V30 12089 C 1205.56 -1.74132 1.5721 0
M  V30 12090 C 1206.58 -1.67909 0.456347 0
M  V30 12091 O 1207.75 -1.88178 0.717714 0
M  V30 12092 C 1204.82 -3.10604 1.54032 0
M  V30 12093 C 1203.88 -3.28244 2.76685 0
M  V30 12094 C 1203.11 -4.58205 2.73649 0
M  V30 12095 O 1203.34 -5.40836 1.81254 0
M  V30 12096 O 1202.27 -4.78663 3.64919 0
M  V30 12097 H 1206.1 -1.67304 2.53462 0
M  V30 12098 H 1203.68 -0.767381 1.28186 0
M  V30 12099 H 1205.56 -3.91904 1.54885 0
M  V30 12100 H 1204.24 -3.17913 0.60934 0
M  V30 12101 H 1203.14 -2.46514 2.81393 0
M  V30 12102 H 1204.48 -3.25814 3.68925 0
M  V30 12103 N 1206.13 -1.32992 -0.845635 0
M  V30 12104 C 1207.38 -1.23415 -1.59536 0
M  V30 12105 C 1207.69 0.200278 -1.94572 0
M  V30 12106 O 1208.9 0.417993 -2.68263 0
M  V30 12107 C 1207.35 -2.16207 -2.8772 0
M  V30 12108 C 1206.96 -3.64782 -2.60073 0
M  V30 12109 C 1208.71 -2.15488 -3.65739 0
M  V30 12110 C 1206.61 -4.49508 -3.84313 0
M  V30 12111 H 1205.54 -0.458366 -0.598679 0
M  V30 12112 H 1208.19 -1.58012 -0.932981 0
M  V30 12113 H 1206.58 -1.74535 -3.55462 0
M  V30 12114 H 1207.75 -4.14852 -2.00585 0
M  V30 12115 H 1206.06 -3.67723 -1.95369 0
M  V30 12116 H 1208.66 -2.76021 -4.57948 0
M  V30 12117 H 1209 -1.14818 -4.00153 0
M  V30 12118 H 1209.54 -2.55487 -3.04912 0
M  V30 12119 H 1206.28 -5.51027 -3.55035 0
M  V30 12120 H 1205.8 -4.04185 -4.43165 0
M  V30 12121 H 1207.48 -4.62969 -4.51961 0
M  V30 12122 N 1207.61 1.06304 -1.1635 0
M  V30 12123 C 1208.86 1.78487 -0.939423 0
M  V30 12124 C 1209.17 1.8817 0.533998 0
M  V30 12125 O 1210.38 2.56981 0.875962 0
M  V30 12126 C 1208.83 3.20796 -1.63149 0
M  V30 12127 C 1208.44 3.19281 -3.14267 0
M  V30 12128 C 1210.18 3.97514 -1.48938 0
M  V30 12129 C 1208.09 4.56309 -3.76213 0
M  V30 12130 H 1207.02 0.668973 -0.347837 0
M  V30 12131 H 1209.67 1.19237 -1.3948 0
M  V30 12132 H 1208.05 3.80305 -1.10382 0
M  V30 12133 H 1209.23 2.69356 -3.73877 0
M  V30 12134 H 1207.54 2.56062 -3.28362 0
M  V30 12135 H 1210.14 4.98808 -1.926 0
M  V30 12136 H 1210.48 4.13986 -0.438319 0
M  V30 12137 H 1211.02 3.44528 -1.98861 0
M  V30 12138 H 1207.75 4.45042 -4.81267 0
M  V30 12139 H 1207.27 5.06429 -3.21388 0
M  V30 12140 H 1208.95 5.25266 -3.77762 0
M  V30 12141 N 1209.09 0.96196 1.24836 0
M  V30 12142 C 1210.33 0.620715 1.92752 0
M  V30 12143 C 1210.66 -0.843308 1.75267 0
M  V30 12144 O 1209.92 -1.62141 1.09584 0
M  V30 12145 C 1210.21 0.934481 3.44967 0
M  V30 12146 C 1209.88 2.38572 3.82615 0
M  V30 12147 C 1208.54 2.78238 3.92603 0
M  V30 12148 C 1210.89 3.32784 4.01129 0
M  V30 12149 C 1208.22 4.11169 4.18518 0
M  V30 12150 C 1210.57 4.65336 4.28539 0
M  V30 12151 C 1209.24 5.04788 4.36745 0
M  V30 12152 H 1208.51 0.227136 0.70533 0
M  V30 12153 H 1211.16 1.21237 1.48236 0
M  V30 12154 H 1209.46 0.260516 3.90933 0
M  V30 12155 H 1211.16 0.648923 3.95715 0
M  V30 12156 H 1207.75 2.06812 3.75402 0
M  V30 12157 H 1211.93 3.03325 3.9282 0
M  V30 12158 H 1207.19 4.41368 4.23089 0
M  V30 12159 H 1211.36 5.3831 4.41809 0
M  V30 12160 H 1208.99 6.07816 4.56579 0
M  V30 12161 N 1210.56 -1.39601 0.731392 0
M  V30 12162 C 1211.49 -2.33268 0.1041 0
M  V30 12163 C 1212.47 -1.53724 -0.728219 0
M  V30 12164 O 1213.66 -1.82131 -0.673933 0
M  V30 12165 C 1210.79 -3.37802 -0.806646 0
M  V30 12166 C 1209.74 -4.27928 -0.0787588 0
M  V30 12167 C 1209.07 -5.23131 -1.10628 0
M  V30 12168 C 1210.37 -5.11086 1.07651 0
M  V30 12169 H 1212.06 -2.85975 0.886496 0
M  V30 12170 H 1209.61 -1.375 0.427746 0
M  V30 12171 H 1211.56 -4.02278 -1.25499 0
M  V30 12172 H 1210.29 -2.83527 -1.62112 0
M  V30 12173 H 1208.95 -3.64926 0.349926 0
M  V30 12174 H 1208.59 -4.65152 -1.91422 0
M  V30 12175 H 1208.29 -5.84277 -0.624043 0
M  V30 12176 H 1209.82 -5.90483 -1.5544 0
M  V30 12177 H 1211.23 -5.68927 0.706781 0
M  V30 12178 H 1209.63 -5.81356 1.48814 0
M  V30 12179 H 1210.7 -4.46131 1.89988 0
M  V30 12180 N 1212.04 -0.478751 -1.50152 0
M  V30 12181 C 1213.45 -0.0254907 -1.86683 0
M  V30 12182 C 1213.8 1.38171 -1.39295 0
M  V30 12183 O 1212.93 2.0257 -0.761207 0
M  V30 12184 C 1213.52 -0.0394819 -3.38777 0
M  V30 12185 C 1212.08 0.35834 -3.7469 0
M  V30 12186 C 1211.23 -0.421667 -2.74075 0
M  V30 12187 H 1214.18 -0.692653 -1.42787 0
M  V30 12188 H 1214.2 0.760957 -3.72813 0
M  V30 12189 H 1213.71 -1.06378 -3.73236 0
M  V30 12190 H 1211.82 1.38671 -3.45834 0
M  V30 12191 H 1211.93 0.0543589 -4.79069 0
M  V30 12192 H 1210.29 0.125634 -2.5439 0
M  V30 12193 H 1211.08 -1.44562 -3.11379 0
M  V30 12194 N 1213.52 1.56172 -0.211661 0
M  V30 12195 C 1214.75 2.02874 0.430905 0
M  V30 12196 C 1215.17 1.09064 1.53254 0
M  V30 12197 O 1214.53 0.0770408 1.81136 0
M  V30 12198 C 1214.58 3.4789 0.948933 0
M  V30 12199 O 1213.68 3.57213 2.0609 0
M  V30 12200 H 1213.02 0.656614 0.0987607 0
M  V30 12201 H 1215.55 2.01964 -0.327399 0
M  V30 12202 H 1215.56 3.88015 1.2613 0
M  V30 12203 H 1214.24 4.15656 0.142584 0
M  V30 12204 H 1212.81 3.28971 1.75592 0
M  V30 12205 N 1215 -0.0618163 1.57479 0
M  V30 12206 C 1215.95 -1.0724 2.04373 0
M  V30 12207 C 1216.92 -1.37875 0.926271 0
M  V30 12208 O 1218.1 -1.48772 1.19463 0
M  V30 12209 C 1215.24 -2.37805 2.50085 0
M  V30 12210 C 1214.35 -2.13614 3.7549 0
M  V30 12211 C 1213.49 -3.37814 4.09945 0
M  V30 12212 C 1212.53 -3.09032 5.28361 0
M  V30 12213 N 1211.66 -4.25591 5.58406 0
M  V30 12214 H 1216.5 -0.665536 2.90473 0
M  V30 12215 H 1214.04 -0.317043 1.43643 0
M  V30 12216 H 1216 -3.14048 2.74644 0
M  V30 12217 H 1214.63 -2.76275 1.66948 0
M  V30 12218 H 1213.68 -1.28017 3.58212 0
M  V30 12219 H 1214.99 -1.88361 4.61867 0
M  V30 12220 H 1214.15 -4.22447 4.35458 0
M  V30 12221 H 1212.89 -3.66153 3.22154 0
M  V30 12222 H 1211.89 -2.22797 5.02635 0
M  V30 12223 H 1213.12 -2.82006 6.17778 0
M  V30 12224 H 1211.06 -4.53941 4.73575 0
M  V30 12225 H 1210.98 -4.03646 6.39223 0
M  V30 12226 H 1212.25 -5.11191 5.88476 0
M  V30 12227 N 1216.48 -1.54033 -0.333429 0
M  V30 12228 C 1217.39 -1.85737 -1.43314 0
M  V30 12229 C 1218.4 -0.748398 -1.57083 0
M  V30 12230 O 1219.58 -1.04171 -1.72367 0
M  V30 12231 C 1216.64 -2.06942 -2.78165 0
M  V30 12232 C 1215.7 -3.30774 -2.73655 0
M  V30 12233 C 1214.94 -3.50957 -4.02075 0
M  V30 12234 O 1215.16 -2.74774 -4.99855 0
M  V30 12235 O 1214.09 -4.44412 -4.05933 0
M  V30 12236 H 1217.92 -2.7923 -1.19434 0
M  V30 12237 H 1215.51 -1.39814 -0.526546 0
M  V30 12238 H 1217.39 -2.22276 -3.58011 0
M  V30 12239 H 1216.06 -1.16638 -3.01956 0
M  V30 12240 H 1214.97 -3.20835 -1.92395 0
M  V30 12241 H 1216.3 -4.21103 -2.54819 0
M  V30 12242 N 1217.95 0.594978 -1.45938 0
M  V30 12243 C 1219.37 1.17703 -1.44924 0
M  V30 12244 C 1219.72 1.9534 -0.183522 0
M  V30 12245 O 1218.84 2.04276 0.714163 0
M  V30 12246 C 1219.44 2.14119 -2.62561 0
M  V30 12247 C 1218 2.67674 -2.64627 0
M  V30 12248 C 1217.14 1.43312 -2.37397 0
M  V30 12249 H 1220.09 0.383583 -1.53995 0
M  V30 12250 H 1220.11 2.97374 -2.3738 0
M  V30 12251 H 1219.63 1.57586 -3.54667 0
M  V30 12252 H 1217.73 3.28111 -1.76562 0
M  V30 12253 H 1217.84 3.11246 -3.64229 0
M  V30 12254 H 1216.2 1.72702 -1.87206 0
M  V30 12255 H 1216.99 0.886276 -3.31663 0
M  V30 12256 N 1219.43 1.33438 0.838571 0
M  V30 12257 C 1220.4 1.23632 1.92997 0
M  V30 12258 C 1221.4 0.155302 1.60048 0
M  V30 12259 O 1222.59 0.406852 1.69382 0
M  V30 12260 C 1219.72 0.90512 3.28665 0
M  V30 12261 H 1220.91 2.20643 2.03117 0
M  V30 12262 H 1218.46 1.17501 1.03069 0
M  V30 12263 H 1219.2 -0.0624833 3.2424 0
M  V30 12264 H 1218.98 1.68688 3.53959 0
M  V30 12265 H 1220.47 0.861262 4.08622 0
M  V30 12266 N 1220.91 -1.05686 1.16912 0
M  V30 12267 C 1222.16 -1.78597 0.954425 0
M  V30 12268 C 1222.49 -1.87494 -0.517315 0
M  V30 12269 O 1221.74 -1.36736 -1.40006 0
M  V30 12270 C 1222.04 -3.22779 1.53455 0
M  V30 12271 C 1221.71 -3.3395 3.02965 0
M  V30 12272 C 1220.37 -3.36706 3.43777 0
M  V30 12273 C 1222.72 -3.35371 3.98969 0
M  V30 12274 C 1220.05 -3.38506 4.79198 0
M  V30 12275 C 1222.4 -3.38708 5.34284 0
M  V30 12276 C 1221.06 -3.39749 5.74567 0
M  V30 12277 H 1220.33 -0.653534 0.349249 0
M  V30 12278 H 1222.98 -1.24245 1.45723 0
M  V30 12279 H 1221.29 -3.80025 0.953331 0
M  V30 12280 H 1222.98 -3.77805 1.34404 0
M  V30 12281 H 1219.57 -3.32515 2.70429 0
M  V30 12282 H 1223.76 -3.32447 3.685 0
M  V30 12283 H 1219.01 -3.37619 5.09729 0
M  V30 12284 H 1223.19 -3.38755 6.08455 0
M  V30 12285 H 1220.81 -3.40897 6.7948 0
M  V30 12286 N 1222.39 -0.968567 -1.24324 0
M  V30 12287 C 1223.63 -0.631863 -1.92705 0
M  V30 12288 C 1223.97 0.83096 -1.75524 0
M  V30 12289 O 1223.24 1.59795 -1.10887 0
M  V30 12290 C 1223.53 -1.00845 -3.45691 0
M  V30 12291 C 1223.38 -2.52803 -3.72036 0
M  V30 12292 C 1224.7 -0.543647 -4.36729 0
M  V30 12293 H 1221.82 -0.231027 -0.699854 0
M  V30 12294 H 1224.46 -1.20773 -1.46676 0
M  V30 12295 H 1222.61 -0.518434 -3.85025 0
M  V30 12296 H 1224.28 -3.09289 -3.42255 0
M  V30 12297 H 1222.52 -2.95963 -3.17157 0
M  V30 12298 H 1223.19 -2.74203 -4.79079 0
M  V30 12299 H 1225.67 -0.964182 -4.04775 0
M  V30 12300 H 1224.55 -0.8357 -5.42501 0
M  V30 12301 H 1224.81 0.556256 -4.38587 0
M  V30 12302 N 1223.87 1.39211 -0.738786 0
M  V30 12303 C 1225.09 2.04732 -0.298751 0
M  V30 12304 C 1225.51 1.55706 1.06776 0
M  V30 12305 O 1224.87 0.723605 1.67542 0
M  V30 12306 C 1224.92 3.60288 -0.29574 0
M  V30 12307 O 1224.64 4.07511 -1.60831 0
M  V30 12308 C 1226.14 4.43011 0.159994 0
M  V30 12309 H 1223.36 0.658296 -0.129952 0
M  V30 12310 H 1225.9 1.78186 -1.0035 0
M  V30 12311 H 1224.06 3.85722 0.360146 0
M  V30 12312 H 1224.47 5.01858 -1.52443 0
M  V30 12313 H 1225.95 5.51889 0.110941 0
M  V30 12314 H 1226.42 4.22325 1.20573 0
M  V30 12315 H 1227.03 4.22734 -0.466467 0
M  V30 12316 N 1225.34 0.486708 1.49896 0
M  V30 12317 C 1226.59 -0.0629451 2.02702 0
M  V30 12318 C 1226.92 -1.37956 1.36681 0
M  V30 12319 O 1226.2 -1.88025 0.497678 0
M  V30 12320 C 1226.48 -0.230461 3.59362 0
M  V30 12321 C 1226.33 1.10828 4.35933 0
M  V30 12322 C 1227.65 -0.977785 4.29101 0
M  V30 12323 H 1224.77 -0.0214017 0.736689 0
M  V30 12324 H 1227.41 0.635339 1.79063 0
M  V30 12325 H 1225.56 -0.825222 3.79634 0
M  V30 12326 H 1227.24 1.74082 4.27192 0
M  V30 12327 H 1225.48 1.7011 3.99055 0
M  V30 12328 H 1226.15 0.944532 5.43859 0
M  V30 12329 H 1228.63 -0.473505 4.13397 0
M  V30 12330 H 1227.5 -1.06382 5.38492 0
M  V30 12331 H 1227.76 -2.01813 3.9335 0
M  V30 12332 N 1226.82 -1.56058 0.219941 0
M  V30 12333 C 1228.23 -1.84462 -0.288203 0
M  V30 12334 C 1228.59 -1.14128 -1.59591 0
M  V30 12335 O 1227.71 -0.410411 -2.12473 0
M  V30 12336 C 1228.31 -3.34634 -0.529689 0
M  V30 12337 C 1226.86 -3.63361 -0.982145 0
M  V30 12338 C 1226.01 -2.77265 -0.0443292 0
M  V30 12339 H 1228.96 -1.52387 0.44317 0
M  V30 12340 H 1228.98 -3.54752 -1.3759 0
M  V30 12341 H 1228.5 -3.85796 0.422243 0
M  V30 12342 H 1226.6 -3.17653 -1.94749 0
M  V30 12343 H 1226.71 -4.71361 -0.857668 0
M  V30 12344 H 1225.07 -2.48672 -0.550825 0
M  V30 12345 H 1225.86 -3.31225 0.902491 0
M  V30 12346 N 1228.3 0.053464 -1.57509 0
M  V30 12347 C 1229.55 0.747622 -1.87763 0
M  V30 12348 C 1229.87 1.77178 -0.814433 0
M  V30 12349 O 1229.14 1.95287 0.154862 0
M  V30 12350 H 1227.72 0.279109 -0.692898 0
M  V30 12351 H 1230.38 0.0252006 -1.94884 0
M  V30 12352 H 1229.48 1.25244 -2.85868 0
M  V30 12353 N 1229.78 1.54207 0.325255 0
M  V30 12354 C 1230.73 1.84197 1.42036 0
M  V30 12355 C 1231.72 0.71375 1.53629 0
M  V30 12356 O 1232.93 0.897385 1.56035 0
M  V30 12357 H 1229.3 0.583848 0.473947 0
M  V30 12358 H 1231.27 2.7578 1.13965 0
M  V30 12359 C 1230.02 2.08459 2.78281 0
M  V30 12360 H 1229.35 2.94734 2.70133 0
M  V30 12361 H 1230.79 2.33398 3.5398 0
M  V30 12362 C 1229.24 0.875615 3.25322 0
M  V30 12363 O 1229.77 0.0840387 4.01612 0
M  V30 12364 N 1227.98 0.687721 2.82345 0
M  V30 12365 H 1227.53 1.33307 2.20425 0
M  V30 12366 H 1227.49 -0.119687 3.14172 0
M  V30 12367 N 1231.26 -0.58723 1.46251 0
M  V30 12368 C 1232.51 -1.34294 1.51028 0
M  V30 12369 C 1232.83 -1.94329 0.161623 0
M  V30 12370 O 1232.1 -1.78309 -0.811342 0
M  V30 12371 H 1230.68 -0.498607 0.556238 0
M  V30 12372 H 1233.34 -0.688074 1.8235 0
M  V30 12373 H 1232.43 -2.15197 2.26045 0
M  V30 12374 N 1232.74 -1.33881 -0.831482 0
M  V30 12375 C 1233.98 -1.25755 -1.58719 0
M  V30 12376 C 1234.31 0.174746 -1.93713 0
M  V30 12377 O 1233.57 1.13384 -1.59507 0
M  V30 12378 C 1233.86 -2.08544 -2.90249 0
M  V30 12379 C 1233.53 -3.57651 -2.74585 0
M  V30 12380 C 1232.19 -3.983 -2.7002 0
M  V30 12381 C 1234.54 -4.52369 -2.58866 0
M  V30 12382 C 1231.87 -5.31872 -2.47647 0
M  V30 12383 C 1234.22 -5.86112 -2.38025 0
M  V30 12384 C 1232.89 -6.25934 -2.31867 0
M  V30 12385 H 1232.16 -0.460171 -0.580796 0
M  V30 12386 H 1234.81 -1.6554 -0.96274 0
M  V30 12387 H 1233.11 -1.6156 -3.56939 0
M  V30 12388 H 1234.81 -1.99609 -3.47789 0
M  V30 12389 H 1231.4 -3.2538 -2.78973 0
M  V30 12390 H 1235.58 -4.21868 -2.61421 0
M  V30 12391 H 1230.84 -5.61756 -2.41331 0
M  V30 12392 H 1235.01 -6.59103 -2.24847 0
M  V30 12393 H 1232.64 -7.29372 -2.14291 0
M  V30 12394 N 1234.21 1.05064 -1.1747 0
M  V30 12395 C 1235.18 2.1101 -0.89485 0
M  V30 12396 C 1236.18 1.60384 0.11553 0
M  V30 12397 O 1237.37 1.73808 -0.116785 0
M  V30 12398 C 1234.5 3.39194 -0.340642 0
M  V30 12399 H 1235.69 2.37269 -1.83421 0
M  V30 12400 H 1233.24 1.21329 -0.985343 0
M  V30 12401 H 1233.98 3.18591 0.605808 0
M  V30 12402 H 1233.76 3.77251 -1.06885 0
M  V30 12403 H 1235.25 4.17281 -0.163204 0
M  V30 12404 N 1235.69 0.975146 1.23809 0
M  V30 12405 C 1236.97 0.557725 1.8748 0
M  V30 12406 C 1237.35 -0.965164 1.87744 0
M  V30 12407 O 1236.7 -1.83966 1.35531 0
M  V30 12408 C 1236.91 1.15777 3.29236 0
M  V30 12409 C 1238.25 1.24726 4.05868 0
M  V30 12410 O 1239.28 1.11084 3.38436 0
M  V30 12411 O 1238.14 1.46373 5.26533 0
M  V30 12412 H 1235.23 0.187045 0.80557 0
M  V30 12413 H 1237.78 1.06989 1.31725 0
M  V30 12414 H 1236.55 2.20023 3.23583 0
M  V30 12415 H 1236.17 0.630103 3.92575 0
M  V30 12416 N 1237.17 -1.38817 0.746158 0
M  V30 12417 C 1238.58 -1.83045 0.367629 0
M  V30 12418 C 1238.93 -1.62285 -1.10263 0
M  V30 12419 O 1238.06 -1.12001 -1.85162 0
M  V30 12420 C 1238.65 -3.323 0.660482 0
M  V30 12421 C 1237.21 -3.74903 0.335318 0
M  V30 12422 C 1236.36 -2.61683 0.917446 0
M  V30 12423 H 1239.31 -1.27651 0.94291 0
M  V30 12424 H 1239.33 -3.80446 -0.0639061 0
M  V30 12425 H 1238.84 -3.47377 1.73062 0
M  V30 12426 H 1236.94 -3.65408 -0.728538 0
M  V30 12427 H 1237.06 -4.71932 0.825677 0
M  V30 12428 H 1235.42 -2.52376 0.343316 0
M  V30 12429 H 1236.2 -2.79563 1.99247 0
M  V30 12430 N 1238.65 -0.49465 -1.49636 0
M  V30 12431 C 1239.89 0.0521172 -2.02433 0
M  V30 12432 C 1240.22 1.37579 -1.37485 0
M  V30 12433 O 1239.48 1.8927 -0.497538 0
M  V30 12434 C 1239.78 0.259743 -3.56455 0
M  V30 12435 C 1239.44 -0.985143 -4.40007 0
M  V30 12436 C 1238.1 -1.3264 -4.62558 0
M  V30 12437 C 1240.46 -1.81291 -4.88654 0
M  V30 12438 C 1237.78 -2.49506 -5.31003 0
M  V30 12439 C 1240.14 -2.97305 -5.58384 0
M  V30 12440 C 1238.8 -3.31818 -5.79183 0
M  V30 12441 H 1238.07 0.0190711 -0.740755 0
M  V30 12442 H 1240.72 -0.653519 -1.80004 0
M  V30 12443 H 1239.02 1.04785 -3.77528 0
M  V30 12444 H 1240.72 0.697146 -3.94893 0
M  V30 12445 H 1237.31 -0.709313 -4.2269 0
M  V30 12446 H 1241.49 -1.56242 -4.71065 0
M  V30 12447 H 1236.75 -2.76491 -5.4531 0
M  V30 12448 H 1240.92 -3.61777 -5.95055 0
M  V30 12449 H 1238.55 -4.22478 -6.31994 0
M  V30 12450 N 1240.13 1.55939 -0.228214 0
M  V30 12451 C 1241.35 2.0332 0.409364 0
M  V30 12452 C 1241.78 1.10683 1.52088 0
M  V30 12453 O 1241.13 0.0962484 1.81044 0
M  V30 12454 C 1241.18 3.48877 0.911981 0
M  V30 12455 O 1240.29 3.59378 2.02289 0
M  V30 12456 H 1239.63 0.657625 0.0917909 0
M  V30 12457 H 1242.16 2.01605 -0.348802 0
M  V30 12458 H 1242.17 3.89331 1.22007 0
M  V30 12459 H 1240.84 4.15783 0.0984902 0
M  V30 12460 H 1239.42 3.30815 1.72093 0
M  V30 12461 N 1241.6 -0.0451101 1.57535 0
M  V30 12462 C 1242.85 -0.738072 1.87711 0
M  V30 12463 C 1243.17 -1.7737 0.824579 0
M  V30 12464 O 1244.37 -2.51812 1.01503 0
M  V30 12465 C 1242.83 -1.36373 3.33062 0
M  V30 12466 C 1242.44 -0.365283 4.46508 0
M  V30 12467 C 1244.18 -2.0375 3.72406 0
M  V30 12468 C 1242.09 -0.998371 5.82912 0
M  V30 12469 H 1241.02 -0.279413 0.700317 0
M  V30 12470 H 1243.67 0.00802425 1.83498 0
M  V30 12471 H 1242.05 -2.15899 3.31969 0
M  V30 12472 H 1243.22 0.402102 4.59042 0
M  V30 12473 H 1241.54 0.205505 4.15893 0
M  V30 12474 H 1244.14 -2.51939 4.71625 0
M  V30 12475 H 1244.48 -2.84869 3.03571 0
M  V30 12476 H 1245.01 -1.3102 3.75604 0
M  V30 12477 H 1241.75 -0.226935 6.55107 0
M  V30 12478 H 1241.27 -1.73598 5.74129 0
M  V30 12479 H 1242.95 -1.51044 6.29122 0
M  V30 12480 N 1243.08 -1.54377 -0.317073 0
M  V30 12481 C 1244.31 -1.76865 -1.07362 0
M  V30 12482 C 1244.73 -0.520354 -1.81488 0
M  V30 12483 O 1244.08 0.509213 -1.75252 0
M  V30 12484 C 1244.13 -2.96598 -2.06668 0
M  V30 12485 O 1243.85 -4.16602 -1.35552 0
M  V30 12486 C 1245.36 -3.31348 -2.94489 0
M  V30 12487 H 1242.58 -0.590277 -0.319083 0
M  V30 12488 H 1245.12 -2.01284 -0.361227 0
M  V30 12489 H 1243.27 -2.74433 -2.73432 0
M  V30 12490 H 1243.69 -4.83996 -2.02108 0
M  V30 12491 H 1245.16 -4.1841 -3.60051 0
M  V30 12492 H 1245.64 -2.48797 -3.61935 0
M  V30 12493 H 1246.25 -3.55614 -2.33278 0
M  V30 12494 N 1244.56 0.579466 -1.4656 0
M  V30 12495 C 1245.97 1.1616 -1.46164 0
M  V30 12496 C 1246.32 1.95134 -0.20423 0
M  V30 12497 O 1245.45 2.05022 0.692457 0
M  V30 12498 C 1246.04 2.11322 -2.64818 0
M  V30 12499 C 1244.6 2.64852 -2.67452 0
M  V30 12500 C 1243.75 1.40786 -2.38903 0
M  V30 12501 H 1246.7 0.367229 -1.54393 0
M  V30 12502 H 1246.72 2.94839 -2.4052 0
M  V30 12503 H 1246.23 1.53815 -3.56318 0
M  V30 12504 H 1244.33 3.26219 -1.80032 0
M  V30 12505 H 1244.45 3.07366 -3.67509 0
M  V30 12506 H 1242.81 1.70707 -1.89027 0
M  V30 12507 H 1243.59 0.851049 -3.32584 0
M  V30 12508 N 1246.04 1.3432 0.824371 0
M  V30 12509 C 1247.29 1.26345 1.57738 0
M  V30 12510 C 1247.61 -0.166836 1.94285 0
M  V30 12511 O 1246.88 -1.09911 1.62162 0
M  V30 12512 H 1245.46 0.46466 0.584893 0
M  V30 12513 H 1248.12 1.68214 0.984373 0
M  V30 12514 H 1247.22 1.8672 2.50084 0
M  V30 12515 N 1247.52 -1.0444 1.18026 0
M  V30 12516 C 1248.77 -1.7697 0.9677 0
M  V30 12517 C 1249.08 -1.88995 -0.503994 0
M  V30 12518 O 1250.28 -2.58342 -0.834968 0
M  V30 12519 C 1248.74 -3.1816 1.68232 0
M  V30 12520 C 1248.35 -3.14241 3.19307 0
M  V30 12521 C 1250.09 -3.95095 1.55244 0
M  V30 12522 C 1248 -4.50266 3.83425 0
M  V30 12523 H 1246.93 -0.663355 0.358436 0
M  V30 12524 H 1249.58 -1.17003 1.4136 0
M  V30 12525 H 1247.96 -3.78501 1.16418 0
M  V30 12526 H 1249.14 -2.63373 3.78115 0
M  V30 12527 H 1247.45 -2.50805 3.32394 0
M  V30 12528 H 1250.05 -4.95681 2.00511 0
M  V30 12529 H 1250.39 -4.13236 0.504125 0
M  V30 12530 H 1250.92 -3.4132 2.04317 0
M  V30 12531 H 1247.66 -4.37329 4.88286 0
M  V30 12532 H 1247.18 -5.01251 3.29404 0
M  V30 12533 H 1248.86 -5.1919 3.86071 0
M  V30 12534 N 1248.99 -0.981699 -1.2329 0
M  V30 12535 C 1250.24 -0.661895 -1.92329 0
M  V30 12536 C 1250.6 0.79602 -1.75161 0
M  V30 12537 O 1249.89 1.56687 -1.10271 0
M  V30 12538 C 1250.08 -0.989244 -3.43437 0
M  V30 12539 C 1249.91 -2.47743 -3.75305 0
M  V30 12540 C 1248.68 -3.13963 -3.95924 0
M  V30 12541 C 1250.88 -3.45817 -3.80677 0
M  V30 12542 N 1248.86 -4.52374 -4.15008 0
M  V30 12543 C 1250.23 -4.6964 -4.04769 0
M  V30 12544 C 1252.29 -3.4028 -3.63475 0
M  V30 12545 C 1250.99 -5.88605 -4.13445 0
M  V30 12546 C 1253.02 -4.5861 -3.73405 0
M  V30 12547 C 1252.38 -5.81229 -3.97935 0
M  V30 12548 H 1248.48 -0.293289 -0.724918 0
M  V30 12549 H 1251.06 -1.25942 -1.48481 0
M  V30 12550 H 1249.23 -0.420398 -3.86118 0
M  V30 12551 H 1250.96 -0.626579 -3.9982 0
M  V30 12552 H 1247.72 -2.64456 -3.92887 0
M  V30 12553 H 1248.14 -5.24134 -4.28501 0
M  V30 12554 H 1252.79 -2.46504 -3.43505 0
M  V30 12555 H 1250.5 -6.82795 -4.32223 0
M  V30 12556 H 1254.09 -4.55903 -3.61447 0
M  V30 12557 H 1252.97 -6.71263 -4.05433 0
M  V30 12558 N 1250.47 1.3842 -0.753509 0
M  V30 12559 C 1251.72 2.00415 -0.310091 0
M  V30 12560 C 1252.05 1.59675 1.10532 0
M  V30 12561 O 1251.33 0.834261 1.757 0
M  V30 12562 C 1251.61 3.57488 -0.432897 0
M  V30 12563 C 1251.46 4.08193 -1.88941 0
M  V30 12564 C 1252.78 4.39757 0.173763 0
M  V30 12565 H 1249.9 0.728107 -0.114147 0
M  V30 12566 H 1252.54 1.64363 -0.953138 0
M  V30 12567 H 1250.69 3.88331 0.114563 0
M  V30 12568 H 1252.36 3.87993 -2.49517 0
M  V30 12569 H 1250.61 3.61063 -2.4045 0
M  V30 12570 H 1251.28 5.17291 -1.9265 0
M  V30 12571 H 1253.75 4.15066 -0.293137 0
M  V30 12572 H 1252.63 5.4887 0.057594 0
M  V30 12573 H 1252.89 4.23704 1.26205 0
M  V30 12574 N 1251.95 0.502579 1.49372 0
M  V30 12575 C 1252.91 -0.263993 2.27675 0
M  V30 12576 C 1253.91 -0.892538 1.33755 0
M  V30 12577 O 1255.1 -0.756826 1.56901 0
M  V30 12578 C 1252.24 -1.37895 3.11765 0
M  V30 12579 H 1253.43 0.423132 2.969 0
M  V30 12580 H 1250.98 0.257595 1.54163 0
M  V30 12581 H 1251.72 -2.10018 2.47109 0
M  V30 12582 H 1251.5 -0.933694 3.80821 0
M  V30 12583 H 1252.99 -1.91889 3.70902 0
M  V30 12584 N 1253.43 -1.55816 0.23648 0
M  V30 12585 C 1254.67 -2.0059 -0.39281 0
M  V30 12586 C 1255.03 -1.12092 -1.55883 0
M  V30 12587 O 1256.23 -1.46277 -2.25514 0
M  V30 12588 C 1254.5 -3.48281 -0.80219 0
M  V30 12589 S 1256.06 -4.15069 -1.42348 0
M  V30 12590 H 1252.88 -0.700093 -0.124057 0
M  V30 12591 H 1255.48 -1.92355 0.349272 0
M  V30 12592 H 1254.19 -4.10362 0.0558941 0
M  V30 12593 H 1253.72 -3.60421 -1.57671 0
M  V30 12594 H 1255.73 -4.15493 -2.71257 0
M  V30 12595 N 1254.91 0.036755 -1.57557 0
M  V30 12596 C 1256.16 0.728107 -1.881 0
M  V30 12597 C 1256.47 1.7693 -0.833974 0
M  V30 12598 O 1257.67 2.5127 -1.02837 0
M  V30 12599 C 1256.13 1.34604 -3.33781 0
M  V30 12600 C 1255.74 0.341599 -4.46696 0
M  V30 12601 C 1257.48 2.01772 -3.73481 0
M  V30 12602 C 1255.39 0.967444 -5.83433 0
M  V30 12603 H 1254.32 0.275695 -0.701789 0
M  V30 12604 H 1256.97 -0.0177555 -1.83491 0
M  V30 12605 H 1255.35 2.14135 -3.3311 0
M  V30 12606 H 1256.53 -0.426441 -4.58823 0
M  V30 12607 H 1254.84 -0.227558 -4.15778 0
M  V30 12608 H 1257.44 2.49435 -4.72955 0
M  V30 12609 H 1257.78 2.83255 -3.05077 0
M  V30 12610 H 1258.31 1.29026 -3.76294 0
M  V30 12611 H 1255.05 0.19219 -6.55218 0
M  V30 12612 H 1254.57 1.70551 -5.75041 0
M  V30 12613 H 1256.25 1.47705 -6.29914 0
M  V30 12614 N 1256.39 1.54543 0.308881 0
M  V30 12615 C 1257.33 1.84949 1.38067 0
M  V30 12616 C 1258.3 0.697746 1.50734 0
M  V30 12617 O 1259.49 0.94561 1.65719 0
M  V30 12618 C 1256.63 2.09544 2.74199 0
M  V30 12619 C 1255.74 3.37193 2.70046 0
M  V30 12620 C 1254.88 3.51672 3.98121 0
M  V30 12621 C 1253.91 4.73143 3.88333 0
M  V30 12622 N 1253.05 4.84469 5.08167 0
M  V30 12623 H 1257.89 2.76379 1.11438 0
M  V30 12624 H 1255.43 1.36863 0.539153 0
M  V30 12625 H 1257.39 2.21798 3.53358 0
M  V30 12626 H 1256.02 1.21389 2.99106 0
M  V30 12627 H 1255.07 3.33601 1.82796 0
M  V30 12628 H 1256.38 4.26468 2.58701 0
M  V30 12629 H 1255.53 3.63548 4.85714 0
M  V30 12630 H 1254.27 2.60516 4.1229 0
M  V30 12631 H 1253.28 4.61308 2.99124 0
M  V30 12632 H 1254.5 5.65698 3.75716 0
M  V30 12633 H 1252.45 3.96234 5.22814 0
M  V30 12634 H 1252.37 5.67733 4.99215 0
M  V30 12635 H 1253.63 5.00693 5.97434 0
M  V30 12636 N 1257.86 -0.571685 1.46866 0
M  V30 12637 C 1258.83 -1.66198 1.57832 0
M  V30 12638 C 1259.83 -1.54242 0.454547 0
M  V30 12639 O 1261.02 -1.58661 0.719191 0
M  V30 12640 C 1258.15 -3.05678 1.5091 0
M  V30 12641 H 1259.34 -1.57829 2.5501 0
M  V30 12642 H 1256.89 -0.790433 1.3484 0
M  V30 12643 H 1257.63 -3.19593 0.550529 0
M  V30 12644 H 1257.41 -3.15765 2.32454 0
M  V30 12645 H 1258.9 -3.85027 1.61692 0
M  V30 12646 N 1259.34 -1.34755 -0.817236 0
M  V30 12647 C 1260.25 -1.28888 -1.96023 0
M  V30 12648 C 1261.27 -0.195582 -1.72897 0
M  V30 12649 O 1262.44 -0.423071 -1.96906 0
M  V30 12650 C 1259.51 -1.04985 -3.30423 0
M  V30 12651 C 1258.57 -2.23526 -3.66517 0
M  V30 12652 C 1257.8 -2.00753 -4.94504 0
M  V30 12653 O 1258.03 -0.968622 -5.62116 0
M  V30 12654 O 1256.96 -2.87848 -5.28608 0
M  V30 12655 H 1260.79 -2.25059 -2.03917 0
M  V30 12656 H 1258.37 -1.15019 -0.953467 0
M  V30 12657 H 1260.25 -0.934589 -4.10906 0
M  V30 12658 H 1258.93 -0.118582 -3.23483 0
M  V30 12659 H 1257.83 -2.40613 -2.86455 0
M  V30 12660 H 1259.17 -3.15062 -3.78149 0
M  V30 12661 N 1260.82 1.03812 -1.18578 0
M  V30 12662 C 1262.07 1.76706 -0.980776 0
M  V30 12663 C 1262.39 1.88729 0.490562 0
M  V30 12664 O 1261.66 1.41413 1.35569 0
M  V30 12665 H 1260.24 0.654586 -0.359898 0
M  V30 12666 H 1262.9 1.25274 -1.49306 0
M  V30 12667 H 1262 2.77876 -1.42096 0
M  V30 12668 N 1262.3 0.988223 1.22768 0
M  V30 12669 C 1263.54 0.662441 1.91676 0
M  V30 12670 C 1263.88 -0.802931 1.76824 0
M  V30 12671 O 1263.15 -1.58011 1.13415 0
M  V30 12672 C 1263.43 1.06332 3.44043 0
M  V30 12673 C 1263.29 2.5869 3.67967 0
M  V30 12674 C 1264.61 0.613058 4.35809 0
M  V30 12675 H 1261.73 0.242132 0.69609 0
M  V30 12676 H 1264.37 1.23091 1.44736 0
M  V30 12677 H 1262.52 0.579623 3.84152 0
M  V30 12678 H 1264.19 3.14694 3.37291 0
M  V30 12679 H 1262.43 3.00971 3.12408 0
M  V30 12680 H 1263.1 2.8179 4.74656 0
M  V30 12681 H 1265.58 1.02846 4.0319 0
M  V30 12682 H 1264.46 0.921901 5.41103 0
M  V30 12683 H 1264.72 -0.48641 4.39416 0
M  V30 12684 N 1263.78 -1.38018 0.760839 0
M  V30 12685 C 1264.71 -2.32995 0.153557 0
M  V30 12686 C 1265.69 -1.55234 -0.695448 0
M  V30 12687 O 1266.87 -1.8352 -0.635148 0
M  V30 12688 C 1264 -3.39437 -0.734811 0
M  V30 12689 C 1262.96 -4.27998 0.0120287 0
M  V30 12690 C 1262.28 -5.25359 -0.995067 0
M  V30 12691 C 1263.58 -5.08687 1.18468 0
M  V30 12692 H 1265.28 -2.8403 0.946956 0
M  V30 12693 H 1262.82 -1.36562 0.456816 0
M  V30 12694 H 1264.77 -4.0485 -1.16938 0
M  V30 12695 H 1263.5 -2.86901 -1.56061 0
M  V30 12696 H 1262.16 -3.64102 0.427254 0
M  V30 12697 H 1261.81 -4.69108 -1.81512 0
M  V30 12698 H 1261.51 -5.85469 -0.499969 0
M  V30 12699 H 1263.03 -5.93648 -1.4288 0
M  V30 12700 H 1264.44 -5.67299 0.8273 0
M  V30 12701 H 1262.84 -5.78068 1.61112 0
M  V30 12702 H 1263.91 -4.42 1.99409 0
M  V30 12703 N 1265.25 -0.510493 -1.49103 0
M  V30 12704 C 1266.18 0.251999 -2.32136 0
M  V30 12705 C 1267.16 0.953613 -1.40855 0
M  V30 12706 O 1268.35 0.943178 -1.69758 0
M  V30 12707 C 1265.48 1.31118 -3.21598 0
M  V30 12708 C 1264.43 0.72888 -4.21748 0
M  V30 12709 C 1263.76 1.88928 -5.0021 0
M  V30 12710 C 1265.06 -0.286425 -5.21514 0
M  V30 12711 H 1266.75 -0.441102 -2.96133 0
M  V30 12712 H 1264.3 -0.213577 -1.42407 0
M  V30 12713 H 1266.25 1.8524 -3.78503 0
M  V30 12714 H 1264.98 2.0336 -2.55563 0
M  V30 12715 H 1263.64 0.209336 -3.66002 0
M  V30 12716 H 1263.28 2.59961 -4.30615 0
M  V30 12717 H 1262.98 1.50568 -5.67981 0
M  V30 12718 H 1264.51 2.43465 -5.59962 0
M  V30 12719 H 1265.92 0.166997 -5.73057 0
M  V30 12720 H 1264.32 -0.586361 -5.97228 0
M  V30 12721 H 1265.39 -1.19904 -4.69842 0
M  V30 12722 N 1266.73 1.55688 -0.24474 0
M  V30 12723 C 1268.01 1.90796 0.430821 0
M  V30 12724 C 1268.39 1.1652 1.76029 0
M  V30 12725 O 1267.74 0.281978 2.26753 0
M  V30 12726 C 1267.95 3.43786 0.601027 0
M  V30 12727 C 1269.29 4.14998 0.897894 0
M  V30 12728 O 1270.32 3.49513 0.68697 0
M  V30 12729 O 1269.18 5.30826 1.29945 0
M  V30 12730 H 1266.27 0.794086 0.230991 0
M  V30 12731 H 1268.82 1.67227 -0.288646 0
M  V30 12732 H 1267.59 3.89856 -0.335804 0
M  V30 12733 H 1267.21 3.73211 1.37112 0
M  V30 12734 N 1268.21 -0.0283989 1.57574 0
M  V30 12735 C 1269.44 -0.729772 1.93282 0
M  V30 12736 C 1269.85 -1.69384 0.842959 0
M  V30 12737 O 1269.19 -1.82722 -0.189286 0
M  V30 12738 C 1269.25 -1.54107 3.24794 0
M  V30 12739 C 1268.92 -0.741709 4.50941 0
M  V30 12740 C 1269.91 -0.0416985 5.19883 0
M  V30 12741 C 1267.6 -0.696053 4.97454 0
M  V30 12742 C 1269.59 0.693261 6.33619 0
M  V30 12743 C 1267.28 0.042651 6.11085 0
M  V30 12744 C 1268.28 0.736067 6.79022 0
M  V30 12745 O 1267.97 1.46278 7.9048 0
M  V30 12746 H 1267.7 -0.210092 0.642524 0
M  V30 12747 H 1270.25 0.0102277 2.05397 0
M  V30 12748 H 1268.48 -2.3249 3.09007 0
M  V30 12749 H 1270.17 -2.12512 3.45823 0
M  V30 12750 H 1270.94 -0.0679975 4.84952 0
M  V30 12751 H 1266.82 -1.22528 4.44419 0
M  V30 12752 H 1270.36 1.23504 6.8658 0
M  V30 12753 H 1266.26 0.0708708 6.45461 0
M  V30 12754 H 1267.02 1.37652 8.06842 0
M  V30 12755 N 1269.69 -1.54705 -0.300681 0
M  V30 12756 C 1270.62 -1.88679 -1.37559 0
M  V30 12757 C 1271.6 -0.74574 -1.52881 0
M  V30 12758 O 1272.78 -1.0015 -1.66384 0
M  V30 12759 C 1269.91 -2.13438 -2.73974 0
M  V30 12760 C 1268.87 -3.29284 -2.73415 0
M  V30 12761 C 1268.19 -3.39462 -4.13122 0
M  V30 12762 C 1269.49 -4.66382 -2.35128 0
M  V30 12763 H 1271.19 -2.78707 -1.09373 0
M  V30 12764 H 1268.73 -1.341 -0.524704 0
M  V30 12765 H 1270.69 -2.35791 -3.49257 0
M  V30 12766 H 1269.41 -1.20181 -3.03684 0
M  V30 12767 H 1268.07 -3.06855 -2.00588 0
M  V30 12768 H 1267.72 -2.43721 -4.4001 0
M  V30 12769 H 1267.42 -4.17334 -4.1365 0
M  V30 12770 H 1268.94 -3.64075 -4.90185 0
M  V30 12771 H 1270.36 -4.88463 -3.00128 0
M  V30 12772 H 1268.75 -5.4697 -2.46867 0
M  V30 12773 H 1269.82 -4.67078 -1.30256 0
M  V30 12774 N 1271.17 0.563888 -1.47167 0
M  V30 12775 C 1272.41 1.32331 -1.53676 0
M  V30 12776 C 1272.75 1.93213 -0.195593 0
M  V30 12777 O 1272.02 1.77508 0.795068 0
M  V30 12778 C 1272.3 2.43848 -2.64972 0
M  V30 12779 C 1272.16 1.8788 -4.08682 0
M  V30 12780 C 1273.48 3.45809 -2.72221 0
M  V30 12781 H 1270.59 0.479791 -0.559437 0
M  V30 12782 H 1273.24 0.631669 -1.79192 0
M  V30 12783 H 1271.39 3.02846 -2.43345 0
M  V30 12784 H 1273.06 1.33195 -4.41652 0
M  V30 12785 H 1271.3 1.18593 -4.17275 0
M  V30 12786 H 1271.97 2.68465 -4.82318 0
M  V30 12787 H 1274.45 2.9672 -2.91713 0
M  V30 12788 H 1273.32 4.21272 -3.51882 0
M  V30 12789 H 1273.59 4.04236 -1.79014 0
M  V30 12790 N 1272.64 1.35187 0.810078 0
M  V30 12791 C 1273.57 1.30481 1.93641 0
M  V30 12792 C 1274.56 0.179875 1.69146 0
M  V30 12793 O 1275.74 0.374284 1.90559 0
M  V30 12794 C 1272.87 1.07251 3.30325 0
M  V30 12795 C 1271.82 2.16348 3.69293 0
M  V30 12796 C 1271.15 1.78288 5.04101 0
M  V30 12797 C 1272.45 3.58285 3.80038 0
M  V30 12798 H 1274.14 2.24725 1.97836 0
M  V30 12799 H 1271.69 1.08179 0.950436 0
M  V30 12800 H 1273.64 1.02599 4.08719 0
M  V30 12801 H 1272.37 0.0945203 3.26463 0
M  V30 12802 H 1271.03 2.2009 2.93182 0
M  V30 12803 H 1270.67 0.791163 4.96739 0
M  V30 12804 H 1270.37 2.51315 5.31144 0
M  V30 12805 H 1271.9 1.75155 5.84938 0
M  V30 12806 H 1273.31 3.56884 4.48672 0
M  V30 12807 H 1271.71 4.30044 4.18548 0
M  V30 12808 H 1272.78 3.94691 2.81685 0
M  V30 12809 N 1274.12 -1.03182 1.19127 0
M  V30 12810 C 1275.05 -2.13301 0.94999 0
M  V30 12811 C 1276.03 -1.69707 -0.115577 0
M  V30 12812 O 1277.22 -1.94161 0.0388395 0
M  V30 12813 C 1274.35 -3.43902 0.484637 0
M  V30 12814 C 1273.3 -4.01164 1.4917 0
M  V30 12815 C 1272.63 -5.2735 0.883537 0
M  V30 12816 C 1273.93 -4.36311 2.87107 0
M  V30 12817 H 1275.62 -2.33743 1.87095 0
M  V30 12818 H 1273.17 -1.12332 0.900977 0
M  V30 12819 H 1275.12 -4.20308 0.30315 0
M  V30 12820 H 1273.85 -3.23173 -0.471909 0
M  V30 12821 H 1272.5 -3.26849 1.66028 0
M  V30 12822 H 1272.15 -5.02936 -0.0804712 0
M  V30 12823 H 1271.85 -5.66624 1.55599 0
M  V30 12824 H 1273.38 -6.06425 0.71278 0
M  V30 12825 H 1274.79 -5.03666 2.73848 0
M  V30 12826 H 1273.19 -4.86659 3.51117 0
M  V30 12827 H 1274.26 -3.45743 3.39985 0
M  V30 12828 N 1275.6 -0.99472 -1.22242 0
M  V30 12829 C 1277.01 -0.706456 -1.72818 0
M  V30 12830 C 1277.36 0.776566 -1.80177 0
M  V30 12831 O 1276.49 1.60698 -1.44931 0
M  V30 12832 C 1277.08 -1.27571 -3.13865 0
M  V30 12833 C 1275.64 -1.03679 -3.61839 0
M  V30 12834 C 1274.79 -1.3948 -2.39668 0
M  V30 12835 H 1277.74 -1.16687 -1.07564 0
M  V30 12836 H 1277.76 -0.655202 -3.74816 0
M  V30 12837 H 1277.27 -2.35508 -3.08476 0
M  V30 12838 H 1275.37 0.0258679 -3.72591 0
M  V30 12839 H 1275.49 -1.70145 -4.4787 0
M  V30 12840 H 1273.85 -0.813418 -2.41362 0
M  V30 12841 H 1274.63 -2.48425 -2.36939 0
M  V30 12842 N 1277.08 1.37613 -0.768148 0
M  V30 12843 C 1278.49 1.53202 -0.44737 0
M  V30 12844 C 1278.69 1.72736 1.03752 0
M  V30 12845 O 1277.75 1.74667 1.8234 0
M  V30 12846 C 1279.06 2.7306 -1.25931 0
M  V30 12847 C 1280.61 2.8692 -1.25084 0
M  V30 12848 C 1281.09 4.09757 -2.04605 0
M  V30 12849 N 1282.58 4.16862 -2.0194 0
M  V30 12850 C 1283.31 5.10936 -2.60254 0
M  V30 12851 N 1282.81 6.1059 -3.27341 0
M  V30 12852 N 1284.6 5.03393 -2.50104 0
M  V30 12853 H 1276.75 1.23184 -1.7303 0
M  V30 12854 H 1279.02 0.599541 -0.73434 0
M  V30 12855 H 1278.72 2.65078 -2.31141 0
M  V30 12856 H 1278.6 3.66646 -0.886036 0
M  V30 12857 H 1280.98 2.94375 -0.206736 0
M  V30 12858 H 1281.06 1.94303 -1.66373 0
M  V30 12859 H 1280.71 4.03063 -3.09035 0
M  V30 12860 H 1280.64 5.01481 -1.60701 0
M  V30 12861 H 1283.13 3.455 -1.53096 0
M  V30 12862 H 1283.44 6.78893 -3.6922 0
M  V30 12863 H 1281.79 6.10879 -3.31439 0
M  V30 12864 H 1284.98 4.24483 -1.9731 0
M  V30 12865 H 1285.15 5.76524 -2.95844 0
M  V30 12866 N 1278.56 0.518393 1.4883 0
M  V30 12867 C 1279.83 -0.0837498 1.95421 0
M  V30 12868 C 1280.21 -1.52435 1.46037 0
M  V30 12869 O 1279.56 -2.18093 0.681736 0
M  V30 12870 C 1279.77 0.0215333 3.48993 0
M  V30 12871 C 1281.12 -0.143615 4.24357 0
M  V30 12872 O 1282.14 -0.0528223 3.56161 0
M  V30 12873 O 1281 -0.332231 5.45489 0
M  V30 12874 H 1278.1 -0.0857132 0.822546 0
M  V30 12875 H 1280.64 0.582169 1.59402 0
M  V30 12876 H 1279.41 1.02549 3.77623 0
M  V30 12877 H 1279.04 -0.683756 3.91677 0
M  V30 12878 N 1280.03 -1.55556 0.252993 0
M  V30 12879 C 1281.26 -2.03196 -0.37348 0
M  V30 12880 C 1281.67 -1.13145 -1.51641 0
M  V30 12881 O 1281.02 -0.139519 -1.83169 0
M  V30 12882 C 1281.08 -3.47066 -0.937308 0
M  V30 12883 C 1280.74 -4.5694 0.0741513 0
M  V30 12884 C 1281.74 -5.12297 0.885862 0
M  V30 12885 C 1279.42 -5.01894 0.202003 0
M  V30 12886 C 1281.42 -6.11107 1.81182 0
M  V30 12887 C 1279.1 -6.00534 1.13146 0
M  V30 12888 C 1280.1 -6.5502 1.93489 0
M  V30 12889 O 1279.79 -7.51735 2.84868 0
M  V30 12890 H 1279.52 -0.669687 -0.092171 0
M  V30 12891 H 1282.08 -2.01924 0.376264 0
M  V30 12892 H 1280.31 -3.45507 -1.73672 0
M  V30 12893 H 1282 -3.78171 -1.47451 0
M  V30 12894 H 1282.76 -4.78395 0.797707 0
M  V30 12895 H 1278.64 -4.59144 -0.413301 0
M  V30 12896 H 1282.18 -6.53561 2.43935 0
M  V30 12897 H 1278.08 -6.33856 1.22052 0
M  V30 12898 H 1278.85 -7.69373 2.79298 0
M  V30 12899 N 1281.51 0.0200419 -1.57587 0
M  V30 12900 C 1282.74 0.719511 -1.93666 0
M  V30 12901 C 1283.15 1.68934 -0.85193 0
M  V30 12902 O 1282.49 1.8282 0.179593 0
M  V30 12903 C 1282.56 1.52382 -3.25607 0
M  V30 12904 C 1282.22 0.717784 -4.51328 0
M  V30 12905 C 1283.22 0.0141272 -5.19898 0
M  V30 12906 C 1280.9 0.669662 -4.97816 0
M  V30 12907 C 1282.9 -0.726853 -6.33242 0
M  V30 12908 C 1280.58 -0.0750577 -6.11054 0
M  V30 12909 C 1281.58 -0.772067 -6.78622 0
M  V30 12910 O 1281.27 -1.50468 -7.89693 0
M  V30 12911 H 1281 0.206681 -0.643629 0
M  V30 12912 H 1283.55 -0.0211203 -2.05389 0
M  V30 12913 H 1281.78 2.30848 -3.10236 0
M  V30 12914 H 1283.47 2.10675 -3.46945 0
M  V30 12915 H 1284.24 0.0422784 -4.84982 0
M  V30 12916 H 1280.12 1.20169 -4.45062 0
M  V30 12917 H 1283.66 -1.27143 -6.85916 0
M  V30 12918 H 1279.56 -0.1051 -6.45414 0
M  V30 12919 H 1280.33 -1.41929 -8.06101 0
M  V30 12920 N 1282.99 1.54862 0.292472 0
M  V30 12921 C 1283.9 1.89472 1.38339 0
M  V30 12922 C 1284.92 0.789783 1.55043 0
M  V30 12923 O 1286.09 1.08705 1.69544 0
M  V30 12924 C 1283.16 2.14244 2.72581 0
M  V30 12925 C 1282.22 3.37913 2.64789 0
M  V30 12926 C 1281.45 3.61494 3.92629 0
M  V30 12927 O 1281.67 2.87931 4.92394 0
M  V30 12928 O 1280.61 4.55019 3.94007 0
M  V30 12929 H 1284.43 2.82298 1.11989 0
M  V30 12930 H 1282.02 1.41161 0.489291 0
M  V30 12931 H 1283.9 2.31689 3.51991 0
M  V30 12932 H 1282.58 1.24603 2.98757 0
M  V30 12933 H 1281.48 3.25823 1.83821 0
M  V30 12934 H 1282.82 4.27711 2.43565 0
M  V30 12935 N 1284.47 -0.556076 1.47464 0
M  V30 12936 C 1285.43 -1.64515 1.59586 0
M  V30 12937 C 1286.43 -1.53751 0.470881 0
M  V30 12938 O 1287.62 -1.57889 0.735979 0
M  V30 12939 C 1284.75 -3.0406 1.54143 0
M  V30 12940 H 1285.95 -1.55116 2.56669 0
M  V30 12941 H 1283.5 -0.776087 1.35671 0
M  V30 12942 H 1284.23 -3.18991 0.584395 0
M  V30 12943 H 1284.02 -3.13282 2.3579 0
M  V30 12944 H 1285.51 -3.8329 1.65766 0
M  V30 12945 N 1285.95 -1.35615 -0.802897 0
M  V30 12946 C 1287.17 -1.32377 -1.59659 0
M  V30 12947 C 1287.6 0.0954235 -1.87858 0
M  V30 12948 O 1286.96 1.06336 -1.46842 0
M  V30 12949 C 1287 -2.13972 -2.90256 0
M  V30 12950 O 1286.11 -1.52296 -3.83249 0
M  V30 12951 H 1285.45 -0.453699 -0.484823 0
M  V30 12952 H 1287.98 -1.78708 -0.996217 0
M  V30 12953 H 1287.99 -2.26061 -3.39647 0
M  V30 12954 H 1286.66 -3.17145 -2.69057 0
M  V30 12955 H 1285.24 -1.49068 -3.41809 0
M  V30 12956 N 1287.43 1.02549 -1.19673 0
M  V30 12957 C 1288.67 1.76265 -1.00293 0
M  V30 12958 C 1289 1.88555 0.464816 0
M  V30 12959 O 1288.28 1.40484 1.34515 0
M  V30 12960 C 1288.56 3.18688 -1.6766 0
M  V30 12961 C 1288.42 3.14247 -3.21821 0
M  V30 12962 C 1289.73 4.17159 -1.40238 0
M  V30 12963 H 1286.85 0.639837 -0.365756 0
M  V30 12964 H 1289.5 1.19691 -1.4756 0
M  V30 12965 H 1287.65 3.66992 -1.27472 0
M  V30 12966 H 1289.32 2.73815 -3.71245 0
M  V30 12967 H 1287.56 2.51874 -3.53188 0
M  V30 12968 H 1288.23 4.14886 -3.64107 0
M  V30 12969 H 1290.71 3.77471 -1.75086 0
M  V30 12970 H 1289.58 5.14997 -1.89919 0
M  V30 12971 H 1289.84 4.4088 -0.328197 0
M  V30 12972 N 1288.9 1.00119 1.21713 0
M  V30 12973 C 1289.83 0.578504 2.2622 0
M  V30 12974 C 1290.81 -0.398777 1.6536 0
M  V30 12975 O 1292 -0.287596 1.92059 0
M  V30 12976 C 1289.13 -0.0994508 3.47158 0
M  V30 12977 C 1288.08 0.79722 4.2051 0
M  V30 12978 C 1287.41 -0.0141125 5.34698 0
M  V30 12979 C 1288.71 2.09802 4.7831 0
M  V30 12980 H 1290.4 1.45208 2.6183 0
M  V30 12981 H 1287.95 0.699656 1.2586 0
M  V30 12982 H 1289.9 -0.406605 4.19434 0
M  V30 12983 H 1288.63 -1.00763 3.10667 0
M  V30 12984 H 1287.29 1.08814 3.50079 0
M  V30 12985 H 1286.93 -0.923468 4.9445 0
M  V30 12986 H 1286.63 0.582883 5.84702 0
M  V30 12987 H 1288.16 -0.31517 6.09786 0
M  V30 12988 H 1289.57 1.85427 5.42485 0
M  V30 12989 H 1287.97 2.64455 5.38687 0
M  V30 12990 H 1289.04 2.77132 3.97902 0
M  V30 12991 N 1290.38 -1.37203 0.775435 0
M  V30 12992 C 1291.31 -2.28873 0.122374 0
M  V30 12993 C 1292.33 -1.48811 -0.660239 0
M  V30 12994 O 1293.52 -1.7142 -0.497724 0
M  V30 12995 C 1290.62 -3.28062 -0.850212 0
M  V30 12996 C 1289.79 -4.37234 -0.120633 0
M  V30 12997 C 1288.85 -5.16472 -1.00712 0
M  V30 12998 O 1287.87 -5.6726 -0.469528 0
M  V30 12999 N 1289.08 -5.31556 -2.33299 0
M  V30 13000 H 1291.84 -2.85559 0.909741 0
M  V30 13001 H 1289.4 -1.49219 0.628107 0
M  V30 13002 H 1291.39 -3.77956 -1.44678 0
M  V30 13003 H 1289.96 -2.72118 -1.53853 0
M  V30 13004 H 1289.18 -3.88688 0.656879 0
M  V30 13005 H 1290.47 -5.07354 0.383358 0
M  V30 13006 H 1289.87 -4.91883 -2.79406 0
M  V30 13007 H 1288.43 -5.84745 -2.87953 0
M  V30 13008 N 1291.86 -0.526279 -1.48553 0
M  V30 13009 C 1292.79 0.227364 -2.3239 0
M  V30 13010 C 1293.77 0.93862 -1.41859 0
M  V30 13011 O 1294.96 0.925119 -1.70749 0
M  V30 13012 C 1292.09 1.277 -3.22971 0
M  V30 13013 C 1291.04 0.684107 -4.22497 0
M  V30 13014 C 1290.37 1.83612 -5.02186 0
M  V30 13015 C 1291.67 -0.341723 -5.21181 0
M  V30 13016 H 1293.36 -0.472486 -2.95648 0
M  V30 13017 H 1290.91 -0.228669 -1.42173 0
M  V30 13018 H 1292.86 1.81215 -3.80446 0
M  V30 13019 H 1291.58 2.00638 -2.57705 0
M  V30 13020 H 1290.24 0.170505 -3.66203 0
M  V30 13021 H 1289.89 2.55379 -4.33348 0
M  V30 13022 H 1289.59 1.44536 -5.69547 0
M  V30 13023 H 1291.11 2.37513 -5.62512 0
M  V30 13024 H 1292.53 0.106207 -5.73202 0
M  V30 13025 H 1290.92 -0.649673 -5.96573 0
M  V30 13026 H 1291.99 -1.2488 -4.68543 0
M  V30 13027 N 1293.34 1.5542 -0.261239 0
M  V30 13028 C 1294.75 1.85161 0.239195 0
M  V30 13029 C 1295.1 1.18319 1.56509 0
M  V30 13030 O 1294.22 0.4666 2.1131 0
M  V30 13031 C 1294.82 3.3592 0.440781 0
M  V30 13032 C 1293.38 3.65837 0.885461 0
M  V30 13033 C 1292.53 2.77285 -0.0291982 0
M  V30 13034 H 1295.48 1.51158 -0.483417 0
M  V30 13035 H 1295.5 3.58276 1.28136 0
M  V30 13036 H 1295.01 3.84541 -0.524382 0
M  V30 13037 H 1293.11 3.22705 1.86259 0
M  V30 13038 H 1293.22 4.73469 0.732394 0
M  V30 13039 H 1291.59 2.50045 0.484701 0
M  V30 13040 H 1292.37 3.28716 -0.989992 0
M  V30 13041 N 1294.82 -0.0116844 1.57596 0
M  V30 13042 C 1296.06 -0.699994 1.90336 0
M  V30 13043 C 1296.39 -1.74067 0.861072 0
M  V30 13044 O 1295.67 -1.94119 -0.121712 0
M  V30 13045 C 1295.95 -1.35377 3.33684 0
M  V30 13046 C 1295.81 -0.325434 4.48621 0
M  V30 13047 C 1297.12 -2.28312 3.76247 0
M  V30 13048 H 1294.24 -0.253002 0.692213 0
M  V30 13049 H 1296.89 0.037211 1.89964 0
M  V30 13050 H 1295.04 -1.98212 3.34132 0
M  V30 13051 H 1296.71 0.302331 4.60308 0
M  V30 13052 H 1294.95 0.353527 4.32357 0
M  V30 13053 H 1295.62 -0.8217 5.4585 0
M  V30 13054 H 1298.1 -1.75505 3.77276 0
M  V30 13055 H 1296.97 -2.71028 4.77321 0
M  V30 13056 H 1297.23 -3.15727 3.09465 0
M  V30 13057 N 1296.29 -1.55015 -0.284256 0
M  V30 13058 C 1297.52 -1.79102 -1.03586 0
M  V30 13059 C 1297.94 -0.558733 -1.80343 0
M  V30 13060 O 1297.29 0.471925 -1.76293 0
M  V30 13061 C 1297.34 -3.00915 -2.0033 0
M  V30 13062 O 1297.07 -4.19384 -1.26685 0
M  V30 13063 C 1298.57 -3.3752 -2.87394 0
M  V30 13064 H 1295.79 -0.596912 -0.306491 0
M  V30 13065 H 1298.33 -2.02005 -0.31845 0
M  V30 13066 H 1296.49 -2.80171 -2.67549 0
M  V30 13067 H 1296.9 -4.88175 -1.91796 0
M  V30 13068 H 1298.37 -4.25953 -3.51095 0
M  V30 13069 H 1298.85 -2.56418 -3.56576 0
M  V30 13070 H 1299.46 -3.60483 -2.25682 0
M  V30 13071 N 1297.77 0.548248 -1.47757 0
M  V30 13072 C 1298.68 1.68178 -1.63565 0
M  V30 13073 C 1299.7 1.661 -0.518351 0
M  V30 13074 O 1300.87 1.85384 -0.787061 0
M  V30 13075 C 1297.94 3.04673 -1.65454 0
M  V30 13076 C 1297 3.17749 -2.88677 0
M  V30 13077 C 1296.23 4.47733 -2.90466 0
M  V30 13078 O 1296.46 5.33736 -2.01201 0
M  V30 13079 O 1295.39 4.64789 -3.82433 0
M  V30 13080 H 1299.22 1.57781 -2.59497 0
M  V30 13081 H 1296.8 0.719277 -1.30946 0
M  V30 13082 H 1298.68 3.85885 -1.69324 0
M  V30 13083 H 1297.36 3.15433 -0.726912 0
M  V30 13084 H 1296.26 2.359 -2.90348 0
M  V30 13085 H 1297.6 3.11897 -3.80763 0
M  V30 13086 N 1299.25 1.36039 0.795694 0
M  V30 13087 C 1300.66 1.2679 1.37044 0
M  V30 13088 C 1301.01 -0.0950192 1.9597 0
M  V30 13089 O 1300.14 -0.996311 1.921 0
M  V30 13090 C 1300.73 2.29585 2.49151 0
M  V30 13091 C 1299.29 2.24044 3.02458 0
M  V30 13092 C 1298.44 2.14703 1.75493 0
M  V30 13093 H 1301.39 1.47009 0.597843 0
M  V30 13094 H 1301.41 1.92864 3.27999 0
M  V30 13095 H 1300.92 3.28769 2.06234 0
M  V30 13096 H 1299.02 1.28307 3.49812 0
M  V30 13097 H 1299.14 3.1647 3.597 0
M  V30 13098 H 1297.5 1.60856 1.97478 0
M  V30 13099 H 1298.28 3.15765 1.34713 0
M  V30 13100 N 1300.73 -1.01913 1.20215 0
M  V30 13101 C 1301.97 -1.77015 1.02202 0
M  V30 13102 C 1302.33 -1.86927 -0.43845 0
M  V30 13103 O 1303.53 -2.58451 -0.73869 0
M  V30 13104 C 1301.8 -3.15244 1.68393 0
M  V30 13105 S 1303.36 -4.06414 1.65449 0
M  V30 13106 H 1300.18 -0.609242 0.366531 0
M  V30 13107 H 1302.78 -1.22044 1.52727 0
M  V30 13108 H 1301.49 -3.05653 2.73869 0
M  V30 13109 H 1301.02 -3.7529 1.17988 0
M  V30 13110 H 1303.03 -4.91441 0.685571 0
M  V30 13111 N 1302.21 -1.00763 -1.2118 0
M  V30 13112 C 1303.17 -0.575183 -2.21865 0
M  V30 13113 C 1304.17 0.349871 -1.56948 0
M  V30 13114 O 1305.36 0.139795 -1.73638 0
M  V30 13115 C 1302.49 0.161308 -3.40518 0
M  V30 13116 H 1303.68 -1.46578 -2.61639 0
M  V30 13117 H 1301.24 -0.79643 -1.34487 0
M  V30 13118 H 1301.97 1.06723 -3.06236 0
M  V30 13119 H 1301.76 -0.503101 -3.88859 0
M  V30 13120 H 1303.25 0.451527 -4.15152 0
M  V30 13121 N 1303.68 1.3679 -0.7827 0
M  V30 13122 C 1304.91 2.03382 -0.363207 0
M  V30 13123 C 1305.32 1.59157 1.02302 0
M  V30 13124 O 1304.67 0.773325 1.66629 0
M  V30 13125 C 1304.73 3.57889 -0.34001 0
M  V30 13126 C 1304.39 4.25289 -1.67268 0
M  V30 13127 C 1305.39 4.48647 -2.62701 0
M  V30 13128 C 1303.07 4.62899 -1.95013 0
M  V30 13129 C 1305.07 5.08686 -3.8408 0
M  V30 13130 C 1302.75 5.22657 -3.16659 0
M  V30 13131 C 1303.75 5.45489 -4.11012 0
M  V30 13132 O 1303.44 6.03995 -5.30515 0
M  V30 13133 H 1303.17 0.659452 -0.148658 0
M  V30 13134 H 1305.73 1.75885 -1.06082 0
M  V30 13135 H 1303.96 3.84477 0.414055 0
M  V30 13136 H 1305.65 4.05864 0.0539009 0
M  V30 13137 H 1306.41 4.19993 -2.42551 0
M  V30 13138 H 1302.29 4.44455 -1.22395 0
M  V30 13139 H 1305.83 5.26423 -4.57738 0
M  V30 13140 H 1301.73 5.50736 -3.3669 0
M  V30 13141 H 1302.5 6.22466 -5.31487 0
M  V30 13142 N 1305.16 0.53415 1.48272 0
M  V30 13143 C 1306.13 -0.215641 2.28183 0
M  V30 13144 C 1307.13 -0.863966 1.35618 0
M  V30 13145 O 1308.32 -0.723375 1.58471 0
M  V30 13146 C 1305.45 -1.31251 3.1462 0
M  V30 13147 H 1306.64 0.486014 2.95936 0
M  V30 13148 H 1304.19 0.290237 1.53582 0
M  V30 13149 H 1304.93 -2.04729 2.51508 0
M  V30 13150 H 1304.71 -0.852706 3.82716 0
M  V30 13151 H 1306.2 -1.83978 3.74889 0
M  V30 13152 N 1306.64 -1.55279 0.269478 0
M  V30 13153 C 1307.89 -1.99077 -0.348224 0
M  V30 13154 C 1308.21 -1.15925 -1.568 0
M  V30 13155 O 1307.48 -0.247404 -1.94331 0
M  V30 13156 H 1306.06 -0.735307 -0.131653 0
M  V30 13157 H 1308.72 -1.91288 0.373506 0
M  V30 13158 H 1307.82 -3.05427 -0.641953 0
M  V30 13159 N 1308.12 0.00332656 -1.576 0
M  V30 13160 C 1309.53 0.546581 -1.7852 0
M  V30 13161 C 1309.88 1.74147 -0.903722 0
M  V30 13162 O 1309.01 2.16144 -0.105314 0
M  V30 13163 C 1309.6 0.998344 -3.23757 0
M  V30 13164 C 1308.16 1.48693 -3.45785 0
M  V30 13165 C 1307.31 0.436617 -2.73841 0
M  V30 13166 H 1310.26 -0.222852 -1.57128 0
M  V30 13167 H 1310.28 1.86452 -3.31686 0
M  V30 13168 H 1309.79 0.128479 -3.87887 0
M  V30 13169 H 1307.89 2.3778 -2.86865 0
M  V30 13170 H 1308 1.51668 -4.5446 0
M  V30 13171 H 1306.37 0.897506 -2.38363 0
M  V30 13172 H 1307.15 -0.424225 -3.40669 0
M  V30 13173 N 1309.6 1.55164 0.276031 0
M  V30 13174 C 1311.01 1.66367 0.847293 0
M  V30 13175 C 1311.36 0.588692 1.8716 0
M  V30 13176 O 1310.48 -0.27035 2.14705 0
M  V30 13177 C 1311.08 3.01593 1.5436 0
M  V30 13178 C 1309.64 3.14833 2.06293 0
M  V30 13179 C 1308.78 2.62152 0.903959 0
M  V30 13180 H 1311.74 1.58613 0.0524478 0
M  V30 13181 H 1311.76 2.94412 2.41043 0
M  V30 13182 H 1311.27 3.7981 0.797849 0
M  V30 13183 H 1309.37 2.41384 2.83839 0
M  V30 13184 H 1309.48 4.21353 2.28032 0
M  V30 13185 H 1307.85 2.19233 1.29649 0
M  V30 13186 H 1308.63 3.4287 0.171765 0
M  V30 13187 N 1311.07 -0.540404 1.48045 0
M  V30 13188 C 1312.01 -1.66164 1.57867 0
M  V30 13189 C 1313.02 -1.56058 0.463655 0
M  V30 13190 O 1314.21 -1.62709 0.734038 0
M  V30 13191 C 1311.31 -3.04748 1.48263 0
M  V30 13192 C 1310.48 -3.40441 2.74625 0
M  V30 13193 C 1309.54 -4.58259 2.58621 0
M  V30 13194 O 1308.57 -4.62 3.32482 0
M  V30 13195 N 1309.77 -5.55794 1.67551 0
M  V30 13196 H 1312.53 -1.58179 2.54557 0
M  V30 13197 H 1310.09 -0.727441 1.44637 0
M  V30 13198 H 1312.09 -3.81425 1.35267 0
M  V30 13199 H 1310.66 -3.06868 0.595892 0
M  V30 13200 H 1309.88 -2.53044 3.02262 0
M  V30 13201 H 1311.16 -3.61069 3.58478 0
M  V30 13202 H 1310.56 -5.55541 1.06725 0
M  V30 13203 H 1309.12 -6.3173 1.60499 0
M  V30 13204 N 1312.55 -1.36459 -0.788468 0
M  V30 13205 C 1313.46 -1.33017 -1.93245 0
M  V30 13206 C 1314.48 -0.232212 -1.72444 0
M  V30 13207 O 1315.65 -0.464743 -1.95965 0
M  V30 13208 C 1312.72 -1.1197 -3.28121 0
M  V30 13209 C 1311.78 -2.3125 -3.61693 0
M  V30 13210 C 1311.01 -2.11197 -4.90134 0
M  V30 13211 O 1311.24 -1.08764 -5.59934 0
M  V30 13212 O 1310.17 -2.98996 -5.22384 0
M  V30 13213 H 1314 -2.29333 -1.99098 0
M  V30 13214 H 1311.58 -1.17016 -0.928856 0
M  V30 13215 H 1313.46 -1.02154 -4.08831 0
M  V30 13216 H 1312.14 -0.187171 -3.23158 0
M  V30 13217 H 1311.05 -2.46635 -2.81286 0
M  V30 13218 H 1312.38 -3.23012 -3.71381 0
M  V30 13219 N 1314.03 1.01274 -1.20754 0
M  V30 13220 C 1314.98 2.12012 -0.95675 0
M  V30 13221 C 1315.97 1.69143 0.0932738 0
M  V30 13222 O 1317.18 1.79908 -0.0574298 0
M  V30 13223 H 1313.55 0.692956 -0.292088 0
M  V30 13224 H 1315.52 2.30347 -1.89692 0
M  V30 13225 C 1314.27 3.43643 -0.529602 0
M  V30 13226 H 1313.6 3.77058 -1.32918 0
M  V30 13227 H 1315.04 4.22171 -0.393376 0
M  V30 13228 C 1313.5 3.2825 0.758505 0
M  V30 13229 O 1314.03 3.58309 1.81598 0
M  V30 13230 N 1312.23 2.81487 0.722022 0
M  V30 13231 H 1311.78 2.57226 -0.138807 0
M  V30 13232 H 1311.74 2.7157 1.58421 0
M  V30 13233 N 1315.51 1.01404 1.20644 0
M  V30 13234 C 1316.75 0.710412 1.91657 0
M  V30 13235 C 1317.11 -0.745972 1.76916 0
M  V30 13236 O 1318.31 -1.162 2.42386 0
M  V30 13237 C 1316.59 1.13093 3.39035 0
M  V30 13238 S 1318.14 0.948885 4.28418 0
M  V30 13239 H 1314.96 0.259074 0.662119 0
M  V30 13240 H 1317.56 1.30077 1.45946 0
M  V30 13241 H 1316.27 2.18682 3.47284 0
M  V30 13242 H 1315.8 0.533248 3.89769 0
M  V30 13243 H 1317.81 -0.149 4.95976 0
M  V30 13244 N 1316.99 -1.36373 0.789944 0
M  V30 13245 C 1317.92 -2.32616 0.202944 0
M  V30 13246 C 1318.9 -1.56674 -0.662364 0
M  V30 13247 O 1320.08 -1.84826 -0.596078 0
M  V30 13248 C 1317.21 -3.4092 -0.662646 0
M  V30 13249 C 1316.17 -4.27877 0.102811 0
M  V30 13250 C 1315.49 -5.27352 -0.883407 0
M  V30 13251 C 1316.79 -5.0606 1.29231 0
M  V30 13252 H 1318.49 -2.81958 1.00699 0
M  V30 13253 H 1316.03 -1.35562 0.48568 0
M  V30 13254 H 1317.99 -4.07239 -1.08324 0
M  V30 13255 H 1316.71 -2.90147 -1.4994 0
M  V30 13256 H 1315.37 -3.63114 0.504389 0
M  V30 13257 H 1315.02 -4.72853 -1.71521 0
M  V30 13258 H 1314.72 -5.86398 -0.375669 0
M  V30 13259 H 1316.24 -5.96545 -1.30256 0
M  V30 13260 H 1317.66 -5.65417 0.947446 0
M  V30 13261 H 1316.05 -5.74521 1.73338 0
M  V30 13262 H 1317.12 -4.37671 2.08739 0
M  V30 13263 N 1318.47 -0.542005 -1.47987 0
M  V30 13264 C 1319.4 0.202703 -2.32618 0
M  V30 13265 C 1320.38 0.923521 -1.42846 0
M  V30 13266 O 1321.56 0.906957 -1.7172 0
M  V30 13267 C 1318.69 1.24267 -3.24307 0
M  V30 13268 C 1317.65 0.639257 -4.23199 0
M  V30 13269 C 1316.97 1.78275 -5.04105 0
M  V30 13270 C 1318.27 -0.396982 -5.20789 0
M  V30 13271 H 1319.97 -0.503817 -2.95131 0
M  V30 13272 H 1317.51 -0.243736 -1.41922 0
M  V30 13273 H 1319.46 1.7717 -3.82347 0
M  V30 13274 H 1318.19 1.97893 -2.59819 0
M  V30 13275 H 1316.85 0.131655 -3.66364 0
M  V30 13276 H 1316.5 2.50768 -4.36032 0
M  V30 13277 H 1316.2 1.38487 -5.71047 0
M  V30 13278 H 1317.72 2.31533 -5.65 0
M  V30 13279 H 1319.13 0.0454057 -5.73282 0
M  V30 13280 H 1317.53 -0.712911 -5.9585 0
M  V30 13281 H 1318.6 -1.29843 -4.67193 0
M  V30 13282 N 1319.94 1.55134 -0.277709 0
M  V30 13283 C 1321.17 2.03765 0.341106 0
M  V30 13284 C 1321.58 1.15543 1.49822 0
M  V30 13285 O 1320.92 0.168642 1.82924 0
M  V30 13286 C 1320.99 3.48513 0.881974 0
M  V30 13287 C 1320.65 4.56764 -0.146837 0
M  V30 13288 C 1321.65 5.10823 -0.967252 0
M  V30 13289 C 1319.33 5.01509 -0.281824 0
M  V30 13290 C 1321.33 6.08147 -1.90882 0
M  V30 13291 C 1319.01 5.98658 -1.22686 0
M  V30 13292 C 1320.01 6.51859 -2.03886 0
M  V30 13293 O 1319.7 7.47108 -2.96791 0
M  V30 13294 H 1319.43 0.671068 0.0815052 0
M  V30 13295 H 1321.99 2.013 -0.408341 0
M  V30 13296 H 1320.22 3.48226 1.68154 0
M  V30 13297 H 1321.9 3.80469 1.41416 0
M  V30 13298 H 1322.67 4.77065 -0.873714 0
M  V30 13299 H 1318.55 4.59743 0.340203 0
M  V30 13300 H 1322.09 6.49597 -2.54301 0
M  V30 13301 H 1317.99 6.31834 -1.32121 0
M  V30 13302 H 1318.76 7.64832 -2.91502 0
M  V30 13303 N 1321.42 0.00503138 1.57599 0
M  V30 13304 C 1322.35 -1.01302 2.05598 0
M  V30 13305 C 1323.37 -1.30388 0.974829 0
M  V30 13306 O 1324.56 -1.27275 1.25153 0
M  V30 13307 C 1321.66 -2.34654 2.44522 0
M  V30 13308 C 1320.83 -2.24436 3.7543 0
M  V30 13309 C 1319.89 -3.40517 4.01166 0
M  V30 13310 O 1318.91 -3.18479 4.71762 0
M  V30 13311 N 1320.12 -4.63532 3.49454 0
M  V30 13312 H 1322.88 -0.603656 2.93558 0
M  V30 13313 H 1320.44 -0.182248 1.60871 0
M  V30 13314 H 1322.43 -3.11093 2.5885 0
M  V30 13315 H 1321 -2.67315 1.62055 0
M  V30 13316 H 1320.22 -1.32875 3.71131 0
M  V30 13317 H 1321.51 -2.14786 4.61242 0
M  V30 13318 H 1320.91 -4.84334 2.92296 0
M  V30 13319 H 1319.47 -5.37221 3.69103 0
M  V30 13320 N 1322.9 -1.55308 -0.267798 0
M  V30 13321 C 1323.85 -1.84933 -1.33356 0
M  V30 13322 C 1324.83 -0.708605 -1.44456 0
M  V30 13323 O 1326.03 -0.970069 -1.4805 0
M  V30 13324 C 1323.15 -2.12927 -2.69289 0
M  V30 13325 C 1322.24 -3.33273 -2.62279 0
M  V30 13326 N 1322.63 -4.53055 -2.24889 0
M  V30 13327 C 1320.93 -3.35966 -2.93331 0
M  V30 13328 C 1321.63 -5.35156 -2.27998 0
M  V30 13329 N 1320.61 -4.73692 -2.66677 0
M  V30 13330 H 1324.41 -2.75086 -1.03465 0
M  V30 13331 H 1321.92 -1.55254 -0.476435 0
M  V30 13332 H 1323.92 -2.32309 -3.46177 0
M  V30 13333 H 1322.58 -1.24061 -3.00065 0
M  V30 13334 H 1323.59 -4.79059 -1.9678 0
M  V30 13335 H 1320.27 -2.57308 -3.28784 0
M  V30 13336 H 1321.66 -6.4094 -2.01608 0
M  V30 13337 N 1324.38 0.532545 -1.4833 0
M  V30 13338 C 1325.31 1.64662 -1.65555 0
M  V30 13339 C 1326.29 1.62447 -0.50447 0
M  V30 13340 O 1327.47 1.79684 -0.736712 0
M  V30 13341 C 1324.6 3.03256 -1.69272 0
M  V30 13342 C 1323.56 3.20329 -2.83854 0
M  V30 13343 C 1322.88 4.59958 -2.72659 0
M  V30 13344 C 1324.18 3.03345 -4.25181 0
M  V30 13345 H 1325.88 1.50502 -2.58823 0
M  V30 13346 H 1323.42 0.722612 -1.24556 0
M  V30 13347 H 1325.38 3.81064 -1.79911 0
M  V30 13348 H 1324.1 3.18433 -0.725805 0
M  V30 13349 H 1322.76 2.44937 -2.72766 0
M  V30 13350 H 1322.41 4.71967 -1.73942 0
M  V30 13351 H 1322.11 4.72327 -3.49544 0
M  V30 13352 H 1323.63 5.39869 -2.85262 0
M  V30 13353 H 1325.05 3.70948 -4.37116 0
M  V30 13354 H 1323.44 3.27208 -5.03045 0
M  V30 13355 H 1324.51 1.998 -4.41824 0
M  V30 13356 N 1325.86 1.36875 0.78122 0
M  V30 13357 C 1327.27 1.28236 1.35692 0
M  V30 13358 C 1327.62 -0.0742286 1.9606 0
M  V30 13359 O 1326.74 -0.97588 1.93146 0
M  V30 13360 C 1327.34 2.32215 2.46702 0
M  V30 13361 C 1325.9 2.2724 3.00065 0
M  V30 13362 C 1325.04 2.16553 1.73206 0
M  V30 13363 H 1327.99 1.47634 0.582217 0
M  V30 13364 H 1328.02 1.96333 3.25935 0
M  V30 13365 H 1327.53 3.30938 2.02735 0
M  V30 13366 H 1325.63 1.3201 3.48431 0
M  V30 13367 H 1325.74 3.20267 3.56323 0
M  V30 13368 H 1324.11 1.62941 1.95761 0
M  V30 13369 H 1324.89 3.17176 1.31356 0
M  V30 13370 N 1327.33 -1.00632 1.21289 0
M  V30 13371 C 1328.58 -1.74647 1.03084 0
M  V30 13372 C 1328.91 -1.89271 -0.43476 0
M  V30 13373 O 1328.19 -1.42607 -1.32263 0
M  V30 13374 C 1328.47 -3.15981 1.72709 0
M  V30 13375 C 1328.32 -3.09088 3.2678 0
M  V30 13376 C 1329.64 -4.14875 1.46857 0
M  V30 13377 H 1326.76 -0.633938 0.375889 0
M  V30 13378 H 1329.4 -1.17328 1.49446 0
M  V30 13379 H 1327.55 -3.64918 1.33294 0
M  V30 13380 H 1329.23 -2.67875 3.75554 0
M  V30 13381 H 1327.47 -2.46223 3.57151 0
M  V30 13382 H 1328.14 -4.09041 3.70661 0
M  V30 13383 H 1330.62 -3.74637 1.81069 0
M  V30 13384 H 1329.49 -5.1191 1.98088 0
M  V30 13385 H 1329.75 -4.40302 0.398296 0
M  V30 13386 N 1328.81 -1.02043 -1.20104 0
M  V30 13387 C 1330.04 -0.731315 -1.93544 0
M  V30 13388 C 1330.45 0.708582 -1.74999 0
M  V30 13389 O 1329.81 1.481 -1.06642 0
M  V30 13390 C 1329.86 -1.06233 -3.45538 0
M  V30 13391 O 1329.58 -2.44568 -3.63481 0
M  V30 13392 C 1331.08 -0.794818 -4.36116 0
M  V30 13393 H 1328.3 -0.268248 -0.615048 0
M  V30 13394 H 1330.85 -1.36264 -1.52488 0
M  V30 13395 H 1329 -0.476341 -3.8446 0
M  V30 13396 H 1329.42 -2.5663 -4.57429 0
M  V30 13397 H 1330.89 -1.07647 -5.41402 0
M  V30 13398 H 1331.37 0.270944 -4.38363 0
M  V30 13399 H 1331.97 -1.36314 -4.02863 0
M  V30 13400 N 1330.29 1.35952 -0.797165 0
M  V30 13401 C 1331.71 1.52218 -0.479765 0
M  V30 13402 C 1331.91 1.74898 1.00064 0
M  V30 13403 O 1330.96 1.78495 1.78594 0
M  V30 13404 C 1332.28 2.70328 -1.31694 0
M  V30 13405 C 1333.82 2.84202 -1.31142 0
M  V30 13406 C 1334.3 4.05325 -2.13251 0
M  V30 13407 N 1335.79 4.12485 -2.10737 0
M  V30 13408 C 1336.52 5.053 -2.71033 0
M  V30 13409 N 1336.02 6.03509 -3.40219 0
M  V30 13410 N 1337.81 4.97975 -2.60725 0
M  V30 13411 H 1329.96 1.19486 -1.75604 0
M  V30 13412 H 1332.23 0.58383 -0.746892 0
M  V30 13413 H 1331.93 2.60116 -2.36712 0
M  V30 13414 H 1331.81 3.64684 -0.963607 0
M  V30 13415 H 1334.19 2.9387 -0.269131 0
M  V30 13416 H 1334.28 1.9073 -1.70457 0
M  V30 13417 H 1333.92 3.96417 -3.17515 0
M  V30 13418 H 1333.85 4.97959 -1.71302 0
M  V30 13419 H 1336.34 3.42174 -1.6039 0
M  V30 13420 H 1336.65 6.70909 -3.83537 0
M  V30 13421 H 1335 6.03711 -3.44322 0
M  V30 13422 H 1338.19 4.20203 -2.0627 0
M  V30 13423 H 1338.36 5.70119 -3.08007 0
M  V30 13424 N 1331.77 0.549846 1.47697 0
M  V30 13425 C 1333.02 0.0230503 2.02487 0
M  V30 13426 C 1333.34 -1.32382 1.42497 0
M  V30 13427 O 1332.6 -1.87293 0.567441 0
M  V30 13428 C 1332.9 -0.127268 3.57173 0
M  V30 13429 C 1332.56 1.14777 4.36047 0
M  V30 13430 C 1331.23 1.49716 4.57317 0
M  V30 13431 C 1333.58 1.99302 4.81589 0
M  V30 13432 C 1330.91 2.69042 5.21376 0
M  V30 13433 C 1333.26 3.17824 5.46965 0
M  V30 13434 C 1331.92 3.53086 5.66469 0
M  V30 13435 H 1331.19 0.00843471 0.740952 0
M  V30 13436 H 1333.84 0.719876 1.77454 0
M  V30 13437 H 1332.14 -0.907008 3.81157 0
M  V30 13438 H 1333.84 -0.550103 3.97209 0
M  V30 13439 H 1330.43 0.865703 4.19766 0
M  V30 13440 H 1334.61 1.73618 4.64942 0
M  V30 13441 H 1329.87 2.9654 5.34672 0
M  V30 13442 H 1334.04 3.83612 5.81218 0
M  V30 13443 H 1331.67 4.45643 6.15878 0
M  V30 13444 N 1333.25 -1.54984 0.285932 0
M  V30 13445 C 1334.66 -1.85519 -0.209707 0
M  V30 13446 C 1335.01 -1.20794 -1.54606 0
M  V30 13447 O 1334.13 -0.500159 -2.10541 0
M  V30 13448 C 1334.73 -3.36579 -0.387283 0
M  V30 13449 C 1333.29 -3.67199 -0.827148 0
M  V30 13450 C 1332.43 -2.77203 0.073308 0
M  V30 13451 H 1335.39 -1.5037 0.507404 0
M  V30 13452 H 1335.41 -3.60269 -1.2242 0
M  V30 13453 H 1334.92 -3.83658 0.585493 0
M  V30 13454 H 1333.02 -3.25627 -1.81101 0
M  V30 13455 H 1333.13 -4.74574 -0.656976 0
M  V30 13456 H 1331.5 -2.50785 -0.444859 0
M  V30 13457 H 1332.28 -3.27099 1.04216 0
M  V30 13458 N 1334.72 -0.0133892 -1.57594 0
M  V30 13459 C 1335.96 0.672977 -1.93004 0
M  V30 13460 C 1336.33 1.70188 -0.888816 0
M  V30 13461 O 1337.53 2.4396 -1.12859 0
M  V30 13462 C 1335.8 1.28743 -3.33407 0
M  V30 13463 S 1337.36 1.99706 -3.90721 0
M  V30 13464 H 1334.18 0.221972 -0.675462 0
M  V30 13465 H 1336.78 -0.0732871 -1.95363 0
M  V30 13466 H 1335.48 0.525931 -4.07016 0
M  V30 13467 H 1335.01 2.07134 -3.34454 0
M  V30 13468 H 1337.03 3.27375 -3.72881 0
M  V30 13469 N 1336.2 1.55448 0.259558 0
M  V30 13470 C 1337.43 1.80727 1.00723 0
M  V30 13471 C 1337.85 0.587354 1.79431 0
M  V30 13472 O 1337.2 -0.443819 1.77021 0
M  V30 13473 C 1337.25 3.04064 1.95517 0
M  V30 13474 O 1336.97 4.21346 1.19996 0
M  V30 13475 C 1338.48 3.42049 2.81988 0
M  V30 13476 H 1335.7 0.601713 0.296956 0
M  V30 13477 H 1338.24 2.02486 0.286273 0
M  V30 13478 H 1336.39 2.84392 2.63058 0
M  V30 13479 H 1336.81 4.91164 1.84006 0
M  V30 13480 H 1338.28 4.31485 3.44274 0
M  V30 13481 H 1338.76 2.62059 3.52451 0
M  V30 13482 H 1339.37 3.64027 2.19918 0
M  V30 13483 N 1337.68 -0.524672 1.4861 0
M  V30 13484 C 1338.61 -1.63782 1.66426 0
M  V30 13485 C 1339.59 -1.62177 0.513077 0
M  V30 13486 O 1340.78 -1.7929 0.74623 0
M  V30 13487 C 1337.91 -3.02354 1.70877 0
M  V30 13488 C 1336.86 -3.18819 2.85549 0
M  V30 13489 C 1336.19 -4.58506 2.75094 0
M  V30 13490 C 1337.49 -3.01086 4.26784 0
M  V30 13491 H 1339.18 -1.49127 2.59618 0
M  V30 13492 H 1336.73 -0.715997 1.24938 0
M  V30 13493 H 1338.68 -3.80105 1.81929 0
M  V30 13494 H 1337.4 -3.18044 0.742682 0
M  V30 13495 H 1336.06 -2.43487 2.74061 0
M  V30 13496 H 1335.71 -4.71038 1.76443 0
M  V30 13497 H 1335.41 -4.70466 3.52044 0
M  V30 13498 H 1336.93 -5.38348 2.88121 0
M  V30 13499 H 1338.35 -3.68624 4.39077 0
M  V30 13500 H 1336.75 -3.24536 5.04774 0
M  V30 13501 H 1337.82 -1.97454 4.42877 0
M  V30 13502 N 1339.16 -1.37287 -0.77395 0
M  V30 13503 C 1340.12 -1.32699 -1.86878 0
M  V30 13504 C 1341.12 -0.231486 -1.59125 0
M  V30 13505 O 1342.31 -0.487203 -1.67248 0
M  V30 13506 C 1339.44 -1.0609 -3.23972 0
M  V30 13507 H 1340.64 -2.30083 -1.92359 0
M  V30 13508 H 1338.19 -1.22284 -0.973459 0
M  V30 13509 H 1338.92 -0.0922868 -3.24169 0
M  V30 13510 H 1338.71 -1.85383 -3.45508 0
M  V30 13511 H 1340.2 -1.05524 -4.04048 0
M  V30 13512 N 1340.64 0.999871 -1.21821 0
M  V30 13513 C 1341.88 1.75366 -1.05005 0
M  V30 13514 C 1342.24 1.87601 0.408656 0
M  V30 13515 O 1343.44 2.59593 0.697479 0
M  V30 13516 C 1341.71 3.12525 -1.73387 0
M  V30 13517 S 1343.27 4.0373 -1.71894 0
M  V30 13518 H 1340.09 0.603334 -0.376177 0
M  V30 13519 H 1342.69 1.19598 -1.5465 0
M  V30 13520 H 1341.4 3.01258 -2.78697 0
M  V30 13521 H 1340.93 3.73365 -1.23944 0
M  V30 13522 H 1342.94 4.90288 -0.763668 0
M  V30 13523 N 1342.11 1.02678 1.19562 0
M  V30 13524 C 1343.02 0.615738 2.26375 0
M  V30 13525 C 1344.04 -0.351525 1.70412 0
M  V30 13526 O 1345.22 -0.209932 2.00303 0
M  V30 13527 C 1342.28 -0.0292135 3.46688 0
M  V30 13528 C 1341.34 0.985284 4.1784 0
M  V30 13529 C 1340.58 0.371016 5.32409 0
M  V30 13530 O 1340.8 -0.826591 5.64379 0
M  V30 13531 O 1339.73 1.09282 5.91896 0
M  V30 13532 H 1343.56 1.50526 2.63772 0
M  V30 13533 H 1341.14 0.796847 1.26375 0
M  V30 13534 H 1343.03 -0.38893 4.19601 0
M  V30 13535 H 1341.7 -0.892778 3.11145 0
M  V30 13536 H 1340.61 1.39655 3.47055 0
M  V30 13537 H 1341.94 1.81915 4.57349 0
M  V30 13538 N 1343.59 -1.35528 0.804364 0
M  V30 13539 C 1344.56 -2.28153 0.21885 0
M  V30 13540 C 1345.56 -1.49486 -0.592511 0
M  V30 13541 O 1346.75 -1.69274 -0.411319 0
M  V30 13542 C 1343.88 -3.33736 -0.695195 0
M  V30 13543 H 1345.07 -2.81446 1.03576 0
M  V30 13544 H 1342.62 -1.45345 0.574854 0
M  V30 13545 H 1343.36 -2.85625 -1.53587 0
M  V30 13546 H 1343.14 -3.91931 -0.115143 0
M  V30 13547 H 1344.63 -4.02872 -1.09925 0
M  V30 13548 N 1345.07 -0.557671 -1.47404 0
M  V30 13549 C 1346.49 -0.217473 -1.58111 0
M  V30 13550 C 1346.69 1.28 -1.55622 0
M  V30 13551 O 1345.74 2.06019 -1.45988 0
M  V30 13552 C 1347.06 -0.844535 -2.88597 0
M  V30 13553 C 1348.6 -0.815807 -3.02181 0
M  V30 13554 C 1349.08 -1.42195 -4.35367 0
M  V30 13555 N 1350.57 -1.38515 -4.42004 0
M  V30 13556 C 1351.31 -1.82378 -5.43623 0
M  V30 13557 N 1350.8 -2.34098 -6.52051 0
M  V30 13558 N 1352.59 -1.73446 -5.34671 0
M  V30 13559 H 1344.75 -1.53058 -1.47265 0
M  V30 13560 H 1347.01 -0.638305 -0.700907 0
M  V30 13561 H 1346.71 -1.89696 -2.96156 0
M  V30 13562 H 1346.59 -0.337844 -3.75684 0
M  V30 13563 H 1348.98 0.227925 -2.94218 0
M  V30 13564 H 1349.06 -1.36026 -2.16635 0
M  V30 13565 H 1348.7 -2.46475 -4.44086 0
M  V30 13566 H 1348.63 -0.852932 -5.19647 0
M  V30 13567 H 1351.12 -1.00684 -3.64241 0
M  V30 13568 H 1351.43 -2.6549 -7.25765 0
M  V30 13569 H 1349.78 -2.38109 -6.52939 0
M  V30 13570 H 1352.97 -1.32816 -4.48862 0
M  V30 13571 H 1353.14 -2.07947 -6.13728 0
M  V30 13572 N 1346.55 1.54831 -0.294147 0
M  V30 13573 C 1347.5 2.19966 0.599919 0
M  V30 13574 C 1348.48 1.1704 1.1041 0
M  V30 13575 O 1349.68 1.42785 1.04601 0
M  V30 13576 C 1346.8 2.93875 1.77461 0
M  V30 13577 C 1345.89 4.0411 1.28671 0
M  V30 13578 N 1346.28 5.03158 0.516316 0
M  V30 13579 C 1344.58 4.17527 1.56804 0
M  V30 13580 C 1345.28 5.8113 0.257361 0
M  V30 13581 N 1344.26 5.37145 0.835221 0
M  V30 13582 H 1348.06 2.939 0.00369516 0
M  V30 13583 H 1345.57 1.621 -0.0985855 0
M  V30 13584 H 1347.57 3.39001 2.4266 0
M  V30 13585 H 1346.23 2.21456 2.3746 0
M  V30 13586 H 1347.24 5.17647 0.161855 0
M  V30 13587 H 1343.92 3.56309 2.17601 0
M  V30 13588 H 1345.31 6.7093 -0.360924 0
M  V30 13589 N 1348.03 0.0217466 1.57585 0
M  V30 13590 C 1349.27 -0.658487 1.91495 0
M  V30 13591 C 1349.6 -1.72557 0.897462 0
M  V30 13592 O 1348.86 -1.95471 -0.0946909 0
M  V30 13593 C 1349.16 -1.3197 3.32143 0
M  V30 13594 C 1348.82 -0.383706 4.49264 0
M  V30 13595 C 1347.48 -0.126065 4.81035 0
M  V30 13596 C 1349.84 0.259445 5.20554 0
M  V30 13597 C 1347.16 0.782659 5.81456 0
M  V30 13598 C 1349.52 1.15618 6.21945 0
M  V30 13599 C 1348.18 1.42278 6.5216 0
M  V30 13600 H 1347.45 -0.240958 0.700729 0
M  V30 13601 H 1350.1 0.0819351 1.91325 0
M  V30 13602 H 1348.4 -2.13469 3.28539 0
M  V30 13603 H 1350.1 -1.85245 3.55648 0
M  V30 13604 H 1346.69 -0.59469 4.24454 0
M  V30 13605 H 1350.87 0.073445 4.96246 0
M  V30 13606 H 1346.13 0.996995 6.03216 0
M  V30 13607 H 1350.3 1.66077 6.76307 0
M  V30 13608 H 1347.93 2.1286 7.29791 0
M  V30 13609 N 1349.51 -1.55583 -0.251311 0
M  V30 13610 C 1350.44 -1.9296 -1.31486 0
M  V30 13611 C 1351.42 -0.794001 -1.50431 0
M  V30 13612 O 1352.6 -1.05393 -1.63113 0
M  V30 13613 C 1349.73 -2.22046 -2.67045 0
M  V30 13614 C 1348.69 -3.37816 -2.62801 0
M  V30 13615 C 1348.01 -3.52433 -4.02113 0
M  V30 13616 C 1349.31 -4.73626 -2.20171 0
M  V30 13617 H 1351.01 -2.82046 -1.00451 0
M  V30 13618 H 1348.55 -1.35702 -0.481775 0
M  V30 13619 H 1350.5 -2.46783 -3.41579 0
M  V30 13620 H 1349.23 -1.29782 -2.99707 0
M  V30 13621 H 1347.89 -3.13081 -1.90724 0
M  V30 13622 H 1347.54 -2.57597 -4.32034 0
M  V30 13623 H 1347.24 -4.30283 -4.00163 0
M  V30 13624 H 1348.76 -3.79486 -4.78354 0
M  V30 13625 H 1350.17 -4.97764 -2.84436 0
M  V30 13626 H 1348.57 -5.54547 -2.29341 0
M  V30 13627 H 1349.64 -4.70985 -1.1533 0
M  V30 13628 N 1350.98 0.516783 -1.48886 0
M  V30 13629 C 1351.91 1.62897 -1.67292 0
M  V30 13630 C 1352.89 1.61903 -0.521671 0
M  V30 13631 O 1354.08 1.78892 -0.755728 0
M  V30 13632 C 1351.21 3.01444 -1.72478 0
M  V30 13633 C 1350.16 3.173 -2.87236 0
M  V30 13634 C 1349.49 4.5704 -2.77522 0
M  V30 13635 C 1350.79 2.98818 -4.28375 0
M  V30 13636 H 1352.48 1.47748 -2.60405 0
M  V30 13637 H 1350.03 0.709361 -1.25316 0
M  V30 13638 H 1351.98 3.79135 -1.83942 0
M  V30 13639 H 1350.71 3.17645 -0.759538 0
M  V30 13640 H 1349.37 2.4203 -2.75349 0
M  V30 13641 H 1349.01 4.70096 -1.78938 0
M  V30 13642 H 1348.71 4.68593 -3.54534 0
M  V30 13643 H 1350.24 5.36813 -2.90972 0
M  V30 13644 H 1351.65 3.66291 -4.41026 0
M  V30 13645 H 1350.05 3.21854 -5.06488 0
M  V30 13646 H 1351.12 1.95102 -4.43918 0
M  V30 13647 N 1352.46 1.37696 0.766659 0
M  V30 13648 C 1353.74 1.23715 1.51506 0
M  V30 13649 C 1354.12 -0.167091 2.10438 0
M  V30 13650 O 1353.47 -1.17526 1.95959 0
M  V30 13651 C 1353.68 2.33715 2.59188 0
M  V30 13652 C 1355.02 2.71504 3.26451 0
M  V30 13653 O 1356.05 2.32929 2.69486 0
M  V30 13654 O 1354.91 3.37981 4.29454 0
M  V30 13655 H 1352 0.483046 0.671264 0
M  V30 13656 H 1354.55 1.49489 0.803188 0
M  V30 13657 H 1353.32 3.27729 2.13797 0
M  V30 13658 H 1352.94 2.09433 3.3797 0
M  V30 13659 N 1353.94 -0.993397 1.22349 0
M  V30 13660 C 1355.19 -1.72945 1.04568 0
M  V30 13661 C 1355.51 -1.90419 -0.420178 0
M  V30 13662 O 1354.78 -1.46348 -1.30227 0
M  V30 13663 H 1353.36 -0.640777 0.383945 0
M  V30 13664 H 1356.02 -1.19647 1.53853 0
M  V30 13665 H 1355.12 -2.72411 1.52311 0
M  V30 13666 N 1355.42 -1.03311 -1.19015 0
M  V30 13667 C 1356.33 -0.627735 -2.26046 0
M  V30 13668 C 1357.34 0.342483 -1.70596 0
M  V30 13669 O 1358.52 0.199307 -2.00411 0
M  V30 13670 C 1355.58 0.0108274 -3.46698 0
M  V30 13671 C 1354.65 -1.00743 -4.17312 0
M  V30 13672 C 1353.88 -0.399245 -5.32205 0
M  V30 13673 O 1354.1 0.796649 -5.64809 0
M  V30 13674 O 1353.04 -1.12419 -5.91308 0
M  V30 13675 H 1356.86 -1.51923 -2.6297 0
M  V30 13676 H 1354.45 -0.803538 -1.25951 0
M  V30 13677 H 1356.33 0.366672 -4.19802 0
M  V30 13678 H 1355 0.876265 -3.11614 0
M  V30 13679 H 1353.91 -1.41494 -3.4631 0
M  V30 13680 H 1355.24 -1.84338 -4.56377 0
M  V30 13681 N 1356.9 1.35099 -0.81154 0
M  V30 13682 C 1358.31 1.81082 -0.454543 0
M  V30 13683 C 1358.66 1.67361 1.02395 0
M  V30 13684 O 1357.78 1.20707 1.79607 0
M  V30 13685 C 1358.38 3.2877 -0.818274 0
M  V30 13686 C 1356.94 3.72877 -0.513808 0
M  V30 13687 C 1356.08 2.57008 -1.04125 0
M  V30 13688 H 1359.03 1.23007 -1.00274 0
M  V30 13689 H 1359.06 3.80318 -0.117683 0
M  V30 13690 H 1358.57 3.38725 -1.89439 0
M  V30 13691 H 1356.67 3.68468 0.553368 0
M  V30 13692 H 1356.78 4.67455 -1.0499 0
M  V30 13693 H 1355.15 2.5045 -0.463337 0
M  V30 13694 H 1355.93 2.69738 -2.12358 0
M  V30 13695 N 1358.37 0.56548 1.47106 0
M  V30 13696 C 1359.79 0.225855 1.57994 0
M  V30 13697 C 1359.99 -1.27173 1.56299 0
M  V30 13698 O 1359.05 -2.05242 1.47078 0
M  V30 13699 C 1360.36 0.859829 2.88145 0
M  V30 13700 C 1361.91 0.831821 3.01744 0
M  V30 13701 C 1362.38 1.44502 4.34607 0
M  V30 13702 N 1363.87 1.40857 4.41263 0
M  V30 13703 C 1364.61 1.85258 5.42648 0
M  V30 13704 N 1364.1 2.37553 6.508 0
M  V30 13705 N 1365.9 1.76279 5.33744 0
M  V30 13706 H 1358.05 1.53837 1.46451 0
M  V30 13707 H 1360.31 0.642013 0.697512 0
M  V30 13708 H 1360.02 1.91264 2.95146 0
M  V30 13709 H 1359.89 0.357762 3.755 0
M  V30 13710 H 1362.28 -0.212319 2.94335 0
M  V30 13711 H 1362.36 1.37173 2.1591 0
M  V30 13712 H 1362 2.48827 4.42773 0
M  V30 13713 H 1361.93 0.880479 5.19187 0
M  V30 13714 H 1364.42 1.02614 3.63702 0
M  V30 13715 H 1364.74 2.69335 7.24347 0
M  V30 13716 H 1363.08 2.41569 6.51667 0
M  V30 13717 H 1366.27 1.35195 4.48152 0
M  V30 13718 H 1366.45 2.11199 6.12616 0
M  V30 13719 N 1359.85 -1.54672 0.302354 0
M  V30 13720 C 1361.26 -1.85731 -0.190019 0
M  V30 13721 C 1361.61 -1.22427 -1.53317 0
M  V30 13722 O 1360.74 -0.522461 -2.09998 0
M  V30 13723 C 1361.33 -3.36971 -0.351562 0
M  V30 13724 C 1359.89 -3.68056 -0.788155 0
M  V30 13725 C 1359.04 -2.7711 0.102705 0
M  V30 13726 H 1361.99 -1.49823 0.523324 0
M  V30 13727 H 1362.01 -3.61547 -1.18592 0
M  V30 13728 H 1361.52 -3.83016 0.626152 0
M  V30 13729 H 1359.63 -3.2753 -1.77637 0
M  V30 13730 H 1359.74 -4.75244 -0.606604 0
M  V30 13731 H 1358.1 -2.51243 -0.418235 0
M  V30 13732 H 1358.89 -3.25975 1.0768 0
M  V30 13733 N 1361.33 -0.0301034 -1.57571 0
M  V30 13734 C 1362.58 0.649283 -1.92125 0
M  V30 13735 C 1362.91 1.71722 -0.90692 0
M  V30 13736 O 1362.18 1.94373 0.0702019 0
M  V30 13737 C 1362.47 1.26482 -3.37156 0
M  V30 13738 C 1362.32 0.206375 -4.49326 0
M  V30 13739 C 1363.64 2.18256 -3.82168 0
M  V30 13740 H 1360.76 0.234561 -0.698678 0
M  V30 13741 H 1363.4 -0.0875634 -1.89798 0
M  V30 13742 H 1361.55 1.89283 -3.3927 0
M  V30 13743 H 1363.22 -0.424268 -4.59345 0
M  V30 13744 H 1361.47 -0.468035 -4.31268 0
M  V30 13745 H 1362.14 0.676689 -5.47837 0
M  V30 13746 H 1364.61 1.65441 -3.81797 0
M  V30 13747 H 1363.49 2.58277 -4.84339 0
M  V30 13748 H 1363.75 3.07411 -3.17727 0
M  V30 13749 N 1362.81 1.55714 0.243056 0
M  V30 13750 C 1363.77 1.89832 1.28438 0
M  V30 13751 C 1364.77 0.775083 1.40887 0
M  V30 13752 O 1365.96 1.04304 1.39521 0
M  V30 13753 C 1363.09 2.13016 2.66153 0
M  V30 13754 H 1364.29 2.82947 0.994022 0
M  V30 13755 H 1361.84 1.48665 0.482521 0
M  V30 13756 H 1362.57 1.22381 3.00322 0
M  V30 13757 H 1362.36 2.94824 2.58498 0
M  V30 13758 H 1363.85 2.40581 3.41336 0
M  V30 13759 N 1364.29 -0.50888 1.49158 0
M  V30 13760 C 1365.53 -1.26537 1.58481 0
M  V30 13761 C 1365.87 -1.92353 0.267168 0
M  V30 13762 O 1365.14 -1.80336 -0.728639 0
M  V30 13763 C 1365.42 -2.33846 2.73839 0
M  V30 13764 C 1365.28 -1.72582 4.15374 0
M  V30 13765 C 1366.6 -3.35467 2.84868 0
M  V30 13766 H 1363.71 -0.458697 0.576859 0
M  V30 13767 H 1366.36 -0.564728 1.81413 0
M  V30 13768 H 1364.51 -2.93605 2.54417 0
M  V30 13769 H 1366.18 -1.16711 4.46292 0
M  V30 13770 H 1364.42 -1.03025 4.21389 0
M  V30 13771 H 1365.09 -2.5038 4.91949 0
M  V30 13772 H 1367.57 -2.85689 3.02524 0
M  V30 13773 H 1366.44 -4.07922 3.67275 0
M  V30 13774 H 1366.71 -3.97313 1.93894 0
M  V30 13775 N 1365.76 -1.381 -0.759346 0
M  V30 13776 C 1367.18 -1.19171 -1.06162 0
M  V30 13777 C 1367.38 -0.0364043 -2.01467 0
M  V30 13778 O 1366.44 0.619635 -2.44779 0
M  V30 13779 C 1367.75 -2.51569 -1.64723 0
M  V30 13780 C 1369.3 -2.58201 -1.76921 0
M  V30 13781 C 1369.77 -3.9076 -2.38894 0
M  V30 13782 N 1371.26 -3.92269 -2.46331 0
M  V30 13783 C 1372 -4.91595 -2.95164 0
M  V30 13784 N 1371.49 -6.01318 -3.44075 0
M  V30 13785 N 1373.29 -4.7899 -2.94152 0
M  V30 13786 H 1365.44 -2.12021 -0.126788 0
M  V30 13787 H 1367.7 -0.940517 -0.118877 0
M  V30 13788 H 1367.41 -3.36535 -1.02162 0
M  V30 13789 H 1367.28 -2.69551 -2.6386 0
M  V30 13790 H 1369.67 -1.73634 -2.38611 0
M  V30 13791 H 1369.75 -2.44092 -0.765047 0
M  V30 13792 H 1369.39 -4.75747 -1.7784 0
M  V30 13793 H 1369.32 -4.02179 -3.39941 0
M  V30 13794 H 1371.81 -3.13015 -2.11731 0
M  V30 13795 H 1372.13 -6.73046 -3.79776 0
M  V30 13796 H 1370.47 -6.04946 -3.42148 0
M  V30 13797 H 1373.66 -3.92385 -2.55248 0
M  V30 13798 H 1373.84 -5.5655 -3.31897 0
M  V30 13799 N 1367.24 0.986894 -1.22875 0
M  V30 13800 C 1368.17 2.08035 -0.961971 0
M  V30 13801 C 1369.19 1.62683 0.0616475 0
M  V30 13802 O 1370.38 1.77659 -0.173094 0
M  V30 13803 C 1367.48 3.36208 -0.426302 0
M  V30 13804 C 1366.65 4.10562 -1.50856 0
M  V30 13805 C 1365.71 5.17014 -0.97891 0
M  V30 13806 O 1364.73 5.44259 -1.66645 0
M  V30 13807 N 1365.94 5.80167 0.196613 0
M  V30 13808 H 1368.7 2.315 -1.90336 0
M  V30 13809 H 1366.26 1.1531 -1.13645 0
M  V30 13810 H 1368.25 4.0466 -0.0571577 0
M  V30 13811 H 1366.82 3.09761 0.420345 0
M  V30 13812 H 1366.04 3.36656 -2.05076 0
M  V30 13813 H 1367.33 4.57007 -2.23655 0
M  V30 13814 H 1366.73 5.60409 0.771892 0
M  V30 13815 H 1365.29 6.49825 0.507083 0
M  V30 13816 N 1368.72 1.0394 1.18466 0
M  V30 13817 C 1370.13 0.77011 1.70077 0
M  V30 13818 C 1370.48 -0.70916 1.82935 0
M  V30 13819 O 1369.61 -1.55209 1.50795 0
M  V30 13820 C 1370.2 1.39132 3.08914 0
M  V30 13821 C 1368.76 1.17037 3.57742 0
M  V30 13822 C 1367.91 1.48279 2.34326 0
M  V30 13823 H 1370.86 1.20598 1.03159 0
M  V30 13824 H 1370.88 0.793861 3.72126 0
M  V30 13825 H 1370.39 2.46795 2.99523 0
M  V30 13826 H 1368.49 0.112435 3.7243 0
M  V30 13827 H 1368.61 1.8665 4.41247 0
M  V30 13828 H 1366.97 0.902438 2.38177 0
M  V30 13829 H 1367.75 2.57047 2.27556 0
M  V30 13830 N 1370.2 -1.34667 0.818693 0
M  V30 13831 C 1371.43 -2.02642 0.417608 0
M  V30 13832 C 1371.84 -1.61667 -0.97516 0
M  V30 13833 O 1371.2 -0.820056 -1.63038 0
M  V30 13834 C 1371.25 -3.57951 0.505295 0
M  V30 13835 O 1370.97 -3.97441 1.84317 0
M  V30 13836 C 1372.47 -4.4319 0.0985667 0
M  V30 13837 H 1369.69 -0.6496 0.168111 0
M  V30 13838 H 1372.24 -1.72032 1.10568 0
M  V30 13839 H 1370.39 -3.87166 -0.134646 0
M  V30 13840 H 1370.8 -4.92116 1.81444 0
M  V30 13841 H 1372.28 -5.51597 0.211015 0
M  V30 13842 H 1372.76 -4.28637 -0.95745 0
M  V30 13843 H 1373.36 -4.19295 0.71214 0
M  V30 13844 N 1371.68 -0.573274 -1.46804 0
M  V30 13845 C 1373.09 -0.144162 -1.86143 0
M  V30 13846 C 1373.44 1.29033 -1.47801 0
M  V30 13847 O 1372.56 1.97319 -0.888494 0
M  V30 13848 C 1373.16 -0.254851 -3.3784 0
M  V30 13849 C 1371.72 0.119325 -3.76211 0
M  V30 13850 C 1370.86 -0.595115 -2.70839 0
M  V30 13851 H 1373.82 -0.782057 -1.38093 0
M  V30 13852 H 1373.84 0.522321 -3.76898 0
M  V30 13853 H 1373.35 -1.29899 -3.65715 0
M  V30 13854 H 1371.45 1.16396 -3.53953 0
M  V30 13855 H 1371.56 -0.250421 -4.78445 0
M  V30 13856 H 1369.93 -0.0364028 -2.54674 0
M  V30 13857 H 1370.71 -1.64072 -3.01555 0
M  V30 13858 N 1373.15 1.5451 -0.310553 0
M  V30 13859 C 1374.12 2.2254 0.548489 0
M  V30 13860 C 1375.12 1.21456 1.05381 0
M  V30 13861 O 1376.31 1.46126 0.948311 0
M  V30 13862 C 1373.44 2.91927 1.76043 0
M  V30 13863 H 1374.63 2.99865 -0.0460306 0
M  V30 13864 H 1372.19 1.56179 -0.061487 0
M  V30 13865 H 1372.92 2.18706 2.39454 0
M  V30 13866 H 1372.71 3.66038 1.40564 0
M  V30 13867 H 1374.2 3.43797 2.37051 0
M  V30 13868 N 1374.63 0.0384594 1.57553 0
M  V30 13869 C 1375.58 -0.949625 2.07283 0
M  V30 13870 C 1376.57 -1.27973 0.975284 0
M  V30 13871 O 1377.76 -1.26428 1.23875 0
M  V30 13872 C 1374.89 -2.22887 2.61106 0
M  V30 13873 C 1373.97 -1.92672 3.77807 0
M  V30 13874 N 1374.37 -1.32764 4.88065 0
M  V30 13875 C 1372.66 -2.22612 3.86471 0
M  V30 13876 C 1373.36 -1.19892 5.69211 0
M  V30 13877 N 1372.34 -1.69757 5.16414 0
M  V30 13878 H 1376.14 -0.481562 2.89928 0
M  V30 13879 H 1373.66 -0.166321 1.61546 0
M  V30 13880 H 1375.65 -2.94556 2.9503 0
M  V30 13881 H 1374.31 -2.70311 1.79895 0
M  V30 13882 H 1375.32 -1.00146 5.08125 0
M  V30 13883 H 1372 -2.72645 3.16182 0
M  V30 13884 H 1373.39 -0.734892 6.67869 0
M  V30 13885 N 1376.11 -1.55841 -0.234795 0
M  V30 13886 C 1377.52 -1.68555 -0.802886 0
M  V30 13887 C 1377.87 -0.638107 -1.85533 0
M  V30 13888 O 1377 0.21333 -2.15346 0
M  V30 13889 C 1377.59 -3.0558 -1.46309 0
M  V30 13890 C 1376.15 -3.20192 -1.97874 0
M  V30 13891 C 1375.3 -2.64457 -0.834136 0
M  V30 13892 H 1378.25 -1.58697 -0.0103759 0
M  V30 13893 H 1378.27 -3.007 -2.33152 0
M  V30 13894 H 1377.78 -3.81792 -0.696868 0
M  V30 13895 H 1375.88 -2.48825 -2.77339 0
M  V30 13896 H 1376 -4.27251 -2.1678 0
M  V30 13897 H 1374.36 -2.22593 -1.23791 0
M  V30 13898 H 1375.14 -3.43205 -0.0807988 0
M  V30 13899 N 1377.59 0.500963 -1.49426 0
M  V30 13900 C 1378.84 1.25694 -1.5915 0
M  V30 13901 C 1379.17 1.92209 -0.277365 0
M  V30 13902 O 1378.44 1.8072 0.719065 0
M  V30 13903 C 1378.73 2.32391 -2.75076 0
M  V30 13904 C 1378.58 1.70377 -4.16283 0
M  V30 13905 C 1379.9 3.33952 -2.86643 0
M  V30 13906 H 1377.02 0.455631 -0.579283 0
M  V30 13907 H 1379.66 0.555099 -1.8171 0
M  V30 13908 H 1377.81 2.92252 -2.55971 0
M  V30 13909 H 1379.48 1.14343 -4.46904 0
M  V30 13910 H 1377.72 1.00789 -4.21929 0
M  V30 13911 H 1378.4 2.47767 -4.9327 0
M  V30 13912 H 1380.87 2.84081 -3.04035 0
M  V30 13913 H 1379.75 4.05969 -3.69433 0
M  V30 13914 H 1380.01 3.96279 -1.95998 0
M  V30 13915 N 1379.07 1.38501 0.752011 0
M  V30 13916 C 1380 1.30236 1.87387 0
M  V30 13917 C 1380.98 0.179099 1.61611 0
M  V30 13918 O 1382.16 0.356686 1.85095 0
M  V30 13919 C 1379.29 1.01829 3.2303 0
M  V30 13920 C 1378.34 2.16114 3.67691 0
M  V30 13921 S 1379.17 3.78266 3.79044 0
M  V30 13922 C 1380.32 3.5205 5.17505 0
M  V30 13923 H 1380.56 2.25185 1.94111 0
M  V30 13924 H 1378.09 1.24356 0.915152 0
M  V30 13925 H 1380.05 0.861231 4.01364 0
M  V30 13926 H 1378.71 0.0859612 3.13982 0
M  V30 13927 H 1377.9 1.91788 4.66083 0
M  V30 13928 H 1377.5 2.27936 2.96515 0
M  V30 13929 H 1379.8 3.08262 6.03308 0
M  V30 13930 H 1380.74 4.49842 5.46853 0
M  V30 13931 H 1381.15 2.86528 4.86377 0
M  V30 13932 N 1380.55 -0.980364 1.23396 0
M  V30 13933 C 1381.79 -1.72421 1.06765 0
M  V30 13934 C 1382.12 -1.90151 -0.394515 0
M  V30 13935 O 1381.4 -1.4538 -1.29209 0
M  V30 13936 C 1381.68 -3.12246 1.79372 0
M  V30 13937 C 1381.54 -3.02087 3.33262 0
M  V30 13938 C 1382.85 -4.11667 1.55624 0
M  V30 13939 H 1379.97 -0.625822 0.389251 0
M  V30 13940 H 1382.62 -1.14132 1.51901 0
M  V30 13941 H 1380.77 -3.62008 1.41004 0
M  V30 13942 H 1382.44 -2.59848 3.81152 0
M  V30 13943 H 1380.68 -2.38592 3.62293 0
M  V30 13944 H 1381.35 -4.01087 3.79254 0
M  V30 13945 H 1383.83 -3.70712 1.88975 0
M  V30 13946 H 1382.7 -5.07593 2.08902 0
M  V30 13947 H 1382.96 -4.39358 0.491601 0
M  V30 13948 N 1382.02 -1.04567 -1.17913 0
M  V30 13949 C 1383.3 -0.666082 -1.8391 0
M  V30 13950 C 1383.68 0.854062 -1.93052 0
M  V30 13951 O 1383.03 1.75752 -1.46026 0
M  V30 13952 C 1383.24 -1.34776 -3.21926 0
M  V30 13953 C 1384.59 -1.48177 -3.97905 0
M  V30 13954 O 1385.61 -1.30627 -3.31384 0
M  V30 13955 O 1384.47 -1.76822 -5.17104 0
M  V30 13956 H 1381.56 -0.233694 -0.793294 0
M  V30 13957 H 1384.11 -1.14487 -1.25263 0
M  V30 13958 H 1382.88 -2.38514 -3.10204 0
M  V30 13959 H 1382.5 -0.857914 -3.88234 0
M  V30 13960 N 1383.5 1.34231 -0.825823 0
M  V30 13961 C 1384.43 2.31997 -0.264546 0
M  V30 13962 C 1385.41 1.58375 0.620592 0
M  V30 13963 O 1386.6 1.86341 0.546865 0
M  V30 13964 C 1383.73 3.42557 0.572025 0
M  V30 13965 C 1382.68 4.27454 -0.216219 0
M  V30 13966 C 1382.01 5.29509 0.743279 0
M  V30 13967 C 1383.31 5.02456 -1.42603 0
M  V30 13968 H 1385 2.79189 -1.08139 0
M  V30 13969 H 1382.55 1.34227 -0.521451 0
M  V30 13970 H 1384.5 4.09968 0.974889 0
M  V30 13971 H 1383.22 2.94021 1.42195 0
M  V30 13972 H 1381.88 3.61649 -0.600485 0
M  V30 13973 H 1381.53 4.77234 1.58924 0
M  V30 13974 H 1381.23 5.87188 0.220064 0
M  V30 13975 H 1382.76 5.99789 1.14394 0
M  V30 13976 H 1384.17 5.62706 -1.09702 0
M  V30 13977 H 1382.57 5.69723 -1.88509 0
M  V30 13978 H 1383.64 4.31983 -2.2027 0
M  V30 13979 N 1384.98 0.581051 1.46498 0
M  V30 13980 C 1386.2 0.0696654 2.07283 0
M  V30 13981 C 1386.63 -1.22525 1.42721 0
M  V30 13982 O 1385.99 -1.73967 0.510421 0
M  V30 13983 C 1386.04 -0.0843864 3.60501 0
M  V30 13984 O 1385.14 -1.14129 3.96293 0
M  V30 13985 H 1384.48 0.0620572 0.661094 0
M  V30 13986 H 1387.01 0.803522 1.88161 0
M  V30 13987 H 1387.02 -0.29108 4.0696 0
M  V30 13988 H 1385.7 0.861274 4.06884 0
M  V30 13989 H 1384.27 -0.913186 3.61546 0
M  V30 13990 N 1386.46 -1.54343 0.318742 0
M  V30 13991 C 1387.71 -2.00084 -0.284713 0
M  V30 13992 C 1388.03 -1.20855 -1.53033 0
M  V30 13993 O 1387.3 -0.309104 -1.93446 0
M  V30 13994 H 1385.88 -0.739123 -0.108193 0
M  V30 13995 H 1388.54 -1.90002 0.434174 0
M  V30 13996 H 1387.63 -3.07314 -0.544459 0
M  V30 13997 N 1387.94 -0.0468143 -1.5753 0
M  V30 13998 C 1389.35 0.309707 -1.56566 0
M  V30 13999 C 1389.55 1.7173 -1.05408 0
M  V30 14000 O 1388.61 2.4235 -0.708723 0
M  V30 14001 C 1389.92 0.142151 -3.00364 0
M  V30 14002 C 1391.47 0.213585 -3.1227 0
M  V30 14003 C 1391.94 0.0746102 -4.57939 0
M  V30 14004 N 1393.43 0.131027 -4.63015 0
M  V30 14005 C 1394.17 0.0475409 -5.7338 0
M  V30 14006 N 1393.67 -0.0880445 -6.92744 0
M  V30 14007 N 1395.46 0.102809 -5.62006 0
M  V30 14008 H 1387.61 -0.967057 -1.89108 0
M  V30 14009 H 1389.87 -0.375018 -0.870669 0
M  V30 14010 H 1389.58 -0.828171 -3.4181 0
M  V30 14011 H 1389.45 0.905006 -3.66182 0
M  V30 14012 H 1391.84 1.17438 -2.70726 0
M  V30 14013 H 1391.92 -0.57995 -2.49139 0
M  V30 14014 H 1391.56 -0.882839 -5.00168 0
M  V30 14015 H 1391.49 0.887235 -5.19072 0
M  V30 14016 H 1393.99 0.235246 -3.77167 0
M  V30 14017 H 1394.3 -0.144574 -7.72665 0
M  V30 14018 H 1392.64 -0.12307 -6.94891 0
M  V30 14019 H 1395.83 0.207259 -4.67641 0
M  V30 14020 H 1396.01 0.0342865 -6.47991 0
M  V30 14021 N 1389.41 1.55964 0.226527 0
M  V30 14022 C 1390.32 1.95169 1.30178 0
M  V30 14023 C 1391.34 0.854831 1.51554 0
M  V30 14024 O 1392.52 1.15798 1.64781 0
M  V30 14025 C 1389.58 2.25612 2.63249 0
M  V30 14026 C 1388.64 3.4884 2.50219 0
M  V30 14027 C 1387.88 3.77822 3.76944 0
M  V30 14028 O 1388.1 3.08556 4.79739 0
M  V30 14029 O 1387.03 4.7132 3.74354 0
M  V30 14030 H 1390.86 2.86794 0.999145 0
M  V30 14031 H 1388.44 1.43109 0.42898 0
M  V30 14032 H 1390.33 2.4641 3.41848 0
M  V30 14033 H 1389 1.37162 2.93203 0
M  V30 14034 H 1387.91 3.33326 1.69836 0
M  V30 14035 H 1389.24 4.37657 2.25205 0
M  V30 14036 N 1390.89 -0.493031 1.4969 0
M  V30 14037 C 1392.14 -1.24849 1.59814 0
M  V30 14038 C 1392.47 -1.92059 0.287555 0
M  V30 14039 O 1391.75 -1.81099 -0.709471 0
M  V30 14040 C 1392.03 -2.30929 2.76304 0
M  V30 14041 C 1391.88 -1.68167 4.17181 0
M  V30 14042 C 1393.2 -3.32427 2.8841 0
M  V30 14043 H 1390.32 -0.452553 0.581691 0
M  V30 14044 H 1392.96 -0.545455 1.82002 0
M  V30 14045 H 1391.11 -2.9089 2.57517 0
M  V30 14046 H 1392.78 -1.11971 4.47504 0
M  V30 14047 H 1391.03 -0.985496 4.22458 0
M  V30 14048 H 1391.7 -2.45148 4.94577 0
M  V30 14049 H 1394.17 -2.82464 3.05537 0
M  V30 14050 H 1393.05 -4.04004 3.71581 0
M  V30 14051 H 1393.31 -3.95234 1.98097 0
M  V30 14052 N 1392.37 -1.38898 -0.744656 0
M  V30 14053 C 1393.28 -1.39098 -1.88915 0
M  V30 14054 C 1394.3 -0.286956 -1.71617 0
M  V30 14055 O 1395.47 -0.526852 -1.94387 0
M  V30 14056 C 1392.54 -1.22352 -3.24393 0
M  V30 14057 C 1391.6 -2.4264 -3.54153 0
M  V30 14058 C 1390.83 -2.26683 -4.83167 0
M  V30 14059 O 1391.05 -1.26523 -5.56191 0
M  V30 14060 O 1389.99 -3.15464 -5.12607 0
M  V30 14061 H 1393.81 -2.35551 -1.91701 0
M  V30 14062 H 1391.4 -1.19911 -0.891158 0
M  V30 14063 H 1393.28 -1.15109 -4.05374 0
M  V30 14064 H 1391.96 -0.289886 -3.22399 0
M  V30 14065 H 1390.86 -2.55459 -2.73298 0
M  V30 14066 H 1392.2 -3.34664 -3.60917 0
M  V30 14067 N 1393.85 0.973806 -1.23914 0
M  V30 14068 C 1394.78 2.08526 -1.05068 0
M  V30 14069 C 1395.76 1.70065 0.0344761 0
M  V30 14070 O 1396.94 1.93755 -0.131432 0
M  V30 14071 C 1394.07 3.41198 -0.648165 0
M  V30 14072 C 1393.03 3.9359 -1.6814 0
M  V30 14073 C 1392.35 5.22534 -1.13414 0
M  V30 14074 C 1393.65 4.22116 -3.07597 0
M  V30 14075 H 1395.35 2.24551 -1.98034 0
M  V30 14076 H 1392.89 1.07905 -0.953546 0
M  V30 14077 H 1394.85 4.18383 -0.50334 0
M  V30 14078 H 1393.57 3.25056 0.317182 0
M  V30 14079 H 1392.23 3.18555 -1.81434 0
M  V30 14080 H 1391.88 5.02747 -0.159578 0
M  V30 14081 H 1391.58 5.58555 -1.82456 0
M  V30 14082 H 1393.1 6.02334 -1.0013 0
M  V30 14083 H 1394.52 4.90027 -2.97567 0
M  V30 14084 H 1392.91 4.69352 -3.73937 0
M  V30 14085 H 1393.98 3.29128 -3.56094 0
M  V30 14086 N 1395.33 1.05191 1.17357 0
M  V30 14087 C 1396.28 0.623047 2.19322 0
M  V30 14088 C 1397.26 -0.340467 1.57257 0
M  V30 14089 O 1398.45 -0.157698 1.76296 0
M  V30 14090 C 1395.58 -0.000731889 3.433 0
M  V30 14091 C 1394.67 0.986608 4.12464 0
M  V30 14092 N 1395.06 2.158 4.57454 0
M  V30 14093 C 1393.36 0.815082 4.38489 0
M  V30 14094 C 1394.06 2.78262 5.10828 0
M  V30 14095 N 1393.03 2.0606 5.03031 0
M  V30 14096 H 1396.84 1.51555 2.5181 0
M  V30 14097 H 1394.35 0.922048 1.33686 0
M  V30 14098 H 1396.35 -0.325738 4.15625 0
M  V30 14099 H 1395.01 -0.888627 3.12304 0
M  V30 14100 H 1396.02 2.53634 4.51542 0
M  V30 14101 H 1392.69 -0.021765 4.17494 0
M  V30 14102 H 1394.08 3.77599 5.55759 0
M  V30 14103 N 1396.8 -1.33791 0.83293 0
M  V30 14104 C 1397.73 -2.31853 0.276846 0
M  V30 14105 C 1398.72 -1.58702 -0.612184 0
M  V30 14106 O 1399.9 -1.86629 -0.536975 0
M  V30 14107 C 1397.03 -3.42855 -0.55385 0
M  V30 14108 C 1395.98 -4.27333 0.238884 0
M  V30 14109 C 1395.31 -5.29895 -0.715187 0
M  V30 14110 C 1396.61 -5.01692 1.45265 0
M  V30 14111 H 1398.3 -2.78611 1.09618 0
M  V30 14112 H 1395.85 -1.33949 0.528562 0
M  V30 14113 H 1397.8 -4.10479 -0.953133 0
M  V30 14114 H 1396.53 -2.94771 -1.40634 0
M  V30 14115 H 1395.19 -3.61325 0.619656 0
M  V30 14116 H 1394.83 -4.7807 -1.56391 0
M  V30 14117 H 1394.53 -5.87296 -0.188921 0
M  V30 14118 H 1396.06 -6.00387 -1.11211 0
M  V30 14119 H 1397.47 -5.62117 1.12685 0
M  V30 14120 H 1395.87 -5.68715 1.91528 0
M  V30 14121 H 1396.94 -4.30809 2.22558 0
M  V30 14122 N 1398.28 -0.588812 -1.46187 0
M  V30 14123 C 1399.7 -0.250962 -1.57615 0
M  V30 14124 C 1399.9 1.2467 -1.58302 0
M  V30 14125 O 1398.95 2.02876 -1.50325 0
M  V30 14126 C 1400.27 -0.905561 -2.8674 0
M  V30 14127 C 1401.82 -0.879721 -3.00383 0
M  V30 14128 C 1402.29 -1.51398 -4.32253 0
M  V30 14129 N 1403.78 -1.4786 -4.38967 0
M  V30 14130 C 1404.52 -1.93868 -5.39632 0
M  V30 14131 N 1404.01 -2.47876 -6.46938 0
M  V30 14132 N 1405.81 -1.84748 -5.30872 0
M  V30 14133 H 1397.96 -1.56148 -1.43985 0
M  V30 14134 H 1400.22 -0.653028 -0.68721 0
M  V30 14135 H 1399.93 -1.95935 -2.92066 0
M  V30 14136 H 1399.8 -0.417456 -3.74883 0
M  V30 14137 H 1402.19 0.165466 -2.94636 0
M  V30 14138 H 1402.27 -1.40591 -2.137 0
M  V30 14139 H 1401.91 -2.55839 -4.38758 0
M  V30 14140 H 1401.84 -0.962965 -5.17721 0
M  V30 14141 H 1404.33 -1.08387 -3.62023 0
M  V30 14142 H 1404.65 -2.80824 -7.1997 0
M  V30 14143 H 1402.99 -2.51905 -6.47741 0
M  V30 14144 H 1406.18 -1.42307 -4.45944 0
M  V30 14145 H 1406.35 -2.20919 -6.09179 0
M  V30 14146 N 1399.76 1.54172 -0.326923 0
M  V30 14147 C 1400.69 2.27402 0.530154 0
M  V30 14148 C 1401.67 1.28325 1.11655 0
M  V30 14149 O 1402.86 1.57142 1.14105 0
M  V30 14150 C 1399.99 3.03435 1.68951 0
M  V30 14151 C 1398.94 4.09877 1.23226 0
M  V30 14152 C 1398.27 4.7377 2.47882 0
M  V30 14153 C 1399.57 5.21161 0.344698 0
M  V30 14154 H 1401.26 2.99291 -0.0806959 0
M  V30 14155 H 1398.81 1.43944 -0.0402511 0
M  V30 14156 H 1400.76 3.53396 2.29541 0
M  V30 14157 H 1399.48 2.29169 2.327 0
M  V30 14158 H 1398.14 3.60805 0.649267 0
M  V30 14159 H 1397.79 3.96116 3.10002 0
M  V30 14160 H 1397.49 5.45674 2.17977 0
M  V30 14161 H 1399.01 5.26507 3.09229 0
M  V30 14162 H 1400.43 5.66859 0.856979 0
M  V30 14163 H 1398.83 5.99941 0.138276 0
M  V30 14164 H 1399.9 4.80874 -0.623575 0
M  V30 14165 N 1401.24 0.0551678 1.57503 0
M  V30 14166 C 1402.65 -0.3014 1.56728 0
M  V30 14167 C 1402.85 -1.71169 1.06317 0
M  V30 14168 O 1401.91 -2.4197 0.721566 0
M  V30 14169 C 1403.22 -0.12622 3.00435 0
M  V30 14170 C 1404.77 -0.197022 3.12379 0
M  V30 14171 C 1405.25 -0.0503235 4.57972 0
M  V30 14172 N 1406.74 -0.106471 4.63078 0
M  V30 14173 C 1407.47 -0.0171325 5.73397 0
M  V30 14174 N 1406.97 0.124781 6.92688 0
M  V30 14175 N 1408.76 -0.0730028 5.62053 0
M  V30 14176 H 1400.91 0.977072 1.88592 0
M  V30 14177 H 1403.18 0.37963 0.868668 0
M  V30 14178 H 1402.88 0.846286 3.41366 0
M  V30 14179 H 1402.76 -0.885574 3.66657 0
M  V30 14180 H 1405.14 -1.16 2.71345 0
M  V30 14181 H 1405.22 0.593155 2.48828 0
M  V30 14182 H 1404.87 0.909352 4.99693 0
M  V30 14183 H 1404.8 -0.859695 5.19535 0
M  V30 14184 H 1407.29 -0.215241 3.77287 0
M  V30 14185 H 1407.6 0.185548 7.72577 0
M  V30 14186 H 1405.95 0.15992 6.94816 0
M  V30 14187 H 1409.14 -0.182456 4.67744 0
M  V30 14188 H 1409.31 7.85052e-05 6.48 0
M  V30 14189 N 1402.72 -1.56081 -0.218252 0
M  V30 14190 C 1403.97 -1.78445 -0.94022 0
M  V30 14191 C 1404.28 -0.624317 -1.85369 0
M  V30 14192 O 1405.48 -0.731669 -2.61455 0
M  V30 14193 C 1403.94 -3.16026 -1.72208 0
M  V30 14194 C 1403.55 -4.39774 -0.854584 0
M  V30 14195 C 1405.29 -3.47714 -2.43506 0
M  V30 14196 C 1403.2 -5.68379 -1.63398 0
M  V30 14197 H 1402.13 -0.665303 -0.354806 0
M  V30 14198 H 1404.78 -1.82471 -0.194021 0
M  V30 14199 H 1403.16 -3.06185 -2.5113 0
M  V30 14200 H 1404.34 -4.60679 -0.105659 0
M  V30 14201 H 1402.65 -4.15627 -0.253562 0
M  V30 14202 H 1405.25 -4.41026 -3.02325 0
M  V30 14203 H 1405.59 -2.70367 -3.16555 0
M  V30 14204 H 1406.12 -3.58899 -1.71571 0
M  V30 14205 H 1402.86 -6.48628 -0.946704 0
M  V30 14206 H 1402.38 -5.5153 -2.35743 0
M  V30 14207 H 1404.06 -6.08672 -2.1938 0
M  V30 14208 N 1404.2 0.485086 -1.49949 0
M  V30 14209 C 1405.61 1.06629 -1.53255 0
M  V30 14210 C 1405.96 1.9344 -0.327915 0
M  V30 14211 O 1405.08 2.09011 0.560669 0
M  V30 14212 C 1405.68 1.94053 -2.77721 0
M  V30 14213 C 1404.24 2.47307 -2.83754 0
M  V30 14214 C 1403.38 1.25307 -2.47373 0
M  V30 14215 H 1406.33 0.268297 -1.56416 0
M  V30 14216 H 1406.36 2.78946 -2.58784 0
M  V30 14217 H 1405.87 1.30843 -3.65379 0
M  V30 14218 H 1403.97 3.1411 -2.00414 0
M  V30 14219 H 1404.08 2.83371 -3.86313 0
M  V30 14220 H 1402.45 1.5834 -1.99501 0
M  V30 14221 H 1403.23 0.637815 -3.37323 0
M  V30 14222 N 1405.67 1.39291 0.737279 0
M  V30 14223 C 1406.61 1.33728 1.86144 0
M  V30 14224 C 1407.62 0.246468 1.60924 0
M  V30 14225 O 1408.81 0.505252 1.712 0
M  V30 14226 C 1405.91 1.05312 3.22122 0
M  V30 14227 C 1405.08 2.25624 3.74716 0
M  V30 14228 C 1404.14 1.937 4.89251 0
M  V30 14229 O 1403.17 2.66361 5.03031 0
M  V30 14230 N 1404.37 0.901782 5.73453 0
M  V30 14231 H 1407.13 2.30604 1.91421 0
M  V30 14232 H 1404.69 1.33364 0.917919 0
M  V30 14233 H 1406.69 0.819784 3.9631 0
M  V30 14234 H 1405.26 0.171773 3.12128 0
M  V30 14235 H 1404.48 2.64923 2.91906 0
M  V30 14236 H 1405.76 3.05881 4.06589 0
M  V30 14237 H 1405.16 0.299553 5.64906 0
M  V30 14238 H 1403.72 0.728344 6.47718 0
M  V30 14239 N 1407.15 -0.967221 1.24429 0
M  V30 14240 C 1408.4 -1.71279 1.08588 0
M  V30 14241 C 1408.73 -1.90558 -0.374325 0
M  V30 14242 O 1408.01 -1.46742 -1.27659 0
M  V30 14243 C 1408.29 -3.10326 1.82674 0
M  V30 14244 C 1408.14 -2.98535 3.36447 0
M  V30 14245 C 1409.46 -4.09993 1.59981 0
M  V30 14246 H 1406.58 -0.621658 0.395867 0
M  V30 14247 H 1409.22 -1.12514 1.53103 0
M  V30 14248 H 1407.37 -3.60492 1.44836 0
M  V30 14249 H 1409.04 -2.55791 3.83886 0
M  V30 14250 H 1407.29 -2.34736 3.64803 0
M  V30 14251 H 1407.96 -3.97041 3.83487 0
M  V30 14252 H 1410.43 -3.68687 1.92897 0
M  V30 14253 H 1409.31 -5.05349 2.14274 0
M  V30 14254 H 1409.57 -4.38812 0.538173 0
M  V30 14255 N 1408.63 -1.05812 -1.16797 0
M  V30 14256 C 1409.88 -0.770398 -1.8684 0
M  V30 14257 C 1410.2 0.704986 -1.8181 0
M  V30 14258 O 1409.47 1.50977 -1.24832 0
M  V30 14259 H 1408.05 -0.281989 -0.691731 0
M  V30 14260 H 1410.71 -1.33859 -1.41661 0
M  V30 14261 H 1409.81 -1.09094 -2.92412 0
M  V30 14262 N 1410.11 1.33347 -0.840014 0
M  V30 14263 C 1411.06 2.26668 -0.246093 0
M  V30 14264 C 1412.04 1.49311 0.59958 0
M  V30 14265 O 1413.23 1.71148 0.45136 0
M  V30 14266 C 1410.36 3.38418 0.576924 0
M  V30 14267 C 1409.45 4.23173 -0.280322 0
M  V30 14268 N 1409.84 4.87185 -1.35959 0
M  V30 14269 C 1408.14 4.45949 -0.0675504 0
M  V30 14270 C 1408.84 5.50285 -1.88576 0
M  V30 14271 N 1407.81 5.3048 -1.18707 0
M  V30 14272 H 1411.62 2.73675 -1.0714 0
M  V30 14273 H 1409.13 1.47266 -0.684586 0
M  V30 14274 H 1411.13 4.04262 1.01871 0
M  V30 14275 H 1409.79 2.92958 1.4002 0
M  V30 14276 H 1410.8 4.87707 -1.74248 0
M  V30 14277 H 1407.48 4.11206 0.722188 0
M  V30 14278 H 1408.87 6.11252 -2.78963 0
M  V30 14279 N 1411.59 0.596556 1.45873 0
M  V30 14280 C 1412.82 0.093357 2.06389 0
M  V30 14281 C 1413.22 -1.2229 1.44367 0
M  V30 14282 O 1412.57 -1.75332 0.548131 0
M  V30 14283 C 1412.63 -0.132256 3.59257 0
M  V30 14284 C 1412.29 1.10051 4.43551 0
M  V30 14285 C 1413.29 2.01598 4.79223 0
M  V30 14286 C 1410.97 1.32625 4.84475 0
M  V30 14287 C 1412.97 3.14054 5.54661 0
M  V30 14288 C 1410.66 2.45384 5.5967 0
M  V30 14289 C 1411.65 3.35927 5.94678 0
M  V30 14290 O 1411.34 4.46726 6.6835 0
M  V30 14291 H 1411.07 0.0608944 0.673252 0
M  V30 14292 H 1413.63 0.821009 1.88278 0
M  V30 14293 H 1411.86 -0.914678 3.75727 0
M  V30 14294 H 1413.55 -0.585681 4.01652 0
M  V30 14295 H 1414.31 1.85379 4.48174 0
M  V30 14296 H 1410.19 0.630522 4.56668 0
M  V30 14297 H 1413.74 3.8475 5.81904 0
M  V30 14298 H 1409.63 2.6156 5.90133 0
M  V30 14299 H 1410.4 4.45268 6.86789 0
M  V30 14300 N 1413.06 -1.53996 0.335095 0
M  V30 14301 C 1414.31 -2.01069 -0.264388 0
M  V30 14302 C 1414.64 -1.22271 -1.50876 0
M  V30 14303 O 1413.92 -0.30806 -1.92045 0
M  V30 14304 C 1414.2 -3.55283 -0.587 0
M  V30 14305 C 1414.05 -4.44799 0.668877 0
M  V30 14306 C 1415.37 -4.17238 -1.40003 0
M  V30 14307 H 1412.49 -0.730901 -0.0946202 0
M  V30 14308 H 1415.13 -1.84497 0.453958 0
M  V30 14309 H 1413.28 -3.69536 -1.19899 0
M  V30 14310 H 1414.96 -4.42398 1.30698 0
M  V30 14311 H 1413.2 -4.14005 1.29547 0
M  V30 14312 H 1413.87 -5.5056 0.398523 0
M  V30 14313 H 1416.35 -4.06631 -0.88262 0
M  V30 14314 H 1415.22 -5.2523 -1.59451 0
M  V30 14315 H 1415.48 -3.71309 -2.39962 0
M  V30 14316 N 1414.54 -0.0635198 -1.57472 0
M  V30 14317 C 1415.79 0.608384 -1.93459 0
M  V30 14318 C 1416.12 1.6976 -0.943141 0
M  V30 14319 O 1415.4 1.94478 0.0289567 0
M  V30 14320 C 1415.68 1.19302 -3.39763 0
M  V30 14321 C 1415.53 0.11102 -4.49663 0
M  V30 14322 C 1416.85 2.101 -3.86712 0
M  V30 14323 H 1413.97 0.219688 -0.703496 0
M  V30 14324 H 1416.61 -0.127803 -1.8957 0
M  V30 14325 H 1414.76 1.82044 -3.43209 0
M  V30 14326 H 1416.43 -0.521606 -4.58342 0
M  V30 14327 H 1414.68 -0.559408 -4.30178 0
M  V30 14328 H 1415.35 0.560332 -5.49149 0
M  V30 14329 H 1417.82 1.57305 -3.8522 0
M  V30 14330 H 1416.7 2.47945 -4.89708 0
M  V30 14331 H 1416.96 3.00603 -3.24177 0
M  V30 14332 N 1416.02 1.56195 0.209972 0
M  V30 14333 C 1417.27 1.80011 0.93402 0
M  V30 14334 C 1417.6 0.635109 1.83521 0
M  V30 14335 O 1416.87 -0.365099 1.91043 0
M  V30 14336 C 1417.16 3.13989 1.76304 0
M  V30 14337 C 1417.01 4.40956 0.887567 0
M  V30 14338 C 1418.33 3.44514 2.73857 0
M  V30 14339 H 1415.45 0.654859 0.338125 0
M  V30 14340 H 1418.09 1.88921 0.20221 0
M  V30 14341 H 1416.24 3.06524 2.38695 0
M  V30 14342 H 1417.91 4.60452 0.279507 0
M  V30 14343 H 1416.15 4.33368 0.193533 0
M  V30 14344 H 1416.83 5.31164 1.50228 0
M  V30 14345 H 1419.3 3.52182 2.216 0
M  V30 14346 H 1418.18 4.39407 3.28957 0
M  V30 14347 H 1418.44 2.6726 3.52171 0
M  V30 14348 N 1417.5 -0.477127 1.50204 0
M  V30 14349 C 1418.74 -1.23147 1.6113 0
M  V30 14350 C 1419.08 -1.91743 0.307909 0
M  V30 14351 O 1418.35 -1.81841 -0.690223 0
M  V30 14352 C 1418.63 -2.27985 2.78738 0
M  V30 14353 C 1418.49 -1.63733 4.18941 0
M  V30 14354 C 1419.81 -3.29349 2.9192 0
M  V30 14355 H 1416.93 -0.446358 0.586459 0
M  V30 14356 H 1419.57 -0.52612 1.8257 0
M  V30 14357 H 1417.72 -2.88143 2.60588 0
M  V30 14358 H 1419.39 -1.07218 4.48667 0
M  V30 14359 H 1417.63 -0.940634 4.23479 0
M  V30 14360 H 1418.3 -2.39888 4.9715 0
M  V30 14361 H 1420.78 -2.79208 3.08516 0
M  V30 14362 H 1419.66 -4.0004 3.75845 0
M  V30 14363 H 1419.92 -3.93111 2.02278 0
M  V30 14364 N 1418.98 -1.3968 -0.729882 0
M  V30 14365 C 1419.89 -1.41094 -1.87429 0
M  V30 14366 C 1420.9 -0.305142 -1.71303 0
M  V30 14367 O 1422.08 -0.54744 -1.93817 0
M  V30 14368 C 1419.14 -1.25786 -3.23077 0
M  V30 14369 C 1418.2 -2.46382 -3.5156 0
M  V30 14370 C 1417.44 -2.31795 -4.80735 0
M  V30 14371 O 1417.66 -1.32415 -5.54818 0
M  V30 14372 O 1416.59 -3.20883 -5.09232 0
M  V30 14373 H 1420.42 -2.37571 -1.89192 0
M  V30 14374 H 1418.01 -1.2085 -0.878389 0
M  V30 14375 H 1419.89 -1.19402 -4.0413 0
M  V30 14376 H 1418.56 -0.324065 -3.22074 0
M  V30 14377 H 1417.47 -2.58343 -2.70573 0
M  V30 14378 H 1418.8 -3.38473 -3.57347 0
M  V30 14379 N 1420.45 0.960609 -1.2494 0
M  V30 14380 C 1421.68 1.73676 -1.11894 0
M  V30 14381 C 1422.09 1.86288 0.330648 0
M  V30 14382 O 1421.44 1.35575 1.23957 0
M  V30 14383 C 1421.5 3.17142 -1.69297 0
M  V30 14384 C 1421.16 3.27978 -3.18244 0
M  V30 14385 C 1422.16 3.12754 -4.15308 0
M  V30 14386 C 1419.84 3.51991 -3.5834 0
M  V30 14387 C 1421.84 3.21379 -5.50449 0
M  V30 14388 C 1419.52 3.60253 -4.9362 0
M  V30 14389 C 1420.52 3.44961 -5.89484 0
M  V30 14390 O 1420.21 3.52893 -7.22303 0
M  V30 14391 H 1419.94 0.551226 -0.391313 0
M  V30 14392 H 1422.5 1.21418 -1.65671 0
M  V30 14393 H 1420.73 3.70736 -1.09961 0
M  V30 14394 H 1422.42 3.76592 -1.51437 0
M  V30 14395 H 1423.18 2.94079 -3.85672 0
M  V30 14396 H 1419.06 3.62957 -2.84224 0
M  V30 14397 H 1422.6 3.0936 -6.25254 0
M  V30 14398 H 1418.5 3.78444 -5.22925 0
M  V30 14399 H 1419.27 3.69563 -7.30319 0
M  V30 14400 N 1421.93 1.0643 1.16234 0
M  V30 14401 C 1423.16 0.802671 1.91238 0
M  V30 14402 C 1423.58 -0.637222 1.76978 0
M  V30 14403 O 1422.94 -1.44419 1.09603 0
M  V30 14404 C 1422.99 1.20389 3.3991 0
M  V30 14405 O 1422.09 0.343516 4.10967 0
M  V30 14406 H 1421.43 0.29323 0.595745 0
M  V30 14407 H 1423.96 1.42046 1.47255 0
M  V30 14408 H 1423.97 1.17604 3.90683 0
M  V30 14409 H 1422.65 2.2527 3.49608 0
M  V30 14410 H 1421.23 0.433051 3.70377 0
M  V30 14411 N 1423.41 -1.329 0.847073 0
M  V30 14412 C 1424.64 -2.0171 0.460497 0
M  V30 14413 C 1425.05 -1.63699 -0.940649 0
M  V30 14414 O 1424.41 -0.854454 -1.61262 0
M  V30 14415 C 1424.46 -3.56799 0.581108 0
M  V30 14416 O 1424.18 -3.93442 1.92705 0
M  V30 14417 C 1425.68 -4.42882 0.192552 0
M  V30 14418 H 1422.9 -0.645887 0.181853 0
M  V30 14419 H 1425.45 -1.69648 1.14192 0
M  V30 14420 H 1423.6 -3.87364 -0.0524924 0
M  V30 14421 H 1424.02 -4.88157 1.91841 0
M  V30 14422 H 1425.49 -5.51025 0.327969 0
M  V30 14423 H 1425.97 -4.30571 -0.866315 0
M  V30 14424 H 1426.57 -4.17691 0.800918 0
M  V30 14425 N 1424.89 -0.604284 -1.45555 0
M  V30 14426 C 1425.8 0.118409 -2.34301 0
M  V30 14427 C 1426.81 0.863807 -1.51044 0
M  V30 14428 O 1427.99 0.822138 -1.83856 0
M  V30 14429 C 1425.06 1.10538 -3.28606 0
M  V30 14430 C 1424.12 0.362301 -4.27768 0
M  V30 14431 C 1423.35 1.30226 -5.17568 0
M  V30 14432 O 1423.57 2.53991 -5.10729 0
M  V30 14433 O 1422.51 0.801116 -5.96545 0
M  V30 14434 H 1426.33 -0.610816 -2.97494 0
M  V30 14435 H 1423.92 -0.364562 -1.44884 0
M  V30 14436 H 1425.8 1.67392 -3.86727 0
M  V30 14437 H 1424.47 1.81569 -2.67982 0
M  V30 14438 H 1423.38 -0.248616 -3.73273 0
M  V30 14439 H 1424.71 -0.307454 -4.91239 0
M  V30 14440 N 1426.37 1.53816 -0.343257 0
M  V30 14441 C 1427.33 2.23654 0.501161 0
M  V30 14442 C 1428.33 1.23664 1.02781 0
M  V30 14443 O 1429.52 1.48104 0.917103 0
M  V30 14444 C 1426.65 2.95596 1.69812 0
M  V30 14445 H 1427.84 2.997 -0.109626 0
M  V30 14446 H 1425.4 1.56013 -0.0946011 0
M  V30 14447 H 1426.13 2.23736 2.34761 0
M  V30 14448 H 1425.92 3.68938 1.32768 0
M  V30 14449 H 1427.41 3.48748 2.29706 0
M  V30 14450 N 1427.84 0.0718701 1.57436 0
M  V30 14451 C 1428.81 -0.880671 2.11605 0
M  V30 14452 C 1429.81 -1.22632 1.0401 0
M  V30 14453 O 1431 -1.15958 1.29997 0
M  V30 14454 C 1428.13 -2.18407 2.61746 0
M  V30 14455 H 1429.32 -0.410712 2.97074 0
M  V30 14456 H 1426.88 -0.176836 1.55296 0
M  V30 14457 H 1427.61 -2.6994 1.79731 0
M  V30 14458 H 1427.4 -1.94616 3.40392 0
M  V30 14459 H 1428.89 -2.86596 3.03731 0
M  V30 14460 N 1429.32 -1.56304 -0.201686 0
M  V30 14461 C 1430.25 -1.90538 -1.27389 0
M  V30 14462 C 1431.27 -0.795422 -1.42045 0
M  V30 14463 O 1432.46 -1.07381 -1.42589 0
M  V30 14464 C 1429.56 -2.11638 -2.64694 0
M  V30 14465 C 1428.73 -3.42755 -2.71731 0
M  V30 14466 C 1427.79 -3.53047 -3.90185 0
M  V30 14467 O 1426.81 -4.25923 -3.77595 0
M  V30 14468 N 1428.02 -2.85649 -5.05356 0
M  V30 14469 H 1430.78 -2.83106 -0.983411 0
M  V30 14470 H 1428.34 -1.57092 -0.391638 0
M  V30 14471 H 1430.33 -2.15818 -3.42352 0
M  V30 14472 H 1428.9 -1.256 -2.86258 0
M  V30 14473 H 1428.12 -3.50501 -1.80397 0
M  V30 14474 H 1429.41 -4.29092 -2.73418 0
M  V30 14475 H 1428.81 -2.26256 -5.18483 0
M  V30 14476 H 1427.37 -2.95465 -5.80985 0
M  V30 14477 N 1430.8 0.469154 -1.50455 0
M  V30 14478 C 1431.73 1.57493 -1.7239 0
M  V30 14479 C 1432.71 1.60161 -0.572915 0
M  V30 14480 O 1433.9 1.76397 -0.812259 0
M  V30 14481 C 1431.03 2.95804 -1.81981 0
M  V30 14482 C 1429.98 3.08001 -2.97185 0
M  V30 14483 C 1429.31 4.4798 -2.91922 0
M  V30 14484 C 1430.61 2.85039 -4.37665 0
M  V30 14485 H 1432.3 1.39389 -2.64974 0
M  V30 14486 H 1429.85 0.669133 -1.27509 0
M  V30 14487 H 1431.8 3.73091 -1.95911 0
M  V30 14488 H 1430.52 3.15068 -0.86021 0
M  V30 14489 H 1429.18 2.33148 -2.82909 0
M  V30 14490 H 1428.83 4.64165 -1.93803 0
M  V30 14491 H 1428.53 4.57076 -3.69263 0
M  V30 14492 H 1430.05 5.27284 -3.07903 0
M  V30 14493 H 1431.47 3.52074 -4.52456 0
M  V30 14494 H 1429.87 3.05578 -5.16471 0
M  V30 14495 H 1430.94 1.8088 -4.499 0
M  V30 14496 N 1432.28 1.40065 0.722464 0
M  V30 14497 C 1433.53 1.3797 1.48224 0
M  V30 14498 C 1433.85 -0.0202588 1.94489 0
M  V30 14499 O 1433.11 -1.0035 1.68013 0
M  V30 14500 C 1433.41 2.30949 2.72759 0
M  V30 14501 C 1433.07 3.7834 2.45295 0
M  V30 14502 C 1431.74 4.18497 2.37515 0
M  V30 14503 C 1434.09 4.71509 2.221 0
M  V30 14504 C 1431.42 5.4987 2.04598 0
M  V30 14505 C 1433.77 6.03173 1.90697 0
M  V30 14506 C 1432.43 6.4238 1.81394 0
M  V30 14507 H 1431.7 0.504869 0.542392 0
M  V30 14508 H 1434.35 1.72667 0.828149 0
M  V30 14509 H 1432.65 1.89413 3.42972 0
M  V30 14510 H 1434.35 2.26615 3.30827 0
M  V30 14511 H 1430.94 3.46519 2.52235 0
M  V30 14512 H 1435.12 4.41308 2.27071 0
M  V30 14513 H 1430.38 5.79157 1.95928 0
M  V30 14514 H 1434.55 6.74886 1.71761 0
M  V30 14515 H 1432.18 7.44094 1.55654 0
M  V30 14516 N 1433.76 -0.95397 1.25448 0
M  V30 14517 C 1435 -1.70118 1.10399 0
M  V30 14518 C 1435.34 -1.90945 -0.354093 0
M  V30 14519 O 1434.61 -1.48088 -1.26096 0
M  V30 14520 C 1434.89 -3.08371 1.85955 0
M  V30 14521 C 1434.75 -2.9495 3.39595 0
M  V30 14522 C 1436.07 -4.08273 1.64321 0
M  V30 14523 H 1433.19 -0.617424 0.402438 0
M  V30 14524 H 1435.83 -1.10884 1.54288 0
M  V30 14525 H 1433.98 -3.58936 1.48651 0
M  V30 14526 H 1435.65 -2.51705 3.86578 0
M  V30 14527 H 1433.89 -2.30853 3.67273 0
M  V30 14528 H 1434.56 -3.92952 3.87676 0
M  V30 14529 H 1437.04 -3.6662 1.96796 0
M  V30 14530 H 1435.92 -5.03048 2.19622 0
M  V30 14531 H 1436.18 -4.38217 0.584685 0
M  V30 14532 N 1435.24 -1.07045 -1.15668 0
M  V30 14533 C 1436.48 -0.792908 -1.86657 0
M  V30 14534 C 1436.81 0.679213 -1.81935 0
M  V30 14535 O 1436.09 1.49822 -1.2403 0
M  V30 14536 C 1436.37 -1.2978 -3.35901 0
M  V30 14537 C 1436.23 -2.83424 -3.49272 0
M  V30 14538 C 1437.54 -0.911821 -4.30551 0
M  V30 14539 H 1434.66 -0.289509 -0.677756 0
M  V30 14540 H 1437.31 -1.32769 -1.35913 0
M  V30 14541 H 1435.46 -0.84288 -3.79246 0
M  V30 14542 H 1437.13 -3.37182 -3.14811 0
M  V30 14543 H 1435.37 -3.21777 -2.90933 0
M  V30 14544 H 1436.04 -3.13819 -4.54116 0
M  V30 14545 H 1438.52 -1.30376 -3.95147 0
M  V30 14546 H 1437.39 -1.29247 -5.33467 0
M  V30 14547 H 1437.65 0.18255 -4.41723 0
M  V30 14548 N 1436.71 1.32449 -0.85411 0
M  V30 14549 C 1437.99 1.91902 -0.378533 0
M  V30 14550 C 1438.37 1.77811 1.13782 0
M  V30 14551 O 1437.72 1.17588 1.95922 0
M  V30 14552 C 1437.93 3.38683 -0.842299 0
M  V30 14553 C 1439.28 4.15817 -0.859161 0
M  V30 14554 O 1440.3 3.47399 -0.786901 0
M  V30 14555 O 1439.16 5.37985 -0.960933 0
M  V30 14556 H 1436.25 0.819614 -0.110284 0
M  V30 14557 H 1438.8 1.41222 -0.940974 0
M  V30 14558 H 1437.57 3.4288 -1.88544 0
M  V30 14559 H 1437.19 3.96767 -0.257278 0
M  V30 14560 N 1438.19 0.611994 1.45232 0
M  V30 14561 C 1439.44 0.109073 2.02506 0
M  V30 14562 C 1439.77 -1.25876 1.47881 0
M  V30 14563 O 1439.05 -1.83131 0.65524 0
M  V30 14564 C 1439.33 0.0749288 3.60022 0
M  V30 14565 C 1439.18 1.47374 4.24972 0
M  V30 14566 C 1440.5 -0.610602 4.35844 0
M  V30 14567 H 1437.62 0.0411101 0.735853 0
M  V30 14568 H 1440.26 0.78481 1.73034 0
M  V30 14569 H 1438.41 -0.500511 3.85262 0
M  V30 14570 H 1440.08 2.0966 4.10902 0
M  V30 14571 H 1438.33 2.03319 3.83202 0
M  V30 14572 H 1439 1.40206 5.33897 0
M  V30 14573 H 1441.47 -0.121445 4.15923 0
M  V30 14574 H 1440.35 -0.603614 5.45571 0
M  V30 14575 H 1440.61 -1.6775 4.09038 0
M  V30 14576 N 1439.67 -1.53632 0.351409 0
M  V30 14577 C 1440.62 -2.26782 -0.516983 0
M  V30 14578 C 1441.61 -1.29222 -1.09536 0
M  V30 14579 O 1442.82 -1.46901 -1.04019 0
M  V30 14580 H 1439.19 -0.728783 -0.185417 0
M  V30 14581 H 1441.16 -2.98151 0.121909 0
M  V30 14582 C 1439.91 -3.05943 -1.6521 0
M  V30 14583 H 1439.24 -3.80848 -1.21633 0
M  V30 14584 H 1440.68 -3.60328 -2.23472 0
M  V30 14585 C 1439.13 -2.15917 -2.58614 0
M  V30 14586 O 1439.66 -1.76049 -3.61067 0
M  V30 14587 N 1437.87 -1.80837 -2.27478 0
M  V30 14588 H 1437.42 -2.13456 -1.44202 0
M  V30 14589 H 1437.38 -1.20886 -2.90231 0
M  V30 14590 N 1441.15 -0.0802183 -1.57396 0
M  V30 14591 C 1442.39 0.587831 -1.94094 0
M  V30 14592 C 1442.73 1.6875 -0.961093 0
M  V30 14593 O 1442 1.94498 0.00832799 0
M  V30 14594 C 1442.28 1.15692 -3.41009 0
M  V30 14595 C 1442.14 0.0633211 -4.49755 0
M  V30 14596 C 1443.46 2.05987 -3.88918 0
M  V30 14597 H 1440.58 0.212214 -0.705786 0
M  V30 14598 H 1443.22 -0.147902 -1.89423 0
M  V30 14599 H 1441.37 1.78394 -3.4512 0
M  V30 14600 H 1443.04 -0.57019 -4.57763 0
M  V30 14601 H 1441.28 -0.605003 -4.2956 0
M  V30 14602 H 1441.95 0.502056 -5.49712 0
M  V30 14603 H 1444.43 1.5321 -3.86867 0
M  V30 14604 H 1443.31 2.42737 -4.92311 0
M  V30 14605 H 1443.57 2.97147 -3.27347 0
M  V30 14606 N 1442.63 1.56409 0.193394 0
M  V30 14607 C 1443.57 1.94681 1.23968 0
M  V30 14608 C 1444.54 0.807634 1.45143 0
M  V30 14609 O 1445.73 1.06593 1.58248 0
M  V30 14610 C 1442.87 2.29306 2.57901 0
M  V30 14611 C 1441.98 3.56296 2.4429 0
M  V30 14612 C 1441.12 3.80235 3.70938 0
M  V30 14613 C 1440.15 5.00645 3.52167 0
M  V30 14614 N 1439.29 5.20829 4.70831 0
M  V30 14615 H 1444.13 2.83884 0.906298 0
M  V30 14616 H 1441.67 1.40486 0.436146 0
M  V30 14617 H 1443.63 2.47398 3.35932 0
M  V30 14618 H 1442.26 1.43241 2.89278 0
M  V30 14619 H 1441.31 3.46241 1.57547 0
M  V30 14620 H 1442.62 4.44483 2.26354 0
M  V30 14621 H 1441.77 3.98575 4.57408 0
M  V30 14622 H 1440.51 2.90381 3.91829 0
M  V30 14623 H 1439.52 4.82225 2.64081 0
M  V30 14624 H 1440.74 5.92009 3.32719 0
M  V30 14625 H 1438.69 4.33923 4.91983 0
M  V30 14626 H 1438.61 6.03199 4.55726 0
M  V30 14627 H 1439.87 5.4363 5.58648 0
M  V30 14628 N 1444.1 -0.461169 1.50702 0
M  V30 14629 C 1445.33 -1.24019 1.66235 0
M  V30 14630 C 1445.75 -1.84827 0.349388 0
M  V30 14631 O 1445.11 -1.67743 -0.687888 0
M  V30 14632 C 1445.16 -2.31743 2.76274 0
M  V30 14633 O 1444.26 -3.3664 2.38217 0
M  V30 14634 H 1443.6 -0.364424 0.55506 0
M  V30 14635 H 1446.13 -0.547636 1.97135 0
M  V30 14636 H 1446.14 -2.76902 2.99649 0
M  V30 14637 H 1444.82 -1.86858 3.7156 0
M  V30 14638 H 1443.4 -2.97123 2.25327 0
M  V30 14639 N 1445.58 -1.40446 -0.715026 0
M  V30 14640 C 1446.81 -1.42263 -1.50917 0
M  V30 14641 C 1447.23 -0.0242402 -1.88084 0
M  V30 14642 O 1446.59 0.967817 -1.53307 0
M  V30 14643 C 1446.64 -2.31998 -2.7606 0
M  V30 14644 O 1445.74 -1.76361 -3.72787 0
M  V30 14645 H 1445.08 -0.483614 -0.454988 0
M  V30 14646 H 1447.61 -1.84682 -0.880549 0
M  V30 14647 H 1447.62 -2.47204 -3.24583 0
M  V30 14648 H 1446.3 -3.33614 -2.48343 0
M  V30 14649 H 1444.87 -1.70504 -3.31636 0
M  V30 14650 N 1447.06 0.947303 -1.25952 0
M  V30 14651 C 1448.31 1.68945 -1.10915 0
M  V30 14652 C 1448.63 1.91848 0.349216 0
M  V30 14653 O 1447.9 1.5108 1.24706 0
M  V30 14654 H 1446.48 0.626086 -0.407462 0
M  V30 14655 H 1449.14 1.13854 -1.58187 0
M  V30 14656 H 1448.24 2.6657 -1.62317 0
M  V30 14657 N 1448.54 1.07657 1.15099 0
M  V30 14658 C 1449.76 0.82291 1.90376 0
M  V30 14659 C 1450.19 -0.618415 1.77644 0
M  V30 14660 O 1449.55 -1.43248 1.11129 0
M  V30 14661 C 1449.59 1.23988 3.38614 0
M  V30 14662 O 1448.7 0.387085 4.10579 0
M  V30 14663 H 1448.04 0.299532 0.592602 0
M  V30 14664 H 1450.57 1.436 1.4574 0
M  V30 14665 H 1450.58 1.21741 3.89414 0
M  V30 14666 H 1449.25 2.28966 3.472 0
M  V30 14667 H 1447.83 0.472311 3.69897 0
M  V30 14668 N 1450.02 -1.31994 0.861122 0
M  V30 14669 C 1451.26 -1.97317 0.468371 0
M  V30 14670 C 1451.6 -1.67954 -0.974941 0
M  V30 14671 O 1450.87 -0.971243 -1.68514 0
M  V30 14672 C 1451.15 -3.52918 0.715607 0
M  V30 14673 C 1451.01 -3.91888 2.20781 0
M  V30 14674 C 1452.33 -4.39747 0.17624 0
M  V30 14675 H 1449.44 -0.716733 0.171646 0
M  V30 14676 H 1452.09 -1.56269 1.08074 0
M  V30 14677 H 1450.24 -3.88013 0.194387 0
M  V30 14678 H 1451.91 -3.66938 2.7956 0
M  V30 14679 H 1450.15 -3.40813 2.68382 0
M  V30 14680 H 1450.82 -5.00346 2.33147 0
M  V30 14681 H 1453.3 -4.11424 0.622043 0
M  V30 14682 H 1452.17 -5.47592 0.378748 0
M  V30 14683 H 1452.44 -4.32393 -0.921358 0
M  V30 14684 N 1451.49 -0.619688 -1.44906 0
M  V30 14685 C 1452.42 0.0791121 -2.33366 0
M  V30 14686 C 1453.41 0.846503 -1.47541 0
M  V30 14687 O 1454.59 0.814657 -1.76287 0
M  V30 14688 C 1451.72 1.06901 -3.30438 0
M  V30 14689 C 1450.67 0.41403 -4.25993 0
M  V30 14690 C 1450 1.51303 -5.12846 0
M  V30 14691 C 1451.3 -0.672483 -5.17953 0
M  V30 14692 H 1452.99 -0.659551 -2.92045 0
M  V30 14693 H 1450.54 -0.318623 -1.40431 0
M  V30 14694 H 1452.49 1.56653 -3.912 0
M  V30 14695 H 1451.22 1.83842 -2.69944 0
M  V30 14696 H 1449.88 -0.0627315 -3.66546 0
M  V30 14697 H 1449.52 2.27303 -4.48712 0
M  V30 14698 H 1449.22 1.08022 -5.77586 0
M  V30 14699 H 1450.75 2.01258 -5.76479 0
M  V30 14700 H 1452.16 -0.258542 -5.72717 0
M  V30 14701 H 1450.56 -1.02776 -5.91234 0
M  V30 14702 H 1451.63 -1.54425 -4.59653 0
M  V30 14703 N 1452.97 1.53444 -0.359552 0
M  V30 14704 C 1453.94 2.24173 0.477412 0
M  V30 14705 C 1454.94 1.24747 1.01464 0
M  V30 14706 O 1456.13 1.49069 0.901343 0
M  V30 14707 C 1453.26 2.9738 1.66667 0
M  V30 14708 H 1454.45 2.99566 -0.141407 0
M  V30 14709 H 1452 1.55904 -0.111143 0
M  V30 14710 H 1452.74 2.26214 2.32374 0
M  V30 14711 H 1452.52 3.70325 1.28848 0
M  V30 14712 H 1454.01 3.51165 2.25994 0
M  V30 14713 N 1454.45 0.0885642 1.57351 0
M  V30 14714 C 1455.7 -0.575536 1.93732 0
M  V30 14715 C 1456.02 -1.69126 0.970644 0
M  V30 14716 O 1455.29 -1.95888 0.0215907 0
M  V30 14717 H 1453.87 -0.215592 0.715213 0
M  V30 14718 H 1456.53 0.150362 1.94319 0
M  V30 14719 H 1455.63 -0.989979 2.95983 0
M  V30 14720 N 1455.93 -1.56509 -0.185096 0
M  V30 14721 C 1456.86 -1.91878 -1.25361 0
M  V30 14722 C 1457.87 -0.810443 -1.41194 0
M  V30 14723 O 1459.06 -1.08887 -1.41442 0
M  V30 14724 C 1456.16 -2.14433 -2.62434 0
M  V30 14725 C 1455.34 -3.45618 -2.6808 0
M  V30 14726 C 1454.39 -3.57165 -3.86419 0
M  V30 14727 O 1453.42 -4.29904 -3.73056 0
M  V30 14728 N 1454.62 -2.90993 -5.02298 0
M  V30 14729 H 1457.39 -2.84133 -0.953328 0
M  V30 14730 H 1454.95 -1.57498 -0.374955 0
M  V30 14731 H 1456.94 -2.19437 -3.40044 0
M  V30 14732 H 1455.51 -1.28629 -2.84909 0
M  V30 14733 H 1454.73 -3.52394 -1.76669 0
M  V30 14734 H 1456.02 -4.31968 -2.68851 0
M  V30 14735 H 1455.42 -2.31743 -5.16054 0
M  V30 14736 H 1453.97 -3.01611 -5.77819 0
M  V30 14737 N 1457.41 0.45317 -1.50944 0
M  V30 14738 C 1458.65 1.20568 -1.63068 0
M  V30 14739 C 1458.99 1.91229 -0.338375 0
M  V30 14740 O 1458.26 1.82916 0.661207 0
M  V30 14741 C 1458.54 2.23522 -2.8233 0
M  V30 14742 C 1458.4 1.57047 -4.21493 0
M  V30 14743 C 1459.72 3.24663 -2.97123 0
M  V30 14744 H 1456.83 0.436971 -0.593486 0
M  V30 14745 H 1459.48 0.497008 -1.83384 0
M  V30 14746 H 1457.63 2.83961 -2.65139 0
M  V30 14747 H 1459.3 1.00067 -4.50316 0
M  V30 14748 H 1457.54 0.873143 -4.24922 0
M  V30 14749 H 1458.21 2.31949 -5.00903 0
M  V30 14750 H 1460.69 2.74264 -3.12919 0
M  V30 14751 H 1459.56 3.9401 -3.82161 0
M  V30 14752 H 1459.83 3.89843 -2.08506 0
M  V30 14753 N 1458.88 1.40823 0.707568 0
M  V30 14754 C 1459.83 1.4191 1.84294 0
M  V30 14755 C 1460.83 0.298592 1.66748 0
M  V30 14756 O 1462.03 0.47003 1.73755 0
M  V30 14757 H 1458.41 0.44376 0.607109 0
M  V30 14758 H 1460.38 2.37623 1.80494 0
M  V30 14759 C 1459.13 1.30643 3.22223 0
M  V30 14760 H 1458.45 2.16145 3.36335 0
M  V30 14761 H 1459.89 1.35463 4.01778 0
M  V30 14762 C 1458.35 0.0174867 3.36895 0
M  V30 14763 O 1458.88 -0.942398 3.90489 0
M  V30 14764 N 1457.09 -0.0546572 2.90549 0
M  V30 14765 H 1456.63 0.727204 2.47122 0
M  V30 14766 H 1456.59 -0.916521 3.00744 0
M  V30 14767 N 1460.36 -0.94061 1.26453 0
M  V30 14768 C 1461.61 -1.68132 1.1142 0
M  V30 14769 C 1461.92 -1.92587 -0.342006 0
M  V30 14770 O 1463.13 -2.64489 -0.613018 0
M  V30 14771 C 1461.59 -3.02758 1.94591 0
M  V30 14772 C 1461.19 -2.86049 3.4479 0
M  V30 14773 C 1462.94 -3.80516 1.88169 0
M  V30 14774 C 1460.85 -4.1615 4.20206 0
M  V30 14775 H 1459.78 -0.630591 0.413366 0
M  V30 14776 H 1462.43 -1.04602 1.50767 0
M  V30 14777 H 1460.81 -3.67272 1.48078 0
M  V30 14778 H 1461.98 -2.3038 3.99076 0
M  V30 14779 H 1460.3 -2.21732 3.52454 0
M  V30 14780 H 1462.89 -4.76904 2.41799 0
M  V30 14781 H 1463.24 -4.07477 0.852531 0
M  V30 14782 H 1463.77 -3.22776 2.32509 0
M  V30 14783 H 1460.51 -3.94373 5.23593 0
M  V30 14784 H 1460.03 -4.71531 3.707 0
M  V30 14785 H 1461.71 -4.84602 4.28684 0
M  V30 14786 N 1461.84 -1.08266 -1.14527 0
M  V30 14787 C 1463.07 -0.831673 -1.89121 0
M  V30 14788 C 1463.48 0.619702 -1.78763 0
M  V30 14789 O 1462.82 1.43748 -1.14377 0
M  V30 14790 C 1462.88 -1.17276 -3.39833 0
M  V30 14791 C 1462.55 -2.62662 -3.73975 0
M  V30 14792 C 1463.54 -3.60913 -3.74216 0
M  V30 14793 C 1461.23 -2.9848 -4.03999 0
M  V30 14794 C 1463.22 -4.93012 -4.04002 0
M  V30 14795 C 1460.91 -4.30773 -4.33448 0
M  V30 14796 C 1461.91 -5.27849 -4.33433 0
M  V30 14797 O 1461.6 -6.57765 -4.6217 0
M  V30 14798 H 1461.33 -0.299687 -0.60594 0
M  V30 14799 H 1463.88 -1.44498 -1.45978 0
M  V30 14800 H 1462.11 -0.502458 -3.83422 0
M  V30 14801 H 1463.8 -0.902831 -3.95732 0
M  V30 14802 H 1464.57 -3.34585 -3.5111 0
M  V30 14803 H 1460.45 -2.23561 -4.03164 0
M  V30 14804 H 1463.99 -5.68776 -4.03906 0
M  V30 14805 H 1459.89 -4.5685 -4.56024 0
M  V30 14806 H 1460.66 -6.63057 -4.79893 0
M  V30 14807 N 1463.32 1.31536 -0.86811 0
M  V30 14808 C 1464.54 2.01487 -0.491705 0
M  V30 14809 C 1464.97 1.64744 0.907803 0
M  V30 14810 O 1464.33 0.855093 1.59868 0
M  V30 14811 C 1464.38 3.54621 -0.65395 0
M  V30 14812 O 1463.48 4.11252 0.307532 0
M  V30 14813 H 1462.82 0.634469 -0.195819 0
M  V30 14814 H 1465.35 1.67775 -1.17101 0
M  V30 14815 H 1465.36 4.04323 -0.546539 0
M  V30 14816 H 1464.04 3.80704 -1.67443 0
M  V30 14817 H 1462.61 3.72577 0.155233 0
M  V30 14818 N 1464.8 0.627364 1.44575 0
M  V30 14819 C 1466.04 0.133615 2.03963 0
M  V30 14820 C 1466.4 -1.22005 1.48252 0
M  V30 14821 O 1467.6 -1.80569 1.99118 0
M  V30 14822 C 1465.87 0.115834 3.57212 0
M  V30 14823 S 1467.43 -0.313843 4.37676 0
M  V30 14824 H 1464.25 0.0592399 0.708528 0
M  V30 14825 H 1466.85 0.829908 1.77011 0
M  V30 14826 H 1465.56 1.10422 3.95266 0
M  V30 14827 H 1465.09 -0.601828 3.88769 0
M  V30 14828 H 1467.1 -1.55892 4.71075 0
M  V30 14829 N 1466.28 -1.53251 0.367684 0
M  V30 14830 C 1467.22 -2.27318 -0.4929 0
M  V30 14831 C 1468.22 -1.30376 -1.08159 0
M  V30 14832 O 1469.42 -1.47996 -1.02455 0
M  V30 14833 H 1465.8 -0.730709 -0.177677 0
M  V30 14834 H 1467.77 -2.98005 0.153525 0
M  V30 14835 C 1466.52 -3.07678 -1.61955 0
M  V30 14836 H 1465.84 -3.82117 -1.17587 0
M  V30 14837 H 1467.28 -3.62678 -2.19638 0
M  V30 14838 C 1465.74 -2.18648 -2.5631 0
M  V30 14839 O 1466.27 -1.79869 -3.5918 0
M  V30 14840 N 1464.48 -1.83239 -2.25548 0
M  V30 14841 H 1464.02 -2.14973 -1.4193 0
M  V30 14842 H 1463.98 -1.23957 -2.88933 0
M  V30 14843 N 1467.75 -0.0969077 -1.57302 0
M  V30 14844 C 1468.98 0.573872 -1.9847 0
M  V30 14845 C 1469.39 1.62149 -0.974894 0
M  V30 14846 O 1468.73 1.83649 0.0434873 0
M  V30 14847 C 1468.8 1.2781 -3.36013 0
M  V30 14848 C 1468.46 0.381022 -4.55409 0
M  V30 14849 C 1469.46 -0.371559 -5.18571 0
M  V30 14850 C 1467.14 0.29855 -5.01412 0
M  V30 14851 C 1469.14 -1.19457 -6.26106 0
M  V30 14852 C 1466.82 -0.528116 -6.08814 0
M  V30 14853 C 1467.82 -1.27333 -6.71026 0
M  V30 14854 O 1467.51 -2.08631 -7.76356 0
M  V30 14855 H 1467.24 0.158369 -0.657187 0
M  V30 14856 H 1469.8 -0.173415 -2.04667 0
M  V30 14857 H 1468.03 2.07199 -3.26505 0
M  V30 14858 H 1469.71 1.84359 -3.61617 0
M  V30 14859 H 1470.48 -0.317586 -4.83959 0
M  V30 14860 H 1466.36 0.868247 -4.5275 0
M  V30 14861 H 1469.9 -1.77673 -6.74595 0
M  V30 14862 H 1465.8 -0.583563 -6.42857 0
M  V30 14863 H 1466.57 -2.01333 -7.93352 0
M  V30 14864 N 1469.23 1.56605 0.176793 0
M  V30 14865 C 1470.46 1.8617 0.91408 0
M  V30 14866 C 1470.88 0.68262 1.75277 0
M  V30 14867 O 1470.24 -0.368391 1.77518 0
M  V30 14868 C 1470.29 3.14109 1.7711 0
M  V30 14869 O 1469.39 2.95947 2.87209 0
M  V30 14870 H 1468.73 0.612507 0.25638 0
M  V30 14871 H 1471.26 2.03837 0.176586 0
M  V30 14872 H 1471.27 3.45373 2.17213 0
M  V30 14873 H 1469.95 3.9954 1.15502 0
M  V30 14874 H 1468.52 2.76024 2.50729 0
M  V30 14875 N 1470.71 -0.445159 1.51182 0
M  V30 14876 C 1471.96 -1.19701 1.63705 0
M  V30 14877 C 1472.29 -1.91047 0.348511 0
M  V30 14878 O 1471.56 -1.83264 -0.651497 0
M  V30 14879 C 1471.85 -2.22021 2.83511 0
M  V30 14880 C 1471.7 -1.54809 4.2232 0
M  V30 14881 C 1473.02 -3.23083 2.9884 0
M  V30 14882 H 1470.14 -0.433818 0.595795 0
M  V30 14883 H 1472.78 -0.487276 1.83645 0
M  V30 14884 H 1470.93 -2.82551 2.66641 0
M  V30 14885 H 1472.6 -0.976774 4.5084 0
M  V30 14886 H 1470.84 -0.850596 4.25379 0
M  V30 14887 H 1471.52 -2.29289 5.02126 0
M  V30 14888 H 1473.99 -2.72601 3.14369 0
M  V30 14889 H 1472.87 -3.91978 3.84246 0
M  V30 14890 H 1473.13 -3.88732 2.1057 0
M  V30 14891 N 1472.19 -1.41197 -0.700089 0
M  V30 14892 C 1473.12 -1.45456 -1.8266 0
M  V30 14893 C 1474.1 -0.313719 -1.67182 0
M  V30 14894 O 1475.28 -0.524528 -1.86982 0
M  V30 14895 C 1472.41 -1.33161 -3.20758 0
M  V30 14896 C 1471.37 -2.4501 -3.50933 0
M  V30 14897 C 1470.69 -2.17782 -4.88339 0
M  V30 14898 C 1471.99 -3.87352 -3.50365 0
M  V30 14899 H 1473.69 -2.39735 -1.79353 0
M  V30 14900 H 1471.23 -1.1539 -0.861465 0
M  V30 14901 H 1473.19 -1.34754 -3.99274 0
M  V30 14902 H 1471.91 -0.353646 -3.2468 0
M  V30 14903 H 1470.57 -2.42692 -2.74766 0
M  V30 14904 H 1470.22 -1.1834 -4.88881 0
M  V30 14905 H 1469.92 -2.92728 -5.09494 0
M  V30 14906 H 1471.44 -2.21083 -5.6917 0
M  V30 14907 H 1472.86 -3.9141 -4.18893 0
M  V30 14908 H 1471.25 -4.61944 -3.83051 0
M  V30 14909 H 1472.32 -4.15827 -2.4943 0
M  V30 14910 N 1473.67 0.933891 -1.2695 0
M  V30 14911 C 1474.91 1.69554 -1.14153 0
M  V30 14912 C 1475.27 1.89503 0.308639 0
M  V30 14913 O 1476.47 2.62925 0.558894 0
M  V30 14914 C 1474.74 3.02894 -1.8971 0
M  V30 14915 S 1476.3 3.94051 -1.93053 0
M  V30 14916 H 1473.12 0.582546 -0.407629 0
M  V30 14917 H 1475.72 1.11233 -1.60772 0
M  V30 14918 H 1474.42 2.86061 -2.94274 0
M  V30 14919 H 1473.96 3.6627 -1.43561 0
M  V30 14920 H 1475.97 4.85551 -1.02249 0
M  V30 14921 N 1475.14 1.08871 1.13951 0
M  V30 14922 C 1476.56 0.817282 1.37086 0
M  V30 14923 C 1476.76 -0.571159 1.93236 0
M  V30 14924 O 1475.82 -1.32708 2.14813 0
M  V30 14925 C 1477.13 1.90386 2.32752 0
M  V30 14926 C 1478.68 1.93043 2.46381 0
M  V30 14927 C 1479.15 3.00828 3.4535 0
M  V30 14928 N 1480.64 3.0003 3.52897 0
M  V30 14929 C 1481.38 3.80073 4.29339 0
M  V30 14930 N 1480.87 4.70008 5.08984 0
M  V30 14931 N 1482.67 3.68355 4.24583 0
M  V30 14932 H 1474.82 1.98393 0.758537 0
M  V30 14933 H 1477.08 0.861229 0.396219 0
M  V30 14934 H 1476.79 2.90233 1.9864 0
M  V30 14935 H 1476.66 1.77722 3.32708 0
M  V30 14936 H 1479.05 0.938382 2.79783 0
M  V30 14937 H 1479.13 2.09785 1.4637 0
M  V30 14938 H 1478.77 4.00242 3.1268 0
M  V30 14939 H 1478.7 2.8133 4.45153 0
M  V30 14940 H 1481.19 2.3485 2.96064 0
M  V30 14941 H 1481.51 5.27678 5.64602 0
M  V30 14942 H 1479.85 4.74047 5.08236 0
M  V30 14943 H 1483.04 2.9746 3.61435 0
M  V30 14944 H 1483.22 4.30974 4.83906 0
M  V30 14945 N 1476.62 -1.31073 0.875073 0
M  V30 14946 C 1477.85 -2.01223 0.502383 0
M  V30 14947 C 1478.27 -1.65223 -0.899053 0
M  V30 14948 O 1477.63 -0.863559 -1.59412 0
M  V30 14949 C 1477.68 -3.54269 0.672747 0
M  V30 14950 O 1476.78 -4.11409 -0.285718 0
M  V30 14951 H 1476.12 -0.633422 0.199181 0
M  V30 14952 H 1478.65 -1.67152 1.17989 0
M  V30 14953 H 1478.66 -4.04027 0.567973 0
M  V30 14954 H 1477.34 -3.79811 1.69459 0
M  V30 14955 H 1475.91 -3.72654 -0.135472 0
M  V30 14956 N 1478.1 -0.635022 -1.4424 0
M  V30 14957 C 1479.06 0.0579377 -2.29127 0
M  V30 14958 C 1480.06 0.768489 -1.41248 0
M  V30 14959 O 1481.25 0.612489 -1.63077 0
M  V30 14960 C 1478.39 1.09266 -3.22914 0
M  V30 14961 H 1479.58 -0.688723 -2.91885 0
M  V30 14962 H 1477.13 -0.395347 -1.51217 0
M  V30 14963 H 1477.87 1.86917 -2.65014 0
M  V30 14964 H 1477.65 0.587036 -3.87681 0
M  V30 14965 H 1479.14 1.57716 -3.86672 0
M  V30 14966 N 1479.58 1.53054 -0.375806 0
M  V30 14967 C 1480.82 2.017 0.210985 0
M  V30 14968 C 1481.16 1.26228 1.47581 0
M  V30 14969 O 1480.43 0.358869 1.91161 0
M  V30 14970 C 1480.72 3.56715 0.492596 0
M  V30 14971 C 1480.57 4.42869 -0.786573 0
M  V30 14972 C 1481.89 4.20803 1.28891 0
M  V30 14973 H 1479.01 0.733153 0.0752084 0
M  V30 14974 H 1481.65 1.83229 -0.502715 0
M  V30 14975 H 1479.8 3.72585 1.10059 0
M  V30 14976 H 1481.47 4.38777 -1.42381 0
M  V30 14977 H 1479.71 4.10425 -1.40478 0
M  V30 14978 H 1480.38 5.49309 -0.544354 0
M  V30 14979 H 1482.86 4.08828 0.774498 0
M  V30 14980 H 1481.74 5.29273 1.45469 0
M  V30 14981 H 1482 3.77541 2.30033 0
M  V30 14982 N 1481.06 0.105248 1.57248 0
M  V30 14983 C 1482.31 -0.555797 1.93891 0
M  V30 14984 C 1482.62 -1.68703 0.989883 0
M  V30 14985 O 1483.82 -2.40991 1.25043 0
M  V30 14986 C 1482.28 -1.04006 3.44544 0
M  V30 14987 C 1481.89 0.0619641 4.47957 0
M  V30 14988 C 1483.63 -1.67327 3.90131 0
M  V30 14989 C 1481.54 -0.438229 5.89774 0
M  V30 14990 H 1480.47 -0.211391 0.723761 0
M  V30 14991 H 1483.12 0.182887 1.82586 0
M  V30 14992 H 1481.5 -1.83275 3.51036 0
M  V30 14993 H 1482.68 0.837803 4.5312 0
M  V30 14994 H 1480.99 0.600973 4.1204 0
M  V30 14995 H 1483.59 -2.0584 4.93492 0
M  V30 14996 H 1483.93 -2.54638 3.29341 0
M  V30 14997 H 1484.46 -0.946231 3.86382 0
M  V30 14998 H 1481.2 0.398506 6.54288 0
M  V30 14999 H 1480.72 -1.18085 5.88061 0
M  V30 15000 H 1482.4 -0.903922 6.40655 0
M  V30 15001 N 1482.53 -1.56697 -0.168486 0
M  V30 15002 C 1483.81 -1.73032 -0.912097 0
M  V30 15003 C 1484.19 -0.667424 -2.00271 0
M  V30 15004 O 1483.54 0.317307 -2.26286 0
M  V30 15005 C 1483.75 -3.16334 -1.47424 0
M  V30 15006 C 1485.1 -3.77378 -1.94606 0
M  V30 15007 O 1486.12 -3.19629 -1.57212 0
M  V30 15008 O 1484.98 -4.78781 -2.63497 0
M  V30 15009 H 1482.07 -0.706713 -0.429518 0
M  V30 15010 H 1484.62 -1.68981 -0.156093 0
M  V30 15011 H 1483.39 -3.85179 -0.689421 0
M  V30 15012 H 1483.02 -3.24723 -2.29435 0
M  V30 15013 N 1484.01 0.437135 -1.51416 0
M  V30 15014 C 1484.96 1.52903 -1.69129 0
M  V30 15015 C 1485.95 1.51379 -0.54528 0
M  V30 15016 O 1487.14 1.57828 -0.8012 0
M  V30 15017 C 1484.27 2.91092 -1.8199 0
M  V30 15018 C 1483.35 2.97372 -3.02375 0
M  V30 15019 N 1483.74 2.73395 -4.25545 0
M  V30 15020 C 1482.04 3.28532 -3.01634 0
M  V30 15021 C 1482.74 2.85523 -5.06805 0
M  V30 15022 N 1481.72 3.17201 -4.41457 0
M  V30 15023 H 1485.52 1.33118 -2.62025 0
M  V30 15024 H 1483.04 0.644444 -1.49066 0
M  V30 15025 H 1485.03 3.69645 -1.9279 0
M  V30 15026 H 1483.69 3.11898 -0.902757 0
M  V30 15027 H 1484.7 2.4832 -4.54486 0
M  V30 15028 H 1481.38 3.5511 -2.19552 0
M  V30 15029 H 1482.77 2.70938 -6.14852 0
M  V30 15030 N 1485.49 1.41566 0.692592 0
M  V30 15031 C 1486.42 1.38067 1.81694 0
M  V30 15032 C 1487.4 0.247482 1.60706 0
M  V30 15033 O 1488.59 0.43487 1.83415 0
M  V30 15034 C 1485.71 1.15438 3.18421 0
M  V30 15035 C 1484.76 2.31515 3.58194 0
M  V30 15036 S 1485.59 3.94003 3.6266 0
M  V30 15037 C 1486.75 3.73683 5.02108 0
M  V30 15038 H 1486.98 2.33215 1.84386 0
M  V30 15039 H 1484.51 1.28125 0.861585 0
M  V30 15040 H 1486.47 1.03069 3.9735 0
M  V30 15041 H 1485.13 0.219055 3.13335 0
M  V30 15042 H 1484.33 2.11383 4.57529 0
M  V30 15043 H 1483.93 2.40307 2.86581 0
M  V30 15044 H 1486.22 3.33573 5.89691 0
M  V30 15045 H 1487.16 4.72631 5.27281 0
M  V30 15046 H 1487.57 3.06899 4.73786 0
M  V30 15047 N 1486.97 -0.927146 1.27443 0
M  V30 15048 C 1488.19 -1.71426 1.16739 0
M  V30 15049 C 1488.62 -1.86122 -0.272063 0
M  V30 15050 O 1487.98 -1.36165 -1.19703 0
M  V30 15051 C 1488.02 -3.09131 1.85661 0
M  V30 15052 O 1487.13 -3.95897 1.15495 0
M  V30 15053 H 1486.47 -0.525428 0.405983 0
M  V30 15054 H 1489 -1.16022 1.68523 0
M  V30 15055 H 1489.01 -3.59442 1.93042 0
M  V30 15056 H 1487.68 -2.97752 2.90373 0
M  V30 15057 H 1486.26 -3.54337 1.16187 0
M  V30 15058 N 1488.45 -1.09474 -1.13372 0
M  V30 15059 C 1489.86 -0.824541 -1.36651 0
M  V30 15060 C 1490.06 0.560903 -1.93536 0
M  V30 15061 O 1489.12 1.31567 -2.15514 0
M  V30 15062 C 1490.43 -1.91618 -2.31739 0
M  V30 15063 C 1491.98 -1.94346 -2.45354 0
M  V30 15064 C 1492.45 -3.02655 -3.4375 0
M  V30 15065 N 1493.95 -3.01898 -3.513 0
M  V30 15066 C 1494.68 -3.82344 -4.27318 0
M  V30 15067 N 1494.18 -4.727 -5.06484 0
M  V30 15068 N 1495.97 -3.70602 -4.22623 0
M  V30 15069 H 1488.12 -1.98793 -0.748005 0
M  V30 15070 H 1490.38 -0.863318 -0.391646 0
M  V30 15071 H 1490.09 -2.91282 -1.97098 0
M  V30 15072 H 1489.96 -1.79484 -3.31761 0
M  V30 15073 H 1492.35 -0.953206 -2.79281 0
M  V30 15074 H 1492.43 -2.10558 -1.45255 0
M  V30 15075 H 1492.08 -4.01894 -3.10553 0
M  V30 15076 H 1492.01 -2.83687 -4.43655 0
M  V30 15077 H 1494.5 -2.36417 -2.94814 0
M  V30 15078 H 1494.81 -5.30665 -5.61796 0
M  V30 15079 H 1493.15 -4.76736 -5.05715 0
M  V30 15080 H 1496.35 -2.99372 -3.59853 0
M  V30 15081 H 1496.52 -4.33535 -4.81614 0
M  V30 15082 N 1489.92 1.30607 -0.882012 0
M  V30 15083 C 1491.17 1.95531 -0.495038 0
M  V30 15084 C 1491.49 1.70418 0.96005 0
M  V30 15085 O 1492.69 2.29301 1.45373 0
M  V30 15086 C 1491.15 3.50094 -0.834382 0
M  V30 15087 C 1490.76 3.84031 -2.30704 0
M  V30 15088 C 1492.5 4.21347 -0.516463 0
M  V30 15089 C 1490.41 5.31759 -2.58817 0
M  V30 15090 H 1489.34 0.731854 -0.181399 0
M  V30 15091 H 1491.99 1.486 -1.07658 0
M  V30 15092 H 1490.37 3.95582 -0.181961 0
M  V30 15093 H 1491.54 3.49463 -3.00353 0
M  V30 15094 H 1489.86 3.25874 -2.5922 0
M  V30 15095 H 1492.46 5.30051 -0.703576 0
M  V30 15096 H 1492.8 4.12731 0.543935 0
M  V30 15097 H 1493.33 3.81533 -1.12595 0
M  V30 15098 H 1490.07 5.45422 -3.63586 0
M  V30 15099 H 1489.59 5.67637 -1.93774 0
M  V30 15100 H 1491.27 5.9916 -2.44165 0
M  V30 15101 N 1491.4 0.642663 1.43901 0
M  V30 15102 C 1492.37 -0.0457858 2.29154 0
M  V30 15103 C 1493.37 -0.760988 1.41653 0
M  V30 15104 O 1494.56 -0.603832 1.634 0
M  V30 15105 C 1491.69 -1.07552 3.23489 0
M  V30 15106 H 1492.88 0.704193 2.91515 0
M  V30 15107 H 1490.43 0.403361 1.51006 0
M  V30 15108 H 1491.17 -1.85509 2.66002 0
M  V30 15109 H 1490.95 -0.566468 3.87987 0
M  V30 15110 H 1492.44 -1.55663 3.87503 0
M  V30 15111 N 1492.88 -1.52852 0.383918 0
M  V30 15112 C 1493.81 -2.22704 -0.497825 0
M  V30 15113 C 1494.79 -1.22573 -1.06839 0
M  V30 15114 O 1495.98 -1.51541 -1.12105 0
M  V30 15115 C 1493.1 -2.93606 -1.68858 0
M  V30 15116 C 1492.15 -4.07962 -1.24376 0
M  V30 15117 S 1492.98 -5.35007 -0.229773 0
M  V30 15118 C 1494.14 -6.09429 -1.42643 0
M  V30 15119 H 1494.37 -2.97147 0.0953535 0
M  V30 15120 H 1491.9 -1.53482 0.168084 0
M  V30 15121 H 1493.86 -3.35067 -2.3715 0
M  V30 15122 H 1492.52 -2.18853 -2.25304 0
M  V30 15123 H 1491.72 -4.56654 -2.13269 0
M  V30 15124 H 1491.32 -3.68486 -0.639823 0
M  V30 15125 H 1493.61 -6.35274 -2.35443 0
M  V30 15126 H 1494.55 -7.01278 -0.980541 0
M  V30 15127 H 1494.96 -5.40128 -1.6408 0
M  V30 15128 N 1494.36 -0.113586 -1.5719 0
M  V30 15129 C 1495.59 0.552789 -1.99067 0
M  V30 15130 C 1496 1.61106 -0.992038 0
M  V30 15131 O 1495.34 1.83684 0.0240065 0
M  V30 15132 C 1495.4 1.24239 -3.3735 0
M  V30 15133 C 1495.07 0.332699 -4.55787 0
M  V30 15134 C 1496.06 -0.42654 -5.18147 0
M  V30 15135 C 1493.75 0.245351 -5.017 0
M  V30 15136 C 1495.74 -1.26091 -6.24804 0
M  V30 15137 C 1493.43 -0.592659 -6.08219 0
M  V30 15138 C 1494.43 -1.34443 -6.69637 0
M  V30 15139 O 1494.12 -2.16853 -7.74099 0
M  V30 15140 H 1493.85 0.15139 -0.65883 0
M  V30 15141 H 1496.4 -0.195113 -2.04471 0
M  V30 15142 H 1494.63 2.03725 -3.28684 0
M  V30 15143 H 1496.32 1.80513 -3.63552 0
M  V30 15144 H 1497.09 -0.368898 -4.83595 0
M  V30 15145 H 1492.97 0.820178 -4.53645 0
M  V30 15146 H 1496.51 -1.84818 -6.72672 0
M  V30 15147 H 1492.41 -0.651714 -6.42202 0
M  V30 15148 H 1493.17 -2.09736 -7.91172 0
M  V30 15149 N 1495.84 1.56784 0.160173 0
M  V30 15150 C 1496.75 2.00514 1.21783 0
M  V30 15151 C 1497.76 0.918341 1.47792 0
M  V30 15152 O 1498.94 1.22683 1.59721 0
M  V30 15153 C 1496 2.36575 2.53443 0
M  V30 15154 C 1495.07 3.59138 2.35198 0
M  V30 15155 C 1494.3 3.93469 3.6058 0
M  V30 15156 O 1494.52 3.28625 4.6622 0
M  V30 15157 O 1493.46 4.86774 3.54027 0
M  V30 15158 H 1497.28 2.90774 0.876607 0
M  V30 15159 H 1494.87 1.44799 0.367897 0
M  V30 15160 H 1496.75 2.60687 3.31089 0
M  V30 15161 H 1495.42 1.49474 2.87122 0
M  V30 15162 H 1494.33 3.4023 1.55546 0
M  V30 15163 H 1495.66 4.46815 2.0644 0
M  V30 15164 N 1497.32 -0.429099 1.51646 0
M  V30 15165 C 1498.25 -1.52867 1.76505 0
M  V30 15166 C 1499.23 -1.58586 0.615178 0
M  V30 15167 O 1500.41 -1.74182 0.858742 0
M  V30 15168 C 1497.54 -2.90875 1.8976 0
M  V30 15169 C 1496.5 -3.00014 3.05247 0
M  V30 15170 C 1495.82 -4.40082 3.03696 0
M  V30 15171 C 1497.12 -2.73334 4.45068 0
M  V30 15172 H 1498.82 -1.32315 2.68576 0
M  V30 15173 H 1496.36 -0.635091 1.29238 0
M  V30 15174 H 1498.31 -3.67765 2.05734 0
M  V30 15175 H 1497.04 -3.12677 0.943442 0
M  V30 15176 H 1495.7 -2.25565 2.88991 0
M  V30 15177 H 1495.35 -4.58864 2.06042 0
M  V30 15178 H 1495.05 -4.47125 3.81252 0
M  V30 15179 H 1496.57 -5.18935 3.21774 0
M  V30 15180 H 1497.98 -3.39954 4.61632 0
M  V30 15181 H 1496.38 -2.91777 5.24391 0
M  V30 15182 H 1497.45 -1.68889 4.54538 0
M  V30 15183 N 1498.79 -1.41931 -0.685074 0
M  V30 15184 C 1499.72 -1.47385 -1.81107 0
M  V30 15185 C 1500.7 -0.331433 -1.6684 0
M  V30 15186 O 1501.89 -0.544331 -1.86415 0
M  V30 15187 C 1499.02 -1.36555 -3.19327 0
M  V30 15188 C 1497.97 -2.48718 -3.48315 0
M  V30 15189 C 1497.3 -2.2295 -4.86002 0
M  V30 15190 C 1498.6 -3.91047 -3.46237 0
M  V30 15191 H 1500.29 -2.41624 -1.768 0
M  V30 15192 H 1497.84 -1.16297 -0.849178 0
M  V30 15193 H 1499.79 -1.38981 -3.97822 0
M  V30 15194 H 1498.52 -0.388063 -3.24286 0
M  V30 15195 H 1497.18 -2.45592 -2.72176 0
M  V30 15196 H 1496.82 -1.23518 -4.87598 0
M  V30 15197 H 1496.52 -2.98116 -5.0636 0
M  V30 15198 H 1498.05 -2.27108 -5.66793 0
M  V30 15199 H 1499.46 -3.95831 -4.14718 0
M  V30 15200 H 1497.86 -4.65981 -3.7813 0
M  V30 15201 H 1498.93 -4.1845 -2.45006 0
M  V30 15202 N 1500.27 0.920374 -1.27933 0
M  V30 15203 C 1501.23 2.0035 -1.11321 0
M  V30 15204 C 1502.23 1.60706 -0.0549132 0
M  V30 15205 O 1503.42 1.71595 -0.300134 0
M  V30 15206 C 1500.56 3.33681 -0.69782 0
M  V30 15207 H 1501.75 2.16518 -2.07509 0
M  V30 15208 H 1499.3 1.10216 -1.10825 0
M  V30 15209 H 1500.04 3.23214 0.265122 0
M  V30 15210 H 1499.82 3.63815 -1.46223 0
M  V30 15211 H 1501.31 4.13208 -0.604048 0
M  V30 15212 N 1501.75 1.10074 1.1279 0
M  V30 15213 C 1503.03 0.753069 1.80522 0
M  V30 15214 C 1503.41 -0.760982 1.96907 0
M  V30 15215 O 1502.75 -1.68584 1.54245 0
M  V30 15216 C 1502.96 1.49982 3.15129 0
M  V30 15217 C 1504.31 1.66993 3.90382 0
M  V30 15218 O 1505.34 1.46289 3.24774 0
M  V30 15219 O 1504.2 2.01293 5.08078 0
M  V30 15220 H 1501.29 0.271277 0.781241 0
M  V30 15221 H 1503.84 1.20333 1.19658 0
M  V30 15222 H 1502.61 2.53043 2.98471 0
M  V30 15223 H 1502.23 1.04217 3.83699 0
M  V30 15224 N 1503.23 -1.30138 0.888926 0
M  V30 15225 C 1504.19 -2.26299 0.363504 0
M  V30 15226 C 1505.19 -1.52951 -0.496244 0
M  V30 15227 O 1506.38 -1.71548 -0.302834 0
M  V30 15228 C 1503.51 -3.37482 -0.481544 0
M  V30 15229 H 1504.71 -2.7429 1.21265 0
M  V30 15230 H 1502.26 -1.41395 0.666124 0
M  V30 15231 H 1502.99 -2.94814 -1.35112 0
M  V30 15232 H 1502.78 -3.9187 0.134344 0
M  V30 15233 H 1504.27 -4.09048 -0.840816 0
M  V30 15234 N 1504.71 -0.650285 -1.43559 0
M  V30 15235 C 1505.98 -0.0925343 -1.95381 0
M  V30 15236 C 1506.36 1.38668 -1.59168 0
M  V30 15237 O 1505.71 2.11069 -0.875324 0
M  V30 15238 C 1505.92 -0.335657 -3.47382 0
M  V30 15239 C 1507.27 -0.239032 -4.23927 0
M  V30 15240 O 1508.29 -0.268056 -3.5519 0
M  V30 15241 O 1507.15 -0.160241 -5.46265 0
M  V30 15242 H 1504.25 0.0113084 -0.826923 0
M  V30 15243 H 1506.79 -0.723319 -1.53513 0
M  V30 15244 H 1505.56 -1.36132 -3.66857 0
M  V30 15245 H 1505.19 0.328339 -3.96242 0
M  V30 15246 N 1506.18 1.52647 -0.392018 0
M  V30 15247 C 1507.43 2.00798 0.19056 0
M  V30 15248 C 1507.75 1.28265 1.47673 0
M  V30 15249 O 1508.95 1.67142 2.13953 0
M  V30 15250 C 1507.41 3.57779 0.390148 0
M  V30 15251 C 1507.02 4.39213 -0.882933 0
M  V30 15252 C 1508.76 4.14211 0.928945 0
M  V30 15253 C 1506.67 5.87801 -0.651474 0
M  V30 15254 H 1505.6 0.750262 0.0749879 0
M  V30 15255 H 1508.25 1.7613 -0.514835 0
M  V30 15256 H 1506.63 3.78707 1.15746 0
M  V30 15257 H 1507.8 4.30051 -1.65507 0
M  V30 15258 H 1506.12 3.94015 -1.34688 0
M  V30 15259 H 1508.72 5.22884 1.11787 0
M  V30 15260 H 1509.06 3.70475 1.89878 0
M  V30 15261 H 1509.59 3.97185 0.221135 0
M  V30 15262 H 1506.33 6.35864 -1.59239 0
M  V30 15263 H 1505.85 5.99744 0.0816786 0
M  V30 15264 H 1507.53 6.46363 -0.287057 0
M  V30 15265 N 1507.66 0.121921 1.57128 0
M  V30 15266 C 1508.59 -0.857725 2.12546 0
M  V30 15267 C 1509.61 -1.22797 1.06886 0
M  V30 15268 O 1510.8 -1.17641 1.34249 0
M  V30 15269 C 1507.9 -2.15869 2.61254 0
M  V30 15270 C 1507.07 -1.95969 3.91043 0
M  V30 15271 C 1506.13 -3.09822 4.2532 0
M  V30 15272 O 1505.15 -2.82608 4.94087 0
M  V30 15273 N 1506.36 -4.36333 3.82875 0
M  V30 15274 H 1509.12 -0.384239 2.97227 0
M  V30 15275 H 1506.68 -0.062416 1.6178 0
M  V30 15276 H 1508.67 -2.91035 2.81213 0
M  V30 15277 H 1507.24 -2.54557 1.81437 0
M  V30 15278 H 1506.46 -1.04979 3.79965 0
M  V30 15279 H 1507.75 -1.79981 4.75904 0
M  V30 15280 H 1507.15 -4.61318 3.27417 0
M  V30 15281 H 1505.71 -5.08362 4.07936 0
M  V30 15282 N 1509.14 -1.56867 -0.151857 0
M  V30 15283 C 1510.07 -2.00932 -1.18949 0
M  V30 15284 C 1511.05 -0.888062 -1.45077 0
M  V30 15285 O 1512.24 -1.15553 -1.56081 0
M  V30 15286 C 1509.37 -2.3858 -2.52383 0
M  V30 15287 C 1508.32 -3.53845 -2.40785 0
M  V30 15288 C 1507.65 -3.77292 -3.78886 0
M  V30 15289 C 1508.95 -4.8667 -1.89605 0
M  V30 15290 H 1510.64 -2.87863 -0.823107 0
M  V30 15291 H 1508.19 -1.38491 -0.394499 0
M  V30 15292 H 1510.14 -2.68006 -3.25193 0
M  V30 15293 H 1508.86 -1.48579 -2.90847 0
M  V30 15294 H 1507.52 -3.24577 -1.70427 0
M  V30 15295 H 1507.17 -2.84551 -4.14777 0
M  V30 15296 H 1506.87 -4.54861 -3.71989 0
M  V30 15297 H 1508.39 -4.09139 -4.53252 0
M  V30 15298 H 1509.81 -5.14846 -2.52204 0
M  V30 15299 H 1508.21 -5.6801 -1.93609 0
M  V30 15300 H 1509.28 -4.77366 -0.851438 0
M  V30 15301 N 1510.62 0.421051 -1.51871 0
M  V30 15302 C 1511.57 1.5122 -1.74359 0
M  V30 15303 C 1512.54 1.55432 -0.585667 0
M  V30 15304 O 1513.72 1.7219 -0.821912 0
M  V30 15305 C 1510.86 2.88787 -1.88935 0
M  V30 15306 C 1509.97 2.93977 -3.16546 0
M  V30 15307 C 1509.11 4.22768 -3.21622 0
M  V30 15308 C 1508.15 4.21888 -4.43483 0
M  V30 15309 N 1507.28 5.4223 -4.46017 0
M  V30 15310 H 1512.12 1.31348 -2.67492 0
M  V30 15311 H 1509.66 0.637779 -1.32555 0
M  V30 15312 H 1511.62 3.68629 -1.95368 0
M  V30 15313 H 1510.25 3.07181 -0.991942 0
M  V30 15314 H 1509.3 2.06699 -3.19343 0
M  V30 15315 H 1510.61 2.8919 -4.06412 0
M  V30 15316 H 1509.77 5.10995 -3.27061 0
M  V30 15317 H 1508.51 4.30234 -2.29674 0
M  V30 15318 H 1507.51 3.32052 -4.38202 0
M  V30 15319 H 1508.74 4.16072 -5.36713 0
M  V30 15320 H 1506.68 5.50386 -3.56947 0
M  V30 15321 H 1506.6 5.39389 -5.29713 0
M  V30 15322 H 1507.87 6.32443 -4.55671 0
M  V30 15323 N 1512.1 1.42293 0.677538 0
M  V30 15324 C 1513.34 1.42334 1.43476 0
M  V30 15325 C 1513.67 0.0397842 1.94959 0
M  V30 15326 O 1512.94 -0.921258 1.72886 0
M  V30 15327 H 1511.52 0.523969 0.532415 0
M  V30 15328 H 1514.18 1.7769 0.800758 0
M  V30 15329 H 1513.27 2.12146 2.28912 0
M  V30 15330 N 1513.57 -0.913576 1.28419 0
M  V30 15331 C 1514.52 -2.00257 1.09001 0
M  V30 15332 C 1515.51 -1.60894 0.0136118 0
M  V30 15333 O 1516.7 -1.75449 0.233769 0
M  V30 15334 C 1513.83 -3.34916 0.754073 0
M  V30 15335 C 1512.92 -3.8068 1.86932 0
M  V30 15336 N 1513.31 -3.98814 3.11096 0
M  V30 15337 C 1511.6 -4.09839 1.75921 0
M  V30 15338 C 1512.31 -4.37149 3.83765 0
M  V30 15339 N 1511.28 -4.45417 3.11616 0
M  V30 15340 H 1515.08 -2.12327 2.0321 0
M  V30 15341 H 1512.6 -1.10143 1.19341 0
M  V30 15342 H 1514.59 -4.12617 0.596035 0
M  V30 15343 H 1513.25 -3.24199 -0.180246 0
M  V30 15344 H 1514.27 -3.84729 3.46705 0
M  V30 15345 H 1510.94 -4.07757 0.896679 0
M  V30 15346 H 1512.33 -4.5914 4.9055 0
M  V30 15347 N 1515.05 -1.1067 -1.12204 0
M  V30 15348 C 1515.99 -0.70161 -2.17147 0
M  V30 15349 C 1516.96 0.298272 -1.59841 0
M  V30 15350 O 1518.15 0.196594 -1.87472 0
M  V30 15351 C 1515.27 -0.0356178 -3.38681 0
M  V30 15352 C 1514.32 -0.999363 -4.14626 0
M  V30 15353 S 1515.15 -2.51792 -4.72611 0
M  V30 15354 C 1516.31 -1.8647 -5.97478 0
M  V30 15355 H 1516.54 -1.59058 -2.51173 0
M  V30 15356 H 1514.08 -0.923946 -1.23704 0
M  V30 15357 H 1516.03 0.342303 -4.0907 0
M  V30 15358 H 1514.69 0.830184 -3.0293 0
M  V30 15359 H 1513.89 -0.48067 -5.01703 0
M  V30 15360 H 1513.49 -1.31931 -3.49957 0
M  V30 15361 H 1515.78 -1.19637 -6.66853 0
M  V30 15362 H 1516.72 -2.71513 -6.53977 0
M  V30 15363 H 1517.13 -1.32821 -5.48652 0
M  V30 15364 N 1516.53 1.29665 -0.895815 0
M  V30 15365 C 1517.49 2.26103 -0.3755 0
M  V30 15366 C 1518.49 1.53212 0.488126 0
M  V30 15367 O 1519.68 1.71706 0.293733 0
M  V30 15368 C 1516.82 3.37732 0.46364 0
M  V30 15369 H 1518.01 2.73643 -1.22718 0
M  V30 15370 H 1515.56 1.4104 -0.673613 0
M  V30 15371 H 1516.3 2.95526 1.33546 0
M  V30 15372 H 1516.08 3.91793 -0.155123 0
M  V30 15373 H 1517.57 4.09488 0.819112 0
M  V30 15374 N 1518.01 0.657889 1.43212 0
M  V30 15375 C 1519.42 0.325876 1.56238 0
M  V30 15376 C 1519.62 -1.16975 1.6407 0
M  V30 15377 O 1518.68 -1.95473 1.59833 0
M  V30 15378 C 1519.99 1.04134 2.82093 0
M  V30 15379 C 1521.54 1.02204 2.95844 0
M  V30 15380 C 1522.02 1.71849 4.24537 0
M  V30 15381 N 1523.51 1.68635 4.31412 0
M  V30 15382 C 1524.24 2.19393 5.29768 0
M  V30 15383 N 1523.74 2.7846 6.34375 0
M  V30 15384 N 1525.53 2.09866 5.21452 0
M  V30 15385 H 1517.68 1.62839 1.36371 0
M  V30 15386 H 1519.95 0.685072 0.655271 0
M  V30 15387 H 1519.65 2.09647 2.82385 0
M  V30 15388 H 1519.53 0.595842 3.72464 0
M  V30 15389 H 1521.91 -0.0247029 2.9509 0
M  V30 15390 H 1521.99 1.50627 2.06749 0
M  V30 15391 H 1521.64 2.76482 4.26052 0
M  V30 15392 H 1521.57 1.20888 5.12536 0
M  V30 15393 H 1524.06 1.25536 3.56439 0
M  V30 15394 H 1524.37 3.14855 7.05752 0
M  V30 15395 H 1522.72 2.82523 6.34985 0
M  V30 15396 H 1525.91 1.63422 4.38647 0
M  V30 15397 H 1526.08 2.49732 5.97945 0
M  V30 15398 N 1519.49 -1.52437 0.400108 0
M  V30 15399 C 1520.73 -2.01711 -0.178605 0
M  V30 15400 C 1521.06 -1.28613 -1.45908 0
M  V30 15401 O 1520.32 -0.378206 -1.92011 0
M  V30 15402 C 1520.62 -3.54133 -0.482141 0
M  V30 15403 C 1520.28 -4.45306 0.70806 0
M  V30 15404 C 1518.94 -4.69947 1.03455 0
M  V30 15405 C 1521.3 -4.99035 1.50379 0
M  V30 15406 C 1518.62 -5.45566 2.15812 0
M  V30 15407 C 1520.98 -5.75883 2.61805 0
M  V30 15408 C 1519.64 -5.98799 2.9495 0
M  V30 15409 H 1518.91 -0.738112 -0.0653562 0
M  V30 15410 H 1521.56 -1.83738 0.539676 0
M  V30 15411 H 1519.86 -3.70237 -1.28188 0
M  V30 15412 H 1521.56 -3.89761 -0.942725 0
M  V30 15413 H 1518.15 -4.26298 0.443599 0
M  V30 15414 H 1522.33 -4.79913 1.26479 0
M  V30 15415 H 1517.59 -5.61532 2.4185 0
M  V30 15416 H 1521.76 -6.16514 3.23857 0
M  V30 15417 H 1519.39 -6.57176 3.8213 0
M  V30 15418 N 1520.96 -0.130252 -1.57061 0
M  V30 15419 C 1521.89 0.812189 -2.18919 0
M  V30 15420 C 1522.88 1.2692 -1.13249 0
M  V30 15421 O 1524.06 1.32978 -1.41529 0
M  V30 15422 C 1521.19 2.05803 -2.79754 0
M  V30 15423 C 1520.14 1.73841 -3.91105 0
M  V30 15424 C 1519.47 3.05549 -4.38799 0
M  V30 15425 C 1520.77 0.997991 -5.12677 0
M  V30 15426 H 1522.46 0.296692 -2.97926 0
M  V30 15427 H 1520.01 0.141265 -1.43305 0
M  V30 15428 H 1521.96 2.72201 -3.21691 0
M  V30 15429 H 1520.69 2.59697 -1.98053 0
M  V30 15430 H 1519.35 1.09828 -3.49762 0
M  V30 15431 H 1518.99 3.57399 -3.53942 0
M  V30 15432 H 1518.69 2.84932 -5.13894 0
M  V30 15433 H 1520.22 3.73045 -4.83394 0
M  V30 15434 H 1521.63 1.56372 -5.51562 0
M  V30 15435 H 1520.03 0.892378 -5.93428 0
M  V30 15436 H 1521.1 -0.0132936 -4.84898 0
M  V30 15437 N 1522.44 1.56945 0.143535 0
M  V30 15438 C 1523.37 2.0156 1.17881 0
M  V30 15439 C 1524.35 0.895744 1.44604 0
M  V30 15440 O 1525.54 1.16379 1.55466 0
M  V30 15441 C 1522.67 2.39915 2.51114 0
M  V30 15442 C 1521.62 3.55117 2.38905 0
M  V30 15443 C 1520.95 3.79296 3.7688 0
M  V30 15444 C 1522.25 4.87668 1.87021 0
M  V30 15445 H 1523.94 2.88296 0.80783 0
M  V30 15446 H 1521.49 1.38698 0.387149 0
M  V30 15447 H 1523.44 2.69727 3.23767 0
M  V30 15448 H 1522.17 1.5012 2.90055 0
M  V30 15449 H 1520.83 3.25476 1.68703 0
M  V30 15450 H 1520.47 2.86747 4.13262 0
M  V30 15451 H 1520.17 4.56827 3.69571 0
M  V30 15452 H 1521.7 4.11537 4.51076 0
M  V30 15453 H 1523.11 5.16176 2.4947 0
M  V30 15454 H 1521.51 5.69029 1.90594 0
M  V30 15455 H 1522.58 4.77811 0.82611 0
M  V30 15456 N 1523.92 -0.412991 1.52093 0
M  V30 15457 C 1524.87 -1.50193 1.7154 0
M  V30 15458 C 1525.86 -1.50492 0.569294 0
M  V30 15459 O 1527.05 -1.56534 0.826207 0
M  V30 15460 C 1524.18 -2.8816 1.86598 0
M  V30 15461 C 1523.26 -2.92524 3.07068 0
M  V30 15462 N 1523.65 -2.66591 4.29841 0
M  V30 15463 C 1521.95 -3.23691 3.06822 0
M  V30 15464 C 1522.65 -2.77424 5.11284 0
M  V30 15465 N 1521.63 -3.10138 4.46448 0
M  V30 15466 H 1525.43 -1.28932 2.64109 0
M  V30 15467 H 1522.94 -0.620648 1.50072 0
M  V30 15468 H 1524.94 -3.66532 1.98646 0
M  V30 15469 H 1523.6 -3.10422 0.952263 0
M  V30 15470 H 1524.61 -2.41058 4.58379 0
M  V30 15471 H 1521.29 -3.51572 2.25174 0
M  V30 15472 H 1522.68 -2.61121 6.19084 0
M  V30 15473 N 1525.4 -1.4265 -0.669982 0
M  V30 15474 C 1526.33 -1.42457 -1.79551 0
M  V30 15475 C 1527.34 -0.322966 -1.59564 0
M  V30 15476 O 1528.53 -0.586359 -1.68594 0
M  V30 15477 C 1525.63 -1.20561 -3.16731 0
M  V30 15478 C 1524.81 -2.43246 -3.63525 0
M  V30 15479 C 1523.87 -2.16823 -4.79452 0
M  V30 15480 O 1522.89 -2.90058 -4.8975 0
M  V30 15481 N 1524.09 -1.17436 -5.68497 0
M  V30 15482 H 1526.86 -2.39474 -1.80201 0
M  V30 15483 H 1524.42 -1.37591 -0.853244 0
M  V30 15484 H 1526.41 -1.00794 -3.91947 0
M  V30 15485 H 1524.98 -0.320497 -3.10953 0
M  V30 15486 H 1524.2 -2.78549 -2.78934 0
M  V30 15487 H 1525.49 -3.24931 -3.91532 0
M  V30 15488 H 1524.89 -0.568736 -5.62834 0
M  V30 15489 H 1523.44 -1.03655 -6.43505 0
M  V30 15490 N 1526.88 0.906753 -1.28902 0
M  V30 15491 C 1528.12 1.65903 -1.16636 0
M  V30 15492 C 1528.46 1.92127 0.282981 0
M  V30 15493 O 1527.73 1.52666 1.20513 0
M  V30 15494 C 1528.01 3.01257 -1.97272 0
M  V30 15495 C 1527.87 2.82143 -3.50308 0
M  V30 15496 C 1529.19 4.01893 -1.7936 0
M  V30 15497 H 1526.31 0.602063 -0.425076 0
M  V30 15498 H 1528.95 1.05081 -1.58297 0
M  V30 15499 H 1527.1 3.53172 -1.61871 0
M  V30 15500 H 1528.77 2.37184 -3.95653 0
M  V30 15501 H 1527.01 2.17063 -3.75588 0
M  V30 15502 H 1527.68 3.78293 -4.01993 0
M  V30 15503 H 1530.16 3.59064 -2.10267 0
M  V30 15504 H 1529.04 4.9455 -2.38141 0
M  V30 15505 H 1529.3 4.35745 -0.746923 0
M  V30 15506 N 1528.36 1.11264 1.11616 0
M  V30 15507 C 1529.6 0.870286 1.84947 0
M  V30 15508 C 1529.96 -0.593351 1.82602 0
M  V30 15509 O 1531.16 -0.952396 2.51362 0
M  V30 15510 C 1529.43 1.4142 3.2823 0
M  V30 15511 S 1530.99 1.30856 4.18834 0
M  V30 15512 H 1527.81 0.314257 0.63778 0
M  V30 15513 H 1530.41 1.41978 1.34397 0
M  V30 15514 H 1529.11 2.47328 3.27501 0
M  V30 15515 H 1528.65 0.861661 3.83848 0
M  V30 15516 H 1530.66 0.271878 4.95455 0
M  V30 15517 N 1529.83 -1.29188 0.902679 0
M  V30 15518 C 1531.08 -1.94718 0.526082 0
M  V30 15519 C 1531.4 -1.71924 -0.932816 0
M  V30 15520 O 1532.6 -2.31585 -1.41707 0
M  V30 15521 C 1531.06 -3.48723 0.889974 0
M  V30 15522 C 1530.67 -3.80312 2.36784 0
M  V30 15523 C 1532.41 -4.20472 0.58343 0
M  V30 15524 C 1530.32 -5.27574 2.67244 0
M  V30 15525 H 1529.25 -0.728875 0.193019 0
M  V30 15526 H 1531.9 -1.46869 1.10008 0
M  V30 15527 H 1530.28 -3.95242 0.244872 0
M  V30 15528 H 1531.45 -3.44641 3.05875 0
M  V30 15529 H 1529.77 -3.21709 2.64371 0
M  V30 15530 H 1532.37 -5.28864 0.787813 0
M  V30 15531 H 1532.71 -4.13544 -0.478204 0
M  V30 15532 H 1533.24 -3.79693 1.1865 0
M  V30 15533 H 1529.98 -5.39569 3.72217 0
M  V30 15534 H 1529.5 -5.64482 2.0278 0
M  V30 15535 H 1531.18 -5.95199 2.53666 0
M  V30 15536 N 1531.31 -0.665475 -1.42861 0
M  V30 15537 C 1532.56 -0.181149 -2.00885 0
M  V30 15538 C 1532.87 1.21629 -1.53186 0
M  V30 15539 O 1534.08 1.79648 -2.03565 0
M  V30 15540 C 1532.54 -0.273017 -3.58863 0
M  V30 15541 C 1532.14 -1.67392 -4.15553 0
M  V30 15542 C 1533.89 0.153075 -4.24224 0
M  V30 15543 C 1531.79 -1.71905 -5.65864 0
M  V30 15544 H 1530.72 -0.0639619 -0.751282 0
M  V30 15545 H 1533.38 -0.829299 -1.63691 0
M  V30 15546 H 1531.76 0.44286 -3.93516 0
M  V30 15547 H 1532.93 -2.41613 -3.92377 0
M  V30 15548 H 1531.25 -2.04704 -3.62609 0
M  V30 15549 H 1533.84 0.139369 -5.34518 0
M  V30 15550 H 1534.19 1.1867 -3.99028 0
M  V30 15551 H 1534.72 -0.511472 -3.94498 0
M  V30 15552 H 1531.46 -2.73218 -5.95846 0
M  V30 15553 H 1530.98 -1.02027 -5.91059 0
M  V30 15554 H 1532.66 -1.46829 -6.30119 0
M  V30 15555 N 1532.79 1.52222 -0.408187 0
M  V30 15556 C 1534.2 1.86598 0.0616213 0
M  V30 15557 C 1534.55 1.32698 1.44519 0
M  V30 15558 O 1533.68 0.665883 2.059 0
M  V30 15559 C 1534.27 3.38592 0.118595 0
M  V30 15560 C 1532.83 3.72611 0.532737 0
M  V30 15561 C 1531.98 2.75744 -0.293356 0
M  V30 15562 H 1534.93 1.45862 -0.625291 0
M  V30 15563 H 1534.95 3.68858 0.934039 0
M  V30 15564 H 1534.46 3.77792 -0.888516 0
M  V30 15565 H 1532.56 3.38989 1.54652 0
M  V30 15566 H 1532.68 4.78294 0.277777 0
M  V30 15567 H 1531.04 2.53527 0.244166 0
M  V30 15568 H 1531.82 3.17783 -1.2988 0
M  V30 15569 N 1534.27 0.138579 1.5699 0
M  V30 15570 C 1535.52 -0.514545 1.95026 0
M  V30 15571 C 1535.83 -1.66565 1.02544 0
M  V30 15572 O 1537.04 -2.38284 1.30126 0
M  V30 15573 C 1535.49 -0.966746 3.46673 0
M  V30 15574 C 1535.1 0.156969 4.47725 0
M  V30 15575 C 1536.84 -1.59014 3.93592 0
M  V30 15576 C 1534.75 -0.313031 5.90571 0
M  V30 15577 H 1533.68 -0.195991 0.728082 0
M  V30 15578 H 1536.33 0.221575 1.82157 0
M  V30 15579 H 1534.71 -1.75788 3.54845 0
M  V30 15580 H 1535.89 0.933728 4.51241 0
M  V30 15581 H 1534.2 0.688238 4.10673 0
M  V30 15582 H 1536.8 -1.95326 4.97747 0
M  V30 15583 H 1537.14 -2.47595 3.34668 0
M  V30 15584 H 1537.68 -0.864061 3.88302 0
M  V30 15585 H 1534.41 0.5372 6.53295 0
M  V30 15586 H 1533.93 -1.05585 5.90434 0
M  V30 15587 H 1535.61 -0.767826 6.42428 0
M  V30 15588 N 1535.75 -1.57019 -0.13521 0
M  V30 15589 C 1536.66 -2.02427 -1.18578 0
M  V30 15590 C 1537.67 -0.941738 -1.46312 0
M  V30 15591 O 1538.85 -1.25208 -1.57749 0
M  V30 15592 C 1535.91 -2.40577 -2.49647 0
M  V30 15593 C 1534.97 -3.62835 -2.29455 0
M  V30 15594 C 1534.21 -3.99156 -3.54274 0
M  V30 15595 O 1534.43 -3.36001 -4.60933 0
M  V30 15596 O 1533.36 -4.92345 -3.46238 0
M  V30 15597 H 1537.19 -2.92131 -0.830237 0
M  V30 15598 H 1534.77 -1.45366 -0.344814 0
M  V30 15599 H 1536.66 -2.65922 -3.269 0
M  V30 15600 H 1535.33 -1.54023 -2.84708 0
M  V30 15601 H 1534.24 -3.42661 -1.50114 0
M  V30 15602 H 1535.57 -4.50043 -1.99305 0
M  V30 15603 N 1537.22 0.404919 -1.52309 0
M  V30 15604 C 1538.13 1.51822 -1.7885 0
M  V30 15605 C 1539.15 1.60403 -0.674307 0
M  V30 15606 O 1540.33 1.77038 -0.960175 0
M  V30 15607 C 1537.39 2.87516 -1.9374 0
M  V30 15608 C 1536.45 2.88787 -3.17648 0
M  V30 15609 C 1535.69 4.18009 -3.31819 0
M  V30 15610 O 1535.91 5.12129 -2.51158 0
M  V30 15611 O 1534.84 4.26222 -4.24992 0
M  V30 15612 H 1538.67 1.32329 -2.73354 0
M  V30 15613 H 1536.25 0.591193 -1.37205 0
M  V30 15614 H 1538.14 3.6799 -2.05333 0
M  V30 15615 H 1536.81 3.07068 -1.02425 0
M  V30 15616 H 1535.72 2.07152 -3.11511 0
M  V30 15617 H 1537.05 2.74185 -4.08758 0
M  V30 15618 N 1538.7 1.43003 0.662408 0
M  V30 15619 C 1539.95 1.44133 1.42239 0
M  V30 15620 C 1540.28 0.062249 1.944 0
M  V30 15621 O 1539.53 -0.931341 1.72118 0
M  V30 15622 C 1539.83 2.4231 2.62718 0
M  V30 15623 C 1539.5 3.88403 2.29028 0
M  V30 15624 C 1538.16 4.28194 2.19552 0
M  V30 15625 C 1540.51 4.80505 2.01902 0
M  V30 15626 C 1537.84 5.58052 1.81092 0
M  V30 15627 C 1540.19 6.10718 1.64943 0
M  V30 15628 C 1538.86 6.49496 1.53985 0
M  V30 15629 H 1538.13 0.527419 0.52049 0
M  V30 15630 H 1540.77 1.76024 0.75417 0
M  V30 15631 H 1539.08 2.03789 3.3463 0
M  V30 15632 H 1540.77 2.40442 3.20918 0
M  V30 15633 H 1537.36 3.56906 2.37311 0
M  V30 15634 H 1541.55 4.50542 2.08149 0
M  V30 15635 H 1536.8 5.86945 1.71187 0
M  V30 15636 H 1540.98 6.81564 1.42982 0
M  V30 15637 H 1538.61 7.50026 1.23954 0
M  V30 15638 N 1540.18 -0.899904 1.29381 0
M  V30 15639 C 1541.41 -1.68911 1.20349 0
M  V30 15640 C 1541.83 -1.86657 -0.232523 0
M  V30 15641 O 1541.19 -1.38674 -1.16787 0
M  V30 15642 C 1541.24 -3.05124 1.92177 0
M  V30 15643 O 1540.34 -3.93358 1.23867 0
M  V30 15644 H 1539.68 -0.516698 0.417036 0
M  V30 15645 H 1542.21 -1.12422 1.70946 0
M  V30 15646 H 1542.22 -3.55267 2.00623 0
M  V30 15647 H 1540.9 -2.91525 2.96624 0
M  V30 15648 H 1539.47 -3.51793 1.23677 0
M  V30 15649 N 1541.66 -1.11854 -1.11024 0
M  V30 15650 C 1542.62 -0.784033 -2.15373 0
M  V30 15651 C 1543.62 0.198686 -1.59568 0
M  V30 15652 O 1544.81 -0.0263428 -1.7418 0
M  V30 15653 C 1541.94 -0.163987 -3.40505 0
M  V30 15654 H 1543.14 -1.70849 -2.46477 0
M  V30 15655 H 1540.69 -0.920988 -1.26283 0
M  V30 15656 H 1541.42 0.770483 -3.15014 0
M  V30 15657 H 1541.21 -0.871447 -3.82293 0
M  V30 15658 H 1542.7 0.0537739 -4.17565 0
M  V30 15659 N 1543.14 1.28707 -0.909517 0
M  V30 15660 C 1544.05 2.31171 -0.399628 0
M  V30 15661 C 1545.06 1.6634 0.510582 0
M  V30 15662 O 1546.24 1.97432 0.397792 0
M  V30 15663 C 1543.3 3.44869 0.355852 0
M  V30 15664 C 1542.36 4.25267 -0.587065 0
M  V30 15665 C 1541.6 5.33536 0.132456 0
M  V30 15666 O 1541.82 5.54075 1.35486 0
M  V30 15667 O 1540.75 5.99561 -0.530062 0
M  V30 15668 H 1544.58 2.76785 -1.24995 0
M  V30 15669 H 1542.17 1.33323 -0.674186 0
M  V30 15670 H 1544.05 4.14068 0.782692 0
M  V30 15671 H 1542.72 3.01345 1.18207 0
M  V30 15672 H 1541.63 3.58673 -1.06322 0
M  V30 15673 H 1542.96 4.72459 -1.37998 0
M  V30 15674 N 1544.61 0.673042 1.42506 0
M  V30 15675 C 1545.84 0.202628 2.05604 0
M  V30 15676 C 1546.25 -1.14466 1.50646 0
M  V30 15677 O 1545.6 -1.7218 0.6403 0
M  V30 15678 C 1545.66 0.0583637 3.59453 0
M  V30 15679 C 1545.32 1.33408 4.37094 0
M  V30 15680 C 1546.32 2.26717 4.67863 0
M  V30 15681 C 1544 1.58119 4.76764 0
M  V30 15682 C 1546 3.43014 5.37234 0
M  V30 15683 C 1543.68 2.74706 5.45875 0
M  V30 15684 C 1544.68 3.66978 5.76035 0
M  V30 15685 O 1544.37 4.81526 6.4373 0
M  V30 15686 H 1544.1 0.0964964 0.669077 0
M  V30 15687 H 1546.66 0.919656 1.83661 0
M  V30 15688 H 1544.89 -0.714227 3.80047 0
M  V30 15689 H 1546.58 -0.37195 4.04192 0
M  V30 15690 H 1547.34 2.08875 4.37717 0
M  V30 15691 H 1543.22 0.871705 4.52683 0
M  V30 15692 H 1546.76 4.15055 5.60692 0
M  V30 15693 H 1542.66 2.92474 5.75438 0
M  V30 15694 H 1543.43 4.81047 6.6222 0
M  V30 15695 N 1546.09 -1.52004 0.416254 0
M  V30 15696 C 1547.34 -2.02188 -0.157434 0
M  V30 15697 C 1547.67 -1.30097 -1.44182 0
M  V30 15698 O 1546.95 -0.409426 -1.90142 0
M  V30 15699 C 1547.23 -3.57896 -0.397847 0
M  V30 15700 C 1547.08 -4.40628 0.903715 0
M  V30 15701 C 1548.4 -4.24072 -1.17689 0
M  V30 15702 H 1545.52 -0.734889 -0.0557437 0
M  V30 15703 H 1548.16 -1.81831 0.551118 0
M  V30 15704 H 1546.31 -3.75372 -1.00142 0
M  V30 15705 H 1547.98 -4.34848 1.53964 0
M  V30 15706 H 1546.23 -4.06556 1.5131 0
M  V30 15707 H 1546.9 -5.47673 0.689802 0
M  V30 15708 H 1549.37 -4.10738 -0.665832 0
M  V30 15709 H 1548.25 -5.32944 -1.31386 0
M  V30 15710 H 1548.51 -3.83507 -2.19942 0
M  V30 15711 N 1547.57 -0.146903 -1.56914 0
M  V30 15712 C 1548.99 0.20951 -1.58219 0
M  V30 15713 C 1549.19 1.64679 -1.16116 0
M  V30 15714 O 1548.24 2.37352 -0.861414 0
M  V30 15715 C 1549.56 -0.0491564 -3.0066 0
M  V30 15716 C 1551.1 0.0145605 -3.12997 0
M  V30 15717 C 1551.58 -0.216773 -4.57487 0
M  V30 15718 N 1553.07 -0.163698 -4.62911 0
M  V30 15719 C 1553.8 -0.317204 -5.72522 0
M  V30 15720 N 1553.3 -0.528426 -6.90782 0
M  V30 15721 N 1555.09 -0.254814 -5.61522 0
M  V30 15722 H 1547.24 -1.08536 -1.82575 0
M  V30 15723 H 1549.51 -0.42963 -0.845057 0
M  V30 15724 H 1549.21 -1.04387 -3.35851 0
M  V30 15725 H 1549.09 0.670296 -3.71197 0
M  V30 15726 H 1551.47 0.999829 -2.77646 0
M  V30 15727 H 1551.56 -0.737219 -2.44946 0
M  V30 15728 H 1551.2 -1.19914 -4.93541 0
M  V30 15729 H 1551.13 0.555329 -5.23664 0
M  V30 15730 H 1553.62 -0.00509433 -3.779 0
M  V30 15731 H 1553.93 -0.635667 -7.70181 0
M  V30 15732 H 1552.28 -0.564746 -6.92702 0
M  V30 15733 H 1555.47 -0.0905626 -4.68012 0
M  V30 15734 H 1555.64 -0.377881 -6.46897 0
M  V30 15735 N 1549.05 1.57088 0.126881 0
M  V30 15736 C 1550.46 1.73685 0.684865 0
M  V30 15737 C 1550.81 0.764401 1.80697 0
M  V30 15738 O 1549.94 -0.0644761 2.16304 0
M  V30 15739 C 1550.53 3.14933 1.24911 0
M  V30 15740 C 1549.09 3.33063 1.75346 0
M  V30 15741 C 1548.24 2.69575 0.649976 0
M  V30 15742 H 1551.19 1.58391 -0.0989715 0
M  V30 15743 H 1551.21 3.16047 2.11884 0
M  V30 15744 H 1550.72 3.85686 0.432204 0
M  V30 15745 H 1548.82 2.67339 2.59539 0
M  V30 15746 H 1548.93 4.41169 1.86833 0
M  V30 15747 H 1547.3 2.30592 1.08163 0
M  V30 15748 H 1548.08 3.42946 -0.15582 0
M  V30 15749 N 1550.53 -0.396836 1.52522 0
M  V30 15750 C 1551.46 -1.50361 1.72986 0
M  V30 15751 C 1552.47 -1.50928 0.610289 0
M  V30 15752 O 1553.66 -1.54972 0.88578 0
M  V30 15753 C 1550.76 -2.89229 1.76635 0
M  V30 15754 C 1549.93 -3.12715 3.05824 0
M  V30 15755 C 1548.99 -4.31523 3.01122 0
M  V30 15756 O 1548.02 -4.28207 3.75004 0
M  V30 15757 N 1549.22 -5.37294 2.19763 0
M  V30 15758 H 1551.99 -1.33196 2.68475 0
M  V30 15759 H 1549.55 -0.586269 1.50912 0
M  V30 15760 H 1551.54 -3.66796 1.71006 0
M  V30 15761 H 1550.11 -2.99791 0.885667 0
M  V30 15762 H 1549.33 -2.23083 3.25004 0
M  V30 15763 H 1550.62 -3.25257 3.91261 0
M  V30 15764 H 1550.01 -5.4284 1.5919 0
M  V30 15765 H 1548.57 -6.13557 2.19981 0
M  V30 15766 N 1552.01 -1.43353 -0.654814 0
M  V30 15767 C 1553.25 -1.451 -1.41682 0
M  V30 15768 C 1553.58 -0.0743864 -1.94057 0
M  V30 15769 O 1552.86 0.904515 -1.72188 0
M  V30 15770 C 1553.14 -2.49204 -2.59941 0
M  V30 15771 C 1553 -3.96134 -2.13069 0
M  V30 15772 C 1554.31 -2.50064 -3.62155 0
M  V30 15773 H 1551.43 -0.528339 -0.513836 0
M  V30 15774 H 1554.08 -1.74892 -0.742489 0
M  V30 15775 H 1552.23 -2.2393 -3.1747 0
M  V30 15776 H 1553.9 -4.32459 -1.60552 0
M  V30 15777 H 1552.14 -4.09042 -1.44455 0
M  V30 15778 H 1552.81 -4.64585 -2.98101 0
M  V30 15779 H 1555.29 -2.72587 -3.14382 0
M  V30 15780 H 1554.16 -3.24849 -4.42452 0
M  V30 15781 H 1554.42 -1.53385 -4.14639 0
M  V30 15782 N 1553.48 0.89303 -1.29857 0
M  V30 15783 C 1554.43 1.98497 -1.12173 0
M  V30 15784 C 1555.42 1.60852 -0.039207 0
M  V30 15785 O 1556.61 1.75055 -0.261652 0
M  V30 15786 C 1553.74 3.33674 -0.807259 0
M  V30 15787 C 1552.82 3.77658 -1.92965 0
M  V30 15788 N 1553.22 3.93814 -3.17402 0
M  V30 15789 C 1551.51 4.06988 -1.82419 0
M  V30 15790 C 1552.21 4.30988 -3.90671 0
M  V30 15791 N 1551.19 4.40403 -3.18662 0
M  V30 15792 H 1554.99 2.09068 -2.06562 0
M  V30 15793 H 1552.51 1.0823 -1.21078 0
M  V30 15794 H 1554.5 4.11617 -0.661603 0
M  V30 15795 H 1553.16 3.24445 0.128646 0
M  V30 15796 H 1554.17 3.79164 -3.52782 0
M  V30 15797 H 1550.85 4.06279 -0.961436 0
M  V30 15798 H 1552.24 4.51278 -4.97793 0
M  V30 15799 N 1554.96 1.12442 1.10429 0
M  V30 15800 C 1556.2 0.889854 1.84013 0
M  V30 15801 C 1556.57 -0.573951 1.83221 0
M  V30 15802 O 1557.77 -0.925683 2.52358 0
M  V30 15803 C 1556.04 1.44893 3.26712 0
M  V30 15804 S 1557.6 1.35291 4.17423 0
M  V30 15805 H 1554.41 0.321004 0.634411 0
M  V30 15806 H 1557.02 1.43395 1.32884 0
M  V30 15807 H 1555.72 2.50788 3.24859 0
M  V30 15808 H 1555.25 0.902325 3.82912 0
M  V30 15809 H 1557.27 0.324412 4.95138 0
M  V30 15810 N 1556.44 -1.28223 0.91633 0
M  V30 15811 C 1557.69 -1.94149 0.546705 0
M  V30 15812 C 1558 -1.72904 -0.914529 0
M  V30 15813 O 1559.21 -2.33075 -1.39243 0
M  V30 15814 C 1557.66 -3.47759 0.92691 0
M  V30 15815 C 1557.27 -3.77779 2.40805 0
M  V30 15816 C 1559.02 -4.19829 0.627994 0
M  V30 15817 C 1556.92 -5.2471 2.72825 0
M  V30 15818 H 1555.85 -0.726787 0.200739 0
M  V30 15819 H 1558.5 -1.45694 1.1156 0
M  V30 15820 H 1556.89 -3.9496 0.286779 0
M  V30 15821 H 1558.06 -3.41377 3.09513 0
M  V30 15822 H 1556.37 -3.18887 2.67769 0
M  V30 15823 H 1558.97 -5.27999 0.843862 0
M  V30 15824 H 1559.31 -4.14028 -0.434315 0
M  V30 15825 H 1559.85 -3.78413 1.22671 0
M  V30 15826 H 1556.59 -5.35591 3.77919 0
M  V30 15827 H 1556.11 -5.623 2.08756 0
M  V30 15828 H 1557.79 -5.92475 2.59965 0
M  V30 15829 N 1557.92 -0.68059 -1.42147 0
M  V30 15830 C 1558.88 -0.0149865 -2.29195 0
M  V30 15831 C 1559.88 0.723163 -1.43621 0
M  V30 15832 O 1561.07 0.560297 -1.64943 0
M  V30 15833 C 1558.2 0.989375 -3.26227 0
M  V30 15834 H 1559.4 -0.781236 -2.89546 0
M  V30 15835 H 1556.95 -0.443256 -1.49883 0
M  V30 15836 H 1557.68 1.78391 -2.70827 0
M  V30 15837 H 1557.47 0.463401 -3.89352 0
M  V30 15838 H 1558.96 1.45334 -3.91494 0
M  V30 15839 N 1559.4 1.51781 -0.424309 0
M  V30 15840 C 1560.62 2.06871 0.147968 0
M  V30 15841 C 1561.05 1.29093 1.36808 0
M  V30 15842 O 1560.4 0.325279 1.78358 0
M  V30 15843 C 1560.45 3.57631 0.461757 0
M  V30 15844 O 1559.56 3.82149 1.55035 0
M  V30 15845 H 1558.9 0.663957 0.00757275 0
M  V30 15846 H 1561.43 1.95547 -0.601888 0
M  V30 15847 H 1561.44 4.01668 0.716005 0
M  V30 15848 H 1560.11 4.1367 -0.430081 0
M  V30 15849 H 1558.69 3.49984 1.28709 0
M  V30 15850 N 1560.87 0.155222 1.56834 0
M  V30 15851 C 1562.1 -0.499816 2.00463 0
M  V30 15852 C 1562.51 -1.58419 1.0344 0
M  V30 15853 O 1561.85 -1.83683 0.0247026 0
M  V30 15854 C 1561.92 -1.15251 3.40525 0
M  V30 15855 C 1561.58 -0.211738 4.56509 0
M  V30 15856 C 1562.58 0.563768 5.16834 0
M  V30 15857 C 1560.26 -0.112248 5.02175 0
M  V30 15858 C 1562.26 1.42613 6.21241 0
M  V30 15859 C 1559.94 0.753709 6.06434 0
M  V30 15860 C 1560.94 1.52149 6.65837 0
M  V30 15861 O 1560.63 2.37301 7.68078 0
M  V30 15862 H 1560.36 -0.133869 0.662612 0
M  V30 15863 H 1562.92 0.249256 2.03882 0
M  V30 15864 H 1561.15 -1.94939 3.3397 0
M  V30 15865 H 1562.83 -1.70811 3.6821 0
M  V30 15866 H 1563.6 0.496985 4.82447 0
M  V30 15867 H 1559.48 -0.699614 4.5566 0
M  V30 15868 H 1563.02 2.02587 6.67536 0
M  V30 15869 H 1558.92 0.821753 6.40248 0
M  V30 15870 H 1559.69 2.30639 7.85333 0
M  V30 15871 N 1562.35 -1.57153 -0.118549 0
M  V30 15872 C 1563.6 -1.84511 -0.824623 0
M  V30 15873 C 1563.92 -0.740473 -1.80394 0
M  V30 15874 O 1563.19 0.235481 -1.9448 0
M  V30 15875 H 1561.77 -0.680764 -0.307522 0
M  V30 15876 H 1564.43 -1.94613 -0.105764 0
M  V30 15877 H 1563.53 -2.80444 -1.36958 0
M  V30 15878 N 1563.83 0.388742 -1.5273 0
M  V30 15879 C 1565.25 0.728828 -1.41987 0
M  V30 15880 C 1565.45 1.94116 -0.540493 0
M  V30 15881 O 1564.5 2.52496 -0.0140397 0
M  V30 15882 C 1565.81 0.963683 -2.8484 0
M  V30 15883 C 1567.36 1.06514 -2.94319 0
M  V30 15884 C 1567.84 1.33262 -4.38184 0
M  V30 15885 N 1569.33 1.40083 -4.4151 0
M  V30 15886 C 1570.06 1.62446 -5.49908 0
M  V30 15887 N 1569.56 1.82277 -6.68391 0
M  V30 15888 N 1571.35 1.64627 -5.37452 0
M  V30 15889 H 1563.5 -0.408984 -2.08425 0
M  V30 15890 H 1565.77 -0.120791 -0.940273 0
M  V30 15891 H 1565.47 0.144986 -3.51401 0
M  V30 15892 H 1565.35 1.87828 -3.27109 0
M  V30 15893 H 1567.73 1.8744 -2.27926 0
M  V30 15894 H 1567.81 0.12845 -2.55477 0
M  V30 15895 H 1567.46 0.528457 -5.05143 0
M  V30 15896 H 1567.39 2.28216 -4.74579 0
M  V30 15897 H 1569.88 1.26465 -3.56111 0
M  V30 15898 H 1570.19 1.98848 -7.46779 0
M  V30 15899 H 1568.54 1.79501 -6.7142 0
M  V30 15900 H 1571.73 1.48686 -4.43858 0
M  V30 15901 H 1571.9 1.81715 -6.22 0
M  V30 15902 N 1565.31 1.43698 0.647203 0
M  V30 15903 C 1566.55 1.45633 1.40703 0
M  V30 15904 C 1566.88 0.0828643 1.94323 0
M  V30 15905 O 1566.14 -0.913033 1.73096 0
M  V30 15906 C 1566.44 2.45083 2.60133 0
M  V30 15907 C 1566.1 3.9081 2.24896 0
M  V30 15908 C 1564.76 4.30499 2.14998 0
M  V30 15909 C 1567.12 4.8262 1.96794 0
M  V30 15910 C 1564.44 5.59942 1.75163 0
M  V30 15911 C 1566.8 6.12433 1.58456 0
M  V30 15912 C 1565.46 6.51092 1.47088 0
M  V30 15913 H 1564.73 0.53291 0.514867 0
M  V30 15914 H 1567.38 1.76814 0.735458 0
M  V30 15915 H 1565.68 2.07327 3.3245 0
M  V30 15916 H 1567.38 2.43833 3.1835 0
M  V30 15917 H 1563.97 3.59403 2.33512 0
M  V30 15918 H 1568.15 4.52724 2.03359 0
M  V30 15919 H 1563.41 5.88728 1.64952 0
M  V30 15920 H 1567.58 6.83042 1.35745 0
M  V30 15921 H 1565.21 7.51299 1.15992 0
M  V30 15922 N 1566.79 -0.886131 1.30328 0
M  V30 15923 C 1568.03 -1.64026 1.19261 0
M  V30 15924 C 1568.37 -1.92553 -0.252379 0
M  V30 15925 O 1567.64 -1.54564 -1.18069 0
M  V30 15926 C 1567.92 -2.9808 2.0204 0
M  V30 15927 C 1567.78 -2.76534 3.54752 0
M  V30 15928 C 1569.1 -3.98989 1.85731 0
M  V30 15929 H 1566.21 -0.595224 0.4346 0
M  V30 15930 H 1568.86 -1.0255 1.59949 0
M  V30 15931 H 1567.01 -3.50552 1.67469 0
M  V30 15932 H 1568.68 -2.3086 3.99376 0
M  V30 15933 H 1566.92 -2.1106 3.78993 0
M  V30 15934 H 1567.59 -3.71849 4.07961 0
M  V30 15935 H 1570.07 -3.55673 2.15953 0
M  V30 15936 H 1568.94 -4.90699 2.45979 0
M  V30 15937 H 1569.21 -4.34501 0.816152 0
M  V30 15938 N 1568.26 -1.13026 -1.09832 0
M  V30 15939 C 1569.21 -0.799174 -2.1844 0
M  V30 15940 C 1570.21 0.216695 -1.68008 0
M  V30 15941 O 1571.41 0.0742662 -1.79847 0
M  V30 15942 H 1567.79 -0.24064 -0.712458 0
M  V30 15943 H 1569.76 -1.72342 -2.436 0
M  V30 15944 C 1568.51 -0.276925 -3.46595 0
M  V30 15945 H 1567.83 -1.04993 -3.85768 0
M  V30 15946 H 1569.27 -0.0836468 -4.23917 0
M  V30 15947 C 1567.73 0.996479 -3.21826 0
M  V30 15948 O 1568.26 2.0731 -3.44072 0
M  V30 15949 N 1566.47 0.925903 -2.75455 0
M  V30 15950 H 1566.01 0.0496383 -2.57552 0
M  V30 15951 H 1565.97 1.77853 -2.5926 0
M  V30 15952 N 1569.74 1.27735 -0.923117 0
M  V30 15953 C 1570.67 2.26095 -0.375982 0
M  V30 15954 C 1571.69 1.55227 0.490763 0
M  V30 15955 O 1572.88 1.7589 0.304127 0
M  V30 15956 C 1569.98 3.35479 0.480342 0
M  V30 15957 C 1569.15 4.35866 -0.36605 0
M  V30 15958 C 1568.21 5.24466 0.42688 0
M  V30 15959 O 1567.23 5.68964 -0.163825 0
M  V30 15960 N 1568.44 5.54192 1.72777 0
M  V30 15961 H 1571.2 2.73679 -1.22147 0
M  V30 15962 H 1568.76 1.41314 -0.790056 0
M  V30 15963 H 1570.75 3.91693 1.01776 0
M  V30 15964 H 1569.32 2.87531 1.22657 0
M  V30 15965 H 1568.54 3.7898 -1.08479 0
M  V30 15966 H 1569.83 4.9995 -0.944849 0
M  V30 15967 H 1569.23 5.19888 2.23008 0
M  V30 15968 H 1567.79 6.13125 2.21181 0
M  V30 15969 N 1571.22 0.688118 1.41784 0
M  V30 15970 C 1572.45 0.223231 2.06195 0
M  V30 15971 C 1572.87 -1.11601 1.51416 0
M  V30 15972 O 1572.23 -1.69701 0.638059 0
M  V30 15973 C 1572.28 0.183257 3.60134 0
M  V30 15974 O 1571.38 -0.844186 4.03667 0
M  V30 15975 H 1570.72 0.110925 0.654669 0
M  V30 15976 H 1573.25 0.940882 1.81683 0
M  V30 15977 H 1573.26 0.0115951 4.07998 0
M  V30 15978 H 1571.94 1.16072 3.99375 0
M  V30 15979 H 1570.51 -0.642484 3.67323 0
M  V30 15980 N 1572.7 -1.51554 0.432352 0
M  V30 15981 C 1573.66 -2.26195 -0.369912 0
M  V30 15982 C 1574.66 -1.29446 -0.953961 0
M  V30 15983 O 1575.85 -1.53199 -0.829193 0
M  V30 15984 C 1572.98 -3.04993 -1.52289 0
M  V30 15985 H 1574.18 -2.98551 0.284173 0
M  V30 15986 H 1571.73 -1.55197 0.1854 0
M  V30 15987 H 1572.46 -2.37043 -2.21317 0
M  V30 15988 H 1572.25 -3.76051 -1.11032 0
M  V30 15989 H 1573.74 -3.61547 -2.08982 0
M  V30 15990 N 1574.18 -0.163538 -1.56749 0
M  V30 15991 C 1575.4 0.489888 -2.01017 0
M  V30 15992 C 1575.82 1.57327 -1.04373 0
M  V30 15993 O 1575.18 1.82449 -0.0433414 0
M  V30 15994 C 1575.23 1.07537 -3.45135 0
M  V30 15995 O 1574.95 0.0352465 -4.38086 0
M  V30 15996 C 1576.45 1.80779 -4.04764 0
M  V30 15997 H 1573.67 0.126095 -0.659046 0
M  V30 15998 H 1576.21 -0.262982 -2.02802 0
M  V30 15999 H 1574.37 1.77877 -3.44149 0
M  V30 16000 H 1574.78 0.466426 -5.22422 0
M  V30 16001 H 1576.26 2.17014 -5.07552 0
M  V30 16002 H 1576.73 2.6999 -3.46413 0
M  V30 16003 H 1577.34 1.15098 -4.09429 0
M  V30 16004 N 1575.65 1.57214 0.110213 0
M  V30 16005 C 1576.89 1.87133 0.822229 0
M  V30 16006 C 1577.26 0.752645 1.76633 0
M  V30 16007 O 1578.46 0.933837 2.52057 0
M  V30 16008 C 1576.73 3.22286 1.54487 0
M  V30 16009 S 1578.29 3.73861 2.29725 0
M  V30 16010 H 1575.11 0.65598 0.274248 0
M  V30 16011 H 1577.71 1.95336 0.0801112 0
M  V30 16012 H 1576.41 4.0164 0.84343 0
M  V30 16013 H 1575.94 3.17184 2.32719 0
M  V30 16014 H 1577.96 3.46066 3.55602 0
M  V30 16015 N 1577.13 -0.380637 1.52934 0
M  V30 16016 C 1578.38 -1.1265 1.68635 0
M  V30 16017 C 1578.71 -1.89397 0.429227 0
M  V30 16018 O 1577.99 -1.85863 -0.573182 0
M  V30 16019 C 1578.27 -2.09797 2.92673 0
M  V30 16020 C 1578.12 -1.36758 4.28506 0
M  V30 16021 C 1579.44 -3.10117 3.12274 0
M  V30 16022 H 1576.56 -0.408158 0.613658 0
M  V30 16023 H 1579.2 -0.408947 1.85547 0
M  V30 16024 H 1577.35 -2.70987 2.78385 0
M  V30 16025 H 1579.02 -0.784679 4.54577 0
M  V30 16026 H 1577.27 -0.669413 4.28604 0
M  V30 16027 H 1577.94 -2.07786 5.11399 0
M  V30 16028 H 1580.41 -2.59022 3.25648 0
M  V30 16029 H 1579.29 -3.75328 4.00525 0
M  V30 16030 H 1579.55 -3.79451 2.26868 0
M  V30 16031 N 1578.61 -1.44039 -0.639573 0
M  V30 16032 C 1579.84 -1.50063 -1.43164 0
M  V30 16033 C 1580.26 -0.123906 -1.87691 0
M  V30 16034 O 1579.62 0.885192 -1.58221 0
M  V30 16035 C 1579.67 -2.46305 -2.63375 0
M  V30 16036 O 1578.77 -1.95874 -3.62915 0
M  V30 16037 H 1578.11 -0.507052 -0.428713 0
M  V30 16038 H 1580.64 -1.8909 -0.781415 0
M  V30 16039 H 1580.65 -2.64062 -3.11023 0
M  V30 16040 H 1579.33 -3.46309 -2.3031 0
M  V30 16041 H 1577.9 -1.87844 -3.22132 0
M  V30 16042 N 1580.09 0.879207 -1.30796 0
M  V30 16043 C 1581.02 2.00158 -1.20246 0
M  V30 16044 C 1582 1.69852 -0.091769 0
M  V30 16045 O 1583.18 1.92246 -0.274792 0
M  V30 16046 C 1580.31 3.3545 -0.899472 0
M  V30 16047 C 1579.27 3.80033 -1.96873 0
M  V30 16048 C 1578.59 5.12681 -1.51861 0
M  V30 16049 C 1579.89 3.98136 -3.38061 0
M  V30 16050 H 1581.59 2.09242 -2.14145 0
M  V30 16051 H 1579.13 1.00535 -1.03096 0
M  V30 16052 H 1581.09 4.13497 -0.812299 0
M  V30 16053 H 1579.81 3.26513 0.075189 0
M  V30 16054 H 1578.47 3.04219 -2.04564 0
M  V30 16055 H 1578.12 5.00178 -0.532063 0
M  V30 16056 H 1577.82 5.43482 -2.23386 0
M  V30 16057 H 1579.34 5.93247 -1.44534 0
M  V30 16058 H 1580.76 4.66604 -3.33096 0
M  V30 16059 H 1579.15 4.40321 -4.07722 0
M  V30 16060 H 1580.22 3.01807 -3.79526 0
M  V30 16061 N 1581.57 1.13606 1.09231 0
M  V30 16062 C 1582.53 0.818197 2.14099 0
M  V30 16063 C 1583.53 -0.173275 1.59864 0
M  V30 16064 O 1584.72 0.05405 1.74116 0
M  V30 16065 C 1581.85 0.218138 3.40201 0
M  V30 16066 H 1583.05 1.74748 2.43727 0
M  V30 16067 H 1580.6 0.940962 1.24802 0
M  V30 16068 H 1581.33 -0.720269 3.162 0
M  V30 16069 H 1581.12 0.932156 3.80859 0
M  V30 16070 H 1582.61 0.0126639 4.17598 0
M  V30 16071 N 1583.05 -1.27244 0.929878 0
M  V30 16072 C 1584 -2.24434 0.401656 0
M  V30 16073 C 1584.98 -1.53087 -0.495298 0
M  V30 16074 O 1586.17 -1.73851 -0.332387 0
M  V30 16075 C 1583.3 -3.41588 -0.342424 0
M  V30 16076 C 1582.39 -4.20236 0.571171 0
M  V30 16077 N 1582.78 -4.76661 1.69197 0
M  V30 16078 C 1581.08 -4.44424 0.374595 0
M  V30 16079 C 1581.78 -5.35987 2.26036 0
M  V30 16080 N 1580.75 -5.21043 1.54969 0
M  V30 16081 H 1584.55 -2.65644 1.25739 0
M  V30 16082 H 1582.07 -1.422 0.784408 0
M  V30 16083 H 1584.07 -4.10319 -0.737805 0
M  V30 16084 H 1582.73 -3.01908 -1.19506 0
M  V30 16085 H 1583.74 -4.74545 2.07431 0
M  V30 16086 H 1580.41 -4.15205 -0.437201 0
M  V30 16087 H 1581.8 -5.90583 3.20408 0
M  V30 16088 N 1584.52 -0.695628 -1.41417 0
M  V30 16089 C 1585.43 -0.0308378 -2.3458 0
M  V30 16090 C 1586.45 0.766 -1.56232 0
M  V30 16091 O 1587.63 0.703548 -1.88712 0
M  V30 16092 C 1584.69 0.894162 -3.34971 0
M  V30 16093 C 1583.75 0.0895231 -4.29207 0
M  V30 16094 C 1582.98 0.970467 -5.24802 0
M  V30 16095 O 1583.21 2.20997 -5.25848 0
M  V30 16096 O 1582.14 0.420114 -6.00432 0
M  V30 16097 H 1585.97 -0.798775 -2.93007 0
M  V30 16098 H 1583.55 -0.455964 -1.42272 0
M  V30 16099 H 1585.43 1.42458 -3.9659 0
M  V30 16100 H 1584.11 1.64159 -2.78987 0
M  V30 16101 H 1583.02 -0.4855 -3.70936 0
M  V30 16102 H 1584.35 -0.619241 -4.88289 0
M  V30 16103 N 1586 1.51322 -0.440383 0
M  V30 16104 C 1587.23 2.0653 0.123649 0
M  V30 16105 C 1587.64 1.30751 1.36197 0
M  V30 16106 O 1587 0.367932 1.78753 0
M  V30 16107 C 1587.05 3.58778 0.442802 0
M  V30 16108 O 1586.77 4.31695 -0.746375 0
M  V30 16109 C 1588.27 4.3051 1.05717 0
M  V30 16110 H 1585.49 0.670968 0.00657466 0
M  V30 16111 H 1588.04 1.94864 -0.620341 0
M  V30 16112 H 1586.19 3.70349 1.13669 0
M  V30 16113 H 1586.61 5.22368 -0.472466 0
M  V30 16114 H 1588.08 5.38111 1.23046 0
M  V30 16115 H 1588.56 3.88999 2.03903 0
M  V30 16116 H 1589.16 4.2339 0.402574 0
M  V30 16117 N 1587.48 0.171848 1.5666 0
M  V30 16118 C 1588.89 -0.34479 1.83489 0
M  V30 16119 C 1589.24 -1.63025 1.09167 0
M  V30 16120 O 1588.37 -2.13634 0.34488 0
M  V30 16121 C 1588.96 -0.63234 3.32847 0
M  V30 16122 C 1587.52 -1.09342 3.60169 0
M  V30 16123 C 1586.67 -0.129569 2.76997 0
M  V30 16124 H 1589.62 0.396101 1.53677 0
M  V30 16125 H 1589.64 -1.48434 3.50354 0
M  V30 16126 H 1589.15 0.303409 3.86912 0
M  V30 16127 H 1587.25 -2.04425 3.11514 0
M  V30 16128 H 1587.37 -1.00221 4.685 0
M  V30 16129 H 1585.73 -0.627033 2.46861 0
M  V30 16130 H 1586.51 0.800211 3.33844 0
M  V30 16131 N 1588.96 -1.5727 -0.101874 0
M  V30 16132 C 1590.37 -1.74753 -0.657147 0
M  V30 16133 C 1590.72 -0.793052 -1.79458 0
M  V30 16134 O 1589.84 0.0300559 -2.16379 0
M  V30 16135 C 1590.44 -3.1688 -1.19885 0
M  V30 16136 C 1589 -3.3581 -1.70025 0
M  V30 16137 C 1588.15 -2.70575 -0.607007 0
M  V30 16138 H 1591.1 -1.58214 0.124158 0
M  V30 16139 H 1591.12 -3.19378 -2.06829 0
M  V30 16140 H 1590.63 -3.86325 -0.37079 0
M  V30 16141 H 1588.73 -2.71434 -2.55253 0
M  V30 16142 H 1588.84 -4.44086 -1.79791 0
M  V30 16143 H 1587.21 -2.32284 -1.04481 0
M  V30 16144 H 1587.99 -3.42655 0.21036 0
M  V30 16145 N 1590.44 0.372521 -1.53134 0
M  V30 16146 C 1591.66 1.13668 -1.72879 0
M  V30 16147 C 1592.08 1.83246 -0.454588 0
M  V30 16148 O 1591.44 1.73302 0.572062 0
M  V30 16149 C 1591.49 2.17226 -2.88955 0
M  V30 16150 O 1591.21 1.50483 -4.11445 0
M  V30 16151 C 1592.71 3.06243 -3.20516 0
M  V30 16152 H 1589.93 0.340156 -0.57839 0
M  V30 16153 H 1592.47 0.433557 -1.99851 0
M  V30 16154 H 1590.63 2.83148 -2.64397 0
M  V30 16155 H 1591.04 2.19425 -4.76396 0
M  V30 16156 H 1592.52 3.74901 -4.05158 0
M  V30 16157 H 1592.99 3.70669 -2.35587 0
M  V30 16158 H 1593.6 2.45946 -3.46973 0
M  V30 16159 N 1591.91 1.44376 0.631925 0
M  V30 16160 C 1592.88 1.50825 1.72582 0
M  V30 16161 C 1593.88 0.390379 1.55989 0
M  V30 16162 O 1595.07 0.65297 1.61499 0
M  V30 16163 C 1592.2 1.38141 3.11657 0
M  V30 16164 H 1593.39 2.48265 1.68239 0
M  V30 16165 H 1590.94 1.31456 0.845514 0
M  V30 16166 H 1591.68 0.417905 3.21596 0
M  V30 16167 H 1591.46 2.19198 3.25107 0
M  V30 16168 H 1592.95 1.45633 3.91383 0
M  V30 16169 N 1593.39 -0.872258 1.31261 0
M  V30 16170 C 1594.32 -1.99517 1.21306 0
M  V30 16171 C 1595.3 -1.69801 0.100775 0
M  V30 16172 O 1596.49 -1.92098 0.284984 0
M  V30 16173 C 1593.62 -3.34968 0.917249 0
M  V30 16174 C 1592.57 -3.78984 1.98885 0
M  V30 16175 C 1591.9 -5.11869 1.54578 0
M  V30 16176 C 1593.2 -3.96338 3.40167 0
M  V30 16177 H 1594.89 -2.08104 2.15251 0
M  V30 16178 H 1592.44 -0.999865 1.03628 0
M  V30 16179 H 1594.39 -4.1306 0.834217 0
M  V30 16180 H 1593.11 -3.26549 -0.0578721 0
M  V30 16181 H 1591.77 -3.0313 2.06174 0
M  V30 16182 H 1591.42 -4.99889 0.558581 0
M  V30 16183 H 1591.12 -5.4229 2.26265 0
M  V30 16184 H 1592.65 -5.92472 1.47678 0
M  V30 16185 H 1594.06 -4.64831 3.35566 0
M  V30 16186 H 1592.46 -4.38153 4.10051 0
M  V30 16187 H 1593.53 -2.9979 3.81122 0
M  V30 16188 N 1594.87 -1.14184 -1.08627 0
M  V30 16189 C 1596.12 -0.903271 -1.80344 0
M  V30 16190 C 1596.43 0.571801 -1.87056 0
M  V30 16191 O 1597.64 0.92756 -2.55164 0
M  V30 16192 C 1596.09 -1.56653 -3.24018 0
M  V30 16193 C 1595.7 -3.07771 -3.25548 0
M  V30 16194 C 1597.45 -1.40899 -4.00434 0
M  V30 16195 C 1595.35 -3.66943 -4.63796 0
M  V30 16196 H 1594.28 -0.334288 -0.675846 0
M  V30 16197 H 1596.93 -1.3705 -1.22023 0
M  V30 16198 H 1595.32 -1.02698 -3.82452 0
M  V30 16199 H 1596.49 -3.68375 -2.76834 0
M  V30 16200 H 1594.8 -3.23136 -2.62625 0
M  V30 16201 H 1597.4 -1.82511 -5.02587 0
M  V30 16202 H 1597.74 -0.354822 -4.14785 0
M  V30 16203 H 1598.28 -1.91879 -3.48464 0
M  V30 16204 H 1595.02 -4.72203 -4.54648 0
M  V30 16205 H 1594.54 -3.11119 -5.12801 0
M  V30 16206 H 1596.22 -3.67103 -5.32771 0
M  V30 16207 N 1596.35 1.26749 -0.936613 0
M  V30 16208 C 1597.28 2.2892 -0.460213 0
M  V30 16209 C 1598.26 1.63065 0.484135 0
M  V30 16210 O 1599.44 1.90305 0.386973 0
M  V30 16211 C 1596.57 3.46172 0.279648 0
M  V30 16212 C 1595.53 4.24083 -0.57771 0
M  V30 16213 C 1594.85 5.33903 0.291843 0
M  V30 16214 C 1596.15 4.88562 -1.84673 0
M  V30 16215 H 1597.85 2.69019 -1.31412 0
M  V30 16216 H 1595.39 1.29325 -0.633333 0
M  V30 16217 H 1597.35 4.16755 0.623931 0
M  V30 16218 H 1596.07 3.05014 1.16765 0
M  V30 16219 H 1594.73 3.55258 -0.904824 0
M  V30 16220 H 1594.38 4.88986 1.17906 0
M  V30 16221 H 1594.08 5.8694 -0.278372 0
M  V30 16222 H 1595.6 6.07326 0.631498 0
M  V30 16223 H 1597.02 5.51384 -1.56997 0
M  V30 16224 H 1595.41 5.51697 -2.36115 0
M  V30 16225 H 1596.48 4.11761 -2.56088 0
M  V30 16226 N 1597.83 0.703118 1.41046 0
M  V30 16227 C 1599.1 0.164985 1.94903 0
M  V30 16228 C 1599.48 -1.32665 1.64205 0
M  V30 16229 O 1598.83 -2.07675 0.953058 0
M  V30 16230 C 1599.04 0.464354 3.45897 0
M  V30 16231 C 1600.39 0.396205 4.22747 0
M  V30 16232 O 1601.41 0.399698 3.5395 0
M  V30 16233 O 1600.27 0.362874 5.45294 0
M  V30 16234 H 1597.37 0.0193901 0.826773 0
M  V30 16235 H 1599.91 0.779796 1.50722 0
M  V30 16236 H 1598.68 1.49653 3.61552 0
M  V30 16237 H 1598.31 -0.18105 3.97188 0
M  V30 16238 N 1599.3 -1.51086 0.448402 0
M  V30 16239 C 1600.55 -2.02476 -0.114511 0
M  V30 16240 C 1600.88 -1.33126 -1.4139 0
M  V30 16241 O 1600.16 -0.449665 -1.89231 0
M  V30 16242 C 1600.44 -3.58659 -0.321842 0
M  V30 16243 C 1600.29 -4.38612 0.996975 0
M  V30 16244 C 1601.61 -4.26473 -1.08667 0
M  V30 16245 H 1598.73 -0.735906 -0.0401431 0
M  V30 16246 H 1601.37 -1.80622 0.589563 0
M  V30 16247 H 1599.52 -3.77411 -0.92157 0
M  V30 16248 H 1601.2 -4.31484 1.63154 0
M  V30 16249 H 1599.44 -4.03255 1.599 0
M  V30 16250 H 1600.11 -5.46087 0.805817 0
M  V30 16251 H 1602.59 -4.12058 -0.578559 0
M  V30 16252 H 1601.46 -5.35611 -1.20051 0
M  V30 16253 H 1601.72 -3.88086 -2.11758 0
M  V30 16254 N 1600.78 -0.180154 -1.56567 0
M  V30 16255 C 1601.71 0.742131 -2.21393 0
M  V30 16256 C 1602.69 1.23253 -1.1723 0
M  V30 16257 O 1603.88 1.28408 -1.45688 0
M  V30 16258 C 1601.01 1.96799 -2.8616 0
M  V30 16259 C 1599.96 1.6131 -3.96438 0
M  V30 16260 C 1599.29 2.91434 -4.48297 0
M  V30 16261 C 1600.59 0.834382 -5.15592 0
M  V30 16262 H 1602.28 0.201759 -2.98719 0
M  V30 16263 H 1599.83 0.0956016 -1.43682 0
M  V30 16264 H 1601.78 2.61828 -3.30188 0
M  V30 16265 H 1600.51 2.53264 -2.06215 0
M  V30 16266 H 1599.16 0.986451 -3.53079 0
M  V30 16267 H 1598.81 3.45958 -3.65133 0
M  V30 16268 H 1598.51 2.68439 -5.22699 0
M  V30 16269 H 1600.04 3.57478 -4.95017 0
M  V30 16270 H 1601.45 1.38745 -5.56258 0
M  V30 16271 H 1599.85 0.703132 -5.95966 0
M  V30 16272 H 1600.92 -0.167554 -4.8461 0
M  V30 16273 N 1602.26 1.57322 0.0935319 0
M  V30 16274 C 1603.49 1.90754 0.814111 0
M  V30 16275 C 1603.91 0.774571 1.71412 0
M  V30 16276 O 1603.27 -0.273775 1.79221 0
M  V30 16277 C 1603.32 3.23055 1.60211 0
M  V30 16278 O 1602.42 3.10755 2.71118 0
M  V30 16279 H 1601.76 0.625237 0.223552 0
M  V30 16280 H 1604.29 2.04486 0.068288 0
M  V30 16281 H 1604.3 3.56401 1.986 0
M  V30 16282 H 1602.98 4.05101 0.941607 0
M  V30 16283 H 1601.55 2.88926 2.35745 0
M  V30 16284 N 1603.74 -0.364395 1.53329 0
M  V30 16285 C 1604.99 -1.10473 1.69234 0
M  V30 16286 C 1605.31 -1.89799 0.447347 0
M  V30 16287 O 1604.58 -1.8835 -0.538612 0
M  V30 16288 H 1603.16 -0.410826 0.623884 0
M  V30 16289 H 1605.82 -0.410721 1.90523 0
M  V30 16290 H 1604.92 -1.79387 2.55396 0
M  V30 16291 N 1605.22 -1.44709 -0.62426 0
M  V30 16292 C 1606.63 -1.28747 -0.9432 0
M  V30 16293 C 1606.83 -0.228265 -2.00203 0
M  V30 16294 O 1605.89 0.383506 -2.49571 0
M  V30 16295 C 1607.2 -2.66124 -1.39995 0
M  V30 16296 C 1608.75 -2.73889 -1.51506 0
M  V30 16297 C 1609.22 -4.11751 -2.00562 0
M  V30 16298 N 1610.72 -4.13962 -2.07821 0
M  V30 16299 C 1611.45 -5.1749 -2.46964 0
M  V30 16300 N 1610.95 -6.31376 -2.85195 0
M  V30 16301 N 1612.74 -5.04846 -2.47158 0
M  V30 16302 H 1604.89 -2.12264 0.0758746 0
M  V30 16303 H 1607.15 -0.947566 -0.0286915 0
M  V30 16304 H 1606.86 -3.4474 -0.696203 0
M  V30 16305 H 1606.73 -2.93474 -2.36967 0
M  V30 16306 H 1609.12 -1.95587 -2.20975 0
M  V30 16307 H 1609.2 -2.50272 -0.528911 0
M  V30 16308 H 1608.85 -4.90532 -1.31685 0
M  V30 16309 H 1608.78 -4.32749 -3.0006 0
M  V30 16310 H 1611.27 -3.31771 -1.80933 0
M  V30 16311 H 1611.58 -7.06179 -3.13896 0
M  V30 16312 H 1609.92 -6.34804 -2.8293 0
M  V30 16313 H 1613.12 -4.14927 -2.16686 0
M  V30 16314 H 1613.29 -5.85651 -2.77339 0
M  V30 16315 N 1606.69 0.865285 -1.31722 0
M  V30 16316 C 1608.11 1.43445 -1.195 0
M  V30 16317 C 1608.46 1.95212 0.196688 0
M  V30 16318 O 1607.58 1.86666 1.09475 0
M  V30 16319 C 1608.18 2.6074 -2.16333 0
M  V30 16320 C 1606.74 3.13688 -2.08031 0
M  V30 16321 C 1605.88 1.86409 -2.05298 0
M  V30 16322 H 1608.83 0.6734 -1.43705 0
M  V30 16323 H 1608.85 3.37575 -1.75566 0
M  V30 16324 H 1608.37 2.23033 -3.17612 0
M  V30 16325 H 1606.47 3.56004 -1.09962 0
M  V30 16326 H 1606.58 3.75653 -2.97358 0
M  V30 16327 H 1604.94 2.05567 -1.50381 0
M  V30 16328 H 1605.73 1.50933 -3.08341 0
M  V30 16329 N 1608.17 1.14759 1.0802 0
M  V30 16330 C 1609.42 0.918248 1.80484 0
M  V30 16331 C 1609.75 -0.554986 1.86414 0
M  V30 16332 O 1609 -1.42732 1.33888 0
M  V30 16333 C 1609.3 1.4692 3.25805 0
M  V30 16334 C 1608.97 2.96176 3.39987 0
M  V30 16335 C 1607.63 3.36923 3.43564 0
M  V30 16336 C 1609.98 3.92131 3.43341 0
M  V30 16337 C 1607.31 4.72281 3.48092 0
M  V30 16338 C 1609.66 5.27351 3.49404 0
M  V30 16339 C 1608.33 5.67605 3.51256 0
M  V30 16340 H 1607.6 0.336011 0.660437 0
M  V30 16341 H 1610.24 1.43191 1.27156 0
M  V30 16342 H 1608.55 0.876571 3.81868 0
M  V30 16343 H 1610.24 1.26765 3.80436 0
M  V30 16344 H 1606.83 2.63675 3.37896 0
M  V30 16345 H 1611.02 3.61728 3.39804 0
M  V30 16346 H 1606.27 5.02823 3.4782 0
M  V30 16347 H 1610.45 6.01507 3.50946 0
M  V30 16348 H 1608.08 6.72474 3.54517 0
M  V30 16349 N 1609.65 -1.26251 0.943322 0
M  V30 16350 C 1611.06 -1.75591 0.634391 0
M  V30 16351 C 1611.41 -1.76812 -0.850406 0
M  V30 16352 O 1610.54 -1.38162 -1.66554 0
M  V30 16353 C 1611.13 -3.18871 1.14484 0
M  V30 16354 C 1609.69 -3.65817 0.886285 0
M  V30 16355 C 1608.84 -2.4523 1.2945 0
M  V30 16356 H 1611.79 -1.12297 1.12139 0
M  V30 16357 H 1611.81 -3.77205 0.499654 0
M  V30 16358 H 1611.32 -3.17951 2.22551 0
M  V30 16359 H 1609.42 -3.72165 -0.179913 0
M  V30 16360 H 1609.54 -4.54523 1.5148 0
M  V30 16361 H 1607.9 -2.44519 0.712919 0
M  V30 16362 H 1608.68 -2.47009 2.38415 0
M  V30 16363 N 1611.13 -0.710588 -1.40671 0
M  V30 16364 C 1612.08 -0.031353 -2.27978 0
M  V30 16365 C 1613.06 0.737643 -1.42995 0
M  V30 16366 O 1614.26 0.610666 -1.66132 0
M  V30 16367 C 1611.38 0.893329 -3.31473 0
M  V30 16368 C 1610.47 0.119785 -4.23931 0
M  V30 16369 N 1610.86 -0.894341 -4.9783 0
M  V30 16370 C 1609.16 0.353077 -4.446 0
M  V30 16371 C 1609.86 -1.3587 -5.6561 0
M  V30 16372 N 1608.84 -0.681786 -5.39308 0
M  V30 16373 H 1612.64 -0.808683 -2.82555 0
M  V30 16374 H 1610.15 -0.542734 -1.53063 0
M  V30 16375 H 1612.15 1.39521 -3.92861 0
M  V30 16376 H 1610.81 1.67009 -2.78457 0
M  V30 16377 H 1611.82 -1.27504 -5.01959 0
M  V30 16378 H 1608.5 1.10655 -4.02569 0
M  V30 16379 H 1609.89 -2.20108 -6.34825 0
M  V30 16380 N 1612.61 1.50847 -0.456408 0
M  V30 16381 C 1613.54 2.31077 0.335523 0
M  V30 16382 C 1614.52 1.37326 1.00377 0
M  V30 16383 O 1615.7 1.66247 1.00376 0
M  V30 16384 C 1612.83 3.16662 1.42627 0
M  V30 16385 C 1611.79 4.18846 0.88045 0
M  V30 16386 C 1611.11 4.93074 2.06838 0
M  V30 16387 C 1612.41 5.22208 -0.0982288 0
M  V30 16388 H 1614.11 2.97531 -0.334056 0
M  V30 16389 H 1611.65 1.43085 -0.162099 0
M  V30 16390 H 1613.61 3.71578 1.98765 0
M  V30 16391 H 1612.33 2.48066 2.12441 0
M  V30 16392 H 1610.99 3.65009 0.341147 0
M  V30 16393 H 1610.64 4.20963 2.75316 0
M  V30 16394 H 1610.34 5.62184 1.70947 0
M  V30 16395 H 1611.86 5.5082 2.63494 0
M  V30 16396 H 1613.28 5.72082 0.373481 0
M  V30 16397 H 1611.67 5.98954 -0.370674 0
M  V30 16398 H 1612.74 4.73859 -1.02887 0
M  V30 16399 N 1614.09 0.188454 1.56469 0
M  V30 16400 C 1615.5 -0.325309 1.83844 0
M  V30 16401 C 1615.85 -1.61858 1.1089 0
M  V30 16402 O 1614.97 -2.13256 0.36752 0
M  V30 16403 C 1615.57 -0.597002 3.33499 0
M  V30 16404 C 1614.13 -1.05515 3.61308 0
M  V30 16405 C 1613.27 -0.100182 2.77119 0
M  V30 16406 H 1616.22 0.412378 1.53249 0
M  V30 16407 H 1616.25 -1.44709 3.51908 0
M  V30 16408 H 1615.76 0.344429 3.86569 0
M  V30 16409 H 1613.86 -2.01109 3.13665 0
M  V30 16410 H 1613.97 -0.952461 4.69537 0
M  V30 16411 H 1612.34 -0.600815 2.47512 0
M  V30 16412 H 1613.12 0.835574 3.32976 0
M  V30 16413 N 1615.56 -1.5737 -0.0851874 0
M  V30 16414 C 1616.5 -1.99462 -1.12905 0
M  V30 16415 C 1617.51 -0.898597 -1.35754 0
M  V30 16416 O 1618.7 -1.17662 -1.34231 0
M  V30 16417 C 1615.8 -2.30689 -2.48266 0
M  V30 16418 C 1614.97 -3.61967 -2.45557 0
M  V30 16419 C 1614.03 -3.81017 -3.62922 0
M  V30 16420 O 1613.06 -4.52759 -3.44961 0
M  V30 16421 N 1614.26 -3.22348 -4.82775 0
M  V30 16422 H 1617.02 -2.89621 -0.7707 0
M  V30 16423 H 1614.58 -1.59564 -0.274033 0
M  V30 16424 H 1616.58 -2.40618 -3.254 0
M  V30 16425 H 1615.15 -1.46488 -2.76152 0
M  V30 16426 H 1614.37 -3.62916 -1.539 0
M  V30 16427 H 1615.65 -4.48191 -2.40836 0
M  V30 16428 H 1615.05 -2.64093 -5.00271 0
M  V30 16429 H 1613.61 -3.37747 -5.57468 0
M  V30 16430 N 1617.04 0.356258 -1.53521 0
M  V30 16431 C 1617.97 1.45722 -1.76912 0
M  V30 16432 C 1618.99 1.49257 -0.650091 0
M  V30 16433 O 1620.18 1.52569 -0.926557 0
M  V30 16434 C 1617.28 2.84444 -1.84241 0
M  V30 16435 C 1616.45 3.04497 -3.14007 0
M  V30 16436 C 1615.51 4.23387 -3.12458 0
M  V30 16437 O 1614.53 4.18113 -3.86225 0
M  V30 16438 N 1615.74 5.31278 -2.33931 0
M  V30 16439 H 1618.5 1.26031 -2.71912 0
M  V30 16440 H 1616.06 0.546052 -1.52414 0
M  V30 16441 H 1618.05 3.62133 -1.80671 0
M  V30 16442 H 1616.62 2.97338 -0.96484 0
M  V30 16443 H 1615.84 2.14387 -3.30805 0
M  V30 16444 H 1617.13 3.14769 -3.99747 0
M  V30 16445 H 1616.53 5.38428 -1.73527 0
M  V30 16446 H 1615.09 6.07508 -2.36171 0
M  V30 16447 N 1618.52 1.45038 0.616577 0
M  V30 16448 C 1619.74 1.52321 1.40759 0
M  V30 16449 C 1620.17 0.15375 1.87471 0
M  V30 16450 O 1619.53 -0.859908 1.5961 0
M  V30 16451 C 1619.58 2.50464 2.59423 0
M  V30 16452 O 1618.68 2.01623 3.59753 0
M  V30 16453 H 1618.02 0.513808 0.420592 0
M  V30 16454 H 1620.55 1.90309 0.751234 0
M  V30 16455 H 1620.56 2.68977 3.06783 0
M  V30 16456 H 1619.24 3.4993 2.24771 0
M  V30 16457 H 1617.81 1.92945 3.19103 0
M  V30 16458 N 1620 -0.858287 1.32179 0
M  V30 16459 C 1621.22 -1.64997 1.25662 0
M  V30 16460 C 1621.65 -1.87303 -0.173021 0
M  V30 16461 O 1621.01 -1.42319 -1.12317 0
M  V30 16462 C 1621.05 -2.98855 2.01787 0
M  V30 16463 O 1620.16 -3.89218 1.36319 0
M  V30 16464 H 1619.5 -0.503169 0.433264 0
M  V30 16465 H 1622.03 -1.06926 1.74436 0
M  V30 16466 H 1622.04 -3.48704 2.11824 0
M  V30 16467 H 1620.71 -2.81941 3.05748 0
M  V30 16468 H 1619.29 -3.4768 1.34807 0
M  V30 16469 N 1621.48 -1.1533 -1.07409 0
M  V30 16470 C 1622.89 -0.937287 -1.61468 0
M  V30 16471 C 1623.24 0.521545 -1.89141 0
M  V30 16472 O 1622.36 1.39253 -1.65643 0
M  V30 16473 C 1622.96 -1.69501 -2.93351 0
M  V30 16474 C 1621.52 -1.52429 -3.44154 0
M  V30 16475 C 1620.66 -1.71098 -2.18222 0
M  V30 16476 H 1623.61 -1.30364 -0.905044 0
M  V30 16477 H 1623.64 -1.16416 -3.62253 0
M  V30 16478 H 1623.15 -2.75672 -2.73178 0
M  V30 16479 H 1621.25 -0.486498 -3.6941 0
M  V30 16480 H 1621.36 -2.30089 -4.20233 0
M  V30 16481 H 1619.73 -1.13745 -2.27891 0
M  V30 16482 H 1620.51 -2.78634 -2.00545 0
M  V30 16483 N 1622.95 1.25748 -0.950004 0
M  V30 16484 C 1624.18 1.97952 -0.618848 0
M  V30 16485 C 1624.6 1.70184 0.801194 0
M  V30 16486 O 1623.96 0.955032 1.54107 0
M  V30 16487 C 1624.01 3.49744 -0.878151 0
M  V30 16488 O 1623.11 4.12375 0.0453685 0
M  V30 16489 H 1622.45 0.620731 -0.235773 0
M  V30 16490 H 1624.98 1.59988 -1.27534 0
M  V30 16491 H 1624.99 4.00029 -0.802567 0
M  V30 16492 H 1623.67 3.69285 -1.91315 0
M  V30 16493 H 1622.25 3.7281 -0.0820265 0
M  V30 16494 N 1624.43 0.718038 1.40292 0
M  V30 16495 C 1625.68 0.258986 2.0114 0
M  V30 16496 C 1626.01 -1.1456 1.56811 0
M  V30 16497 O 1625.29 -1.77766 0.789276 0
M  V30 16498 C 1625.57 0.341778 3.58474 0
M  V30 16499 C 1625.42 1.78492 4.12869 0
M  V30 16500 C 1626.74 -0.285622 4.39172 0
M  V30 16501 H 1623.86 0.0955806 0.730776 0
M  V30 16502 H 1626.5 0.911 1.66736 0
M  V30 16503 H 1624.65 -0.213354 3.87914 0
M  V30 16504 H 1626.32 2.39562 3.94218 0
M  V30 16505 H 1624.57 2.31183 3.67065 0
M  V30 16506 H 1625.24 1.79423 5.22026 0
M  V30 16507 H 1627.71 0.187411 4.15678 0
M  V30 16508 H 1626.59 -0.19726 5.48545 0
M  V30 16509 H 1626.85 -1.36947 4.20355 0
M  V30 16510 N 1625.91 -1.50602 0.464402 0
M  V30 16511 C 1627.19 -1.94992 -0.154146 0
M  V30 16512 C 1627.57 -1.40447 -1.57601 0
M  V30 16513 O 1626.92 -0.602668 -2.20409 0
M  V30 16514 C 1627.13 -3.48844 -0.104296 0
M  V30 16515 C 1628.47 -4.23563 -0.296506 0
M  V30 16516 O 1629.5 -3.55739 -0.181187 0
M  V30 16517 O 1628.36 -5.43937 -0.528668 0
M  V30 16518 H 1625.45 -0.818921 -0.115311 0
M  V30 16519 H 1628 -1.61397 0.524324 0
M  V30 16520 H 1626.77 -3.81075 0.88869 0
M  V30 16521 H 1626.39 -3.88957 -0.824514 0
M  V30 16522 N 1627.39 -0.19675 -1.56367 0
M  V30 16523 C 1628.63 0.442238 -1.97919 0
M  V30 16524 C 1628.97 1.61156 -1.08362 0
M  V30 16525 O 1628.24 1.94024 -0.135969 0
M  V30 16526 C 1628.53 0.90078 -3.48652 0
M  V30 16527 C 1628.38 -0.270471 -4.48986 0
M  V30 16528 C 1629.7 1.7657 -4.03126 0
M  V30 16529 H 1626.82 0.159276 -0.719583 0
M  V30 16530 H 1629.46 -0.288004 -1.87805 0
M  V30 16531 H 1627.61 1.52302 -3.57402 0
M  V30 16532 H 1629.28 -0.908176 -4.52272 0
M  V30 16533 H 1627.52 -0.921973 -4.23889 0
M  V30 16534 H 1628.19 0.0929101 -5.51922 0
M  V30 16535 H 1630.67 1.24091 -3.97166 0
M  V30 16536 H 1629.55 2.0555 -5.0896 0
M  V30 16537 H 1629.81 2.72047 -3.48486 0
M  V30 16538 N 1628.87 1.57413 0.0768405 0
M  V30 16539 C 1629.8 2.06378 1.09226 0
M  V30 16540 C 1630.78 0.956269 1.40675 0
M  V30 16541 O 1631.96 1.22868 1.5039 0
M  V30 16542 C 1629.09 2.50349 2.40712 0
M  V30 16543 C 1628.05 3.64931 2.23628 0
M  V30 16544 C 1627.37 3.9494 3.60453 0
M  V30 16545 C 1628.67 4.95162 1.66169 0
M  V30 16546 H 1630.37 2.91463 0.684827 0
M  V30 16547 H 1627.91 1.40215 0.327974 0
M  V30 16548 H 1629.87 2.83216 3.12036 0
M  V30 16549 H 1628.59 1.62287 2.83426 0
M  V30 16550 H 1627.25 3.32339 1.54747 0
M  V30 16551 H 1626.9 3.04016 4.00728 0
M  V30 16552 H 1626.6 4.72091 3.49863 0
M  V30 16553 H 1628.12 4.30299 4.33215 0
M  V30 16554 H 1629.53 5.26292 2.27353 0
M  V30 16555 H 1627.93 5.76601 1.66289 0
M  V30 16556 H 1629 4.80885 0.62271 0
M  V30 16557 N 1630.34 -0.348112 1.53707 0
M  V30 16558 C 1631.76 -0.923978 1.62233 0
M  V30 16559 C 1632.11 -1.89702 0.500744 0
M  V30 16560 O 1631.23 -2.1321 -0.370212 0
M  V30 16561 C 1631.83 -1.68261 2.94064 0
M  V30 16562 C 1630.39 -2.20755 3.04867 0
M  V30 16563 C 1629.53 -1.02526 2.5765 0
M  V30 16564 H 1632.48 -0.126381 1.58196 0
M  V30 16565 H 1632.5 -2.54514 2.82848 0
M  V30 16566 H 1632.02 -0.974155 3.75675 0
M  V30 16567 H 1630.12 -2.9479 2.27881 0
M  V30 16568 H 1630.23 -2.47439 4.10257 0
M  V30 16569 H 1628.59 -1.39735 2.12947 0
M  V30 16570 H 1629.38 -0.331521 3.41696 0
M  V30 16571 N 1631.82 -1.45363 -0.608876 0
M  V30 16572 C 1633.07 -1.49018 -1.36522 0
M  V30 16573 C 1633.39 -0.132757 -1.94548 0
M  V30 16574 O 1632.66 0.837723 -1.77085 0
M  V30 16575 H 1631.24 -0.548775 -0.506809 0
M  V30 16576 H 1633.9 -1.81309 -0.715068 0
M  V30 16577 H 1633 -2.22826 -2.18529 0
M  V30 16578 N 1633.3 0.851265 -1.32632 0
M  V30 16579 C 1634.55 1.60807 -1.23568 0
M  V30 16580 C 1634.88 1.93155 0.201238 0
M  V30 16581 O 1634.15 1.5764 1.13929 0
M  V30 16582 C 1634.44 2.92619 -2.09872 0
M  V30 16583 C 1634.29 2.67031 -3.61959 0
M  V30 16584 C 1635.61 3.93924 -1.96244 0
M  V30 16585 H 1632.73 0.583492 -0.450229 0
M  V30 16586 H 1635.37 0.98273 -1.62611 0
M  V30 16587 H 1633.52 3.45988 -1.76704 0
M  V30 16588 H 1635.19 2.2019 -4.05357 0
M  V30 16589 H 1633.44 2.00938 -3.84456 0
M  V30 16590 H 1634.11 3.60902 -4.17676 0
M  V30 16591 H 1636.58 3.49823 -2.25307 0
M  V30 16592 H 1635.46 4.84005 -2.58902 0
M  V30 16593 H 1635.72 4.32185 -0.931065 0
M  V30 16594 N 1634.78 1.15898 1.06796 0
M  V30 16595 C 1636.01 0.961372 1.83208 0
M  V30 16596 C 1636.42 -0.490392 1.8232 0
M  V30 16597 O 1635.78 -1.34025 1.2387 0
M  V30 16598 C 1635.83 1.47486 3.30045 0
M  V30 16599 O 1635.55 2.86976 3.31023 0
M  V30 16600 C 1637.05 1.31955 4.23205 0
M  V30 16601 H 1634.27 0.34109 0.57784 0
M  V30 16602 H 1636.82 1.53805 1.34775 0
M  V30 16603 H 1634.97 0.940586 3.75808 0
M  V30 16604 H 1635.38 3.1038 4.22805 0
M  V30 16605 H 1636.86 1.72721 5.24282 0
M  V30 16606 H 1637.34 0.264439 4.38403 0
M  V30 16607 H 1637.94 1.84319 3.83284 0
M  V30 16608 N 1636.26 -1.25243 0.956659 0
M  V30 16609 C 1637.19 -2.28159 0.496574 0
M  V30 16610 C 1638.17 -1.63814 -0.458132 0
M  V30 16611 O 1639.35 -1.90897 -0.356648 0
M  V30 16612 C 1636.48 -3.46573 -0.22454 0
M  V30 16613 C 1635.44 -4.2311 0.645104 0
M  V30 16614 C 1634.76 -5.343 -0.206867 0
M  V30 16615 C 1636.06 -4.85562 1.92422 0
M  V30 16616 H 1637.76 -2.66895 1.35675 0
M  V30 16617 H 1635.3 -1.28301 0.653827 0
M  V30 16618 H 1637.26 -4.17695 -0.55755 0
M  V30 16619 H 1635.98 -3.06833 -1.11898 0
M  V30 16620 H 1634.64 -3.53774 0.961228 0
M  V30 16621 H 1634.29 -4.908 -1.10112 0
M  V30 16622 H 1633.99 -5.86423 0.371714 0
M  V30 16623 H 1635.51 -6.08253 -0.534798 0
M  V30 16624 H 1636.92 -5.48817 1.65749 0
M  V30 16625 H 1635.32 -5.47871 2.44862 0
M  V30 16626 H 1636.39 -4.07634 2.62607 0
M  V30 16627 N 1637.73 -0.725468 -1.3991 0
M  V30 16628 C 1638.68 -0.0792833 -2.30664 0
M  V30 16629 C 1639.65 0.73984 -1.48713 0
M  V30 16630 O 1640.84 0.701762 -1.77426 0
M  V30 16631 C 1637.98 0.829164 -3.34991 0
M  V30 16632 C 1637.09 -0.00154779 -4.32 0
M  V30 16633 C 1636.22 0.907291 -5.23394 0
M  V30 16634 C 1635.26 0.0712573 -6.12059 0
M  V30 16635 N 1634.4 0.935508 -6.9584 0
M  V30 16636 H 1639.24 -0.858869 -2.85355 0
M  V30 16637 H 1636.78 -0.435214 -1.40514 0
M  V30 16638 H 1638.74 1.37021 -3.94057 0
M  V30 16639 H 1637.37 1.57483 -2.81778 0
M  V30 16640 H 1636.42 -0.659903 -3.74632 0
M  V30 16641 H 1637.73 -0.648387 -4.94568 0
M  V30 16642 H 1636.88 1.51652 -5.87441 0
M  V30 16643 H 1635.62 1.58793 -4.61125 0
M  V30 16644 H 1634.63 -0.550844 -5.47034 0
M  V30 16645 H 1635.85 -0.606025 -6.76391 0
M  V30 16646 H 1633.8 1.60162 -6.36148 0
M  V30 16647 H 1633.72 0.344932 -7.55213 0
M  V30 16648 H 1634.98 1.53061 -7.64325 0
M  V30 16649 N 1639.21 1.50354 -0.472382 0
M  V30 16650 C 1640.18 2.27096 0.30981 0
M  V30 16651 C 1641.18 1.3193 0.919306 0
M  V30 16652 O 1642.37 1.55344 0.788284 0
M  V30 16653 C 1639.5 3.08924 1.44149 0
M  V30 16654 H 1640.69 2.97692 -0.363228 0
M  V30 16655 H 1638.24 1.5465 -0.226483 0
M  V30 16656 H 1638.98 2.42828 2.14954 0
M  V30 16657 H 1638.76 3.78862 1.01023 0
M  V30 16658 H 1640.25 3.66961 1.99323 0
M  V30 16659 N 1640.69 0.205039 1.56261 0
M  V30 16660 C 1642.1 -0.305792 1.84179 0
M  V30 16661 C 1642.45 -1.60672 1.126 0
M  V30 16662 O 1641.58 -2.12855 0.390118 0
M  V30 16663 C 1642.17 -0.561596 3.34113 0
M  V30 16664 C 1640.73 -1.01677 3.62407 0
M  V30 16665 C 1639.88 -0.0707844 2.7721 0
M  V30 16666 H 1642.83 0.428609 1.52803 0
M  V30 16667 H 1642.85 -1.40969 3.53423 0
M  V30 16668 H 1642.36 0.38541 3.86182 0
M  V30 16669 H 1640.46 -1.97771 3.1578 0
M  V30 16670 H 1640.58 -0.902607 4.70521 0
M  V30 16671 H 1638.94 -0.574529 2.48136 0
M  V30 16672 H 1639.72 0.870844 3.32071 0
M  V30 16673 N 1642.17 -1.57451 -0.0684915 0
M  V30 16674 C 1643.1 -2.00648 -1.10783 0
M  V30 16675 C 1644.11 -0.912944 -1.34793 0
M  V30 16676 O 1645.3 -1.19079 -1.32975 0
M  V30 16677 C 1642.4 -2.33309 -2.45805 0
M  V30 16678 C 1641.58 -3.64551 -2.41704 0
M  V30 16679 C 1640.64 -3.84845 -3.5886 0
M  V30 16680 O 1639.66 -4.56392 -3.40139 0
M  V30 16681 N 1640.86 -3.27451 -4.79329 0
M  V30 16682 H 1643.63 -2.90422 -0.739938 0
M  V30 16683 H 1641.19 -1.59846 -0.257093 0
M  V30 16684 H 1643.18 -2.44056 -3.22829 0
M  V30 16685 H 1641.75 -1.49408 -2.74583 0
M  V30 16686 H 1640.97 -3.64528 -1.50043 0
M  V30 16687 H 1642.26 -4.50721 -2.36068 0
M  V30 16688 H 1641.66 -2.69384 -4.97442 0
M  V30 16689 H 1640.21 -3.43641 -5.53854 0
M  V30 16690 N 1643.65 0.339955 -1.5389 0
M  V30 16691 C 1644.6 1.43787 -1.82833 0
M  V30 16692 C 1645.59 1.54303 -0.699058 0
M  V30 16693 O 1646.8 1.56884 -0.882455 0
M  V30 16694 H 1643.17 0.479497 -0.579298 0
M  V30 16695 H 1645.14 1.16592 -2.7468 0
M  V30 16696 C 1643.89 2.80257 -2.05794 0
M  V30 16697 H 1643.21 2.72933 -2.92143 0
M  V30 16698 H 1644.65 3.56191 -2.30009 0
M  V30 16699 C 1643.11 3.26143 -0.844532 0
M  V30 16700 O 1643.64 4.01674 -0.0457121 0
M  V30 16701 N 1641.85 2.82988 -0.660748 0
M  V30 16702 H 1641.4 2.21687 -1.31198 0
M  V30 16703 H 1641.35 3.14044 0.149661 0
M  V30 16704 N 1645.13 1.45684 0.601159 0
M  V30 16705 C 1646.06 1.50861 1.7255 0
M  V30 16706 C 1647.07 0.398728 1.57842 0
M  V30 16707 O 1648.26 0.66613 1.65605 0
M  V30 16708 C 1645.36 1.35535 3.10618 0
M  V30 16709 C 1644.53 2.60313 3.51505 0
M  V30 16710 C 1643.59 2.39451 4.68561 0
M  V30 16711 O 1642.62 3.13094 4.75353 0
M  V30 16712 N 1643.82 1.44426 5.62247 0
M  V30 16713 H 1646.58 2.47799 1.6857 0
M  V30 16714 H 1644.15 1.41505 0.786626 0
M  V30 16715 H 1646.14 1.19379 3.86692 0
M  V30 16716 H 1644.71 0.468492 3.09069 0
M  V30 16717 H 1643.93 2.9154 2.65327 0
M  V30 16718 H 1645.22 3.43242 3.75583 0
M  V30 16719 H 1644.61 0.836624 5.59479 0
M  V30 16720 H 1643.17 1.34239 6.37827 0
M  V30 16721 N 1646.6 -0.84422 1.33082 0
M  V30 16722 C 1647.85 -1.60149 1.24419 0
M  V30 16723 C 1648.18 -1.93259 -0.190992 0
M  V30 16724 O 1647.46 -1.58242 -1.13092 0
M  V30 16725 C 1647.74 -2.91502 2.11421 0
M  V30 16726 C 1647.59 -2.65108 3.6337 0
M  V30 16727 C 1648.91 -3.92878 1.98331 0
M  V30 16728 H 1646.03 -0.581096 0.453317 0
M  V30 16729 H 1648.67 -0.974093 1.6313 0
M  V30 16730 H 1646.82 -3.45046 1.78537 0
M  V30 16731 H 1648.5 -2.18037 4.06519 0
M  V30 16732 H 1646.74 -1.98896 3.85516 0
M  V30 16733 H 1647.41 -3.58682 4.19584 0
M  V30 16734 H 1649.89 -3.48623 2.27159 0
M  V30 16735 H 1648.76 -4.82625 2.61466 0
M  V30 16736 H 1649.02 -4.31685 0.953972 0
M  V30 16737 N 1648.08 -1.16463 -1.0618 0
M  V30 16738 C 1649.31 -0.971075 -1.82696 0
M  V30 16739 C 1649.72 0.480716 -1.82578 0
M  V30 16740 O 1649.08 1.33366 -1.24579 0
M  V30 16741 C 1649.13 -1.49235 -3.29259 0
M  V30 16742 O 1648.85 -2.88728 -3.29496 0
M  V30 16743 C 1650.35 -1.34197 -4.225 0
M  V30 16744 H 1647.57 -0.34415 -0.576023 0
M  V30 16745 H 1650.12 -1.54517 -1.33958 0
M  V30 16746 H 1648.27 -0.960503 -3.75304 0
M  V30 16747 H 1648.69 -3.12618 -4.21153 0
M  V30 16748 H 1650.16 -1.75499 -5.23358 0
M  V30 16749 H 1650.64 -0.287685 -4.38257 0
M  V30 16750 H 1651.24 -1.86349 -3.82301 0
M  V30 16751 N 1649.56 1.24734 -0.963288 0
M  V30 16752 C 1650.49 2.27892 -0.508667 0
M  V30 16753 C 1651.47 1.64055 0.449438 0
M  V30 16754 O 1652.66 1.91083 0.346519 0
M  V30 16755 C 1649.79 3.46688 0.206157 0
M  V30 16756 C 1648.74 4.22762 -0.667534 0
M  V30 16757 C 1648.07 5.34402 0.178529 0
M  V30 16758 C 1649.37 4.84535 -1.94995 0
M  V30 16759 H 1651.06 2.66171 -1.37088 0
M  V30 16760 H 1648.61 1.27952 -0.660622 0
M  V30 16761 H 1650.56 4.17985 0.535391 0
M  V30 16762 H 1649.28 3.07422 1.10269 0
M  V30 16763 H 1647.94 3.53259 -0.979976 0
M  V30 16764 H 1647.59 4.91377 1.07508 0
M  V30 16765 H 1647.29 5.86218 -0.402808 0
M  V30 16766 H 1648.81 6.08529 0.502533 0
M  V30 16767 H 1650.23 5.4793 -1.68658 0
M  V30 16768 H 1648.62 5.46564 -2.47765 0
M  V30 16769 H 1649.69 4.06236 -2.64765 0
M  V30 16770 N 1651.04 0.732878 1.39523 0
M  V30 16771 C 1652.45 0.408236 1.54291 0
M  V30 16772 C 1652.65 -1.08114 1.7004 0
M  V30 16773 O 1651.71 -1.86726 1.6997 0
M  V30 16774 C 1653.02 1.1894 2.76177 0
M  V30 16775 C 1654.57 1.17742 2.9001 0
M  V30 16776 C 1655.05 1.94111 4.14831 0
M  V30 16777 N 1656.54 1.91266 4.21867 0
M  V30 16778 C 1657.27 2.47167 5.17394 0
M  V30 16779 N 1656.77 3.11696 6.18723 0
M  V30 16780 N 1658.56 2.37212 5.09595 0
M  V30 16781 H 1650.71 1.69839 1.27548 0
M  V30 16782 H 1652.97 0.718844 0.618035 0
M  V30 16783 H 1652.68 2.24321 2.70875 0
M  V30 16784 H 1652.55 0.792439 3.68782 0
M  V30 16785 H 1654.94 0.131752 2.94806 0
M  V30 16786 H 1655.02 1.61374 1.98474 0
M  V30 16787 H 1654.67 2.98677 4.10797 0
M  V30 16788 H 1654.6 1.47886 5.05408 0
M  V30 16789 H 1657.09 1.44254 3.49284 0
M  V30 16790 H 1657.4 3.51823 6.8807 0
M  V30 16791 H 1655.75 3.15785 6.19116 0
M  V30 16792 H 1658.94 1.86444 4.29367 0
M  V30 16793 H 1659.11 2.81076 5.83866 0
M  V30 16794 N 1652.52 -1.50101 0.480349 0
M  V30 16795 C 1653.76 -2.01974 -0.0712904 0
M  V30 16796 C 1654.08 -1.36377 -1.39378 0
M  V30 16797 O 1653.35 -0.512162 -1.89087 0
M  V30 16798 H 1651.93 -0.746424 -0.0293362 0
M  V30 16799 H 1654.6 -1.84338 0.632883 0
M  V30 16800 H 1653.69 -3.11351 -0.216057 0
M  V30 16801 N 1653.99 -0.213323 -1.5615 0
M  V30 16802 C 1655.41 0.142215 -1.58965 0
M  V30 16803 C 1655.61 1.59606 -1.22996 0
M  V30 16804 O 1654.67 2.33485 -0.961308 0
M  V30 16805 C 1655.98 -0.176632 -3.00181 0
M  V30 16806 C 1657.53 -0.118205 -3.12777 0
M  V30 16807 C 1658 -0.410614 -4.56156 0
M  V30 16808 N 1659.49 -0.359887 -4.618 0
M  V30 16809 C 1660.23 -0.559744 -5.70661 0
M  V30 16810 N 1659.72 -0.820934 -6.87919 0
M  V30 16811 N 1661.52 -0.492746 -5.59936 0
M  V30 16812 H 1653.67 -1.16182 -1.77807 0
M  V30 16813 H 1655.93 -0.465086 -0.826075 0
M  V30 16814 H 1655.64 -1.18538 -3.31122 0
M  V30 16815 H 1655.51 0.512256 -3.73705 0
M  V30 16816 H 1657.9 0.88117 -2.81637 0
M  V30 16817 H 1657.98 -0.840446 -2.41599 0
M  V30 16818 H 1657.62 -1.40739 -4.88011 0
M  V30 16819 H 1657.55 0.332725 -5.25548 0
M  V30 16820 H 1660.04 -0.16537 -3.77538 0
M  V30 16821 H 1660.36 -0.961755 -7.66792 0
M  V30 16822 H 1658.7 -0.858036 -6.89683 0
M  V30 16823 H 1661.89 -0.288981 -4.67207 0
M  V30 16824 H 1662.07 -0.651912 -6.44712 0
M  V30 16825 N 1655.47 1.57485 0.0601405 0
M  V30 16826 C 1656.72 1.88094 0.758192 0
M  V30 16827 C 1657.05 0.807138 1.76632 0
M  V30 16828 O 1656.33 -0.181347 1.93653 0
M  V30 16829 C 1656.61 3.29363 1.45574 0
M  V30 16830 C 1656.46 4.47408 0.463233 0
M  V30 16831 C 1657.78 3.69048 2.39773 0
M  V30 16832 H 1654.9 0.684106 0.274169 0
M  V30 16833 H 1657.54 1.89988 0.0212215 0
M  V30 16834 H 1655.69 3.27879 2.08393 0
M  V30 16835 H 1657.36 4.6102 -0.160641 0
M  V30 16836 H 1655.61 4.3324 -0.220408 0
M  V30 16837 H 1656.28 5.43065 0.989164 0
M  V30 16838 H 1658.75 3.71701 1.87024 0
M  V30 16839 H 1657.63 4.68761 2.85577 0
M  V30 16840 H 1657.89 2.9961 3.25094 0
M  V30 16841 N 1656.95 -0.331789 1.54068 0
M  V30 16842 C 1658.36 -0.906719 1.63204 0
M  V30 16843 C 1658.71 -1.89161 0.520837 0
M  V30 16844 O 1657.84 -2.1359 -0.347577 0
M  V30 16845 C 1658.43 -1.65132 2.95832 0
M  V30 16846 C 1656.99 -2.17509 3.07192 0
M  V30 16847 C 1656.14 -0.99788 2.58723 0
M  V30 16848 H 1659.09 -0.109595 1.58321 0
M  V30 16849 H 1659.11 -2.515 2.85531 0
M  V30 16850 H 1658.62 -0.934255 3.76687 0
M  V30 16851 H 1656.72 -2.92356 2.30995 0
M  V30 16852 H 1656.84 -2.43074 4.12858 0
M  V30 16853 H 1655.2 -1.37469 2.14417 0
M  V30 16854 H 1655.98 -0.295261 3.42028 0
M  V30 16855 N 1658.43 -1.46001 -0.593424 0
M  V30 16856 C 1659.38 -1.52172 -1.69787 0
M  V30 16857 C 1660.36 -0.383619 -1.5626 0
M  V30 16858 O 1661.55 -0.63137 -1.65356 0
M  V30 16859 C 1658.68 -1.50479 -3.08563 0
M  V30 16860 C 1657.77 -2.69543 -3.27425 0
M  V30 16861 N 1658.16 -3.94547 -3.1649 0
M  V30 16862 C 1656.46 -2.6554 -3.58336 0
M  V30 16863 C 1657.16 -4.74089 -3.37068 0
M  V30 16864 N 1656.14 -4.0578 -3.61723 0
M  V30 16865 H 1659.94 -2.4663 -1.59847 0
M  V30 16866 H 1657.45 -1.41491 -0.797129 0
M  V30 16867 H 1659.45 -1.52986 -3.87816 0
M  V30 16868 H 1658.11 -0.57089 -3.19642 0
M  V30 16869 H 1659.12 -4.25957 -2.94586 0
M  V30 16870 H 1655.8 -1.81124 -3.76165 0
M  V30 16871 H 1657.19 -5.83069 -3.33887 0
M  V30 16872 N 1659.91 0.83715 -1.33527 0
M  V30 16873 C 1660.84 1.96231 -1.26553 0
M  V30 16874 C 1661.82 1.69474 -0.14576 0
M  V30 16875 O 1663 1.91274 -0.335815 0
M  V30 16876 C 1660.13 3.32419 -1.00574 0
M  V30 16877 C 1659.09 3.73577 -2.08864 0
M  V30 16878 C 1658.41 5.07591 -1.68095 0
M  V30 16879 C 1659.71 3.87179 -3.50556 0
M  V30 16880 H 1661.41 2.02324 -2.20693 0
M  V30 16881 H 1658.95 0.972038 -1.06242 0
M  V30 16882 H 1660.91 4.10703 -0.943439 0
M  V30 16883 H 1659.63 3.26587 -0.0287268 0
M  V30 16884 H 1658.29 2.97557 -2.14139 0
M  V30 16885 H 1657.94 4.98232 -0.690922 0
M  V30 16886 H 1657.64 5.361 -2.40563 0
M  V30 16887 H 1659.16 5.88349 -1.63334 0
M  V30 16888 H 1660.57 4.55771 -3.47772 0
M  V30 16889 H 1658.97 4.27127 -4.21524 0
M  V30 16890 H 1660.04 2.8958 -3.88936 0
M  V30 16891 N 1661.38 1.17024 1.05561 0
M  V30 16892 C 1662.63 0.954436 1.78143 0
M  V30 16893 C 1662.95 -0.518525 1.8798 0
M  V30 16894 O 1662.22 -1.37654 1.39385 0
M  V30 16895 H 1660.8 0.350141 0.659856 0
M  V30 16896 H 1663.47 1.4743 1.27477 0
M  V30 16897 H 1662.56 1.37955 2.79955 0
M  V30 16898 N 1662.86 -1.24221 0.969889 0
M  V30 16899 C 1664.28 -1.4454 0.676778 0
M  V30 16900 C 1664.48 -1.86591 -0.760656 0
M  V30 16901 O 1663.53 -2.00538 -1.5343 0
M  V30 16902 C 1664.85 -2.50546 1.66274 0
M  V30 16903 C 1666.4 -2.64372 1.67561 0
M  V30 16904 C 1666.87 -3.73577 2.6496 0
M  V30 16905 N 1668.36 -3.81007 2.63416 0
M  V30 16906 C 1669.1 -4.65037 3.35452 0
M  V30 16907 N 1668.59 -5.53238 4.17013 0
M  V30 16908 N 1670.39 -4.59138 3.24266 0
M  V30 16909 H 1662.54 -0.952237 1.89858 0
M  V30 16910 H 1664.8 -0.479972 0.817515 0
M  V30 16911 H 1664.51 -2.26541 2.6902 0
M  V30 16912 H 1664.38 -3.48745 1.43724 0
M  V30 16913 H 1666.77 -2.87733 0.655247 0
M  V30 16914 H 1666.85 -1.66523 1.94174 0
M  V30 16915 H 1666.49 -3.50965 3.67132 0
M  V30 16916 H 1666.42 -4.70944 2.35626 0
M  V30 16917 H 1668.91 -3.17969 2.04216 0
M  V30 16918 H 1669.23 -6.1432 4.68861 0
M  V30 16919 H 1667.57 -5.52896 4.21107 0
M  V30 16920 H 1670.76 -3.89247 2.60008 0
M  V30 16921 H 1670.93 -5.24399 3.8067 0
M  V30 16922 N 1664.34 -0.740267 -1.39132 0
M  V30 16923 C 1665.57 -0.300494 -2.04403 0
M  V30 16924 C 1665.98 1.07148 -1.55936 0
M  V30 16925 O 1665.32 1.68929 -0.72172 0
M  V30 16926 C 1665.38 -0.229797 -3.58765 0
M  V30 16927 C 1665.05 -1.54111 -4.30231 0
M  V30 16928 C 1666.04 -2.48781 -4.56513 0
M  V30 16929 C 1663.73 -1.80686 -4.68677 0
M  V30 16930 C 1665.72 -3.68255 -5.20256 0
M  V30 16931 C 1663.41 -3.00437 -5.32147 0
M  V30 16932 C 1664.41 -3.94043 -5.5787 0
M  V30 16933 O 1664.1 -5.1169 -6.20023 0
M  V30 16934 H 1663.83 -0.128309 -0.663711 0
M  V30 16935 H 1666.38 -1.00624 -1.79064 0
M  V30 16936 H 1664.61 0.532089 -3.83022 0
M  V30 16937 H 1666.3 0.178681 -4.05507 0
M  V30 16938 H 1667.07 -2.29521 -4.27253 0
M  V30 16939 H 1662.95 -1.08669 -4.48009 0
M  V30 16940 H 1666.49 -4.41334 -5.4025 0
M  V30 16941 H 1662.39 -3.19595 -5.60829 0
M  V30 16942 H 1663.16 -5.12095 -6.38515 0
M  V30 16943 N 1665.82 1.49844 -0.488302 0
M  V30 16944 C 1667.06 2.02709 0.060788 0
M  V30 16945 C 1667.4 1.36828 1.37811 0
M  V30 16946 O 1666.67 0.499679 1.87972 0
M  V30 16947 C 1666.96 3.59386 0.226637 0
M  V30 16948 C 1666.81 4.35814 -1.11292 0
M  V30 16949 C 1668.13 4.29204 0.973218 0
M  V30 16950 H 1665.25 0.736712 0.0206177 0
M  V30 16951 H 1667.89 1.78995 -0.637245 0
M  V30 16952 H 1666.04 3.79722 0.821182 0
M  V30 16953 H 1667.71 4.27007 -1.74536 0
M  V30 16954 H 1665.95 3.98874 -1.70535 0
M  V30 16955 H 1666.62 5.43758 -0.950319 0
M  V30 16956 H 1669.1 4.13447 0.469106 0
M  V30 16957 H 1667.98 5.38605 1.05809 0
M  V30 16958 H 1668.24 3.93564 2.01394 0
M  V30 16959 N 1667.3 0.221601 1.56034 0
M  V30 16960 C 1668.54 -0.410087 1.98304 0
M  V30 16961 C 1668.87 -1.59769 1.10924 0
M  V30 16962 O 1668.13 -1.95092 0.154196 0
M  V30 16963 C 1668.43 -0.887416 3.46208 0
M  V30 16964 C 1668.09 0.189671 4.50501 0
M  V30 16965 C 1666.75 0.485557 4.78744 0
M  V30 16966 C 1669.11 0.918112 5.1305 0
M  V30 16967 C 1666.43 1.5144 5.66818 0
M  V30 16968 C 1668.79 1.93629 6.02238 0
M  V30 16969 C 1667.45 2.23909 6.28825 0
M  V30 16970 H 1666.72 -0.150061 0.725646 0
M  V30 16971 H 1669.37 0.32413 1.88737 0
M  V30 16972 H 1667.67 -1.70039 3.52979 0
M  V30 16973 H 1669.37 -1.38602 3.76285 0
M  V30 16974 H 1665.96 -0.0510987 4.2857 0
M  V30 16975 H 1670.14 0.702761 4.91299 0
M  V30 16976 H 1665.4 1.75462 5.85682 0
M  V30 16977 H 1669.57 2.5058 6.49756 0
M  V30 16978 H 1667.2 3.03774 6.96868 0
M  V30 16979 N 1668.77 -1.57515 -0.0517878 0
M  V30 16980 C 1670.02 -1.88493 -0.748206 0
M  V30 16981 C 1670.35 -0.816494 -1.76202 0
M  V30 16982 O 1669.63 0.171075 -1.93746 0
M  V30 16983 C 1669.91 -3.30131 -1.43825 0
M  V30 16984 C 1669.76 -4.47648 -0.4395 0
M  V30 16985 C 1671.08 -3.70315 -2.37813 0
M  V30 16986 H 1668.2 -0.68555 -0.270537 0
M  V30 16987 H 1670.84 -1.89997 -0.0111457 0
M  V30 16988 H 1668.99 -3.2898 -2.06651 0
M  V30 16989 H 1670.67 -4.60929 0.185088 0
M  V30 16990 H 1668.91 -4.33117 0.243381 0
M  V30 16991 H 1669.58 -5.43582 -0.96035 0
M  V30 16992 H 1672.06 -3.72687 -1.8505 0
M  V30 16993 H 1670.93 -4.70269 -2.83087 0
M  V30 16994 H 1671.19 -3.0133 -3.23501 0
M  V30 16995 N 1670.25 0.323614 -1.54242 0
M  V30 16996 C 1671.5 1.05909 -1.71657 0
M  V30 16997 C 1671.82 1.89177 -0.497151 0
M  V30 16998 O 1673.02 2.65816 -0.552649 0
M  V30 16999 C 1671.48 1.93246 -3.03618 0
M  V30 17000 C 1671.09 1.1509 -4.32965 0
M  V30 17001 C 1672.83 2.6653 -3.30397 0
M  V30 17002 C 1670.74 2.01573 -5.55988 0
M  V30 17003 H 1669.67 0.399114 -0.639706 0
M  V30 17004 H 1672.32 0.317338 -1.80735 0
M  V30 17005 H 1670.7 2.71319 -2.88447 0
M  V30 17006 H 1671.87 0.417877 -4.58901 0
M  V30 17007 H 1670.19 0.534882 -4.1295 0
M  V30 17008 H 1672.79 3.31542 -4.19504 0
M  V30 17009 H 1673.13 3.34164 -2.48274 0
M  V30 17010 H 1673.66 1.95518 -3.46435 0
M  V30 17011 H 1670.4 1.38446 -6.40713 0
M  V30 17012 H 1669.92 2.72609 -5.3427 0
M  V30 17013 H 1671.6 2.60159 -5.9239 0
M  V30 17014 N 1671.73 1.46313 0.585673 0
M  V30 17015 C 1672.68 1.5307 1.68978 0
M  V30 17016 C 1673.67 0.391901 1.56054 0
M  V30 17017 O 1674.86 0.64013 1.65019 0
M  V30 17018 C 1671.99 1.52113 3.07761 0
M  V30 17019 C 1671.07 2.71276 3.25991 0
M  V30 17020 N 1671.46 3.9622 3.14393 0
M  V30 17021 C 1669.76 2.67436 3.56923 0
M  V30 17022 C 1670.46 4.7587 3.34549 0
M  V30 17023 N 1669.44 4.07693 3.59565 0
M  V30 17024 H 1673.24 2.47474 1.58537 0
M  V30 17025 H 1670.75 1.41911 0.789614 0
M  V30 17026 H 1672.75 1.5504 3.86999 0
M  V30 17027 H 1671.41 0.587834 3.19335 0
M  V30 17028 H 1672.42 4.27513 2.92323 0
M  V30 17029 H 1669.1 1.83116 3.75199 0
M  V30 17030 H 1670.49 5.84831 3.3079 0
M  V30 17031 N 1673.21 -0.830057 1.33969 0
M  V30 17032 C 1674.46 -1.58586 1.25924 0
M  V30 17033 C 1674.78 -1.93732 -0.172685 0
M  V30 17034 O 1674.04 -1.59628 -1.13214 0
M  V30 17035 C 1674.34 -2.90026 2.08853 0
M  V30 17036 C 1674 -2.74204 3.57943 0
M  V30 17037 C 1672.67 -2.69596 3.98587 0
M  V30 17038 C 1675.02 -2.58384 4.52644 0
M  V30 17039 C 1672.35 -2.4708 5.32135 0
M  V30 17040 C 1674.7 -2.37401 5.86365 0
M  V30 17041 C 1673.36 -2.31201 6.26181 0
M  V30 17042 H 1672.63 -0.580306 0.460789 0
M  V30 17043 H 1675.28 -0.960978 1.65643 0
M  V30 17044 H 1673.58 -3.56767 1.6194 0
M  V30 17045 H 1675.28 -3.47576 1.99979 0
M  V30 17046 H 1671.87 -2.78627 3.25676 0
M  V30 17047 H 1676.06 -2.60972 4.22146 0
M  V30 17048 H 1671.31 -2.40733 5.62012 0
M  V30 17049 H 1675.49 -2.24146 6.59342 0
M  V30 17050 H 1673.11 -2.13515 7.29599 0
M  V30 17051 N 1674.69 -1.17582 -1.04939 0
M  V30 17052 C 1675.92 -0.988962 -1.81392 0
M  V30 17053 C 1676.33 0.46597 -1.83372 0
M  V30 17054 O 1675.67 1.33538 -1.26148 0
M  V30 17055 C 1675.73 -1.45656 -3.28671 0
M  V30 17056 C 1675.39 -2.93412 -3.50369 0
M  V30 17057 C 1676.39 -3.91329 -3.42283 0
M  V30 17058 C 1674.08 -3.31645 -3.77249 0
M  V30 17059 C 1676.07 -5.25478 -3.60766 0
M  V30 17060 C 1673.76 -4.65959 -3.95381 0
M  V30 17061 C 1674.76 -5.62684 -3.87138 0
M  V30 17062 O 1674.44 -6.94567 -4.04761 0
M  V30 17063 H 1674.18 -0.349962 -0.578362 0
M  V30 17064 H 1676.73 -1.5635 -1.33206 0
M  V30 17065 H 1674.96 -0.825602 -3.77784 0
M  V30 17066 H 1676.65 -1.23497 -3.86657 0
M  V30 17067 H 1677.41 -3.63138 -3.2149 0
M  V30 17068 H 1673.29 -2.56925 -3.82767 0
M  V30 17069 H 1676.84 -6.00961 -3.54248 0
M  V30 17070 H 1672.73 -4.93855 -4.15665 0
M  V30 17071 H 1673.5 -7.01343 -4.21972 0
M  V30 17072 N 1676.17 1.23705 -0.976463 0
M  V30 17073 C 1677.1 2.24297 -0.471538 0
M  V30 17074 C 1678.11 1.57169 0.424484 0
M  V30 17075 O 1679.3 1.77022 0.229252 0
M  V30 17076 C 1676.4 3.37214 0.337621 0
M  V30 17077 C 1675.57 4.33921 -0.550586 0
M  V30 17078 C 1674.63 5.25804 0.204053 0
M  V30 17079 O 1673.66 5.67757 -0.404995 0
M  V30 17080 N 1674.86 5.61021 1.49116 0
M  V30 17081 H 1677.62 2.68252 -1.33645 0
M  V30 17082 H 1675.19 1.37836 -0.849281 0
M  V30 17083 H 1677.18 3.95658 0.850714 0
M  V30 17084 H 1675.75 2.92474 1.10351 0
M  V30 17085 H 1674.97 3.74038 -1.24455 0
M  V30 17086 H 1676.26 4.95493 -1.15604 0
M  V30 17087 H 1675.65 5.28879 2.00757 0
M  V30 17088 H 1674.21 6.21954 1.94978 0
M  V30 17089 N 1677.64 0.747635 1.38738 0
M  V30 17090 C 1678.61 0.124321 2.28863 0
M  V30 17091 C 1679.61 -0.653816 1.46908 0
M  V30 17092 O 1680.8 -0.480963 1.67429 0
M  V30 17093 C 1677.93 -0.832601 3.30576 0
M  V30 17094 H 1679.12 0.918492 2.85489 0
M  V30 17095 H 1676.67 0.514262 1.47598 0
M  V30 17096 H 1677.41 -1.65267 2.79029 0
M  V30 17097 H 1677.19 -0.277109 3.9112 0
M  V30 17098 H 1678.68 -1.2649 3.97982 0
M  V30 17099 N 1679.12 -1.49583 0.496242 0
M  V30 17100 C 1680.08 -2.27561 -0.273642 0
M  V30 17101 C 1681.08 -1.33375 -0.8982 0
M  V30 17102 O 1682.27 -1.56578 -0.76347 0
M  V30 17103 C 1679.41 -3.11178 -1.39216 0
M  V30 17104 H 1680.6 -2.97077 0.410543 0
M  V30 17105 H 1678.15 -1.54271 0.251058 0
M  V30 17106 H 1678.89 -2.46217 -2.11064 0
M  V30 17107 H 1678.67 -3.80422 -0.949829 0
M  V30 17108 H 1680.16 -3.70085 -1.93459 0
M  V30 17109 N 1680.6 -0.229873 -1.55915 0
M  V30 17110 C 1681.55 0.690362 -2.17297 0
M  V30 17111 C 1682.53 1.15155 -1.12375 0
M  V30 17112 O 1683.73 1.10416 -1.38338 0
M  V30 17113 C 1680.85 1.89461 -2.86286 0
M  V30 17114 C 1679.94 1.45271 -3.98443 0
M  V30 17115 N 1680.33 0.723932 -5.00593 0
M  V30 17116 C 1678.63 1.73935 -4.10686 0
M  V30 17117 C 1679.33 0.497439 -5.79569 0
M  V30 17118 N 1678.31 1.05662 -5.33232 0
M  V30 17119 H 1682.11 0.12522 -2.93633 0
M  V30 17120 H 1679.62 -0.0314724 -1.6237 0
M  V30 17121 H 1681.62 2.5647 -3.28677 0
M  V30 17122 H 1680.28 2.46414 -2.11448 0
M  V30 17123 H 1681.29 0.375765 -5.16535 0
M  V30 17124 H 1677.97 2.32149 -3.47006 0
M  V30 17125 H 1679.36 -0.0831841 -6.71849 0
M  V30 17126 N 1682.08 1.5754 0.0434337 0
M  V30 17127 C 1683.49 1.77071 0.591836 0
M  V30 17128 C 1683.84 0.85911 1.76391 0
M  V30 17129 O 1682.96 0.0502725 2.16342 0
M  V30 17130 C 1683.56 3.21111 1.08041 0
M  V30 17131 C 1682.12 3.41889 1.57445 0
M  V30 17132 C 1681.27 2.72641 0.506166 0
M  V30 17133 H 1684.22 1.57644 -0.182792 0
M  V30 17134 H 1684.24 3.26834 1.94833 0
M  V30 17135 H 1683.75 3.87435 0.227153 0
M  V30 17136 H 1681.85 2.80721 2.45003 0
M  V30 17137 H 1681.96 4.50452 1.63185 0
M  V30 17138 H 1680.33 2.36002 0.957878 0
M  V30 17139 H 1681.11 3.41638 -0.337389 0
M  V30 17140 N 1683.56 -0.31543 1.54411 0
M  V30 17141 C 1684.78 -1.07173 1.76979 0
M  V30 17142 C 1685.2 -1.81432 0.522285 0
M  V30 17143 O 1684.56 -1.75306 -0.507348 0
M  V30 17144 C 1684.61 -2.06352 2.96818 0
M  V30 17145 O 1684.33 -1.35108 4.16746 0
M  V30 17146 C 1685.83 -2.94136 3.31661 0
M  V30 17147 H 1683.05 -0.318455 0.590616 0
M  V30 17148 H 1685.59 -0.359085 2.01323 0
M  V30 17149 H 1683.75 -2.7314 2.74724 0
M  V30 17150 H 1684.16 -2.01593 4.84211 0
M  V30 17151 H 1685.64 -3.59606 4.18793 0
M  V30 17152 H 1686.11 -3.6167 2.49182 0
M  V30 17153 H 1686.72 -2.32899 3.55863 0
M  V30 17154 N 1685.03 -1.46622 -0.577906 0
M  V30 17155 C 1686.28 -1.52181 -1.33594 0
M  V30 17156 C 1686.61 -0.175484 -1.93707 0
M  V30 17157 O 1685.86 0.829407 -1.77255 0
M  V30 17158 C 1686.16 -2.57215 -2.48144 0
M  V30 17159 C 1685.83 -4.01095 -2.05993 0
M  V30 17160 C 1684.49 -4.40267 -1.94213 0
M  V30 17161 C 1686.84 -4.91459 -1.73543 0
M  V30 17162 C 1684.17 -5.67661 -1.48248 0
M  V30 17163 C 1686.52 -6.19296 -1.29055 0
M  V30 17164 C 1685.19 -6.57369 -1.15856 0
M  V30 17165 H 1684.46 -0.556868 -0.488855 0
M  V30 17166 H 1687.1 -1.80122 -0.65026 0
M  V30 17167 H 1685.41 -2.22952 -3.22179 0
M  V30 17168 H 1687.11 -2.58744 -3.06354 0
M  V30 17169 H 1683.7 -3.70134 -2.16098 0
M  V30 17170 H 1687.88 -4.61911 -1.81527 0
M  V30 17171 H 1683.14 -5.95928 -1.36676 0
M  V30 17172 H 1687.31 -6.88741 -1.03001 0
M  V30 17173 H 1684.94 -7.55977 -0.800148 0
M  V30 17174 N 1686.51 0.822941 -1.34408 0
M  V30 17175 C 1687.92 1.39571 -1.24003 0
M  V30 17176 C 1688.27 1.95739 0.134483 0
M  V30 17177 O 1687.4 1.90054 1.03481 0
M  V30 17178 C 1687.99 2.53726 -2.24519 0
M  V30 17179 C 1686.55 3.06911 -2.17905 0
M  V30 17180 C 1685.7 1.79783 -2.11124 0
M  V30 17181 H 1688.65 0.62734 -1.45774 0
M  V30 17182 H 1688.67 3.31818 -1.86217 0
M  V30 17183 H 1688.18 2.12816 -3.24547 0
M  V30 17184 H 1686.29 3.52326 -1.21233 0
M  V30 17185 H 1686.4 3.66003 -3.09158 0
M  V30 17186 H 1684.76 2.00679 -1.56845 0
M  V30 17187 H 1685.55 1.41047 -3.12987 0
M  V30 17188 N 1687.99 1.18137 1.04314 0
M  V30 17189 C 1688.95 0.908268 2.10436 0
M  V30 17190 C 1689.95 -0.105315 1.60455 0
M  V30 17191 O 1691.14 0.12785 1.7373 0
M  V30 17192 C 1688.28 0.362233 3.3897 0
M  V30 17193 H 1689.47 1.84928 2.36096 0
M  V30 17194 H 1687.02 0.993048 1.20699 0
M  V30 17195 H 1687.76 -0.58551 3.18971 0
M  V30 17196 H 1687.54 1.09285 3.76562 0
M  V30 17197 H 1689.03 0.18977 4.17169 0
M  V30 17198 N 1689.47 -1.23186 0.98301 0
M  V30 17199 C 1690.4 -2.24044 0.483426 0
M  V30 17200 C 1691.41 -1.57392 -0.416143 0
M  V30 17201 O 1692.6 -1.77141 -0.219861 0
M  V30 17202 C 1689.7 -3.37388 -0.319733 0
M  V30 17203 C 1688.88 -4.33623 0.57359 0
M  V30 17204 C 1687.93 -5.25905 -0.176165 0
M  V30 17205 O 1686.96 -5.67535 0.435099 0
M  V30 17206 N 1688.16 -5.61804 -1.46139 0
M  V30 17207 H 1690.93 -2.67539 1.35066 0
M  V30 17208 H 1688.49 -1.37384 0.856579 0
M  V30 17209 H 1690.48 -3.96103 -0.829719 0
M  V30 17210 H 1689.05 -2.93056 -1.08799 0
M  V30 17211 H 1688.27 -3.73373 1.26437 0
M  V30 17212 H 1689.56 -4.94873 1.18231 0
M  V30 17213 H 1688.96 -5.29936 -1.97949 0
M  V30 17214 H 1687.51 -6.22979 -1.91676 0
M  V30 17215 N 1690.95 -0.754982 -1.38339 0
M  V30 17216 C 1692.19 -0.312224 -2.00382 0
M  V30 17217 C 1692.53 1.10362 -1.59793 0
M  V30 17218 O 1691.8 1.75611 -0.83613 0
M  V30 17219 C 1692.08 -0.436701 -3.57442 0
M  V30 17220 C 1691.94 -1.89376 -4.07991 0
M  V30 17221 C 1693.26 0.169083 -4.39775 0
M  V30 17222 H 1690.37 -0.114922 -0.727985 0
M  V30 17223 H 1693.02 -0.954887 -1.64262 0
M  V30 17224 H 1691.17 0.11043 -3.88343 0
M  V30 17225 H 1692.84 -2.4993 -3.87728 0
M  V30 17226 H 1691.08 -2.40834 -3.60807 0
M  V30 17227 H 1691.75 -1.932 -5.17086 0
M  V30 17228 H 1694.23 -0.297554 -4.15035 0
M  V30 17229 H 1693.1 0.0517531 -5.48876 0
M  V30 17230 H 1693.37 1.25754 -4.23838 0
M  V30 17231 N 1692.42 1.49318 -0.504168 0
M  V30 17232 C 1693.65 2.07365 0.038102 0
M  V30 17233 C 1694.07 1.36164 1.29773 0
M  V30 17234 O 1693.43 0.419365 1.76383 0
M  V30 17235 C 1693.48 3.59576 0.271535 0
M  V30 17236 O 1692.58 3.8983 1.34561 0
M  V30 17237 H 1691.93 0.663425 -0.0276328 0
M  V30 17238 H 1694.46 1.92081 -0.704696 0
M  V30 17239 H 1694.47 4.04899 0.502083 0
M  V30 17240 H 1693.14 4.10809 -0.648754 0
M  V30 17241 H 1691.72 3.56314 1.09976 0
M  V30 17242 N 1693.9 0.238138 1.5579 0
M  V30 17243 C 1695.15 -0.389608 1.99022 0
M  V30 17244 C 1695.48 -1.58226 1.12597 0
M  V30 17245 O 1694.76 -1.93595 0.187363 0
M  V30 17246 C 1695.04 -0.808025 3.50917 0
M  V30 17247 C 1694.89 0.389417 4.48111 0
M  V30 17248 C 1696.21 -1.6582 4.07666 0
M  V30 17249 H 1693.33 -0.140141 0.723553 0
M  V30 17250 H 1695.97 0.337696 1.86975 0
M  V30 17251 H 1694.12 -1.42772 3.61315 0
M  V30 17252 H 1695.79 1.02777 4.49705 0
M  V30 17253 H 1694.04 1.03404 4.21296 0
M  V30 17254 H 1694.71 0.0534549 5.51974 0
M  V30 17255 H 1697.18 -1.13518 4.00316 0
M  V30 17256 H 1696.06 -1.91984 5.14231 0
M  V30 17257 H 1696.32 -2.62712 3.55577 0
M  V30 17258 N 1695.38 -1.57561 -0.0350783 0
M  V30 17259 C 1696.66 -1.8014 -0.76217 0
M  V30 17260 C 1697.04 -0.834754 -1.93894 0
M  V30 17261 O 1696.39 0.124387 -2.28161 0
M  V30 17262 C 1696.6 -3.2769 -1.20084 0
M  V30 17263 C 1697.94 -3.92513 -1.61923 0
M  V30 17264 O 1698.97 -3.31803 -1.29558 0
M  V30 17265 O 1697.83 -4.9939 -2.21972 0
M  V30 17266 H 1694.92 -0.740572 -0.368078 0
M  V30 17267 H 1697.47 -1.69696 -0.0123195 0
M  V30 17268 H 1696.24 -3.89636 -0.3605 0
M  V30 17269 H 1695.86 -3.43 -2.01089 0
M  V30 17270 N 1696.86 0.307236 -1.54576 0
M  V30 17271 C 1698.11 1.04115 -1.73218 0
M  V30 17272 C 1698.43 1.88008 -0.517482 0
M  V30 17273 O 1697.7 1.90219 0.468336 0
M  V30 17274 H 1696.28 0.387388 -0.638701 0
M  V30 17275 H 1698.94 0.339727 -1.91916 0
M  V30 17276 H 1698.04 1.69784 -2.61877 0
M  V30 17277 N 1698.34 1.46926 0.570122 0
M  V30 17278 C 1699.58 1.52585 1.32523 0
M  V30 17279 C 1699.91 0.184291 1.94127 0
M  V30 17280 O 1699.18 -0.790478 1.79244 0
M  V30 17281 H 1697.76 0.562019 0.492081 0
M  V30 17282 H 1700.42 1.83141 0.666746 0
M  V30 17283 H 1699.51 2.28541 2.12545 0
M  V30 17284 N 1699.82 -0.815801 1.34842 0
M  V30 17285 C 1701.06 -1.57426 1.28797 0
M  V30 17286 C 1701.42 -1.91897 -0.138973 0
M  V30 17287 O 1700.71 -1.57777 -1.08706 0
M  V30 17288 C 1700.9 -2.87795 2.11917 0
M  V30 17289 C 1700.73 -2.6606 3.62549 0
M  V30 17290 C 1699.5 -2.62428 4.3181 0
M  V30 17291 C 1701.7 -2.37078 4.56397 0
M  V30 17292 N 1699.68 -2.32313 5.68246 0
M  V30 17293 C 1701.05 -2.16721 5.80889 0
M  V30 17294 C 1703.11 -2.22865 4.45237 0
M  V30 17295 C 1701.81 -1.8359 6.95476 0
M  V30 17296 C 1703.84 -1.9113 5.59663 0
M  V30 17297 C 1703.2 -1.71602 6.83178 0
M  V30 17298 H 1699.3 -0.578164 0.526545 0
M  V30 17299 H 1701.88 -0.955728 1.69629 0
M  V30 17300 H 1700.05 -3.47559 1.7337 0
M  V30 17301 H 1701.79 -3.53258 1.97461 0
M  V30 17302 H 1698.54 -2.76753 3.84324 0
M  V30 17303 H 1698.96 -2.20076 6.40231 0
M  V30 17304 H 1703.61 -2.36665 3.50357 0
M  V30 17305 H 1701.32 -1.68528 7.90332 0
M  V30 17306 H 1704.91 -1.80854 5.52976 0
M  V30 17307 H 1703.79 -1.47403 7.70222 0
M  V30 17308 N 1701.29 -1.18689 -1.03686 0
M  V30 17309 C 1702.7 -0.988182 -1.58404 0
M  V30 17310 C 1703.06 0.461107 -1.90705 0
M  V30 17311 O 1702.18 1.33912 -1.6999 0
M  V30 17312 C 1702.78 -1.78748 -2.8781 0
M  V30 17313 C 1701.33 -1.63301 -3.39131 0
M  V30 17314 C 1700.48 -1.77954 -2.12668 0
M  V30 17315 H 1703.43 -1.33177 -0.863112 0
M  V30 17316 H 1703.45 -1.27882 -3.58366 0
M  V30 17317 H 1702.97 -2.84224 -2.6427 0
M  V30 17318 H 1701.07 -0.603777 -3.67676 0
M  V30 17319 H 1701.18 -2.43342 -4.127 0
M  V30 17320 H 1699.54 -1.20937 -2.24157 0
M  V30 17321 H 1700.33 -2.84873 -1.91579 0
M  V30 17322 N 1702.77 1.22662 -0.989529 0
M  V30 17323 C 1704.19 1.43445 -0.699687 0
M  V30 17324 C 1704.39 1.87778 0.730875 0
M  V30 17325 O 1703.44 2.02953 1.5022 0
M  V30 17326 C 1704.76 2.47869 -1.70239 0
M  V30 17327 C 1706.3 2.61672 -1.71746 0
M  V30 17328 C 1706.78 3.69315 -2.7087 0
M  V30 17329 N 1708.27 3.76768 -2.69444 0
M  V30 17330 C 1709.01 4.59641 -3.42808 0
M  V30 17331 N 1708.5 5.46533 -4.25762 0
M  V30 17332 N 1710.29 4.53921 -3.3153 0
M  V30 17333 H 1702.45 0.921912 -1.91349 0
M  V30 17334 H 1704.71 0.466905 -0.825048 0
M  V30 17335 H 1704.41 2.22233 -2.7259 0
M  V30 17336 H 1704.29 3.46415 -1.49254 0
M  V30 17337 H 1706.68 2.86655 -0.70094 0
M  V30 17338 H 1706.76 1.63413 -1.96799 0
M  V30 17339 H 1706.4 3.4508 -3.72669 0
M  V30 17340 H 1706.33 4.67136 -2.43088 0
M  V30 17341 H 1708.82 3.1468 -2.09249 0
M  V30 17342 H 1709.13 6.06783 -4.78575 0
M  V30 17343 H 1707.48 5.46126 -4.2985 0
M  V30 17344 H 1710.67 3.85062 -2.66168 0
M  V30 17345 H 1710.84 5.18277 -3.88964 0
M  V30 17346 N 1704.25 0.762308 1.37937 0
M  V30 17347 C 1705.21 0.148588 2.28718 0
M  V30 17348 C 1706.21 -0.638198 1.47593 0
M  V30 17349 O 1707.4 -0.463178 1.67929 0
M  V30 17350 C 1704.53 -0.797492 3.31441 0
M  V30 17351 H 1705.73 0.94872 2.84498 0
M  V30 17352 H 1703.28 0.529888 1.47044 0
M  V30 17353 H 1704.02 -1.62298 2.80767 0
M  V30 17354 H 1703.8 -0.23561 3.91391 0
M  V30 17355 H 1705.29 -1.22262 3.99302 0
M  V30 17356 N 1705.73 -1.49049 0.51208 0
M  V30 17357 C 1706.98 -2.0208 -0.0284326 0
M  V30 17358 C 1707.3 -1.39303 -1.36454 0
M  V30 17359 O 1706.57 -0.552155 -1.87958 0
M  V30 17360 H 1705.15 -0.746878 -0.0134968 0
M  V30 17361 H 1707.81 -1.82954 0.671842 0
M  V30 17362 H 1706.9 -3.11739 -0.149966 0
M  V30 17363 N 1707.21 -0.246397 -1.55662 0
M  V30 17364 C 1708.43 0.385607 -2.03784 0
M  V30 17365 C 1708.86 1.50786 -1.12451 0
M  V30 17366 O 1708.21 1.8092 -0.117371 0
M  V30 17367 C 1708.26 0.871204 -3.49918 0
M  V30 17368 O 1707.37 1.98082 -3.61715 0
M  V30 17369 H 1706.71 0.0841099 -0.658651 0
M  V30 17370 H 1709.24 -0.372306 -2.01184 0
M  V30 17371 H 1709.25 1.17455 -3.90728 0
M  V30 17372 H 1707.92 0.0499597 -4.1587 0
M  V30 17373 H 1706.5 1.6822 -3.32801 0
M  V30 17374 N 1708.68 1.57577 0.026722 0
M  V30 17375 C 1709.93 1.89379 0.717062 0
M  V30 17376 C 1710.26 0.843976 1.75235 0
M  V30 17377 O 1709.51 -0.154755 1.95087 0
M  V30 17378 C 1709.81 3.27927 1.42121 0
M  V30 17379 C 1709.48 4.47872 0.521676 0
M  V30 17380 C 1708.14 4.8042 0.273926 0
M  V30 17381 C 1710.49 5.21105 -0.0992493 0
M  V30 17382 C 1707.82 5.83588 -0.603488 0
M  V30 17383 C 1710.17 6.25206 -0.964379 0
M  V30 17384 C 1708.84 6.56227 -1.22157 0
M  V30 17385 H 1708.11 0.692988 0.262391 0
M  V30 17386 H 1710.75 1.91486 -0.0230629 0
M  V30 17387 H 1709.06 3.2182 2.23471 0
M  V30 17388 H 1710.76 3.49783 1.96094 0
M  V30 17389 H 1707.35 4.22425 0.724931 0
M  V30 17390 H 1711.53 4.96237 0.0791882 0
M  V30 17391 H 1706.79 6.05997 -0.811031 0
M  V30 17392 H 1710.96 6.81094 -1.45201 0
M  V30 17393 H 1708.59 7.35991 -1.90317 0
M  V30 17394 N 1710.16 -0.299034 1.54737 0
M  V30 17395 C 1711.11 -1.37055 1.82208 0
M  V30 17396 C 1712.1 -1.45855 0.679357 0
M  V30 17397 O 1713.29 -1.49974 0.940044 0
M  V30 17398 C 1710.42 -2.73525 2.07459 0
M  V30 17399 C 1709.5 -2.6894 3.27921 0
M  V30 17400 N 1709.89 -2.33972 4.48432 0
M  V30 17401 C 1708.19 -3.0004 3.29988 0
M  V30 17402 C 1708.89 -2.38734 5.30454 0
M  V30 17403 N 1707.87 -2.76167 4.68223 0
M  V30 17404 H 1711.67 -1.08986 2.72945 0
M  V30 17405 H 1709.18 -0.507618 1.54263 0
M  V30 17406 H 1711.18 -3.50787 2.25287 0
M  V30 17407 H 1709.84 -3.02503 1.1799 0
M  V30 17408 H 1710.85 -2.06392 4.74998 0
M  V30 17409 H 1707.53 -3.33901 2.50632 0
M  V30 17410 H 1708.92 -2.1448 6.36748 0
M  V30 17411 N 1711.64 -1.47227 -0.562322 0
M  V30 17412 C 1712.6 -1.58887 -1.6519 0
M  V30 17413 C 1713.6 -0.464359 -1.53949 0
M  V30 17414 O 1714.79 -0.729279 -1.582 0
M  V30 17415 C 1711.92 -1.52853 -3.04711 0
M  V30 17416 H 1713.12 -2.5601 -1.56202 0
M  V30 17417 H 1710.67 -1.35341 -0.781832 0
M  V30 17418 H 1711.41 -0.570867 -3.19236 0
M  V30 17419 H 1711.19 -2.3446 -3.14279 0
M  V30 17420 H 1712.68 -1.6414 -3.83989 0
M  V30 17421 N 1713.12 0.808639 -1.35273 0
M  V30 17422 C 1714.34 1.60219 -1.31699 0
M  V30 17423 C 1714.77 1.87816 0.103386 0
M  V30 17424 O 1714.13 1.46389 1.06957 0
M  V30 17425 C 1714.17 2.9116 -2.12739 0
M  V30 17426 O 1713.28 3.83891 -1.5067 0
M  V30 17427 H 1712.62 0.486742 -0.45164 0
M  V30 17428 H 1715.15 1.00378 -1.78284 0
M  V30 17429 H 1715.16 3.40602 -2.2462 0
M  V30 17430 H 1713.83 2.70399 -3.16002 0
M  V30 17431 H 1712.41 3.42437 -1.47618 0
M  V30 17432 N 1714.6 1.19237 1.03055 0
M  V30 17433 C 1715.84 0.993971 1.76427 0
M  V30 17434 C 1716.17 -0.475422 1.886 0
M  V30 17435 O 1715.43 -1.36925 1.39821 0
M  V30 17436 C 1715.73 1.60607 3.19281 0
M  V30 17437 C 1715.39 3.10329 3.27119 0
M  V30 17438 C 1714.05 3.51192 3.28965 0
M  V30 17439 C 1716.41 4.0634 3.264 0
M  V30 17440 C 1713.73 4.8662 3.27747 0
M  V30 17441 C 1716.09 5.41696 3.26723 0
M  V30 17442 C 1714.75 5.81992 3.26866 0
M  V30 17443 H 1714.02 0.36372 0.645592 0
M  V30 17444 H 1716.67 1.48455 1.20969 0
M  V30 17445 H 1714.97 1.03775 3.77807 0
M  V30 17446 H 1716.67 1.42786 3.74717 0
M  V30 17447 H 1713.26 2.77769 3.26409 0
M  V30 17448 H 1717.44 3.75814 3.24156 0
M  V30 17449 H 1712.7 5.17123 3.26181 0
M  V30 17450 H 1716.87 6.1585 3.25118 0
M  V30 17451 H 1714.5 6.86905 3.25676 0
M  V30 17452 N 1716.07 -1.22136 0.99602 0
M  V30 17453 C 1717.31 -1.92691 0.681882 0
M  V30 17454 C 1717.68 -1.75789 -0.772154 0
M  V30 17455 O 1718.88 -2.40634 -1.19785 0
M  V30 17456 C 1717.15 -3.40676 1.08048 0
M  V30 17457 S 1718.71 -4.29779 0.885181 0
M  V30 17458 H 1715.53 -0.665892 0.249217 0
M  V30 17459 H 1718.13 -1.47861 1.27896 0
M  V30 17460 H 1716.83 -3.50492 2.13503 0
M  V30 17461 H 1716.36 -3.90518 0.475328 0
M  V30 17462 H 1718.38 -4.957 -0.222612 0
M  V30 17463 N 1717.55 -0.769612 -1.37531 0
M  V30 17464 C 1718.96 -0.398644 -1.82394 0
M  V30 17465 C 1719.31 1.07493 -1.64133 0
M  V30 17466 O 1718.44 1.83234 -1.15127 0
M  V30 17467 C 1719.03 -0.716789 -3.31131 0
M  V30 17468 C 1717.59 -0.398903 -3.7428 0
M  V30 17469 C 1716.74 -0.96173 -2.60089 0
M  V30 17470 H 1719.69 -0.964441 -1.26033 0
M  V30 17471 H 1719.71 -0.00067688 -3.805 0
M  V30 17472 H 1719.22 -1.78933 -3.4439 0
M  V30 17473 H 1717.33 0.666412 -3.66592 0
M  V30 17474 H 1717.44 -0.90566 -4.70462 0
M  V30 17475 H 1715.8 -0.386103 -2.51757 0
M  V30 17476 H 1716.59 -2.03963 -2.76141 0
M  V30 17477 N 1719.03 1.48775 -0.519977 0
M  V30 17478 C 1719.98 2.26421 0.267886 0
M  V30 17479 C 1720.96 1.32087 0.918795 0
M  V30 17480 O 1722.16 1.56689 0.823256 0
M  V30 17481 C 1719.29 3.16896 1.3203 0
M  V30 17482 C 1718.37 4.18699 0.674688 0
M  V30 17483 N 1718.76 5.05259 -0.233769 0
M  V30 17484 C 1717.06 4.3613 0.933071 0
M  V30 17485 C 1717.76 5.78543 -0.605233 0
M  V30 17486 N 1716.74 5.43591 0.0313426 0
M  V30 17487 H 1720.54 2.9072 -0.43116 0
M  V30 17488 H 1718.05 1.58858 -0.337322 0
M  V30 17489 H 1720.05 3.71171 1.89836 0
M  V30 17490 H 1718.71 2.5415 2.02083 0
M  V30 17491 H 1719.72 5.14345 -0.605766 0
M  V30 17492 H 1716.4 3.84581 1.62492 0
M  V30 17493 H 1717.79 6.58207 -1.34957 0
M  V30 17494 N 1720.51 0.254649 1.55529 0
M  V30 17495 C 1721.75 -0.368477 1.99424 0
M  V30 17496 C 1722.09 -1.57023 1.14269 0
M  V30 17497 O 1721.36 -1.93386 0.207886 0
M  V30 17498 C 1721.65 -0.77076 3.51755 0
M  V30 17499 C 1721.5 0.436923 4.47673 0
M  V30 17500 C 1722.82 -1.61487 4.09402 0
M  V30 17501 H 1719.94 -0.132459 0.724999 0
M  V30 17502 H 1722.58 0.357508 1.86606 0
M  V30 17503 H 1720.73 -1.38932 3.62809 0
M  V30 17504 H 1722.4 1.07541 4.4859 0
M  V30 17505 H 1720.64 1.07866 4.20175 0
M  V30 17506 H 1721.31 0.111996 5.51886 0
M  V30 17507 H 1723.79 -1.09265 4.01498 0
M  V30 17508 H 1722.67 -1.86519 5.16238 0
M  V30 17509 H 1722.93 -2.58926 3.58343 0
M  V30 17510 N 1721.99 -1.57589 -0.0183649 0
M  V30 17511 C 1722.92 -2.1029 -1.01492 0
M  V30 17512 C 1723.9 -1.00782 -1.37029 0
M  V30 17513 O 1725.08 -1.28365 -1.45726 0
M  V30 17514 C 1722.21 -2.59111 -2.31255 0
M  V30 17515 C 1721.17 -3.72979 -2.0993 0
M  V30 17516 C 1720.49 -4.08046 -3.45547 0
M  V30 17517 C 1721.79 -5.00988 -1.47677 0
M  V30 17518 H 1723.49 -2.93804 -0.57618 0
M  V30 17519 H 1721.03 -1.41336 -0.275708 0
M  V30 17520 H 1722.99 -2.94602 -3.0131 0
M  V30 17521 H 1721.71 -1.72694 -2.77208 0
M  V30 17522 H 1720.37 -3.37853 -1.42306 0
M  V30 17523 H 1720.02 -3.1868 -3.89169 0
M  V30 17524 H 1719.72 -4.8475 -3.32101 0
M  V30 17525 H 1721.24 -4.46081 -4.16947 0
M  V30 17526 H 1722.65 -5.34368 -2.07663 0
M  V30 17527 H 1721.05 -5.82375 -1.44774 0
M  V30 17528 H 1722.12 -4.82865 -0.443804 0
M  V30 17529 N 1723.46 0.290824 -1.54893 0
M  V30 17530 C 1724.71 1.02272 -1.74312 0
M  V30 17531 C 1725.03 1.87449 -0.537393 0
M  V30 17532 O 1724.3 1.90705 0.448135 0
M  V30 17533 H 1722.88 0.380592 -0.642774 0
M  V30 17534 H 1725.55 0.319353 -1.92266 0
M  V30 17535 H 1724.64 1.66997 -2.63663 0
M  V30 17536 N 1724.94 1.47523 0.554506 0
M  V30 17537 C 1726.18 1.55867 1.32231 0
M  V30 17538 C 1726.55 0.216987 1.9077 0
M  V30 17539 O 1727.75 0.175283 2.68228 0
M  V30 17540 C 1726.02 2.64761 2.40076 0
M  V30 17541 S 1727.58 2.92706 3.26908 0
M  V30 17542 H 1724.4 0.550369 0.450128 0
M  V30 17543 H 1727 1.84917 0.634504 0
M  V30 17544 H 1725.7 3.60838 1.95509 0
M  V30 17545 H 1725.23 2.37534 3.13594 0
M  V30 17546 H 1727.25 2.30127 4.39609 0
M  V30 17547 N 1726.42 -0.801453 1.357 0
M  V30 17548 C 1727.84 -1.09776 1.1585 0
M  V30 17549 C 1728.04 -2.01484 -0.0255653 0
M  V30 17550 O 1727.09 -2.42758 -0.694613 0
M  V30 17551 C 1728.41 -1.72381 2.46385 0
M  V30 17552 C 1729.95 -1.84777 2.52639 0
M  V30 17553 C 1730.43 -2.50797 3.83229 0
M  V30 17554 N 1731.92 -2.58277 3.84509 0
M  V30 17555 C 1732.65 -3.10141 4.82286 0
M  V30 17556 N 1732.15 -3.62404 5.90454 0
M  V30 17557 N 1733.94 -3.08742 4.69718 0
M  V30 17558 H 1726.09 -0.191926 2.11531 0
M  V30 17559 H 1728.36 -0.147742 0.936417 0
M  V30 17560 H 1728.06 -1.12462 3.33234 0
M  V30 17561 H 1727.94 -2.72024 2.6131 0
M  V30 17562 H 1730.32 -2.43837 1.66215 0
M  V30 17563 H 1730.41 -0.839745 2.41624 0
M  V30 17564 H 1730.05 -1.92385 4.70053 0
M  V30 17565 H 1729.98 -3.52147 3.91535 0
M  V30 17566 H 1732.47 -2.21257 3.06356 0
M  V30 17567 H 1732.78 -4.00293 6.61049 0
M  V30 17568 H 1731.13 -3.60588 5.94139 0
M  V30 17569 H 1734.32 -2.67193 3.84351 0
M  V30 17570 H 1734.49 -3.48854 5.46081 0
M  V30 17571 N 1727.9 -1.19782 -1.02421 0
M  V30 17572 C 1729.18 -0.912541 -1.73009 0
M  V30 17573 C 1729.56 0.58061 -2.02958 0
M  V30 17574 O 1728.9 1.54013 -1.68797 0
M  V30 17575 C 1729.11 -1.77745 -3.00346 0
M  V30 17576 C 1730.46 -2.01462 -3.73762 0
M  V30 17577 O 1731.49 -1.74935 -3.10284 0
M  V30 17578 O 1730.34 -2.46219 -4.87892 0
M  V30 17579 H 1727.44 -0.340513 -0.753644 0
M  V30 17580 H 1729.98 -1.30618 -1.08338 0
M  V30 17581 H 1728.76 -2.78887 -2.74477 0
M  V30 17582 H 1728.38 -1.38339 -3.72757 0
M  V30 17583 N 1729.38 1.21606 -1.00248 0
M  V30 17584 C 1730.31 2.23246 -0.519009 0
M  V30 17585 C 1731.32 1.58034 0.391051 0
M  V30 17586 O 1732.51 1.77468 0.191652 0
M  V30 17587 C 1729.61 3.37854 0.266017 0
M  V30 17588 C 1728.78 4.32655 -0.642503 0
M  V30 17589 C 1727.84 5.26119 0.0924758 0
M  V30 17590 O 1726.87 5.66771 -0.525333 0
M  V30 17591 N 1728.07 5.64058 1.37183 0
M  V30 17592 H 1730.84 2.65357 -1.39305 0
M  V30 17593 H 1728.4 1.36004 -0.878327 0
M  V30 17594 H 1730.39 3.97373 0.766598 0
M  V30 17595 H 1728.96 2.94749 1.04123 0
M  V30 17596 H 1728.18 3.71314 -1.32361 0
M  V30 17597 H 1729.47 4.92929 -1.26089 0
M  V30 17598 H 1728.87 5.33018 1.89493 0
M  V30 17599 H 1727.42 6.2595 1.81741 0
M  V30 17600 N 1730.86 0.776895 1.37121 0
M  V30 17601 C 1732.1 0.344063 1.9986 0
M  V30 17602 C 1732.43 -1.07806 1.61529 0
M  V30 17603 O 1731.71 -1.74258 0.863963 0
M  V30 17604 C 1731.99 0.493512 3.56702 0
M  V30 17605 C 1731.85 1.95842 4.04927 0
M  V30 17606 C 1733.16 -0.099097 4.39988 0
M  V30 17607 H 1730.28 0.126489 0.726064 0
M  V30 17608 H 1732.93 0.980899 1.62722 0
M  V30 17609 H 1731.08 -0.0486344 3.8847 0
M  V30 17610 H 1732.75 2.56067 3.83702 0
M  V30 17611 H 1730.99 2.46544 3.56929 0
M  V30 17612 H 1731.66 2.01402 5.13947 0
M  V30 17613 H 1734.14 0.363545 4.14509 0
M  V30 17614 H 1733.01 0.0355748 5.48888 0
M  V30 17615 H 1733.27 -1.18995 4.25785 0
M  V30 17616 N 1732.33 -1.48497 0.527859 0
M  V30 17617 C 1733.58 -2.01698 -0.00900086 0
M  V30 17618 C 1733.9 -1.4104 -1.35525 0
M  V30 17619 O 1735.1 -1.85726 -1.98035 0
M  V30 17620 C 1733.56 -3.59839 -0.0664428 0
M  V30 17621 C 1733.17 -4.2948 1.27479 0
M  V30 17622 C 1734.91 -4.20893 -0.552244 0
M  V30 17623 C 1732.82 -5.79548 1.17805 0
M  V30 17624 H 1731.75 -0.753966 -0.00713463 0
M  V30 17625 H 1734.4 -1.70779 0.67132 0
M  V30 17626 H 1732.78 -3.8759 -0.811795 0
M  V30 17627 H 1733.95 -4.13403 2.03554 0
M  V30 17628 H 1732.27 -3.80289 1.69616 0
M  V30 17629 H 1734.87 -5.30825 -0.642556 0
M  V30 17630 H 1735.21 -3.86066 -1.55752 0
M  V30 17631 H 1735.74 -3.97563 0.137363 0
M  V30 17632 H 1732.48 -6.18945 2.15841 0
M  V30 17633 H 1732 -5.98044 0.458624 0
M  V30 17634 H 1733.68 -6.41153 0.867834 0
M  V30 17635 N 1733.81 -0.262893 -1.55392 0
M  V30 17636 C 1734.77 0.616662 -2.20749 0
M  V30 17637 C 1735.77 1.09066 -1.18158 0
M  V30 17638 O 1736.96 0.992797 -1.4314 0
M  V30 17639 C 1734.1 1.84937 -2.86376 0
M  V30 17640 H 1735.29 0.0462013 -2.99864 0
M  V30 17641 H 1732.84 -0.013432 -1.56294 0
M  V30 17642 H 1733.58 2.46066 -2.1124 0
M  V30 17643 H 1733.36 1.51754 -3.61543 0
M  V30 17644 H 1734.85 2.47511 -3.36345 0
M  V30 17645 N 1735.29 1.57597 0.0100073 0
M  V30 17646 C 1736.2 2.11209 1.02117 0
M  V30 17647 C 1737.22 1.05503 1.38366 0
M  V30 17648 O 1738.39 1.37348 1.47301 0
M  V30 17649 C 1735.46 2.59654 2.2974 0
M  V30 17650 C 1734.52 3.79921 1.99896 0
M  V30 17651 C 1733.75 4.26046 3.21435 0
M  V30 17652 O 1733.97 3.71566 4.32775 0
M  V30 17653 O 1732.91 5.18301 3.06018 0
M  V30 17654 H 1736.73 2.97805 0.595469 0
M  V30 17655 H 1734.32 1.47647 0.228208 0
M  V30 17656 H 1736.2 2.91058 3.04735 0
M  V30 17657 H 1734.88 1.76161 2.71568 0
M  V30 17658 H 1733.78 3.53506 1.22409 0
M  V30 17659 H 1735.12 4.64457 1.62912 0
M  V30 17660 N 1736.77 -0.282606 1.55045 0
M  V30 17661 C 1738.02 -1.01346 1.74852 0
M  V30 17662 C 1738.34 -1.87161 0.547327 0
M  V30 17663 O 1737.61 -1.9094 -0.438015 0
M  V30 17664 H 1736.19 -0.377178 0.644784 0
M  V30 17665 H 1738.85 -0.309152 1.92432 0
M  V30 17666 H 1737.94 -1.65596 2.64545 0
M  V30 17667 N 1738.25 -1.47815 -0.546675 0
M  V30 17668 C 1739.18 -1.57161 -1.66832 0
M  V30 17669 C 1740.19 -0.457035 -1.56253 0
M  V30 17670 O 1741.38 -0.727134 -1.63018 0
M  V30 17671 C 1738.48 -1.4697 -3.05374 0
M  V30 17672 C 1737.65 -2.7318 -3.41602 0
M  V30 17673 C 1736.71 -2.56676 -4.59351 0
M  V30 17674 O 1735.74 -3.30521 -4.63405 0
M  V30 17675 N 1736.94 -1.65194 -5.56499 0
M  V30 17676 H 1739.7 -2.53885 -1.59257 0
M  V30 17677 H 1737.27 -1.44328 -0.733565 0
M  V30 17678 H 1739.26 -1.33649 -3.81995 0
M  V30 17679 H 1737.83 -0.582878 -3.07118 0
M  V30 17680 H 1737.05 -3.01186 -2.54323 0
M  V30 17681 H 1738.34 -3.56945 -3.62585 0
M  V30 17682 H 1737.73 -1.04369 -5.55989 0
M  V30 17683 H 1736.29 -1.57819 -6.32405 0
M  V30 17684 N 1739.72 0.794246 -1.36123 0
M  V30 17685 C 1740.97 1.54708 -1.29416 0
M  V30 17686 C 1741.29 1.95195 0.125849 0
M  V30 17687 O 1742.49 2.69663 0.315271 0
M  V30 17688 C 1740.95 2.79256 -2.27034 0
M  V30 17689 C 1740.56 2.45957 -3.74445 0
M  V30 17690 C 1742.3 3.57246 -2.29294 0
M  V30 17691 C 1740.21 3.66871 -4.63853 0
M  V30 17692 H 1739.14 0.580743 -0.480888 0
M  V30 17693 H 1741.79 0.871975 -1.61458 0
M  V30 17694 H 1740.17 3.4854 -1.87979 0
M  V30 17695 H 1741.34 1.846 -4.22208 0
M  V30 17696 H 1739.66 1.81187 -3.74913 0
M  V30 17697 H 1742.26 4.47076 -2.93304 0
M  V30 17698 H 1742.6 3.95478 -1.30011 0
M  V30 17699 H 1743.13 2.94936 -2.66941 0
M  V30 17700 H 1739.87 3.33739 -5.6418 0
M  V30 17701 H 1739.39 4.27411 -4.20809 0
M  V30 17702 H 1741.07 4.33957 -4.79886 0
M  V30 17703 N 1741.2 1.20323 1.01785 0
M  V30 17704 C 1742.11 0.966603 2.13761 0
M  V30 17705 C 1743.13 -0.0771059 1.73829 0
M  V30 17706 O 1744.3 0.110054 2.01099 0
M  V30 17707 C 1741.37 0.520405 3.42772 0
M  V30 17708 C 1740.43 1.63482 3.96954 0
M  V30 17709 C 1739.66 1.20981 5.19807 0
M  V30 17710 O 1739.89 0.0779814 5.70347 0
M  V30 17711 O 1738.82 2.01674 5.67108 0
M  V30 17712 H 1742.65 1.90414 2.36593 0
M  V30 17713 H 1740.23 0.986997 1.12155 0
M  V30 17714 H 1742.11 0.280747 4.20464 0
M  V30 17715 H 1740.79 -0.388563 3.21359 0
M  V30 17716 H 1739.69 1.92874 3.20547 0
M  V30 17717 H 1741.03 2.52074 4.22752 0
M  V30 17718 N 1742.68 -1.21073 1.00892 0
M  V30 17719 C 1743.93 -1.90242 0.693851 0
M  V30 17720 C 1744.25 -1.78359 -0.77578 0
M  V30 17721 O 1743.51 -1.15694 -1.57839 0
M  V30 17722 C 1743.81 -3.41148 1.0655 0
M  V30 17723 C 1743.47 -3.73228 2.53005 0
M  V30 17724 C 1742.14 -3.81694 2.93024 0
M  V30 17725 C 1744.49 -3.88132 3.47855 0
M  V30 17726 C 1741.82 -4.02515 4.26847 0
M  V30 17727 C 1744.17 -4.10461 4.81357 0
M  V30 17728 C 1742.83 -4.17155 5.21093 0
M  V30 17729 H 1742.1 -0.696144 0.253898 0
M  V30 17730 H 1744.75 -1.43499 1.26808 0
M  V30 17731 H 1743.05 -3.89653 0.409575 0
M  V30 17732 H 1744.75 -3.92949 0.799525 0
M  V30 17733 H 1741.34 -3.67233 2.20994 0
M  V30 17734 H 1745.53 -3.80954 3.18101 0
M  V30 17735 H 1740.78 -4.0593 4.57199 0
M  V30 17736 H 1744.96 -4.20935 5.54785 0
M  V30 17737 H 1742.58 -4.33041 6.24804 0
M  V30 17738 N 1744.16 -0.784156 -1.36707 0
M  V30 17739 C 1745.44 -0.278338 -1.93609 0
M  V30 17740 C 1745.82 1.22865 -1.71661 0
M  V30 17741 O 1745.16 2.01765 -1.07252 0
M  V30 17742 C 1745.37 -0.665232 -3.42601 0
M  V30 17743 C 1746.72 -0.642005 -4.19718 0
M  V30 17744 O 1747.75 -0.605381 -3.51018 0
M  V30 17745 O 1746.6 -0.680178 -5.42251 0
M  V30 17746 H 1743.7 -0.0675603 -0.824236 0
M  V30 17747 H 1746.24 -0.866345 -1.4592 0
M  V30 17748 H 1745.02 -1.70478 -3.52211 0
M  V30 17749 H 1744.64 -0.0508295 -3.97568 0
M  V30 17750 N 1745.64 1.48215 -0.535727 0
M  V30 17751 C 1746.89 2.017 -0.0016958 0
M  V30 17752 C 1747.2 1.41756 1.34776 0
M  V30 17753 O 1748.4 1.86774 1.97048 0
M  V30 17754 C 1746.86 3.59869 0.0473588 0
M  V30 17755 C 1746.47 4.28798 -1.29754 0
M  V30 17756 C 1748.21 4.21179 0.529915 0
M  V30 17757 C 1746.12 5.78915 -1.20876 0
M  V30 17758 H 1745.05 0.753993 0.00313606 0
M  V30 17759 H 1747.7 1.70421 -0.680368 0
M  V30 17760 H 1746.08 3.88015 0.791229 0
M  V30 17761 H 1747.26 4.12318 -2.05743 0
M  V30 17762 H 1745.57 3.79384 -1.7163 0
M  V30 17763 H 1748.17 5.31158 0.614396 0
M  V30 17764 H 1748.51 3.86887 1.53702 0
M  V30 17765 H 1749.04 3.97484 -0.158445 0
M  V30 17766 H 1745.78 6.17792 -2.1912 0
M  V30 17767 H 1745.3 5.97792 -0.490333 0
M  V30 17768 H 1746.98 6.40684 -0.901824 0
M  V30 17769 N 1747.11 0.27113 1.5525 0
M  V30 17770 C 1748.34 -0.353138 2.04371 0
M  V30 17771 C 1748.76 -1.48978 1.14835 0
M  V30 17772 O 1748.12 -1.8071 0.146138 0
M  V30 17773 C 1748.17 -0.815425 3.51259 0
M  V30 17774 O 1747.27 -1.92302 3.6482 0
M  V30 17775 H 1746.62 -0.0736207 0.659906 0
M  V30 17776 H 1749.15 0.404266 2.00566 0
M  V30 17777 H 1749.16 -1.11224 3.92547 0
M  V30 17778 H 1747.83 0.0162079 4.15897 0
M  V30 17779 H 1746.41 -1.62904 3.35435 0
M  V30 17780 N 1748.59 -1.576 -0.00164943 0
M  V30 17781 C 1749.5 -2.11748 -1.00995 0
M  V30 17782 C 1750.52 -1.06235 -1.37805 0
M  V30 17783 O 1751.69 -1.38127 -1.4657 0
M  V30 17784 C 1748.76 -2.60869 -2.2836 0
M  V30 17785 C 1747.82 -3.80976 -1.97879 0
M  V30 17786 C 1747.05 -4.27745 -3.19171 0
M  V30 17787 O 1747.28 -3.73856 -4.30799 0
M  V30 17788 O 1746.21 -5.19917 -3.03265 0
M  V30 17789 H 1750.04 -2.98117 -0.579667 0
M  V30 17790 H 1747.62 -1.47766 -0.220375 0
M  V30 17791 H 1749.5 -2.9267 -3.03187 0
M  V30 17792 H 1748.18 -1.77598 -2.7063 0
M  V30 17793 H 1747.09 -3.54151 -1.20533 0
M  V30 17794 H 1748.42 -4.65315 -1.60447 0
M  V30 17795 N 1750.07 0.274379 -1.55193 0
M  V30 17796 C 1751.48 0.845522 -1.66457 0
M  V30 17797 C 1751.83 1.87097 -0.590684 0
M  V30 17798 O 1750.96 2.14733 0.268065 0
M  V30 17799 C 1751.55 1.54039 -3.01757 0
M  V30 17800 C 1750.11 2.05958 -3.15053 0
M  V30 17801 C 1749.26 0.901169 -2.62248 0
M  V30 17802 H 1752.21 0.0507599 -1.58619 0
M  V30 17803 H 1752.23 2.40729 -2.94669 0
M  V30 17804 H 1751.74 0.793807 -3.79895 0
M  V30 17805 H 1749.84 2.83582 -2.41686 0
M  V30 17806 H 1749.96 2.27584 -4.21595 0
M  V30 17807 H 1748.32 1.29416 -2.19371 0
M  V30 17808 H 1749.1 0.168116 -3.42888 0
M  V30 17809 N 1751.55 1.48103 0.538828 0
M  V30 17810 C 1752.46 1.64632 1.67133 0
M  V30 17811 C 1753.47 0.528917 1.65766 0
M  V30 17812 O 1754.65 0.798849 1.84879 0
M  V30 17813 C 1751.72 1.67391 3.03614 0
M  V30 17814 C 1750.78 2.90694 3.15904 0
M  V30 17815 C 1750.01 2.93311 4.45875 0
M  V30 17816 O 1750.23 2.04596 5.32444 0
M  V30 17817 O 1749.17 3.85384 4.62345 0
M  V30 17818 H 1752.99 2.60496 1.56126 0
M  V30 17819 H 1750.58 1.31401 0.710925 0
M  V30 17820 H 1752.46 1.71777 3.84799 0
M  V30 17821 H 1751.13 0.746982 3.14963 0
M  V30 17822 H 1750.04 2.91844 2.34047 0
M  V30 17823 H 1751.37 3.82742 3.09467 0
M  V30 17824 N 1753.03 -0.787016 1.36542 0
M  V30 17825 C 1754.27 -1.54728 1.311 0
M  V30 17826 C 1754.61 -1.93895 -0.108853 0
M  V30 17827 O 1753.88 -1.62896 -1.06278 0
M  V30 17828 C 1754.16 -2.82272 2.23594 0
M  V30 17829 C 1754.02 -2.49457 3.74287 0
M  V30 17830 C 1755.34 -3.84112 2.14816 0
M  V30 17831 H 1752.45 -0.561347 0.477555 0
M  V30 17832 H 1755.1 -0.904027 1.67115 0
M  V30 17833 H 1753.25 -3.37163 1.93011 0
M  V30 17834 H 1754.92 -2.00599 4.15401 0
M  V30 17835 H 1753.16 -1.82366 3.93605 0
M  V30 17836 H 1753.83 -3.40563 4.3442 0
M  V30 17837 H 1756.31 -3.38674 2.41741 0
M  V30 17838 H 1755.18 -4.71101 2.817 0
M  V30 17839 H 1755.45 -4.2725 1.13621 0
M  V30 17840 N 1754.5 -1.20861 -1.01145 0
M  V30 17841 C 1755.47 -0.963742 -2.07954 0
M  V30 17842 C 1756.47 0.0627362 -1.60678 0
M  V30 17843 O 1757.66 -0.173867 -1.7333 0
M  V30 17844 C 1754.79 -0.451977 -3.3789 0
M  V30 17845 H 1755.98 -1.91123 -2.3111 0
M  V30 17846 H 1753.54 -1.0247 -1.18024 0
M  V30 17847 H 1754.27 0.500735 -3.20411 0
M  V30 17848 H 1754.06 -1.19231 -3.73532 0
M  V30 17849 H 1755.55 -0.300308 -4.16519 0
M  V30 17850 N 1755.98 1.20536 -1.01532 0
M  V30 17851 C 1756.95 2.21495 -0.589298 0
M  V30 17852 C 1757.95 1.57167 0.339871 0
M  V30 17853 O 1759.14 1.73724 0.128736 0
M  V30 17854 C 1756.27 3.40614 0.139623 0
M  V30 17855 H 1757.46 2.607 -1.48241 0
M  V30 17856 H 1755.01 1.33977 -0.804977 0
M  V30 17857 H 1755.75 3.0691 1.04771 0
M  V30 17858 H 1755.53 3.88531 -0.52785 0
M  V30 17859 H 1757.02 4.15431 0.425083 0
M  V30 17860 N 1757.46 0.791395 1.36289 0
M  V30 17861 C 1758.69 0.376696 2.03442 0
M  V30 17862 C 1759.1 -1.00753 1.59669 0
M  V30 17863 O 1758.46 -1.64657 0.787042 0
M  V30 17864 C 1758.51 0.433074 3.58897 0
M  V30 17865 O 1758.23 1.76272 4.01073 0
M  V30 17866 C 1759.73 0.00925475 4.43299 0
M  V30 17867 H 1756.95 0.154989 0.652855 0
M  V30 17868 H 1759.5 1.07079 1.74225 0
M  V30 17869 H 1757.65 -0.212623 3.86816 0
M  V30 17870 H 1758.07 1.71492 4.95672 0
M  V30 17871 H 1759.54 0.0998386 5.5191 0
M  V30 17872 H 1760.02 -1.04362 4.26621 0
M  V30 17873 H 1760.62 0.627518 4.20645 0
M  V30 17874 N 1758.94 -1.47929 0.54358 0
M  V30 17875 C 1760.19 -2.02795 0.014488 0
M  V30 17876 C 1760.52 -1.41848 -1.32638 0
M  V30 17877 O 1759.79 -0.569099 -1.85988 0
M  V30 17878 C 1760.08 -3.5998 -0.093097 0
M  V30 17879 C 1759.93 -4.31384 1.2739 0
M  V30 17880 C 1761.25 -4.32521 -0.813251 0
M  V30 17881 H 1758.37 -0.736969 0.00673905 0
M  V30 17882 H 1761.01 -1.76507 0.703238 0
M  V30 17883 H 1759.16 -3.82508 -0.679685 0
M  V30 17884 H 1760.83 -4.20235 1.90264 0
M  V30 17885 H 1759.07 -3.9227 1.85221 0
M  V30 17886 H 1759.75 -5.39856 1.15148 0
M  V30 17887 H 1762.22 -4.14903 -0.315334 0
M  V30 17888 H 1761.1 -5.42161 -0.857456 0
M  V30 17889 H 1761.36 -4.00768 -1.86649 0
M  V30 17890 N 1760.42 -0.27936 -1.55104 0
M  V30 17891 C 1761.36 0.606268 -2.22695 0
M  V30 17892 C 1762.33 1.14646 -1.20189 0
M  V30 17893 O 1763.52 1.19498 -1.48744 0
M  V30 17894 C 1760.66 1.78256 -2.95497 0
M  V30 17895 C 1759.77 1.27582 -4.12731 0
M  V30 17896 C 1758.91 2.41425 -4.73167 0
M  V30 17897 C 1757.95 1.87775 -5.82586 0
M  V30 17898 N 1757.08 2.95108 -6.37068 0
M  V30 17899 H 1761.92 0.0232427 -2.97991 0
M  V30 17900 H 1759.46 -0.000294714 -1.471 0
M  V30 17901 H 1761.42 2.47406 -3.35925 0
M  V30 17902 H 1760.05 2.33755 -2.22617 0
M  V30 17903 H 1759.1 0.477281 -3.77394 0
M  V30 17904 H 1760.41 0.842897 -4.91627 0
M  V30 17905 H 1759.57 3.18561 -5.16337 0
M  V30 17906 H 1758.31 2.88035 -3.93557 0
M  V30 17907 H 1757.31 1.0912 -5.38862 0
M  V30 17908 H 1758.54 1.42096 -6.64067 0
M  V30 17909 H 1756.48 3.41091 -5.60351 0
M  V30 17910 H 1756.4 2.56246 -7.11248 0
M  V30 17911 H 1757.67 3.72206 -6.84896 0
M  V30 17912 N 1761.9 1.57599 -0.0067085 0
M  V30 17913 C 1763.14 1.9114 0.677733 0
M  V30 17914 C 1763.47 0.881328 1.7305 0
M  V30 17915 O 1762.75 -0.099049 1.94248 0
M  V30 17916 C 1763.03 3.35241 1.31474 0
M  V30 17917 C 1762.89 4.4897 0.273055 0
M  V30 17918 C 1764.2 3.78886 2.23905 0
M  V30 17919 H 1761.32 0.695119 0.244907 0
M  V30 17920 H 1763.97 1.89907 -0.059378 0
M  V30 17921 H 1762.12 3.36423 1.94299 0
M  V30 17922 H 1763.79 4.59924 -0.356031 0
M  V30 17923 H 1762.03 4.31915 -0.403961 0
M  V30 17924 H 1762.7 5.46772 0.757941 0
M  V30 17925 H 1765.18 3.79299 1.7109 0
M  V30 17926 H 1764.05 4.80451 2.65439 0
M  V30 17927 H 1764.31 3.13129 3.12094 0
M  V30 17928 N 1763.37 -0.266145 1.55336 0
M  V30 17929 C 1764.78 -0.836683 1.66903 0
M  V30 17930 C 1765.14 -1.86781 0.600597 0
M  V30 17931 O 1764.26 -2.14872 -0.256674 0
M  V30 17932 C 1764.86 -1.52436 3.0257 0
M  V30 17933 C 1763.41 -2.04284 3.1614 0
M  V30 17934 C 1762.56 -0.887248 2.62723 0
M  V30 17935 H 1765.51 -0.0423472 1.58643 0
M  V30 17936 H 1765.53 -2.39163 2.95941 0
M  V30 17937 H 1765.05 -0.773649 3.80311 0
M  V30 17938 H 1763.15 -2.82296 2.43187 0
M  V30 17939 H 1763.26 -2.25345 4.22796 0
M  V30 17940 H 1761.62 -1.28251 2.20054 0
M  V30 17941 H 1762.41 -0.14993 3.42972 0
M  V30 17942 N 1764.85 -1.48386 -0.530967 0
M  V30 17943 C 1765.76 -1.65516 -1.66257 0
M  V30 17944 C 1766.78 -0.5377 -1.65483 0
M  V30 17945 O 1767.95 -0.808642 -1.84453 0
M  V30 17946 C 1765.02 -1.68999 -3.02722 0
M  V30 17947 C 1764.08 -2.92365 -3.14358 0
M  V30 17948 C 1763.31 -2.95672 -4.44313 0
M  V30 17949 O 1763.54 -2.07417 -5.31352 0
M  V30 17950 O 1762.47 -3.87831 -4.60294 0
M  V30 17951 H 1766.3 -2.61321 -1.54742 0
M  V30 17952 H 1763.88 -1.31776 -0.703946 0
M  V30 17953 H 1765.76 -1.73816 -3.83883 0
M  V30 17954 H 1764.44 -0.763675 -3.14563 0
M  V30 17955 H 1763.34 -2.93081 -2.32496 0
M  V30 17956 H 1764.68 -3.84378 -3.07433 0
M  V30 17957 N 1766.33 0.779763 -1.36958 0
M  V30 17958 C 1767.58 1.53499 -1.31463 0
M  V30 17959 C 1767.9 1.94728 0.102869 0
M  V30 17960 O 1767.17 1.65688 1.0452 0
M  V30 17961 H 1765.75 0.5693 -0.483638 0
M  V30 17962 H 1768.41 0.928536 -1.7136 0
M  V30 17963 H 1767.51 2.4381 -1.94841 0
M  V30 17964 N 1767.81 1.21396 1.00503 0
M  V30 17965 C 1768.75 0.973198 2.09279 0
M  V30 17966 C 1769.72 -0.100797 1.65794 0
M  V30 17967 O 1770.91 0.0463185 1.90744 0
M  V30 17968 C 1768.05 0.543941 3.40786 0
M  V30 17969 C 1767.16 1.68737 3.97683 0
M  V30 17970 C 1766.3 1.20728 5.17299 0
M  V30 17971 C 1765.34 2.32305 5.66305 0
M  V30 17972 N 1764.47 1.8543 6.77171 0
M  V30 17973 H 1769.31 1.90441 2.29208 0
M  V30 17974 H 1766.85 0.949082 1.12387 0
M  V30 17975 H 1768.81 0.276311 4.16284 0
M  V30 17976 H 1767.44 -0.350263 3.20894 0
M  V30 17977 H 1766.49 2.06964 3.19171 0
M  V30 17978 H 1767.8 2.5271 4.30045 0
M  V30 17979 H 1766.96 0.896312 6.00043 0
M  V30 17980 H 1765.7 0.3376 4.8653 0
M  V30 17981 H 1764.7 2.64205 4.82158 0
M  V30 17982 H 1765.93 3.19769 5.99103 0
M  V30 17983 H 1763.87 1.00806 6.48208 0
M  V30 17984 H 1763.79 2.62976 7.08788 0
M  V30 17985 H 1765.06 1.57366 7.6345 0
M  V30 17986 N 1769.29 -1.19996 1.0217 0
M  V30 17987 C 1770.51 -1.94007 0.733207 0
M  V30 17988 C 1770.94 -1.74565 -0.70061 0
M  V30 17989 O 1770.29 -1.04326 -1.48276 0
M  V30 17990 C 1770.34 -3.44029 1.08057 0
M  V30 17991 O 1769.45 -4.11938 0.195135 0
M  V30 17992 H 1768.79 -0.605929 0.271562 0
M  V30 17993 H 1771.32 -1.5228 1.36645 0
M  V30 17994 H 1771.33 -3.94669 1.03443 0
M  V30 17995 H 1770 -3.57502 2.1252 0
M  V30 17996 H 1768.58 -3.71697 0.299246 0
M  V30 17997 N 1770.76 -0.798611 -1.35867 0
M  V30 17998 C 1771.69 -0.217751 -2.32482 0
M  V30 17999 C 1772.67 0.652374 -1.57093 0
M  V30 18000 O 1773.86 0.584297 -1.85202 0
M  V30 18001 C 1770.99 0.640925 -3.41335 0
M  V30 18002 C 1769.94 -0.130053 -4.27802 0
M  V30 18003 C 1769.27 0.849811 -5.27904 0
M  V30 18004 C 1770.57 -1.32451 -5.05227 0
M  V30 18005 H 1772.26 -1.02492 -2.81311 0
M  V30 18006 H 1769.81 -0.494302 -1.3525 0
M  V30 18007 H 1771.76 1.05729 -4.07921 0
M  V30 18008 H 1770.49 1.4809 -2.91096 0
M  V30 18009 H 1769.15 -0.5275 -3.62785 0
M  V30 18010 H 1768.79 1.68507 -4.73935 0
M  V30 18011 H 1768.49 0.338323 -5.86625 0
M  V30 18012 H 1770.02 1.26455 -5.97362 0
M  V30 18013 H 1771.43 -0.983429 -5.64802 0
M  V30 18014 H 1769.83 -1.76992 -5.73405 0
M  V30 18015 H 1770.9 -2.11522 -4.36333 0
M  V30 18016 N 1772.24 1.47639 -0.551417 0
M  V30 18017 C 1773.49 2.02784 -0.0252425 0
M  V30 18018 C 1773.82 1.42549 1.31884 0
M  V30 18019 O 1773.1 0.578954 1.85684 0
M  V30 18020 C 1773.38 3.60024 0.0740051 0
M  V30 18021 C 1773.23 4.30702 -1.29676 0
M  V30 18022 C 1774.55 4.32946 0.790302 0
M  V30 18023 H 1771.67 0.736923 -0.0106473 0
M  V30 18024 H 1774.31 1.76131 -0.712589 0
M  V30 18025 H 1772.46 3.82863 0.65939 0
M  V30 18026 H 1774.13 4.1922 -1.9249 0
M  V30 18027 H 1772.38 3.91282 -1.87299 0
M  V30 18028 H 1773.05 5.39238 -1.18009 0
M  V30 18029 H 1775.52 4.15065 0.293326 0
M  V30 18030 H 1774.4 5.42608 0.828692 0
M  V30 18031 H 1774.66 4.01752 1.84521 0
M  V30 18032 N 1773.72 0.287581 1.54954 0
M  V30 18033 C 1774.65 -0.587855 2.25979 0
M  V30 18034 C 1775.63 -1.14884 1.25442 0
M  V30 18035 O 1776.82 -1.18067 1.54188 0
M  V30 18036 C 1773.95 -1.76618 2.99037 0
M  V30 18037 C 1772.9 -1.33617 4.06609 0
M  V30 18038 C 1772.23 -2.59859 4.67309 0
M  V30 18039 C 1773.53 -0.477219 5.20115 0
M  V30 18040 H 1775.22 0.00450183 2.994 0
M  V30 18041 H 1772.77 0.00360521 1.44 0
M  V30 18042 H 1774.72 -2.38461 3.4744 0
M  V30 18043 H 1773.44 -2.38457 2.23172 0
M  V30 18044 H 1772.1 -0.74088 3.59036 0
M  V30 18045 H 1771.75 -3.19983 3.88098 0
M  V30 18046 H 1771.45 -2.31793 5.3995 0
M  V30 18047 H 1772.97 -3.22528 5.18467 0
M  V30 18048 H 1774.39 -1.00096 5.64494 0
M  V30 18049 H 1772.79 -0.290913 5.99394 0
M  V30 18050 H 1773.86 0.500993 4.82305 0
M  V30 18051 N 1775.2 -1.57593 0.0150662 0
M  V30 18052 C 1776.44 -1.91497 -0.667587 0
M  V30 18053 C 1776.78 -0.890493 -1.7258 0
M  V30 18054 O 1776.05 0.0887462 -1.94297 0
M  V30 18055 C 1776.34 -3.35934 -1.29694 0
M  V30 18056 C 1776.19 -4.49109 -0.249242 0
M  V30 18057 C 1777.51 -3.80068 -2.21893 0
M  V30 18058 H 1774.63 -0.696408 -0.241217 0
M  V30 18059 H 1777.27 -1.89873 0.0694484 0
M  V30 18060 H 1775.42 -3.37448 -1.92512 0
M  V30 18061 H 1777.09 -4.59729 0.380417 0
M  V30 18062 H 1775.33 -4.31695 0.426861 0
M  V30 18063 H 1776 -5.47166 -0.728934 0
M  V30 18064 H 1778.48 -3.80201 -1.69076 0
M  V30 18065 H 1777.36 -4.81852 -2.62887 0
M  V30 18066 H 1777.62 -3.1478 -3.10429 0
M  V30 18067 N 1776.68 0.257904 -1.55475 0
M  V30 18068 C 1778.09 0.605871 -1.47653 0
M  V30 18069 C 1778.29 1.88837 -0.703063 0
M  V30 18070 O 1777.35 2.51469 -0.227981 0
M  V30 18071 C 1778.66 0.718813 -2.91982 0
M  V30 18072 C 1780.21 0.81187 -3.02287 0
M  V30 18073 C 1780.68 0.956465 -4.47901 0
M  V30 18074 N 1782.18 1.02161 -4.51793 0
M  V30 18075 C 1782.91 1.15256 -5.61697 0
M  V30 18076 N 1782.41 1.24975 -6.81435 0
M  V30 18077 N 1784.2 1.18485 -5.4947 0
M  V30 18078 H 1776.35 -0.584154 -2.04209 0
M  V30 18079 H 1778.61 -0.200045 -0.926653 0
M  V30 18080 H 1778.32 -0.15335 -3.51366 0
M  V30 18081 H 1778.19 1.59429 -3.41851 0
M  V30 18082 H 1780.58 1.67449 -2.42991 0
M  V30 18083 H 1780.66 -0.0885307 -2.55647 0
M  V30 18084 H 1780.31 0.0984438 -5.07805 0
M  V30 18085 H 1780.24 1.87174 -4.92213 0
M  V30 18086 H 1782.73 0.958295 -3.65548 0
M  V30 18087 H 1783.04 1.34843 -7.60945 0
M  V30 18088 H 1781.38 1.21952 -6.84217 0
M  V30 18089 H 1784.58 1.10534 -4.54863 0
M  V30 18090 H 1784.75 1.28346 -6.35162 0
M  V30 18091 N 1778.15 1.48666 0.52309 0
M  V30 18092 C 1779.4 1.57267 1.28043 0
M  V30 18093 C 1779.73 0.248801 1.926 0
M  V30 18094 O 1779.01 -0.745814 1.79633 0
M  V30 18095 C 1779.29 2.71595 2.36449 0
M  V30 18096 C 1779.14 4.13708 1.76538 0
M  V30 18097 C 1780.46 2.81654 3.3817 0
M  V30 18098 H 1777.58 0.572455 0.464181 0
M  V30 18099 H 1780.22 1.80866 0.582013 0
M  V30 18100 H 1778.37 2.51604 2.9602 0
M  V30 18101 H 1780.05 4.45158 1.20964 0
M  V30 18102 H 1778.29 4.20386 1.07041 0
M  V30 18103 H 1778.96 4.89538 2.55062 0
M  V30 18104 H 1781.44 2.99784 2.88563 0
M  V30 18105 H 1780.31 3.63366 4.11408 0
M  V30 18106 H 1780.57 1.90093 3.99145 0
M  V30 18107 N 1779.63 -0.772489 1.37369 0
M  V30 18108 C 1780.56 -1.89969 1.35772 0
M  V30 18109 C 1781.54 -1.68586 0.226452 0
M  V30 18110 O 1782.73 -1.89454 0.426692 0
M  V30 18111 C 1779.86 -3.27242 1.16319 0
M  V30 18112 C 1778.81 -3.63187 2.2645 0
M  V30 18113 C 1778.14 -4.98992 1.92121 0
M  V30 18114 C 1779.44 -3.70013 3.6863 0
M  V30 18115 H 1781.13 -1.91564 2.30095 0
M  V30 18116 H 1778.68 -0.920241 1.10759 0
M  V30 18117 H 1780.63 -4.05734 1.13832 0
M  V30 18118 H 1779.36 -3.26078 0.184513 0
M  V30 18119 H 1778.01 -2.87001 2.28091 0
M  V30 18120 H 1777.66 -4.94368 0.927848 0
M  V30 18121 H 1777.36 -5.24012 2.65867 0
M  V30 18122 H 1778.89 -5.79886 1.91219 0
M  V30 18123 H 1780.3 -4.38659 3.69122 0
M  V30 18124 H 1778.7 -4.06529 4.41423 0
M  V30 18125 H 1779.77 -2.70694 4.02309 0
M  V30 18126 N 1781.11 -1.21927 -0.998575 0
M  V30 18127 C 1782.36 -1.04194 -1.73987 0
M  V30 18128 C 1782.69 0.4227 -1.89544 0
M  V30 18129 O 1781.96 1.31353 -1.43446 0
M  V30 18130 C 1782.25 -1.74717 -3.14874 0
M  V30 18131 C 1782.1 -3.28741 -3.07001 0
M  V30 18132 C 1783.42 -1.49495 -4.13931 0
M  V30 18133 H 1780.54 -0.379918 -0.631531 0
M  V30 18134 H 1783.18 -1.5019 -1.16374 0
M  V30 18135 H 1781.33 -1.35615 -3.64062 0
M  V30 18136 H 1783 -3.77252 -2.65478 0
M  V30 18137 H 1781.25 -3.58711 -2.43944 0
M  V30 18138 H 1781.92 -3.73258 -4.06672 0
M  V30 18139 H 1784.39 -1.83451 -3.73477 0
M  V30 18140 H 1783.27 -2.01344 -5.10639 0
M  V30 18141 H 1783.53 -0.426324 -4.4004 0
M  V30 18142 N 1782.59 1.19452 -1.02805 0
M  V30 18143 C 1783.83 1.89394 -0.725101 0
M  V30 18144 C 1784.17 1.79368 0.744361 0
M  V30 18145 O 1783.44 1.18548 1.54196 0
M  V30 18146 C 1783.73 3.40361 -1.17586 0
M  V30 18147 C 1783.58 3.59263 -2.70648 0
M  V30 18148 C 1784.9 4.33558 -0.756011 0
M  V30 18149 H 1782.02 0.687753 -0.264887 0
M  V30 18150 H 1784.66 1.40611 -1.27783 0
M  V30 18151 H 1782.81 3.82038 -0.70561 0
M  V30 18152 H 1784.48 3.26762 -3.25614 0
M  V30 18153 H 1782.72 3.02344 -3.1108 0
M  V30 18154 H 1783.39 4.65135 -2.97244 0
M  V30 18155 H 1785.87 3.9959 -1.16046 0
M  V30 18156 H 1784.75 5.37779 -1.09931 0
M  V30 18157 H 1785.01 4.40778 0.341677 0
M  V30 18158 N 1784.07 0.805805 1.35442 0
M  V30 18159 C 1785.48 0.446863 1.81273 0
M  V30 18160 C 1785.83 -1.03104 1.66925 0
M  V30 18161 O 1784.95 -1.80117 1.19945 0
M  V30 18162 C 1785.55 0.80433 3.29114 0
M  V30 18163 C 1784.11 0.497997 3.73091 0
M  V30 18164 C 1783.25 1.03035 2.57447 0
M  V30 18165 H 1786.21 0.997517 1.23431 0
M  V30 18166 H 1786.23 0.101559 3.80364 0
M  V30 18167 H 1785.74 1.88001 3.39525 0
M  V30 18168 H 1783.84 -0.568982 3.6823 0
M  V30 18169 H 1783.95 1.03008 4.67896 0
M  V30 18170 H 1782.32 0.452716 2.50644 0
M  V30 18171 H 1783.1 2.11213 2.70636 0
M  V30 18172 N 1785.54 -1.47344 0.559239 0
M  V30 18173 C 1786.51 -2.28516 -0.17688 0
M  V30 18174 C 1787.51 -1.37065 -0.840823 0
M  V30 18175 O 1788.7 -1.59676 -0.696373 0
M  V30 18176 C 1785.83 -3.16803 -1.25892 0
M  V30 18177 H 1787.02 -2.95068 0.536174 0
M  V30 18178 H 1784.58 -1.53067 0.316263 0
M  V30 18179 H 1785.31 -2.54947 -2.00431 0
M  V30 18180 H 1785.1 -3.84108 -0.787625 0
M  V30 18181 H 1786.59 -3.77958 -1.77589 0
M  V30 18182 N 1787.02 -0.295795 -1.54799 0
M  V30 18183 C 1787.93 0.592206 -2.27002 0
M  V30 18184 C 1788.95 1.1528 -1.30332 0
M  V30 18185 O 1790.12 1.1787 -1.63305 0
M  V30 18186 C 1787.19 1.75027 -2.99277 0
M  V30 18187 C 1786.25 1.22427 -4.11473 0
M  V30 18188 C 1785.48 2.32714 -4.80291 0
M  V30 18189 O 1785.71 3.52506 -4.48437 0
M  V30 18190 O 1784.64 1.997 -5.67806 0
M  V30 18191 H 1788.47 0.00666048 -3.03699 0
M  V30 18192 H 1786.05 -0.0624413 -1.49269 0
M  V30 18193 H 1787.93 2.42508 -3.44627 0
M  V30 18194 H 1786.61 2.32252 -2.25479 0
M  V30 18195 H 1785.52 0.515337 -3.70534 0
M  V30 18196 H 1786.85 0.697518 -4.87233 0
M  V30 18197 N 1788.5 1.57583 -0.0234236 0
M  V30 18198 C 1789.45 2.11023 0.978379 0
M  V30 18199 C 1790.44 1.03548 1.34067 0
M  V30 18200 O 1791.65 1.2199 1.32357 0
M  V30 18201 H 1788.02 0.674119 0.333267 0
M  V30 18202 H 1790 2.94142 0.502301 0
M  V30 18203 C 1788.74 2.64782 2.25358 0
M  V30 18204 H 1788.07 3.47125 1.98353 0
M  V30 18205 H 1789.51 3.05826 2.93678 0
M  V30 18206 C 1787.97 1.57262 2.97943 0
M  V30 18207 O 1788.5 0.969124 3.89834 0
M  V30 18208 N 1786.7 1.29443 2.60178 0
M  V30 18209 H 1786.25 1.78706 1.85532 0
M  V30 18210 H 1786.21 0.577276 3.09055 0
M  V30 18211 N 1789.98 -0.249655 1.5561 0
M  V30 18212 C 1791.21 -0.994263 1.81102 0
M  V30 18213 C 1791.62 -1.79553 0.596445 0
M  V30 18214 O 1790.96 -1.78246 -0.4443 0
M  V30 18215 C 1791.02 -1.9824 2.99902 0
M  V30 18216 C 1790.69 -1.36833 4.36034 0
M  V30 18217 C 1791.68 -0.772202 5.14133 0
M  V30 18218 C 1789.37 -1.38852 4.82727 0
M  V30 18219 C 1791.36 -0.204446 6.37072 0
M  V30 18220 C 1789.05 -0.816913 6.05615 0
M  V30 18221 C 1790.05 -0.225898 6.82626 0
M  V30 18222 O 1789.74 0.336892 8.03194 0
M  V30 18223 H 1789.47 -0.298339 0.606605 0
M  V30 18224 H 1792.02 -0.278647 2.03501 0
M  V30 18225 H 1790.25 -2.73625 2.73252 0
M  V30 18226 H 1791.94 -2.59021 3.12511 0
M  V30 18227 H 1792.71 -0.749129 4.7918 0
M  V30 18228 H 1788.59 -1.83793 4.22778 0
M  V30 18229 H 1792.13 0.257492 6.97125 0
M  V30 18230 H 1788.03 -0.837303 6.40046 0
M  V30 18231 H 1788.79 0.228492 8.18181 0
M  V30 18232 N 1791.46 -1.48941 -0.515198 0
M  V30 18233 C 1792.73 -1.48205 -1.27651 0
M  V30 18234 C 1793.11 -0.201866 -2.10133 0
M  V30 18235 O 1792.46 0.816115 -2.13429 0
M  V30 18236 C 1792.67 -2.75274 -2.14535 0
M  V30 18237 C 1794.02 -3.24198 -2.74192 0
M  V30 18238 O 1795.04 -2.76293 -2.24813 0
M  V30 18239 O 1793.9 -4.07593 -3.64047 0
M  V30 18240 H 1791 -0.592546 -0.576904 0
M  V30 18241 H 1793.54 -1.6119 -0.530636 0
M  V30 18242 H 1792.32 -3.59949 -1.53469 0
M  V30 18243 H 1791.94 -2.6508 -2.96342 0
M  V30 18244 N 1792.94 0.765193 -1.37777 0
M  V30 18245 C 1794.17 1.5521 -1.36358 0
M  V30 18246 C 1794.57 1.8913 0.0514021 0
M  V30 18247 O 1793.92 1.52422 1.02535 0
M  V30 18248 C 1793.98 2.88605 -2.14354 0
M  V30 18249 C 1793.64 2.77286 -3.63265 0
M  V30 18250 C 1794.64 2.47869 -4.57009 0
M  V30 18251 C 1792.32 2.95102 -4.06473 0
M  V30 18252 C 1794.32 2.36406 -5.91938 0
M  V30 18253 C 1792.01 2.83259 -5.41486 0
M  V30 18254 C 1793 2.53952 -6.34032 0
M  V30 18255 O 1792.69 2.42148 -7.66564 0
M  V30 18256 H 1792.42 0.487266 -0.468559 0
M  V30 18257 H 1794.98 0.955716 -1.81811 0
M  V30 18258 H 1793.21 3.50388 -1.636 0
M  V30 18259 H 1794.9 3.50043 -2.05486 0
M  V30 18260 H 1795.66 2.33784 -4.24936 0
M  V30 18261 H 1791.54 3.16913 -3.34794 0
M  V30 18262 H 1795.09 2.13452 -6.64142 0
M  V30 18263 H 1790.98 2.96914 -5.7316 0
M  V30 18264 H 1791.75 2.57448 -7.76957 0
M  V30 18265 N 1794.41 1.22455 0.992094 0
M  V30 18266 C 1795.35 0.953144 2.08441 0
M  V30 18267 C 1796.36 -0.0685432 1.62656 0
M  V30 18268 O 1797.55 0.165561 1.77731 0
M  V30 18269 C 1794.65 0.412046 3.36386 0
M  V30 18270 C 1793.82 1.49114 4.11198 0
M  V30 18271 C 1792.88 0.956984 5.17425 0
M  V30 18272 O 1791.91 1.64337 5.44961 0
M  V30 18273 N 1793.11 -0.221205 5.80078 0
M  V30 18274 H 1795.87 1.89353 2.32305 0
M  V30 18275 H 1793.43 1.13155 1.15791 0
M  V30 18276 H 1795.43 0.0400033 4.0468 0
M  V30 18277 H 1794 -0.433473 3.0958 0
M  V30 18278 H 1793.22 2.03647 3.37523 0
M  V30 18279 H 1794.5 2.21716 4.57951 0
M  V30 18280 H 1793.9 -0.795642 5.60077 0
M  V30 18281 H 1792.46 -0.534625 6.49604 0
M  V30 18282 N 1795.89 -1.18905 1.03437 0
M  V30 18283 C 1797.14 -1.88055 0.729268 0
M  V30 18284 C 1797.45 -1.80833 -0.745564 0
M  V30 18285 O 1798.66 -2.45285 -1.16393 0
M  V30 18286 C 1797.12 -3.37341 1.25415 0
M  V30 18287 C 1796.72 -3.53107 2.75716 0
M  V30 18288 C 1798.47 -4.11932 1.02529 0
M  V30 18289 C 1796.37 -4.96317 3.21595 0
M  V30 18290 H 1795.3 -0.704345 0.269098 0
M  V30 18291 H 1797.96 -1.34397 1.24938 0
M  V30 18292 H 1796.34 -3.90429 0.661925 0
M  V30 18293 H 1797.51 -3.10322 3.40642 0
M  V30 18294 H 1795.83 -2.91913 2.96944 0
M  V30 18295 H 1798.42 -5.17552 1.34328 0
M  V30 18296 H 1798.77 -4.16283 -0.0377114 0
M  V30 18297 H 1799.3 -3.64998 1.5818 0
M  V30 18298 H 1796.04 -4.97131 4.27248 0
M  V30 18299 H 1795.56 -5.39842 2.61401 0
M  V30 18300 H 1797.24 -5.65 3.15253 0
M  V30 18301 N 1797.37 -0.812977 -1.35013 0
M  V30 18302 C 1798.3 -0.242397 -2.32238 0
M  V30 18303 C 1799.28 0.635676 -1.57776 0
M  V30 18304 O 1800.47 0.564621 -1.85811 0
M  V30 18305 C 1797.6 0.604686 -3.41995 0
M  V30 18306 C 1796.55 -0.17542 -4.2764 0
M  V30 18307 C 1795.88 0.793772 -5.28775 0
M  V30 18308 C 1797.18 -1.37802 -5.03794 0
M  V30 18309 H 1798.87 -1.0547 -2.80208 0
M  V30 18310 H 1796.42 -0.508619 -1.34718 0
M  V30 18311 H 1798.37 1.01396 -4.09019 0
M  V30 18312 H 1797.09 1.44994 -2.9265 0
M  V30 18313 H 1795.75 -0.565948 -3.62205 0
M  V30 18314 H 1795.4 1.63471 -4.75696 0
M  V30 18315 H 1795.1 0.276085 -5.86951 0
M  V30 18316 H 1796.62 1.20112 -5.9867 0
M  V30 18317 H 1798.04 -1.04328 -5.63727 0
M  V30 18318 H 1796.43 -1.83064 -5.71496 0
M  V30 18319 H 1797.5 -2.16138 -4.34065 0
M  V30 18320 N 1798.85 1.47045 -0.567045 0
M  V30 18321 C 1799.8 2.27158 0.195716 0
M  V30 18322 C 1800.78 1.34943 0.876307 0
M  V30 18323 O 1801.97 1.59229 0.772989 0
M  V30 18324 C 1799.1 3.20936 1.21882 0
M  V30 18325 C 1798.19 4.20633 0.54114 0
M  V30 18326 N 1798.58 5.0426 -0.394396 0
M  V30 18327 C 1796.88 4.38878 0.793847 0
M  V30 18328 C 1797.58 5.76324 -0.788986 0
M  V30 18329 N 1796.55 5.43416 -0.141613 0
M  V30 18330 H 1800.36 2.89201 -0.523432 0
M  V30 18331 H 1797.87 1.57705 -0.387691 0
M  V30 18332 H 1799.87 3.77023 1.77931 0
M  V30 18333 H 1798.53 2.60451 1.93895 0
M  V30 18334 H 1799.54 5.12158 -0.769095 0
M  V30 18335 H 1796.22 3.89556 1.50175 0
M  V30 18336 H 1797.61 6.5358 -1.55829 0
M  V30 18337 N 1800.33 0.304 1.5464 0
M  V30 18338 C 1801.27 -0.570762 2.23631 0
M  V30 18339 C 1802.24 -1.1272 1.21998 0
M  V30 18340 O 1803.43 -1.17117 1.50626 0
M  V30 18341 C 1800.57 -1.73533 2.98296 0
M  V30 18342 C 1799.68 -1.21 4.14708 0
M  V30 18343 C 1798.82 -2.33867 4.76948 0
M  V30 18344 C 1797.85 -1.78483 5.855 0
M  V30 18345 N 1796.99 -2.84935 6.41682 0
M  V30 18346 H 1801.83 0.024168 2.9799 0
M  V30 18347 H 1799.37 0.023697 1.47081 0
M  V30 18348 H 1801.33 -2.42031 3.39819 0
M  V30 18349 H 1799.96 -2.30184 2.26308 0
M  V30 18350 H 1799.01 -0.41718 3.78105 0
M  V30 18351 H 1800.32 -0.764576 4.92905 0
M  V30 18352 H 1799.47 -3.10306 5.21339 0
M  V30 18353 H 1798.21 -2.81737 3.9809 0
M  V30 18354 H 1797.22 -1.00534 5.4053 0
M  V30 18355 H 1798.44 -1.31513 6.66244 0
M  V30 18356 H 1796.39 -3.32133 5.65706 0
M  V30 18357 H 1796.31 -2.44898 7.15235 0
M  V30 18358 H 1797.57 -3.61263 6.90731 0
M  V30 18359 N 1801.8 -1.57568 0.0317802 0
M  V30 18360 C 1802.75 -2.10379 -0.949183 0
M  V30 18361 C 1803.72 -1.00649 -1.32133 0
M  V30 18362 O 1804.91 -1.28084 -1.41418 0
M  V30 18363 C 1802.05 -2.63762 -2.22539 0
M  V30 18364 C 1801.16 -3.87509 -1.90946 0
M  V30 18365 C 1800.29 -4.29276 -3.12882 0
M  V30 18366 C 1799.33 -5.45775 -2.77121 0
M  V30 18367 N 1798.47 -5.82686 -3.9169 0
M  V30 18368 H 1803.31 -2.93912 -0.491922 0
M  V30 18369 H 1800.85 -1.45272 -0.23121 0
M  V30 18370 H 1802.8 -2.92803 -2.9719 0
M  V30 18371 H 1801.43 -1.83055 -2.65877 0
M  V30 18372 H 1800.49 -3.6518 -1.06526 0
M  V30 18373 H 1801.8 -4.72235 -1.6061 0
M  V30 18374 H 1800.95 -4.59768 -3.95851 0
M  V30 18375 H 1799.69 -3.43323 -3.46382 0
M  V30 18376 H 1798.7 -5.14974 -1.92565 0
M  V30 18377 H 1799.92 -6.3343 -2.44834 0
M  V30 18378 H 1797.87 -4.99688 -4.25027 0
M  V30 18379 H 1797.78 -6.62058 -3.64986 0
M  V30 18380 H 1799.05 -6.17785 -4.75355 0
M  V30 18381 N 1803.28 0.241399 -1.5574 0
M  V30 18382 C 1804.51 0.99028 -1.82231 0
M  V30 18383 C 1804.93 1.77949 -0.609559 0
M  V30 18384 O 1804.29 1.75843 0.44148 0
M  V30 18385 C 1804.34 1.89947 -3.06516 0
M  V30 18386 O 1803.44 2.99201 -2.83818 0
M  V30 18387 H 1802.78 0.281488 -0.601382 0
M  V30 18388 H 1805.31 0.260721 -2.02932 0
M  V30 18389 H 1805.32 2.31308 -3.36096 0
M  V30 18390 H 1804 1.31924 -3.94422 0
M  V30 18391 H 1802.58 2.61929 -2.6542 0
M  V30 18392 N 1804.76 1.49212 0.507292 0
M  V30 18393 C 1805.69 1.60013 1.62699 0
M  V30 18394 C 1806.67 0.449472 1.56264 0
M  V30 18395 O 1807.86 0.66417 1.76412 0
M  V30 18396 C 1804.98 1.54923 3.01192 0
M  V30 18397 C 1804.03 2.7511 3.2591 0
M  V30 18398 S 1804.86 4.3685 3.09714 0
M  V30 18399 C 1806.02 4.34395 4.50613 0
M  V30 18400 H 1806.25 2.54733 1.53291 0
M  V30 18401 H 1803.78 1.38025 0.69198 0
M  V30 18402 H 1805.74 1.52673 3.81053 0
M  V30 18403 H 1804.4 0.615015 3.0802 0
M  V30 18404 H 1803.6 2.6775 4.26996 0
M  V30 18405 H 1803.2 2.7474 2.5376 0
M  V30 18406 H 1805.49 4.05727 5.42579 0
M  V30 18407 H 1806.43 5.35738 4.63023 0
M  V30 18408 H 1806.84 3.64556 4.30998 0
M  V30 18409 N 1806.24 -0.757876 1.38181 0
M  V30 18410 C 1807.52 -1.50715 1.24677 0
M  V30 18411 C 1807.9 -2.1054 -0.153689 0
M  V30 18412 O 1807.24 -1.96703 -1.16276 0
M  V30 18413 C 1807.45 -2.57695 2.3536 0
M  V30 18414 C 1808.8 -3.24716 2.73578 0
M  V30 18415 O 1809.83 -2.67997 2.3464 0
M  V30 18416 O 1808.68 -4.27294 3.40709 0
M  V30 18417 H 1805.78 -0.668175 0.487311 0
M  V30 18418 H 1808.32 -0.793653 1.49997 0
M  V30 18419 H 1807.1 -2.11706 3.29084 0
M  V30 18420 H 1806.72 -3.36629 2.11581 0
M  V30 18421 N 1807.72 -1.22979 -0.985586 0
M  V30 18422 C 1808.66 -1.00637 -2.07704 0
M  V30 18423 C 1809.63 0.0744076 -1.65933 0
M  V30 18424 O 1810.82 -0.0766583 -1.90646 0
M  V30 18425 C 1807.96 -0.598088 -3.39878 0
M  V30 18426 C 1807.07 -1.75043 -3.94948 0
M  V30 18427 C 1806.21 -1.28943 -5.15313 0
M  V30 18428 C 1805.25 -2.41285 -5.62537 0
M  V30 18429 N 1804.38 -1.9618 -6.74135 0
M  V30 18430 H 1809.22 -1.94063 -2.26149 0
M  V30 18431 H 1806.76 -0.966841 -1.10863 0
M  V30 18432 H 1808.72 -0.342503 -4.15792 0
M  V30 18433 H 1807.35 0.299167 -3.21411 0
M  V30 18434 H 1806.4 -2.12015 -3.15838 0
M  V30 18435 H 1807.71 -2.5952 -4.25971 0
M  V30 18436 H 1806.87 -0.99166 -5.98541 0
M  V30 18437 H 1805.6 -0.41496 -4.85931 0
M  V30 18438 H 1804.61 -2.71842 -4.77893 0
M  V30 18439 H 1805.83 -3.2926 -5.9394 0
M  V30 18440 H 1803.78 -1.11105 -6.46523 0
M  V30 18441 H 1803.7 -2.74219 -7.04514 0
M  V30 18442 H 1804.97 -1.69492 -7.6085 0
M  V30 18443 N 1809.19 1.18355 -1.04066 0
M  V30 18444 C 1810.42 1.92816 -0.763979 0
M  V30 18445 C 1810.84 1.75658 0.672749 0
M  V30 18446 O 1810.2 1.06671 1.46598 0
M  V30 18447 C 1810.25 3.42267 -1.13516 0
M  V30 18448 O 1809.35 4.11576 -0.260646 0
M  V30 18449 H 1808.7 0.601532 -0.281167 0
M  V30 18450 H 1811.23 1.50087 -1.3905 0
M  V30 18451 H 1811.24 3.92973 -1.09709 0
M  V30 18452 H 1809.91 3.54076 -2.18181 0
M  V30 18453 H 1808.49 3.71174 -0.358342 0
M  V30 18454 N 1810.67 0.820125 1.3458 0
M  V30 18455 C 1811.6 0.254709 2.32107 0
M  V30 18456 C 1812.58 -0.6273 1.58111 0
M  V30 18457 O 1813.77 -0.554759 1.86108 0
M  V30 18458 C 1810.9 -0.586541 3.42311 0
M  V30 18459 C 1809.85 0.198096 4.27541 0
M  V30 18460 C 1809.18 -0.765718 5.29189 0
M  V30 18461 C 1810.48 1.40472 5.03056 0
M  V30 18462 H 1812.17 1.06955 2.79644 0
M  V30 18463 H 1809.72 0.515756 1.34447 0
M  V30 18464 H 1811.67 -0.992259 4.09551 0
M  V30 18465 H 1810.4 -1.4344 2.93415 0
M  V30 18466 H 1809.05 0.585149 3.619 0
M  V30 18467 H 1808.7 -1.60946 4.76556 0
M  V30 18468 H 1808.4 -0.244954 5.87089 0
M  V30 18469 H 1809.93 -1.16935 5.99298 0
M  V30 18470 H 1811.34 1.07316 5.63166 0
M  V30 18471 H 1809.74 1.86092 5.70517 0
M  V30 18472 H 1810.81 2.18437 4.32913 0
M  V30 18473 N 1812.15 -1.46743 0.574835 0
M  V30 18474 C 1813.06 -2.34015 -0.16559 0
M  V30 18475 C 1814.08 -1.49273 -0.894064 0
M  V30 18476 O 1815.25 -1.82162 -0.859013 0
M  V30 18477 C 1812.32 -3.26313 -1.17136 0
M  V30 18478 C 1811.38 -4.26952 -0.448413 0
M  V30 18479 C 1810.61 -5.1484 -1.40627 0
M  V30 18480 O 1810.83 -5.05508 -2.6423 0
M  V30 18481 O 1809.77 -5.9481 -0.921143 0
M  V30 18482 H 1813.59 -2.98664 0.550754 0
M  V30 18483 H 1811.18 -1.45589 0.335297 0
M  V30 18484 H 1813.06 -3.83276 -1.75149 0
M  V30 18485 H 1811.74 -2.64269 -1.86931 0
M  V30 18486 H 1810.64 -3.73698 0.17336 0
M  V30 18487 H 1811.98 -4.91759 0.208419 0
M  V30 18488 N 1813.63 -0.312197 -1.54477 0
M  V30 18489 C 1814.88 0.293772 -2.00358 0
M  V30 18490 C 1815.2 1.5303 -1.2005 0
M  V30 18491 O 1814.46 1.93861 -0.267678 0
M  V30 18492 C 1814.76 0.684057 -3.50793 0
M  V30 18493 C 1814.42 -0.452004 -4.48629 0
M  V30 18494 C 1813.09 -0.763853 -4.75099 0
M  V30 18495 C 1815.44 -1.21567 -5.06824 0
M  V30 18496 C 1812.77 -1.84229 -5.57025 0
M  V30 18497 C 1815.12 -2.28412 -5.89924 0
M  V30 18498 C 1813.78 -2.60191 -6.14701 0
M  V30 18499 H 1813.05 0.107499 -0.733161 0
M  V30 18500 H 1815.7 -0.433618 -1.86526 0
M  V30 18501 H 1814 1.4917 -3.62292 0
M  V30 18502 H 1815.7 1.16428 -3.83726 0
M  V30 18503 H 1812.29 -0.198857 -4.28138 0
M  V30 18504 H 1816.47 -0.988007 -4.86366 0
M  V30 18505 H 1811.73 -2.09311 -5.74455 0
M  V30 18506 H 1815.9 -2.88037 -6.34041 0
M  V30 18507 H 1813.53 -3.43887 -6.77972 0
M  V30 18508 N 1815.11 1.57549 -0.040136 0
M  V30 18509 C 1816.36 1.91427 0.635496 0
M  V30 18510 C 1816.67 0.919277 1.72652 0
M  V30 18511 O 1817.87 1.14971 2.45955 0
M  V30 18512 C 1816.33 3.39949 1.18164 0
M  V30 18513 C 1815.94 4.4783 0.12332 0
M  V30 18514 C 1817.68 3.82878 1.83315 0
M  V30 18515 C 1815.59 5.87458 0.681727 0
M  V30 18516 H 1814.52 0.714401 0.241138 0
M  V30 18517 H 1817.17 1.83186 -0.107231 0
M  V30 18518 H 1815.55 3.43157 1.97633 0
M  V30 18519 H 1816.73 4.56197 -0.64972 0
M  V30 18520 H 1815.04 4.14173 -0.43008 0
M  V30 18521 H 1817.64 4.84558 2.2607 0
M  V30 18522 H 1817.98 3.1853 2.68038 0
M  V30 18523 H 1818.51 3.82139 1.10519 0
M  V30 18524 H 1815.25 6.55376 -0.127616 0
M  V30 18525 H 1814.77 5.82675 1.423 0
M  V30 18526 H 1816.45 6.36369 1.16806 0
M  V30 18527 N 1816.58 -0.233136 1.55866 0
M  V30 18528 C 1817.81 -0.976415 1.82411 0
M  V30 18529 C 1818.23 -1.78409 0.617724 0
M  V30 18530 O 1817.58 -1.77749 -0.413709 0
M  V30 18531 C 1817.64 -1.90328 3.07339 0
M  V30 18532 O 1817.36 -1.12828 4.23322 0
M  V30 18533 C 1818.86 -2.76142 3.46786 0
M  V30 18534 H 1816.08 -0.2867 0.606666 0
M  V30 18535 H 1818.62 -0.251863 2.02943 0
M  V30 18536 H 1816.78 -2.58193 2.88816 0
M  V30 18537 H 1817.19 -1.75643 4.94216 0
M  V30 18538 H 1818.66 -3.36901 4.37266 0
M  V30 18539 H 1819.14 -3.47953 2.68003 0
M  V30 18540 H 1819.75 -2.13708 3.67708 0
M  V30 18541 N 1818.06 -1.49479 -0.499372 0
M  V30 18542 C 1819.01 -1.66756 -1.62158 0
M  V30 18543 C 1820.01 -0.533485 -1.6078 0
M  V30 18544 O 1821.21 -0.713167 -1.65269 0
M  V30 18545 H 1817.59 -0.525853 -0.537571 0
M  V30 18546 H 1819.56 -2.60947 -1.44738 0
M  V30 18547 C 1818.31 -1.75287 -3.00283 0
M  V30 18548 H 1817.63 -2.61928 -3.02049 0
M  V30 18549 H 1819.07 -1.91411 -3.78336 0
M  V30 18550 C 1817.53 -0.498056 -3.33198 0
M  V30 18551 O 1818.06 0.375528 -3.99941 0
M  V30 18552 N 1816.26 -0.360513 -2.88355 0
M  V30 18553 H 1815.81 -1.0724 -2.34216 0
M  V30 18554 H 1815.77 0.477981 -3.10745 0
M  V30 18555 N 1819.54 0.750537 -1.38581 0
M  V30 18556 C 1820.78 1.52254 -1.36374 0
M  V30 18557 C 1821.15 1.91947 0.0452405 0
M  V30 18558 O 1822.35 2.68112 0.192202 0
M  V30 18559 C 1820.62 2.73944 -2.29542 0
M  V30 18560 S 1822.18 3.63776 -2.45382 0
M  V30 18561 H 1818.99 0.520989 -0.48383 0
M  V30 18562 H 1821.6 0.88079 -1.74535 0
M  V30 18563 H 1820.3 2.42898 -3.308 0
M  V30 18564 H 1819.83 3.43062 -1.92541 0
M  V30 18565 H 1821.85 4.66889 -1.68016 0
M  V30 18566 N 1821.02 1.235 0.979051 0
M  V30 18567 C 1822.27 1.0658 1.71713 0
M  V30 18568 C 1822.59 -0.397927 1.90897 0
M  V30 18569 O 1821.86 -1.28511 1.47857 0
M  V30 18570 H 1820.44 0.391397 0.636253 0
M  V30 18571 H 1823.1 1.55239 1.17843 0
M  V30 18572 H 1822.2 1.5548 2.70615 0
M  V30 18573 N 1822.5 -1.17802 1.04693 0
M  V30 18574 C 1823.44 -2.21648 0.643478 0
M  V30 18575 C 1824.41 -1.6233 -0.351858 0
M  V30 18576 O 1825.6 -1.89228 -0.244414 0
M  V30 18577 C 1822.74 -3.45095 0.019145 0
M  V30 18578 C 1821.85 -4.18725 1.06271 0
M  V30 18579 C 1820.99 -5.29644 0.406224 0
M  V30 18580 C 1820.03 -5.95055 1.43444 0
M  V30 18581 N 1819.16 -6.97499 0.802482 0
M  V30 18582 H 1824 -2.55513 1.53352 0
M  V30 18583 H 1821.54 -1.25518 0.767051 0
M  V30 18584 H 1823.5 -4.15642 -0.36023 0
M  V30 18585 H 1822.13 -3.1183 -0.834386 0
M  V30 18586 H 1821.18 -3.46943 1.55996 0
M  V30 18587 H 1822.49 -4.63486 1.84342 0
M  V30 18588 H 1821.65 -6.06694 -0.027012 0
M  V30 18589 H 1820.39 -4.86003 -0.406525 0
M  V30 18590 H 1819.39 -5.1674 1.87775 0
M  V30 18591 H 1820.62 -6.40778 2.249 0
M  V30 18592 H 1818.56 -6.55999 0.010153 0
M  V30 18593 H 1818.48 -7.40545 1.52081 0
M  V30 18594 H 1819.75 -7.78504 0.393852 0
M  V30 18595 N 1823.98 -0.827251 -1.34143 0
M  V30 18596 C 1824.92 -0.240552 -2.31353 0
M  V30 18597 C 1825.92 0.62109 -1.57603 0
M  V30 18598 O 1827.12 0.511947 -1.72566 0
M  V30 18599 H 1823.5 -0.0590494 -0.749678 0
M  V30 18600 H 1825.47 -1.07518 -2.78357 0
M  V30 18601 C 1824.22 0.579321 -3.4284 0
M  V30 18602 H 1823.54 -0.0743746 -3.99731 0
M  V30 18603 H 1824.98 0.955871 -4.13085 0
M  V30 18604 C 1823.44 1.75345 -2.87673 0
M  V30 18605 O 1823.97 2.85178 -2.82907 0
M  V30 18606 N 1822.18 1.57158 -2.44437 0
M  V30 18607 H 1821.72 0.678148 -2.48513 0
M  V30 18608 H 1821.68 2.35869 -2.07877 0
M  V30 18609 N 1825.45 1.46436 -0.582609 0
M  V30 18610 C 1826.68 2.07275 -0.0718712 0
M  V30 18611 C 1827.1 1.42851 1.22373 0
M  V30 18612 O 1826.46 0.512272 1.73912 0
M  V30 18613 C 1826.51 3.6051 0.08055 0
M  V30 18614 O 1825.61 3.96414 1.13707 0
M  V30 18615 H 1824.95 0.661027 -0.0627607 0
M  V30 18616 H 1827.48 1.88076 -0.805524 0
M  V30 18617 H 1827.49 4.06991 0.286749 0
M  V30 18618 H 1826.17 4.06792 -0.865603 0
M  V30 18619 H 1824.75 3.61643 0.909338 0
M  V30 18620 N 1826.93 0.320385 1.54309 0
M  V30 18621 C 1828.18 -0.283143 2.00511 0
M  V30 18622 C 1828.51 -1.52391 1.2086 0
M  V30 18623 O 1827.76 -1.93716 0.277955 0
M  V30 18624 C 1828.06 -0.665444 3.5115 0
M  V30 18625 C 1827.73 0.475789 4.48383 0
M  V30 18626 C 1826.39 0.789037 4.74687 0
M  V30 18627 C 1828.74 1.24253 5.06172 0
M  V30 18628 C 1826.07 1.87181 5.5604 0
M  V30 18629 C 1828.42 2.31537 5.88705 0
M  V30 18630 C 1827.08 2.63447 6.13312 0
M  V30 18631 H 1826.35 -0.103609 0.733721 0
M  V30 18632 H 1829 0.443504 1.86294 0
M  V30 18633 H 1827.31 -1.47247 3.63078 0
M  V30 18634 H 1829 -1.14391 3.84338 0
M  V30 18635 H 1825.59 0.221559 4.28027 0
M  V30 18636 H 1829.78 1.01379 4.85835 0
M  V30 18637 H 1825.03 2.12354 5.73337 0
M  V30 18638 H 1829.21 2.91395 6.32504 0
M  V30 18639 H 1826.83 3.47477 6.76139 0
M  V30 18640 N 1828.41 -1.57525 0.0484906 0
M  V30 18641 C 1829.64 -1.96611 -0.634631 0
M  V30 18642 C 1830.05 -0.924571 -1.65071 0
M  V30 18643 O 1829.39 0.0999398 -1.83428 0
M  V30 18644 C 1829.45 -3.31924 -1.38082 0
M  V30 18645 C 1829.12 -4.54022 -0.520883 0
M  V30 18646 C 1830.11 -5.19468 0.21192 0
M  V30 18647 C 1827.8 -5.00257 -0.452595 0
M  V30 18648 C 1829.79 -6.29483 1.00148 0
M  V30 18649 C 1827.48 -6.1015 0.340652 0
M  V30 18650 C 1828.48 -6.74624 1.06638 0
M  V30 18651 O 1828.17 -7.82404 1.84659 0
M  V30 18652 H 1827.9 -0.652007 -0.178503 0
M  V30 18653 H 1830.45 -2.05103 0.110397 0
M  V30 18654 H 1828.68 -3.19979 -2.17142 0
M  V30 18655 H 1830.37 -3.55777 -1.95392 0
M  V30 18656 H 1831.14 -4.84707 0.168615 0
M  V30 18657 H 1827.02 -4.49866 -1.00706 0
M  V30 18658 H 1830.56 -6.79739 1.56844 0
M  V30 18659 H 1826.46 -6.44347 0.385605 0
M  V30 18660 H 1827.22 -7.99168 1.76842 0
M  V30 18661 N 1829.89 0.224867 -1.55988 0
M  V30 18662 C 1830.82 1.28192 -1.95164 0
M  V30 18663 C 1831.8 1.49062 -0.81942 0
M  V30 18664 O 1832.98 1.61301 -1.08146 0
M  V30 18665 C 1830.11 2.63237 -2.26547 0
M  V30 18666 C 1829.07 2.57029 -3.42228 0
M  V30 18667 C 1828.39 3.96073 -3.59207 0
M  V30 18668 C 1829.69 2.12101 -4.77295 0
M  V30 18669 H 1831.39 0.956495 -2.8371 0
M  V30 18670 H 1828.93 0.458673 -1.365 0
M  V30 18671 H 1830.89 3.37341 -2.52545 0
M  V30 18672 H 1829.61 2.97461 -1.3485 0
M  V30 18673 H 1828.27 1.85382 -3.16273 0
M  V30 18674 H 1827.92 4.27599 -2.64892 0
M  V30 18675 H 1827.62 3.92802 -4.37013 0
M  V30 18676 H 1829.14 4.71844 -3.8755 0
M  V30 18677 H 1830.56 2.75946 -5.0252 0
M  V30 18678 H 1828.95 2.19895 -5.5836 0
M  V30 18679 H 1830.02 1.07319 -4.72875 0
M  V30 18680 N 1831.37 1.49742 0.491438 0
M  V30 18681 C 1832.64 1.50217 1.25277 0
M  V30 18682 C 1833.02 0.235271 2.09785 0
M  V30 18683 O 1832.37 -0.782057 2.147 0
M  V30 18684 C 1832.58 2.78652 2.10129 0
M  V30 18685 C 1833.93 3.28519 2.68999 0
M  V30 18686 O 1834.95 2.79834 2.20389 0
M  V30 18687 O 1833.81 4.13333 3.57516 0
M  V30 18688 H 1830.91 0.601649 0.567405 0
M  V30 18689 H 1833.45 1.62014 0.504924 0
M  V30 18690 H 1832.22 3.62345 1.47723 0
M  V30 18691 H 1831.85 2.69761 2.92087 0
M  V30 18692 N 1832.84 -0.743177 1.38977 0
M  V30 18693 C 1834.26 -1.32104 1.3193 0
M  V30 18694 C 1834.61 -1.9619 -0.0201331 0
M  V30 18695 O 1833.73 -1.95764 -0.922245 0
M  V30 18696 C 1834.33 -2.40204 2.3893 0
M  V30 18697 C 1832.89 -2.93684 2.35428 0
M  V30 18698 C 1832.03 -1.67168 2.21247 0
M  V30 18699 H 1834.98 -0.541283 1.49184 0
M  V30 18700 H 1835 -3.20397 2.05246 0
M  V30 18701 H 1834.52 -1.93532 3.36403 0
M  V30 18702 H 1832.62 -3.44658 1.41568 0
M  V30 18703 H 1832.73 -3.47355 3.29971 0
M  V30 18704 H 1831.09 -1.91193 1.68278 0
M  V30 18705 H 1831.88 -1.22559 3.20678 0
M  V30 18706 N 1834.32 -1.24018 -0.972487 0
M  V30 18707 C 1835.25 -0.986185 -2.06899 0
M  V30 18708 C 1836.27 0.0426574 -1.62744 0
M  V30 18709 O 1837.46 -0.193816 -1.77445 0
M  V30 18710 C 1834.56 -0.46551 -3.35688 0
M  V30 18711 C 1833.73 -1.55637 -4.08774 0
M  V30 18712 C 1832.79 -1.03918 -5.15837 0
M  V30 18713 O 1831.81 -1.72986 -5.42277 0
M  V30 18714 N 1833.02 0.128891 -5.80357 0
M  V30 18715 H 1835.78 -1.93025 -2.29263 0
M  V30 18716 H 1833.34 -1.14983 -1.13976 0
M  V30 18717 H 1835.33 -0.104379 -4.04565 0
M  V30 18718 H 1833.9 0.384166 -3.1023 0
M  V30 18719 H 1833.12 -2.08991 -3.3424 0
M  V30 18720 H 1834.41 -2.28973 -4.54366 0
M  V30 18721 H 1833.81 0.706438 -5.61272 0
M  V30 18722 H 1832.37 0.431211 -6.50372 0
M  V30 18723 N 1835.8 1.17245 -1.05316 0
M  V30 18724 C 1837.03 1.91454 -0.78441 0
M  V30 18725 C 1837.44 1.76886 0.660053 0
M  V30 18726 O 1836.8 1.10686 1.45103 0
M  V30 18727 C 1836.85 3.42477 -1.15722 0
M  V30 18728 O 1836.57 3.56598 -2.54498 0
M  V30 18729 C 1838.07 4.33759 -0.914783 0
M  V30 18730 H 1835.29 0.607416 -0.285108 0
M  V30 18731 H 1837.84 1.48672 -1.40417 0
M  V30 18732 H 1835.99 3.83001 -0.582183 0
M  V30 18733 H 1836.41 4.50178 -2.69147 0
M  V30 18734 H 1837.88 5.38227 -1.22536 0
M  V30 18735 H 1838.36 4.38944 0.149953 0
M  V30 18736 H 1838.96 3.98951 -1.47372 0
M  V30 18737 N 1837.28 0.834353 1.33702 0
M  V30 18738 C 1838.24 0.269618 2.27609 0
M  V30 18739 C 1839.24 -0.559065 1.50768 0
M  V30 18740 O 1840.43 -0.373511 1.70149 0
M  V30 18741 C 1837.56 -0.620682 3.35202 0
M  V30 18742 H 1838.76 1.09819 2.79069 0
M  V30 18743 H 1836.31 0.607087 1.44028 0
M  V30 18744 H 1837.04 -1.47187 2.88975 0
M  V30 18745 H 1836.83 -0.0278102 3.9209 0
M  V30 18746 H 1838.32 -1.00924 4.05221 0
M  V30 18747 N 1838.76 -1.46125 0.590367 0
M  V30 18748 C 1839.98 -2.07234 0.0828625 0
M  V30 18749 C 1840.41 -1.43498 -1.21614 0
M  V30 18750 O 1839.76 -0.521488 -1.73638 0
M  V30 18751 C 1839.81 -3.60548 -0.0614302 0
M  V30 18752 O 1838.92 -3.97012 -1.11603 0
M  V30 18753 H 1838.26 -0.660685 0.0662654 0
M  V30 18754 H 1840.79 -1.87646 0.815486 0
M  V30 18755 H 1840.8 -4.07137 -0.265161 0
M  V30 18756 H 1839.47 -4.06328 0.887164 0
M  V30 18757 H 1838.05 -3.6212 -0.890146 0
M  V30 18758 N 1840.23 -0.328564 -1.54137 0
M  V30 18759 C 1841.65 0.0239073 -1.59582 0
M  V30 18760 C 1841.85 1.50043 -1.34497 0
M  V30 18761 O 1840.91 2.25711 -1.13185 0
M  V30 18762 C 1842.22 -0.398812 -2.98044 0
M  V30 18763 C 1843.77 -0.34989 -3.11038 0
M  V30 18764 C 1844.24 -0.747848 -4.51853 0
M  V30 18765 N 1845.73 -0.701447 -4.57858 0
M  V30 18766 C 1846.47 -0.981505 -5.64937 0
M  V30 18767 N 1845.96 -1.32895 -6.79934 0
M  V30 18768 N 1847.76 -0.906735 -5.54738 0
M  V30 18769 H 1839.91 -1.29052 -1.68699 0
M  V30 18770 H 1842.17 -0.52508 -0.7893 0
M  V30 18771 H 1841.88 -1.42773 -3.21417 0
M  V30 18772 H 1841.75 0.233639 -3.76476 0
M  V30 18773 H 1844.14 0.669831 -2.87397 0
M  V30 18774 H 1844.22 -1.01734 -2.34699 0
M  V30 18775 H 1843.86 -1.76551 -4.76227 0
M  V30 18776 H 1843.79 -0.0580299 -5.26568 0
M  V30 18777 H 1846.28 -0.444963 -3.75271 0
M  V30 18778 H 1846.6 -1.52789 -7.57546 0
M  V30 18779 H 1844.94 -1.36726 -6.81418 0
M  V30 18780 H 1848.13 -0.634748 -4.63776 0
M  V30 18781 H 1848.31 -1.12835 -6.38101 0
M  V30 18782 N 1841.71 1.57497 -0.0568439 0
M  V30 18783 C 1842.96 1.92914 0.615668 0
M  V30 18784 C 1843.29 0.935677 1.70515 0
M  V30 18785 O 1842.54 -0.0511255 1.95633 0
M  V30 18786 C 1842.84 3.35 1.24538 0
M  V30 18787 C 1842.51 4.50008 0.283536 0
M  V30 18788 C 1841.17 4.81196 0.0188809 0
M  V30 18789 C 1843.52 5.19847 -0.375336 0
M  V30 18790 C 1840.85 5.79569 -0.911986 0
M  V30 18791 C 1843.2 6.19215 -1.29443 0
M  V30 18792 C 1841.87 6.48829 -1.5677 0
M  V30 18793 H 1841.14 0.705922 0.225289 0
M  V30 18794 H 1843.78 1.91095 -0.124533 0
M  V30 18795 H 1842.09 3.33213 2.06098 0
M  V30 18796 H 1843.78 3.59686 1.77277 0
M  V30 18797 H 1840.37 4.25674 0.499994 0
M  V30 18798 H 1844.56 4.95959 -0.183967 0
M  V30 18799 H 1839.81 6.00846 -1.13112 0
M  V30 18800 H 1843.99 6.7244 -1.811 0
M  V30 18801 H 1841.62 7.24868 -2.29063 0
M  V30 18802 N 1843.19 -0.216591 1.56105 0
M  V30 18803 C 1844.43 -0.947261 1.81125 0
M  V30 18804 C 1844.79 -1.81331 0.631108 0
M  V30 18805 O 1846 -2.57811 0.760726 0
M  V30 18806 C 1844.27 -1.75991 3.11066 0
M  V30 18807 S 1845.83 -2.54554 3.57418 0
M  V30 18808 H 1842.64 -0.318109 0.635868 0
M  V30 18809 H 1845.25 -0.212416 1.94343 0
M  V30 18810 H 1843.95 -1.1139 3.94994 0
M  V30 18811 H 1843.48 -2.53696 3.00669 0
M  V30 18812 H 1845.5 -3.78256 3.21149 0
M  V30 18813 N 1844.67 -1.5 -0.48349 0
M  V30 18814 C 1845.62 -1.67957 -1.58301 0
M  V30 18815 C 1846.59 -0.520895 -1.57721 0
M  V30 18816 O 1847.77 -0.750008 -1.75441 0
M  V30 18817 C 1844.91 -1.76832 -2.96352 0
M  V30 18818 C 1844.02 -3.04119 -3.06815 0
M  V30 18819 C 1843.16 -3.03865 -4.35706 0
M  V30 18820 C 1842.2 -4.25658 -4.39865 0
M  V30 18821 N 1841.33 -4.23214 -5.60209 0
M  V30 18822 H 1846.17 -2.61832 -1.42296 0
M  V30 18823 H 1843.71 -1.29804 -0.692045 0
M  V30 18824 H 1845.67 -1.79958 -3.76392 0
M  V30 18825 H 1844.3 -0.864074 -3.1102 0
M  V30 18826 H 1843.35 -3.10523 -2.19727 0
M  V30 18827 H 1844.66 -3.94106 -3.05748 0
M  V30 18828 H 1843.82 -3.05652 -5.24082 0
M  V30 18829 H 1842.56 -2.11687 -4.39363 0
M  V30 18830 H 1841.56 -4.24097 -3.49888 0
M  V30 18831 H 1842.79 -5.19049 -4.37909 0
M  V30 18832 H 1840.73 -3.33883 -5.64675 0
M  V30 18833 H 1840.65 -5.06956 -5.60832 0
M  V30 18834 H 1841.92 -4.29129 -6.50744 0
M  V30 18835 N 1846.15 0.735796 -1.39369 0
M  V30 18836 C 1847.09 1.87116 -1.38168 0
M  V30 18837 C 1848.09 1.67315 -0.264936 0
M  V30 18838 O 1849.29 1.74666 -0.434928 0
M  V30 18839 H 1845.67 0.615926 -0.431438 0
M  V30 18840 H 1847.64 1.85245 -2.33938 0
M  V30 18841 C 1846.39 3.2479 -1.24125 0
M  V30 18842 H 1845.71 3.40621 -2.09325 0
M  V30 18843 H 1847.15 4.04426 -1.27341 0
M  V30 18844 C 1845.61 3.36862 0.050393 0
M  V30 18845 O 1846.14 3.88511 1.02088 0
M  V30 18846 N 1844.35 2.90379 0.113184 0
M  V30 18847 H 1843.89 2.48537 -0.677267 0
M  V30 18848 H 1843.85 2.98837 0.976928 0
M  V30 18849 N 1847.63 1.24532 0.965897 0
M  V30 18850 C 1848.85 1.11412 1.74934 0
M  V30 18851 C 1849.28 -0.329168 1.85197 0
M  V30 18852 O 1848.63 -1.23833 1.3242 0
M  V30 18853 C 1848.68 1.76068 3.14694 0
M  V30 18854 O 1847.79 1.03267 3.99261 0
M  V30 18855 H 1847.13 0.389633 0.537663 0
M  V30 18856 H 1849.66 1.64875 1.2115 0
M  V30 18857 H 1849.67 1.81897 3.65209 0
M  V30 18858 H 1848.34 2.8108 3.0654 0
M  V30 18859 H 1846.92 1.05236 3.57743 0
M  V30 18860 N 1849.1 -1.16685 1.05936 0
M  V30 18861 C 1850.07 -2.19155 0.671098 0
M  V30 18862 C 1851.07 -1.5832 -0.281305 0
M  V30 18863 O 1852.26 -1.74082 -0.0641708 0
M  V30 18864 C 1849.39 -3.40897 -0.0131101 0
M  V30 18865 H 1850.58 -2.55019 1.57815 0
M  V30 18866 H 1848.13 -1.30897 0.854147 0
M  V30 18867 H 1848.87 -3.10587 -0.933077 0
M  V30 18868 H 1848.65 -3.86304 0.671687 0
M  V30 18869 H 1850.14 -4.16722 -0.270606 0
M  V30 18870 N 1850.58 -0.841432 -1.33258 0
M  V30 18871 C 1852 -0.529552 -1.50559 0
M  V30 18872 C 1852.2 0.942598 -1.78094 0
M  V30 18873 O 1851.25 1.72628 -1.84271 0
M  V30 18874 C 1852.57 -1.40511 -2.65852 0
M  V30 18875 C 1854.11 -1.40415 -2.79737 0
M  V30 18876 C 1854.59 -2.26462 -3.98094 0
M  V30 18877 N 1856.08 -2.24185 -4.05334 0
M  V30 18878 C 1856.82 -2.875 -4.96116 0
M  V30 18879 N 1856.31 -3.59877 -5.91997 0
M  V30 18880 N 1858.1 -2.76957 -4.89133 0
M  V30 18881 H 1850.26 -1.79438 -1.13648 0
M  V30 18882 H 1852.52 -0.765683 -0.558958 0
M  V30 18883 H 1852.22 -2.45136 -2.52193 0
M  V30 18884 H 1852.1 -1.08299 -3.61319 0
M  V30 18885 H 1854.49 -0.365604 -2.92826 0
M  V30 18886 H 1854.57 -1.76636 -1.85023 0
M  V30 18887 H 1854.21 -3.30377 -3.85764 0
M  V30 18888 H 1854.14 -1.87581 -4.92058 0
M  V30 18889 H 1856.63 -1.71553 -3.36716 0
M  V30 18890 H 1856.94 -4.05388 -6.57936 0
M  V30 18891 H 1855.29 -3.63985 -5.92064 0
M  V30 18892 H 1858.48 -2.19974 -4.13194 0
M  V30 18893 H 1858.65 -3.26585 -5.59684 0
M  V30 18894 N 1852.06 1.4581 -0.598108 0
M  V30 18895 C 1853.28 2.07188 -0.0938515 0
M  V30 18896 C 1853.71 1.44141 1.20851 0
M  V30 18897 O 1853.07 0.530689 1.73359 0
M  V30 18898 C 1853.12 3.60575 0.0423086 0
M  V30 18899 O 1852.22 3.97598 1.09496 0
M  V30 18900 H 1851.56 0.660324 -0.0697682 0
M  V30 18901 H 1854.09 1.87211 -0.825426 0
M  V30 18902 H 1854.1 4.07272 0.243566 0
M  V30 18903 H 1852.78 4.05852 -0.9087 0
M  V30 18904 H 1851.35 3.62587 0.87093 0
M  V30 18905 N 1853.54 0.336733 1.53961 0
M  V30 18906 C 1854.47 -0.515664 2.27735 0
M  V30 18907 C 1855.45 -1.10835 1.29033 0
M  V30 18908 O 1856.63 -1.13102 1.57866 0
M  V30 18909 C 1853.76 -1.67015 3.04505 0
M  V30 18910 C 1852.72 -1.20613 4.10654 0
M  V30 18911 C 1852.04 -2.44861 4.75339 0
M  V30 18912 C 1853.34 -0.311507 5.2137 0
M  V30 18913 H 1855.04 0.0997513 2.99234 0
M  V30 18914 H 1852.58 0.0494157 1.43915 0
M  V30 18915 H 1854.54 -2.27286 3.54851 0
M  V30 18916 H 1853.26 -2.31236 2.30646 0
M  V30 18917 H 1851.92 -0.62628 3.61211 0
M  V30 18918 H 1851.57 -3.07474 3.98081 0
M  V30 18919 H 1851.27 -2.14498 5.47051 0
M  V30 18920 H 1852.79 -3.0587 5.28466 0
M  V30 18921 H 1854.21 -0.820868 5.67393 0
M  V30 18922 H 1852.6 -0.100073 6.00017 0
M  V30 18923 H 1853.67 0.654181 4.80467 0
M  V30 18924 N 1855.02 -1.57465 0.0651956 0
M  V30 18925 C 1856.26 -1.93524 -0.606325 0
M  V30 18926 C 1856.59 -0.944947 -1.6966 0
M  V30 18927 O 1855.87 0.0268871 -1.94481 0
M  V30 18928 C 1856.15 -3.3989 -1.18941 0
M  V30 18929 C 1856.01 -4.49675 -0.106235 0
M  V30 18930 C 1857.32 -3.86935 -2.09689 0
M  V30 18931 H 1854.44 -0.703729 -0.218939 0
M  V30 18932 H 1857.09 -1.89556 0.12982 0
M  V30 18933 H 1855.24 -3.43402 -1.81679 0
M  V30 18934 H 1856.91 -4.58286 0.526483 0
M  V30 18935 H 1855.15 -4.30118 0.563985 0
M  V30 18936 H 1855.82 -5.49208 -0.554488 0
M  V30 18937 H 1858.3 -3.85387 -1.56895 0
M  V30 18938 H 1857.17 -4.89972 -2.47424 0
M  V30 18939 H 1857.43 -3.24496 -3.00258 0
M  V30 18940 N 1856.49 0.20831 -1.56217 0
M  V30 18941 C 1857.46 1.24178 -1.92646 0
M  V30 18942 C 1858.46 1.39125 -0.806274 0
M  V30 18943 O 1859.65 1.37163 -1.07386 0
M  V30 18944 C 1856.78 2.61342 -2.18891 0
M  V30 18945 H 1857.97 0.930748 -2.85091 0
M  V30 18946 H 1855.52 0.449285 -1.49703 0
M  V30 18947 H 1856.26 2.97521 -1.29041 0
M  V30 18948 H 1856.04 2.51866 -3.00509 0
M  V30 18949 H 1857.53 3.35892 -2.48125 0
M  V30 18950 N 1857.97 1.50255 0.475528 0
M  V30 18951 C 1859.22 1.61022 1.22793 0
M  V30 18952 C 1859.55 0.308508 1.92038 0
M  V30 18953 O 1858.8 -0.70533 1.82547 0
M  V30 18954 C 1859.1 2.73698 2.29835 0
M  V30 18955 C 1858.77 4.14333 1.77873 0
M  V30 18956 C 1857.43 4.526 1.63423 0
M  V30 18957 C 1859.78 5.02247 1.39275 0
M  V30 18958 C 1857.11 5.76525 1.08791 0
M  V30 18959 C 1859.46 6.26715 0.860869 0
M  V30 18960 C 1858.12 6.63788 0.702959 0
M  V30 18961 H 1857.39 0.589221 0.449332 0
M  V30 18962 H 1860.04 1.84173 0.524633 0
M  V30 18963 H 1858.35 2.44617 3.06055 0
M  V30 18964 H 1860.04 2.79233 2.87802 0
M  V30 18965 H 1856.63 3.84142 1.90087 0
M  V30 18966 H 1860.82 4.73319 1.49276 0
M  V30 18967 H 1856.07 6.03927 0.952987 0
M  V30 18968 H 1860.25 6.942 0.553109 0
M  V30 18969 H 1857.87 7.59693 0.277471 0
M  V30 18970 N 1859.45 -0.728395 1.39758 0
M  V30 18971 C 1860.68 -1.5154 1.40425 0
M  V30 18972 C 1861.09 -1.892 -0.00123953 0
M  V30 18973 O 1860.43 -1.55086 -0.984575 0
M  V30 18974 C 1860.49 -2.8282 2.2193 0
M  V30 18975 C 1860.16 -2.67557 3.70489 0
M  V30 18976 C 1861.15 -2.35665 4.6342 0
M  V30 18977 C 1858.84 -2.84221 4.14154 0
M  V30 18978 C 1860.83 -2.20628 5.97998 0
M  V30 18979 C 1858.52 -2.68803 5.48806 0
M  V30 18980 C 1859.52 -2.37053 6.40543 0
M  V30 18981 O 1859.21 -2.21738 7.72714 0
M  V30 18982 H 1858.94 -0.474672 0.481313 0
M  V30 18983 H 1861.49 -0.907176 1.84281 0
M  V30 18984 H 1859.72 -3.45927 1.72833 0
M  V30 18985 H 1861.41 -3.44472 2.14695 0
M  V30 18986 H 1862.18 -2.22435 4.30985 0
M  V30 18987 H 1858.06 -3.07925 3.43079 0
M  V30 18988 H 1861.6 -1.95768 6.69567 0
M  V30 18989 H 1857.5 -2.81614 5.8083 0
M  V30 18990 H 1858.26 -2.36758 7.8351 0
M  V30 18991 N 1860.93 -1.25042 -0.959279 0
M  V30 18992 C 1861.88 -1.0171 -2.04056 0
M  V30 18993 C 1862.86 0.0444009 -1.60839 0
M  V30 18994 O 1864.05 -0.170366 -1.76178 0
M  V30 18995 C 1861.18 -0.632842 -3.37417 0
M  V30 18996 C 1860.27 -1.73087 -3.87172 0
M  V30 18997 N 1860.66 -2.96517 -4.0977 0
M  V30 18998 C 1858.96 -1.61031 -4.15914 0
M  V30 18999 C 1859.66 -3.67756 -4.507 0
M  V30 19000 N 1858.63 -2.95355 -4.56362 0
M  V30 19001 H 1862.44 -1.95423 -2.19515 0
M  V30 19002 H 1859.95 -1.15293 -1.14374 0
M  V30 19003 H 1861.95 -0.446895 -4.14498 0
M  V30 19004 H 1860.61 0.297006 -3.23339 0
M  V30 19005 H 1861.62 -3.3261 -3.96977 0
M  V30 19006 H 1858.3 -0.749096 -4.10725 0
M  V30 19007 H 1859.69 -4.73679 -4.76527 0
M  V30 19008 N 1862.41 1.16121 -1.06553 0
M  V30 19009 C 1863.35 2.20597 -0.678659 0
M  V30 19010 C 1864.32 1.6287 0.325988 0
M  V30 19011 O 1865.51 1.89593 0.214278 0
M  V30 19012 C 1862.65 3.45021 -0.0740442 0
M  V30 19013 C 1861.76 4.16981 -1.12919 0
M  V30 19014 C 1860.9 5.28931 -0.490435 0
M  V30 19015 C 1859.94 5.92697 -1.52893 0
M  V30 19016 N 1859.07 6.96134 -0.913346 0
M  V30 19017 H 1863.91 2.53041 -1.57398 0
M  V30 19018 H 1861.45 1.24282 -0.786923 0
M  V30 19019 H 1863.41 4.16162 0.294059 0
M  V30 19020 H 1862.04 3.13118 0.784671 0
M  V30 19021 H 1861.09 3.44417 -1.61496 0
M  V30 19022 H 1862.4 4.60495 -1.91693 0
M  V30 19023 H 1861.56 6.0666 -0.0695112 0
M  V30 19024 H 1860.29 4.86588 0.329154 0
M  V30 19025 H 1859.3 5.13688 -1.95972 0
M  V30 19026 H 1860.52 6.37119 -2.35066 0
M  V30 19027 H 1858.47 6.559 -0.114515 0
M  V30 19028 H 1858.39 7.38032 -1.63843 0
M  V30 19029 H 1859.66 7.77779 -0.517655 0
M  V30 19030 N 1863.88 0.848487 1.3281 0
M  V30 19031 C 1865.13 0.44797 1.97073 0
M  V30 19032 C 1865.45 -0.998358 1.67505 0
M  V30 19033 O 1864.72 -1.69683 0.97901 0
M  V30 19034 H 1863.3 0.162663 0.729075 0
M  V30 19035 H 1865.97 1.08356 1.62003 0
M  V30 19036 H 1865.06 0.587939 3.06512 0
M  V30 19037 N 1865.36 -1.4549 0.605832 0
M  V30 19038 C 1866.33 -2.28964 -0.104089 0
M  V30 19039 C 1867.33 -1.39671 -0.796791 0
M  V30 19040 O 1868.52 -1.6181 -0.645221 0
M  V30 19041 C 1865.65 -3.20647 -1.1575 0
M  V30 19042 H 1866.84 -2.93213 0.629776 0
M  V30 19043 H 1864.39 -1.51983 0.3648 0
M  V30 19044 H 1865.13 -2.61194 -1.92219 0
M  V30 19045 H 1864.91 -3.86419 -0.665025 0
M  V30 19046 H 1866.4 -3.83416 -1.65474 0
M  V30 19047 N 1866.84 -0.344893 -1.5378 0
M  V30 19048 C 1867.77 0.503579 -2.28005 0
M  V30 19049 C 1868.75 1.10149 -1.29619 0
M  V30 19050 O 1869.94 1.12263 -1.58463 0
M  V30 19051 C 1867.07 1.65398 -3.05386 0
M  V30 19052 C 1866.02 1.18434 -4.11288 0
M  V30 19053 C 1865.35 2.42336 -4.76631 0
M  V30 19054 C 1866.65 0.283853 -5.21528 0
M  V30 19055 H 1868.34 -0.115619 -2.99177 0
M  V30 19056 H 1865.89 -0.0570472 -1.43887 0
M  V30 19057 H 1867.84 2.25401 -3.56051 0
M  V30 19058 H 1866.56 2.3001 -2.31869 0
M  V30 19059 H 1865.22 0.607115 -3.61538 0
M  V30 19060 H 1864.87 3.05358 -3.99707 0
M  V30 19061 H 1864.57 2.11594 -5.4818 0
M  V30 19062 H 1866.09 3.03063 -5.3008 0
M  V30 19063 H 1867.51 0.790766 -5.6782 0
M  V30 19064 H 1865.91 0.0682509 -6.00061 0
M  V30 19065 H 1866.98 -0.679653 -4.80113 0
M  V30 19066 N 1868.32 1.57428 -0.0735454 0
M  V30 19067 C 1869.73 1.80973 0.458858 0
M  V30 19068 C 1870.08 0.987586 1.69532 0
M  V30 19069 O 1869.21 0.210611 2.15373 0
M  V30 19070 C 1869.8 3.28241 0.839246 0
M  V30 19071 C 1868.36 3.52626 1.3165 0
M  V30 19072 C 1867.51 2.75645 0.302533 0
M  V30 19073 H 1870.46 1.55854 -0.299225 0
M  V30 19074 H 1870.48 3.40386 1.70052 0
M  V30 19075 H 1869.99 3.88052 -0.0608625 0
M  V30 19076 H 1868.09 2.98121 2.23505 0
M  V30 19077 H 1868.2 4.61316 1.29322 0
M  V30 19078 H 1866.57 2.42457 0.780179 0
M  V30 19079 H 1867.35 3.38194 -0.589878 0
M  V30 19080 N 1869.8 -0.200022 1.56326 0
M  V30 19081 C 1871.04 -0.927997 1.8212 0
M  V30 19082 C 1871.4 -1.80652 0.650305 0
M  V30 19083 O 1872.6 -2.56989 0.788027 0
M  V30 19084 C 1870.87 -1.72682 3.12915 0
M  V30 19085 S 1872.43 -2.50748 3.60098 0
M  V30 19086 H 1869.25 -0.311347 0.639206 0
M  V30 19087 H 1871.85 -0.191791 1.94557 0
M  V30 19088 H 1870.56 -1.07195 3.96153 0
M  V30 19089 H 1870.09 -2.50493 3.03343 0
M  V30 19090 H 1872.1 -3.74828 3.25143 0
M  V30 19091 N 1871.27 -1.50505 -0.467553 0
M  V30 19092 C 1872.18 -1.72419 -1.59087 0
M  V30 19093 C 1873.2 -0.607403 -1.63054 0
M  V30 19094 O 1874.38 -0.886148 -1.80857 0
M  V30 19095 C 1871.44 -1.81686 -2.95281 0
M  V30 19096 C 1870.5 -3.05435 -3.01675 0
M  V30 19097 C 1869.74 -3.1425 -4.31373 0
M  V30 19098 O 1869.96 -2.29766 -5.22076 0
M  V30 19099 O 1868.89 -4.07005 -4.43431 0
M  V30 19100 H 1872.72 -2.67649 -1.43519 0
M  V30 19101 H 1870.3 -1.34643 -0.647422 0
M  V30 19102 H 1872.19 -1.89941 -3.76165 0
M  V30 19103 H 1870.86 -0.896404 -3.11041 0
M  V30 19104 H 1869.77 -3.02678 -2.19856 0
M  V30 19105 H 1871.1 -3.97071 -2.90853 0
M  V30 19106 N 1872.75 0.720973 -1.40142 0
M  V30 19107 C 1873.99 1.49327 -1.39573 0
M  V30 19108 C 1874.36 1.91999 0.00451559 0
M  V30 19109 O 1875.56 2.68459 0.135289 0
M  V30 19110 C 1873.83 2.69014 -2.35301 0
M  V30 19111 S 1875.39 3.58489 -2.53043 0
M  V30 19112 H 1872.21 0.510609 -0.494773 0
M  V30 19113 H 1874.81 0.843571 -1.76364 0
M  V30 19114 H 1873.51 2.35827 -3.35878 0
M  V30 19115 H 1873.04 3.389 -1.99775 0
M  V30 19116 H 1875.06 4.6322 -1.77882 0
M  V30 19117 N 1874.23 1.25549 0.952634 0
M  V30 19118 C 1875.18 1.02791 2.03514 0
M  V30 19119 C 1876.16 -0.0358706 1.6086 0
M  V30 19120 O 1877.36 0.179707 1.76085 0
M  V30 19121 C 1874.49 0.650727 3.37076 0
M  V30 19122 C 1873.57 1.75137 3.86248 0
M  V30 19123 N 1873.96 2.98686 4.08192 0
M  V30 19124 C 1872.26 1.63235 4.15055 0
M  V30 19125 C 1872.96 3.70141 4.48743 0
M  V30 19126 N 1871.94 2.97771 4.54789 0
M  V30 19127 H 1875.74 1.96585 2.18476 0
M  V30 19128 H 1873.25 1.15898 1.13761 0
M  V30 19129 H 1875.25 0.468871 4.14255 0
M  V30 19130 H 1873.91 -0.279854 3.23492 0
M  V30 19131 H 1874.92 3.3471 3.95208 0
M  V30 19132 H 1871.6 0.770867 4.10322 0
M  V30 19133 H 1872.99 4.762 4.74008 0
M  V30 19134 N 1875.71 -1.15554 1.07168 0
M  V30 19135 C 1877.12 -1.67889 0.816719 0
M  V30 19136 C 1877.47 -1.84821 -0.658442 0
M  V30 19137 O 1876.6 -1.55018 -1.50991 0
M  V30 19138 C 1877.19 -3.04959 1.47598 0
M  V30 19139 C 1875.75 -3.54378 1.26858 0
M  V30 19140 C 1874.9 -2.30148 1.54684 0
M  V30 19141 H 1877.85 -0.997938 1.23397 0
M  V30 19142 H 1877.87 -3.69796 0.89618 0
M  V30 19143 H 1877.38 -2.92603 2.54961 0
M  V30 19144 H 1875.48 -3.71979 0.215097 0
M  V30 19145 H 1875.59 -4.35932 1.98747 0
M  V30 19146 H 1873.96 -2.35597 0.967776 0
M  V30 19147 H 1874.74 -2.20381 2.63225 0
M  V30 19148 N 1877.19 -0.855519 -1.32358 0
M  V30 19149 C 1878.42 -0.473331 -2.01413 0
M  V30 19150 C 1878.83 0.930206 -1.64294 0
M  V30 19151 O 1878.19 1.60714 -0.864705 0
M  V30 19152 C 1878.24 -0.603815 -3.56422 0
M  V30 19153 O 1877.96 -1.95207 -3.92207 0
M  V30 19154 C 1879.46 -0.220748 -4.4275 0
M  V30 19155 H 1876.68 -0.185962 -0.644716 0
M  V30 19156 H 1879.22 -1.1527 -1.68918 0
M  V30 19157 H 1877.38 0.0278263 -3.8739 0
M  V30 19158 H 1877.79 -1.94946 -4.86925 0
M  V30 19159 H 1879.27 -0.363048 -5.50805 0
M  V30 19160 H 1879.74 0.838881 -4.31114 0
M  V30 19161 H 1880.35 -0.827498 -4.17172 0
M  V30 19162 N 1878.67 1.45167 -0.61354 0
M  V30 19163 C 1879.91 2.01796 -0.110844 0
M  V30 19164 C 1880.23 1.48372 1.26534 0
M  V30 19165 O 1879.5 0.680323 1.83707 0
M  V30 19166 H 1878.08 0.746034 -0.0379861 0
M  V30 19167 H 1880.75 1.77892 -0.796279 0
M  V30 19168 H 1879.84 3.12032 -0.0651413 0
M  V30 19169 N 1880.14 0.353044 1.53595 0
M  V30 19170 C 1881.11 -0.48691 2.23968 0
M  V30 19171 C 1882.11 -1.01991 1.24316 0
M  V30 19172 O 1883.3 -0.907654 1.48685 0
M  V30 19173 C 1880.43 -1.67926 2.96671 0
M  V30 19174 H 1881.62 0.128707 2.99624 0
M  V30 19175 H 1879.17 0.104533 1.5595 0
M  V30 19176 H 1879.91 -2.33331 2.25227 0
M  V30 19177 H 1879.69 -1.30417 3.69776 0
M  V30 19178 H 1881.18 -2.2748 3.50203 0
M  V30 19179 N 1881.62 -1.57387 0.0818932 0
M  V30 19180 C 1882.85 -1.98201 -0.593645 0
M  V30 19181 C 1883.26 -0.960602 -1.62536 0
M  V30 19182 O 1882.62 0.0514903 -1.82427 0
M  V30 19183 C 1882.67 -3.39083 -1.2532 0
M  V30 19184 O 1882.39 -4.37311 -0.262763 0
M  V30 19185 C 1883.89 -3.94827 -2.0156 0
M  V30 19186 H 1881.11 -0.651606 -0.160159 0
M  V30 19187 H 1883.66 -2.03894 0.157281 0
M  V30 19188 H 1881.81 -3.34444 -1.95514 0
M  V30 19189 H 1882.23 -5.19294 -0.737169 0
M  V30 19190 H 1883.7 -4.95594 -2.43086 0
M  V30 19191 H 1884.18 -3.31921 -2.8762 0
M  V30 19192 H 1884.78 -4.02898 -1.36211 0
M  V30 19193 N 1883.1 0.191729 -1.56429 0
M  V30 19194 C 1884.35 0.909797 -1.80464 0
M  V30 19195 C 1884.67 1.83652 -0.655516 0
M  V30 19196 O 1883.94 1.93169 0.325946 0
M  V30 19197 H 1882.52 0.338944 -0.665677 0
M  V30 19198 H 1885.18 0.196432 -1.93908 0
M  V30 19199 H 1884.28 1.49891 -2.7375 0
M  V30 19200 N 1884.58 1.50751 0.459565 0
M  V30 19201 C 1885.99 1.55043 1.04012 0
M  V30 19202 C 1886.34 0.360701 1.92856 0
M  V30 19203 O 1885.46 -0.525112 2.09932 0
M  V30 19204 C 1886.06 2.80975 1.89311 0
M  V30 19205 C 1884.62 2.87911 2.42455 0
M  V30 19206 C 1883.77 2.49464 1.2109 0
M  V30 19207 H 1886.72 1.56849 0.24171 0
M  V30 19208 H 1886.74 2.63482 2.74514 0
M  V30 19209 H 1886.25 3.67547 1.24623 0
M  V30 19210 H 1884.35 2.05717 3.10663 0
M  V30 19211 H 1884.46 3.91067 2.76773 0
M  V30 19212 H 1882.83 2.0216 1.54931 0
M  V30 19213 H 1883.61 3.38357 0.580469 0
M  V30 19214 N 1886.06 -0.713531 1.40522 0
M  V30 19215 C 1887.01 -1.81927 1.37429 0
M  V30 19216 C 1887.99 -1.58922 0.251499 0
M  V30 19217 O 1889.18 -1.7006 0.490768 0
M  V30 19218 C 1886.31 -3.20074 1.24127 0
M  V30 19219 C 1885.4 -3.48835 2.41195 0
M  V30 19220 N 1885.79 -3.484 3.66676 0
M  V30 19221 C 1884.09 -3.79302 2.34619 0
M  V30 19222 C 1884.79 -3.75562 4.44217 0
M  V30 19223 N 1883.76 -3.94413 3.74084 0
M  V30 19224 H 1887.56 -1.79927 2.32387 0
M  V30 19225 H 1885.08 -0.912746 1.34323 0
M  V30 19226 H 1887.08 -3.99258 1.19993 0
M  V30 19227 H 1885.74 -3.23298 0.301379 0
M  V30 19228 H 1886.75 -3.29201 3.99809 0
M  V30 19229 H 1883.42 -3.90004 1.49007 0
M  V30 19230 H 1884.81 -3.81513 5.5308 0
M  V30 19231 N 1887.53 -1.26053 -0.945962 0
M  V30 19232 C 1888.77 -1.1253 -1.70635 0
M  V30 19233 C 1889.14 0.326708 -1.892 0
M  V30 19234 O 1890.34 0.583957 -2.6238 0
M  V30 19235 C 1888.61 -1.86811 -3.04691 0
M  V30 19236 S 1890.17 -1.89284 -3.95875 0
M  V30 19237 H 1886.99 -0.402052 -0.586409 0
M  V30 19238 H 1889.59 -1.59703 -1.12762 0
M  V30 19239 H 1888.29 -2.91531 -2.88856 0
M  V30 19240 H 1887.82 -1.40059 -3.67623 0
M  V30 19241 H 1889.84 -0.976107 -4.86504 0
M  V30 19242 N 1889.01 1.14984 -1.07779 0
M  V30 19243 C 1890.24 1.90288 -0.824935 0
M  V30 19244 C 1890.66 1.77709 0.616524 0
M  V30 19245 O 1890.02 1.11281 1.4313 0
M  V30 19246 C 1890.07 3.38482 -1.24348 0
M  V30 19247 O 1889.17 4.10538 -0.391454 0
M  V30 19248 H 1888.51 0.592283 -0.300162 0
M  V30 19249 H 1891.04 1.45588 -1.43755 0
M  V30 19250 H 1891.05 3.89284 -1.22155 0
M  V30 19251 H 1889.73 3.46956 -2.29335 0
M  V30 19252 H 1888.3 3.69846 -0.476247 0
M  V30 19253 N 1890.49 0.862526 1.31902 0
M  V30 19254 C 1891.9 0.523345 1.79215 0
M  V30 19255 C 1892.25 -0.95931 1.71148 0
M  V30 19256 O 1891.38 -1.74868 1.27476 0
M  V30 19257 C 1891.97 0.943195 3.25406 0
M  V30 19258 C 1890.53 0.655789 3.70643 0
M  V30 19259 C 1889.68 1.13861 2.52846 0
M  V30 19260 H 1892.63 1.04897 1.19089 0
M  V30 19261 H 1892.65 0.262794 3.79591 0
M  V30 19262 H 1892.16 2.02233 3.31245 0
M  V30 19263 H 1890.26 -0.412291 3.70312 0
M  V30 19264 H 1890.38 1.2276 4.63106 0
M  V30 19265 H 1888.74 0.558615 2.48499 0
M  V30 19266 H 1889.52 2.22501 2.61434 0
M  V30 19267 N 1891.97 -1.4484 0.62123 0
M  V30 19268 C 1892.88 -2.34423 -0.0910566 0
M  V30 19269 C 1893.89 -1.52042 -0.846121 0
M  V30 19270 O 1895.07 -1.84802 -0.800625 0
M  V30 19271 C 1892.14 -3.29874 -1.06696 0
M  V30 19272 C 1891.2 -4.28162 -0.312354 0
M  V30 19273 C 1890.43 -5.19053 -1.24177 0
M  V30 19274 O 1890.65 -5.13659 -2.48014 0
M  V30 19275 O 1889.59 -5.97439 -0.731442 0
M  V30 19276 H 1893.41 -2.96761 0.645493 0
M  V30 19277 H 1891 -1.44448 0.381445 0
M  V30 19278 H 1892.88 -3.88654 -1.62867 0
M  V30 19279 H 1891.55 -2.70083 -1.78429 0
M  V30 19280 H 1890.46 -3.72957 0.292161 0
M  V30 19281 H 1891.79 -4.90847 0.364763 0
M  V30 19282 N 1893.45 -0.361184 -1.53405 0
M  V30 19283 C 1894.69 0.229427 -2.00794 0
M  V30 19284 C 1895.02 1.49642 -1.25029 0
M  V30 19285 O 1894.29 1.9252 -0.362333 0
M  V30 19286 H 1892.87 0.0877687 -0.741826 0
M  V30 19287 H 1895.53 -0.486406 -1.88733 0
M  V30 19288 H 1894.62 0.459504 -3.08699 0
M  V30 19289 N 1894.92 1.57341 -0.0902386 0
M  V30 19290 C 1896.17 1.93793 0.573474 0
M  V30 19291 C 1896.49 0.972444 1.69022 0
M  V30 19292 O 1895.76 0.0236753 1.95886 0
M  V30 19293 H 1894.34 0.715442 0.21483 0
M  V30 19294 H 1897.01 1.94303 -0.15243 0
M  V30 19295 H 1896.1 2.96088 0.986829 0
M  V30 19296 N 1896.4 -0.183431 1.56529 0
M  V30 19297 C 1897.33 -1.25157 1.92011 0
M  V30 19298 C 1898.35 -1.41107 0.811945 0
M  V30 19299 O 1899.54 -1.41326 1.09038 0
M  V30 19300 C 1896.64 -2.62206 2.14712 0
M  V30 19301 C 1895.81 -2.67712 3.45903 0
M  V30 19302 C 1894.87 -3.86038 3.57576 0
M  V30 19303 O 1893.89 -3.72599 4.30301 0
M  V30 19304 N 1895.1 -5.01988 2.91528 0
M  V30 19305 H 1897.86 -0.950304 2.84235 0
M  V30 19306 H 1895.42 -0.373278 1.57538 0
M  V30 19307 H 1897.41 -3.3981 2.19798 0
M  V30 19308 H 1895.98 -2.84772 1.28932 0
M  V30 19309 H 1895.2 -1.76294 3.52582 0
M  V30 19310 H 1896.49 -2.68392 4.32254 0
M  V30 19311 H 1895.89 -5.15807 2.32292 0
M  V30 19312 H 1894.45 -5.77497 3.02225 0
M  V30 19313 N 1897.88 -1.50992 -0.451564 0
M  V30 19314 C 1899.12 -1.64605 -1.21179 0
M  V30 19315 C 1899.48 -0.347889 -1.88822 0
M  V30 19316 O 1900.69 -0.359643 -2.66383 0
M  V30 19317 C 1898.96 -2.8067 -2.21267 0
M  V30 19318 S 1900.52 -3.14531 -3.05967 0
M  V30 19319 H 1897.33 -0.58007 -0.411145 0
M  V30 19320 H 1899.94 -1.88849 -0.505611 0
M  V30 19321 H 1898.64 -3.73449 -1.70187 0
M  V30 19322 H 1898.17 -2.58572 -2.96486 0
M  V30 19323 H 1900.19 -2.59864 -4.22712 0
M  V30 19324 N 1899.36 0.706069 -1.40899 0
M  V30 19325 C 1900.77 1.2856 -1.35386 0
M  V30 19326 C 1901.12 1.96174 -0.0318902 0
M  V30 19327 O 1900.25 1.9814 0.870018 0
M  V30 19328 C 1900.84 2.33785 -2.45214 0
M  V30 19329 C 1899.4 2.87339 -2.43132 0
M  V30 19330 C 1898.55 1.61243 -2.25601 0
M  V30 19331 H 1901.5 0.501539 -1.50567 0
M  V30 19332 H 1901.52 3.14843 -2.13669 0
M  V30 19333 H 1901.03 1.84545 -3.41416 0
M  V30 19334 H 1899.13 3.40784 -1.50656 0
M  V30 19335 H 1899.24 3.38485 -3.39065 0
M  V30 19336 H 1897.61 1.86664 -1.73288 0
M  V30 19337 H 1898.39 1.14014 -3.23814 0
M  V30 19338 N 1900.84 1.26553 0.939264 0
M  V30 19339 C 1902.08 1.13433 1.70036 0
M  V30 19340 C 1902.44 -0.316669 1.89371 0
M  V30 19341 O 1903.64 -0.570035 2.62686 0
M  V30 19342 C 1901.91 1.88424 3.03696 0
M  V30 19343 S 1903.47 1.91381 3.94866 0
M  V30 19344 H 1900.29 0.405156 0.584268 0
M  V30 19345 H 1902.89 1.60299 1.11913 0
M  V30 19346 H 1901.6 2.93059 2.87306 0
M  V30 19347 H 1901.13 1.42007 3.66876 0
M  V30 19348 H 1903.14 1.00189 4.8598 0
M  V30 19349 N 1902.31 -1.14411 1.08387 0
M  V30 19350 C 1903.25 -2.19141 0.671565 0
M  V30 19351 C 1904.26 -1.60352 -0.281256 0
M  V30 19352 O 1905.45 -1.78367 -0.0689422 0
M  V30 19353 C 1902.55 -3.38884 -0.0326447 0
M  V30 19354 C 1901.72 -4.27201 0.939024 0
M  V30 19355 C 1900.78 -5.25506 0.270176 0
M  V30 19356 O 1899.81 -5.61805 0.914522 0
M  V30 19357 N 1901.01 -5.72168 -0.980002 0
M  V30 19358 H 1903.77 -2.5513 1.57254 0
M  V30 19359 H 1901.33 -1.2963 0.969931 0
M  V30 19360 H 1903.33 -4.0171 -0.491035 0
M  V30 19361 H 1901.9 -3.01222 -0.835708 0
M  V30 19362 H 1901.12 -3.61314 1.57626 0
M  V30 19363 H 1902.4 -4.83072 1.59746 0
M  V30 19364 H 1901.8 -5.44806 -1.52325 0
M  V30 19365 H 1900.36 -6.36983 -1.38189 0
M  V30 19366 N 1903.79 -0.869509 -1.31443 0
M  V30 19367 C 1905.2 -0.532842 -1.78935 0
M  V30 19368 C 1905.55 0.95022 -1.71654 0
M  V30 19369 O 1904.68 1.74189 -1.28402 0
M  V30 19370 C 1905.27 -0.960439 -3.24902 0
M  V30 19371 C 1903.83 -0.675436 -3.7029 0
M  V30 19372 C 1902.98 -1.15201 -2.52238 0
M  V30 19373 H 1905.93 -1.05527 -1.18531 0
M  V30 19374 H 1905.95 -0.282921 -3.79447 0
M  V30 19375 H 1905.46 -2.03986 -3.30168 0
M  V30 19376 H 1903.57 0.392647 -3.70525 0
M  V30 19377 H 1903.68 -1.25214 -4.62448 0
M  V30 19378 H 1902.04 -0.571786 -2.48199 0
M  V30 19379 H 1902.83 -2.23885 -2.60251 0
M  V30 19380 N 1905.27 1.44508 -0.628902 0
M  V30 19381 C 1906.22 2.32427 0.0895754 0
M  V30 19382 C 1907.21 1.47217 0.838067 0
M  V30 19383 O 1908.42 1.63575 0.751218 0
M  V30 19384 H 1904.79 0.750483 0.0477349 0
M  V30 19385 H 1906.76 2.9078 -0.670054 0
M  V30 19386 C 1905.51 3.31177 1.0591 0
M  V30 19387 H 1904.84 3.96754 0.492578 0
M  V30 19388 H 1906.28 3.9538 1.53135 0
M  V30 19389 C 1904.74 2.59936 2.14325 0
M  V30 19390 O 1905.27 2.3966 3.22375 0
M  V30 19391 N 1903.47 2.19712 1.90197 0
M  V30 19392 H 1903.02 2.36402 1.02332 0
M  V30 19393 H 1902.98 1.72371 2.62936 0
M  V30 19394 N 1906.75 0.369315 1.53212 0
M  V30 19395 C 1908 -0.219533 2.01608 0
M  V30 19396 C 1908.33 -1.48115 1.25601 0
M  V30 19397 O 1907.6 -1.91311 0.350762 0
M  V30 19398 C 1907.89 -0.507713 3.56503 0
M  V30 19399 C 1907.74 0.767792 4.43199 0
M  V30 19400 C 1909.06 -1.30674 4.20253 0
M  V30 19401 H 1906.18 -0.0783156 0.732827 0
M  V30 19402 H 1908.82 0.494943 1.8344 0
M  V30 19403 H 1906.97 -1.11637 3.72115 0
M  V30 19404 H 1908.64 1.4052 4.39377 0
M  V30 19405 H 1906.88 1.38737 4.11017 0
M  V30 19406 H 1907.56 0.521063 5.49535 0
M  V30 19407 H 1910.03 -0.791822 4.08497 0
M  V30 19408 H 1908.91 -1.47712 5.28652 0
M  V30 19409 H 1909.17 -2.31631 3.76562 0
M  V30 19410 N 1908.23 -1.57291 0.0985816 0
M  V30 19411 C 1909.48 -1.93654 -0.564011 0
M  V30 19412 C 1909.79 -0.982723 -1.69121 0
M  V30 19413 O 1911 -1.2402 -2.41519 0
M  V30 19414 C 1909.45 -3.441 -1.05466 0
M  V30 19415 C 1909.06 -4.47979 0.0429743 0
M  V30 19416 C 1910.8 -3.89418 -1.68979 0
M  V30 19417 C 1908.71 -5.89583 -0.463226 0
M  V30 19418 H 1907.64 -0.722858 -0.214457 0
M  V30 19419 H 1910.29 -1.82662 0.175145 0
M  V30 19420 H 1908.67 -3.50256 -1.84761 0
M  V30 19421 H 1909.85 -4.53471 0.818587 0
M  V30 19422 H 1908.16 -4.12291 0.583501 0
M  V30 19423 H 1910.76 -4.92615 -2.0793 0
M  V30 19424 H 1911.1 -3.28258 -2.56032 0
M  V30 19425 H 1911.64 -3.85978 -0.962602 0
M  V30 19426 H 1908.37 -6.54451 0.370767 0
M  V30 19427 H 1907.89 -5.87555 -1.20577 0
M  V30 19428 H 1909.57 -6.40266 -0.931072 0
M  V30 19429 N 1909.71 0.175127 -1.56624 0
M  V30 19430 C 1910.95 0.890605 -1.81418 0
M  V30 19431 C 1911.27 1.82946 -0.674958 0
M  V30 19432 O 1910.54 1.93504 0.305439 0
M  V30 19433 H 1909.12 0.331864 -0.669235 0
M  V30 19434 H 1911.79 0.175855 -1.94105 0
M  V30 19435 H 1910.88 1.46979 -2.75325 0
M  V30 19436 N 1911.18 1.5123 0.44355 0
M  V30 19437 C 1912.6 1.39267 0.779541 0
M  V30 19438 C 1912.8 0.470162 1.95938 0
M  V30 19439 O 1911.86 -0.0769965 2.52383 0
M  V30 19440 C 1913.17 2.8118 1.06574 0
M  V30 19441 C 1914.72 2.90288 1.17055 0
M  V30 19442 C 1915.19 4.33095 1.48973 0
M  V30 19443 N 1916.68 4.36173 1.55909 0
M  V30 19444 C 1917.42 5.43694 1.82165 0
M  V30 19445 N 1916.91 6.61386 2.06255 0
M  V30 19446 N 1918.71 5.31167 1.83896 0
M  V30 19447 H 1910.86 2.09764 -0.333579 0
M  V30 19448 H 1913.12 0.944017 -0.0868148 0
M  V30 19449 H 1912.83 3.5065 0.271575 0
M  V30 19450 H 1912.7 3.20125 1.99498 0
M  V30 19451 H 1915.09 2.2102 1.95535 0
M  V30 19452 H 1915.17 2.54848 0.220468 0
M  V30 19453 H 1914.81 5.0291 0.710222 0
M  V30 19454 H 1914.74 4.66043 2.45177 0
M  V30 19455 H 1917.23 3.5132 1.39221 0
M  V30 19456 H 1917.55 7.39125 2.25641 0
M  V30 19457 H 1915.89 6.64512 2.0359 0
M  V30 19458 H 1919.08 4.38209 1.64591 0
M  V30 19459 H 1919.26 6.15044 2.0402 0
M  V30 19460 N 1912.66 -0.698586 1.41271 0
M  V30 19461 C 1913.59 -1.82385 1.38811 0
M  V30 19462 C 1914.61 -1.60183 0.290752 0
M  V30 19463 O 1915.8 -1.69742 0.552272 0
M  V30 19464 C 1912.9 -3.19095 1.14155 0
M  V30 19465 C 1912.07 -3.68352 2.35872 0
M  V30 19466 C 1911.13 -4.83723 2.07119 0
M  V30 19467 O 1910.15 -4.95495 2.80132 0
M  V30 19468 N 1911.36 -5.70748 1.05958 0
M  V30 19469 H 1914.12 -1.84989 2.35795 0
M  V30 19470 H 1911.68 -0.880792 1.35844 0
M  V30 19471 H 1913.67 -3.93899 0.928763 0
M  V30 19472 H 1912.24 -3.11535 0.257783 0
M  V30 19473 H 1911.46 -2.8449 2.72872 0
M  V30 19474 H 1912.75 -3.97999 3.16977 0
M  V30 19475 H 1912.15 -5.63865 0.455223 0
M  V30 19476 H 1910.71 -6.45463 0.906689 0
M  V30 19477 N 1914.14 -1.27049 -0.93254 0
M  V30 19478 C 1915.38 -1.14333 -1.69432 0
M  V30 19479 C 1915.74 0.306622 -1.89536 0
M  V30 19480 O 1916.94 0.556096 -2.62985 0
M  V30 19481 C 1915.22 -1.90032 -3.02692 0
M  V30 19482 S 1916.77 -1.93472 -3.93845 0
M  V30 19483 H 1913.59 -0.408249 -0.582111 0
M  V30 19484 H 1916.19 -1.6089 -1.11061 0
M  V30 19485 H 1914.9 -2.94579 -2.85748 0
M  V30 19486 H 1914.43 -1.4395 -3.66117 0
M  V30 19487 H 1916.44 -1.02765 -4.85442 0
M  V30 19488 N 1915.62 1.13835 -1.08993 0
M  V30 19489 C 1916.85 1.88861 -0.844923 0
M  V30 19490 C 1917.26 1.78897 0.603444 0
M  V30 19491 O 1916.62 1.15246 1.41508 0
M  V30 19492 C 1916.67 3.38622 -1.26559 0
M  V30 19493 O 1916.39 3.48321 -2.65714 0
M  V30 19494 C 1917.89 4.30629 -1.05232 0
M  V30 19495 H 1915.11 0.598038 -0.304288 0
M  V30 19496 H 1917.65 1.44129 -1.45076 0
M  V30 19497 H 1915.81 3.80954 -0.703737 0
M  V30 19498 H 1916.22 4.41387 -2.83333 0
M  V30 19499 H 1917.7 5.34057 -1.39598 0
M  V30 19500 H 1918.17 4.39199 0.0102308 0
M  V30 19501 H 1918.78 3.9406 -1.5999 0
M  V30 19502 N 1917.1 0.876467 1.3098 0
M  V30 19503 C 1918.51 0.569284 1.49102 0
M  V30 19504 C 1918.71 -0.895048 1.8053 0
M  V30 19505 O 1917.77 -1.67682 1.88783 0
M  V30 19506 C 1919.08 1.4751 2.62033 0
M  V30 19507 C 1920.63 1.47783 2.75915 0
M  V30 19508 C 1921.1 2.36937 3.9195 0
M  V30 19509 N 1922.59 2.34853 3.99247 0
M  V30 19510 C 1923.33 3.00553 4.88319 0
M  V30 19511 N 1922.83 3.75446 5.82247 0
M  V30 19512 N 1924.62 2.89828 4.81618 0
M  V30 19513 H 1916.77 1.82388 1.08851 0
M  V30 19514 H 1919.03 0.780233 0.538461 0
M  V30 19515 H 1918.74 2.51737 2.45605 0
M  V30 19516 H 1918.61 1.1784 3.5832 0
M  V30 19517 H 1921 0.443113 2.91754 0
M  V30 19518 H 1921.08 1.81479 1.80275 0
M  V30 19519 H 1920.72 3.40488 3.76869 0
M  V30 19520 H 1920.65 2.00561 4.86911 0
M  V30 19521 H 1923.15 1.80421 3.32049 0
M  V30 19522 H 1923.46 4.2269 6.46957 0
M  V30 19523 H 1921.8 3.79554 5.82206 0
M  V30 19524 H 1924.99 2.30852 4.07216 0
M  V30 19525 H 1925.17 3.41309 5.50829 0
M  V30 19526 N 1918.57 -1.44173 0.636557 0
M  V30 19527 C 1919.81 -2.03874 0.146599 0
M  V30 19528 C 1920.18 -1.49026 -1.21059 0
M  V30 19529 O 1921.38 -2.00264 -1.79298 0
M  V30 19530 C 1919.65 -3.57131 0.138577 0
M  V30 19531 S 1921.21 -4.37867 -0.285968 0
M  V30 19532 H 1918.03 -0.708136 0.0637502 0
M  V30 19533 H 1920.63 -1.76479 0.841163 0
M  V30 19534 H 1919.33 -3.94555 1.12936 0
M  V30 19535 H 1918.86 -3.89145 -0.577061 0
M  V30 19536 H 1920.88 -4.72059 -1.52889 0
M  V30 19537 N 1920.05 -0.377435 -1.53014 0
M  V30 19538 C 1921.01 0.451217 -2.24715 0
M  V30 19539 C 1922.01 1.00001 -1.25923 0
M  V30 19540 O 1923.2 0.883884 -1.5011 0
M  V30 19541 C 1920.34 1.63185 -2.99305 0
M  V30 19542 H 1921.53 -0.176358 -2.99381 0
M  V30 19543 H 1919.08 -0.12933 -1.55764 0
M  V30 19544 H 1919.82 2.29718 -2.2891 0
M  V30 19545 H 1919.6 1.24517 -3.71804 0
M  V30 19546 H 1921.09 2.2188 -3.53778 0
M  V30 19547 N 1921.53 1.57237 -0.106922 0
M  V30 19548 C 1922.76 1.9912 0.562038 0
M  V30 19549 C 1923.17 0.986338 1.60987 0
M  V30 19550 O 1922.53 -0.0224611 1.82486 0
M  V30 19551 C 1922.58 3.41034 1.19909 0
M  V30 19552 O 1922.3 4.37674 0.193157 0
M  V30 19553 C 1923.8 3.97984 1.95253 0
M  V30 19554 H 1921.02 0.654071 0.149772 0
M  V30 19555 H 1923.57 2.03618 -0.189699 0
M  V30 19556 H 1921.72 3.37513 1.90168 0
M  V30 19557 H 1922.14 5.20401 0.654461 0
M  V30 19558 H 1923.61 4.99398 2.35171 0
M  V30 19559 H 1924.09 3.36455 2.82303 0
M  V30 19560 H 1924.69 4.05014 1.29784 0
M  V30 19561 N 1923.01 -0.166818 1.56715 0
M  V30 19562 C 1924.26 -0.880972 1.81888 0
M  V30 19563 C 1924.58 -1.82586 0.68465 0
M  V30 19564 O 1923.85 -1.93663 -0.295173 0
M  V30 19565 H 1922.43 -0.32831 0.670985 0
M  V30 19566 H 1925.09 -0.165558 1.94196 0
M  V30 19567 H 1924.19 -1.45517 2.761 0
M  V30 19568 N 1924.49 -1.51463 -0.435524 0
M  V30 19569 C 1925.44 -1.69292 -1.52723 0
M  V30 19570 C 1926.42 -0.54689 -1.51321 0
M  V30 19571 O 1927.61 -0.802879 -1.57743 0
M  V30 19572 C 1924.74 -1.82299 -2.90898 0
M  V30 19573 C 1923.83 -3.02692 -2.9705 0
M  V30 19574 N 1924.22 -4.25836 -2.72942 0
M  V30 19575 C 1922.52 -3.01983 -3.2821 0
M  V30 19576 C 1923.22 -5.07109 -2.84983 0
M  V30 19577 N 1922.19 -4.41794 -3.16731 0
M  V30 19578 H 1926 -2.62166 -1.32839 0
M  V30 19579 H 1923.51 -1.49135 -0.642858 0
M  V30 19580 H 1925.51 -1.93183 -3.6944 0
M  V30 19581 H 1924.17 -0.906076 -3.11802 0
M  V30 19582 H 1925.18 -4.5475 -2.47836 0
M  V30 19583 H 1921.85 -2.1993 -3.54876 0
M  V30 19584 H 1923.24 -6.1514 -2.70283 0
M  V30 19585 N 1925.96 0.691085 -1.4164 0
M  V30 19586 C 1927.19 1.47764 -1.44393 0
M  V30 19587 C 1927.6 1.89137 -0.0489239 0
M  V30 19588 O 1926.95 1.57642 0.943111 0
M  V30 19589 C 1927.01 2.76837 -2.29351 0
M  V30 19590 C 1926.67 2.5764 -3.77453 0
M  V30 19591 C 1927.67 2.23295 -4.69505 0
M  V30 19592 C 1925.35 2.73141 -4.21544 0
M  V30 19593 C 1927.35 2.04696 -6.03638 0
M  V30 19594 C 1925.03 2.54158 -5.5574 0
M  V30 19595 C 1926.03 2.19987 -6.46603 0
M  V30 19596 O 1925.72 2.01173 -7.78322 0
M  V30 19597 H 1925.45 0.461744 -0.493729 0
M  V30 19598 H 1928.01 0.857998 -1.86621 0
M  V30 19599 H 1926.24 3.41223 -1.81944 0
M  V30 19600 H 1927.93 3.38659 -2.23752 0
M  V30 19601 H 1928.69 2.1093 -4.36731 0
M  V30 19602 H 1924.57 2.98721 -3.51122 0
M  V30 19603 H 1928.11 1.77947 -6.74523 0
M  V30 19604 H 1924.01 2.66115 -5.88093 0
M  V30 19605 H 1924.78 2.15901 -7.89512 0
M  V30 19606 N 1927.44 1.27542 0.925789 0
M  V30 19607 C 1928.69 1.13767 1.67038 0
M  V30 19608 C 1929.01 -0.316603 1.92413 0
M  V30 19609 O 1928.28 -1.22124 1.53175 0
M  V30 19610 H 1926.86 0.41803 0.61908 0
M  V30 19611 H 1929.52 1.60097 1.11153 0
M  V30 19612 H 1928.62 1.66818 2.63777 0
M  V30 19613 N 1928.92 -1.13255 1.09595 0
M  V30 19614 C 1930.17 -1.84571 0.833056 0
M  V30 19615 C 1930.5 -1.83622 -0.641341 0
M  V30 19616 O 1929.75 -1.27084 -1.48823 0
M  V30 19617 C 1930.05 -3.32304 1.31562 0
M  V30 19618 C 1929.72 -3.53433 2.79993 0
M  V30 19619 C 1928.38 -3.58907 3.2053 0
M  V30 19620 C 1930.73 -3.61259 3.75687 0
M  V30 19621 C 1928.06 -3.69744 4.55529 0
M  V30 19622 C 1930.41 -3.73624 5.10478 0
M  V30 19623 C 1929.07 -3.77352 5.50601 0
M  V30 19624 H 1928.34 -0.675393 0.304837 0
M  V30 19625 H 1930.99 -1.33697 1.37103 0
M  V30 19626 H 1929.3 -3.85542 0.697482 0
M  V30 19627 H 1930.99 -3.85935 1.0888 0
M  V30 19628 H 1927.58 -3.49828 2.47625 0
M  V30 19629 H 1931.77 -3.56308 3.45483 0
M  V30 19630 H 1927.02 -3.70897 4.8605 0
M  V30 19631 H 1931.2 -3.78623 5.84481 0
M  V30 19632 H 1928.82 -3.85501 6.55204 0
M  V30 19633 N 1930.4 -0.883401 -1.30514 0
M  V30 19634 C 1931.81 -0.55179 -1.7836 0
M  V30 19635 C 1932.16 0.93196 -1.72653 0
M  V30 19636 O 1931.29 1.72818 -1.30242 0
M  V30 19637 C 1931.88 -0.994845 -3.23865 0
M  V30 19638 C 1930.44 -0.714672 -3.69553 0
M  V30 19639 C 1929.59 -1.1787 -2.51002 0
M  V30 19640 H 1932.54 -1.06778 -1.17406 0
M  V30 19641 H 1932.56 -0.32315 -3.79125 0
M  V30 19642 H 1932.07 -2.07477 -3.27986 0
M  V30 19643 H 1930.17 0.353326 -3.70921 0
M  V30 19644 H 1930.28 -1.30112 -4.61094 0
M  V30 19645 H 1928.65 -0.598079 -2.47578 0
M  V30 19646 H 1929.43 -2.26633 -2.57862 0
M  V30 19647 N 1931.88 1.43833 -0.644194 0
M  V30 19648 C 1933.29 1.56542 -0.310952 0
M  V30 19649 C 1933.49 1.62946 1.18536 0
M  V30 19650 O 1932.55 1.57961 1.96989 0
M  V30 19651 C 1933.86 2.83074 -1.01437 0
M  V30 19652 C 1935.41 2.96805 -0.993759 0
M  V30 19653 C 1935.88 4.26158 -1.6779 0
M  V30 19654 N 1937.38 4.33002 -1.64511 0
M  V30 19655 C 1938.11 5.31837 -2.14328 0
M  V30 19656 N 1937.61 6.37003 -2.72394 0
M  V30 19657 N 1939.4 5.23431 -2.04881 0
M  V30 19658 H 1931.55 1.37919 -1.61531 0
M  V30 19659 H 1933.81 0.661778 -0.678789 0
M  V30 19660 H 1933.52 2.84372 -2.06943 0
M  V30 19661 H 1933.39 3.73016 -0.560273 0
M  V30 19662 H 1935.78 2.95053 0.0528599 0
M  V30 19663 H 1935.86 2.08177 -1.48647 0
M  V30 19664 H 1935.51 4.28671 -2.72404 0
M  V30 19665 H 1935.44 5.13667 -1.15992 0
M  V30 19666 H 1937.93 3.57621 -1.22129 0
M  V30 19667 H 1938.24 7.08724 -3.08107 0
M  V30 19668 H 1936.58 6.37652 -2.76451 0
M  V30 19669 H 1939.78 4.40186 -1.59229 0
M  V30 19670 H 1939.95 6.00301 -2.44015 0
M  V30 19671 N 1933.35 0.385544 1.52811 0
M  V30 19672 C 1934.59 -0.197667 2.03442 0
M  V30 19673 C 1934.96 -1.44354 1.26593 0
M  V30 19674 O 1936.16 -2.10367 1.67329 0
M  V30 19675 C 1934.43 -0.462806 3.54391 0
M  V30 19676 S 1935.99 -1.01684 4.26856 0
M  V30 19677 H 1932.81 -0.0560094 0.70879 0
M  V30 19678 H 1935.41 0.533024 1.88093 0
M  V30 19679 H 1934.11 0.451113 4.07913 0
M  V30 19680 H 1933.64 -1.22202 3.73939 0
M  V30 19681 H 1935.66 -2.29952 4.39701 0
M  V30 19682 N 1934.83 -1.57178 0.115259 0
M  V30 19683 C 1935.78 -2.15114 -0.836331 0
M  V30 19684 C 1936.75 -1.07511 -1.26612 0
M  V30 19685 O 1937.93 -1.354 -1.3443 0
M  V30 19686 C 1935.07 -2.75187 -2.08245 0
M  V30 19687 C 1934.19 -3.97086 -1.70137 0
M  V30 19688 C 1933.32 -4.45258 -2.89687 0
M  V30 19689 C 1932.36 -5.59697 -2.47801 0
M  V30 19690 N 1931.5 -6.0263 -3.60252 0
M  V30 19691 H 1936.34 -2.96106 -0.335434 0
M  V30 19692 H 1933.88 -1.46293 -0.15388 0
M  V30 19693 H 1935.83 -3.08145 -2.81252 0
M  V30 19694 H 1934.46 -1.96891 -2.558 0
M  V30 19695 H 1933.52 -3.70313 -0.870192 0
M  V30 19696 H 1934.83 -4.80085 -1.35352 0
M  V30 19697 H 1933.98 -4.80105 -3.70923 0
M  V30 19698 H 1932.72 -3.61201 -3.27696 0
M  V30 19699 H 1931.73 -5.24458 -1.64997 0
M  V30 19700 H 1932.95 -6.45517 -2.10913 0
M  V30 19701 H 1930.9 -5.21515 -3.97942 0
M  V30 19702 H 1930.81 -6.80474 -3.29379 0
M  V30 19703 H 1932.08 -6.42114 -4.41939 0
M  V30 19704 N 1936.31 0.158505 -1.56801 0
M  V30 19705 C 1937.72 0.71972 -1.7227 0
M  V30 19706 C 1938.07 1.822 -0.72784 0
M  V30 19707 O 1937.2 2.1613 0.108043 0
M  V30 19708 C 1937.79 1.31231 -3.12352 0
M  V30 19709 C 1936.35 1.82021 -3.29462 0
M  V30 19710 C 1935.5 0.704157 -2.68211 0
M  V30 19711 H 1938.45 -0.0670395 -1.58558 0
M  V30 19712 H 1938.47 2.18208 -3.11714 0
M  V30 19713 H 1937.98 0.509823 -3.84737 0
M  V30 19714 H 1936.08 2.64873 -2.62056 0
M  V30 19715 H 1936.2 1.95684 -4.37315 0
M  V30 19716 H 1934.56 1.12787 -2.28366 0
M  V30 19717 H 1935.34 -0.0866929 -3.43191 0
M  V30 19718 N 1937.79 1.51692 0.427485 0
M  V30 19719 C 1939.03 1.66512 1.18545 0
M  V30 19720 C 1939.39 0.377884 1.88245 0
M  V30 19721 O 1940.59 0.401977 2.65777 0
M  V30 19722 C 1938.87 2.84155 2.16774 0
M  V30 19723 S 1940.42 3.19359 3.00925 0
M  V30 19724 H 1937.24 0.586537 0.401865 0
M  V30 19725 H 1939.84 1.89629 0.475503 0
M  V30 19726 H 1938.55 3.7611 1.64224 0
M  V30 19727 H 1938.08 2.63256 2.92335 0
M  V30 19728 H 1940.09 2.66556 4.18524 0
M  V30 19729 N 1939.27 -0.683564 1.42004 0
M  V30 19730 C 1940.49 -1.47711 1.45589 0
M  V30 19731 C 1940.92 -1.87984 0.0661307 0
M  V30 19732 O 1940.28 -1.55425 -0.933428 0
M  V30 19733 C 1940.32 -2.70824 2.3809 0
M  V30 19734 O 1939.43 -3.68766 1.84622 0
M  V30 19735 H 1938.77 -0.444102 0.493629 0
M  V30 19736 H 1941.3 -0.839192 1.86598 0
M  V30 19737 H 1941.31 -3.18996 2.54373 0
M  V30 19738 H 1939.98 -2.4085 3.39063 0
M  V30 19739 H 1938.56 -3.27756 1.77849 0
M  V30 19740 N 1940.75 -1.28031 -0.919012 0
M  V30 19741 C 1941.99 -1.16124 -1.6821 0
M  V30 19742 C 1942.35 0.286502 -1.8985 0
M  V30 19743 O 1943.55 0.528171 -2.6356 0
M  V30 19744 C 1941.82 -1.93232 -3.0066 0
M  V30 19745 S 1943.38 -1.97638 -3.91771 0
M  V30 19746 H 1940.2 -0.4144 -0.577749 0
M  V30 19747 H 1942.8 -1.62059 -1.09349 0
M  V30 19748 H 1941.5 -2.97593 -2.82607 0
M  V30 19749 H 1941.04 -1.47825 -3.6457 0
M  V30 19750 H 1943.05 -1.07908 -4.84325 0
M  V30 19751 N 1942.22 1.12672 -1.10194 0
M  V30 19752 C 1943.47 1.83763 -0.841168 0
M  V30 19753 C 1943.79 1.84369 0.635061 0
M  V30 19754 O 1943.06 1.30504 1.46101 0
M  V30 19755 H 1941.64 0.680461 -0.308192 0
M  V30 19756 H 1944.3 1.36447 -1.3917 0
M  V30 19757 H 1943.4 2.88034 -1.20178 0
M  V30 19758 N 1943.7 0.89031 1.30043 0
M  V30 19759 C 1945.12 0.585066 1.4849 0
M  V30 19760 C 1945.32 -0.87585 1.81469 0
M  V30 19761 O 1944.37 -1.6567 1.90551 0
M  V30 19762 C 1945.69 1.50281 2.60454 0
M  V30 19763 C 1947.23 1.50701 2.74332 0
M  V30 19764 C 1947.71 2.41081 3.89415 0
M  V30 19765 N 1949.2 2.39074 3.96734 0
M  V30 19766 C 1949.94 3.05715 4.85104 0
M  V30 19767 N 1949.43 3.81601 5.78232 0
M  V30 19768 N 1951.22 2.9492 4.78517 0
M  V30 19769 H 1943.38 1.83532 1.0691 0
M  V30 19770 H 1945.64 0.785901 0.530155 0
M  V30 19771 H 1945.34 2.54327 2.42921 0
M  V30 19772 H 1945.22 1.21634 3.5705 0
M  V30 19773 H 1947.61 0.474032 2.91268 0
M  V30 19774 H 1947.69 1.83381 1.7834 0
M  V30 19775 H 1947.33 3.44466 3.73236 0
M  V30 19776 H 1947.26 2.05714 4.84757 0
M  V30 19777 H 1949.75 1.83932 3.30117 0
M  V30 19778 H 1950.06 4.29528 6.42437 0
M  V30 19779 H 1948.41 3.85708 5.78147 0
M  V30 19780 H 1951.6 2.35158 4.04745 0
M  V30 19781 H 1951.77 3.47132 5.47178 0
M  V30 19782 N 1945.18 -1.43489 0.651812 0
M  V30 19783 C 1946.6 -1.56374 0.31925 0
M  V30 19784 C 1946.8 -1.63573 -1.1767 0
M  V30 19785 O 1945.85 -1.59003 -1.96149 0
M  V30 19786 C 1947.16 -2.82532 1.02937 0
M  V30 19787 C 1948.71 -2.96274 1.00949 0
M  V30 19788 C 1949.19 -4.25262 1.70047 0
M  V30 19789 N 1950.68 -4.32123 1.66805 0
M  V30 19790 C 1951.41 -5.30693 2.17146 0
M  V30 19791 N 1950.91 -6.3555 2.75769 0
M  V30 19792 N 1952.7 -5.22337 2.07654 0
M  V30 19793 H 1944.85 -1.3706 1.6226 0
M  V30 19794 H 1947.12 -0.658169 0.682289 0
M  V30 19795 H 1946.82 -2.83271 2.08448 0
M  V30 19796 H 1946.7 -3.72713 0.580047 0
M  V30 19797 H 1949.08 -2.95077 -0.0372118 0
M  V30 19798 H 1949.16 -2.07386 1.49749 0
M  V30 19799 H 1948.81 -4.2722 2.74673 0
M  V30 19800 H 1948.74 -5.13044 1.18714 0
M  V30 19801 H 1951.23 -3.56968 1.24024 0
M  V30 19802 H 1951.54 -7.0708 3.11861 0
M  V30 19803 H 1949.89 -6.36177 2.79829 0
M  V30 19804 H 1953.08 -4.39336 1.61561 0
M  V30 19805 H 1953.25 -5.98998 2.47195 0
M  V30 19806 N 1946.66 -0.393643 -1.52605 0
M  V30 19807 C 1947.59 0.430786 -2.29492 0
M  V30 19808 C 1948.57 1.0597 -1.33058 0
M  V30 19809 O 1949.75 1.07165 -1.61955 0
M  V30 19810 C 1946.88 1.55599 -3.10494 0
M  V30 19811 C 1945.84 1.05289 -4.14847 0
M  V30 19812 C 1945.16 2.2705 -4.841 0
M  V30 19813 C 1946.46 0.117789 -5.22167 0
M  V30 19814 H 1948.16 -0.210741 -2.98657 0
M  V30 19815 H 1945.7 -0.102795 -1.43633 0
M  V30 19816 H 1947.66 2.1396 -3.63042 0
M  V30 19817 H 1946.38 2.22517 -2.39069 0
M  V30 19818 H 1945.04 0.491788 -3.63286 0
M  V30 19819 H 1944.69 2.92487 -4.09219 0
M  V30 19820 H 1944.39 1.94047 -5.54635 0
M  V30 19821 H 1945.91 2.86045 -5.39454 0
M  V30 19822 H 1947.33 0.609718 -5.70049 0
M  V30 19823 H 1945.72 -0.122689 -5.99975 0
M  V30 19824 H 1946.79 -0.832053 -4.77708 0
M  V30 19825 N 1948.14 1.57115 -0.123593 0
M  V30 19826 C 1949.38 1.97238 0.536324 0
M  V30 19827 C 1949.74 1.00568 1.63554 0
M  V30 19828 O 1950.94 1.29647 2.35468 0
M  V30 19829 C 1949.21 3.41596 1.05106 0
M  V30 19830 S 1950.77 4.03734 1.71886 0
M  V30 19831 H 1947.59 0.689335 0.17418 0
M  V30 19832 H 1950.19 1.94371 -0.209763 0
M  V30 19833 H 1948.89 4.09698 0.239937 0
M  V30 19834 H 1948.43 3.48123 1.83231 0
M  V30 19835 H 1950.44 3.94867 3.0049 0
M  V30 19836 N 1949.61 -0.150187 1.56883 0
M  V30 19837 C 1950.52 -1.20504 2.01286 0
M  V30 19838 C 1951.54 -1.47204 0.927733 0
M  V30 19839 O 1952.72 -1.58937 1.23697 0
M  V30 19840 C 1949.78 -2.51932 2.38184 0
M  V30 19841 C 1948.84 -2.32906 3.60629 0
M  V30 19842 C 1948.07 -3.58067 3.95757 0
M  V30 19843 O 1948.3 -4.64119 3.31587 0
M  V30 19844 O 1947.23 -3.5092 4.89018 0
M  V30 19845 H 1951.06 -0.858075 2.91326 0
M  V30 19846 H 1948.64 -0.358669 1.45031 0
M  V30 19847 H 1950.52 -3.29423 2.6279 0
M  V30 19848 H 1949.2 -2.86165 1.513 0
M  V30 19849 H 1948.11 -1.53377 3.41213 0
M  V30 19850 H 1949.44 -2.0359 4.4812 0
M  V30 19851 N 1951.09 -1.51916 -0.419434 0
M  V30 19852 C 1952 -1.77393 -1.53522 0
M  V30 19853 C 1953.02 -0.65897 -1.61039 0
M  V30 19854 O 1954.19 -0.943237 -1.77947 0
M  V30 19855 C 1951.26 -1.90988 -2.89352 0
M  V30 19856 C 1950.32 -3.14878 -2.91805 0
M  V30 19857 C 1949.55 -3.27815 -4.21157 0
M  V30 19858 O 1949.78 -2.4626 -5.14502 0
M  V30 19859 O 1948.71 -4.20906 -4.30258 0
M  V30 19860 H 1952.54 -2.72079 -1.34932 0
M  V30 19861 H 1950.12 -1.36635 -0.604259 0
M  V30 19862 H 1952 -2.01812 -3.69932 0
M  V30 19863 H 1950.68 -0.994906 -3.08031 0
M  V30 19864 H 1949.59 -3.0952 -2.10115 0
M  V30 19865 H 1950.92 -4.06123 -2.78073 0
M  V30 19866 N 1952.57 0.676023 -1.42365 0
M  V30 19867 C 1953.5 1.80071 -1.40178 0
M  V30 19868 C 1954.48 1.60406 -0.266221 0
M  V30 19869 O 1955.67 1.82895 -0.456245 0
M  V30 19870 C 1952.79 3.17052 -1.19147 0
M  V30 19871 C 1951.84 3.55468 -2.35679 0
M  V30 19872 S 1952.67 3.58037 -3.98208 0
M  V30 19873 C 1953.83 4.97712 -3.79517 0
M  V30 19874 H 1954.06 1.81652 -2.35351 0
M  V30 19875 H 1951.59 0.846573 -1.29122 0
M  V30 19876 H 1953.55 3.9612 -1.07699 0
M  V30 19877 H 1952.21 3.13058 -0.255607 0
M  V30 19878 H 1951.41 4.55031 -2.16709 0
M  V30 19879 H 1951.01 2.83757 -2.43635 0
M  V30 19880 H 1953.3 5.85758 -3.40432 0
M  V30 19881 H 1954.24 5.2173 -4.78752 0
M  V30 19882 H 1954.65 4.70172 -3.12407 0
M  V30 19883 N 1954.05 1.28517 0.912209 0
M  V30 19884 C 1955.28 1.18615 1.69523 0
M  V30 19885 C 1955.69 -0.254997 1.8707 0
M  V30 19886 O 1955.05 -1.17217 1.3988 0
M  V30 19887 C 1955.1 1.88188 3.08655 0
M  V30 19888 O 1954.82 3.26673 2.91918 0
M  V30 19889 C 1956.32 1.84607 4.03032 0
M  V30 19890 H 1953.54 0.411679 0.529869 0
M  V30 19891 H 1956.09 1.69668 1.14162 0
M  V30 19892 H 1954.24 1.41001 3.60829 0
M  V30 19893 H 1954.65 3.61538 3.79987 0
M  V30 19894 H 1956.13 2.37874 4.98116 0
M  V30 19895 H 1956.61 0.818787 4.315 0
M  V30 19896 H 1957.21 2.3148 3.56787 0
M  V30 19897 N 1955.53 -1.12086 1.1079 0
M  V30 19898 C 1956.77 -1.83314 0.850901 0
M  V30 19899 C 1957.1 -1.84703 -0.625275 0
M  V30 19900 O 1956.37 -1.31277 -1.45406 0
M  V30 19901 H 1954.95 -0.678817 0.311797 0
M  V30 19902 H 1957.61 -1.35707 1.39891 0
M  V30 19903 H 1956.7 -2.87393 1.21704 0
M  V30 19904 N 1957 -0.897194 -1.29569 0
M  V30 19905 C 1957.94 -0.330353 -2.26807 0
M  V30 19906 C 1958.95 0.521937 -1.54207 0
M  V30 19907 O 1960.14 0.339502 -1.75242 0
M  V30 19908 C 1957.24 0.547835 -3.34443 0
M  V30 19909 C 1956.41 -0.278159 -4.36515 0
M  V30 19910 C 1955.47 0.532461 -5.23499 0
M  V30 19911 O 1954.5 -0.0491596 -5.69179 0
M  V30 19912 N 1955.7 1.83908 -5.50598 0
M  V30 19913 H 1958.46 -1.16608 -2.76084 0
M  V30 19914 H 1956.02 -0.761424 -1.42877 0
M  V30 19915 H 1958.02 1.09647 -3.89563 0
M  V30 19916 H 1956.59 1.28425 -2.85001 0
M  V30 19917 H 1955.81 -1.00822 -3.81089 0
M  V30 19918 H 1957.09 -0.843929 -5.01752 0
M  V30 19919 H 1956.49 2.33437 -5.1529 0
M  V30 19920 H 1955.05 2.33489 -6.08544 0
M  V30 19921 N 1958.48 1.43142 -0.659413 0
M  V30 19922 C 1959.72 2.03615 -0.179015 0
M  V30 19923 C 1960.09 1.50933 1.18673 0
M  V30 19924 O 1961.29 2.03091 1.76089 0
M  V30 19925 C 1959.56 3.56866 -0.195375 0
M  V30 19926 S 1961.12 4.38267 0.216271 0
M  V30 19927 H 1957.94 0.707032 -0.0750079 0
M  V30 19928 H 1960.54 1.75118 -0.869132 0
M  V30 19929 H 1959.24 3.92708 -1.19199 0
M  V30 19930 H 1958.77 3.90013 0.515078 0
M  V30 19931 H 1960.79 4.74431 1.4536 0
M  V30 19932 N 1959.96 0.40173 1.52394 0
M  V30 19933 C 1961.38 0.0522587 1.59514 0
M  V30 19934 C 1961.58 -1.43455 1.41502 0
M  V30 19935 O 1960.63 -2.20053 1.23825 0
M  V30 19936 C 1961.95 0.540559 2.95801 0
M  V30 19937 C 1963.49 0.497892 3.09015 0
M  V30 19938 C 1963.97 0.962581 4.4777 0
M  V30 19939 N 1965.46 0.919099 4.5399 0
M  V30 19940 C 1966.19 1.24993 5.59611 0
M  V30 19941 N 1965.69 1.65185 6.72819 0
M  V30 19942 N 1967.48 1.17038 5.49781 0
M  V30 19943 H 1959.63 1.36954 1.6235 0
M  V30 19944 H 1961.9 0.562141 0.763349 0
M  V30 19945 H 1961.6 1.57946 3.14239 0
M  V30 19946 H 1961.48 -0.0537516 3.77162 0
M  V30 19947 H 1963.86 -0.531947 2.90266 0
M  V30 19948 H 1963.95 1.12816 2.29578 0
M  V30 19949 H 1963.59 1.99071 4.67261 0
M  V30 19950 H 1963.52 0.309196 5.25691 0
M  V30 19951 H 1966.01 0.623503 3.72721 0
M  V30 19952 H 1966.32 1.88759 7.49393 0
M  V30 19953 H 1964.67 1.69082 6.74119 0
M  V30 19954 H 1967.86 0.855299 4.6022 0
M  V30 19955 H 1968.03 1.43151 6.3199 0
M  V30 19956 N 1961.44 -1.57047 0.131923 0
M  V30 19957 C 1962.68 -1.9752 -0.525856 0
M  V30 19958 C 1963.04 -1.01434 -1.63019 0
M  V30 19959 O 1964.24 -1.30894 -2.34777 0
M  V30 19960 C 1962.51 -3.42148 -1.03293 0
M  V30 19961 S 1964.07 -4.04639 -1.69742 0
M  V30 19962 H 1960.89 -0.690249 -0.170522 0
M  V30 19963 H 1963.49 -1.94257 0.220068 0
M  V30 19964 H 1962.2 -4.09819 -0.218206 0
M  V30 19965 H 1961.73 -3.4909 -1.81383 0
M  V30 19966 H 1963.74 -3.96455 -2.98392 0
M  V30 19967 N 1962.92 0.141865 -1.5696 0
M  V30 19968 C 1964.33 0.701408 -1.73024 0
M  V30 19969 C 1964.68 1.81418 -0.747124 0
M  V30 19970 O 1963.8 2.16233 0.0851134 0
M  V30 19971 C 1964.4 1.2791 -3.13727 0
M  V30 19972 C 1962.96 1.78516 -3.31374 0
M  V30 19973 C 1962.1 0.67567 -2.68942 0
M  V30 19974 H 1965.06 -0.083853 -1.58478 0
M  V30 19975 H 1965.08 2.1489 -3.14011 0
M  V30 19976 H 1964.59 0.468988 -3.85256 0
M  V30 19977 H 1962.69 2.62078 -2.6485 0
M  V30 19978 H 1962.8 1.91034 -4.39366 0
M  V30 19979 H 1961.17 1.10358 -2.2955 0
M  V30 19980 H 1961.95 -0.123088 -3.43079 0
M  V30 19981 N 1964.39 1.52136 0.411372 0
M  V30 19982 C 1965.81 1.58274 0.990272 0
M  V30 19983 C 1966.16 0.421874 1.91611 0
M  V30 19984 O 1965.28 -0.458058 2.11497 0
M  V30 19985 C 1965.88 2.86855 1.80276 0
M  V30 19986 C 1964.44 2.95478 2.33173 0
M  V30 19987 C 1963.58 2.5319 1.13093 0
M  V30 19988 H 1966.53 1.57538 0.191687 0
M  V30 19989 H 1966.55 2.72082 2.65992 0
M  V30 19990 H 1966.07 3.71326 1.12866 0
M  V30 19991 H 1964.17 2.15496 3.03961 0
M  V30 19992 H 1964.28 3.99674 2.64192 0
M  V30 19993 H 1962.64 2.06986 1.48421 0
M  V30 19994 H 1963.43 3.40032 0.472529 0
M  V30 19995 N 1965.87 -0.668464 1.42721 0
M  V30 19996 C 1967.29 -0.982344 1.25786 0
M  V30 19997 C 1967.49 -2.0081 0.166593 0
M  V30 19998 O 1966.55 -2.48273 -0.460069 0
M  V30 19999 C 1967.86 -1.48112 2.61693 0
M  V30 20000 C 1969.41 -1.59856 2.691 0
M  V30 20001 C 1969.88 -2.13128 4.05389 0
M  V30 20002 N 1971.37 -2.20452 4.07376 0
M  V30 20003 C 1972.11 -2.62761 5.09651 0
M  V30 20004 N 1971.6 -3.04475 6.22308 0
M  V30 20005 N 1973.4 -2.62565 4.97007 0
M  V30 20006 H 1965.55 0.0105662 2.12397 0
M  V30 20007 H 1967.81 -0.0578161 0.946235 0
M  V30 20008 H 1967.52 -0.801884 3.42436 0
M  V30 20009 H 1967.39 -2.45879 2.86048 0
M  V30 20010 H 1969.78 -2.26885 1.88699 0
M  V30 20011 H 1969.86 -0.605621 2.48527 0
M  V30 20012 H 1969.5 -1.46707 4.8625 0
M  V30 20013 H 1969.43 -3.13225 4.23317 0
M  V30 20014 H 1971.92 -1.91049 3.2605 0
M  V30 20015 H 1972.24 -3.35463 6.96193 0
M  V30 20016 H 1970.58 -3.02317 6.25803 0
M  V30 20017 H 1973.77 -2.29343 4.08068 0
M  V30 20018 H 1973.95 -2.95217 5.76846 0
M  V30 20019 N 1967.35 -1.28999 -0.905381 0
M  V30 20020 C 1968.58 -1.19512 -1.68892 0
M  V30 20021 C 1968.99 0.245073 -1.87203 0
M  V30 20022 O 1968.35 1.16474 -1.405 0
M  V30 20023 C 1968.4 -1.89822 -3.07652 0
M  V30 20024 O 1968.12 -3.28217 -2.90181 0
M  V30 20025 C 1969.62 -1.86742 -4.02048 0
M  V30 20026 H 1966.84 -0.414483 -0.527678 0
M  V30 20027 H 1969.39 -1.70271 -1.1326 0
M  V30 20028 H 1967.54 -1.42913 -3.60076 0
M  V30 20029 H 1967.96 -3.63549 -3.78064 0
M  V30 20030 H 1969.43 -2.40512 -4.96848 0
M  V30 20031 H 1969.91 -0.841659 -4.3106 0
M  V30 20032 H 1970.51 -2.33369 -3.55555 0
M  V30 20033 N 1968.83 1.11497 -1.11383 0
M  V30 20034 C 1970.08 1.83494 -0.863592 0
M  V30 20035 C 1970.41 1.84395 0.609259 0
M  V30 20036 O 1969.68 1.2966 1.44978 0
M  V30 20037 C 1969.97 3.30701 -1.42509 0
M  V30 20038 C 1969.82 3.38197 -2.96552 0
M  V30 20039 C 1971.14 4.26756 -1.07553 0
M  V30 20040 H 1968.26 0.666209 -0.315173 0
M  V30 20041 H 1970.9 1.30745 -1.37861 0
M  V30 20042 H 1969.05 3.75752 -0.987053 0
M  V30 20043 H 1970.72 3.01709 -3.48955 0
M  V30 20044 H 1968.96 2.78436 -3.3265 0
M  V30 20045 H 1969.64 4.41804 -3.30927 0
M  V30 20046 H 1972.11 3.89882 -1.45367 0
M  V30 20047 H 1970.99 5.28143 -1.49519 0
M  V30 20048 H 1971.25 4.42098 0.0137773 0
M  V30 20049 N 1970.31 0.904053 1.29092 0
M  V30 20050 C 1971.72 0.600783 1.47861 0
M  V30 20051 C 1971.92 -0.856554 1.82388 0
M  V30 20052 O 1970.98 -1.6364 1.92297 0
M  V30 20053 C 1972.29 1.53035 2.58845 0
M  V30 20054 C 1973.84 1.53602 2.72719 0
M  V30 20055 C 1974.32 2.45197 3.86836 0
M  V30 20056 N 1975.81 2.43269 3.94176 0
M  V30 20057 C 1976.54 3.10843 4.81834 0
M  V30 20058 N 1976.04 3.87712 5.74153 0
M  V30 20059 N 1977.83 2.99979 4.75362 0
M  V30 20060 H 1969.98 1.84656 1.04957 0
M  V30 20061 H 1972.24 0.791479 0.52179 0
M  V30 20062 H 1971.95 2.5689 2.4021 0
M  V30 20063 H 1971.82 1.25414 3.5574 0
M  V30 20064 H 1974.21 0.504899 2.90749 0
M  V30 20065 H 1974.29 1.85262 1.76385 0
M  V30 20066 H 1973.94 3.48406 3.69562 0
M  V30 20067 H 1973.87 2.10844 4.82548 0
M  V30 20068 H 1976.36 1.87423 3.28148 0
M  V30 20069 H 1976.67 4.36317 6.37846 0
M  V30 20070 H 1975.02 3.91818 5.74024 0
M  V30 20071 H 1978.21 2.39437 4.02228 0
M  V30 20072 H 1978.38 3.52916 5.43465 0
M  V30 20073 N 1971.79 -1.4279 0.666995 0
M  V30 20074 C 1973.2 -1.84821 0.264217 0
M  V30 20075 C 1973.55 -1.55834 -1.19206 0
M  V30 20076 O 1972.67 -1.01422 -1.91161 0
M  V30 20077 C 1973.27 -3.35485 0.47276 0
M  V30 20078 C 1971.83 -3.76195 0.124176 0
M  V30 20079 C 1970.97 -2.66424 0.768989 0
M  V30 20080 H 1973.92 -1.32747 0.869709 0
M  V30 20081 H 1973.95 -3.79487 -0.277532 0
M  V30 20082 H 1973.46 -3.56551 1.53274 0
M  V30 20083 H 1971.56 -3.60738 -0.932667 0
M  V30 20084 H 1971.67 -4.75825 0.559251 0
M  V30 20085 H 1970.04 -2.53906 0.200994 0
M  V30 20086 H 1970.82 -2.90315 1.83227 0
M  V30 20087 N 1973.26 -0.409806 -1.52179 0
M  V30 20088 C 1974.2 0.450738 -2.24724 0
M  V30 20089 C 1975.21 1.00962 -1.27713 0
M  V30 20090 O 1976.4 0.908449 -1.53654 0
M  V30 20091 C 1973.5 1.63947 -2.96605 0
M  V30 20092 C 1972.67 1.20435 -4.20493 0
M  V30 20093 C 1971.73 2.26007 -4.75192 0
M  V30 20094 O 1970.76 1.86569 -5.37755 0
M  V30 20095 N 1971.96 3.58179 -4.56824 0
M  V30 20096 H 1974.72 -0.170894 -2.99212 0
M  V30 20097 H 1972.28 -0.237221 -1.60153 0
M  V30 20098 H 1974.28 2.34138 -3.30093 0
M  V30 20099 H 1972.85 2.16701 -2.25299 0
M  V30 20100 H 1972.07 0.330532 -3.92812 0
M  V30 20101 H 1973.35 0.890608 -5.00945 0
M  V30 20102 H 1972.75 3.92969 -4.0693 0
M  V30 20103 H 1971.31 4.24345 -4.94747 0
M  V30 20104 N 1974.74 1.56975 -0.14025 0
M  V30 20105 C 1975.98 1.97796 0.515374 0
M  V30 20106 C 1976.35 1.02298 1.62478 0
M  V30 20107 O 1977.55 1.32137 2.34079 0
M  V30 20108 C 1975.82 3.42691 1.01477 0
M  V30 20109 S 1977.38 4.05534 1.67594 0
M  V30 20110 H 1974.19 0.691143 0.166859 0
M  V30 20111 H 1976.8 1.94138 -0.230367 0
M  V30 20112 H 1975.5 4.09929 0.19647 0
M  V30 20113 H 1975.03 3.50047 1.79529 0
M  V30 20114 H 1977.05 3.98032 2.96285 0
M  V30 20115 N 1976.22 -0.133539 1.57033 0
M  V30 20116 C 1977.13 -1.18362 2.02553 0
M  V30 20117 C 1978.15 -1.46212 0.943294 0
M  V30 20118 O 1979.32 -1.57616 1.25376 0
M  V30 20119 C 1976.39 -2.49391 2.40842 0
M  V30 20120 C 1975.45 -2.29068 3.63079 0
M  V30 20121 C 1974.68 -3.53849 3.99533 0
M  V30 20122 O 1974.9 -4.60576 3.36491 0
M  V30 20123 O 1973.84 -3.45713 4.92713 0
M  V30 20124 H 1977.66 -0.827128 2.9222 0
M  V30 20125 H 1975.25 -0.343267 1.45403 0
M  V30 20126 H 1977.13 -3.26617 2.66269 0
M  V30 20127 H 1975.81 -2.84544 1.54326 0
M  V30 20128 H 1974.71 -1.49749 3.42821 0
M  V30 20129 H 1976.05 -1.98826 4.50254 0
M  V30 20130 N 1977.7 -1.52352 -0.403298 0
M  V30 20131 C 1978.94 -1.66944 -1.15141 0
M  V30 20132 C 1979.28 -0.401064 -1.90013 0
M  V30 20133 O 1978.55 0.60071 -1.84991 0
M  V30 20134 C 1978.83 -2.89526 -2.14118 0
M  V30 20135 C 1978.69 -4.26428 -1.43104 0
M  V30 20136 C 1980.01 -3.07636 -3.14719 0
M  V30 20137 H 1977.13 -0.607531 -0.417223 0
M  V30 20138 H 1979.77 -1.84919 -0.436447 0
M  V30 20139 H 1977.92 -2.74332 -2.7509 0
M  V30 20140 H 1979.59 -4.53362 -0.852075 0
M  V30 20141 H 1977.83 -4.27563 -0.732965 0
M  V30 20142 H 1978.5 -5.08258 -2.15355 0
M  V30 20143 H 1980.98 -3.21767 -2.63828 0
M  V30 20144 H 1979.86 -3.94909 -3.81232 0
M  V30 20145 H 1980.12 -2.2121 -3.82777 0
M  V30 20146 N 1979.18 0.660885 -1.43074 0
M  V30 20147 C 1980.42 1.43273 -1.45781 0
M  V30 20148 C 1980.78 1.91846 -0.076922 0
M  V30 20149 O 1981.98 2.68792 0.0213041 0
M  V30 20150 C 1980.25 2.58792 -2.46499 0
M  V30 20151 S 1981.81 3.47434 -2.6802 0
M  V30 20152 H 1978.63 0.489164 -0.515984 0
M  V30 20153 H 1981.23 0.76801 -1.79783 0
M  V30 20154 H 1979.93 2.21369 -3.45578 0
M  V30 20155 H 1979.47 3.30122 -2.13969 0
M  V30 20156 H 1981.48 4.55258 -1.97369 0
M  V30 20157 N 1980.65 1.29477 0.898527 0
M  V30 20158 C 1981.56 1.16595 2.03575 0
M  V30 20159 C 1982.58 0.0889285 1.73773 0
M  V30 20160 O 1983.76 0.301228 1.99135 0
M  V30 20161 C 1980.82 0.844745 3.36251 0
M  V30 20162 C 1979.88 2.00573 3.79564 0
M  V30 20163 C 1979.12 1.69975 5.05909 0
M  V30 20164 O 1979.34 0.621246 5.67007 0
M  V30 20165 O 1978.27 2.54809 5.45303 0
M  V30 20166 H 1982.1 2.12098 2.17367 0
M  V30 20167 H 1979.68 1.0894 1.02237 0
M  V30 20168 H 1981.57 0.680229 4.15874 0
M  V30 20169 H 1980.24 -0.080494 3.236 0
M  V30 20170 H 1979.15 2.22549 3.00704 0
M  V30 20171 H 1980.48 2.91221 3.96801 0
M  V30 20172 N 1982.13 -1.10905 1.11972 0
M  V30 20173 C 1983.36 -1.86555 0.894699 0
M  V30 20174 C 1983.78 -1.80434 -0.555801 0
M  V30 20175 O 1983.13 -1.18957 -1.38403 0
M  V30 20176 C 1983.18 -3.35148 1.35492 0
M  V30 20177 O 1982.9 -3.41154 2.74856 0
M  V30 20178 C 1984.41 -4.27687 1.16612 0
M  V30 20179 H 1981.63 -0.589761 0.320037 0
M  V30 20180 H 1984.17 -1.40232 1.48846 0
M  V30 20181 H 1982.32 -3.78955 0.804493 0
M  V30 20182 H 1982.74 -4.3372 2.94936 0
M  V30 20183 H 1984.21 -5.30168 1.53708 0
M  V30 20184 H 1984.69 -4.39072 0.106219 0
M  V30 20185 H 1985.3 -3.8968 1.70381 0
M  V30 20186 N 1983.61 -0.910886 -1.2861 0
M  V30 20187 C 1984.56 -0.368294 -2.25006 0
M  V30 20188 C 1985.54 0.517969 -1.52335 0
M  V30 20189 O 1986.74 0.358159 -1.73338 0
M  V30 20190 C 1983.87 0.393096 -3.41042 0
M  V30 20191 C 1982.95 -0.508724 -4.21038 0
M  V30 20192 N 1983.34 -1.62102 -4.79121 0
M  V30 20193 C 1981.64 -0.308578 -4.44931 0
M  V30 20194 C 1982.34 -2.18055 -5.39284 0
M  V30 20195 N 1981.32 -1.47217 -5.23286 0
M  V30 20196 H 1985.12 -1.21781 -2.67482 0
M  V30 20197 H 1982.63 -0.763212 -1.43349 0
M  V30 20198 H 1984.63 0.798636 -4.09179 0
M  V30 20199 H 1983.29 1.23975 -3.00101 0
M  V30 20200 H 1984.3 -2.00364 -4.77572 0
M  V30 20201 H 1980.98 0.49879 -4.1451 0
M  V30 20202 H 1982.37 -3.11606 -5.95274 0
M  V30 20203 N 1985.09 1.42434 -0.674558 0
M  V30 20204 C 1986.31 2.06399 -0.203545 0
M  V30 20205 C 1986.74 1.50345 1.1304 0
M  V30 20206 O 1986.1 0.621837 1.70302 0
M  V30 20207 C 1986.14 3.60293 -0.148884 0
M  V30 20208 O 1985.25 4.02843 0.882667 0
M  V30 20209 H 1984.59 0.655698 -0.104672 0
M  V30 20210 H 1987.12 1.82572 -0.923502 0
M  V30 20211 H 1987.13 4.07991 0.0273375 0
M  V30 20212 H 1985.8 4.00464 -1.12256 0
M  V30 20213 H 1984.38 3.66694 0.677506 0
M  V30 20214 N 1986.57 0.417871 1.51959 0
M  V30 20215 C 1987.81 -0.155052 2.01906 0
M  V30 20216 C 1988.14 -1.44397 1.30307 0
M  V30 20217 O 1987.4 -1.91556 0.400588 0
M  V30 20218 C 1987.7 -0.440779 3.54672 0
M  V30 20219 C 1987.36 0.759981 4.44449 0
M  V30 20220 C 1986.02 1.08932 4.68708 0
M  V30 20221 C 1988.38 1.56193 4.97246 0
M  V30 20222 C 1985.7 2.22164 5.4301 0
M  V30 20223 C 1988.06 2.68508 5.72788 0
M  V30 20224 C 1986.72 3.01918 5.95316 0
M  V30 20225 H 1985.99 -0.0567377 0.738825 0
M  V30 20226 H 1988.64 0.561082 1.83096 0
M  V30 20227 H 1986.94 -1.23858 3.71707 0
M  V30 20228 H 1988.64 -0.897174 3.90835 0
M  V30 20229 H 1985.23 0.49332 4.25751 0
M  V30 20230 H 1989.41 1.32071 4.78405 0
M  V30 20231 H 1984.67 2.48387 5.58672 0
M  V30 20232 H 1988.84 3.3103 6.12692 0
M  V30 20233 H 1986.47 3.89774 6.52672 0
M  V30 20234 N 1988.04 -1.56898 0.148573 0
M  V30 20235 C 1989.27 -2.00974 -0.512287 0
M  V30 20236 C 1989.69 -1.02801 -1.57523 0
M  V30 20237 O 1989.05 -0.00400411 -1.813 0
M  V30 20238 C 1989.1 -3.43785 -1.08832 0
M  V30 20239 O 1988.2 -3.4862 -2.20313 0
M  V30 20240 H 1987.55 -0.652102 -0.125133 0
M  V30 20241 H 1990.08 -2.03119 0.245769 0
M  V30 20242 H 1990.09 -3.82618 -1.41659 0
M  V30 20243 H 1988.76 -4.14744 -0.309923 0
M  V30 20244 H 1987.34 -3.2163 -1.88702 0
M  V30 20245 N 1989.52 0.125209 -1.57102 0
M  V30 20246 C 1990.77 0.834085 -1.84524 0
M  V30 20247 C 1991.1 1.8017 -0.732742 0
M  V30 20248 O 1990.35 1.93738 0.276448 0
M  V30 20249 C 1990.65 1.62349 -3.18398 0
M  V30 20250 C 1990.32 0.800729 -4.43733 0
M  V30 20251 C 1988.98 0.573817 -4.77766 0
M  V30 20252 C 1991.33 0.226814 -5.20706 0
M  V30 20253 C 1988.66 -0.237364 -5.8622 0
M  V30 20254 C 1991.01 -0.571524 -6.30013 0
M  V30 20255 C 1989.68 -0.80881 -6.62582 0
M  V30 20256 H 1988.95 0.305213 -0.675223 0
M  V30 20257 H 1991.59 0.0967265 -1.91256 0
M  V30 20258 H 1989.9 2.43158 -3.07215 0
M  V30 20259 H 1991.59 2.17583 -3.36836 0
M  V30 20260 H 1988.18 0.987673 -4.17065 0
M  V30 20261 H 1992.37 0.389351 -4.9477 0
M  V30 20262 H 1987.62 -0.430488 -6.09883 0
M  V30 20263 H 1991.8 -1.02325 -6.88841 0
M  V30 20264 H 1989.43 -1.4392 -7.46452 0
M  V30 20265 N 1991 1.52564 0.395213 0
M  V30 20266 C 1991.95 1.73281 1.48181 0
M  V30 20267 C 1992.93 0.586818 1.49817 0
M  V30 20268 O 1994.13 0.844419 1.55559 0
M  V30 20269 C 1991.26 1.89948 2.85963 0
M  V30 20270 C 1990.34 3.10461 2.8892 0
M  V30 20271 N 1990.73 4.32923 2.61556 0
M  V30 20272 C 1989.03 3.10579 3.20088 0
M  V30 20273 C 1989.73 5.14487 2.71438 0
M  V30 20274 N 1988.71 4.50037 3.04906 0
M  V30 20275 H 1992.51 2.65596 1.25841 0
M  V30 20276 H 1990.02 1.50787 0.603091 0
M  V30 20277 H 1992.02 2.0291 3.64188 0
M  V30 20278 H 1990.68 0.988426 3.0929 0
M  V30 20279 H 1991.69 4.61161 2.35692 0
M  V30 20280 H 1988.37 2.29261 3.48921 0
M  V30 20281 H 1989.76 6.22089 2.53879 0
M  V30 20282 N 1992.48 -0.653289 1.43422 0
M  V30 20283 C 1993.89 -1.23446 1.40064 0
M  V30 20284 C 1994.24 -1.95921 0.104677 0
M  V30 20285 O 1993.37 -2.01233 -0.79588 0
M  V30 20286 C 1993.96 -2.24523 2.53722 0
M  V30 20287 C 1992.52 -2.78117 2.53629 0
M  V30 20288 C 1991.67 -1.52759 2.3143 0
M  V30 20289 H 1994.62 -0.445312 1.52324 0
M  V30 20290 H 1994.64 -3.06696 2.25207 0
M  V30 20291 H 1994.15 -1.71746 3.4803 0
M  V30 20292 H 1992.25 -3.34957 1.632 0
M  V30 20293 H 1992.36 -3.25667 3.51394 0
M  V30 20294 H 1990.73 -1.80104 1.80096 0
M  V30 20295 H 1991.51 -1.01917 3.27823 0
M  V30 20296 N 1993.96 -1.29952 -0.891648 0
M  V30 20297 C 1994.89 -1.10092 -1.99887 0
M  V30 20298 C 1995.87 -0.0104614 -1.62597 0
M  V30 20299 O 1997.05 -0.162725 -1.87796 0
M  V30 20300 C 1994.18 -0.677652 -3.31852 0
M  V30 20301 C 1993.22 -1.768 -3.88129 0
M  V30 20302 S 1994.06 -3.36899 -4.16244 0
M  V30 20303 C 1995.21 -2.96459 -5.51237 0
M  V30 20304 H 1995.45 -2.0383 -2.16427 0
M  V30 20305 H 1992.98 -1.1419 -1.03923 0
M  V30 20306 H 1994.94 -0.440168 -4.08133 0
M  V30 20307 H 1993.6 0.240259 -3.1318 0
M  V30 20308 H 1992.79 -1.42397 -4.83466 0
M  V30 20309 H 1992.39 -1.95942 -3.18564 0
M  V30 20310 H 1994.69 -2.44005 -6.32035 0
M  V30 20311 H 1995.63 -3.90678 -5.90573 0
M  V30 20312 H 1996.04 -2.3452 -5.13479 0
M  V30 20313 N 1995.44 1.1031 -1.12559 0
M  V30 20314 C 1996.4 2.14869 -0.79773 0
M  V30 20315 C 1997.4 1.59691 0.188521 0
M  V30 20316 O 1998.59 1.7416 -0.037433 0
M  V30 20317 C 1995.72 3.40394 -0.185665 0
M  V30 20318 H 1996.91 2.45384 -1.72415 0
M  V30 20319 H 1994.47 1.25694 -0.929011 0
M  V30 20320 H 1995.2 3.15499 0.750409 0
M  V30 20321 H 1994.99 3.81731 -0.895771 0
M  V30 20322 H 1996.48 4.17591 0.0271848 0
M  V30 20323 N 1996.91 0.917694 1.28125 0
M  V30 20324 C 1998.16 0.551804 1.94421 0
M  V30 20325 C 1998.48 -0.908163 1.72561 0
M  V30 20326 O 1997.75 -1.64255 1.06758 0
M  V30 20327 H 1996.33 0.201081 0.719427 0
M  V30 20328 H 1998.99 1.16791 1.56032 0
M  V30 20329 H 1998.09 0.749587 3.02965 0
M  V30 20330 N 1998.39 -1.42074 0.682102 0
M  V30 20331 C 1999.63 -2.03304 0.211386 0
M  V30 20332 C 2000 -1.52802 -1.16256 0
M  V30 20333 O 2001.2 -2.05867 -1.72836 0
M  V30 20334 C 1999.47 -3.5651 0.252125 0
M  V30 20335 S 2001.03 -4.38555 -0.146519 0
M  V30 20336 H 1997.84 -0.70575 0.0862467 0
M  V30 20337 H 2000.45 -1.73713 0.896882 0
M  V30 20338 H 1999.15 -3.90762 1.25432 0
M  V30 20339 H 1998.68 -3.90784 -0.452966 0
M  V30 20340 H 2000.7 -4.76684 -1.37794 0
M  V30 20341 N 1999.87 -0.425924 -1.51735 0
M  V30 20342 C 2000.78 0.39769 -2.31205 0
M  V30 20343 C 2001.8 1.0382 -1.39633 0
M  V30 20344 O 2002.97 1.03606 -1.72707 0
M  V30 20345 C 2000.04 1.49033 -3.13033 0
M  V30 20346 C 1999.1 0.871143 -4.20368 0
M  V30 20347 C 1998.33 1.91172 -4.98286 0
M  V30 20348 O 1998.55 3.13232 -4.76699 0
M  V30 20349 O 1997.49 1.5086 -5.82688 0
M  V30 20350 H 2001.31 -0.25075 -3.02663 0
M  V30 20351 H 1998.9 -0.188723 -1.48203 0
M  V30 20352 H 2000.78 2.12428 -3.6394 0
M  V30 20353 H 1999.46 2.12307 -2.44351 0
M  V30 20354 H 1998.36 0.199453 -3.73568 0
M  V30 20355 H 1999.7 0.282077 -4.91391 0
M  V30 20356 N 2001.35 1.56817 -0.156891 0
M  V30 20357 C 2002.6 1.96051 0.490764 0
M  V30 20358 C 2002.92 1.04326 1.64746 0
M  V30 20359 O 2002.19 0.106736 1.95609 0
M  V30 20360 H 2000.77 0.72391 0.184293 0
M  V30 20361 H 2003.43 1.93482 -0.234704 0
M  V30 20362 H 2002.52 3.00007 0.86036 0
M  V30 20363 N 2002.83 -0.116876 1.57166 0
M  V30 20364 C 2004.07 -0.830154 1.86783 0
M  V30 20365 C 2004.43 -1.76951 0.74515 0
M  V30 20366 O 2005.63 -2.52451 0.923144 0
M  V30 20367 C 2003.9 -1.55852 3.21629 0
M  V30 20368 S 2005.46 -2.31308 3.72884 0
M  V30 20369 H 2002.28 -0.277026 0.654811 0
M  V30 20370 H 2004.88 -0.0883909 1.953 0
M  V30 20371 H 2003.58 -0.860448 4.01279 0
M  V30 20372 H 2003.12 -2.34061 3.16194 0
M  V30 20373 H 2005.13 -3.57066 3.44555 0
M  V30 20374 N 2004.3 -1.52772 -0.387116 0
M  V30 20375 C 2005.25 -1.78325 -1.49341 0
M  V30 20376 C 2006.25 -0.651278 -1.5638 0
M  V30 20377 O 2007.45 -0.833795 -1.59524 0
M  V30 20378 H 2003.83 -0.56428 -0.497084 0
M  V30 20379 H 2005.8 -2.70965 -1.24983 0
M  V30 20380 C 2004.55 -1.97079 -2.86453 0
M  V30 20381 H 2003.87 -2.83612 -2.81788 0
M  V30 20382 H 2005.31 -2.18947 -3.63095 0
M  V30 20383 C 2003.77 -0.743842 -3.28586 0
M  V30 20384 O 2004.3 0.0778266 -4.01625 0
M  V30 20385 N 2002.5 -0.573415 -2.84886 0
M  V30 20386 H 2002.05 -1.24319 -2.25616 0
M  V30 20387 H 2002.01 0.24616 -3.13435 0
M  V30 20388 N 2005.78 0.645673 -1.43767 0
M  V30 20389 C 2007.02 1.41719 -1.47293 0
M  V30 20390 C 2007.39 1.91753 -0.0972655 0
M  V30 20391 O 2008.59 2.68799 -0.007206 0
M  V30 20392 C 2006.86 2.56163 -2.4923 0
M  V30 20393 S 2008.42 3.44572 -2.7169 0
M  V30 20394 H 2005.23 0.483664 -0.521143 0
M  V30 20395 H 2007.84 0.748898 -1.80587 0
M  V30 20396 H 2006.54 2.17691 -3.47906 0
M  V30 20397 H 2006.07 3.27834 -2.17458 0
M  V30 20398 H 2008.09 4.53139 -2.02186 0
M  V30 20399 N 2007.26 1.30423 0.884744 0
M  V30 20400 C 2008.48 1.22312 1.67495 0
M  V30 20401 C 2008.91 -0.210723 1.86916 0
M  V30 20402 O 2008.27 -1.15161 1.40027 0
M  V30 20403 C 2008.32 1.95725 3.0286 0
M  V30 20404 O 2007.42 1.28449 3.91886 0
M  V30 20405 H 2006.76 0.423038 0.511796 0
M  V30 20406 H 2009.29 1.72246 1.10419 0
M  V30 20407 H 2009.3 2.04755 3.52901 0
M  V30 20408 H 2007.98 3.00006 2.88044 0
M  V30 20409 H 2006.55 1.27775 3.50326 0
M  V30 20410 N 2008.74 -1.09711 1.13142 0
M  V30 20411 C 2010.15 -1.33866 0.869023 0
M  V30 20412 C 2010.35 -1.95275 -0.49697 0
M  V30 20413 O 2009.41 -2.19723 -1.2441 0
M  V30 20414 C 2010.72 -2.25314 1.99133 0
M  V30 20415 C 2012.27 -2.38831 2.02308 0
M  V30 20416 C 2012.75 -3.33613 3.13793 0
M  V30 20417 N 2014.24 -3.41185 3.13284 0
M  V30 20418 C 2014.97 -4.14516 3.96187 0
M  V30 20419 N 2014.47 -4.90669 4.89097 0
M  V30 20420 N 2016.26 -4.1021 3.84297 0
M  V30 20421 H 2008.41 -0.682242 2.01145 0
M  V30 20422 H 2010.67 -0.36305 0.875728 0
M  V30 20423 H 2010.38 -1.87415 2.97605 0
M  V30 20424 H 2010.25 -3.25681 1.90294 0
M  V30 20425 H 2012.64 -2.75996 1.04451 0
M  V30 20426 H 2012.72 -1.38254 2.1522 0
M  V30 20427 H 2012.37 -2.97172 4.11887 0
M  V30 20428 H 2012.3 -4.34088 2.9812 0
M  V30 20429 H 2014.79 -2.86882 2.45982 0
M  V30 20430 H 2015.1 -5.44045 5.48849 0
M  V30 20431 H 2013.45 -4.89768 4.93105 0
M  V30 20432 H 2016.64 -3.49815 3.11042 0
M  V30 20433 H 2016.81 -4.671 4.49135 0
M  V30 20434 N 2010.22 -0.924476 -1.27637 0
M  V30 20435 C 2011.63 -0.62423 -1.46886 0
M  V30 20436 C 2011.83 0.827429 -1.83728 0
M  V30 20437 O 2010.89 1.6056 -1.94876 0
M  V30 20438 C 2012.2 -1.57134 -2.56378 0
M  V30 20439 C 2013.75 -1.57921 -2.7024 0
M  V30 20440 C 2014.22 -2.5132 -3.82886 0
M  V30 20441 N 2015.72 -2.49509 -3.90256 0
M  V30 20442 C 2016.45 -3.18469 -4.76828 0
M  V30 20443 N 2015.95 -3.96797 -5.67912 0
M  V30 20444 N 2017.74 -3.07503 -4.7053 0
M  V30 20445 H 2009.89 -1.86302 -1.02006 0
M  V30 20446 H 2012.15 -0.79968 -0.509132 0
M  V30 20447 H 2011.86 -2.60679 -2.36092 0
M  V30 20448 H 2011.73 -1.31058 -3.537 0
M  V30 20449 H 2014.12 -0.55109 -2.89909 0
M  V30 20450 H 2014.2 -1.88045 -1.73415 0
M  V30 20451 H 2013.85 -3.54241 -3.63972 0
M  V30 20452 H 2013.78 -2.18494 -4.79132 0
M  V30 20453 H 2016.27 -1.9262 -3.25124 0
M  V30 20454 H 2016.58 -4.4641 -6.30823 0
M  V30 20455 H 2014.92 -4.00901 -5.67718 0
M  V30 20456 H 2018.12 -2.45806 -3.98368 0
M  V30 20457 H 2018.29 -3.61517 -5.37782 0
M  V30 20458 N 2011.69 1.41711 -0.689627 0
M  V30 20459 C 2012.94 2.00925 -0.217655 0
M  V30 20460 C 2013.26 1.5487 1.18491 0
M  V30 20461 O 2012.53 0.776746 1.79843 0
M  V30 20462 H 2011.11 0.742971 -0.0774783 0
M  V30 20463 H 2013.78 1.73421 -0.889456 0
M  V30 20464 H 2012.87 3.11248 -0.230451 0
M  V30 20465 N 2013.17 0.433965 1.51507 0
M  V30 20466 C 2014.4 -0.132403 2.06476 0
M  V30 20467 C 2014.82 -1.3675 1.30172 0
M  V30 20468 O 2014.17 -1.78907 0.360351 0
M  V30 20469 C 2014.22 -0.458007 3.58587 0
M  V30 20470 O 2013.94 0.728069 4.32008 0
M  V30 20471 C 2015.45 -1.07541 4.30058 0
M  V30 20472 H 2012.67 -0.00941889 0.670934 0
M  V30 20473 H 2015.21 0.612075 1.95125 0
M  V30 20474 H 2013.36 -1.15238 3.69863 0
M  V30 20475 H 2013.78 0.450318 5.22563 0
M  V30 20476 H 2015.25 -1.25326 5.37585 0
M  V30 20477 H 2015.73 -2.0555 3.88131 0
M  V30 20478 H 2016.34 -0.420519 4.23216 0
M  V30 20479 N 2014.65 -1.56732 0.165206 0
M  V30 20480 C 2015.9 -1.95872 -0.481368 0
M  V30 20481 C 2016.21 -1.05357 -1.64801 0
M  V30 20482 O 2017.42 -1.34152 -2.36041 0
M  V30 20483 C 2015.87 -3.48264 -0.907766 0
M  V30 20484 C 2015.48 -4.47394 0.232939 0
M  V30 20485 C 2017.23 -3.96235 -1.5231 0
M  V30 20486 C 2015.13 -5.91017 -0.212747 0
M  V30 20487 H 2014.06 -0.731304 -0.183605 0
M  V30 20488 H 2016.71 -1.81755 0.252461 0
M  V30 20489 H 2015.1 -3.57777 -1.69739 0
M  V30 20490 H 2016.27 -4.49591 1.01018 0
M  V30 20491 H 2014.59 -4.09446 0.757843 0
M  V30 20492 H 2017.18 -5.0099 -1.8685 0
M  V30 20493 H 2017.53 -3.38822 -2.41879 0
M  V30 20494 H 2018.06 -3.89713 -0.798029 0
M  V30 20495 H 2014.8 -6.52289 0.648008 0
M  V30 20496 H 2014.32 -5.92141 -0.955479 0
M  V30 20497 H 2016 -6.43638 -0.658675 0
M  V30 20498 N 2016.13 0.10854 -1.57226 0
M  V30 20499 C 2017.04 1.15125 -2.0441 0
M  V30 20500 C 2018.05 1.44693 -0.966436 0
M  V30 20501 O 2019.23 1.55601 -1.27868 0
M  V30 20502 C 2016.3 2.45528 -2.44779 0
M  V30 20503 C 2015.36 2.23263 -3.66677 0
M  V30 20504 C 2014.59 3.47448 -4.05112 0
M  V30 20505 O 2014.81 4.55164 -3.43776 0
M  V30 20506 O 2013.75 3.37831 -4.9815 0
M  V30 20507 H 2017.57 0.780533 -2.93498 0
M  V30 20508 H 2015.16 0.320091 -1.45931 0
M  V30 20509 H 2017.04 3.22339 -2.71432 0
M  V30 20510 H 2015.71 2.82052 -1.58834 0
M  V30 20511 H 2014.62 1.44276 -3.4516 0
M  V30 20512 H 2015.95 1.91638 -4.53361 0
M  V30 20513 N 2017.61 1.52975 0.379009 0
M  V30 20514 C 2018.57 1.77806 1.4463 0
M  V30 20515 C 2019.57 0.648223 1.47155 0
M  V30 20516 O 2020.76 0.916347 1.48151 0
M  V30 20517 C 2017.89 1.88792 2.83849 0
M  V30 20518 H 2019.08 2.73113 1.23892 0
M  V30 20519 H 2016.64 1.43848 0.61135 0
M  V30 20520 H 2017.37 0.955049 3.09918 0
M  V30 20521 H 2017.16 2.70957 2.83416 0
M  V30 20522 H 2018.65 2.09642 3.61165 0
M  V30 20523 N 2019.08 -0.63804 1.44107 0
M  V30 20524 C 2020.05 -1.7322 1.50092 0
M  V30 20525 C 2021.05 -1.56153 0.383763 0
M  V30 20526 O 2022.24 -1.61774 0.646118 0
M  V30 20527 C 2019.37 -3.1224 1.36818 0
M  V30 20528 H 2020.56 -1.6929 2.4755 0
M  V30 20529 H 2018.12 -0.851079 1.31097 0
M  V30 20530 H 2018.85 -3.2177 0.404269 0
M  V30 20531 H 2018.64 -3.26033 2.17818 0
M  V30 20532 H 2020.13 -3.91997 1.43972 0
M  V30 20533 N 2020.56 -1.3089 -0.877815 0
M  V30 20534 C 2021.5 -1.12206 -1.98709 0
M  V30 20535 C 2022.47 -0.0277064 -1.62576 0
M  V30 20536 O 2023.66 -0.182634 -1.87613 0
M  V30 20537 C 2020.78 -0.712811 -3.31114 0
M  V30 20538 C 2019.83 -1.80907 -3.86232 0
M  V30 20539 S 2020.66 -3.41295 -4.12647 0
M  V30 20540 C 2021.82 -3.02289 -5.48062 0
M  V30 20541 H 2022.05 -2.06114 -2.14253 0
M  V30 20542 H 2019.59 -1.15286 -1.02706 0
M  V30 20543 H 2021.54 -0.483431 -4.07643 0
M  V30 20544 H 2020.2 0.207029 -3.13417 0
M  V30 20545 H 2019.4 -1.47517 -4.81928 0
M  V30 20546 H 2019 -1.9931 -3.16467 0
M  V30 20547 H 2021.29 -2.50695 -6.29411 0
M  V30 20548 H 2022.23 -3.9692 -5.86396 0
M  V30 20549 H 2022.64 -2.39953 -5.10963 0
M  V30 20550 N 2022.04 1.0911 -1.13723 0
M  V30 20551 C 2023.45 1.62841 -0.913213 0
M  V30 20552 C 2023.8 1.88346 0.549566 0
M  V30 20553 O 2022.93 1.63558 1.41696 0
M  V30 20554 C 2023.52 2.95835 -1.65127 0
M  V30 20555 C 2022.08 3.46379 -1.47304 0
M  V30 20556 C 2021.23 2.20738 -1.6784 0
M  V30 20557 H 2024.18 0.924297 -1.29006 0
M  V30 20558 H 2024.2 3.63942 -1.11026 0
M  V30 20559 H 2023.71 2.77241 -2.71587 0
M  V30 20560 H 2021.81 3.70092 -0.431605 0
M  V30 20561 H 2021.93 4.23603 -2.23825 0
M  V30 20562 H 2020.29 2.29554 -1.10349 0
M  V30 20563 H 2021.07 2.04659 -2.75626 0
M  V30 20564 N 2023.52 0.931232 1.27145 0
M  V30 20565 C 2024.43 0.438807 2.3046 0
M  V30 20566 C 2025.44 -0.482275 1.67183 0
M  V30 20567 O 2026.62 -0.364225 1.98079 0
M  V30 20568 C 2023.69 -0.297266 3.45423 0
M  V30 20569 C 2022.75 0.659161 4.24209 0
M  V30 20570 C 2021.98 -0.0418787 5.33684 0
M  V30 20571 O 2022.2 -1.26062 5.56295 0
M  V30 20572 O 2021.14 0.631751 5.98575 0
M  V30 20573 H 2024.96 1.29675 2.74624 0
M  V30 20574 H 2022.55 0.696718 1.3216 0
M  V30 20575 H 2024.43 -0.712299 4.15336 0
M  V30 20576 H 2023.1 -1.13075 3.03308 0
M  V30 20577 H 2022.01 1.12394 3.56817 0
M  V30 20578 H 2023.34 1.45997 4.70049 0
M  V30 20579 N 2025 -1.41343 0.697132 0
M  V30 20580 C 2026.24 -2.03068 0.232937 0
M  V30 20581 C 2026.6 -1.54026 -1.14629 0
M  V30 20582 O 2027.8 -2.07688 -1.70643 0
M  V30 20583 C 2026.07 -3.56222 0.289923 0
M  V30 20584 S 2027.63 -4.38686 -0.0999966 0
M  V30 20585 H 2024.45 -0.704795 0.0937273 0
M  V30 20586 H 2027.05 -1.72752 0.915256 0
M  V30 20587 H 2025.76 -3.8941 1.29569 0
M  V30 20588 H 2025.29 -3.91242 -0.411492 0
M  V30 20589 H 2027.3 -4.78118 -1.3273 0
M  V30 20590 N 2026.48 -0.441993 -1.51275 0
M  V30 20591 C 2027.75 0.183076 -1.94741 0
M  V30 20592 C 2028.13 1.59668 -1.38092 0
M  V30 20593 O 2027.48 2.21279 -0.569882 0
M  V30 20594 C 2027.69 0.156071 -3.48651 0
M  V30 20595 C 2029.04 0.359351 -4.23077 0
M  V30 20596 O 2030.06 0.233977 -3.55431 0
M  V30 20597 O 2028.92 0.609358 -5.43092 0
M  V30 20598 H 2026.02 0.127455 -0.817119 0
M  V30 20599 H 2028.56 -0.500307 -1.62157 0
M  V30 20600 H 2027.33 -0.832021 -3.82352 0
M  V30 20601 H 2026.96 0.882165 -3.8769 0
M  V30 20602 N 2027.95 1.56642 -0.173515 0
M  V30 20603 C 2029.37 1.58552 0.182625 0
M  V30 20604 C 2029.57 1.18895 1.62685 0
M  V30 20605 O 2028.63 0.901576 2.35856 0
M  V30 20606 C 2029.94 3.00533 -0.100181 0
M  V30 20607 C 2031.49 3.12976 -0.038567 0
M  V30 20608 C 2031.96 4.57053 -0.294392 0
M  V30 20609 N 2033.45 4.62566 -0.242245 0
M  V30 20610 C 2034.19 5.71901 -0.414333 0
M  V30 20611 N 2033.68 6.89785 -0.645597 0
M  V30 20612 N 2035.48 5.61009 -0.350085 0
M  V30 20613 H 2027.63 1.80706 -1.1162 0
M  V30 20614 H 2029.89 0.837643 -0.443912 0
M  V30 20615 H 2029.6 3.34031 -1.10073 0
M  V30 20616 H 2029.47 3.72281 0.607196 0
M  V30 20617 H 2031.86 2.79303 0.952559 0
M  V30 20618 H 2031.94 2.4366 -0.778688 0
M  V30 20619 H 2031.58 4.91435 -1.28274 0
M  V30 20620 H 2031.51 5.24531 0.466366 0
M  V30 20621 H 2034 3.77837 -0.0692351 0
M  V30 20622 H 2034.32 7.68991 -0.766299 0
M  V30 20623 H 2032.66 6.91643 -0.682238 0
M  V30 20624 H 2035.85 4.67791 -0.169986 0
M  V30 20625 H 2036.03 6.46163 -0.487625 0
M  V30 20626 N 2029.43 -0.1002 1.57281 0
M  V30 20627 C 2030.71 -0.836006 1.76834 0
M  V30 20628 C 2031.09 -1.9718 0.753864 0
M  V30 20629 O 2030.44 -2.27452 -0.218626 0
M  V30 20630 C 2030.65 -1.33532 3.22444 0
M  V30 20631 C 2031.99 -1.78015 3.85481 0
M  V30 20632 O 2033.02 -1.43167 3.26162 0
M  V30 20633 O 2031.88 -2.42432 4.89784 0
M  V30 20634 H 2028.97 -0.398386 0.724719 0
M  V30 20635 H 2031.52 -0.0824784 1.69499 0
M  V30 20636 H 2030.29 -0.521307 3.87812 0
M  V30 20637 H 2029.91 -2.151 3.34391 0
M  V30 20638 N 2030.91 -1.53174 -0.370891 0
M  V30 20639 C 2032.13 -1.73304 -1.13932 0
M  V30 20640 C 2032.56 -0.458494 -1.82427 0
M  V30 20641 O 2031.92 0.587094 -1.71531 0
M  V30 20642 C 2031.97 -2.89544 -2.14933 0
M  V30 20643 O 2031.07 -2.57782 -3.21904 0
M  V30 20644 H 2030.41 -0.575715 -0.33083 0
M  V30 20645 H 2032.94 -2.00038 -0.429641 0
M  V30 20646 H 2032.95 -3.15559 -2.58625 0
M  V30 20647 H 2031.63 -3.81998 -1.64471 0
M  V30 20648 H 2030.2 -2.42568 -2.83223 0
M  V30 20649 N 2032.39 0.630389 -1.44443 0
M  V30 20650 C 2033.64 1.38719 -1.46975 0
M  V30 20651 C 2033.96 1.94723 -0.103861 0
M  V30 20652 O 2033.23 1.75822 0.863919 0
M  V30 20653 H 2031.81 0.5149 -0.54119 0
M  V30 20654 H 2034.47 0.741905 -1.80227 0
M  V30 20655 H 2033.56 2.21813 -2.19557 0
M  V30 20656 N 2033.87 1.31354 0.870861 0
M  V30 20657 C 2034.8 1.14748 1.98408 0
M  V30 20658 C 2035.81 0.0868023 1.62568 0
M  V30 20659 O 2037 0.334209 1.75343 0
M  V30 20660 C 2034.1 0.730792 3.30927 0
M  V30 20661 C 2033.27 1.87628 3.95113 0
M  V30 20662 C 2032.33 1.44581 5.05948 0
M  V30 20663 O 2031.36 2.15531 5.26816 0
M  V30 20664 N 2032.56 0.332698 5.79546 0
M  V30 20665 H 2035.32 2.10633 2.13199 0
M  V30 20666 H 2032.89 1.23676 1.04479 0
M  V30 20667 H 2034.88 0.425538 4.02457 0
M  V30 20668 H 2033.45 -0.136426 3.12302 0
M  V30 20669 H 2032.67 2.3489 3.16576 0
M  V30 20670 H 2033.96 2.64356 4.34734 0
M  V30 20671 H 2033.35 -0.258188 5.65111 0
M  V30 20672 H 2031.91 0.0869715 6.51742 0
M  V30 20673 N 2035.34 -1.08505 1.143 0
M  V30 20674 C 2036.58 -1.82477 0.920958 0
M  V30 20675 C 2036.95 -1.84168 -0.54277 0
M  V30 20676 O 2038.15 -2.53893 -0.882716 0
M  V30 20677 C 2036.42 -3.24206 1.50418 0
M  V30 20678 S 2037.98 -4.15066 1.42356 0
M  V30 20679 H 2034.8 -0.628871 0.331726 0
M  V30 20680 H 2037.4 -1.30431 1.4563 0
M  V30 20681 H 2036.1 -3.20556 2.56266 0
M  V30 20682 H 2035.63 -3.81325 0.967187 0
M  V30 20683 H 2037.65 -4.94516 0.408406 0
M  V30 20684 N 2036.82 -0.937962 -1.26649 0
M  V30 20685 C 2038.24 -0.639774 -1.46216 0
M  V30 20686 C 2038.44 0.807896 -1.84595 0
M  V30 20687 O 2037.49 1.58484 -1.96568 0
M  V30 20688 C 2038.81 -1.59844 -2.54697 0
M  V30 20689 C 2040.35 -1.60779 -2.6855 0
M  V30 20690 C 2040.83 -2.55367 -3.80199 0
M  V30 20691 N 2042.32 -2.53634 -3.87587 0
M  V30 20692 C 2043.06 -3.23509 -4.73423 0
M  V30 20693 N 2042.55 -4.02798 -5.63671 0
M  V30 20694 N 2044.34 -3.12477 -4.67242 0
M  V30 20695 H 2036.5 -1.87374 -1.00025 0
M  V30 20696 H 2038.76 -0.805036 -0.500621 0
M  V30 20697 H 2038.46 -2.63168 -2.33314 0
M  V30 20698 H 2038.34 -1.34802 -3.5229 0
M  V30 20699 H 2040.73 -0.581808 -2.89308 0
M  V30 20700 H 2040.81 -1.89873 -1.71411 0
M  V30 20701 H 2040.45 -3.58081 -3.60195 0
M  V30 20702 H 2040.38 -2.23564 -4.76788 0
M  V30 20703 H 2042.87 -1.96058 -3.23063 0
M  V30 20704 H 2043.18 -4.53075 -6.26053 0
M  V30 20705 H 2041.53 -4.069 -5.63434 0
M  V30 20706 H 2044.72 -2.50018 -3.95738 0
M  V30 20707 H 2044.89 -3.67201 -5.33917 0
M  V30 20708 N 2038.3 1.40971 -0.704618 0
M  V30 20709 C 2039.54 2.02942 -0.243703 0
M  V30 20710 C 2039.9 1.54632 1.13811 0
M  V30 20711 O 2041.1 2.0859 1.69539 0
M  V30 20712 C 2039.38 3.56063 -0.308811 0
M  V30 20713 S 2040.93 4.38733 0.0767306 0
M  V30 20714 H 2037.75 0.704288 -0.0974636 0
M  V30 20715 H 2040.35 1.72264 -0.924405 0
M  V30 20716 H 2039.06 3.88717 -1.31632 0
M  V30 20717 H 2038.59 3.91455 0.390738 0
M  V30 20718 H 2040.6 4.78816 1.30193 0
M  V30 20719 N 2039.78 0.45001 1.51039 0
M  V30 20720 C 2040.73 -0.355012 2.28053 0
M  V30 20721 C 2041.7 -1.00578 1.32186 0
M  V30 20722 O 2042.88 -1.02227 1.61103 0
M  V30 20723 C 2040.02 -1.44311 3.13478 0
M  V30 20724 C 2039.13 -0.809213 4.24353 0
M  V30 20725 C 2038.27 -1.87342 4.97068 0
M  V30 20726 C 2037.31 -1.21864 5.99846 0
M  V30 20727 N 2036.44 -2.22477 6.65919 0
M  V30 20728 H 2041.28 0.308084 2.96403 0
M  V30 20729 H 2038.82 0.163778 1.46185 0
M  V30 20730 H 2040.78 -2.08539 3.61341 0
M  V30 20731 H 2039.41 -2.07566 2.47217 0
M  V30 20732 H 2038.46 -0.0548937 3.8036 0
M  V30 20733 H 2039.77 -0.291288 4.97949 0
M  V30 20734 H 2038.93 -2.59203 5.48542 0
M  V30 20735 H 2037.67 -2.42511 4.23131 0
M  V30 20736 H 2036.67 -0.48556 5.47652 0
M  V30 20737 H 2037.9 -0.674124 6.75746 0
M  V30 20738 H 2035.84 -2.76702 5.94788 0
M  V30 20739 H 2035.76 -1.75611 7.35321 0
M  V30 20740 H 2037.03 -2.93782 7.2202 0
M  V30 20741 N 2041.26 -1.56548 0.18182 0
M  V30 20742 C 2042.67 -1.83704 -0.3331 0
M  V30 20743 C 2043.02 -1.10203 -1.62326 0
M  V30 20744 O 2042.14 -0.358476 -2.1341 0
M  V30 20745 C 2042.74 -3.33243 -0.611134 0
M  V30 20746 C 2041.3 -3.60857 -1.07046 0
M  V30 20747 C 2040.44 -2.77074 -0.111929 0
M  V30 20748 H 2043.4 -1.53422 0.405878 0
M  V30 20749 H 2043.42 -3.51292 -1.462 0
M  V30 20750 H 2042.93 -3.86711 0.328039 0
M  V30 20751 H 2041.03 -3.1281 -2.02437 0
M  V30 20752 H 2041.14 -4.69129 -0.972357 0
M  V30 20753 H 2039.51 -2.47255 -0.611302 0
M  V30 20754 H 2040.29 -3.33327 0.821452 0
M  V30 20755 N 2042.73 0.0918577 -1.57332 0
M  V30 20756 C 2044.15 0.446151 -1.53237 0
M  V30 20757 C 2044.35 1.80332 -0.899027 0
M  V30 20758 O 2043.41 2.47642 -0.492921 0
M  V30 20759 C 2044.72 0.405662 -2.97951 0
M  V30 20760 C 2046.27 0.487286 -3.09184 0
M  V30 20761 C 2046.74 0.476912 -4.5551 0
M  V30 20762 N 2048.23 0.537573 -4.6007 0
M  V30 20763 C 2048.97 0.551436 -5.70742 0
M  V30 20764 N 2048.46 0.521312 -6.90836 0
M  V30 20765 N 2050.26 0.59649 -5.58926 0
M  V30 20766 H 2042.41 -0.797061 -1.96877 0
M  V30 20767 H 2044.67 -0.297022 -0.900268 0
M  V30 20768 H 2044.38 -0.524467 -3.47768 0
M  V30 20769 H 2044.25 1.22343 -3.56808 0
M  V30 20770 H 2046.64 1.40783 -2.59353 0
M  V30 20771 H 2046.72 -0.358678 -2.53273 0
M  V30 20772 H 2046.36 -0.439705 -5.05993 0
M  V30 20773 H 2046.29 1.34013 -5.09262 0
M  V30 20774 H 2048.78 0.565916 -3.73639 0
M  V30 20775 H 2049.1 0.535263 -7.70944 0
M  V30 20776 H 2047.44 0.48831 -6.93282 0
M  V30 20777 H 2050.63 0.617576 -4.64008 0
M  V30 20778 H 2050.81 0.603826 -6.45181 0
M  V30 20779 N 2044.21 1.53368 0.362763 0
M  V30 20780 C 2045.46 1.68906 1.10243 0
M  V30 20781 C 2045.77 0.448846 1.90381 0
M  V30 20782 O 2046.98 0.484821 2.67136 0
M  V30 20783 C 2045.44 2.98602 2.0091 0
M  V30 20784 C 2045.04 4.29895 1.26071 0
M  V30 20785 C 2046.79 3.23507 2.74852 0
M  V30 20786 C 2044.7 5.50678 2.15657 0
M  V30 20787 H 2043.63 0.629342 0.415265 0
M  V30 20788 H 2046.28 1.79869 0.363231 0
M  V30 20789 H 2044.66 2.81449 2.78572 0
M  V30 20790 H 2045.83 4.57689 0.534529 0
M  V30 20791 H 2044.15 4.11455 0.639803 0
M  V30 20792 H 2046.74 4.10931 3.42111 0
M  V30 20793 H 2047.09 2.39689 3.40374 0
M  V30 20794 H 2047.62 3.41347 2.04271 0
M  V30 20795 H 2044.36 6.36982 1.54707 0
M  V30 20796 H 2043.88 5.27159 2.86117 0
M  V30 20797 H 2045.56 5.85578 2.75151 0
M  V30 20798 N 2045.69 -0.62272 1.44776 0
M  V30 20799 C 2046.92 -1.40911 1.51498 0
M  V30 20800 C 2047.33 -1.88261 0.142579 0
M  V30 20801 O 2046.69 -1.61333 -0.853105 0
M  V30 20802 C 2046.74 -2.62379 2.48676 0
M  V30 20803 O 2046.46 -2.17001 3.80582 0
M  V30 20804 C 2047.96 -3.55413 2.64947 0
M  V30 20805 H 2045.18 -0.431862 0.513552 0
M  V30 20806 H 2047.73 -0.760822 1.8982 0
M  V30 20807 H 2045.88 -3.23281 2.13467 0
M  V30 20808 H 2046.3 -2.95811 4.33124 0
M  V30 20809 H 2047.77 -4.37227 3.36952 0
M  V30 20810 H 2048.25 -4.04771 1.70462 0
M  V30 20811 H 2048.85 -3.00374 3.01091 0
M  V30 20812 N 2047.17 -1.31814 -0.863883 0
M  V30 20813 C 2048.42 -1.21607 -1.61419 0
M  V30 20814 C 2048.74 0.22444 -1.93704 0
M  V30 20815 O 2048.01 1.14677 -1.58827 0
M  V30 20816 H 2046.59 -0.447091 -0.59843 0
M  V30 20817 H 2049.25 -1.65218 -1.03388 0
M  V30 20818 H 2048.35 -1.79213 -2.55517 0
M  V30 20819 N 2048.65 1.07897 -1.14873 0
M  V30 20820 C 2050.06 1.32467 -0.89021 0
M  V30 20821 C 2050.26 1.96041 0.46584 0
M  V30 20822 O 2049.32 2.21675 1.20899 0
M  V30 20823 C 2050.63 2.22118 -2.02692 0
M  V30 20824 C 2052.18 2.35583 -2.06082 0
M  V30 20825 C 2052.65 3.28579 -3.19061 0
M  V30 20826 N 2054.15 3.36158 -3.18673 0
M  V30 20827 C 2054.88 4.0816 -4.02731 0
M  V30 20828 N 2054.38 4.82826 -4.96841 0
M  V30 20829 N 2056.17 4.04045 -3.90774 0
M  V30 20830 H 2048.32 0.650155 -2.02205 0
M  V30 20831 H 2050.58 0.349072 -0.881393 0
M  V30 20832 H 2050.29 1.82656 -3.00549 0
M  V30 20833 H 2050.16 3.22612 -1.95452 0
M  V30 20834 H 2052.55 2.743 -1.08829 0
M  V30 20835 H 2052.63 1.34812 -2.17392 0
M  V30 20836 H 2052.28 2.90582 -4.16563 0
M  V30 20837 H 2052.21 4.2929 -3.04988 0
M  V30 20838 H 2054.7 2.82932 -2.50515 0
M  V30 20839 H 2055.01 5.35244 -5.57434 0
M  V30 20840 H 2053.35 4.81861 -5.00834 0
M  V30 20841 H 2056.55 3.44823 -3.16567 0
M  V30 20842 H 2056.72 4.59895 -4.56509 0
M  V30 20843 N 2050.12 0.944665 1.2615 0
M  V30 20844 C 2051.06 0.414303 2.25424 0
M  V30 20845 C 2052.07 -0.464345 1.56037 0
M  V30 20846 O 2053.26 -0.274229 1.76381 0
M  V30 20847 C 2050.36 -0.423331 3.36246 0
M  V30 20848 C 2049.53 0.439977 4.35182 0
M  V30 20849 C 2048.59 -0.337801 5.25115 0
M  V30 20850 O 2047.62 0.260373 5.68604 0
M  V30 20851 N 2048.82 -1.63346 5.57044 0
M  V30 20852 H 2051.58 1.26775 2.71566 0
M  V30 20853 H 2049.14 0.813928 1.39953 0
M  V30 20854 H 2051.14 -0.951131 3.93364 0
M  V30 20855 H 2049.71 -1.17759 2.89571 0
M  V30 20856 H 2048.93 1.14896 3.77084 0
M  V30 20857 H 2050.21 1.02957 4.98274 0
M  V30 20858 H 2049.61 -2.14152 5.23599 0
M  V30 20859 H 2048.17 -2.10743 6.16791 0
M  V30 20860 N 2051.6 -1.40596 0.712085 0
M  V30 20861 C 2052.84 -2.0281 0.254462 0
M  V30 20862 C 2053.21 -1.55234 -1.12989 0
M  V30 20863 O 2054.41 -2.09487 -1.6843 0
M  V30 20864 C 2052.68 -3.55895 0.327689 0
M  V30 20865 S 2054.24 -4.38767 -0.0534624 0
M  V30 20866 H 2051.06 -0.703761 0.101197 0
M  V30 20867 H 2053.66 -1.71772 0.933528 0
M  V30 20868 H 2052.36 -3.88014 1.33692 0
M  V30 20869 H 2051.89 -3.91656 -0.369973 0
M  V30 20870 H 2053.91 -4.79499 -1.27652 0
M  V30 20871 N 2053.08 -0.458013 -1.50798 0
M  V30 20872 C 2054.36 0.162411 -1.94925 0
M  V30 20873 C 2054.74 1.58194 -1.39777 0
M  V30 20874 O 2054.09 2.20663 -0.59332 0
M  V30 20875 C 2054.3 0.119083 -3.48797 0
M  V30 20876 C 2055.64 0.314458 -4.23434 0
M  V30 20877 O 2056.67 0.196266 -3.55659 0
M  V30 20878 O 2055.53 0.551722 -5.43708 0
M  V30 20879 H 2052.62 0.118781 -0.818425 0
M  V30 20880 H 2055.17 -0.517478 -1.61618 0
M  V30 20881 H 2053.94 -0.872528 -3.81448 0
M  V30 20882 H 2053.56 0.840995 -3.88604 0
M  V30 20883 N 2054.56 1.56449 -0.190119 0
M  V30 20884 C 2055.98 1.58736 0.165798 0
M  V30 20885 C 2056.18 1.20613 1.61414 0
M  V30 20886 O 2055.23 0.926541 2.34886 0
M  V30 20887 C 2056.54 3.0041 -0.132051 0
M  V30 20888 C 2058.09 3.12918 -0.0717601 0
M  V30 20889 C 2058.57 4.56715 -0.342852 0
M  V30 20890 N 2060.06 4.62283 -0.291293 0
M  V30 20891 C 2060.79 5.71429 -0.474968 0
M  V30 20892 N 2060.29 6.89062 -0.718722 0
M  V30 20893 N 2062.08 5.60606 -0.409568 0
M  V30 20894 H 2054.23 1.79512 -1.1353 0
M  V30 20895 H 2056.5 0.832888 -0.452771 0
M  V30 20896 H 2056.2 3.32845 -1.13609 0
M  V30 20897 H 2056.08 3.72904 0.567676 0
M  V30 20898 H 2058.46 2.80298 0.922882 0
M  V30 20899 H 2058.54 2.4282 -0.804488 0
M  V30 20900 H 2058.19 4.90047 -1.33479 0
M  V30 20901 H 2058.12 5.24996 0.410707 0
M  V30 20902 H 2060.61 3.77742 -0.109306 0
M  V30 20903 H 2060.92 7.68135 -0.847818 0
M  V30 20904 H 2059.27 6.90881 -0.755557 0
M  V30 20905 H 2062.46 4.67585 -0.219592 0
M  V30 20906 H 2062.63 6.45609 -0.556132 0
M  V30 20907 N 2056.04 -0.0835127 1.57379 0
M  V30 20908 C 2057.28 -0.790348 1.88502 0
M  V30 20909 C 2057.64 -1.7533 0.782517 0
M  V30 20910 O 2058.84 -2.50436 0.976485 0
M  V30 20911 C 2057.11 -1.48995 3.24862 0
M  V30 20912 S 2058.67 -2.23346 3.77706 0
M  V30 20913 H 2055.49 -0.263074 0.66054 0
M  V30 20914 H 2058.09 -0.046945 1.95444 0
M  V30 20915 H 2056.8 -0.775138 4.03013 0
M  V30 20916 H 2056.33 -2.27302 3.21088 0
M  V30 20917 H 2058.34 -3.49677 3.52051 0
M  V30 20918 N 2057.52 -1.53558 -0.354624 0
M  V30 20919 C 2058.48 -1.80084 -1.41783 0
M  V30 20920 C 2059.48 -0.671552 -1.46105 0
M  V30 20921 O 2060.67 -0.939801 -1.46674 0
M  V30 20922 C 2057.8 -1.93284 -2.8081 0
M  V30 20923 H 2058.99 -2.75049 -1.19532 0
M  V30 20924 H 2056.55 -1.44802 -0.588388 0
M  V30 20925 H 2057.28 -1.00423 -3.0836 0
M  V30 20926 H 2057.07 -2.75432 -2.7907 0
M  V30 20927 H 2058.56 -2.15361 -3.57784 0
M  V30 20928 N 2058.99 0.615033 -1.45104 0
M  V30 20929 C 2060.22 1.40596 -1.52471 0
M  V30 20930 C 2060.64 1.87454 -0.155745 0
M  V30 20931 O 2060 1.59701 0.858209 0
M  V30 20932 C 2060.05 2.59156 -2.5074 0
M  V30 20933 O 2059.15 3.59538 -2.02006 0
M  V30 20934 H 2058.49 0.420045 -0.514255 0
M  V30 20935 H 2061.02 0.749208 -1.90389 0
M  V30 20936 H 2061.03 3.06496 -2.69303 0
M  V30 20937 H 2059.71 2.24399 -3.50169 0
M  V30 20938 H 2058.29 3.18897 -1.93284 0
M  V30 20939 N 2060.47 1.3227 0.85688 0
M  V30 20940 C 2061.72 1.22461 1.60772 0
M  V30 20941 C 2062.04 -0.214164 1.9382 0
M  V30 20942 O 2061.31 -1.13833 1.59433 0
M  V30 20943 H 2059.89 0.450259 0.596051 0
M  V30 20944 H 2062.55 1.65764 1.0251 0
M  V30 20945 H 2061.65 1.80566 2.54563 0
M  V30 20946 N 2061.95 -1.07287 1.15444 0
M  V30 20947 C 2063.2 -1.79896 0.929722 0
M  V30 20948 C 2063.52 -1.86764 -0.543105 0
M  V30 20949 O 2062.78 -1.34794 -1.41877 0
M  V30 20950 C 2063.08 -3.24863 1.48992 0
M  V30 20951 C 2062.74 -3.38094 2.98334 0
M  V30 20952 C 2061.41 -3.41412 3.39104 0
M  V30 20953 C 2063.76 -3.40837 3.94309 0
M  V30 20954 C 2061.09 -3.45077 4.74488 0
M  V30 20955 C 2063.44 -3.46039 5.29565 0
M  V30 20956 C 2062.1 -3.47635 5.6983 0
M  V30 20957 H 2061.37 -0.658285 0.340209 0
M  V30 20958 H 2064.02 -1.26242 1.43997 0
M  V30 20959 H 2062.32 -3.81302 0.900869 0
M  V30 20960 H 2064.02 -3.79621 1.29185 0
M  V30 20961 H 2060.61 -3.3621 2.65821 0
M  V30 20962 H 2064.8 -3.37494 3.63884 0
M  V30 20963 H 2060.05 -3.44611 5.05028 0
M  V30 20964 H 2064.23 -3.47108 6.03729 0
M  V30 20965 H 2061.85 -3.50228 6.74718 0
M  V30 20966 N 2063.43 -0.951342 -1.25647 0
M  V30 20967 C 2064.66 -0.62053 -1.97061 0
M  V30 20968 C 2065.07 0.810902 -1.70942 0
M  V30 20969 O 2064.41 1.55361 -0.980235 0
M  V30 20970 C 2064.47 -0.795277 -3.50593 0
M  V30 20971 C 2064.13 -2.20325 -4.00382 0
M  V30 20972 C 2065.13 -3.17963 -4.11334 0
M  V30 20973 C 2062.82 -2.52655 -4.34132 0
M  V30 20974 C 2064.81 -4.46028 -4.55344 0
M  V30 20975 C 2062.5 -3.8095 -4.77829 0
M  V30 20976 C 2063.5 -4.77449 -4.88397 0
M  V30 20977 O 2063.18 -6.03457 -5.31126 0
M  V30 20978 H 2062.92 -0.231839 -0.635001 0
M  V30 20979 H 2065.47 -1.27722 -1.60861 0
M  V30 20980 H 2063.7 -0.0814441 -3.86614 0
M  V30 20981 H 2065.39 -0.46601 -4.03216 0
M  V30 20982 H 2066.15 -2.94311 -3.85494 0
M  V30 20983 H 2062.03 -1.78274 -4.25135 0
M  V30 20984 H 2065.58 -5.21351 -4.63508 0
M  V30 20985 H 2061.47 -4.0441 -5.03113 0
M  V30 20986 H 2062.24 -6.06786 -5.49321 0
M  V30 20987 N 2064.91 1.40216 -0.719531 0
M  V30 20988 C 2066.32 1.54673 -0.393494 0
M  V30 20989 C 2066.52 1.69001 1.09732 0
M  V30 20990 O 2065.58 1.6818 1.88339 0
M  V30 20991 C 2066.89 2.77299 -1.163 0
M  V30 20992 C 2068.44 2.9112 -1.14969 0
M  V30 20993 C 2068.91 4.16665 -1.90143 0
M  V30 20994 N 2070.4 4.23673 -1.87232 0
M  V30 20995 C 2071.14 5.19729 -2.42219 0
M  V30 20996 N 2070.64 6.21669 -3.05778 0
M  V30 20997 N 2072.43 5.11835 -2.32338 0
M  V30 20998 H 2064.58 1.29162 -1.68614 0
M  V30 20999 H 2066.84 0.624867 -0.712914 0
M  V30 21000 H 2066.55 2.73003 -2.21726 0
M  V30 21001 H 2066.42 3.69521 -0.757213 0
M  V30 21002 H 2068.81 2.94918 -0.103615 0
M  V30 21003 H 2068.89 2.00005 -1.59473 0
M  V30 21004 H 2068.53 4.13629 -2.94744 0
M  V30 21005 H 2068.46 5.06796 -1.43057 0
M  V30 21006 H 2070.96 3.50645 -1.40914 0
M  V30 21007 H 2071.27 6.91396 -3.45241 0
M  V30 21008 H 2069.61 6.22101 -3.09863 0
M  V30 21009 H 2072.8 4.31127 -1.82338 0
M  V30 21010 H 2072.98 5.86522 -2.75492 0
M  V30 21011 N 2066.38 0.466004 1.50553 0
M  V30 21012 C 2067.63 -0.0907392 2.02297 0
M  V30 21013 C 2067.96 -1.40178 1.34835 0
M  V30 21014 O 2067.21 -1.90185 0.461328 0
M  V30 21015 C 2067.51 -0.32772 3.55894 0
M  V30 21016 C 2067.18 0.900994 4.41806 0
M  V30 21017 C 2065.84 1.23789 4.65005 0
M  V30 21018 C 2068.19 1.71933 4.92025 0
M  V30 21019 C 2065.52 2.39327 5.35667 0
M  V30 21020 C 2067.87 2.86595 5.63956 0
M  V30 21021 C 2066.54 3.20705 5.8541 0
M  V30 21022 H 2065.81 -0.0332038 0.740256 0
M  V30 21023 H 2068.45 0.619048 1.81218 0
M  V30 21024 H 2066.76 -1.1197 3.7546 0
M  V30 21025 H 2068.46 -0.772379 3.93491 0
M  V30 21026 H 2065.05 0.628519 4.23966 0
M  V30 21027 H 2069.23 1.47224 4.73961 0
M  V30 21028 H 2064.49 2.66035 5.50487 0
M  V30 21029 H 2068.66 3.50355 6.01851 0
M  V30 21030 H 2066.29 4.10341 6.39941 0
M  V30 21031 N 2067.86 -1.56346 0.198413 0
M  V30 21032 C 2069.27 -1.84047 -0.313597 0
M  V30 21033 C 2069.62 -1.11918 -1.61148 0
M  V30 21034 O 2068.75 -0.381091 -2.13018 0
M  V30 21035 C 2069.34 -3.33872 -0.575755 0
M  V30 21036 C 2067.9 -3.61973 -1.03213 0
M  V30 21037 C 2067.05 -2.77177 -0.0825349 0
M  V30 21038 H 2070 -1.52983 0.422128 0
M  V30 21039 H 2070.02 -3.52823 -1.42466 0
M  V30 21040 H 2069.53 -3.86341 0.369036 0
M  V30 21041 H 2067.63 -3.14939 -1.99108 0
M  V30 21042 H 2067.75 -4.70134 -0.922545 0
M  V30 21043 H 2066.11 -2.4789 -0.585043 0
M  V30 21044 H 2066.89 -3.32437 0.856759 0
M  V30 21045 N 2069.34 0.0751653 -1.57421 0
M  V30 21046 C 2070.25 1.10763 -2.06806 0
M  V30 21047 C 2071.27 1.4261 -0.99691 0
M  V30 21048 O 2072.44 1.52854 -1.31139 0
M  V30 21049 C 2069.51 2.40281 -2.49932 0
M  V30 21050 C 2068.57 2.15435 -3.7133 0
M  V30 21051 C 2067.8 3.38777 -4.1239 0
M  V30 21052 O 2068.02 4.4777 -3.53353 0
M  V30 21053 O 2066.96 3.27189 -5.05204 0
M  V30 21054 H 2070.78 0.718102 -2.95088 0
M  V30 21055 H 2068.37 0.289065 -1.46577 0
M  V30 21056 H 2070.25 3.16509 -2.78208 0
M  V30 21057 H 2068.93 2.7862 -1.64781 0
M  V30 21058 H 2067.83 1.36922 -3.48142 0
M  V30 21059 H 2069.17 1.81978 -4.57324 0
M  V30 21060 N 2070.82 1.53744 0.346476 0
M  V30 21061 C 2072.06 1.72562 1.09552 0
M  V30 21062 C 2072.42 0.477138 1.85977 0
M  V30 21063 O 2073.62 0.542295 2.63273 0
M  V30 21064 C 2071.89 2.95246 2.01406 0
M  V30 21065 S 2073.45 3.34861 2.83573 0
M  V30 21066 H 2070.27 0.607015 0.370208 0
M  V30 21067 H 2072.87 1.91883 0.374316 0
M  V30 21068 H 2071.58 3.84286 1.44057 0
M  V30 21069 H 2071.11 2.78382 2.77969 0
M  V30 21070 H 2073.12 2.88367 4.03806 0
M  V30 21071 N 2072.3 -0.607329 1.45428 0
M  V30 21072 C 2073.54 -1.36835 1.49679 0
M  V30 21073 C 2073.88 -1.93708 0.138148 0
M  V30 21074 O 2073.15 -1.75069 -0.847414 0
M  V30 21075 C 2073.43 -2.51607 2.57616 0
M  V30 21076 C 2073.29 -1.99929 4.02925 0
M  V30 21077 C 2074.61 -3.53738 2.61835 0
M  V30 21078 H 2071.72 -0.496187 0.544947 0
M  V30 21079 H 2074.37 -0.684587 1.77238 0
M  V30 21080 H 2072.52 -3.09936 2.34247 0
M  V30 21081 H 2074.19 -1.46247 4.37504 0
M  V30 21082 H 2072.43 -1.30929 4.1357 0
M  V30 21083 H 2073.1 -2.82666 4.74135 0
M  V30 21084 H 2075.58 -3.0525 2.82775 0
M  V30 21085 H 2074.45 -4.31533 3.39221 0
M  V30 21086 H 2074.72 -4.09372 1.66935 0
M  V30 21087 N 2073.77 -1.32722 -0.849853 0
M  V30 21088 C 2075.19 -1.21166 -1.42041 0
M  V30 21089 C 2075.54 0.173892 -1.95428 0
M  V30 21090 O 2074.66 1.07289 -1.87931 0
M  V30 21091 C 2075.26 -2.19361 -2.58198 0
M  V30 21092 C 2073.82 -2.11677 -3.11239 0
M  V30 21093 C 2072.96 -2.07459 -1.84 0
M  V30 21094 H 2075.91 -1.44481 -0.656583 0
M  V30 21095 H 2075.93 -1.79494 -3.35503 0
M  V30 21096 H 2075.45 -3.20194 -2.19312 0
M  V30 21097 H 2073.55 -1.1411 -3.54697 0
M  V30 21098 H 2073.66 -3.01721 -3.72157 0
M  V30 21099 H 2072.02 -1.5277 -2.03798 0
M  V30 21100 H 2072.81 -3.10081 -1.47325 0
M  V30 21101 N 2075.25 1.06673 -1.16011 0
M  V30 21102 C 2076.49 1.80988 -0.949872 0
M  V30 21103 C 2076.86 1.85009 0.513401 0
M  V30 21104 O 2078.06 2.55265 0.842212 0
M  V30 21105 C 2076.33 3.21772 -1.55556 0
M  V30 21106 S 2077.89 4.12749 -1.48941 0
M  V30 21107 H 2074.71 0.623514 -0.341689 0
M  V30 21108 H 2077.31 1.28097 -1.47687 0
M  V30 21109 H 2076.01 3.16438 -2.61333 0
M  V30 21110 H 2075.54 3.79738 -1.02773 0
M  V30 21111 H 2077.56 4.93804 -0.487028 0
M  V30 21112 N 2076.73 0.957992 1.25141 0
M  V30 21113 C 2077.68 0.472054 2.2776 0
M  V30 21114 C 2078.67 -0.459404 1.63052 0
M  V30 21115 O 2079.88 -0.335763 1.76841 0
M  V30 21116 H 2076.25 0.134161 0.739936 0
M  V30 21117 H 2078.22 1.34973 2.6613 0
M  V30 21118 C 2076.97 -0.231515 3.46928 0
M  V30 21119 H 2076.3 0.476093 3.96955 0
M  V30 21120 H 2077.74 -0.535494 4.20605 0
M  V30 21121 C 2076.2 -1.45518 3.03852 0
M  V30 21122 O 2076.73 -2.55274 3.10159 0
M  V30 21123 N 2074.93 -1.31773 2.59006 0
M  V30 21124 H 2074.48 -0.424725 2.54074 0
M  V30 21125 H 2074.44 -2.13762 2.30549 0
M  V30 21126 N 2078.21 -1.39832 0.726957 0
M  V30 21127 C 2079.45 -2.02529 0.275958 0
M  V30 21128 C 2079.81 -1.56423 -1.11336 0
M  V30 21129 O 2081.01 -2.11261 -1.66199 0
M  V30 21130 C 2079.28 -3.55527 0.365418 0
M  V30 21131 S 2080.84 -4.38799 -0.00692227 0
M  V30 21132 H 2077.66 -0.702648 0.108656 0
M  V30 21133 H 2080.26 -1.70772 0.951694 0
M  V30 21134 H 2078.97 -3.86574 1.378 0
M  V30 21135 H 2078.5 -3.92027 -0.328411 0
M  V30 21136 H 2080.51 -4.80826 -1.22559 0
M  V30 21137 N 2079.69 -0.473982 -1.50304 0
M  V30 21138 C 2080.63 0.332685 -2.30209 0
M  V30 21139 C 2081.63 0.987746 -1.37622 0
M  V30 21140 O 2082.83 0.918521 -1.548 0
M  V30 21141 H 2079.21 0.126129 -0.741347 0
M  V30 21142 H 2081.18 -0.361602 -2.96201 0
M  V30 21143 C 2079.93 1.40037 -3.18253 0
M  V30 21144 H 2079.25 0.905697 -3.89406 0
M  V30 21145 H 2080.69 1.93731 -3.77153 0
M  V30 21146 C 2079.15 2.40388 -2.36041 0
M  V30 21147 O 2079.68 3.45718 -2.04553 0
M  V30 21148 N 2077.89 2.12178 -1.98567 0
M  V30 21149 H 2077.43 1.26545 -2.24375 0
M  V30 21150 H 2077.39 2.79554 -1.43864 0
M  V30 21151 N 2081.16 1.56239 -0.206702 0
M  V30 21152 C 2082.58 1.58903 0.148953 0
M  V30 21153 C 2082.78 1.22319 1.60126 0
M  V30 21154 O 2081.84 0.951402 2.3389 0
M  V30 21155 C 2083.15 3.00253 -0.163906 0
M  V30 21156 C 2084.7 3.12824 -0.104945 0
M  V30 21157 C 2085.17 4.56326 -0.391273 0
M  V30 21158 N 2086.66 4.61948 -0.340308 0
M  V30 21159 C 2087.4 5.70894 -0.535549 0
M  V30 21160 N 2086.89 6.88261 -0.791765 0
M  V30 21161 N 2088.69 5.6014 -0.469005 0
M  V30 21162 H 2080.84 1.78298 -1.15428 0
M  V30 21163 H 2083.1 0.828039 -0.46158 0
M  V30 21164 H 2082.81 3.31621 -1.17133 0
M  V30 21165 H 2082.68 3.73485 0.528093 0
M  V30 21166 H 2085.07 2.81261 0.893101 0
M  V30 21167 H 2085.15 2.41953 -0.830197 0
M  V30 21168 H 2084.79 4.88603 -1.38669 0
M  V30 21169 H 2084.72 5.25402 0.355001 0
M  V30 21170 H 2087.21 3.77605 -0.149364 0
M  V30 21171 H 2087.53 7.67193 -0.929241 0
M  V30 21172 H 2085.87 6.90041 -0.828792 0
M  V30 21173 H 2089.06 4.67325 -0.269173 0
M  V30 21174 H 2089.24 6.44983 -0.624576 0
M  V30 21175 N 2082.64 -0.0668159 1.57458 0
M  V30 21176 C 2083.92 -0.798309 1.78568 0
M  V30 21177 C 2084.3 -1.95537 0.79552 0
M  V30 21178 O 2083.65 -2.27864 -0.170331 0
M  V30 21179 C 2083.86 -1.26662 3.25204 0
M  V30 21180 C 2085.21 -1.69798 3.89171 0
M  V30 21181 O 2086.23 -1.36216 3.29125 0
M  V30 21182 O 2085.09 -2.31989 4.94817 0
M  V30 21183 H 2082.18 -0.382924 0.733006 0
M  V30 21184 H 2084.73 -0.0465065 1.69636 0
M  V30 21185 H 2083.5 -0.438929 3.8883 0
M  V30 21186 H 2083.12 -2.07959 3.38879 0
M  V30 21187 N 2084.12 -1.53926 -0.338317 0
M  V30 21188 C 2085.37 -1.71085 -1.07584 0
M  V30 21189 C 2085.69 -0.479497 -1.89013 0
M  V30 21190 O 2084.96 0.506566 -1.89237 0
M  V30 21191 H 2083.54 -0.630767 -0.400178 0
M  V30 21192 H 2086.2 -1.91193 -0.378324 0
M  V30 21193 H 2085.3 -2.58404 -1.75026 0
M  V30 21194 N 2085.6 0.599608 -1.45748 0
M  V30 21195 C 2086.83 1.38483 -1.53721 0
M  V30 21196 C 2087.24 1.8801 -0.172512 0
M  V30 21197 O 2086.6 1.6267 0.82733 0
M  V30 21198 C 2086.65 2.5839 -2.52818 0
M  V30 21199 O 2086.37 2.10918 -3.83986 0
M  V30 21200 C 2087.87 3.51153 -2.70567 0
M  V30 21201 H 2085.09 0.423637 -0.520358 0
M  V30 21202 H 2087.64 0.730527 -1.91007 0
M  V30 21203 H 2085.79 3.19844 -2.18583 0
M  V30 21204 H 2086.21 2.88883 -4.37775 0
M  V30 21205 H 2087.68 4.31811 -3.43865 0
M  V30 21206 H 2088.16 4.02008 -1.7688 0
M  V30 21207 H 2088.76 2.95546 -3.05831 0
M  V30 21208 N 2087.08 1.33171 0.842803 0
M  V30 21209 C 2087.99 1.25124 1.98447 0
M  V30 21210 C 2089 0.162551 1.73239 0
M  V30 21211 O 2090.18 0.385417 1.97678 0
M  V30 21212 C 2087.24 0.9866 3.32366 0
M  V30 21213 C 2086.31 2.16491 3.70716 0
M  V30 21214 C 2085.54 1.9128 4.98245 0
M  V30 21215 O 2085.76 0.861174 5.63862 0
M  V30 21216 O 2084.7 2.77708 5.34005 0
M  V30 21217 H 2088.52 2.21126 2.08175 0
M  V30 21218 H 2086.11 1.13178 0.975243 0
M  V30 21219 H 2087.99 0.856003 4.12614 0
M  V30 21220 H 2086.66 0.0568283 3.2365 0
M  V30 21221 H 2085.57 2.35103 2.90994 0
M  V30 21222 H 2086.9 3.07788 3.84093 0
M  V30 21223 N 2088.56 -1.06056 1.16576 0
M  V30 21224 C 2089.97 -1.60363 0.956067 0
M  V30 21225 C 2090.32 -1.89737 -0.499436 0
M  V30 21226 O 2089.44 -1.67257 -1.3731 0
M  V30 21227 C 2090.04 -2.91353 1.72913 0
M  V30 21228 C 2088.6 -3.42352 1.56436 0
M  V30 21229 C 2087.74 -2.1621 1.73633 0
M  V30 21230 H 2090.69 -0.889768 1.31411 0
M  V30 21231 H 2090.72 -3.6087 1.20636 0
M  V30 21232 H 2090.23 -2.69942 2.78842 0
M  V30 21233 H 2088.33 -3.68817 0.529577 0
M  V30 21234 H 2088.44 -4.17519 2.34978 0
M  V30 21235 H 2086.81 -2.26548 1.16396 0
M  V30 21236 H 2087.59 -1.97279 2.80955 0
M  V30 21237 N 2090.03 -0.964615 -1.24631 0
M  V30 21238 C 2091.28 -0.623582 -1.92239 0
M  V30 21239 C 2091.6 0.843493 -1.75813 0
M  V30 21240 O 2090.87 1.60179 -1.12781 0
M  V30 21241 H 2089.45 -0.227644 -0.711468 0
M  V30 21242 H 2092.11 -1.22502 -1.51589 0
M  V30 21243 H 2091.21 -0.861514 -2.99974 0
M  V30 21244 N 2091.51 1.39445 -0.734362 0
M  V30 21245 C 2092.76 2.00824 -0.282443 0
M  V30 21246 C 2093.09 1.58137 1.12722 0
M  V30 21247 O 2092.37 0.809969 1.76833 0
M  V30 21248 C 2092.65 3.58051 -0.38359 0
M  V30 21249 C 2092.5 4.10758 -1.83298 0
M  V30 21250 C 2093.82 4.39476 0.234349 0
M  V30 21251 H 2090.94 0.729611 -0.104103 0
M  V30 21252 H 2093.58 1.65661 -0.930397 0
M  V30 21253 H 2091.73 3.88136 0.168068 0
M  V30 21254 H 2093.4 3.91395 -2.44147 0
M  V30 21255 H 2091.65 3.64342 -2.35451 0
M  V30 21256 H 2092.32 5.19897 -1.85503 0
M  V30 21257 H 2094.79 4.15431 -0.235909 0
M  V30 21258 H 2093.67 5.48738 0.133228 0
M  V30 21259 H 2093.93 4.21924 1.32032 0
M  V30 21260 N 2092.99 0.481946 1.5005 0
M  V30 21261 C 2094.23 -0.067885 2.04287 0
M  V30 21262 C 2094.59 -1.36011 1.35517 0
M  V30 21263 O 2095.79 -1.993 1.80369 0
M  V30 21264 C 2094.07 -0.23649 3.56617 0
M  V30 21265 S 2095.62 -0.743315 4.32458 0
M  V30 21266 H 2092.44 -0.0108195 0.710918 0
M  V30 21267 H 2095.04 0.651566 1.84323 0
M  V30 21268 H 2093.75 0.709617 4.04218 0
M  V30 21269 H 2093.28 -0.981739 3.80953 0
M  V30 21270 H 2095.29 -2.01523 4.53435 0
M  V30 21271 N 2094.47 -1.56127 0.214985 0
M  V30 21272 C 2095.74 -1.8994 -0.467153 0
M  V30 21273 C 2096.12 -1.13139 -1.78221 0
M  V30 21274 O 2095.47 -0.238654 -2.2725 0
M  V30 21275 C 2095.68 -3.42576 -0.666524 0
M  V30 21276 C 2097.03 -4.13209 -0.976927 0
M  V30 21277 O 2098.05 -3.48138 -0.753545 0
M  V30 21278 O 2096.91 -5.2825 -1.40052 0
M  V30 21279 H 2094.01 -0.789533 -0.246102 0
M  V30 21280 H 2096.55 -1.67748 0.256681 0
M  V30 21281 H 2095.33 -3.90426 0.261344 0
M  V30 21282 H 2094.95 -3.70526 -1.44209 0
M  V30 21283 N 2095.95 0.0584645 -1.57492 0
M  V30 21284 C 2097.36 0.608705 -1.76498 0
M  V30 21285 C 2097.71 1.77203 -0.84224 0
M  V30 21286 O 2096.83 2.1638 -0.0296265 0
M  V30 21287 C 2097.43 1.11101 -3.20066 0
M  V30 21288 C 2095.99 1.607 -3.40371 0
M  V30 21289 C 2095.13 0.532159 -2.72146 0
M  V30 21290 H 2098.08 -0.167741 -1.57811 0
M  V30 21291 H 2098.11 1.97943 -3.2496 0
M  V30 21292 H 2097.62 0.264112 -3.872 0
M  V30 21293 H 2095.72 2.47671 -2.7837 0
M  V30 21294 H 2095.83 1.67476 -4.48875 0
M  V30 21295 H 2094.2 0.980354 -2.35077 0
M  V30 21296 H 2094.98 -0.304774 -3.41944 0
M  V30 21297 N 2097.42 1.54103 0.330149 0
M  V30 21298 C 2098.67 1.71653 1.06675 0
M  V30 21299 C 2098.99 0.489514 1.88756 0
M  V30 21300 O 2098.26 -0.496523 1.89503 0
M  V30 21301 H 2096.84 0.63288 0.396827 0
M  V30 21302 H 2099.5 1.91391 0.36818 0
M  V30 21303 H 2098.6 2.59328 1.73653 0
M  V30 21304 N 2098.9 -0.59187 1.46064 0
M  V30 21305 C 2100.13 -1.37666 1.54453 0
M  V30 21306 C 2100.55 -1.87916 0.18248 0
M  V30 21307 O 2099.9 -1.63106 -0.818692 0
M  V30 21308 C 2099.95 -2.57045 2.54185 0
M  V30 21309 O 2099.67 -2.08879 3.85099 0
M  V30 21310 C 2101.18 -3.49713 2.72426 0
M  V30 21311 H 2098.4 -0.420872 0.522597 0
M  V30 21312 H 2100.94 -0.720387 1.91391 0
M  V30 21313 H 2099.09 -3.18681 2.20276 0
M  V30 21314 H 2099.51 -2.86557 4.39301 0
M  V30 21315 H 2100.98 -4.29981 3.4615 0
M  V30 21316 H 2101.46 -4.01064 1.7901 0
M  V30 21317 H 2102.07 -2.9392 3.07395 0
M  V30 21318 N 2100.38 -1.33616 -0.835729 0
M  V30 21319 C 2101.63 -1.25003 -1.58804 0
M  V30 21320 C 2101.95 0.183302 -1.94137 0
M  V30 21321 O 2101.22 1.11282 -1.61224 0
M  V30 21322 H 2099.8 -0.459684 -0.588812 0
M  V30 21323 H 2102.46 -1.67374 -0.998599 0
M  V30 21324 H 2101.56 -1.84593 -2.51658 0
M  V30 21325 N 2101.86 1.05436 -1.17136 0
M  V30 21326 C 2102.82 2.11293 -0.888146 0
M  V30 21327 C 2103.82 1.60347 0.120621 0
M  V30 21328 O 2105.01 1.73844 -0.111266 0
M  V30 21329 C 2102.14 3.393 -0.329871 0
M  V30 21330 H 2103.34 2.3785 -1.82667 0
M  V30 21331 H 2100.89 1.21641 -0.981486 0
M  V30 21332 H 2101.62 3.18397 0.61592 0
M  V30 21333 H 2101.41 3.77588 -1.05687 0
M  V30 21334 H 2102.9 4.17331 -0.149954 0
M  V30 21335 N 2103.34 0.971211 1.24118 0
M  V30 21336 C 2104.58 0.642921 1.94025 0
M  V30 21337 C 2104.94 -0.807414 1.74198 0
M  V30 21338 O 2106.14 -1.24609 2.38172 0
M  V30 21339 C 2104.41 1.01162 3.42784 0
M  V30 21340 S 2105.97 0.798412 4.31475 0
M  V30 21341 H 2102.79 0.23575 0.670778 0
M  V30 21342 H 2105.39 1.24891 1.50408 0
M  V30 21343 H 2104.1 2.06398 3.54722 0
M  V30 21344 H 2103.63 0.396552 3.91396 0
M  V30 21345 H 2105.64 -0.322438 4.95151 0
M  V30 21346 N 2104.81 -1.39054 0.741747 0
M  V30 21347 C 2105.74 -2.33184 0.121433 0
M  V30 21348 C 2106.73 -1.54261 -0.716774 0
M  V30 21349 O 2107.91 -1.82627 -0.660379 0
M  V30 21350 C 2105.04 -3.38393 -0.78152 0
M  V30 21351 C 2103.99 -4.27974 -0.046955 0
M  V30 21352 C 2103.32 -5.23938 -1.06737 0
M  V30 21353 C 2104.62 -5.10272 1.11446 0
M  V30 21354 H 2106.31 -2.85308 0.907724 0
M  V30 21355 H 2103.86 -1.37179 0.437953 0
M  V30 21356 H 2105.81 -4.032 -1.22506 0
M  V30 21357 H 2104.54 -2.84724 -1.6 0
M  V30 21358 H 2103.2 -3.64656 0.377036 0
M  V30 21359 H 2102.84 -4.66562 -1.8796 0
M  V30 21360 H 2102.54 -5.84725 -0.580605 0
M  V30 21361 H 2104.07 -5.91622 -1.51048 0
M  V30 21362 H 2105.48 -5.68386 0.749042 0
M  V30 21363 H 2103.88 -5.80234 1.53131 0
M  V30 21364 H 2104.95 -4.44706 1.93299 0
M  V30 21365 N 2106.29 -0.489897 -1.49792 0
M  V30 21366 C 2107.53 0.0570502 -2.0432 0
M  V30 21367 C 2107.9 1.35291 -1.36237 0
M  V30 21368 O 2109.1 1.9834 -1.81424 0
M  V30 21369 C 2107.37 0.217574 -3.56737 0
M  V30 21370 S 2108.93 0.72037 -4.32847 0
M  V30 21371 H 2105.75 0.00704922 -0.710965 0
M  V30 21372 H 2108.35 -0.661331 -1.83975 0
M  V30 21373 H 2107.05 -0.731044 -4.03836 0
M  V30 21374 H 2106.58 0.961522 -3.81469 0
M  V30 21375 H 2108.6 1.99116 -4.54497 0
M  V30 21376 N 2107.77 1.56011 -0.223262 0
M  V30 21377 C 2108.72 2.20365 0.686157 0
M  V30 21378 C 2109.69 1.15978 1.18905 0
M  V30 21379 O 2110.87 1.44339 1.24783 0
M  V30 21380 C 2108.01 2.88879 1.88793 0
M  V30 21381 C 2107.13 4.07863 1.42378 0
M  V30 21382 C 2106.26 4.64156 2.58326 0
M  V30 21383 C 2105.3 5.75438 2.08656 0
M  V30 21384 N 2104.44 6.26015 3.17883 0
M  V30 21385 H 2109.28 2.97713 0.130656 0
M  V30 21386 H 2106.81 1.47005 0.0527363 0
M  V30 21387 H 2108.77 3.26788 2.59356 0
M  V30 21388 H 2107.4 2.14045 2.41629 0
M  V30 21389 H 2106.45 3.75428 0.613024 0
M  V30 21390 H 2107.77 4.88268 1.01958 0
M  V30 21391 H 2106.92 5.04517 3.36968 0
M  V30 21392 H 2105.66 3.82918 3.02035 0
M  V30 21393 H 2104.66 5.34578 1.28476 0
M  V30 21394 H 2105.89 6.58513 1.65944 0
M  V30 21395 H 2103.83 5.4769 3.61071 0
M  V30 21396 H 2103.75 7.01548 2.8172 0
M  V30 21397 H 2105.02 6.71033 3.96655 0
M  V30 21398 N 2109.25 -0.0501116 1.5752 0
M  V30 21399 C 2110.16 -1.07459 2.08542 0
M  V30 21400 C 2111.17 -1.41006 1.01947 0
M  V30 21401 O 2112.35 -1.50749 1.33555 0
M  V30 21402 C 2109.42 -2.36274 2.53723 0
M  V30 21403 C 2108.48 -2.095 3.74711 0
M  V30 21404 C 2107.71 -3.32174 4.17728 0
M  V30 21405 O 2107.93 -4.42091 3.60432 0
M  V30 21406 O 2106.87 -3.1911 5.10346 0
M  V30 21407 H 2110.69 -0.671065 2.96193 0
M  V30 21408 H 2108.28 -0.265709 1.47018 0
M  V30 21409 H 2110.16 -3.12043 2.83208 0
M  V30 21410 H 2108.83 -2.75963 1.69192 0
M  V30 21411 H 2107.74 -1.31366 3.50277 0
M  V30 21412 H 2109.07 -1.74679 4.60161 0
M  V30 21413 N 2110.73 -1.54276 -0.321972 0
M  V30 21414 C 2111.67 -1.84499 -1.41644 0
M  V30 21415 C 2112.67 -0.717018 -1.53477 0
M  V30 21416 O 2113.87 -0.900704 -1.55844 0
M  V30 21417 H 2110.25 -0.584855 -0.472704 0
M  V30 21418 H 2112.22 -2.76022 -1.13378 0
M  V30 21419 C 2110.97 -2.09051 -2.77836 0
M  V30 21420 H 2110.29 -2.95308 -2.69505 0
M  V30 21421 H 2111.73 -2.3415 -3.53482 0
M  V30 21422 C 2110.19 -0.882537 -3.25135 0
M  V30 21423 O 2110.72 -0.0925862 -4.01593 0
M  V30 21424 N 2108.93 -0.693729 -2.82198 0
M  V30 21425 H 2108.47 -1.33776 -2.2014 0
M  V30 21426 H 2108.43 0.113 -3.14197 0
M  V30 21427 N 2112.2 0.584116 -1.46376 0
M  V30 21428 C 2113.45 1.34437 -1.51837 0
M  V30 21429 C 2113.78 1.93464 -0.168948 0
M  V30 21430 O 2113.06 1.76395 0.819455 0
M  V30 21431 C 2113.34 2.47477 -2.61586 0
M  V30 21432 C 2113.19 1.93494 -4.06054 0
M  V30 21433 C 2114.51 3.49527 -2.6743 0
M  V30 21434 H 2111.63 0.487455 -0.552772 0
M  V30 21435 H 2114.27 0.656303 -1.78305 0
M  V30 21436 H 2112.42 3.0617 -2.39148 0
M  V30 21437 H 2114.1 1.39268 -4.39775 0
M  V30 21438 H 2112.34 1.24333 -4.15601 0
M  V30 21439 H 2113.01 2.75087 -4.78572 0
M  V30 21440 H 2115.49 3.00712 -2.87596 0
M  V30 21441 H 2114.36 4.26082 -3.46043 0
M  V30 21442 H 2114.62 4.06664 -1.73426 0
M  V30 21443 N 2113.68 1.34058 0.828631 0
M  V30 21444 C 2114.59 1.27222 1.97109 0
M  V30 21445 C 2115.61 0.180917 1.73057 0
M  V30 21446 O 2116.79 0.406362 1.97258 0
M  V30 21447 C 2113.85 1.0218 3.31301 0
M  V30 21448 C 2112.91 2.2041 3.68399 0
M  V30 21449 C 2112.14 1.96553 4.96188 0
M  V30 21450 O 2112.37 0.920931 5.62917 0
M  V30 21451 O 2111.3 2.83356 5.3103 0
M  V30 21452 H 2115.13 2.23322 2.05818 0
M  V30 21453 H 2112.71 1.14206 0.963184 0
M  V30 21454 H 2114.59 0.899718 4.11683 0
M  V30 21455 H 2113.27 0.0911525 3.23572 0
M  V30 21456 H 2112.18 2.38176 2.88484 0
M  V30 21457 H 2113.51 3.11845 3.80807 0
M  V30 21458 N 2115.16 -1.04814 1.17694 0
M  V30 21459 C 2116.41 -1.77532 0.96576 0
M  V30 21460 C 2116.73 -1.88306 -0.506545 0
M  V30 21461 O 2116 -1.40259 -1.36763 0
M  V30 21462 H 2114.58 -0.657613 0.354336 0
M  V30 21463 H 2117.24 -1.26536 1.48239 0
M  V30 21464 H 2116.34 -2.79071 1.39735 0
M  V30 21465 N 2116.64 -0.977779 -1.23601 0
M  V30 21466 C 2117.87 -0.663151 -1.95984 0
M  V30 21467 C 2118.28 0.769376 -1.72412 0
M  V30 21468 O 2117.64 1.51741 -1.01395 0
M  V30 21469 C 2117.69 -0.940786 -3.49044 0
M  V30 21470 O 2117.41 -2.31701 -3.71815 0
M  V30 21471 C 2118.91 -0.641745 -4.3863 0
M  V30 21472 H 2116.13 -0.246565 -0.624057 0
M  V30 21473 H 2118.68 -1.30845 -1.57162 0
M  V30 21474 H 2116.83 -0.341537 -3.85892 0
M  V30 21475 H 2117.25 -2.40469 -4.66128 0
M  V30 21476 H 2118.72 -0.886389 -5.44837 0
M  V30 21477 H 2119.2 0.42415 -4.37147 0
M  V30 21478 H 2119.8 -1.22135 -4.07386 0
M  V30 21479 N 2118.12 1.38658 -0.749111 0
M  V30 21480 C 2119.03 2.34291 -0.120373 0
M  V30 21481 C 2120.04 1.59043 0.705796 0
M  V30 21482 O 2121.22 1.9126 0.63099 0
M  V30 21483 C 2118.28 3.38141 0.765626 0
M  V30 21484 C 2117.35 4.29236 -0.0744037 0
M  V30 21485 C 2116.58 5.28125 0.769401 0
M  V30 21486 O 2116.8 5.33902 2.0076 0
M  V30 21487 O 2115.74 6.01598 0.190576 0
M  V30 21488 H 2119.56 2.89744 -0.910056 0
M  V30 21489 H 2117.15 1.40428 -0.509948 0
M  V30 21490 H 2119.03 4.0174 1.27214 0
M  V30 21491 H 2117.7 2.8505 1.53388 0
M  V30 21492 H 2116.61 3.68812 -0.626761 0
M  V30 21493 H 2117.94 4.85569 -0.805208 0
M  V30 21494 N 2119.6 0.497834 1.49531 0
M  V30 21495 C 2120.84 -0.0462138 2.04348 0
M  V30 21496 C 2121.2 -1.34566 1.36952 0
M  V30 21497 O 2122.4 -1.97376 1.82473 0
M  V30 21498 C 2120.67 -0.198653 3.56847 0
M  V30 21499 S 2122.23 -0.697405 4.33222 0
M  V30 21500 H 2119.05 -0.00327871 0.710992 0
M  V30 21501 H 2121.65 0.671079 1.83621 0
M  V30 21502 H 2120.35 0.75245 4.03443 0
M  V30 21503 H 2119.89 -0.941279 3.81973 0
M  V30 21504 H 2121.9 -1.96702 4.55546 0
M  V30 21505 N 2121.07 -1.5589 0.231532 0
M  V30 21506 C 2122.02 -2.22104 -0.690835 0
M  V30 21507 C 2123.02 -1.20363 -1.19202 0
M  V30 21508 O 2124.22 -1.38416 -1.1507 0
M  V30 21509 H 2120.6 -0.712259 -0.241228 0
M  V30 21510 H 2122.57 -2.98201 -0.109056 0
M  V30 21511 C 2121.32 -2.92249 -1.88377 0
M  V30 21512 H 2120.64 -3.703 -1.50725 0
M  V30 21513 H 2122.08 -3.41964 -2.50672 0
M  V30 21514 C 2120.54 -1.95268 -2.7454 0
M  V30 21515 O 2121.07 -1.47596 -3.73602 0
M  V30 21516 N 2119.27 -1.62701 -2.40783 0
M  V30 21517 H 2118.82 -2.01663 -1.6028 0
M  V30 21518 H 2118.78 -0.98076 -2.98711 0
M  V30 21519 N 2122.55 0.0417572 -1.57545 0
M  V30 21520 C 2123.8 0.736189 -1.88966 0
M  V30 21521 C 2124.13 1.75678 -0.827697 0
M  V30 21522 O 2123.41 1.93851 0.158734 0
M  V30 21523 C 2123.69 1.4172 -3.3104 0
M  V30 21524 C 2123.54 0.410987 -4.47918 0
M  V30 21525 C 2124.86 2.3545 -3.71822 0
M  V30 21526 H 2121.98 0.266166 -0.687259 0
M  V30 21527 H 2124.62 -0.000952352 -1.9 0
M  V30 21528 H 2122.77 2.04552 -3.30289 0
M  V30 21529 H 2124.44 -0.214433 -4.60801 0
M  V30 21530 H 2122.69 -0.270954 -4.32953 0
M  V30 21531 H 2123.36 0.925718 -5.44182 0
M  V30 21532 H 2125.83 1.82673 -3.73858 0
M  V30 21533 H 2124.71 2.80087 -4.72062 0
M  V30 21534 H 2124.97 3.21575 -3.03384 0
M  V30 21535 N 2124.03 1.54445 0.313786 0
M  V30 21536 C 2125.27 1.74847 1.05867 0
M  V30 21537 C 2125.63 0.516479 1.84923 0
M  V30 21538 O 2126.83 0.598017 2.62063 0
M  V30 21539 C 2125.11 2.99452 1.95099 0
M  V30 21540 S 2126.66 3.40801 2.76406 0
M  V30 21541 H 2123.48 0.614731 0.35725 0
M  V30 21542 H 2126.08 1.92634 0.33353 0
M  V30 21543 H 2124.79 3.87255 1.35873 0
M  V30 21544 H 2124.32 2.84216 2.72002 0
M  V30 21545 H 2126.33 2.96867 3.97598 0
M  V30 21546 N 2125.51 -0.576345 1.46683 0
M  V30 21547 C 2126.92 -0.900361 1.31779 0
M  V30 21548 C 2127.12 -1.99344 0.293964 0
M  V30 21549 O 2126.18 -2.50697 -0.301245 0
M  V30 21550 C 2127.49 -1.31169 2.70583 0
M  V30 21551 C 2129.04 -1.42419 2.78722 0
M  V30 21552 C 2129.52 -1.86916 4.18123 0
M  V30 21553 N 2131.01 -1.94099 4.20571 0
M  V30 21554 C 2131.74 -2.29817 5.2533 0
M  V30 21555 N 2131.24 -2.64282 6.40411 0
M  V30 21556 N 2133.03 -2.30426 5.12699 0
M  V30 21557 H 2125.18 0.145622 2.119 0
M  V30 21558 H 2127.44 0.00247797 0.947997 0
M  V30 21559 H 2127.15 -0.582484 3.46843 0
M  V30 21560 H 2127.02 -2.2719 3.01106 0
M  V30 21561 H 2129.41 -2.14425 2.02746 0
M  V30 21562 H 2129.49 -0.446341 2.51876 0
M  V30 21563 H 2129.14 -1.15486 4.94596 0
M  V30 21564 H 2129.07 -2.8567 4.4238 0
M  V30 21565 H 2131.56 -1.69927 3.3754 0
M  V30 21566 H 2131.87 -2.90509 7.16118 0
M  V30 21567 H 2130.22 -2.61906 6.43762 0
M  V30 21568 H 2133.41 -2.02927 4.21827 0
M  V30 21569 H 2133.58 -2.57934 5.94453 0
M  V30 21570 N 2126.99 -1.34495 -0.82151 0
M  V30 21571 C 2127.9 -1.28265 -1.96431 0
M  V30 21572 C 2128.91 -0.190092 -1.72959 0
M  V30 21573 O 2130.09 -0.416817 -1.9704 0
M  V30 21574 C 2127.15 -1.03935 -3.30754 0
M  V30 21575 C 2126.21 -2.22361 -3.67225 0
M  V30 21576 C 2125.45 -1.99182 -4.95139 0
M  V30 21577 O 2125.67 -0.950771 -5.6242 0
M  V30 21578 O 2124.6 -2.86169 -5.2952 0
M  V30 21579 H 2128.43 -2.2441 -2.04631 0
M  V30 21580 H 2126.01 -1.14716 -0.957114 0
M  V30 21581 H 2127.9 -0.921538 -4.112 0
M  V30 21582 H 2126.57 -0.108311 -3.23519 0
M  V30 21583 H 2125.48 -2.39702 -2.87217 0
M  V30 21584 H 2126.81 -3.1386 -3.79147 0
M  V30 21585 N 2128.46 1.04188 -1.18248 0
M  V30 21586 C 2129.71 1.77017 -0.975161 0
M  V30 21587 C 2130.03 1.88572 0.496551 0
M  V30 21588 O 2129.3 1.40982 1.36018 0
M  V30 21589 H 2127.88 0.655725 -0.357818 0
M  V30 21590 H 2130.55 1.25748 -1.48908 0
M  V30 21591 H 2129.64 2.78326 -1.41213 0
M  V30 21592 N 2129.94 0.98432 1.23081 0
M  V30 21593 C 2131.17 0.673202 1.9617 0
M  V30 21594 C 2131.59 -0.753958 1.72328 0
M  V30 21595 O 2130.95 -1.51414 0.997167 0
M  V30 21596 C 2131 0.974266 3.47189 0
M  V30 21597 O 2130.1 0.0683695 4.12343 0
M  V30 21598 H 2129.44 0.252801 0.613993 0
M  V30 21599 H 2131.97 1.31898 1.5641 0
M  V30 21600 H 2131.98 0.912577 3.97663 0
M  V30 21601 H 2130.66 2.01426 3.63868 0
M  V30 21602 H 2129.24 0.184805 3.72442 0
M  V30 21603 N 2131.42 -1.38259 0.756453 0
M  V30 21604 C 2132.67 -2.00052 0.313891 0
M  V30 21605 C 2133 -1.60047 -1.10523 0
M  V30 21606 O 2132.25 -0.830786 -1.7719 0
M  V30 21607 C 2132.55 -3.55293 0.3875 0
M  V30 21608 C 2132.22 -4.15019 1.76268 0
M  V30 21609 C 2130.88 -4.31045 2.13902 0
M  V30 21610 C 2133.23 -4.47937 2.66462 0
M  V30 21611 C 2130.56 -4.77286 3.41197 0
M  V30 21612 C 2132.91 -4.95596 3.93151 0
M  V30 21613 C 2131.57 -5.09828 4.3085 0
M  V30 21614 H 2130.84 -0.732044 0.114861 0
M  V30 21615 H 2133.49 -1.65263 0.967494 0
M  V30 21616 H 2131.8 -3.90237 -0.349664 0
M  V30 21617 H 2133.49 -4.00991 0.0266083 0
M  V30 21618 H 2130.08 -4.02962 1.46014 0
M  V30 21619 H 2134.27 -4.35154 2.38651 0
M  V30 21620 H 2129.52 -4.8649 3.7032 0
M  V30 21621 H 2133.7 -5.20036 4.6318 0
M  V30 21622 H 2131.32 -5.45419 5.29549 0
M  V30 21623 N 2132.9 -0.505757 -1.49264 0
M  V30 21624 C 2133.85 0.289479 -2.26155 0
M  V30 21625 C 2134.83 0.931357 -1.31204 0
M  V30 21626 O 2136.02 0.83817 -1.55896 0
M  V30 21627 C 2133.15 1.35048 -3.15621 0
M  V30 21628 C 2132.24 0.71461 -4.18036 0
M  V30 21629 N 2132.63 -0.185546 -5.0546 0
M  V30 21630 C 2130.93 0.974645 -4.3522 0
M  V30 21631 C 2131.63 -0.55 -5.79094 0
M  V30 21632 N 2130.61 0.0832118 -5.43536 0
M  V30 21633 H 2134.41 -0.403399 -2.91118 0
M  V30 21634 H 2131.92 -0.322149 -1.59173 0
M  V30 21635 H 2133.92 1.93369 -3.69343 0
M  V30 21636 H 2132.58 2.04499 -2.52211 0
M  V30 21637 H 2133.59 -0.556659 -5.149 0
M  V30 21638 H 2130.27 1.66154 -3.83013 0
M  V30 21639 H 2131.66 -1.2867 -6.59465 0
M  V30 21640 N 2134.38 1.55765 -0.239796 0
M  V30 21641 C 2135.31 2.24064 0.657067 0
M  V30 21642 C 2136.29 1.2185 1.18687 0
M  V30 21643 O 2137.47 1.50484 1.22753 0
M  V30 21644 C 2134.6 2.93465 1.8573 0
M  V30 21645 C 2133.56 4.02307 1.46057 0
M  V30 21646 C 2132.88 4.59097 2.74106 0
M  V30 21647 C 2134.18 5.18402 0.636932 0
M  V30 21648 H 2135.88 2.99272 0.0875675 0
M  V30 21649 H 2133.42 1.43943 0.0406772 0
M  V30 21650 H 2135.38 3.39943 2.49032 0
M  V30 21651 H 2134.1 2.15734 2.45207 0
M  V30 21652 H 2132.76 3.56588 0.850935 0
M  V30 21653 H 2132.41 3.78075 3.31766 0
M  V30 21654 H 2132.11 5.32566 2.48288 0
M  V30 21655 H 2133.63 5.08304 3.38318 0
M  V30 21656 H 2135.04 5.61149 1.17408 0
M  V30 21657 H 2133.44 5.98216 0.475092 0
M  V30 21658 H 2134.51 4.83617 -0.352445 0
M  V30 21659 N 2135.85 -0.0334016 1.57565 0
M  V30 21660 C 2137.13 -0.760253 1.80221 0
M  V30 21661 C 2137.51 -1.93806 0.836817 0
M  V30 21662 O 2136.86 -2.28174 -0.121959 0
M  V30 21663 C 2137.07 -1.19735 3.27818 0
M  V30 21664 C 2138.42 -1.61505 3.92685 0
M  V30 21665 O 2139.44 -1.29204 3.31941 0
M  V30 21666 O 2138.3 -2.21441 4.99626 0
M  V30 21667 H 2135.39 -0.36729 0.740964 0
M  V30 21668 H 2137.94 -0.0105137 1.69697 0
M  V30 21669 H 2136.71 -0.356354 3.89674 0
M  V30 21670 H 2136.34 -2.00724 3.43214 0
M  V30 21671 N 2137.33 -1.54609 -0.305591 0
M  V30 21672 C 2138.74 -1.64719 -0.878888 0
M  V30 21673 C 2139.09 -0.552868 -1.88249 0
M  V30 21674 O 2138.22 0.311274 -2.1415 0
M  V30 21675 C 2138.81 -2.98593 -1.60087 0
M  V30 21676 C 2137.37 -3.10839 -2.12264 0
M  V30 21677 C 2136.52 -2.6038 -0.953822 0
M  V30 21678 H 2139.47 -1.58484 -0.0827074 0
M  V30 21679 H 2139.49 -2.89759 -2.46617 0
M  V30 21680 H 2139 -3.78219 -0.870185 0
M  V30 21681 H 2137.11 -2.35924 -2.88394 0
M  V30 21682 H 2137.22 -4.16924 -2.36031 0
M  V30 21683 H 2135.58 -2.16719 -1.33809 0
M  V30 21684 H 2136.37 -3.4248 -0.237166 0
M  V30 21685 N 2138.81 0.568558 -1.46987 0
M  V30 21686 C 2139.77 1.65862 -1.58185 0
M  V30 21687 C 2140.77 1.54145 -0.457828 0
M  V30 21688 O 2141.96 1.58507 -0.722567 0
M  V30 21689 C 2139.1 3.05356 -1.5156 0
M  V30 21690 H 2140.29 1.57286 -2.55345 0
M  V30 21691 H 2137.84 0.787562 -1.35008 0
M  V30 21692 H 2138.58 3.19475 -0.557329 0
M  V30 21693 H 2138.36 3.1527 -2.33125 0
M  V30 21694 H 2139.85 3.84682 -1.62511 0
M  V30 21695 N 2140.29 1.34929 0.814366 0
M  V30 21696 C 2141.24 1.27231 1.94718 0
M  V30 21697 C 2142.23 0.16873 1.68558 0
M  V30 21698 O 2143.44 0.334235 1.7687 0
M  V30 21699 H 2139.81 0.395475 0.639612 0
M  V30 21700 H 2141.78 2.22951 1.98332 0
M  V30 21701 C 2140.53 1.0533 3.31362 0
M  V30 21702 H 2139.85 1.89485 3.52045 0
M  V30 21703 H 2141.29 1.03983 4.11052 0
M  V30 21704 C 2139.75 -0.243132 3.36022 0
M  V30 21705 O 2140.28 -1.24159 3.82031 0
M  V30 21706 N 2138.49 -0.279214 2.89256 0
M  V30 21707 H 2138.04 0.533893 2.52007 0
M  V30 21708 H 2137.99 -1.14638 2.92755 0
M  V30 21709 N 2141.77 -1.0356 1.18799 0
M  V30 21710 C 2142.7 -2.13602 0.943213 0
M  V30 21711 C 2143.68 -1.69669 -0.120965 0
M  V30 21712 O 2144.86 -1.94173 0.0326748 0
M  V30 21713 C 2141.99 -3.44054 0.473716 0
M  V30 21714 C 2140.95 -4.01635 1.47896 0
M  V30 21715 C 2140.27 -5.27628 0.866789 0
M  V30 21716 C 2141.57 -4.3722 2.8572 0
M  V30 21717 H 2143.27 -2.34336 1.86351 0
M  V30 21718 H 2140.81 -1.12617 0.897406 0
M  V30 21719 H 2142.77 -4.20402 0.289804 0
M  V30 21720 H 2141.49 -3.23021 -0.482167 0
M  V30 21721 H 2140.15 -3.27374 1.6499 0
M  V30 21722 H 2139.8 -5.02908 -0.0964386 0
M  V30 21723 H 2139.5 -5.67115 1.53799 0
M  V30 21724 H 2141.02 -6.06649 0.693523 0
M  V30 21725 H 2142.43 -5.04533 2.72248 0
M  V30 21726 H 2140.83 -4.87771 3.49571 0
M  V30 21727 H 2141.9 -3.46821 3.38885 0
M  V30 21728 N 2143.25 -0.990834 -1.22557 0
M  V30 21729 C 2144.19 -0.539382 -2.24409 0
M  V30 21730 C 2145.16 0.427199 -1.60512 0
M  V30 21731 O 2146.35 0.332419 -1.87882 0
M  V30 21732 C 2143.49 0.141857 -3.44808 0
M  V30 21733 C 2142.6 -0.86622 -4.23226 0
M  V30 21734 C 2141.74 -0.158712 -5.30963 0
M  V30 21735 C 2140.77 -1.1553 -6.01098 0
M  V30 21736 N 2139.91 -0.476237 -7.00483 0
M  V30 21737 H 2144.75 -1.41266 -2.62389 0
M  V30 21738 H 2142.29 -0.707664 -1.28959 0
M  V30 21739 H 2144.25 0.553728 -4.13509 0
M  V30 21740 H 2142.88 0.978941 -3.07598 0
M  V30 21741 H 2141.93 -1.39642 -3.53842 0
M  V30 21742 H 2143.24 -1.62521 -4.71581 0
M  V30 21743 H 2142.39 0.309995 -6.05908 0
M  V30 21744 H 2141.13 0.632794 -4.83577 0
M  V30 21745 H 2140.14 -1.63465 -5.24937 0
M  V30 21746 H 2141.36 -1.94764 -6.50572 0
M  V30 21747 H 2139.31 0.295871 -6.55332 0
M  V30 21748 H 2139.23 -1.1737 -7.46833 0
M  V30 21749 H 2140.49 -0.0302638 -7.79494 0
M  V30 21750 N 2144.72 1.37856 -0.763775 0
M  V30 21751 C 2145.97 1.99488 -0.323855 0
M  V30 21752 C 2146.29 1.60934 1.10115 0
M  V30 21753 O 2145.56 0.870985 1.75473 0
M  V30 21754 H 2144.14 0.73782 -0.116753 0
M  V30 21755 H 2146.8 1.68462 -0.980132 0
M  V30 21756 H 2145.9 3.09589 -0.395113 0
M  V30 21757 N 2146.2 0.513665 1.48994 0
M  V30 21758 C 2147.44 -0.0245374 2.04385 0
M  V30 21759 C 2147.81 -1.33106 1.38372 0
M  V30 21760 O 2149.01 -1.95429 1.84556 0
M  V30 21761 C 2147.28 -0.160793 3.57038 0
M  V30 21762 S 2148.84 -0.651417 4.33938 0
M  V30 21763 H 2145.65 0.0042625 0.710987 0
M  V30 21764 H 2148.26 0.690517 1.82899 0
M  V30 21765 H 2146.96 0.795198 4.02622 0
M  V30 21766 H 2146.49 -0.900712 3.8295 0
M  V30 21767 H 2148.51 -1.9186 4.57607 0
M  V30 21768 N 2147.68 -1.55636 0.248053 0
M  V30 21769 C 2148.91 -2.03371 -0.380481 0
M  V30 21770 C 2149.32 -1.12727 -1.51453 0
M  V30 21771 O 2148.68 -0.141929 -1.81947 0
M  V30 21772 C 2148.73 -3.50445 -0.887178 0
M  V30 21773 O 2148.45 -4.37636 0.20168 0
M  V30 21774 C 2149.95 -4.13947 -1.58628 0
M  V30 21775 H 2147.17 -0.664899 -0.0902759 0
M  V30 21776 H 2149.72 -2.01083 0.372253 0
M  V30 21777 H 2147.87 -3.53263 -1.59009 0
M  V30 21778 H 2148.29 -5.2418 -0.183268 0
M  V30 21779 H 2149.76 -5.18543 -1.89253 0
M  V30 21780 H 2150.24 -3.60505 -2.50864 0
M  V30 21781 H 2150.84 -4.15054 -0.927917 0
M  V30 21782 N 2149.16 0.0250451 -1.5758 0
M  V30 21783 C 2150.38 0.730408 -1.94113 0
M  V30 21784 C 2150.81 1.67882 -0.848362 0
M  V30 21785 O 2150.17 1.80242 0.195596 0
M  V30 21786 C 2150.21 1.46014 -3.29715 0
M  V30 21787 O 2149.32 2.57351 -3.22249 0
M  V30 21788 H 2148.66 0.196157 -0.634365 0
M  V30 21789 H 2151.19 -0.0206802 -2.0459 0
M  V30 21790 H 2151.2 1.82917 -3.64699 0
M  V30 21791 H 2149.87 0.764593 -4.08811 0
M  V30 21792 H 2148.45 2.22961 -2.98903 0
M  V30 21793 N 2150.64 1.54769 0.297388 0
M  V30 21794 C 2151.88 1.7596 1.04007 0
M  V30 21795 C 2152.24 0.536063 1.84365 0
M  V30 21796 O 2153.44 0.625778 2.61414 0
M  V30 21797 C 2151.71 3.01504 1.91911 0
M  V30 21798 S 2153.27 3.43713 2.72776 0
M  V30 21799 H 2150.09 0.618485 0.350709 0
M  V30 21800 H 2152.69 1.92977 0.31308 0
M  V30 21801 H 2151.39 3.88675 1.31758 0
M  V30 21802 H 2150.93 2.87085 2.68972 0
M  V30 21803 H 2152.94 3.01067 3.94427 0
M  V30 21804 N 2152.11 -0.560755 1.47286 0
M  V30 21805 C 2153.36 -1.31809 1.53729 0
M  V30 21806 C 2153.69 -1.93489 0.198079 0
M  V30 21807 O 2152.94 -1.78211 -0.808664 0
M  V30 21808 C 2153.24 -2.45125 2.60093 0
M  V30 21809 C 2152.91 -2.01298 4.03472 0
M  V30 21810 C 2151.57 -1.89062 4.42503 0
M  V30 21811 C 2153.92 -1.67796 4.93451 0
M  V30 21812 C 2151.25 -1.41613 5.69353 0
M  V30 21813 C 2153.6 -1.21819 6.2076 0
M  V30 21814 C 2152.27 -1.08176 6.58676 0
M  V30 21815 H 2151.54 -0.482323 0.562535 0
M  V30 21816 H 2154.18 -0.629194 1.80868 0
M  V30 21817 H 2152.49 -3.19555 2.26697 0
M  V30 21818 H 2154.19 -3.03313 2.62302 0
M  V30 21819 H 2150.78 -2.11764 3.72631 0
M  V30 21820 H 2154.96 -1.76124 4.63998 0
M  V30 21821 H 2150.22 -1.29712 5.97482 0
M  V30 21822 H 2154.39 -0.949566 6.89896 0
M  V30 21823 H 2152.02 -0.711868 7.5686 0
M  V30 21824 N 2153.59 -1.35359 -0.807199 0
M  V30 21825 C 2154.83 -1.29962 -1.57763 0
M  V30 21826 C 2155.2 0.124572 -1.91595 0
M  V30 21827 O 2156.4 0.302903 -2.67088 0
M  V30 21828 C 2154.67 -2.18018 -2.83202 0
M  V30 21829 S 2156.23 -2.3013 -3.73611 0
M  V30 21830 H 2153.04 -0.461874 -0.540549 0
M  V30 21831 H 2155.65 -1.70743 -0.952207 0
M  V30 21832 H 2154.35 -3.20473 -2.56369 0
M  V30 21833 H 2153.88 -1.78191 -3.5073 0
M  V30 21834 H 2155.9 -1.48567 -4.73437 0
M  V30 21835 N 2155.07 1.02928 -1.19346 0
M  V30 21836 C 2156.32 1.76321 -0.995848 0
M  V30 21837 C 2156.64 1.88651 0.473415 0
M  V30 21838 O 2155.9 1.39967 1.36776 0
M  V30 21839 C 2156.2 3.1911 -1.60946 0
M  V30 21840 C 2155.86 3.26788 -3.10677 0
M  V30 21841 C 2154.53 3.28591 -3.51541 0
M  V30 21842 C 2156.88 3.25968 -4.06687 0
M  V30 21843 C 2154.21 3.27229 -4.86968 0
M  V30 21844 C 2156.56 3.26146 -5.42044 0
M  V30 21845 C 2155.22 3.26247 -5.8234 0
M  V30 21846 H 2154.49 0.645204 -0.364407 0
M  V30 21847 H 2157.14 1.20811 -1.48584 0
M  V30 21848 H 2155.44 3.77696 -1.04177 0
M  V30 21849 H 2157.14 3.74565 -1.43185 0
M  V30 21850 H 2153.73 3.26113 -2.78116 0
M  V30 21851 H 2157.92 3.23756 -3.76159 0
M  V30 21852 H 2153.17 3.2563 -5.1747 0
M  V30 21853 H 2157.35 3.24462 -6.16196 0
M  V30 21854 H 2154.97 3.24945 -6.87252 0
M  V30 21855 N 2156.55 0.997319 1.2203 0
M  V30 21856 C 2157.8 0.674331 1.90518 0
M  V30 21857 C 2158.12 -0.796582 1.77988 0
M  V30 21858 O 2157.39 -1.57133 1.16988 0
M  V30 21859 H 2155.97 0.246427 0.705183 0
M  V30 21860 H 2158.63 1.26478 1.48288 0
M  V30 21861 H 2157.72 0.940744 2.97584 0
M  V30 21862 N 2158.03 -1.37449 0.771075 0
M  V30 21863 C 2159.27 -2.00004 0.335588 0
M  V30 21864 C 2159.61 -1.6107 -1.0849 0
M  V30 21865 O 2158.88 -0.856568 -1.74623 0
M  V30 21866 C 2159.16 -3.56908 0.478386 0
M  V30 21867 C 2159.02 -4.05753 1.94124 0
M  V30 21868 C 2160.34 -4.39942 -0.117748 0
M  V30 21869 H 2157.45 -0.726594 0.12341 0
M  V30 21870 H 2160.1 -1.63136 0.973992 0
M  V30 21871 H 2158.25 -3.88445 -0.0651015 0
M  V30 21872 H 2159.92 -3.84784 2.54438 0
M  V30 21873 H 2158.16 -3.57971 2.45029 0
M  V30 21874 H 2158.83 -5.14796 1.99222 0
M  V30 21875 H 2161.31 -4.14659 0.34597 0
M  V30 21876 H 2160.18 -5.48899 0.0123067 0
M  V30 21877 H 2160.45 -4.25276 -1.20799 0
M  V30 21878 N 2159.5 -0.52156 -1.4872 0
M  V30 21879 C 2160.45 0.259278 -2.3115 0
M  V30 21880 C 2161.45 0.943463 -1.40695 0
M  V30 21881 O 2162.65 0.868807 -1.57644 0
M  V30 21882 H 2159.03 0.10248 -0.744984 0
M  V30 21883 H 2161 -0.455653 -2.94901 0
M  V30 21884 C 2159.75 1.29841 -3.22547 0
M  V30 21885 H 2159.07 0.781352 -3.9209 0
M  V30 21886 H 2160.51 1.81634 -3.83125 0
M  V30 21887 C 2158.97 2.32757 -2.43569 0
M  V30 21888 O 2159.5 3.39036 -2.15448 0
M  V30 21889 N 2157.71 2.05753 -2.05217 0
M  V30 21890 H 2157.25 1.19343 -2.28287 0
M  V30 21891 H 2157.21 2.74836 -1.52685 0
M  V30 21892 N 2160.98 1.55502 -0.256304 0
M  V30 21893 C 2161.93 2.23175 0.655412 0
M  V30 21894 C 2162.92 1.22244 1.17272 0
M  V30 21895 O 2164.13 1.40229 1.12853 0
M  V30 21896 H 2160.51 0.716007 0.229866 0
M  V30 21897 H 2162.48 2.98336 0.0616012 0
M  V30 21898 C 2161.23 2.95209 1.83704 0
M  V30 21899 H 2160.55 3.72651 1.44814 0
M  V30 21900 H 2161.99 3.45909 2.452 0
M  V30 21901 C 2160.45 1.99611 2.71398 0
M  V30 21902 O 2160.98 1.53521 3.71207 0
M  V30 21903 N 2159.18 1.66511 2.38165 0
M  V30 21904 H 2158.73 2.04188 1.57051 0
M  V30 21905 H 2158.69 1.02816 2.97113 0
M  V30 21906 N 2162.46 -0.0166879 1.57591 0
M  V30 21907 C 2163.39 -1.04126 2.04182 0
M  V30 21908 C 2164.41 -1.31719 0.956768 0
M  V30 21909 O 2165.59 -1.28988 1.23387 0
M  V30 21910 C 2162.69 -2.38001 2.41265 0
M  V30 21911 C 2161.87 -2.29588 3.72301 0
M  V30 21912 C 2160.93 -3.46013 3.96436 0
M  V30 21913 O 2159.95 -3.2495 4.67328 0
M  V30 21914 N 2161.15 -4.68304 3.43033 0
M  V30 21915 H 2163.92 -0.644054 2.92698 0
M  V30 21916 H 2161.48 -0.204401 1.60605 0
M  V30 21917 H 2163.47 -3.14631 2.54538 0
M  V30 21918 H 2162.04 -2.69522 1.58355 0
M  V30 21919 H 2161.26 -1.37977 3.69264 0
M  V30 21920 H 2162.55 -2.21122 4.58238 0
M  V30 21921 H 2161.95 -4.88316 2.85593 0
M  V30 21922 H 2160.51 -5.42256 3.61665 0
M  V30 21923 N 2163.94 -1.54924 -0.289176 0
M  V30 21924 C 2165.18 -1.76509 -1.03072 0
M  V30 21925 C 2165.54 -0.545833 -1.84078 0
M  V30 21926 O 2166.74 -0.639633 -2.61079 0
M  V30 21927 C 2165.01 -3.02518 -1.9031 0
M  V30 21928 S 2166.57 -3.45155 -2.70949 0
M  V30 21929 H 2163.39 -0.620336 -0.347424 0
M  V30 21930 H 2165.99 -1.9314 -0.302842 0
M  V30 21931 H 2164.7 -3.89368 -1.29695 0
M  V30 21932 H 2164.23 -2.88507 -2.67446 0
M  V30 21933 H 2166.24 -3.03155 -3.92825 0
M  V30 21934 N 2165.42 0.552936 -1.47582 0
M  V30 21935 C 2166.37 1.65526 -1.56796 0
M  V30 21936 C 2167.35 1.55143 -0.426565 0
M  V30 21937 O 2168.54 1.63552 -0.67673 0
M  V30 21938 C 2165.67 3.04296 -1.58931 0
M  V30 21939 C 2164.76 3.19868 -2.7847 0
M  V30 21940 N 2165.15 3.05489 -4.03125 0
M  V30 21941 C 2163.45 3.50877 -2.75321 0
M  V30 21942 C 2164.15 3.23865 -4.83204 0
M  V30 21943 N 2163.12 3.50395 -4.15601 0
M  V30 21944 H 2166.93 1.52985 -2.50944 0
M  V30 21945 H 2164.44 0.757807 -1.43635 0
M  V30 21946 H 2166.44 3.83449 -1.63622 0
M  V30 21947 H 2165.1 3.17946 -0.658821 0
M  V30 21948 H 2166.11 2.82727 -4.33919 0
M  V30 21949 H 2162.78 3.71027 -1.91429 0
M  V30 21950 H 2164.17 3.17681 -5.92055 0
M  V30 21951 N 2166.89 1.35785 0.800009 0
M  V30 21952 C 2168.12 1.32717 1.59377 0
M  V30 21953 C 2168.54 -0.0914251 1.87878 0
M  V30 21954 O 2167.9 -1.06023 1.47068 0
M  V30 21955 C 2167.95 2.14589 2.898 0
M  V30 21956 O 2167.05 1.53112 3.82924 0
M  V30 21957 H 2166.4 0.45473 0.483856 0
M  V30 21958 H 2168.93 1.7892 0.992412 0
M  V30 21959 H 2168.94 2.26784 3.39165 0
M  V30 21960 H 2167.61 3.17717 2.68382 0
M  V30 21961 H 2166.19 1.49795 3.41491 0
M  V30 21962 N 2168.37 -1.02294 1.19891 0
M  V30 21963 C 2169.6 -1.79941 1.03131 0
M  V30 21964 C 2170.02 -1.8346 -0.415201 0
M  V30 21965 O 2169.38 -1.26499 -1.29876 0
M  V30 21966 C 2169.43 -3.22565 1.61196 0
M  V30 21967 O 2168.53 -4.03644 0.845295 0
M  V30 21968 H 2167.87 -0.555254 0.364128 0
M  V30 21969 H 2170.4 -1.28709 1.59045 0
M  V30 21970 H 2170.41 -3.73296 1.64663 0
M  V30 21971 H 2169.09 -3.19318 2.66474 0
M  V30 21972 H 2167.67 -3.62262 0.884338 0
M  V30 21973 N 2169.85 -1.00378 -1.21499 0
M  V30 21974 C 2170.8 -0.534183 -2.21654 0
M  V30 21975 C 2171.78 0.403544 -1.55757 0
M  V30 21976 O 2172.98 0.228594 -1.75518 0
M  V30 21977 C 2170.11 0.139036 -3.43018 0
M  V30 21978 C 2169.19 -0.819638 -4.16104 0
M  V30 21979 N 2169.58 -1.97196 -4.65776 0
M  V30 21980 C 2167.88 -0.637767 -4.41417 0
M  V30 21981 C 2168.58 -2.57457 -5.21623 0
M  V30 21982 N 2167.56 -1.85627 -5.10924 0
M  V30 21983 H 2171.36 -1.41287 -2.57711 0
M  V30 21984 H 2168.87 -0.867442 -1.37292 0
M  V30 21985 H 2170.87 0.492917 -4.13976 0
M  V30 21986 H 2169.53 1.01372 -3.0847 0
M  V30 21987 H 2170.54 -2.35237 -4.61393 0
M  V30 21988 H 2167.22 0.189943 -4.17068 0
M  V30 21989 H 2168.61 -3.54903 -5.7052 0
M  V30 21990 N 2171.33 1.37038 -0.778354 0
M  V30 21991 C 2172.28 2.30193 -0.167288 0
M  V30 21992 C 2173.25 1.51429 0.682526 0
M  V30 21993 O 2174.43 1.79976 0.633513 0
M  V30 21994 C 2171.57 3.37912 0.700668 0
M  V30 21995 C 2170.68 4.31679 -0.166475 0
M  V30 21996 C 2169.82 5.26477 0.706809 0
M  V30 21997 C 2168.86 6.11884 -0.162465 0
M  V30 21998 N 2167.99 6.98904 0.66917 0
M  V30 21999 H 2172.83 2.81868 -0.967185 0
M  V30 22000 H 2170.37 1.3875 -0.488542 0
M  V30 22001 H 2172.33 3.99001 1.21877 0
M  V30 22002 H 2170.96 2.87585 1.4661 0
M  V30 22003 H 2170.01 3.7184 -0.802449 0
M  V30 22004 H 2171.32 4.91732 -0.836729 0
M  V30 22005 H 2170.48 5.92802 1.29115 0
M  V30 22006 H 2169.22 4.66851 1.41073 0
M  V30 22007 H 2168.22 5.44532 -0.759288 0
M  V30 22008 H 2169.45 6.73584 -0.863814 0
M  V30 22009 H 2167.39 6.41799 1.35758 0
M  V30 22010 H 2167.31 7.55979 0.0563568 0
M  V30 22011 H 2168.58 7.69611 1.23769 0
M  V30 22012 N 2172.81 0.529439 1.48441 0
M  V30 22013 C 2174.22 0.18726 1.58498 0
M  V30 22014 C 2174.42 -1.30947 1.53151 0
M  V30 22015 O 2173.48 -2.08768 1.42029 0
M  V30 22016 C 2174.79 0.789307 2.90156 0
M  V30 22017 C 2176.34 0.757992 3.03683 0
M  V30 22018 C 2176.82 1.33861 4.38002 0
M  V30 22019 N 2178.31 1.30055 4.44567 0
M  V30 22020 C 2179.04 1.7197 5.47004 0
M  V30 22021 N 2178.54 2.21612 6.56399 0
M  V30 22022 N 2180.33 1.63211 5.37884 0
M  V30 22023 H 2172.48 1.5022 1.50159 0
M  V30 22024 H 2174.74 0.624813 0.712961 0
M  V30 22025 H 2174.45 1.84009 2.99722 0
M  V30 22026 H 2174.32 0.266088 3.7626 0
M  V30 22027 H 2176.71 -0.284031 2.9373 0
M  V30 22028 H 2176.79 1.31867 2.19191 0
M  V30 22029 H 2176.44 2.37955 4.48709 0
M  V30 22030 H 2176.37 0.75361 5.2118 0
M  V30 22031 H 2178.86 0.937142 3.66096 0
M  V30 22032 H 2179.17 2.51591 7.30699 0
M  V30 22033 H 2177.52 2.25605 6.57364 0
M  V30 22034 H 2180.71 1.24226 4.51315 0
M  V30 22035 H 2180.88 1.96197 6.17584 0
M  V30 22036 N 2174.29 -1.55364 0.264547 0
M  V30 22037 C 2175.7 -1.59347 -0.0898743 0
M  V30 22038 C 2175.9 -1.28177 -1.55476 0
M  V30 22039 O 2174.96 -1.03755 -2.30198 0
M  V30 22040 C 2176.27 -2.99438 0.27523 0
M  V30 22041 C 2177.82 -3.12219 0.220976 0
M  V30 22042 C 2178.29 -4.54559 0.560366 0
M  V30 22043 N 2179.78 -4.60367 0.511522 0
M  V30 22044 C 2180.52 -5.68513 0.747063 0
M  V30 22045 N 2180.02 -6.84848 1.04666 0
M  V30 22046 N 2181.81 -5.58013 0.676574 0
M  V30 22047 H 2173.96 -1.73891 1.21966 0
M  V30 22048 H 2176.22 -0.810337 0.491994 0
M  V30 22049 H 2175.93 -3.27046 1.2936 0
M  V30 22050 H 2175.8 -3.75188 -0.389113 0
M  V30 22051 H 2178.19 -2.84382 -0.788097 0
M  V30 22052 H 2178.27 -2.38705 0.919424 0
M  V30 22053 H 2177.91 -4.8312 1.56708 0
M  V30 22054 H 2177.84 -5.26358 -0.159757 0
M  V30 22055 H 2180.34 -3.7679 0.289407 0
M  V30 22056 H 2180.65 -7.63216 1.21334 0
M  V30 22057 H 2178.99 -6.86489 1.08433 0
M  V30 22058 H 2182.18 -4.66004 0.442433 0
M  V30 22059 H 2182.36 -6.42221 0.863527 0
M  V30 22060 N 2175.76 0.00833021 -1.57598 0
M  V30 22061 C 2176.99 0.706123 -1.94478 0
M  V30 22062 C 2177.41 1.67768 -0.86599 0
M  V30 22063 O 2176.76 1.81834 0.155828 0
M  V30 22064 C 2176.81 1.44523 -3.31354 0
M  V30 22065 O 2176.54 0.512651 -4.3509 0
M  V30 22066 C 2178.04 2.2383 -3.82642 0
M  V30 22067 H 2175.26 0.197195 -0.64137 0
M  V30 22068 H 2177.8 -0.0403132 -2.0446 0
M  V30 22069 H 2175.96 2.14337 -3.22705 0
M  V30 22070 H 2176.37 1.03321 -5.14223 0
M  V30 22071 H 2177.84 2.71055 -4.80867 0
M  V30 22072 H 2178.32 3.06148 -3.14913 0
M  V30 22073 H 2178.93 1.59049 -3.94441 0
M  V30 22074 N 2177.24 1.55075 0.280956 0
M  V30 22075 C 2178.19 1.87409 1.34709 0
M  V30 22076 C 2179.16 0.72482 1.49451 0
M  V30 22077 O 2180.34 0.975348 1.63987 0
M  V30 22078 C 2177.48 2.14456 2.70375 0
M  V30 22079 C 2176.6 3.42009 2.6392 0
M  V30 22080 C 2175.73 3.58796 3.91713 0
M  V30 22081 C 2174.77 4.8007 3.79736 0
M  V30 22082 N 2173.91 4.93556 4.99346 0
M  V30 22083 H 2178.75 2.78344 1.06435 0
M  V30 22084 H 2176.28 1.37813 0.514379 0
M  V30 22085 H 2178.24 2.28135 3.493 0
M  V30 22086 H 2176.87 1.26764 2.96868 0
M  V30 22087 H 2175.92 3.36844 1.7675 0
M  V30 22088 H 2177.24 4.31065 2.50967 0
M  V30 22089 H 2176.39 3.7225 4.79077 0
M  V30 22090 H 2175.13 2.6791 4.07524 0
M  V30 22091 H 2174.13 4.66628 2.90754 0
M  V30 22092 H 2175.36 5.72383 3.65451 0
M  V30 22093 H 2173.31 4.05599 5.15582 0
M  V30 22094 H 2173.22 5.76645 4.88893 0
M  V30 22095 H 2174.49 5.11387 5.88305 0
M  V30 22096 N 2178.72 -0.545102 1.47873 0
M  V30 22097 C 2179.97 -1.30171 1.55119 0
M  V30 22098 C 2180.29 -1.93268 0.21859 0
M  V30 22099 O 2179.55 -1.79059 -0.789717 0
M  V30 22100 C 2179.85 -2.42353 2.62678 0
M  V30 22101 C 2179.51 -1.97008 4.05584 0
M  V30 22102 C 2178.18 -1.84358 4.44484 0
M  V30 22103 C 2180.53 -1.62553 4.95203 0
M  V30 22104 C 2177.86 -1.35566 5.70823 0
M  V30 22105 C 2180.21 -1.15228 6.22017 0
M  V30 22106 C 2178.87 -1.01184 6.59786 0
M  V30 22107 H 2178.14 -0.476329 0.567619 0
M  V30 22108 H 2180.79 -0.609975 1.81526 0
M  V30 22109 H 2179.09 -3.17133 2.30074 0
M  V30 22110 H 2180.79 -3.00514 2.65504 0
M  V30 22111 H 2177.38 -2.078 3.74856 0
M  V30 22112 H 2181.57 -1.71193 4.6584 0
M  V30 22113 H 2176.82 -1.23367 5.98824 0
M  V30 22114 H 2181 -0.87634 6.90864 0
M  V30 22115 H 2178.62 -0.631553 7.57572 0
M  V30 22116 N 2180.2 -1.36208 -0.792797 0
M  V30 22117 C 2181.44 -1.30442 -1.55282 0
M  V30 22118 C 2181.78 0.117071 -1.93847 0
M  V30 22119 O 2181.05 1.06968 -1.62444 0
M  V30 22120 C 2181.33 -2.22396 -2.83218 0
M  V30 22121 C 2181.19 -3.73227 -2.51042 0
M  V30 22122 C 2182.51 -2.13185 -3.85019 0
M  V30 22123 H 2179.63 -0.475171 -0.563366 0
M  V30 22124 H 2182.27 -1.6673 -0.911103 0
M  V30 22125 H 2180.42 -1.9158 -3.37979 0
M  V30 22126 H 2182.09 -4.14547 -2.02358 0
M  V30 22127 H 2180.33 -3.92829 -1.84033 0
M  V30 22128 H 2181 -4.32972 -3.42402 0
M  V30 22129 H 2183.48 -2.40303 -3.39696 0
M  V30 22130 H 2182.36 -2.797 -4.72291 0
M  V30 22131 H 2182.62 -1.11808 -4.27728 0
M  V30 22132 N 2181.68 1.01656 -1.20431 0
M  V30 22133 C 2182.95 1.72424 -0.923539 0
M  V30 22134 C 2183.33 2.03324 0.567675 0
M  V30 22135 O 2182.68 1.69774 1.52935 0
M  V30 22136 C 2182.89 2.99208 -1.79654 0
M  V30 22137 C 2184.24 3.72472 -2.03838 0
M  V30 22138 O 2185.26 3.09164 -1.76907 0
M  V30 22139 O 2184.12 4.86314 -2.49321 0
M  V30 22140 H 2181.22 0.751461 -0.345305 0
M  V30 22141 H 2183.76 1.07504 -1.31305 0
M  V30 22142 H 2182.53 2.72695 -2.80629 0
M  V30 22143 H 2182.16 3.71869 -1.4071 0
M  V30 22144 N 2183.15 1.01021 1.20965 0
M  V30 22145 C 2184.09 0.519783 2.22201 0
M  V30 22146 C 2185.06 -0.429328 1.5683 0
M  V30 22147 O 2186.25 -0.350829 1.85206 0
M  V30 22148 C 2183.38 -0.244355 3.37817 0
M  V30 22149 C 2182.42 0.653341 4.21466 0
M  V30 22150 S 2183.25 2.11879 4.918 0
M  V30 22151 C 2184.41 1.36463 6.10843 0
M  V30 22152 H 2184.64 1.37759 2.63457 0
M  V30 22153 H 2182.18 0.818571 1.30915 0
M  V30 22154 H 2184.13 -0.679146 4.04843 0
M  V30 22155 H 2182.8 -1.07765 2.95035 0
M  V30 22156 H 2181.99 0.0644713 5.03959 0
M  V30 22157 H 2181.59 1.02563 3.59662 0
M  V30 22158 H 2183.88 0.641256 6.74458 0
M  V30 22159 H 2184.83 2.16546 6.74176 0
M  V30 22160 H 2185.23 0.870317 5.57751 0
M  V30 22161 N 2184.63 -1.36623 0.78561 0
M  V30 22162 C 2185.56 -2.3268 0.195557 0
M  V30 22163 C 2186.54 -1.56463 -0.667335 0
M  V30 22164 O 2187.73 -1.84636 -0.601943 0
M  V30 22165 C 2184.86 -3.40708 -0.673467 0
M  V30 22166 C 2183.81 -4.27907 0.0892255 0
M  V30 22167 C 2183.14 -5.27069 -0.900146 0
M  V30 22168 C 2184.44 -5.06468 1.27624 0
M  V30 22169 H 2186.13 -2.82276 0.998033 0
M  V30 22170 H 2183.68 -1.35716 0.481373 0
M  V30 22171 H 2185.63 -4.06893 -1.09617 0
M  V30 22172 H 2184.35 -2.8967 -1.50861 0
M  V30 22173 H 2183.01 -3.63272 0.492858 0
M  V30 22174 H 2182.66 -4.72306 -1.73022 0
M  V30 22175 H 2182.36 -5.86276 -0.394285 0
M  V30 22176 H 2183.89 -5.96128 -1.32149 0
M  V30 22177 H 2185.3 -5.65715 0.92949 0
M  V30 22178 H 2183.7 -5.75068 1.71513 0
M  V30 22179 H 2184.77 -4.38332 2.07349 0
M  V30 22180 N 2186.11 -0.537304 -1.48158 0
M  V30 22181 C 2187.36 -0.00587084 -2.02099 0
M  V30 22182 C 2187.68 1.3407 -1.41599 0
M  V30 22183 O 2186.95 1.86993 -0.583977 0
M  V30 22184 H 2185.53 0.000818022 -0.747 0
M  V30 22185 H 2188.19 -0.702798 -1.81788 0
M  V30 22186 H 2187.29 0.0970321 -3.11949 0
M  V30 22187 N 2187.59 1.55221 -0.272782 0
M  V30 22188 C 2188.83 2.00569 0.338179 0
M  V30 22189 C 2189.19 1.15787 1.53659 0
M  V30 22190 O 2188.48 0.219393 1.9034 0
M  V30 22191 C 2188.68 3.48938 0.773111 0
M  V30 22192 C 2188.51 4.48078 -0.381611 0
M  V30 22193 C 2187.28 4.97847 -0.864644 0
M  V30 22194 C 2189.47 4.99686 -1.21731 0
M  V30 22195 N 2187.46 5.80783 -1.98908 0
M  V30 22196 C 2188.83 5.80046 -2.18968 0
M  V30 22197 C 2190.88 4.8193 -1.25092 0
M  V30 22198 C 2189.58 6.44543 -3.19307 0
M  V30 22199 C 2191.61 5.47224 -2.24275 0
M  V30 22200 C 2190.97 6.27394 -3.20244 0
M  V30 22201 H 2187.07 0.776921 0.0889851 0
M  V30 22202 H 2189.66 1.90625 -0.396271 0
M  V30 22203 H 2187.83 3.59229 1.47679 0
M  V30 22204 H 2189.56 3.81121 1.36121 0
M  V30 22205 H 2186.31 4.71511 -0.444346 0
M  V30 22206 H 2186.74 6.26943 -2.55484 0
M  V30 22207 H 2191.38 4.19556 -0.522767 0
M  V30 22208 H 2189.1 7.06068 -3.93057 0
M  V30 22209 H 2192.68 5.35428 -2.27614 0
M  V30 22210 H 2191.56 6.77025 -3.95736 0
M  V30 22211 N 2189.07 2.77022e-05 1.576 0
M  V30 22212 C 2190.02 -0.99989 2.04905 0
M  V30 22213 C 2191 -1.30313 0.943787 0
M  V30 22214 O 2192.19 -1.29411 1.20755 0
M  V30 22215 C 2189.32 -2.29188 2.55593 0
M  V30 22216 C 2188.41 -2.01827 3.72997 0
M  V30 22217 N 2188.8 -1.44626 4.84682 0
M  V30 22218 C 2187.1 -2.3197 3.80928 0
M  V30 22219 C 2187.8 -1.33737 5.66118 0
M  V30 22220 N 2186.77 -1.82299 5.12121 0
M  V30 22221 H 2190.58 -0.552119 2.88667 0
M  V30 22222 H 2188.09 -0.205666 1.61092 0
M  V30 22223 H 2190.09 -3.01663 2.87759 0
M  V30 22224 H 2188.75 -2.74617 1.7325 0
M  V30 22225 H 2189.76 -1.12507 5.05532 0
M  V30 22226 H 2186.43 -2.80274 3.09439 0
M  V30 22227 H 2187.82 -0.897537 6.65878 0
M  V30 22228 N 2190.54 -1.55222 -0.272728 0
M  V30 22229 C 2191.47 -1.9113 -1.34133 0
M  V30 22230 C 2192.46 -0.773195 -1.51511 0
M  V30 22231 O 2193.64 -1.03135 -1.6455 0
M  V30 22232 C 2190.77 -2.18345 -2.70079 0
M  V30 22233 C 2189.72 -3.34162 -2.67431 0
M  V30 22234 C 2189.05 -3.46858 -4.06932 0
M  V30 22235 C 2190.35 -4.70547 -2.26677 0
M  V30 22236 H 2192.04 -2.80635 -1.04328 0
M  V30 22237 H 2189.59 -1.35025 -0.50043 0
M  V30 22238 H 2191.54 -2.42052 -3.44948 0
M  V30 22239 H 2190.27 -1.25639 -3.01467 0
M  V30 22240 H 2188.93 -3.10423 -1.9502 0
M  V30 22241 H 2188.57 -2.51618 -4.35542 0
M  V30 22242 H 2188.27 -4.24727 -4.06055 0
M  V30 22243 H 2189.8 -3.72858 -4.83539 0
M  V30 22244 H 2191.21 -4.93797 -2.91268 0
M  V30 22245 H 2189.61 -5.51334 -2.36961 0
M  V30 22246 H 2190.68 -4.69351 -1.2181 0
M  V30 22247 N 2192.02 0.537252 -1.4816 0
M  V30 22248 C 2192.93 1.66957 -1.6481 0
M  V30 22249 C 2193.95 1.6571 -0.53068 0
M  V30 22250 O 2195.12 1.84794 -0.800816 0
M  V30 22251 C 2192.19 3.03435 -1.67714 0
M  V30 22252 C 2191.25 3.15595 -2.9103 0
M  V30 22253 C 2190.48 4.45562 -2.93786 0
M  V30 22254 O 2190.71 5.32226 -2.05162 0
M  V30 22255 O 2189.64 4.61934 -3.85876 0
M  V30 22256 H 2193.47 1.55849 -2.60662 0
M  V30 22257 H 2191.05 0.709526 -1.31477 0
M  V30 22258 H 2192.93 3.84616 -1.72187 0
M  V30 22259 H 2191.61 3.14884 -0.750333 0
M  V30 22260 H 2190.52 2.33736 -2.92093 0
M  V30 22261 H 2191.85 3.09059 -3.83071 0
M  V30 22262 N 2193.5 1.36626 0.785562 0
M  V30 22263 C 2194.73 1.34233 1.57446 0
M  V30 22264 C 2195.14 -0.0755322 1.88649 0
M  V30 22265 O 2194.5 -1.03351 1.50416 0
M  V30 22266 C 2194.55 2.1675 2.89312 0
M  V30 22267 O 2194.27 3.5301 2.59452 0
M  V30 22268 C 2195.77 2.22181 3.83602 0
M  V30 22269 H 2192.99 0.460309 0.488218 0
M  V30 22270 H 2195.54 1.79777 0.974701 0
M  V30 22271 H 2193.69 1.74751 3.45747 0
M  V30 22272 H 2194.11 3.96111 3.43797 0
M  V30 22273 H 2195.58 2.84268 4.73176 0
M  V30 22274 H 2196.06 1.22634 4.21732 0
M  V30 22275 H 2196.66 2.64433 3.331 0
M  V30 22276 N 2194.98 -1.01016 1.20969 0
M  V30 22277 C 2195.94 -2.07851 0.965954 0
M  V30 22278 C 2196.94 -1.60684 -0.0610263 0
M  V30 22279 O 2198.13 -1.73312 0.175711 0
M  V30 22280 C 2195.26 -3.37842 0.455573 0
M  V30 22281 H 2196.46 -2.30907 1.91369 0
M  V30 22282 H 2194.01 -1.17915 1.02596 0
M  V30 22283 H 2194.74 -3.20464 -0.497325 0
M  V30 22284 H 2194.53 -3.73405 1.19628 0
M  V30 22285 H 2196.02 -4.16487 0.304741 0
M  V30 22286 N 2196.46 -1.01661 -1.20428 0
M  V30 22287 C 2197.73 -0.621037 -1.85479 0
M  V30 22288 C 2198.11 0.900885 -1.90912 0
M  V30 22289 O 2197.46 1.7926 -1.41697 0
M  V30 22290 C 2197.67 -1.26885 -3.25117 0
M  V30 22291 C 2199.02 -1.3843 -4.014 0
M  V30 22292 O 2200.04 -1.22507 -3.34471 0
M  V30 22293 O 2198.9 -1.6416 -5.21262 0
M  V30 22294 H 2196 -0.21428 -0.798757 0
M  V30 22295 H 2198.54 -1.11399 -1.28017 0
M  V30 22296 H 2197.31 -2.30879 -3.15928 0
M  V30 22297 H 2196.94 -0.762986 -3.90211 0
M  V30 22298 N 2197.93 1.36205 -0.792844 0
M  V30 22299 C 2199.35 1.5237 -0.47493 0
M  V30 22300 C 2199.55 1.7458 1.00619 0
M  V30 22301 O 2198.61 1.77927 1.79159 0
M  V30 22302 C 2199.92 2.70745 -1.30835 0
M  V30 22303 C 2201.47 2.84617 -1.30239 0
M  V30 22304 C 2201.94 4.06 -2.11963 0
M  V30 22305 N 2203.43 4.13152 -2.09427 0
M  V30 22306 C 2204.17 5.06158 -2.69428 0
M  V30 22307 N 2203.66 6.04586 -3.38301 0
M  V30 22308 N 2205.46 4.988 -2.59143 0
M  V30 22309 H 2197.61 1.20043 -1.75224 0
M  V30 22310 H 2199.87 0.586198 -0.745034 0
M  V30 22311 H 2199.58 2.60866 -2.35885 0
M  V30 22312 H 2199.45 3.64988 -0.952024 0
M  V30 22313 H 2201.84 2.93954 -0.259799 0
M  V30 22314 H 2201.92 1.91271 -1.6985 0
M  V30 22315 H 2201.56 3.97423 -3.16255 0
M  V30 22316 H 2201.49 4.985 -1.6972 0
M  V30 22317 H 2203.98 3.42682 -1.59303 0
M  V30 22318 H 2204.3 6.72123 -3.81405 0
M  V30 22319 H 2202.64 6.04801 -3.42404 0
M  V30 22320 H 2205.83 4.20855 -2.04935 0
M  V30 22321 H 2206.01 5.71094 -3.06195 0
M  V30 22322 N 2199.41 0.545154 1.47871 0
M  V30 22323 C 2200.66 0.016646 2.02793 0
M  V30 22324 C 2200.99 -1.32487 1.41989 0
M  V30 22325 O 2200.27 -1.85927 0.571078 0
M  V30 22326 C 2200.55 -0.0892662 3.59989 0
M  V30 22327 C 2200.4 1.27849 4.31248 0
M  V30 22328 C 2201.72 -0.808648 4.32607 0
M  V30 22329 H 2198.84 0.00752331 0.736962 0
M  V30 22330 H 2201.48 0.705116 1.76432 0
M  V30 22331 H 2199.63 -0.675614 3.8258 0
M  V30 22332 H 2201.3 1.90711 4.20032 0
M  V30 22333 H 2199.55 1.85639 3.92072 0
M  V30 22334 H 2200.22 1.15722 5.39734 0
M  V30 22335 H 2202.69 -0.310919 4.14937 0
M  V30 22336 H 2201.57 -0.851686 5.42252 0
M  V30 22337 H 2201.83 -1.86222 4.00966 0
M  V30 22338 N 2200.89 -1.55074 0.28101 0
M  V30 22339 C 2202.17 -1.9175 -0.386173 0
M  V30 22340 C 2202.55 -1.20597 -1.73262 0
M  V30 22341 O 2201.9 -0.334824 -2.26034 0
M  V30 22342 C 2202.11 -3.45095 -0.520626 0
M  V30 22343 C 2203.45 -4.1698 -0.800792 0
M  V30 22344 O 2204.48 -3.51021 -0.605209 0
M  V30 22345 O 2203.34 -5.33714 -1.17521 0
M  V30 22346 H 2200.43 -0.799261 -0.212394 0
M  V30 22347 H 2202.98 -1.66508 0.327597 0
M  V30 22348 H 2201.75 -3.88967 0.426702 0
M  V30 22349 H 2201.37 -3.76309 -1.28364 0
M  V30 22350 N 2202.37 -0.00838561 -1.57598 0
M  V30 22351 C 2203.62 0.673935 -1.90108 0
M  V30 22352 C 2203.93 1.74469 -0.884306 0
M  V30 22353 O 2205.14 2.48222 -1.09992 0
M  V30 22354 C 2203.59 1.24989 -3.37499 0
M  V30 22355 C 2203.2 0.213522 -4.47491 0
M  V30 22356 C 2204.95 1.90992 -3.79107 0
M  V30 22357 C 2202.85 0.799947 -5.85965 0
M  V30 22358 H 2201.78 0.255482 -0.709398 0
M  V30 22359 H 2204.43 -0.0703015 -1.83365 0
M  V30 22360 H 2202.82 2.04507 -3.39106 0
M  V30 22361 H 2203.99 -0.557676 -4.57413 0
M  V30 22362 H 2202.3 -0.346547 -4.14955 0
M  V30 22363 H 2204.9 2.35787 -4.79905 0
M  V30 22364 H 2205.24 2.74401 -3.13065 0
M  V30 22365 H 2205.78 1.18196 -3.79835 0
M  V30 22366 H 2202.52 0.00445186 -6.555 0
M  V30 22367 H 2202.04 1.54011 -5.7969 0
M  V30 22368 H 2203.72 1.29604 -6.33886 0
M  V30 22369 N 2203.85 1.55365 0.264492 0
M  V30 22370 C 2205.26 1.66992 0.834906 0
M  V30 22371 C 2205.61 0.602585 1.86717 0
M  V30 22372 O 2204.73 -0.254387 2.149 0
M  V30 22373 C 2205.33 3.02732 1.52114 0
M  V30 22374 C 2203.89 3.16358 2.03948 0
M  V30 22375 C 2203.04 2.62817 0.884452 0
M  V30 22376 H 2205.99 1.58648 0.040659 0
M  V30 22377 H 2206.01 2.96196 2.38848 0
M  V30 22378 H 2205.52 3.80393 0.769601 0
M  V30 22379 H 2203.62 2.43487 2.82037 0
M  V30 22380 H 2203.73 4.23036 2.24894 0
M  V30 22381 H 2202.1 2.20191 1.28016 0
M  V30 22382 H 2202.88 3.42988 0.14628 0
M  V30 22383 N 2205.33 -0.529387 1.48443 0
M  V30 22384 C 2206.57 -1.28709 1.56722 0
M  V30 22385 C 2206.9 -1.92703 0.240634 0
M  V30 22386 O 2206.18 -1.79315 -0.753422 0
M  V30 22387 C 2206.46 -2.37598 2.70591 0
M  V30 22388 C 2206.32 -1.7829 4.12956 0
M  V30 22389 C 2207.63 -3.39361 2.80218 0
M  V30 22390 H 2204.75 -0.466603 0.570483 0
M  V30 22391 H 2207.4 -0.589675 1.80618 0
M  V30 22392 H 2205.55 -2.97084 2.50347 0
M  V30 22393 H 2207.22 -1.2285 4.44641 0
M  V30 22394 H 2205.46 -1.08822 4.19929 0
M  V30 22395 H 2206.13 -2.57135 4.88452 0
M  V30 22396 H 2208.61 -2.89831 2.98558 0
M  V30 22397 H 2207.48 -4.12945 3.61618 0
M  V30 22398 H 2207.74 -3.99947 1.884 0
M  V30 22399 N 2206.8 -1.37041 -0.778305 0
M  V30 22400 C 2208.03 -1.35235 -1.57246 0
M  V30 22401 C 2208.45 0.0615238 -1.87999 0
M  V30 22402 O 2207.81 1.0367 -1.48736 0
M  V30 22403 C 2207.86 -2.19172 -2.86349 0
M  V30 22404 O 2206.96 -1.59184 -3.80439 0
M  V30 22405 H 2206.3 -0.46237 -0.47656 0
M  V30 22406 H 2208.83 -1.80476 -0.963821 0
M  V30 22407 H 2208.84 -2.32151 -3.35514 0
M  V30 22408 H 2207.52 -3.21947 -2.63293 0
M  V30 22409 H 2206.1 -1.55209 -3.39064 0
M  V30 22410 N 2208.28 1.00373 -1.21503 0
M  V30 22411 C 2209.53 1.74169 -1.03302 0
M  V30 22412 C 2209.86 1.89612 0.433293 0
M  V30 22413 O 2209.11 1.42837 1.33777 0
M  V30 22414 C 2209.41 3.15624 -1.67679 0
M  V30 22415 C 2209.08 3.20125 -3.17539 0
M  V30 22416 C 2207.74 3.2106 -3.58432 0
M  V30 22417 C 2210.09 3.17268 -4.1351 0
M  V30 22418 C 2207.42 3.16826 -4.938 0
M  V30 22419 C 2209.77 3.14575 -5.4884 0
M  V30 22420 C 2208.43 3.13821 -5.89129 0
M  V30 22421 H 2207.7 0.63733 -0.378011 0
M  V30 22422 H 2210.35 1.17632 -1.51113 0
M  V30 22423 H 2208.66 3.75402 -1.12165 0
M  V30 22424 H 2210.35 3.71444 -1.51098 0
M  V30 22425 H 2206.94 3.2014 -2.84971 0
M  V30 22426 H 2211.13 3.15704 -3.82942 0
M  V30 22427 H 2206.38 3.14581 -5.2426 0
M  V30 22428 H 2210.56 3.11319 -6.22939 0
M  V30 22429 H 2208.18 3.10294 -6.93989 0
M  V30 22430 N 2209.76 1.02298 1.19887 0
M  V30 22431 C 2210.71 0.59212 2.24937 0
M  V30 22432 C 2211.7 -0.372328 1.65258 0
M  V30 22433 O 2212.91 -0.241551 1.78372 0
M  V30 22434 H 2209.28 0.173195 0.731784 0
M  V30 22435 H 2211.25 1.4889 2.58601 0
M  V30 22436 C 2210 -0.0472899 3.47668 0
M  V30 22437 H 2209.33 0.685841 3.93873 0
M  V30 22438 H 2210.77 -0.311787 4.22852 0
M  V30 22439 C 2209.22 -1.29207 3.11139 0
M  V30 22440 O 2209.75 -2.38474 3.23254 0
M  V30 22441 N 2207.96 -1.17858 2.65627 0
M  V30 22442 H 2207.51 -0.289448 2.55969 0
M  V30 22443 H 2207.47 -2.01241 2.41556 0
M  V30 22444 N 2211.24 -1.35782 0.800057 0
M  V30 22445 C 2212.65 -1.81461 0.439174 0
M  V30 22446 C 2213 -1.66487 -1.0381 0
M  V30 22447 O 2212.12 -1.1918 -1.80624 0
M  V30 22448 C 2212.72 -3.29452 0.790372 0
M  V30 22449 C 2211.28 -3.73299 0.482177 0
M  V30 22450 C 2210.43 -2.57882 1.01943 0
M  V30 22451 H 2213.38 -1.23853 0.992276 0
M  V30 22452 H 2213.4 -3.80404 0.0854346 0
M  V30 22453 H 2212.91 -3.40319 1.8656 0
M  V30 22454 H 2211.01 -3.67986 -0.584587 0
M  V30 22455 H 2211.12 -4.68328 1.01023 0
M  V30 22456 H 2209.49 -2.50834 0.442087 0
M  V30 22457 H 2210.27 -2.71529 2.10064 0
M  V30 22458 N 2212.72 -0.552988 -1.4758 0
M  V30 22459 C 2213.96 -0.0273058 -2.02082 0
M  V30 22460 C 2214.28 1.32561 -1.43013 0
M  V30 22461 O 2213.55 1.86363 -0.603778 0
M  V30 22462 H 2212.13 -0.00710495 -0.746966 0
M  V30 22463 H 2214.8 -0.72204 -1.81032 0
M  V30 22464 H 2213.89 0.0639403 -3.12034 0
M  V30 22465 N 2214.19 1.54923 -0.28923 0
M  V30 22466 C 2215.42 2.0477 0.329263 0
M  V30 22467 C 2215.84 1.16566 1.47628 0
M  V30 22468 O 2215.2 0.167218 1.80527 0
M  V30 22469 C 2215.25 3.52187 0.774376 0
M  V30 22470 O 2214.35 3.6704 1.88031 0
M  V30 22471 H 2213.69 0.66072 0.0659143 0
M  V30 22472 H 2216.22 2.00081 -0.427645 0
M  V30 22473 H 2216.23 3.93818 1.06635 0
M  V30 22474 H 2214.91 4.1585 -0.0647438 0
M  V30 22475 H 2213.49 3.37313 1.58979 0
M  V30 22476 N 2215.67 0.0167433 1.57591 0
M  V30 22477 C 2216.62 -0.987316 2.10606 0
M  V30 22478 C 2217.61 -1.34505 1.02979 0
M  V30 22479 O 2218.82 -1.32873 1.21428 0
M  V30 22480 H 2215.19 -0.336122 0.672701 0
M  V30 22481 H 2217.17 -0.514766 2.93926 0
M  V30 22482 C 2215.91 -2.26478 2.63824 0
M  V30 22483 H 2215.24 -1.99823 3.46282 0
M  V30 22484 H 2216.68 -2.94971 3.04578 0
M  V30 22485 C 2215.14 -2.98607 1.55998 0
M  V30 22486 O 2215.67 -3.90242 0.95259 0
M  V30 22487 N 2213.87 -2.60725 1.28339 0
M  V30 22488 H 2213.42 -1.86288 1.77918 0
M  V30 22489 H 2213.38 -3.09297 0.564169 0
M  V30 22490 N 2217.15 -1.55503 -0.256249 0
M  V30 22491 C 2218.38 -1.81278 -1.00762 0
M  V30 22492 C 2218.8 -0.592551 -1.78523 0
M  V30 22493 O 2218.16 0.458239 -1.75413 0
M  V30 22494 C 2218.21 -3.0469 -1.92864 0
M  V30 22495 O 2217.31 -2.8095 -3.01896 0
M  V30 22496 H 2216.65 -0.598669 -0.287213 0
M  V30 22497 H 2219.18 -2.02674 -0.280074 0
M  V30 22498 H 2219.19 -3.33873 -2.34505 0
M  V30 22499 H 2217.87 -3.93145 -1.35682 0
M  V30 22500 H 2216.44 -2.62909 -2.64449 0
M  V30 22501 N 2218.63 0.521507 -1.48721 0
M  V30 22502 C 2219.56 1.64219 -1.58453 0
M  V30 22503 C 2220.54 1.56686 -0.434541 0
M  V30 22504 O 2221.72 1.77037 -0.647306 0
M  V30 22505 C 2218.85 3.02656 -1.52042 0
M  V30 22506 C 2217.9 3.2852 -2.71987 0
M  V30 22507 S 2218.73 3.13868 -4.33875 0
M  V30 22508 C 2219.89 4.54737 -4.30075 0
M  V30 22509 H 2220.12 1.55715 -2.53259 0
M  V30 22510 H 2217.65 0.705119 -1.37359 0
M  V30 22511 H 2219.61 3.82492 -1.4903 0
M  V30 22512 H 2218.27 3.08593 -0.585595 0
M  V30 22513 H 2217.46 4.29532 -2.63663 0
M  V30 22514 H 2217.07 2.5637 -2.72306 0
M  V30 22515 H 2219.36 5.46426 -4.00531 0
M  V30 22516 H 2220.3 4.68114 -5.31296 0
M  V30 22517 H 2220.71 4.34457 -3.60427 0
M  V30 22518 N 2220.11 1.37452 0.771027 0
M  V30 22519 C 2221.35 1.32896 1.53187 0
M  V30 22520 C 2221.69 -0.086217 1.94009 0
M  V30 22521 O 2220.96 -1.0437 1.64125 0
M  V30 22522 C 2221.24 2.26873 2.79644 0
M  V30 22523 C 2221.1 3.77173 2.45072 0
M  V30 22524 C 2222.42 2.19284 3.81579 0
M  V30 22525 H 2219.53 0.484074 0.555735 0
M  V30 22526 H 2222.18 1.68158 0.884463 0
M  V30 22527 H 2220.33 1.96932 3.34888 0
M  V30 22528 H 2222 4.17714 1.95737 0
M  V30 22529 H 2220.24 3.95707 1.7776 0
M  V30 22530 H 2220.91 4.38365 3.3547 0
M  V30 22531 H 2223.39 2.45677 3.3583 0
M  V30 22532 H 2222.26 2.87179 4.67782 0
M  V30 22533 H 2222.53 1.18599 4.25895 0
M  V30 22534 N 2221.58 -0.997276 1.22033 0
M  V30 22535 C 2222.55 -2.06815 0.987945 0
M  V30 22536 C 2223.55 -1.6074 -0.0439802 0
M  V30 22537 O 2224.74 -1.73115 0.194083 0
M  V30 22538 C 2221.87 -3.3734 0.49138 0
M  V30 22539 H 2223.06 -2.28864 1.93807 0
M  V30 22540 H 2220.62 -1.1682 1.0384 0
M  V30 22541 H 2221.35 -3.20973 -0.463307 0
M  V30 22542 H 2221.14 -3.72115 1.23582 0
M  V30 22543 H 2222.63 -4.1614 0.348897 0
M  V30 22544 N 2223.06 -1.02932 -1.19343 0
M  V30 22545 C 2224.34 -0.640674 -1.8481 0
M  V30 22546 C 2224.72 0.880586 -1.91856 0
M  V30 22547 O 2224.07 1.77747 -1.4359 0
M  V30 22548 C 2224.28 -1.30327 -3.23753 0
M  V30 22549 C 2225.63 -1.4268 -3.9991 0
M  V30 22550 O 2226.65 -1.26047 -3.33152 0
M  V30 22551 O 2225.51 -1.69679 -5.19491 0
M  V30 22552 H 2222.6 -0.22274 -0.79644 0
M  V30 22553 H 2225.15 -1.1275 -1.26829 0
M  V30 22554 H 2223.92 -2.34216 -3.13462 0
M  V30 22555 H 2223.54 -0.80433 -3.89379 0
M  V30 22556 N 2224.54 1.35356 -0.807246 0
M  V30 22557 C 2225.47 2.32339 -0.23255 0
M  V30 22558 C 2226.45 1.57505 0.642358 0
M  V30 22559 O 2227.64 1.8557 0.572493 0
M  V30 22560 C 2224.77 3.41736 0.619178 0
M  V30 22561 C 2223.72 4.27711 -0.157291 0
M  V30 22562 C 2223.05 5.28434 0.81618 0
M  V30 22563 C 2224.35 5.04373 -1.35665 0
M  V30 22564 H 2226.04 2.80652 -1.04281 0
M  V30 22565 H 2223.59 1.34933 -0.502904 0
M  V30 22566 H 2225.54 4.08586 1.03129 0
M  V30 22567 H 2224.26 2.92033 1.46233 0
M  V30 22568 H 2222.92 3.62442 -0.550589 0
M  V30 22569 H 2222.57 4.74998 1.65486 0
M  V30 22570 H 2222.27 5.86829 0.300964 0
M  V30 22571 H 2223.79 5.98155 1.22649 0
M  V30 22572 H 2225.21 5.64165 -1.01937 0
M  V30 22573 H 2223.61 5.72267 -1.8064 0
M  V30 22574 H 2224.68 4.34977 -2.14296 0
M  V30 22575 N 2226.02 0.560807 1.47284 0
M  V30 22576 C 2226.95 -0.222398 2.28118 0
M  V30 22577 C 2227.96 -0.876032 1.37221 0
M  V30 22578 O 2229.15 -0.749279 1.62013 0
M  V30 22579 C 2226.25 -1.33279 3.11592 0
M  V30 22580 C 2225.43 -0.775265 4.30475 0
M  V30 22581 C 2224.48 -1.7706 4.95516 0
M  V30 22582 O 2223.51 -1.31529 5.53795 0
M  V30 22583 N 2224.71 -3.10409 4.90537 0
M  V30 22584 H 2227.48 0.47101 2.95976 0
M  V30 22585 H 2225.04 0.397118 1.56954 0
M  V30 22586 H 2227.03 -1.99746 3.51971 0
M  V30 22587 H 2225.6 -1.92938 2.45954 0
M  V30 22588 H 2224.82 0.0662805 3.94144 0
M  V30 22589 H 2226.11 -0.382182 5.07363 0
M  V30 22590 H 2225.51 -3.50042 4.44395 0
M  V30 22591 H 2224.06 -3.72425 5.34923 0
M  V30 22592 N 2227.5 -1.54768 0.297442 0
M  V30 22593 C 2228.41 -2.27065 -0.58979 0
M  V30 22594 C 2229.42 -1.30455 -1.15142 0
M  V30 22595 O 2230.6 -1.63431 -1.17696 0
M  V30 22596 C 2227.66 -2.99463 -1.74708 0
M  V30 22597 C 2226.72 -4.11603 -1.21989 0
M  V30 22598 C 2225.96 -4.80539 -2.32203 0
M  V30 22599 O 2226.18 -4.48812 -3.52028 0
M  V30 22600 O 2225.11 -5.68018 -1.99096 0
M  V30 22601 H 2228.94 -3.037 -0.00342861 0
M  V30 22602 H 2226.53 -1.49263 0.0640297 0
M  V30 22603 H 2228.41 -3.44885 -2.42141 0
M  V30 22604 H 2227.08 -2.25726 -2.32012 0
M  V30 22605 H 2225.99 -3.70588 -0.511393 0
M  V30 22606 H 2227.32 -4.87306 -0.692333 0
M  V30 22607 N 2228.97 -0.0251005 -1.5758 0
M  V30 22608 C 2229.9 0.956538 -2.13008 0
M  V30 22609 C 2230.89 1.34198 -1.04523 0
M  V30 22610 O 2232.07 1.42131 -1.32335 0
M  V30 22611 C 2229.2 2.24022 -2.6539 0
M  V30 22612 C 2228.15 1.99565 -3.78626 0
M  V30 22613 C 2227.48 3.34163 -4.1742 0
M  V30 22614 C 2228.78 1.33805 -5.0487 0
M  V30 22615 H 2230.47 0.494939 -2.95281 0
M  V30 22616 H 2228.02 0.236627 -1.42043 0
M  V30 22617 H 2229.97 2.93071 -3.02799 0
M  V30 22618 H 2228.7 2.7234 -1.80273 0
M  V30 22619 H 2227.36 1.32935 -3.41649 0
M  V30 22620 H 2227 3.80232 -3.29291 0
M  V30 22621 H 2226.7 3.18606 -4.93724 0
M  V30 22622 H 2228.23 4.04486 -4.57409 0
M  V30 22623 H 2229.64 1.92848 -5.39891 0
M  V30 22624 H 2228.04 1.28659 -5.86146 0
M  V30 22625 H 2229.11 0.310476 -4.83905 0
M  V30 22626 N 2230.45 1.55637 0.247999 0
M  V30 22627 C 2231.86 1.67868 0.817148 0
M  V30 22628 C 2232.21 0.622355 1.86068 0
M  V30 22629 O 2231.34 -0.23158 2.15157 0
M  V30 22630 C 2231.93 3.04328 1.48895 0
M  V30 22631 C 2230.49 3.18503 2.00581 0
M  V30 22632 C 2229.64 2.6374 0.856527 0
M  V30 22633 H 2232.59 1.58682 0.02383 0
M  V30 22634 H 2232.61 2.98712 2.35693 0
M  V30 22635 H 2232.12 3.81188 0.729212 0
M  V30 22636 H 2230.23 2.46465 2.79439 0
M  V30 22637 H 2230.34 4.25397 2.20395 0
M  V30 22638 H 2228.7 2.21536 1.25674 0
M  V30 22639 H 2229.49 3.43124 0.109893 0
M  V30 22640 N 2231.93 -0.513613 1.48996 0
M  V30 22641 C 2232.89 -1.59876 1.64232 0
M  V30 22642 C 2233.89 -1.52339 0.514723 0
M  V30 22643 O 2235.08 -1.55716 0.780898 0
M  V30 22644 C 2232.22 -2.99521 1.62788 0
M  V30 22645 H 2233.41 -1.47701 2.61007 0
M  V30 22646 H 2230.96 -0.736912 1.37838 0
M  V30 22647 H 2231.7 -3.17186 0.675516 0
M  V30 22648 H 2231.48 -3.064 2.44666 0
M  V30 22649 H 2232.97 -3.78385 1.76676 0
M  V30 22650 N 2233.41 -1.37859 -0.763727 0
M  V30 22651 C 2234.64 -1.36721 -1.5529 0
M  V30 22652 C 2235.05 0.0455102 -1.88745 0
M  V30 22653 O 2234.41 1.00945 -1.52041 0
M  V30 22654 C 2234.46 -2.21325 -2.85827 0
M  V30 22655 O 2234.18 -3.57093 -2.53803 0
M  V30 22656 C 2235.68 -2.28256 -3.80019 0
M  V30 22657 H 2232.9 -0.468018 -0.480833 0
M  V30 22658 H 2235.45 -1.81305 -0.945977 0
M  V30 22659 H 2233.6 -1.8023 -3.42923 0
M  V30 22660 H 2234.02 -4.0153 -3.37452 0
M  V30 22661 H 2235.49 -2.9176 -4.68594 0
M  V30 22662 H 2235.97 -1.29328 -4.19727 0
M  V30 22663 H 2236.57 -2.69699 -3.28851 0
M  V30 22664 N 2234.89 0.990791 -1.22561 0
M  V30 22665 C 2236.14 1.72485 -1.04556 0
M  V30 22666 C 2236.45 1.91053 0.419316 0
M  V30 22667 O 2237.66 2.61804 0.719075 0
M  V30 22668 C 2236.11 3.10351 -1.82236 0
M  V30 22669 C 2235.72 2.99707 -3.32986 0
M  V30 22670 C 2237.46 3.87788 -1.72687 0
M  V30 22671 C 2235.37 4.32741 -4.03099 0
M  V30 22672 H 2234.3 0.646732 -0.387626 0
M  V30 22673 H 2236.95 1.10591 -1.46431 0
M  V30 22674 H 2235.33 3.7294 -1.33161 0
M  V30 22675 H 2236.51 2.46271 -3.89471 0
M  V30 22676 H 2234.82 2.35752 -3.43235 0
M  V30 22677 H 2237.42 4.86258 -2.2239 0
M  V30 22678 H 2237.76 4.10581 -0.687679 0
M  V30 22679 H 2238.3 3.31881 -2.19316 0
M  V30 22680 H 2235.03 4.15147 -5.0728 0
M  V30 22681 H 2234.55 4.86082 -3.51403 0
M  V30 22682 H 2236.23 5.01479 -4.08813 0
M  V30 22683 N 2236.37 1.03564 1.18795 0
M  V30 22684 C 2237.32 0.592763 2.2016 0
M  V30 22685 C 2238.3 -0.362106 1.56772 0
M  V30 22686 O 2239.49 -0.181978 1.76062 0
M  V30 22687 C 2236.62 -0.0480421 3.43266 0
M  V30 22688 C 2235.71 0.929672 4.13785 0
M  V30 22689 N 2236.1 2.09475 4.60384 0
M  V30 22690 C 2234.4 0.754577 4.3957 0
M  V30 22691 C 2235.1 2.71196 5.14614 0
M  V30 22692 N 2234.07 1.99108 5.05823 0
M  V30 22693 H 2237.87 1.4807 2.53875 0
M  V30 22694 H 2235.39 0.903538 1.34944 0
M  V30 22695 H 2237.39 -0.382985 4.15137 0
M  V30 22696 H 2236.05 -0.931581 3.11049 0
M  V30 22697 H 2237.06 2.47387 4.54994 0
M  V30 22698 H 2233.73 -0.0792979 4.17425 0
M  V30 22699 H 2235.12 3.69905 5.6091 0
M  V30 22700 N 2237.84 -1.34926 0.814413 0
M  V30 22701 C 2239.07 -2.03304 0.410133 0
M  V30 22702 C 2239.49 -1.60953 -0.973436 0
M  V30 22703 O 2238.85 -0.789993 -1.63183 0
M  V30 22704 C 2238.9 -3.56967 0.510553 0
M  V30 22705 O 2238 -4.09679 -0.472963 0
M  V30 22706 H 2237.34 -0.641843 0.170099 0
M  V30 22707 H 2239.87 -1.72356 1.10247 0
M  V30 22708 H 2239.88 -4.06196 0.383206 0
M  V30 22709 H 2238.56 -3.87141 1.5197 0
M  V30 22710 H 2237.14 -3.71649 -0.305206 0
M  V30 22711 N 2239.32 -0.56861 -1.46985 0
M  V30 22712 C 2240.28 0.162326 -2.28624 0
M  V30 22713 C 2241.28 0.832078 -1.37598 0
M  V30 22714 O 2242.47 0.686192 -1.60116 0
M  V30 22715 C 2239.61 1.23873 -3.17598 0
M  V30 22716 H 2240.8 -0.554951 -2.94721 0
M  V30 22717 H 2238.35 -0.326003 -1.52862 0
M  V30 22718 H 2239.09 1.98804 -2.56218 0
M  V30 22719 H 2238.87 0.763151 -3.84602 0
M  V30 22720 H 2240.36 1.75178 -3.79081 0
M  V30 22721 N 2240.8 1.54608 -0.305646 0
M  V30 22722 C 2242.02 2.05107 0.307526 0
M  V30 22723 C 2242.45 1.18125 1.46383 0
M  V30 22724 O 2241.81 0.186356 1.8034 0
M  V30 22725 C 2241.86 3.52989 0.736978 0
M  V30 22726 O 2240.96 3.69013 1.84128 0
M  V30 22727 H 2240.3 0.661382 0.0589027 0
M  V30 22728 H 2242.83 1.99616 -0.448842 0
M  V30 22729 H 2242.84 3.94927 1.02452 0
M  V30 22730 H 2241.52 4.15758 -0.108847 0
M  V30 22731 H 2240.09 3.3898 1.55392 0
M  V30 22732 N 2242.28 0.033457 1.57564 0
M  V30 22733 C 2243.52 -0.639383 1.93089 0
M  V30 22734 C 2243.88 -1.69486 0.910619 0
M  V30 22735 O 2243.17 -1.91462 -0.0727388 0
M  V30 22736 C 2243.37 -1.29498 3.33114 0
M  V30 22737 C 2243.19 -0.304526 4.48668 0
M  V30 22738 C 2241.96 0.0971665 5.05207 0
M  V30 22739 C 2244.16 0.442935 5.12389 0
M  V30 22740 N 2242.14 1.08233 6.04284 0
M  V30 22741 C 2243.52 1.28172 6.06607 0
M  V30 22742 C 2245.57 0.503167 4.95351 0
M  V30 22743 C 2244.27 2.17531 6.85619 0
M  V30 22744 C 2246.3 1.38411 5.74975 0
M  V30 22745 C 2245.66 2.21066 6.68812 0
M  V30 22746 H 2241.76 -0.206148 0.754339 0
M  V30 22747 H 2244.34 0.101647 1.94434 0
M  V30 22748 H 2242.52 -2.00612 3.3258 0
M  V30 22749 H 2244.25 -1.92519 3.55975 0
M  V30 22750 H 2241 -0.278171 4.72782 0
M  V30 22751 H 2241.43 1.57128 6.58513 0
M  V30 22752 H 2246.07 -0.12162 4.22625 0
M  V30 22753 H 2243.79 2.81063 7.57647 0
M  V30 22754 H 2247.37 1.43506 5.63824 0
M  V30 22755 H 2246.25 2.88129 7.2935 0
M  V30 22756 N 2243.76 -1.55766 -0.239741 0
M  V30 22757 C 2245 -1.78196 -0.968202 0
M  V30 22758 C 2245.33 -0.599971 -1.847 0
M  V30 22759 O 2244.61 0.401491 -1.90311 0
M  V30 22760 C 2244.89 -3.10567 -1.82264 0
M  V30 22761 C 2244.75 -4.39182 -0.971555 0
M  V30 22762 C 2246.06 -3.39226 -2.80382 0
M  V30 22763 H 2243.18 -0.648287 -0.350561 0
M  V30 22764 H 2245.83 -1.88501 -0.238226 0
M  V30 22765 H 2243.98 -3.01913 -2.44501 0
M  V30 22766 H 2245.65 -4.59835 -0.367327 0
M  V30 22767 H 2243.89 -4.3292 -0.2762 0
M  V30 22768 H 2244.56 -5.28201 -1.60337 0
M  V30 22769 H 2247.04 -3.47889 -2.28281 0
M  V30 22770 H 2245.91 -4.3305 -3.37282 0
M  V30 22771 H 2246.17 -2.60491 -3.57207 0
M  V30 22772 N 2245.23 0.505704 -1.49266 0
M  V30 22773 C 2246.2 1.59003 -1.65078 0
M  V30 22774 C 2247.2 1.52064 -0.522794 0
M  V30 22775 O 2248.39 1.553 -0.789145 0
M  V30 22776 C 2245.52 2.98653 -1.64375 0
M  V30 22777 H 2246.71 1.46314 -2.61786 0
M  V30 22778 H 2244.26 0.729592 -1.38227 0
M  V30 22779 H 2245 3.16824 -0.692328 0
M  V30 22780 H 2244.78 3.05098 -2.46287 0
M  V30 22781 H 2246.27 3.77443 -1.7868 0
M  V30 22782 N 2246.71 1.38262 0.756405 0
M  V30 22783 C 2248.12 1.30663 1.33357 0
M  V30 22784 C 2248.47 -0.038853 1.96162 0
M  V30 22785 O 2247.6 -0.940884 1.94875 0
M  V30 22786 C 2248.19 2.36627 2.42473 0
M  V30 22787 C 2246.75 2.32615 2.95917 0
M  V30 22788 C 2245.9 2.19642 1.69272 0
M  V30 22789 H 2248.85 1.48661 0.555494 0
M  V30 22790 H 2248.87 2.0218 3.22341 0
M  V30 22791 H 2248.38 3.34541 1.96733 0
M  V30 22792 H 2246.49 1.38273 3.45993 0
M  V30 22793 H 2246.6 3.26642 3.50488 0
M  V30 22794 H 2244.96 1.66446 1.9279 0
M  V30 22795 H 2245.75 3.19493 1.25614 0
M  V30 22796 N 2248.19 -0.984277 1.23084 0
M  V30 22797 C 2249.42 -1.76035 1.08717 0
M  V30 22798 C 2249.83 -1.85304 -0.361659 0
M  V30 22799 O 2249.19 -1.32941 -1.25032 0
M  V30 22800 C 2249.24 -3.1892 1.70212 0
M  V30 22801 O 2248.96 -3.10138 3.09428 0
M  V30 22802 C 2250.46 -4.12939 1.61235 0
M  V30 22803 H 2247.68 -0.552565 0.380674 0
M  V30 22804 H 2250.23 -1.23686 1.62856 0
M  V30 22805 H 2248.38 -3.68308 1.20116 0
M  V30 22806 H 2248.8 -4.00059 3.39195 0
M  V30 22807 H 2250.27 -5.10916 2.08971 0
M  V30 22808 H 2250.75 -4.3548 0.570452 0
M  V30 22809 H 2251.35 -3.69452 2.10678 0
M  V30 22810 N 2249.67 -1.04192 -1.18244 0
M  V30 22811 C 2250.89 -0.76603 -1.92735 0
M  V30 22812 C 2251.32 0.670879 -1.75729 0
M  V30 22813 O 2250.68 1.46484 -1.06827 0
M  V30 22814 C 2250.72 -1.13881 -3.42146 0
M  V30 22815 O 2249.83 -0.265026 -4.11548 0
M  V30 22816 H 2249.17 -0.281807 -0.601233 0
M  V30 22817 H 2251.7 -1.3921 -1.49939 0
M  V30 22818 H 2251.71 -1.10127 -3.92856 0
M  V30 22819 H 2250.38 -2.18558 -3.53844 0
M  V30 22820 H 2248.96 -0.362291 -3.71136 0
M  V30 22821 N 2251.15 1.34492 -0.821557 0
M  V30 22822 C 2252.38 2.02259 -0.421308 0
M  V30 22823 C 2252.78 1.62022 0.977018 0
M  V30 22824 O 2252.13 0.820732 1.64346 0
M  V30 22825 C 2252.19 3.56768 -0.442373 0
M  V30 22826 C 2251.85 4.20324 -1.7938 0
M  V30 22827 C 2252.85 4.40939 -2.75443 0
M  V30 22828 C 2250.54 4.57124 -2.0819 0
M  V30 22829 C 2252.53 4.97477 -3.98491 0
M  V30 22830 C 2250.22 5.13373 -3.31498 0
M  V30 22831 C 2251.21 5.33494 -4.26466 0
M  V30 22832 O 2250.9 5.88553 -5.47596 0
M  V30 22833 H 2250.63 0.654924 -0.167484 0
M  V30 22834 H 2253.19 1.72775 -1.11076 0
M  V30 22835 H 2251.42 3.85505 0.303769 0
M  V30 22836 H 2253.11 4.05852 -0.0623638 0
M  V30 22837 H 2253.87 4.12874 -2.5448 0
M  V30 22838 H 2249.75 4.40768 -1.35074 0
M  V30 22839 H 2253.3 5.13098 -4.72627 0
M  V30 22840 H 2249.19 5.40867 -3.52325 0
M  V30 22841 H 2249.96 6.06988 -5.49097 0
M  V30 22842 N 2252.62 0.576397 1.46681 0
M  V30 22843 C 2253.55 -0.148356 2.33028 0
M  V30 22844 C 2254.54 -0.88993 1.44963 0
M  V30 22845 O 2255.72 -0.866632 1.7379 0
M  V30 22846 C 2252.85 -1.16664 3.27119 0
M  V30 22847 C 2251.8 -0.540311 4.24576 0
M  V30 22848 C 2251.13 -1.66461 5.08129 0
M  V30 22849 C 2252.43 0.518422 5.19721 0
M  V30 22850 H 2254.12 0.572561 2.93874 0
M  V30 22851 H 2251.67 0.276793 1.41315 0
M  V30 22852 H 2253.62 -1.68198 3.86377 0
M  V30 22853 H 2252.35 -1.91775 2.64367 0
M  V30 22854 H 2251.01 -0.0461124 3.66571 0
M  V30 22855 H 2250.65 -2.40523 4.41766 0
M  V30 22856 H 2250.35 -1.25121 5.74124 0
M  V30 22857 H 2251.88 -2.18283 5.7025 0
M  V30 22858 H 2253.29 0.0884066 5.73232 0
M  V30 22859 H 2251.69 0.851784 5.94024 0
M  V30 22860 H 2252.76 1.40711 4.64035 0
M  V30 22861 N 2254.1 -1.54444 0.313841 0
M  V30 22862 C 2255.35 -1.99993 -0.291064 0
M  V30 22863 C 2255.67 -1.20369 -1.53416 0
M  V30 22864 O 2254.94 -0.302961 -1.93543 0
M  V30 22865 H 2253.52 -0.738776 -0.110539 0
M  V30 22866 H 2256.18 -1.90139 0.428139 0
M  V30 22867 H 2255.28 -3.0714 -0.554214 0
M  V30 22868 N 2255.58 -0.0418125 -1.57545 0
M  V30 22869 C 2256.86 0.673401 -1.83643 0
M  V30 22870 C 2257.24 1.89592 -0.928331 0
M  V30 22871 O 2256.59 2.28496 0.0129553 0
M  V30 22872 C 2256.8 1.03958 -3.33157 0
M  V30 22873 C 2258.14 1.42585 -3.99943 0
M  V30 22874 O 2259.17 1.1322 -3.37727 0
M  V30 22875 O 2258.03 1.97351 -5.09622 0
M  V30 22876 H 2255.12 0.331519 -0.757644 0
M  V30 22877 H 2257.67 -0.0704628 -1.69554 0
M  V30 22878 H 2256.44 0.170029 -3.9093 0
M  V30 22879 H 2256.06 1.8412 -3.524 0
M  V30 22880 N 2257.06 1.55891 0.231477 0
M  V30 22881 C 2258.01 1.916 1.28678 0
M  V30 22882 C 2258.98 0.772 1.47069 0
M  V30 22883 O 2260.16 1.02702 1.60801 0
M  V30 22884 C 2257.3 2.22949 2.63416 0
M  V30 22885 C 2256.41 3.50232 2.52906 0
M  V30 22886 C 2255.55 3.71076 3.801 0
M  V30 22887 C 2254.59 4.91908 3.6427 0
M  V30 22888 N 2253.72 5.09193 4.83391 0
M  V30 22889 H 2258.56 2.8159 0.975255 0
M  V30 22890 H 2256.1 1.3938 0.470274 0
M  V30 22891 H 2258.06 2.39132 3.41865 0
M  V30 22892 H 2256.69 1.36144 2.92685 0
M  V30 22893 H 2255.74 3.42296 1.65944 0
M  V30 22894 H 2257.05 4.38831 2.37126 0
M  V30 22895 H 2256.21 3.87303 4.66992 0
M  V30 22896 H 2254.95 2.8074 3.98794 0
M  V30 22897 H 2253.95 4.75642 2.75762 0
M  V30 22898 H 2255.18 5.8372 3.47056 0
M  V30 22899 H 2253.12 4.21797 5.02418 0
M  V30 22900 H 2253.04 5.91907 4.703 0
M  V30 22901 H 2254.31 5.29845 5.71738 0
M  V30 22902 N 2258.54 -0.497781 1.49532 0
M  V30 22903 C 2259.78 -1.25355 1.59417 0
M  V30 22904 C 2260.12 -1.9215 0.281455 0
M  V30 22905 O 2259.39 -1.80873 -0.715217 0
M  V30 22906 C 2259.67 -2.31805 2.7557 0
M  V30 22907 C 2259.53 -1.69491 4.16645 0
M  V30 22908 C 2260.85 -3.33341 2.87353 0
M  V30 22909 H 2257.96 -0.454398 0.580252 0
M  V30 22910 H 2260.61 -0.55123 1.81828 0
M  V30 22911 H 2258.76 -2.91707 2.56592 0
M  V30 22912 H 2260.43 -1.13391 4.47147 0
M  V30 22913 H 2258.67 -0.998904 4.22143 0
M  V30 22914 H 2259.34 -2.46717 4.93796 0
M  V30 22915 H 2261.82 -2.83433 3.04639 0
M  V30 22916 H 2260.69 -4.05181 3.70296 0
M  V30 22917 H 2260.96 -3.95861 1.96841 0
M  V30 22918 N 2260.01 -1.38661 -0.749062 0
M  V30 22919 C 2261.24 -1.3854 -1.54342 0
M  V30 22920 C 2261.66 0.0216325 -1.88088 0
M  V30 22921 O 2261.02 1.00491 -1.50901 0
M  V30 22922 C 2261.07 -2.25197 -2.81636 0
M  V30 22923 O 2260.17 -1.67218 -3.76977 0
M  V30 22924 H 2259.52 -0.472375 -0.466646 0
M  V30 22925 H 2262.05 -1.8248 -0.925323 0
M  V30 22926 H 2262.06 -2.39215 -3.30515 0
M  V30 22927 H 2260.73 -3.27459 -2.56405 0
M  V30 22928 H 2259.31 -1.62366 -3.35696 0
M  V30 22929 N 2261.49 0.977736 -1.23605 0
M  V30 22930 C 2262.72 1.75989 -1.09738 0
M  V30 22931 C 2263.14 1.84875 0.346825 0
M  V30 22932 O 2262.5 1.31232 1.25091 0
M  V30 22933 C 2262.55 3.1636 -1.73057 0
M  V30 22934 O 2261.65 4.00229 -0.994522 0
M  V30 22935 H 2260.99 0.541357 -0.384485 0
M  V30 22936 H 2263.52 1.22717 -1.63712 0
M  V30 22937 H 2263.53 3.66928 -1.78404 0
M  V30 22938 H 2262.21 3.09208 -2.78142 0
M  V30 22939 H 2260.79 3.5873 -1.01818 0
M  V30 22940 N 2262.97 1.04818 1.1769 0
M  V30 22941 C 2264.2 0.775162 1.91507 0
M  V30 22942 C 2264.61 -0.672498 1.76845 0
M  V30 22943 O 2263.95 -1.4708 1.10059 0
M  V30 22944 C 2264.01 1.07136 3.43165 0
M  V30 22945 C 2263.68 2.51445 3.81608 0
M  V30 22946 C 2264.68 3.49644 3.84766 0
M  V30 22947 C 2262.36 2.86355 4.12682 0
M  V30 22948 C 2264.35 4.80801 4.1846 0
M  V30 22949 C 2262.04 4.17716 4.46046 0
M  V30 22950 C 2263.04 5.14749 4.48912 0
M  V30 22951 O 2262.73 6.43755 4.81493 0
M  V30 22952 H 2262.46 0.281566 0.61457 0
M  V30 22953 H 2265.01 1.40101 1.50203 0
M  V30 22954 H 2263.24 0.38841 3.84744 0
M  V30 22955 H 2264.93 0.784953 3.98238 0
M  V30 22956 H 2265.7 3.24014 3.60888 0
M  V30 22957 H 2261.58 2.11494 4.09624 0
M  V30 22958 H 2265.12 5.56535 4.20613 0
M  V30 22959 H 2261.02 4.43111 4.69386 0
M  V30 22960 H 2261.79 6.48519 4.99365 0
M  V30 22961 N 2264.45 -1.34055 0.828678 0
M  V30 22962 C 2265.7 -1.97716 0.418665 0
M  V30 22963 C 2266.02 -1.66004 -1.02311 0
M  V30 22964 O 2265.29 -0.953713 -1.71117 0
M  V30 22965 H 2263.87 -0.731409 0.151822 0
M  V30 22966 H 2266.53 -1.63594 1.05939 0
M  V30 22967 H 2265.63 -3.07351 0.542372 0
M  V30 22968 N 2265.93 -0.584167 -1.46374 0
M  V30 22969 C 2267.18 -0.0701642 -2.01978 0
M  V30 22970 C 2267.5 1.29497 -1.45792 0
M  V30 22971 O 2266.77 1.85041 -0.643172 0
M  V30 22972 H 2265.35 -0.0229476 -0.746647 0
M  V30 22973 H 2268.01 -0.760277 -1.7946 0
M  V30 22974 H 2267.1 -0.00226126 -3.121 0
M  V30 22975 N 2267.41 1.54275 -0.322027 0
M  V30 22976 C 2268.64 2.04658 0.282606 0
M  V30 22977 C 2269.04 1.19786 1.46451 0
M  V30 22978 O 2268.39 0.220964 1.82366 0
M  V30 22979 C 2268.45 3.50896 0.781796 0
M  V30 22980 C 2268.11 4.56156 -0.277598 0
M  V30 22981 C 2269.11 5.07843 -1.11316 0
M  V30 22982 C 2266.79 5.00496 -0.425344 0
M  V30 22983 C 2268.79 6.02431 -2.08221 0
M  V30 22984 C 2266.48 5.94899 -1.39782 0
M  V30 22985 C 2267.47 6.45752 -2.22472 0
M  V30 22986 O 2267.16 7.38301 -3.18067 0
M  V30 22987 H 2266.89 0.673128 0.0622518 0
M  V30 22988 H 2269.45 2.00048 -0.465827 0
M  V30 22989 H 2267.68 3.52899 1.58111 0
M  V30 22990 H 2269.37 3.84363 1.30461 0
M  V30 22991 H 2270.13 4.74367 -1.00999 0
M  V30 22992 H 2266.01 4.60529 0.208389 0
M  V30 22993 H 2269.56 6.42047 -2.72802 0
M  V30 22994 H 2265.45 6.27791 -1.50163 0
M  V30 22995 H 2266.22 7.5617 -3.13288 0
M  V30 22996 N 2268.88 0.0501669 1.5752 0
M  V30 22997 C 2269.81 -0.922529 2.14503 0
M  V30 22998 C 2270.79 -1.32518 1.06644 0
M  V30 22999 O 2271.98 -1.40007 1.34579 0
M  V30 23000 C 2269.11 -2.19771 2.6892 0
M  V30 23001 C 2268.06 -1.93516 3.81753 0
M  V30 23002 C 2267.39 -3.2748 4.22683 0
M  V30 23003 C 2268.69 -1.25756 5.06935 0
M  V30 23004 H 2270.38 -0.4479 2.96031 0
M  V30 23005 H 2267.93 -0.213999 1.42401 0
M  V30 23006 H 2269.88 -2.88216 3.07424 0
M  V30 23007 H 2268.61 -2.69438 1.84583 0
M  V30 23008 H 2267.27 -1.27483 3.4372 0
M  V30 23009 H 2266.91 -3.74946 3.35298 0
M  V30 23010 H 2266.61 -3.10711 4.98731 0
M  V30 23011 H 2268.14 -3.97158 4.63786 0
M  V30 23012 H 2269.55 -1.84234 5.42891 0
M  V30 23013 H 2267.95 -1.19317 5.88119 0
M  V30 23014 H 2269.02 -0.233451 4.84338 0
M  V30 23015 N 2270.36 -1.56011 -0.223207 0
M  V30 23016 C 2271.59 -1.83029 -0.96478 0
M  V30 23017 C 2272 -0.629072 -1.78012 0
M  V30 23018 O 2271.36 0.402382 -1.78009 0
M  V30 23019 C 2271.41 -3.08545 -1.88368 0
M  V30 23020 O 2271.13 -4.24032 -1.1013 0
M  V30 23021 C 2272.63 -3.48537 -2.73928 0
M  V30 23022 H 2269.85 -0.60848 -0.282831 0
M  V30 23023 H 2272.4 -2.03099 -0.238936 0
M  V30 23024 H 2270.55 -2.90455 -2.56349 0
M  V30 23025 H 2270.97 -4.95325 -1.72492 0
M  V30 23026 H 2272.44 -4.39403 -3.3411 0
M  V30 23027 H 2272.92 -2.70213 -3.46239 0
M  V30 23028 H 2273.52 -3.69061 -2.11362 0
M  V30 23029 N 2271.84 0.489844 -1.49794 0
M  V30 23030 C 2273.07 1.26515 -1.63333 0
M  V30 23031 C 2273.48 1.86669 -0.308425 0
M  V30 23032 O 2272.82 1.69109 0.717482 0
M  V30 23033 C 2272.88 2.42685 -2.65225 0
M  V30 23034 C 2272.55 2.03314 -4.09283 0
M  V30 23035 C 2273.54 1.56643 -4.95741 0
M  V30 23036 C 2271.23 2.12608 -4.55086 0
M  V30 23037 C 2273.22 1.19784 -6.26044 0
M  V30 23038 C 2270.91 1.7536 -5.85399 0
M  V30 23039 C 2271.91 1.29024 -6.70702 0
M  V30 23040 O 2271.6 0.922849 -7.98585 0
M  V30 23041 H 2271.33 0.389499 -0.552509 0
M  V30 23042 H 2273.88 0.593347 -1.96643 0
M  V30 23043 H 2272.11 3.12977 -2.27117 0
M  V30 23044 H 2273.8 3.0469 -2.68177 0
M  V30 23045 H 2274.57 1.489 -4.61577 0
M  V30 23046 H 2270.45 2.47624 -3.88848 0
M  V30 23047 H 2273.99 0.83546 -6.92579 0
M  V30 23048 H 2269.89 1.82757 -6.19088 0
M  V30 23049 H 2270.65 1.05335 -8.11694 0
M  V30 23050 N 2273.32 1.39056 0.741698 0
M  V30 23051 C 2274.25 1.33136 1.86567 0
M  V30 23052 C 2275.26 0.241357 1.61001 0
M  V30 23053 O 2276.45 0.499814 1.7136 0
M  V30 23054 C 2273.55 1.04288 3.22455 0
M  V30 23055 C 2272.72 2.24434 3.75431 0
M  V30 23056 C 2271.78 1.92146 4.89864 0
M  V30 23057 O 2270.81 2.64763 5.03874 0
M  V30 23058 N 2272.01 0.883571 5.73736 0
M  V30 23059 H 2274.78 2.29995 1.92152 0
M  V30 23060 H 2272.34 1.33072 0.922149 0
M  V30 23061 H 2274.33 0.807197 3.96568 0
M  V30 23062 H 2272.9 0.161862 3.12181 0
M  V30 23063 H 2272.12 2.63995 2.92746 0
M  V30 23064 H 2273.41 3.04588 4.07558 0
M  V30 23065 H 2272.81 0.281616 5.64999 0
M  V30 23066 H 2271.36 0.707776 6.47946 0
M  V30 23067 N 2274.8 -0.971167 1.24121 0
M  V30 23068 C 2275.76 -2.04673 1.03159 0
M  V30 23069 C 2276.76 -1.60797 -0.00987496 0
M  V30 23070 O 2277.95 -1.72665 0.23076 0
M  V30 23071 C 2275.08 -3.36222 0.562824 0
M  V30 23072 H 2276.27 -2.24702 1.98618 0
M  V30 23073 H 2273.83 -1.14591 1.06295 0
M  V30 23074 H 2274.56 -3.21884 -0.39512 0
M  V30 23075 H 2274.35 -3.6941 1.31447 0
M  V30 23076 H 2275.84 -4.15306 0.437088 0
M  V30 23077 N 2276.27 -1.05441 -1.17133 0
M  V30 23078 C 2277.22 -0.657578 -2.21234 0
M  V30 23079 C 2278.19 0.341515 -1.62551 0
M  V30 23080 O 2279.38 0.23236 -1.8938 0
M  V30 23081 C 2276.52 -0.0411182 -3.45076 0
M  V30 23082 C 2275.63 -1.08935 -4.1804 0
M  V30 23083 C 2274.76 -0.439941 -5.29375 0
M  V30 23084 C 2273.8 -1.4723 -5.94129 0
M  V30 23085 N 2272.94 -0.846878 -6.96974 0
M  V30 23086 H 2277.78 -1.54976 -2.54532 0
M  V30 23087 H 2275.32 -0.775028 -1.25027 0
M  V30 23088 H 2277.28 0.333757 -4.15863 0
M  V30 23089 H 2275.91 0.814513 -3.12355 0
M  V30 23090 H 2274.96 -1.58202 -3.45942 0
M  V30 23091 H 2276.27 -1.8729 -4.62303 0
M  V30 23092 H 2275.42 -0.0116192 -6.06699 0
M  V30 23093 H 2274.16 0.375571 -4.86252 0
M  V30 23094 H 2273.17 -1.91061 -5.15534 0
M  V30 23095 H 2274.39 -2.28976 -6.39333 0
M  V30 23096 H 2272.34 -0.0519228 -6.55979 0
M  V30 23097 H 2272.26 -1.56793 -7.39562 0
M  V30 23098 H 2273.52 -0.443414 -7.78238 0
M  V30 23099 N 2277.75 1.33613 -0.835776 0
M  V30 23100 C 2278.98 2.02626 -0.442425 0
M  V30 23101 C 2279.4 1.62481 0.947707 0
M  V30 23102 O 2278.76 0.815854 1.61906 0
M  V30 23103 C 2278.81 3.5611 -0.567279 0
M  V30 23104 O 2277.91 4.1038 0.407726 0
M  V30 23105 H 2277.25 0.639055 -0.180289 0
M  V30 23106 H 2279.78 1.70581 -1.12975 0
M  V30 23107 H 2279.79 4.05535 -0.44778 0
M  V30 23108 H 2278.47 3.84674 -1.58109 0
M  V30 23109 H 2277.05 3.72087 0.246042 0
M  V30 23110 N 2279.23 0.591922 1.46062 0
M  V30 23111 C 2280.48 0.0810347 2.02338 0
M  V30 23112 C 2280.81 -1.28246 1.4623 0
M  V30 23113 O 2280.06 -1.85591 0.620851 0
M  V30 23114 C 2280.36 -0.0249184 3.57391 0
M  V30 23115 C 2280.03 1.27219 4.32581 0
M  V30 23116 C 2278.69 1.62753 4.52841 0
M  V30 23117 C 2281.04 2.13014 4.75683 0
M  V30 23118 C 2278.37 2.83864 5.13457 0
M  V30 23119 C 2280.72 3.33359 5.37638 0
M  V30 23120 C 2279.38 3.69165 5.56124 0
M  V30 23121 H 2278.65 0.0296527 0.740406 0
M  V30 23122 H 2281.3 0.770405 1.7532 0
M  V30 23123 H 2279.61 -0.797469 3.83598 0
M  V30 23124 H 2281.3 -0.436114 3.98621 0
M  V30 23125 H 2277.89 0.985572 4.17114 0
M  V30 23126 H 2282.08 1.86863 4.59778 0
M  V30 23127 H 2277.33 3.11731 5.2596 0
M  V30 23128 H 2281.51 4.00102 5.69993 0
M  V30 23129 H 2279.13 4.631 6.02862 0
M  V30 23130 N 2280.71 -1.54102 0.330204 0
M  V30 23131 C 2281.96 -2.00291 -0.269836 0
M  V30 23132 C 2282.28 -1.21989 -1.52131 0
M  V30 23133 O 2281.55 -0.323472 -1.93211 0
M  V30 23134 H 2280.13 -0.739907 -0.102697 0
M  V30 23135 H 2282.79 -1.89675 0.448282 0
M  V30 23136 H 2281.89 -3.0771 -0.521606 0
M  V30 23137 N 2282.19 -0.0585199 -1.57491 0
M  V30 23138 C 2283.12 0.91114 -2.1499 0
M  V30 23139 C 2284.1 1.3195 -1.07346 0
M  V30 23140 O 2285.28 1.39292 -1.3532 0
M  V30 23141 C 2282.41 2.18342 -2.70082 0
M  V30 23142 C 2281.37 1.91489 -3.82774 0
M  V30 23143 C 2280.69 3.25234 -4.24414 0
M  V30 23144 C 2281.99 1.23066 -5.07594 0
M  V30 23145 H 2283.69 0.432194 -2.96264 0
M  V30 23146 H 2281.23 0.206444 -1.42512 0
M  V30 23147 H 2283.19 2.86582 -3.08948 0
M  V30 23148 H 2281.91 2.68455 -1.86009 0
M  V30 23149 H 2280.57 1.25658 -3.44392 0
M  V30 23150 H 2280.22 3.73162 -3.37282 0
M  V30 23151 H 2279.92 3.08062 -5.00371 0
M  V30 23152 H 2281.44 3.94693 -4.65886 0
M  V30 23153 H 2282.85 1.81353 -5.4386 0
M  V30 23154 H 2281.25 1.16197 -5.88743 0
M  V30 23155 H 2282.32 0.207762 -4.84455 0
M  V30 23156 N 2283.66 1.56128 0.21493 0
M  V30 23157 C 2285.08 1.69563 0.781357 0
M  V30 23158 C 2285.43 0.661682 1.84706 0
M  V30 23159 O 2284.55 -0.18589 2.156 0
M  V30 23160 C 2285.15 3.07418 1.42406 0
M  V30 23161 C 2283.71 3.22686 1.9378 0
M  V30 23162 C 2282.85 2.65498 0.800391 0
M  V30 23163 H 2285.8 1.58697 -0.00983423 0
M  V30 23164 H 2285.82 3.03644 2.29304 0
M  V30 23165 H 2285.34 3.82649 0.648192 0
M  V30 23166 H 2283.44 2.52336 2.74148 0
M  V30 23167 H 2283.55 4.29976 2.11322 0
M  V30 23168 H 2281.91 2.24152 1.20946 0
M  V30 23169 H 2282.7 3.4328 0.0370867 0
M  V30 23170 N 2285.14 -0.481893 1.50052 0
M  V30 23171 C 2286.39 -1.23231 1.60183 0
M  V30 23172 C 2286.71 -1.92691 0.29921 0
M  V30 23173 O 2285.98 -1.8362 -0.682675 0
M  V30 23174 H 2284.56 -0.457849 0.59024 0
M  V30 23175 H 2287.22 -0.556848 1.86776 0
M  V30 23176 H 2286.32 -1.98602 2.40756 0
M  V30 23177 N 2286.62 -1.39448 -0.734313 0
M  V30 23178 C 2287.9 -1.27217 -1.48577 0
M  V30 23179 C 2288.28 0.117931 -2.1077 0
M  V30 23180 O 2287.63 1.12921 -1.98648 0
M  V30 23181 C 2287.84 -2.397 -2.53663 0
M  V30 23182 C 2289.18 -2.7905 -3.20026 0
M  V30 23183 O 2290.21 -2.39155 -2.63976 0
M  V30 23184 O 2289.07 -3.47912 -4.21449 0
M  V30 23185 H 2286.16 -0.498582 -0.659807 0
M  V30 23186 H 2288.71 -1.51323 -0.76808 0
M  V30 23187 H 2287.48 -3.3263 -2.0609 0
M  V30 23188 H 2287.1 -2.17264 -3.3299 0
M  V30 23189 N 2288.1 0.964571 -1.24635 0
M  V30 23190 C 2289.03 2.05861 -0.984698 0
M  V30 23191 C 2290.01 1.6239 0.0826268 0
M  V30 23192 O 2291.19 1.8842 -0.0549627 0
M  V30 23193 C 2288.32 3.35187 -0.486587 0
M  V30 23194 C 2287.37 3.97613 -1.54293 0
M  V30 23195 S 2288.2 4.34846 -3.12521 0
M  V30 23196 C 2289.36 5.67303 -2.6442 0
M  V30 23197 H 2289.59 2.27739 -1.91108 0
M  V30 23198 H 2287.12 1.10289 -1.08054 0
M  V30 23199 H 2289.08 4.09984 -0.205829 0
M  V30 23200 H 2287.74 3.11291 0.419131 0
M  V30 23201 H 2286.93 4.90824 -1.14489 0
M  V30 23202 H 2286.54 3.29257 -1.77386 0
M  V30 23203 H 2288.83 6.44965 -2.07427 0
M  V30 23204 H 2289.77 6.11967 -3.56233 0
M  V30 23205 H 2290.18 5.26061 -2.04743 0
M  V30 23206 N 2289.58 1.0606 1.16572 0
M  V30 23207 C 2290.82 0.777055 1.87322 0
M  V30 23208 C 2291.16 -0.694613 1.81353 0
M  V30 23209 O 2290.43 -1.50869 1.22756 0
M  V30 23210 C 2290.71 1.26928 3.36989 0
M  V30 23211 C 2290.57 2.80453 3.51662 0
M  V30 23212 C 2291.89 0.875286 4.31308 0
M  V30 23213 H 2289 0.283752 0.680187 0
M  V30 23214 H 2291.65 1.31612 1.37034 0
M  V30 23215 H 2289.8 0.810697 3.79947 0
M  V30 23216 H 2291.47 3.34501 3.17658 0
M  V30 23217 H 2289.71 3.19299 2.9365 0
M  V30 23218 H 2290.38 3.09958 4.56761 0
M  V30 23219 H 2292.86 1.27021 3.96238 0
M  V30 23220 H 2291.73 1.24719 5.34543 0
M  V30 23221 H 2292 -0.219994 4.41552 0
M  V30 23222 N 2291.06 -1.33168 0.84285 0
M  V30 23223 C 2291.99 -2.31641 0.294069 0
M  V30 23224 C 2292.97 -1.59153 -0.600373 0
M  V30 23225 O 2294.15 -1.87022 -0.523091 0
M  V30 23226 C 2291.28 -3.43257 -0.528355 0
M  V30 23227 C 2290.24 -4.27143 0.270635 0
M  V30 23228 C 2289.56 -5.30412 -0.675788 0
M  V30 23229 C 2290.86 -5.00599 1.4899 0
M  V30 23230 H 2292.56 -2.77789 1.11686 0
M  V30 23231 H 2290.1 -1.33552 0.538502 0
M  V30 23232 H 2292.05 -4.11176 -0.922602 0
M  V30 23233 H 2290.78 -2.95808 -1.38439 0
M  V30 23234 H 2289.44 -3.60855 0.646491 0
M  V30 23235 H 2289.09 -4.79219 -1.52834 0
M  V30 23236 H 2288.79 -5.8742 -0.145271 0
M  V30 23237 H 2290.31 -6.01197 -1.06746 0
M  V30 23238 H 2291.72 -5.61264 1.16859 0
M  V30 23239 H 2290.12 -5.67276 1.95749 0
M  V30 23240 H 2291.19 -4.29143 2.25753 0
M  V30 23241 N 2292.53 -0.599659 -1.45746 0
M  V30 23242 C 2293.46 0.111265 -2.33235 0
M  V30 23243 C 2294.44 0.866755 -1.4636 0
M  V30 23244 O 2295.63 0.838873 -1.75147 0
M  V30 23245 C 2292.76 1.11445 -3.28934 0
M  V30 23246 C 2291.71 0.472697 -4.25382 0
M  V30 23247 C 2291.04 1.58356 -5.10713 0
M  V30 23248 C 2292.34 -0.60104 -5.1883 0
M  V30 23249 H 2294.03 -0.619241 -2.92926 0
M  V30 23250 H 2291.58 -0.29924 -1.40857 0
M  V30 23251 H 2293.53 1.62029 -3.89004 0
M  V30 23252 H 2292.26 1.87545 -2.67384 0
M  V30 23253 H 2290.92 -0.0122117 -3.66598 0
M  V30 23254 H 2290.56 2.33465 -4.45537 0
M  V30 23255 H 2290.26 1.15971 -5.76042 0
M  V30 23256 H 2291.79 2.09183 -5.7365 0
M  V30 23257 H 2293.2 -0.179592 -5.73019 0
M  V30 23258 H 2291.6 -0.94618 -5.92594 0
M  V30 23259 H 2292.67 -1.48076 -4.61738 0
M  V30 23260 N 2294.01 1.53925 -0.338371 0
M  V30 23261 C 2294.92 2.28549 0.52938 0
M  V30 23262 C 2295.94 1.33461 1.11642 0
M  V30 23263 O 2297.11 1.66494 1.13322 0
M  V30 23264 C 2294.18 3.03989 1.66707 0
M  V30 23265 C 2293.24 4.14693 1.11034 0
M  V30 23266 C 2292.47 4.86526 2.19381 0
M  V30 23267 O 2292.7 4.57988 3.40005 0
M  V30 23268 O 2291.63 5.73097 1.83966 0
M  V30 23269 H 2295.46 3.03602 -0.0770932 0
M  V30 23270 H 2293.04 1.4904 -0.103582 0
M  V30 23271 H 2294.92 3.51184 2.32912 0
M  V30 23272 H 2293.6 2.31798 2.25945 0
M  V30 23273 H 2292.5 3.71814 0.412958 0
M  V30 23274 H 2293.84 4.88971 0.562889 0
M  V30 23275 N 2295.49 0.0668712 1.57458 0
M  V30 23276 C 2296.44 -0.902085 2.12441 0
M  V30 23277 C 2297.41 -1.29858 1.03567 0
M  V30 23278 O 2298.59 -1.3853 1.31203 0
M  V30 23279 C 2295.73 -2.16609 2.68653 0
M  V30 23280 C 2294.84 -1.82267 3.91667 0
M  V30 23281 C 2293.98 -3.03242 4.36139 0
M  V30 23282 C 2293.02 -2.64895 5.51813 0
M  V30 23283 N 2292.16 -3.78613 5.91267 0
M  V30 23284 H 2297 -0.42633 2.94935 0
M  V30 23285 H 2294.53 -0.198793 1.45751 0
M  V30 23286 H 2296.49 -2.90594 2.99351 0
M  V30 23287 H 2295.12 -2.61734 1.88932 0
M  V30 23288 H 2294.17 -0.983654 3.67462 0
M  V30 23289 H 2295.48 -1.50051 4.75695 0
M  V30 23290 H 2294.64 -3.85511 4.68472 0
M  V30 23291 H 2293.38 -3.38649 3.50954 0
M  V30 23292 H 2292.38 -1.81046 5.19136 0
M  V30 23293 H 2293.61 -2.30664 6.38726 0
M  V30 23294 H 2291.55 -4.13791 5.09032 0
M  V30 23295 H 2291.47 -3.50148 6.70024 0
M  V30 23296 H 2292.74 -4.61475 6.2822 0
M  V30 23297 N 2296.97 -1.56239 -0.206647 0
M  V30 23298 C 2297.91 -1.93623 -1.25614 0
M  V30 23299 C 2298.88 -0.7953 -1.45822 0
M  V30 23300 O 2300.07 -1.05248 -1.59146 0
M  V30 23301 C 2297.21 -2.27111 -2.59835 0
M  V30 23302 C 2296.32 -3.54212 -2.47302 0
M  V30 23303 C 2295.46 -3.77076 -3.74148 0
M  V30 23304 C 2294.5 -4.97641 -3.56398 0
M  V30 23305 N 2293.63 -5.16819 -4.75229 0
M  V30 23306 H 2298.47 -2.83106 -0.930333 0
M  V30 23307 H 2296.01 -1.40111 -0.448041 0
M  V30 23308 H 2297.97 -2.44541 -3.38017 0
M  V30 23309 H 2296.6 -1.40784 -2.90482 0
M  V30 23310 H 2295.65 -3.44893 -1.60477 0
M  V30 23311 H 2296.96 -4.42548 -2.30114 0
M  V30 23312 H 2296.12 -3.94683 -4.60771 0
M  V30 23313 H 2294.86 -2.87049 -3.94277 0
M  V30 23314 H 2293.86 -4.79969 -2.6816 0
M  V30 23315 H 2295.09 -5.89167 -3.37726 0
M  V30 23316 H 2293.03 -4.29736 -4.95644 0
M  V30 23317 H 2292.95 -5.99314 -4.60824 0
M  V30 23318 H 2294.22 -5.38874 -5.63236 0
M  V30 23319 N 2298.45 0.473929 -1.50305 0
M  V30 23320 C 2299.86 1.05487 -1.54043 0
M  V30 23321 C 2300.21 1.93191 -0.342282 0
M  V30 23322 O 2299.33 2.09422 0.54512 0
M  V30 23323 C 2299.93 1.91984 -2.79155 0
M  V30 23324 C 2298.49 2.45191 -2.85584 0
M  V30 23325 C 2297.63 1.23465 -2.48297 0
M  V30 23326 H 2300.58 0.256666 -1.56611 0
M  V30 23327 H 2300.61 2.77015 -2.6085 0
M  V30 23328 H 2300.12 1.28124 -3.66341 0
M  V30 23329 H 2298.22 3.12612 -2.02743 0
M  V30 23330 H 2298.33 2.80492 -3.88408 0
M  V30 23331 H 2296.7 1.56853 -2.00672 0
M  V30 23332 H 2297.48 0.612729 -3.37788 0
M  V30 23333 N 2299.92 1.39835 0.726907 0
M  V30 23334 C 2301.2 1.28004 1.479 0
M  V30 23335 C 2301.58 -0.106752 2.1083 0
M  V30 23336 O 2300.93 -1.11866 1.99244 0
M  V30 23337 C 2301.14 2.41042 2.52388 0
M  V30 23338 C 2302.49 2.80743 3.18541 0
M  V30 23339 O 2303.51 2.40552 2.62704 0
M  V30 23340 O 2302.37 3.50142 4.19598 0
M  V30 23341 H 2299.46 0.502074 0.657154 0
M  V30 23342 H 2302.01 1.51728 0.760044 0
M  V30 23343 H 2300.78 3.33718 2.04323 0
M  V30 23344 H 2300.4 2.19027 3.31833 0
M  V30 23345 N 2301.4 -0.957948 1.25144 0
M  V30 23346 C 2302.65 -1.70467 1.09858 0
M  V30 23347 C 2302.98 -1.90831 -0.360153 0
M  V30 23348 O 2302.26 -1.47687 -1.26565 0
M  V30 23349 C 2302.54 -3.0896 1.84975 0
M  V30 23350 C 2302.39 -2.96026 3.38657 0
M  V30 23351 C 2303.71 -4.08793 1.63024 0
M  V30 23352 H 2300.83 -0.618699 0.400476 0
M  V30 23353 H 2303.47 -1.11373 1.53935 0
M  V30 23354 H 2301.62 -3.59406 1.47511 0
M  V30 23355 H 2303.29 -2.52931 3.85777 0
M  V30 23356 H 2301.54 -2.32018 3.66538 0
M  V30 23357 H 2302.21 -3.94181 3.86427 0
M  V30 23358 H 2304.68 -3.67243 1.95631 0
M  V30 23359 H 2303.56 -5.03743 2.18024 0
M  V30 23360 H 2303.82 -4.384 0.570769 0
M  V30 23361 N 2302.88 -1.06677 -1.16008 0
M  V30 23362 C 2303.81 -0.63896 -2.20113 0
M  V30 23363 C 2304.82 0.305029 -1.59917 0
M  V30 23364 O 2306.01 0.0954133 -1.78245 0
M  V30 23365 C 2303.11 0.0829487 -3.38798 0
M  V30 23366 C 2302.29 -0.875502 -4.28548 0
M  V30 23367 C 2301.35 -0.192134 -5.25849 0
M  V30 23368 O 2300.37 -0.83102 -5.63101 0
M  V30 23369 N 2301.57 1.06483 -5.7065 0
M  V30 23370 H 2304.34 -1.53449 -2.57436 0
M  V30 23371 H 2301.9 -0.95058 -1.31056 0
M  V30 23372 H 2303.89 0.550615 -4.00937 0
M  V30 23373 H 2302.46 0.880333 -2.99948 0
M  V30 23374 H 2301.68 -1.52245 -3.63614 0
M  V30 23375 H 2302.97 -1.52557 -4.8539 0
M  V30 23376 H 2302.37 1.60396 -5.42485 0
M  V30 23377 H 2300.92 1.4763 -6.34861 0
M  V30 23378 N 2304.36 1.32719 -0.8499 0
M  V30 23379 C 2305.29 2.31482 -0.306349 0
M  V30 23380 C 2306.27 1.59469 0.591924 0
M  V30 23381 O 2307.45 1.87297 0.513166 0
M  V30 23382 C 2304.58 3.43533 0.510144 0
M  V30 23383 C 2303.54 4.26994 -0.293284 0
M  V30 23384 C 2302.86 5.30763 0.647649 0
M  V30 23385 C 2304.16 4.99802 -1.51643 0
M  V30 23386 H 2305.86 2.77193 -1.13157 0
M  V30 23387 H 2303.4 1.33265 -0.545577 0
M  V30 23388 H 2305.36 4.1166 0.900783 0
M  V30 23389 H 2304.08 2.96538 1.36869 0
M  V30 23390 H 2302.74 3.60507 -0.665619 0
M  V30 23391 H 2302.39 4.80023 1.5029 0
M  V30 23392 H 2302.09 5.87489 0.114116 0
M  V30 23393 H 2303.61 6.01754 1.03557 0
M  V30 23394 H 2305.03 5.60636 -1.19834 0
M  V30 23395 H 2303.42 5.6623 -1.98755 0
M  V30 23396 H 2304.49 4.27939 -2.28026 0
M  V30 23397 N 2305.84 0.60738 1.45426 0
M  V30 23398 C 2307.06 0.10885 2.06613 0
M  V30 23399 C 2307.48 -1.20668 1.45206 0
M  V30 23400 O 2306.84 -1.73496 0.566162 0
M  V30 23401 C 2306.89 -0.0374712 3.61481 0
M  V30 23402 O 2306.61 1.22601 4.20596 0
M  V30 23403 C 2308.11 -0.567484 4.39653 0
M  V30 23404 H 2305.33 0.0687468 0.667469 0
M  V30 23405 H 2307.87 0.835054 1.86674 0
M  V30 23406 H 2306.03 -0.714001 3.80763 0
M  V30 23407 H 2306.44 1.05556 5.13769 0
M  V30 23408 H 2307.92 -0.618954 5.48519 0
M  V30 23409 H 2308.39 -1.58971 4.0942 0
M  V30 23410 H 2309 0.0749949 4.25234 0
M  V30 23411 N 2307.31 -1.53743 0.34653 0
M  V30 23412 C 2308.56 -2.00565 -0.248577 0
M  V30 23413 C 2308.88 -1.23596 -1.50828 0
M  V30 23414 O 2308.15 -0.343946 -1.92857 0
M  V30 23415 H 2306.73 -0.740955 -0.0948434 0
M  V30 23416 H 2309.4 -1.89188 0.468375 0
M  V30 23417 H 2308.49 -3.08246 -0.48894 0
M  V30 23418 N 2308.79 -0.0752207 -1.5742 0
M  V30 23419 C 2309.72 0.920446 -2.09906 0
M  V30 23420 C 2310.74 1.25916 -1.03194 0
M  V30 23421 O 2311.93 1.21575 -1.30697 0
M  V30 23422 C 2309.03 2.2353 -2.5473 0
M  V30 23423 C 2308.2 2.07491 -3.85053 0
M  V30 23424 C 2307.26 3.22311 -4.15935 0
M  V30 23425 O 2306.28 2.97151 -4.85479 0
M  V30 23426 N 2307.49 4.47507 -3.69753 0
M  V30 23427 H 2310.25 0.472307 -2.95955 0
M  V30 23428 H 2307.81 0.110416 -1.61523 0
M  V30 23429 H 2309.8 2.99255 -2.72449 0
M  V30 23430 H 2308.37 2.59831 -1.738 0
M  V30 23431 H 2307.59 1.16213 -3.76681 0
M  V30 23432 H 2308.88 1.94029 -4.70351 0
M  V30 23433 H 2308.28 4.70835 -3.13578 0
M  V30 23434 H 2306.84 5.20248 -3.92665 0
M  V30 23435 N 2310.27 1.56347 0.198358 0
M  V30 23436 C 2311.22 1.90689 1.24987 0
M  V30 23437 C 2312.2 0.772242 1.41157 0
M  V30 23438 O 2313.4 1.03505 1.43582 0
M  V30 23439 C 2310.53 2.2471 2.59538 0
M  V30 23440 C 2309.61 3.44624 2.47175 0
M  V30 23441 N 2310 4.62621 2.04487 0
M  V30 23442 C 2308.3 3.48697 2.78076 0
M  V30 23443 C 2309 5.4478 2.03936 0
M  V30 23444 N 2307.98 4.851 2.45315 0
M  V30 23445 H 2311.78 2.79421 0.9111 0
M  V30 23446 H 2309.29 1.57222 0.406812 0
M  V30 23447 H 2311.29 2.47497 3.35486 0
M  V30 23448 H 2309.95 1.37303 2.94241 0
M  V30 23449 H 2310.96 4.87349 1.75248 0
M  V30 23450 H 2307.64 2.71697 3.16997 0
M  V30 23451 H 2309.03 6.49283 1.7286 0
M  V30 23452 N 2311.75 -0.465951 1.50554 0
M  V30 23453 C 2312.68 -1.58225 1.64439 0
M  V30 23454 C 2313.66 -1.54965 0.492394 0
M  V30 23455 O 2314.84 -1.74513 0.712566 0
M  V30 23456 C 2311.97 -2.96805 1.6317 0
M  V30 23457 C 2311.02 -3.18199 2.83992 0
M  V30 23458 S 2311.85 -2.97549 4.45225 0
M  V30 23459 C 2313.01 -4.38462 4.46656 0
M  V30 23460 H 2313.24 -1.46208 2.58864 0
M  V30 23461 H 2310.77 -0.653653 1.39881 0
M  V30 23462 H 2312.73 -3.76698 1.63123 0
M  V30 23463 H 2311.39 -3.06207 0.699724 0
M  V30 23464 H 2310.58 -4.1945 2.79424 0
M  V30 23465 H 2310.19 -2.46087 2.81633 0
M  V30 23466 H 2312.48 -5.31184 4.20535 0
M  V30 23467 H 2313.42 -4.48073 5.48303 0
M  V30 23468 H 2313.83 -4.2078 3.76303 0
M  V30 23469 N 2313.23 -1.40218 -0.719481 0
M  V30 23470 C 2314.45 -1.41783 -1.51368 0
M  V30 23471 C 2314.88 -0.0182685 -1.88091 0
M  V30 23472 O 2314.23 0.97268 -1.52999 0
M  V30 23473 C 2314.28 -2.3112 -2.76796 0
M  V30 23474 O 2313.39 -1.75177 -3.73345 0
M  V30 23475 H 2312.73 -0.482167 -0.456521 0
M  V30 23476 H 2315.26 -1.84402 -0.886408 0
M  V30 23477 H 2315.27 -2.46172 -3.25366 0
M  V30 23478 H 2313.94 -3.32824 -2.49401 0
M  V30 23479 H 2312.52 -1.6945 -3.32176 0
M  V30 23480 N 2314.7 0.951297 -1.25651 0
M  V30 23481 C 2315.95 1.69071 -1.09991 0
M  V30 23482 C 2316.27 1.9229 0.358322 0
M  V30 23483 O 2317.47 2.6396 0.63542 0
M  V30 23484 C 2315.93 3.04397 -1.92017 0
M  V30 23485 C 2315.54 2.88962 -3.42353 0
M  V30 23486 C 2317.28 3.82098 -1.84937 0
M  V30 23487 C 2315.19 4.19698 -4.16662 0
M  V30 23488 H 2314.12 0.634073 -0.408005 0
M  V30 23489 H 2316.77 1.05876 -1.49875 0
M  V30 23490 H 2315.15 3.68515 -1.44959 0
M  V30 23491 H 2316.32 2.33755 -3.97108 0
M  V30 23492 H 2314.64 2.24712 -3.50561 0
M  V30 23493 H 2317.24 4.78937 -2.37747 0
M  V30 23494 H 2317.58 4.08185 -0.817954 0
M  V30 23495 H 2318.11 3.24736 -2.29764 0
M  V30 23496 H 2314.85 3.98798 -5.20231 0
M  V30 23497 H 2314.37 4.74657 -3.66689 0
M  V30 23498 H 2316.05 4.88219 -4.2456 0
M  V30 23499 N 2316.18 1.07291 1.1544 0
M  V30 23500 C 2317.43 0.790702 1.85555 0
M  V30 23501 C 2317.74 -0.685706 1.83187 0
M  V30 23502 O 2318.95 -1.08266 2.48979 0
M  V30 23503 C 2317.41 1.36439 3.33035 0
M  V30 23504 C 2317.01 2.87176 3.43851 0
M  V30 23505 C 2318.76 1.16017 4.08338 0
M  V30 23506 C 2316.67 3.37739 4.85476 0
M  V30 23507 H 2315.6 0.29211 0.695117 0
M  V30 23508 H 2318.25 1.2929 1.30217 0
M  V30 23509 H 2316.63 0.789932 3.88041 0
M  V30 23510 H 2317.8 3.5066 2.98955 0
M  V30 23511 H 2316.12 3.06381 2.81992 0
M  V30 23512 H 2318.71 1.51271 5.12856 0
M  V30 23513 H 2319.06 0.0991739 4.16182 0
M  V30 23514 H 2319.59 1.70095 3.596 0
M  V30 23515 H 2316.33 4.43361 4.82816 0
M  V30 23516 H 2315.85 2.79008 5.30956 0
M  V30 23517 H 2317.53 3.33658 5.5433 0
M  V30 23518 N 2317.66 -1.32267 0.856927 0
M  V30 23519 C 2318.89 -2.01071 0.474785 0
M  V30 23520 C 2319.3 -1.64555 -0.933717 0
M  V30 23521 O 2318.64 -0.864017 -1.62112 0
M  V30 23522 C 2318.7 -3.5547 0.536808 0
M  V30 23523 C 2318.37 -4.1542 1.90461 0
M  V30 23524 C 2319.36 -4.33481 2.87037 0
M  V30 23525 C 2317.05 -4.51443 2.20237 0
M  V30 23526 C 2319.04 -4.86737 4.11541 0
M  V30 23527 C 2316.73 -5.04404 3.44993 0
M  V30 23528 C 2317.73 -5.21999 4.40461 0
M  V30 23529 O 2317.42 -5.73827 5.63008 0
M  V30 23530 H 2317.15 -0.650253 0.184789 0
M  V30 23531 H 2319.7 -1.69769 1.15618 0
M  V30 23532 H 2317.93 -3.86175 -0.201452 0
M  V30 23533 H 2319.62 -4.05544 0.169946 0
M  V30 23534 H 2320.39 -4.05981 2.65338 0
M  V30 23535 H 2316.27 -4.37031 1.46713 0
M  V30 23536 H 2319.81 -5.00386 4.86065 0
M  V30 23537 H 2315.71 -5.31335 3.66542 0
M  V30 23538 H 2316.48 -5.92216 5.64997 0
M  V30 23539 N 2319.14 -0.615084 -1.45102 0
M  V30 23540 C 2320.05 0.100993 -2.34383 0
M  V30 23541 C 2321.06 0.852559 -1.51682 0
M  V30 23542 O 2322.24 0.808452 -1.84461 0
M  V30 23543 C 2319.31 1.08093 -3.29419 0
M  V30 23544 C 2318.37 0.330502 -4.28026 0
M  V30 23545 C 2317.6 1.26376 -5.18522 0
M  V30 23546 O 2317.82 2.50189 -5.12603 0
M  V30 23547 O 2316.76 0.756761 -5.97124 0
M  V30 23548 H 2320.58 -0.632907 -2.97032 0
M  V30 23549 H 2318.17 -0.375319 -1.44609 0
M  V30 23550 H 2320.05 1.64513 -3.87961 0
M  V30 23551 H 2318.72 1.79573 -2.69324 0
M  V30 23552 H 2317.63 -0.276349 -3.73078 0
M  V30 23553 H 2318.96 -0.343952 -4.90997 0
M  V30 23554 N 2320.62 1.53557 -0.354678 0
M  V30 23555 C 2321.53 2.29098 0.50511 0
M  V30 23556 C 2322.54 1.34638 1.10221 0
M  V30 23557 O 2323.72 1.67686 1.1155 0
M  V30 23558 C 2320.78 3.0574 1.63474 0
M  V30 23559 C 2319.85 4.15847 1.06629 0
M  V30 23560 C 2319.08 4.88826 2.14208 0
M  V30 23561 O 2319.3 4.61568 3.35129 0
M  V30 23562 O 2318.24 5.75016 1.77877 0
M  V30 23563 H 2322.06 3.03503 -0.10929 0
M  V30 23564 H 2319.65 1.48922 -0.119384 0
M  V30 23565 H 2321.53 3.53634 2.29174 0
M  V30 23566 H 2320.2 2.34182 2.23474 0
M  V30 23567 H 2319.11 3.72231 0.373499 0
M  V30 23568 H 2320.44 4.8954 0.510995 0
M  V30 23569 N 2322.1 0.083568 1.57378 0
M  V30 23570 C 2323.32 -0.591536 1.98264 0
M  V30 23571 C 2323.74 -1.62433 0.962331 0
M  V30 23572 O 2323.1 -1.82433 -0.0495489 0
M  V30 23573 C 2323.15 -1.24959 3.39216 0
M  V30 23574 O 2322.87 -0.258109 4.37339 0
M  V30 23575 C 2324.37 -2.0114 3.95041 0
M  V30 23576 H 2321.59 -0.159466 0.651776 0
M  V30 23577 H 2324.13 0.159451 2.03877 0
M  V30 23578 H 2322.29 -1.95158 3.34652 0
M  V30 23579 H 2322.7 -0.731643 5.19372 0
M  V30 23580 H 2324.18 -2.42558 4.95852 0
M  V30 23581 H 2324.65 -2.87267 3.32227 0
M  V30 23582 H 2325.26 -1.35782 4.03043 0
M  V30 23583 N 2323.57 -1.5645 -0.190064 0
M  V30 23584 C 2324.52 -1.9584 -1.25498 0
M  V30 23585 C 2325.52 -0.844511 -1.46848 0
M  V30 23586 O 2326.72 -1.02954 -1.4765 0
M  V30 23587 H 2323.1 -0.622813 -0.421436 0
M  V30 23588 H 2325.07 -2.84637 -0.895771 0
M  V30 23589 C 2323.82 -2.31845 -2.5912 0
M  V30 23590 H 2323.14 -3.17087 -2.43508 0
M  V30 23591 H 2324.58 -2.63266 -3.32366 0
M  V30 23592 C 2323.04 -1.15492 -3.16486 0
M  V30 23593 O 2323.57 -0.432605 -3.99364 0
M  V30 23594 N 2321.77 -0.930397 -2.75303 0
M  V30 23595 H 2321.32 -1.51952 -2.08011 0
M  V30 23596 H 2321.28 -0.153689 -3.14024 0
M  V30 23597 N 2325.05 0.45796 -1.50799 0
M  V30 23598 C 2326.28 1.23201 -1.6622 0
M  V30 23599 C 2326.69 1.8551 -0.350926 0
M  V30 23600 O 2326.05 1.69815 0.668517 0
M  V30 23601 C 2326.1 2.33116 -2.76295 0
M  V30 23602 O 2325.82 1.73359 -4.02341 0
M  V30 23603 C 2327.32 3.23765 -3.02805 0
M  V30 23604 H 2324.54 0.372111 -0.558367 0
M  V30 23605 H 2327.09 0.545145 -1.971 0
M  V30 23606 H 2325.24 2.97554 -2.48073 0
M  V30 23607 H 2325.66 2.45842 -4.63316 0
M  V30 23608 H 2327.13 3.9707 -3.83457 0
M  V30 23609 H 2327.61 3.83318 -2.14392 0
M  V30 23610 H 2328.21 2.6505 -3.32609 0
M  V30 23611 N 2326.53 1.40598 0.712035 0
M  V30 23612 C 2327.94 1.3484 1.29132 0
M  V30 23613 C 2328.29 0.023574 1.96186 0
M  V30 23614 O 2327.42 -0.878409 1.9777 0
M  V30 23615 C 2328.01 2.44221 2.34822 0
M  V30 23616 C 2326.57 2.41912 2.88367 0
M  V30 23617 C 2325.72 2.24916 1.62198 0
M  V30 23618 H 2328.67 1.50353 0.507917 0
M  V30 23619 H 2328.69 2.12332 3.15746 0
M  V30 23620 H 2328.2 3.40631 1.8599 0
M  V30 23621 H 2326.3 1.4921 3.41419 0
M  V30 23622 H 2326.42 3.37627 3.39919 0
M  V30 23623 H 2324.78 1.72495 1.87397 0
M  V30 23624 H 2325.56 3.23328 1.15386 0
M  V30 23625 N 2328.01 -0.94462 1.26153 0
M  V30 23626 C 2329.42 -1.21752 1.03192 0
M  V30 23627 C 2329.62 -2.00004 -0.245077 0
M  V30 23628 O 2328.68 -2.33738 -0.955135 0
M  V30 23629 C 2329.99 -1.98215 2.26123 0
M  V30 23630 C 2331.54 -2.1122 2.30988 0
M  V30 23631 C 2332.02 -2.91083 3.53602 0
M  V30 23632 N 2333.51 -2.98658 3.54059 0
M  V30 23633 C 2334.24 -3.60873 4.45599 0
M  V30 23634 N 2333.74 -4.24617 5.47424 0
M  V30 23635 N 2335.53 -3.58112 4.33258 0
M  V30 23636 H 2327.68 -0.4214 2.08178 0
M  V30 23637 H 2329.94 -0.248953 0.914728 0
M  V30 23638 H 2329.65 -1.48122 3.18987 0
M  V30 23639 H 2329.52 -2.98891 2.30095 0
M  V30 23640 H 2331.91 -2.60505 1.3864 0
M  V30 23641 H 2331.99 -1.09817 2.31028 0
M  V30 23642 H 2331.64 -2.42485 4.46277 0
M  V30 23643 H 2331.57 -3.92735 3.50809 0
M  V30 23644 H 2334.06 -2.53338 2.80408 0
M  V30 23645 H 2334.37 -4.69976 6.13467 0
M  V30 23646 H 2332.72 -4.23214 5.51285 0
M  V30 23647 H 2335.91 -3.07504 3.52929 0
M  V30 23648 H 2336.08 -4.0631 5.04793 0
M  V30 23649 N 2329.49 -1.07901 -1.1487 0
M  V30 23650 C 2330.9 -0.827392 -1.67365 0
M  V30 23651 C 2331.25 0.64666 -1.85237 0
M  V30 23652 O 2330.37 1.50001 -1.55976 0
M  V30 23653 C 2330.97 -1.49537 -3.04013 0
M  V30 23654 C 2329.53 -1.29112 -3.53563 0
M  V30 23655 C 2328.67 -1.56147 -2.29158 0
M  V30 23656 H 2331.62 -1.2403 -0.990061 0
M  V30 23657 H 2331.65 -0.919708 -3.69218 0
M  V30 23658 H 2331.16 -2.56819 -2.90974 0
M  V30 23659 H 2329.26 -0.238778 -3.71834 0
M  V30 23660 H 2329.37 -2.01519 -4.34657 0
M  V30 23661 H 2327.74 -0.982758 -2.34976 0
M  V30 23662 H 2328.52 -2.64623 -2.187 0
M  V30 23663 N 2330.96 1.31811 -0.863929 0
M  V30 23664 C 2332.24 1.91616 -0.392784 0
M  V30 23665 C 2332.62 1.78652 1.12458 0
M  V30 23666 O 2331.97 1.1904 1.95043 0
M  V30 23667 C 2332.18 3.38048 -0.867445 0
M  V30 23668 C 2333.53 4.15167 -0.890039 0
M  V30 23669 O 2334.55 3.46805 -0.812696 0
M  V30 23670 O 2333.41 5.37256 -1.00089 0
M  V30 23671 H 2330.5 0.818771 -0.116372 0
M  V30 23672 H 2333.05 1.40519 -0.951443 0
M  V30 23673 H 2331.82 3.4147 -1.91087 0
M  V30 23674 H 2331.44 3.96565 -0.286757 0
M  V30 23675 N 2332.44 0.62277 1.44773 0
M  V30 23676 C 2333.86 0.287679 1.56986 0
M  V30 23677 C 2334.06 -1.20942 1.61169 0
M  V30 23678 O 2333.11 -1.99312 1.55019 0
M  V30 23679 C 2334.43 0.972238 2.84549 0
M  V30 23680 C 2335.97 0.949588 2.98248 0
M  V30 23681 C 2336.45 1.61445 4.28602 0
M  V30 23682 N 2337.94 1.58065 4.35396 0
M  V30 23683 C 2338.68 2.0641 5.3496 0
M  V30 23684 N 2338.17 2.62908 6.40977 0
M  V30 23685 N 2339.96 1.97088 5.26415 0
M  V30 23686 H 2332.12 1.59465 1.40302 0
M  V30 23687 H 2334.38 0.66889 0.671782 0
M  V30 23688 H 2334.08 2.02698 2.87413 0
M  V30 23689 H 2333.96 0.504837 3.73806 0
M  V30 23690 H 2336.35 -0.0966549 2.94942 0
M  V30 23691 H 2336.43 1.4554 2.10361 0
M  V30 23692 H 2336.07 2.6601 4.32667 0
M  V30 23693 H 2336 1.08354 5.15332 0
M  V30 23694 H 2338.49 1.16807 3.59395 0
M  V30 23695 H 2338.8 2.97552 7.1322 0
M  V30 23696 H 2337.15 2.66955 6.41685 0
M  V30 23697 H 2340.34 1.52677 4.42501 0
M  V30 23698 H 2340.51 2.35076 6.03857 0
M  V30 23699 N 2333.92 -1.53367 0.362817 0
M  V30 23700 C 2334.85 -2.28577 -0.476936 0
M  V30 23701 C 2335.83 -1.30896 -1.08629 0
M  V30 23702 O 2337.02 -1.59763 -1.10406 0
M  V30 23703 C 2334.15 -3.07296 -1.61823 0
M  V30 23704 C 2333.1 -4.12642 -1.13626 0
M  V30 23705 C 2332.43 -4.79427 -2.36757 0
M  V30 23706 C 2333.73 -5.21824 -0.222969 0
M  V30 23707 H 2335.42 -2.99021 0.150526 0
M  V30 23708 H 2332.97 -1.43811 0.0738356 0
M  V30 23709 H 2334.92 -3.58657 -2.21231 0
M  V30 23710 H 2333.64 -2.34537 -2.27288 0
M  V30 23711 H 2332.3 -3.62222 -0.564881 0
M  V30 23712 H 2331.95 -4.03243 -3.00673 0
M  V30 23713 H 2331.65 -5.50612 -2.05182 0
M  V30 23714 H 2333.17 -5.33581 -2.96856 0
M  V30 23715 H 2334.59 -5.68704 -0.724445 0
M  V30 23716 H 2332.98 -6.001 0.00178349 0
M  V30 23717 H 2334.05 -4.79287 0.735638 0
M  V30 23718 N 2335.4 -0.091913 -1.57332 0
M  V30 23719 C 2336.35 0.878723 -2.10386 0
M  V30 23720 C 2337.33 1.24589 -1.01816 0
M  V30 23721 O 2338.52 1.2215 -1.28095 0
M  V30 23722 C 2335.65 2.13896 -2.68521 0
M  V30 23723 C 2334.74 1.79737 -3.84129 0
M  V30 23724 N 2335.13 1.16122 -4.9229 0
M  V30 23725 C 2333.43 2.09366 -3.93804 0
M  V30 23726 C 2334.13 1.00503 -5.72952 0
M  V30 23727 N 2333.11 1.52131 -5.21878 0
M  V30 23728 H 2336.91 0.382879 -2.91395 0
M  V30 23729 H 2334.42 0.111394 -1.62018 0
M  V30 23730 H 2336.42 2.84372 -3.04857 0
M  V30 23731 H 2335.08 2.64049 -1.88966 0
M  V30 23732 H 2336.09 0.828414 -5.11232 0
M  V30 23733 H 2332.77 2.61756 -3.25254 0
M  V30 23734 H 2334.16 0.507784 -6.69978 0
M  V30 23735 N 2336.88 1.56548 0.181765 0
M  V30 23736 C 2337.83 1.92004 1.22957 0
M  V30 23737 C 2338.81 0.78717 1.4033 0
M  V30 23738 O 2340 1.05022 1.42476 0
M  V30 23739 C 2337.13 2.2745 2.5714 0
M  V30 23740 C 2336.22 3.47226 2.43506 0
M  V30 23741 N 2336.61 4.64764 1.99569 0
M  V30 23742 C 2334.91 3.51627 2.74362 0
M  V30 23743 C 2335.61 5.46912 1.98146 0
M  V30 23744 N 2334.58 4.87674 2.40156 0
M  V30 23745 H 2338.39 2.80372 0.881413 0
M  V30 23746 H 2335.9 1.57645 0.390114 0
M  V30 23747 H 2337.9 2.51041 3.32842 0
M  V30 23748 H 2336.56 1.40416 2.92769 0
M  V30 23749 H 2337.57 4.8918 1.70069 0
M  V30 23750 H 2334.24 2.75044 3.14097 0
M  V30 23751 H 2335.63 6.5108 1.65964 0
M  V30 23752 N 2338.35 -0.449957 1.5104 0
M  V30 23753 C 2339.6 -1.19805 1.62761 0
M  V30 23754 C 2339.92 -1.92013 0.340015 0
M  V30 23755 O 2339.19 -1.85027 -0.643573 0
M  V30 23756 H 2337.77 -0.445226 0.599819 0
M  V30 23757 H 2340.44 -0.517105 1.87915 0
M  V30 23758 H 2339.53 -1.93451 2.44915 0
M  V30 23759 N 2339.83 -1.40974 -0.704569 0
M  V30 23760 C 2341.25 -1.23245 -1.01404 0
M  V30 23761 C 2341.45 -0.115434 -2.01169 0
M  V30 23762 O 2340.5 0.523104 -2.47022 0
M  V30 23763 C 2341.82 -2.57839 -1.54724 0
M  V30 23764 C 2343.37 -2.64945 -1.66653 0
M  V30 23765 C 2343.84 -3.99834 -2.23376 0
M  V30 23766 N 2345.33 -4.01633 -2.30749 0
M  V30 23767 C 2346.07 -5.02799 -2.75646 0
M  V30 23768 N 2345.56 -6.14357 -3.20214 0
M  V30 23769 N 2347.36 -4.90164 -2.75129 0
M  V30 23770 H 2339.51 -2.12355 -0.0434912 0
M  V30 23771 H 2341.77 -0.944457 -0.0818785 0
M  V30 23772 H 2341.48 -3.40285 -0.888772 0
M  V30 23773 H 2341.35 -2.79698 -2.53079 0
M  V30 23774 H 2343.74 -1.82864 -2.31614 0
M  V30 23775 H 2343.82 -2.46906 -0.668674 0
M  V30 23776 H 2343.46 -4.82359 -1.59034 0
M  V30 23777 H 2343.39 -4.15209 -3.23897 0
M  V30 23778 H 2345.88 -3.21082 -1.99285 0
M  V30 23779 H 2346.2 -6.8743 -3.53072 0
M  V30 23780 H 2344.54 -6.17907 -3.18145 0
M  V30 23781 H 2347.73 -4.02099 -2.39654 0
M  V30 23782 H 2347.9 -5.69146 -3.09802 0
M  V30 23783 N 2341.31 0.937917 -1.26653 0
M  V30 23784 C 2342.56 1.68698 -1.12556 0
M  V30 23785 C 2342.89 1.9138 0.329748 0
M  V30 23786 O 2342.16 1.49682 1.242 0
M  V30 23787 C 2342.45 3.05978 -1.89867 0
M  V30 23788 C 2342.3 2.90601 -3.43323 0
M  V30 23789 C 2343.62 4.06147 -1.69506 0
M  V30 23790 H 2340.74 0.612249 -0.410268 0
M  V30 23791 H 2343.38 1.0891 -1.55687 0
M  V30 23792 H 2341.53 3.57014 -1.5321 0
M  V30 23793 H 2343.2 2.46762 -3.89752 0
M  V30 23794 H 2341.45 2.26158 -3.70183 0
M  V30 23795 H 2342.12 3.87983 -3.92649 0
M  V30 23796 H 2344.59 3.64085 -2.01449 0
M  V30 23797 H 2343.47 5.0021 -2.2601 0
M  V30 23798 H 2343.73 4.37437 -0.640442 0
M  V30 23799 N 2342.79 1.08509 1.14296 0
M  V30 23800 C 2343.74 0.685607 2.17448 0
M  V30 23801 C 2344.72 -0.295288 1.58167 0
M  V30 23802 O 2345.91 -0.107141 1.76675 0
M  V30 23803 C 2343.04 0.0975921 3.43161 0
M  V30 23804 C 2342.13 1.10434 4.09469 0
M  V30 23805 N 2342.52 2.28813 4.51085 0
M  V30 23806 C 2340.82 0.940335 4.35974 0
M  V30 23807 C 2341.52 2.92779 5.02649 0
M  V30 23808 N 2340.5 2.20383 4.96923 0
M  V30 23809 H 2344.3 1.58705 2.47366 0
M  V30 23810 H 2341.81 0.959959 1.30991 0
M  V30 23811 H 2343.81 -0.206567 4.16388 0
M  V30 23812 H 2342.47 -0.798816 3.14721 0
M  V30 23813 H 2343.48 2.66463 4.44092 0
M  V30 23814 H 2340.16 0.0978175 4.17385 0
M  V30 23815 H 2341.55 3.93362 5.44716 0
M  V30 23816 N 2344.27 -1.31351 0.870907 0
M  V30 23817 C 2345.51 -1.96964 0.483022 0
M  V30 23818 C 2345.85 -1.68674 -0.962433 0
M  V30 23819 O 2345.12 -0.983739 -1.67788 0
M  V30 23820 C 2345.4 -3.52376 0.741814 0
M  V30 23821 C 2345.26 -3.90236 2.23687 0
M  V30 23822 C 2346.58 -4.39604 0.208915 0
M  V30 23823 H 2343.69 -0.715438 0.176967 0
M  V30 23824 H 2346.34 -1.55462 1.09232 0
M  V30 23825 H 2344.49 -3.87858 0.223217 0
M  V30 23826 H 2346.16 -3.64851 2.82279 0
M  V30 23827 H 2344.4 -3.38809 2.70907 0
M  V30 23828 H 2345.07 -4.986 2.36859 0
M  V30 23829 H 2347.55 -4.10951 0.652601 0
M  V30 23830 H 2346.42 -5.47295 0.419432 0
M  V30 23831 H 2346.69 -4.33065 -0.889199 0
M  V30 23832 N 2345.74 -0.630439 -1.44441 0
M  V30 23833 C 2346.99 -0.134852 -2.02351 0
M  V30 23834 C 2347.32 1.23983 -1.49472 0
M  V30 23835 O 2346.6 1.82281 -0.678507 0
M  V30 23836 C 2346.88 -0.12077 -3.59897 0
M  V30 23837 C 2346.73 -1.52774 -4.2306 0
M  V30 23838 C 2348.05 0.55505 -4.36586 0
M  V30 23839 H 2345.17 -0.0504775 -0.735269 0
M  V30 23840 H 2347.81 -0.806781 -1.7202 0
M  V30 23841 H 2345.96 0.451409 -3.85869 0
M  V30 23842 H 2347.64 -2.14876 -4.08199 0
M  V30 23843 H 2345.88 -2.08182 -3.80582 0
M  V30 23844 H 2346.55 -1.46993 -5.32069 0
M  V30 23845 H 2349.03 0.0684697 -4.16044 0
M  V30 23846 H 2347.9 0.534089 -5.46295 0
M  V30 23847 H 2348.16 1.62528 -4.11141 0
M  V30 23848 N 2347.22 1.53172 -0.370945 0
M  V30 23849 C 2348.13 2.29621 0.480783 0
M  V30 23850 C 2349.15 1.358 1.08786 0
M  V30 23851 O 2350.32 1.6886 1.09765 0
M  V30 23852 C 2347.39 3.07457 1.60222 0
M  V30 23853 C 2346.45 4.16955 1.02212 0
M  V30 23854 C 2345.68 4.9107 2.09012 0
M  V30 23855 O 2345.91 4.65097 3.30214 0
M  V30 23856 O 2344.84 5.7687 1.71768 0
M  V30 23857 H 2348.67 3.0337 -0.141474 0
M  V30 23858 H 2346.25 1.48787 -0.135172 0
M  V30 23859 H 2348.13 3.56045 2.2541 0
M  V30 23860 H 2346.81 2.36539 2.20978 0
M  V30 23861 H 2345.72 3.72606 0.333998 0
M  V30 23862 H 2347.05 4.90055 0.459044 0
M  V30 23863 N 2348.7 0.100255 1.57281 0
M  V30 23864 C 2349.95 -0.561123 1.94154 0
M  V30 23865 C 2350.27 -1.684 0.983186 0
M  V30 23866 O 2349.54 -1.95867 0.0361476 0
M  V30 23867 H 2348.12 -0.210271 0.716795 0
M  V30 23868 H 2350.78 0.164799 1.94202 0
M  V30 23869 H 2349.88 -0.967956 2.9671 0
M  V30 23870 N 2350.18 -1.56643 -0.17346 0
M  V30 23871 C 2351.13 -1.9716 -1.23413 0
M  V30 23872 C 2352.12 -0.860039 -1.45944 0
M  V30 23873 O 2353.33 -1.04514 -1.46549 0
M  V30 23874 H 2349.7 -0.627247 -0.414807 0
M  V30 23875 H 2351.67 -2.85572 -0.865531 0
M  V30 23876 C 2350.42 -2.34581 -2.56646 0
M  V30 23877 H 2349.75 -3.19651 -2.40131 0
M  V30 23878 H 2351.19 -2.66776 -3.29555 0
M  V30 23879 C 2349.64 -1.18842 -3.15243 0
M  V30 23880 O 2350.17 -0.474939 -3.98882 0
M  V30 23881 N 2348.38 -0.959545 -2.74301 0
M  V30 23882 H 2347.93 -1.54149 -2.06387 0
M  V30 23883 H 2347.89 -0.186987 -3.13843 0
M  V30 23884 N 2351.66 0.44194 -1.51277 0
M  V30 23885 C 2352.9 1.19176 -1.63717 0
M  V30 23886 C 2353.23 1.91303 -0.351208 0
M  V30 23887 O 2352.49 1.84073 0.664492 0
M  V30 23888 C 2352.79 2.23681 -2.7875 0
M  V30 23889 C 2352.45 1.686 -4.18192 0
M  V30 23890 C 2351.11 1.533 -4.56128 0
M  V30 23891 C 2353.47 1.28053 -5.05225 0
M  V30 23892 C 2350.79 0.959215 -5.78806 0
M  V30 23893 C 2353.15 0.721052 -6.28477 0
M  V30 23894 C 2351.81 0.554923 -6.65189 0
M  V30 23895 H 2351.08 0.436095 -0.599084 0
M  V30 23896 H 2353.73 0.483477 -1.85296 0
M  V30 23897 H 2352.03 3.0053 -2.51374 0
M  V30 23898 H 2353.73 2.8151 -2.85575 0
M  V30 23899 H 2350.32 1.81483 -3.88281 0
M  V30 23900 H 2354.5 1.38695 -4.76526 0
M  V30 23901 H 2349.76 0.818223 -6.059 0
M  V30 23902 H 2353.93 0.398336 -6.9526 0
M  V30 23903 H 2351.56 0.108177 -7.60123 0
M  V30 23904 N 2353.14 1.41345 0.697083 0
M  V30 23905 C 2354.55 1.23781 1.00749 0
M  V30 23906 C 2354.75 0.126101 2.01105 0
M  V30 23907 O 2353.81 -0.509996 2.47296 0
M  V30 23908 C 2355.12 2.58656 1.53354 0
M  V30 23909 C 2356.67 2.65825 1.65246 0
M  V30 23910 C 2357.14 4.01013 2.21253 0
M  V30 23911 N 2358.63 4.02851 2.28615 0
M  V30 23912 C 2359.37 5.04254 2.72975 0
M  V30 23913 N 2358.87 6.16047 3.16951 0
M  V30 23914 N 2360.66 4.91616 2.72526 0
M  V30 23915 H 2352.81 2.12376 0.0322288 0
M  V30 23916 H 2355.07 0.944878 0.0768687 0
M  V30 23917 H 2354.78 3.40751 0.870713 0
M  V30 23918 H 2354.65 2.81036 2.51592 0
M  V30 23919 H 2357.04 1.8409 2.3064 0
M  V30 23920 H 2357.12 2.47257 0.65557 0
M  V30 23921 H 2356.76 4.83196 1.56474 0
M  V30 23922 H 2356.69 4.16921 3.2169 0
M  V30 23923 H 2359.19 3.22135 1.9758 0
M  V30 23924 H 2359.5 6.89293 3.49421 0
M  V30 23925 H 2357.84 6.19585 3.14864 0
M  V30 23926 H 2361.03 4.03365 2.37518 0
M  V30 23927 H 2361.21 5.70781 3.06779 0
M  V30 23928 N 2354.61 -0.931187 1.27148 0
M  V30 23929 C 2355.56 -2.0174 1.06231 0
M  V30 23930 C 2356.55 -1.60898 -0.00856237 0
M  V30 23931 O 2357.74 -1.75755 0.209568 0
M  V30 23932 C 2354.87 -3.35923 0.707846 0
M  V30 23933 C 2353.95 -3.8322 1.81668 0
M  V30 23934 N 2354.35 -4.03063 3.05571 0
M  V30 23935 C 2352.64 -4.12224 1.70256 0
M  V30 23936 C 2353.34 -4.42396 3.77704 0
M  V30 23937 N 2352.32 -4.49669 3.05448 0
M  V30 23938 H 2356.12 -2.15108 2.00264 0
M  V30 23939 H 2353.64 -1.11777 1.17812 0
M  V30 23940 H 2355.63 -4.134 0.539115 0
M  V30 23941 H 2354.29 -3.2392 -0.224907 0
M  V30 23942 H 2355.3 -3.8947 3.4137 0
M  V30 23943 H 2351.98 -4.08954 0.840401 0
M  V30 23944 H 2353.37 -4.65857 4.84176 0
M  V30 23945 N 2356.09 -1.09114 -1.13719 0
M  V30 23946 C 2357.05 -0.73128 -2.17221 0
M  V30 23947 C 2358.05 0.237538 -1.59036 0
M  V30 23948 O 2359.24 0.0161398 -1.74193 0
M  V30 23949 C 2356.38 -0.0809042 -3.40804 0
M  V30 23950 H 2357.57 -1.64787 -2.5057 0
M  V30 23951 H 2355.12 -0.889919 -1.28492 0
M  V30 23952 H 2355.86 0.847072 -3.13042 0
M  V30 23953 H 2355.64 -0.777963 -3.84305 0
M  V30 23954 H 2357.13 0.155584 -4.1731 0
M  V30 23955 N 2357.57 1.30887 -0.877861 0
M  V30 23956 C 2358.79 2.01116 -0.506665 0
M  V30 23957 C 2359.22 1.65414 0.895535 0
M  V30 23958 O 2358.58 0.86695 1.59228 0
M  V30 23959 C 2358.63 3.54125 -0.680285 0
M  V30 23960 O 2357.73 4.11469 0.276961 0
M  V30 23961 H 2357.07 0.632996 -0.200529 0
M  V30 23962 H 2359.6 1.669 -1.18345 0
M  V30 23963 H 2359.61 4.03906 -0.576571 0
M  V30 23964 H 2358.29 3.79449 -1.70267 0
M  V30 23965 H 2356.86 3.72682 0.12754 0
M  V30 23966 N 2359.05 0.638091 1.44105 0
M  V30 23967 C 2360.27 0.150952 2.0685 0
M  V30 23968 C 2360.7 -1.1683 1.47419 0
M  V30 23969 O 2360.06 -1.7183 0.578295 0
M  V30 23970 C 2360.1 0.0571434 3.60555 0
M  V30 23971 O 2359.21 -0.984902 4.00467 0
M  V30 23972 H 2358.55 0.0879514 0.658149 0
M  V30 23973 H 2361.08 0.87674 1.84863 0
M  V30 23974 H 2361.09 -0.13116 4.07789 0
M  V30 23975 H 2359.76 1.02028 4.03191 0
M  V30 23976 H 2358.34 -0.770608 3.64851 0
M  V30 23977 N 2360.53 -1.52973 0.379063 0
M  V30 23978 C 2361.94 -1.59574 0.0285728 0
M  V30 23979 C 2362.14 -1.39357 -1.4554 0
M  V30 23980 O 2361.2 -1.20545 -2.21867 0
M  V30 23981 C 2362.51 -2.96571 0.496587 0
M  V30 23982 C 2364.06 -3.0972 0.451963 0
M  V30 23983 C 2364.53 -4.4915 0.896003 0
M  V30 23984 N 2366.02 -4.55304 0.851602 0
M  V30 23985 C 2366.76 -5.61405 1.16671 0
M  V30 23986 N 2366.26 -6.75197 1.55178 0
M  V30 23987 N 2368.05 -5.51457 1.08863 0
M  V30 23988 H 2360.2 -1.64365 1.34528 0
M  V30 23989 H 2362.46 -0.77161 0.550747 0
M  V30 23990 H 2362.17 -3.16549 1.53264 0
M  V30 23991 H 2362.04 -3.7704 -0.109736 0
M  V30 23992 H 2364.43 -2.89444 -0.574978 0
M  V30 23993 H 2364.51 -2.31228 1.09396 0
M  V30 23994 H 2364.15 -4.70165 1.92113 0
M  V30 23995 H 2364.08 -5.26093 0.231123 0
M  V30 23996 H 2366.58 -3.73605 0.568103 0
M  V30 23997 H 2366.89 -7.52113 1.77613 0
M  V30 23998 H 2365.23 -6.76555 1.59056 0
M  V30 23999 H 2368.42 -4.61439 0.786884 0
M  V30 24000 H 2368.6 -6.34046 1.33753 0
M  V30 24001 N 2362 -0.108595 -1.57225 0
M  V30 24002 C 2362.97 0.831044 -2.13603 0
M  V30 24003 C 2363.97 1.20171 -1.06843 0
M  V30 24004 O 2365.16 1.12893 -1.32668 0
M  V30 24005 C 2362.29 2.12239 -2.66772 0
M  V30 24006 H 2363.48 0.341265 -2.97952 0
M  V30 24007 H 2361.03 0.140542 -1.55667 0
M  V30 24008 H 2361.77 2.65671 -1.85982 0
M  V30 24009 H 2361.55 1.86619 -3.44842 0
M  V30 24010 H 2363.04 2.79429 -3.10337 0
M  V30 24011 N 2363.48 1.56732 0.16515 0
M  V30 24012 C 2364.89 1.71963 0.727016 0
M  V30 24013 C 2365.24 0.72011 1.82507 0
M  V30 24014 O 2364.37 -0.117204 2.16082 0
M  V30 24015 C 2364.96 3.11793 1.32554 0
M  V30 24016 C 2363.52 3.28688 1.83416 0
M  V30 24017 C 2362.67 2.6791 0.71552 0
M  V30 24018 H 2365.62 1.58585 -0.0603175 0
M  V30 24019 H 2365.64 3.10786 2.19528 0
M  V30 24020 H 2365.15 3.84517 0.526127 0
M  V30 24021 H 2363.25 2.6093 2.65981 0
M  V30 24022 H 2363.37 4.36482 1.97536 0
M  V30 24023 H 2361.73 2.27886 1.13754 0
M  V30 24024 H 2362.51 3.43224 -0.0721439 0
M  V30 24025 N 2364.96 -0.433911 1.51509 0
M  V30 24026 C 2366.21 -1.18481 1.64591 0
M  V30 24027 C 2366.54 -1.90783 0.362699 0
M  V30 24028 O 2365.81 -1.83743 -0.637859 0
M  V30 24029 C 2366.1 -2.19908 2.85153 0
M  V30 24030 C 2365.95 -1.51667 4.23459 0
M  V30 24031 C 2367.27 -3.20853 3.01233 0
M  V30 24032 H 2364.39 -0.429378 0.599002 0
M  V30 24033 H 2367.03 -0.473615 1.84002 0
M  V30 24034 H 2365.18 -2.80561 2.68733 0
M  V30 24035 H 2366.85 -0.943243 4.51554 0
M  V30 24036 H 2365.1 -0.81896 4.25999 0
M  V30 24037 H 2365.77 -2.25551 5.03816 0
M  V30 24038 H 2368.24 -2.70257 3.16386 0
M  V30 24039 H 2367.12 -3.89111 3.87148 0
M  V30 24040 H 2367.38 -3.87156 2.13454 0
M  V30 24041 N 2366.44 -1.41713 -0.689577 0
M  V30 24042 C 2367.66 -1.44962 -1.48327 0
M  V30 24043 C 2368.09 -0.0581613 -1.8801 0
M  V30 24044 O 2367.45 0.940008 -1.55028 0
M  V30 24045 C 2367.49 -2.36939 -2.71831 0
M  V30 24046 O 2366.6 -1.83057 -3.69546 0
M  V30 24047 H 2365.94 -0.491742 -0.446191 0
M  V30 24048 H 2368.47 -1.8624 -0.847094 0
M  V30 24049 H 2368.48 -2.53018 -3.20071 0
M  V30 24050 H 2367.15 -3.38039 -2.42285 0
M  V30 24051 H 2365.73 -1.76458 -3.28507 0
M  V30 24052 N 2367.92 0.924431 -1.2764 0
M  V30 24053 C 2369.33 1.20095 -1.05116 0
M  V30 24054 C 2369.53 2.00369 0.213227 0
M  V30 24055 O 2368.59 2.35228 0.917828 0
M  V30 24056 C 2369.9 1.94592 -2.29247 0
M  V30 24057 C 2371.45 2.07518 -2.34319 0
M  V30 24058 C 2371.92 2.85421 -3.58188 0
M  V30 24059 N 2373.42 2.92988 -3.58765 0
M  V30 24060 C 2374.15 3.53738 -4.51284 0
M  V30 24061 N 2373.65 4.15854 -5.5411 0
M  V30 24062 N 2375.44 3.51173 -4.389 0
M  V30 24063 H 2367.59 0.388227 -2.08822 0
M  V30 24064 H 2369.85 0.234369 -0.918572 0
M  V30 24065 H 2369.56 1.43029 -3.21303 0
M  V30 24066 H 2369.43 2.95193 -2.34821 0
M  V30 24067 H 2371.82 2.58267 -1.42767 0
M  V30 24068 H 2371.9 1.06127 -2.32746 0
M  V30 24069 H 2371.55 2.35355 -4.50078 0
M  V30 24070 H 2371.48 3.87104 -3.57013 0
M  V30 24071 H 2373.97 2.48845 -2.84403 0
M  V30 24072 H 2374.28 4.60157 -6.20867 0
M  V30 24073 H 2372.62 4.1439 -5.57948 0
M  V30 24074 H 2375.82 3.0185 -3.57777 0
M  V30 24075 H 2375.99 3.98228 -5.11193 0
M  V30 24076 N 2369.39 1.09715 1.13139 0
M  V30 24077 C 2370.3 0.751406 2.22241 0
M  V30 24078 C 2371.32 -0.247907 1.72225 0
M  V30 24079 O 2372.5 -0.0885109 2.01205 0
M  V30 24080 C 2369.56 0.180334 3.46231 0
M  V30 24081 C 2368.62 1.23597 4.11123 0
M  V30 24082 C 2367.86 0.692059 5.29194 0
M  V30 24083 O 2368.08 -0.48404 5.68343 0
M  V30 24084 O 2367.01 1.44849 5.84211 0
M  V30 24085 H 2370.84 1.6619 2.54194 0
M  V30 24086 H 2368.42 0.871757 1.21329 0
M  V30 24087 H 2370.31 -0.134665 4.21185 0
M  V30 24088 H 2368.98 -0.70313 3.15971 0
M  V30 24089 H 2367.89 1.60371 3.37982 0
M  V30 24090 H 2369.22 2.09219 4.4552 0
M  V30 24091 N 2370.87 -1.30419 0.88479 0
M  V30 24092 C 2371.78 -2.31892 0.355439 0
M  V30 24093 C 2372.8 -1.65336 -0.542232 0
M  V30 24094 O 2373.97 -1.96637 -0.435397 0
M  V30 24095 C 2371.04 -3.44127 -0.421601 0
M  V30 24096 C 2370.1 -4.2631 0.505801 0
M  V30 24097 C 2369.33 -5.33186 -0.234249 0
M  V30 24098 O 2369.56 -5.51389 -1.46035 0
M  V30 24099 O 2368.49 -6.00464 0.415548 0
M  V30 24100 H 2372.32 -2.7912 1.1969 0
M  V30 24101 H 2369.9 -1.34586 0.64862 0
M  V30 24102 H 2371.78 -4.12498 -0.861568 0
M  V30 24103 H 2370.46 -2.99034 -1.23936 0
M  V30 24104 H 2369.37 -3.60637 0.994577 0
M  V30 24105 H 2370.7 -4.75006 1.28957 0
M  V30 24106 N 2372.35 -0.645724 -1.43764 0
M  V30 24107 C 2373.28 0.0370066 -2.33471 0
M  V30 24108 C 2374.26 0.819753 -1.49044 0
M  V30 24109 O 2375.45 0.782727 -1.77727 0
M  V30 24110 C 2372.58 1.00924 -3.32313 0
M  V30 24111 C 2371.53 0.337126 -4.2667 0
M  V30 24112 C 2370.86 1.42028 -5.15492 0
M  V30 24113 C 2372.16 -0.765797 -5.16655 0
M  V30 24114 H 2373.85 -0.71212 -2.90808 0
M  V30 24115 H 2371.4 -0.343901 -1.39833 0
M  V30 24116 H 2373.35 1.49571 -3.93962 0
M  V30 24117 H 2372.07 1.78943 -2.73216 0
M  V30 24118 H 2370.73 -0.128836 -3.66374 0
M  V30 24119 H 2370.38 2.19172 -4.52739 0
M  V30 24120 H 2370.08 0.975864 -5.7944 0
M  V30 24121 H 2371.6 1.90827 -5.80015 0
M  V30 24122 H 2373.02 -0.361802 -5.72157 0
M  V30 24123 H 2371.42 -1.13423 -5.89284 0
M  V30 24124 H 2372.49 -1.62691 -4.56793 0
M  V30 24125 N 2373.83 1.5277 -0.38717 0
M  V30 24126 C 2374.76 2.22809 0.493084 0
M  V30 24127 C 2375.74 1.228 1.06578 0
M  V30 24128 O 2376.92 1.51779 1.11783 0
M  V30 24129 C 2374.05 2.93965 1.68232 0
M  V30 24130 C 2373.1 4.08225 1.23508 0
M  V30 24131 S 2373.93 5.35055 0.218386 0
M  V30 24132 C 2375.09 6.09731 1.41346 0
M  V30 24133 H 2375.32 2.97126 -0.101678 0
M  V30 24134 H 2372.85 1.53446 -0.17135 0
M  V30 24135 H 2374.81 3.35571 2.36437 0
M  V30 24136 H 2373.47 2.19332 2.24838 0
M  V30 24137 H 2372.66 4.57106 2.12296 0
M  V30 24138 H 2372.27 3.68622 0.631979 0
M  V30 24139 H 2374.56 6.35774 2.3409 0
M  V30 24140 H 2375.5 7.01485 0.965613 0
M  V30 24141 H 2375.91 5.40476 1.6293 0
M  V30 24142 N 2375.31 0.116931 1.57166 0
M  V30 24143 C 2376.53 -0.549348 1.99474 0
M  V30 24144 C 2376.95 -1.60356 0.996569 0
M  V30 24145 O 2376.31 -1.82497 -0.0108411 0
M  V30 24146 C 2376.36 -1.17735 3.4179 0
M  V30 24147 O 2376.08 -0.165285 4.37788 0
M  V30 24148 C 2377.58 -1.92715 3.99219 0
M  V30 24149 H 2374.8 -0.145605 0.655012 0
M  V30 24150 H 2377.34 0.20266 2.03493 0
M  V30 24151 H 2375.5 -1.88016 3.38717 0
M  V30 24152 H 2375.91 -0.621312 5.20807 0
M  V30 24153 H 2377.39 -2.31986 5.00886 0
M  V30 24154 H 2377.86 -2.80155 3.38245 0
M  V30 24155 H 2378.47 -1.27202 4.05832 0
M  V30 24156 N 2376.78 -1.56818 -0.156836 0
M  V30 24157 C 2378.03 -1.83077 -0.872383 0
M  V30 24158 C 2378.36 -0.697033 -1.8126 0
M  V30 24159 O 2377.64 0.300046 -1.92172 0
M  V30 24160 C 2377.92 -3.19792 -1.65545 0
M  V30 24161 C 2377.77 -4.43715 -0.737389 0
M  V30 24162 C 2379.09 -3.53611 -2.62006 0
M  V30 24163 H 2376.21 -0.665958 -0.315704 0
M  V30 24164 H 2378.85 -1.89498 -0.137971 0
M  V30 24165 H 2377 -3.14449 -2.28154 0
M  V30 24166 H 2378.68 -4.61136 -0.123062 0
M  V30 24167 H 2376.92 -4.33775 -0.0463305 0
M  V30 24168 H 2377.59 -5.35957 -1.32113 0
M  V30 24169 H 2380.07 -3.59501 -2.09519 0
M  V30 24170 H 2378.94 -4.50319 -3.13853 0
M  V30 24171 H 2379.2 -2.79059 -3.42897 0
M  V30 24172 N 2378.26 0.425871 -1.51737 0
M  V30 24173 C 2379.19 1.52491 -1.7683 0
M  V30 24174 C 2380.17 1.58455 -0.618551 0
M  V30 24175 O 2381.36 1.73999 -0.862447 0
M  V30 24176 C 2378.49 2.90471 -1.90379 0
M  V30 24177 C 2377.44 2.99363 -3.05885 0
M  V30 24178 C 2376.77 4.39435 -3.04632 0
M  V30 24179 C 2378.07 2.72387 -4.45649 0
M  V30 24180 H 2379.76 1.31743 -2.68857 0
M  V30 24181 H 2377.31 0.632339 -1.29373 0
M  V30 24182 H 2379.26 3.67327 -2.06516 0
M  V30 24183 H 2377.99 3.12475 -0.950095 0
M  V30 24184 H 2376.64 2.24949 -2.89471 0
M  V30 24185 H 2376.29 4.58424 -2.07018 0
M  V30 24186 H 2375.99 4.46313 -3.82202 0
M  V30 24187 H 2377.52 5.18249 -3.22878 0
M  V30 24188 H 2378.93 3.38971 -4.62354 0
M  V30 24189 H 2377.33 2.90661 -5.25011 0
M  V30 24190 H 2378.4 1.67921 -4.54896 0
M  V30 24191 N 2379.74 1.42077 0.682052 0
M  V30 24192 C 2380.97 1.45746 1.47556 0
M  V30 24193 C 2381.39 0.0681312 1.87977 0
M  V30 24194 O 2380.75 -0.931773 1.55524 0
M  V30 24195 C 2380.8 2.38378 2.70571 0
M  V30 24196 O 2379.9 1.85014 3.6857 0
M  V30 24197 H 2379.24 0.494101 0.443577 0
M  V30 24198 H 2381.77 1.86687 0.837206 0
M  V30 24199 H 2381.78 2.54712 3.18725 0
M  V30 24200 H 2380.46 3.39319 2.40489 0
M  V30 24201 H 2379.03 1.78198 3.27567 0
M  V30 24202 N 2381.22 -0.917649 1.28129 0
M  V30 24203 C 2382.64 -1.19536 1.05751 0
M  V30 24204 C 2382.84 -2.00479 -0.202598 0
M  V30 24205 O 2381.89 -2.35711 -0.905341 0
M  V30 24206 C 2383.2 -1.93374 2.30276 0
M  V30 24207 C 2384.75 -2.06272 2.35416 0
M  V30 24208 C 2385.23 -2.83517 3.59697 0
M  V30 24209 N 2386.72 -2.91081 3.60314 0
M  V30 24210 C 2387.45 -3.5134 4.53153 0
M  V30 24211 N 2386.95 -4.12909 5.56307 0
M  V30 24212 N 2388.74 -3.48841 4.40757 0
M  V30 24213 H 2380.89 -0.377148 2.09025 0
M  V30 24214 H 2383.16 -0.229494 0.919802 0
M  V30 24215 H 2382.86 -1.41323 3.22057 0
M  V30 24216 H 2382.74 -2.93943 2.36384 0
M  V30 24217 H 2385.12 -2.57506 1.44134 0
M  V30 24218 H 2385.2 -1.04891 2.33305 0
M  V30 24219 H 2384.85 -2.32965 4.5132 0
M  V30 24220 H 2384.78 -3.85205 3.59061 0
M  V30 24221 H 2387.27 -2.47333 2.85718 0
M  V30 24222 H 2387.58 -4.56858 6.23298 0
M  V30 24223 H 2385.93 -4.11425 5.60138 0
M  V30 24224 H 2389.12 -2.99948 3.59373 0
M  V30 24225 H 2389.29 -3.95511 5.13298 0
M  V30 24226 N 2382.7 -1.10314 -1.12555 0
M  V30 24227 C 2383.63 -0.772837 -2.20339 0
M  V30 24228 C 2384.61 0.25362 -1.68199 0
M  V30 24229 O 2385.79 0.119665 -1.93831 0
M  V30 24230 C 2382.92 -0.202504 -3.46709 0
M  V30 24231 C 2381.88 -1.15951 -4.11994 0
M  V30 24232 C 2381.2 -0.450438 -5.32799 0
M  V30 24233 C 2382.5 -2.5056 -4.58276 0
M  V30 24234 H 2384.2 -1.67405 -2.48226 0
M  V30 24235 H 2381.74 -0.806347 -1.19307 0
M  V30 24236 H 2383.7 0.0407012 -4.2138 0
M  V30 24237 H 2382.42 0.733945 -3.18246 0
M  V30 24238 H 2381.08 -1.38814 -3.39302 0
M  V30 24239 H 2380.73 0.490443 -5.00603 0
M  V30 24240 H 2380.43 -1.08862 -5.77428 0
M  V30 24241 H 2381.95 -0.215749 -6.10219 0
M  V30 24242 H 2383.37 -2.31852 -5.24326 0
M  V30 24243 H 2381.76 -3.10251 -5.13677 0
M  V30 24244 H 2382.83 -3.1065 -3.72323 0
M  V30 24245 N 2384.18 1.29948 -0.891694 0
M  V30 24246 C 2385.14 2.26221 -0.368319 0
M  V30 24247 C 2386.14 1.53056 0.492987 0
M  V30 24248 O 2387.33 1.71612 0.299183 0
M  V30 24249 C 2384.46 3.37584 0.47436 0
M  V30 24250 H 2385.65 2.74031 -1.21848 0
M  V30 24251 H 2383.21 1.41253 -0.669132 0
M  V30 24252 H 2383.94 2.95101 1.34484 0
M  V30 24253 H 2383.73 3.9184 -0.142684 0
M  V30 24254 H 2385.22 4.09226 0.832108 0
M  V30 24255 N 2385.65 0.653339 1.4342 0
M  V30 24256 C 2386.93 0.0966925 1.95361 0
M  V30 24257 C 2387.31 -1.38328 1.59463 0
M  V30 24258 O 2386.66 -2.10883 0.879815 0
M  V30 24259 C 2386.87 0.343049 3.4731 0
M  V30 24260 C 2388.22 0.248054 4.23875 0
M  V30 24261 O 2389.24 0.275615 3.55132 0
M  V30 24262 O 2388.1 0.171867 5.4623 0
M  V30 24263 H 2385.19 -0.00954838 0.826945 0
M  V30 24264 H 2387.74 0.726585 1.53359 0
M  V30 24265 H 2386.51 1.36912 3.66566 0
M  V30 24266 H 2386.13 -0.319905 3.96311 0
M  V30 24267 N 2387.13 -1.52563 0.395266 0
M  V30 24268 C 2388.38 -2.01952 -0.185282 0
M  V30 24269 C 2388.71 -1.28097 -1.45961 0
M  V30 24270 O 2387.99 -0.383183 -1.90688 0
M  V30 24271 C 2388.27 -3.57313 -0.447131 0
M  V30 24272 C 2388.12 -4.41832 0.842906 0
M  V30 24273 C 2389.44 -4.2241 -1.23522 0
M  V30 24274 H 2386.56 -0.734051 -0.0658659 0
M  V30 24275 H 2389.2 -1.82574 0.526007 0
M  V30 24276 H 2387.35 -3.73956 -1.05305 0
M  V30 24277 H 2389.02 -4.36928 1.47957 0
M  V30 24278 H 2387.27 -4.08603 1.45693 0
M  V30 24279 H 2387.94 -5.48572 0.614262 0
M  V30 24280 H 2390.41 -4.09782 -0.722373 0
M  V30 24281 H 2389.29 -5.31083 -1.38718 0
M  V30 24282 H 2389.55 -3.8044 -2.25207 0
M  V30 24283 N 2388.61 -0.125265 -1.57101 0
M  V30 24284 C 2390.03 0.231294 -1.57915 0
M  V30 24285 C 2390.23 1.66264 -1.13836 0
M  V30 24286 O 2389.28 2.38516 -0.828623 0
M  V30 24287 C 2390.59 -0.00771775 -3.00699 0
M  V30 24288 C 2392.14 0.0576933 -3.12947 0
M  V30 24289 C 2392.62 -0.153706 -4.57742 0
M  V30 24290 N 2394.11 -0.0998887 -4.63092 0
M  V30 24291 C 2394.84 -0.238274 -5.72905 0
M  V30 24292 N 2394.34 -0.433179 -6.91444 0
M  V30 24293 N 2396.13 -0.177406 -5.6182 0
M  V30 24294 H 2388.28 -1.0601 -1.84053 0
M  V30 24295 H 2390.55 -0.417944 -0.850898 0
M  V30 24296 H 2390.25 -0.99749 -3.37258 0
M  V30 24297 H 2390.13 0.721387 -3.70238 0
M  V30 24298 H 2392.51 1.038 -2.76242 0
M  V30 24299 H 2392.59 -0.703393 -2.45939 0
M  V30 24300 H 2392.24 -1.13101 -4.95147 0
M  V30 24301 H 2392.17 0.627442 -5.22849 0
M  V30 24302 H 2394.66 0.0469846 -3.77871 0
M  V30 24303 H 2394.97 -0.529468 -7.70984 0
M  V30 24304 H 2393.32 -0.469231 -6.93414 0
M  V30 24305 H 2396.51 -0.0260571 -4.68093 0
M  V30 24306 H 2396.68 -0.288696 -6.47357 0
M  V30 24307 N 2390.09 1.56899 0.148518 0
M  V30 24308 C 2391.34 1.82456 0.859808 0
M  V30 24309 C 2391.65 0.706261 1.82404 0
M  V30 24310 O 2392.86 0.847394 2.57937 0
M  V30 24311 C 2391.31 3.23383 1.57961 0
M  V30 24312 C 2390.92 4.43144 0.657862 0
M  V30 24313 C 2392.66 3.58215 2.27778 0
M  V30 24314 C 2390.57 5.75093 1.3792 0
M  V30 24315 H 2389.5 0.680446 0.324822 0
M  V30 24316 H 2392.15 1.83154 0.112556 0
M  V30 24317 H 2390.53 3.17067 2.37244 0
M  V30 24318 H 2391.71 4.60692 -0.0996307 0
M  V30 24319 H 2390.02 4.16344 0.0681911 0
M  V30 24320 H 2392.62 4.54053 2.82382 0
M  V30 24321 H 2392.96 2.84198 3.04199 0
M  V30 24322 H 2393.5 3.66184 1.55415 0
M  V30 24323 H 2390.23 6.52201 0.656867 0
M  V30 24324 H 2389.75 5.61482 2.10944 0
M  V30 24325 H 2391.43 6.17839 1.92053 0
M  V30 24326 N 2391.57 -0.417818 1.51961 0
M  V30 24327 C 2392.5 -1.5273 1.70898 0
M  V30 24328 C 2393.51 -1.51755 0.589432 0
M  V30 24329 O 2394.7 -1.56178 0.864339 0
M  V30 24330 C 2391.8 -2.91636 1.72632 0
M  V30 24331 C 2390.97 -3.169 3.01485 0
M  V30 24332 C 2390.03 -4.35631 2.95147 0
M  V30 24333 O 2389.06 -4.33334 3.69067 0
M  V30 24334 N 2390.26 -5.40271 2.12338 0
M  V30 24335 H 2393.02 -1.36883 2.66614 0
M  V30 24336 H 2390.59 -0.607011 1.5009 0
M  V30 24337 H 2392.58 -3.69117 1.65935 0
M  V30 24338 H 2391.15 -3.00983 0.844268 0
M  V30 24339 H 2390.37 -2.2754 3.21899 0
M  V30 24340 H 2391.66 -3.30618 3.86742 0
M  V30 24341 H 2391.05 -5.44982 1.51694 0
M  V30 24342 H 2389.61 -6.1653 2.11504 0
M  V30 24343 N 2393.04 -1.42436 -0.674508 0
M  V30 24344 C 2394.29 -1.42639 -1.43173 0
M  V30 24345 C 2394.61 -0.0439335 -1.94951 0
M  V30 24346 O 2393.88 0.917577 -1.73082 0
M  V30 24347 H 2392.46 -0.525101 -0.531298 0
M  V30 24348 H 2395.12 -1.7786 -0.796975 0
M  V30 24349 H 2394.22 -2.12633 -2.2846 0
M  V30 24350 N 2394.52 0.910841 -1.28614 0
M  V30 24351 C 2395.45 2.0303 -1.15329 0
M  V30 24352 C 2396.43 1.70026 -0.0503222 0
M  V30 24353 O 2397.62 1.92859 -0.22783 0
M  V30 24354 C 2394.75 3.37544 -0.817403 0
M  V30 24355 C 2393.7 3.84721 -1.87547 0
M  V30 24356 C 2393.03 5.16232 -1.39314 0
M  V30 24357 C 2394.33 4.06261 -3.28251 0
M  V30 24358 H 2396.02 2.14402 -2.08979 0
M  V30 24359 H 2393.57 1.03019 -1.00614 0
M  V30 24360 H 2395.52 4.15355 -0.711224 0
M  V30 24361 H 2394.24 3.26233 0.154789 0
M  V30 24362 H 2392.9 3.09117 -1.97084 0
M  V30 24363 H 2392.55 5.01327 -0.409934 0
M  V30 24364 H 2392.25 5.48768 -2.10066 0
M  V30 24365 H 2393.78 5.96595 -1.30024 0
M  V30 24366 H 2395.19 4.74588 -3.21619 0
M  V30 24367 H 2393.59 4.50133 -3.96863 0
M  V30 24368 H 2394.66 3.10973 -3.72054 0
M  V30 24369 N 2396 1.10909 1.11969 0
M  V30 24370 C 2397.23 0.875586 1.87128 0
M  V30 24371 C 2397.64 -0.577811 1.80161 0
M  V30 24372 O 2396.98 -1.4104 1.17701 0
M  V30 24373 C 2397.04 1.25176 3.37003 0
M  V30 24374 C 2396.71 2.71319 3.67743 0
M  V30 24375 C 2397.7 3.69548 3.65691 0
M  V30 24376 C 2395.39 3.07828 3.96923 0
M  V30 24377 C 2397.38 5.02307 3.92386 0
M  V30 24378 C 2395.07 4.40773 4.23276 0
M  V30 24379 C 2396.07 5.37821 4.20995 0
M  V30 24380 O 2395.76 6.68372 4.46692 0
M  V30 24381 H 2395.49 0.313747 0.598781 0
M  V30 24382 H 2398.04 1.47866 1.42566 0
M  V30 24383 H 2396.27 0.591809 3.82145 0
M  V30 24384 H 2397.96 0.994946 3.93517 0
M  V30 24385 H 2398.73 3.42688 3.43205 0
M  V30 24386 H 2394.61 2.32909 3.97837 0
M  V30 24387 H 2398.15 5.78048 3.90521 0
M  V30 24388 H 2394.05 4.67369 4.45237 0
M  V30 24389 H 2394.82 6.74077 4.64287 0
M  V30 24390 N 2397.48 -1.29474 0.898573 0
M  V30 24391 C 2398.73 -1.95605 0.523916 0
M  V30 24392 C 2399.05 -1.70848 -0.929578 0
M  V30 24393 O 2398.31 -1.0137 -1.67399 0
M  V30 24394 C 2398.61 -3.49194 0.761459 0
M  V30 24395 C 2398.27 -3.94026 2.19214 0
M  V30 24396 C 2396.94 -4.05977 2.58333 0
M  V30 24397 C 2399.29 -4.1721 3.12386 0
M  V30 24398 C 2396.62 -4.38482 3.89808 0
M  V30 24399 C 2398.97 -4.51189 4.43408 0
M  V30 24400 C 2397.63 -4.61351 4.82402 0
M  V30 24401 H 2396.9 -0.71577 0.191714 0
M  V30 24402 H 2399.55 -1.54092 1.13702 0
M  V30 24403 H 2397.85 -3.91745 0.065431 0
M  V30 24404 H 2399.55 -3.98456 0.450974 0
M  V30 24405 H 2396.14 -3.85239 1.87853 0
M  V30 24406 H 2400.32 -4.07444 2.83378 0
M  V30 24407 H 2395.58 -4.44552 4.19742 0
M  V30 24408 H 2399.75 -4.68078 5.15631 0
M  V30 24409 H 2397.38 -4.86293 5.84315 0
M  V30 24410 N 2398.96 -0.660936 -1.43071 0
M  V30 24411 C 2400.18 -0.185458 -2.06067 0
M  V30 24412 C 2400.6 1.15195 -1.49584 0
M  V30 24413 O 2399.96 1.71275 -0.630164 0
M  V30 24414 C 2400.01 -0.0967158 -3.61371 0
M  V30 24415 O 2399.73 -1.38126 -4.15756 0
M  V30 24416 C 2401.23 0.403918 -4.41456 0
M  V30 24417 H 2398.45 -0.0934721 -0.664458 0
M  V30 24418 H 2400.99 -0.903762 -1.83446 0
M  V30 24419 H 2399.15 0.572191 -3.83151 0
M  V30 24420 H 2399.56 -1.24551 -5.09497 0
M  V30 24421 H 2401.04 0.414948 -5.50438 0
M  V30 24422 H 2401.51 1.43666 -4.15038 0
M  V30 24423 H 2402.12 -0.232766 -4.24663 0
M  V30 24424 N 2400.43 1.52351 -0.403352 0
M  V30 24425 C 2401.34 2.30589 0.431969 0
M  V30 24426 C 2402.36 1.38077 1.05881 0
M  V30 24427 O 2403.54 1.7115 1.06158 0
M  V30 24428 C 2400.6 3.10787 1.53664 0
M  V30 24429 C 2399.66 4.19029 0.933451 0
M  V30 24430 C 2398.9 4.95393 1.98548 0
M  V30 24431 O 2399.12 4.71996 3.20274 0
M  V30 24432 O 2398.05 5.80384 1.59493 0
M  V30 24433 H 2401.88 3.03002 -0.205792 0
M  V30 24434 H 2399.46 1.48467 -0.166702 0
M  V30 24435 H 2401.35 3.60746 2.17808 0
M  V30 24436 H 2400.02 2.41173 2.15911 0
M  V30 24437 H 2398.93 3.73231 0.254888 0
M  V30 24438 H 2400.26 4.90918 0.354993 0
M  V30 24439 N 2401.91 0.133594 1.57033 0
M  V30 24440 C 2403.14 -0.52816 2.00045 0
M  V30 24441 C 2403.56 -1.5929 1.01352 0
M  V30 24442 O 2402.91 -1.82498 0.00851577 0
M  V30 24443 C 2402.96 -1.14104 3.4302 0
M  V30 24444 O 2402.68 -0.118843 4.37939 0
M  V30 24445 C 2404.19 -1.8847 4.01241 0
M  V30 24446 H 2401.41 -0.138649 0.656519 0
M  V30 24447 H 2403.95 0.224232 2.03267 0
M  V30 24448 H 2402.1 -1.84412 3.40692 0
M  V30 24449 H 2402.52 -0.566038 5.21437 0
M  V30 24450 H 2403.99 -2.2666 5.03318 0
M  V30 24451 H 2404.47 -2.76552 3.41198 0
M  V30 24452 H 2405.08 -1.22891 4.07158 0
M  V30 24453 N 2403.39 -1.56975 -0.140195 0
M  V30 24454 C 2404.32 -1.9539 -1.19814 0
M  V30 24455 C 2405.34 -0.85055 -1.38815 0
M  V30 24456 O 2406.52 -1.12894 -1.38265 0
M  V30 24457 C 2403.62 -2.21862 -2.56185 0
M  V30 24458 C 2402.8 -3.53154 -2.58071 0
M  V30 24459 C 2401.86 -3.68086 -3.7603 0
M  V30 24460 O 2400.88 -4.40412 -3.60591 0
M  V30 24461 N 2402.08 -3.0526 -4.93758 0
M  V30 24462 H 2404.85 -2.86747 -0.871559 0
M  V30 24463 H 2402.41 -1.58508 -0.329692 0
M  V30 24464 H 2404.4 -2.29086 -3.33619 0
M  V30 24465 H 2402.97 -1.36736 -2.81109 0
M  V30 24466 H 2402.19 -3.5731 -1.66504 0
M  V30 24467 H 2403.48 -4.39491 -2.56369 0
M  V30 24468 H 2402.88 -2.46428 -5.09205 0
M  V30 24469 H 2401.44 -3.18036 -5.68943 0
M  V30 24470 N 2404.87 0.409753 -1.5218 0
M  V30 24471 C 2406.28 0.748326 -1.40969 0
M  V30 24472 C 2406.48 1.94842 -0.513691 0
M  V30 24473 O 2405.54 2.52491 0.0207582 0
M  V30 24474 C 2406.85 1.00285 -2.83485 0
M  V30 24475 C 2408.4 1.1056 -2.92823 0
M  V30 24476 C 2408.88 1.39288 -4.36306 0
M  V30 24477 N 2410.37 1.46155 -4.39537 0
M  V30 24478 C 2411.1 1.70009 -5.47617 0
M  V30 24479 N 2410.6 1.91471 -6.65816 0
M  V30 24480 N 2412.39 1.72018 -5.35132 0
M  V30 24481 H 2404.54 -0.380222 -2.08969 0
M  V30 24482 H 2406.81 -0.107822 -0.941848 0
M  V30 24483 H 2406.51 0.193399 -3.51168 0
M  V30 24484 H 2406.39 1.92318 -3.2449 0
M  V30 24485 H 2408.77 1.90564 -2.25321 0
M  V30 24486 H 2408.85 0.163645 -2.55276 0
M  V30 24487 H 2408.5 0.59802 -5.04367 0
M  V30 24488 H 2408.43 2.34735 -4.71389 0
M  V30 24489 H 2410.92 1.31361 -3.54334 0
M  V30 24490 H 2411.23 2.09121 -7.43968 0
M  V30 24491 H 2409.58 1.88737 -6.68882 0
M  V30 24492 H 2412.77 1.54788 -4.41767 0
M  V30 24493 H 2412.94 1.90269 -6.19436 0
M  V30 24494 N 2406.35 1.42792 0.666944 0
M  V30 24495 C 2407.28 1.4968 1.79216 0
M  V30 24496 C 2408.26 0.352652 1.66404 0
M  V30 24497 O 2409.44 0.568026 1.85707 0
M  V30 24498 C 2406.57 1.40611 3.17562 0
M  V30 24499 C 2405.53 2.53133 3.45119 0
M  V30 24500 C 2404.85 2.2912 4.83123 0
M  V30 24501 C 2406.15 3.95424 3.41229 0
M  V30 24502 H 2407.85 2.43856 1.73709 0
M  V30 24503 H 2405.39 1.17369 0.834299 0
M  V30 24504 H 2407.35 1.44036 3.9602 0
M  V30 24505 H 2406.07 0.429327 3.23766 0
M  V30 24506 H 2404.73 2.49039 2.69027 0
M  V30 24507 H 2404.38 1.29717 4.85986 0
M  V30 24508 H 2404.08 3.0454 5.02523 0
M  V30 24509 H 2405.6 2.34307 5.63855 0
M  V30 24510 H 2407.01 4.0108 4.09644 0
M  V30 24511 H 2405.41 4.70758 3.72165 0
M  V30 24512 H 2406.48 4.21536 2.39657 0
M  V30 24513 N 2407.82 -0.904008 1.29095 0
M  V30 24514 C 2409.05 -1.68764 1.19692 0
M  V30 24515 C 2409.47 -1.87229 -0.24308 0
M  V30 24516 O 2408.82 -1.40624 -1.16324 0
M  V30 24517 C 2408.88 -3.0745 1.90149 0
M  V30 24518 O 2408.6 -2.89832 3.28526 0
M  V30 24519 C 2410.1 -4.01849 1.8717 0
M  V30 24520 H 2407.32 -0.527237 0.415045 0
M  V30 24521 H 2409.86 -1.13079 1.70392 0
M  V30 24522 H 2408.02 -3.59924 1.43296 0
M  V30 24523 H 2408.43 -3.77677 3.63951 0
M  V30 24524 H 2409.9 -4.96592 2.41041 0
M  V30 24525 H 2410.38 -4.3097 0.846246 0
M  V30 24526 H 2410.99 -3.55306 2.33747 0
M  V30 24527 N 2409.3 -1.11501 -1.11379 0
M  V30 24528 C 2410.23 -0.796163 -2.19507 0
M  V30 24529 C 2411.21 0.235766 -1.68458 0
M  V30 24530 O 2412.4 0.0991003 -1.93947 0
M  V30 24531 C 2409.53 -0.239266 -3.46475 0
M  V30 24532 C 2408.48 -1.20314 -4.10741 0
M  V30 24533 C 2407.81 -0.506924 -5.32292 0
M  V30 24534 C 2409.11 -2.55407 -4.55593 0
M  V30 24535 H 2410.8 -1.70028 -2.46436 0
M  V30 24536 H 2408.35 -0.818956 -1.18445 0
M  V30 24537 H 2410.3 -0.00399414 -4.214 0
M  V30 24538 H 2409.03 0.70015 -3.19007 0
M  V30 24539 H 2407.68 -1.42405 -3.37811 0
M  V30 24540 H 2407.33 0.43732 -5.01095 0
M  V30 24541 H 2407.03 -1.1498 -5.76241 0
M  V30 24542 H 2408.56 -0.280459 -6.09956 0
M  V30 24543 H 2409.97 -2.374 -5.21837 0
M  V30 24544 H 2408.37 -3.15682 -5.10358 0
M  V30 24545 H 2409.44 -3.14581 -3.69007 0
M  V30 24546 N 2410.78 1.28995 -0.905426 0
M  V30 24547 C 2412.01 1.99996 -0.54921 0
M  V30 24548 C 2412.43 1.67276 0.860247 0
M  V30 24549 O 2411.79 0.90053 1.57354 0
M  V30 24550 C 2411.84 3.52602 -0.755247 0
M  V30 24551 O 2410.94 4.11964 0.18962 0
M  V30 24552 H 2410.28 0.6286 -0.21391 0
M  V30 24553 H 2412.81 1.64352 -1.21858 0
M  V30 24554 H 2412.82 4.02592 -0.662116 0
M  V30 24555 H 2411.5 3.75752 -1.78278 0
M  V30 24556 H 2410.07 3.72869 0.0484602 0
M  V30 24557 N 2412.26 0.668514 1.42719 0
M  V30 24558 C 2413.17 -0.013934 2.34596 0
M  V30 24559 C 2414.19 -0.795675 1.54742 0
M  V30 24560 O 2415.36 -0.739433 1.87335 0
M  V30 24561 C 2412.43 -0.957924 3.33204 0
M  V30 24562 C 2411.49 -0.171415 4.28958 0
M  V30 24563 C 2410.72 -1.07044 5.22855 0
M  V30 24564 O 2410.94 -2.30991 5.21535 0
M  V30 24565 O 2409.88 -0.534621 5.99521 0
M  V30 24566 H 2413.7 0.742713 2.94478 0
M  V30 24567 H 2411.29 0.428731 1.43116 0
M  V30 24568 H 2413.17 -1.50001 3.93799 0
M  V30 24569 H 2411.85 -1.69453 2.75803 0
M  V30 24570 H 2410.75 0.414624 3.71795 0
M  V30 24571 H 2412.09 0.525946 4.89382 0
M  V30 24572 N 2413.74 -1.52135 0.411426 0
M  V30 24573 C 2414.98 -2.02137 -0.163852 0
M  V30 24574 C 2415.32 -1.29638 -1.44595 0
M  V30 24575 O 2414.59 -0.403387 -1.90271 0
M  V30 24576 C 2414.87 -3.57767 -0.409208 0
M  V30 24577 C 2414.73 -4.40913 0.889721 0
M  V30 24578 C 2416.05 -4.23697 -1.19035 0
M  V30 24579 H 2413.17 -0.734708 -0.0580766 0
M  V30 24580 H 2415.81 -1.82006 0.545342 0
M  V30 24581 H 2413.96 -3.75052 -1.01333 0
M  V30 24582 H 2415.63 -4.35334 1.52583 0
M  V30 24583 H 2413.87 -4.07034 1.50018 0
M  V30 24584 H 2414.54 -5.47889 0.672411 0
M  V30 24585 H 2417.02 -4.10525 -0.67887 0
M  V30 24586 H 2415.9 -5.32524 -1.33077 0
M  V30 24587 H 2416.16 -3.82807 -2.21159 0
M  V30 24588 N 2415.22 -0.14192 -1.5696 0
M  V30 24589 C 2416.46 0.509449 -1.95574 0
M  V30 24590 C 2416.78 1.65734 -1.02749 0
M  V30 24591 O 2416.05 1.95702 -0.0880655 0
M  V30 24592 H 2414.63 0.191192 -0.722118 0
M  V30 24593 H 2417.3 -0.21623 -1.93697 0
M  V30 24594 H 2416.39 0.888948 -2.99172 0
M  V30 24595 N 2416.69 1.57047 0.131868 0
M  V30 24596 C 2417.62 2.0243 1.1638 0
M  V30 24597 C 2418.6 0.906465 1.43935 0
M  V30 24598 O 2419.79 1.17531 1.54596 0
M  V30 24599 C 2416.92 2.41774 2.49324 0
M  V30 24600 C 2415.87 3.56883 2.36259 0
M  V30 24601 C 2415.2 3.82087 3.74051 0
M  V30 24602 C 2416.5 4.89045 1.83392 0
M  V30 24603 H 2418.19 2.88888 0.786383 0
M  V30 24604 H 2415.74 1.38982 0.37683 0
M  V30 24605 H 2417.69 2.72126 3.21754 0
M  V30 24606 H 2416.42 1.52271 2.88931 0
M  V30 24607 H 2415.08 3.26721 1.6628 0
M  V30 24608 H 2414.72 2.8981 4.1112 0
M  V30 24609 H 2414.42 4.59561 3.66166 0
M  V30 24610 H 2415.95 4.14878 4.48005 0
M  V30 24611 H 2417.36 5.18016 2.45627 0
M  V30 24612 H 2415.76 5.70429 1.8636 0
M  V30 24613 H 2416.83 4.78412 0.790578 0
M  V30 24614 N 2418.17 -0.401677 1.52395 0
M  V30 24615 C 2419.08 -1.51441 1.79173 0
M  V30 24616 C 2420.1 -1.60259 0.67772 0
M  V30 24617 O 2421.27 -1.76834 0.96394 0
M  V30 24618 C 2418.34 -2.87103 1.94352 0
M  V30 24619 C 2417.4 -2.8811 3.18262 0
M  V30 24620 C 2416.63 -4.17302 3.32708 0
M  V30 24621 O 2416.86 -5.11593 2.52247 0
M  V30 24622 O 2415.79 -4.25316 4.25899 0
M  V30 24623 H 2419.62 -1.31747 2.73635 0
M  V30 24624 H 2417.2 -0.588272 1.37331 0
M  V30 24625 H 2419.08 -3.67552 2.06116 0
M  V30 24626 H 2417.76 -3.06849 1.03079 0
M  V30 24627 H 2416.66 -2.06489 3.11951 0
M  V30 24628 H 2418 -2.73315 4.09341 0
M  V30 24629 N 2419.65 -1.43144 -0.659362 0
M  V30 24630 C 2420.56 -1.50259 -1.80165 0
M  V30 24631 C 2421.58 -0.390136 -1.6957 0
M  V30 24632 O 2422.75 -0.643352 -1.90848 0
M  V30 24633 C 2419.82 -1.41731 -3.16407 0
M  V30 24634 C 2418.88 -2.63597 -3.38844 0
M  V30 24635 C 2418.11 -2.55466 -4.68586 0
M  V30 24636 O 2418.33 -1.59901 -5.47529 0
M  V30 24637 O 2417.27 -3.45863 -4.92608 0
M  V30 24638 H 2421.09 -2.46705 -1.77117 0
M  V30 24639 H 2418.68 -1.25077 -0.81707 0
M  V30 24640 H 2420.56 -1.39394 -3.97677 0
M  V30 24641 H 2419.24 -0.484174 -3.20058 0
M  V30 24642 H 2418.14 -2.71507 -2.57361 0
M  V30 24643 H 2419.48 -3.55862 -3.40034 0
M  V30 24644 N 2421.13 0.897149 -1.29572 0
M  V30 24645 C 2422.09 1.9831 -1.14917 0
M  V30 24646 C 2423.09 1.60581 -0.0838911 0
M  V30 24647 O 2424.28 1.71026 -0.331036 0
M  V30 24648 C 2421.41 3.32368 -0.757893 0
M  V30 24649 H 2422.61 2.1274 -2.11381 0
M  V30 24650 H 2420.16 1.08199 -1.12795 0
M  V30 24651 H 2420.89 3.2364 0.20678 0
M  V30 24652 H 2420.68 3.61118 -1.52761 0
M  V30 24653 H 2422.17 4.12051 -0.67848 0
M  V30 24654 N 2422.61 1.1209 1.10786 0
M  V30 24655 C 2423.83 0.896981 1.87 0
M  V30 24656 C 2424.26 -0.548229 1.79933 0
M  V30 24657 O 2423.61 -1.38777 1.16665 0
M  V30 24658 C 2423.66 1.3718 3.33488 0
M  V30 24659 O 2422.77 0.547903 4.08744 0
M  V30 24660 H 2422.11 0.322555 0.580391 0
M  V30 24661 H 2424.64 1.49208 1.39993 0
M  V30 24662 H 2424.65 1.36928 3.84337 0
M  V30 24663 H 2423.32 2.42414 3.37947 0
M  V30 24664 H 2421.9 0.617098 3.67758 0
M  V30 24665 N 2424.08 -1.28513 0.912254 0
M  V30 24666 C 2425.36 -1.90026 0.46363 0
M  V30 24667 C 2425.74 -1.82702 -1.0575 0
M  V30 24668 O 2425.09 -1.26197 -1.9049 0
M  V30 24669 C 2425.3 -3.34596 0.992311 0
M  V30 24670 C 2426.65 -4.11577 1.04351 0
M  V30 24671 O 2427.67 -3.4355 0.94085 0
M  V30 24672 O 2426.53 -5.33172 1.1996 0
M  V30 24673 H 2423.62 -0.813888 0.14668 0
M  V30 24674 H 2426.17 -1.36891 1.00294 0
M  V30 24675 H 2424.94 -3.34142 2.03629 0
M  V30 24676 H 2424.56 -3.95227 0.433741 0
M  V30 24677 N 2425.56 -0.676073 -1.42362 0
M  V30 24678 C 2426.79 -0.207304 -2.05859 0
M  V30 24679 C 2427.21 1.13602 -1.50798 0
M  V30 24680 O 2426.56 1.70597 -0.648295 0
M  V30 24681 C 2426.61 -0.135039 -3.61248 0
M  V30 24682 O 2426.33 -1.42528 -4.14267 0
M  V30 24683 C 2427.84 0.357073 -4.4186 0
M  V30 24684 H 2425.06 -0.100514 -0.663429 0
M  V30 24685 H 2427.6 -0.923168 -1.82477 0
M  V30 24686 H 2425.75 0.531521 -3.83736 0
M  V30 24687 H 2426.17 -1.29948 -5.08147 0
M  V30 24688 H 2427.64 0.356544 -5.50847 0
M  V30 24689 H 2428.12 1.39256 -4.16539 0
M  V30 24690 H 2428.73 -0.277794 -4.24392 0
M  V30 24691 N 2427.04 1.51915 -0.419488 0
M  V30 24692 C 2428.29 2.01523 0.152602 0
M  V30 24693 C 2428.61 1.30651 1.44759 0
M  V30 24694 O 2427.88 0.435569 1.90996 0
M  V30 24695 H 2426.46 0.744636 0.0593835 0
M  V30 24696 H 2429.12 1.86738 -0.558105 0
M  V30 24697 H 2428.22 3.10228 0.341315 0
M  V30 24698 N 2428.52 0.150242 1.56882 0
M  V30 24699 C 2429.74 -0.510148 2.01028 0
M  V30 24700 C 2430.17 -1.57414 1.02969 0
M  V30 24701 O 2429.53 -1.81299 0.00593344 0
M  V30 24702 C 2429.57 -1.08466 3.439 0
M  V30 24703 O 2428.68 -2.19942 3.48854 0
M  V30 24704 H 2428.02 -0.124439 0.652235 0
M  V30 24705 H 2430.55 0.24793 2.03092 0
M  V30 24706 H 2430.56 -1.41252 3.82769 0
M  V30 24707 H 2429.23 -0.305509 4.14776 0
M  V30 24708 H 2427.81 -1.8836 3.21831 0
M  V30 24709 N 2430 -1.57115 -0.123538 0
M  V30 24710 C 2431.24 -1.84248 -0.830477 0
M  V30 24711 C 2431.57 -0.734742 -1.80628 0
M  V30 24712 O 2430.84 0.241654 -1.94404 0
M  V30 24713 H 2429.42 -0.679784 -0.309682 0
M  V30 24714 H 2432.08 -1.94578 -0.111942 0
M  V30 24715 H 2431.17 -2.80008 -1.37847 0
M  V30 24716 N 2431.47 0.393589 -1.52606 0
M  V30 24717 C 2432.89 0.733332 -1.41755 0
M  V30 24718 C 2433.09 1.94286 -0.534328 0
M  V30 24719 O 2432.15 2.52499 -0.00602308 0
M  V30 24720 C 2433.46 0.972722 -2.84532 0
M  V30 24721 C 2435.01 1.07448 -2.9398 0
M  V30 24722 C 2435.48 1.34653 -4.37759 0
M  V30 24723 N 2436.97 1.41484 -4.41063 0
M  V30 24724 C 2437.71 1.64191 -5.4939 0
M  V30 24725 N 2437.2 1.84398 -6.67809 0
M  V30 24726 N 2439 1.66333 -5.36926 0
M  V30 24727 H 2431.15 -0.402365 -2.08554 0
M  V30 24728 H 2433.41 -0.117805 -0.940652 0
M  V30 24729 H 2433.12 0.156142 -3.51353 0
M  V30 24730 H 2432.99 1.88865 -3.26511 0
M  V30 24731 H 2435.38 1.88163 -2.27329 0
M  V30 24732 H 2435.46 0.13656 -2.55435 0
M  V30 24733 H 2435.1 0.544492 -5.04973 0
M  V30 24734 H 2435.03 2.29722 -4.73852 0
M  V30 24735 H 2437.52 1.27595 -3.55708 0
M  V30 24736 H 2437.84 2.01218 -7.46144 0
M  V30 24737 H 2436.18 1.81632 -6.70846 0
M  V30 24738 H 2439.37 1.50094 -4.43384 0
M  V30 24739 H 2439.55 1.83689 -6.2142 0
M  V30 24740 N 2432.95 1.43492 0.651762 0
M  V30 24741 C 2434.2 1.44472 1.40751 0
M  V30 24742 C 2434.51 0.0732189 1.95463 0
M  V30 24743 O 2435.72 -0.0395244 2.71471 0
M  V30 24744 C 2434.18 2.54244 2.54731 0
M  V30 24745 C 2433.78 3.97507 2.06621 0
M  V30 24746 C 2435.53 2.6442 3.32088 0
M  V30 24747 C 2433.44 4.98743 3.1782 0
M  V30 24748 H 2432.37 0.53743 0.528853 0
M  V30 24749 H 2435.02 1.69486 0.703335 0
M  V30 24750 H 2433.4 2.22434 3.27626 0
M  V30 24751 H 2434.57 4.38785 1.40727 0
M  V30 24752 H 2432.89 3.91389 1.42139 0
M  V30 24753 H 2435.48 3.3723 4.14946 0
M  V30 24754 H 2435.83 1.69538 3.80214 0
M  V30 24755 H 2436.36 2.95539 2.66274 0
M  V30 24756 H 2433.1 5.95182 2.74661 0
M  V30 24757 H 2432.62 4.62076 3.82421 0
M  V30 24758 H 2434.3 5.21512 3.82928 0
M  V30 24759 N 2434.43 -0.890264 1.30046 0
M  V30 24760 C 2435.39 -1.97698 1.15967 0
M  V30 24761 C 2436.39 -1.60534 0.0924059 0
M  V30 24762 O 2437.58 -1.70848 0.340101 0
M  V30 24763 C 2434.72 -3.31962 0.775509 0
M  V30 24764 H 2435.91 -2.11616 2.12506 0
M  V30 24765 H 2433.46 -1.07599 1.13367 0
M  V30 24766 H 2434.2 -3.23745 -0.189614 0
M  V30 24767 H 2433.98 -3.60303 1.54674 0
M  V30 24768 H 2435.47 -4.11686 0.700323 0
M  V30 24769 N 2435.91 -1.12676 -1.1019 0
M  V30 24770 C 2436.84 -0.8194 -2.18651 0
M  V30 24771 C 2437.82 0.217886 -1.68699 0
M  V30 24772 O 2439 0.078524 -1.94041 0
M  V30 24773 C 2436.13 -0.276001 -3.46202 0
M  V30 24774 C 2435.09 -1.24664 -4.09442 0
M  V30 24775 C 2434.41 -0.563352 -5.31724 0
M  V30 24776 C 2435.71 -2.60225 -4.52858 0
M  V30 24777 H 2437.41 -1.72632 -2.44619 0
M  V30 24778 H 2434.95 -0.831472 -1.17569 0
M  V30 24779 H 2436.91 -0.048689 -4.21372 0
M  V30 24780 H 2435.63 0.666275 -3.19732 0
M  V30 24781 H 2434.29 -1.4598 -3.36282 0
M  V30 24782 H 2433.94 0.384147 -5.01531 0
M  V30 24783 H 2433.64 -1.21085 -5.74989 0
M  V30 24784 H 2435.16 -0.345137 -6.09624 0
M  V30 24785 H 2436.58 -2.42922 -5.1929 0
M  V30 24786 H 2434.97 -3.21077 -5.06981 0
M  V30 24787 H 2436.04 -3.18478 -3.6565 0
M  V30 24788 N 2437.39 1.28028 -0.919057 0
M  V30 24789 C 2438.35 2.25389 -0.416221 0
M  V30 24790 C 2439.35 1.54068 0.460411 0
M  V30 24791 O 2440.54 1.72208 0.262714 0
M  V30 24792 C 2437.67 3.38514 0.402647 0
M  V30 24793 H 2438.86 2.71385 -1.27634 0
M  V30 24794 H 2436.42 1.39802 -0.698943 0
M  V30 24795 H 2437.15 2.97887 1.28194 0
M  V30 24796 H 2436.94 3.91449 -0.225767 0
M  V30 24797 H 2438.43 4.10899 0.745118 0
M  V30 24798 N 2438.86 0.683613 1.42002 0
M  V30 24799 C 2440.11 0.20986 2.01711 0
M  V30 24800 C 2440.44 -1.1835 1.53971 0
M  V30 24801 O 2439.72 -1.79638 0.745692 0
M  V30 24802 C 2440 0.25426 3.59201 0
M  V30 24803 C 2439.85 1.68371 4.17099 0
M  V30 24804 C 2441.17 -0.392632 4.38345 0
M  V30 24805 H 2438.29 0.0777317 0.732889 0
M  V30 24806 H 2440.93 0.87007 1.68908 0
M  V30 24807 H 2439.08 -0.307885 3.87278 0
M  V30 24808 H 2440.76 2.29878 3.99942 0
M  V30 24809 H 2439 2.22164 3.72593 0
M  V30 24810 H 2439.67 1.66639 5.26246 0
M  V30 24811 H 2442.15 0.0859893 4.16011 0
M  V30 24812 H 2441.02 -0.330967 5.47901 0
M  V30 24813 H 2441.28 -1.47157 4.1689 0
M  V30 24814 N 2440.34 -1.5169 0.427538 0
M  V30 24815 C 2441.25 -2.31247 -0.395229 0
M  V30 24816 C 2442.27 -1.39744 -1.03671 0
M  V30 24817 O 2443.45 -1.72817 -1.03422 0
M  V30 24818 C 2440.51 -3.13192 -1.487 0
M  V30 24819 C 2439.57 -4.20461 -0.866669 0
M  V30 24820 C 2438.8 -4.98489 -1.90642 0
M  V30 24821 O 2439.03 -4.77032 -3.12725 0
M  V30 24822 O 2437.96 -5.82848 -1.5024 0
M  V30 24823 H 2441.79 -3.02636 0.253971 0
M  V30 24824 H 2439.37 -1.48183 0.1903 0
M  V30 24825 H 2441.25 -3.64166 -2.12041 0
M  V30 24826 H 2439.93 -2.44577 -2.12047 0
M  V30 24827 H 2438.84 -3.73589 -0.195478 0
M  V30 24828 H 2440.17 -4.91421 -0.276848 0
M  V30 24829 N 2441.82 -0.15856 -1.568 0
M  V30 24830 C 2443.07 0.489667 -1.95666 0
M  V30 24831 C 2443.38 1.65246 -1.04657 0
M  V30 24832 O 2444.59 2.36608 -1.3315 0
M  V30 24833 C 2443.05 0.922521 -3.47876 0
M  V30 24834 C 2442.65 -0.213971 -4.47489 0
M  V30 24835 C 2444.4 1.53989 -3.95585 0
M  V30 24836 C 2442.3 0.237799 -5.90922 0
M  V30 24837 H 2441.23 0.186704 -0.730519 0
M  V30 24838 H 2443.89 -0.244754 -1.8186 0
M  V30 24839 H 2442.27 1.71255 -3.57054 0
M  V30 24840 H 2443.44 -0.991115 -4.50015 0
M  V30 24841 H 2441.76 -0.740479 -4.09763 0
M  V30 24842 H 2444.35 1.88972 -5.00194 0
M  V30 24843 H 2444.7 2.43313 -3.37794 0
M  V30 24844 H 2445.23 0.814542 -3.89371 0
M  V30 24845 H 2441.97 -0.620351 -6.52558 0
M  V30 24846 H 2441.49 0.980572 -5.9173 0
M  V30 24847 H 2443.17 0.685954 -6.43353 0
M  V30 24848 N 2443.3 1.57178 0.115204 0
M  V30 24849 C 2444.54 1.86871 0.828166 0
M  V30 24850 C 2444.9 0.747033 1.76871 0
M  V30 24851 O 2446.1 0.92583 2.52353 0
M  V30 24852 C 2444.38 3.21794 1.55509 0
M  V30 24853 S 2445.93 3.73129 2.30911 0
M  V30 24854 H 2442.75 0.655106 0.276329 0
M  V30 24855 H 2445.35 1.95309 0.0863126 0
M  V30 24856 H 2444.06 4.0137 0.856178 0
M  V30 24857 H 2443.59 3.16443 2.33725 0
M  V30 24858 H 2445.6 3.44935 3.56699 0
M  V30 24859 N 2444.78 -0.38549 1.52813 0
M  V30 24860 C 2445.74 -1.45382 1.77191 0
M  V30 24861 C 2446.74 -1.47429 0.641979 0
M  V30 24862 O 2447.93 -1.48538 0.910059 0
M  V30 24863 C 2445.06 -2.84647 1.87587 0
M  V30 24864 H 2446.26 -1.25049 2.72585 0
M  V30 24865 H 2443.81 -0.617442 1.43587 0
M  V30 24866 H 2444.54 -3.1032 0.941903 0
M  V30 24867 H 2444.33 -2.84562 2.69753 0
M  V30 24868 H 2445.82 -3.6205 2.08109 0
M  V30 24869 N 2446.26 -1.43835 -0.644143 0
M  V30 24870 C 2447.5 -1.47443 -1.41562 0
M  V30 24871 C 2447.86 -0.099306 -1.91743 0
M  V30 24872 O 2449.06 -0.0100665 -2.68798 0
M  V30 24873 C 2447.33 -2.49502 -2.55897 0
M  V30 24874 S 2448.89 -2.72057 -3.44283 0
M  V30 24875 H 2445.71 -0.521658 -0.483109 0
M  V30 24876 H 2448.31 -1.80667 -0.746976 0
M  V30 24877 H 2447.01 -3.48138 -2.17321 0
M  V30 24878 H 2446.55 -2.17807 -3.27603 0
M  V30 24879 H 2448.56 -2.02668 -4.52924 0
M  V30 24880 N 2447.73 0.883355 -1.30517 0
M  V30 24881 C 2449.14 1.45079 -1.17512 0
M  V30 24882 C 2449.5 1.94922 0.223571 0
M  V30 24883 O 2448.62 1.85139 1.12037 0
M  V30 24884 C 2449.22 2.63697 -2.12719 0
M  V30 24885 C 2447.77 3.16525 -2.03688 0
M  V30 24886 C 2446.92 1.8922 -2.02709 0
M  V30 24887 H 2449.87 0.69314 -1.42763 0
M  V30 24888 H 2449.89 3.39962 -1.70897 0
M  V30 24889 H 2449.41 2.27389 -3.14509 0
M  V30 24890 H 2447.51 3.57486 -1.05046 0
M  V30 24891 H 2447.62 3.79715 -2.92153 0
M  V30 24892 H 2445.98 2.0762 -1.47534 0
M  V30 24893 H 2446.77 1.55168 -3.06231 0
M  V30 24894 N 2449.21 1.13259 1.09591 0
M  V30 24895 C 2450.62 0.906302 1.63227 0
M  V30 24896 C 2450.97 -0.557545 1.88111 0
M  V30 24897 O 2450.1 -1.42388 1.62956 0
M  V30 24898 C 2450.69 1.63872 2.96532 0
M  V30 24899 C 2449.25 1.45834 3.47001 0
M  V30 24900 C 2448.4 1.66902 2.21447 0
M  V30 24901 H 2451.35 1.28613 0.929757 0
M  V30 24902 H 2451.37 1.09482 3.64409 0
M  V30 24903 H 2450.88 2.70409 2.78389 0
M  V30 24904 H 2448.98 0.415913 3.70271 0
M  V30 24905 H 2449.1 2.22027 4.24548 0
M  V30 24906 H 2447.46 1.09375 2.3002 0
M  V30 24907 H 2448.24 2.74756 2.05826 0
M  V30 24908 N 2450.69 -1.27539 0.925834 0
M  V30 24909 C 2451.65 -2.25165 0.428168 0
M  V30 24910 C 2452.65 -1.5431 -0.452234 0
M  V30 24911 O 2453.84 -1.72344 -0.253578 0
M  V30 24912 C 2450.97 -3.38723 -0.384689 0
M  V30 24913 H 2452.17 -2.70704 1.29071 0
M  V30 24914 H 2449.72 -1.39429 0.706347 0
M  V30 24915 H 2450.46 -2.98563 -1.26613 0
M  V30 24916 H 2450.24 -3.91324 0.246523 0
M  V30 24917 H 2451.73 -4.11288 -0.723317 0
M  V30 24918 N 2452.17 -0.691135 -1.41637 0
M  V30 24919 C 2453.4 -0.228794 -2.05329 0
M  V30 24920 C 2453.81 1.12538 -1.52091 0
M  V30 24921 O 2453.15 1.7135 -0.662175 0
M  V30 24922 C 2453.21 -0.104134 -3.59349 0
M  V30 24923 C 2452.87 -1.38964 -4.3536 0
M  V30 24924 C 2453.87 -2.32656 -4.64938 0
M  V30 24925 C 2451.56 -1.64178 -4.74712 0
M  V30 24926 C 2453.55 -3.49828 -5.32822 0
M  V30 24927 C 2451.24 -2.81635 -5.42333 0
M  V30 24928 C 2452.24 -3.74283 -5.71315 0
M  V30 24929 O 2451.92 -4.89684 -6.37546 0
M  V30 24930 H 2451.66 -0.105009 -0.667794 0
M  V30 24931 H 2454.21 -0.94297 -1.82475 0
M  V30 24932 H 2452.44 0.665772 -3.80926 0
M  V30 24933 H 2454.13 0.320448 -4.04633 0
M  V30 24934 H 2454.89 -2.14432 -4.35022 0
M  V30 24935 H 2450.77 -0.929282 -4.51537 0
M  V30 24936 H 2454.32 -4.22162 -5.55361 0
M  V30 24937 H 2450.21 -2.99778 -5.71667 0
M  V30 24938 H 2450.98 -4.89441 -6.56041 0
M  V30 24939 N 2453.65 1.51461 -0.435577 0
M  V30 24940 C 2454.61 2.26273 0.365097 0
M  V30 24941 C 2455.61 1.29649 0.951204 0
M  V30 24942 O 2456.8 1.53375 0.825931 0
M  V30 24943 C 2453.93 3.05317 1.51639 0
M  V30 24944 H 2455.12 2.98489 -0.290526 0
M  V30 24945 H 2452.68 1.55157 -0.188703 0
M  V30 24946 H 2453.41 2.37514 2.20812 0
M  V30 24947 H 2453.2 3.76286 1.10232 0
M  V30 24948 H 2454.69 3.61991 2.08212 0
M  V30 24949 N 2455.12 0.166873 1.56714 0
M  V30 24950 C 2456.37 -0.478271 1.96359 0
M  V30 24951 C 2456.69 -1.64078 1.05373 0
M  V30 24952 O 2455.96 -1.95537 0.119189 0
M  V30 24953 H 2454.54 -0.17968 0.725068 0
M  V30 24954 H 2457.21 0.247018 1.93328 0
M  V30 24955 H 2456.3 -0.84124 3.00549 0
M  V30 24956 N 2456.6 -1.57237 -0.106866 0
M  V30 24957 C 2457.88 -1.76478 -0.843495 0
M  V30 24958 C 2458.26 -0.745499 -1.97498 0
M  V30 24959 O 2457.61 0.228266 -2.27357 0
M  V30 24960 C 2457.82 -3.21875 -1.34897 0
M  V30 24961 C 2459.17 -3.84723 -1.79647 0
M  V30 24962 O 2460.19 -3.25552 -1.44548 0
M  V30 24963 O 2459.05 -4.88752 -2.44506 0
M  V30 24964 H 2456.14 -0.723024 -0.401455 0
M  V30 24965 H 2458.69 -1.69463 -0.0896629 0
M  V30 24966 H 2457.46 -3.87587 -0.537742 0
M  V30 24967 H 2457.08 -3.33477 -2.16516 0
M  V30 24968 N 2458.08 0.377381 -1.53015 0
M  V30 24969 C 2459.31 1.14665 -1.7282 0
M  V30 24970 C 2459.73 1.82619 -0.450757 0
M  V30 24971 O 2459.09 1.71281 0.59436 0
M  V30 24972 C 2459.14 2.16159 -2.88631 0
M  V30 24973 O 2458.24 3.22994 -2.56415 0
M  V30 24974 H 2457.58 0.333268 -0.574307 0
M  V30 24975 H 2460.11 0.438117 -1.99854 0
M  V30 24976 H 2460.12 2.5996 -3.14459 0
M  V30 24977 H 2458.8 1.66088 -3.81297 0
M  V30 24978 H 2457.37 2.84248 -2.41365 0
M  V30 24979 N 2459.56 1.44175 0.636506 0
M  V30 24980 C 2460.8 1.48192 1.40778 0
M  V30 24981 C 2461.16 0.109473 1.91688 0
M  V30 24982 O 2462.36 0.0243213 2.68789 0
M  V30 24983 C 2460.63 2.50856 2.54571 0
M  V30 24984 S 2462.19 2.73879 3.42835 0
M  V30 24985 H 2459.01 0.524212 0.480336 0
M  V30 24986 H 2461.61 1.8106 0.737384 0
M  V30 24987 H 2460.32 3.49285 2.15472 0
M  V30 24988 H 2459.85 2.19542 3.26443 0
M  V30 24989 H 2461.86 2.05067 4.51843 0
M  V30 24990 N 2461.04 -0.876421 1.30983 0
M  V30 24991 C 2461.97 -1.98892 1.13906 0
M  V30 24992 C 2462.98 -1.62604 0.0799101 0
M  V30 24993 O 2464.17 -1.75483 0.326773 0
M  V30 24994 C 2461.27 -3.31234 0.716757 0
M  V30 24995 C 2460.44 -3.95905 1.85951 0
M  V30 24996 C 2459.5 -5.06556 1.42434 0
M  V30 24997 O 2458.53 -5.27725 2.13296 0
M  V30 24998 N 2459.73 -5.79682 0.308127 0
M  V30 24999 H 2462.5 -2.1409 2.09727 0
M  V30 25000 H 2460.06 -1.05002 1.23232 0
M  V30 25001 H 2462.05 -4.02633 0.408473 0
M  V30 25002 H 2460.62 -3.12242 -0.149664 0
M  V30 25003 H 2459.84 -3.17569 2.33546 0
M  V30 25004 H 2461.13 -4.35851 2.6251 0
M  V30 25005 H 2460.52 -5.64996 -0.282141 0
M  V30 25006 H 2459.08 -6.51773 0.0593428 0
M  V30 25007 N 2462.51 -1.13839 -1.08989 0
M  V30 25008 C 2463.76 -0.90113 -1.80898 0
M  V30 25009 C 2464.08 0.574101 -1.86357 0
M  V30 25010 O 2463.35 1.41731 -1.35237 0
M  V30 25011 H 2461.93 -0.330398 -0.66996 0
M  V30 25012 H 2464.6 -1.43581 -1.31798 0
M  V30 25013 H 2463.69 -1.29583 -2.83927 0
M  V30 25014 N 2463.99 1.27046 -0.932584 0
M  V30 25015 C 2465.23 1.95911 -0.582953 0
M  V30 25016 C 2465.6 1.71632 0.860599 0
M  V30 25017 O 2466.8 2.34228 1.31874 0
M  V30 25018 C 2465.07 3.45733 -0.905734 0
M  V30 25019 S 2466.63 4.33726 -0.665353 0
M  V30 25020 H 2463.45 0.67771 -0.215012 0
M  V30 25021 H 2466.05 1.54177 -1.20206 0
M  V30 25022 H 2464.75 3.60902 -1.95392 0
M  V30 25023 H 2464.28 3.92431 -0.276008 0
M  V30 25024 H 2466.3 4.93926 0.474548 0
M  V30 25025 N 2465.47 0.698636 1.41269 0
M  V30 25026 C 2466.7 0.238548 2.06024 0
M  V30 25027 C 2467.12 -1.10472 1.52242 0
M  V30 25028 O 2466.48 -1.69222 0.650653 0
M  V30 25029 C 2466.53 0.210016 3.59988 0
M  V30 25030 O 2465.63 -0.814164 4.04283 0
M  V30 25031 H 2464.97 0.115787 0.653827 0
M  V30 25032 H 2467.5 0.954357 1.80978 0
M  V30 25033 H 2467.51 0.0419154 4.07978 0
M  V30 25034 H 2466.19 1.19037 3.98501 0
M  V30 25035 H 2464.76 -0.615169 3.67791 0
M  V30 25036 N 2466.95 -1.51228 0.443603 0
M  V30 25037 C 2468.36 -1.86691 -0.0180538 0
M  V30 25038 C 2468.71 -1.36035 -1.41382 0
M  V30 25039 O 2467.84 -0.713758 -2.0429 0
M  V30 25040 C 2468.43 -3.38777 -0.0395375 0
M  V30 25041 C 2466.99 -3.73753 -0.445627 0
M  V30 25042 C 2466.14 -2.74984 0.357633 0
M  V30 25043 H 2469.09 -1.44363 0.659164 0
M  V30 25044 H 2469.11 -3.70937 -0.847696 0
M  V30 25045 H 2468.62 -3.75616 0.976448 0
M  V30 25046 H 2466.72 -3.42506 -1.46698 0
M  V30 25047 H 2466.83 -4.78812 -0.166071 0
M  V30 25048 H 2465.2 -2.54028 -0.184928 0
M  V30 25049 H 2465.98 -3.14665 1.37261 0
M  V30 25050 N 2468.43 -0.175182 -1.56623 0
M  V30 25051 C 2469.67 0.467851 -1.9661 0
M  V30 25052 C 2470 1.63517 -1.06241 0
M  V30 25053 O 2469.27 1.95471 -0.129557 0
M  V30 25054 H 2467.85 0.175832 -0.726011 0
M  V30 25055 H 2470.51 -0.257268 -1.93195 0
M  V30 25056 H 2469.6 0.825289 -3.00991 0
M  V30 25057 N 2469.91 1.57292 0.0985263 0
M  V30 25058 C 2471.14 1.89841 0.815101 0
M  V30 25059 C 2471.54 0.76671 1.72969 0
M  V30 25060 O 2470.89 -0.270451 1.81698 0
M  V30 25061 C 2470.95 3.17611 1.68415 0
M  V30 25062 C 2470.61 4.47191 0.941742 0
M  V30 25063 C 2471.61 5.19182 0.273121 0
M  V30 25064 C 2469.29 4.93862 0.91684 0
M  V30 25065 C 2471.29 6.36077 -0.410472 0
M  V30 25066 C 2468.98 6.10669 0.22946 0
M  V30 25067 C 2469.97 6.81626 -0.433022 0
M  V30 25068 O 2469.66 7.96208 -1.10939 0
M  V30 25069 H 2469.39 0.632533 0.23849 0
M  V30 25070 H 2471.95 2.05239 0.0812299 0
M  V30 25071 H 2470.18 2.9835 2.46017 0
M  V30 25072 H 2471.87 3.36019 2.27698 0
M  V30 25073 H 2472.63 4.84169 0.283841 0
M  V30 25074 H 2468.51 4.38523 1.42193 0
M  V30 25075 H 2472.06 6.91398 -0.928135 0
M  V30 25076 H 2467.95 6.45137 0.216573 0
M  V30 25077 H 2468.72 8.12171 -1.01594 0
M  V30 25078 N 2471.38 -0.369261 1.53213 0
M  V30 25079 C 2472.61 -1.13136 1.7287 0
M  V30 25080 C 2473.02 -1.83628 0.455787 0
M  V30 25081 O 2472.36 -1.74276 -0.580831 0
M  V30 25082 C 2472.43 -2.20842 2.83671 0
M  V30 25083 C 2472.09 -1.70148 4.24145 0
M  V30 25084 C 2473.09 -1.16754 5.06621 0
M  V30 25085 C 2470.77 -1.75772 4.70542 0
M  V30 25086 C 2472.77 -0.696566 6.33582 0
M  V30 25087 C 2470.45 -1.28287 5.97483 0
M  V30 25088 C 2471.45 -0.753188 6.78834 0
M  V30 25089 O 2471.14 -0.285334 8.03393 0
M  V30 25090 H 2470.87 -0.344362 0.581713 0
M  V30 25091 H 2473.43 -0.435207 2.00736 0
M  V30 25092 H 2471.66 -2.93939 2.5127 0
M  V30 25093 H 2473.34 -2.82416 2.91541 0
M  V30 25094 H 2474.11 -1.1175 4.7195 0
M  V30 25095 H 2469.99 -2.15941 4.07296 0
M  V30 25096 H 2473.53 -0.282459 6.97028 0
M  V30 25097 H 2469.43 -1.32983 6.31653 0
M  V30 25098 H 2470.2 -0.405001 8.17497 0
M  V30 25099 N 2472.86 -1.4451 -0.628851 0
M  V30 25100 C 2474.28 -1.28447 -0.947283 0
M  V30 25101 C 2474.48 -0.221907 -2.00274 0
M  V30 25102 O 2473.53 0.391427 -2.49448 0
M  V30 25103 C 2474.85 -2.65678 -1.40839 0
M  V30 25104 C 2476.39 -2.73406 -1.52374 0
M  V30 25105 C 2476.87 -4.11112 -2.01868 0
M  V30 25106 N 2478.36 -4.133 -2.09134 0
M  V30 25107 C 2479.1 -5.16704 -2.48606 0
M  V30 25108 N 2478.59 -6.30467 -2.87198 0
M  V30 25109 N 2480.38 -5.04059 -2.4876 0
M  V30 25110 H 2472.54 -2.12287 0.069135 0
M  V30 25111 H 2474.8 -0.94747 -0.0316998 0
M  V30 25112 H 2474.5 -3.44518 -0.707145 0
M  V30 25113 H 2474.38 -2.9272 -2.37897 0
M  V30 25114 H 2476.77 -1.94884 -2.21595 0
M  V30 25115 H 2476.85 -2.50103 -0.536855 0
M  V30 25116 H 2476.49 -4.90111 -1.33242 0
M  V30 25117 H 2476.42 -4.31794 -3.01432 0
M  V30 25118 H 2478.91 -3.31195 -1.81985 0
M  V30 25119 H 2479.22 -7.05179 -3.16136 0
M  V30 25120 H 2477.57 -6.33902 -2.84944 0
M  V30 25121 H 2480.76 -4.14237 -2.18002 0
M  V30 25122 H 2480.93 -5.84768 -2.79197 0
M  V30 25123 N 2474.34 0.869463 -1.31446 0
M  V30 25124 C 2475.62 1.60501 -1.11797 0
M  V30 25125 C 2476 2.0855 0.327131 0
M  V30 25126 O 2475.34 1.86423 1.32132 0
M  V30 25127 C 2475.55 2.76261 -2.13262 0
M  V30 25128 C 2476.9 3.46211 -2.45811 0
M  V30 25129 O 2477.93 2.86469 -2.11693 0
M  V30 25130 O 2476.79 4.53985 -3.04236 0
M  V30 25131 H 2473.88 0.706156 -0.430433 0
M  V30 25132 H 2476.43 0.914882 -1.42927 0
M  V30 25133 H 2475.2 2.38174 -3.10465 0
M  V30 25134 H 2474.82 3.52961 -1.83042 0
M  V30 25135 N 2475.82 1.14415 1.08383 0
M  V30 25136 C 2476.77 0.799907 2.13508 0
M  V30 25137 C 2477.75 -0.211031 1.5951 0
M  V30 25138 O 2478.94 -0.0133383 1.76995 0
M  V30 25139 C 2476.07 0.279357 3.42161 0
M  V30 25140 C 2475.16 1.31983 4.0304 0
M  V30 25141 N 2475.55 2.52403 4.38322 0
M  V30 25142 C 2473.85 1.17011 4.30377 0
M  V30 25143 C 2474.55 3.19011 4.86422 0
M  V30 25144 N 2473.52 2.46414 4.84542 0
M  V30 25145 H 2477.33 1.71594 2.38606 0
M  V30 25146 H 2474.84 1.02804 1.25718 0
M  V30 25147 H 2476.84 0.0144421 4.16897 0
M  V30 25148 H 2475.5 -0.630867 3.18512 0
M  V30 25149 H 2476.51 2.89628 4.29343 0
M  V30 25150 H 2473.19 0.318927 4.1628 0
M  V30 25151 H 2474.58 4.21683 5.23099 0
M  V30 25152 N 2477.3 -1.26549 0.939309 0
M  V30 25153 C 2478.24 -2.26447 0.446127 0
M  V30 25154 C 2479.21 -1.58609 -0.493206 0
M  V30 25155 O 2480.4 -1.86347 -0.409824 0
M  V30 25156 C 2477.54 -3.43927 -0.284314 0
M  V30 25157 C 2476.65 -4.26446 0.690474 0
M  V30 25158 C 2475.79 -5.31165 -0.0609778 0
M  V30 25159 C 2474.82 -6.05361 0.905755 0
M  V30 25160 N 2473.96 -7.01853 0.186179 0
M  V30 25161 H 2478.8 -2.68006 1.30296 0
M  V30 25162 H 2476.34 -1.31775 0.653734 0
M  V30 25163 H 2478.3 -4.10866 -0.724241 0
M  V30 25164 H 2476.93 -3.03287 -1.1053 0
M  V30 25165 H 2475.98 -3.59314 1.24892 0
M  V30 25166 H 2477.29 -4.77898 1.42882 0
M  V30 25167 H 2476.44 -6.04107 -0.560274 0
M  V30 25168 H 2475.18 -4.80547 -0.832213 0
M  V30 25169 H 2474.19 -5.31248 1.41619 0
M  V30 25170 H 2475.41 -6.58069 1.67696 0
M  V30 25171 H 2473.36 -6.53549 -0.566599 0
M  V30 25172 H 2473.28 -7.51048 0.863884 0
M  V30 25173 H 2474.54 -7.78953 -0.292084 0
M  V30 25174 N 2478.77 -0.706118 -1.40896 0
M  V30 25175 C 2480.02 -0.241089 -2.00657 0
M  V30 25176 C 2480.34 1.16676 -1.56243 0
M  V30 25177 O 2479.61 1.78924 -0.797681 0
M  V30 25178 H 2478.19 -0.0861438 -0.742016 0
M  V30 25179 H 2480.85 -0.909635 -1.72371 0
M  V30 25180 H 2479.95 -0.266759 -3.10958 0
M  V30 25181 N 2480.25 1.50991 -0.451617 0
M  V30 25182 C 2481.18 2.30969 0.342857 0
M  V30 25183 C 2482.16 1.37007 1.00813 0
M  V30 25184 O 2483.35 1.65928 1.00904 0
M  V30 25185 C 2480.48 3.16208 1.43631 0
M  V30 25186 C 2479.43 4.18564 0.893744 0
M  V30 25187 C 2478.76 4.92415 2.08403 0
M  V30 25188 C 2480.06 5.22236 -0.0816486 0
M  V30 25189 H 2481.75 2.97635 -0.324608 0
M  V30 25190 H 2479.3 1.43135 -0.157556 0
M  V30 25191 H 2481.25 3.70945 1.99944 0
M  V30 25192 H 2479.97 2.4739 2.13227 0
M  V30 25193 H 2478.63 3.64899 0.352734 0
M  V30 25194 H 2478.28 4.20087 2.76651 0
M  V30 25195 H 2477.98 5.61639 1.72731 0
M  V30 25196 H 2479.51 5.49981 2.65242 0
M  V30 25197 H 2480.92 5.71961 0.391642 0
M  V30 25198 H 2479.32 5.99069 -0.351656 0
M  V30 25199 H 2480.39 4.74183 -1.01382 0
M  V30 25200 N 2481.73 0.183486 1.56528 0
M  V30 25201 C 2482.96 -0.463577 2.01332 0
M  V30 25202 C 2483.37 -1.56528 1.06281 0
M  V30 25203 O 2482.71 -1.83609 0.0578299 0
M  V30 25204 C 2482.77 -1.0909 3.42549 0
M  V30 25205 C 2482.44 -0.129362 4.56817 0
M  V30 25206 C 2483.43 0.656898 5.15733 0
M  V30 25207 C 2481.12 -0.0216517 5.02295 0
M  V30 25208 C 2483.11 1.53795 6.18568 0
M  V30 25209 C 2480.8 0.86297 6.04976 0
M  V30 25210 C 2481.8 1.64135 6.62985 0
M  V30 25211 O 2481.49 2.51116 7.63673 0
M  V30 25212 H 2481.22 -0.121895 0.664919 0
M  V30 25213 H 2483.77 0.28599 2.03399 0
M  V30 25214 H 2482 -1.88883 3.37432 0
M  V30 25215 H 2483.69 -1.64141 3.71231 0
M  V30 25216 H 2484.46 0.583924 4.81472 0
M  V30 25217 H 2480.34 -0.617312 4.56848 0
M  V30 25218 H 2483.88 2.14595 6.63773 0
M  V30 25219 H 2479.78 0.937102 6.38662 0
M  V30 25220 H 2480.54 2.44767 7.81045 0
M  V30 25221 N 2483.21 -1.57342 -0.0901833 0
M  V30 25222 C 2484.44 -1.90547 -0.806191 0
M  V30 25223 C 2484.85 -0.777674 -1.7204 0
M  V30 25224 O 2484.21 0.250071 -1.80779 0
M  V30 25225 C 2484.26 -3.23399 -1.6154 0
M  V30 25226 O 2483.98 -4.3184 -0.737967 0
M  V30 25227 C 2485.48 -3.70499 -2.43404 0
M  V30 25228 H 2482.7 -0.630261 -0.230245 0
M  V30 25229 H 2485.24 -2.04394 -0.0659484 0
M  V30 25230 H 2483.4 -3.11135 -2.30811 0
M  V30 25231 H 2483.81 -5.08162 -1.29893 0
M  V30 25232 H 2485.29 -4.66138 -2.95668 0
M  V30 25233 H 2485.76 -2.98585 -3.22093 0
M  V30 25234 H 2486.37 -3.85646 -1.79324 0
M  V30 25235 N 2484.69 0.36113 -1.53407 0
M  V30 25236 C 2485.93 1.10112 -1.69469 0
M  V30 25237 C 2486.26 1.89704 -0.451385 0
M  V30 25238 O 2485.53 1.88464 0.534602 0
M  V30 25239 H 2484.11 0.409498 -0.624757 0
M  V30 25240 H 2486.77 0.406666 -1.9061 0
M  V30 25241 H 2485.86 1.78843 -2.55777 0
M  V30 25242 N 2486.16 1.44842 0.621179 0
M  V30 25243 C 2487.58 1.28948 0.940458 0
M  V30 25244 C 2487.78 0.232525 2.00154 0
M  V30 25245 O 2486.84 -0.378193 2.49652 0
M  V30 25246 C 2488.15 2.66421 1.39428 0
M  V30 25247 C 2489.7 2.74211 1.50922 0
M  V30 25248 C 2490.17 4.12177 1.99685 0
M  V30 25249 N 2491.66 4.14403 2.0694 0
M  V30 25250 C 2492.4 5.18015 2.45862 0
M  V30 25251 N 2491.89 6.31982 2.83851 0
M  V30 25252 N 2493.69 5.05371 2.46083 0
M  V30 25253 H 2485.84 2.12248 -0.0803921 0
M  V30 25254 H 2488.1 0.947625 0.0266747 0
M  V30 25255 H 2487.81 3.44888 0.688864 0
M  V30 25256 H 2487.68 2.93977 2.36341 0
M  V30 25257 H 2490.07 1.96057 2.20558 0
M  V30 25258 H 2490.15 2.50384 0.523583 0
M  V30 25259 H 2489.79 4.90811 1.30641 0
M  V30 25260 H 2489.72 4.33387 2.99138 0
M  V30 25261 H 2492.21 3.32155 1.80226 0
M  V30 25262 H 2492.53 7.06846 3.12392 0
M  V30 25263 H 2490.87 6.35404 2.81578 0
M  V30 25264 H 2494.06 4.15388 2.15802 0
M  V30 25265 H 2494.24 5.8624 2.76092 0
M  V30 25266 N 2487.64 -0.862479 1.31905 0
M  V30 25267 C 2488.88 -1.63002 1.23327 0
M  V30 25268 C 2489.25 -1.90916 -0.203691 0
M  V30 25269 O 2490.45 -2.65607 -0.413085 0
M  V30 25270 C 2488.72 -2.91974 2.06121 0
M  V30 25271 S 2490.28 -3.82808 2.14484 0
M  V30 25272 H 2487.1 -0.559186 0.439127 0
M  V30 25273 H 2489.7 -1.022 1.6666 0
M  V30 25274 H 2488.4 -2.69402 3.09598 0
M  V30 25275 H 2487.93 -3.57798 1.63536 0
M  V30 25276 H 2489.95 -4.79175 1.28863 0
M  V30 25277 N 2489.12 -1.14988 -1.07775 0
M  V30 25278 C 2490.37 -0.923454 -1.80555 0
M  V30 25279 C 2490.7 0.548304 -1.86299 0
M  V30 25280 O 2489.97 1.40637 -1.34356 0
M  V30 25281 C 2490.26 -1.53305 -3.25837 0
M  V30 25282 C 2490.11 -3.07511 -3.28264 0
M  V30 25283 C 2491.43 -1.21526 -4.22989 0
M  V30 25284 H 2488.55 -0.336906 -0.655487 0
M  V30 25285 H 2491.19 -1.42085 -1.26142 0
M  V30 25286 H 2489.34 -1.11006 -3.72304 0
M  V30 25287 H 2491.01 -3.58686 -2.90073 0
M  V30 25288 H 2489.26 -3.41624 -2.67349 0
M  V30 25289 H 2489.93 -3.45274 -4.30685 0
M  V30 25290 H 2492.4 -1.58107 -3.84891 0
M  V30 25291 H 2491.28 -1.66802 -5.22942 0
M  V30 25292 H 2491.54 -0.131582 -4.41904 0
M  V30 25293 N 2490.6 1.26049 -0.946007 0
M  V30 25294 C 2492.01 1.75456 -0.638127 0
M  V30 25295 C 2492.36 1.76993 0.846641 0
M  V30 25296 O 2491.49 1.38516 1.66259 0
M  V30 25297 C 2492.08 3.18627 -1.15162 0
M  V30 25298 C 2490.64 3.65627 -0.894068 0
M  V30 25299 C 2489.79 2.44954 -1.29972 0
M  V30 25300 H 2492.74 1.12058 -1.12378 0
M  V30 25301 H 2492.76 3.77098 -0.507681 0
M  V30 25302 H 2492.27 3.17476 -2.23227 0
M  V30 25303 H 2490.37 3.72203 0.171992 0
M  V30 25304 H 2490.48 4.54199 -1.52447 0
M  V30 25305 H 2488.85 2.44367 -0.718121 0
M  V30 25306 H 2489.63 2.46501 -2.3894 0
M  V30 25307 N 2492.08 0.71358 1.4052 0
M  V30 25308 C 2493.32 0.25662 2.02783 0
M  V30 25309 C 2493.68 -1.12824 1.55354 0
M  V30 25310 O 2494.88 -1.68207 2.09666 0
M  V30 25311 C 2493.15 0.331476 3.5586 0
M  V30 25312 S 2494.71 -0.0487932 4.38773 0
M  V30 25313 H 2491.53 0.101946 0.703653 0
M  V30 25314 H 2494.13 0.935355 1.71672 0
M  V30 25315 H 2492.84 1.34105 3.87871 0
M  V30 25316 H 2492.37 -0.365805 3.91696 0
M  V30 25317 H 2494.38 -1.27141 4.79635 0
M  V30 25318 N 2493.55 -1.50749 0.459618 0
M  V30 25319 C 2494.5 -2.29881 -0.354637 0
M  V30 25320 C 2495.5 -1.36674 -1.00083 0
M  V30 25321 O 2496.7 -1.53917 -0.93325 0
M  V30 25322 H 2493.08 -0.74011 -0.133197 0
M  V30 25323 H 2495.05 -2.96533 0.333321 0
M  V30 25324 C 2493.8 -3.16902 -1.43067 0
M  V30 25325 H 2493.12 -3.88524 -0.942813 0
M  V30 25326 H 2494.56 -3.75287 -1.97321 0
M  V30 25327 C 2493.02 -2.33736 -2.42629 0
M  V30 25328 O 2493.55 -2.01244 -3.47654 0
M  V30 25329 N 2491.76 -1.96534 -2.14063 0
M  V30 25330 H 2491.3 -2.23157 -1.28681 0
M  V30 25331 H 2491.26 -1.4119 -2.80914 0
M  V30 25332 N 2495.03 -0.191784 -1.56429 0
M  V30 25333 C 2496.27 0.450064 -1.99384 0
M  V30 25334 C 2496.64 1.59027 -1.07584 0
M  V30 25335 O 2497.84 2.29609 -1.39762 0
M  V30 25336 C 2496.11 0.90155 -3.45842 0
M  V30 25337 S 2497.67 1.5417 -4.10825 0
M  V30 25338 H 2494.49 0.144045 -0.696256 0
M  V30 25339 H 2497.09 -0.29407 -1.93276 0
M  V30 25340 H 2495.79 0.0615875 -4.10354 0
M  V30 25341 H 2495.32 1.67923 -3.5576 0
M  V30 25342 H 2497.34 2.83038 -4.07558 0
M  V30 25343 N 2496.51 1.57387 0.0818378 0
M  V30 25344 C 2497.46 2.0402 1.11708 0
M  V30 25345 C 2498.45 0.943665 1.40682 0
M  V30 25346 O 2499.66 1.12881 1.40207 0
M  V30 25347 H 2496.03 0.650365 0.377531 0
M  V30 25348 H 2498 2.90132 0.697563 0
M  V30 25349 C 2496.75 2.49145 2.42533 0
M  V30 25350 H 2496.08 3.33108 2.21086 0
M  V30 25351 H 2497.52 2.85536 3.13441 0
M  V30 25352 C 2495.98 1.37019 3.07778 0
M  V30 25353 O 2496.51 0.706691 3.95435 0
M  V30 25354 N 2494.71 1.11784 2.6824 0
M  V30 25355 H 2494.26 1.6592 1.97049 0
M  V30 25356 H 2494.22 0.369649 3.12219 0
M  V30 25357 N 2497.99 -0.35299 1.53596 0
M  V30 25358 C 2499.24 -1.09212 1.70051 0
M  V30 25359 C 2499.56 -1.89462 0.46144 0
M  V30 25360 O 2498.83 -1.88745 -0.5246 0
M  V30 25361 H 2497.41 -0.406179 0.626919 0
M  V30 25362 H 2500.07 -0.396551 1.90823 0
M  V30 25363 H 2499.17 -1.77484 2.56722 0
M  V30 25364 N 2499.47 -1.45169 -0.613489 0
M  V30 25365 C 2500.42 -1.49818 -1.71868 0
M  V30 25366 C 2501.4 -0.362049 -1.56774 0
M  V30 25367 O 2502.59 -0.608522 -1.66211 0
M  V30 25368 C 2499.72 -1.46212 -3.10607 0
M  V30 25369 C 2498.81 -2.65005 -3.31109 0
M  V30 25370 N 2499.2 -3.90148 -3.21897 0
M  V30 25371 C 2497.5 -2.60576 -3.61961 0
M  V30 25372 C 2498.2 -4.69399 -3.43569 0
M  V30 25373 N 2497.17 -4.00757 -3.6728 0
M  V30 25374 H 2500.98 -2.44403 -1.63231 0
M  V30 25375 H 2498.49 -1.40379 -0.816552 0
M  V30 25376 H 2500.49 -1.47627 -3.89887 0
M  V30 25377 H 2499.15 -0.526786 -3.20398 0
M  V30 25378 H 2500.16 -4.21857 -3.00428 0
M  V30 25379 H 2496.84 -1.75923 -3.78626 0
M  V30 25380 H 2498.23 -5.78412 -3.4189 0
M  V30 25381 N 2500.95 0.855472 -1.32361 0
M  V30 25382 C 2502.17 1.64729 -1.26013 0
M  V30 25383 C 2502.6 1.87339 0.169035 0
M  V30 25384 O 2501.95 1.42558 1.12013 0
M  V30 25385 C 2502 2.98425 -2.02422 0
M  V30 25386 O 2501.11 3.88927 -1.37147 0
M  V30 25387 H 2500.45 0.502245 -0.434334 0
M  V30 25388 H 2502.98 1.06555 -1.74663 0
M  V30 25389 H 2502.99 3.48253 -2.12565 0
M  V30 25390 H 2501.66 2.8129 -3.06348 0
M  V30 25391 H 2500.24 3.47393 -1.35546 0
M  V30 25392 N 2502.42 1.15558 1.07164 0
M  V30 25393 C 2503.37 0.849938 2.16515 0
M  V30 25394 C 2504.37 -0.177424 1.68468 0
M  V30 25395 O 2505.57 -0.032271 1.79971 0
M  V30 25396 H 2501.95 0.257203 0.706648 0
M  V30 25397 H 2503.92 1.77981 2.39511 0
M  V30 25398 C 2502.67 0.357743 3.45855 0
M  V30 25399 H 2501.99 1.13968 3.83212 0
M  V30 25400 H 2503.43 0.182563 4.23607 0
M  V30 25401 C 2501.89 -0.921096 3.24064 0
M  V30 25402 O 2502.42 -1.99223 3.48816 0
M  V30 25403 N 2500.62 -0.861361 2.77541 0
M  V30 25404 H 2500.17 0.0104861 2.57598 0
M  V30 25405 H 2500.13 -1.71754 2.6334 0
M  V30 25406 N 2503.9 -1.25546 0.952678 0
M  V30 25407 C 2504.83 -2.25156 0.428648 0
M  V30 25408 C 2505.85 -1.5633 -0.4544 0
M  V30 25409 O 2507.04 -1.76552 -0.262992 0
M  V30 25410 C 2504.14 -3.36508 -0.401912 0
M  V30 25411 C 2503.31 -4.34893 0.467678 0
M  V30 25412 C 2502.37 -5.25319 -0.304358 0
M  V30 25413 O 2501.39 -5.68427 0.296573 0
M  V30 25414 N 2502.6 -5.58073 -1.59796 0
M  V30 25415 H 2505.36 -2.70754 1.28501 0
M  V30 25416 H 2502.92 -1.39432 0.822823 0
M  V30 25417 H 2504.91 -3.93962 -0.926065 0
M  V30 25418 H 2503.48 -2.90315 -1.15913 0
M  V30 25419 H 2502.7 -3.76345 1.17295 0
M  V30 25420 H 2503.99 -4.97609 1.06128 0
M  V30 25421 H 2503.39 -5.24952 -2.10813 0
M  V30 25422 H 2501.95 -6.1812 -2.06811 0
M  V30 25423 N 2505.38 -0.721022 -1.40139 0
M  V30 25424 C 2506.62 -0.26737 -2.02644 0
M  V30 25425 C 2506.98 1.11998 -1.5595 0
M  V30 25426 O 2508.18 1.67093 -2.10555 0
M  V30 25427 C 2506.46 -0.350344 -3.55679 0
M  V30 25428 S 2508.01 0.0255233 -4.38793 0
M  V30 25429 H 2504.83 -0.105676 -0.703103 0
M  V30 25430 H 2507.43 -0.944446 -1.71174 0
M  V30 25431 H 2506.14 -1.3616 -3.87155 0
M  V30 25432 H 2505.67 0.345027 -3.91884 0
M  V30 25433 H 2507.68 1.24596 -4.80302 0
M  V30 25434 N 2506.86 1.50503 -0.467606 0
M  V30 25435 C 2507.79 2.26281 0.364615 0
M  V30 25436 C 2508.8 1.31474 0.960128 0
M  V30 25437 O 2509.99 1.5701 0.849126 0
M  V30 25438 C 2507.09 3.02648 1.52503 0
M  V30 25439 C 2506.26 4.24784 1.04294 0
M  V30 25440 C 2505.32 4.83474 2.077 0
M  V30 25441 O 2504.35 5.44486 1.65903 0
M  V30 25442 N 2505.55 4.70165 3.40477 0
M  V30 25443 H 2508.32 2.98342 -0.285002 0
M  V30 25444 H 2505.88 1.5913 -0.298191 0
M  V30 25445 H 2507.87 3.38791 2.21365 0
M  V30 25446 H 2506.44 2.33408 2.07941 0
M  V30 25447 H 2505.66 3.93787 0.180324 0
M  V30 25448 H 2506.95 5.0398 0.69871 0
M  V30 25449 H 2506.35 4.21636 3.77147 0
M  V30 25450 H 2504.9 5.10587 4.05147 0
M  V30 25451 N 2508.34 0.200077 1.56325 0
M  V30 25452 C 2509.61 -0.485256 1.89485 0
M  V30 25453 C 2509.99 -1.79292 1.11434 0
M  V30 25454 O 2509.34 -2.27468 0.216959 0
M  V30 25455 C 2509.55 -0.699183 3.41925 0
M  V30 25456 C 2510.9 -1.01631 4.12258 0
M  V30 25457 O 2511.92 -0.786731 3.47403 0
M  V30 25458 O 2510.78 -1.45086 5.26889 0
M  V30 25459 H 2507.88 -0.253625 0.787149 0
M  V30 25460 H 2510.42 0.240662 1.67985 0
M  V30 25461 H 2509.19 0.224077 3.90658 0
M  V30 25462 H 2508.82 -1.47738 3.69133 0
M  V30 25463 N 2509.81 -1.57429 -0.0734901 0
M  V30 25464 C 2511.06 -1.86797 -0.77144 0
M  V30 25465 C 2511.38 -0.791835 -1.78199 0
M  V30 25466 O 2510.65 0.179684 -1.95074 0
M  V30 25467 H 2509.23 -0.689292 -0.287898 0
M  V30 25468 H 2511.89 -1.94836 -0.0499818 0
M  V30 25469 H 2510.99 -2.84252 -1.28869 0
M  V30 25470 N 2511.29 0.344839 -1.53781 0
M  V30 25471 C 2512.52 1.10974 -1.75213 0
M  V30 25472 C 2512.94 1.81622 -0.489392 0
M  V30 25473 O 2512.3 1.72503 0.557895 0
M  V30 25474 C 2512.35 2.09988 -2.93151 0
M  V30 25475 O 2511.45 3.17482 -2.63209 0
M  V30 25476 H 2510.79 0.321011 -0.581247 0
M  V30 25477 H 2513.32 0.395626 -2.00739 0
M  V30 25478 H 2513.33 2.53232 -3.19903 0
M  V30 25479 H 2512.01 1.57963 -3.84734 0
M  V30 25480 H 2510.58 2.79065 -2.4734 0
M  V30 25481 N 2512.77 1.45492 0.605781 0
M  V30 25482 C 2514.02 1.49308 1.36204 0
M  V30 25483 C 2514.34 0.136897 1.94519 0
M  V30 25484 O 2513.61 -0.833952 1.77263 0
M  V30 25485 H 2512.19 0.549852 0.50564 0
M  V30 25486 H 2514.85 1.8146 0.711208 0
M  V30 25487 H 2513.95 2.2329 2.18055 0
M  V30 25488 N 2514.25 -0.848441 1.32813 0
M  V30 25489 C 2515.5 -1.59796 1.23078 0
M  V30 25490 C 2515.81 -1.94529 -0.204385 0
M  V30 25491 O 2517.02 -2.68174 -0.423654 0
M  V30 25492 C 2515.47 -2.88175 2.15599 0
M  V30 25493 C 2515.08 -2.60843 3.64232 0
M  V30 25494 C 2516.82 -3.66193 2.14715 0
M  V30 25495 C 2514.73 -3.85261 4.48696 0
M  V30 25496 H 2513.66 -0.599645 0.457101 0
M  V30 25497 H 2516.31 -0.936314 1.57814 0
M  V30 25498 H 2514.69 -3.5583 1.73784 0
M  V30 25499 H 2515.87 -2.0146 4.14428 0
M  V30 25500 H 2514.18 -1.96144 3.6731 0
M  V30 25501 H 2516.78 -4.58529 2.75054 0
M  V30 25502 H 2517.12 -4.00395 1.13973 0
M  V30 25503 H 2517.66 -3.05451 2.54842 0
M  V30 25504 H 2514.4 -3.56197 5.50276 0
M  V30 25505 H 2513.92 -4.44017 4.03248 0
M  V30 25506 H 2515.59 -4.52938 4.62014 0
M  V30 25507 N 2515.73 -1.16125 -1.06549 0
M  V30 25508 C 2516.97 -0.951798 -1.80887 0
M  V30 25509 C 2517.33 0.511432 -1.85063 0
M  V30 25510 O 2518.53 0.839495 -2.55354 0
M  V30 25511 C 2516.8 -1.55899 -3.21606 0
M  V30 25512 S 2518.36 -1.49381 -4.1259 0
M  V30 25513 H 2515.18 -0.342352 -0.62315 0
M  V30 25514 H 2517.78 -1.47823 -1.2794 0
M  V30 25515 H 2516.49 -2.6167 -3.1616 0
M  V30 25516 H 2516.02 -1.03177 -3.79629 0
M  V30 25517 H 2518.03 -0.492282 -4.93752 0
M  V30 25518 N 2517.2 1.25039 -0.959323 0
M  V30 25519 C 2518.45 1.93168 -0.617559 0
M  V30 25520 C 2518.78 1.74903 0.843951 0
M  V30 25521 O 2518.06 1.09699 1.60613 0
M  V30 25522 C 2518.34 3.46429 -0.982796 0
M  V30 25523 C 2518.19 3.739 -2.50038 0
M  V30 25524 C 2519.51 4.3712 -0.511253 0
M  V30 25525 H 2516.63 0.701548 -0.225832 0
M  V30 25526 H 2519.27 1.47568 -1.19682 0
M  V30 25527 H 2517.42 3.85399 -0.489874 0
M  V30 25528 H 2519.1 3.44538 -3.06743 0
M  V30 25529 H 2517.34 3.19342 -2.93603 0
M  V30 25530 H 2518.01 4.81099 -2.70644 0
M  V30 25531 H 2520.49 4.05479 -0.934146 0
M  V30 25532 H 2519.36 5.43106 -0.795456 0
M  V30 25533 H 2519.62 4.38162 0.588757 0
M  V30 25534 N 2518.68 0.728444 1.39755 0
M  V30 25535 C 2519.63 0.0732258 2.32485 0
M  V30 25536 C 2520.62 -0.733036 1.52718 0
M  V30 25537 O 2521.83 -0.634958 1.68429 0
M  V30 25538 H 2518.21 0.00487791 0.751984 0
M  V30 25539 H 2520.18 0.871811 2.8538 0
M  V30 25540 C 2518.93 -0.824848 3.37774 0
M  V30 25541 H 2518.25 -0.213844 3.99228 0
M  V30 25542 H 2519.69 -1.25103 4.05124 0
M  V30 25543 C 2518.15 -1.95617 2.74291 0
M  V30 25544 O 2518.68 -3.04822 2.61623 0
M  V30 25545 N 2516.88 -1.74363 2.32478 0
M  V30 25546 H 2516.43 -0.855451 2.42981 0
M  V30 25547 H 2516.39 -2.50235 1.90341 0
M  V30 25548 N 2520.16 -1.50253 0.475581 0
M  V30 25549 C 2521.4 -2.04257 -0.0765443 0
M  V30 25550 C 2521.76 -1.34939 -1.36585 0
M  V30 25551 O 2522.97 -1.79523 -2.00063 0
M  V30 25552 C 2521.24 -3.56513 -0.251605 0
M  V30 25553 S 2522.8 -4.32139 -0.76164 0
M  V30 25554 H 2519.61 -0.710865 -0.0138331 0
M  V30 25555 H 2522.22 -1.84597 0.643746 0
M  V30 25556 H 2520.92 -4.04516 0.692476 0
M  V30 25557 H 2520.45 -3.80534 -0.997879 0
M  V30 25558 H 2522.47 -4.52576 -2.03443 0
M  V30 25559 N 2521.64 -0.208365 -1.56217 0
M  V30 25560 C 2522.57 0.739238 -2.16951 0
M  V30 25561 C 2523.58 1.16718 -1.13494 0
M  V30 25562 O 2524.77 1.10061 -1.40531 0
M  V30 25563 C 2521.87 2.01137 -2.72758 0
M  V30 25564 C 2521.05 1.74111 -4.01253 0
M  V30 25565 C 2520.1 2.85901 -4.41754 0
M  V30 25566 O 2519.13 2.54937 -5.08916 0
M  V30 25567 N 2520.33 4.14561 -4.06349 0
M  V30 25568 H 2523.1 0.219784 -2.98893 0
M  V30 25569 H 2520.66 -0.026873 -1.61878 0
M  V30 25570 H 2522.65 2.75089 -2.96831 0
M  V30 25571 H 2521.22 2.44167 -1.95195 0
M  V30 25572 H 2520.44 0.838707 -3.85174 0
M  V30 25573 H 2521.73 1.53469 -4.85103 0
M  V30 25574 H 2521.13 4.42565 -3.52353 0
M  V30 25575 H 2519.68 4.85098 -4.35343 0
M  V30 25576 N 2523.12 1.57465 0.0651402 0
M  V30 25577 C 2524.07 2.00596 1.08376 0
M  V30 25578 C 2525.05 0.889095 1.34104 0
M  V30 25579 O 2526.24 1.15301 1.34293 0
M  V30 25580 C 2523.37 2.45898 2.3956 0
M  V30 25581 C 2522.46 3.64332 2.17078 0
M  V30 25582 N 2522.85 4.78287 1.64544 0
M  V30 25583 C 2521.15 3.7101 2.47523 0
M  V30 25584 C 2521.85 5.60103 1.57032 0
M  V30 25585 N 2520.82 5.04145 2.0332 0
M  V30 25586 H 2524.63 2.86137 0.671011 0
M  V30 25587 H 2522.14 1.60104 0.272102 0
M  V30 25588 H 2524.14 2.75039 3.13304 0
M  V30 25589 H 2522.8 1.61746 2.81546 0
M  V30 25590 H 2523.81 5.00447 1.33314 0
M  V30 25591 H 2520.48 2.97585 2.9283 0
M  V30 25592 H 2521.87 6.61597 1.17211 0
M  V30 25593 N 2524.59 -0.336679 1.53962 0
M  V30 25594 C 2525.54 -1.43398 1.83139 0
M  V30 25595 C 2526.54 -1.54154 0.70234 0
M  V30 25596 O 2527.74 -1.56696 0.885792 0
M  V30 25597 H 2524.12 -0.478263 0.580318 0
M  V30 25598 H 2526.09 -1.16007 2.74927 0
M  V30 25599 C 2524.84 -2.79819 2.0639 0
M  V30 25600 H 2524.16 -2.72311 2.92723 0
M  V30 25601 H 2525.6 -3.557 2.30767 0
M  V30 25602 C 2524.06 -3.25963 0.851472 0
M  V30 25603 O 2524.59 -4.01663 0.054261 0
M  V30 25604 N 2522.8 -2.82847 0.66677 0
M  V30 25605 H 2522.34 -2.21407 1.31669 0
M  V30 25606 H 2522.3 -3.14075 -0.142977 0
M  V30 25607 N 2526.07 -1.45812 -0.598057 0
M  V30 25608 C 2527.3 -1.53868 -1.38319 0
M  V30 25609 C 2527.72 -0.174512 -1.87992 0
M  V30 25610 O 2527.07 0.825599 -1.62758 0
M  V30 25611 C 2527.12 -2.53093 -2.5812 0
M  V30 25612 O 2526.84 -3.8421 -2.1051 0
M  V30 25613 C 2528.35 -2.70941 -3.50864 0
M  V30 25614 H 2525.57 -0.520808 -0.423083 0
M  V30 25615 H 2528.11 -1.91084 -0.728494 0
M  V30 25616 H 2526.26 -2.18923 -3.19611 0
M  V30 25617 H 2526.68 -4.38082 -2.88417 0
M  V30 25618 H 2528.15 -3.44324 -4.31445 0
M  V30 25619 H 2528.63 -1.77308 -4.01819 0
M  V30 25620 H 2529.24 -3.06146 -2.9522 0
M  V30 25621 N 2527.55 0.841385 -1.33261 0
M  V30 25622 C 2528.51 1.93257 -1.23224 0
M  V30 25623 C 2529.51 1.60081 -0.151923 0
M  V30 25624 O 2530.7 1.69468 -0.403276 0
M  V30 25625 C 2527.84 3.28855 -0.89818 0
M  V30 25626 H 2529.03 2.03583 -2.20214 0
M  V30 25627 H 2526.58 1.03317 -1.17283 0
M  V30 25628 H 2527.32 3.24226 0.0693271 0
M  V30 25629 H 2527.1 3.54314 -1.6794 0
M  V30 25630 H 2528.59 4.08803 -0.852635 0
M  V30 25631 N 2529.03 1.16688 1.05932 0
M  V30 25632 C 2530.28 0.948775 1.78445 0
M  V30 25633 C 2530.6 -0.52449 1.87814 0
M  V30 25634 O 2529.87 -1.38096 1.38948 0
M  V30 25635 H 2528.45 0.348044 0.660965 0
M  V30 25636 H 2531.11 1.47025 1.27944 0
M  V30 25637 H 2530.21 1.37066 2.80392 0
M  V30 25638 N 2530.51 -1.24529 0.96594 0
M  V30 25639 C 2531.42 -2.29162 0.502194 0
M  V30 25640 C 2532.43 -1.68449 -0.435987 0
M  V30 25641 O 2533.61 -1.99008 -0.309462 0
M  V30 25642 C 2530.67 -3.46112 -0.201895 0
M  V30 25643 C 2529.74 -4.2223 0.775895 0
M  V30 25644 C 2528.97 -5.33596 0.105311 0
M  V30 25645 O 2529.19 -5.5956 -1.10674 0
M  V30 25646 O 2528.13 -5.96606 0.796579 0
M  V30 25647 H 2531.95 -2.70943 1.37199 0
M  V30 25648 H 2529.54 -1.30188 0.732898 0
M  V30 25649 H 2531.42 -4.17143 -0.59749 0
M  V30 25650 H 2530.09 -3.06311 -1.04668 0
M  V30 25651 H 2529 -3.53582 1.22191 0
M  V30 25652 H 2530.33 -4.65844 1.58904 0
M  V30 25653 N 2531.99 -0.735845 -1.39367 0
M  V30 25654 C 2532.94 -0.0724687 -2.27885 0
M  V30 25655 C 2533.92 0.711731 -1.44302 0
M  V30 25656 O 2535.11 0.580601 -1.67207 0
M  V30 25657 C 2532.24 0.833396 -3.33031 0
M  V30 25658 C 2531.33 0.0433003 -4.24078 0
M  V30 25659 N 2531.72 -0.98399 -4.96136 0
M  V30 25660 C 2530.02 0.272827 -4.45165 0
M  V30 25661 C 2530.72 -1.4605 -5.63067 0
M  V30 25662 N 2529.69 -0.778951 -5.3799 0
M  V30 25663 H 2533.49 -0.859516 -2.81051 0
M  V30 25664 H 2531.01 -0.570254 -1.52059 0
M  V30 25665 H 2533.01 1.32412 -3.95313 0
M  V30 25666 H 2531.67 1.61959 -2.81424 0
M  V30 25667 H 2532.68 -1.36537 -4.99578 0
M  V30 25668 H 2529.35 1.03376 -4.04499 0
M  V30 25669 H 2530.74 -2.31522 -6.30751 0
M  V30 25670 N 2533.46 1.49999 -0.483543 0
M  V30 25671 C 2534.7 2.04294 0.065711 0
M  V30 25672 C 2535.07 1.35662 1.35867 0
M  V30 25673 O 2536.27 1.80581 1.99108 0
M  V30 25674 C 2534.54 3.56642 0.232695 0
M  V30 25675 S 2536.1 4.32537 0.738712 0
M  V30 25676 H 2532.92 0.710929 0.010063 0
M  V30 25677 H 2535.52 1.84253 -0.653527 0
M  V30 25678 H 2534.22 4.04143 -0.713918 0
M  V30 25679 H 2533.75 3.81058 0.977684 0
M  V30 25680 H 2535.77 4.53649 2.0104 0
M  V30 25681 N 2534.94 0.216646 1.56104 0
M  V30 25682 C 2535.85 -0.706943 2.23695 0
M  V30 25683 C 2536.87 -1.21763 1.24297 0
M  V30 25684 O 2538.04 -1.26027 1.57096 0
M  V30 25685 C 2535.11 -1.90028 2.89983 0
M  V30 25686 C 2534.17 -1.43205 4.04711 0
M  V30 25687 C 2533.4 -2.56851 4.67828 0
M  V30 25688 O 2533.63 -3.74867 4.2992 0
M  V30 25689 O 2532.56 -2.28333 5.56909 0
M  V30 25690 H 2536.39 -0.161181 3.03272 0
M  V30 25691 H 2533.97 -0.0135914 1.49394 0
M  V30 25692 H 2535.85 -2.59729 3.31841 0
M  V30 25693 H 2534.53 -2.43424 2.1337 0
M  V30 25694 H 2533.43 -0.703205 3.67431 0
M  V30 25695 H 2534.77 -0.94453 4.83052 0
M  V30 25696 N 2536.42 -1.57498 -0.0567885 0
M  V30 25697 C 2537.84 -1.54193 -0.411906 0
M  V30 25698 C 2538.04 -0.938973 -1.78285 0
M  V30 25699 O 2537.09 -0.547962 -2.46483 0
M  V30 25700 C 2538.4 -2.98781 -0.339191 0
M  V30 25701 C 2539.95 -3.10192 -0.418294 0
M  V30 25702 C 2540.43 -4.5646 -0.375327 0
M  V30 25703 N 2541.92 -4.61153 -0.434957 0
M  V30 25704 C 2542.65 -5.71829 -0.424164 0
M  V30 25705 N 2542.15 -6.91826 -0.367297 0
M  V30 25706 N 2543.94 -5.60116 -0.471839 0
M  V30 25707 H 2536.09 -1.95053 0.840718 0
M  V30 25708 H 2538.36 -0.893428 0.317003 0
M  V30 25709 H 2538.06 -3.46513 0.601803 0
M  V30 25710 H 2537.94 -3.59445 -1.14364 0
M  V30 25711 H 2540.32 -2.62425 -1.34971 0
M  V30 25712 H 2540.4 -2.52411 0.415006 0
M  V30 25713 H 2540.05 -5.04888 0.552308 0
M  V30 25714 H 2539.98 -5.12121 -1.22636 0
M  V30 25715 H 2542.47 -3.74806 -0.482546 0
M  V30 25716 H 2542.78 -7.71945 -0.3634 0
M  V30 25717 H 2541.13 -6.94198 -0.333757 0
M  V30 25718 H 2544.32 -4.65269 -0.514064 0
M  V30 25719 H 2544.49 -6.46366 -0.459959 0
M  V30 25720 N 2537.9 0.328509 -1.54138 0
M  V30 25721 C 2539.14 1.07531 -1.73829 0
M  V30 25722 C 2539.5 1.85407 -0.498809 0
M  V30 25723 O 2540.7 2.62622 -0.572983 0
M  V30 25724 C 2538.97 1.97947 -2.97576 0
M  V30 25725 S 2540.53 2.79646 -3.38148 0
M  V30 25726 H 2537.35 0.363099 -0.611294 0
M  V30 25727 H 2539.95 0.351897 -1.92307 0
M  V30 25728 H 2538.66 1.39562 -3.85941 0
M  V30 25729 H 2538.19 2.74701 -2.81607 0
M  V30 25730 H 2540.2 4.00413 -2.93059 0
M  V30 25731 N 2539.38 1.46127 0.590316 0
M  V30 25732 C 2540.31 1.52139 1.71424 0
M  V30 25733 C 2541.32 0.410447 1.57541 0
M  V30 25734 O 2542.51 0.678418 1.65105 0
M  V30 25735 C 2539.61 1.3784 3.09602 0
M  V30 25736 C 2538.78 2.62918 3.49561 0
M  V30 25737 C 2537.84 2.42927 4.66769 0
M  V30 25738 O 2536.87 3.16618 4.73013 0
M  V30 25739 N 2538.07 1.486 5.61158 0
M  V30 25740 H 2540.83 2.49045 1.66724 0
M  V30 25741 H 2538.4 1.42086 0.776088 0
M  V30 25742 H 2540.39 1.22249 3.85794 0
M  V30 25743 H 2538.96 0.491448 3.08713 0
M  V30 25744 H 2538.18 2.93504 2.63153 0
M  V30 25745 H 2539.47 3.46023 3.73022 0
M  V30 25746 H 2538.86 0.878178 5.58842 0
M  V30 25747 H 2537.42 1.38976 6.36812 0
M  V30 25748 N 2540.85 -0.834306 1.33705 0
M  V30 25749 C 2541.76 -1.97646 1.26385 0
M  V30 25750 C 2542.78 -1.73132 0.173579 0
M  V30 25751 O 2543.96 -1.97428 0.397996 0
M  V30 25752 C 2541.02 -3.31731 1.00774 0
M  V30 25753 C 2540.08 -3.6933 2.18847 0
M  V30 25754 C 2539.31 -4.97017 1.94448 0
M  V30 25755 O 2539.54 -5.63302 0.89706 0
M  V30 25756 O 2538.47 -5.32226 2.81103 0
M  V30 25757 H 2542.3 -2.06763 2.22447 0
M  V30 25758 H 2539.88 -0.968017 1.13797 0
M  V30 25759 H 2541.76 -4.12061 0.882259 0
M  V30 25760 H 2540.44 -3.23607 0.0774352 0
M  V30 25761 H 2539.35 -2.89491 2.36951 0
M  V30 25762 H 2540.68 -3.82125 3.10228 0
M  V30 25763 N 2542.33 -1.17248 -1.05312 0
M  V30 25764 C 2543.58 -0.958225 -1.77939 0
M  V30 25765 C 2543.9 0.514523 -1.8809 0
M  V30 25766 O 2543.17 1.37357 -1.39678 0
M  V30 25767 H 2541.75 -0.351545 -0.659109 0
M  V30 25768 H 2544.41 -1.47701 -1.27163 0
M  V30 25769 H 2543.51 -1.38551 -2.79661 0
M  V30 25770 N 2543.81 1.24015 -0.972531 0
M  V30 25771 C 2545.04 1.95979 -0.653888 0
M  V30 25772 C 2545.45 1.72293 0.781771 0
M  V30 25773 O 2544.79 1.00646 1.53675 0
M  V30 25774 C 2544.85 3.49193 -0.85467 0
M  V30 25775 C 2544.52 3.96585 -2.27089 0
M  V30 25776 C 2545.51 4.05878 -3.24899 0
M  V30 25777 C 2543.2 4.29781 -2.59988 0
M  V30 25778 C 2545.19 4.47708 -4.53692 0
M  V30 25779 C 2542.88 4.71294 -3.89005 0
M  V30 25780 C 2543.88 4.80223 -4.85669 0
M  V30 25781 O 2543.57 5.20807 -6.12385 0
M  V30 25782 H 2543.3 0.630975 -0.242583 0
M  V30 25783 H 2545.85 1.5867 -1.30433 0
M  V30 25784 H 2544.08 3.8642 -0.147053 0
M  V30 25785 H 2545.77 4.02367 -0.534382 0
M  V30 25786 H 2546.54 3.80443 -3.00812 0
M  V30 25787 H 2542.42 4.22047 -1.85464 0
M  V30 25788 H 2545.96 4.54592 -5.29143 0
M  V30 25789 H 2541.86 4.96177 -4.12891 0
M  V30 25790 H 2542.63 5.38943 -6.16022 0
M  V30 25791 N 2545.29 0.743226 1.38974 0
M  V30 25792 C 2546.52 0.304843 2.04339 0
M  V30 25793 C 2546.93 -1.06816 1.56163 0
M  V30 25794 O 2546.27 -1.68775 0.725314 0
M  V30 25795 C 2546.33 0.237432 3.58715 0
M  V30 25796 C 2546 1.55026 4.29902 0
M  V30 25797 C 2546.99 2.49752 4.55982 0
M  V30 25798 C 2544.68 1.81683 4.68291 0
M  V30 25799 C 2546.67 3.69362 5.19471 0
M  V30 25800 C 2544.36 3.01569 5.31507 0
M  V30 25801 C 2545.36 3.95229 5.5703 0
M  V30 25802 O 2545.04 5.13009 6.18932 0
M  V30 25803 H 2544.78 0.129721 0.663437 0
M  V30 25804 H 2547.33 1.01005 1.7885 0
M  V30 25805 H 2545.56 -0.523935 3.83134 0
M  V30 25806 H 2547.25 -0.17005 4.05544 0
M  V30 25807 H 2548.02 2.3043 4.26763 0
M  V30 25808 H 2543.89 1.09623 4.47777 0
M  V30 25809 H 2547.44 4.42483 5.3931 0
M  V30 25810 H 2543.34 3.20788 5.60147 0
M  V30 25811 H 2544.1 5.13453 6.37424 0
M  V30 25812 N 2546.77 -1.4974 0.491491 0
M  V30 25813 C 2548.01 -2.02022 -0.0562786 0
M  V30 25814 C 2548.34 -1.37409 -1.38361 0
M  V30 25815 O 2547.61 -0.5262 -1.88701 0
M  V30 25816 H 2546.19 -0.746621 -0.0237883 0
M  V30 25817 H 2548.85 -1.83863 0.646565 0
M  V30 25818 H 2547.94 -3.11503 -0.192912 0
M  V30 25819 N 2548.24 -0.224922 -1.55987 0
M  V30 25820 C 2549.19 0.700244 -2.21809 0
M  V30 25821 C 2550.19 1.19712 -1.19856 0
M  V30 25822 O 2551.39 1.15655 -1.37927 0
M  V30 25823 H 2547.77 0.244245 -0.71123 0
M  V30 25824 H 2549.74 0.121696 -2.98152 0
M  V30 25825 C 2548.49 1.89615 -2.91447 0
M  V30 25826 H 2547.81 1.52293 -3.69658 0
M  V30 25827 H 2549.25 2.52119 -3.40899 0
M  V30 25828 C 2547.71 2.75365 -1.94103 0
M  V30 25829 O 2548.24 3.74224 -1.4601 0
M  V30 25830 N 2546.45 2.41471 -1.61679 0
M  V30 25831 H 2545.99 1.61133 -2.00982 0
M  V30 25832 H 2545.95 2.99124 -0.968089 0
M  V30 25833 N 2549.72 1.57526 0.0484352 0
M  V30 25834 C 2550.69 2.04271 1.03952 0
M  V30 25835 C 2551.69 0.943519 1.30209 0
M  V30 25836 O 2552.88 1.20773 1.25537 0
M  V30 25837 C 2550.01 2.44323 2.37737 0
M  V30 25838 H 2551.2 2.93076 0.63613 0
M  V30 25839 H 2548.75 1.53495 0.294784 0
M  V30 25840 H 2549.49 1.58615 2.82863 0
M  V30 25841 H 2549.27 3.24555 2.20015 0
M  V30 25842 H 2550.76 2.80983 3.08931 0
M  V30 25843 N 2551.2 -0.32033 1.5431 0
M  V30 25844 C 2552.45 -1.05946 1.72926 0
M  V30 25845 C 2552.78 -1.87567 0.503218 0
M  V30 25846 O 2552.05 -1.87969 -0.499806 0
M  V30 25847 C 2552.34 -1.9815 3.0068 0
M  V30 25848 C 2552.19 -1.19838 4.33542 0
M  V30 25849 C 2553.51 -2.97625 3.24203 0
M  V30 25850 H 2550.63 -0.383763 0.629202 0
M  V30 25851 H 2553.27 -0.335821 1.87009 0
M  V30 25852 H 2551.42 -2.59854 2.88804 0
M  V30 25853 H 2553.09 -0.605693 4.57306 0
M  V30 25854 H 2551.34 -0.500708 4.30901 0
M  V30 25855 H 2552.01 -1.87558 5.19159 0
M  V30 25856 H 2554.48 -2.46044 3.35562 0
M  V30 25857 H 2553.36 -3.59322 4.14945 0
M  V30 25858 H 2553.62 -3.70256 2.41584 0
M  V30 25859 N 2552.68 -1.46438 -0.582558 0
M  V30 25860 C 2553.63 -1.53429 -1.68652 0
M  V30 25861 C 2554.61 -0.395221 -1.55971 0
M  V30 25862 O 2555.8 -0.643641 -1.64883 0
M  V30 25863 C 2552.93 -1.52768 -3.07436 0
M  V30 25864 C 2552.02 -2.71969 -3.25413 0
M  V30 25865 N 2552.41 -3.96888 -3.13549 0
M  V30 25866 C 2550.71 -2.68195 -3.56353 0
M  V30 25867 C 2551.41 -4.76581 -3.33535 0
M  V30 25868 N 2550.39 -4.08457 -3.58697 0
M  V30 25869 H 2554.19 -2.47811 -1.5801 0
M  V30 25870 H 2551.7 -1.42079 -0.786592 0
M  V30 25871 H 2553.7 -1.55864 -3.86668 0
M  V30 25872 H 2552.36 -0.594629 -3.19209 0
M  V30 25873 H 2553.37 -4.28135 -2.91412 0
M  V30 25874 H 2550.05 -1.83915 -3.74809 0
M  V30 25875 H 2551.44 -5.85534 -3.29545 0
M  V30 25876 N 2554.16 0.827204 -1.34146 0
M  V30 25877 C 2555.4 1.58004 -1.26012 0
M  V30 25878 C 2555.73 1.94249 0.170937 0
M  V30 25879 O 2555 1.61929 1.10253 0
M  V30 25880 H 2553.58 0.585873 -0.463424 0
M  V30 25881 H 2556.24 0.987922 -1.68006 0
M  V30 25882 H 2555.33 2.50478 -1.86191 0
M  V30 25883 N 2555.63 1.17805 1.04688 0
M  V30 25884 C 2556.86 0.994845 1.81982 0
M  V30 25885 C 2557.28 -0.45208 1.82587 0
M  V30 25886 O 2556.64 -1.32398 1.23857 0
M  V30 25887 C 2556.69 1.54664 3.25747 0
M  V30 25888 O 2555.79 0.763799 4.05265 0
M  V30 25889 H 2555.14 0.352867 0.562477 0
M  V30 25890 H 2557.67 1.56419 1.31887 0
M  V30 25891 H 2557.68 1.57109 3.76538 0
M  V30 25892 H 2556.35 2.59987 3.24622 0
M  V30 25893 H 2554.93 0.811172 3.6397 0
M  V30 25894 N 2557.11 -1.23497 0.979094 0
M  V30 25895 C 2558.35 -1.93612 0.655262 0
M  V30 25896 C 2558.72 -1.74708 -0.796306 0
M  V30 25897 O 2559.92 -2.38961 -1.2309 0
M  V30 25898 C 2558.19 -3.42133 1.03343 0
M  V30 25899 S 2559.75 -4.30958 0.825869 0
M  V30 25900 H 2556.57 -0.669263 0.240016 0
M  V30 25901 H 2559.17 -1.4961 1.25846 0
M  V30 25902 H 2557.87 -3.53401 2.08652 0
M  V30 25903 H 2557.4 -3.91136 0.421466 0
M  V30 25904 H 2559.42 -4.95347 -0.290904 0
M  V30 25905 N 2558.59 -0.750586 -1.38578 0
M  V30 25906 C 2560.01 -0.427851 -1.53758 0
M  V30 25907 C 2560.21 1.0594 -1.71403 0
M  V30 25908 O 2559.26 1.84546 -1.72334 0
M  V30 25909 C 2560.58 -1.22448 -2.7464 0
M  V30 25910 C 2562.12 -1.21425 -2.88487 0
M  V30 25911 C 2562.6 -1.99378 -4.12326 0
M  V30 25912 N 2564.09 -1.96623 -4.19397 0
M  V30 25913 C 2564.83 -2.53736 -5.14204 0
M  V30 25914 N 2564.32 -3.1955 -6.14703 0
M  V30 25915 N 2566.11 -2.43682 -5.06533 0
M  V30 25916 H 2558.27 -1.7145 -1.25374 0
M  V30 25917 H 2560.53 -0.726656 -0.608831 0
M  V30 25918 H 2560.23 -2.27752 -2.67996 0
M  V30 25919 H 2560.11 -0.839338 -3.67743 0
M  V30 25920 H 2562.5 -0.169284 -2.94614 0
M  V30 25921 H 2562.58 -1.63888 -1.96403 0
M  V30 25922 H 2562.22 -3.03884 -4.0696 0
M  V30 25923 H 2562.15 -1.54311 -5.03484 0
M  V30 25924 H 2564.64 -1.4869 -3.47419 0
M  V30 25925 H 2564.95 -3.60557 -6.83534 0
M  V30 25926 H 2563.3 -3.23644 -6.15045 0
M  V30 25927 H 2566.49 -1.91896 -4.26958 0
M  V30 25928 H 2566.66 -2.88489 -5.8024 0
M  V30 25929 N 2560.07 1.49477 -0.499425 0
M  V30 25930 C 2561.03 2.27618 0.268798 0
M  V30 25931 C 2562.03 1.33566 0.89536 0
M  V30 25932 O 2563.22 1.5674 0.760136 0
M  V30 25933 C 2560.35 3.11474 1.38553 0
M  V30 25934 H 2561.55 2.96989 -0.416865 0
M  V30 25935 H 2559.1 1.54217 -0.254341 0
M  V30 25936 H 2559.84 2.46665 2.10539 0
M  V30 25937 H 2559.62 3.80623 0.94173 0
M  V30 25938 H 2561.11 3.70496 1.92671 0
M  V30 25939 N 2561.55 0.233191 1.55865 0
M  V30 25940 C 2562.79 -0.397043 2.00507 0
M  V30 25941 C 2563.15 -1.56119 1.11763 0
M  V30 25942 O 2564.35 -2.25822 1.458 0
M  V30 25943 C 2562.62 -0.809539 3.48111 0
M  V30 25944 S 2564.18 -1.43224 4.14768 0
M  V30 25945 H 2561 -0.125534 0.69983 0
M  V30 25946 H 2563.6 0.345211 1.92428 0
M  V30 25947 H 2562.31 0.0472322 4.10373 0
M  V30 25948 H 2561.84 -1.58432 3.60087 0
M  V30 25949 H 2563.85 -2.72133 4.14919 0
M  V30 25950 N 2563.03 -1.57549 -0.0400806 0
M  V30 25951 C 2564.44 -1.77197 -0.588066 0
M  V30 25952 C 2564.79 -0.862863 -1.76208 0
M  V30 25953 O 2563.91 -0.0548769 -2.1633 0
M  V30 25954 C 2564.51 -3.21341 -1.07358 0
M  V30 25955 C 2563.07 -3.42223 -1.56717 0
M  V30 25956 C 2562.21 -2.72748 -0.500362 0
M  V30 25957 H 2565.16 -1.57605 0.186147 0
M  V30 25958 H 2565.19 -3.27248 -1.94137 0
M  V30 25959 H 2564.7 -3.87482 -0.218906 0
M  V30 25960 H 2562.8 -2.81242 -2.44405 0
M  V30 25961 H 2562.91 -4.50799 -1.62226 0
M  V30 25962 H 2561.28 -2.36205 -0.952853 0
M  V30 25963 H 2562.06 -3.41565 0.344659 0
M  V30 25964 N 2564.5 0.312142 -1.54478 0
M  V30 25965 C 2565.74 1.05681 -1.7496 0
M  V30 25966 C 2566.11 1.84868 -0.518446 0
M  V30 25967 O 2567.31 2.62 -0.600805 0
M  V30 25968 C 2565.58 1.9478 -2.99659 0
M  V30 25969 S 2567.14 2.76043 -3.41095 0
M  V30 25970 H 2563.96 0.356595 -0.61511 0
M  V30 25971 H 2566.56 0.33148 -1.92669 0
M  V30 25972 H 2565.26 1.35461 -3.874 0
M  V30 25973 H 2564.79 2.71699 -2.84505 0
M  V30 25974 H 2566.81 3.97282 -2.9729 0
M  V30 25975 N 2565.98 1.46745 0.574784 0
M  V30 25976 C 2567.39 1.46534 1.15692 0
M  V30 25977 C 2567.74 0.210459 1.95068 0
M  V30 25978 O 2566.87 -0.685908 2.05242 0
M  V30 25979 C 2567.46 2.65491 2.10476 0
M  V30 25980 C 2566.02 2.68296 2.63997 0
M  V30 25981 C 2565.17 2.39351 1.40022 0
M  V30 25982 H 2568.12 1.54509 0.362298 0
M  V30 25983 H 2568.14 2.4146 2.9407 0
M  V30 25984 H 2567.65 3.56807 1.52677 0
M  V30 25985 H 2565.75 1.81073 3.25643 0
M  V30 25986 H 2565.87 3.68489 3.06191 0
M  V30 25987 H 2564.23 1.89571 1.70102 0
M  V30 25988 H 2565.01 3.32854 0.840427 0
M  V30 25989 N 2567.46 -0.820078 1.34583 0
M  V30 25990 C 2568.41 -1.92011 1.22946 0
M  V30 25991 C 2569.39 -1.60391 0.12783 0
M  V30 25992 O 2570.59 -1.73347 0.357767 0
M  V30 25993 C 2567.71 -3.28716 0.989996 0
M  V30 25994 C 2566.8 -3.66445 2.13492 0
M  V30 25995 N 2567.19 -3.75716 3.38631 0
M  V30 25996 C 2565.49 -3.96312 2.0458 0
M  V30 25997 C 2566.19 -4.08794 4.13839 0
M  V30 25998 N 2565.17 -4.22165 3.42459 0
M  V30 25999 H 2568.97 -1.97361 2.17774 0
M  V30 26000 H 2566.48 -1.0139 1.26861 0
M  V30 26001 H 2568.48 -4.07343 0.887534 0
M  V30 26002 H 2567.14 -3.24661 0.0504262 0
M  V30 26003 H 2568.15 -3.59137 3.7315 0
M  V30 26004 H 2564.83 -4.0036 1.18397 0
M  V30 26005 H 2566.22 -4.23147 5.21916 0
M  V30 26006 N 2568.94 -1.18359 -1.04062 0
M  V30 26007 C 2570.17 -1.00387 -1.80915 0
M  V30 26008 C 2570.58 0.447706 -1.83415 0
M  V30 26009 O 2569.94 1.31097 -1.26964 0
M  V30 26010 C 2569.99 -1.55149 -3.26513 0
M  V30 26011 O 2569.71 -2.94624 -3.24235 0
M  V30 26012 C 2571.21 -1.41796 -4.2001 0
M  V30 26013 H 2568.43 -0.354484 -0.569721 0
M  V30 26014 H 2570.97 -1.56909 -1.31149 0
M  V30 26015 H 2569.13 -1.02804 -3.7351 0
M  V30 26016 H 2569.54 -3.20164 -4.15446 0
M  V30 26017 H 2571.02 -1.84911 -5.20108 0
M  V30 26018 H 2571.49 -0.366687 -4.37667 0
M  V30 26019 H 2572.1 -1.93214 -3.78878 0
M  V30 26020 N 2570.42 1.22976 -0.98563 0
M  V30 26021 C 2571.36 2.26652 -0.522671 0
M  V30 26022 C 2572.36 1.64035 0.422969 0
M  V30 26023 O 2573.56 1.77545 0.296287 0
M  V30 26024 H 2569.94 0.736764 -0.15061 0
M  V30 26025 H 2571.91 2.63057 -1.40867 0
M  V30 26026 C 2570.66 3.47358 0.154177 0
M  V30 26027 H 2569.98 3.95796 -0.564399 0
M  V30 26028 H 2571.42 4.21693 0.441669 0
M  V30 26029 C 2569.88 3.07018 1.38713 0
M  V30 26030 O 2570.41 3.15768 2.48301 0
M  V30 26031 N 2568.62 2.61877 1.25971 0
M  V30 26032 H 2568.16 2.54958 0.368023 0
M  V30 26033 H 2568.12 2.35254 2.08574 0
M  V30 26034 N 2571.89 0.757924 1.38178 0
M  V30 26035 C 2573.12 0.325715 2.04826 0
M  V30 26036 C 2573.54 -1.03916 1.5679 0
M  V30 26037 O 2572.9 -1.6631 0.721841 0
M  V30 26038 C 2572.95 0.36251 3.58773 0
M  V30 26039 O 2572.05 -0.641961 4.07373 0
M  V30 26040 H 2571.39 0.143413 0.648328 0
M  V30 26041 H 2573.92 1.03026 1.76768 0
M  V30 26042 H 2573.93 0.214915 4.07434 0
M  V30 26043 H 2572.61 1.35831 3.93094 0
M  V30 26044 H 2571.19 -0.458623 3.70069 0
M  V30 26045 N 2573.37 -1.4921 0.507345 0
M  V30 26046 C 2574.62 -2.0247 -0.0349173 0
M  V30 26047 C 2574.95 -1.38649 -1.36406 0
M  V30 26048 O 2574.2 -0.5136 -1.8884 0
M  V30 26049 C 2574.5 -3.56663 -0.22945 0
M  V30 26050 C 2574.17 -4.39154 1.02249 0
M  V30 26051 C 2572.83 -4.61415 1.36565 0
M  V30 26052 C 2575.18 -4.87096 1.85436 0
M  V30 26053 C 2572.51 -5.28864 2.54008 0
M  V30 26054 C 2574.86 -5.55838 3.02038 0
M  V30 26055 C 2573.53 -5.76343 3.36727 0
M  V30 26056 H 2572.8 -0.74089 -0.0127772 0
M  V30 26057 H 2575.44 -1.79442 0.668788 0
M  V30 26058 H 2573.75 -3.78405 -1.01574 0
M  V30 26059 H 2575.44 -3.95472 -0.663572 0
M  V30 26060 H 2572.03 -4.22072 0.745198 0
M  V30 26061 H 2576.22 -4.69721 1.60238 0
M  V30 26062 H 2571.47 -5.42941 2.81114 0
M  V30 26063 H 2575.65 -5.9196 3.66819 0
M  V30 26064 H 2573.28 -6.28382 4.27832 0
M  V30 26065 N 2574.85 -0.241454 -1.55739 0
M  V30 26066 C 2575.81 0.647025 -2.19878 0
M  V30 26067 C 2576.81 1.10684 -1.16644 0
M  V30 26068 O 2578 1.01243 -1.41759 0
M  V30 26069 C 2575.14 1.88866 -2.838 0
M  V30 26070 H 2576.33 0.0875213 -2.99772 0
M  V30 26071 H 2573.88 0.00810826 -1.56298 0
M  V30 26072 H 2574.62 2.48953 -2.07829 0
M  V30 26073 H 2574.4 1.56722 -3.59417 0
M  V30 26074 H 2575.89 2.52123 -3.32902 0
M  V30 26075 N 2576.33 1.57568 0.0317248 0
M  V30 26076 C 2577.56 1.93408 0.734915 0
M  V30 26077 C 2577.97 0.84099 1.69035 0
M  V30 26078 O 2577.33 -0.182804 1.81582 0
M  V30 26079 C 2577.38 3.29172 1.49426 0
M  V30 26080 O 2577.1 4.34281 0.577184 0
M  V30 26081 C 2578.6 3.79277 2.29485 0
M  V30 26082 H 2575.82 0.638372 0.206694 0
M  V30 26083 H 2578.37 2.04498 -0.0099564 0
M  V30 26084 H 2576.52 3.19487 2.19104 0
M  V30 26085 H 2576.93 5.12632 1.10943 0
M  V30 26086 H 2578.41 4.7679 2.78164 0
M  V30 26087 H 2578.89 3.10334 3.10789 0
M  V30 26088 H 2579.49 3.92036 1.64887 0
M  V30 26089 N 2577.81 -0.303946 1.54641 0
M  V30 26090 C 2579.05 -1.03746 1.73439 0
M  V30 26091 C 2579.38 -1.87898 0.521482 0
M  V30 26092 O 2578.65 -1.90319 -0.464287 0
M  V30 26093 H 2577.23 -0.386028 0.639524 0
M  V30 26094 H 2579.89 -0.335642 1.91988 0
M  V30 26095 H 2578.98 -1.69226 2.62238 0
M  V30 26096 N 2579.28 -1.47047 -0.566994 0
M  V30 26097 C 2580.52 -1.5474 -1.33547 0
M  V30 26098 C 2580.89 -0.200805 -1.90947 0
M  V30 26099 O 2582.09 -0.152536 -2.68367 0
M  V30 26100 C 2580.36 -2.62716 -2.42312 0
M  V30 26101 S 2581.92 -2.89924 -3.29377 0
M  V30 26102 H 2578.74 -0.546533 -0.454778 0
M  V30 26103 H 2581.34 -1.84372 -0.650158 0
M  V30 26104 H 2580.04 -3.59168 -1.98561 0
M  V30 26105 H 2579.57 -2.34867 -3.15597 0
M  V30 26106 H 2581.59 -2.26392 -4.41544 0
M  V30 26107 N 2580.76 0.812929 -1.35016 0
M  V30 26108 C 2582.01 1.57202 -1.28123 0
M  V30 26109 C 2582.34 1.93652 0.145835 0
M  V30 26110 O 2581.62 1.60838 1.09368 0
M  V30 26111 C 2581.9 2.86488 -2.18167 0
M  V30 26112 C 2581.75 2.56555 -3.69459 0
M  V30 26113 C 2583.07 3.88142 -2.07446 0
M  V30 26114 H 2580.19 0.570358 -0.466756 0
M  V30 26115 H 2582.83 0.935754 -1.65359 0
M  V30 26116 H 2580.98 3.40785 -1.86541 0
M  V30 26117 H 2582.65 2.0849 -4.11497 0
M  V30 26118 H 2580.9 1.89844 -3.90053 0
M  V30 26119 H 2581.57 3.48792 -4.27841 0
M  V30 26120 H 2584.04 3.43226 -2.35234 0
M  V30 26121 H 2582.92 4.76391 -2.72658 0
M  V30 26122 H 2583.18 4.29341 -1.05446 0
M  V30 26123 N 2582.24 1.18909 1.03433 0
M  V30 26124 C 2583.49 0.989829 1.77003 0
M  V30 26125 C 2583.82 -0.478783 1.88205 0
M  V30 26126 O 2583.09 -1.35553 1.39483 0
M  V30 26127 C 2583.38 1.65293 3.19922 0
M  V30 26128 C 2583.23 3.19482 3.16625 0
M  V30 26129 C 2584.55 1.37141 4.18187 0
M  V30 26130 H 2581.67 0.361002 0.642531 0
M  V30 26131 H 2584.31 1.46669 1.20782 0
M  V30 26132 H 2582.46 1.24747 3.67927 0
M  V30 26133 H 2584.13 3.69205 2.7656 0
M  V30 26134 H 2582.38 3.51311 2.54485 0
M  V30 26135 H 2583.05 3.61021 4.17574 0
M  V30 26136 H 2585.52 1.72283 3.78758 0
M  V30 26137 H 2584.4 1.86096 5.16391 0
M  V30 26138 H 2584.66 0.295502 4.41111 0
M  V30 26139 N 2583.72 -1.22452 0.992137 0
M  V30 26140 C 2584.67 -2.26371 0.534683 0
M  V30 26141 C 2585.66 -1.64257 -0.414264 0
M  V30 26142 O 2586.87 -1.77699 -0.286868 0
M  V30 26143 H 2583.24 -0.735954 0.154515 0
M  V30 26144 H 2585.21 -2.62306 1.4226 0
M  V30 26145 C 2583.96 -3.47435 -0.135754 0
M  V30 26146 H 2583.28 -3.95491 0.585381 0
M  V30 26147 H 2584.72 -4.21922 -0.4193 0
M  V30 26148 C 2583.18 -3.0775 -1.37083 0
M  V30 26149 O 2583.71 -3.1708 -2.46623 0
M  V30 26150 N 2581.92 -2.62542 -1.2458 0
M  V30 26151 H 2581.47 -2.55149 -0.354497 0
M  V30 26152 H 2581.42 -2.36357 -2.07323 0
M  V30 26153 N 2585.2 -0.765242 -1.37774 0
M  V30 26154 C 2586.44 -0.325978 -1.99454 0
M  V30 26155 C 2586.77 1.09944 -1.61051 0
M  V30 26156 O 2586.04 1.7538 -0.872851 0
M  V30 26157 H 2584.62 -0.117538 -0.737695 0
M  V30 26158 H 2587.28 -0.981924 -1.68358 0
M  V30 26159 H 2586.37 -0.398407 -3.09547 0
M  V30 26160 N 2586.67 1.48939 -0.515251 0
M  V30 26161 C 2587.92 2.02086 0.0241316 0
M  V30 26162 C 2588.24 1.39593 1.36157 0
M  V30 26163 O 2587.51 0.556154 1.8784 0
M  V30 26164 H 2586.09 0.746905 0.0119072 0
M  V30 26165 H 2588.76 1.82811 -0.675734 0
M  V30 26166 H 2587.85 3.11771 0.143331 0
M  V30 26167 N 2588.15 0.249709 1.55609 0
M  V30 26168 C 2589.43 -0.424727 1.90933 0
M  V30 26169 C 2589.81 -1.75656 1.17081 0
M  V30 26170 O 2589.16 -2.26662 0.289216 0
M  V30 26171 C 2589.37 -0.590049 3.43976 0
M  V30 26172 C 2590.72 -0.884641 4.15282 0
M  V30 26173 O 2591.74 -0.675809 3.4973 0
M  V30 26174 O 2590.6 -1.2825 5.31238 0
M  V30 26175 H 2587.69 -0.228454 0.794819 0
M  V30 26176 H 2590.24 0.293984 1.67134 0
M  V30 26177 H 2589.01 0.348248 3.89747 0
M  V30 26178 H 2588.63 -1.35919 3.73646 0
M  V30 26179 N 2589.63 -1.57583 -0.0233682 0
M  V30 26180 C 2590.88 -1.89812 -0.714086 0
M  V30 26181 C 2591.21 -0.848143 -1.747 0
M  V30 26182 O 2590.49 0.1361 -1.94023 0
M  V30 26183 C 2590.77 -3.32671 -1.37847 0
M  V30 26184 C 2590.62 -4.48368 -0.358685 0
M  V30 26185 C 2591.94 -3.74544 -2.31095 0
M  V30 26186 H 2589.06 -0.690318 -0.258127 0
M  V30 26187 H 2591.7 -1.89986 0.0231261 0
M  V30 26188 H 2589.85 -3.32654 -2.00683 0
M  V30 26189 H 2591.52 -4.6052 0.268196 0
M  V30 26190 H 2589.77 -4.32607 0.321463 0
M  V30 26191 H 2590.44 -5.45226 -0.862147 0
M  V30 26192 H 2592.91 -3.75964 -1.78297 0
M  V30 26193 H 2591.79 -4.75298 -2.74559 0
M  V30 26194 H 2592.05 -3.07116 -3.18013 0
M  V30 26195 N 2591.11 0.29574 -1.548 0
M  V30 26196 C 2592.53 0.641697 -1.46131 0
M  V30 26197 C 2592.73 1.90495 -0.656805 0
M  V30 26198 O 2591.78 2.5195 -0.166591 0
M  V30 26199 C 2593.09 0.789801 -2.90142 0
M  V30 26200 C 2594.64 0.885343 -3.00218 0
M  V30 26201 C 2595.12 1.0654 -4.45436 0
M  V30 26202 N 2596.61 1.13148 -4.49168 0
M  V30 26203 C 2597.34 1.28919 -5.58719 0
M  V30 26204 N 2596.84 1.41555 -6.78184 0
M  V30 26205 N 2598.63 1.31849 -5.46418 0
M  V30 26206 H 2590.78 -0.534183 -2.05573 0
M  V30 26207 H 2593.05 -0.177389 -0.931256 0
M  V30 26208 H 2592.75 -0.0676217 -3.51635 0
M  V30 26209 H 2592.63 1.67718 -3.37862 0
M  V30 26210 H 2595.01 1.73325 -2.38836 0
M  V30 26211 H 2595.09 -0.0261635 -2.55787 0
M  V30 26212 H 2594.74 0.222246 -5.07414 0
M  V30 26213 H 2594.67 1.99121 -4.87502 0
M  V30 26214 H 2597.16 1.04715 -3.63102 0
M  V30 26215 H 2597.47 1.53359 -7.5743 0
M  V30 26216 H 2595.82 1.38601 -6.8104 0
M  V30 26217 H 2599.01 1.21593 -4.52032 0
M  V30 26218 H 2599.18 1.43797 -6.31844 0
M  V30 26219 N 2592.59 1.47346 0.559187 0
M  V30 26220 C 2593.83 1.55446 1.32725 0
M  V30 26221 C 2594.19 0.210929 1.90838 0
M  V30 26222 O 2595.39 0.166766 2.68282 0
M  V30 26223 C 2593.66 2.63997 2.40915 0
M  V30 26224 S 2595.22 2.91667 3.27835 0
M  V30 26225 H 2592.04 0.548937 0.451873 0
M  V30 26226 H 2594.64 1.84715 0.640371 0
M  V30 26227 H 2593.35 3.60216 1.96654 0
M  V30 26228 H 2592.88 2.36537 3.14347 0
M  V30 26229 H 2594.89 2.2873 4.40337 0
M  V30 26230 N 2594.07 -0.805758 1.35445 0
M  V30 26231 C 2595.29 -1.59938 1.3204 0
M  V30 26232 C 2595.72 -1.87837 -0.0993885 0
M  V30 26233 O 2595.07 -1.46617 -1.06645 0
M  V30 26234 C 2595.12 -2.90707 2.13359 0
M  V30 26235 O 2594.23 -3.83569 1.51487 0
M  V30 26236 H 2593.57 -0.485779 0.452675 0
M  V30 26237 H 2596.1 -0.999987 1.78498 0
M  V30 26238 H 2596.11 -3.40124 2.25344 0
M  V30 26239 H 2594.78 -2.69726 3.16577 0
M  V30 26240 H 2593.36 -3.42122 1.48346 0
M  V30 26241 N 2595.54 -1.19456 -1.02801 0
M  V30 26242 C 2596.78 -1.00886 -1.77768 0
M  V30 26243 C 2597.15 0.452297 -1.86597 0
M  V30 26244 O 2598.35 0.757831 -2.57896 0
M  V30 26245 C 2596.62 -1.66051 -3.16483 0
M  V30 26246 S 2598.18 -1.62431 -4.07629 0
M  V30 26247 H 2595 -0.362004 -0.611943 0
M  V30 26248 H 2597.6 -1.51818 -1.23173 0
M  V30 26249 H 2596.3 -2.71595 -3.07675 0
M  V30 26250 H 2595.83 -1.15202 -3.76154 0
M  V30 26251 H 2597.85 -0.649117 -4.91936 0
M  V30 26252 N 2597.02 1.21924 -0.998617 0
M  V30 26253 C 2597.97 2.24061 -0.55366 0
M  V30 26254 C 2598.94 1.60781 0.41697 0
M  V30 26255 O 2600.12 1.8809 0.320449 0
M  V30 26256 C 2597.26 3.44892 0.119898 0
M  V30 26257 C 2596.38 4.22666 -0.893151 0
M  V30 26258 C 2595.51 5.30851 -0.192517 0
M  V30 26259 C 2594.55 6.00351 -1.19355 0
M  V30 26260 N 2593.69 7.00166 -0.52083 0
M  V30 26261 H 2598.53 2.61484 -1.42934 0
M  V30 26262 H 2596.06 1.28506 -0.715861 0
M  V30 26263 H 2598.02 4.13853 0.527387 0
M  V30 26264 H 2596.65 3.08215 0.959335 0
M  V30 26265 H 2595.7 3.52946 -1.41893 0
M  V30 26266 H 2597.02 4.70536 -1.6552 0
M  V30 26267 H 2596.17 6.06093 0.271408 0
M  V30 26268 H 2594.91 4.8397 0.60199 0
M  V30 26269 H 2593.91 5.23886 -1.66805 0
M  V30 26270 H 2595.14 6.49318 -1.98903 0
M  V30 26271 H 2593.09 6.55508 0.254137 0
M  V30 26272 H 2593 7.46071 -1.22123 0
M  V30 26273 H 2594.27 7.79459 -0.0798966 0
M  V30 26274 N 2598.5 0.772537 1.37367 0
M  V30 26275 C 2599.46 0.165582 2.28601 0
M  V30 26276 C 2600.46 -0.627212 1.48063 0
M  V30 26277 O 2601.65 -0.450685 1.68269 0
M  V30 26278 C 2598.78 -0.772839 3.32024 0
M  V30 26279 H 2599.98 0.969836 2.83785 0
M  V30 26280 H 2597.53 0.540801 1.46646 0
M  V30 26281 H 2598.27 -1.60207 2.81965 0
M  V30 26282 H 2598.05 -0.206517 3.91556 0
M  V30 26283 H 2599.54 -1.19291 4.00199 0
M  V30 26284 N 2599.98 -1.48664 0.523142 0
M  V30 26285 C 2601.23 -2.02096 -0.0134142 0
M  V30 26286 C 2601.55 -1.40313 -1.35415 0
M  V30 26287 O 2600.82 -0.566107 -1.87542 0
M  V30 26288 H 2599.4 -0.746958 -0.00794602 0
M  V30 26289 H 2602.06 -1.8245 0.68542 0
M  V30 26290 H 2601.15 -3.11842 -0.126795 0
M  V30 26291 N 2601.46 -0.257958 -1.55475 0
M  V30 26292 C 2602.69 0.366991 -2.03314 0
M  V30 26293 C 2603.09 1.51279 -1.13628 0
M  V30 26294 O 2602.44 1.83124 -0.145366 0
M  V30 26295 C 2602.5 0.926223 -3.47363 0
M  V30 26296 C 2602.16 -0.0887387 -4.56914 0
M  V30 26297 C 2603.16 -0.902213 -5.12012 0
M  V30 26298 C 2600.84 -0.218025 -5.01827 0
M  V30 26299 C 2602.84 -1.83132 -6.10525 0
M  V30 26300 C 2600.53 -1.15063 -6.0017 0
M  V30 26301 C 2601.52 -1.9558 -6.54399 0
M  V30 26302 O 2601.21 -2.87266 -7.50822 0
M  V30 26303 H 2600.94 0.0900325 -0.669978 0
M  V30 26304 H 2603.5 -0.382709 -2.01803 0
M  V30 26305 H 2601.73 1.72569 -3.46059 0
M  V30 26306 H 2603.42 1.46243 -3.7864 0
M  V30 26307 H 2604.18 -0.812975 -4.78138 0
M  V30 26308 H 2600.06 0.39864 -4.59273 0
M  V30 26309 H 2603.61 -2.4602 -6.52779 0
M  V30 26310 H 2599.5 -1.24075 -6.33463 0
M  V30 26311 H 2600.27 -2.81753 -7.68478 0
M  V30 26312 N 2602.93 1.57593 0.0150108 0
M  V30 26313 C 2604.16 1.94176 0.71436 0
M  V30 26314 C 2604.58 0.858871 1.68133 0
M  V30 26315 O 2603.93 -0.163535 1.81766 0
M  V30 26316 C 2603.99 3.30738 1.45927 0
M  V30 26317 O 2603.71 4.34869 0.531091 0
M  V30 26318 C 2605.21 3.8169 2.2545 0
M  V30 26319 H 2602.43 0.640528 0.199912 0
M  V30 26320 H 2604.97 2.04476 -0.0316455 0
M  V30 26321 H 2603.13 3.21793 2.15703 0
M  V30 26322 H 2603.54 5.1378 1.055 0
M  V30 26323 H 2605.01 4.79714 2.73091 0
M  V30 26324 H 2605.49 3.13612 3.0748 0
M  V30 26325 H 2606.1 3.93763 1.6072 0
M  V30 26326 N 2604.41 -0.287527 1.54955 0
M  V30 26327 C 2605.66 -1.01901 1.7453 0
M  V30 26328 C 2605.98 -1.87334 0.541382 0
M  V30 26329 O 2605.25 -1.908 -0.444075 0
M  V30 26330 H 2603.83 -0.379223 0.643583 0
M  V30 26331 H 2606.49 -0.31526 1.92333 0
M  V30 26332 H 2605.59 -1.66435 2.64018 0
M  V30 26333 N 2605.89 -1.47641 -0.551365 0
M  V30 26334 C 2607.12 -1.58191 -1.33354 0
M  V30 26335 C 2607.53 -0.234232 -1.87341 0
M  V30 26336 O 2606.89 0.773401 -1.65302 0
M  V30 26337 C 2606.94 -2.61177 -2.49938 0
M  V30 26338 O 2606.66 -3.90713 -1.9818 0
M  V30 26339 C 2608.16 -2.81966 -3.42067 0
M  V30 26340 H 2605.38 -0.534005 -0.4063 0
M  V30 26341 H 2607.93 -1.93305 -0.667333 0
M  V30 26342 H 2606.08 -2.2898 -3.12485 0
M  V30 26343 H 2606.5 -4.47036 -2.74334 0
M  V30 26344 H 2607.97 -3.57876 -4.20272 0
M  V30 26345 H 2608.45 -1.90002 -3.95975 0
M  V30 26346 H 2609.05 -3.15383 -2.85331 0
M  V30 26347 N 2607.37 0.798563 -1.3587 0
M  V30 26348 C 2608.3 1.91913 -1.25308 0
M  V30 26349 C 2609.31 1.61861 -0.174577 0
M  V30 26350 O 2610.5 1.7328 -0.428529 0
M  V30 26351 C 2607.6 3.26491 -0.908657 0
M  V30 26352 C 2606.78 3.8439 -2.08718 0
M  V30 26353 C 2605.83 4.9739 -1.71726 0
M  V30 26354 O 2604.86 5.14391 -2.43701 0
M  V30 26355 N 2606.06 5.76899 -0.645574 0
M  V30 26356 H 2608.83 2.01498 -2.21853 0
M  V30 26357 H 2606.39 0.976385 -1.29145 0
M  V30 26358 H 2608.38 3.99567 -0.642525 0
M  V30 26359 H 2606.95 3.12583 -0.0326365 0
M  V30 26360 H 2606.17 3.03412 -2.51664 0
M  V30 26361 H 2607.46 4.19804 -2.87475 0
M  V30 26362 H 2606.86 5.6568 -0.0477474 0
M  V30 26363 H 2605.41 6.50318 -0.439244 0
M  V30 26364 N 2608.85 1.19999 1.02166 0
M  V30 26365 C 2610.09 1.01828 1.7723 0
M  V30 26366 C 2610.45 -0.442395 1.86834 0
M  V30 26367 O 2611.65 -0.744144 2.58294 0
M  V30 26368 C 2609.92 1.67727 3.15598 0
M  V30 26369 S 2611.48 1.64591 4.06762 0
M  V30 26370 H 2608.3 0.365244 0.610015 0
M  V30 26371 H 2610.9 1.52469 1.22366 0
M  V30 26372 H 2609.61 2.73223 3.06231 0
M  V30 26373 H 2609.14 1.17196 3.75538 0
M  V30 26374 H 2611.15 0.675196 4.91585 0
M  V30 26375 N 2610.32 -1.21392 1.00507 0
M  V30 26376 C 2611.23 -2.27448 0.574846 0
M  V30 26377 C 2612.25 -1.69751 -0.382176 0
M  V30 26378 O 2613.43 -1.99892 -0.245992 0
M  V30 26379 C 2610.49 -3.46579 -0.0916805 0
M  V30 26380 C 2609.55 -4.19548 0.909831 0
M  V30 26381 C 2608.79 -5.32991 0.275017 0
M  V30 26382 O 2609.01 -5.62798 -0.928155 0
M  V30 26383 O 2607.94 -5.93769 0.985982 0
M  V30 26384 H 2611.77 -2.66441 1.45749 0
M  V30 26385 H 2609.35 -1.27791 0.773946 0
M  V30 26386 H 2611.24 -4.18832 -0.464477 0
M  V30 26387 H 2609.91 -3.09486 -0.9487 0
M  V30 26388 H 2608.82 -3.49515 1.33379 0
M  V30 26389 H 2610.15 -4.60552 1.73644 0
M  V30 26390 N 2611.8 -0.779811 -1.36955 0
M  V30 26391 C 2613.22 -0.460369 -1.52816 0
M  V30 26392 C 2613.42 1.0228 -1.73612 0
M  V30 26393 O 2612.47 1.80849 -1.7621 0
M  V30 26394 C 2613.79 -1.28246 -2.71981 0
M  V30 26395 C 2615.34 -1.27517 -2.85847 0
M  V30 26396 C 2615.81 -2.08079 -4.08004 0
M  V30 26397 N 2617.3 -2.05475 -4.15132 0
M  V30 26398 C 2618.04 -2.64586 -5.08706 0
M  V30 26399 N 2617.53 -3.32517 -6.07787 0
M  V30 26400 N 2619.33 -2.54372 -5.0125 0
M  V30 26401 H 2611.48 -1.74071 -1.2171 0
M  V30 26402 H 2613.74 -0.739407 -0.593281 0
M  V30 26403 H 2613.45 -2.33385 -2.63105 0
M  V30 26404 H 2613.32 -0.917153 -3.6588 0
M  V30 26405 H 2615.71 -0.231738 -2.94189 0
M  V30 26406 H 2615.79 -1.68018 -1.92883 0
M  V30 26407 H 2615.43 -3.12448 -4.00423 0
M  V30 26408 H 2615.36 -1.64956 -5.00097 0
M  V30 26409 H 2617.85 -1.56026 -3.44187 0
M  V30 26410 H 2618.17 -3.74974 -6.75732 0
M  V30 26411 H 2616.51 -3.36617 -6.08041 0
M  V30 26412 H 2619.7 -2.0091 -4.22792 0
M  V30 26413 H 2619.87 -3.00732 -5.7399 0
M  V30 26414 N 2613.28 1.48384 -0.531019 0
M  V30 26415 C 2614.52 2.044 0.000683054 0
M  V30 26416 C 2614.88 1.39916 1.31482 0
M  V30 26417 O 2616.09 1.86824 1.93262 0
M  V30 26418 C 2614.36 3.57201 0.119114 0
M  V30 26419 S 2615.92 4.34668 0.60073 0
M  V30 26420 H 2612.73 0.710889 -0.0125597 0
M  V30 26421 H 2615.34 1.82081 -0.711815 0
M  V30 26422 H 2614.04 4.01667 -0.842132 0
M  V30 26423 H 2613.57 3.83975 0.855959 0
M  V30 26424 H 2615.59 4.59815 1.86506 0
M  V30 26425 N 2614.76 0.2662 1.55336 0
M  V30 26426 C 2615.72 -0.611962 2.20879 0
M  V30 26427 C 2616.72 -1.08814 1.1839 0
M  V30 26428 O 2617.91 -0.989749 1.43351 0
M  V30 26429 C 2615.04 -1.84327 2.86769 0
M  V30 26430 H 2616.24 -0.0398191 2.99874 0
M  V30 26431 H 2613.79 0.0167584 1.56291 0
M  V30 26432 H 2614.52 -2.45615 2.11763 0
M  V30 26433 H 2614.31 -1.50984 3.61865 0
M  V30 26434 H 2615.8 -2.46795 3.36871 0
M  V30 26435 N 2616.24 -1.57599 -0.0066531 0
M  V30 26436 C 2617.65 -1.78404 -0.550348 0
M  V30 26437 C 2618 -0.900045 -1.74338 0
M  V30 26438 O 2617.12 -0.100751 -2.16165 0
M  V30 26439 C 2617.72 -3.23545 -1.00518 0
M  V30 26440 C 2616.28 -3.45471 -1.49422 0
M  V30 26441 C 2615.42 -2.73748 -0.442396 0
M  V30 26442 H 2618.38 -1.57174 0.219535 0
M  V30 26443 H 2618.4 -3.31292 -1.87152 0
M  V30 26444 H 2617.91 -3.87859 -0.136666 0
M  V30 26445 H 2616.01 -2.86362 -2.38385 0
M  V30 26446 H 2616.12 -4.54138 -1.52627 0
M  V30 26447 H 2614.49 -2.38173 -0.902536 0
M  V30 26448 H 2615.27 -3.40758 0.417033 0
M  V30 26449 N 2617.72 0.279305 -1.55105 0
M  V30 26450 C 2618.96 1.00974 -1.75068 0
M  V30 26451 C 2619.28 1.87044 -0.551309 0
M  V30 26452 O 2618.55 1.91033 0.43395 0
M  V30 26453 H 2617.13 0.375805 -0.645585 0
M  V30 26454 H 2619.8 0.305055 -1.92498 0
M  V30 26455 H 2618.89 1.65033 -2.64897 0
M  V30 26456 N 2619.19 1.47931 0.543528 0
M  V30 26457 C 2620.42 1.58665 1.32321 0
M  V30 26458 C 2620.83 0.240929 1.8766 0
M  V30 26459 O 2620.17 -0.777981 1.66413 0
M  V30 26460 C 2620.24 2.56303 2.52089 0
M  V30 26461 C 2619.9 4.01687 2.17937 0
M  V30 26462 C 2620.9 4.89771 1.74413 0
M  V30 26463 C 2618.58 4.47125 2.28876 0
M  V30 26464 C 2620.58 6.21318 1.42276 0
M  V30 26465 C 2618.26 5.78697 1.9635 0
M  V30 26466 C 2619.26 6.65615 1.5312 0
M  V30 26467 O 2618.95 7.94739 1.21015 0
M  V30 26468 H 2618.68 0.538108 0.409165 0
M  V30 26469 H 2621.24 1.94376 0.663852 0
M  V30 26470 H 2619.47 2.15687 3.20961 0
M  V30 26471 H 2621.15 2.57018 3.1416 0
M  V30 26472 H 2621.92 4.55909 1.65444 0
M  V30 26473 H 2617.8 3.79669 2.61482 0
M  V30 26474 H 2621.34 6.89117 1.0846 0
M  V30 26475 H 2617.24 6.12097 2.04957 0
M  V30 26476 H 2618.01 8.07369 1.34528 0
M  V30 26477 N 2620.67 -0.791347 1.36292 0
M  V30 26478 C 2621.92 -1.54914 1.30414 0
M  V30 26479 C 2622.25 -1.94147 -0.117127 0
M  V30 26480 O 2621.5 -1.62805 -1.08596 0
M  V30 26481 C 2621.8 -2.83926 2.17073 0
M  V30 26482 C 2621.47 -2.6384 3.65649 0
M  V30 26483 C 2620.13 -2.5807 4.06145 0
M  V30 26484 C 2622.48 -2.45314 4.59859 0
M  V30 26485 C 2619.81 -2.31738 5.38994 0
M  V30 26486 C 2622.16 -2.2051 5.92923 0
M  V30 26487 C 2620.82 -2.13172 6.32546 0
M  V30 26488 H 2620.09 -0.56687 0.47722 0
M  V30 26489 H 2622.74 -0.913143 1.68327 0
M  V30 26490 H 2621.05 -3.51983 1.72091 0
M  V30 26491 H 2622.74 -3.41706 2.09852 0
M  V30 26492 H 2619.33 -2.69185 3.33523 0
M  V30 26493 H 2623.52 -2.48775 4.29447 0
M  V30 26494 H 2618.77 -2.24538 5.68676 0
M  V30 26495 H 2622.95 -2.0517 6.65491 0
M  V30 26496 H 2620.57 -1.92531 7.35415 0
M  V30 26497 N 2622.15 -1.2054 -1.01528 0
M  V30 26498 C 2623.4 -1.01435 -1.74801 0
M  V30 26499 C 2623.72 0.454423 -1.89631 0
M  V30 26500 O 2622.99 1.32843 -1.43977 0
M  V30 26501 H 2621.57 -0.372336 -0.647592 0
M  V30 26502 H 2624.23 -1.51672 -1.224 0
M  V30 26503 H 2623.33 -1.47378 -2.75111 0
M  V30 26504 N 2623.63 1.20858 -1.01149 0
M  V30 26505 C 2624.58 2.25492 -0.570629 0
M  V30 26506 C 2625.57 1.64895 0.38808 0
M  V30 26507 O 2626.78 1.78133 0.258561 0
M  V30 26508 H 2623.15 0.733403 -0.166204 0
M  V30 26509 H 2625.12 2.6001 -1.46415 0
M  V30 26510 C 2623.87 3.47607 0.080463 0
M  V30 26511 H 2623.19 3.9451 -0.648226 0
M  V30 26512 H 2624.63 4.22535 0.352123 0
M  V30 26513 C 2623.09 3.09891 1.3217 0
M  V30 26514 O 2623.62 3.20964 2.41547 0
M  V30 26515 N 2621.83 2.6449 1.20388 0
M  V30 26516 H 2621.38 2.55681 0.31386 0
M  V30 26517 H 2621.33 2.39625 2.03537 0
M  V30 26518 N 2625.11 0.787064 1.3654 0
M  V30 26519 C 2626.52 0.421839 1.81872 0
M  V30 26520 C 2626.87 -1.05394 1.65489 0
M  V30 26521 O 2625.99 -1.81753 1.17451 0
M  V30 26522 C 2626.59 0.758899 3.30191 0
M  V30 26523 C 2625.15 0.446534 3.73742 0
M  V30 26524 C 2624.29 0.994773 2.58843 0
M  V30 26525 H 2627.24 0.980412 1.24794 0
M  V30 26526 H 2627.27 0.0491317 3.80468 0
M  V30 26527 H 2626.78 1.83305 3.42083 0
M  V30 26528 H 2624.88 -0.619674 3.67411 0
M  V30 26529 H 2624.99 0.965498 4.69271 0
M  V30 26530 H 2623.36 0.418132 2.51244 0
M  V30 26531 H 2624.14 2.07463 2.73521 0
M  V30 26532 N 2626.58 -1.48101 0.53888 0
M  V30 26533 C 2627.52 -2.27763 -0.256238 0
M  V30 26534 C 2628.53 -1.35905 -0.896306 0
M  V30 26535 O 2629.72 -1.60882 -0.773247 0
M  V30 26536 C 2626.82 -3.0958 -1.3789 0
M  V30 26537 C 2625.99 -4.29276 -0.839084 0
M  V30 26538 C 2625.05 -4.92833 -1.84397 0
M  V30 26539 O 2624.08 -5.51781 -1.39736 0
M  V30 26540 N 2625.28 -4.85875 -3.17657 0
M  V30 26541 H 2628.04 -2.96642 0.42702 0
M  V30 26542 H 2625.6 -1.57526 0.373774 0
M  V30 26543 H 2627.6 -3.48967 -2.04949 0
M  V30 26544 H 2626.17 -2.43063 -1.96568 0
M  V30 26545 H 2625.39 -3.94199 0.00776216 0
M  V30 26546 H 2626.67 -5.06739 -0.457459 0
M  V30 26547 H 2626.07 -4.3915 -3.56601 0
M  V30 26548 H 2624.63 -5.29336 -3.80325 0
M  V30 26549 N 2628.06 -0.274434 -1.55192 0
M  V30 26550 C 2629.01 0.613335 -2.22501 0
M  V30 26551 C 2629.98 1.15027 -1.19825 0
M  V30 26552 O 2631.16 1.1997 -1.48364 0
M  V30 26553 C 2628.3 1.79194 -2.9493 0
M  V30 26554 C 2627.42 1.28892 -4.12324 0
M  V30 26555 C 2626.55 2.42926 -4.72398 0
M  V30 26556 C 2625.59 1.89624 -5.81987 0
M  V30 26557 N 2624.73 2.97129 -6.36128 0
M  V30 26558 H 2629.57 0.0327036 -2.97982 0
M  V30 26559 H 2627.1 0.0043756 -1.47099 0
M  V30 26560 H 2629.06 2.48472 -3.35138 0
M  V30 26561 H 2627.69 2.34461 -2.21874 0
M  V30 26562 H 2626.74 0.48926 -3.77241 0
M  V30 26563 H 2628.06 0.858501 -4.91356 0
M  V30 26564 H 2627.21 3.20199 -5.15323 0
M  V30 26565 H 2625.95 2.89283 -3.92641 0
M  V30 26566 H 2624.95 1.10831 -5.38513 0
M  V30 26567 H 2626.18 1.44204 -6.63613 0
M  V30 26568 H 2624.13 3.42869 -5.59265 0
M  V30 26569 H 2624.04 2.58502 -7.10431 0
M  V30 26570 H 2625.31 3.74379 -6.83711 0
M  V30 26571 N 2629.54 1.576 -0.00170483 0
M  V30 26572 C 2630.79 1.90642 0.682786 0
M  V30 26573 C 2631.11 0.875446 1.73684 0
M  V30 26574 O 2630.37 -0.119541 1.95335 0
M  V30 26575 C 2630.67 3.30438 1.36183 0
M  V30 26576 C 2630.33 4.4874 0.440808 0
M  V30 26577 C 2629 4.80836 0.187227 0
M  V30 26578 C 2631.35 5.20842 -0.193226 0
M  V30 26579 C 2628.68 5.82405 -0.708652 0
M  V30 26580 C 2631.03 6.23365 -1.07699 0
M  V30 26581 C 2629.69 6.53917 -1.33973 0
M  V30 26582 H 2628.96 0.697608 0.249849 0
M  V30 26583 H 2631.61 1.91413 -0.0575979 0
M  V30 26584 H 2629.91 3.25798 2.1763 0
M  V30 26585 H 2631.61 3.53263 1.89753 0
M  V30 26586 H 2628.2 4.23664 0.64862 0
M  V30 26587 H 2632.39 4.96299 -0.0103317 0
M  V30 26588 H 2627.64 6.04435 -0.920204 0
M  V30 26589 H 2631.82 6.78365 -1.57463 0
M  V30 26590 H 2629.44 7.32439 -2.03562 0
M  V30 26591 N 2631.02 -0.271076 1.55251 0
M  V30 26592 C 2632.27 -1.00044 1.75601 0
M  V30 26593 C 2632.59 -1.86749 0.56122 0
M  V30 26594 O 2631.86 -1.91261 -0.423813 0
M  V30 26595 H 2630.44 -0.372376 0.647569 0
M  V30 26596 H 2633.1 -0.294843 1.92657 0
M  V30 26597 H 2632.19 -1.63626 2.65769 0
M  V30 26598 N 2632.5 -1.48217 -0.535675 0
M  V30 26599 C 2633.74 -1.55636 -1.28925 0
M  V30 26600 C 2634.07 -0.229548 -1.93644 0
M  V30 26601 O 2633.34 0.748428 -1.8104 0
M  V30 26602 H 2631.92 -0.573351 -0.47883 0
M  V30 26603 H 2634.58 -1.84647 -0.623821 0
M  V30 26604 H 2633.67 -2.3344 -2.07153 0
M  V30 26605 N 2633.97 0.784108 -1.3671 0
M  V30 26606 C 2635.2 1.57817 -1.34568 0
M  V30 26607 C 2635.62 1.87972 0.0694927 0
M  V30 26608 O 2634.98 1.48295 1.04299 0
M  V30 26609 C 2635.03 2.87276 -2.17957 0
M  V30 26610 O 2634.13 3.81111 -1.5757 0
M  V30 26611 H 2633.48 0.478516 -0.460346 0
M  V30 26612 H 2636.01 0.971463 -1.80066 0
M  V30 26613 H 2636.02 3.36496 -2.30727 0
M  V30 26614 H 2634.69 2.64655 -3.20828 0
M  V30 26615 H 2633.27 3.39719 -1.5377 0
M  V30 26616 N 2635.45 1.21076 1.00888 0
M  V30 26617 C 2636.69 1.03702 1.7614 0
M  V30 26618 C 2637.06 -0.422554 1.87293 0
M  V30 26619 O 2638.26 -0.716706 2.59069 0
M  V30 26620 C 2636.53 1.71065 3.13802 0
M  V30 26621 S 2638.09 1.68896 4.04993 0
M  V30 26622 H 2634.91 0.371693 0.606107 0
M  V30 26623 H 2637.51 1.53759 1.20742 0
M  V30 26624 H 2636.21 2.76456 3.03315 0
M  V30 26625 H 2635.74 1.21172 3.74274 0
M  V30 26626 H 2637.76 0.727297 4.90841 0
M  V30 26627 N 2636.93 -1.2032 1.01789 0
M  V30 26628 C 2637.86 -2.22567 0.547396 0
M  V30 26629 C 2638.88 -1.58519 -0.370894 0
M  V30 26630 O 2640.06 -1.77698 -0.169036 0
M  V30 26631 C 2637.16 -3.38166 -0.222972 0
M  V30 26632 C 2636.34 -4.31802 0.697547 0
M  V30 26633 C 2635.4 -5.26194 -0.0254695 0
M  V30 26634 O 2634.42 -5.66056 0.597466 0
M  V30 26635 N 2635.62 -5.65759 -1.29989 0
M  V30 26636 H 2638.39 -2.63561 1.42673 0
M  V30 26637 H 2635.95 -1.34874 0.895576 0
M  V30 26638 H 2637.94 -3.98317 -0.715932 0
M  V30 26639 H 2636.51 -2.96051 -1.00361 0
M  V30 26640 H 2635.73 -3.69598 1.37079 0
M  V30 26641 H 2637.02 -4.91283 1.32356 0
M  V30 26642 H 2636.42 -5.35388 -1.8269 0
M  V30 26643 H 2634.98 -6.28214 -1.73755 0
M  V30 26644 N 2638.41 -0.794293 -1.3612 0
M  V30 26645 C 2639.82 -0.431478 -1.81646 0
M  V30 26646 C 2640.17 1.04515 -1.66045 0
M  V30 26647 O 2639.3 1.81128 -1.18414 0
M  V30 26648 C 2639.89 -0.776399 -3.29784 0
M  V30 26649 C 2638.45 -0.466348 -3.735 0
M  V30 26650 C 2637.6 -1.00849 -2.58312 0
M  V30 26651 H 2640.55 -0.987017 -1.24273 0
M  V30 26652 H 2640.57 -0.0693082 -3.80437 0
M  V30 26653 H 2640.08 -1.85116 -3.41106 0
M  V30 26654 H 2638.18 0.600181 -3.67734 0
M  V30 26655 H 2638.29 -0.990371 -4.68752 0
M  V30 26656 H 2636.66 -0.43145 -2.51019 0
M  V30 26657 H 2637.44 -2.08911 -2.72417 0
M  V30 26658 N 2639.89 1.47813 -0.546727 0
M  V30 26659 C 2641.13 2.04389 -0.0209963 0
M  V30 26660 C 2641.49 1.41302 1.29991 0
M  V30 26661 O 2642.69 1.88863 1.9127 0
M  V30 26662 C 2640.96 3.57308 0.0812216 0
M  V30 26663 S 2642.52 4.35281 0.554594 0
M  V30 26664 H 2639.34 0.710716 -0.020099 0
M  V30 26665 H 2641.94 1.81316 -0.731087 0
M  V30 26666 H 2640.65 4.00751 -0.884687 0
M  V30 26667 H 2640.18 3.84861 0.815185 0
M  V30 26668 H 2642.19 4.61767 1.81619 0
M  V30 26669 N 2641.36 0.28266 1.55044 0
M  V30 26670 C 2642.59 -0.337941 2.04628 0
M  V30 26671 C 2643.01 -1.48121 1.15939 0
M  V30 26672 O 2642.37 -1.80596 0.159564 0
M  V30 26673 C 2642.42 -0.789298 3.51856 0
M  V30 26674 O 2641.52 -1.89585 3.66239 0
M  V30 26675 H 2640.87 -0.0687145 0.660435 0
M  V30 26676 H 2643.4 0.41916 2.0026 0
M  V30 26677 H 2643.41 -1.08304 3.93363 0
M  V30 26678 H 2642.08 0.047115 4.15873 0
M  V30 26679 H 2640.66 -1.60407 3.36636 0
M  V30 26680 N 2642.84 -1.57597 0.0100627 0
M  V30 26681 C 2644.08 -1.92861 -0.67705 0
M  V30 26682 C 2644.45 -0.885222 -1.70376 0
M  V30 26683 O 2645.65 -1.12343 -2.44197 0
M  V30 26684 C 2643.92 -3.33134 -1.29446 0
M  V30 26685 S 2645.48 -3.90299 -2.0053 0
M  V30 26686 H 2642.3 -0.674992 -0.223397 0
M  V30 26687 H 2644.9 -1.95378 0.0691633 0
M  V30 26688 H 2643.6 -4.06904 -0.534521 0
M  V30 26689 H 2643.13 -3.34016 -2.07839 0
M  V30 26690 H 2645.15 -3.72189 -3.28161 0
M  V30 26691 N 2644.32 0.262839 -1.55393 0
M  V30 26692 C 2645.27 1.34497 -1.89772 0
M  V30 26693 C 2646.26 1.50628 -0.775089 0
M  V30 26694 O 2647.47 1.52292 -0.959545 0
M  V30 26695 H 2643.84 0.450031 -0.602475 0
M  V30 26696 H 2645.81 1.02757 -2.80149 0
M  V30 26697 C 2644.56 2.69653 -2.19506 0
M  V30 26698 H 2643.89 2.58035 -3.05382 0
M  V30 26699 H 2645.33 3.44285 -2.47475 0
M  V30 26700 C 2643.79 3.21529 -1.00602 0
M  V30 26701 O 2644.32 4.00947 -0.245838 0
M  V30 26702 N 2642.52 2.79344 -0.80096 0
M  V30 26703 H 2642.07 2.14873 -1.42083 0
M  V30 26704 H 2642.03 3.14399 -0.00703522 0
M  V30 26705 N 2645.8 1.48499 0.527807 0
M  V30 26706 C 2647.02 1.60549 1.31297 0
M  V30 26707 C 2647.45 0.266753 1.86199 0
M  V30 26708 O 2646.81 -0.761889 1.64514 0
M  V30 26709 C 2646.85 2.65682 2.43814 0
M  V30 26710 O 2645.96 2.22993 3.46912 0
M  V30 26711 H 2645.3 0.538284 0.388775 0
M  V30 26712 H 2647.83 1.94501 0.634862 0
M  V30 26713 H 2647.84 2.87023 2.89968 0
M  V30 26714 H 2646.51 3.62872 2.03215 0
M  V30 26715 H 2645.09 2.11875 3.06861 0
M  V30 26716 N 2647.28 -0.776847 1.37123 0
M  V30 26717 C 2648.23 -1.91135 1.32552 0
M  V30 26718 C 2649.22 -1.68028 0.215149 0
M  V30 26719 O 2650.43 -1.75881 0.382883 0
M  V30 26720 H 2646.8 -0.628463 0.412963 0
M  V30 26721 H 2648.77 -1.92108 2.28335 0
M  V30 26722 C 2647.52 -3.28331 1.14428 0
M  V30 26723 H 2646.84 -3.46686 1.99121 0
M  V30 26724 H 2648.28 -4.08028 1.15279 0
M  V30 26725 C 2646.74 -3.36564 -0.150375 0
M  V30 26726 O 2647.27 -3.85309 -1.13577 0
M  V30 26727 N 2645.48 -2.89916 -0.199339 0
M  V30 26728 H 2645.03 -2.50438 0.603186 0
M  V30 26729 H 2644.98 -2.95805 -1.06521 0
M  V30 26730 N 2648.76 -1.2161 -1.00244 0
M  V30 26731 C 2650 -1.03283 -1.73715 0
M  V30 26732 C 2650.32 0.434284 -1.90103 0
M  V30 26733 O 2649.59 1.31309 -1.45378 0
M  V30 26734 H 2648.17 -0.379183 -0.643606 0
M  V30 26735 H 2650.84 -1.52962 -1.20784 0
M  V30 26736 H 2649.93 -1.50287 -2.73533 0
M  V30 26737 N 2650.23 1.19778 -1.02425 0
M  V30 26738 C 2651.17 2.22274 -0.559192 0
M  V30 26739 C 2652.18 1.58713 0.362482 0
M  V30 26740 O 2653.37 1.77785 0.15961 0
M  V30 26741 C 2650.47 3.38279 0.205035 0
M  V30 26742 C 2649.64 4.31426 -0.720437 0
M  V30 26743 C 2648.7 5.262 -0.00243618 0
M  V30 26744 O 2647.73 5.65731 -0.627477 0
M  V30 26745 N 2648.93 5.6644 1.26987 0
M  V30 26746 H 2651.69 2.62801 -1.44068 0
M  V30 26747 H 2649.25 1.34397 -0.902716 0
M  V30 26748 H 2651.25 3.98691 0.694798 0
M  V30 26749 H 2649.82 2.9658 0.987895 0
M  V30 26750 H 2649.04 3.68866 -1.39037 0
M  V30 26751 H 2650.32 4.90575 -1.34959 0
M  V30 26752 H 2649.72 5.3635 1.79849 0
M  V30 26753 H 2648.28 6.29126 1.70421 0
M  V30 26754 N 2651.71 0.801501 1.35697 0
M  V30 26755 C 2652.64 0.222699 2.32436 0
M  V30 26756 C 2653.62 -0.649029 1.57231 0
M  V30 26757 O 2654.81 -0.580354 1.85325 0
M  V30 26758 C 2651.94 -0.633659 3.4147 0
M  V30 26759 C 2650.89 0.139158 4.27774 0
M  V30 26760 C 2650.22 -0.838573 5.28083 0
M  V30 26761 C 2651.52 1.33526 5.04944 0
M  V30 26762 H 2653.21 1.03091 2.81092 0
M  V30 26763 H 2650.76 0.497179 1.35145 0
M  V30 26764 H 2652.71 -1.0486 4.08145 0
M  V30 26765 H 2651.43 -1.4747 2.91411 0
M  V30 26766 H 2650.09 0.53522 3.62672 0
M  V30 26767 H 2649.74 -1.67498 4.74293 0
M  V30 26768 H 2649.44 -0.325837 5.86696 0
M  V30 26769 H 2650.97 -1.25183 5.9763 0
M  V30 26770 H 2652.38 0.995448 5.64592 0
M  V30 26771 H 2650.78 1.78212 5.73027 0
M  V30 26772 H 2651.85 2.1245 4.35882 0
M  V30 26773 N 2653.19 -1.47521 0.554558 0
M  V30 26774 C 2654.44 -2.02079 0.0294563 0
M  V30 26775 C 2654.76 -1.43154 -1.32409 0
M  V30 26776 O 2654.03 -0.605761 -1.86299 0
M  V30 26777 H 2652.61 -0.746958 0.00789985 0
M  V30 26778 H 2655.27 -1.80955 0.723966 0
M  V30 26779 H 2654.37 -3.12041 -0.0606196 0
M  V30 26780 N 2654.67 -0.290879 -1.54892 0
M  V30 26781 C 2655.89 0.327084 -2.04805 0
M  V30 26782 C 2656.32 1.47504 -1.16723 0
M  V30 26783 O 2655.68 1.80509 -0.169139 0
M  V30 26784 C 2655.72 0.770627 -3.52269 0
M  V30 26785 O 2654.83 1.8764 -3.67239 0
M  V30 26786 H 2654.17 0.0652111 -0.66079 0
M  V30 26787 H 2656.7 -0.429774 -2.00035 0
M  V30 26788 H 2656.71 1.06216 -3.93932 0
M  V30 26789 H 2655.38 -0.0691691 -4.15842 0
M  V30 26790 H 2653.96 1.5862 -3.37482 0
M  V30 26791 N 2656.15 1.57589 -0.0184203 0
M  V30 26792 C 2657.39 1.93217 0.666812 0
M  V30 26793 C 2657.75 0.894245 1.69904 0
M  V30 26794 O 2658.95 1.13637 2.43598 0
M  V30 26795 C 2657.22 3.33816 1.27678 0
M  V30 26796 S 2658.78 3.91357 1.98457 0
M  V30 26797 H 2655.6 0.676168 0.219814 0
M  V30 26798 H 2658.2 1.95338 -0.0795236 0
M  V30 26799 H 2656.9 4.07182 0.512934 0
M  V30 26800 H 2656.44 3.35113 2.06065 0
M  V30 26801 H 2658.45 3.73924 3.26183 0
M  V30 26802 N 2657.62 -0.254594 1.5553 0
M  V30 26803 C 2658.57 -1.3178 1.86059 0
M  V30 26804 C 2659.56 -1.43849 0.720852 0
M  V30 26805 O 2660.75 -1.4722 0.982612 0
M  V30 26806 C 2657.88 -2.67471 2.15208 0
M  V30 26807 C 2656.96 -2.59438 3.35489 0
M  V30 26808 N 2657.36 -2.21032 4.54949 0
M  V30 26809 C 2655.65 -2.90466 3.38446 0
M  V30 26810 C 2656.35 -2.23443 5.37074 0
M  V30 26811 N 2655.33 -2.62643 4.75941 0
M  V30 26812 H 2659.13 -1.01124 2.75955 0
M  V30 26813 H 2656.65 -0.463228 1.55653 0
M  V30 26814 H 2658.64 -3.4419 2.35241 0
M  V30 26815 H 2657.3 -2.99 1.26606 0
M  V30 26816 H 2658.31 -1.92703 4.80714 0
M  V30 26817 H 2654.99 -3.26586 2.60092 0
M  V30 26818 H 2656.38 -1.96155 6.4263 0
M  V30 26819 N 2659.1 -1.48777 -0.519925 0
M  V30 26820 C 2660.51 -1.50727 -1.10174 0
M  V30 26821 C 2660.86 -0.282712 -1.94152 0
M  V30 26822 O 2659.99 0.609261 -2.07646 0
M  V30 26823 C 2660.58 -2.7312 -2.00477 0
M  V30 26824 C 2659.14 -2.77909 -2.53857 0
M  V30 26825 C 2658.29 -2.44383 -1.31042 0
M  V30 26826 H 2661.24 -1.55747 -0.304703 0
M  V30 26827 H 2661.26 -2.52208 -2.84906 0
M  V30 26828 H 2660.77 -3.62228 -1.39329 0
M  V30 26829 H 2658.87 -1.93034 -3.18698 0
M  V30 26830 H 2658.99 -3.79599 -2.92304 0
M  V30 26831 H 2657.35 -1.95754 -1.62949 0
M  V30 26832 H 2658.13 -3.35744 -0.716311 0
M  V30 26833 N 2660.58 0.769564 -1.37534 0
M  V30 26834 C 2661.51 1.8968 -1.36176 0
M  V30 26835 C 2662.49 1.68537 -0.23004 0
M  V30 26836 O 2663.68 1.89363 -0.430723 0
M  V30 26837 C 2660.81 3.26993 -1.17016 0
M  V30 26838 C 2659.76 3.62704 -2.27222 0
M  V30 26839 C 2659.09 4.98582 -1.93183 0
M  V30 26840 C 2660.39 3.69228 -3.69416 0
M  V30 26841 H 2662.08 1.91074 -2.30502 0
M  V30 26842 H 2659.63 0.917882 -1.10955 0
M  V30 26843 H 2661.58 4.05491 -1.14695 0
M  V30 26844 H 2660.3 3.26038 -0.191453 0
M  V30 26845 H 2658.96 2.86515 -2.28702 0
M  V30 26846 H 2658.61 4.9417 -0.938368 0
M  V30 26847 H 2658.31 5.23445 -2.66982 0
M  V30 26848 H 2659.83 5.79477 -1.92453 0
M  V30 26849 H 2661.25 4.37873 -3.70055 0
M  V30 26850 H 2659.64 4.05589 -4.42287 0
M  V30 26851 H 2660.71 2.69837 -4.02885 0
M  V30 26852 N 2662.06 1.22139 0.995977 0
M  V30 26853 C 2663.29 1.07032 1.77064 0
M  V30 26854 C 2663.7 -0.379324 1.8495 0
M  V30 26855 O 2663.06 -1.26295 1.31742 0
M  V30 26856 C 2663.11 1.67161 3.2053 0
M  V30 26857 O 2662.83 3.06455 3.13077 0
M  V30 26858 C 2664.33 1.57287 4.14458 0
M  V30 26859 H 2661.55 0.375384 0.556172 0
M  V30 26860 H 2664.1 1.61668 1.25235 0
M  V30 26861 H 2662.25 1.16596 3.69438 0
M  V30 26862 H 2662.66 3.35362 4.03277 0
M  V30 26863 H 2664.14 2.04087 5.12887 0
M  V30 26864 H 2664.62 0.528871 4.36004 0
M  V30 26865 H 2665.22 2.07143 3.71446 0
M  V30 26866 N 2663.54 -1.19233 1.03059 0
M  V30 26867 C 2664.78 -1.88586 0.726614 0
M  V30 26868 C 2665.11 -1.80117 -0.747196 0
M  V30 26869 O 2664.38 -1.21277 -1.53847 0
M  V30 26870 H 2662.96 -0.698119 0.26578 0
M  V30 26871 H 2665.62 -1.44744 1.30519 0
M  V30 26872 H 2664.71 -2.94877 1.02245 0
M  V30 26873 N 2665.01 -0.808686 -1.3527 0
M  V30 26874 C 2666.29 -0.313215 -1.93076 0
M  V30 26875 C 2666.67 1.19749 -1.73849 0
M  V30 26876 O 2666.02 1.99798 -1.10874 0
M  V30 26877 C 2666.23 -0.726919 -3.41346 0
M  V30 26878 C 2667.58 -0.717606 -4.18492 0
M  V30 26879 O 2668.6 -0.668596 -3.49869 0
M  V30 26880 O 2667.46 -0.777874 -5.40936 0
M  V30 26881 H 2664.55 -0.0824162 -0.822883 0
M  V30 26882 H 2667.1 -0.892524 -1.44333 0
M  V30 26883 H 2665.87 -1.76804 -3.49079 0
M  V30 26884 H 2665.5 -0.122531 -3.97411 0
M  V30 26885 N 2666.49 1.47225 -0.562374 0
M  V30 26886 C 2667.73 2.04355 -0.0426734 0
M  V30 26887 C 2668.1 1.42673 1.28485 0
M  V30 26888 O 2669.3 1.90882 1.89256 0
M  V30 26889 C 2667.57 3.57374 0.0433198 0
M  V30 26890 S 2669.13 4.35845 0.508395 0
M  V30 26891 H 2665.95 0.710463 -0.0276359 0
M  V30 26892 H 2668.55 1.8053 -0.750277 0
M  V30 26893 H 2667.25 3.9979 -0.927142 0
M  V30 26894 H 2666.78 3.85704 0.77432 0
M  V30 26895 H 2668.8 4.63668 1.76711 0
M  V30 26896 N 2667.97 0.299089 1.54736 0
M  V30 26897 C 2669.22 -0.311514 1.9928 0
M  V30 26898 C 2669.53 -1.55152 1.1911 0
M  V30 26899 O 2670.74 -2.23659 1.53912 0
M  V30 26900 C 2669.19 -0.60557 3.54769 0
M  V30 26901 C 2668.8 0.615992 4.43745 0
M  V30 26902 C 2670.55 -1.17747 4.07843 0
M  V30 26903 C 2668.45 0.295194 5.90663 0
M  V30 26904 H 2667.38 -0.120174 0.744362 0
M  V30 26905 H 2670.03 0.407495 1.78918 0
M  V30 26906 H 2668.42 -1.38412 3.71023 0
M  V30 26907 H 2669.59 1.39225 4.39264 0
M  V30 26908 H 2667.91 1.1064 4.01432 0
M  V30 26909 H 2670.5 -1.4317 5.15176 0
M  V30 26910 H 2670.85 -2.11912 3.58328 0
M  V30 26911 H 2671.38 -0.46067 3.95124 0
M  V30 26912 H 2668.12 1.20535 6.44323 0
M  V30 26913 H 2667.64 -0.443834 5.98156 0
M  V30 26914 H 2669.32 -0.103935 6.46917 0
M  V30 26915 N 2669.45 -1.57577 0.0267774 0
M  V30 26916 C 2670.4 -2.1123 -0.973886 0
M  V30 26917 C 2671.39 -1.03834 -1.33847 0
M  V30 26918 O 2672.6 -1.22271 -1.32097 0
M  V30 26919 H 2668.97 -0.674827 -0.331832 0
M  V30 26920 H 2670.94 -2.94248 -0.49604 0
M  V30 26921 C 2669.69 -2.65261 -2.24794 0
M  V30 26922 H 2669.01 -3.47547 -1.97614 0
M  V30 26923 H 2670.45 -3.0645 -2.93026 0
M  V30 26924 C 2668.91 -1.57896 -2.97608 0
M  V30 26925 O 2669.44 -0.977419 -3.89627 0
M  V30 26926 N 2667.65 -1.29997 -2.59902 0
M  V30 26927 H 2667.2 -1.791 -1.85151 0
M  V30 26928 H 2667.15 -0.583852 -3.08931 0
M  V30 26929 N 2670.93 0.246342 -1.55663 0
M  V30 26930 C 2671.86 1.32791 -1.86813 0
M  V30 26931 C 2672.87 1.44264 -0.754438 0
M  V30 26932 O 2674.06 1.45604 -1.03256 0
M  V30 26933 C 2671.16 2.70643 -2.03975 0
M  V30 26934 C 2670.33 2.8143 -3.34837 0
M  V30 26935 C 2669.39 4.0013 -3.41734 0
M  V30 26936 O 2668.42 3.89632 -4.14941 0
M  V30 26937 N 2669.62 5.13325 -2.71067 0
M  V30 26938 H 2672.39 1.06404 -2.80175 0
M  V30 26939 H 2669.95 0.436443 -1.55906 0
M  V30 26940 H 2671.94 3.48389 -2.0593 0
M  V30 26941 H 2670.51 2.89735 -1.17355 0
M  V30 26942 H 2669.73 1.90355 -3.45193 0
M  V30 26943 H 2671.02 2.85588 -4.2109 0
M  V30 26944 H 2670.41 5.24747 -2.11323 0
M  V30 26945 H 2668.97 5.89204 -2.78714 0
M  V30 26946 N 2672.4 1.4905 0.512027 0
M  V30 26947 C 2673.31 1.6762 1.64136 0
M  V30 26948 C 2674.33 0.55873 1.64785 0
M  V30 26949 O 2675.51 0.832066 1.83408 0
M  V30 26950 C 2672.57 1.7284 3.00545 0
M  V30 26951 C 2671.63 2.96345 3.10609 0
M  V30 26952 C 2670.87 3.01306 4.40512 0
M  V30 26953 O 2671.09 2.14166 5.28667 0
M  V30 26954 O 2670.02 3.93661 4.55318 0
M  V30 26955 H 2673.85 2.6327 1.51402 0
M  V30 26956 H 2671.43 1.32662 0.687108 0
M  V30 26957 H 2673.32 1.7869 3.81638 0
M  V30 26958 H 2671.99 0.803671 3.13565 0
M  V30 26959 H 2670.9 2.96018 2.28745 0
M  V30 26960 H 2672.23 3.88261 3.02513 0
M  V30 26961 N 2673.88 -0.762259 1.3794 0
M  V30 26962 C 2675.29 -1.33909 1.30097 0
M  V30 26963 C 2675.64 -1.96143 -0.0471681 0
M  V30 26964 O 2674.77 -1.94475 -0.949136 0
M  V30 26965 C 2675.36 -2.43474 2.35597 0
M  V30 26966 C 2673.92 -2.96901 2.31359 0
M  V30 26967 C 2673.07 -1.70201 2.18922 0
M  V30 26968 H 2676.02 -0.56179 1.48424 0
M  V30 26969 H 2676.04 -3.23195 2.00811 0
M  V30 26970 H 2675.55 -1.9815 3.33704 0
M  V30 26971 H 2673.66 -3.46576 1.36805 0
M  V30 26972 H 2673.77 -3.5187 3.25153 0
M  V30 26973 H 2672.13 -1.93494 1.65627 0
M  V30 26974 H 2672.92 -1.26967 3.18958 0
M  V30 26975 N 2675.36 -1.22666 -0.989486 0
M  V30 26976 C 2676.31 -0.999769 -2.08022 0
M  V30 26977 C 2677.28 0.0796755 -1.65909 0
M  V30 26978 O 2678.46 -0.070605 -1.90669 0
M  V30 26979 C 2675.6 -0.587294 -3.40066 0
M  V30 26980 C 2674.72 -1.73788 -3.95502 0
M  V30 26981 C 2673.85 -1.27306 -5.15719 0
M  V30 26982 C 2672.89 -2.39497 -5.633 0
M  V30 26983 N 2672.03 -1.94038 -6.74754 0
M  V30 26984 H 2676.87 -1.93344 -2.26764 0
M  V30 26985 H 2674.4 -0.963317 -1.11169 0
M  V30 26986 H 2676.36 -0.3293 -4.15898 0
M  V30 26987 H 2674.99 0.30937 -3.21314 0
M  V30 26988 H 2674.04 -2.11011 -3.1651 0
M  V30 26989 H 2675.36 -2.58166 -4.26792 0
M  V30 26990 H 2674.51 -0.972652 -5.98853 0
M  V30 26991 H 2673.25 -0.39953 -4.86061 0
M  V30 26992 H 2672.25 -2.70323 -4.78754 0
M  V30 26993 H 2673.48 -3.27372 -5.94983 0
M  V30 26994 H 2671.42 -1.09052 -6.46872 0
M  V30 26995 H 2671.34 -2.7198 -7.05381 0
M  V30 26996 H 2672.61 -1.67076 -7.61384 0
M  V30 26997 N 2676.84 1.18685 -1.0369 0
M  V30 26998 C 2678.12 1.84398 -0.652429 0
M  V30 26999 C 2678.5 1.92413 0.868352 0
M  V30 27000 O 2677.84 1.44719 1.7683 0
M  V30 27001 C 2678.05 3.22917 -1.32385 0
M  V30 27002 C 2679.4 3.98993 -1.45223 0
M  V30 27003 O 2680.43 3.32343 -1.28166 0
M  V30 27004 O 2679.29 5.184 -1.72984 0
M  V30 27005 H 2676.38 0.795005 -0.227806 0
M  V30 27006 H 2678.93 1.26108 -1.13555 0
M  V30 27007 H 2677.7 3.11964 -2.36208 0
M  V30 27008 H 2677.32 3.88859 -0.829107 0
M  V30 27009 N 2678.32 0.815849 1.34839 0
M  V30 27010 C 2679.54 0.412296 2.03261 0
M  V30 27011 C 2679.97 -0.971723 1.61056 0
M  V30 27012 O 2679.33 -1.63099 0.791729 0
M  V30 27013 C 2679.37 0.514351 3.56913 0
M  V30 27014 O 2678.48 -0.468603 4.09729 0
M  V30 27015 H 2677.82 0.170782 0.641661 0
M  V30 27016 H 2680.35 1.1043 1.72239 0
M  V30 27017 H 2680.36 0.387528 4.06155 0
M  V30 27018 H 2679.03 1.52381 3.86979 0
M  V30 27019 H 2677.61 -0.301251 3.71681 0
M  V30 27020 N 2679.8 -1.46924 0.570174 0
M  V30 27021 C 2681.02 -2.07329 0.0542956 0
M  V30 27022 C 2681.45 -1.41809 -1.2358 0
M  V30 27023 O 2680.8 -0.49751 -1.7434 0
M  V30 27024 C 2680.85 -3.60429 -0.111112 0
M  V30 27025 O 2679.96 -3.95436 -1.17064 0
M  V30 27026 H 2679.3 -0.661536 0.0571541 0
M  V30 27027 H 2681.83 -1.88752 0.789549 0
M  V30 27028 H 2681.84 -4.06733 -0.321244 0
M  V30 27029 H 2680.51 -4.07512 0.831084 0
M  V30 27030 H 2679.09 -3.60859 -0.939966 0
M  V30 27031 N 2681.27 -0.307291 -1.54575 0
M  V30 27032 C 2682.68 0.184088 -1.8579 0
M  V30 27033 C 2683.04 1.52925 -1.22916 0
M  V30 27034 O 2682.16 2.0983 -0.529163 0
M  V30 27035 C 2682.76 0.340803 -3.37082 0
M  V30 27036 C 2681.31 0.776401 -3.68306 0
M  V30 27037 C 2680.46 -0.111551 -2.77076 0
M  V30 27038 H 2683.41 -0.528105 -1.49655 0
M  V30 27039 H 2683.43 1.17437 -3.61924 0
M  V30 27040 H 2682.95 -0.638376 -3.82814 0
M  V30 27041 H 2681.05 1.76591 -3.28095 0
M  V30 27042 H 2681.16 0.591429 -4.75436 0
M  V30 27043 H 2679.52 0.410212 -2.51375 0
M  V30 27044 H 2680.31 -1.0872 -3.2563 0
M  V30 27045 N 2682.75 1.57561 -0.0351337 0
M  V30 27046 C 2683.71 2.09494 0.929782 0
M  V30 27047 C 2684.71 1.01121 1.25024 0
M  V30 27048 O 2685.9 1.27258 1.18959 0
M  V30 27049 C 2683.04 2.56581 2.24452 0
M  V30 27050 H 2684.23 2.96036 0.479883 0
M  V30 27051 H 2681.78 1.54842 0.213005 0
M  V30 27052 H 2682.52 1.73386 2.74058 0
M  V30 27053 H 2682.3 3.35761 2.02502 0
M  V30 27054 H 2683.79 2.96964 2.93602 0
M  V30 27055 N 2684.23 -0.238084 1.55791 0
M  V30 27056 C 2685.14 -1.31621 1.94198 0
M  V30 27057 C 2686.16 -1.52184 0.843572 0
M  V30 27058 O 2687.33 -1.65635 1.14573 0
M  V30 27059 C 2684.4 -2.64914 2.23654 0
M  V30 27060 C 2683.46 -2.52798 3.46975 0
M  V30 27061 C 2682.69 -3.79734 3.75017 0
M  V30 27062 O 2682.91 -4.82014 3.0499 0
M  V30 27063 O 2681.85 -3.77838 4.68532 0
M  V30 27064 H 2685.67 -1.02038 2.86045 0
M  V30 27065 H 2683.26 -0.439578 1.42787 0
M  V30 27066 H 2685.14 -3.43665 2.43869 0
M  V30 27067 H 2683.82 -2.94212 1.34984 0
M  V30 27068 H 2682.72 -1.72303 3.32058 0
M  V30 27069 H 2684.06 -2.28443 4.35975 0
M  V30 27070 N 2685.71 -1.4932 -0.504115 0
M  V30 27071 C 2686.62 -1.68488 -1.63245 0
M  V30 27072 C 2687.63 -0.567461 -1.64487 0
M  V30 27073 O 2688.81 -0.841781 -1.82965 0
M  V30 27074 C 2685.87 -1.74431 -2.99624 0
M  V30 27075 C 2684.94 -2.97988 -3.09033 0
M  V30 27076 C 2684.17 -3.03638 -4.38907 0
M  V30 27077 O 2684.39 -2.16967 -5.27524 0
M  V30 27078 O 2683.33 -3.9607 -4.53224 0
M  V30 27079 H 2687.15 -2.64069 -1.50004 0
M  V30 27080 H 2684.74 -1.33024 -0.680063 0
M  V30 27081 H 2686.62 -1.80711 -3.80685 0
M  V30 27082 H 2685.29 -0.820288 -3.13134 0
M  V30 27083 H 2684.2 -2.97227 -2.27172 0
M  V30 27084 H 2685.53 -3.8986 -3.00449 0
M  V30 27085 N 2687.19 0.754933 -1.38342 0
M  V30 27086 C 2688.43 1.52687 -1.3589 0
M  V30 27087 C 2688.79 1.91931 0.0513344 0
M  V30 27088 O 2689.99 2.6805 0.200714 0
M  V30 27089 C 2688.26 2.74672 -2.28671 0
M  V30 27090 S 2689.82 3.64553 -2.44226 0
M  V30 27091 H 2686.64 0.522522 -0.482174 0
M  V30 27092 H 2689.24 0.886327 -1.74254 0
M  V30 27093 H 2687.94 2.43947 -3.30027 0
M  V30 27094 H 2687.48 3.43671 -1.91451 0
M  V30 27095 H 2689.49 4.6742 -1.66533 0
M  V30 27096 N 2688.66 1.23189 0.982967 0
M  V30 27097 C 2689.94 0.970737 1.69812 0
M  V30 27098 C 2690.32 -0.511388 2.04812 0
M  V30 27099 O 2689.67 -1.48195 1.73927 0
M  V30 27100 C 2689.88 1.87837 2.9414 0
M  V30 27101 C 2691.23 2.14032 3.66709 0
M  V30 27102 O 2692.25 1.85366 3.04168 0
M  V30 27103 O 2691.11 2.62637 4.79254 0
M  V30 27104 H 2688.2 0.365897 0.741652 0
M  V30 27105 H 2690.75 1.3422 1.03842 0
M  V30 27106 H 2689.52 2.88043 2.64853 0
M  V30 27107 H 2689.14 1.50912 3.67847 0
M  V30 27108 N 2690.14 -1.18133 1.04318 0
M  V30 27109 C 2691.42 -1.8405 0.662199 0
M  V30 27110 C 2691.8 -1.92871 -0.858135 0
M  V30 27111 O 2691.15 -1.45655 -1.7606 0
M  V30 27112 C 2691.36 -3.2221 1.34096 0
M  V30 27113 C 2692.7 -3.98217 1.47337 0
M  V30 27114 O 2693.73 -3.31659 1.29927 0
M  V30 27115 O 2692.59 -5.17476 1.75731 0
M  V30 27116 H 2689.68 -0.793786 0.232019 0
M  V30 27117 H 2692.23 -1.25504 1.14223 0
M  V30 27118 H 2691 -3.10707 2.37859 0
M  V30 27119 H 2690.62 -3.88414 0.849717 0
M  V30 27120 N 2691.62 -0.822988 -1.34405 0
M  V30 27121 C 2692.86 -0.41695 -2.00102 0
M  V30 27122 C 2693.22 1.00122 -1.63828 0
M  V30 27123 O 2694.43 1.51014 -2.22369 0
M  V30 27124 C 2692.7 -0.613212 -3.521 0
M  V30 27125 S 2694.26 -0.300033 -4.37773 0
M  V30 27126 H 2691.07 -0.15754 -0.693327 0
M  V30 27127 H 2693.68 -1.06882 -1.63697 0
M  V30 27128 H 2692.38 -1.64503 -3.75988 0
M  V30 27129 H 2691.91 0.0533863 -3.93364 0
M  V30 27130 H 2693.93 0.88625 -4.88221 0
M  V30 27131 N 2693.1 1.4662 -0.577957 0
M  V30 27132 C 2694.38 1.95599 0.00491849 0
M  V30 27133 C 2694.76 1.52062 1.46425 0
M  V30 27134 O 2694.1 0.769083 2.15168 0
M  V30 27135 C 2694.31 3.48623 -0.162176 0
M  V30 27136 C 2695.66 4.24591 -0.027537 0
M  V30 27137 O 2696.69 3.56084 -0.0907693 0
M  V30 27138 O 2695.54 5.46385 0.112104 0
M  V30 27139 H 2692.64 0.825332 0.0524912 0
M  V30 27140 H 2695.18 1.56926 -0.645942 0
M  V30 27141 H 2693.96 3.73183 -1.17686 0
M  V30 27142 H 2693.58 3.94114 0.525337 0
M  V30 27143 N 2694.58 0.315484 1.5441 0
M  V30 27144 C 2695.8 -0.29446 2.05299 0
M  V30 27145 C 2696.23 -1.45628 1.19055 0
M  V30 27146 O 2695.58 -1.80217 0.197835 0
M  V30 27147 C 2695.63 -0.714487 3.53451 0
M  V30 27148 O 2694.74 -1.81774 3.70178 0
M  V30 27149 H 2694.08 -0.0546902 0.661744 0
M  V30 27150 H 2696.61 0.461543 1.99326 0
M  V30 27151 H 2696.62 -0.999357 3.95572 0
M  V30 27152 H 2695.29 0.135317 4.1568 0
M  V30 27153 H 2693.87 -1.5323 3.39963 0
M  V30 27154 N 2696.05 -1.5754 0.0434891 0
M  V30 27155 C 2697.29 -1.94254 -0.635989 0
M  V30 27156 C 2697.66 -0.921162 -1.6846 0
M  V30 27157 O 2698.86 -1.17498 -2.4176 0
M  V30 27158 C 2697.13 -3.35805 -1.22351 0
M  V30 27159 S 2698.69 -3.94465 -1.92206 0
M  V30 27160 H 2695.51 -0.679579 -0.209029 0
M  V30 27161 H 2698.11 -1.95187 0.11059 0
M  V30 27162 H 2696.81 -4.07946 -0.44809 0
M  V30 27163 H 2696.34 -3.38349 -2.00707 0
M  V30 27164 H 2698.36 -3.79066 -3.20193 0
M  V30 27165 N 2697.53 0.229818 -1.55915 0
M  V30 27166 C 2698.78 0.956836 -1.78809 0
M  V30 27167 C 2699.11 1.84314 -0.611719 0
M  V30 27168 O 2698.39 1.90563 0.389365 0
M  V30 27169 C 2698.67 1.80283 -3.11721 0
M  V30 27170 C 2698.52 0.943571 -4.39792 0
M  V30 27171 C 2699.84 2.78216 -3.41004 0
M  V30 27172 H 2696.96 0.346426 -0.650506 0
M  V30 27173 H 2699.6 0.226219 -1.88648 0
M  V30 27174 H 2697.75 2.42574 -3.03463 0
M  V30 27175 H 2699.42 0.33804 -4.6006 0
M  V30 27176 H 2697.67 0.248629 -4.33087 0
M  V30 27177 H 2698.34 1.5697 -5.29211 0
M  V30 27178 H 2700.81 2.26061 -3.49336 0
M  V30 27179 H 2699.69 3.34518 -4.35188 0
M  V30 27180 H 2699.95 3.55541 -2.6276 0
M  V30 27181 N 2699.01 1.49585 0.49619 0
M  V30 27182 C 2699.94 1.61218 1.61505 0
M  V30 27183 C 2700.92 0.461073 1.55926 0
M  V30 27184 O 2702.11 0.677262 1.75913 0
M  V30 27185 C 2699.23 1.57157 3.00032 0
M  V30 27186 C 2698.28 2.77524 3.23856 0
M  V30 27187 S 2699.11 4.39139 3.06458 0
M  V30 27188 C 2700.27 4.37732 4.47372 0
M  V30 27189 H 2700.5 2.55866 1.51394 0
M  V30 27190 H 2698.03 1.38536 0.681703 0
M  V30 27191 H 2699.99 1.555 3.79908 0
M  V30 27192 H 2698.65 0.637888 3.07555 0
M  V30 27193 H 2697.85 2.70916 4.24995 0
M  V30 27194 H 2697.45 2.76618 2.51711 0
M  V30 27195 H 2699.74 4.09748 5.39549 0
M  V30 27196 H 2700.68 5.39164 4.59029 0
M  V30 27197 H 2701.09 3.67749 4.28277 0
M  V30 27198 N 2700.49 -0.747586 1.3874 0
M  V30 27199 C 2701.72 -1.53684 1.38524 0
M  V30 27200 C 2702.13 -1.88785 -0.0234797 0
M  V30 27201 O 2701.49 -1.53208 -0.991635 0
M  V30 27202 C 2701.54 -2.83225 2.24646 0
M  V30 27203 O 2701.26 -2.49619 3.60031 0
M  V30 27204 C 2702.76 -3.77329 2.32675 0
M  V30 27205 H 2699.98 -0.475338 0.473597 0
M  V30 27206 H 2702.53 -0.924754 1.82397 0
M  V30 27207 H 2700.68 -3.40796 1.84219 0
M  V30 27208 H 2701.09 -3.32743 4.05441 0
M  V30 27209 H 2702.57 -4.65157 2.97209 0
M  V30 27210 H 2703.05 -4.18189 1.34217 0
M  V30 27211 H 2703.65 -3.25681 2.73518 0
M  V30 27212 N 2701.97 -1.23709 -0.97642 0
M  V30 27213 C 2702.9 -1.04627 -2.08747 0
M  V30 27214 C 2703.88 0.0380657 -1.70057 0
M  V30 27215 O 2705.06 -0.127342 -1.93782 0
M  V30 27216 C 2702.19 -0.640962 -3.41334 0
M  V30 27217 C 2701.15 -1.67309 -3.93944 0
M  V30 27218 C 2700.47 -1.1231 -5.22772 0
M  V30 27219 C 2701.77 -3.06705 -4.22764 0
M  V30 27220 H 2703.47 -1.97559 -2.24968 0
M  V30 27221 H 2701.01 -0.951266 -1.08106 0
M  V30 27222 H 2702.97 -0.494507 -4.18488 0
M  V30 27223 H 2701.69 0.324042 -3.24989 0
M  V30 27224 H 2700.35 -1.80761 -3.18937 0
M  V30 27225 H 2700 -0.148965 -5.02779 0
M  V30 27226 H 2699.7 -1.81277 -5.58939 0
M  V30 27227 H 2701.22 -0.988585 -6.02544 0
M  V30 27228 H 2702.63 -2.96532 -4.90654 0
M  V30 27229 H 2701.03 -3.72945 -4.7014 0
M  V30 27230 H 2702.1 -3.55398 -3.29879 0
M  V30 27231 N 2703.44 1.17579 -1.04943 0
M  V30 27232 C 2704.37 2.23705 -0.669211 0
M  V30 27233 C 2705.36 1.66832 0.331806 0
M  V30 27234 O 2706.54 1.93062 0.209954 0
M  V30 27235 C 2703.67 3.47276 -0.04055 0
M  V30 27236 C 2702.62 4.16955 -0.966057 0
M  V30 27237 C 2701.95 5.34321 -0.201406 0
M  V30 27238 C 2703.25 4.69465 -2.2891 0
M  V30 27239 H 2704.94 2.55765 -1.55643 0
M  V30 27240 H 2702.49 1.22938 -0.749815 0
M  V30 27241 H 2704.44 4.20732 0.237224 0
M  V30 27242 H 2703.17 3.14476 0.881603 0
M  V30 27243 H 2701.83 3.45408 -1.22835 0
M  V30 27244 H 2701.47 4.9777 0.723432 0
M  V30 27245 H 2701.17 5.81877 -0.81807 0
M  V30 27246 H 2702.7 6.10561 0.0691426 0
M  V30 27247 H 2704.11 5.3457 -2.07141 0
M  V30 27248 H 2702.51 5.27591 -2.85951 0
M  V30 27249 H 2703.58 3.86409 -2.92944 0
M  V30 27250 N 2704.92 0.830104 1.33967 0
M  V30 27251 C 2705.87 0.245476 2.31301 0
M  V30 27252 C 2706.86 -0.617734 1.57735 0
M  V30 27253 O 2708.07 -0.508273 1.72675 0
M  V30 27254 H 2704.45 0.0606448 0.749551 0
M  V30 27255 H 2706.42 1.0811 2.78127 0
M  V30 27256 C 2705.17 -0.572023 3.42962 0
M  V30 27257 H 2704.49 0.0828821 3.99714 0
M  V30 27258 H 2705.93 -0.947077 4.13287 0
M  V30 27259 C 2704.39 -1.74732 2.88046 0
M  V30 27260 O 2704.92 -2.84575 2.83513 0
M  V30 27261 N 2703.12 -1.56638 2.44771 0
M  V30 27262 H 2702.67 -0.672857 2.48657 0
M  V30 27263 H 2702.63 -2.35426 2.08379 0
M  V30 27264 N 2706.4 -1.46311 0.585725 0
M  V30 27265 C 2707.68 -1.95599 0.00545469 0
M  V30 27266 C 2708.06 -1.52837 -1.45617 0
M  V30 27267 O 2707.41 -0.780484 -2.14757 0
M  V30 27268 C 2707.62 -3.48532 0.180662 0
M  V30 27269 C 2708.96 -4.2457 0.0500537 0
M  V30 27270 O 2709.99 -3.56031 0.109652 0
M  V30 27271 O 2708.85 -5.46437 -0.0831265 0
M  V30 27272 H 2705.94 -0.825599 -0.0481136 0
M  V30 27273 H 2708.49 -1.56581 0.654255 0
M  V30 27274 H 2707.26 -3.72554 1.19663 0
M  V30 27275 H 2706.88 -3.94387 -0.504429 0
M  V30 27276 N 2707.88 -0.323668 -1.54241 0
M  V30 27277 C 2708.81 0.534953 -2.27289 0
M  V30 27278 C 2709.79 1.11925 -1.28089 0
M  V30 27279 O 2710.98 1.14436 -1.56901 0
M  V30 27280 C 2708.11 1.69591 -3.03078 0
M  V30 27281 C 2707.06 1.24091 -4.09616 0
M  V30 27282 C 2706.39 2.48882 -4.73246 0
M  V30 27283 C 2707.69 0.355698 -5.21087 0
M  V30 27284 H 2709.38 -0.0743784 -2.99308 0
M  V30 27285 H 2706.93 -0.0372127 -1.43952 0
M  V30 27286 H 2708.88 2.30287 -3.52911 0
M  V30 27287 H 2707.6 2.33183 -2.28677 0
M  V30 27288 H 2706.26 0.656881 -3.60667 0
M  V30 27289 H 2705.91 3.10838 -3.9546 0
M  V30 27290 H 2705.61 2.19128 -5.45212 0
M  V30 27291 H 2707.13 3.10339 -5.25854 0
M  V30 27292 H 2708.55 0.868943 -5.66677 0
M  V30 27293 H 2706.94 0.150939 -5.9991 0
M  V30 27294 H 2708.01 -0.613423 -4.81004 0
M  V30 27295 N 2709.36 1.57515 -0.0518432 0
M  V30 27296 C 2710.32 2.10468 0.90751 0
M  V30 27297 C 2711.32 1.02442 1.23945 0
M  V30 27298 O 2712.51 1.28512 1.17602 0
M  V30 27299 C 2709.64 2.58948 2.21718 0
M  V30 27300 H 2710.84 2.96528 0.448457 0
M  V30 27301 H 2708.39 1.55059 0.19657 0
M  V30 27302 H 2709.12 1.76283 2.72203 0
M  V30 27303 H 2708.91 3.3789 1.98929 0
M  V30 27304 H 2710.4 3.00061 2.90436 0
M  V30 27305 N 2710.84 -0.221546 1.56035 0
M  V30 27306 C 2712.06 -0.962832 1.83132 0
M  V30 27307 C 2712.48 -1.77945 0.630966 0
M  V30 27308 O 2711.84 -1.78052 -0.400488 0
M  V30 27309 C 2711.89 -1.88039 3.08745 0
M  V30 27310 O 2711.61 -1.09679 4.24149 0
M  V30 27311 C 2713.11 -2.73557 3.48829 0
M  V30 27312 H 2710.33 -0.282183 0.60878 0
M  V30 27313 H 2712.87 -0.236774 2.03125 0
M  V30 27314 H 2711.03 -2.5604 2.90727 0
M  V30 27315 H 2711.44 -1.71965 4.95508 0
M  V30 27316 H 2712.92 -3.33642 4.39758 0
M  V30 27317 H 2713.39 -3.45951 2.70582 0
M  V30 27318 H 2714 -2.1097 3.69286 0
M  V30 27319 N 2712.31 -1.49846 -0.48825 0
M  V30 27320 C 2713.25 -1.62072 -1.60648 0
M  V30 27321 C 2714.22 -0.469335 -1.55679 0
M  V30 27322 O 2715.41 -0.686581 -1.75551 0
M  V30 27323 C 2712.54 -1.58746 -2.99194 0
M  V30 27324 C 2711.58 -2.79238 -3.2238 0
M  V30 27325 S 2712.41 -4.40758 -3.04125 0
M  V30 27326 C 2713.57 -4.40098 -4.45044 0
M  V30 27327 H 2713.8 -2.56665 -1.50035 0
M  V30 27328 H 2711.34 -1.38895 -0.674347 0
M  V30 27329 H 2713.29 -1.57513 -3.79078 0
M  V30 27330 H 2711.96 -0.65419 -3.07212 0
M  V30 27331 H 2711.15 -2.73166 -4.23552 0
M  V30 27332 H 2710.75 -2.77949 -2.5024 0
M  V30 27333 H 2713.04 -4.12603 -5.37368 0
M  V30 27334 H 2713.99 -5.41591 -4.56163 0
M  V30 27335 H 2714.39 -3.70015 -4.2632 0
M  V30 27336 N 2713.79 0.740218 -1.39135 0
M  V30 27337 C 2715.04 1.49671 -1.35805 0
M  V30 27338 C 2715.36 1.94943 0.0470554 0
M  V30 27339 O 2714.63 1.68613 0.997318 0
M  V30 27340 H 2713.21 0.555215 -0.499745 0
M  V30 27341 H 2715.87 0.879076 -1.73949 0
M  V30 27342 H 2714.97 2.3813 -2.01744 0
M  V30 27343 N 2715.27 1.24225 0.969846 0
M  V30 27344 C 2716.18 1.04974 2.09804 0
M  V30 27345 C 2717.2 -0.00883396 1.73998 0
M  V30 27346 O 2718.37 0.188883 2.00512 0
M  V30 27347 C 2715.44 0.654512 3.40466 0
M  V30 27348 C 2714.5 1.78933 3.90233 0
M  V30 27349 C 2713.73 1.41286 5.14659 0
M  V30 27350 O 2713.95 0.301732 5.69601 0
M  V30 27351 O 2712.89 2.23773 5.58757 0
M  V30 27352 H 2716.71 1.99552 2.28939 0
M  V30 27353 H 2714.3 1.03025 1.08195 0
M  V30 27354 H 2716.18 0.445525 4.19038 0
M  V30 27355 H 2714.86 -0.262159 3.22637 0
M  V30 27356 H 2713.76 2.05304 3.12731 0
M  V30 27357 H 2715.1 2.68469 4.12535 0
M  V30 27358 N 2716.75 -1.1702 1.05565 0
M  V30 27359 C 2717.68 -2.20713 0.617927 0
M  V30 27360 C 2718.69 -1.59619 -0.320275 0
M  V30 27361 O 2719.88 -1.78146 -0.112417 0
M  V30 27362 C 2716.98 -3.38704 -0.115274 0
M  V30 27363 C 2716.15 -4.29364 0.834569 0
M  V30 27364 C 2715.21 -5.26009 0.141948 0
M  V30 27365 O 2714.24 -5.63868 0.77725 0
M  V30 27366 N 2715.44 -5.69608 -1.11924 0
M  V30 27367 H 2718.21 -2.58889 1.50986 0
M  V30 27368 H 2715.77 -1.31957 0.938031 0
M  V30 27369 H 2717.76 -4.00393 -0.588848 0
M  V30 27370 H 2716.33 -2.99094 -0.908915 0
M  V30 27371 H 2715.55 -3.6505 1.48768 0
M  V30 27372 H 2716.84 -4.86824 1.47918 0
M  V30 27373 H 2716.24 -5.4093 -1.65565 0
M  V30 27374 H 2714.79 -6.33424 -1.53681 0
M  V30 27375 N 2718.23 -0.837197 -1.33524 0
M  V30 27376 C 2719.16 -0.284246 -2.31763 0
M  V30 27377 C 2720.14 0.607114 -1.58897 0
M  V30 27378 O 2721.32 0.531015 -1.86799 0
M  V30 27379 C 2718.45 0.542901 -3.4303 0
M  V30 27380 C 2717.41 -0.252526 -4.27254 0
M  V30 27381 C 2716.73 0.698266 -5.30121 0
M  V30 27382 C 2718.03 -1.46866 -5.01226 0
M  V30 27383 H 2719.73 -1.10507 -2.7826 0
M  V30 27384 H 2717.27 -0.532836 -1.33779 0
M  V30 27385 H 2719.22 0.940024 -4.10782 0
M  V30 27386 H 2717.95 1.39692 -2.95218 0
M  V30 27387 H 2716.61 -0.631188 -3.61125 0
M  V30 27388 H 2716.26 1.54864 -4.78567 0
M  V30 27389 H 2715.96 0.170171 -5.87354 0
M  V30 27390 H 2717.48 1.09294 -6.00739 0
M  V30 27391 H 2718.89 -1.14479 -5.61754 0
M  V30 27392 H 2717.29 -1.93343 -5.68101 0
M  V30 27393 H 2718.36 -2.23932 -4.30096 0
M  V30 27394 N 2719.7 1.45999 -0.593476 0
M  V30 27395 C 2721.12 1.57534 -0.255992 0
M  V30 27396 C 2721.32 1.58699 1.24164 0
M  V30 27397 O 2720.38 1.50972 2.02395 0
M  V30 27398 C 2721.69 2.8645 -0.914711 0
M  V30 27399 C 2723.24 3.00101 -0.889306 0
M  V30 27400 C 2723.71 4.31768 -1.52777 0
M  V30 27401 N 2725.2 4.38492 -1.4926 0
M  V30 27402 C 2725.94 5.3901 -1.9559 0
M  V30 27403 N 2725.43 6.46144 -2.49941 0
M  V30 27404 N 2727.23 5.30279 -1.86442 0
M  V30 27405 H 2719.38 1.43486 -1.56606 0
M  V30 27406 H 2721.64 0.685122 -0.655219 0
M  V30 27407 H 2721.35 2.91439 -1.96866 0
M  V30 27408 H 2721.22 3.74748 -0.429422 0
M  V30 27409 H 2723.61 2.94687 0.156059 0
M  V30 27410 H 2723.69 2.13251 -1.41272 0
M  V30 27411 H 2723.33 4.37939 -2.57239 0
M  V30 27412 H 2723.26 5.1741 -0.979489 0
M  V30 27413 H 2725.75 3.61675 -1.09542 0
M  V30 27414 H 2726.07 7.1907 -2.83122 0
M  V30 27415 H 2724.41 6.46934 -2.53972 0
M  V30 27416 H 2727.6 4.45488 -1.4373 0
M  V30 27417 H 2727.78 6.08471 -2.22862 0
M  V30 27418 N 2721.18 0.331843 1.54067 0
M  V30 27419 C 2722.11 -0.522892 2.2757 0
M  V30 27420 C 2723.09 -1.11244 1.28681 0
M  V30 27421 O 2724.28 -1.13603 1.57506 0
M  V30 27422 C 2721.41 -1.67981 3.03973 0
M  V30 27423 C 2720.36 -1.21917 4.10269 0
M  V30 27424 C 2719.69 -2.46369 4.74559 0
M  V30 27425 C 2720.99 -0.328058 5.21269 0
M  V30 27426 H 2722.68 0.0902503 2.99264 0
M  V30 27427 H 2720.23 0.0448463 1.4393 0
M  V30 27428 H 2722.18 -2.28412 3.54127 0
M  V30 27429 H 2720.91 -2.31967 2.2991 0
M  V30 27430 H 2719.56 -0.637745 3.6101 0
M  V30 27431 H 2719.21 -3.08736 3.97103 0
M  V30 27432 H 2718.91 -2.16234 5.46367 0
M  V30 27433 H 2720.44 -3.07546 5.27492 0
M  V30 27434 H 2721.85 -0.838878 5.67129 0
M  V30 27435 H 2720.25 -0.119122 5.99982 0
M  V30 27436 H 2721.32 0.638924 4.80672 0
M  V30 27437 N 2722.66 -1.57485 0.0601958 0
M  V30 27438 C 2723.91 -1.93331 -0.612467 0
M  V30 27439 C 2724.24 -0.939556 -1.69959 0
M  V30 27440 O 2723.51 0.0330616 -1.94472 0
M  V30 27441 C 2723.8 -3.39511 -1.20019 0
M  V30 27442 C 2723.65 -4.49639 -0.120511 0
M  V30 27443 C 2724.97 -3.86267 -2.10916 0
M  V30 27444 H 2722.09 -0.70303 -0.221172 0
M  V30 27445 H 2724.73 -1.89596 0.123801 0
M  V30 27446 H 2722.88 -3.42824 -1.82768 0
M  V30 27447 H 2724.55 -4.58451 0.51193 0
M  V30 27448 H 2722.8 -4.30295 0.550327 0
M  V30 27449 H 2723.47 -5.49029 -0.571922 0
M  V30 27450 H 2725.94 -3.84887 -1.58118 0
M  V30 27451 H 2724.82 -4.89184 -2.48978 0
M  V30 27452 H 2725.08 -3.23541 -3.01286 0
M  V30 27453 N 2724.14 0.213268 -1.5615 0
M  V30 27454 C 2725.09 1.26434 -1.93089 0
M  V30 27455 C 2726.06 1.46158 -0.789111 0
M  V30 27456 O 2727.24 1.59591 -1.04572 0
M  V30 27457 C 2724.38 2.60796 -2.26008 0
M  V30 27458 C 2723.49 2.48801 -3.5316 0
M  V30 27459 C 2722.63 3.75743 -3.75487 0
M  V30 27460 C 2721.67 3.58505 -4.96126 0
M  V30 27461 N 2720.8 4.77416 -5.14799 0
M  V30 27462 H 2725.64 0.942326 -2.82709 0
M  V30 27463 H 2723.18 0.453976 -1.3992 0
M  V30 27464 H 2725.14 3.39051 -2.43106 0
M  V30 27465 H 2723.77 2.91076 -1.39551 0
M  V30 27466 H 2722.82 1.61938 -3.4421 0
M  V30 27467 H 2724.13 2.31988 -4.41569 0
M  V30 27468 H 2723.29 4.6244 -3.92726 0
M  V30 27469 H 2722.03 3.9549 -2.85375 0
M  V30 27470 H 2721.03 2.70192 -4.78828 0
M  V30 27471 H 2722.26 3.4022 -5.8773 0
M  V30 27472 H 2720.2 4.97461 -4.27631 0
M  V30 27473 H 2720.12 4.6336 -5.97355 0
M  V30 27474 H 2721.39 5.65516 -5.36481 0
M  V30 27475 N 2725.62 1.50103 0.480296 0
M  V30 27476 C 2726.84 1.64644 1.26123 0
M  V30 27477 C 2727.27 0.325855 1.85256 0
M  V30 27478 O 2726.62 -0.709164 1.66855 0
M  V30 27479 C 2726.67 2.73305 2.35238 0
M  V30 27480 O 2725.78 2.33917 3.39642 0
M  V30 27481 H 2725.12 0.55038 0.371453 0
M  V30 27482 H 2727.65 1.96422 0.572661 0
M  V30 27483 H 2727.66 2.96103 2.8069 0
M  V30 27484 H 2726.33 3.69154 1.91568 0
M  V30 27485 H 2724.91 2.2153 2.99965 0
M  V30 27486 N 2727.09 -0.732829 1.39526 0
M  V30 27487 C 2728.03 -1.85716 1.34322 0
M  V30 27488 C 2729.04 -1.60844 0.251604 0
M  V30 27489 O 2730.23 -1.71038 0.510715 0
M  V30 27490 C 2727.33 -3.21784 1.0634 0
M  V30 27491 C 2726.5 -3.73994 2.2682 0
M  V30 27492 C 2725.56 -4.8863 1.95261 0
M  V30 27493 O 2724.59 -5.02178 2.67966 0
M  V30 27494 N 2725.79 -5.73162 0.920085 0
M  V30 27495 H 2728.55 -1.90684 2.31214 0
M  V30 27496 H 2726.11 -0.913657 1.33656 0
M  V30 27497 H 2728.11 -3.96046 0.832432 0
M  V30 27498 H 2726.68 -3.12071 0.181737 0
M  V30 27499 H 2725.9 -2.91059 2.65854 0
M  V30 27500 H 2727.18 -4.0561 3.07177 0
M  V30 27501 H 2726.58 -5.64808 0.317586 0
M  V30 27502 H 2725.14 -6.47482 0.749019 0
M  V30 27503 N 2728.57 -1.24737 -0.963244 0
M  V30 27504 C 2729.5 -1.06836 -2.07626 0
M  V30 27505 C 2730.48 0.0200267 -1.70088 0
M  V30 27506 O 2731.67 -0.147888 -1.93636 0
M  V30 27507 C 2728.8 -0.677129 -3.40635 0
M  V30 27508 C 2727.75 -1.71478 -3.92147 0
M  V30 27509 C 2727.08 -1.17849 -5.21551 0
M  V30 27510 C 2728.38 -3.11172 -4.19487 0
M  V30 27511 H 2730.07 -1.99934 -2.2286 0
M  V30 27512 H 2727.62 -0.962679 -1.07091 0
M  V30 27513 H 2729.57 -0.538866 -4.1794 0
M  V30 27514 H 2728.3 0.289554 -3.25314 0
M  V30 27515 H 2726.95 -1.84134 -3.17002 0
M  V30 27516 H 2726.6 -0.202284 -5.02593 0
M  V30 27517 H 2726.3 -1.87195 -5.56985 0
M  V30 27518 H 2727.83 -1.05244 -6.01462 0
M  V30 27519 H 2729.24 -3.01719 -4.87482 0
M  V30 27520 H 2727.64 -3.77911 -4.66158 0
M  V30 27521 H 2728.71 -3.58877 -3.26091 0
M  V30 27522 N 2730.05 1.16459 -1.06184 0
M  V30 27523 C 2730.98 2.20382 -0.629623 0
M  V30 27524 C 2732 1.59786 0.311805 0
M  V30 27525 O 2733.18 1.78203 0.102968 0
M  V30 27526 C 2730.28 3.3876 0.0973099 0
M  V30 27527 C 2729.46 4.28916 -0.857327 0
M  V30 27528 C 2728.52 5.25926 -0.169841 0
M  V30 27529 O 2727.54 5.63448 -0.807143 0
M  V30 27530 N 2728.74 5.70194 1.08901 0
M  V30 27531 H 2731.51 2.58085 -1.52356 0
M  V30 27532 H 2729.07 1.31457 -0.945016 0
M  V30 27533 H 2731.06 4.007 0.567606 0
M  V30 27534 H 2729.63 2.99572 0.89304 0
M  V30 27535 H 2728.85 3.64256 -1.50702 0
M  V30 27536 H 2730.14 4.86033 -1.50498 0
M  V30 27537 H 2729.54 5.418 1.62694 0
M  V30 27538 H 2728.1 6.3423 1.5032 0
M  V30 27539 N 2731.53 0.844266 1.33079 0
M  V30 27540 C 2732.78 0.44171 1.97214 0
M  V30 27541 C 2733.1 -1.00367 1.67187 0
M  V30 27542 O 2732.37 -1.69993 0.973618 0
M  V30 27543 H 2730.95 0.160348 0.729587 0
M  V30 27544 H 2733.61 1.07841 1.62346 0
M  V30 27545 H 2732.71 0.578204 3.06697 0
M  V30 27546 N 2733.01 -1.45682 0.60121 0
M  V30 27547 C 2733.94 -2.33246 -0.108783 0
M  V30 27548 C 2734.92 -1.46453 -0.865197 0
M  V30 27549 O 2736.1 -1.75236 -0.837009 0
M  V30 27550 C 2733.23 -3.29052 -1.11095 0
M  V30 27551 C 2732.19 -4.25432 -0.46817 0
M  V30 27552 C 2731.51 -5.10881 -1.57813 0
M  V30 27553 C 2732.81 -5.18766 0.606561 0
M  V30 27554 H 2734.51 -2.9286 0.622358 0
M  V30 27555 H 2732.05 -1.40825 0.300739 0
M  V30 27556 H 2734.01 -3.89177 -1.61615 0
M  V30 27557 H 2732.73 -2.67584 -1.8726 0
M  V30 27558 H 2731.39 -3.66596 0.0161129 0
M  V30 27559 H 2731.04 -4.45785 -2.32991 0
M  V30 27560 H 2730.74 -5.76165 -1.15358 0
M  V30 27561 H 2732.26 -5.73873 -2.08573 0
M  V30 27562 H 2733.67 -5.72999 0.185689 0
M  V30 27563 H 2732.07 -5.92493 0.952486 0
M  V30 27564 H 2733.14 -4.6158 1.48567 0
M  V30 27565 N 2734.48 -0.340009 -1.53889 0
M  V30 27566 C 2735.71 0.261761 -2.05742 0
M  V30 27567 C 2736.13 1.43715 -1.21357 0
M  V30 27568 O 2735.49 1.7988 -0.226481 0
M  V30 27569 C 2735.54 0.658165 -3.54543 0
M  V30 27570 O 2734.64 1.75862 -3.73023 0
M  V30 27571 H 2733.99 0.0441556 -0.66253 0
M  V30 27572 H 2736.52 -0.493196 -1.98567 0
M  V30 27573 H 2736.53 0.936298 -3.97111 0
M  V30 27574 H 2735.2 -0.201431 -4.15412 0
M  V30 27575 H 2733.78 1.47803 -3.42358 0
M  V30 27576 N 2735.96 1.57451 -0.0685468 0
M  V30 27577 C 2736.93 2.11419 0.885136 0
M  V30 27578 C 2737.93 1.03751 1.22851 0
M  V30 27579 O 2739.12 1.29752 1.16233 0
M  V30 27580 C 2736.25 2.61285 2.18959 0
M  V30 27581 H 2737.44 2.96987 0.416981 0
M  V30 27582 H 2734.99 1.55259 0.180113 0
M  V30 27583 H 2735.73 1.79161 2.70318 0
M  V30 27584 H 2735.51 3.39981 1.95334 0
M  V30 27585 H 2737 3.03125 2.87237 0
M  V30 27586 N 2737.44 -0.204984 1.56261 0
M  V30 27587 C 2738.67 -0.947479 1.84493 0
M  V30 27588 C 2739.09 -1.76478 0.650925 0
M  V30 27589 O 2738.45 -1.76825 -0.400319 0
M  V30 27590 C 2738.5 -1.82742 3.10866 0
M  V30 27591 O 2737.6 -2.92495 2.90724 0
M  V30 27592 H 2736.94 -0.267375 0.607788 0
M  V30 27593 H 2739.47 -0.213287 2.03485 0
M  V30 27594 H 2739.48 -2.23401 3.41403 0
M  V30 27595 H 2738.16 -1.22683 3.97394 0
M  V30 27596 H 2736.73 -2.55662 2.71461 0
M  V30 27597 N 2738.92 -1.50356 -0.472329 0
M  V30 27598 C 2739.88 -1.68579 -1.55287 0
M  V30 27599 C 2740.88 -0.556538 -1.50862 0
M  V30 27600 O 2742.07 -0.823543 -1.53504 0
M  V30 27601 C 2739.2 -1.70986 -2.94918 0
M  V30 27602 H 2740.4 -2.64981 -1.40447 0
M  V30 27603 H 2737.95 -1.39818 -0.69862 0
M  V30 27604 H 2738.69 -0.76273 -3.15203 0
M  V30 27605 H 2738.47 -2.53022 -2.99536 0
M  V30 27606 H 2739.96 -1.87044 -3.73369 0
M  V30 27607 N 2740.4 0.725419 -1.39912 0
M  V30 27608 C 2741.65 1.48222 -1.37385 0
M  V30 27609 C 2741.97 1.94982 0.0263765 0
M  V30 27610 O 2741.24 1.69661 0.979378 0
M  V30 27611 H 2739.82 0.549883 -0.505606 0
M  V30 27612 H 2742.48 0.860577 -1.74872 0
M  V30 27613 H 2741.57 2.35977 -2.04258 0
M  V30 27614 N 2741.88 1.25246 0.956615 0
M  V30 27615 C 2742.81 1.07935 2.07056 0
M  V30 27616 C 2743.79 -0.0110062 1.70096 0
M  V30 27617 O 2744.97 0.158155 1.93555 0
M  V30 27618 C 2742.1 0.695184 3.40271 0
M  V30 27619 C 2741.06 1.73555 3.91232 0
M  V30 27620 C 2740.38 1.20613 5.20919 0
M  V30 27621 C 2741.68 3.13392 4.17831 0
M  V30 27622 H 2743.38 2.01113 2.21797 0
M  V30 27623 H 2740.92 0.968345 1.06579 0
M  V30 27624 H 2742.87 0.561023 4.17649 0
M  V30 27625 H 2741.6 -0.272298 3.25463 0
M  V30 27626 H 2740.26 1.85812 3.16021 0
M  V30 27627 H 2739.91 0.228934 5.02479 0
M  V30 27628 H 2739.61 1.90146 5.55984 0
M  V30 27629 H 2741.13 1.08432 6.00895 0
M  V30 27630 H 2742.54 3.043 4.85875 0
M  V30 27631 H 2740.94 3.80377 4.64148 0
M  V30 27632 H 2742.01 3.60601 3.24183 0
M  V30 27633 N 2743.35 -1.15894 1.068 0
M  V30 27634 C 2744.28 -2.22612 0.704716 0
M  V30 27635 C 2745.26 -1.67339 -0.305222 0
M  V30 27636 O 2746.45 -1.93371 -0.179213 0
M  V30 27637 C 2743.58 -3.47168 0.0957935 0
M  V30 27638 C 2742.53 -4.15365 1.03227 0
M  V30 27639 C 2741.86 -5.33933 0.286386 0
M  V30 27640 C 2743.16 -4.65764 2.3635 0
M  V30 27641 H 2744.85 -2.53256 1.59693 0
M  V30 27642 H 2742.4 -1.2173 0.769278 0
M  V30 27643 H 2744.35 -4.21056 -0.170259 0
M  V30 27644 H 2743.08 -3.15839 -0.831461 0
M  V30 27645 H 2741.74 -3.43411 1.28315 0
M  V30 27646 H 2741.38 -4.98858 -0.644149 0
M  V30 27647 H 2741.08 -5.80502 0.910538 0
M  V30 27648 H 2742.61 -6.10594 0.0280011 0
M  V30 27649 H 2744.02 -5.31207 2.15619 0
M  V30 27650 H 2742.42 -5.22975 2.94308 0
M  V30 27651 H 2743.49 -3.817 2.99054 0
M  V30 27652 N 2744.83 -0.851312 -1.32629 0
M  V30 27653 C 2745.74 -0.296309 -2.32721 0
M  V30 27654 C 2746.76 0.584134 -1.63902 0
M  V30 27655 O 2747.93 0.485299 -1.95466 0
M  V30 27656 C 2745 0.509043 -3.42943 0
M  V30 27657 C 2744.06 -0.397144 -4.27459 0
M  V30 27658 C 2743.29 0.369866 -5.32417 0
M  V30 27659 O 2743.52 1.60021 -5.47494 0
M  V30 27660 O 2742.45 -0.262599 -6.01327 0
M  V30 27661 H 2746.28 -1.12548 -2.82076 0
M  V30 27662 H 2743.86 -0.614159 -1.36193 0
M  V30 27663 H 2745.74 0.966268 -4.10172 0
M  V30 27664 H 2744.42 1.31507 -2.95783 0
M  V30 27665 H 2743.32 -0.902474 -3.63051 0
M  V30 27666 H 2744.66 -1.16826 -4.78134 0
M  V30 27667 N 2746.31 1.45361 -0.608928 0
M  V30 27668 C 2747.24 2.28726 0.147277 0
M  V30 27669 C 2748.25 1.40027 0.830443 0
M  V30 27670 O 2749.44 1.64388 0.695607 0
M  V30 27671 C 2746.54 3.15806 1.22963 0
M  V30 27672 C 2745.72 4.32791 0.633315 0
M  V30 27673 C 2744.78 5.0107 1.60673 0
M  V30 27674 O 2743.8 5.5782 1.13251 0
M  V30 27675 N 2745 5.00477 2.94114 0
M  V30 27676 H 2747.77 2.94267 -0.568066 0
M  V30 27677 H 2745.33 1.55564 -0.448507 0
M  V30 27678 H 2747.32 3.58348 1.88066 0
M  V30 27679 H 2745.89 2.52165 1.84747 0
M  V30 27680 H 2745.11 3.93713 -0.195831 0
M  V30 27681 H 2746.4 5.08345 0.215166 0
M  V30 27682 H 2745.8 4.55663 3.35242 0
M  V30 27683 H 2744.35 5.46879 3.54636 0
M  V30 27684 N 2747.79 0.348166 1.53706 0
M  V30 27685 C 2748.72 -0.549628 2.21482 0
M  V30 27686 C 2749.7 -1.09669 1.20048 0
M  V30 27687 O 2750.88 -1.15609 1.48885 0
M  V30 27688 C 2748.01 -1.75659 2.89589 0
M  V30 27689 C 2747.06 -1.33857 4.0495 0
M  V30 27690 S 2747.89 -0.354483 5.34325 0
M  V30 27691 C 2749.04 -1.56817 6.05937 0
M  V30 27692 H 2749.28 0.0260278 2.97289 0
M  V30 27693 H 2746.81 0.132243 1.53833 0
M  V30 27694 H 2748.77 -2.449 3.29445 0
M  V30 27695 H 2747.43 -2.30347 2.13539 0
M  V30 27696 H 2746.62 -2.23861 4.51556 0
M  V30 27697 H 2746.22 -0.725586 3.66894 0
M  V30 27698 H 2748.52 -2.50194 6.2961 0
M  V30 27699 H 2749.46 -1.14382 6.98801 0
M  V30 27700 H 2749.87 -1.76632 5.36154 0
M  V30 27701 N 2749.27 -1.57412 0.0768958 0
M  V30 27702 C 2750.68 -1.57129 -0.279745 0
M  V30 27703 C 2750.88 -1.08669 -1.69686 0
M  V30 27704 O 2749.94 -0.754886 -2.40952 0
M  V30 27705 C 2751.25 -3.00581 -0.0847526 0
M  V30 27706 C 2752.8 -3.12621 -0.153899 0
M  V30 27707 C 2753.27 -4.57998 0.0128751 0
M  V30 27708 N 2754.76 -4.6318 -0.0425621 0
M  V30 27709 C 2755.5 -5.73366 0.06199 0
M  V30 27710 N 2755 -6.92449 0.220351 0
M  V30 27711 N 2756.79 -5.621 0.00455952 0
M  V30 27712 H 2748.94 -1.87226 1.003 0
M  V30 27713 H 2751.2 -0.863347 0.391581 0
M  V30 27714 H 2750.91 -3.40166 0.89331 0
M  V30 27715 H 2750.78 -3.67844 -0.834896 0
M  V30 27716 H 2753.17 -2.72919 -1.12245 0
M  V30 27717 H 2753.25 -2.47986 0.627433 0
M  V30 27718 H 2752.89 -4.98391 0.978216 0
M  V30 27719 H 2752.82 -5.20672 -0.787924 0
M  V30 27720 H 2755.32 -3.77548 -0.16316 0
M  V30 27721 H 2755.63 -7.72248 0.292135 0
M  V30 27722 H 2753.97 -6.94529 0.25578 0
M  V30 27723 H 2757.16 -4.67952 -0.117897 0
M  V30 27724 H 2757.34 -6.47938 0.0894935 0
M  V30 27725 N 2750.74 0.196695 -1.56368 0
M  V30 27726 C 2751.69 1.24784 -1.90822 0
M  V30 27727 C 2752.68 1.41074 -0.773744 0
M  V30 27728 O 2753.87 1.43472 -1.03657 0
M  V30 27729 C 2751 2.59299 -2.24986 0
M  V30 27730 C 2750.09 2.46808 -3.44887 0
M  V30 27731 N 2750.48 2.03995 -4.62839 0
M  V30 27732 C 2748.77 2.77705 -3.48993 0
M  V30 27733 C 2749.48 2.03356 -5.44997 0
M  V30 27734 N 2748.45 2.44798 -4.8536 0
M  V30 27735 H 2752.25 0.908126 -2.79518 0
M  V30 27736 H 2749.77 0.405139 -1.57265 0
M  V30 27737 H 2751.76 3.35222 -2.47854 0
M  V30 27738 H 2750.42 2.94095 -1.37616 0
M  V30 27739 H 2751.44 1.74729 -4.87535 0
M  V30 27740 H 2748.11 3.16708 -2.72034 0
M  V30 27741 H 2749.5 1.72169 -6.49467 0
M  V30 27742 N 2752.22 1.50604 0.464349 0
M  V30 27743 C 2753.16 1.64607 1.58049 0
M  V30 27744 C 2754.13 0.494043 1.54913 0
M  V30 27745 O 2755.32 0.714423 1.74437 0
M  V30 27746 C 2752.44 1.63486 2.96631 0
M  V30 27747 C 2751.49 2.84331 3.17896 0
M  V30 27748 S 2752.32 4.45541 2.97075 0
M  V30 27749 C 2753.48 4.47123 4.37986 0
M  V30 27750 H 2753.71 2.59019 1.45933 0
M  V30 27751 H 2751.25 1.39951 0.652164 0
M  V30 27752 H 2753.2 1.63524 3.76524 0
M  V30 27753 H 2751.86 0.702982 3.06132 0
M  V30 27754 H 2751.06 2.7987 4.19153 0
M  V30 27755 H 2750.66 2.81895 2.45787 0
M  V30 27756 H 2752.95 4.211 5.30736 0
M  V30 27757 H 2753.89 5.4878 4.47489 0
M  V30 27758 H 2754.3 3.76751 4.2038 0
M  V30 27759 N 2753.7 -0.717989 1.40295 0
M  V30 27760 C 2754.61 -1.86224 1.42681 0
M  V30 27761 C 2755.63 -1.71038 0.319685 0
M  V30 27762 O 2756.8 -1.93345 0.563886 0
M  V30 27763 C 2753.87 -3.21997 1.28526 0
M  V30 27764 C 2752.93 -3.49454 2.4936 0
M  V30 27765 C 2752.16 -4.78749 2.35871 0
M  V30 27766 O 2752.38 -5.53673 1.37123 0
M  V30 27767 O 2751.32 -5.06488 3.25198 0
M  V30 27768 H 2755.14 -1.87167 2.3917 0
M  V30 27769 H 2752.73 -0.868091 1.21592 0
M  V30 27770 H 2754.61 -4.03101 1.22831 0
M  V30 27771 H 2753.29 -3.21787 0.351415 0
M  V30 27772 H 2752.19 -2.68368 2.60633 0
M  V30 27773 H 2753.53 -3.54458 3.41497 0
M  V30 27774 N 2755.18 -1.25752 -0.94996 0
M  V30 27775 C 2756.41 -1.1353 -1.7297 0
M  V30 27776 C 2756.82 0.31042 -1.86231 0
M  V30 27777 O 2756.18 1.21318 -1.36339 0
M  V30 27778 C 2756.23 -1.78942 -3.14105 0
M  V30 27779 O 2755.95 -3.17863 -3.01487 0
M  V30 27780 C 2757.45 -1.72561 -4.08335 0
M  V30 27781 H 2754.67 -0.395768 -0.541857 0
M  V30 27782 H 2757.22 -1.66205 -1.19148 0
M  V30 27783 H 2755.37 -1.30227 -3.64856 0
M  V30 27784 H 2755.78 -3.50098 -3.90553 0
M  V30 27785 H 2757.26 -2.22981 -5.04959 0
M  V30 27786 H 2757.74 -0.690327 -4.33741 0
M  V30 27787 H 2758.34 -2.20786 -3.63502 0
M  V30 27788 N 2756.66 1.15326 -1.07413 0
M  V30 27789 C 2757.59 2.19702 -0.652962 0
M  V30 27790 C 2758.6 1.60108 0.29484 0
M  V30 27791 O 2759.79 1.78302 0.0840618 0
M  V30 27792 C 2756.89 3.38844 0.0613744 0
M  V30 27793 C 2756.06 4.27982 -0.902771 0
M  V30 27794 C 2755.12 5.25716 -0.225613 0
M  V30 27795 O 2754.15 5.6256 -0.866858 0
M  V30 27796 N 2755.35 5.71317 1.02848 0
M  V30 27797 H 2758.12 2.56454 -1.55085 0
M  V30 27798 H 2755.68 1.30448 -0.958906 0
M  V30 27799 H 2757.67 4.01279 0.525074 0
M  V30 27800 H 2756.24 3.00503 0.861216 0
M  V30 27801 H 2755.46 3.62637 -1.54557 0
M  V30 27802 H 2756.75 4.84409 -1.55645 0
M  V30 27803 H 2756.14 5.43495 1.56938 0
M  V30 27804 H 2754.7 6.35788 1.43584 0
M  V30 27805 N 2758.13 0.858334 1.32176 0
M  V30 27806 C 2759.1 0.310628 2.27085 0
M  V30 27807 C 2760.1 -0.53178 1.51752 0
M  V30 27808 O 2761.29 -0.34276 1.70795 0
M  V30 27809 C 2758.42 -0.56012 3.36267 0
M  V30 27810 H 2759.61 1.14835 2.77043 0
M  V30 27811 H 2757.17 0.632967 1.4291 0
M  V30 27812 H 2757.9 -1.41951 2.91583 0
M  V30 27813 H 2757.69 0.0429162 3.92077 0
M  V30 27814 H 2759.18 -0.935984 4.06976 0
M  V30 27815 N 2759.61 -1.45036 0.616628 0
M  V30 27816 C 2760.56 -2.30596 -0.0969034 0
M  V30 27817 C 2761.53 -1.42636 -0.851126 0
M  V30 27818 O 2762.71 -1.71556 -0.835062 0
M  V30 27819 C 2759.85 -3.2769 -1.08229 0
M  V30 27820 C 2758.97 -4.30753 -0.327996 0
M  V30 27821 C 2758.1 -5.14948 -1.3039 0
M  V30 27822 C 2757.14 -6.09732 -0.537942 0
M  V30 27823 N 2756.28 -6.86676 -1.46358 0
M  V30 27824 H 2761.12 -2.91075 0.638692 0
M  V30 27825 H 2758.66 -1.43425 0.326758 0
M  V30 27826 H 2760.61 -3.82457 -1.66682 0
M  V30 27827 H 2759.24 -2.68944 -1.78519 0
M  V30 27828 H 2758.3 -3.78575 0.372202 0
M  V30 27829 H 2759.61 -4.98073 0.26923 0
M  V30 27830 H 2758.76 -5.74161 -1.96022 0
M  V30 27831 H 2757.5 -4.47668 -1.93506 0
M  V30 27832 H 2756.51 -5.49642 0.131949 0
M  V30 27833 H 2757.73 -6.79043 0.0882925 0
M  V30 27834 H 2755.68 -6.22077 -2.08222 0
M  V30 27835 H 2755.59 -7.50381 -0.92002 0
M  V30 27836 H 2756.86 -7.50422 -2.10919 0
M  V30 27837 N 2761.09 -0.356312 -1.53519 0
M  V30 27838 C 2762.37 0.292189 -1.93405 0
M  V30 27839 C 2762.75 1.67174 -1.28904 0
M  V30 27840 O 2762.1 2.24131 -0.444672 0
M  V30 27841 C 2762.31 0.351689 -3.47223 0
M  V30 27842 C 2763.65 0.59646 -4.2039 0
M  V30 27843 O 2764.68 0.433281 -3.53555 0
M  V30 27844 O 2763.54 0.913494 -5.38811 0
M  V30 27845 H 2760.63 0.173158 -0.808669 0
M  V30 27846 H 2763.18 -0.40842 -1.64712 0
M  V30 27847 H 2761.95 -0.615909 -3.86422 0
M  V30 27848 H 2761.57 1.09857 -3.82122 0
M  V30 27849 N 2762.57 1.57369 -0.0852427 0
M  V30 27850 C 2763.5 2.16505 0.874518 0
M  V30 27851 C 2764.48 1.0957 1.30109 0
M  V30 27852 O 2765.66 1.37665 1.36975 0
M  V30 27853 C 2762.79 2.73749 2.13726 0
M  V30 27854 C 2761.75 3.85969 1.84964 0
M  V30 27855 C 2761.07 4.29873 3.17983 0
M  V30 27856 C 2762.37 5.0961 1.14433 0
M  V30 27857 H 2764.07 2.96955 0.381847 0
M  V30 27858 H 2761.61 1.42842 0.182225 0
M  V30 27859 H 2763.57 3.13768 2.81297 0
M  V30 27860 H 2762.29 1.90539 2.65259 0
M  V30 27861 H 2760.95 3.46475 1.19794 0
M  V30 27862 H 2760.6 3.43567 3.67384 0
M  V30 27863 H 2760.3 5.05528 2.99525 0
M  V30 27864 H 2761.82 4.72518 3.86729 0
M  V30 27865 H 2763.24 5.4686 1.72096 0
M  V30 27866 H 2761.63 5.9063 1.06187 0
M  V30 27867 H 2762.7 4.84738 0.125505 0
M  V30 27868 N 2764.05 -0.188399 1.5647 0
M  V30 27869 C 2765.46 -0.539505 1.50205 0
M  V30 27870 C 2765.66 -1.85518 0.786472 0
M  V30 27871 O 2764.72 -2.50204 0.339758 0
M  V30 27872 C 2766.03 -0.588051 2.94894 0
M  V30 27873 C 2767.58 -0.676426 3.05603 0
M  V30 27874 C 2768.05 -0.756022 4.51717 0
M  V30 27875 N 2769.55 -0.819371 4.55895 0
M  V30 27876 C 2770.28 -0.90124 5.66273 0
M  V30 27877 N 2769.78 -0.944998 6.86325 0
M  V30 27878 N 2771.57 -0.938946 5.54202 0
M  V30 27879 H 2763.72 0.674529 2.01405 0
M  V30 27880 H 2765.98 0.241119 0.916824 0
M  V30 27881 H 2765.69 0.309695 3.50334 0
M  V30 27882 H 2765.56 -1.44045 3.48613 0
M  V30 27883 H 2767.95 -1.5646 2.50208 0
M  V30 27884 H 2768.03 0.202307 2.54999 0
M  V30 27885 H 2767.68 0.127829 5.07739 0
M  V30 27886 H 2767.61 -1.65065 5.00061 0
M  V30 27887 H 2770.1 -0.794529 3.69453 0
M  V30 27888 H 2770.41 -1.00817 7.66196 0
M  V30 27889 H 2768.75 -0.913562 6.8897 0
M  V30 27890 H 2771.95 -0.901644 4.59334 0
M  V30 27891 H 2772.12 -0.99929 6.40249 0
M  V30 27892 N 2765.53 -1.50848 -0.456355 0
M  V30 27893 C 2766.47 -1.71332 -1.57315 0
M  V30 27894 C 2767.47 -0.579315 -1.59186 0
M  V30 27895 O 2768.67 -0.760209 -1.63159 0
M  V30 27896 H 2765.05 -0.541033 -0.52229 0
M  V30 27897 H 2767.02 -2.64986 -1.37205 0
M  V30 27898 C 2765.77 -1.83816 -2.95139 0
M  V30 27899 H 2765.09 -2.70472 -2.94423 0
M  V30 27900 H 2766.53 -2.02168 -3.72698 0
M  V30 27901 C 2764.99 -0.593282 -3.31635 0
M  V30 27902 O 2765.52 0.260827 -4.00852 0
M  V30 27903 N 2763.73 -0.442953 -2.87204 0
M  V30 27904 H 2763.27 -1.13905 -2.31049 0
M  V30 27905 H 2763.23 0.388785 -3.11987 0
M  V30 27906 N 2767 0.710538 -1.40674 0
M  V30 27907 C 2767.94 1.83555 -1.37259 0
M  V30 27908 C 2768.95 1.60423 -0.277161 0
M  V30 27909 O 2770.14 1.70204 -0.537861 0
M  V30 27910 C 2767.24 3.20052 -1.11445 0
M  V30 27911 C 2766.41 3.70338 -2.32741 0
M  V30 27912 C 2765.47 4.85462 -2.0301 0
M  V30 27913 O 2764.5 4.97852 -2.75921 0
M  V30 27914 N 2765.7 5.71626 -1.01115 0
M  V30 27915 H 2768.46 1.86981 -2.34218 0
M  V30 27916 H 2766.02 0.892278 -1.35093 0
M  V30 27917 H 2768.02 3.94672 -0.895334 0
M  V30 27918 H 2766.59 3.11743 -0.231361 0
M  V30 27919 H 2765.81 2.86793 -2.70451 0
M  V30 27920 H 2767.09 4.00672 -3.13591 0
M  V30 27921 H 2766.49 5.64231 -0.407402 0
M  V30 27922 H 2765.05 6.46208 -0.851933 0
M  V30 27923 N 2768.48 1.26254 0.943277 0
M  V30 27924 C 2769.41 1.10125 2.059 0
M  V30 27925 C 2770.39 0.00703542 1.70099 0
M  V30 27926 O 2771.58 0.178675 1.93376 0
M  V30 27927 C 2768.71 0.731235 3.39515 0
M  V30 27928 C 2767.66 1.77695 3.89369 0
M  V30 27929 C 2766.99 1.26131 5.1961 0
M  V30 27930 C 2768.29 3.17806 4.14484 0
M  V30 27931 H 2769.98 2.03454 2.19651 0
M  V30 27932 H 2767.53 0.979594 1.05546 0
M  V30 27933 H 2769.48 0.605288 4.1703 0
M  V30 27934 H 2768.2 -0.237763 3.25733 0
M  V30 27935 H 2766.86 1.89153 3.14033 0
M  V30 27936 H 2766.51 0.282216 5.02208 0
M  V30 27937 H 2766.21 1.96032 5.53936 0
M  V30 27938 H 2767.74 1.14799 5.99711 0
M  V30 27939 H 2769.15 3.09437 4.8262 0
M  V30 27940 H 2767.55 3.85279 4.60087 0
M  V30 27941 H 2768.62 3.64019 3.2034 0
M  V30 27942 N 2769.96 -1.14755 1.08024 0
M  V30 27943 C 2770.89 -2.21852 0.728287 0
M  V30 27944 C 2771.87 -1.67654 -0.287457 0
M  V30 27945 O 2773.06 -1.93551 -0.158693 0
M  V30 27946 C 2770.19 -3.47047 0.13261 0
M  V30 27947 C 2769.14 -4.14247 1.07627 0
M  V30 27948 C 2768.47 -5.33599 0.343001 0
M  V30 27949 C 2769.77 -4.63231 2.41276 0
M  V30 27950 H 2771.46 -2.51548 1.6237 0
M  V30 27951 H 2769.01 -1.20907 0.782146 0
M  V30 27952 H 2770.96 -4.21213 -0.125591 0
M  V30 27953 H 2769.68 -3.16703 -0.797915 0
M  V30 27954 H 2768.34 -3.4203 1.3195 0
M  V30 27955 H 2767.99 -4.99514 -0.591203 0
M  V30 27956 H 2767.69 -5.79504 0.972057 0
M  V30 27957 H 2769.21 -6.1053 0.0927611 0
M  V30 27958 H 2770.63 -5.28891 2.21241 0
M  V30 27959 H 2769.02 -5.19824 2.99839 0
M  V30 27960 H 2770.09 -3.78506 3.03086 0
M  V30 27961 N 2771.44 -0.865331 -1.31719 0
M  V30 27962 C 2772.39 -0.306715 -2.30569 0
M  V30 27963 C 2773.38 0.575696 -1.59318 0
M  V30 27964 O 2774.59 0.462312 -1.73962 0
M  V30 27965 H 2770.96 -0.0804965 -0.747679 0
M  V30 27966 H 2772.93 -1.15446 -2.75163 0
M  V30 27967 C 2771.68 0.480892 -3.44358 0
M  V30 27968 H 2771 -0.18883 -3.99354 0
M  V30 27969 H 2772.44 0.837168 -4.15653 0
M  V30 27970 C 2770.9 1.67034 -2.92577 0
M  V30 27971 O 2771.43 2.76958 -2.90959 0
M  V30 27972 N 2769.64 1.50093 -2.48838 0
M  V30 27973 H 2769.19 0.606694 -2.50354 0
M  V30 27974 H 2769.14 2.29819 -2.14548 0
M  V30 27975 N 2772.92 1.44707 -0.624311 0
M  V30 27976 C 2774.15 2.06173 -0.132763 0
M  V30 27977 C 2774.55 1.46676 1.1951 0
M  V30 27978 O 2773.9 0.581522 1.74253 0
M  V30 27979 C 2773.96 3.59444 0.0636101 0
M  V30 27980 C 2773.62 4.41368 -1.18503 0
M  V30 27981 C 2774.62 4.75285 -2.10715 0
M  V30 27982 C 2772.3 4.81853 -1.41854 0
M  V30 27983 C 2774.3 5.48561 -3.24592 0
M  V30 27984 C 2771.99 5.5488 -2.56029 0
M  V30 27985 C 2772.98 5.88153 -3.47225 0
M  V30 27986 O 2772.67 6.59695 -4.59411 0
M  V30 27987 H 2772.4 0.671966 -0.0737432 0
M  V30 27988 H 2774.96 1.86675 -0.856822 0
M  V30 27989 H 2773.19 3.77405 0.842743 0
M  V30 27990 H 2774.88 4.02698 0.508853 0
M  V30 27991 H 2775.64 4.44551 -1.93906 0
M  V30 27992 H 2771.52 4.5538 -0.717636 0
M  V30 27993 H 2775.07 5.74449 -3.95795 0
M  V30 27994 H 2770.96 5.85029 -2.72784 0
M  V30 27995 H 2771.73 6.78158 -4.58305 0
M  V30 27996 N 2774.39 0.364449 1.53328 0
M  V30 27997 C 2775.81 0.0133446 1.59594 0
M  V30 27998 C 2776.01 -1.46863 1.37962 0
M  V30 27999 O 2775.07 -2.23008 1.18422 0
M  V30 28000 C 2776.38 0.468265 2.97032 0
M  V30 28001 C 2777.93 0.422388 3.10137 0
M  V30 28002 C 2778.4 0.853103 4.49985 0
M  V30 28003 N 2779.89 0.808117 4.56096 0
M  V30 28004 C 2780.63 1.11309 5.62493 0
M  V30 28005 N 2780.12 1.48728 6.76647 0
M  V30 28006 N 2781.92 1.03596 5.52471 0
M  V30 28007 H 2774.07 1.32954 1.65641 0
M  V30 28008 H 2776.33 0.543359 0.77683 0
M  V30 28009 H 2776.04 1.50236 3.17997 0
M  V30 28010 H 2775.91 -0.145709 3.76918 0
M  V30 28011 H 2778.3 -0.602572 2.88882 0
M  V30 28012 H 2778.38 1.07184 2.32261 0
M  V30 28013 H 2778.02 1.87617 4.71977 0
M  V30 28014 H 2777.95 0.180911 5.26289 0
M  V30 28015 H 2780.44 0.532427 3.7413 0
M  V30 28016 H 2780.76 1.70428 7.53773 0
M  V30 28017 H 2779.1 1.52593 6.78042 0
M  V30 28018 H 2782.29 0.742817 4.62169 0
M  V30 28019 H 2782.47 1.27697 6.35293 0
M  V30 28020 N 2775.87 -1.57322 0.0935872 0
M  V30 28021 C 2777.1 -1.99058 -0.582289 0
M  V30 28022 C 2777.52 -0.97227 -1.61023 0
M  V30 28023 O 2776.88 0.0594303 -1.81203 0
M  V30 28024 C 2776.93 -3.39767 -1.20793 0
M  V30 28025 O 2776.03 -3.40698 -2.32376 0
M  V30 28026 H 2775.37 -0.647325 -0.147872 0
M  V30 28027 H 2777.9 -2.03854 0.174552 0
M  V30 28028 H 2777.91 -3.77428 -1.54959 0
M  V30 28029 H 2776.59 -4.13405 -0.454841 0
M  V30 28030 H 2775.16 -3.14831 -1.9984 0
M  V30 28031 N 2777.35 0.180099 -1.56568 0
M  V30 28032 C 2778.31 1.20683 -1.94854 0
M  V30 28033 C 2779.31 1.37648 -0.831237 0
M  V30 28034 O 2780.5 1.35204 -1.09843 0
M  V30 28035 C 2777.63 2.57351 -2.2357 0
M  V30 28036 H 2778.83 0.879174 -2.86724 0
M  V30 28037 H 2776.38 0.42221 -1.50489 0
M  V30 28038 H 2777.12 2.95146 -1.34386 0
M  V30 28039 H 2776.9 2.46405 -3.05003 0
M  V30 28040 H 2778.39 3.31362 -2.54143 0
M  V30 28041 N 2778.83 1.51088 0.448349 0
M  V30 28042 C 2780.08 1.62446 1.19558 0
M  V30 28043 C 2780.39 0.341185 1.92601 0
M  V30 28044 O 2781.6 0.333984 2.69438 0
M  V30 28045 C 2780.05 2.86844 2.17368 0
M  V30 28046 C 2779.66 4.22134 1.50023 0
M  V30 28047 C 2781.4 3.07556 2.92592 0
M  V30 28048 C 2779.31 5.37693 2.46252 0
M  V30 28049 H 2778.24 0.605019 0.449965 0
M  V30 28050 H 2780.89 1.77544 0.463704 0
M  V30 28051 H 2779.27 2.65355 2.93944 0
M  V30 28052 H 2780.45 4.53964 0.790806 0
M  V30 28053 H 2778.76 4.07211 0.86994 0
M  V30 28054 H 2781.36 3.91063 3.64656 0
M  V30 28055 H 2781.7 2.20189 3.53302 0
M  V30 28056 H 2782.24 3.29333 2.23125 0
M  V30 28057 H 2778.97 6.27285 1.90247 0
M  V30 28058 H 2778.49 5.10253 3.1528 0
M  V30 28059 H 2780.17 5.69195 3.07613 0
M  V30 28060 N 2780.31 -0.703068 1.41049 0
M  V30 28061 C 2781.53 -1.49703 1.4354 0
M  V30 28062 C 2781.96 -1.88057 0.0402184 0
M  V30 28063 O 2781.31 -1.54124 -0.954758 0
M  V30 28064 C 2781.36 -2.74079 2.34335 0
M  V30 28065 O 2780.47 -3.71276 1.79522 0
M  V30 28066 H 2779.81 -0.450863 0.487462 0
M  V30 28067 H 2782.34 -0.864827 1.85424 0
M  V30 28068 H 2782.35 -3.22471 2.49953 0
M  V30 28069 H 2781.02 -2.455 3.35712 0
M  V30 28070 H 2779.6 -3.30176 1.73315 0
M  V30 28071 N 2781.78 -1.26752 -0.936569 0
M  V30 28072 C 2782.73 -1.0853 -2.05728 0
M  V30 28073 C 2783.73 -0.0109081 -1.69396 0
M  V30 28074 O 2784.93 -0.167946 -1.79215 0
M  V30 28075 H 2781.31 -0.334145 -0.673685 0
M  V30 28076 H 2783.28 -2.03497 -2.18247 0
M  V30 28077 C 2782.03 -0.739904 -3.39736 0
M  V30 28078 H 2781.35 -1.55851 -3.68172 0
M  V30 28079 H 2782.79 -0.652223 -4.18954 0
M  V30 28080 C 2781.25 0.555229 -3.32293 0
M  V30 28081 O 2781.78 1.59222 -3.68797 0
M  V30 28082 N 2779.99 0.54757 -2.85395 0
M  V30 28083 H 2779.53 -0.296712 -2.55885 0
M  V30 28084 H 2779.49 1.41423 -2.80797 0
M  V30 28085 N 2783.26 1.1418 -1.08631 0
M  V30 28086 C 2784.21 2.17374 -0.68792 0
M  V30 28087 C 2785.2 1.58199 0.293604 0
M  V30 28088 O 2786.39 1.76687 0.105261 0
M  V30 28089 C 2783.52 3.43151 -0.101244 0
M  V30 28090 C 2782.6 4.09352 -1.10869 0
M  V30 28091 N 2782.99 4.50842 -2.29293 0
M  V30 28092 C 2781.29 4.35874 -0.944974 0
M  V30 28093 C 2781.99 5.02337 -2.93313 0
M  V30 28094 N 2780.97 4.96688 -2.20912 0
M  V30 28095 H 2784.77 2.47197 -1.58968 0
M  V30 28096 H 2782.29 1.30888 -0.961352 0
M  V30 28097 H 2784.28 4.1641 0.202135 0
M  V30 28098 H 2782.94 3.14805 0.795467 0
M  V30 28099 H 2783.95 4.43809 -2.66935 0
M  V30 28100 H 2780.63 4.17375 -0.102259 0
M  V30 28101 H 2782.02 5.44298 -3.93941 0
M  V30 28102 N 2784.74 0.872304 1.31258 0
M  V30 28103 C 2785.99 0.483443 1.96233 0
M  V30 28104 C 2786.31 -0.967982 1.69278 0
M  V30 28105 O 2785.58 -1.67889 1.00946 0
M  V30 28106 H 2784.16 0.175787 0.726022 0
M  V30 28107 H 2786.82 1.1126 1.60022 0
M  V30 28108 H 2785.92 0.643129 3.05402 0
M  V30 28109 N 2786.22 -1.44374 0.631976 0
M  V30 28110 C 2787.44 -2.06912 0.142182 0
M  V30 28111 C 2787.87 -1.46922 -1.17454 0
M  V30 28112 O 2787.23 -0.571005 -1.72073 0
M  V30 28113 C 2787.27 -3.60576 0.0418586 0
M  V30 28114 O 2786.38 -4.00045 -1.00187 0
M  V30 28115 H 2785.72 -0.658516 0.0851607 0
M  V30 28116 H 2788.25 -1.85233 0.868895 0
M  V30 28117 H 2788.26 -4.0773 -0.148445 0
M  V30 28118 H 2786.93 -4.0362 1.00318 0
M  V30 28119 H 2785.51 -3.64521 -0.786067 0
M  V30 28120 N 2787.7 -0.372575 -1.53133 0
M  V30 28121 C 2788.64 0.470591 -2.25952 0
M  V30 28122 C 2789.61 1.07174 -1.26897 0
M  V30 28123 O 2790.8 1.10292 -1.55693 0
M  V30 28124 C 2787.94 1.60074 -3.05729 0
M  V30 28125 C 2787.05 1.02409 -4.19686 0
M  V30 28126 C 2786.19 2.12392 -4.86891 0
M  V30 28127 C 2785.23 1.52228 -5.92869 0
M  V30 28128 N 2784.36 2.56072 -6.53737 0
M  V30 28129 H 2789.2 -0.156868 -2.97587 0
M  V30 28130 H 2786.74 -0.089183 -1.46829 0
M  V30 28131 H 2788.7 2.26655 -3.50262 0
M  V30 28132 H 2787.33 2.19876 -2.36335 0
M  V30 28133 H 2786.38 0.248359 -3.79588 0
M  V30 28134 H 2787.69 0.544279 -4.95822 0
M  V30 28135 H 2786.85 2.86778 -5.34643 0
M  V30 28136 H 2785.58 2.63727 -4.10243 0
M  V30 28137 H 2784.59 0.763589 -5.44472 0
M  V30 28138 H 2785.81 1.01709 -6.7144 0
M  V30 28139 H 2783.76 3.06607 -5.79938 0
M  V30 28140 H 2783.68 2.12798 -7.25433 0
M  V30 28141 H 2784.95 3.30139 -7.06136 0
M  V30 28142 N 2789.17 1.5727 -0.101929 0
M  V30 28143 C 2790.42 1.93773 0.559888 0
M  V30 28144 C 2790.74 0.98632 1.68911 0
M  V30 28145 O 2791.94 1.24534 2.41254 0
M  V30 28146 C 2790.4 3.44324 1.04733 0
M  V30 28147 C 2790.01 4.47969 -0.0525087 0
M  V30 28148 C 2791.75 3.89777 1.6815 0
M  V30 28149 C 2789.66 5.8968 0.450677 0
M  V30 28150 H 2788.59 0.723313 0.212918 0
M  V30 28151 H 2791.24 1.82625 -0.179033 0
M  V30 28152 H 2789.62 3.50648 1.84015 0
M  V30 28153 H 2790.79 4.53296 -0.828237 0
M  V30 28154 H 2789.11 4.12166 -0.592275 0
M  V30 28155 H 2791.71 4.93056 2.06881 0
M  V30 28156 H 2792.05 3.28803 2.55332 0
M  V30 28157 H 2792.58 3.86182 0.954385 0
M  V30 28158 H 2789.32 6.5437 -0.384695 0
M  V30 28159 H 2788.84 5.87811 1.19326 0
M  V30 28160 H 2790.52 6.40462 0.917443 0
M  V30 28161 N 2790.65 -0.171793 1.56661 0
M  V30 28162 C 2791.56 -1.23266 1.99606 0
M  V30 28163 C 2792.58 -1.48469 0.907359 0
M  V30 28164 O 2793.75 -1.60627 1.21495 0
M  V30 28165 C 2790.82 -2.5519 2.34689 0
M  V30 28166 C 2789.88 -2.37854 3.57385 0
M  V30 28167 C 2789.11 -3.63487 3.90785 0
M  V30 28168 O 2789.34 -4.68644 3.2516 0
M  V30 28169 O 2788.27 -3.57626 4.84136 0
M  V30 28170 H 2792.1 -0.898141 2.90116 0
M  V30 28171 H 2789.68 -0.378622 1.44523 0
M  V30 28172 H 2791.56 -3.33013 2.58225 0
M  V30 28173 H 2790.24 -2.88222 1.47342 0
M  V30 28174 H 2789.15 -1.58064 3.39067 0
M  V30 28175 H 2790.48 -2.09747 4.45272 0
M  V30 28176 N 2792.13 -1.51324 -0.44033 0
M  V30 28177 C 2793.38 -1.6352 -1.18767 0
M  V30 28178 C 2793.7 -0.352234 -1.91792 0
M  V30 28179 O 2792.97 0.631779 -1.85433 0
M  V30 28180 H 2791.55 -0.602642 -0.441398 0
M  V30 28181 H 2794.21 -1.8824 -0.505129 0
M  V30 28182 H 2793.31 -2.46141 -1.91887 0
M  V30 28183 N 2793.61 0.695578 -1.41419 0
M  V30 28184 C 2794.54 1.82195 -1.46039 0
M  V30 28185 C 2795.52 1.67081 -0.319054 0
M  V30 28186 O 2796.7 1.86814 -0.530495 0
M  V30 28187 C 2793.83 3.20331 -1.34184 0
M  V30 28188 C 2792.79 3.50149 -2.46129 0
M  V30 28189 C 2792.11 4.87641 -2.1934 0
M  V30 28190 C 2793.41 3.49126 -3.88469 0
M  V30 28191 H 2795.11 1.78587 -2.40306 0
M  V30 28192 H 2792.65 0.857777 -1.15664 0
M  V30 28193 H 2794.61 3.98841 -1.36028 0
M  V30 28194 H 2793.33 3.24565 -0.364009 0
M  V30 28195 H 2791.99 2.7399 -2.43568 0
M  V30 28196 H 2791.64 4.88501 -1.199 0
M  V30 28197 H 2791.34 5.08557 -2.94353 0
M  V30 28198 H 2792.86 5.68461 -2.22899 0
M  V30 28199 H 2794.28 4.17641 -3.92745 0
M  V30 28200 H 2792.67 3.81574 -4.63164 0
M  V30 28201 H 2793.74 2.48102 -4.16622 0
M  V30 28202 N 2795.09 1.27247 0.929833 0
M  V30 28203 C 2796 1.11596 2.06358 0
M  V30 28204 C 2797.01 0.0465266 1.73938 0
M  V30 28205 O 2798.19 0.252579 1.9981 0
M  V30 28206 C 2795.25 0.762497 3.38211 0
M  V30 28207 C 2794.32 1.91257 3.84343 0
M  V30 28208 C 2793.55 1.57588 5.09904 0
M  V30 28209 O 2793.77 0.482793 5.68353 0
M  V30 28210 O 2792.71 2.41436 5.51355 0
M  V30 28211 H 2796.53 2.06734 2.22474 0
M  V30 28212 H 2794.12 1.06415 1.04863 0
M  V30 28213 H 2796 0.578614 4.17409 0
M  V30 28214 H 2794.67 -0.159382 3.23307 0
M  V30 28215 H 2793.58 2.1515 3.06041 0
M  V30 28216 H 2794.91 2.81458 4.03785 0
M  V30 28217 N 2796.57 -1.13603 1.09235 0
M  V30 28218 C 2797.98 -1.36825 0.821654 0
M  V30 28219 C 2798.18 -1.93417 -0.564987 0
M  V30 28220 O 2797.24 -2.15236 -1.32022 0
M  V30 28221 C 2798.55 -2.32143 1.91128 0
M  V30 28222 C 2800.1 -2.45763 1.93828 0
M  V30 28223 C 2800.57 -3.44388 3.01929 0
M  V30 28224 N 2802.06 -3.51937 3.01155 0
M  V30 28225 C 2802.8 -4.28124 3.81442 0
M  V30 28226 N 2802.3 -5.07481 4.7163 0
M  V30 28227 N 2804.09 -4.23405 3.69709 0
M  V30 28228 H 2796.24 -0.7522 1.98635 0
M  V30 28229 H 2798.5 -0.393467 0.862489 0
M  V30 28230 H 2798.21 -1.97712 2.90865 0
M  V30 28231 H 2798.08 -3.32139 1.78783 0
M  V30 28232 H 2800.47 -2.79482 0.947309 0
M  V30 28233 H 2800.55 -1.45699 2.10251 0
M  V30 28234 H 2800.19 -3.11401 4.01238 0
M  V30 28235 H 2800.12 -4.44252 2.8275 0
M  V30 28236 H 2802.62 -2.95313 2.35794 0
M  V30 28237 H 2802.93 -5.62915 5.29478 0
M  V30 28238 H 2801.27 -5.0672 4.75667 0
M  V30 28239 H 2804.46 -3.60484 2.98612 0
M  V30 28240 H 2804.64 -4.82528 4.32517 0
M  V30 28241 N 2798.04 -0.879253 -1.30793 0
M  V30 28242 C 2798.95 -0.345606 -2.3204 0
M  V30 28243 C 2799.97 0.549236 -1.65104 0
M  V30 28244 O 2801.15 0.443729 -1.96451 0
M  V30 28245 C 2798.21 0.436185 -3.43945 0
M  V30 28246 C 2797.27 -0.487725 -4.2652 0
M  V30 28247 C 2796.5 0.256849 -5.33082 0
M  V30 28248 O 2796.73 1.48371 -5.50765 0
M  V30 28249 O 2795.66 -0.39009 -6.00635 0
M  V30 28250 H 2799.49 -1.18506 -2.79625 0
M  V30 28251 H 2797.07 -0.642909 -1.34859 0
M  V30 28252 H 2798.95 0.879047 -4.1213 0
M  V30 28253 H 2797.63 1.25203 -2.98506 0
M  V30 28254 H 2796.54 -0.97928 -3.61055 0
M  V30 28255 H 2797.87 -1.26942 -4.75549 0
M  V30 28256 N 2799.52 1.44037 -0.639624 0
M  V30 28257 C 2800.45 2.33453 0.0469033 0
M  V30 28258 C 2801.43 1.48695 0.826064 0
M  V30 28259 O 2802.62 1.77394 0.790254 0
M  V30 28260 C 2799.75 3.31882 1.02332 0
M  V30 28261 C 2798.7 4.26523 0.355209 0
M  V30 28262 C 2798.03 5.14885 1.44212 0
M  V30 28263 C 2799.33 5.16975 -0.743889 0
M  V30 28264 H 2801.02 2.91107 -0.699786 0
M  V30 28265 H 2798.57 1.39978 -0.33797 0
M  V30 28266 H 2800.52 3.93325 1.5124 0
M  V30 28267 H 2799.24 2.72455 1.801 0
M  V30 28268 H 2797.9 3.66425 -0.113304 0
M  V30 28269 H 2797.55 4.51806 2.21089 0
M  V30 28270 H 2797.25 5.79021 1.00042 0
M  V30 28271 H 2798.78 5.79201 1.93284 0
M  V30 28272 H 2800.19 5.72305 -0.337545 0
M  V30 28273 H 2798.59 5.89759 -1.10924 0
M  V30 28274 H 2799.66 4.57478 -1.60753 0
M  V30 28275 N 2801 0.380691 1.52933 0
M  V30 28276 C 2802.23 -0.204563 2.05886 0
M  V30 28277 C 2802.64 -1.41221 1.25308 0
M  V30 28278 O 2802 -1.80058 0.297536 0
M  V30 28279 C 2802.05 -0.583186 3.56765 0
M  V30 28280 O 2801.77 0.576475 4.34291 0
M  V30 28281 C 2803.27 -1.22522 4.26032 0
M  V30 28282 H 2800.49 -0.0328874 0.670194 0
M  V30 28283 H 2803.04 0.543431 1.97147 0
M  V30 28284 H 2801.19 -1.28108 3.65605 0
M  V30 28285 H 2801.61 0.267211 5.23819 0
M  V30 28286 H 2803.08 -1.44058 5.32871 0
M  V30 28287 H 2803.56 -2.19004 3.80702 0
M  V30 28288 H 2804.16 -0.568333 4.21486 0
M  V30 28289 N 2802.48 -1.57214 0.110268 0
M  V30 28290 C 2803.75 -1.86397 -0.592923 0
M  V30 28291 C 2804.13 -1.00988 -1.85377 0
M  V30 28292 O 2803.48 -0.0863994 -2.28337 0
M  V30 28293 C 2803.69 -3.37362 -0.893756 0
M  V30 28294 C 2805.04 -4.05764 -1.25062 0
M  V30 28295 O 2806.06 -3.4233 -0.984296 0
M  V30 28296 O 2804.92 -5.17721 -1.75008 0
M  V30 28297 H 2802.02 -0.771341 -0.298266 0
M  V30 28298 H 2804.56 -1.69087 0.144112 0
M  V30 28299 H 2803.34 -3.913 9.48118e-05 0
M  V30 28300 H 2802.96 -3.60071 -1.68625 0
M  V30 28301 N 2803.96 0.163482 -1.5675 0
M  V30 28302 C 2804.89 1.20435 -2.00044 0
M  V30 28303 C 2805.87 1.45732 -0.877282 0
M  V30 28304 O 2807.05 1.56933 -1.14393 0
M  V30 28305 C 2804.18 2.54145 -2.36702 0
M  V30 28306 C 2803.14 2.43402 -3.52051 0
M  V30 28307 C 2802.46 3.81673 -3.74473 0
M  V30 28308 C 2803.76 1.93208 -4.85251 0
M  V30 28309 H 2805.46 0.844427 -2.87245 0
M  V30 28310 H 2803 0.404755 -1.38195 0
M  V30 28311 H 2804.95 3.27171 -2.65588 0
M  V30 28312 H 2803.68 2.9194 -1.46419 0
M  V30 28313 H 2802.34 1.72829 -3.23304 0
M  V30 28314 H 2801.99 4.16875 -2.81468 0
M  V30 28315 H 2801.69 3.75351 -4.5209 0
M  V30 28316 H 2803.21 4.56273 -4.05768 0
M  V30 28317 H 2804.62 2.56014 -5.12962 0
M  V30 28318 H 2803.02 1.97815 -5.66559 0
M  V30 28319 H 2804.09 0.886806 -4.76722 0
M  V30 28320 N 2805.43 1.51555 0.432299 0
M  V30 28321 C 2806.38 1.73813 1.54569 0
M  V30 28322 C 2807.38 0.604566 1.58245 0
M  V30 28323 O 2808.58 0.78607 1.61929 0
M  V30 28324 H 2804.96 0.549274 0.513617 0
M  V30 28325 H 2806.93 2.67135 1.32972 0
M  V30 28326 C 2805.68 1.88488 2.92177 0
M  V30 28327 H 2805 2.75121 2.90083 0
M  V30 28328 H 2806.44 2.08072 3.69435 0
M  V30 28329 C 2804.9 0.645967 3.30649 0
M  V30 28330 O 2805.43 -0.197022 4.01217 0
M  V30 28331 N 2803.63 0.488588 2.86463 0
M  V30 28332 H 2803.18 1.17566 2.29207 0
M  V30 28333 H 2803.14 -0.339101 3.12566 0
M  V30 28334 N 2806.91 -0.688069 1.41786 0
M  V30 28335 C 2807.84 -1.81348 1.40162 0
M  V30 28336 C 2808.86 -1.59962 0.302648 0
M  V30 28337 O 2810.05 -1.69326 0.564871 0
M  V30 28338 C 2807.15 -3.18238 1.16523 0
M  V30 28339 C 2806.32 -3.66589 2.38603 0
M  V30 28340 C 2805.38 -4.82171 2.10708 0
M  V30 28341 O 2804.4 -4.93399 2.83806 0
M  V30 28342 N 2805.61 -5.69945 1.10197 0
M  V30 28343 H 2808.37 -1.83231 2.37163 0
M  V30 28344 H 2805.93 -0.870673 1.36495 0
M  V30 28345 H 2807.92 -3.93197 0.95801 0
M  V30 28346 H 2806.49 -3.11335 0.280928 0
M  V30 28347 H 2805.71 -2.82454 2.74979 0
M  V30 28348 H 2807 -3.95632 3.19926 0
M  V30 28349 H 2806.4 -5.63512 0.497115 0
M  V30 28350 H 2804.96 -6.44771 0.954632 0
M  V30 28351 N 2808.39 -1.27739 -0.923072 0
M  V30 28352 C 2809.3 -1.12688 -2.05763 0
M  V30 28353 C 2810.32 -0.0557503 -1.73911 0
M  V30 28354 O 2811.49 -0.263172 -1.99673 0
M  V30 28355 C 2808.56 -0.780422 -3.37802 0
M  V30 28356 C 2807.62 -1.93293 -3.83323 0
M  V30 28357 C 2806.85 -1.6029 -5.09061 0
M  V30 28358 O 2807.07 -0.512928 -5.68089 0
M  V30 28359 O 2806.01 -2.44357 -5.50067 0
M  V30 28360 H 2809.83 -2.07911 -2.21375 0
M  V30 28361 H 2807.42 -1.06969 -1.04297 0
M  V30 28362 H 2809.3 -0.600742 -4.17096 0
M  V30 28363 H 2807.98 0.142234 -3.23387 0
M  V30 28364 H 2806.88 -2.1677 -3.04896 0
M  V30 28365 H 2808.22 -2.83595 -4.02287 0
M  V30 28366 N 2809.87 1.13022 -1.09836 0
M  V30 28367 C 2811.12 1.84393 -0.836982 0
M  V30 28368 C 2811.44 1.83758 0.637431 0
M  V30 28369 O 2810.7 1.274 1.48552 0
M  V30 28370 C 2811 3.32024 -1.32269 0
M  V30 28371 C 2810.66 3.52836 -2.80745 0
M  V30 28372 C 2809.33 3.58224 -3.21293 0
M  V30 28373 C 2811.68 3.60459 -3.76456 0
M  V30 28374 C 2809.01 3.68773 -4.56315 0
M  V30 28375 C 2811.36 3.72537 -5.11272 0
M  V30 28376 C 2810.02 3.76179 -5.51403 0
M  V30 28377 H 2809.29 0.674743 -0.306274 0
M  V30 28378 H 2811.94 1.33405 -1.37387 0
M  V30 28379 H 2810.24 3.85392 -0.705686 0
M  V30 28380 H 2811.94 3.85703 -1.09701 0
M  V30 28381 H 2808.53 3.493 -2.48369 0
M  V30 28382 H 2812.71 3.55572 -3.4624 0
M  V30 28383 H 2807.97 3.69862 -4.86839 0
M  V30 28384 H 2812.14 3.77378 -5.85285 0
M  V30 28385 H 2809.77 3.84106 -6.56023 0
M  V30 28386 N 2811.35 0.886177 1.30325 0
M  V30 28387 C 2812.26 0.357907 2.31854 0
M  V30 28388 C 2813.27 -0.540473 1.65393 0
M  V30 28389 O 2814.45 -0.433304 1.96684 0
M  V30 28390 C 2811.51 -0.417939 3.44172 0
M  V30 28391 C 2810.57 0.510338 4.26256 0
M  V30 28392 C 2809.81 -0.228575 5.3321 0
M  V30 28393 O 2810.03 -1.45449 5.51544 0
M  V30 28394 O 2808.96 0.421938 6.00419 0
M  V30 28395 H 2812.79 1.19987 2.78993 0
M  V30 28396 H 2810.38 0.650052 1.34516 0
M  V30 28397 H 2812.26 -0.857178 4.1259 0
M  V30 28398 H 2810.93 -1.23618 2.99166 0
M  V30 28399 H 2809.84 0.998414 3.60531 0
M  V30 28400 H 2811.17 1.29462 4.74869 0
M  V30 28401 N 2812.82 -1.43695 0.647253 0
M  V30 28402 C 2814.05 -2.06235 0.165787 0
M  V30 28403 C 2814.47 -1.48478 -1.16617 0
M  V30 28404 O 2813.82 -0.613792 -1.71869 0
M  V30 28405 C 2813.88 -3.61446 0.0622286 0
M  V30 28406 O 2813.6 -4.17055 1.34153 0
M  V30 28407 C 2815.1 -4.4105 -0.446025 0
M  V30 28408 H 2812.32 -0.665319 0.0871275 0
M  V30 28409 H 2814.86 -1.843 0.886216 0
M  V30 28410 H 2813.02 -3.82588 -0.608727 0
M  V30 28411 H 2813.43 -5.10662 1.19684 0
M  V30 28412 H 2814.9 -5.50017 -0.467454 0
M  V30 28413 H 2815.38 -4.13648 -1.4762 0
M  V30 28414 H 2815.99 -4.24865 0.192233 0
M  V30 28415 N 2814.3 -0.388796 -1.52729 0
M  V30 28416 C 2815.23 0.43807 -2.29354 0
M  V30 28417 C 2816.21 1.06392 -1.32721 0
M  V30 28418 O 2817.4 1.07679 -1.61614 0
M  V30 28419 C 2814.53 1.56584 -3.09998 0
M  V30 28420 C 2813.48 1.06606 -4.14511 0
M  V30 28421 C 2812.81 2.28586 -4.83376 0
M  V30 28422 C 2814.11 0.134367 -5.22127 0
M  V30 28423 H 2815.8 -0.201258 -2.98723 0
M  V30 28424 H 2813.35 -0.0982341 -1.43665 0
M  V30 28425 H 2815.3 2.15111 -3.62361 0
M  V30 28426 H 2814.03 2.23274 -2.38361 0
M  V30 28427 H 2812.68 0.503319 -3.63128 0
M  V30 28428 H 2812.33 2.93785 -4.08288 0
M  V30 28429 H 2812.03 1.95807 -5.54016 0
M  V30 28430 H 2813.56 2.87757 -5.38543 0
M  V30 28431 H 2814.97 0.627814 -5.69852 0
M  V30 28432 H 2813.37 -0.103639 -6.0001 0
M  V30 28433 H 2814.44 -0.816882 -4.7797 0
M  V30 28434 N 2815.78 1.57153 -0.118604 0
M  V30 28435 C 2816.71 2.12364 0.86221 0
M  V30 28436 C 2817.73 1.06627 1.23023 0
M  V30 28437 O 2818.91 1.34 1.17924 0
M  V30 28438 C 2816.01 2.60798 2.1642 0
M  V30 28439 C 2815.19 3.90629 1.96794 0
M  V30 28440 C 2814.25 4.24665 3.10719 0
M  V30 28441 O 2813.27 4.93489 2.8365 0
M  V30 28442 N 2814.47 3.81953 4.37141 0
M  V30 28443 H 2817.24 2.97145 0.390512 0
M  V30 28444 H 2814.8 1.61766 0.0658306 0
M  V30 28445 H 2816.79 2.80598 2.91628 0
M  V30 28446 H 2815.36 1.80899 2.5494 0
M  V30 28447 H 2814.58 3.79742 1.05781 0
M  V30 28448 H 2815.87 4.75523 1.80985 0
M  V30 28449 H 2815.27 3.26443 4.62008 0
M  V30 28450 H 2813.83 4.06862 5.09221 0
M  V30 28451 N 2817.26 -0.155167 1.56834 0
M  V30 28452 C 2818.17 -1.21142 2.00902 0
M  V30 28453 C 2819.18 -1.47498 0.923055 0
M  V30 28454 O 2820.36 -1.59329 1.23192 0
M  V30 28455 C 2817.43 -2.52686 2.37382 0
M  V30 28456 C 2816.49 -2.3405 3.59887 0
M  V30 28457 C 2815.72 -3.59322 3.94618 0
M  V30 28458 O 2815.94 -4.65169 3.30112 0
M  V30 28459 O 2814.88 -3.52471 4.87902 0
M  V30 28460 H 2818.7 -0.86732 2.91052 0
M  V30 28461 H 2816.29 -0.363272 1.44916 0
M  V30 28462 H 2818.17 -3.30255 2.61743 0
M  V30 28463 H 2816.84 -2.86643 1.5039 0
M  V30 28464 H 2815.75 -1.54459 3.40724 0
M  V30 28465 H 2817.08 -2.05012 4.47472 0
M  V30 28466 N 2818.74 -1.51782 -0.424256 0
M  V30 28467 C 2819.68 -1.74039 -1.51588 0
M  V30 28468 C 2820.65 -0.582385 -1.55555 0
M  V30 28469 O 2821.84 -0.818275 -1.72363 0
M  V30 28470 C 2818.98 -1.88325 -2.89185 0
M  V30 28471 C 2818.09 -3.15925 -2.94645 0
M  V30 28472 C 2817.23 -3.20729 -4.23446 0
M  V30 28473 C 2816.27 -4.42591 -4.22823 0
M  V30 28474 N 2815.4 -4.44872 -5.4317 0
M  V30 28475 H 2820.24 -2.67214 -1.31912 0
M  V30 28476 H 2817.78 -1.3242 -0.640576 0
M  V30 28477 H 2819.74 -1.94589 -3.6904 0
M  V30 28478 H 2818.37 -0.985456 -3.0739 0
M  V30 28479 H 2817.42 -3.18906 -2.07372 0
M  V30 28480 H 2818.73 -4.058 -2.90048 0
M  V30 28481 H 2817.89 -3.25982 -5.11684 0
M  V30 28482 H 2816.62 -2.28765 -4.30718 0
M  V30 28483 H 2815.63 -4.37501 -3.32976 0
M  V30 28484 H 2816.85 -5.35834 -4.17204 0
M  V30 28485 H 2814.8 -3.55784 -5.51138 0
M  V30 28486 H 2814.72 -5.28573 -5.40506 0
M  V30 28487 H 2815.99 -4.54335 -6.33404 0
M  V30 28488 N 2820.21 0.68054 -1.42149 0
M  V30 28489 C 2821.18 1.77599 -1.44883 0
M  V30 28490 C 2822.18 1.57224 -0.337236 0
M  V30 28491 O 2823.37 1.63621 -0.597807 0
M  V30 28492 C 2820.5 3.16164 -1.27489 0
M  V30 28493 H 2821.69 1.76564 -2.42415 0
M  V30 28494 H 2819.25 0.889622 -1.28512 0
M  V30 28495 H 2819.98 3.22829 -0.308567 0
M  V30 28496 H 2819.77 3.32356 -2.08043 0
M  V30 28497 H 2821.26 3.96098 -1.32272 0
M  V30 28498 N 2821.69 1.28226 0.916285 0
M  V30 28499 C 2822.62 1.07736 2.02301 0
M  V30 28500 C 2823.64 0.0298707 1.62773 0
M  V30 28501 O 2824.83 0.272657 1.76405 0
M  V30 28502 C 2821.93 0.614562 3.33281 0
M  V30 28503 C 2821.1 1.73689 4.01436 0
M  V30 28504 C 2820.16 1.2679 5.10696 0
M  V30 28505 O 2819.18 1.96967 5.34034 0
M  V30 28506 N 2820.39 0.129726 5.80355 0
M  V30 28507 H 2823.15 2.03045 2.20438 0
M  V30 28508 H 2820.71 1.19945 1.08742 0
M  V30 28509 H 2822.7 0.284468 4.03699 0
M  V30 28510 H 2821.27 -0.245609 3.11634 0
M  V30 28511 H 2820.49 2.2367 3.246 0
M  V30 28512 H 2821.78 2.48983 4.43717 0
M  V30 28513 H 2821.18 -0.455748 5.63861 0
M  V30 28514 H 2819.74 -0.141109 6.51647 0
M  V30 28515 N 2823.17 -1.12438 1.10433 0
M  V30 28516 C 2824.42 -1.84219 0.848004 0
M  V30 28517 C 2824.75 -1.83872 -0.62487 0
M  V30 28518 O 2824.02 -1.28426 -1.46072 0
M  V30 28519 C 2824.31 -3.31897 1.397 0
M  V30 28520 C 2824.16 -3.40699 2.93674 0
M  V30 28521 C 2825.48 -4.27652 1.03931 0
M  V30 28522 H 2822.6 -0.668858 0.309513 0
M  V30 28523 H 2825.24 -1.31909 1.36748 0
M  V30 28524 H 2823.39 -3.76575 0.955161 0
M  V30 28525 H 2825.06 -3.04656 3.46385 0
M  V30 28526 H 2823.31 -2.81246 3.30277 0
M  V30 28527 H 2823.98 -4.44594 3.2717 0
M  V30 28528 H 2826.45 -3.911 1.42056 0
M  V30 28529 H 2825.33 -5.29392 1.45036 0
M  V30 28530 H 2825.59 -4.4207 -0.0512583 0
M  V30 28531 N 2824.65 -0.893076 -1.29853 0
M  V30 28532 C 2825.6 -0.355553 -2.29866 0
M  V30 28533 C 2826.59 0.541773 -1.60503 0
M  V30 28534 O 2827.8 0.425308 -1.74903 0
M  V30 28535 H 2824.17 -0.0963378 -0.745804 0
M  V30 28536 H 2826.14 -1.21256 -2.72653 0
M  V30 28537 C 2824.89 0.40774 -3.45301 0
M  V30 28538 H 2824.22 -0.273496 -3.98863 0
M  V30 28539 H 2825.66 0.748814 -4.17335 0
M  V30 28540 C 2824.11 1.6079 -2.96054 0
M  V30 28541 O 2824.64 2.70724 -2.96768 0
M  V30 28542 N 2822.85 1.44781 -2.51966 0
M  V30 28543 H 2822.4 0.553454 -2.51584 0
M  V30 28544 H 2822.36 2.25216 -2.19374 0
M  V30 28545 N 2826.13 1.4335 -0.654865 0
M  V30 28546 C 2827.35 2.0666 -0.175082 0
M  V30 28547 C 2827.78 1.48772 1.15102 0
M  V30 28548 O 2827.14 0.598309 1.71143 0
M  V30 28549 C 2827.18 3.60463 -0.0992178 0
M  V30 28550 O 2826.29 4.01589 0.938099 0
M  V30 28551 H 2825.63 0.657078 -0.0956263 0
M  V30 28552 H 2828.16 1.83828 -0.898254 0
M  V30 28553 H 2828.17 4.07914 0.0835603 0
M  V30 28554 H 2826.84 4.01973 -1.06726 0
M  V30 28555 H 2825.42 3.65725 0.727976 0
M  V30 28556 N 2827.61 0.39689 1.52521 0
M  V30 28557 C 2829.02 0.0471939 1.5953 0
M  V30 28558 C 2829.22 -1.43904 1.41046 0
M  V30 28559 O 2828.28 -2.20446 1.23126 0
M  V30 28560 C 2829.59 0.531165 2.95972 0
M  V30 28561 C 2831.14 0.488078 3.09171 0
M  V30 28562 C 2831.61 0.94836 4.48074 0
M  V30 28563 N 2833.1 0.90468 4.54279 0
M  V30 28564 C 2833.84 1.23215 5.60005 0
M  V30 28565 N 2833.34 1.63048 6.7334 0
M  V30 28566 N 2835.13 1.15291 5.50149 0
M  V30 28567 H 2827.28 1.36437 1.62784 0
M  V30 28568 H 2829.54 0.559715 0.76513 0
M  V30 28569 H 2829.25 1.56947 3.14739 0
M  V30 28570 H 2829.12 -0.0657259 3.77143 0
M  V30 28571 H 2831.51 -0.54116 2.90096 0
M  V30 28572 H 2831.59 1.12087 2.29935 0
M  V30 28573 H 2831.23 1.97586 4.67891 0
M  V30 28574 H 2831.16 0.292504 5.25787 0
M  V30 28575 H 2833.66 0.611666 3.72917 0
M  V30 28576 H 2833.97 1.86379 7.49989 0
M  V30 28577 H 2832.31 1.66941 6.74652 0
M  V30 28578 H 2835.5 0.840683 4.60489 0
M  V30 28579 H 2835.68 1.41144 6.32442 0
M  V30 28580 N 2829.08 -1.57088 0.126936 0
M  V30 28581 C 2830.03 -2.1573 -0.820322 0
M  V30 28582 C 2831 -1.08449 -1.25809 0
M  V30 28583 O 2832.19 -1.36396 -1.3342 0
M  V30 28584 C 2829.33 -2.76727 -2.06194 0
M  V30 28585 C 2828.44 -3.9834 -1.67181 0
M  V30 28586 C 2827.57 -4.47399 -2.8637 0
M  V30 28587 C 2826.61 -5.61523 -2.43635 0
M  V30 28588 N 2825.75 -6.0529 -3.55764 0
M  V30 28589 H 2830.59 -2.96347 -0.31342 0
M  V30 28590 H 2828.13 -1.46403 -0.143004 0
M  V30 28591 H 2830.08 -3.10227 -2.78954 0
M  V30 28592 H 2828.71 -1.98787 -2.5433 0
M  V30 28593 H 2827.77 -3.7095 -0.842648 0
M  V30 28594 H 2829.08 -4.81077 -1.3178 0
M  V30 28595 H 2828.23 -4.82848 -3.67345 0
M  V30 28596 H 2826.97 -3.63627 -3.25003 0
M  V30 28597 H 2825.98 -5.2567 -1.61095 0
M  V30 28598 H 2827.2 -6.47067 -2.0611 0
M  V30 28599 H 2825.15 -5.24458 -3.94055 0
M  V30 28600 H 2825.06 -6.82903 -3.24313 0
M  V30 28601 H 2826.33 -6.4538 -4.37155 0
M  V30 28602 N 2830.56 0.146848 -1.56914 0
M  V30 28603 C 2831.52 1.16523 -1.9737 0
M  V30 28604 C 2832.52 1.35854 -0.860247 0
M  V30 28605 O 2833.71 1.32844 -1.12686 0
M  V30 28606 C 2830.85 2.52551 -2.28978 0
M  V30 28607 H 2832.04 0.818158 -2.88524 0
M  V30 28608 H 2829.59 0.390194 -1.51351 0
M  V30 28609 H 2830.33 2.92229 -1.40616 0
M  V30 28610 H 2830.11 2.3988 -3.10161 0
M  V30 28611 H 2831.6 3.25897 -2.61115 0
M  V30 28612 N 2832.04 1.52005 0.4162 0
M  V30 28613 C 2832.97 1.7106 1.52549 0
M  V30 28614 C 2833.98 0.591046 1.51692 0
M  V30 28615 O 2835.17 0.866001 1.56085 0
M  V30 28616 C 2832.27 1.72942 2.91452 0
M  V30 28617 C 2831.45 3.01822 3.16579 0
M  V30 28618 C 2830.51 2.9561 4.35317 0
M  V30 28619 O 2829.53 3.69528 4.32941 0
M  V30 28620 N 2830.73 2.12913 5.40045 0
M  V30 28621 H 2833.5 2.6676 1.36599 0
M  V30 28622 H 2831.06 1.50154 0.605413 0
M  V30 28623 H 2833.05 1.66328 3.68941 0
M  V30 28624 H 2831.62 0.847471 3.00893 0
M  V30 28625 H 2830.84 3.22141 2.27198 0
M  V30 28626 H 2832.13 3.87093 3.30206 0
M  V30 28627 H 2831.53 1.52274 5.4482 0
M  V30 28628 H 2830.08 2.1216 6.16304 0
M  V30 28629 N 2833.52 -0.672992 1.42508 0
M  V30 28630 C 2834.75 -1.46125 1.46476 0
M  V30 28631 C 2835.16 -1.88644 0.0766243 0
M  V30 28632 O 2834.52 -1.5825 -0.909029 0
M  V30 28633 C 2834.57 -2.70919 2.39343 0
M  V30 28634 O 2834.29 -2.30183 3.72756 0
M  V30 28635 C 2835.79 -3.64465 2.5235 0
M  V30 28636 H 2833.01 -0.449566 0.498128 0
M  V30 28637 H 2835.55 -0.826769 1.87042 0
M  V30 28638 H 2833.71 -3.30552 2.02025 0
M  V30 28639 H 2834.12 -3.10784 4.22509 0
M  V30 28640 H 2835.6 -4.48748 3.21448 0
M  V30 28641 H 2836.07 -4.10487 1.56196 0
M  V30 28642 H 2836.68 -3.10724 2.90397 0
M  V30 28643 N 2835 -1.2871 -0.909472 0
M  V30 28644 C 2835.93 -1.15545 -2.02908 0
M  V30 28645 C 2836.91 -0.0521316 -1.7002 0
M  V30 28646 O 2838.09 -0.229883 -1.92835 0
M  V30 28647 C 2835.22 -0.820994 -3.37457 0
M  V30 28648 C 2834.18 -1.87956 -3.84521 0
M  V30 28649 C 2833.5 -1.39864 -5.16084 0
M  V30 28650 C 2834.8 -3.28683 -4.05912 0
M  V30 28651 H 2836.5 -2.09207 -2.1418 0
M  V30 28652 H 2834.04 -1.00723 -1.02912 0
M  V30 28653 H 2835.99 -0.715644 -4.15279 0
M  V30 28654 H 2834.72 0.151317 -3.26249 0
M  V30 28655 H 2833.38 -1.97413 -3.08907 0
M  V30 28656 H 2833.03 -0.415268 -5.01283 0
M  V30 28657 H 2832.73 -2.1065 -5.48544 0
M  V30 28658 H 2834.25 -1.30659 -5.96457 0
M  V30 28659 H 2835.66 -3.22124 -4.74246 0
M  V30 28660 H 2834.06 -3.97342 -4.4971 0
M  V30 28661 H 2835.13 -3.72385 -3.10576 0
M  V30 28662 N 2836.47 1.1185 -1.11028 0
M  V30 28663 C 2837.42 2.19844 -0.759682 0
M  V30 28664 C 2838.42 1.67591 0.246934 0
M  V30 28665 O 2839.62 1.79684 0.106662 0
M  V30 28666 H 2836 0.716679 -0.227763 0
M  V30 28667 H 2837.97 2.46666 -1.67925 0
M  V30 28668 C 2836.72 3.47038 -0.214425 0
M  V30 28669 H 2836.04 3.87597 -0.980243 0
M  V30 28670 H 2837.48 4.23999 -0.007245 0
M  V30 28671 C 2835.94 3.19978 1.05431 0
M  V30 28672 O 2836.47 3.4028 2.13477 0
M  V30 28673 N 2834.67 2.73742 0.975388 0
M  V30 28674 H 2834.22 2.57421 0.0960401 0
M  V30 28675 H 2834.18 2.56013 1.82496 0
M  V30 28676 N 2837.95 0.89995 1.29378 0
M  V30 28677 C 2838.9 0.367738 2.29675 0
M  V30 28678 C 2839.89 -0.533254 1.60788 0
M  V30 28679 O 2841.1 -0.416027 1.75126 0
M  V30 28680 H 2837.47 0.100292 0.745282 0
M  V30 28681 H 2839.45 1.22701 2.72006 0
M  V30 28682 C 2838.19 -0.389422 3.45512 0
M  V30 28683 H 2837.52 0.294645 3.98713 0
M  V30 28684 H 2838.96 -0.726671 4.17727 0
M  V30 28685 C 2837.42 -1.59218 2.96903 0
M  V30 28686 O 2837.95 -2.69147 2.98199 0
M  V30 28687 N 2836.15 -1.43443 2.5273 0
M  V30 28688 H 2835.7 -0.540104 2.51874 0
M  V30 28689 H 2835.66 -2.2405 2.20565 0
M  V30 28690 N 2839.43 -1.43001 0.662458 0
M  V30 28691 C 2840.38 -2.32573 -0.0353041 0
M  V30 28692 C 2841.37 -1.49133 -0.803479 0
M  V30 28693 O 2842.58 -1.65284 -0.712836 0
M  V30 28694 H 2838.95 -0.751393 -0.0302062 0
M  V30 28695 H 2840.92 -2.89137 0.737737 0
M  V30 28696 C 2839.67 -3.33559 -0.981517 0
M  V30 28697 H 2839 -3.97796 -0.399845 0
M  V30 28698 H 2840.44 -3.98847 -1.43866 0
M  V30 28699 C 2838.9 -2.64867 -2.082 0
M  V30 28700 O 2839.43 -2.47119 -3.16694 0
M  V30 28701 N 2837.63 -2.24091 -1.85018 0
M  V30 28702 H 2837.18 -2.38726 -0.967867 0
M  V30 28703 H 2837.14 -1.78461 -2.58842 0
M  V30 28704 N 2840.91 -0.404973 -1.52308 0
M  V30 28705 C 2842.15 0.17242 -2.02066 0
M  V30 28706 C 2842.49 1.45143 -1.29024 0
M  V30 28707 O 2841.76 1.9044 -0.395317 0
M  V30 28708 C 2842.05 0.42437 -3.57591 0
M  V30 28709 C 2841.9 -0.871022 -4.41286 0
M  V30 28710 C 2843.22 1.2083 -4.23188 0
M  V30 28711 H 2840.34 0.0611906 -0.734455 0
M  V30 28712 H 2842.98 -0.537622 -1.82235 0
M  V30 28713 H 2841.13 1.02922 -3.74619 0
M  V30 28714 H 2842.8 -1.50736 -4.35977 0
M  V30 28715 H 2841.04 -1.48292 -4.07667 0
M  V30 28716 H 2841.71 -0.649179 -5.48169 0
M  V30 28717 H 2844.19 0.696266 -4.10233 0
M  V30 28718 H 2843.07 1.35333 -5.31955 0
M  V30 28719 H 2843.33 2.2278 -3.81866 0
M  V30 28720 N 2842.39 1.57018 -0.135265 0
M  V30 28721 C 2843.33 2.17437 0.82606 0
M  V30 28722 C 2844.33 1.12807 1.26376 0
M  V30 28723 O 2845.53 1.31081 1.23361 0
M  V30 28724 H 2841.91 0.696083 0.284556 0
M  V30 28725 H 2843.88 2.96966 0.29216 0
M  V30 28726 C 2842.63 2.80116 2.05986 0
M  V30 28727 H 2841.95 3.60334 1.73203 0
M  V30 28728 H 2843.39 3.25908 2.71219 0
M  V30 28729 C 2841.85 1.78022 2.86024 0
M  V30 28730 O 2842.38 1.2435 3.81968 0
M  V30 28731 N 2840.59 1.47592 2.5033 0
M  V30 28732 H 2840.13 1.91429 1.72373 0
M  V30 28733 H 2840.09 0.795281 3.04175 0
M  V30 28734 N 2843.86 -0.138524 1.5699 0
M  V30 28735 C 2845.28 -0.491446 1.51845 0
M  V30 28736 C 2845.48 -1.82922 0.845095 0
M  V30 28737 O 2844.54 -2.48996 0.419187 0
M  V30 28738 C 2845.85 -0.493935 2.96616 0
M  V30 28739 C 2847.4 -0.578859 3.07601 0
M  V30 28740 C 2847.87 -0.611929 4.53894 0
M  V30 28741 N 2849.36 -0.673916 4.58271 0
M  V30 28742 C 2850.1 -0.720629 5.68854 0
M  V30 28743 N 2849.59 -0.72617 6.88984 0
M  V30 28744 N 2851.39 -0.762155 5.56909 0
M  V30 28745 H 2843.54 0.738263 1.99157 0
M  V30 28746 H 2845.8 0.270165 0.908688 0
M  V30 28747 H 2845.51 0.420994 3.49171 0
M  V30 28748 H 2845.38 -1.32881 3.53019 0
M  V30 28749 H 2847.77 -1.48421 2.55059 0
M  V30 28750 H 2847.85 0.283331 2.54226 0
M  V30 28751 H 2847.49 0.289297 5.07075 0
M  V30 28752 H 2847.42 -1.49073 5.05059 0
M  V30 28753 H 2849.91 -0.676589 3.71794 0
M  V30 28754 H 2850.23 -0.763897 7.69015 0
M  V30 28755 H 2848.57 -0.693909 6.91527 0
M  V30 28756 H 2851.76 -0.755054 4.6197 0
M  V30 28757 H 2851.94 -0.795094 6.43104 0
M  V30 28758 N 2845.34 -1.52224 -0.408133 0
M  V30 28759 C 2846.31 -1.75013 -1.47997 0
M  V30 28760 C 2847.31 -0.620023 -1.48366 0
M  V30 28761 O 2848.5 -0.887908 -1.49873 0
M  V30 28762 C 2845.63 -1.83341 -2.874 0
M  V30 28763 H 2846.82 -2.70699 -1.29082 0
M  V30 28764 H 2844.37 -1.42655 -0.63869 0
M  V30 28765 H 2845.11 -0.895732 -3.11684 0
M  V30 28766 H 2844.89 -2.65499 -2.88535 0
M  V30 28767 H 2846.38 -2.02711 -3.651 0
M  V30 28768 N 2846.82 0.665425 -1.42863 0
M  V30 28769 C 2848.05 1.45346 -1.47248 0
M  V30 28770 C 2848.46 1.88601 -0.0866275 0
M  V30 28771 O 2847.82 1.58729 0.900624 0
M  V30 28772 C 2847.87 2.69646 -2.40777 0
M  V30 28773 O 2847.59 2.28203 -3.73972 0
M  V30 28774 C 2849.09 3.63121 -2.54279 0
M  V30 28775 H 2846.31 0.446918 -0.500505 0
M  V30 28776 H 2848.86 0.816838 -1.87478 0
M  V30 28777 H 2847.01 3.29476 -2.03775 0
M  V30 28778 H 2847.43 3.08539 -4.24151 0
M  V30 28779 H 2848.9 4.47037 -3.23823 0
M  V30 28780 H 2849.38 4.09653 -1.58371 0
M  V30 28781 H 2849.98 3.0918 -2.92041 0
M  V30 28782 N 2848.3 1.29191 0.902633 0
M  V30 28783 C 2849.23 1.09875 2.01147 0
M  V30 28784 C 2850.24 0.0471332 1.62732 0
M  V30 28785 O 2851.43 0.291351 1.76106 0
M  V30 28786 C 2848.53 0.649876 3.32611 0
M  V30 28787 C 2847.71 1.77937 3.99571 0
M  V30 28788 C 2846.76 1.322 5.09323 0
M  V30 28789 O 2845.79 2.0262 5.31915 0
M  V30 28790 N 2846.99 0.191273 5.80185 0
M  V30 28791 H 2849.76 2.05371 2.18272 0
M  V30 28792 H 2847.32 1.21092 1.07463 0
M  V30 28793 H 2849.31 0.32727 4.03375 0
M  V30 28794 H 2847.88 -0.212542 3.11877 0
M  V30 28795 H 2847.1 2.27101 3.22209 0
M  V30 28796 H 2848.39 2.53676 4.41051 0
M  V30 28797 H 2847.79 -0.395917 5.64313 0
M  V30 28798 H 2846.34 -0.0719855 6.5176 0
M  V30 28799 N 2849.78 -1.1126 1.1162 0
M  V30 28800 C 2851 -1.87379 0.889046 0
M  V30 28801 C 2851.43 -1.79699 -0.555852 0
M  V30 28802 O 2850.78 -1.16075 -1.3927 0
M  V30 28803 C 2850.83 -3.34066 1.35765 0
M  V30 28804 O 2849.94 -4.08973 0.530571 0
M  V30 28805 H 2849.28 -0.581753 0.320092 0
M  V30 28806 H 2851.81 -1.40624 1.48613 0
M  V30 28807 H 2851.82 -3.84914 1.35298 0
M  V30 28808 H 2850.49 -3.38972 2.40979 0
M  V30 28809 H 2849.07 -3.68017 0.601503 0
M  V30 28810 N 2851.25 -0.906798 -1.28899 0
M  V30 28811 C 2852.22 -0.394695 -2.25776 0
M  V30 28812 C 2853.22 0.475092 -1.53621 0
M  V30 28813 O 2854.41 0.279134 -1.71949 0
M  V30 28814 C 2851.54 0.43493 -3.38114 0
M  V30 28815 H 2852.73 -1.25038 -2.7259 0
M  V30 28816 H 2850.29 -0.685571 -1.40462 0
M  V30 28817 H 2851.02 1.31031 -2.9665 0
M  V30 28818 H 2850.81 -0.188403 -3.91647 0
M  V30 28819 H 2852.3 0.784293 -4.10169 0
M  V30 28820 N 2852.73 1.42648 -0.670032 0
M  V30 28821 C 2853.68 2.30797 0.0112523 0
M  V30 28822 C 2854.65 1.45697 0.797601 0
M  V30 28823 O 2855.83 1.74537 0.770814 0
M  V30 28824 C 2852.97 3.31481 0.959921 0
M  V30 28825 C 2852.09 4.31674 0.167899 0
M  V30 28826 C 2851.22 5.19433 1.11189 0
M  V30 28827 C 2850.26 6.11308 0.311274 0
M  V30 28828 N 2849.4 6.91635 1.20772 0
M  V30 28829 H 2854.24 2.88504 -0.746282 0
M  V30 28830 H 2851.78 1.42113 -0.379764 0
M  V30 28831 H 2853.73 3.88379 1.52372 0
M  V30 28832 H 2852.36 2.75384 1.68414 0
M  V30 28833 H 2851.42 3.76932 -0.512451 0
M  V30 28834 H 2852.73 4.9673 -0.453901 0
M  V30 28835 H 2851.88 5.8104 1.74577 0
M  V30 28836 H 2850.62 4.54541 1.76758 0
M  V30 28837 H 2849.63 5.48773 -0.335854 0
M  V30 28838 H 2850.85 6.78247 -0.340254 0
M  V30 28839 H 2848.8 6.29376 1.8499 0
M  V30 28840 H 2848.71 7.53279 0.640888 0
M  V30 28841 H 2849.98 7.57733 1.82922 0
M  V30 28842 N 2854.21 0.413044 1.52091 0
M  V30 28843 C 2855.12 -0.417277 2.30859 0
M  V30 28844 C 2856.14 -1.05 1.38748 0
M  V30 28845 O 2857.31 -1.05066 1.71823 0
M  V30 28846 C 2854.38 -1.51682 3.11759 0
M  V30 28847 C 2853.44 -0.906751 4.19615 0
M  V30 28848 C 2852.67 -1.9539 4.96647 0
M  V30 28849 O 2852.9 -3.17263 4.74026 0
M  V30 28850 O 2851.83 -1.55795 5.81388 0
M  V30 28851 H 2855.66 0.225081 3.02865 0
M  V30 28852 H 2853.24 0.176152 1.48358 0
M  V30 28853 H 2855.12 -2.15506 3.62126 0
M  V30 28854 H 2853.8 -2.14371 2.42543 0
M  V30 28855 H 2852.7 -0.231118 3.73385 0
M  V30 28856 H 2854.04 -0.323727 4.91134 0
M  V30 28857 N 2855.69 -1.56945 0.143591 0
M  V30 28858 C 2856.62 -2.19602 -0.793561 0
M  V30 28859 C 2857.6 -1.14323 -1.25953 0
M  V30 28860 O 2858.79 -1.42654 -1.31771 0
M  V30 28861 C 2855.92 -2.81492 -2.03419 0
M  V30 28862 C 2854.87 -3.92568 -1.70512 0
M  V30 28863 C 2854.2 -4.41379 -3.0181 0
M  V30 28864 C 2855.5 -5.13506 -0.9544 0
M  V30 28865 H 2857.19 -2.98168 -0.271371 0
M  V30 28866 H 2854.74 -1.4342 -0.129085 0
M  V30 28867 H 2856.69 -3.23991 -2.69458 0
M  V30 28868 H 2855.41 -2.00253 -2.58005 0
M  V30 28869 H 2854.07 -3.50682 -1.06853 0
M  V30 28870 H 2853.72 -3.56965 -3.54379 0
M  V30 28871 H 2853.42 -5.16296 -2.80556 0
M  V30 28872 H 2854.94 -4.86546 -3.68925 0
M  V30 28873 H 2856.36 -5.52871 -1.51681 0
M  V30 28874 H 2854.75 -5.94165 -0.84193 0
M  V30 28875 H 2855.82 -4.84869 0.0544885 0
M  V30 28876 N 2857.17 0.130197 -1.57061 0
M  V30 28877 C 2858.44 0.8696 -1.75206 0
M  V30 28878 C 2858.82 1.98583 -0.716098 0
M  V30 28879 O 2858.17 2.26993 0.261992 0
M  V30 28880 C 2858.38 1.39661 -3.19837 0
M  V30 28881 C 2859.73 1.85338 -3.82014 0
M  V30 28882 O 2860.75 1.49365 -3.23371 0
M  V30 28883 O 2859.61 2.51735 -4.85069 0
M  V30 28884 H 2856.71 0.412144 -0.716984 0
M  V30 28885 H 2859.25 0.11481 -1.69311 0
M  V30 28886 H 2858.03 0.59522 -3.86746 0
M  V30 28887 H 2857.65 2.21442 -3.30226 0
M  V30 28888 N 2858.65 1.52438 0.400055 0
M  V30 28889 C 2859.89 1.67189 1.14786 0
M  V30 28890 C 2860.22 0.405107 1.89928 0
M  V30 28891 O 2859.5 -0.596772 1.85119 0
M  V30 28892 C 2859.78 2.89981 2.13502 0
M  V30 28893 C 2859.64 4.26732 1.42196 0
M  V30 28894 C 2860.95 3.08305 3.14063 0
M  V30 28895 H 2858.07 0.608418 0.415929 0
M  V30 28896 H 2860.72 1.85012 0.43251 0
M  V30 28897 H 2858.87 2.74916 2.74505 0
M  V30 28898 H 2860.54 4.53543 0.842424 0
M  V30 28899 H 2858.78 4.27718 0.723864 0
M  V30 28900 H 2859.45 5.08715 2.14272 0
M  V30 28901 H 2861.93 3.22328 2.63142 0
M  V30 28902 H 2860.8 3.9572 3.80391 0
M  V30 28903 H 2861.06 2.22025 3.82305 0
M  V30 28904 N 2860.12 -0.657839 1.43214 0
M  V30 28905 C 2861.07 -1.77089 1.48014 0
M  V30 28906 C 2862.04 -1.62782 0.33032 0
M  V30 28907 O 2863.23 -1.83093 0.536819 0
M  V30 28908 C 2860.37 -3.15219 1.40467 0
M  V30 28909 C 2859.48 -3.40692 2.65618 0
M  V30 28910 C 2858.61 -4.68645 2.50091 0
M  V30 28911 C 2857.65 -4.87208 3.70533 0
M  V30 28912 N 2856.79 -6.06414 3.53846 0
M  V30 28913 H 2861.63 -1.72321 2.43124 0
M  V30 28914 H 2859.17 -0.840992 1.20689 0
M  V30 28915 H 2861.12 -3.95066 1.34086 0
M  V30 28916 H 2859.75 -3.19068 0.489415 0
M  V30 28917 H 2858.81 -2.54977 2.82296 0
M  V30 28918 H 2860.12 -3.50297 3.55097 0
M  V30 28919 H 2859.27 -5.5661 2.41393 0
M  V30 28920 H 2858.01 -4.61353 1.58129 0
M  V30 28921 H 2857.02 -3.9768 3.79646 0
M  V30 28922 H 2858.24 -4.96333 4.63498 0
M  V30 28923 H 2856.19 -6.00263 2.64614 0
M  V30 28924 H 2856.1 -6.16956 4.36923 0
M  V30 28925 H 2857.37 -6.97012 3.4899 0
M  V30 28926 N 2861.6 -1.29668 -0.895769 0
M  V30 28927 C 2862.85 -1.17237 -1.64129 0
M  V30 28928 C 2863.16 0.274382 -1.93666 0
M  V30 28929 O 2864.37 0.520058 -2.66473 0
M  V30 28930 C 2862.83 -2.0507 -2.95761 0
M  V30 28931 C 2862.43 -3.54592 -2.73804 0
M  V30 28932 C 2864.18 -2.01374 -3.73696 0
M  V30 28933 C 2862.08 -4.34515 -4.01186 0
M  V30 28934 H 2861.01 -0.435186 -0.615735 0
M  V30 28935 H 2863.67 -1.54336 -0.992599 0
M  V30 28936 H 2862.05 -1.60843 -3.61864 0
M  V30 28937 H 2863.22 -4.06896 -2.1627 0
M  V30 28938 H 2861.54 -3.6 -2.09259 0
M  V30 28939 H 2864.13 -2.58345 -4.68147 0
M  V30 28940 H 2864.48 -0.994646 -4.04243 0
M  V30 28941 H 2865.01 -2.43665 -3.1444 0
M  V30 28942 H 2861.75 -5.37077 -3.75803 0
M  V30 28943 H 2861.27 -3.86979 -4.58266 0
M  V30 28944 H 2862.95 -4.45385 -4.69299 0
M  V30 28945 N 2863.08 1.10667 -1.12208 0
M  V30 28946 C 2864.03 2.1694 -0.787754 0
M  V30 28947 C 2865 1.64292 0.244414 0
M  V30 28948 O 2866.18 1.90425 0.119524 0
M  V30 28949 C 2863.32 3.44223 -0.2459 0
M  V30 28950 C 2862.43 4.10836 -1.33559 0
M  V30 28951 C 2861.57 5.2583 -0.753429 0
M  V30 28952 C 2860.61 5.84341 -1.82241 0
M  V30 28953 N 2859.75 6.90717 -1.25914 0
M  V30 28954 H 2864.59 2.44882 -1.69813 0
M  V30 28955 H 2862.12 1.20205 -0.847883 0
M  V30 28956 H 2864.08 4.17111 0.0862906 0
M  V30 28957 H 2862.71 3.16639 0.627647 0
M  V30 28958 H 2861.76 3.35941 -1.7846 0
M  V30 28959 H 2863.07 4.50369 -2.14404 0
M  V30 28960 H 2862.23 6.0556 -0.371767 0
M  V30 28961 H 2860.97 4.87624 0.086244 0
M  V30 28962 H 2859.97 5.03283 -2.21329 0
M  V30 28963 H 2861.2 6.24612 -2.66526 0
M  V30 28964 H 2859.14 6.54514 -0.441255 0
M  V30 28965 H 2859.06 7.28949 -2.00421 0
M  V30 28966 H 2860.33 7.74233 -0.904634 0
M  V30 28967 N 2864.56 0.913621 1.28416 0
M  V30 28968 C 2865.51 0.392077 2.29272 0
M  V30 28969 C 2866.5 -0.51617 1.61344 0
M  V30 28970 O 2867.71 -0.397429 1.75558 0
M  V30 28971 H 2864.08 0.108191 0.744177 0
M  V30 28972 H 2866.05 1.25579 2.70689 0
M  V30 28973 C 2864.8 -0.352754 3.45906 0
M  V30 28974 H 2864.12 0.336918 3.98378 0
M  V30 28975 H 2865.56 -0.682325 4.18474 0
M  V30 28976 C 2864.02 -1.5606 2.98575 0
M  V30 28977 O 2864.55 -2.65969 3.01037 0
M  V30 28978 N 2862.76 -1.40754 2.54237 0
M  V30 28979 H 2862.31 -0.513359 2.52433 0
M  V30 28980 H 2862.26 -2.21698 2.22929 0
M  V30 28981 N 2866.04 -1.4229 0.677588 0
M  V30 28982 C 2867.28 -2.01798 0.201308 0
M  V30 28983 C 2867.61 -1.53467 -1.19002 0
M  V30 28984 O 2866.89 -0.738071 -1.79952 0
M  V30 28985 C 2867.17 -3.59306 0.239031 0
M  V30 28986 C 2867.03 -4.17809 1.66601 0
M  V30 28987 C 2868.34 -4.38175 -0.41121 0
M  V30 28988 H 2865.46 -0.733212 0.0746243 0
M  V30 28989 H 2868.11 -1.69275 0.862902 0
M  V30 28990 H 2866.26 -3.87144 -0.3243 0
M  V30 28991 H 2867.93 -4.00913 2.2818 0
M  V30 28992 H 2866.17 -3.73532 2.20582 0
M  V30 28993 H 2866.84 -5.26948 1.64407 0
M  V30 28994 H 2869.32 -4.16044 0.0683535 0
M  V30 28995 H 2868.19 -5.47756 -0.35419 0
M  V30 28996 H 2868.45 -4.16263 -1.48923 0
M  V30 28997 N 2867.51 -0.421104 -1.5187 0
M  V30 28998 C 2868.76 0.152171 -2.01125 0
M  V30 28999 C 2869.08 1.45196 -1.31062 0
M  V30 29000 O 2870.28 2.10721 -1.71198 0
M  V30 29001 C 2868.74 0.321737 -3.58459 0
M  V30 29002 C 2868.35 -0.966667 -4.37447 0
M  V30 29003 C 2870.09 0.849656 -4.1591 0
M  V30 29004 C 2868 -0.763632 -5.86449 0
M  V30 29005 H 2866.93 0.0606433 -0.751557 0
M  V30 29006 H 2869.58 -0.548384 -1.75114 0
M  V30 29007 H 2867.96 1.08491 -3.80849 0
M  V30 29008 H 2869.13 -1.73691 -4.26811 0
M  V30 29009 H 2867.45 -1.4219 -3.91371 0
M  V30 29010 H 2870.05 1.01779 -5.24924 0
M  V30 29011 H 2870.39 1.82767 -3.74035 0
M  V30 29012 H 2870.92 0.145227 -3.97535 0
M  V30 29013 H 2867.66 -1.71355 -6.32707 0
M  V30 29014 H 2867.18 -0.0328943 -5.99791 0
M  V30 29015 H 2868.86 -0.410467 -6.45697 0
M  V30 29016 N 2868.99 1.56866 -0.151912 0
M  V30 29017 C 2870.41 1.58285 0.204458 0
M  V30 29018 C 2870.61 1.16641 1.64308 0
M  V30 29019 O 2869.66 0.868987 2.37076 0
M  V30 29020 C 2870.98 3.00643 -0.0587548 0
M  V30 29021 C 2872.53 3.13 0.00456802 0
M  V30 29022 C 2873 4.57415 -0.231377 0
M  V30 29023 N 2874.49 4.62856 -0.178476 0
M  V30 29024 C 2875.23 5.72418 -0.33548 0
M  V30 29025 N 2874.72 6.9061 -0.550476 0
M  V30 29026 N 2876.52 5.61438 -0.272739 0
M  V30 29027 H 2868.67 1.82227 -1.09119 0
M  V30 29028 H 2870.93 0.843681 -0.432326 0
M  V30 29029 H 2870.64 3.35516 -1.05459 0
M  V30 29030 H 2870.51 3.71409 0.658442 0
M  V30 29031 H 2872.9 2.77964 0.99096 0
M  V30 29032 H 2872.98 2.4471 -0.745035 0
M  V30 29033 H 2872.62 4.93156 -1.21489 0
M  V30 29034 H 2872.55 5.23838 0.538608 0
M  V30 29035 H 2875.04 3.77896 -0.0171588 0
M  V30 29036 H 2875.36 7.69974 -0.660252 0
M  V30 29037 H 2873.7 6.92518 -0.586857 0
M  V30 29038 H 2876.89 4.67981 -0.105503 0
M  V30 29039 H 2877.06 6.46773 -0.398531 0
M  V30 29040 N 2870.47 -0.121866 1.57128 0
M  V30 29041 C 2871.42 -1.16864 2.01111 0
M  V30 29042 C 2872.41 -1.43038 0.907557 0
M  V30 29043 O 2873.62 -1.43034 1.09276 0
M  V30 29044 H 2869.99 -0.39396 0.640546 0
M  V30 29045 H 2871.96 -0.771174 2.88263 0
M  V30 29046 C 2870.71 -2.48795 2.42892 0
M  V30 29047 H 2870.04 -2.29492 3.27374 0
M  V30 29048 H 2871.48 -3.20606 2.77467 0
M  V30 29049 C 2869.94 -3.11165 1.29142 0
M  V30 29050 O 2870.47 -3.97105 0.605826 0
M  V30 29051 N 2868.67 -2.70998 1.04921 0
M  V30 29052 H 2868.22 -2.01208 1.60851 0
M  V30 29053 H 2868.18 -3.13059 0.290071 0
M  V30 29054 N 2871.95 -1.52648 -0.391965 0
M  V30 29055 C 2873.19 -1.67795 -1.13897 0
M  V30 29056 C 2873.53 -0.415174 -1.8971 0
M  V30 29057 O 2872.8 0.586946 -1.85432 0
M  V30 29058 C 2873.09 -2.91109 -2.11961 0
M  V30 29059 C 2872.94 -4.2748 -1.39931 0
M  V30 29060 C 2874.26 -3.09966 -3.12424 0
M  V30 29061 H 2871.38 -0.610615 -0.412696 0
M  V30 29062 H 2874.02 -1.85239 -0.422692 0
M  V30 29063 H 2872.17 -2.76368 -2.73044 0
M  V30 29064 H 2873.84 -4.53983 -0.818359 0
M  V30 29065 H 2872.08 -4.28096 -0.701171 0
M  V30 29066 H 2872.75 -5.09845 -2.11572 0
M  V30 29067 H 2875.23 -3.23719 -2.61429 0
M  V30 29068 H 2874.11 -3.97731 -3.78287 0
M  V30 29069 H 2874.37 -2.24049 -3.81123 0
M  V30 29070 N 2873.43 0.650235 -1.43561 0
M  V30 29071 C 2874.38 1.75625 -1.45395 0
M  V30 29072 C 2875.36 1.57644 -0.322033 0
M  V30 29073 O 2876.55 1.67706 -0.566025 0
M  V30 29074 C 2873.68 3.14228 -1.3826 0
M  V30 29075 C 2872.77 3.37746 -2.56493 0
M  V30 29076 N 2873.16 3.31722 -3.8183 0
M  V30 29077 C 2871.46 3.68476 -2.5128 0
M  V30 29078 C 2872.16 3.55404 -4.60503 0
M  V30 29079 N 2871.13 3.7736 -3.9128 0
M  V30 29080 H 2874.94 1.69398 -2.4017 0
M  V30 29081 H 2872.45 0.852013 -1.38255 0
M  V30 29082 H 2874.45 3.93518 -1.37657 0
M  V30 29083 H 2873.11 3.21635 -0.445076 0
M  V30 29084 H 2874.12 3.11067 -4.14075 0
M  V30 29085 H 2870.79 3.8298 -1.6623 0
M  V30 29086 H 2872.18 3.565 -5.69524 0
M  V30 29087 N 2874.9 1.30141 0.88888 0
M  V30 29088 C 2876.15 1.18106 1.63505 0
M  V30 29089 C 2876.47 -0.264107 1.93809 0
M  V30 29090 O 2877.67 -0.505919 2.66745 0
M  V30 29091 C 2876.13 2.06636 2.94669 0
M  V30 29092 C 2875.74 3.56039 2.7192 0
M  V30 29093 C 2877.48 2.03353 3.72623 0
M  V30 29094 C 2875.39 4.36637 3.98876 0
M  V30 29095 H 2874.32 0.438445 0.613418 0
M  V30 29096 H 2876.97 1.54861 0.9844 0
M  V30 29097 H 2875.35 1.6276 3.61006 0
M  V30 29098 H 2876.52 4.08037 2.14109 0
M  V30 29099 H 2874.84 3.61104 2.07347 0
M  V30 29100 H 2877.44 2.60824 4.66771 0
M  V30 29101 H 2877.78 1.01607 4.0371 0
M  V30 29102 H 2878.31 2.45329 3.13143 0
M  V30 29103 H 2875.05 5.39063 3.7295 0
M  V30 29104 H 2874.57 3.89404 4.56207 0
M  V30 29105 H 2876.25 4.47867 4.66931 0
M  V30 29106 N 2876.38 -1.1007 1.12794 0
M  V30 29107 C 2877.31 -2.18563 0.821727 0
M  V30 29108 C 2878.29 -1.68722 -0.21609 0
M  V30 29109 O 2879.48 -1.94049 -0.076459 0
M  V30 29110 C 2876.61 -3.46172 0.279685 0
M  V30 29111 C 2875.56 -4.09309 1.25099 0
M  V30 29112 C 2874.89 -5.31664 0.56901 0
M  V30 29113 C 2876.19 -4.52581 2.60706 0
M  V30 29114 H 2877.88 -2.44435 1.72893 0
M  V30 29115 H 2875.43 -1.17481 0.832723 0
M  V30 29116 H 2877.38 -4.21366 0.0531731 0
M  V30 29117 H 2876.11 -3.19802 -0.662872 0
M  V30 29118 H 2874.76 -3.36126 1.46338 0
M  V30 29119 H 2874.41 -5.01572 -0.37881 0
M  V30 29120 H 2874.11 -5.7486 1.21697 0
M  V30 29121 H 2875.64 -6.09587 0.351624 0
M  V30 29122 H 2877.05 -5.19031 2.43474 0
M  V30 29123 H 2875.45 -5.06639 3.21616 0
M  V30 29124 H 2876.52 -3.65311 3.18867 0
M  V30 29125 N 2877.86 -0.920419 -1.2793 0
M  V30 29126 C 2878.79 -0.431064 -2.29487 0
M  V30 29127 C 2879.77 0.504833 -1.62436 0
M  V30 29128 O 2880.96 0.411142 -1.89798 0
M  V30 29129 C 2878.09 0.323648 -3.45789 0
M  V30 29130 C 2877.04 -0.523732 -4.24784 0
M  V30 29131 C 2876.37 0.359716 -5.33489 0
M  V30 29132 C 2877.67 -1.78445 -4.90871 0
M  V30 29133 H 2879.36 -1.2798 -2.70669 0
M  V30 29134 H 2876.91 -0.616836 -1.3012 0
M  V30 29135 H 2878.86 0.676879 -4.15928 0
M  V30 29136 H 2877.58 1.20634 -3.03504 0
M  V30 29137 H 2876.24 -0.859572 -3.5638 0
M  V30 29138 H 2875.89 1.24115 -4.87447 0
M  V30 29139 H 2875.59 -0.203709 -5.87247 0
M  V30 29140 H 2877.11 0.708681 -6.06473 0
M  V30 29141 H 2878.53 -1.49973 -5.53336 0
M  V30 29142 H 2876.93 -2.2908 -5.54655 0
M  V30 29143 H 2878 -2.50831 -4.14984 0
M  V30 29144 N 2879.34 1.41929 -0.685124 0
M  V30 29145 C 2880.29 2.30796 -0.0132275 0
M  V30 29146 C 2881.26 1.46534 0.782104 0
M  V30 29147 O 2882.44 1.75345 0.752259 0
M  V30 29148 C 2879.58 3.3248 0.924709 0
M  V30 29149 C 2878.69 4.31827 0.122105 0
M  V30 29150 C 2877.83 5.20583 1.05673 0
M  V30 29151 C 2876.87 6.11604 0.246419 0
M  V30 29152 N 2876 6.92877 1.1343 0
M  V30 29153 H 2880.84 2.87696 -0.77684 0
M  V30 29154 H 2878.38 1.41703 -0.394816 0
M  V30 29155 H 2880.34 3.89974 1.48244 0
M  V30 29156 H 2878.97 2.77155 1.65484 0
M  V30 29157 H 2878.02 3.76368 -0.552401 0
M  V30 29158 H 2879.33 4.96221 -0.50656 0
M  V30 29159 H 2878.49 5.82859 1.68405 0
M  V30 29160 H 2877.23 4.56391 1.71927 0
M  V30 29161 H 2876.23 5.48386 -0.39404 0
M  V30 29162 H 2877.46 6.77848 -0.412172 0
M  V30 29163 H 2875.4 6.31303 1.78305 0
M  V30 29164 H 2875.32 7.53916 0.560956 0
M  V30 29165 H 2876.59 7.59631 1.74875 0
M  V30 29166 N 2880.82 0.429152 1.51644 0
M  V30 29167 C 2881.75 -0.422084 2.2528 0
M  V30 29168 C 2882.76 -0.993276 1.28988 0
M  V30 29169 O 2883.95 -0.888809 1.54798 0
M  V30 29170 C 2881.05 -1.60156 2.98669 0
M  V30 29171 C 2880.22 -1.15071 4.21992 0
M  V30 29172 C 2879.28 -2.19937 4.78031 0
M  V30 29173 O 2878.31 -1.79706 5.40087 0
M  V30 29174 N 2879.51 -3.52332 4.61348 0
M  V30 29175 H 2882.28 0.208983 2.9897 0
M  V30 29176 H 2879.84 0.257597 1.59838 0
M  V30 29177 H 2881.83 -2.29916 3.33048 0
M  V30 29178 H 2880.4 -2.13814 2.2804 0
M  V30 29179 H 2879.62 -0.280482 3.93201 0
M  V30 29180 H 2880.91 -0.826743 5.02038 0
M  V30 29181 H 2880.3 -3.87755 4.11901 0
M  V30 29182 H 2878.86 -4.1801 5.00111 0
M  V30 29183 N 2882.29 -1.56783 0.160229 0
M  V30 29184 C 2883.54 -1.95718 -0.487585 0
M  V30 29185 C 2883.86 -1.04833 -1.65134 0
M  V30 29186 O 2885.06 -1.33402 -2.36466 0
M  V30 29187 C 2883.52 -3.47974 -0.918818 0
M  V30 29188 C 2883.13 -4.47466 0.218733 0
M  V30 29189 C 2884.87 -3.95749 -1.53568 0
M  V30 29190 C 2882.78 -5.90947 -0.23151 0
M  V30 29191 H 2881.71 -0.730717 -0.185926 0
M  V30 29192 H 2884.36 -1.81834 0.246689 0
M  V30 29193 H 2882.74 -3.57237 -1.70874 0
M  V30 29194 H 2883.91 -4.49909 0.995904 0
M  V30 29195 H 2882.23 -4.09684 0.744839 0
M  V30 29196 H 2884.83 -5.00395 -1.88439 0
M  V30 29197 H 2885.17 -3.38052 -2.42953 0
M  V30 29198 H 2885.7 -3.89458 -0.810398 0
M  V30 29199 H 2882.44 -6.52492 0.627295 0
M  V30 29200 H 2881.96 -5.91834 -0.974275 0
M  V30 29201 H 2883.64 -6.43426 -0.679107 0
M  V30 29202 N 2883.77 0.113531 -1.57191 0
M  V30 29203 C 2885 0.838303 -1.89703 0
M  V30 29204 C 2885.42 1.72383 -0.75271 0
M  V30 29205 O 2884.78 1.78858 0.296544 0
M  V30 29206 C 2884.83 1.64307 -3.20992 0
M  V30 29207 O 2883.93 2.75048 -3.07282 0
M  V30 29208 H 2883.27 0.231485 -0.622343 0
M  V30 29209 H 2885.8 0.0942869 -2.04383 0
M  V30 29210 H 2885.81 2.03116 -3.53847 0
M  V30 29211 H 2884.49 0.993048 -4.0387 0
M  V30 29212 H 2883.07 2.39401 -2.85905 0
M  V30 29213 N 2885.25 1.52854 0.383864 0
M  V30 29214 C 2886.5 1.67816 1.12616 0
M  V30 29215 C 2886.82 0.423174 1.90353 0
M  V30 29216 O 2886.09 -0.562521 1.8765 0
M  V30 29217 H 2884.67 0.618609 0.418727 0
M  V30 29218 H 2887.33 1.89985 0.434917 0
M  V30 29219 H 2886.43 2.53094 1.8262 0
M  V30 29220 N 2886.73 -0.642612 1.43904 0
M  V30 29221 C 2887.96 -1.42985 1.49542 0
M  V30 29222 C 2888.37 -1.88439 0.116621 0
M  V30 29223 O 2887.73 -1.60142 -0.875257 0
M  V30 29224 C 2887.78 -2.65781 2.45036 0
M  V30 29225 O 2887.5 -2.22225 3.77555 0
M  V30 29226 C 2889 -3.5903 2.60024 0
M  V30 29227 H 2886.22 -0.438899 0.507552 0
M  V30 29228 H 2888.77 -0.786909 1.88754 0
M  V30 29229 H 2886.92 -3.26192 2.08991 0
M  V30 29230 H 2887.34 -3.01752 4.29006 0
M  V30 29231 H 2888.81 -4.41829 3.30894 0
M  V30 29232 H 2889.29 -4.07081 1.64868 0
M  V30 29233 H 2889.89 -3.04495 2.96923 0
M  V30 29234 N 2888.21 -1.30611 -0.881966 0
M  V30 29235 C 2889.48 -1.10261 -1.61561 0
M  V30 29236 C 2889.86 0.347017 -2.08228 0
M  V30 29237 O 2889.21 1.33905 -1.85153 0
M  V30 29238 C 2889.42 -2.10617 -2.78283 0
M  V30 29239 C 2890.77 -2.42496 -3.48541 0
M  V30 29240 O 2891.79 -2.0895 -2.88476 0
M  V30 29241 O 2890.65 -2.99891 -4.56867 0
M  V30 29242 H 2887.75 -0.423675 -0.710231 0
M  V30 29243 H 2890.29 -1.42047 -0.928478 0
M  V30 29244 H 2889.07 -3.08179 -2.41126 0
M  V30 29245 H 2888.69 -1.79665 -3.54692 0
M  V30 29246 N 2889.69 1.0947 -1.13376 0
M  V30 29247 C 2890.93 1.81278 -0.893454 0
M  V30 29248 C 2891.25 1.86112 0.581996 0
M  V30 29249 O 2890.52 1.34635 1.42303 0
M  V30 29250 H 2889.1 0.671355 -0.327555 0
M  V30 29251 H 2891.77 1.32405 -1.43021 0
M  V30 29252 H 2890.86 2.84474 -1.28379 0
M  V30 29253 N 2891.16 0.92719 1.2744 0
M  V30 29254 C 2892.07 0.431488 2.30598 0
M  V30 29255 C 2893.09 -0.48758 1.67029 0
M  V30 29256 O 2894.27 -0.370512 1.97963 0
M  V30 29257 C 2891.33 -0.308231 3.45327 0
M  V30 29258 C 2890.39 0.64569 4.24416 0
M  V30 29259 C 2889.62 -0.0588226 5.33668 0
M  V30 29260 O 2889.85 -1.27828 5.55892 0
M  V30 29261 O 2888.78 0.612743 5.98773 0
M  V30 29262 H 2892.61 1.28802 2.75034 0
M  V30 29263 H 2890.19 0.692518 1.3238 0
M  V30 29264 H 2892.07 -0.725482 4.15108 0
M  V30 29265 H 2890.75 -1.14038 3.02947 0
M  V30 29266 H 2889.66 1.11261 3.57172 0
M  V30 29267 H 2890.99 1.44504 4.7051 0
M  V30 29268 N 2892.64 -1.41564 0.692641 0
M  V30 29269 C 2893.89 -2.00878 0.221931 0
M  V30 29270 C 2894.21 -1.55122 -1.18161 0
M  V30 29271 O 2893.48 -0.780572 -1.79677 0
M  V30 29272 H 2892.06 -0.742805 0.0790594 0
M  V30 29273 H 2894.72 -1.73231 0.893145 0
M  V30 29274 H 2893.82 -3.11198 0.237075 0
M  V30 29275 N 2894.12 -0.437188 -1.51415 0
M  V30 29276 C 2895.07 0.388724 -2.29329 0
M  V30 29277 C 2896.06 1.02101 -1.35173 0
M  V30 29278 O 2897.27 0.955997 -1.52515 0
M  V30 29279 H 2893.64 0.14417 -0.738051 0
M  V30 29280 H 2895.61 -0.289264 -2.96995 0
M  V30 29281 C 2894.36 1.47756 -3.14744 0
M  V30 29282 H 2893.69 1.00039 -3.87082 0
M  V30 29283 H 2895.13 2.0287 -3.72317 0
M  V30 29284 C 2893.58 2.46072 -2.30109 0
M  V30 29285 O 2894.11 3.50604 -1.96061 0
M  V30 29286 N 2892.32 2.16957 -1.93334 0
M  V30 29287 H 2891.87 1.31979 -2.21222 0
M  V30 29288 H 2891.83 2.82979 -1.37004 0
M  V30 29289 N 2895.6 1.56696 -0.168541 0
M  V30 29290 C 2896.55 2.19141 0.779753 0
M  V30 29291 C 2897.54 1.15463 1.23955 0
M  V30 29292 O 2898.75 1.33668 1.20552 0
M  V30 29293 H 2895.12 0.701962 0.269727 0
M  V30 29294 H 2897.09 2.97519 0.229103 0
M  V30 29295 C 2895.84 2.84422 1.99998 0
M  V30 29296 H 2895.16 3.63927 1.6552 0
M  V30 29297 H 2896.6 3.31588 2.64245 0
M  V30 29298 C 2895.06 1.84049 2.82183 0
M  V30 29299 O 2895.59 1.32424 3.79245 0
M  V30 29300 N 2893.8 1.52869 2.47143 0
M  V30 29301 H 2893.35 1.95043 1.68274 0
M  V30 29302 H 2893.3 0.859623 3.0242 0
M  V30 29303 N 2897.08 -0.105193 1.57249 0
M  V30 29304 C 2898.32 -0.81172 1.85847 0
M  V30 29305 C 2898.65 -1.7887 0.75625 0
M  V30 29306 O 2897.93 -1.93054 -0.236702 0
M  V30 29307 C 2898.21 -1.54942 3.25062 0
M  V30 29308 C 2898.07 -0.591106 4.45899 0
M  V30 29309 C 2899.38 -2.50239 3.62034 0
M  V30 29310 H 2896.5 -0.293638 0.675978 0
M  V30 29311 H 2899.15 -0.0755935 1.8985 0
M  V30 29312 H 2897.3 -2.17692 3.2178 0
M  V30 29313 H 2898.97 0.0286162 4.61291 0
M  V30 29314 H 2897.21 0.0963106 4.33693 0
M  V30 29315 H 2897.88 -1.1442 5.40011 0
M  V30 29316 H 2900.36 -1.97586 3.66195 0
M  V30 29317 H 2899.23 -2.98878 4.60395 0
M  V30 29318 H 2899.49 -3.33537 2.90182 0
M  V30 29319 N 2898.55 -1.53055 -0.375752 0
M  V30 29320 C 2899.97 -1.60542 -0.953062 0
M  V30 29321 C 2900.32 -0.466479 -1.90574 0
M  V30 29322 O 2899.44 0.408571 -2.12508 0
M  V30 29323 C 2900.04 -2.90985 -1.73532 0
M  V30 29324 C 2898.6 -3.0084 -2.26213 0
M  V30 29325 C 2897.74 -2.55761 -1.07153 0
M  V30 29326 H 2900.69 -1.57943 -0.154867 0
M  V30 29327 H 2900.71 -2.78216 -2.5957 0
M  V30 29328 H 2900.23 -3.73859 -1.04169 0
M  V30 29329 H 2898.33 -2.22532 -2.98848 0
M  V30 29330 H 2898.44 -4.05731 -2.54792 0
M  V30 29331 H 2896.8 -2.10394 -1.4355 0
M  V30 29332 H 2897.59 -3.41043 -0.39304 0
M  V30 29333 N 2900.03 0.634971 -1.44242 0
M  V30 29334 C 2901.26 1.42684 -1.50519 0
M  V30 29335 C 2901.68 1.87651 -0.129897 0
M  V30 29336 O 2901.04 1.58503 0.880136 0
M  V30 29337 C 2901.09 2.62587 -2.47145 0
M  V30 29338 O 2900.19 3.62288 -1.97032 0
M  V30 29339 H 2899.53 0.427092 -0.508418 0
M  V30 29340 H 2902.06 0.775374 -1.89339 0
M  V30 29341 H 2902.07 3.10178 -2.65054 0
M  V30 29342 H 2900.75 2.29203 -3.47043 0
M  V30 29343 H 2899.33 3.21531 -1.88871 0
M  V30 29344 N 2901.51 1.31076 0.875027 0
M  V30 29345 C 2902.76 1.20234 1.62445 0
M  V30 29346 C 2903.08 -0.240854 1.93507 0
M  V30 29347 O 2902.35 -1.16019 1.57849 0
M  V30 29348 H 2900.93 0.442002 0.602199 0
M  V30 29349 H 2903.59 1.64336 1.04785 0
M  V30 29350 H 2902.69 1.7704 2.57028 0
M  V30 29351 N 2902.99 -1.08867 1.13955 0
M  V30 29352 C 2904.27 -1.77775 0.815799 0
M  V30 29353 C 2904.65 -1.9945 -0.691589 0
M  V30 29354 O 2903.99 -1.60052 -1.63082 0
M  V30 29355 C 2904.2 -3.09686 1.60921 0
M  V30 29356 C 2905.55 -3.84298 1.80556 0
M  V30 29357 O 2906.58 -3.19454 1.57568 0
M  V30 29358 O 2905.43 -5.00721 2.18955 0
M  V30 29359 H 2902.53 -0.771266 0.298458 0
M  V30 29360 H 2905.07 -1.15372 1.24448 0
M  V30 29361 H 2903.85 -2.89431 2.63336 0
M  V30 29362 H 2903.47 -3.79815 1.17584 0
M  V30 29363 N 2904.47 -0.933936 -1.26946 0
M  V30 29364 C 2905.71 -0.577659 -1.94086 0
M  V30 29365 C 2906.04 0.88211 -1.73347 0
M  V30 29366 O 2905.3 1.6454 -1.05948 0
M  V30 29367 C 2905.6 -0.857467 -3.46961 0
M  V30 29368 C 2905.26 -2.29996 -3.8783 0
M  V30 29369 C 2903.92 -2.6943 -3.98699 0
M  V30 29370 C 2906.28 -3.23773 -4.08437 0
M  V30 29371 C 2903.6 -4.01752 -4.27566 0
M  V30 29372 C 2905.96 -4.55682 -4.3879 0
M  V30 29373 C 2904.62 -4.94941 -4.47872 0
M  V30 29374 H 2903.89 -0.21138 -0.710211 0
M  V30 29375 H 2906.54 -1.17908 -1.50897 0
M  V30 29376 H 2904.84 -0.173438 -3.91416 0
M  V30 29377 H 2906.54 -0.560685 -3.97061 0
M  V30 29378 H 2903.13 -1.98406 -3.79912 0
M  V30 29379 H 2907.31 -2.94506 -3.99474 0
M  V30 29380 H 2902.57 -4.31842 -4.32808 0
M  V30 29381 H 2906.74 -5.28343 -4.53681 0
M  V30 29382 H 2904.37 -5.97503 -4.69994 0
M  V30 29383 N 2905.94 1.41194 -0.700139 0
M  V30 29384 C 2907.17 2.05998 -0.240741 0
M  V30 29385 C 2907.59 1.52359 1.1031 0
M  V30 29386 O 2906.95 0.652454 1.69153 0
M  V30 29387 C 2907 3.59965 -0.213846 0
M  V30 29388 O 2906.1 4.0437 0.809862 0
M  V30 29389 H 2905.45 0.653703 -0.116482 0
M  V30 29390 H 2907.98 1.80877 -0.956283 0
M  V30 29391 H 2907.99 4.07974 -0.0462569 0
M  V30 29392 H 2906.66 3.98374 -1.19461 0
M  V30 29393 H 2905.24 3.67856 0.611255 0
M  V30 29394 N 2907.42 0.445212 1.51181 0
M  V30 29395 C 2908.84 0.0979234 1.59299 0
M  V30 29396 C 2909.04 -1.39343 1.45553 0
M  V30 29397 O 2908.09 -2.16417 1.30077 0
M  V30 29398 C 2909.41 0.625057 2.94132 0
M  V30 29399 C 2910.96 0.586191 3.07462 0
M  V30 29400 C 2911.43 1.09043 4.4483 0
M  V30 29401 N 2912.92 1.04875 4.51171 0
M  V30 29402 C 2913.66 1.40969 5.55801 0
M  V30 29403 N 2913.15 1.84387 6.67812 0
M  V30 29404 N 2914.95 1.32736 5.46203 0
M  V30 29405 H 2907.1 1.41547 1.58361 0
M  V30 29406 H 2909.36 0.583773 0.746936 0
M  V30 29407 H 2909.07 1.66881 3.09586 0
M  V30 29408 H 2908.94 0.0542925 3.77161 0
M  V30 29409 H 2911.33 -0.448594 2.9167 0
M  V30 29410 H 2911.41 1.19345 2.26253 0
M  V30 29411 H 2911.05 2.12372 4.61368 0
M  V30 29412 H 2910.98 0.459631 5.2459 0
M  V30 29413 H 2913.47 0.729997 3.70782 0
M  V30 29414 H 2913.79 2.10145 7.43679 0
M  V30 29415 H 2912.13 1.8832 6.69 0
M  V30 29416 H 2915.32 0.986758 4.57581 0
M  V30 29417 H 2915.49 1.61193 6.27631 0
M  V30 29418 N 2908.9 -1.56605 0.176849 0
M  V30 29419 C 2909.81 -2.21823 -0.763643 0
M  V30 29420 C 2910.83 -1.21158 -1.24887 0
M  V30 29421 O 2912 -1.53838 -1.29984 0
M  V30 29422 C 2909.07 -2.85053 -1.97347 0
M  V30 29423 C 2908.13 -4.00935 -1.53459 0
M  V30 29424 C 2907.36 -4.6114 -2.68674 0
M  V30 29425 O 2907.58 -4.2024 -3.85687 0
M  V30 29426 O 2906.52 -5.50918 -2.42432 0
M  V30 29427 H 2910.34 -3.02764 -0.23831 0
M  V30 29428 H 2907.93 -1.49311 -0.0516069 0
M  V30 29429 H 2909.81 -3.25124 -2.6809 0
M  V30 29430 H 2908.49 -2.07105 -2.48775 0
M  V30 29431 H 2907.39 -3.65523 -0.796487 0
M  V30 29432 H 2908.73 -4.80492 -1.06716 0
M  V30 29433 N 2910.38 0.0968524 -1.57302 0
M  V30 29434 C 2911.62 0.796745 -1.87146 0
M  V30 29435 C 2911.98 1.76431 -0.767459 0
M  V30 29436 O 2911.27 1.90206 0.230694 0
M  V30 29437 C 2911.47 1.5658 -3.21275 0
M  V30 29438 C 2911.3 0.674217 -4.44617 0
M  V30 29439 C 2910.07 0.320616 -5.04282 0
M  V30 29440 C 2912.26 -0.0180349 -5.14297 0
M  V30 29441 N 2910.25 -0.579313 -6.11161 0
M  V30 29442 C 2911.62 -0.7761 -6.15123 0
M  V30 29443 C 2913.67 -0.0921396 -4.97815 0
M  V30 29444 C 2912.37 -1.60135 -7.01248 0
M  V30 29445 C 2914.4 -0.904277 -5.84446 0
M  V30 29446 C 2913.76 -1.65047 -6.84791 0
M  V30 29447 H 2909.86 0.267774 -0.734725 0
M  V30 29448 H 2912.45 0.0593613 -1.94609 0
M  V30 29449 H 2910.62 2.27407 -3.14866 0
M  V30 29450 H 2912.35 2.21275 -3.3885 0
M  V30 29451 H 2909.1 0.667879 -4.68867 0
M  V30 29452 H 2909.53 -1.02178 -6.69245 0
M  V30 29453 H 2914.17 0.470418 -4.20175 0
M  V30 29454 H 2911.89 -2.17497 -7.78281 0
M  V30 29455 H 2915.47 -0.964266 -5.73754 0
M  V30 29456 H 2914.35 -2.26877 -7.50664 0
M  V30 29457 N 2911.86 1.53252 0.36763 0
M  V30 29458 C 2912.82 1.78875 1.43305 0
M  V30 29459 C 2913.82 0.659141 1.4667 0
M  V30 29460 O 2915.01 0.927332 1.47466 0
M  V30 29461 C 2912.14 1.90897 2.82438 0
M  V30 29462 H 2913.33 2.74026 1.21859 0
M  V30 29463 H 2910.89 1.44298 0.600643 0
M  V30 29464 H 2911.62 0.978055 3.092 0
M  V30 29465 H 2911.41 2.73056 2.81395 0
M  V30 29466 H 2912.9 2.1232 3.59597 0
M  V30 29467 N 2913.34 -0.627313 1.44577 0
M  V30 29468 C 2914.25 -1.76773 1.54235 0
M  V30 29469 C 2915.26 -1.68659 0.427811 0
M  V30 29470 O 2916.44 -1.89368 0.685705 0
M  V30 29471 C 2913.5 -3.13171 1.48744 0
M  V30 29472 C 2912.56 -3.32888 2.71079 0
M  V30 29473 C 2911.8 -4.62779 2.6584 0
M  V30 29474 O 2912.02 -5.43831 1.72057 0
M  V30 29475 O 2910.95 -4.84781 3.5675 0
M  V30 29476 H 2914.78 -1.71577 2.50589 0
M  V30 29477 H 2912.36 -0.789006 1.26866 0
M  V30 29478 H 2914.25 -3.94474 1.48218 0
M  V30 29479 H 2912.92 -3.18901 0.555348 0
M  V30 29480 H 2911.83 -2.5125 2.77172 0
M  V30 29481 H 2913.16 -3.32023 3.63348 0
M  V30 29482 N 2914.81 -1.31539 -0.868063 0
M  V30 29483 C 2915.78 -1.19306 -1.95701 0
M  V30 29484 C 2916.78 -0.11964 -1.60354 0
M  V30 29485 O 2917.97 -0.36905 -1.70246 0
M  V30 29486 C 2915.1 -0.831742 -3.30598 0
M  V30 29487 H 2916.29 -2.16067 -2.07978 0
M  V30 29488 H 2913.84 -1.15177 -1.05659 0
M  V30 29489 H 2914.58 0.134637 -3.2402 0
M  V30 29490 H 2914.36 -1.60767 -3.57626 0
M  V30 29491 H 2915.85 -0.770098 -4.10438 0
M  V30 29492 N 2916.29 1.08262 -1.1453 0
M  V30 29493 C 2917.22 2.15105 -0.791363 0
M  V30 29494 C 2918.24 1.61659 0.192421 0
M  V30 29495 O 2919.43 1.78476 -0.0295017 0
M  V30 29496 C 2916.53 3.38549 -0.154242 0
M  V30 29497 C 2915.7 4.21375 -1.17312 0
M  V30 29498 C 2914.76 5.23217 -0.559492 0
M  V30 29499 O 2913.78 5.55909 -1.22287 0
M  V30 29500 N 2914.99 5.76701 0.663058 0
M  V30 29501 H 2917.75 2.46072 -1.71081 0
M  V30 29502 H 2915.31 1.24085 -1.03992 0
M  V30 29503 H 2917.3 4.03806 0.268813 0
M  V30 29504 H 2915.87 3.05371 0.668364 0
M  V30 29505 H 2915.09 3.52074 -1.77307 0
M  V30 29506 H 2916.38 4.7353 -1.86136 0
M  V30 29507 H 2915.78 5.52376 1.22056 0
M  V30 29508 H 2914.34 6.43633 1.0286 0
M  V30 29509 N 2917.77 0.940655 1.26449 0
M  V30 29510 C 2919.19 0.642884 1.46079 0
M  V30 29511 C 2919.39 -0.803965 1.84766 0
M  V30 29512 O 2918.44 -1.58065 1.96905 0
M  V30 29513 C 2919.75 1.60386 2.54356 0
M  V30 29514 C 2921.3 1.6135 2.68207 0
M  V30 29515 C 2921.78 2.56176 3.79655 0
M  V30 29516 N 2923.27 2.54458 3.87047 0
M  V30 29517 C 2924 3.24516 4.72734 0
M  V30 29518 N 2923.5 4.03997 5.62813 0
M  V30 29519 N 2925.29 3.1347 4.66576 0
M  V30 29520 H 2917.44 1.87586 0.996256 0
M  V30 29521 H 2919.71 0.806099 0.498907 0
M  V30 29522 H 2919.41 2.63664 2.32754 0
M  V30 29523 H 2919.29 1.35552 3.52002 0
M  V30 29524 H 2921.67 0.587964 2.89183 0
M  V30 29525 H 2921.75 1.90238 1.71006 0
M  V30 29526 H 2921.4 3.58847 3.59432 0
M  V30 29527 H 2921.33 2.24578 4.76311 0
M  V30 29528 H 2923.82 1.96745 3.22645 0
M  V30 29529 H 2924.13 4.54407 6.25087 0
M  V30 29530 H 2922.48 4.08098 5.62566 0
M  V30 29531 H 2925.67 2.50859 3.95205 0
M  V30 29532 H 2925.84 3.68336 5.33134 0
M  V30 29533 N 2919.25 -1.40821 0.707617 0
M  V30 29534 C 2920.18 -2.282 -0.000819266 0
M  V30 29535 C 2921.16 -1.429 -0.775775 0
M  V30 29536 O 2922.34 -1.7232 -0.76408 0
M  V30 29537 C 2919.47 -3.23335 -1.00856 0
M  V30 29538 C 2918.52 -4.25257 -0.325355 0
M  V30 29539 S 2919.35 -5.27167 0.941001 0
M  V30 29540 C 2920.5 -6.25866 -0.0648359 0
M  V30 29541 H 2920.74 -2.87937 0.740258 0
M  V30 29542 H 2918.27 -1.46137 0.498337 0
M  V30 29543 H 2920.23 -3.78675 -1.58479 0
M  V30 29544 H 2918.89 -2.62671 -1.72229 0
M  V30 29545 H 2918.08 -4.92141 -1.08688 0
M  V30 29546 H 2917.68 -3.73576 0.17811 0
M  V30 29547 H 2919.98 -6.71303 -0.914259 0
M  V30 29548 H 2920.92 -7.05799 0.5704 0
M  V30 29549 H 2921.33 -5.62898 -0.424999 0
M  V30 29550 N 2920.73 -0.453223 -1.50943 0
M  V30 29551 C 2921.66 0.395748 -2.24742 0
M  V30 29552 C 2922.64 1.01138 -1.27318 0
M  V30 29553 O 2923.82 1.05078 -1.56496 0
M  V30 29554 C 2920.95 1.55293 -3.01001 0
M  V30 29555 C 2919.99 1.05643 -4.13209 0
M  V30 29556 S 2920.83 -0.0144441 -5.35498 0
M  V30 29557 C 2921.98 1.14703 -6.153 0
M  V30 29558 H 2922.22 -0.230762 -2.96403 0
M  V30 29559 H 2919.75 -0.237901 -1.52556 0
M  V30 29560 H 2921.71 2.21624 -3.45533 0
M  V30 29561 H 2920.37 2.1509 -2.289 0
M  V30 29562 H 2919.56 1.92222 -4.65904 0
M  V30 29563 H 2919.16 0.471117 -3.71021 0
M  V30 29564 H 2921.45 2.06227 -6.4535 0
M  V30 29565 H 2922.4 0.659718 -7.0502 0
M  V30 29566 H 2922.81 1.39278 -5.47048 0
M  V30 29567 N 2922.2 1.56509 -0.185151 0
M  V30 29568 C 2923.62 1.58683 0.170837 0
M  V30 29569 C 2923.82 1.201 1.61797 0
M  V30 29570 O 2922.88 0.919079 2.35179 0
M  V30 29571 C 2924.19 3.0045 -0.122512 0
M  V30 29572 C 2925.74 3.12939 -0.0618249 0
M  V30 29573 C 2926.21 4.56821 -0.32835 0
M  V30 29574 N 2927.7 4.62373 -0.276614 0
M  V30 29575 C 2928.44 5.71577 -0.456823 0
M  V30 29576 N 2927.93 6.89287 -0.696841 0
M  V30 29577 N 2929.73 5.60733 -0.391767 0
M  V30 29578 H 2921.88 1.79872 -1.1296 0
M  V30 29579 H 2924.14 0.834321 -0.450124 0
M  V30 29580 H 2923.85 3.33204 -1.12552 0
M  V30 29581 H 2923.72 3.72722 0.579513 0
M  V30 29582 H 2926.11 2.80003 0.931776 0
M  V30 29583 H 2926.19 2.43074 -0.796774 0
M  V30 29584 H 2925.83 4.90468 -1.31922 0
M  V30 29585 H 2925.76 5.24863 0.427373 0
M  V30 29586 H 2928.25 3.77775 -0.0973123 0
M  V30 29587 H 2928.57 7.68401 -0.823426 0
M  V30 29588 H 2926.91 6.91117 -0.733619 0
M  V30 29589 H 2930.1 4.67652 -0.204745 0
M  V30 29590 H 2930.28 6.45782 -0.535632 0
M  V30 29591 N 2923.68 -0.0885089 1.57351 0
M  V30 29592 C 2924.59 -1.12512 2.05859 0
M  V30 29593 C 2925.61 -1.4345 0.984783 0
M  V30 29594 O 2926.78 -1.53961 1.29839 0
M  V30 29595 C 2923.85 -2.42391 2.47886 0
M  V30 29596 C 2922.91 -2.18576 3.6949 0
M  V30 29597 C 2922.14 -3.42261 4.09503 0
M  V30 29598 O 2922.37 -4.50749 3.49544 0
M  V30 29599 O 2921.3 -3.3146 5.02412 0
M  V30 29600 H 2925.13 -0.743094 2.94469 0
M  V30 29601 H 2922.71 -0.301481 1.46327 0
M  V30 29602 H 2924.59 -3.18857 2.75515 0
M  V30 29603 H 2923.27 -2.80007 1.62412 0
M  V30 29604 H 2922.17 -1.39869 3.46969 0
M  V30 29605 H 2923.51 -1.85849 4.55764 0
M  V30 29606 N 2925.16 -1.53445 -0.359498 0
M  V30 29607 C 2926.09 -1.83293 -1.44658 0
M  V30 29608 C 2927.07 -0.686857 -1.55616 0
M  V30 29609 O 2928.26 -0.93728 -1.70084 0
M  V30 29610 C 2925.39 -2.02827 -2.81919 0
M  V30 29611 C 2924.34 -3.18611 -2.85782 0
M  V30 29612 C 2923.67 -3.2345 -4.25775 0
M  V30 29613 C 2924.97 -4.5707 -2.52754 0
M  V30 29614 H 2926.66 -2.74331 -1.19929 0
M  V30 29615 H 2924.21 -1.32 -0.575494 0
M  V30 29616 H 2926.16 -2.22291 -3.58001 0
M  V30 29617 H 2924.88 -1.08505 -3.08049 0
M  V30 29618 H 2923.54 -2.98977 -2.12151 0
M  V30 29619 H 2923.19 -2.26753 -4.4899 0
M  V30 29620 H 2922.89 -4.01245 -4.29274 0
M  V30 29621 H 2924.41 -3.45105 -5.03721 0
M  V30 29622 H 2925.83 -4.76654 -3.18549 0
M  V30 29623 H 2924.22 -5.37151 -2.6756 0
M  V30 29624 H 2925.29 -4.61767 -1.47985 0
M  V30 29625 N 2926.64 0.619637 -1.44908 0
M  V30 29626 C 2928.05 0.939085 -1.29048 0
M  V30 29627 C 2928.25 2.00129 -0.234655 0
M  V30 29628 O 2927.31 2.49692 0.375536 0
M  V30 29629 C 2928.62 1.39144 -2.6657 0
M  V30 29630 C 2930.17 1.5063 -2.74371 0
M  V30 29631 C 2930.65 1.99246 -4.12389 0
M  V30 29632 N 2932.14 2.06499 -4.14623 0
M  V30 29633 C 2932.87 2.45311 -5.18276 0
M  V30 29634 N 2932.37 2.83178 -6.32283 0
M  V30 29635 N 2934.16 2.45545 -5.05632 0
M  V30 29636 H 2926.31 -0.0826508 -2.12239 0
M  V30 29637 H 2928.57 0.0256662 -0.947652 0
M  V30 29638 H 2928.28 0.685194 -3.44961 0
M  V30 29639 H 2928.15 2.36028 -2.94229 0
M  V30 29640 H 2930.54 2.20349 -1.96291 0
M  V30 29641 H 2930.62 0.520919 -2.5044 0
M  V30 29642 H 2930.27 1.30118 -4.9095 0
M  V30 29643 H 2930.2 2.98677 -4.33705 0
M  V30 29644 H 2932.69 1.79873 -3.32347 0
M  V30 29645 H 2933 3.1164 -7.07178 0
M  V30 29646 H 2931.35 2.80902 -6.35704 0
M  V30 29647 H 2934.54 2.1536 -4.15617 0
M  V30 29648 H 2934.71 2.75468 -5.86533 0
M  V30 29649 N 2928.12 1.31997 0.861075 0
M  V30 29650 C 2929.06 1.2034 1.9905 0
M  V30 29651 C 2930.06 0.109653 1.69045 0
M  V30 29652 O 2931.26 0.272148 1.77931 0
M  V30 29653 H 2927.64 0.372854 0.653057 0
M  V30 29654 H 2929.61 2.15875 2.06011 0
M  V30 29655 C 2928.36 0.936722 3.34844 0
M  V30 29656 H 2927.68 1.77052 3.58459 0
M  V30 29657 H 2929.12 0.895375 4.14438 0
M  V30 29658 C 2927.58 -0.360548 3.34965 0
M  V30 29659 O 2928.11 -1.37449 3.77453 0
M  V30 29660 N 2926.32 -0.380246 2.88102 0
M  V30 29661 H 2925.86 0.445396 2.5372 0
M  V30 29662 H 2925.82 -1.24811 2.88565 0
M  V30 29663 N 2929.59 -1.07653 1.15103 0
M  V30 29664 C 2931.01 -1.32277 0.893027 0
M  V30 29665 C 2931.21 -1.9614 -0.461667 0
M  V30 29666 O 2930.27 -2.21931 -1.20427 0
M  V30 29667 C 2931.58 -2.21686 2.03165 0
M  V30 29668 C 2933.13 -2.35143 2.06583 0
M  V30 29669 C 2933.6 -3.27899 3.1976 0
M  V30 29670 N 2935.09 -3.35479 3.19388 0
M  V30 29671 C 2935.83 -4.07302 4.03599 0
M  V30 29672 N 2935.32 -4.81767 4.97868 0
M  V30 29673 N 2937.12 -4.03212 3.91633 0
M  V30 29674 H 2929.27 -0.64585 2.02343 0
M  V30 29675 H 2931.53 -0.347195 0.882133 0
M  V30 29676 H 2931.24 -1.82016 3.00937 0
M  V30 29677 H 2931.11 -3.22195 1.96138 0
M  V30 29678 H 2933.5 -2.74067 1.09412 0
M  V30 29679 H 2933.58 -1.34349 2.17678 0
M  V30 29680 H 2933.22 -2.89694 4.1718 0
M  V30 29681 H 2933.15 -4.2864 3.05901 0
M  V30 29682 H 2935.64 -2.82398 2.51117 0
M  V30 29683 H 2935.96 -5.34057 5.58572 0
M  V30 29684 H 2934.3 -4.80794 5.01859 0
M  V30 29685 H 2937.49 -3.44148 3.17301 0
M  V30 29686 H 2937.67 -4.58922 4.57487 0
M  V30 29687 N 2931.07 -0.947348 -1.25949 0
M  V30 29688 C 2932.02 -0.452727 -2.28152 0
M  V30 29689 C 2933.01 0.473211 -1.62656 0
M  V30 29690 O 2934.22 0.350743 -1.7655 0
M  V30 29691 H 2930.6 -0.127883 -0.741046 0
M  V30 29692 H 2932.57 -1.32711 -2.67264 0
M  V30 29693 C 2931.32 0.260919 -3.4672 0
M  V30 29694 H 2930.64 -0.442422 -3.97345 0
M  V30 29695 H 2932.08 0.571134 -4.20136 0
M  V30 29696 C 2930.54 1.48089 -3.02608 0
M  V30 29697 O 2931.07 2.57894 -3.07983 0
M  V30 29698 N 2929.27 1.33964 -2.5788 0
M  V30 29699 H 2928.82 0.44625 -2.53705 0
M  V30 29700 H 2928.78 2.15709 -2.28729 0
M  V30 29701 N 2932.55 1.40444 -0.715075 0
M  V30 29702 C 2933.8 2.00896 -0.254363 0
M  V30 29703 C 2934.13 1.56695 1.15225 0
M  V30 29704 O 2933.38 0.777817 1.79579 0
M  V30 29705 C 2933.68 3.56287 -0.281854 0
M  V30 29706 C 2933.35 4.20069 -1.63869 0
M  V30 29707 C 2932.01 4.37205 -2.01011 0
M  V30 29708 C 2934.36 4.5565 -2.53047 0
M  V30 29709 C 2931.69 4.87204 -3.26877 0
M  V30 29710 C 2934.04 5.07049 -3.78265 0
M  V30 29711 C 2932.7 5.22394 -4.15525 0
M  V30 29712 H 2931.97 0.735131 -0.0930782 0
M  V30 29713 H 2934.62 1.68062 -0.918006 0
M  V30 29714 H 2932.93 3.89027 0.465359 0
M  V30 29715 H 2934.62 4.00893 0.0924453 0
M  V30 29716 H 2931.21 4.07119 -1.33987 0
M  V30 29717 H 2935.4 4.42047 -2.25627 0
M  V30 29718 H 2930.65 4.9727 -3.55715 0
M  V30 29719 H 2934.83 5.33557 -4.47537 0
M  V30 29720 H 2932.45 5.609 -5.13124 0
M  V30 29721 N 2934.03 0.461222 1.507 0
M  V30 29722 C 2935.28 -0.0969696 2.01867 0
M  V30 29723 C 2935.6 -1.41101 1.34593 0
M  V30 29724 O 2934.87 -1.89723 0.488074 0
M  V30 29725 H 2933.45 -0.0388261 0.74599 0
M  V30 29726 H 2936.11 0.60939 1.85128 0
M  V30 29727 H 2935.21 -0.255633 3.11051 0
M  V30 29728 N 2935.51 -1.56408 0.193449 0
M  V30 29729 C 2936.45 -2.19015 -0.728085 0
M  V30 29730 C 2937.42 -1.13688 -1.21096 0
M  V30 29731 O 2938.61 -1.41932 -1.27515 0
M  V30 29732 C 2935.75 -2.85224 -1.94272 0
M  V30 29733 C 2934.86 -4.05072 -1.50136 0
M  V30 29734 C 2934 -4.59142 -2.67137 0
M  V30 29735 C 2933.04 -5.71352 -2.19599 0
M  V30 29736 N 2932.17 -6.19835 -3.29772 0
M  V30 29737 H 2937.01 -2.9741 -0.187447 0
M  V30 29738 H 2934.55 -1.46878 -0.0807806 0
M  V30 29739 H 2936.51 -3.21779 -2.65545 0
M  V30 29740 H 2935.14 -2.09395 -2.4567 0
M  V30 29741 H 2934.19 -3.7419 -0.684558 0
M  V30 29742 H 2935.5 -4.86234 -1.11258 0
M  V30 29743 H 2934.66 -4.97994 -3.46535 0
M  V30 29744 H 2933.39 -3.77084 -3.09288 0
M  V30 29745 H 2932.4 -5.32029 -1.38654 0
M  V30 29746 H 2933.62 -6.55226 -1.78481 0
M  V30 29747 H 2931.57 -5.40699 -3.71457 0
M  V30 29748 H 2931.49 -6.96044 -2.95057 0
M  V30 29749 H 2932.76 -6.63341 -4.09389 0
M  V30 29750 N 2936.98 0.0801629 -1.57396 0
M  V30 29751 C 2937.93 1.10286 -1.99552 0
M  V30 29752 C 2938.92 1.34946 -0.876258 0
M  V30 29753 O 2940.11 1.35387 -1.14014 0
M  V30 29754 C 2937.24 2.41896 -2.43601 0
M  V30 29755 C 2936.33 2.20545 -3.62244 0
M  V30 29756 N 2936.72 1.69101 -4.76696 0
M  V30 29757 C 2935.01 2.51052 -3.68631 0
M  V30 29758 C 2935.72 1.62369 -5.5858 0
M  V30 29759 N 2934.69 2.08121 -5.02182 0
M  V30 29760 H 2938.49 0.698285 -2.85484 0
M  V30 29761 H 2936.01 0.287367 -1.59837 0
M  V30 29762 H 2938 3.15914 -2.72037 0
M  V30 29763 H 2936.66 2.83077 -1.59052 0
M  V30 29764 H 2937.68 1.38084 -4.99153 0
M  V30 29765 H 2934.35 2.95656 -2.94777 0
M  V30 29766 H 2935.74 1.23519 -6.60449 0
M  V30 29767 N 2938.46 1.53634 0.351355 0
M  V30 29768 C 2939.39 1.84057 1.43684 0
M  V30 29769 C 2940.37 0.6951 1.55249 0
M  V30 29770 O 2941.56 0.946287 1.69585 0
M  V30 29771 C 2938.69 2.0432 2.80839 0
M  V30 29772 C 2937.64 3.20122 2.84088 0
M  V30 29773 C 2936.97 3.25703 4.24054 0
M  V30 29774 C 2938.27 4.58404 2.50326 0
M  V30 29775 H 2939.96 2.74963 1.18473 0
M  V30 29776 H 2937.51 1.32304 0.568486 0
M  V30 29777 H 2939.46 2.24187 3.56817 0
M  V30 29778 H 2938.19 1.10137 3.07469 0
M  V30 29779 H 2936.84 3.00098 2.10563 0
M  V30 29780 H 2936.49 2.29131 4.47781 0
M  V30 29781 H 2936.19 4.03516 4.2714 0
M  V30 29782 H 2937.72 3.47771 5.01884 0
M  V30 29783 H 2939.13 4.78337 3.16017 0
M  V30 29784 H 2937.53 5.38563 2.64708 0
M  V30 29785 H 2938.6 4.62545 1.45534 0
M  V30 29786 N 2939.94 -0.611943 1.45234 0
M  V30 29787 C 2941.36 -0.932228 1.29544 0
M  V30 29788 C 2941.56 -2.00002 0.245265 0
M  V30 29789 O 2940.61 -2.49887 -0.362289 0
M  V30 29790 C 2941.93 -1.37729 2.67304 0
M  V30 29791 C 2943.47 -1.49173 2.75166 0
M  V30 29792 C 2943.95 -1.97056 4.1344 0
M  V30 29793 N 2945.44 -2.04297 4.15713 0
M  V30 29794 C 2946.17 -2.42559 5.1957 0
M  V30 29795 N 2945.67 -2.79821 6.33776 0
M  V30 29796 N 2947.46 -2.4286 5.06927 0
M  V30 29797 H 2939.61 0.0939052 2.12192 0
M  V30 29798 H 2941.88 -0.0206402 0.947775 0
M  V30 29799 H 2941.58 -0.66689 3.45319 0
M  V30 29800 H 2941.46 -2.34465 2.95476 0
M  V30 29801 H 2943.84 -2.19305 1.97457 0
M  V30 29802 H 2943.93 -0.50763 2.50713 0
M  V30 29803 H 2943.57 -1.27513 4.91633 0
M  V30 29804 H 2943.5 -2.96373 4.35283 0
M  V30 29805 H 2945.99 -1.78108 3.33296 0
M  V30 29806 H 2946.3 -3.07885 7.08821 0
M  V30 29807 H 2944.65 -2.77527 6.37184 0
M  V30 29808 H 2947.84 -2.13153 4.16753 0
M  V30 29809 H 2948.01 -2.72353 5.87986 0
M  V30 29810 N 2941.42 -1.32452 -0.854063 0
M  V30 29811 C 2942.33 -1.23437 -1.995 0
M  V30 29812 C 2943.34 -0.147858 -1.73371 0
M  V30 29813 O 2944.52 -0.368644 -1.97997 0
M  V30 29814 C 2941.59 -0.958387 -3.3319 0
M  V30 29815 C 2940.65 -2.1334 -3.72538 0
M  V30 29816 C 2939.88 -1.87049 -4.99848 0
M  V30 29817 O 2940.1 -0.813338 -5.64571 0
M  V30 29818 O 2939.04 -2.73171 -5.36341 0
M  V30 29819 H 2942.86 -2.19353 -2.10042 0
M  V30 29820 H 2940.45 -1.12348 -0.984804 0
M  V30 29821 H 2942.33 -0.820991 -4.13325 0
M  V30 29822 H 2941 -0.0293868 -3.23687 0
M  V30 29823 H 2939.91 -2.32627 -2.92977 0
M  V30 29824 H 2941.24 -3.04521 -3.86688 0
M  V30 29825 N 2942.9 1.07041 -1.15672 0
M  V30 29826 C 2943.86 2.12497 -0.858943 0
M  V30 29827 C 2944.86 1.60165 0.142707 0
M  V30 29828 O 2946.05 1.73981 -0.0872984 0
M  V30 29829 C 2943.18 3.39723 -0.28308 0
M  V30 29830 H 2944.38 2.40345 -1.79372 0
M  V30 29831 H 2941.93 1.22982 -0.964629 0
M  V30 29832 H 2942.66 3.17518 0.65974 0
M  V30 29833 H 2942.45 3.79009 -1.00473 0
M  V30 29834 H 2943.94 4.17498 -0.0924277 0
M  V30 29835 N 2944.38 0.954014 1.25445 0
M  V30 29836 C 2945.29 0.480304 2.29631 0
M  V30 29837 C 2946.3 -0.452041 1.68026 0
M  V30 29838 O 2947.48 -0.328437 1.98704 0
M  V30 29839 C 2944.54 -0.234913 3.45903 0
M  V30 29840 C 2943.6 0.735569 4.22951 0
M  V30 29841 C 2942.84 0.0543895 5.33672 0
M  V30 29842 O 2943.06 -1.16008 5.58479 0
M  V30 29843 O 2941.99 0.739614 5.97339 0
M  V30 29844 H 2945.82 1.34607 2.7224 0
M  V30 29845 H 2943.4 0.720442 1.30882 0
M  V30 29846 H 2945.29 -0.637268 4.16554 0
M  V30 29847 H 2943.96 -1.07586 3.05298 0
M  V30 29848 H 2942.87 1.18812 3.54732 0
M  V30 29849 H 2944.2 1.54452 4.67339 0
M  V30 29850 N 2945.85 -1.40063 0.722513 0
M  V30 29851 C 2946.82 -2.29049 0.0830611 0
M  V30 29852 C 2947.82 -1.45706 -0.680182 0
M  V30 29853 O 2949.01 -1.66535 -0.511055 0
M  V30 29854 C 2946.14 -3.29022 -0.892034 0
M  V30 29855 H 2947.33 -2.87097 0.866899 0
M  V30 29856 H 2944.88 -1.485 0.487582 0
M  V30 29857 H 2945.62 -2.76006 -1.70268 0
M  V30 29858 H 2945.4 -3.90557 -0.347542 0
M  V30 29859 H 2946.89 -3.95638 -1.33641 0
M  V30 29860 N 2947.33 -0.469207 -1.50453 0
M  V30 29861 C 2948.61 0.14792 -1.9504 0
M  V30 29862 C 2948.99 1.57151 -1.40949 0
M  V30 29863 O 2948.34 2.20216 -0.609702 0
M  V30 29864 C 2948.55 0.0931585 -3.48876 0
M  V30 29865 C 2949.89 0.282982 -4.23656 0
M  V30 29866 O 2950.92 0.169829 -3.55795 0
M  V30 29867 O 2949.78 0.511301 -5.44103 0
M  V30 29868 H 2946.87 0.112696 -0.819285 0
M  V30 29869 H 2949.42 -0.529474 -1.61229 0
M  V30 29870 H 2948.19 -0.900851 -3.80789 0
M  V30 29871 H 2947.81 0.812093 -3.89218 0
M  V30 29872 N 2948.81 1.56303 -0.201741 0
M  V30 29873 C 2949.76 2.19398 0.71646 0
M  V30 29874 C 2950.73 1.14328 1.20492 0
M  V30 29875 O 2951.91 1.42606 1.2676 0
M  V30 29876 C 2949.05 2.8625 1.92757 0
M  V30 29877 C 2948.16 4.05862 1.47986 0
M  V30 29878 C 2947.3 4.60552 2.64698 0
M  V30 29879 C 2946.34 5.72508 2.16566 0
M  V30 29880 N 2945.48 6.21575 3.2648 0
M  V30 29881 H 2950.32 2.97505 0.171672 0
M  V30 29882 H 2947.85 1.46919 0.0729902 0
M  V30 29883 H 2949.81 3.23183 2.63835 0
M  V30 29884 H 2948.44 2.10695 2.44556 0
M  V30 29885 H 2947.49 3.74548 0.664704 0
M  V30 29886 H 2948.8 4.86817 1.08678 0
M  V30 29887 H 2947.96 4.99825 3.43889 0
M  V30 29888 H 2946.7 3.78719 3.07284 0
M  V30 29889 H 2945.7 5.32757 1.35831 0
M  V30 29890 H 2946.93 6.56164 1.75003 0
M  V30 29891 H 2944.87 5.42662 3.68584 0
M  V30 29892 H 2944.79 6.97599 2.91361 0
M  V30 29893 H 2946.06 6.65503 4.05865 0
M  V30 29894 N 2950.29 -0.0718147 1.57436 0
M  V30 29895 C 2951.7 -0.426601 1.53793 0
M  V30 29896 C 2951.9 -1.79173 0.921918 0
M  V30 29897 O 2950.96 -2.46994 0.524417 0
M  V30 29898 C 2952.27 -0.367686 2.98444 0
M  V30 29899 C 2953.82 -0.447874 3.09779 0
M  V30 29900 C 2954.3 -0.418866 4.56081 0
M  V30 29901 N 2955.79 -0.478941 4.60717 0
M  V30 29902 C 2956.52 -0.47871 5.71398 0
M  V30 29903 N 2956.02 -0.433295 6.91444 0
M  V30 29904 N 2957.81 -0.525265 5.5964 0
M  V30 29905 H 2949.96 0.822068 1.95846 0
M  V30 29906 H 2952.22 0.308463 0.896412 0
M  V30 29907 H 2951.93 0.568711 3.47071 0
M  V30 29908 H 2951.8 -1.17789 3.58337 0
M  V30 29909 H 2954.19 -1.37469 2.61125 0
M  V30 29910 H 2954.27 0.390902 2.52796 0
M  V30 29911 H 2953.92 0.504105 5.05392 0
M  V30 29912 H 2953.85 -1.27517 5.10927 0
M  V30 29913 H 2956.34 -0.518289 3.74329 0
M  V30 29914 H 2956.65 -0.437044 7.71563 0
M  V30 29915 H 2955 -0.399984 6.93848 0
M  V30 29916 H 2958.19 -0.558437 4.64757 0
M  V30 29917 H 2958.36 -0.521616 6.45897 0
M  V30 29918 N 2951.77 -1.53818 -0.343203 0
M  V30 29919 C 2952.68 -1.84824 -1.4449 0
M  V30 29920 C 2953.69 -0.738409 -1.57555 0
M  V30 29921 O 2954.87 -1.03075 -1.73025 0
M  V30 29922 C 2951.93 -2.05171 -2.79474 0
M  V30 29923 C 2950.99 -3.2903 -2.7575 0
M  V30 29924 C 2950.23 -3.48397 -4.04296 0
M  V30 29925 O 2950.45 -2.71595 -5.0159 0
M  V30 29926 O 2949.38 -4.41826 -4.08746 0
M  V30 29927 H 2953.21 -2.78466 -1.21204 0
M  V30 29928 H 2950.79 -1.39476 -0.535413 0
M  V30 29929 H 2952.68 -2.19998 -3.59415 0
M  V30 29930 H 2951.35 -1.14718 -3.0269 0
M  V30 29931 H 2950.26 -3.19607 -1.94429 0
M  V30 29932 H 2951.59 -4.19477 -2.57488 0
M  V30 29933 N 2953.24 0.604233 -1.45557 0
M  V30 29934 C 2954.47 1.3946 -1.53512 0
M  V30 29935 C 2954.89 1.87333 -0.169671 0
M  V30 29936 O 2954.25 1.60335 0.846317 0
M  V30 29937 C 2954.3 2.57286 -2.52659 0
M  V30 29938 O 2953.4 3.58027 -2.04672 0
M  V30 29939 H 2952.74 0.416211 -0.517363 0
M  V30 29940 H 2955.27 0.735038 -1.90941 0
M  V30 29941 H 2955.28 3.04486 -2.71573 0
M  V30 29942 H 2953.96 2.2179 -3.51826 0
M  V30 29943 H 2952.54 3.17452 -1.95649 0
M  V30 29944 N 2954.72 1.32903 0.847027 0
M  V30 29945 C 2955.65 1.18308 1.96306 0
M  V30 29946 C 2956.67 0.116111 1.62385 0
M  V30 29947 O 2957.86 0.365782 1.74712 0
M  V30 29948 C 2954.96 0.790363 3.29555 0
M  V30 29949 C 2954.13 1.94724 3.91665 0
M  V30 29950 C 2953.19 1.53683 5.03257 0
M  V30 29951 O 2952.21 2.24998 5.22843 0
M  V30 29952 N 2953.42 0.437177 5.78851 0
M  V30 29953 H 2956.18 2.14444 2.09365 0
M  V30 29954 H 2953.74 1.25541 1.02231 0
M  V30 29955 H 2955.73 0.49806 4.01624 0
M  V30 29956 H 2954.3 -0.0800737 3.12497 0
M  V30 29957 H 2953.52 2.40562 3.12287 0
M  V30 29958 H 2954.81 2.72154 4.29895 0
M  V30 29959 H 2954.21 -0.156216 5.65484 0
M  V30 29960 H 2952.77 0.204513 6.51479 0
M  V30 29961 N 2956.2 -1.06426 1.16238 0
M  V30 29962 C 2957.13 -2.15838 0.890845 0
M  V30 29963 C 2958.11 -1.69324 -0.162303 0
M  V30 29964 O 2959.3 -1.94194 -0.014685 0
M  V30 29965 C 2956.43 -3.45107 0.389675 0
M  V30 29966 C 2955.38 -4.05122 1.38058 0
M  V30 29967 C 2954.71 -5.29584 0.737867 0
M  V30 29968 C 2956.01 -4.44058 2.74973 0
M  V30 29969 H 2957.7 -2.38811 1.80582 0
M  V30 29970 H 2955.25 -1.14772 0.869677 0
M  V30 29971 H 2957.2 -4.20984 0.187201 0
M  V30 29972 H 2955.92 -3.21749 -0.560794 0
M  V30 29973 H 2954.58 -3.313 1.56958 0
M  V30 29974 H 2954.23 -5.02523 -0.219047 0
M  V30 29975 H 2953.93 -5.70697 1.39924 0
M  V30 29976 H 2955.45 -6.08159 0.545381 0
M  V30 29977 H 2956.87 -5.11022 2.59864 0
M  V30 29978 H 2955.26 -4.9615 3.37572 0
M  V30 29979 H 2956.33 -3.54982 3.30327 0
M  V30 29980 N 2957.68 -0.960653 -1.24937 0
M  V30 29981 C 2958.61 -0.503855 -2.27999 0
M  V30 29982 C 2959.59 0.4529 -1.6396 0
M  V30 29983 O 2960.77 0.350552 -1.9101 0
M  V30 29984 C 2957.9 0.213474 -3.46643 0
M  V30 29985 C 2956.86 -0.658609 -4.22902 0
M  V30 29986 C 2956.18 0.189808 -5.34363 0
M  V30 29987 C 2957.48 -1.93972 -4.84946 0
M  V30 29988 H 2959.18 -1.36526 -2.6646 0
M  V30 29989 H 2956.72 -0.65792 -1.28091 0
M  V30 29990 H 2958.68 0.544212 -4.17871 0
M  V30 29991 H 2957.4 1.10918 -3.07189 0
M  V30 29992 H 2956.06 -0.972517 -3.53465 0
M  V30 29993 H 2955.71 1.08545 -4.91149 0
M  V30 29994 H 2955.41 -0.390434 -5.86301 0
M  V30 29995 H 2956.93 0.515377 -6.08421 0
M  V30 29996 H 2958.35 -1.67501 -5.48285 0
M  V30 29997 H 2956.74 -2.4661 -5.47086 0
M  V30 29998 H 2957.81 -2.63907 -4.06794 0
M  V30 29999 N 2959.16 1.39677 -0.729931 0
M  V30 30000 C 2960.09 2.33279 -0.101659 0
M  V30 30001 C 2961.07 1.53647 0.729827 0
M  V30 30002 O 2962.25 1.82061 0.675838 0
M  V30 30003 C 2959.38 3.37718 0.810181 0
M  V30 30004 C 2958.34 4.27919 0.0832374 0
M  V30 30005 C 2957.66 5.23014 1.11175 0
M  V30 30006 C 2958.96 5.11198 -1.07116 0
M  V30 30007 H 2960.66 2.86067 -0.883503 0
M  V30 30008 H 2958.2 1.37545 -0.426307 0
M  V30 30009 H 2960.16 4.02147 1.2592 0
M  V30 30010 H 2958.88 2.83357 1.62408 0
M  V30 30011 H 2957.54 3.64963 -0.346107 0
M  V30 30012 H 2957.19 4.64952 1.91909 0
M  V30 30013 H 2956.89 5.84211 0.630157 0
M  V30 30014 H 2958.41 5.9032 1.56058 0
M  V30 30015 H 2959.82 5.69 -0.700826 0
M  V30 30016 H 2958.22 5.81511 -1.48206 0
M  V30 30017 H 2959.29 4.46329 -1.89521 0
M  V30 30018 N 2960.63 0.47718 1.50202 0
M  V30 30019 C 2961.58 -0.327785 2.30279 0
M  V30 30020 C 2962.58 -0.984815 1.37832 0
M  V30 30021 O 2963.78 -0.915224 1.54996 0
M  V30 30022 H 2960.16 -0.124551 0.741614 0
M  V30 30023 H 2962.13 0.367905 2.96123 0
M  V30 30024 C 2960.88 -1.39359 3.1855 0
M  V30 30025 H 2960.2 -0.897407 3.89598 0
M  V30 30026 H 2961.64 -1.92928 3.77564 0
M  V30 30027 C 2960.1 -2.39885 2.36552 0
M  V30 30028 O 2960.63 -3.45282 2.05288 0
M  V30 30029 N 2958.84 -2.11754 1.99019 0
M  V30 30030 H 2958.38 -1.26067 2.24644 0
M  V30 30031 H 2958.34 -2.79247 1.44459 0
M  V30 30032 N 2962.11 -1.56194 0.210027 0
M  V30 30033 C 2963.53 -1.58935 -0.145571 0
M  V30 30034 C 2963.73 -1.22659 -1.59865 0
M  V30 30035 O 2962.78 -0.956378 -2.33687 0
M  V30 30036 C 2964.1 -3.00217 0.170296 0
M  V30 30037 C 2965.65 -3.12801 0.111603 0
M  V30 30038 C 2966.12 -4.56241 0.400985 0
M  V30 30039 N 2967.61 -4.61875 0.350139 0
M  V30 30040 C 2968.35 -5.70778 0.547698 0
M  V30 30041 N 2967.84 -6.88091 0.806412 0
M  V30 30042 N 2969.64 -5.60039 0.480926 0
M  V30 30043 H 2961.79 -1.78052 1.15807 0
M  V30 30044 H 2964.05 -0.827055 0.463341 0
M  V30 30045 H 2963.76 -3.31371 1.17839 0
M  V30 30046 H 2963.63 -3.73597 -0.520143 0
M  V30 30047 H 2966.02 -2.8145 -0.887112 0
M  V30 30048 H 2966.1 -2.41776 0.835345 0
M  V30 30049 H 2965.74 -4.88307 1.39709 0
M  V30 30050 H 2965.67 -5.25476 -0.343818 0
M  V30 30051 H 2968.16 -3.77572 0.157401 0
M  V30 30052 H 2968.48 -7.66993 0.945568 0
M  V30 30053 H 2966.82 -6.89863 0.843476 0
M  V30 30054 H 2970.01 -4.67267 0.279119 0
M  V30 30055 H 2970.18 -6.44849 0.638302 0
M  V30 30056 N 2963.59 0.0634645 -1.57472 0
M  V30 30057 C 2964.84 0.759895 -1.86838 0
M  V30 30058 C 2965.15 1.78319 -0.803854 0
M  V30 30059 O 2966.36 2.52978 -0.985622 0
M  V30 30060 C 2964.81 1.40245 -3.31451 0
M  V30 30061 C 2964.42 0.41729 -4.46052 0
M  V30 30062 C 2966.17 2.08075 -3.70007 0
M  V30 30063 C 2964.07 1.06623 -5.81709 0
M  V30 30064 H 2963 0.287555 -0.697014 0
M  V30 30065 H 2965.65 0.0133591 -1.83495 0
M  V30 30066 H 2964.04 2.19753 -3.29431 0
M  V30 30067 H 2965.21 -0.348583 -4.5948 0
M  V30 30068 H 2963.53 -0.157028 -4.16104 0
M  V30 30069 H 2966.12 2.57418 -4.68658 0
M  V30 30070 H 2966.47 2.88387 -3.00231 0
M  V30 30071 H 2967 1.35388 -3.74052 0
M  V30 30072 H 2963.74 0.303259 -6.54798 0
M  V30 30073 H 2963.26 1.80276 -5.72067 0
M  V30 30074 H 2964.94 1.58365 -6.27319 0
M  V30 30075 N 2965.07 1.53998 0.33504 0
M  V30 30076 C 2966.48 1.44451 0.678679 0
M  V30 30077 C 2966.68 0.608112 1.92105 0
M  V30 30078 O 2965.74 0.102417 2.52292 0
M  V30 30079 C 2967.05 2.88038 0.863384 0
M  V30 30080 C 2968.6 2.97867 0.96146 0
M  V30 30081 C 2969.08 4.4258 1.17842 0
M  V30 30082 N 2970.57 4.46143 1.24542 0
M  V30 30083 C 2971.3 5.55258 1.43097 0
M  V30 30084 N 2970.8 6.74362 1.58768 0
M  V30 30085 N 2972.59 5.42885 1.45713 0
M  V30 30086 H 2964.74 2.06866 -0.481693 0
M  V30 30087 H 2967.01 0.935469 -0.153631 0
M  V30 30088 H 2966.71 3.51693 0.0218893 0
M  V30 30089 H 2966.59 3.33484 1.76262 0
M  V30 30090 H 2968.97 2.34347 1.79347 0
M  V30 30091 H 2969.05 2.5577 0.0389412 0
M  V30 30092 H 2968.7 5.06684 0.351307 0
M  V30 30093 H 2968.63 4.82277 2.11464 0
M  V30 30094 H 2971.12 3.6032 1.13922 0
M  V30 30095 H 2971.43 7.53282 1.72585 0
M  V30 30096 H 2969.78 6.77292 1.55888 0
M  V30 30097 H 2972.97 4.48791 1.33057 0
M  V30 30098 H 2973.14 6.27979 1.5983 0
M  V30 30099 N 2966.55 -0.596505 1.45875 0
M  V30 30100 C 2967.77 -1.38155 1.54015 0
M  V30 30101 C 2968.19 -1.87973 0.176513 0
M  V30 30102 O 2967.55 -1.62846 -0.823866 0
M  V30 30103 C 2967.6 -2.57851 2.53368 0
M  V30 30104 O 2967.32 -2.10101 3.84434 0
M  V30 30105 C 2968.82 -3.50576 2.71314 0
M  V30 30106 H 2966.04 -0.422529 0.521258 0
M  V30 30107 H 2968.58 -0.72646 1.91162 0
M  V30 30108 H 2966.74 -3.19378 2.19263 0
M  V30 30109 H 2967.15 -2.87951 4.38389 0
M  V30 30110 H 2968.63 -4.31078 3.44783 0
M  V30 30111 H 2969.1 -4.0163 1.77735 0
M  V30 30112 H 2969.71 -2.94894 3.0646 0
M  V30 30113 N 2968.02 -1.3335 -0.839967 0
M  V30 30114 C 2969.27 -1.25939 -1.59721 0
M  V30 30115 C 2969.63 0.17353 -1.91616 0
M  V30 30116 O 2968.92 1.11531 -1.55793 0
M  V30 30117 C 2969.11 -2.06697 -2.91567 0
M  V30 30118 C 2968.94 -3.57696 -2.7255 0
M  V30 30119 C 2967.71 -4.27011 -2.70166 0
M  V30 30120 C 2969.91 -4.52051 -2.45264 0
M  V30 30121 N 2967.89 -5.63968 -2.42515 0
M  V30 30122 C 2969.26 -5.76889 -2.27153 0
M  V30 30123 C 2971.32 -4.41148 -2.30852 0
M  V30 30124 C 2970.02 -6.92055 -1.96093 0
M  V30 30125 C 2972.05 -5.56129 -2.01184 0
M  V30 30126 C 2971.41 -6.79975 -1.83885 0
M  V30 30127 H 2967.51 -0.516041 -0.587559 0
M  V30 30128 H 2970.09 -1.67879 -0.98614 0
M  V30 30129 H 2968.26 -1.67079 -3.50627 0
M  V30 30130 H 2969.99 -1.91064 -3.56759 0
M  V30 30131 H 2966.75 -3.79275 -2.83633 0
M  V30 30132 H 2967.17 -6.36161 -2.31577 0
M  V30 30133 H 2971.82 -3.46035 -2.42939 0
M  V30 30134 H 2969.53 -7.87166 -1.82742 0
M  V30 30135 H 2973.12 -5.49628 -1.90789 0
M  V30 30136 H 2972 -7.67441 -1.61258 0
M  V30 30137 N 2969.5 1.05808 -1.16801 0
M  V30 30138 C 2970.43 2.13378 -0.836812 0
M  V30 30139 C 2971.45 1.62031 0.158087 0
M  V30 30140 O 2972.64 1.78373 -0.0673524 0
M  V30 30141 C 2969.74 3.38145 -0.226019 0
M  V30 30142 C 2968.91 4.18791 -1.26224 0
M  V30 30143 C 2967.97 5.21913 -0.670349 0
M  V30 30144 O 2966.99 5.5319 -1.34051 0
M  V30 30145 N 2968.2 5.77977 0.540582 0
M  V30 30146 H 2970.96 2.42388 -1.76262 0
M  V30 30147 H 2968.52 1.21852 -1.06601 0
M  V30 30148 H 2970.51 4.04286 0.183099 0
M  V30 30149 H 2969.08 3.0672 0.60344 0
M  V30 30150 H 2968.3 3.48234 -1.84735 0
M  V30 30151 H 2969.59 4.69475 -1.96139 0
M  V30 30152 H 2968.99 5.5484 1.10312 0
M  V30 30153 H 2967.55 6.4567 0.891845 0
M  V30 30154 N 2970.98 0.967265 1.24426 0
M  V30 30155 C 2971.93 0.496459 2.25397 0
M  V30 30156 C 2972.9 -0.457753 1.59668 0
M  V30 30157 O 2974.08 -0.368213 1.87213 0
M  V30 30158 C 2971.22 -0.207633 3.44475 0
M  V30 30159 C 2970.34 0.785296 4.24802 0
M  V30 30160 C 2969.47 0.0573564 5.31169 0
M  V30 30161 C 2968.51 1.04038 6.03194 0
M  V30 30162 N 2967.65 0.342473 7.01264 0
M  V30 30163 H 2972.49 1.36233 2.65037 0
M  V30 30164 H 2970.02 0.682925 1.30286 0
M  V30 30165 H 2971.98 -0.632539 4.12377 0
M  V30 30166 H 2970.61 -1.03746 3.05674 0
M  V30 30167 H 2969.66 1.32864 3.56442 0
M  V30 30168 H 2970.98 1.53492 4.74596 0
M  V30 30169 H 2970.13 -0.425567 6.05206 0
M  V30 30170 H 2968.87 -0.724963 4.82282 0
M  V30 30171 H 2967.87 1.53418 5.27961 0
M  V30 30172 H 2969.1 1.82314 6.5417 0
M  V30 30173 H 2967.04 -0.420878 6.54648 0
M  V30 30174 H 2966.96 1.03097 7.48937 0
M  V30 30175 H 2968.23 -0.118497 7.7941 0
M  V30 30176 N 2972.46 -1.39288 0.737328 0
M  V30 30177 C 2973.69 -2.04763 0.296609 0
M  V30 30178 C 2974.1 -1.55594 -1.06939 0
M  V30 30179 O 2973.46 -0.721852 -1.67617 0
M  V30 30180 C 2973.51 -3.60319 0.291969 0
M  V30 30181 O 2973.23 -4.07679 1.60404 0
M  V30 30182 C 2974.73 -4.42994 -0.16463 0
M  V30 30183 H 2971.95 -0.658432 0.129263 0
M  V30 30184 H 2974.5 -1.78291 1.00163 0
M  V30 30185 H 2972.65 -3.85684 -0.364183 0
M  V30 30186 H 2973.07 -5.02017 1.51918 0
M  V30 30187 H 2974.54 -5.51877 -0.116717 0
M  V30 30188 H 2975.02 -4.22199 -1.21015 0
M  V30 30189 H 2975.62 -4.22783 0.462043 0
M  V30 30190 N 2973.94 -0.485139 -1.49947 0
M  V30 30191 C 2974.89 0.320618 -2.25734 0
M  V30 30192 C 2975.87 0.94935 -1.29908 0
M  V30 30193 O 2977.06 0.859574 -1.54727 0
M  V30 30194 C 2974.19 1.39385 -3.1373 0
M  V30 30195 C 2973.28 0.772152 -4.17012 0
M  V30 30196 N 2973.67 -0.115871 -5.05667 0
M  V30 30197 C 2971.97 1.03453 -4.33836 0
M  V30 30198 C 2972.67 -0.470142 -5.79797 0
M  V30 30199 N 2971.64 0.158109 -5.4337 0
M  V30 30200 H 2975.45 -0.363241 -2.91647 0
M  V30 30201 H 2972.96 -0.300182 -1.59602 0
M  V30 30202 H 2974.96 1.9844 -3.66643 0
M  V30 30203 H 2973.62 2.07955 -2.49368 0
M  V30 30204 H 2974.63 -0.485647 -5.15618 0
M  V30 30205 H 2971.31 1.71417 -3.80687 0
M  V30 30206 H 2972.7 -1.1957 -6.61175 0
M  V30 30207 N 2975.42 1.56081 -0.218307 0
M  V30 30208 C 2976.35 2.17418 0.725409 0
M  V30 30209 C 2977.36 1.14235 1.15993 0
M  V30 30210 O 2978.55 1.41229 1.09164 0
M  V30 30211 C 2975.65 2.74033 1.99396 0
M  V30 30212 C 2974.82 4.02354 1.71553 0
M  V30 30213 C 2973.88 4.43566 2.83083 0
M  V30 30214 O 2972.91 5.10529 2.51692 0
M  V30 30215 N 2974.11 4.08981 4.11965 0
M  V30 30216 H 2976.87 2.99027 0.200748 0
M  V30 30217 H 2974.44 1.61857 -0.0371798 0
M  V30 30218 H 2976.43 2.98576 2.73193 0
M  V30 30219 H 2975 1.96746 2.42919 0
M  V30 30220 H 2974.22 3.85701 0.814165 0
M  V30 30221 H 2975.51 4.8607 1.50377 0
M  V30 30222 H 2974.9 3.55164 4.40313 0
M  V30 30223 H 2973.46 4.38423 4.82316 0
M  V30 30224 N 2976.89 -0.0551124 1.57504 0
M  V30 30225 C 2978.14 -0.749587 1.87685 0
M  V30 30226 C 2978.46 -1.77263 0.812578 0
M  V30 30227 O 2977.73 -1.95271 -0.156906 0
M  V30 30228 H 2976.31 -0.279834 0.692605 0
M  V30 30229 H 2978.97 -0.0272402 1.94881 0
M  V30 30230 H 2978.07 -1.25543 2.85736 0
M  V30 30231 N 2978.37 -1.54173 -0.326869 0
M  V30 30232 C 2979.28 -1.86346 -1.42522 0
M  V30 30233 C 2980.3 -0.755078 -1.56763 0
M  V30 30234 O 2981.47 -1.04904 -1.71922 0
M  V30 30235 C 2978.54 -2.08124 -2.77282 0
M  V30 30236 C 2977.6 -3.31936 -2.72245 0
M  V30 30237 C 2976.83 -3.52666 -4.00578 0
M  V30 30238 O 2977.06 -2.769 -4.98681 0
M  V30 30239 O 2975.99 -4.46136 -4.04037 0
M  V30 30240 H 2979.82 -2.79736 -1.18244 0
M  V30 30241 H 2977.4 -1.40037 -0.520589 0
M  V30 30242 H 2979.28 -2.23797 -3.57061 0
M  V30 30243 H 2977.96 -1.17922 -3.01457 0
M  V30 30244 H 2976.86 -3.21651 -1.91028 0
M  V30 30245 H 2978.2 -4.22184 -2.53024 0
M  V30 30246 N 2979.85 0.58876 -1.4619 0
M  V30 30247 C 2980.8 1.71935 -1.56656 0
M  V30 30248 C 2981.79 1.63709 -0.435383 0
M  V30 30249 O 2983 1.69276 -0.612026 0
M  V30 30250 H 2979.37 0.568356 -0.492418 0
M  V30 30251 H 2981.34 1.60238 -2.51727 0
M  V30 30252 C 2980.09 3.10323 -1.56827 0
M  V30 30253 H 2979.42 3.1732 -2.43203 0
M  V30 30254 H 2980.86 3.89208 -1.68206 0
M  V30 30255 C 2979.31 3.35598 -0.295861 0
M  V30 30256 O 2979.84 3.96942 0.616446 0
M  V30 30257 N 2978.05 2.90006 -0.18566 0
M  V30 30258 H 2977.6 2.40267 -0.928956 0
M  V30 30259 H 2977.56 3.0729 0.664829 0
M  V30 30260 N 2981.33 1.33794 0.832883 0
M  V30 30261 C 2982.28 1.24535 1.96453 0
M  V30 30262 C 2983.27 0.145485 1.68774 0
M  V30 30263 O 2984.48 0.309828 1.77313 0
M  V30 30264 H 2980.85 0.386623 0.645001 0
M  V30 30265 H 2982.82 2.20196 2.01385 0
M  V30 30266 C 2981.57 1.00754 3.32782 0
M  V30 30267 H 2980.89 1.84615 3.54623 0
M  V30 30268 H 2982.33 0.983082 4.12446 0
M  V30 30269 C 2980.79 -0.289416 3.35655 0
M  V30 30270 O 2981.32 -1.29412 3.80283 0
M  V30 30271 N 2979.53 -0.319049 2.88843 0
M  V30 30272 H 2979.08 0.499113 2.52718 0
M  V30 30273 H 2979.03 -1.18662 2.91147 0
M  V30 30274 N 2982.81 -1.05187 1.1736 0
M  V30 30275 C 2984.05 -1.77837 0.960118 0
M  V30 30276 C 2984.37 -1.88144 -0.512521 0
M  V30 30277 O 2983.64 -1.39824 -1.37208 0
M  V30 30278 H 2982.22 -0.658735 0.352246 0
M  V30 30279 H 2984.89 -1.27006 1.47836 0
M  V30 30280 H 2983.98 -2.79513 1.38848 0
M  V30 30281 N 2984.28 -0.97385 -1.23911 0
M  V30 30282 C 2985.21 -0.528009 -2.27452 0
M  V30 30283 C 2986.19 0.435484 -1.64431 0
M  V30 30284 O 2987.38 0.330273 -1.91371 0
M  V30 30285 C 2984.51 0.176696 -3.4685 0
M  V30 30286 C 2983.46 -0.703426 -4.2218 0
M  V30 30287 C 2982.79 0.133121 -5.34534 0
M  V30 30288 C 2984.09 -1.99104 -4.82861 0
M  V30 30289 H 2985.78 -1.39345 -2.64997 0
M  V30 30290 H 2983.33 -0.671469 -1.27386 0
M  V30 30291 H 2985.28 0.499861 -4.18425 0
M  V30 30292 H 2984.01 1.07653 -3.08348 0
M  V30 30293 H 2982.67 -1.00995 -3.52414 0
M  V30 30294 H 2982.31 1.03329 -4.92272 0
M  V30 30295 H 2982.01 -0.452597 -5.85854 0
M  V30 30296 H 2983.54 0.450817 -6.08933 0
M  V30 30297 H 2984.95 -1.73307 -5.46478 0
M  V30 30298 H 2983.35 -2.52399 -5.4444 0
M  V30 30299 H 2984.42 -2.68206 -4.03972 0
M  V30 30300 N 2985.76 1.38895 -0.744705 0
M  V30 30301 C 2986.72 2.28888 -0.11949 0
M  V30 30302 C 2987.72 1.46769 0.656916 0
M  V30 30303 O 2988.91 1.67327 0.484496 0
M  V30 30304 C 2986.05 3.304 0.839577 0
M  V30 30305 H 2987.24 2.85682 -0.912464 0
M  V30 30306 H 2984.79 1.47706 -0.511145 0
M  V30 30307 H 2985.53 2.7868 1.65855 0
M  V30 30308 H 2985.31 3.9106 0.285364 0
M  V30 30309 H 2986.8 3.97715 1.2733 0
M  V30 30310 N 2987.24 0.493084 1.49688 0
M  V30 30311 C 2988.19 -0.303343 2.30614 0
M  V30 30312 C 2989.18 -0.970141 1.38869 0
M  V30 30313 O 2990.39 -0.898733 1.55958 0
M  V30 30314 H 2986.76 -0.116678 0.742893 0
M  V30 30315 H 2988.73 0.399292 2.95716 0
M  V30 30316 C 2987.48 -1.35973 3.20011 0
M  V30 30317 H 2986.81 -0.856034 3.90528 0
M  V30 30318 H 2988.25 -1.88912 3.79589 0
M  V30 30319 C 2986.71 -2.37362 2.39083 0
M  V30 30320 O 2987.24 -3.43085 2.08939 0
M  V30 30321 N 2985.44 -2.09632 2.01253 0
M  V30 30322 H 2984.99 -1.23678 2.25968 0
M  V30 30323 H 2984.95 -2.77699 1.47412 0
M  V30 30324 N 2988.72 -1.55963 0.226582 0
M  V30 30325 C 2989.94 -2.03277 -0.411491 0
M  V30 30326 C 2990.37 -1.10524 -1.52204 0
M  V30 30327 O 2989.73 -0.0943536 -1.81054 0
M  V30 30328 C 2989.77 -3.48782 -0.915632 0
M  V30 30329 O 2988.88 -3.59166 -2.02665 0
M  V30 30330 H 2988.22 -0.657528 -0.0924791 0
M  V30 30331 H 2990.75 -2.01641 0.346691 0
M  V30 30332 H 2990.76 -3.89203 -1.22415 0
M  V30 30333 H 2989.43 -4.15773 -0.102842 0
M  V30 30334 H 2988.01 -3.30635 -1.72439 0
M  V30 30335 N 2990.2 0.0467589 -1.57531 0
M  V30 30336 C 2991.45 0.740036 -1.87634 0
M  V30 30337 C 2991.76 1.77456 -0.822722 0
M  V30 30338 O 2992.96 2.51918 -1.0124 0
M  V30 30339 C 2991.42 1.36721 -3.32919 0
M  V30 30340 C 2991.03 0.369956 -4.4647 0
M  V30 30341 C 2992.77 2.04139 -3.72193 0
M  V30 30342 C 2990.68 1.00447 -5.82807 0
M  V30 30343 H 2989.61 0.280146 -0.700025 0
M  V30 30344 H 2992.26 -0.00610376 -1.83499 0
M  V30 30345 H 2990.64 2.16246 -3.31743 0
M  V30 30346 H 2991.82 -0.397298 -4.59084 0
M  V30 30347 H 2990.13 -0.201152 -4.15914 0
M  V30 30348 H 2992.73 2.52433 -4.71362 0
M  V30 30349 H 2993.07 2.85187 -3.03273 0
M  V30 30350 H 2993.6 1.31413 -3.75467 0
M  V30 30351 H 2990.34 0.233791 -6.55083 0
M  V30 30352 H 2989.86 1.74198 -5.73947 0
M  V30 30353 H 2991.54 1.51702 -6.28964 0
M  V30 30354 N 2991.67 1.54344 0.318688 0
M  V30 30355 C 2993.09 1.45163 0.663319 0
M  V30 30356 C 2993.29 0.628453 1.91449 0
M  V30 30357 O 2992.35 0.12917 2.52169 0
M  V30 30358 C 2993.66 2.88938 0.832785 0
M  V30 30359 C 2995.21 2.9887 0.929813 0
M  V30 30360 C 2995.68 4.43805 1.13141 0
M  V30 30361 N 2997.17 4.47439 1.19804 0
M  V30 30362 C 2997.91 5.56744 1.37199 0
M  V30 30363 N 2997.4 6.76008 1.51607 0
M  V30 30364 N 2999.2 5.444 1.39946 0
M  V30 30365 H 2991.35 2.06343 -0.503607 0
M  V30 30366 H 2993.61 0.933786 -0.163544 0
M  V30 30367 H 2993.32 3.51697 -0.0154137 0
M  V30 30368 H 2993.19 3.35335 1.72715 0
M  V30 30369 H 2995.58 2.36236 1.76851 0
M  V30 30370 H 2995.66 2.55797 0.0118112 0
M  V30 30371 H 2995.3 5.07028 0.297547 0
M  V30 30372 H 2995.23 4.84492 2.06336 0
M  V30 30373 H 2997.72 3.61508 1.10094 0
M  V30 30374 H 2998.04 7.5507 1.64586 0
M  V30 30375 H 2996.38 6.78907 1.48696 0
M  V30 30376 H 2999.57 4.50177 1.2829 0
M  V30 30377 H 2999.75 6.29639 1.53161 0
M  V30 30378 N 2993.15 -0.580999 1.465 0
M  V30 30379 C 2994.43 -1.34122 1.42375 0
M  V30 30380 C 2994.81 -2.10823 0.10811 0
M  V30 30381 O 2994.16 -2.09584 -0.910329 0
M  V30 30382 C 2994.37 -2.26578 2.65449 0
M  V30 30383 C 2995.72 -2.88354 3.11669 0
M  V30 30384 O 2996.74 -2.36891 2.6601 0
M  V30 30385 O 2995.6 -3.81833 3.90981 0
M  V30 30386 H 2992.69 -0.602714 0.566273 0
M  V30 30387 H 2995.24 -0.601875 1.58668 0
M  V30 30388 H 2994.01 -1.69342 3.52759 0
M  V30 30389 H 2993.63 -3.0785 2.51623 0
M  V30 30390 N 2994.63 -1.34234 -0.825776 0
M  V30 30391 C 2995.86 -1.29651 -1.61881 0
M  V30 30392 C 2996.28 0.127262 -1.87669 0
M  V30 30393 O 2995.64 1.0881 -1.45017 0
M  V30 30394 C 2995.69 -2.0902 -2.93842 0
M  V30 30395 O 2994.79 -1.45776 -3.85776 0
M  V30 30396 H 2994.13 -0.445413 -0.492446 0
M  V30 30397 H 2996.66 -1.76993 -1.02638 0
M  V30 30398 H 2996.67 -2.2027 -3.43431 0
M  V30 30399 H 2995.35 -3.12538 -2.74396 0
M  V30 30400 H 2993.92 -1.43251 -3.44287 0
M  V30 30401 N 2996.11 1.04563 -1.17917 0
M  V30 30402 C 2997.04 2.14394 -0.92507 0
M  V30 30403 C 2998.02 1.69561 0.135345 0
M  V30 30404 O 2999.2 1.94193 -0.0162115 0
M  V30 30405 C 2996.33 3.44443 -0.44453 0
M  V30 30406 C 2995.29 4.02875 -1.44486 0
M  V30 30407 C 2994.61 5.28343 -0.822025 0
M  V30 30408 C 2995.91 4.39627 -2.82003 0
M  V30 30409 H 2997.61 2.35908 -1.84358 0
M  V30 30410 H 2995.15 1.13374 -0.887826 0
M  V30 30411 H 2997.11 4.20633 -0.254152 0
M  V30 30412 H 2995.83 3.22601 0.509536 0
M  V30 30413 H 2994.49 3.28761 -1.62208 0
M  V30 30414 H 2994.14 5.02808 0.139072 0
M  V30 30415 H 2993.84 5.68399 -1.48986 0
M  V30 30416 H 2995.36 6.07215 -0.642065 0
M  V30 30417 H 2996.78 5.06823 -2.67961 0
M  V30 30418 H 2995.17 4.90717 -3.45423 0
M  V30 30419 H 2996.24 3.49681 -3.35933 0
M  V30 30420 N 2997.59 0.980408 1.23393 0
M  V30 30421 C 2998.53 0.513058 2.26871 0
M  V30 30422 C 2999.53 -0.429919 1.63854 0
M  V30 30423 O 3000.73 -0.303811 1.77418 0
M  V30 30424 H 2997.11 0.147486 0.737395 0
M  V30 30425 H 2999.08 1.39751 2.63652 0
M  V30 30426 C 2997.83 -0.168901 3.4729 0
M  V30 30427 H 2997.15 0.547615 3.96032 0
M  V30 30428 H 2998.59 -0.459541 4.21502 0
M  V30 30429 C 2997.05 -1.40014 3.06427 0
M  V30 30430 O 2997.58 -2.49638 3.14713 0
M  V30 30431 N 2995.79 -1.2708 2.61341 0
M  V30 30432 H 2995.33 -0.378828 2.54799 0
M  V30 30433 H 2995.29 -2.09569 2.34368 0
M  V30 30434 N 2999.06 -1.38498 0.75206 0
M  V30 30435 C 2999.97 -2.34265 0.125359 0
M  V30 30436 C 3000.99 -1.59192 -0.702409 0
M  V30 30437 O 3002.17 -1.91394 -0.626917 0
M  V30 30438 C 2999.23 -3.38303 -0.758427 0
M  V30 30439 C 2998.29 -4.29219 0.0835391 0
M  V30 30440 C 2997.53 -5.28287 -0.758159 0
M  V30 30441 O 2997.75 -5.34328 -1.99623 0
M  V30 30442 O 2996.68 -6.01637 -0.177772 0
M  V30 30443 H 3000.51 -2.8955 0.916221 0
M  V30 30444 H 2998.09 -1.40319 0.512936 0
M  V30 30445 H 2999.98 -4.02009 -1.26358 0
M  V30 30446 H 2998.65 -2.85376 -1.52781 0
M  V30 30447 H 2997.56 -3.68678 0.634609 0
M  V30 30448 H 2998.89 -4.85397 0.815541 0
M  V30 30449 N 3000.54 -0.501015 -1.49424 0
M  V30 30450 C 3001.77 0.0402495 -2.06561 0
M  V30 30451 C 3002.18 1.31367 -1.3616 0
M  V30 30452 O 3001.52 1.78508 -0.433649 0
M  V30 30453 C 3001.59 0.364206 -3.5765 0
M  V30 30454 C 3001.25 -0.811496 -4.49737 0
M  V30 30455 C 3002.25 -1.70199 -4.91252 0
M  V30 30456 C 2999.93 -1.0103 -4.92035 0
M  V30 30457 C 3001.93 -2.77544 -5.73802 0
M  V30 30458 C 2999.61 -2.08693 -5.74361 0
M  V30 30459 C 3000.61 -2.96784 -6.15149 0
M  V30 30460 O 3000.3 -4.02589 -6.95828 0
M  V30 30461 H 3000.03 -0.0172476 -0.67578 0
M  V30 30462 H 3002.58 -0.697587 -1.93191 0
M  V30 30463 H 3000.81 1.15564 -3.69028 0
M  V30 30464 H 3002.5 0.844087 -3.97026 0
M  V30 30465 H 3003.27 -1.56021 -4.59219 0
M  V30 30466 H 2999.15 -0.33401 -4.59788 0
M  V30 30467 H 3002.69 -3.46331 -6.05558 0
M  V30 30468 H 2998.59 -2.22866 -6.05806 0
M  V30 30469 H 2999.36 -3.99942 -7.14135 0
M  V30 30470 N 3002.02 1.5584 -0.234849 0
M  V30 30471 C 3002.93 2.24505 0.680789 0
M  V30 30472 C 3003.95 1.2571 1.20304 0
M  V30 30473 O 3005.12 1.58556 1.24185 0
M  V30 30474 C 3002.19 2.92181 1.86631 0
M  V30 30475 C 3001.25 4.06354 1.38473 0
M  V30 30476 C 3000.48 4.70794 2.51374 0
M  V30 30477 O 3000.71 4.34265 3.69824 0
M  V30 30478 O 2999.64 5.59536 2.21818 0
M  V30 30479 H 3003.47 3.03439 0.125777 0
M  V30 30480 H 3001.05 1.494 -0.00384443 0
M  V30 30481 H 3002.93 3.3485 2.55839 0
M  V30 30482 H 3001.61 2.16196 2.40917 0
M  V30 30483 H 3000.51 3.68227 0.660276 0
M  V30 30484 H 3001.85 4.84122 0.888092 0
M  V30 30485 N 3003.5 -0.038404 1.57553 0
M  V30 30486 C 3004.46 -1.0265 2.04929 0
M  V30 30487 C 3005.46 -1.29606 0.951791 0
M  V30 30488 O 3006.65 -1.24765 1.2157 0
M  V30 30489 C 3003.78 -2.36177 2.45832 0
M  V30 30490 H 3004.98 -0.617456 2.93475 0
M  V30 30491 H 3002.53 -0.285004 1.5368 0
M  V30 30492 H 3003.27 -2.81848 1.60413 0
M  V30 30493 H 3003.05 -2.17944 3.25949 0
M  V30 30494 H 3004.54 -3.07135 2.82945 0
M  V30 30495 N 3004.98 -1.54511 -0.310498 0
M  V30 30496 C 3005.92 -1.84804 -1.38261 0
M  V30 30497 C 3006.89 -0.696168 -1.50807 0
M  V30 30498 O 3008.08 -0.943875 -1.65818 0
M  V30 30499 C 3005.22 -2.09257 -2.74419 0
M  V30 30500 C 3004.33 -3.3691 -2.70399 0
M  V30 30501 C 3003.47 -3.51255 -3.98489 0
M  V30 30502 C 3002.51 -4.72736 -3.88828 0
M  V30 30503 N 3001.64 -4.83937 -5.08674 0
M  V30 30504 H 3006.48 -2.76263 -1.11727 0
M  V30 30505 H 3004.02 -1.36807 -0.540585 0
M  V30 30506 H 3005.98 -2.21428 -3.5359 0
M  V30 30507 H 3004.61 -1.21076 -2.99233 0
M  V30 30508 H 3003.66 -3.33409 -1.83146 0
M  V30 30509 H 3004.97 -4.26197 -2.59147 0
M  V30 30510 H 3004.13 -3.63039 -4.86094 0
M  V30 30511 H 3002.87 -2.60084 -4.12562 0
M  V30 30512 H 3001.87 -4.60995 -2.99606 0
M  V30 30513 H 3003.1 -5.65305 -3.76308 0
M  V30 30514 H 3001.04 -3.95686 -5.23229 0
M  V30 30515 H 3000.96 -5.6721 -4.99809 0
M  V30 30516 H 3002.23 -5.00067 -5.97957 0
M  V30 30517 N 3006.46 0.573222 -1.46806 0
M  V30 30518 C 3007.39 1.69163 -1.60954 0
M  V30 30519 C 3008.37 1.63776 -0.459508 0
M  V30 30520 O 3009.55 1.81646 -0.686912 0
M  V30 30521 C 3006.68 3.07806 -1.6085 0
M  V30 30522 C 3005.64 3.2803 -2.74919 0
M  V30 30523 C 3004.96 4.67298 -2.59879 0
M  V30 30524 C 3006.26 3.14947 -4.1666 0
M  V30 30525 H 3007.96 1.57578 -2.54577 0
M  V30 30526 H 3005.5 0.756665 -1.22518 0
M  V30 30527 H 3007.45 3.85878 -1.6934 0
M  V30 30528 H 3006.18 3.20312 -0.63777 0
M  V30 30529 H 3004.84 2.52361 -2.65912 0
M  V30 30530 H 3004.49 4.76582 -1.60869 0
M  V30 30531 H 3004.19 4.8178 -3.36395 0
M  V30 30532 H 3005.71 5.47525 -2.70275 0
M  V30 30533 H 3007.12 3.82853 -4.26727 0
M  V30 30534 H 3005.52 3.40948 -4.93837 0
M  V30 30535 H 3006.59 2.119 -4.36149 0
M  V30 30536 N 3007.93 1.3467 0.818645 0
M  V30 30537 C 3009.16 1.30508 1.61191 0
M  V30 30538 C 3009.58 -0.117308 1.87734 0
M  V30 30539 O 3008.94 -1.08039 1.45592 0
M  V30 30540 C 3008.99 2.10575 2.92729 0
M  V30 30541 O 3008.09 1.4782 3.84997 0
M  V30 30542 H 3007.43 0.448019 0.490077 0
M  V30 30543 H 3009.96 1.77535 1.01697 0
M  V30 30544 H 3009.97 2.22088 3.42258 0
M  V30 30545 H 3008.65 3.13988 2.72735 0
M  V30 30546 H 3007.23 1.45075 3.43522 0
M  V30 30547 N 3009.41 -1.03936 1.1847 0
M  V30 30548 C 3010.69 -1.74155 0.890466 0
M  V30 30549 C 3011.07 -2.02204 -0.606373 0
M  V30 30550 O 3010.42 -1.66825 -1.56147 0
M  V30 30551 C 3010.63 -3.02582 1.73911 0
M  V30 30552 C 3011.97 -3.76294 1.96693 0
M  V30 30553 O 3013 -3.12484 1.70975 0
M  V30 30554 O 3011.86 -4.90983 2.39995 0
M  V30 30555 H 3008.95 -0.757914 0.330902 0
M  V30 30556 H 3011.5 -1.0999 1.2923 0
M  V30 30557 H 3010.27 -2.78001 2.75374 0
M  V30 30558 H 3009.89 -3.74486 1.33588 0
M  V30 30559 N 3010.89 -0.986938 -1.22871 0
M  V30 30560 C 3011.82 -0.552104 -2.26879 0
M  V30 30561 C 3012.8 0.418019 -1.64884 0
M  V30 30562 O 3013.99 0.309957 -1.9171 0
M  V30 30563 C 3011.12 0.139898 -3.47018 0
M  V30 30564 C 3010.07 -0.748165 -4.2141 0
M  V30 30565 C 3009.4 0.0764192 -5.34645 0
M  V30 30566 C 3010.7 -2.04214 -4.80722 0
M  V30 30567 H 3012.39 -1.42147 -2.63504 0
M  V30 30568 H 3009.94 -0.684942 -1.26667 0
M  V30 30569 H 3011.89 0.455453 -4.18931 0
M  V30 30570 H 3010.61 1.04377 -3.09472 0
M  V30 30571 H 3009.27 -1.04727 -3.51323 0
M  V30 30572 H 3008.92 0.981023 -4.93341 0
M  V30 30573 H 3008.62 -0.514709 -5.85341 0
M  V30 30574 H 3010.14 0.386206 -6.09377 0
M  V30 30575 H 3011.56 -1.79093 -5.44609 0
M  V30 30576 H 3009.95 -2.58159 -5.41732 0
M  V30 30577 H 3011.02 -2.72476 -4.01105 0
M  V30 30578 N 3012.37 1.38098 -0.759394 0
M  V30 30579 C 3013.78 1.53483 -0.437633 0
M  V30 30580 C 3013.98 1.72074 1.04846 0
M  V30 30581 O 3013.04 1.73506 1.83445 0
M  V30 30582 C 3014.35 2.73855 -1.24194 0
M  V30 30583 C 3015.9 2.87708 -1.2326 0
M  V30 30584 C 3016.38 4.11048 -2.01999 0
M  V30 30585 N 3017.87 4.18136 -1.99289 0
M  V30 30586 C 3018.6 5.12578 -2.57005 0
M  V30 30587 N 3018.1 6.12656 -3.23457 0
M  V30 30588 N 3019.89 5.04971 -2.46903 0
M  V30 30589 H 3012.04 1.2428 -1.72245 0
M  V30 30590 H 3014.3 0.604192 -0.730518 0
M  V30 30591 H 3014.01 2.66541 -2.29454 0
M  V30 30592 H 3013.88 3.67201 -0.862736 0
M  V30 30593 H 3016.27 2.945 -0.18804 0
M  V30 30594 H 3016.35 1.95356 -1.65136 0
M  V30 30595 H 3016 4.05017 -3.06469 0
M  V30 30596 H 3015.93 5.02491 -1.57513 0
M  V30 30597 H 3018.42 3.46465 -1.50899 0
M  V30 30598 H 3018.73 6.81224 -3.64902 0
M  V30 30599 H 3017.08 6.12971 -3.27553 0
M  V30 30600 H 3020.27 4.25728 -1.94611 0
M  V30 30601 H 3020.44 5.78391 -2.92178 0
M  V30 30602 N 3013.85 0.508932 1.49156 0
M  V30 30603 C 3014.81 -0.254299 2.27785 0
M  V30 30604 C 3015.81 -0.886837 1.34134 0
M  V30 30605 O 3017 -0.75014 1.57221 0
M  V30 30606 C 3014.13 -1.36567 3.1235 0
M  V30 30607 H 3015.32 0.435767 2.96717 0
M  V30 30608 H 3012.88 0.264155 1.54052 0
M  V30 30609 H 3013.61 -2.08964 2.48001 0
M  V30 30610 H 3013.4 -0.917476 3.81215 0
M  V30 30611 H 3014.89 -1.90308 3.71716 0
M  V30 30612 N 3015.32 -1.55714 0.243111 0
M  V30 30613 C 3016.74 -1.59208 -0.111825 0
M  V30 30614 C 3016.94 -1.26023 -1.57228 0
M  V30 30615 O 3016 -1.00573 -2.31606 0
M  V30 30616 C 3017.31 -2.99789 0.233938 0
M  V30 30617 C 3018.86 -3.12494 0.177928 0
M  V30 30618 C 3019.33 -4.55288 0.49767 0
M  V30 30619 N 3020.82 -4.61028 0.44803 0
M  V30 30620 C 3021.56 -5.69488 0.668645 0
M  V30 30621 N 3021.05 -6.86225 0.952185 0
M  V30 30622 N 3022.85 -5.58893 0.59961 0
M  V30 30623 H 3015 -1.75556 1.19558 0
M  V30 30624 H 3017.26 -0.81704 0.48078 0
M  V30 30625 H 3016.97 -3.28797 1.24841 0
M  V30 30626 H 3016.84 -3.74616 -0.44078 0
M  V30 30627 H 3019.23 -2.83269 -0.827213 0
M  V30 30628 H 3019.31 -2.3995 0.886441 0
M  V30 30629 H 3018.95 -4.85234 1.50035 0
M  V30 30630 H 3018.88 -5.26087 -0.232279 0
M  V30 30631 H 3021.37 -3.77153 0.237454 0
M  V30 30632 H 3021.69 -7.64815 1.10805 0
M  V30 30633 H 3020.03 -6.87918 0.989617 0
M  V30 30634 H 3023.22 -4.6657 0.37817 0
M  V30 30635 H 3023.4 -6.4335 0.774941 0
M  V30 30636 N 3016.8 0.030048 -1.57571 0
M  V30 30637 C 3017.73 1.03048 -2.09531 0
M  V30 30638 C 3018.71 1.37773 -0.997634 0
M  V30 30639 O 3019.9 1.46674 -1.27281 0
M  V30 30640 C 3017.03 2.3317 -2.57389 0
M  V30 30641 C 3015.98 2.1269 -3.71412 0
M  V30 30642 C 3015.31 3.48563 -4.05473 0
M  V30 30643 C 3016.61 1.51387 -4.99879 0
M  V30 30644 H 3018.3 0.597947 -2.93368 0
M  V30 30645 H 3015.85 0.286179 -1.41128 0
M  V30 30646 H 3017.8 3.03485 -2.9236 0
M  V30 30647 H 3016.53 2.78481 -1.70634 0
M  V30 30648 H 3015.18 1.44807 -3.36789 0
M  V30 30649 H 3014.83 3.91521 -3.15786 0
M  V30 30650 H 3014.53 3.35685 -4.82275 0
M  V30 30651 H 3016.06 4.20242 -4.42977 0
M  V30 30652 H 3017.47 2.11619 -5.32813 0
M  V30 30653 H 3015.87 1.49088 -5.81286 0
M  V30 30654 H 3016.94 0.479591 -4.82522 0
M  V30 30655 N 3018.28 1.54674 0.3023 0
M  V30 30656 C 3019.21 1.81905 1.39439 0
M  V30 30657 C 3020.23 0.701939 1.4689 0
M  V30 30658 O 3021.41 0.979395 1.49232 0
M  V30 30659 C 3018.51 1.94085 2.7782 0
M  V30 30660 C 3017.69 3.24474 2.93318 0
M  V30 30661 C 3016.75 3.27087 4.1219 0
M  V30 30662 O 3015.77 4.00624 4.04337 0
M  V30 30663 N 3016.97 2.52385 5.22764 0
M  V30 30664 H 3019.74 2.76157 1.16436 0
M  V30 30665 H 3017.3 1.54232 0.492365 0
M  V30 30666 H 3019.29 1.93237 3.55586 0
M  V30 30667 H 3017.86 1.06833 2.93778 0
M  V30 30668 H 3017.08 3.38107 2.02676 0
M  V30 30669 H 3018.37 4.10521 3.00583 0
M  V30 30670 H 3017.77 1.92268 5.32024 0
M  V30 30671 H 3016.33 2.57292 5.98869 0
M  V30 30672 N 3019.76 -0.565428 1.47108 0
M  V30 30673 C 3020.67 -1.70072 1.61594 0
M  V30 30674 C 3021.68 -1.66692 0.49896 0
M  V30 30675 O 3022.86 -1.86289 0.765405 0
M  V30 30676 C 3019.93 -3.06581 1.61893 0
M  V30 30677 C 3018.99 -3.21091 2.84954 0
M  V30 30678 C 3018.22 -4.51088 2.85229 0
M  V30 30679 O 3018.44 -5.36044 1.94968 0
M  V30 30680 O 3017.38 -4.69214 3.76991 0
M  V30 30681 H 3021.2 -1.60795 2.57641 0
M  V30 30682 H 3018.79 -0.734487 1.30099 0
M  V30 30683 H 3020.67 -3.87832 1.64815 0
M  V30 30684 H 3019.34 -3.16258 0.690105 0
M  V30 30685 H 3018.25 -2.39268 2.87579 0
M  V30 30686 H 3019.58 -3.16313 3.77103 0
M  V30 30687 N 3021.24 -1.35102 -0.811492 0
M  V30 30688 C 3022.2 -1.27499 -1.90465 0
M  V30 30689 C 3023.2 -0.187544 -1.59703 0
M  V30 30690 O 3024.39 -0.440925 -1.68527 0
M  V30 30691 C 3021.52 -0.971211 -3.26773 0
M  V30 30692 H 3022.71 -2.24694 -1.98627 0
M  V30 30693 H 3020.27 -1.19555 -1.00679 0
M  V30 30694 H 3021 -0.0029127 -3.243 0
M  V30 30695 H 3020.79 -1.75791 -3.50485 0
M  V30 30696 H 3022.28 -0.943486 -4.06802 0
M  V30 30697 N 3022.71 1.03306 -1.19019 0
M  V30 30698 C 3023.68 2.09656 -0.926113 0
M  V30 30699 C 3024.68 1.60538 0.0916795 0
M  V30 30700 O 3025.87 1.73615 -0.142605 0
M  V30 30701 C 3023 3.3865 -0.391017 0
M  V30 30702 H 3024.19 2.34517 -1.86927 0
M  V30 30703 H 3021.75 1.19851 -1.00327 0
M  V30 30704 H 3022.48 3.19457 0.55839 0
M  V30 30705 H 3022.27 3.7562 -1.1248 0
M  V30 30706 H 3023.76 4.16992 -0.225205 0
M  V30 30707 N 3024.19 0.99344 1.22346 0
M  V30 30708 C 3025.16 0.54929 2.22521 0
M  V30 30709 C 3026.16 -0.368136 1.56529 0
M  V30 30710 O 3027.35 -0.160019 1.73463 0
M  V30 30711 C 3024.48 -0.200978 3.40307 0
M  V30 30712 H 3025.67 1.43519 2.63329 0
M  V30 30713 H 3023.22 0.780704 1.35406 0
M  V30 30714 H 3023.96 -1.10284 3.04972 0
M  V30 30715 H 3023.74 0.457753 3.89419 0
M  V30 30716 H 3025.23 -0.499873 4.14597 0
M  V30 30717 N 3025.67 -1.37693 0.766707 0
M  V30 30718 C 3026.6 -2.28946 0.107838 0
M  V30 30719 C 3027.62 -1.48389 -0.669675 0
M  V30 30720 O 3028.8 -1.71101 -0.508599 0
M  V30 30721 C 3025.9 -3.27515 -0.871026 0
M  V30 30722 C 3025.08 -4.37148 -0.148394 0
M  V30 30723 C 3024.14 -5.15822 -1.03989 0
M  V30 30724 O 3023.16 -5.66951 -0.505539 0
M  V30 30725 N 3024.36 -5.30064 -2.36669 0
M  V30 30726 H 3027.13 -2.86131 0.891591 0
M  V30 30727 H 3024.69 -1.49615 0.618619 0
M  V30 30728 H 3026.68 -3.77029 -1.47075 0
M  V30 30729 H 3025.25 -2.71135 -1.55578 0
M  V30 30730 H 3024.47 -3.89098 0.632185 0
M  V30 30731 H 3025.76 -5.07587 0.351134 0
M  V30 30732 H 3025.16 -4.90099 -2.82524 0
M  V30 30733 H 3023.72 -5.82904 -2.9166 0
M  V30 30734 N 3027.15 -0.516835 -1.48884 0
M  V30 30735 C 3028.11 0.242216 -2.27917 0
M  V30 30736 C 3029.11 0.879711 -1.34602 0
M  V30 30737 O 3030.3 0.741792 -1.57617 0
M  V30 30738 C 3027.43 1.34909 -3.13069 0
M  V30 30739 H 3028.63 -0.451496 -2.96482 0
M  V30 30740 H 3026.18 -0.272321 -1.53909 0
M  V30 30741 H 3026.91 2.07646 -2.49105 0
M  V30 30742 H 3026.7 0.897246 -3.81696 0
M  V30 30743 H 3028.19 1.88334 -3.7272 0
M  V30 30744 N 3028.63 1.55583 -0.251365 0
M  V30 30745 C 3029.57 2.21566 0.646298 0
M  V30 30746 C 3030.54 1.18104 1.16793 0
M  V30 30747 O 3031.73 1.46567 1.22159 0
M  V30 30748 C 3028.87 2.92237 1.83552 0
M  V30 30749 C 3027.98 4.10365 1.34999 0
M  V30 30750 C 3027.12 4.6874 2.49912 0
M  V30 30751 C 3026.16 5.79108 1.98243 0
M  V30 30752 N 3025.29 6.31647 3.0654 0
M  V30 30753 H 3030.13 2.97901 0.0769357 0
M  V30 30754 H 3027.67 1.47077 0.0262121 0
M  V30 30755 H 3029.63 3.31413 2.53419 0
M  V30 30756 H 3028.26 2.18369 2.37729 0
M  V30 30757 H 3027.31 3.76473 0.545208 0
M  V30 30758 H 3028.62 4.90028 0.931349 0
M  V30 30759 H 3027.78 5.10513 3.27814 0
M  V30 30760 H 3026.51 3.88303 2.9508 0
M  V30 30761 H 3025.52 5.36809 1.18813 0
M  V30 30762 H 3026.74 6.61399 1.54039 0
M  V30 30763 H 3024.69 5.54113 3.51133 0
M  V30 30764 H 3024.61 7.06515 2.6902 0
M  V30 30765 H 3025.88 6.78078 3.84487 0
M  V30 30766 N 3030.1 -0.0216912 1.57585 0
M  V30 30767 C 3031.04 -1.04774 2.03851 0
M  V30 30768 C 3032.05 -1.32022 0.952581 0
M  V30 30769 O 3033.24 -1.29379 1.22977 0
M  V30 30770 C 3030.34 -2.38766 2.40508 0
M  V30 30771 C 3029.51 -2.30769 3.7157 0
M  V30 30772 C 3028.57 -3.4727 3.95335 0
M  V30 30773 O 3027.6 -3.26432 4.66294 0
M  V30 30774 N 3028.8 -4.69391 3.41545 0
M  V30 30775 H 3031.56 -0.653344 2.92492 0
M  V30 30776 H 3029.12 -0.209499 1.60539 0
M  V30 30777 H 3031.12 -3.15437 2.53538 0
M  V30 30778 H 3029.69 -2.70024 1.57499 0
M  V30 30779 H 3028.91 -1.39148 3.68824 0
M  V30 30780 H 3030.19 -2.22576 4.57534 0
M  V30 30781 H 3029.59 -4.89221 2.84041 0
M  V30 30782 H 3028.15 -5.43402 3.59941 0
M  V30 30783 N 3031.58 -1.54832 -0.294093 0
M  V30 30784 C 3032.55 -1.85509 -1.34607 0
M  V30 30785 C 3033.55 -0.728368 -1.43358 0
M  V30 30786 O 3034.74 -0.996634 -1.42874 0
M  V30 30787 C 3031.87 -2.04155 -2.73009 0
M  V30 30788 H 3033.06 -2.79528 -1.08646 0
M  V30 30789 H 3030.61 -1.47 -0.531112 0
M  V30 30790 H 3031.35 -1.12446 -3.04181 0
M  V30 30791 H 3031.13 -2.86171 -2.68046 0
M  V30 30792 H 3032.62 -2.29235 -3.49057 0
M  V30 30793 N 3033.06 0.557619 -1.47405 0
M  V30 30794 C 3034.01 1.68574 -1.60268 0
M  V30 30795 C 3035 1.62749 -0.47001 0
M  V30 30796 O 3036.21 1.67939 -0.647794 0
M  V30 30797 H 3032.58 0.557784 -0.504362 0
M  V30 30798 H 3034.56 1.54862 -2.55069 0
M  V30 30799 C 3033.3 3.06927 -1.63374 0
M  V30 30800 H 3032.63 3.1209 -2.49879 0
M  V30 30801 H 3034.07 3.85552 -1.76424 0
M  V30 30802 C 3032.53 3.34895 -0.36698 0
M  V30 30803 O 3033.06 3.9816 0.53211 0
M  V30 30804 N 3031.26 2.89547 -0.247133 0
M  V30 30805 H 3030.81 2.38242 -0.979711 0
M  V30 30806 H 3030.77 3.08631 0.599498 0
M  V30 30807 N 3034.54 1.35531 0.804316 0
M  V30 30808 C 3035.79 1.28676 1.55843 0
M  V30 30809 C 3036.11 -0.137942 1.94511 0
M  V30 30810 O 3035.38 -1.07489 1.63777 0
M  V30 30811 H 3033.96 0.473301 0.577923 0
M  V30 30812 H 3036.62 1.69659 0.959263 0
M  V30 30813 H 3035.72 1.90416 2.47282 0
M  V30 30814 N 3036.02 -1.02674 1.19565 0
M  V30 30815 C 3036.95 -2.12895 0.959061 0
M  V30 30816 C 3037.93 -1.69755 -0.108352 0
M  V30 30817 O 3039.11 -1.94143 0.0471039 0
M  V30 30818 C 3036.24 -3.43693 0.499271 0
M  V30 30819 C 3035.2 -4.00525 1.50877 0
M  V30 30820 C 3034.52 -5.26969 0.905976 0
M  V30 30821 C 3035.82 -4.35085 2.88961 0
M  V30 30822 H 3037.52 -2.32945 1.88088 0
M  V30 30823 H 3035.06 -1.11947 0.905751 0
M  V30 30824 H 3037.02 -4.20175 0.321039 0
M  V30 30825 H 3035.74 -3.23371 -0.458148 0
M  V30 30826 H 3034.4 -3.26139 1.67418 0
M  V30 30827 H 3034.05 -5.02965 -0.0590622 0
M  V30 30828 H 3033.75 -5.65956 1.5801 0
M  V30 30829 H 3035.27 -6.06117 0.738587 0
M  V30 30830 H 3036.69 -5.02496 2.7599 0
M  V30 30831 H 3035.08 -4.8516 3.53186 0
M  V30 30832 H 3036.15 -3.44293 3.41453 0
M  V30 30833 N 3037.5 -0.999914 -1.21817 0
M  V30 30834 C 3038.44 -0.549086 -2.26026 0
M  V30 30835 C 3039.44 0.403797 -1.64517 0
M  V30 30836 O 3040.64 0.275547 -1.77878 0
M  V30 30837 H 3037.02 -0.159198 -0.734956 0
M  V30 30838 H 3038.99 -1.43928 -2.61395 0
M  V30 30839 C 3037.74 0.113629 -3.47514 0
M  V30 30840 H 3037.06 -0.610551 -3.95111 0
M  V30 30841 H 3038.5 0.392426 -4.2218 0
M  V30 30842 C 3036.96 1.35121 -3.08616 0
M  V30 30843 O 3037.49 2.44599 -3.18644 0
M  V30 30844 N 3035.7 1.22906 -2.6333 0
M  V30 30845 H 3035.24 0.338243 -2.5537 0
M  V30 30846 H 3035.2 2.05814 -2.37672 0
M  V30 30847 N 3038.97 1.37284 -0.773999 0
M  V30 30848 C 3039.91 2.28886 -0.119978 0
M  V30 30849 C 3040.92 1.48742 0.661796 0
M  V30 30850 O 3042.11 1.71368 0.499518 0
M  V30 30851 C 3039.21 3.27973 0.853645 0
M  V30 30852 C 3038.38 4.37221 0.125209 0
M  V30 30853 C 3037.44 5.16367 1.01252 0
M  V30 30854 O 3036.47 5.67211 0.475465 0
M  V30 30855 N 3037.67 5.31312 2.33855 0
M  V30 30856 H 3040.43 2.85654 -0.906752 0
M  V30 30857 H 3037.99 1.49285 -0.626545 0
M  V30 30858 H 3039.99 3.77804 1.45073 0
M  V30 30859 H 3038.56 2.71957 1.54138 0
M  V30 30860 H 3037.78 3.88757 -0.652811 0
M  V30 30861 H 3039.06 5.07394 -0.378048 0
M  V30 30862 H 3038.46 4.9159 2.79921 0
M  V30 30863 H 3037.02 5.84443 2.88565 0
M  V30 30864 N 3040.45 0.524724 1.48608 0
M  V30 30865 C 3041.36 -0.244882 2.33318 0
M  V30 30866 C 3042.38 -0.944188 1.46154 0
M  V30 30867 O 3043.55 -0.920315 1.79143 0
M  V30 30868 C 3040.62 -1.28139 3.22151 0
M  V30 30869 C 3039.68 -0.592993 4.25185 0
M  V30 30870 C 3038.91 -1.58011 5.09773 0
M  V30 30871 O 3039.14 -2.81226 4.96254 0
M  V30 30872 O 3038.07 -1.12239 5.91342 0
M  V30 30873 H 3041.9 0.449119 3.00361 0
M  V30 30874 H 3039.48 0.285715 1.46643 0
M  V30 30875 H 3041.36 -1.88051 3.77114 0
M  V30 30876 H 3040.04 -1.95789 2.57776 0
M  V30 30877 H 3038.94 0.0464872 3.74071 0
M  V30 30878 H 3040.28 0.0414759 4.92183 0
M  V30 30879 N 3041.93 -1.55447 0.259613 0
M  V30 30880 C 3042.88 -2.23314 -0.650661 0
M  V30 30881 C 3043.87 -1.22493 -1.17012 0
M  V30 30882 O 3045.08 -1.40469 -1.12554 0
M  V30 30883 H 3041.45 -0.716494 -0.228342 0
M  V30 30884 H 3043.42 -2.98349 -0.0552514 0
M  V30 30885 C 3042.17 -2.95599 -1.83075 0
M  V30 30886 H 3041.5 -3.72958 -1.44021 0
M  V30 30887 H 3042.94 -3.4643 -2.44463 0
M  V30 30888 C 3041.39 -2.00188 -2.70973 0
M  V30 30889 O 3041.92 -1.5431 -3.70879 0
M  V30 30890 N 3040.13 -1.67018 -2.3781 0
M  V30 30891 H 3039.68 -2.04522 -1.56616 0
M  V30 30892 H 3039.64 -1.03448 -2.96894 0
M  V30 30893 N 3043.41 0.0133338 -1.57594 0
M  V30 30894 C 3044.32 1.02562 -2.10993 0
M  V30 30895 C 3045.33 1.38589 -1.0521 0
M  V30 30896 O 3046.51 1.4759 -1.37037 0
M  V30 30897 C 3043.57 2.30288 -2.59169 0
M  V30 30898 C 3042.64 2.00698 -3.79498 0
M  V30 30899 C 3041.87 3.22334 -4.25367 0
M  V30 30900 O 3042.09 4.33559 -3.70652 0
M  V30 30901 O 3041.03 3.07112 -5.17654 0
M  V30 30902 H 3044.85 0.601753 -2.97679 0
M  V30 30903 H 3042.44 0.231324 -1.47598 0
M  V30 30904 H 3044.32 3.05348 -2.90414 0
M  V30 30905 H 3042.99 2.71939 -1.75587 0
M  V30 30906 H 3041.9 1.23155 -3.53247 0
M  V30 30907 H 3043.23 1.63892 -4.64112 0
M  V30 30908 N 3044.89 1.54985 0.285878 0
M  V30 30909 C 3046.3 1.46537 0.632379 0
M  V30 30910 C 3046.5 0.668921 1.90073 0
M  V30 30911 O 3045.56 0.18263 2.51839 0
M  V30 30912 C 3046.87 2.90639 0.77131 0
M  V30 30913 C 3048.42 3.00775 0.866209 0
M  V30 30914 C 3048.89 4.46105 1.03702 0
M  V30 30915 N 3050.38 4.49879 1.10286 0
M  V30 30916 C 3051.12 5.59529 1.25359 0
M  V30 30917 N 3050.62 6.79072 1.37234 0
M  V30 30918 N 3052.41 5.47246 1.28367 0
M  V30 30919 H 3044.56 2.05229 -0.547262 0
M  V30 30920 H 3046.82 0.930107 -0.183315 0
M  V30 30921 H 3046.53 3.51585 -0.0900103 0
M  V30 30922 H 3046.4 3.38923 1.65563 0
M  V30 30923 H 3048.79 2.39935 1.71801 0
M  V30 30924 H 3048.87 2.55765 -0.0424499 0
M  V30 30925 H 3048.51 5.07545 0.189932 0
M  V30 30926 H 3048.44 4.8876 1.96013 0
M  V30 30927 H 3050.94 3.63762 1.02401 0
M  V30 30928 H 3051.25 7.58392 1.48533 0
M  V30 30929 H 3049.59 6.81908 1.34262 0
M  V30 30930 H 3052.78 4.52797 1.18712 0
M  V30 30931 H 3052.96 6.32746 1.39771 0
M  V30 30932 N 3046.36 -0.549794 1.47699 0
M  V30 30933 C 3047.33 -1.63834 1.60285 0
M  V30 30934 C 3048.33 -1.53549 0.477421 0
M  V30 30935 O 3049.52 -1.57574 0.742693 0
M  V30 30936 C 3046.65 -3.03401 1.55436 0
M  V30 30937 H 3047.84 -1.54022 2.57327 0
M  V30 30938 H 3045.4 -0.770305 1.36 0
M  V30 30939 H 3046.13 -3.18739 0.597968 0
M  V30 30940 H 3045.92 -3.12275 2.37121 0
M  V30 30941 H 3047.41 -3.82581 1.67396 0
M  V30 30942 N 3047.84 -1.35955 -0.797117 0
M  V30 30943 C 3048.77 -1.32326 -1.92385 0
M  V30 30944 C 3049.75 -0.196037 -1.68967 0
M  V30 30945 O 3050.94 -0.392484 -1.90193 0
M  V30 30946 C 3048.07 -1.10404 -3.29285 0
M  V30 30947 C 3047.02 -2.19868 -3.67208 0
M  V30 30948 C 3046.35 -1.83099 -5.02373 0
M  V30 30949 C 3047.65 -3.61902 -3.76595 0
M  V30 30950 H 3049.34 -2.26606 -1.95679 0
M  V30 30951 H 3046.89 -1.09083 -0.94005 0
M  V30 30952 H 3048.84 -1.06502 -4.0772 0
M  V30 30953 H 3047.57 -0.125725 -3.26358 0
M  V30 30954 H 3046.22 -2.22883 -2.91065 0
M  V30 30955 H 3045.87 -0.838614 -4.9596 0
M  V30 30956 H 3045.57 -2.56382 -5.28718 0
M  V30 30957 H 3047.1 -1.80739 -5.83237 0
M  V30 30958 H 3048.51 -3.61157 -4.4524 0
M  V30 30959 H 3046.91 -4.34026 -4.14417 0
M  V30 30960 H 3047.98 -3.97366 -2.77899 0
M  V30 30961 N 3049.32 1.02038 -1.20108 0
M  V30 30962 C 3050.57 1.75229 -1.00693 0
M  V30 30963 C 3050.89 1.89437 0.462457 0
M  V30 30964 O 3050.16 1.43413 1.33453 0
M  V30 30965 H 3048.74 0.649164 -0.369587 0
M  V30 30966 H 3051.4 1.23041 -1.51152 0
M  V30 30967 H 3050.5 2.75734 -1.4621 0
M  V30 30968 N 3050.8 1.00636 1.21285 0
M  V30 30969 C 3051.76 0.57286 2.21926 0
M  V30 30970 C 3052.76 -0.351514 1.56911 0
M  V30 30971 O 3053.95 -0.141612 1.73623 0
M  V30 30972 C 3051.08 -0.164872 3.40501 0
M  V30 30973 H 3052.28 1.46304 2.61792 0
M  V30 30974 H 3049.83 0.795022 1.3457 0
M  V30 30975 H 3050.56 -1.07043 3.06125 0
M  V30 30976 H 3050.35 0.49903 3.88911 0
M  V30 30977 H 3051.84 -0.455872 4.15104 0
M  V30 30978 N 3052.28 -1.36872 0.781268 0
M  V30 30979 C 3053.53 -1.98701 0.346555 0
M  V30 30980 C 3053.84 -1.62714 -1.08552 0
M  V30 30981 O 3055.04 -2.17716 -1.6221 0
M  V30 30982 C 3053.5 -3.55379 0.568673 0
M  V30 30983 C 3053.11 -4.00297 2.01163 0
M  V30 30984 C 3054.85 -4.24038 0.198058 0
M  V30 30985 C 3052.76 -5.49721 2.18084 0
M  V30 30986 H 3051.69 -0.743426 0.125834 0
M  V30 30987 H 3054.34 -1.56278 0.961748 0
M  V30 30988 H 3052.72 -3.9583 -0.116116 0
M  V30 30989 H 3053.9 -3.71066 2.73215 0
M  V30 30990 H 3052.21 -3.4445 2.33973 0
M  V30 30991 H 3054.81 -5.33842 0.302872 0
M  V30 30992 H 3055.15 -4.0747 -0.852855 0
M  V30 30993 H 3055.68 -3.88921 0.835764 0
M  V30 30994 H 3052.42 -5.71226 3.21529 0
M  V30 30995 H 3051.94 -5.80605 1.50527 0
M  V30 30996 H 3053.62 -6.15829 1.98404 0
M  V30 30997 N 3053.75 -0.532597 -1.48328 0
M  V30 30998 C 3054.69 0.265891 -2.27652 0
M  V30 30999 C 3055.7 0.902059 -1.35524 0
M  V30 31000 O 3056.89 0.78006 -1.60553 0
M  V30 31001 C 3053.99 1.39201 -3.08992 0
M  V30 31002 C 3053.16 0.857273 -4.28917 0
M  V30 31003 C 3052.22 1.86484 -4.92047 0
M  V30 31004 O 3051.25 1.42074 -5.51184 0
M  V30 31005 N 3052.45 3.19714 -4.84524 0
M  V30 31006 H 3055.21 -0.414441 -2.96821 0
M  V30 31007 H 3052.77 -0.367093 -1.57683 0
M  V30 31008 H 3054.77 2.06427 -3.48095 0
M  V30 31009 H 3053.34 1.97597 -2.42228 0
M  V30 31010 H 3052.56 0.00894836 -3.94199 0
M  V30 31011 H 3053.84 0.478936 -5.06541 0
M  V30 31012 H 3053.24 3.58459 -4.37634 0
M  V30 31013 H 3051.8 3.82565 -5.27719 0
M  V30 31014 N 3055.23 1.55307 -0.267853 0
M  V30 31015 C 3056.65 1.59366 0.0864827 0
M  V30 31016 C 3056.85 1.28508 1.55203 0
M  V30 31017 O 3055.9 1.04245 2.29977 0
M  V30 31018 C 3057.22 2.99379 -0.281602 0
M  V30 31019 C 3058.77 3.12171 -0.22762 0
M  V30 31020 C 3059.24 4.54439 -0.570039 0
M  V30 31021 N 3060.73 4.60257 -0.521319 0
M  V30 31022 C 3061.47 5.68352 -0.759161 0
M  V30 31023 N 3060.96 6.84624 -1.06124 0
M  V30 31024 N 3062.76 5.57868 -0.688449 0
M  V30 31025 H 3054.91 1.73631 -1.22335 0
M  V30 31026 H 3057.17 0.809288 -0.493717 0
M  V30 31027 H 3056.88 3.26769 -1.30056 0
M  V30 31028 H 3056.75 3.7527 0.381126 0
M  V30 31029 H 3059.14 2.84549 0.782043 0
M  V30 31030 H 3059.22 2.38509 -0.924503 0
M  V30 31031 H 3058.86 4.82786 -1.57735 0
M  V30 31032 H 3058.79 5.2639 0.148554 0
M  V30 31033 H 3061.28 3.76728 -0.297426 0
M  V30 31034 H 3061.6 7.62956 -1.22958 0
M  V30 31035 H 3059.94 6.86257 -1.09893 0
M  V30 31036 H 3063.13 4.65909 -0.45235 0
M  V30 31037 H 3063.3 6.42035 -0.877194 0
M  V30 31038 N 3056.71 -0.00497598 1.57599 0
M  V30 31039 C 3057.64 -1.02606 2.0495 0
M  V30 31040 C 3058.66 -1.31004 0.96653 0
M  V30 31041 O 3059.84 -1.28068 1.24342 0
M  V30 31042 C 3056.94 -2.36202 2.43027 0
M  V30 31043 C 3056.12 -2.26815 3.73997 0
M  V30 31044 C 3055.18 -3.43058 3.98996 0
M  V30 31045 O 3054.2 -3.21468 4.6973 0
M  V30 31046 N 3055.4 -4.65742 3.46504 0
M  V30 31047 H 3058.17 -0.622284 2.93168 0
M  V30 31048 H 3055.73 -0.19246 1.60752 0
M  V30 31049 H 3057.72 -3.12731 2.56869 0
M  V30 31050 H 3056.29 -2.68338 1.60354 0
M  V30 31051 H 3055.51 -1.35229 3.70279 0
M  V30 31052 H 3056.8 -2.17711 4.59869 0
M  V30 31053 H 3056.2 -4.86181 2.89214 0
M  V30 31054 H 3054.76 -5.39554 3.65684 0
M  V30 31055 N 3058.19 -1.55135 -0.277654 0
M  V30 31056 C 3059.43 -1.75782 -1.01137 0
M  V30 31057 C 3059.77 -0.554752 -1.86108 0
M  V30 31058 O 3059.04 0.44778 -1.89275 0
M  V30 31059 C 3059.33 -3.0603 -1.89783 0
M  V30 31060 C 3059.18 -4.36682 -1.07836 0
M  V30 31061 C 3060.5 -3.32287 -2.88571 0
M  V30 31062 H 3057.62 -0.639546 -0.366265 0
M  V30 31063 H 3060.26 -1.87864 -0.284122 0
M  V30 31064 H 3058.41 -2.95861 -2.51791 0
M  V30 31065 H 3060.08 -4.58803 -0.479351 0
M  V30 31066 H 3058.32 -4.32118 -0.381688 0
M  V30 31067 H 3058.99 -5.24134 -1.7317 0
M  V30 31068 H 3061.47 -3.42219 -2.36696 0
M  V30 31069 H 3060.35 -4.24696 -3.47742 0
M  V30 31070 H 3060.61 -2.51702 -3.63453 0
M  V30 31071 N 3059.67 0.541953 -1.47989 0
M  V30 31072 C 3060.61 1.64767 -1.61618 0
M  V30 31073 C 3061.58 1.59643 -0.45863 0
M  V30 31074 O 3062.77 1.78248 -0.680617 0
M  V30 31075 C 3059.91 3.0306 -1.65072 0
M  V30 31076 C 3059.02 3.18508 -2.91851 0
M  V30 31077 C 3058.16 4.47289 -2.86541 0
M  V30 31078 C 3057.2 4.56223 -4.08078 0
M  V30 31079 N 3056.33 5.76378 -4.00915 0
M  V30 31080 H 3061.17 1.52456 -2.56049 0
M  V30 31081 H 3058.71 0.742427 -1.2699 0
M  V30 31082 H 3060.67 3.83161 -1.65056 0
M  V30 31083 H 3059.3 3.1417 -0.741416 0
M  V30 31084 H 3058.35 2.31738 -3.01665 0
M  V30 31085 H 3059.66 3.20971 -3.8181 0
M  V30 31086 H 3058.82 5.35667 -2.8486 0
M  V30 31087 H 3057.55 4.47328 -1.94291 0
M  V30 31088 H 3056.56 3.66253 -4.10047 0
M  V30 31089 H 3057.78 4.57931 -5.01474 0
M  V30 31090 H 3055.73 5.77337 -3.11477 0
M  V30 31091 H 3055.65 5.80285 -4.84568 0
M  V30 31092 H 3056.92 6.67076 -4.03274 0
M  V30 31093 N 3061.15 1.36376 0.789896 0
M  V30 31094 C 3062.06 1.32815 1.93384 0
M  V30 31095 C 3063.07 0.230407 1.72468 0
M  V30 31096 O 3064.25 0.462691 1.96013 0
M  V30 31097 C 3061.31 1.11626 3.28238 0
M  V30 31098 C 3060.37 2.30871 3.61935 0
M  V30 31099 C 3059.61 2.10684 4.90355 0
M  V30 31100 O 3059.83 1.08178 5.60048 0
M  V30 31101 O 3058.76 2.98449 5.22697 0
M  V30 31102 H 3062.59 2.29125 1.99338 0
M  V30 31103 H 3060.17 1.16918 0.93008 0
M  V30 31104 H 3062.06 1.01726 4.08937 0
M  V30 31105 H 3060.73 0.183788 3.23178 0
M  V30 31106 H 3059.64 2.4634 2.81544 0
M  V30 31107 H 3060.97 3.22624 3.71719 0
M  V30 31108 N 3062.62 -1.014 1.20647 0
M  V30 31109 C 3063.87 -1.74448 1.01245 0
M  V30 31110 C 3064.19 -1.90218 -0.455699 0
M  V30 31111 O 3065.39 -2.60385 -0.768905 0
M  V30 31112 C 3063.85 -3.13773 1.7628 0
M  V30 31113 C 3063.46 -3.06007 3.27206 0
M  V30 31114 C 3065.2 -3.91013 1.65255 0
M  V30 31115 C 3063.11 -4.40355 3.94767 0
M  V30 31116 H 3062.04 -0.654012 0.375213 0
M  V30 31117 H 3064.69 -1.13365 1.44294 0
M  V30 31118 H 3063.07 -3.75413 1.2602 0
M  V30 31119 H 3064.24 -2.53658 3.847 0
M  V30 31120 H 3062.56 -2.42259 3.38673 0
M  V30 31121 H 3065.16 -4.90413 2.1307 0
M  V30 31122 H 3065.5 -4.11818 0.6092 0
M  V30 31123 H 3066.03 -3.36006 2.12943 0
M  V30 31124 H 3062.77 -4.24752 4.99265 0
M  V30 31125 H 3062.29 -4.927 3.42063 0
M  V30 31126 H 3063.97 -5.09189 3.99168 0
M  V30 31127 N 3064.1 -1.01278 -1.2075 0
M  V30 31128 C 3065.05 -0.573029 -2.25431 0
M  V30 31129 C 3066.04 0.386325 -1.64936 0
M  V30 31130 O 3067.25 0.256665 -1.78161 0
M  V30 31131 H 3063.62 -0.166985 -0.733226 0
M  V30 31132 H 3065.6 -1.46692 -2.59854 0
M  V30 31133 C 3064.34 0.0767638 -3.47615 0
M  V30 31134 H 3063.67 -0.652424 -3.94441 0
M  V30 31135 H 3065.11 0.347626 -4.22573 0
M  V30 31136 C 3063.57 1.3184 -3.10032 0
M  V30 31137 O 3064.1 2.41206 -3.21221 0
M  V30 31138 N 3062.3 1.20106 -2.64618 0
M  V30 31139 H 3061.85 0.311139 -2.55714 0
M  V30 31140 H 3061.81 2.03282 -2.39842 0
M  V30 31141 N 3065.58 1.36456 -0.788516 0
M  V30 31142 C 3066.8 2.0405 -0.37126 0
M  V30 31143 C 3067.23 1.59066 1.00397 0
M  V30 31144 O 3066.59 0.758708 1.64661 0
M  V30 31145 C 3066.64 3.57877 -0.442338 0
M  V30 31146 O 3065.74 4.08702 0.551058 0
M  V30 31147 H 3065.08 0.644972 -0.15782 0
M  V30 31148 H 3067.61 1.74429 -1.06938 0
M  V30 31149 H 3067.62 4.06854 -0.305619 0
M  V30 31150 H 3066.3 3.89971 -1.44554 0
M  V30 31151 H 3064.87 3.70999 0.376075 0
M  V30 31152 N 3067.06 0.540456 1.48043 0
M  V30 31153 C 3067.99 -0.205138 2.32597 0
M  V30 31154 C 3068.97 -0.925015 1.4275 0
M  V30 31155 O 3070.15 -0.908754 1.71625 0
M  V30 31156 C 3067.28 -1.24606 3.24177 0
M  V30 31157 C 3066.24 -0.643686 4.23132 0
M  V30 31158 C 3065.56 -1.78803 5.03918 0
M  V30 31159 C 3066.86 0.391531 5.2083 0
M  V30 31160 H 3068.56 0.500727 2.95183 0
M  V30 31161 H 3066.1 0.24225 1.41948 0
M  V30 31162 H 3068.06 -1.7757 3.82161 0
M  V30 31163 H 3066.78 -1.98165 2.59612 0
M  V30 31164 H 3065.44 -0.135489 3.6635 0
M  V30 31165 H 3065.09 -2.51225 4.3577 0
M  V30 31166 H 3064.79 -1.39084 5.70902 0
M  V30 31167 H 3066.31 -2.32124 5.64757 0
M  V30 31168 H 3067.73 -0.0514056 5.73277 0
M  V30 31169 H 3066.12 0.706674 5.95925 0
M  V30 31170 H 3067.19 1.29354 4.67328 0
M  V30 31171 N 3068.54 -1.55163 0.276085 0
M  V30 31172 C 3069.47 -2.1996 -0.644216 0
M  V30 31173 C 3070.48 -1.18461 -1.11673 0
M  V30 31174 O 3071.67 -1.45183 -1.03847 0
M  V30 31175 C 3068.77 -2.81245 -1.89088 0
M  V30 31176 C 3067.94 -4.08443 -1.56502 0
M  V30 31177 C 3067 -4.53767 -2.66425 0
M  V30 31178 O 3066.03 -5.19519 -2.3257 0
M  V30 31179 N 3067.23 -4.23989 -3.96502 0
M  V30 31180 H 3069.99 -2.99566 -0.0896281 0
M  V30 31181 H 3067.56 -1.61608 0.0972265 0
M  V30 31182 H 3069.55 -3.0851 -2.61923 0
M  V30 31183 H 3068.12 -2.05626 -2.3545 0
M  V30 31184 H 3067.34 -3.88457 -0.670454 0
M  V30 31185 H 3068.63 -4.91316 -1.32233 0
M  V30 31186 H 3068.02 -3.71261 -4.26828 0
M  V30 31187 H 3066.58 -4.56022 -4.65712 0
M  V30 31188 N 3070.01 -0.00338196 -1.576 0
M  V30 31189 C 3071.24 0.695276 -1.95399 0
M  V30 31190 C 3071.66 1.66325 -0.878505 0
M  V30 31191 O 3071.02 1.80565 0.163054 0
M  V30 31192 C 3071.07 1.40044 -3.32295 0
M  V30 31193 O 3070.17 2.51497 -3.26838 0
M  V30 31194 H 3069.51 0.184683 -0.637799 0
M  V30 31195 H 3072.04 -0.0575789 -2.04519 0
M  V30 31196 H 3072.05 1.76309 -3.67939 0
M  V30 31197 H 3070.73 0.690731 -4.10124 0
M  V30 31198 H 3069.31 2.17533 -3.02876 0
M  V30 31199 N 3071.49 1.5528 0.269423 0
M  V30 31200 C 3072.77 1.66774 1.02204 0
M  V30 31201 C 3073.15 0.536572 2.04167 0
M  V30 31202 O 3072.5 -0.462917 2.23762 0
M  V30 31203 C 3072.71 3.06143 1.67564 0
M  V30 31204 C 3074.05 3.64009 2.18593 0
M  V30 31205 O 3075.08 3.08799 1.77544 0
M  V30 31206 O 3073.94 4.60747 2.93895 0
M  V30 31207 H 3071.03 0.677471 0.474302 0
M  V30 31208 H 3073.58 1.67618 0.264997 0
M  V30 31209 H 3072.35 3.79917 0.936962 0
M  V30 31210 H 3071.97 3.09213 2.49946 0
M  V30 31211 N 3072.97 -0.534097 1.48274 0
M  V30 31212 C 3074.22 -1.29015 1.56082 0
M  V30 31213 C 3074.54 -1.931 0.232946 0
M  V30 31214 O 3073.8 -1.7964 -0.776389 0
M  V30 31215 C 3074.1 -2.40394 2.64472 0
M  V30 31216 C 3073.76 -1.93988 4.07037 0
M  V30 31217 C 3072.43 -1.8105 4.45841 0
M  V30 31218 C 3074.78 -1.58868 4.96397 0
M  V30 31219 C 3072.11 -1.3132 5.71814 0
M  V30 31220 C 3074.46 -1.10603 6.22856 0
M  V30 31221 C 3073.12 -0.962779 6.6052 0
M  V30 31222 H 3072.39 -0.472098 0.571143 0
M  V30 31223 H 3075.04 -0.596468 1.81974 0
M  V30 31224 H 3073.34 -3.15414 2.32424 0
M  V30 31225 H 3075.04 -2.98533 2.6773 0
M  V30 31226 H 3071.63 -2.05008 3.7639 0
M  V30 31227 H 3075.82 -1.67726 4.67099 0
M  V30 31228 H 3071.07 -1.18914 5.99725 0
M  V30 31229 H 3075.25 -0.824974 6.91496 0
M  V30 31230 H 3072.87 -0.575236 7.5802 0
M  V30 31231 N 3074.45 -1.36793 -0.782652 0
M  V30 31232 C 3075.68 -1.34568 -1.5716 0
M  V30 31233 C 3076.09 0.0715169 -1.88664 0
M  V30 31234 O 3075.45 1.0303 -1.50635 0
M  V30 31235 C 3075.5 -2.17365 -2.8885 0
M  V30 31236 O 3075.22 -3.53561 -2.587 0
M  V30 31237 C 3076.72 -2.22997 -3.83128 0
M  V30 31238 H 3073.94 -0.461347 -0.487237 0
M  V30 31239 H 3076.48 -1.79984 -0.970873 0
M  V30 31240 H 3074.64 -1.75487 -3.45374 0
M  V30 31241 H 3075.05 -3.96841 -3.42954 0
M  V30 31242 H 3076.53 -2.85275 -4.7257 0
M  V30 31243 H 3077 -1.23531 -4.2147 0
M  V30 31244 H 3077.61 -2.65141 -3.32536 0
M  V30 31245 N 3075.93 1.00759 -1.21184 0
M  V30 31246 C 3076.87 2.09483 -0.968778 0
M  V30 31247 C 3077.84 1.65772 0.104296 0
M  V30 31248 O 3079.03 1.90753 -0.0422922 0
M  V30 31249 C 3076.17 3.409 -0.536746 0
M  V30 31250 C 3075.28 3.98038 -1.67897 0
M  V30 31251 C 3074.42 5.17553 -1.19636 0
M  V30 31252 C 3073.46 5.66794 -2.31109 0
M  V30 31253 N 3072.59 6.77561 -1.84 0
M  V30 31254 H 3077.43 2.2961 -1.89956 0
M  V30 31255 H 3074.97 1.12587 -0.946707 0
M  V30 31256 H 3076.93 4.16341 -0.267523 0
M  V30 31257 H 3075.56 3.20819 0.357035 0
M  V30 31258 H 3074.61 3.19607 -2.06289 0
M  V30 31259 H 3075.92 4.30578 -2.51802 0
M  V30 31260 H 3075.08 6.0023 -0.883644 0
M  V30 31261 H 3073.81 4.866 -0.32733 0
M  V30 31262 H 3072.82 4.82714 -2.63186 0
M  V30 31263 H 3074.04 5.99777 -3.18504 0
M  V30 31264 H 3071.99 6.4842 -0.994371 0
M  V30 31265 H 3071.91 7.09341 -2.61479 0
M  V30 31266 H 3073.18 7.63781 -1.55755 0
M  V30 31267 N 3077.4 1.01917 1.20211 0
M  V30 31268 C 3078.63 0.728231 1.9334 0
M  V30 31269 C 3079.04 -0.715423 1.75152 0
M  V30 31270 O 3078.39 -1.4972 1.0644 0
M  V30 31271 C 3078.45 0.98736 3.45675 0
M  V30 31272 C 3078.11 2.42064 3.87626 0
M  V30 31273 C 3079.11 3.40158 3.93178 0
M  V30 31274 C 3076.79 2.76206 4.19542 0
M  V30 31275 C 3078.79 4.70454 4.3006 0
M  V30 31276 C 3076.47 4.06715 4.56099 0
M  V30 31277 C 3077.47 5.03649 4.61331 0
M  V30 31278 O 3077.16 6.31822 4.97048 0
M  V30 31279 H 3076.89 0.266496 0.621254 0
M  V30 31280 H 3079.45 1.36396 1.53575 0
M  V30 31281 H 3077.68 0.294472 3.85577 0
M  V30 31282 H 3079.37 0.687607 4.00033 0
M  V30 31283 H 3080.13 3.15117 3.68682 0
M  V30 31284 H 3076.01 2.01442 4.14659 0
M  V30 31285 H 3079.55 5.46112 4.34059 0
M  V30 31286 H 3075.45 4.31533 4.80052 0
M  V30 31287 H 3076.22 6.36149 5.15031 0
M  V30 31288 N 3078.88 -1.36036 0.795742 0
M  V30 31289 C 3079.81 -2.32528 0.212843 0
M  V30 31290 C 3080.79 -1.56955 -0.655689 0
M  V30 31291 O 3081.98 -1.85078 -0.588205 0
M  V30 31292 C 3079.11 -3.41199 -0.648129 0
M  V30 31293 C 3078.06 -4.27829 0.121023 0
M  V30 31294 C 3077.39 -5.27723 -0.860951 0
M  V30 31295 C 3078.69 -5.05505 1.31384 0
M  V30 31296 H 3080.38 -2.81526 1.01898 0
M  V30 31297 H 3077.93 -1.35354 0.491446 0
M  V30 31298 H 3079.88 -4.07697 -1.0659 0
M  V30 31299 H 3078.61 -2.90783 -1.48704 0
M  V30 31300 H 3077.26 -3.62896 0.519841 0
M  V30 31301 H 3076.91 -4.73578 -1.69507 0
M  V30 31302 H 3076.61 -5.86552 -0.350705 0
M  V30 31303 H 3078.14 -5.97094 -1.27715 0
M  V30 31304 H 3079.55 -5.65009 0.971506 0
M  V30 31305 H 3077.95 -5.73778 1.75782 0
M  V30 31306 H 3079.02 -4.36779 2.106 0
M  V30 31307 N 3080.36 -0.5483 -1.47755 0
M  V30 31308 C 3081.59 -0.0255236 -2.06884 0
M  V30 31309 C 3082 1.2642 -1.40227 0
M  V30 31310 O 3081.36 1.75636 -0.495807 0
M  V30 31311 C 3081.41 0.18307 -3.61036 0
M  V30 31312 O 3081.13 -1.05557 -4.25193 0
M  V30 31313 C 3082.63 0.744145 -4.3701 0
M  V30 31314 H 3079.85 -0.0418007 -0.669697 0
M  V30 31315 H 3082.4 -0.759171 -1.89886 0
M  V30 31316 H 3080.55 0.866819 -3.77578 0
M  V30 31317 H 3080.97 -0.84772 -5.17604 0
M  V30 31318 H 3082.44 0.839433 -5.4558 0
M  V30 31319 H 3082.92 1.75336 -4.02683 0
M  V30 31320 H 3083.52 0.0963795 -4.25191 0
M  V30 31321 N 3081.84 1.55014 -0.28431 0
M  V30 31322 C 3083.07 2.04204 0.332912 0
M  V30 31323 C 3083.48 1.16232 1.48781 0
M  V30 31324 O 3082.84 0.184355 1.81566 0
M  V30 31325 C 3082.89 3.5242 0.805145 0
M  V30 31326 O 3082.61 4.37046 -0.303766 0
M  V30 31327 C 3084.11 4.17536 1.48924 0
M  V30 31328 H 3081.33 0.666825 0.074733 0
M  V30 31329 H 3083.88 2.0016 -0.419083 0
M  V30 31330 H 3082.03 3.56878 1.5072 0
M  V30 31331 H 3082.44 5.24465 0.0608781 0
M  V30 31332 H 3083.92 5.22819 1.77099 0
M  V30 31333 H 3084.4 3.66262 2.42382 0
M  V30 31334 H 3085 4.17107 0.830794 0
M  V30 31335 N 3083.32 0.0117398 1.57596 0
M  V30 31336 C 3084.28 -0.960779 2.08091 0
M  V30 31337 C 3085.28 -1.26512 0.992542 0
M  V30 31338 O 3086.47 -1.20835 1.25478 0
M  V30 31339 C 3083.6 -2.28236 2.53221 0
M  V30 31340 H 3084.79 -0.523777 2.95291 0
M  V30 31341 H 3082.35 -0.235968 1.54509 0
M  V30 31342 H 3083.08 -2.76602 1.69299 0
M  V30 31343 H 3082.87 -2.07464 3.32718 0
M  V30 31344 H 3084.36 -2.97978 2.92573 0
M  V30 31345 N 3084.79 -1.55421 -0.261185 0
M  V30 31346 C 3086.07 -1.67314 -1.01318 0
M  V30 31347 C 3086.45 -0.547391 -2.03879 0
M  V30 31348 O 3085.8 0.451044 -2.24004 0
M  V30 31349 C 3086.01 -3.07027 -1.65938 0
M  V30 31350 C 3087.36 -3.65163 -2.16659 0
M  V30 31351 O 3088.38 -3.09736 -1.75904 0
M  V30 31352 O 3087.24 -4.62299 -2.91447 0
M  V30 31353 H 3084.33 -0.679977 -0.470703 0
M  V30 31354 H 3086.88 -1.67756 -0.256104 0
M  V30 31355 H 3085.65 -3.80408 -0.916801 0
M  V30 31356 H 3085.28 -3.10535 -2.48302 0
M  V30 31357 N 3086.27 0.526227 -1.48555 0
M  V30 31358 C 3087.5 1.31126 -1.60688 0
M  V30 31359 C 3087.92 1.8617 -0.268734 0
M  V30 31360 O 3087.28 1.64595 0.760138 0
M  V30 31361 C 3087.33 2.43531 -2.65942 0
M  V30 31362 O 3086.43 3.46674 -2.23362 0
M  V30 31363 H 3085.77 0.388202 -0.538698 0
M  V30 31364 H 3088.3 0.632791 -1.94569 0
M  V30 31365 H 3088.31 2.89663 -2.87332 0
M  V30 31366 H 3086.99 2.02829 -3.63088 0
M  V30 31367 H 3085.57 3.06635 -2.12201 0
M  V30 31368 N 3087.75 1.37206 0.775387 0
M  V30 31369 C 3088.98 1.3557 1.56957 0
M  V30 31370 C 3089.4 -0.0575224 1.88012 0
M  V30 31371 O 3088.76 -1.03353 1.48956 0
M  V30 31372 C 3088.81 2.19781 2.85882 0
M  V30 31373 O 3087.91 1.59994 3.801 0
M  V30 31374 H 3087.25 0.463383 0.475575 0
M  V30 31375 H 3089.78 1.80681 0.959978 0
M  V30 31376 H 3089.79 2.32865 3.3502 0
M  V30 31377 H 3088.47 3.22506 2.62607 0
M  V30 31378 H 3087.04 1.5593 3.38733 0
M  V30 31379 N 3089.23 -1.00115 1.21716 0
M  V30 31380 C 3090.16 -2.10813 1.004 0
M  V30 31381 C 3091.14 -1.69946 -0.0723203 0
M  V30 31382 O 3092.32 -1.93999 0.0882739 0
M  V30 31383 C 3089.45 -3.42556 0.572061 0
M  V30 31384 C 3088.41 -3.97235 1.59338 0
M  V30 31385 C 3087.73 -5.24929 1.01755 0
M  V30 31386 C 3089.03 -4.28858 2.98125 0
M  V30 31387 H 3090.73 -2.28903 1.92987 0
M  V30 31388 H 3088.27 -1.10001 0.929292 0
M  V30 31389 H 3090.23 -4.194 0.410092 0
M  V30 31390 H 3088.95 -3.2427 -0.389453 0
M  V30 31391 H 3087.61 -3.22515 1.74298 0
M  V30 31392 H 3087.26 -5.02977 0.0476375 0
M  V30 31393 H 3086.96 -5.62478 1.69979 0
M  V30 31394 H 3088.48 -6.04414 0.866987 0
M  V30 31395 H 3089.9 -4.96529 2.86586 0
M  V30 31396 H 3088.29 -4.77559 3.63397 0
M  V30 31397 H 3089.36 -3.36973 3.4868 0
M  V30 31398 N 3090.71 -1.02553 -1.19669 0
M  V30 31399 C 3091.64 -0.624004 -2.25008 0
M  V30 31400 C 3092.62 0.365351 -1.6613 0
M  V30 31401 O 3093.8 0.248809 -1.926 0
M  V30 31402 C 3090.93 0.0294259 -3.47288 0
M  V30 31403 C 3089.89 -0.881854 -4.18817 0
M  V30 31404 C 3089.21 -0.0937128 -5.34618 0
M  V30 31405 C 3090.51 -2.19405 -4.73982 0
M  V30 31406 H 3092.21 -1.50459 -2.58849 0
M  V30 31407 H 3089.75 -0.724893 -1.24424 0
M  V30 31408 H 3091.71 0.321943 -4.20168 0
M  V30 31409 H 3090.43 0.944783 -3.12636 0
M  V30 31410 H 3089.09 -1.15851 -3.47813 0
M  V30 31411 H 3088.74 0.823574 -4.96212 0
M  V30 31412 H 3088.44 -0.70067 -5.83408 0
M  V30 31413 H 3089.96 0.192142 -6.10298 0
M  V30 31414 H 3091.38 -1.96329 -5.38635 0
M  V30 31415 H 3089.77 -2.75263 -5.33245 0
M  V30 31416 H 3090.84 -2.85099 -3.92233 0
M  V30 31417 N 3092.19 1.35612 -0.802945 0
M  V30 31418 C 3093.12 2.2858 -0.168501 0
M  V30 31419 C 3094.13 1.50112 0.630097 0
M  V30 31420 O 3095.32 1.72389 0.463056 0
M  V30 31421 C 3092.42 3.2971 0.783885 0
M  V30 31422 C 3091.59 4.37388 0.0324396 0
M  V30 31423 C 3090.65 5.18398 0.902767 0
M  V30 31424 O 3089.68 5.68092 0.355044 0
M  V30 31425 N 3090.88 5.36153 2.22532 0
M  V30 31426 H 3093.64 2.83666 -0.96714 0
M  V30 31427 H 3091.21 1.47922 -0.658069 0
M  V30 31428 H 3093.2 3.80796 1.37027 0
M  V30 31429 H 3091.77 2.75165 1.48334 0
M  V30 31430 H 3090.99 3.87285 -0.735125 0
M  V30 31431 H 3092.28 5.06478 -0.485589 0
M  V30 31432 H 3091.67 4.97417 2.6943 0
M  V30 31433 H 3090.23 5.90432 2.76103 0
M  V30 31434 N 3093.66 0.556128 1.47462 0
M  V30 31435 C 3094.89 0.0364948 2.06868 0
M  V30 31436 C 3095.31 -1.25674 1.40895 0
M  V30 31437 O 3094.66 -1.75371 0.505114 0
M  V30 31438 C 3094.71 -0.163921 3.61128 0
M  V30 31439 O 3094.44 1.0781 4.24628 0
M  V30 31440 C 3095.94 -0.720959 4.37398 0
M  V30 31441 H 3093.16 0.0453517 0.669466 0
M  V30 31442 H 3095.7 0.769231 1.89481 0
M  V30 31443 H 3093.86 -0.846783 3.78032 0
M  V30 31444 H 3094.27 0.875158 5.17147 0
M  V30 31445 H 3095.74 -0.810488 5.46017 0
M  V30 31446 H 3096.22 -1.73198 4.03607 0
M  V30 31447 H 3096.83 -0.0738292 4.25236 0
M  V30 31448 N 3095.14 -1.54861 0.292527 0
M  V30 31449 C 3096.09 -2.24644 -0.603146 0
M  V30 31450 C 3097.08 -1.24948 -1.14387 0
M  V30 31451 O 3098.29 -1.42825 -1.09549 0
M  V30 31452 H 3094.66 -0.721177 -0.213092 0
M  V30 31453 H 3096.64 -2.98399 0.00804523 0
M  V30 31454 C 3095.38 -2.99416 -1.76764 0
M  V30 31455 H 3094.71 -3.75929 -1.36077 0
M  V30 31456 H 3096.15 -3.51538 -2.3706 0
M  V30 31457 C 3094.61 -2.05891 -2.66666 0
M  V30 31458 O 3095.14 -1.62142 -3.67522 0
M  V30 31459 N 3093.34 -1.72024 -2.34213 0
M  V30 31460 H 3092.89 -2.07798 -1.52243 0
M  V30 31461 H 3092.85 -1.09722 -2.94633 0
M  V30 31462 N 3096.62 -0.0200973 -1.57587 0
M  V30 31463 C 3097.87 0.659788 -1.90603 0
M  V30 31464 C 3098.18 1.73807 -0.897247 0
M  V30 31465 O 3099.39 2.47398 -1.11833 0
M  V30 31466 C 3097.84 1.22478 -3.38419 0
M  V30 31467 C 3097.45 0.18026 -4.47637 0
M  V30 31468 C 3099.2 1.8817 -3.80516 0
M  V30 31469 C 3097.1 0.756379 -5.86543 0
M  V30 31470 H 3096.03 0.250203 -0.711277 0
M  V30 31471 H 3098.68 -0.0839265 -1.83308 0
M  V30 31472 H 3097.07 2.01981 -3.40616 0
M  V30 31473 H 3098.24 -0.591653 -4.56986 0
M  V30 31474 H 3096.55 -0.377375 -4.14686 0
M  V30 31475 H 3099.15 2.32214 -4.81644 0
M  V30 31476 H 3099.49 2.72067 -3.15095 0
M  V30 31477 H 3100.03 1.1537 -3.80703 0
M  V30 31478 H 3096.77 -0.044262 -6.55485 0
M  V30 31479 H 3096.29 1.49699 -5.80819 0
M  V30 31480 H 3097.97 1.24889 -6.34832 0
M  V30 31481 N 3098.1 1.55557 0.252939 0
M  V30 31482 C 3099.06 1.89013 1.29641 0
M  V30 31483 C 3100.06 0.766121 1.41376 0
M  V30 31484 O 3101.25 1.03416 1.40181 0
M  V30 31485 C 3098.38 2.11321 2.675 0
M  V30 31486 H 3099.58 2.8231 1.01197 0
M  V30 31487 H 3097.13 1.48356 0.491951 0
M  V30 31488 H 3097.86 1.20472 3.01093 0
M  V30 31489 H 3097.65 2.93177 2.60365 0
M  V30 31490 H 3099.14 2.38409 3.42857 0
M  V30 31491 N 3099.58 -0.518341 1.48832 0
M  V30 31492 C 3100.51 -1.63072 1.67122 0
M  V30 31493 C 3101.49 -1.61958 0.519976 0
M  V30 31494 O 3102.67 -1.78971 0.753855 0
M  V30 31495 C 3099.8 -3.01624 1.72163 0
M  V30 31496 C 3098.76 -3.17601 2.86904 0
M  V30 31497 C 3098.08 -4.5733 2.77043 0
M  V30 31498 C 3099.38 -2.99266 4.28062 0
M  V30 31499 H 3101.08 -1.48021 2.6025 0
M  V30 31500 H 3098.62 -0.710672 1.25242 0
M  V30 31501 H 3100.57 -3.79327 1.83545 0
M  V30 31502 H 3099.3 -3.17725 0.756213 0
M  V30 31503 H 3097.96 -2.42318 2.75095 0
M  V30 31504 H 3097.61 -4.70283 1.78446 0
M  V30 31505 H 3097.31 -4.68963 3.54044 0
M  V30 31506 H 3098.83 -5.37117 2.9041 0
M  V30 31507 H 3100.24 -3.66752 4.40643 0
M  V30 31508 H 3098.64 -3.22384 5.06151 0
M  V30 31509 H 3099.71 -1.95567 4.43714 0
M  V30 31510 N 3101.05 -1.37615 -0.7681 0
M  V30 31511 C 3101.99 -1.29552 -1.89074 0
M  V30 31512 C 3103 -0.210589 -1.61432 0
M  V30 31513 O 3104.19 -0.467022 -1.72282 0
M  V30 31514 C 3101.29 -0.981159 -3.24386 0
M  V30 31515 C 3100.46 -2.17228 -3.79645 0
M  V30 31516 C 3099.52 -1.82763 -4.93441 0
M  V30 31517 O 3098.55 -2.55099 -5.08835 0
M  V30 31518 N 3099.75 -0.77392 -5.75318 0
M  V30 31519 H 3102.51 -2.26286 -1.96506 0
M  V30 31520 H 3100.07 -1.31287 -0.947376 0
M  V30 31521 H 3102.07 -0.731371 -3.98036 0
M  V30 31522 H 3100.64 -0.102257 -3.12433 0
M  V30 31523 H 3099.86 -2.5836 -2.97731 0
M  V30 31524 H 3101.14 -2.96755 -4.13296 0
M  V30 31525 H 3100.54 -0.173743 -5.65433 0
M  V30 31526 H 3099.1 -0.583996 -6.49179 0
M  V30 31527 N 3102.53 0.994677 -1.22245 0
M  V30 31528 C 3103.46 2.10277 -1.01517 0
M  V30 31529 C 3104.44 1.69982 0.0633067 0
M  V30 31530 O 3105.63 1.9395 -0.0985609 0
M  V30 31531 C 3102.76 3.42248 -0.59022 0
M  V30 31532 C 3101.71 3.96384 -1.61443 0
M  V30 31533 C 3101.04 5.24382 -1.04537 0
M  V30 31534 C 3102.34 4.2727 -3.00395 0
M  V30 31535 H 3104.03 2.27876 -1.94198 0
M  V30 31536 H 3101.58 1.09506 -0.935113 0
M  V30 31537 H 3103.53 4.19176 -0.432328 0
M  V30 31538 H 3102.25 3.24472 0.372251 0
M  V30 31539 H 3100.91 3.21586 -1.76006 0
M  V30 31540 H 3100.56 5.02945 -0.0743109 0
M  V30 31541 H 3100.26 5.61568 -1.72959 0
M  V30 31542 H 3101.79 6.03945 -0.899028 0
M  V30 31543 H 3103.2 4.95002 -2.89216 0
M  V30 31544 H 3101.6 4.75625 -3.65925 0
M  V30 31545 H 3102.67 3.35119 -3.50462 0
M  V30 31546 N 3104.01 1.03186 1.19123 0
M  V30 31547 C 3104.94 0.559777 2.21228 0
M  V30 31548 C 3105.92 -0.40097 1.57579 0
M  V30 31549 O 3107.1 -0.317366 1.85809 0
M  V30 31550 C 3104.23 -0.183383 3.38203 0
M  V30 31551 C 3103.28 0.729256 4.20219 0
M  V30 31552 S 3104.11 2.20715 4.87899 0
M  V30 31553 C 3105.27 1.47459 6.08282 0
M  V30 31554 H 3105.5 1.42489 2.60929 0
M  V30 31555 H 3103.03 0.842051 1.29417 0
M  V30 31556 H 3104.99 -0.606013 4.06002 0
M  V30 31557 H 3103.65 -1.02426 2.9693 0
M  V30 31558 H 3102.84 0.155361 5.0376 0
M  V30 31559 H 3102.45 1.09034 3.57754 0
M  V30 31560 H 3104.74 0.762805 6.73192 0
M  V30 31561 H 3105.68 2.28671 6.7016 0
M  V30 31562 H 3106.09 0.970778 5.5609 0
M  V30 31563 N 3105.49 -1.35184 0.810125 0
M  V30 31564 C 3106.4 -2.33522 0.224606 0
M  V30 31565 C 3107.41 -1.62028 -0.634258 0
M  V30 31566 O 3108.59 -1.93881 -0.545177 0
M  V30 31567 C 3105.66 -3.41215 -0.614259 0
M  V30 31568 C 3104.72 -4.28478 0.26551 0
M  V30 31569 C 3103.95 -5.31028 -0.533412 0
M  V30 31570 O 3104.17 -5.42314 -1.76781 0
M  V30 31571 O 3103.11 -6.0185 0.0775631 0
M  V30 31572 H 3106.93 -2.85403 1.0382 0
M  V30 31573 H 3104.52 -1.38017 0.571988 0
M  V30 31574 H 3106.4 -4.07007 -1.09194 0
M  V30 31575 H 3105.07 -2.91599 -1.4054 0
M  V30 31576 H 3103.98 -3.65655 0.790407 0
M  V30 31577 H 3105.31 -4.81501 1.02068 0
M  V30 31578 N 3106.97 -0.56394 -1.47165 0
M  V30 31579 C 3107.91 0.179973 -2.30097 0
M  V30 31580 C 3108.88 0.901995 -1.39475 0
M  V30 31581 O 3110.07 0.896366 -1.68434 0
M  V30 31582 C 3107.21 1.19972 -3.23575 0
M  V30 31583 C 3106.32 0.483073 -4.29291 0
M  V30 31584 C 3105.46 1.4887 -5.09913 0
M  V30 31585 C 3104.5 0.757406 -6.07396 0
M  V30 31586 N 3103.63 1.71019 -6.80953 0
M  V30 31587 H 3108.47 -0.533341 -2.93188 0
M  V30 31588 H 3106.01 -0.27484 -1.4451 0
M  V30 31589 H 3107.97 1.80361 -3.76199 0
M  V30 31590 H 3106.6 1.88098 -2.62334 0
M  V30 31591 H 3105.65 -0.235481 -3.7967 0
M  V30 31592 H 3106.96 -0.0894952 -4.9872 0
M  V30 31593 H 3106.12 2.16593 -5.66721 0
M  V30 31594 H 3104.85 2.09519 -4.40401 0
M  V30 31595 H 3103.86 0.0662874 -5.4976 0
M  V30 31596 H 3105.08 0.156566 -6.78919 0
M  V30 31597 H 3103.03 2.30513 -6.14166 0
M  V30 31598 H 3102.95 1.18994 -7.46576 0
M  V30 31599 H 3104.22 2.37835 -7.4233 0
M  V30 31600 N 3108.44 1.54704 -0.300735 0
M  V30 31601 C 3109.67 2.05009 0.314037 0
M  V30 31602 C 3110.09 1.1766 1.46757 0
M  V30 31603 O 3109.45 0.180629 1.80398 0
M  V30 31604 C 3109.5 3.52753 0.748181 0
M  V30 31605 O 3108.6 3.68427 1.85298 0
M  V30 31606 H 3107.95 0.661192 0.0610023 0
M  V30 31607 H 3110.48 1.99758 -0.442502 0
M  V30 31608 H 3110.49 3.946 1.03706 0
M  V30 31609 H 3109.16 4.1579 -0.095646 0
M  V30 31610 H 3107.74 3.38485 1.56467 0
M  V30 31611 N 3109.92 0.0284543 1.57574 0
M  V30 31612 C 3110.85 -0.982355 2.07081 0
M  V30 31613 C 3111.87 -1.28924 0.994101 0
M  V30 31614 O 3113.06 -1.25401 1.27031 0
M  V30 31615 C 3110.16 -2.30994 2.47982 0
M  V30 31616 C 3109.33 -2.18831 3.78724 0
M  V30 31617 C 3108.39 -3.34517 4.06183 0
M  V30 31618 O 3107.41 -3.11432 4.76444 0
M  V30 31619 N 3108.62 -4.58287 3.56305 0
M  V30 31620 H 3111.38 -0.559959 2.94422 0
M  V30 31621 H 3108.94 -0.158318 1.61124 0
M  V30 31622 H 3110.93 -3.07212 2.63445 0
M  V30 31623 H 3109.5 -2.64877 1.6601 0
M  V30 31624 H 3108.72 -1.27344 3.73065 0
M  V30 31625 H 3110.01 -2.07907 4.64384 0
M  V30 31626 H 3109.41 -4.79937 2.99462 0
M  V30 31627 H 3107.97 -5.31676 3.77047 0
M  V30 31628 N 3111.4 -1.55689 -0.244686 0
M  V30 31629 C 3112.35 -1.90502 -1.30298 0
M  V30 31630 C 3113.32 -0.759504 -1.47718 0
M  V30 31631 O 3114.5 -1.01336 -1.61666 0
M  V30 31632 C 3111.64 -2.20708 -2.65296 0
M  V30 31633 C 3110.76 -3.48076 -2.55866 0
M  V30 31634 C 3109.89 -3.67841 -3.83232 0
M  V30 31635 C 3108.93 -4.88802 -3.68428 0
M  V30 31636 N 3108.07 -5.05076 -4.87691 0
M  V30 31637 H 3112.91 -2.80753 -0.999094 0
M  V30 31638 H 3110.44 -1.38976 -0.482074 0
M  V30 31639 H 3112.4 -2.36226 -3.4388 0
M  V30 31640 H 3111.03 -1.33658 -2.93829 0
M  V30 31641 H 3110.08 -3.40877 -1.6884 0
M  V30 31642 H 3111.4 -4.36805 -2.40838 0
M  V30 31643 H 3110.55 -3.8333 -4.70259 0
M  V30 31644 H 3109.29 -2.77349 -4.0116 0
M  V30 31645 H 3108.29 -4.73287 -2.79784 0
M  V30 31646 H 3109.52 -5.80756 -3.51993 0
M  V30 31647 H 3107.46 -4.17522 -5.05976 0
M  V30 31648 H 3107.38 -5.87898 -4.75302 0
M  V30 31649 H 3108.65 -5.24979 -5.7621 0
M  V30 31650 N 3112.88 0.510441 -1.49105 0
M  V30 31651 C 3113.79 1.63957 -1.67795 0
M  V30 31652 C 3114.8 1.64726 -0.560483 0
M  V30 31653 O 3115.98 1.8332 -0.834017 0
M  V30 31654 C 3113.05 3.00361 -1.7316 0
M  V30 31655 C 3112.11 3.10294 -2.96675 0
M  V30 31656 C 3111.34 4.40191 -3.01774 0
M  V30 31657 O 3111.56 5.28439 -2.14729 0
M  V30 31658 O 3110.5 4.54899 -3.94145 0
M  V30 31659 H 3114.32 1.51122 -2.63431 0
M  V30 31660 H 3111.91 0.685696 -1.32735 0
M  V30 31661 H 3113.79 3.81448 -1.79096 0
M  V30 31662 H 3112.46 3.13479 -0.807007 0
M  V30 31663 H 3111.37 2.28429 -2.96261 0
M  V30 31664 H 3112.7 3.02099 -3.88583 0
M  V30 31665 N 3114.36 1.38021 0.760791 0
M  V30 31666 C 3115.59 1.36852 1.54774 0
M  V30 31667 C 3115.99 -0.0453639 1.89146 0
M  V30 31668 O 3115.34 -1.02048 1.52748 0
M  V30 31669 C 3115.4 2.15274 2.87919 0
M  V30 31670 C 3115.06 3.64149 2.76124 0
M  V30 31671 C 3116.06 4.57798 2.46408 0
M  V30 31672 C 3113.75 4.07413 2.93803 0
M  V30 31673 C 3115.74 5.9269 2.34515 0
M  V30 31674 C 3113.43 5.42388 2.81529 0
M  V30 31675 C 3114.42 6.3484 2.51927 0
M  V30 31676 O 3114.11 7.67333 2.39699 0
M  V30 31677 H 3113.84 0.470112 0.485768 0
M  V30 31678 H 3116.4 1.82115 0.949907 0
M  V30 31679 H 3114.63 1.64718 3.49864 0
M  V30 31680 H 3116.32 2.06603 3.49385 0
M  V30 31681 H 3117.08 4.2568 2.32426 0
M  V30 31682 H 3112.96 3.35804 3.15843 0
M  V30 31683 H 3116.51 6.6482 2.1133 0
M  V30 31684 H 3112.4 5.74105 2.95083 0
M  V30 31685 H 3113.17 7.77775 2.54966 0
M  V30 31686 N 3115.83 -0.98818 1.22771 0
M  V30 31687 C 3116.74 -2.11339 1.01848 0
M  V30 31688 C 3117.76 -1.73965 -0.0346631 0
M  V30 31689 O 3118.94 -2.00771 0.159096 0
M  V30 31690 C 3116 -3.414 0.603897 0
M  V30 31691 C 3115.06 -3.92846 1.7312 0
M  V30 31692 C 3114.3 -5.167 1.3363 0
M  V30 31693 O 3114.52 -5.69987 0.217141 0
M  V30 31694 O 3113.45 -5.62017 2.15453 0
M  V30 31695 H 3117.28 -2.31876 1.96131 0
M  V30 31696 H 3114.86 -1.09713 1.01407 0
M  V30 31697 H 3116.75 -4.19653 0.38327 0
M  V30 31698 H 3115.42 -3.22212 -0.310026 0
M  V30 31699 H 3114.33 -3.15745 2.00639 0
M  V30 31700 H 3115.66 -4.16475 2.62316 0
M  V30 31701 N 3117.31 -1.03816 -1.18575 0
M  V30 31702 C 3118.26 -0.627027 -2.22119 0
M  V30 31703 C 3119.23 0.363884 -1.62065 0
M  V30 31704 O 3120.41 0.258436 -1.89042 0
M  V30 31705 C 3117.55 0.00644067 -3.45099 0
M  V30 31706 C 3116.67 -1.03163 -4.19501 0
M  V30 31707 C 3115.8 -0.366946 -5.29931 0
M  V30 31708 C 3114.84 -1.39029 -5.96102 0
M  V30 31709 N 3113.98 -0.750748 -6.98075 0
M  V30 31710 H 3118.82 -1.51454 -2.56643 0
M  V30 31711 H 3116.36 -0.757724 -1.26083 0
M  V30 31712 H 3118.31 0.391035 -4.15363 0
M  V30 31713 H 3116.94 0.857482 -3.11203 0
M  V30 31714 H 3116 -1.5342 -3.4809 0
M  V30 31715 H 3117.31 -1.80901 -4.6484 0
M  V30 31716 H 3116.46 0.0719913 -6.06657 0
M  V30 31717 H 3115.2 0.442545 -4.85688 0
M  V30 31718 H 3114.21 -1.83939 -5.18118 0
M  V30 31719 H 3115.43 -2.20144 -6.42428 0
M  V30 31720 H 3113.38 0.0384828 -6.55989 0
M  V30 31721 H 3113.29 -1.46587 -7.41652 0
M  V30 31722 H 3114.56 -0.336123 -7.78775 0
M  V30 31723 N 3118.79 1.34753 -0.817283 0
M  V30 31724 C 3119.72 2.3216 -0.24981 0
M  V30 31725 C 3120.7 1.57978 0.630636 0
M  V30 31726 O 3121.89 1.8599 0.558687 0
M  V30 31727 C 3119.02 3.42187 0.593765 0
M  V30 31728 C 3117.97 4.27582 -0.189072 0
M  V30 31729 C 3117.3 5.29026 0.776886 0
M  V30 31730 C 3118.6 5.03351 -1.39409 0
M  V30 31731 H 3120.29 2.7987 -1.06364 0
M  V30 31732 H 3117.84 1.34555 -0.512917 0
M  V30 31733 H 3119.79 4.09341 1.0009 0
M  V30 31734 H 3118.51 2.93112 1.44059 0
M  V30 31735 H 3117.17 3.62023 -0.577509 0
M  V30 31736 H 3116.82 4.76215 1.61951 0
M  V30 31737 H 3116.52 5.87036 0.257345 0
M  V30 31738 H 3118.04 5.9905 1.182 0
M  V30 31739 H 3119.46 5.63391 -1.06127 0
M  V30 31740 H 3117.86 5.70908 -1.84888 0
M  V30 31741 H 3118.93 4.33373 -2.17523 0
M  V30 31742 N 3120.27 0.571737 1.46864 0
M  V30 31743 C 3121.23 -0.157459 2.28658 0
M  V30 31744 C 3122.23 -0.829148 1.37774 0
M  V30 31745 O 3123.42 -0.682782 1.60261 0
M  V30 31746 C 3120.55 -1.23196 3.17861 0
M  V30 31747 H 3121.75 0.561222 2.94602 0
M  V30 31748 H 3119.3 0.329256 1.52793 0
M  V30 31749 H 3120.04 -1.98258 2.5664 0
M  V30 31750 H 3119.82 -0.754964 3.84763 0
M  V30 31751 H 3121.31 -1.74371 3.79453 0
M  V30 31752 N 3121.75 -1.54542 0.308935 0
M  V30 31753 C 3122.71 -2.22483 -0.550818 0
M  V30 31754 C 3123.71 -1.21345 -1.05508 0
M  V30 31755 O 3124.9 -1.46026 -0.94984 0
M  V30 31756 C 3122.03 -2.91743 -1.76349 0
M  V30 31757 H 3123.23 -2.99869 0.0428922 0
M  V30 31758 H 3120.78 -1.56185 0.0598524 0
M  V30 31759 H 3121.51 -2.18456 -2.39682 0
M  V30 31760 H 3121.3 -3.65891 -1.40947 0
M  V30 31761 H 3122.79 -3.43549 -2.37411 0
M  V30 31762 N 3123.23 -0.0368104 -1.57557 0
M  V30 31763 C 3124.45 0.653673 -1.9683 0
M  V30 31764 C 3124.88 1.64424 -0.913588 0
M  V30 31765 O 3124.23 1.80871 0.124717 0
M  V30 31766 C 3124.28 1.32964 -3.35191 0
M  V30 31767 O 3123.39 2.44507 -3.32099 0
M  V30 31768 H 3122.73 0.171113 -0.641573 0
M  V30 31769 H 3125.26 -0.100947 -2.04351 0
M  V30 31770 H 3125.27 1.68465 -3.71596 0
M  V30 31771 H 3123.94 0.603582 -4.11497 0
M  V30 31772 H 3122.52 2.1106 -3.07422 0
M  V30 31773 N 3124.7 1.55817 0.236426 0
M  V30 31774 C 3125.63 1.94208 1.29636 0
M  V30 31775 C 3126.61 0.808346 1.49666 0
M  V30 31776 O 3127.8 1.06947 1.62098 0
M  V30 31777 C 3124.93 2.24589 2.6491 0
M  V30 31778 C 3123.88 3.40313 2.59559 0
M  V30 31779 C 3123.21 3.56261 3.98726 0
M  V30 31780 C 3124.51 4.7571 2.15633 0
M  V30 31781 H 3126.2 2.82993 0.977503 0
M  V30 31782 H 3123.75 1.36156 0.46878 0
M  V30 31783 H 3125.7 2.50037 3.39204 0
M  V30 31784 H 3124.43 1.32641 2.98453 0
M  V30 31785 H 3123.09 3.1489 1.87722 0
M  V30 31786 H 3122.73 2.61715 4.29551 0
M  V30 31787 H 3122.43 4.34089 3.96031 0
M  V30 31788 H 3123.96 3.84041 4.74705 0
M  V30 31789 H 3125.37 5.00461 2.79664 0
M  V30 31790 H 3123.77 5.56714 2.24029 0
M  V30 31791 H 3124.84 4.72066 1.10822 0
M  V30 31792 N 3126.18 -0.502526 1.49373 0
M  V30 31793 C 3127.13 -1.62509 1.66414 0
M  V30 31794 C 3128.12 -1.60893 0.53009 0
M  V30 31795 O 3129.33 -1.65419 0.709677 0
M  V30 31796 H 3125.7 -0.53868 0.524717 0
M  V30 31797 H 3127.68 -1.45289 2.60641 0
M  V30 31798 C 3126.42 -3.00652 1.74653 0
M  V30 31799 H 3125.75 -3.02601 2.6129 0
M  V30 31800 H 3127.19 -3.78739 1.90612 0
M  V30 31801 C 3125.65 -3.33303 0.491022 0
M  V30 31802 O 3126.18 -3.99861 -0.383968 0
M  V30 31803 N 3124.38 -2.88431 0.354426 0
M  V30 31804 H 3123.93 -2.34442 1.06746 0
M  V30 31805 H 3123.89 -3.10644 -0.484539 0
M  V30 31806 N 3127.66 -1.38422 -0.75346 0
M  V30 31807 C 3128.57 -1.37896 -1.89795 0
M  V30 31808 C 3129.59 -0.276053 -1.71796 0
M  V30 31809 O 3130.76 -0.514498 -1.94717 0
M  V30 31810 C 3127.83 -1.2029 -3.25163 0
M  V30 31811 C 3126.89 -2.40386 -3.55687 0
M  V30 31812 C 3126.12 -2.23611 -4.84597 0
M  V30 31813 O 3126.34 -1.22988 -5.56983 0
M  V30 31814 O 3125.28 -3.12203 -5.146 0
M  V30 31815 H 3129.1 -2.34329 -1.93193 0
M  V30 31816 H 3126.69 -1.19343 -0.898754 0
M  V30 31817 H 3128.57 -1.12532 -4.06097 0
M  V30 31818 H 3127.25 -0.269409 -3.22577 0
M  V30 31819 H 3126.15 -2.53718 -2.74914 0
M  V30 31820 H 3127.49 -3.32366 -3.63034 0
M  V30 31821 N 3129.14 0.981655 -1.23294 0
M  V30 31822 C 3130.1 2.0554 -1.0142 0
M  V30 31823 C 3131.1 1.60783 0.0235071 0
M  V30 31824 O 3132.29 1.72854 -0.216113 0
M  V30 31825 C 3129.42 3.36687 -0.534299 0
M  V30 31826 H 3130.62 2.26378 -1.96706 0
M  V30 31827 H 3128.17 1.15488 -1.0532 0
M  V30 31828 H 3128.9 3.21537 0.422395 0
M  V30 31829 H 3128.69 3.70512 -1.28311 0
M  V30 31830 H 3130.18 4.15662 -0.401863 0
M  V30 31831 N 3130.62 1.04444 1.18022 0
M  V30 31832 C 3132.03 0.764374 1.40105 0
M  V30 31833 C 3132.23 -0.644482 1.90915 0
M  V30 31834 O 3131.29 -1.40809 2.09593 0
M  V30 31835 C 3132.6 1.81365 2.39848 0
M  V30 31836 C 3134.15 1.835 2.53568 0
M  V30 31837 C 3134.62 2.8743 3.56578 0
M  V30 31838 N 3136.11 2.86345 3.64089 0
M  V30 31839 C 3136.85 3.63412 4.4353 0
M  V30 31840 N 3136.35 4.50242 5.26549 0
M  V30 31841 N 3138.14 3.51885 4.3833 0
M  V30 31842 H 3130.29 1.95354 0.833692 0
M  V30 31843 H 3132.55 0.845482 0.428795 0
M  V30 31844 H 3132.26 2.82441 2.09571 0
M  V30 31845 H 3132.13 1.64896 3.39248 0
M  V30 31846 H 3134.52 0.830933 2.8316 0
M  V30 31847 H 3134.6 2.04046 1.54268 0
M  V30 31848 H 3134.24 3.88018 3.27726 0
M  V30 31849 H 3134.17 2.64138 4.55564 0
M  V30 31850 H 3136.67 2.23381 3.0481 0
M  V30 31851 H 3136.98 5.05748 5.84327 0
M  V30 31852 H 3135.32 4.54308 5.25956 0
M  V30 31853 H 3138.51 2.83451 3.72523 0
M  V30 31854 H 3138.69 4.12195 5 0
M  V30 31855 N 3132.09 -1.34317 0.824418 0
M  V30 31856 C 3133.03 -2.28283 0.204845 0
M  V30 31857 C 3134.04 -1.51095 -0.606136 0
M  V30 31858 O 3135.23 -1.73104 -0.435572 0
M  V30 31859 C 3132.33 -3.30915 -0.731332 0
M  V30 31860 C 3131.5 -4.37384 0.0371491 0
M  V30 31861 C 3130.56 -5.19769 -0.82018 0
M  V30 31862 O 3129.59 -5.68585 -0.264621 0
M  V30 31863 N 3130.79 -5.39625 -2.13975 0
M  V30 31864 H 3133.55 -2.82092 1.01215 0
M  V30 31865 H 3131.11 -1.46857 0.681519 0
M  V30 31866 H 3133.11 -3.82928 -1.30951 0
M  V30 31867 H 3131.68 -2.7749 -1.43938 0
M  V30 31868 H 3130.9 -3.86066 0.796646 0
M  V30 31869 H 3132.18 -5.05641 0.566103 0
M  V30 31870 H 3131.58 -5.01641 -2.61483 0
M  V30 31871 H 3130.14 -5.9475 -2.66675 0
M  V30 31872 N 3133.57 -0.579517 -1.46558 0
M  V30 31873 C 3134.48 0.158119 -2.34067 0
M  V30 31874 C 3135.5 0.889294 -1.49558 0
M  V30 31875 O 3136.67 0.853193 -1.82435 0
M  V30 31876 C 3133.74 1.16094 -3.26685 0
M  V30 31877 C 3132.8 0.43478 -4.27093 0
M  V30 31878 C 3132.03 1.38983 -5.15286 0
M  V30 31879 O 3132.26 2.62615 -5.06349 0
M  V30 31880 O 3131.19 0.902149 -5.95101 0
M  V30 31881 H 3135.02 -0.560286 -2.98487 0
M  V30 31882 H 3132.6 -0.339943 -1.45481 0
M  V30 31883 H 3134.48 1.73925 -3.83833 0
M  V30 31884 H 3133.16 1.86087 -2.64865 0
M  V30 31885 H 3132.06 -0.185289 -3.73641 0
M  V30 31886 H 3133.4 -0.224118 -4.91689 0
M  V30 31887 N 3135.05 1.54376 -0.317127 0
M  V30 31888 C 3135.98 2.27061 0.544583 0
M  V30 31889 C 3136.96 1.27613 1.12467 0
M  V30 31890 O 3138.15 1.56415 1.151 0
M  V30 31891 C 3135.28 3.02356 1.70874 0
M  V30 31892 C 3134.23 4.09087 1.25826 0
M  V30 31893 C 3133.56 4.72187 2.50886 0
M  V30 31894 C 3134.86 5.20932 0.377784 0
M  V30 31895 H 3136.55 2.99336 -0.0616898 0
M  V30 31896 H 3134.1 1.43966 -0.0311101 0
M  V30 31897 H 3136.05 3.51931 2.3178 0
M  V30 31898 H 3134.77 2.27686 2.34151 0
M  V30 31899 H 3133.43 3.60385 0.672164 0
M  V30 31900 H 3133.08 3.94139 3.12511 0
M  V30 31901 H 3132.78 5.44279 2.21438 0
M  V30 31902 H 3134.3 5.24533 3.12566 0
M  V30 31903 H 3135.72 5.66303 0.892957 0
M  V30 31904 H 3134.12 5.99841 0.176368 0
M  V30 31905 H 3135.19 4.8126 -0.593028 0
M  V30 31906 N 3136.53 0.0451655 1.57535 0
M  V30 31907 C 3137.75 -0.643225 1.97173 0
M  V30 31908 C 3138.18 -1.63937 0.922295 0
M  V30 31909 O 3137.54 -1.80934 -0.115123 0
M  V30 31910 C 3137.58 -1.31184 3.35891 0
M  V30 31911 O 3136.69 -2.42743 3.33391 0
M  V30 31912 H 3136.03 -0.167708 0.642472 0
M  V30 31913 H 3138.56 0.111783 2.04294 0
M  V30 31914 H 3138.57 -1.66492 3.72484 0
M  V30 31915 H 3137.24 -0.581751 4.11811 0
M  V30 31916 H 3135.82 -2.09427 3.08537 0
M  V30 31917 N 3138.01 -1.5594 -0.228159 0
M  V30 31918 C 3139.28 -1.69426 -0.977462 0
M  V30 31919 C 3139.66 -0.590514 -2.02672 0
M  V30 31920 O 3139.01 0.403428 -2.2491 0
M  V30 31921 C 3139.22 -3.10478 -1.59388 0
M  V30 31922 C 3140.57 -3.69676 -2.08865 0
M  V30 31923 O 3141.59 -3.13397 -1.69294 0
M  V30 31924 O 3140.45 -4.68377 -2.81576 0
M  V30 31925 H 3137.55 -0.689808 -0.456173 0
M  V30 31926 H 3140.09 -1.68262 -0.220463 0
M  V30 31927 H 3138.86 -3.82267 -0.835904 0
M  V30 31928 H 3138.49 -3.15732 -2.41659 0
M  V30 31929 N 3139.48 0.494597 -1.49638 0
M  V30 31930 C 3140.43 1.59542 -1.66778 0
M  V30 31931 C 3141.4 1.58103 -0.509187 0
M  V30 31932 O 3142.59 1.75992 -0.73698 0
M  V30 31933 C 3139.73 2.97655 -1.7463 0
M  V30 31934 C 3138.84 3.09061 -3.01836 0
M  V30 31935 C 3137.97 4.37946 -3.00627 0
M  V30 31936 C 3137.01 4.43009 -4.22385 0
M  V30 31937 N 3136.15 5.63331 -4.19049 0
M  V30 31938 H 3140.99 1.44233 -2.6077 0
M  V30 31939 H 3138.53 0.70165 -1.29288 0
M  V30 31940 H 3140.49 3.77716 -1.77162 0
M  V30 31941 H 3139.12 3.11652 -0.840991 0
M  V30 31942 H 3138.17 2.22023 -3.08885 0
M  V30 31943 H 3139.48 3.08662 -3.91828 0
M  V30 31944 H 3138.63 5.26334 -3.01758 0
M  V30 31945 H 3137.37 4.4092 -2.08424 0
M  V30 31946 H 3136.38 3.53023 -4.21491 0
M  V30 31947 H 3137.6 4.41746 -5.15788 0
M  V30 31948 H 3135.55 5.67135 -3.29687 0
M  V30 31949 H 3135.47 5.64575 -5.02784 0
M  V30 31950 H 3136.73 6.53908 -4.24293 0
M  V30 31951 N 3140.96 1.3882 0.746109 0
M  V30 31952 C 3142.21 1.35638 1.50765 0
M  V30 31953 C 3142.54 -0.0512093 1.94132 0
M  V30 31954 O 3141.82 -1.01393 1.65981 0
M  V30 31955 C 3142.1 2.3188 2.75506 0
M  V30 31956 C 3141.95 3.81532 2.38229 0
M  V30 31957 C 3143.27 2.26131 3.77562 0
M  V30 31958 H 3140.39 0.494019 0.546913 0
M  V30 31959 H 3143.03 1.69726 0.853988 0
M  V30 31960 H 3141.18 2.02941 3.31281 0
M  V30 31961 H 3142.85 4.21176 1.88171 0
M  V30 31962 H 3141.1 3.98849 1.70594 0
M  V30 31963 H 3141.77 4.44344 3.27509 0
M  V30 31964 H 3144.24 2.51695 3.31344 0
M  V30 31965 H 3143.12 2.9557 4.62526 0
M  V30 31966 H 3143.38 1.26262 4.23687 0
M  V30 31967 N 3142.44 -0.975103 1.23812 0
M  V30 31968 C 3143.86 -1.24233 1.00192 0
M  V30 31969 C 3144.06 -1.99347 -0.293776 0
M  V30 31970 O 3143.11 -2.31339 -1.01185 0
M  V30 31971 C 3144.43 -2.0367 2.21222 0
M  V30 31972 C 3145.97 -2.16789 2.25768 0
M  V30 31973 C 3146.45 -2.99619 3.46399 0
M  V30 31974 N 3147.94 -3.07203 3.4667 0
M  V30 31975 C 3148.67 -3.71632 4.36666 0
M  V30 31976 N 3148.17 -4.37839 5.36906 0
M  V30 31977 N 3149.96 -3.6857 4.24396 0
M  V30 31978 H 3142.11 -0.47204 2.07088 0
M  V30 31979 H 3144.38 -0.271185 0.908385 0
M  V30 31980 H 3144.08 -1.55857 3.1528 0
M  V30 31981 H 3143.96 -3.04413 2.22738 0
M  V30 31982 H 3146.34 -2.63809 1.32246 0
M  V30 31983 H 3146.43 -1.15418 2.28281 0
M  V30 31984 H 3146.07 -2.53296 4.40231 0
M  V30 31985 H 3146 -4.01172 3.41128 0
M  V30 31986 H 3148.49 -2.601 2.74146 0
M  V30 31987 H 3148.8 -4.84796 6.01824 0
M  V30 31988 H 3147.15 -4.36531 5.40801 0
M  V30 31989 H 3150.34 -3.16019 3.45326 0
M  V30 31990 H 3150.51 -4.18499 4.94735 0
M  V30 31991 N 3143.92 -1.05068 -1.17467 0
M  V30 31992 C 3144.83 -0.661262 -2.25088 0
M  V30 31993 C 3145.84 0.31709 -1.71086 0
M  V30 31994 O 3147.02 0.169498 -2.00685 0
M  V30 31995 C 3144.09 -0.0407024 -3.46676 0
M  V30 31996 C 3143.15 -1.06934 -4.15769 0
M  V30 31997 C 3142.38 -0.478301 -5.31552 0
M  V30 31998 O 3142.6 0.712615 -5.65931 0
M  V30 31999 O 3141.54 -1.21195 -5.89572 0
M  V30 32000 H 3145.36 -1.55815 -2.60683 0
M  V30 32001 H 3142.95 -0.822169 -1.24743 0
M  V30 32002 H 3144.83 0.304238 -4.203 0
M  V30 32003 H 3143.5 0.829854 -3.12882 0
M  V30 32004 H 3142.41 -1.46625 -3.44168 0
M  V30 32005 H 3143.74 -1.911 -4.53587 0
M  V30 32006 N 3145.4 1.33878 -0.831529 0
M  V30 32007 C 3146.33 2.31882 -0.274419 0
M  V30 32008 C 3147.31 1.58638 0.613844 0
M  V30 32009 O 3148.49 1.86572 0.538928 0
M  V30 32010 C 3145.62 3.42797 0.557438 0
M  V30 32011 C 3144.58 4.27358 -0.234412 0
M  V30 32012 C 3143.9 5.2982 0.720732 0
M  V30 32013 C 3145.2 5.01844 -1.4474 0
M  V30 32014 H 3146.9 2.78726 -1.09327 0
M  V30 32015 H 3144.44 1.34004 -0.52716 0
M  V30 32016 H 3146.4 4.10379 0.957429 0
M  V30 32017 H 3145.12 2.94623 1.40942 0
M  V30 32018 H 3143.78 3.6139 -0.615874 0
M  V30 32019 H 3143.43 4.77906 1.56891 0
M  V30 32020 H 3143.13 5.87276 0.195068 0
M  V30 32021 H 3144.65 6.0027 1.1184 0
M  V30 32022 H 3146.06 5.62234 -1.12097 0
M  V30 32023 H 3144.46 5.68915 -1.90933 0
M  V30 32024 H 3145.53 4.31041 -2.22107 0
M  V30 32025 N 3146.87 0.587281 1.46249 0
M  V30 32026 C 3148.1 0.0784881 2.07251 0
M  V30 32027 C 3148.52 -1.21916 1.43241 0
M  V30 32028 O 3147.88 -1.73748 0.517822 0
M  V30 32029 C 3147.93 -0.0690403 3.60534 0
M  V30 32030 O 3147.03 -1.12441 3.96775 0
M  V30 32031 H 3146.38 0.0648707 0.660824 0
M  V30 32032 H 3148.91 0.811524 1.87818 0
M  V30 32033 H 3148.92 -0.273754 4.07081 0
M  V30 32034 H 3147.59 0.878586 4.06514 0
M  V30 32035 H 3146.17 -0.897788 3.61931 0
M  V30 32036 N 3148.35 -1.54206 0.325309 0
M  V30 32037 C 3149.77 -1.59577 -0.0272756 0
M  V30 32038 C 3149.97 -1.3418 -1.50326 0
M  V30 32039 O 3149.02 -1.12709 -2.25949 0
M  V30 32040 C 3150.34 -2.98127 0.392521 0
M  V30 32041 C 3151.89 -3.11111 0.343324 0
M  V30 32042 C 3152.36 -4.5201 0.738308 0
M  V30 32043 N 3153.85 -4.58005 0.691782 0
M  V30 32044 C 3154.59 -5.65143 0.969578 0
M  V30 32045 N 3154.08 -6.80213 1.3146 0
M  V30 32046 N 3155.88 -5.54929 0.895024 0
M  V30 32047 H 3148.03 -1.68971 1.28695 0
M  V30 32048 H 3150.29 -0.790407 0.523413 0
M  V30 32049 H 3150 -3.21717 1.42094 0
M  V30 32050 H 3149.87 -3.76426 -0.241585 0
M  V30 32051 H 3152.26 -2.87255 -0.675895 0
M  V30 32052 H 3152.34 -2.34914 1.01239 0
M  V30 32053 H 3151.98 -4.76599 1.75545 0
M  V30 32054 H 3151.91 -5.26579 0.0469152 0
M  V30 32055 H 3154.4 -3.75364 0.437041 0
M  V30 32056 H 3154.72 -7.57866 1.5119 0
M  V30 32057 H 3153.06 -6.81705 1.35288 0
M  V30 32058 H 3156.25 -4.63909 0.624957 0
M  V30 32059 H 3156.42 -6.38337 1.11488 0
M  V30 32060 N 3149.83 -0.0535194 -1.57509 0
M  V30 32061 C 3151.06 0.63276 -1.97512 0
M  V30 32062 C 3151.48 1.63446 -0.930976 0
M  V30 32063 O 3150.84 1.80993 0.105526 0
M  V30 32064 C 3150.89 1.29401 -3.36582 0
M  V30 32065 O 3149.99 2.40971 -3.34674 0
M  V30 32066 H 3149.33 0.164298 -0.643352 0
M  V30 32067 H 3151.86 -0.122616 -2.04232 0
M  V30 32068 H 3151.87 1.64514 -3.73362 0
M  V30 32069 H 3150.55 0.559903 -4.12114 0
M  V30 32070 H 3149.12 2.07787 -3.09643 0
M  V30 32071 N 3151.31 1.56059 0.219886 0
M  V30 32072 C 3152.27 1.9172 1.25603 0
M  V30 32073 C 3153.27 0.795937 1.39719 0
M  V30 32074 O 3154.46 1.06367 1.37956 0
M  V30 32075 C 3151.59 2.16948 2.62957 0
M  V30 32076 H 3152.79 2.84393 0.951859 0
M  V30 32077 H 3150.34 1.49366 0.460372 0
M  V30 32078 H 3151.08 1.26831 2.9847 0
M  V30 32079 H 3150.86 2.98633 2.54088 0
M  V30 32080 H 3152.35 2.45628 3.37723 0
M  V30 32081 N 3152.79 -0.486655 1.49898 0
M  V30 32082 C 3154.04 -1.23739 1.59791 0
M  V30 32083 C 3154.36 -1.92785 0.29309 0
M  V30 32084 O 3153.63 -1.83402 -0.688502 0
M  V30 32085 H 3152.21 -0.459721 0.588783 0
M  V30 32086 H 3154.87 -0.562775 1.86598 0
M  V30 32087 H 3153.96 -1.99366 2.40124 0
M  V30 32088 N 3154.27 -1.39214 -0.738737 0
M  V30 32089 C 3155.21 -1.37635 -1.85271 0
M  V30 32090 C 3156.18 -0.236601 -1.64406 0
M  V30 32091 O 3157.37 -0.431136 -1.85865 0
M  V30 32092 C 3154.51 -1.22193 -3.22743 0
M  V30 32093 C 3153.62 -2.45681 -3.55338 0
M  V30 32094 C 3152.76 -2.22856 -4.82192 0
M  V30 32095 C 3151.79 -3.42038 -5.07619 0
M  V30 32096 N 3150.93 -3.18554 -6.25674 0
M  V30 32097 H 3155.77 -2.32862 -1.85955 0
M  V30 32098 H 3153.31 -1.15677 -0.908696 0
M  V30 32099 H 3155.27 -1.11253 -4.02093 0
M  V30 32100 H 3153.9 -0.305977 -3.21347 0
M  V30 32101 H 3152.95 -2.67238 -2.70717 0
M  V30 32102 H 3154.26 -3.34463 -3.70048 0
M  V30 32103 H 3153.41 -2.09136 -5.69515 0
M  V30 32104 H 3152.15 -1.31462 -4.69648 0
M  V30 32105 H 3151.16 -3.5626 -4.18759 0
M  V30 32106 H 3152.38 -4.34328 -5.2205 0
M  V30 32107 H 3150.33 -2.29821 -6.14425 0
M  V30 32108 H 3150.25 -4.00892 -6.40954 0
M  V30 32109 H 3151.51 -3.0852 -7.15846 0
M  V30 32110 N 3155.74 0.968523 -1.24328 0
M  V30 32111 C 3156.97 1.74636 -1.1095 0
M  V30 32112 C 3157.39 1.85749 0.338032 0
M  V30 32113 O 3156.74 1.34523 1.23329 0
M  V30 32114 C 3156.79 3.16727 -1.74259 0
M  V30 32115 O 3156.52 3.06173 -3.13353 0
M  V30 32116 C 3158.02 4.10852 -1.6648 0
M  V30 32117 H 3155.24 0.547673 -0.38768 0
M  V30 32118 H 3157.78 1.21602 -1.64417 0
M  V30 32119 H 3155.94 3.66749 -1.24796 0
M  V30 32120 H 3156.35 3.95707 -3.44262 0
M  V30 32121 H 3157.82 5.08213 -2.15461 0
M  V30 32122 H 3158.3 4.34718 -0.625862 0
M  V30 32123 H 3158.91 3.66739 -2.15365 0
M  V30 32124 N 3157.22 1.0569 1.16908 0
M  V30 32125 C 3158.45 0.790512 1.91744 0
M  V30 32126 C 3158.87 -0.648447 1.76569 0
M  V30 32127 O 3158.23 -1.45112 1.08684 0
M  V30 32128 C 3158.28 1.18228 3.40668 0
M  V30 32129 O 3157.38 0.317413 4.11177 0
M  V30 32130 H 3156.72 0.289441 0.597595 0
M  V30 32131 H 3159.25 1.41108 1.48154 0
M  V30 32132 H 3159.26 1.15121 3.91422 0
M  V30 32133 H 3157.94 2.23046 3.51032 0
M  V30 32134 H 3156.51 0.409524 3.70644 0
M  V30 32135 N 3158.7 -1.33435 0.838617 0
M  V30 32136 C 3159.63 -2.31733 0.286713 0
M  V30 32137 C 3160.61 -1.58961 -0.605423 0
M  V30 32138 O 3161.8 -1.86855 -0.529026 0
M  V30 32139 C 3158.93 -3.43088 -0.539251 0
M  V30 32140 C 3157.88 -4.27227 0.257072 0
M  V30 32141 C 3157.21 -5.30195 -0.692625 0
M  V30 32142 C 3158.51 -5.01069 1.474 0
M  V30 32143 H 3160.2 -2.78142 1.10803 0
M  V30 32144 H 3157.75 -1.33722 0.534259 0
M  V30 32145 H 3159.7 -4.10881 -0.935652 0
M  V30 32146 H 3158.42 -2.95367 -1.39378 0
M  V30 32147 H 3157.08 -3.61058 0.63503 0
M  V30 32148 H 3156.73 -4.78731 -1.54354 0
M  V30 32149 H 3156.43 -5.87371 -0.16392 0
M  V30 32150 H 3157.95 -6.00855 -1.08655 0
M  V30 32151 H 3159.37 -5.61632 1.15077 0
M  V30 32152 H 3157.76 -5.67895 1.93947 0
M  V30 32153 H 3158.83 -4.29857 2.2439 0
M  V30 32154 N 3160.18 -0.595029 -1.45935 0
M  V30 32155 C 3161.42 -0.0854673 -2.0262 0
M  V30 32156 C 3161.76 1.27591 -1.46404 0
M  V30 32157 O 3161.03 1.83882 -0.633855 0
M  V30 32158 C 3161.31 -0.0329708 -3.60085 0
M  V30 32159 C 3161.17 -1.42412 -4.2666 0
M  V30 32160 C 3162.49 0.661349 -4.35102 0
M  V30 32161 H 3159.61 -0.0325325 -0.736282 0
M  V30 32162 H 3162.25 -0.764593 -1.73937 0
M  V30 32163 H 3160.4 0.545371 -3.84653 0
M  V30 32164 H 3162.07 -2.04858 -4.13317 0
M  V30 32165 H 3160.31 -1.98839 -3.85546 0
M  V30 32166 H 3160.98 -1.33975 -5.35495 0
M  V30 32167 H 3163.46 0.169904 -4.15753 0
M  V30 32168 H 3162.34 0.667147 -5.44831 0
M  V30 32169 H 3162.6 1.72505 -4.07056 0
M  V30 32170 N 3161.66 1.54031 -0.333483 0
M  V30 32171 C 3162.57 2.2838 0.536634 0
M  V30 32172 C 3163.58 1.33106 1.12066 0
M  V30 32173 O 3164.76 1.66133 1.1385 0
M  V30 32174 C 3161.82 3.03459 1.67672 0
M  V30 32175 C 3160.88 4.14338 1.1235 0
M  V30 32176 C 3160.12 4.85827 2.20924 0
M  V30 32177 O 3160.34 4.56906 3.41458 0
M  V30 32178 O 3159.27 5.7251 1.85785 0
M  V30 32179 H 3163.1 3.03625 -0.0674537 0
M  V30 32180 H 3160.68 1.49073 -0.0988492 0
M  V30 32181 H 3162.57 3.50442 2.34026 0
M  V30 32182 H 3161.24 2.3108 2.2668 0
M  V30 32183 H 3160.15 3.71681 0.424761 0
M  V30 32184 H 3161.48 4.8879 0.578411 0
M  V30 32185 N 3163.13 0.0618717 1.57479 0
M  V30 32186 C 3164.04 -0.923788 2.15646 0
M  V30 32187 C 3165.06 -1.33411 1.11703 0
M  V30 32188 O 3166.24 -1.40884 1.43922 0
M  V30 32189 C 3163.3 -2.1766 2.69861 0
M  V30 32190 C 3162.36 -1.82363 3.88642 0
M  V30 32191 C 3161.59 -3.01672 4.40261 0
M  V30 32192 O 3161.82 -4.15381 3.90916 0
M  V30 32193 O 3160.75 -2.82064 5.31717 0
M  V30 32194 H 3164.58 -0.459042 3.00211 0
M  V30 32195 H 3162.16 -0.160639 1.48534 0
M  V30 32196 H 3164.04 -2.91145 3.04652 0
M  V30 32197 H 3162.72 -2.63252 1.88362 0
M  V30 32198 H 3161.63 -1.06161 3.58721 0
M  V30 32199 H 3162.96 -1.41562 4.71403 0
M  V30 32200 N 3164.61 -1.56173 -0.211607 0
M  V30 32201 C 3165.58 -1.92383 -1.24584 0
M  V30 32202 C 3166.58 -0.803335 -1.39295 0
M  V30 32203 O 3167.77 -1.07097 -1.3739 0
M  V30 32204 C 3164.9 -2.18339 -2.61803 0
M  V30 32205 H 3166.09 -2.84894 -0.936764 0
M  V30 32206 H 3163.64 -1.49608 -0.452444 0
M  V30 32207 H 3164.38 -1.28412 -2.97793 0
M  V30 32208 H 3164.16 -2.99977 -2.525 0
M  V30 32209 H 3165.65 -2.47415 -3.36415 0
M  V30 32210 N 3166.09 0.478699 -1.50154 0
M  V30 32211 C 3167 1.60361 -1.71235 0
M  V30 32212 C 3168.02 1.635 -0.595298 0
M  V30 32213 O 3169.19 1.81509 -0.872715 0
M  V30 32214 C 3166.26 2.9662 -1.79492 0
M  V30 32215 C 3165.32 3.03931 -3.0319 0
M  V30 32216 C 3164.55 4.33691 -3.11044 0
M  V30 32217 O 3164.77 5.23765 -2.25889 0
M  V30 32218 O 3163.71 4.46436 -4.03706 0
M  V30 32219 H 3167.53 1.455 -2.66577 0
M  V30 32220 H 3165.12 0.657387 -1.3416 0
M  V30 32221 H 3167 3.77563 -1.87147 0
M  V30 32222 H 3165.68 3.11697 -0.873319 0
M  V30 32223 H 3164.58 2.22094 -3.0104 0
M  V30 32224 H 3165.92 2.93789 -3.94904 0
M  V30 32225 N 3167.57 1.39603 0.731343 0
M  V30 32226 C 3168.52 1.38615 1.84538 0
M  V30 32227 C 3169.49 0.245316 1.64278 0
M  V30 32228 O 3170.67 0.440987 1.85634 0
M  V30 32229 C 3167.81 1.23903 3.2209 0
M  V30 32230 C 3166.92 2.47562 3.5403 0
M  V30 32231 C 3166.06 2.2541 4.81003 0
M  V30 32232 C 3165.1 3.44725 5.05797 0
M  V30 32233 N 3164.23 3.21868 6.23976 0
M  V30 32234 H 3169.07 2.33845 1.84718 0
M  V30 32235 H 3166.61 1.16157 0.902548 0
M  V30 32236 H 3168.57 1.13383 4.01497 0
M  V30 32237 H 3167.2 0.323014 3.2118 0
M  V30 32238 H 3166.25 2.6867 2.69296 0
M  V30 32239 H 3167.56 3.36421 3.68269 0
M  V30 32240 H 3166.72 2.12153 5.68398 0
M  V30 32241 H 3165.46 1.33951 4.68944 0
M  V30 32242 H 3164.46 3.58476 4.16863 0
M  V30 32243 H 3165.69 4.3709 5.19739 0
M  V30 32244 H 3163.63 2.33076 6.13198 0
M  V30 32245 H 3163.55 4.04285 6.38819 0
M  V30 32246 H 3164.82 3.12312 7.142 0
M  V30 32247 N 3169.05 -0.961916 1.2484 0
M  V30 32248 C 3170 -2.04271 1.01279 0
M  V30 32249 C 3170.98 -1.60829 -0.0477957 0
M  V30 32250 O 3172.17 -1.76214 0.166647 0
M  V30 32251 C 3169.3 -3.37549 0.625719 0
M  V30 32252 C 3168.39 -3.87536 1.72269 0
M  V30 32253 N 3168.78 -4.10395 2.95651 0
M  V30 32254 C 3167.08 -4.16253 1.60153 0
M  V30 32255 C 3167.78 -4.51475 3.66804 0
M  V30 32256 N 3166.75 -4.56984 2.94391 0
M  V30 32257 H 3170.56 -2.19927 1.94959 0
M  V30 32258 H 3168.07 -1.14617 1.15051 0
M  V30 32259 H 3170.07 -4.14591 0.438145 0
M  V30 32260 H 3168.73 -3.23275 -0.30383 0
M  V30 32261 H 3169.74 -3.97679 3.31771 0
M  V30 32262 H 3166.41 -4.10882 0.740425 0
M  V30 32263 H 3167.8 -4.77526 4.72672 0
M  V30 32264 N 3170.52 -1.06308 -1.16346 0
M  V30 32265 C 3171.49 -0.678092 -2.1894 0
M  V30 32266 C 3172.49 0.276249 -1.58409 0
M  V30 32267 O 3173.68 0.0586129 -1.74101 0
M  V30 32268 C 3170.81 0.00222692 -3.409 0
M  V30 32269 H 3172 -1.58628 -2.54514 0
M  V30 32270 H 3169.56 -0.858321 -1.30624 0
M  V30 32271 H 3170.29 0.923157 -3.10883 0
M  V30 32272 H 3170.08 -0.684017 -3.86088 0
M  V30 32273 H 3171.57 0.257301 -4.16807 0
M  V30 32274 N 3172 1.32989 -0.845682 0
M  V30 32275 C 3173.42 1.50389 -0.534356 0
M  V30 32276 C 3173.62 1.78394 0.936908 0
M  V30 32277 O 3172.67 1.84821 1.72039 0
M  V30 32278 C 3173.99 2.65402 -1.41359 0
M  V30 32279 C 3175.54 2.79287 -1.41308 0
M  V30 32280 C 3176.01 3.97369 -2.27731 0
M  V30 32281 N 3177.5 4.04616 -2.25478 0
M  V30 32282 C 3178.24 4.95196 -2.89082 0
M  V30 32283 N 3177.73 5.90845 -3.61765 0
M  V30 32284 N 3179.53 4.88247 -2.78517 0
M  V30 32285 H 3171.68 1.13075 -1.798 0
M  V30 32286 H 3173.94 0.556511 -0.767463 0
M  V30 32287 H 3173.65 2.51409 -2.4594 0
M  V30 32288 H 3173.52 3.60971 -1.09452 0
M  V30 32289 H 3175.91 2.92708 -0.37495 0
M  V30 32290 H 3175.99 1.84458 -1.77225 0
M  V30 32291 H 3175.63 3.84707 -3.31606 0
M  V30 32292 H 3175.56 4.91456 -1.89151 0
M  V30 32293 H 3178.05 3.36167 -1.72628 0
M  V30 32294 H 3178.37 6.56639 -4.07486 0
M  V30 32295 H 3176.71 5.90899 -3.65873 0
M  V30 32296 H 3179.9 4.12489 -2.21292 0
M  V30 32297 H 3180.07 5.58639 -3.2837 0
M  V30 32298 N 3173.48 0.60276 1.45618 0
M  V30 32299 C 3174.71 0.100465 2.07157 0
M  V30 32300 C 3175.13 -1.2039 1.44526 0
M  V30 32301 O 3174.49 -1.73189 0.536221 0
M  V30 32302 C 3174.54 -0.030797 3.60587 0
M  V30 32303 O 3173.64 -1.08227 3.97946 0
M  V30 32304 H 3172.98 0.0718759 0.660098 0
M  V30 32305 H 3175.51 0.831399 1.86946 0
M  V30 32306 H 3175.52 -0.230563 4.07348 0
M  V30 32307 H 3174.2 0.921652 4.05559 0
M  V30 32308 H 3172.77 -0.85935 3.62863 0
M  V30 32309 N 3174.96 -1.53852 0.341647 0
M  V30 32310 C 3175.89 -2.27898 -0.508391 0
M  V30 32311 C 3176.87 -1.29386 -1.10423 0
M  V30 32312 O 3178.05 -1.58226 -1.12597 0
M  V30 32313 C 3175.18 -3.05036 -1.66042 0
M  V30 32314 C 3174.14 -4.11037 -1.19302 0
M  V30 32315 C 3173.46 -4.76119 -2.43342 0
M  V30 32316 C 3174.76 -5.21467 -0.29486 0
M  V30 32317 H 3176.46 -2.992 0.109304 0
M  V30 32318 H 3174 -1.43899 0.05401 0
M  V30 32319 H 3175.96 -3.55574 -2.26152 0
M  V30 32320 H 3174.68 -2.31383 -2.30499 0
M  V30 32321 H 3173.34 -3.61409 -0.614745 0
M  V30 32322 H 3172.99 -3.99061 -3.06201 0
M  V30 32323 H 3172.69 -5.47733 -2.12751 0
M  V30 32324 H 3174.21 -5.29439 -3.04181 0
M  V30 32325 H 3175.63 -5.67652 -0.80275 0
M  V30 32326 H 3174.02 -6.00045 -0.0809166 0
M  V30 32327 H 3175.09 -4.80256 0.669517 0
M  V30 32328 N 3176.44 -0.0702223 -1.57443 0
M  V30 32329 C 3177.37 0.927105 -2.09612 0
M  V30 32330 C 3178.38 1.26243 -1.02793 0
M  V30 32331 O 3179.57 1.21989 -1.30311 0
M  V30 32332 C 3176.67 2.24338 -2.54019 0
M  V30 32333 C 3175.84 2.08713 -3.84393 0
M  V30 32334 C 3174.9 3.2363 -4.14909 0
M  V30 32335 O 3173.93 2.98691 -4.84533 0
M  V30 32336 N 3175.13 4.48679 -3.6833 0
M  V30 32337 H 3177.9 0.481701 -2.95804 0
M  V30 32338 H 3175.46 0.115544 -1.61487 0
M  V30 32339 H 3177.45 3.00119 -2.71497 0
M  V30 32340 H 3176.02 2.60382 -1.72974 0
M  V30 32341 H 3175.24 1.17408 -3.7631 0
M  V30 32342 H 3176.53 1.95522 -4.69733 0
M  V30 32343 H 3175.92 4.71828 -3.12081 0
M  V30 32344 H 3174.48 5.21492 -3.91011 0
M  V30 32345 N 3177.91 1.56283 0.203321 0
M  V30 32346 C 3178.82 1.97082 1.27263 0
M  V30 32347 C 3179.84 0.877262 1.50267 0
M  V30 32348 O 3181.02 1.18234 1.63042 0
M  V30 32349 C 3178.08 2.295 2.59867 0
M  V30 32350 C 3177.14 3.5252 2.45006 0
M  V30 32351 C 3176.38 3.83382 3.71287 0
M  V30 32352 O 3176.6 3.15652 4.751 0
M  V30 32353 O 3175.53 4.76832 3.67307 0
M  V30 32354 H 3179.36 2.88247 0.95641 0
M  V30 32355 H 3176.94 1.43731 0.407663 0
M  V30 32356 H 3178.83 2.51464 3.38148 0
M  V30 32357 H 3177.5 1.41505 2.91132 0
M  V30 32358 H 3176.41 3.35814 1.64864 0
M  V30 32359 H 3177.74 4.40956 2.18675 0
M  V30 32360 N 3179.39 -0.470729 1.50406 0
M  V30 32361 C 3180.32 -1.57673 1.72225 0
M  V30 32362 C 3181.3 -1.60221 0.571238 0
M  V30 32363 O 3182.49 -1.76482 0.810412 0
M  V30 32364 C 3179.62 -2.95994 1.81672 0
M  V30 32365 C 3178.57 -3.08312 2.96863 0
M  V30 32366 C 3177.9 -4.48285 2.91453 0
M  V30 32367 C 3179.2 -2.85496 4.37366 0
M  V30 32368 H 3180.89 -1.39666 2.64828 0
M  V30 32369 H 3178.44 -0.670468 1.27439 0
M  V30 32370 H 3180.39 -3.73296 1.95521 0
M  V30 32371 H 3179.12 -3.15158 0.856912 0
M  V30 32372 H 3177.78 -2.33444 2.82665 0
M  V30 32373 H 3177.42 -4.64368 1.93318 0
M  V30 32374 H 3177.12 -4.57462 3.68784 0
M  V30 32375 H 3178.65 -5.27606 3.07351 0
M  V30 32376 H 3180.06 -3.52548 4.52088 0
M  V30 32377 H 3178.46 -3.06118 5.16151 0
M  V30 32378 H 3179.53 -1.81351 4.49711 0
M  V30 32379 N 3180.87 -1.39989 -0.72393 0
M  V30 32380 C 3181.83 -1.39353 -1.81971 0
M  V30 32381 C 3182.83 -0.28873 -1.58187 0
M  V30 32382 O 3184.02 -0.54721 -1.65382 0
M  V30 32383 C 3181.16 -1.17706 -3.19935 0
M  V30 32384 H 3182.35 -2.36871 -1.83935 0
M  V30 32385 H 3179.9 -1.25716 -0.92872 0
M  V30 32386 H 3180.64 -0.209149 -3.23625 0
M  V30 32387 H 3180.42 -1.97725 -3.38596 0
M  V30 32388 H 3181.91 -1.20029 -3.99979 0
M  V30 32389 N 3182.35 0.955282 -1.25348 0
M  V30 32390 C 3183.3 2.05186 -1.05676 0
M  V30 32391 C 3184.27 1.66065 0.0338925 0
M  V30 32392 O 3185.45 1.90402 -0.123159 0
M  V30 32393 C 3182.59 3.38317 -0.680851 0
M  V30 32394 C 3181.7 3.90559 -1.84629 0
M  V30 32395 C 3180.84 5.12013 -1.4148 0
M  V30 32396 C 3179.88 5.56482 -2.54941 0
M  V30 32397 N 3179.02 6.69147 -2.12572 0
M  V30 32398 H 3183.86 2.21346 -1.99524 0
M  V30 32399 H 3181.39 1.08471 -0.993607 0
M  V30 32400 H 3183.35 4.14832 -0.443867 0
M  V30 32401 H 3181.98 3.22045 0.220643 0
M  V30 32402 H 3181.03 3.1057 -2.19659 0
M  V30 32403 H 3182.34 4.19511 -2.69837 0
M  V30 32404 H 3181.5 5.95943 -1.13743 0
M  V30 32405 H 3180.24 4.84774 -0.533419 0
M  V30 32406 H 3179.24 4.71117 -2.83423 0
M  V30 32407 H 3180.47 5.85728 -3.43655 0
M  V30 32408 H 3178.41 6.43619 -1.26849 0
M  V30 32409 H 3178.33 6.97613 -2.91329 0
M  V30 32410 H 3179.6 7.56487 -1.88009 0
M  V30 32411 N 3183.83 1.06924 1.1578 0
M  V30 32412 C 3184.76 0.643643 2.19977 0
M  V30 32413 C 3185.77 -0.301625 1.59981 0
M  V30 32414 O 3186.96 -0.0916194 1.78265 0
M  V30 32415 C 3184.06 -0.0757378 3.38815 0
M  V30 32416 C 3183.23 0.884621 4.28361 0
M  V30 32417 C 3182.29 0.203326 5.25807 0
M  V30 32418 O 3181.32 0.843003 5.62923 0
M  V30 32419 N 3182.52 -1.05269 5.70875 0
M  V30 32420 H 3185.29 1.53997 2.57109 0
M  V30 32421 H 3182.85 0.953367 1.30853 0
M  V30 32422 H 3184.84 -0.54208 4.01053 0
M  V30 32423 H 3183.41 -0.873947 3.00135 0
M  V30 32424 H 3182.63 1.53018 3.63289 0
M  V30 32425 H 3183.92 1.5359 4.85065 0
M  V30 32426 H 3183.32 -1.59241 5.42825 0
M  V30 32427 H 3181.87 -1.46278 6.35174 0
M  V30 32428 N 3185.31 -1.32538 0.852723 0
M  V30 32429 C 3186.24 -2.31416 0.311275 0
M  V30 32430 C 3187.22 -1.59594 -0.588529 0
M  V30 32431 O 3188.4 -1.87406 -0.509178 0
M  V30 32432 C 3185.53 -3.43641 -0.502831 0
M  V30 32433 C 3184.49 -4.26931 0.302371 0
M  V30 32434 C 3183.81 -5.309 -0.636351 0
M  V30 32435 C 3185.11 -4.99478 1.52706 0
M  V30 32436 H 3186.81 -2.76951 1.13747 0
M  V30 32437 H 3184.35 -1.33148 0.548412 0
M  V30 32438 H 3186.3 -4.11851 -0.89202 0
M  V30 32439 H 3185.03 -2.96828 -1.36237 0
M  V30 32440 H 3183.69 -3.60364 0.67329 0
M  V30 32441 H 3183.34 -4.80342 -1.49268 0
M  V30 32442 H 3183.04 -5.87512 -0.101612 0
M  V30 32443 H 3184.56 -6.01973 -1.02276 0
M  V30 32444 H 3185.97 -5.6038 1.21027 0
M  V30 32445 H 3184.37 -5.65806 1.99959 0
M  V30 32446 H 3185.44 -4.27453 2.28936 0
M  V30 32447 N 3186.78 -0.610474 -1.45296 0
M  V30 32448 C 3187.69 0.108434 -2.34349 0
M  V30 32449 C 3188.71 0.85737 -1.51411 0
M  V30 32450 O 3189.89 0.814304 -1.84204 0
M  V30 32451 C 3186.95 1.09138 -3.29074 0
M  V30 32452 C 3186.01 0.344089 -4.27919 0
M  V30 32453 C 3185.24 1.28021 -5.18118 0
M  V30 32454 O 3185.47 2.51815 -5.11806 0
M  V30 32455 O 3184.4 0.775716 -5.9688 0
M  V30 32456 H 3188.23 -0.623474 -2.97231 0
M  V30 32457 H 3185.81 -0.370725 -1.44727 0
M  V30 32458 H 3187.69 1.65744 -3.87436 0
M  V30 32459 H 3186.37 1.80427 -2.68752 0
M  V30 32460 H 3185.28 -0.264502 -3.73164 0
M  V30 32461 H 3186.61 -0.328362 -4.91103 0
M  V30 32462 N 3188.26 1.53669 -0.349801 0
M  V30 32463 C 3189.17 2.28936 0.512381 0
M  V30 32464 C 3190.19 1.34287 1.10648 0
M  V30 32465 O 3191.36 1.67331 1.12081 0
M  V30 32466 C 3188.43 3.0522 1.64444 0
M  V30 32467 C 3187.49 4.15506 1.07949 0
M  V30 32468 C 3186.72 4.88143 2.15759 0
M  V30 32469 O 3186.95 4.60502 3.36592 0
M  V30 32470 O 3185.88 5.74448 1.79702 0
M  V30 32471 H 3189.71 3.03536 -0.0996534 0
M  V30 32472 H 3187.29 1.48959 -0.114655 0
M  V30 32473 H 3189.17 3.52905 2.30296 0
M  V30 32474 H 3187.85 2.33471 2.24216 0
M  V30 32475 H 3186.75 3.7211 0.385316 0
M  V30 32476 H 3188.09 4.89376 0.526535 0
M  V30 32477 N 3189.74 0.0785709 1.57404 0
M  V30 32478 C 3190.99 -0.588592 1.92921 0
M  V30 32479 C 3191.3 -1.70357 0.961136 0
M  V30 32480 O 3192.51 -2.43076 1.20938 0
M  V30 32481 C 3190.96 -1.09833 3.42731 0
M  V30 32482 C 3190.57 -0.0139985 4.47998 0
M  V30 32483 C 3192.32 -1.73917 3.87238 0
M  V30 32484 C 3190.22 -0.538166 5.88946 0
M  V30 32485 H 3189.15 -0.223632 0.720073 0
M  V30 32486 H 3191.8 0.151902 1.8287 0
M  V30 32487 H 3190.19 -1.892 3.47878 0
M  V30 32488 H 3191.36 0.760853 4.54475 0
M  V30 32489 H 3189.67 0.531023 4.13 0
M  V30 32490 H 3192.27 -2.14178 4.89931 0
M  V30 32491 H 3192.61 -2.60185 3.24976 0
M  V30 32492 H 3193.15 -1.01161 3.84722 0
M  V30 32493 H 3189.89 0.287511 6.54869 0
M  V30 32494 H 3189.41 -1.28039 5.85974 0
M  V30 32495 H 3191.09 -1.01242 6.3903 0
M  V30 32496 N 3191.22 -1.56389 -0.19503 0
M  V30 32497 C 3192.16 -1.94551 -1.24172 0
M  V30 32498 C 3193.13 -0.806115 -1.45227 0
M  V30 32499 O 3194.32 -1.06427 -1.5836 0
M  V30 32500 C 3191.46 -2.29036 -2.5814 0
M  V30 32501 C 3190.57 -3.5604 -2.44662 0
M  V30 32502 C 3189.71 -3.79847 -3.71335 0
M  V30 32503 C 3188.75 -5.00276 -3.5269 0
M  V30 32504 N 3187.88 -5.20336 -4.71375 0
M  V30 32505 H 3192.72 -2.83789 -0.909269 0
M  V30 32506 H 3190.26 -1.4044 -0.437616 0
M  V30 32507 H 3192.22 -2.47046 -3.3619 0
M  V30 32508 H 3190.85 -1.42938 -2.89428 0
M  V30 32509 H 3189.9 -3.46076 -1.57909 0
M  V30 32510 H 3191.21 -4.44246 -2.26819 0
M  V30 32511 H 3190.37 -3.98096 -4.57825 0
M  V30 32512 H 3189.11 -2.89971 -3.92133 0
M  V30 32513 H 3188.11 -4.81949 -2.64586 0
M  V30 32514 H 3189.34 -5.91661 -3.33338 0
M  V30 32515 H 3187.28 -4.33408 -4.92436 0
M  V30 32516 H 3187.2 -6.02722 -4.56358 0
M  V30 32517 H 3188.47 -5.43045 -5.59216 0
M  V30 32518 N 3192.7 0.462746 -1.50653 0
M  V30 32519 C 3194.11 0.797189 -1.38264 0
M  V30 32520 C 3194.31 1.9652 -0.445206 0
M  V30 32521 O 3193.37 2.52264 0.109086 0
M  V30 32522 C 3194.68 1.10142 -2.79802 0
M  V30 32523 C 3196.23 1.20737 -2.88776 0
M  V30 32524 C 3196.7 1.54468 -4.31165 0
M  V30 32525 N 3198.19 1.61443 -4.34155 0
M  V30 32526 C 3198.93 1.89064 -5.41334 0
M  V30 32527 N 3198.43 2.14649 -6.58709 0
M  V30 32528 N 3200.22 1.90636 -5.28786 0
M  V30 32529 H 3192.37 -0.306877 -2.10171 0
M  V30 32530 H 3194.63 -0.0748028 -0.945044 0
M  V30 32531 H 3194.34 0.316145 -3.50276 0
M  V30 32532 H 3194.21 2.03553 -3.17563 0
M  V30 32533 H 3196.6 1.9833 -2.18516 0
M  V30 32534 H 3196.68 0.252859 -2.54547 0
M  V30 32535 H 3196.32 0.774119 -5.01966 0
M  V30 32536 H 3196.25 2.51084 -4.62887 0
M  V30 32537 H 3198.75 1.43677 -3.49521 0
M  V30 32538 H 3199.06 2.35022 -7.36196 0
M  V30 32539 H 3197.4 2.12024 -6.61869 0
M  V30 32540 H 3200.59 1.7015 -4.36081 0
M  V30 32541 H 3200.77 2.11825 -6.124 0
M  V30 32542 N 3194.17 1.40371 0.716495 0
M  V30 32543 C 3195.12 1.40737 1.85192 0
M  V30 32544 C 3196.12 0.287998 1.66934 0
M  V30 32545 O 3197.32 0.458988 1.7405 0
M  V30 32546 H 3193.7 0.439896 0.609914 0
M  V30 32547 H 3195.67 2.36472 1.81999 0
M  V30 32548 C 3194.42 1.28595 3.23046 0
M  V30 32549 H 3193.74 2.14005 3.37701 0
M  V30 32550 H 3195.18 1.3291 4.0263 0
M  V30 32551 C 3193.64 -0.0039059 3.369 0
M  V30 32552 O 3194.17 -0.967174 3.89883 0
M  V30 32553 N 3192.38 -0.0731054 2.90508 0
M  V30 32554 H 3191.92 0.711498 2.47579 0
M  V30 32555 H 3191.88 -0.935599 3.00156 0
M  V30 32556 N 3195.65 -0.948621 1.25853 0
M  V30 32557 C 3196.62 -2.02779 1.06834 0
M  V30 32558 C 3197.62 -1.60789 0.0191299 0
M  V30 32559 O 3198.81 -1.72221 0.261866 0
M  V30 32560 C 3195.94 -3.35152 0.623377 0
M  V30 32561 H 3197.13 -2.21083 2.02639 0
M  V30 32562 H 3194.68 -1.12655 1.08345 0
M  V30 32563 H 3195.42 -3.22544 -0.336997 0
M  V30 32564 H 3195.2 -3.66979 1.38089 0
M  V30 32565 H 3196.69 -4.1445 0.511927 0
M  V30 32566 N 3197.13 -1.07536 -1.15212 0
M  V30 32567 C 3198.36 -0.820917 -1.90462 0
M  V30 32568 C 3198.78 0.620274 -1.77579 0
M  V30 32569 O 3198.14 1.43364 -1.10979 0
M  V30 32570 C 3198.19 -1.23633 -3.38744 0
M  V30 32571 O 3197.29 -0.382788 -4.1062 0
M  V30 32572 H 3196.63 -0.298911 -0.592915 0
M  V30 32573 H 3199.16 -1.43447 -1.45891 0
M  V30 32574 H 3199.17 -1.21333 -3.89541 0
M  V30 32575 H 3197.85 -2.28602 -3.47439 0
M  V30 32576 H 3196.42 -0.468439 -3.69946 0
M  V30 32577 N 3198.61 1.32084 -0.85974 0
M  V30 32578 C 3199.86 1.96685 -0.464696 0
M  V30 32579 C 3200.18 1.68347 0.984091 0
M  V30 32580 O 3199.45 0.993391 1.68845 0
M  V30 32581 H 3198.03 0.727666 -0.168851 0
M  V30 32582 H 3200.69 1.61077 -1.09728 0
M  V30 32583 H 3199.79 3.06002 -0.613958 0
M  V30 32584 N 3200.09 0.618171 1.4497 0
M  V30 32585 C 3201.36 0.0490238 1.95539 0
M  V30 32586 C 3201.74 -1.42176 1.56042 0
M  V30 32587 O 3201.09 -2.12965 0.828128 0
M  V30 32588 C 3201.3 0.258254 3.48043 0
M  V30 32589 C 3202.65 0.144616 4.24354 0
M  V30 32590 O 3203.67 0.188932 3.55699 0
M  V30 32591 O 3202.53 0.038615 5.46486 0
M  V30 32592 H 3199.63 -0.0297111 0.826466 0
M  V30 32593 H 3202.17 0.688971 1.55085 0
M  V30 32594 H 3200.94 1.27932 3.69796 0
M  V30 32595 H 3200.57 -0.416453 3.95413 0
M  V30 32596 N 3201.56 -1.53481 0.357946 0
M  V30 32597 C 3202.47 -2.29205 -0.500233 0
M  V30 32598 C 3203.49 -1.34872 -1.09934 0
M  V30 32599 O 3204.67 -1.67923 -1.11192 0
M  V30 32600 C 3201.73 -3.06088 -1.62823 0
M  V30 32601 C 3200.79 -4.16073 -1.05744 0
M  V30 32602 C 3200.03 -4.8928 -2.13167 0
M  V30 32603 O 3200.25 -4.6228 -3.34145 0
M  V30 32604 O 3199.18 -5.75393 -1.76653 0
M  V30 32605 H 3203.01 -3.03479 0.115749 0
M  V30 32606 H 3200.59 -1.48897 0.122553 0
M  V30 32607 H 3202.48 -3.54121 -2.28421 0
M  V30 32608 H 3201.15 -2.34657 -2.22975 0
M  V30 32609 H 3200.06 -3.72309 -0.365576 0
M  V30 32610 H 3201.39 -4.89648 -0.500575 0
M  V30 32611 N 3203.04 -0.0869173 -1.5736 0
M  V30 32612 C 3203.97 0.872214 -2.16598 0
M  V30 32613 C 3204.95 1.29993 -1.09708 0
M  V30 32614 O 3206.14 1.36828 -1.3781 0
M  V30 32615 C 3203.27 2.13435 -2.73976 0
M  V30 32616 C 3202.22 1.84553 -3.86166 0
M  V30 32617 C 3201.55 3.17526 -4.30211 0
M  V30 32618 C 3202.85 1.1389 -5.09732 0
M  V30 32619 H 3204.54 0.378686 -2.96996 0
M  V30 32620 H 3202.09 0.180705 -1.42862 0
M  V30 32621 H 3204.04 2.80963 -3.14067 0
M  V30 32622 H 3202.77 2.65056 -1.90821 0
M  V30 32623 H 3201.42 1.19426 -3.46602 0
M  V30 32624 H 3201.07 3.67018 -3.43958 0
M  V30 32625 H 3200.77 2.98987 -5.05847 0
M  V30 32626 H 3202.3 3.86226 -4.72929 0
M  V30 32627 H 3203.71 1.71513 -5.47043 0
M  V30 32628 H 3202.11 1.05558 -5.90743 0
M  V30 32629 H 3203.18 0.120347 -4.84751 0
M  V30 32630 N 3204.52 1.5649 0.186734 0
M  V30 32631 C 3205.77 1.81379 0.907162 0
M  V30 32632 C 3206.1 0.662315 1.82557 0
M  V30 32633 O 3205.37 -0.336665 1.91564 0
M  V30 32634 C 3205.66 3.16574 1.71618 0
M  V30 32635 C 3205.51 4.42227 0.821931 0
M  V30 32636 C 3206.83 3.48547 2.68707 0
M  V30 32637 H 3203.95 0.659812 0.328355 0
M  V30 32638 H 3206.59 1.89201 0.174109 0
M  V30 32639 H 3204.74 3.10038 2.34113 0
M  V30 32640 H 3206.41 4.60817 0.211041 0
M  V30 32641 H 3204.66 4.33608 0.129102 0
M  V30 32642 H 3205.33 5.33339 1.42317 0
M  V30 32643 H 3207.8 3.55437 2.16341 0
M  V30 32644 H 3206.68 4.44248 3.2239 0
M  V30 32645 H 3206.94 2.72465 3.4816 0
M  V30 32646 N 3206 -0.45475 1.50897 0
M  V30 32647 C 3207.41 -0.789845 1.38685 0
M  V30 32648 C 3207.61 -1.96281 0.455622 0
M  V30 32649 O 3206.67 -2.52319 -0.0957059 0
M  V30 32650 C 3207.98 -1.08656 2.80382 0
M  V30 32651 C 3209.53 -1.19204 2.89412 0
M  V30 32652 C 3210.01 -1.52179 4.31978 0
M  V30 32653 N 3211.5 -1.59139 4.35005 0
M  V30 32654 C 3212.23 -1.86191 5.42329 0
M  V30 32655 N 3211.73 -2.11152 6.59838 0
M  V30 32656 N 3213.52 -1.87829 5.29789 0
M  V30 32657 H 3205.67 0.318018 2.10006 0
M  V30 32658 H 3207.94 0.0798135 0.944634 0
M  V30 32659 H 3207.64 -0.297565 3.50439 0
M  V30 32660 H 3207.52 -2.01866 3.18638 0
M  V30 32661 H 3209.9 -1.97169 2.19564 0
M  V30 32662 H 3209.98 -0.239356 2.54678 0
M  V30 32663 H 3209.63 -0.747488 5.02369 0
M  V30 32664 H 3209.56 -2.48625 4.64212 0
M  V30 32665 H 3212.05 -1.41822 3.50278 0
M  V30 32666 H 3212.36 -2.31115 7.37432 0
M  V30 32667 H 3210.71 -2.08511 6.62984 0
M  V30 32668 H 3213.9 -1.67835 4.36977 0
M  V30 32669 H 3214.07 -2.08575 6.13515 0
M  V30 32670 N 3207.48 -1.40749 -0.709041 0
M  V30 32671 C 3208.72 -1.40837 -1.48136 0
M  V30 32672 C 3209.08 -0.0117962 -1.91996 0
M  V30 32673 O 3210.28 0.112476 -2.68565 0
M  V30 32674 C 3208.55 -2.37578 -2.67005 0
M  V30 32675 S 3210.11 -2.5608 -3.56327 0
M  V30 32676 H 3206.93 -0.499093 -0.506387 0
M  V30 32677 H 3209.53 -1.77074 -0.828557 0
M  V30 32678 H 3208.24 -3.37869 -2.32965 0
M  V30 32679 H 3207.77 -2.02647 -3.37191 0
M  V30 32680 H 3209.78 -1.81811 -4.61692 0
M  V30 32681 N 3208.96 0.941933 -1.26354 0
M  V30 32682 C 3209.92 2.02209 -1.07908 0
M  V30 32683 C 3210.92 1.60776 -0.0276566 0
M  V30 32684 O 3212.11 1.72079 -0.270996 0
M  V30 32685 C 3209.24 3.34817 -0.641142 0
M  V30 32686 H 3210.43 2.20005 -2.03808 0
M  V30 32687 H 3207.99 1.12079 -1.08941 0
M  V30 32688 H 3208.72 3.22718 0.319887 0
M  V30 32689 H 3208.51 3.66242 -1.40033 0
M  V30 32690 H 3210 4.14173 -0.533899 0
M  V30 32691 N 3210.43 1.08146 1.1464 0
M  V30 32692 C 3211.68 0.810716 1.8589 0
M  V30 32693 C 3212.01 -0.661789 1.82576 0
M  V30 32694 O 3211.29 -1.4863 1.25457 0
M  V30 32695 C 3211.57 1.32985 3.34644 0
M  V30 32696 C 3211.42 2.8675 3.46546 0
M  V30 32697 C 3212.74 0.952939 4.29659 0
M  V30 32698 H 3209.86 0.295975 0.674958 0
M  V30 32699 H 3212.5 1.34062 1.34638 0
M  V30 32700 H 3210.65 0.879096 3.78423 0
M  V30 32701 H 3212.33 3.40176 3.11573 0
M  V30 32702 H 3210.57 3.24544 2.87843 0
M  V30 32703 H 3211.24 3.18146 4.51096 0
M  V30 32704 H 3213.72 1.34148 3.93883 0
M  V30 32705 H 3212.59 1.3434 5.32207 0
M  V30 32706 H 3212.85 -0.140314 4.41877 0
M  V30 32707 N 3211.91 -1.31626 0.866732 0
M  V30 32708 C 3213.19 -1.91532 0.396861 0
M  V30 32709 C 3213.57 -1.78891 -1.12077 0
M  V30 32710 O 3212.92 -1.19455 -1.94789 0
M  V30 32711 C 3213.13 -3.37863 0.874638 0
M  V30 32712 C 3214.47 -4.14976 0.898873 0
M  V30 32713 O 3215.5 -3.46631 0.820075 0
M  V30 32714 O 3214.36 -5.37042 1.01232 0
M  V30 32715 H 3211.45 -0.818522 0.118114 0
M  V30 32716 H 3214 -1.40316 0.954431 0
M  V30 32717 H 3212.77 -3.41062 1.91813 0
M  V30 32718 H 3212.39 -3.96503 0.295196 0
M  V30 32719 N 3213.39 -0.62585 -1.4464 0
M  V30 32720 C 3214.35 0.0724857 -2.29085 0
M  V30 32721 C 3215.35 0.777443 -1.40757 0
M  V30 32722 O 3216.54 0.622832 -1.62685 0
M  V30 32723 C 3213.67 1.11314 -3.22214 0
M  V30 32724 H 3214.87 -0.670175 -2.92316 0
M  V30 32725 H 3212.42 -0.385737 -1.51465 0
M  V30 32726 H 3213.16 1.88596 -2.63822 0
M  V30 32727 H 3212.94 0.611641 -3.873 0
M  V30 32728 H 3214.43 1.60168 -3.85663 0
M  V30 32729 N 3214.87 1.53289 -0.36608 0
M  V30 32730 C 3215.83 2.24374 0.467865 0
M  V30 32731 C 3216.83 1.25178 1.00932 0
M  V30 32732 O 3218.02 1.49451 0.894989 0
M  V30 32733 C 3215.15 2.98087 1.65399 0
M  V30 32734 H 3216.35 2.99504 -0.154157 0
M  V30 32735 H 3213.9 1.55856 -0.117778 0
M  V30 32736 H 3214.63 2.27201 2.31409 0
M  V30 32737 H 3214.42 3.7087 1.2727 0
M  V30 32738 H 3215.91 3.52123 2.24497 0
M  V30 32739 N 3216.35 0.0952613 1.57312 0
M  V30 32740 C 3217.57 -0.576785 1.98698 0
M  V30 32741 C 3217.99 -1.61714 0.974375 0
M  V30 32742 O 3217.35 -1.82465 -0.03599 0
M  V30 32743 C 3217.4 -1.22434 3.40135 0
M  V30 32744 O 3217.12 -0.225601 4.37519 0
M  V30 32745 C 3218.62 -1.98198 3.96525 0
M  V30 32746 H 3215.84 -0.154618 0.652943 0
M  V30 32747 H 3218.38 0.174598 2.03753 0
M  V30 32748 H 3216.54 -1.92666 3.36093 0
M  V30 32749 H 3216.95 -0.693025 5.19901 0
M  V30 32750 H 3218.43 -2.38867 4.97641 0
M  V30 32751 H 3218.9 -2.8479 3.34352 0
M  V30 32752 H 3219.51 -1.32783 4.04041 0
M  V30 32753 N 3217.82 -1.56587 -0.178432 0
M  V30 32754 C 3218.79 -1.94983 -1.20476 0
M  V30 32755 C 3219.79 -0.832701 -1.3756 0
M  V30 32756 O 3220.98 -1.09987 -1.35087 0
M  V30 32757 C 3218.11 -2.23843 -2.57113 0
M  V30 32758 H 3219.3 -2.86817 -0.876122 0
M  V30 32759 H 3216.85 -1.50534 -0.420608 0
M  V30 32760 H 3217.59 -1.347 -2.95002 0
M  V30 32761 H 3217.37 -3.05265 -2.4608 0
M  V30 32762 H 3218.86 -2.54496 -3.31092 0
M  V30 32763 N 3219.3 0.446741 -1.51136 0
M  V30 32764 C 3220.53 1.21785 -1.66889 0
M  V30 32765 C 3220.94 1.85709 -0.361762 0
M  V30 32766 O 3220.28 1.71095 0.668754 0
M  V30 32767 C 3220.34 2.34989 -2.72067 0
M  V30 32768 C 3220.01 1.91509 -4.14938 0
M  V30 32769 C 3221.01 1.4238 -5.00024 0
M  V30 32770 C 3218.69 1.99487 -4.60988 0
M  V30 32771 C 3220.68 1.01805 -6.29217 0
M  V30 32772 C 3218.37 1.58522 -5.90181 0
M  V30 32773 C 3219.37 1.09762 -6.74123 0
M  V30 32774 O 3219.06 0.69375 -8.00901 0
M  V30 32775 H 3218.79 0.373515 -0.563438 0
M  V30 32776 H 3221.34 0.536783 -1.98262 0
M  V30 32777 H 3219.57 3.06344 -2.35988 0
M  V30 32778 H 3221.26 2.96884 -2.76793 0
M  V30 32779 H 3222.03 1.35619 -4.65653 0
M  V30 32780 H 3217.91 2.36386 -3.95781 0
M  V30 32781 H 3221.45 0.636757 -6.94688 0
M  V30 32782 H 3217.35 1.64951 -6.24069 0
M  V30 32783 H 3218.12 0.820439 -8.14378 0
M  V30 32784 N 3220.78 1.41123 0.701567 0
M  V30 32785 C 3221.69 1.44845 1.84546 0
M  V30 32786 C 3222.71 0.339624 1.70653 0
M  V30 32787 O 3223.88 0.586412 1.92674 0
M  V30 32788 C 3220.95 1.32275 3.20475 0
M  V30 32789 C 3220.01 2.53422 3.4652 0
M  V30 32790 C 3219.24 2.41442 4.75964 0
M  V30 32791 O 3219.46 1.43576 5.52035 0
M  V30 32792 O 3218.4 3.31087 5.02658 0
M  V30 32793 H 3222.22 2.41338 1.84363 0
M  V30 32794 H 3219.81 1.22597 0.853841 0
M  V30 32795 H 3221.69 1.27527 4.0164 0
M  V30 32796 H 3220.37 0.388945 3.21355 0
M  V30 32797 H 3219.27 2.63747 2.65308 0
M  V30 32798 H 3220.61 3.4561 3.50449 0
M  V30 32799 N 3222.26 -0.935219 1.26852 0
M  V30 32800 C 3223.21 -2.05612 1.08749 0
M  V30 32801 C 3224.2 -1.69395 0.0127108 0
M  V30 32802 O 3225.41 -1.79197 0.169853 0
M  V30 32803 H 3221.78 -0.673329 0.334862 0
M  V30 32804 H 3223.75 -2.1803 2.03729 0
M  V30 32805 C 3222.5 -3.39657 0.743519 0
M  V30 32806 H 3221.82 -3.68006 1.56243 0
M  V30 32807 H 3223.26 -4.18884 0.656681 0
M  V30 32808 C 3221.72 -3.32352 -0.551693 0
M  V30 32809 O 3222.25 -3.68966 -1.5883 0
M  V30 32810 N 3220.46 -2.85453 -0.544533 0
M  V30 32811 H 3220.01 -2.55854 0.299435 0
M  V30 32812 H 3219.96 -2.80947 -1.41124 0
M  V30 32813 N 3223.74 -1.08752 -1.14065 0
M  V30 32814 C 3224.99 -0.814267 -1.84533 0
M  V30 32815 C 3225.3 0.662323 -1.84045 0
M  V30 32816 O 3226.5 1.05087 -2.50338 0
M  V30 32817 C 3224.96 -1.40669 -3.31271 0
M  V30 32818 C 3224.57 -2.91532 -3.40166 0
M  V30 32819 C 3226.31 -1.21208 -4.06828 0
M  V30 32820 C 3224.22 -3.43894 -4.81135 0
M  V30 32821 H 3223.15 -0.300939 -0.691341 0
M  V30 32822 H 3225.8 -1.30937 -1.2856 0
M  V30 32823 H 3224.18 -0.839283 -3.87004 0
M  V30 32824 H 3225.36 -3.54439 -2.94465 0
M  V30 32825 H 3223.67 -3.09947 -2.78068 0
M  V30 32826 H 3226.27 -1.5779 -5.10888 0
M  V30 32827 H 3226.61 -0.152165 -4.16022 0
M  V30 32828 H 3227.14 -1.74661 -3.57405 0
M  V30 32829 H 3223.88 -4.49474 -4.7713 0
M  V30 32830 H 3223.4 -2.85747 -5.2736 0
M  V30 32831 H 3225.08 -3.4069 -5.50036 0
M  V30 32832 N 3225.21 1.31165 -0.873701 0
M  V30 32833 C 3226.14 2.30891 -0.348052 0
M  V30 32834 C 3227.13 1.6051 0.563064 0
M  V30 32835 O 3228.31 1.88192 0.479299 0
M  V30 32836 C 3225.44 3.44397 0.448097 0
M  V30 32837 C 3224.39 4.26395 -0.370254 0
M  V30 32838 C 3223.72 5.31845 0.551809 0
M  V30 32839 C 3225.02 4.96985 -1.60633 0
M  V30 32840 H 3226.71 2.75107 -1.18139 0
M  V30 32841 H 3224.26 1.32259 -0.569525 0
M  V30 32842 H 3226.21 4.13218 0.826385 0
M  V30 32843 H 3224.94 2.98958 1.31498 0
M  V30 32844 H 3223.6 3.59247 -0.730535 0
M  V30 32845 H 3223.24 4.82655 1.41607 0
M  V30 32846 H 3222.94 5.87599 0.0081315 0
M  V30 32847 H 3224.47 6.03524 0.926859 0
M  V30 32848 H 3225.88 5.58383 -1.29927 0
M  V30 32849 H 3224.28 5.62553 -2.08936 0
M  V30 32850 H 3225.35 4.23757 -2.35708 0
M  V30 32851 N 3226.69 0.633512 1.44307 0
M  V30 32852 C 3227.64 -0.0821547 2.32455 0
M  V30 32853 C 3228.63 -0.833362 1.47484 0
M  V30 32854 O 3229.84 -0.745992 1.63814 0
M  V30 32855 H 3226.22 -0.0453388 0.750632 0
M  V30 32856 H 3228.19 0.679333 2.90564 0
M  V30 32857 C 3226.94 -1.04852 3.31514 0
M  V30 32858 H 3226.26 -0.479909 3.96909 0
M  V30 32859 H 3227.7 -1.51872 3.95867 0
M  V30 32860 C 3226.16 -2.13494 2.60619 0
M  V30 32861 O 3226.69 -3.21609 2.40688 0
M  V30 32862 N 3224.89 -1.89495 2.20318 0
M  V30 32863 H 3224.44 -1.01577 2.36728 0
M  V30 32864 H 3224.4 -2.62385 1.7321 0
M  V30 32865 N 3228.17 -1.53093 0.374204 0
M  V30 32866 C 3229.13 -2.24619 -0.455959 0
M  V30 32867 C 3230.13 -1.25711 -1.00266 0
M  V30 32868 O 3231.32 -1.49923 -0.887051 0
M  V30 32869 C 3228.46 -2.9896 -1.63816 0
M  V30 32870 H 3229.65 -2.99418 0.170038 0
M  V30 32871 H 3227.2 -1.55791 0.126042 0
M  V30 32872 H 3227.94 -2.28425 -2.30201 0
M  V30 32873 H 3227.72 -3.7154 -1.25302 0
M  V30 32874 H 3229.21 -3.53309 -2.22626 0
M  V30 32875 N 3229.65 -0.103603 -1.57259 0
M  V30 32876 C 3230.9 0.557826 -1.93833 0
M  V30 32877 C 3231.21 1.68806 -0.988117 0
M  V30 32878 O 3232.42 2.41122 -1.2479 0
M  V30 32879 C 3230.87 1.04367 -3.44435 0
M  V30 32880 C 3230.48 -0.0572758 -4.47963 0
M  V30 32881 C 3232.22 1.67735 -3.89955 0
M  V30 32882 C 3230.13 0.444401 -5.89728 0
M  V30 32883 H 3229.06 0.212148 -0.723539 0
M  V30 32884 H 3231.71 -0.180976 -1.82605 0
M  V30 32885 H 3230.09 1.83642 -3.50844 0
M  V30 32886 H 3231.27 -0.83306 -4.53207 0
M  V30 32887 H 3229.58 -0.59666 -4.12103 0
M  V30 32888 H 3232.18 2.06356 -4.93276 0
M  V30 32889 H 3232.52 2.54982 -3.29074 0
M  V30 32890 H 3233.06 0.950275 -3.86283 0
M  V30 32891 H 3229.8 -0.391658 -6.54329 0
M  V30 32892 H 3229.32 1.187 -5.87937 0
M  V30 32893 H 3230.99 0.910627 -6.4056 0
M  V30 32894 N 3231.13 1.56679 0.170126 0
M  V30 32895 C 3232.07 1.96502 1.21061 0
M  V30 32896 C 3233.04 0.829117 1.43927 0
M  V30 32897 O 3234.23 1.08933 1.56647 0
M  V30 32898 C 3231.37 2.33114 2.54464 0
M  V30 32899 C 3230.48 3.59887 2.38967 0
M  V30 32900 C 3229.62 3.85706 3.65245 0
M  V30 32901 C 3228.66 5.05824 3.44687 0
M  V30 32902 N 3227.79 5.27769 4.63038 0
M  V30 32903 H 3232.63 2.852 0.864005 0
M  V30 32904 H 3230.17 1.41118 0.415218 0
M  V30 32905 H 3232.13 2.52363 3.32218 0
M  V30 32906 H 3230.76 1.47525 2.87117 0
M  V30 32907 H 3229.81 3.48545 1.52384 0
M  V30 32908 H 3231.12 4.47798 2.19723 0
M  V30 32909 H 3230.28 4.0533 4.51434 0
M  V30 32910 H 3229.01 2.96173 3.8747 0
M  V30 32911 H 3228.02 4.86097 2.56885 0
M  V30 32912 H 3229.24 5.96889 3.23883 0
M  V30 32913 H 3227.19 4.41187 4.85479 0
M  V30 32914 H 3227.11 6.09906 4.46711 0
M  V30 32915 H 3228.38 5.51873 5.50506 0
M  V30 32916 N 3232.6 -0.43872 1.5137 0
M  V30 32917 C 3233.57 -1.51493 1.71996 0
M  V30 32918 C 3234.57 -1.49585 0.590005 0
M  V30 32919 O 3235.76 -1.51631 0.857532 0
M  V30 32920 C 3232.89 -2.91036 1.77513 0
M  V30 32921 H 3234.08 -1.34509 2.68043 0
M  V30 32922 H 3231.64 -0.667302 1.41339 0
M  V30 32923 H 3232.37 -3.13426 0.832754 0
M  V30 32924 H 3232.16 -2.93826 2.59632 0
M  V30 32925 H 3233.65 -3.6911 1.95314 0
M  V30 32926 N 3234.08 -1.41493 -0.694073 0
M  V30 32927 C 3235.05 -1.43182 -1.78974 0
M  V30 32928 C 3236.05 -0.322218 -1.57539 0
M  V30 32929 O 3237.24 -0.582167 -1.64184 0
M  V30 32930 C 3234.37 -1.24466 -3.17366 0
M  V30 32931 H 3235.56 -2.40719 -1.78869 0
M  V30 32932 H 3233.11 -1.27658 -0.901845 0
M  V30 32933 H 3233.85 -0.277748 -3.23108 0
M  V30 32934 H 3233.63 -2.04862 -3.34326 0
M  V30 32935 H 3235.12 -1.28486 -3.97343 0
M  V30 32936 N 3235.56 0.928479 -1.27346 0
M  V30 32937 C 3236.47 2.06239 -1.11815 0
M  V30 32938 C 3237.49 1.73933 -0.0483775 0
M  V30 32939 O 3238.66 1.99783 -0.254705 0
M  V30 32940 C 3235.73 3.3813 -0.766096 0
M  V30 32941 C 3234.79 3.84139 -1.91666 0
M  V30 32942 C 3234.02 5.09736 -1.5813 0
M  V30 32943 O 3234.24 5.68301 -0.488841 0
M  V30 32944 O 3233.18 5.51098 -2.42023 0
M  V30 32945 H 3237 2.22254 -2.06971 0
M  V30 32946 H 3234.59 1.0475 -1.06526 0
M  V30 32947 H 3236.47 4.17347 -0.583055 0
M  V30 32948 H 3235.15 3.23324 0.155941 0
M  V30 32949 H 3234.05 3.05812 -2.15475 0
M  V30 32950 H 3235.39 4.03485 -2.81887 0
M  V30 32951 N 3237.04 1.09355 1.13486 0
M  V30 32952 C 3238.32 0.741591 1.80997 0
M  V30 32953 C 3238.7 -0.77347 1.9642 0
M  V30 32954 O 3238.04 -1.69561 1.53171 0
M  V30 32955 C 3238.25 1.47978 3.16075 0
M  V30 32956 C 3239.6 1.64511 3.91435 0
M  V30 32957 O 3240.63 1.44223 3.25696 0
M  V30 32958 O 3239.48 1.98063 5.09346 0
M  V30 32959 H 3236.58 0.266311 0.782948 0
M  V30 32960 H 3239.12 1.19571 1.20419 0
M  V30 32961 H 3237.9 2.51142 3.00072 0
M  V30 32962 H 3237.52 1.01778 3.84353 0
M  V30 32963 N 3238.52 -1.307 0.880644 0
M  V30 32964 C 3239.48 -2.26525 0.349127 0
M  V30 32965 C 3240.48 -1.52633 -0.505946 0
M  V30 32966 O 3241.67 -1.71352 -0.313721 0
M  V30 32967 C 3238.8 -3.37169 -0.502964 0
M  V30 32968 H 3240 -2.75054 1.19521 0
M  V30 32969 H 3237.55 -1.41815 0.657132 0
M  V30 32970 H 3238.28 -2.9395 -1.36981 0
M  V30 32971 H 3238.07 -3.91947 0.109458 0
M  V30 32972 H 3239.56 -4.08506 -0.866773 0
M  V30 32973 N 3240 -0.641156 -1.43969 0
M  V30 32974 C 3240.96 0.048184 -2.29149 0
M  V30 32975 C 3241.96 0.76247 -1.41573 0
M  V30 32976 O 3243.15 0.605542 -1.63337 0
M  V30 32977 C 3240.28 1.07891 -3.23377 0
M  V30 32978 H 3241.47 -0.701142 -2.91589 0
M  V30 32979 H 3239.03 -0.40178 -1.51048 0
M  V30 32980 H 3239.76 1.85787 -2.65807 0
M  V30 32981 H 3239.55 0.570528 -3.87927 0
M  V30 32982 H 3241.04 1.56069 -3.8734 0
M  V30 32983 N 3241.47 1.52892 -0.382318 0
M  V30 32984 C 3242.42 2.27778 0.471147 0
M  V30 32985 C 3243.42 1.31404 1.06908 0
M  V30 32986 O 3244.62 1.48969 1.01036 0
M  V30 32987 H 3241 0.732374 0.170683 0
M  V30 32988 H 3242.97 2.97844 -0.182007 0
M  V30 32989 C 3241.72 3.09212 1.59007 0
M  V30 32990 H 3241.04 3.83224 1.13928 0
M  V30 32991 H 3242.48 3.64761 2.16161 0
M  V30 32992 C 3240.94 2.21088 2.54208 0
M  V30 32993 O 3241.47 1.83294 3.57444 0
M  V30 32994 N 3239.67 1.85387 2.23786 0
M  V30 32995 H 3239.22 2.1632 1.39869 0
M  V30 32996 H 3239.18 1.26714 2.87734 0
M  V30 32997 N 3242.95 0.111941 1.57202 0
M  V30 32998 C 3244.37 -0.244674 1.57713 0
M  V30 32999 C 3244.57 -1.67223 1.12422 0
M  V30 33000 O 3243.62 -2.3921 0.808371 0
M  V30 33001 C 3244.94 -0.0177761 3.00695 0
M  V30 33002 C 3246.48 -0.0842231 3.12887 0
M  V30 33003 C 3246.96 0.114893 4.57856 0
M  V30 33004 N 3248.45 0.0606237 4.6316 0
M  V30 33005 C 3249.19 0.189694 5.73086 0
M  V30 33006 N 3248.68 0.374542 6.91787 0
M  V30 33007 N 3250.47 0.129768 5.6195 0
M  V30 33008 H 3242.63 1.04446 1.84945 0
M  V30 33009 H 3244.89 0.410715 0.854411 0
M  V30 33010 H 3244.59 0.968861 3.38092 0
M  V30 33011 H 3244.47 -0.75275 3.69613 0
M  V30 33012 H 3246.86 -1.06138 2.75352 0
M  V30 33013 H 3246.94 0.682517 2.46527 0
M  V30 33014 H 3246.58 1.08899 4.96088 0
M  V30 33015 H 3246.51 -0.671747 5.22298 0
M  V30 33016 H 3249 -0.0790192 3.77817 0
M  V30 33017 H 3249.31 0.464084 7.71405 0
M  V30 33018 H 3247.66 0.410425 6.93787 0
M  V30 33019 H 3250.85 -0.0136292 4.68098 0
M  V30 33020 H 3251.02 0.233802 6.47578 0
M  V30 33021 N 3244.43 -1.56767 -0.161814 0
M  V30 33022 C 3245.39 -1.9625 -1.18401 0
M  V30 33023 C 3246.39 -0.847244 -1.36669 0
M  V30 33024 O 3247.58 -1.11413 -1.33913 0
M  V30 33025 C 3244.71 -2.26558 -2.54724 0
M  V30 33026 H 3245.91 -2.8773 -0.845652 0
M  V30 33027 H 3243.46 -1.50972 -0.404619 0
M  V30 33028 H 3244.2 -1.37821 -2.93557 0
M  V30 33029 H 3243.98 -3.07858 -2.42829 0
M  V30 33030 H 3245.47 -2.57993 -3.28374 0
M  V30 33031 N 3245.91 0.430686 -1.51601 0
M  V30 33032 C 3246.87 1.50579 -1.72797 0
M  V30 33033 C 3247.87 1.4927 -0.597929 0
M  V30 33034 O 3249.06 1.51174 -0.865561 0
M  V30 33035 C 3246.19 2.9009 -1.79054 0
M  V30 33036 H 3247.39 1.33086 -2.68753 0
M  V30 33037 H 3244.94 0.659797 -1.41691 0
M  V30 33038 H 3245.67 3.1298 -0.849364 0
M  V30 33039 H 3245.46 2.92445 -2.61187 0
M  V30 33040 H 3246.95 3.68069 -1.97269 0
M  V30 33041 N 3247.39 1.4186 0.686559 0
M  V30 33042 C 3248.61 1.45277 1.48018 0
M  V30 33043 C 3249.04 0.0621627 1.87997 0
M  V30 33044 O 3248.39 -0.936706 1.55227 0
M  V30 33045 C 3248.44 2.37517 2.71326 0
M  V30 33046 O 3247.55 1.83843 3.69155 0
M  V30 33047 H 3246.89 0.49269 0.445143 0
M  V30 33048 H 3249.42 1.8642 0.843129 0
M  V30 33049 H 3249.43 2.53699 3.19532 0
M  V30 33050 H 3248.1 3.38554 2.41565 0
M  V30 33051 H 3246.68 1.77157 3.28131 0
M  V30 33052 N 3248.86 -0.921712 1.27837 0
M  V30 33053 C 3249.83 -2.00467 1.11111 0
M  V30 33054 C 3250.83 -1.60712 0.0532312 0
M  V30 33055 O 3252.02 -1.71626 0.298338 0
M  V30 33056 C 3249.15 -3.33754 0.694328 0
M  V30 33057 H 3250.34 -2.16735 2.07283 0
M  V30 33058 H 3247.89 -1.10331 1.1071 0
M  V30 33059 H 3248.63 -3.23187 -0.268504 0
M  V30 33060 H 3248.41 -3.63968 1.45842 0
M  V30 33061 H 3249.9 -4.13271 0.599723 0
M  V30 33062 N 3250.34 -1.09956 -1.12905 0
M  V30 33063 C 3251.57 -0.861132 -1.88678 0
M  V30 33064 C 3251.99 0.582467 -1.78854 0
M  V30 33065 O 3251.35 1.40978 -1.13995 0
M  V30 33066 C 3251.4 -1.30791 -3.36045 0
M  V30 33067 O 3250.5 -0.4698 -4.09715 0
M  V30 33068 H 3249.84 -0.311421 -0.586441 0
M  V30 33069 H 3252.37 -1.46509 -1.42815 0
M  V30 33070 H 3252.38 -1.29569 -3.8688 0
M  V30 33071 H 3251.06 -2.35921 -3.42512 0
M  V30 33072 H 3249.63 -0.546805 -3.68869 0
M  V30 33073 N 3251.82 1.30231 -0.887563 0
M  V30 33074 C 3252.73 2.31816 -0.360374 0
M  V30 33075 C 3253.75 1.65451 0.538712 0
M  V30 33076 O 3254.92 1.9673 0.431211 0
M  V30 33077 C 3251.99 3.44216 0.414276 0
M  V30 33078 C 3251.05 4.26201 -0.514874 0
M  V30 33079 C 3250.28 5.33234 0.222901 0
M  V30 33080 O 3250.5 5.51699 1.44862 0
M  V30 33081 O 3249.44 6.00374 -0.428327 0
M  V30 33082 H 3253.26 2.78865 -1.20284 0
M  V30 33083 H 3250.85 1.34447 -0.651483 0
M  V30 33084 H 3252.73 4.12681 0.852787 0
M  V30 33085 H 3251.41 2.99297 1.233 0
M  V30 33086 H 3250.31 3.60424 -1.00225 0
M  V30 33087 H 3251.65 4.74731 -1.29967 0
M  V30 33088 N 3253.3 0.648782 1.43627 0
M  V30 33089 C 3254.52 0.16632 2.06732 0
M  V30 33090 C 3254.95 -1.15731 1.48283 0
M  V30 33091 O 3254.31 -1.71395 0.591048 0
M  V30 33092 C 3254.35 0.0839365 3.60502 0
M  V30 33093 O 3253.46 -0.955114 4.01187 0
M  V30 33094 H 3252.8 0.0928401 0.657478 0
M  V30 33095 H 3255.33 0.890453 1.84207 0
M  V30 33096 H 3255.34 -0.100851 4.07875 0
M  V30 33097 H 3254.01 1.05021 4.02422 0
M  V30 33098 H 3252.59 -0.743473 3.65413 0
M  V30 33099 N 3254.78 -1.52688 0.390421 0
M  V30 33100 C 3255.74 -2.2509 -0.43211 0
M  V30 33101 C 3256.74 -1.26768 -0.989273 0
M  V30 33102 O 3257.93 -1.50856 -0.871099 0
M  V30 33103 C 3255.06 -3.00681 -1.60636 0
M  V30 33104 H 3256.25 -2.9922 0.201786 0
M  V30 33105 H 3253.81 -1.55649 0.142559 0
M  V30 33106 H 3254.54 -2.30854 -2.27765 0
M  V30 33107 H 3254.33 -3.72848 -1.21354 0
M  V30 33108 H 3255.82 -3.5565 -2.18867 0
M  V30 33109 N 3256.25 -0.120276 -1.5714 0
M  V30 33110 C 3257.18 0.826074 -2.18399 0
M  V30 33111 C 3258.17 1.27636 -1.12441 0
M  V30 33112 O 3259.35 1.33874 -1.40682 0
M  V30 33113 C 3256.48 2.07575 -2.78442 0
M  V30 33114 C 3255.43 1.76321 -3.89994 0
M  V30 33115 C 3254.76 3.08329 -4.3685 0
M  V30 33116 C 3256.06 1.03053 -5.12033 0
M  V30 33117 H 3257.75 0.315604 -2.97732 0
M  V30 33118 H 3255.3 0.150361 -1.43213 0
M  V30 33119 H 3257.25 2.74238 -3.19956 0
M  V30 33120 H 3255.98 2.60949 -1.964 0
M  V30 33121 H 3254.64 1.12047 -3.49057 0
M  V30 33122 H 3254.28 3.59639 -3.51665 0
M  V30 33123 H 3253.98 2.8819 -5.12075 0
M  V30 33124 H 3255.51 3.76107 -4.81015 0
M  V30 33125 H 3256.92 1.59871 -5.50558 0
M  V30 33126 H 3255.32 0.930042 -5.92849 0
M  V30 33127 H 3256.39 0.0174968 -4.84897 0
M  V30 33128 N 3257.73 1.56851 0.153498 0
M  V30 33129 C 3258.66 1.94367 1.21467 0
M  V30 33130 C 3259.68 0.83875 1.39531 0
M  V30 33131 O 3260.87 1.11717 1.39217 0
M  V30 33132 C 3257.97 2.19682 2.58056 0
M  V30 33133 C 3257.14 3.50954 2.61056 0
M  V30 33134 C 3256.2 3.64885 3.79138 0
M  V30 33135 O 3255.22 4.37339 3.64312 0
M  V30 33136 N 3256.43 3.01063 4.96328 0
M  V30 33137 H 3259.19 2.85998 0.895838 0
M  V30 33138 H 3256.75 1.58222 0.343119 0
M  V30 33139 H 3258.74 2.26249 3.35549 0
M  V30 33140 H 3257.31 1.34348 2.82258 0
M  V30 33141 H 3256.53 3.55885 1.69527 0
M  V30 33142 H 3257.82 4.37302 2.60086 0
M  V30 33143 H 3257.22 2.42102 5.11276 0
M  V30 33144 H 3255.78 3.13201 5.71619 0
M  V30 33145 N 3259.21 -0.42264 1.51827 0
M  V30 33146 C 3260.44 -1.19287 1.69051 0
M  V30 33147 C 3260.85 -1.8464 0.394127 0
M  V30 33148 O 3260.21 -1.71329 -0.628701 0
M  V30 33149 C 3260.26 -2.26604 2.81661 0
M  V30 33150 O 3259.98 -1.63921 4.06277 0
M  V30 33151 C 3261.48 -3.1661 3.10279 0
M  V30 33152 H 3258.7 -0.358978 0.5669 0
M  V30 33153 H 3261.25 -0.498994 1.98319 0
M  V30 33154 H 3259.4 -2.91683 2.5495 0
M  V30 33155 H 3259.82 -2.34961 4.68928 0
M  V30 33156 H 3261.29 -3.88012 3.9262 0
M  V30 33157 H 3261.77 -3.7821 2.2328 0
M  V30 33158 H 3262.37 -2.57215 3.38704 0
M  V30 33159 N 3260.69 -1.42222 -0.679027 0
M  V30 33160 C 3261.93 -1.42677 -1.44122 0
M  V30 33161 C 3262.27 -0.0414721 -1.94156 0
M  V30 33162 O 3261.54 0.93358 -1.7063 0
M  V30 33163 C 3261.83 -2.44761 -2.64129 0
M  V30 33164 C 3261.68 -3.92464 -2.19755 0
M  V30 33165 C 3263 -2.43887 -3.66343 0
M  V30 33166 H 3260.12 -0.51955 -0.52272 0
M  V30 33167 H 3262.76 -1.73608 -0.772036 0
M  V30 33168 H 3260.91 -2.18515 -3.21222 0
M  V30 33169 H 3262.58 -4.29674 -1.67862 0
M  V30 33170 H 3260.82 -4.06534 -1.5137 0
M  V30 33171 H 3261.49 -4.59464 -3.05936 0
M  V30 33172 H 3263.97 -2.67217 -3.18958 0
M  V30 33173 H 3262.85 -3.17301 -4.47897 0
M  V30 33174 H 3263.11 -1.46333 -4.1718 0
M  V30 33175 N 3262.17 0.91492 -1.28324 0
M  V30 33176 C 3263.42 1.65851 -1.14788 0
M  V30 33177 C 3263.73 1.93237 0.303101 0
M  V30 33178 O 3264.93 2.65671 0.559559 0
M  V30 33179 C 3263.39 2.98772 -2.00657 0
M  V30 33180 C 3263 2.79038 -3.50488 0
M  V30 33181 C 3264.74 3.76644 -1.95804 0
M  V30 33182 C 3262.65 4.07592 -4.28512 0
M  V30 33183 H 3261.58 0.622127 -0.425998 0
M  V30 33184 H 3264.23 1.0154 -1.52846 0
M  V30 33185 H 3262.61 3.64212 -1.55454 0
M  V30 33186 H 3263.79 2.22286 -4.0364 0
M  V30 33187 H 3262.1 2.1458 -3.56853 0
M  V30 33188 H 3264.7 4.71931 -2.51367 0
M  V30 33189 H 3265.04 4.05675 -0.934526 0
M  V30 33190 H 3265.57 3.18022 -2.3897 0
M  V30 33191 H 3262.31 3.83735 -5.31439 0
M  V30 33192 H 3261.83 4.6396 -3.80133 0
M  V30 33193 H 3263.51 4.75859 -4.38369 0
M  V30 33194 N 3263.64 1.10553 1.1232 0
M  V30 33195 C 3264.59 0.755463 2.18086 0
M  V30 33196 C 3265.56 -0.268776 1.63911 0
M  V30 33197 O 3266.75 -0.14778 1.90227 0
M  V30 33198 C 3263.89 0.194773 3.4455 0
M  V30 33199 C 3263 1.27446 4.12773 0
M  V30 33200 C 3262.13 0.675286 5.2689 0
M  V30 33201 C 3261.17 1.73547 5.86982 0
M  V30 33202 N 3260.31 1.15647 6.9251 0
M  V30 33203 H 3265.15 1.66159 2.47376 0
M  V30 33204 H 3262.69 0.829945 1.21451 0
M  V30 33205 H 3264.65 -0.148202 4.16937 0
M  V30 33206 H 3263.28 -0.674583 3.15673 0
M  V30 33207 H 3262.33 1.73454 3.38553 0
M  V30 33208 H 3263.64 2.07695 4.53502 0
M  V30 33209 H 3262.79 0.28183 6.06045 0
M  V30 33210 H 3261.53 -0.158623 4.87442 0
M  V30 33211 H 3260.54 2.13834 5.06513 0
M  V30 33212 H 3261.76 2.57224 6.285 0
M  V30 33213 H 3259.71 0.344043 6.55097 0
M  V30 33214 H 3259.63 1.89578 7.31844 0
M  V30 33215 H 3260.89 0.789599 7.75491 0
M  V30 33216 N 3265.12 -1.29758 0.894457 0
M  V30 33217 C 3266.03 -2.31621 0.372663 0
M  V30 33218 C 3267.05 -1.65734 -0.52993 0
M  V30 33219 O 3268.22 -1.96956 -0.420772 0
M  V30 33220 C 3265.29 -3.44431 -0.396015 0
M  V30 33221 C 3264.35 -4.25922 0.537469 0
M  V30 33222 C 3263.58 -5.33345 -0.194619 0
M  V30 33223 O 3263.81 -5.52459 -1.41934 0
M  V30 33224 O 3262.74 -6.00138 0.46016 0
M  V30 33225 H 3266.57 -2.78223 1.21761 0
M  V30 33226 H 3264.15 -1.341 0.658604 0
M  V30 33227 H 3266.03 -4.13127 -0.830889 0
M  V30 33228 H 3264.71 -2.99947 -1.21711 0
M  V30 33229 H 3263.62 -3.59888 1.02135 0
M  V30 33230 H 3264.95 -4.74035 1.32483 0
M  V30 33231 N 3266.6 -0.65639 -1.4328 0
M  V30 33232 C 3267.88 -0.10085 -1.9534 0
M  V30 33233 C 3268.26 1.37989 -1.59757 0
M  V30 33234 O 3267.61 2.10695 -0.884301 0
M  V30 33235 C 3267.82 -0.350441 -3.47236 0
M  V30 33236 C 3269.16 -0.257075 -4.23821 0
M  V30 33237 O 3270.19 -0.283173 -3.55073 0
M  V30 33238 O 3269.05 -0.183493 -5.46192 0
M  V30 33239 H 3266.14 0.00778834 -0.826963 0
M  V30 33240 H 3268.69 -0.729847 -1.53204 0
M  V30 33241 H 3267.46 -1.37692 -3.66274 0
M  V30 33242 H 3267.08 0.311469 -3.96378 0
M  V30 33243 N 3268.08 1.52478 -0.398513 0
M  V30 33244 C 3269.01 2.29628 0.423458 0
M  V30 33245 C 3269.99 1.33395 1.05545 0
M  V30 33246 O 3271.18 1.62296 1.06647 0
M  V30 33247 C 3268.31 3.10989 1.54607 0
M  V30 33248 C 3267.26 4.15181 1.03964 0
M  V30 33249 C 3266.59 4.84822 2.25503 0
M  V30 33250 C 3267.89 5.22202 0.101118 0
M  V30 33251 H 3269.58 2.98589 -0.220275 0
M  V30 33252 H 3267.13 1.43599 -0.10738 0
M  V30 33253 H 3269.08 3.63723 2.128 0
M  V30 33254 H 3267.8 2.39778 2.21752 0
M  V30 33255 H 3266.46 3.63442 0.480187 0
M  V30 33256 H 3266.11 4.10151 2.91179 0
M  V30 33257 H 3265.81 5.55251 1.92275 0
M  V30 33258 H 3267.33 5.40364 2.84322 0
M  V30 33259 H 3268.75 5.7024 0.591516 0
M  V30 33260 H 3267.14 5.99932 -0.141842 0
M  V30 33261 H 3268.21 4.7744 -0.8473 0
M  V30 33262 N 3269.56 0.128608 1.57074 0
M  V30 33263 C 3270.97 -0.395227 1.82469 0
M  V30 33264 C 3271.32 -1.65971 1.04633 0
M  V30 33265 O 3270.44 -2.14503 0.285873 0
M  V30 33266 C 3271.04 -0.723831 3.30978 0
M  V30 33267 C 3269.6 -1.19226 3.57018 0
M  V30 33268 C 3268.75 -0.205858 2.76535 0
M  V30 33269 H 3271.7 0.353598 1.54711 0
M  V30 33270 H 3271.72 -1.58033 3.4613 0
M  V30 33271 H 3271.23 0.196663 3.87601 0
M  V30 33272 H 3269.33 -2.12932 3.05762 0
M  V30 33273 H 3269.44 -1.13094 4.6556 0
M  V30 33274 H 3267.81 -0.694829 2.45039 0
M  V30 33275 H 3268.59 0.707902 3.35922 0
M  V30 33276 N 3271.04 -1.5693 -0.145178 0
M  V30 33277 C 3272.45 -1.51636 -0.497878 0
M  V30 33278 C 3272.65 -0.837334 -1.83278 0
M  V30 33279 O 3271.71 -0.408628 -2.49172 0
M  V30 33280 C 3273.02 -2.96403 -0.506505 0
M  V30 33281 C 3274.57 -3.07353 -0.591893 0
M  V30 33282 C 3275.04 -4.5363 -0.631164 0
M  V30 33283 N 3276.53 -4.57982 -0.693337 0
M  V30 33284 C 3277.27 -5.68543 -0.744736 0
M  V30 33285 N 3276.77 -6.8867 -0.755371 0
M  V30 33286 N 3278.56 -5.56581 -0.785756 0
M  V30 33287 H 3270.71 -1.99468 0.729814 0
M  V30 33288 H 3272.97 -0.909826 0.266311 0
M  V30 33289 H 3272.68 -3.49347 0.406189 0
M  V30 33290 H 3272.55 -3.52453 -1.34377 0
M  V30 33291 H 3274.94 -2.54428 -1.49501 0
M  V30 33292 H 3275.02 -2.54344 0.272551 0
M  V30 33293 H 3274.66 -5.07193 0.267799 0
M  V30 33294 H 3274.59 -5.04423 -1.51212 0
M  V30 33295 H 3277.09 -3.71504 -0.692343 0
M  V30 33296 H 3277.4 -7.68685 -0.796489 0
M  V30 33297 H 3275.74 -6.91227 -0.723217 0
M  V30 33298 H 3278.93 -4.61646 -0.774631 0
M  V30 33299 H 3279.11 -6.42761 -0.822348 0
M  V30 33300 N 3272.51 0.414582 -1.52049 0
M  V30 33301 C 3273.46 1.50477 -1.75001 0
M  V30 33302 C 3274.43 1.55181 -0.592278 0
M  V30 33303 O 3275.62 1.71838 -0.829234 0
M  V30 33304 C 3272.76 2.8798 -1.90162 0
M  V30 33305 C 3271.87 2.92627 -3.17794 0
M  V30 33306 C 3271 4.21395 -3.23419 0
M  V30 33307 C 3270.04 4.19996 -4.45275 0
M  V30 33308 N 3269.18 5.40326 -4.48321 0
M  V30 33309 H 3274.02 1.30208 -2.68048 0
M  V30 33310 H 3271.56 0.632131 -1.32825 0
M  V30 33311 H 3273.51 3.67794 -1.96935 0
M  V30 33312 H 3272.14 3.06756 -1.00501 0
M  V30 33313 H 3271.2 2.05338 -3.2022 0
M  V30 33314 H 3272.51 2.87458 -4.07639 0
M  V30 33315 H 3271.66 5.09598 -3.29233 0
M  V30 33316 H 3270.4 4.29252 -2.31503 0
M  V30 33317 H 3269.41 3.30184 -4.39612 0
M  V30 33318 H 3270.63 4.13784 -5.38479 0
M  V30 33319 H 3268.58 5.48862 -3.59286 0
M  V30 33320 H 3268.49 5.37129 -5.32004 0
M  V30 33321 H 3269.76 6.30498 -4.58359 0
M  V30 33322 N 3273.99 1.4258 0.671475 0
M  V30 33323 C 3274.95 1.46011 1.76673 0
M  V30 33324 C 3275.95 0.347241 1.57006 0
M  V30 33325 O 3277.14 0.608213 1.63237 0
M  V30 33326 C 3274.28 1.29499 3.15346 0
M  V30 33327 H 3275.47 2.43534 1.75017 0
M  V30 33328 H 3273.02 1.29076 0.881421 0
M  V30 33329 H 3273.76 0.329117 3.22626 0
M  V30 33330 H 3273.54 2.10155 3.31025 0
M  V30 33331 H 3275.03 1.34791 3.95248 0
M  V30 33332 N 3275.47 -0.908102 1.28807 0
M  V30 33333 C 3276.42 -2.01123 1.13218 0
M  V30 33334 C 3277.39 -1.66077 0.0277649 0
M  V30 33335 O 3278.57 -1.89814 0.193741 0
M  V30 33336 C 3275.71 -3.35557 0.805946 0
M  V30 33337 C 3274.82 -3.83438 1.98997 0
M  V30 33338 C 3273.96 -5.06409 1.60385 0
M  V30 33339 C 3273 -5.46636 2.75418 0
M  V30 33340 N 3272.14 -6.60796 2.37261 0
M  V30 33341 H 3276.98 -2.13789 2.07602 0
M  V30 33342 H 3274.51 -1.04708 1.03318 0
M  V30 33343 H 3276.47 -4.12899 0.597524 0
M  V30 33344 H 3275.1 -3.22642 -0.100966 0
M  V30 33345 H 3274.15 -3.02204 2.31035 0
M  V30 33346 H 3275.46 -4.09207 2.85221 0
M  V30 33347 H 3274.62 -5.9131 1.35782 0
M  V30 33348 H 3273.36 -4.8246 0.712972 0
M  V30 33349 H 3272.36 -4.60273 3.00713 0
M  V30 33350 H 3273.59 -5.7257 3.65158 0
M  V30 33351 H 3271.53 -6.38467 1.50649 0
M  V30 33352 H 3271.45 -6.86319 3.1702 0
M  V30 33353 H 3272.72 -7.48988 2.15956 0
M  V30 33354 N 3276.95 -1.11147 -1.11732 0
M  V30 33355 C 3278.18 -0.880844 -1.87213 0
M  V30 33356 C 3278.59 0.569163 -1.80017 0
M  V30 33357 O 3277.95 1.39281 -1.17928 0
M  V30 33358 C 3278 -1.33004 -3.36143 0
M  V30 33359 O 3277.72 -2.72319 -3.43182 0
M  V30 33360 C 3279.22 -1.13438 -4.2854 0
M  V30 33361 H 3276.44 -0.315656 -0.592117 0
M  V30 33362 H 3278.98 -1.47802 -1.41332 0
M  V30 33363 H 3277.14 -0.776375 -3.79541 0
M  V30 33364 H 3277.55 -2.91712 -4.35895 0
M  V30 33365 H 3279.03 -1.49773 -5.31293 0
M  V30 33366 H 3279.5 -0.0736631 -4.39138 0
M  V30 33367 H 3280.11 -1.67487 -3.90932 0
M  V30 33368 N 3278.43 1.29282 -0.901326 0
M  V30 33369 C 3279.36 2.30101 -0.396949 0
M  V30 33370 C 3280.34 1.61669 0.528891 0
M  V30 33371 O 3281.52 1.89167 0.439273 0
M  V30 33372 C 3278.65 3.4527 0.374945 0
M  V30 33373 C 3277.61 4.25514 -0.460615 0
M  V30 33374 C 3276.93 5.32896 0.438873 0
M  V30 33375 C 3278.23 4.93466 -1.71139 0
M  V30 33376 H 3279.93 2.72539 -1.23948 0
M  V30 33377 H 3277.47 1.31021 -0.597451 0
M  V30 33378 H 3279.42 4.14878 0.738549 0
M  V30 33379 H 3278.15 3.0168 1.25127 0
M  V30 33380 H 3276.81 3.57617 -0.806573 0
M  V30 33381 H 3276.46 4.85551 1.31338 0
M  V30 33382 H 3276.16 5.87484 -0.116509 0
M  V30 33383 H 3277.68 6.05355 0.798634 0
M  V30 33384 H 3279.09 5.55502 -1.41742 0
M  V30 33385 H 3277.49 5.57995 -2.20821 0
M  V30 33386 H 3278.56 4.18662 -2.44643 0
M  V30 33387 N 3279.9 0.663979 1.4293 0
M  V30 33388 C 3281.13 0.188237 2.06544 0
M  V30 33389 C 3281.55 -1.14152 1.49502 0
M  V30 33390 O 3280.91 -1.70759 0.609194 0
M  V30 33391 C 3280.96 0.122168 3.60393 0
M  V30 33392 O 3280.06 -0.912509 4.02178 0
M  V30 33393 H 3279.4 0.0998083 0.656456 0
M  V30 33394 H 3281.93 0.909941 1.83252 0
M  V30 33395 H 3281.94 -0.057585 4.07959 0
M  V30 33396 H 3280.62 1.09283 4.01285 0
M  V30 33397 H 3279.2 -0.704674 3.66181 0
M  V30 33398 N 3281.38 -1.52265 0.406593 0
M  V30 33399 C 3282.61 -2.06685 -0.172065 0
M  V30 33400 C 3283.03 -1.2749 -1.38303 0
M  V30 33401 O 3282.39 -0.304473 -1.78725 0
M  V30 33402 C 3282.44 -3.57069 -0.5034 0
M  V30 33403 O 3281.54 -3.80316 -1.59478 0
M  V30 33404 H 3280.88 -0.663823 -0.0153092 0
M  V30 33405 H 3283.41 -1.96235 0.57906 0
M  V30 33406 H 3283.42 -4.00807 -0.762763 0
M  V30 33407 H 3282.1 -4.14143 0.381848 0
M  V30 33408 H 3280.67 -3.4846 -1.32778 0
M  V30 33409 N 3282.86 -0.136936 -1.57004 0
M  V30 33410 C 3283.81 0.823746 -2.17525 0
M  V30 33411 C 3284.8 1.26256 -1.12942 0
M  V30 33412 O 3286.01 1.23221 -1.31212 0
M  V30 33413 H 3282.38 0.283815 -0.696386 0
M  V30 33414 H 3284.35 0.289 -2.96997 0
M  V30 33415 C 3283.1 2.05688 -2.80335 0
M  V30 33416 H 3282.43 1.72819 -3.60519 0
M  V30 33417 H 3283.87 2.70872 -3.26197 0
M  V30 33418 C 3282.33 2.85834 -1.78327 0
M  V30 33419 O 3282.86 3.81836 -1.24757 0
M  V30 33420 N 3281.06 2.50172 -1.47858 0
M  V30 33421 H 3280.61 1.7217 -1.91613 0
M  V30 33422 H 3280.57 3.04091 -0.798518 0
M  V30 33423 N 3284.34 1.57005 0.136853 0
M  V30 33424 C 3285.56 1.88438 0.866372 0
M  V30 33425 C 3285.99 0.727036 1.73481 0
M  V30 33426 O 3285.35 -0.323063 1.78398 0
M  V30 33427 C 3285.39 3.18517 1.69054 0
M  V30 33428 O 3284.5 3.03165 2.79579 0
M  V30 33429 H 3283.84 0.618838 0.240698 0
M  V30 33430 H 3286.37 2.0422 0.124617 0
M  V30 33431 H 3286.38 3.50793 2.08347 0
M  V30 33432 H 3285.05 4.02352 1.05289 0
M  V30 33433 H 3283.63 2.8232 2.43619 0
M  V30 33434 N 3285.82 -0.406513 1.52267 0
M  V30 33435 C 3287.09 -1.16637 1.5702 0
M  V30 33436 C 3287.47 -2.08131 0.352789 0
M  V30 33437 O 3286.82 -2.18756 -0.66017 0
M  V30 33438 C 3287.03 -1.94138 2.9002 0
M  V30 33439 C 3288.38 -2.50113 3.43116 0
M  V30 33440 O 3289.4 -2.04315 2.91777 0
M  V30 33441 O 3288.26 -3.33724 4.32771 0
M  V30 33442 H 3285.36 -0.532698 0.632584 0
M  V30 33443 H 3287.9 -0.413082 1.64596 0
M  V30 33444 H 3286.67 -1.27127 3.70073 0
M  V30 33445 H 3286.3 -2.76466 2.85749 0
M  V30 33446 N 3287.29 -1.42934 -0.663904 0
M  V30 33447 C 3288.24 -1.47262 -1.77715 0
M  V30 33448 C 3289.21 -0.323416 -1.62921 0
M  V30 33449 O 3290.4 -0.529053 -1.83318 0
M  V30 33450 C 3287.54 -1.39129 -3.15812 0
M  V30 33451 C 3286.65 -2.64171 -3.41815 0
M  V30 33452 C 3285.78 -2.48103 -4.69701 0
M  V30 33453 C 3284.82 -3.68465 -4.88774 0
M  V30 33454 N 3283.96 -3.51272 -6.07908 0
M  V30 33455 H 3288.8 -2.42391 -1.7335 0
M  V30 33456 H 3286.34 -1.20331 -0.8461 0
M  V30 33457 H 3288.3 -1.3241 -3.9563 0
M  V30 33458 H 3286.93 -0.475885 -3.19273 0
M  V30 33459 H 3285.98 -2.81213 -2.56171 0
M  V30 33460 H 3287.29 -3.53609 -3.51799 0
M  V30 33461 H 3286.44 -2.39031 -5.57628 0
M  V30 33462 H 3285.18 -1.56172 -4.62019 0
M  V30 33463 H 3284.19 -3.77957 -3.99285 0
M  V30 33464 H 3285.41 -4.6139 -4.98293 0
M  V30 33465 H 3283.36 -2.62067 -6.01379 0
M  V30 33466 H 3283.28 -4.34304 -6.18802 0
M  V30 33467 H 3284.54 -3.46032 -6.98486 0
M  V30 33468 N 3288.77 0.901258 -1.29287 0
M  V30 33469 C 3289.7 2.02168 -1.16835 0
M  V30 33470 C 3290.68 1.69983 -0.0629564 0
M  V30 33471 O 3291.87 1.92684 -0.242157 0
M  V30 33472 C 3289 3.36927 -0.842465 0
M  V30 33473 C 3287.95 3.83316 -1.90401 0
M  V30 33474 C 3287.28 5.15183 -1.43147 0
M  V30 33475 C 3288.58 4.03811 -3.31261 0
M  V30 33476 H 3290.27 2.12843 -2.10566 0
M  V30 33477 H 3287.82 1.02268 -1.01377 0
M  V30 33478 H 3289.77 4.14815 -0.742072 0
M  V30 33479 H 3288.5 3.26339 0.13054 0
M  V30 33480 H 3287.15 3.07644 -1.99376 0
M  V30 33481 H 3286.8 5.01008 -0.447179 0
M  V30 33482 H 3286.5 5.47191 -2.14139 0
M  V30 33483 H 3288.03 5.95613 -1.34454 0
M  V30 33484 H 3289.44 4.72185 -3.25137 0
M  V30 33485 H 3287.84 4.47171 -4.00197 0
M  V30 33486 H 3288.91 3.08199 -3.74355 0
M  V30 33487 N 3290.25 1.11738 1.11141 0
M  V30 33488 C 3291.18 0.800833 2.19337 0
M  V30 33489 C 3292.16 -0.23218 1.68508 0
M  V30 33490 O 3293.35 -0.0949722 1.93968 0
M  V30 33491 C 3290.48 0.24664 3.46423 0
M  V30 33492 C 3289.43 1.21188 4.10484 0
M  V30 33493 C 3288.76 0.518251 5.32183 0
M  V30 33494 C 3290.06 2.56376 4.55048 0
M  V30 33495 H 3291.75 1.70552 2.46074 0
M  V30 33496 H 3289.3 0.821475 1.1827 0
M  V30 33497 H 3291.25 0.0129629 4.21398 0
M  V30 33498 H 3289.97 -0.693358 3.19155 0
M  V30 33499 H 3288.63 1.43124 3.37507 0
M  V30 33500 H 3288.28 -0.426654 5.01187 0
M  V30 33501 H 3287.98 1.16206 5.75995 0
M  V30 33502 H 3289.5 0.29344 6.09894 0
M  V30 33503 H 3290.92 2.38511 5.21331 0
M  V30 33504 H 3289.32 3.16767 5.09685 0
M  V30 33505 H 3290.39 3.15366 3.68337 0
M  V30 33506 N 3291.73 -1.28802 0.90817 0
M  V30 33507 C 3292.68 -2.29436 0.382355 0
M  V30 33508 C 3293.67 -1.61124 -0.523005 0
M  V30 33509 O 3294.88 -1.75388 -0.404868 0
M  V30 33510 H 3291.25 -0.744629 0.105035 0
M  V30 33511 H 3293.22 -2.71219 1.2443 0
M  V30 33512 C 3291.97 -3.45753 -0.367414 0
M  V30 33513 H 3291.29 -3.98517 0.320027 0
M  V30 33514 H 3292.73 -4.18181 -0.700058 0
M  V30 33515 C 3291.19 -2.97911 -1.57324 0
M  V30 33516 O 3291.72 -2.99907 -2.67243 0
M  V30 33517 N 3289.93 -2.53638 -1.41831 0
M  V30 33518 H 3289.48 -2.52213 -0.524055 0
M  V30 33519 H 3289.43 -2.21987 -2.22641 0
M  V30 33520 N 3293.21 -0.67155 -1.42576 0
M  V30 33521 C 3294.12 0.00894101 -2.34598 0
M  V30 33522 C 3295.13 0.79238 -1.54911 0
M  V30 33523 O 3296.31 0.735444 -1.87492 0
M  V30 33524 C 3293.37 0.95083 -3.33407 0
M  V30 33525 C 3292.43 0.162285 -4.28993 0
M  V30 33526 C 3291.67 1.05931 -5.23082 0
M  V30 33527 O 3291.89 2.29881 -5.22026 0
M  V30 33528 O 3290.82 0.52186 -5.99633 0
M  V30 33529 H 3294.65 -0.748979 -2.9432 0
M  V30 33530 H 3292.24 -0.431776 -1.43025 0
M  V30 33531 H 3294.12 1.49162 -3.94117 0
M  V30 33532 H 3292.79 1.68866 -2.76163 0
M  V30 33533 H 3291.7 -0.422536 -3.71706 0
M  V30 33534 H 3293.03 -0.53636 -4.89269 0
M  V30 33535 N 3294.68 1.52047 -0.414663 0
M  V30 33536 C 3295.65 2.25749 0.396245 0
M  V30 33537 C 3296.65 1.28325 0.968981 0
M  V30 33538 O 3297.84 1.52223 0.846989 0
M  V30 33539 C 3294.97 3.03198 1.55832 0
M  V30 33540 H 3296.16 2.98861 -0.249364 0
M  V30 33541 H 3293.72 1.55402 -0.167303 0
M  V30 33542 H 3294.45 2.34448 2.24064 0
M  V30 33543 H 3294.24 3.74731 1.15407 0
M  V30 33544 H 3295.73 3.59087 2.13181 0
M  V30 33545 N 3296.16 0.145261 1.56929 0
M  V30 33546 C 3297.11 -0.79509 2.16672 0
M  V30 33547 C 3298.08 -1.24535 1.0991 0
M  V30 33548 O 3299.26 -1.31819 1.37943 0
M  V30 33549 C 3296.4 -2.02951 2.79115 0
M  V30 33550 C 3295.52 -1.62521 4.00263 0
M  V30 33551 C 3294.65 -2.8113 4.5071 0
M  V30 33552 C 3293.69 -2.37065 5.64329 0
M  V30 33553 N 3292.83 -3.48676 6.09401 0
M  V30 33554 H 3297.67 -0.278813 2.96693 0
M  V30 33555 H 3295.21 -0.125908 1.4656 0
M  V30 33556 H 3297.16 -2.75314 3.13461 0
M  V30 33557 H 3295.79 -2.51992 2.01741 0
M  V30 33558 H 3294.85 -0.7993 3.71908 0
M  V30 33559 H 3296.16 -1.26157 4.82582 0
M  V30 33560 H 3295.31 -3.61685 4.87103 0
M  V30 33561 H 3294.05 -3.20737 3.67395 0
M  V30 33562 H 3293.06 -1.54949 5.27514 0
M  V30 33563 H 3294.28 -1.98545 6.49428 0
M  V30 33564 H 3292.23 -3.87908 5.29021 0
M  V30 33565 H 3292.14 -3.16321 6.86642 0
M  V30 33566 H 3293.41 -4.29593 6.50438 0
M  V30 33567 N 3297.64 -1.57075 -0.128525 0
M  V30 33568 C 3298.57 -1.94827 -1.18818 0
M  V30 33569 C 3299.55 -0.816596 -1.40608 0
M  V30 33570 O 3300.74 -1.07391 -1.54918 0
M  V30 33571 C 3297.86 -2.23627 -2.54379 0
M  V30 33572 C 3296.91 -3.46214 -2.49074 0
M  V30 33573 S 3297.74 -4.99137 -1.93966 0
M  V30 33574 C 3298.9 -5.31079 -3.31218 0
M  V30 33575 H 3299.13 -2.84402 -0.866196 0
M  V30 33576 H 3296.66 -1.50724 -0.3349 0
M  V30 33577 H 3298.62 -2.40899 -3.32382 0
M  V30 33578 H 3297.28 -1.34683 -2.83759 0
M  V30 33579 H 3296.48 -3.63702 -3.48909 0
M  V30 33580 H 3296.08 -3.2828 -1.79188 0
M  V30 33581 H 3298.37 -5.25678 -4.27398 0
M  V30 33582 H 3299.31 -6.32393 -3.18567 0
M  V30 33583 H 3299.72 -4.58566 -3.29207 0
M  V30 33584 N 3299.12 0.398432 -1.5248 0
M  V30 33585 C 3300.35 1.16583 -1.70927 0
M  V30 33586 C 3300.76 1.8399 -0.423452 0
M  V30 33587 O 3300.12 1.72307 0.601364 0
M  V30 33588 C 3300.17 2.22094 -2.8523 0
M  V30 33589 O 3299.89 1.57437 -4.08834 0
M  V30 33590 C 3301.39 3.11633 -3.15277 0
M  V30 33591 H 3298.61 0.349914 -0.572539 0
M  V30 33592 H 3301.16 0.467381 -1.99087 0
M  V30 33593 H 3299.31 2.8759 -2.59558 0
M  V30 33594 H 3299.73 2.27471 -4.72607 0
M  V30 33595 H 3301.2 3.81717 -3.98743 0
M  V30 33596 H 3301.68 3.7461 -2.29269 0
M  V30 33597 H 3302.28 2.51794 -3.42753 0
M  V30 33598 N 3300.6 1.43284 0.656314 0
M  V30 33599 C 3301.53 1.44167 1.78181 0
M  V30 33600 C 3302.54 0.338205 1.59248 0
M  V30 33601 O 3303.73 0.602449 1.68026 0
M  V30 33602 C 3300.83 1.23583 3.15564 0
M  V30 33603 C 3300 2.4671 3.61183 0
M  V30 33604 C 3299.06 2.21396 4.77357 0
M  V30 33605 O 3298.09 2.94727 4.86955 0
M  V30 33606 N 3299.29 1.22865 5.67349 0
M  V30 33607 H 3302.06 2.41186 1.77903 0
M  V30 33608 H 3299.62 1.38401 0.840052 0
M  V30 33609 H 3301.61 1.04536 3.90966 0
M  V30 33610 H 3300.18 0.350209 3.10632 0
M  V30 33611 H 3299.4 2.81203 2.76259 0
M  V30 33612 H 3300.69 3.28659 3.88408 0
M  V30 33613 H 3300.09 0.622516 5.62264 0
M  V30 33614 H 3298.64 1.09802 6.42485 0
M  V30 33615 N 3302.08 -0.894389 1.29763 0
M  V30 33616 C 3303.02 -1.9991 1.15345 0
M  V30 33617 C 3303.99 -1.66038 0.045378 0
M  V30 33618 O 3305.18 -1.89598 0.213862 0
M  V30 33619 C 3302.32 -3.34683 0.841491 0
M  V30 33620 C 3301.43 -3.81305 2.03052 0
M  V30 33621 C 3300.57 -5.04679 1.65747 0
M  V30 33622 C 3299.6 -5.43684 2.81201 0
M  V30 33623 N 3298.74 -6.58243 2.44256 0
M  V30 33624 H 3303.58 -2.11575 2.09857 0
M  V30 33625 H 3301.12 -1.03606 1.04423 0
M  V30 33626 H 3303.08 -4.12242 0.641283 0
M  V30 33627 H 3301.71 -3.22731 -0.0667403 0
M  V30 33628 H 3300.76 -2.99736 2.34227 0
M  V30 33629 H 3302.07 -4.06159 2.89545 0
M  V30 33630 H 3301.22 -5.89837 1.42046 0
M  V30 33631 H 3299.96 -4.81677 0.764104 0
M  V30 33632 H 3298.97 -4.57058 3.05578 0
M  V30 33633 H 3300.19 -5.68665 3.7121 0
M  V30 33634 H 3298.14 -6.36834 1.57413 0
M  V30 33635 H 3298.06 -6.82918 3.24281 0
M  V30 33636 H 3299.32 -7.46656 2.23888 0
M  V30 33637 N 3303.55 -1.12326 -1.10547 0
M  V30 33638 C 3304.5 -0.790063 -2.16856 0
M  V30 33639 C 3305.47 0.242665 -1.64318 0
M  V30 33640 O 3306.66 0.117498 -1.90438 0
M  V30 33641 C 3303.8 -0.249563 -3.44196 0
M  V30 33642 C 3302.91 -1.33997 -4.10693 0
M  V30 33643 C 3302.04 -0.759025 -5.25749 0
M  V30 33644 C 3301.08 -1.82863 -5.84147 0
M  V30 33645 N 3300.22 -1.26649 -6.90583 0
M  V30 33646 H 3305.06 -1.70074 -2.44702 0
M  V30 33647 H 3302.6 -0.849162 -1.20115 0
M  V30 33648 H 3304.55 0.0818518 -4.1712 0
M  V30 33649 H 3303.18 0.624277 -3.16706 0
M  V30 33650 H 3302.24 -1.78818 -3.3575 0
M  V30 33651 H 3303.55 -2.14883 -4.50141 0
M  V30 33652 H 3302.7 -0.378211 -6.0552 0
M  V30 33653 H 3301.44 0.0810548 -4.87633 0
M  V30 33654 H 3300.45 -2.21865 -5.03047 0
M  V30 33655 H 3301.67 -2.67191 -6.24328 0
M  V30 33656 H 3299.62 -0.44822 -6.54467 0
M  V30 33657 H 3299.53 -2.01197 -7.28736 0
M  V30 33658 H 3300.8 -0.912873 -7.74136 0
M  V30 33659 N 3305.03 1.28319 -0.914988 0
M  V30 33660 C 3305.96 2.29667 -0.421332 0
M  V30 33661 C 3306.94 1.62221 0.511714 0
M  V30 33662 O 3308.13 1.89622 0.419184 0
M  V30 33663 C 3305.26 3.45648 0.338303 0
M  V30 33664 C 3304.21 4.25002 -0.505721 0
M  V30 33665 C 3303.54 5.33331 0.382327 0
M  V30 33666 C 3304.84 4.91623 -1.76363 0
M  V30 33667 H 3306.53 2.71209 -1.26831 0
M  V30 33668 H 3304.08 1.3038 -0.611314 0
M  V30 33669 H 3306.03 4.15638 0.694505 0
M  V30 33670 H 3304.75 3.0299 1.2192 0
M  V30 33671 H 3303.41 3.56741 -0.844457 0
M  V30 33672 H 3303.06 4.86916 1.2618 0
M  V30 33673 H 3302.76 5.87328 -0.178813 0
M  V30 33674 H 3304.29 6.06168 0.734383 0
M  V30 33675 H 3305.7 5.53967 -1.47626 0
M  V30 33676 H 3304.1 5.55621 -2.26727 0
M  V30 33677 H 3305.17 4.16044 -2.4907 0
M  V30 33678 N 3306.51 0.679102 1.42218 0
M  V30 33679 C 3307.46 0.00344373 2.308 0
M  V30 33680 C 3308.43 -0.788308 1.46202 0
M  V30 33681 O 3309.61 -0.759685 1.75024 0
M  V30 33682 C 3306.75 -0.938795 3.32085 0
M  V30 33683 C 3305.86 -0.140409 4.31772 0
M  V30 33684 C 3305 -1.07879 5.2013 0
M  V30 33685 C 3304.04 -0.272343 6.11494 0
M  V30 33686 N 3303.18 -1.16366 6.9239 0
M  V30 33687 H 3308.02 0.764637 2.88023 0
M  V30 33688 H 3305.55 0.388805 1.41869 0
M  V30 33689 H 3307.51 -1.49896 3.89342 0
M  V30 33690 H 3306.14 -1.66657 2.76451 0
M  V30 33691 H 3305.19 0.536442 3.76599 0
M  V30 33692 H 3306.5 0.485521 4.96431 0
M  V30 33693 H 3305.66 -1.70874 5.8214 0
M  V30 33694 H 3304.4 -1.7386 4.55658 0
M  V30 33695 H 3303.4 0.37079 5.48548 0
M  V30 33696 H 3304.63 0.383434 6.78017 0
M  V30 33697 H 3302.57 -1.80979 6.30542 0
M  V30 33698 H 3302.49 -0.59291 7.53671 0
M  V30 33699 H 3303.76 -1.78094 7.58883 0
M  V30 33700 N 3307.99 -1.51825 0.42272 0
M  V30 33701 C 3308.92 -2.25099 -0.43163 0
M  V30 33702 C 3309.93 -1.28566 -0.998735 0
M  V30 33703 O 3311.12 -1.5442 -0.895363 0
M  V30 33704 C 3308.22 -2.97987 -1.61421 0
M  V30 33705 C 3307.39 -4.21501 -1.16859 0
M  V30 33706 C 3306.45 -4.77095 -2.21962 0
M  V30 33707 O 3305.48 -5.39321 -1.81994 0
M  V30 33708 N 3306.68 -4.59851 -3.54285 0
M  V30 33709 H 3309.45 -2.99056 0.196308 0
M  V30 33710 H 3307.01 -1.59945 0.250819 0
M  V30 33711 H 3309 -3.3207 -2.31326 0
M  V30 33712 H 3307.57 -2.27132 -2.14779 0
M  V30 33713 H 3306.79 -3.93078 -0.297148 0
M  V30 33714 H 3308.08 -5.01683 -0.848018 0
M  V30 33715 H 3307.48 -4.10253 -3.89498 0
M  V30 33716 H 3306.03 -4.98334 -4.20126 0
M  V30 33717 N 3309.47 -0.153581 -1.5685 0
M  V30 33718 C 3310.38 0.796489 -2.20665 0
M  V30 33719 C 3311.39 1.26671 -1.19291 0
M  V30 33720 O 3312.57 1.32253 -1.51891 0
M  V30 33721 C 3309.63 2.01556 -2.82092 0
M  V30 33722 C 3308.69 1.59394 -3.98613 0
M  V30 33723 C 3307.93 2.7549 -4.57101 0
M  V30 33724 O 3308.15 3.91883 -4.14469 0
M  V30 33725 O 3307.08 2.50584 -5.47258 0
M  V30 33726 H 3310.91 0.283229 -3.02376 0
M  V30 33727 H 3308.49 0.0737665 -1.49218 0
M  V30 33728 H 3310.38 2.72887 -3.21108 0
M  V30 33729 H 3309.05 2.51822 -2.0339 0
M  V30 33730 H 3307.96 0.850661 -3.643 0
M  V30 33731 H 3309.29 1.13837 -4.78855 0
M  V30 33732 N 3310.94 1.57141 0.120193 0
M  V30 33733 C 3312.19 1.85064 0.829417 0
M  V30 33734 C 3312.52 0.739147 1.79584 0
M  V30 33735 O 3311.8 -0.255113 1.9282 0
M  V30 33736 C 3312.08 3.23568 1.58037 0
M  V30 33737 C 3311.93 4.45315 0.633628 0
M  V30 33738 C 3313.25 3.5963 2.53682 0
M  V30 33739 H 3310.37 0.673145 0.300075 0
M  V30 33740 H 3313.01 1.89769 0.0937059 0
M  V30 33741 H 3311.16 3.19688 2.20753 0
M  V30 33742 H 3312.84 4.61297 0.0154025 0
M  V30 33743 H 3311.08 4.33765 -0.0549222 0
M  V30 33744 H 3311.75 5.38895 1.19568 0
M  V30 33745 H 3314.23 3.64293 2.01071 0
M  V30 33746 H 3313.1 4.57522 3.03257 0
M  V30 33747 H 3313.36 2.86986 3.36291 0
M  V30 33748 N 3312.42 -0.39034 1.5269 0
M  V30 33749 C 3313.65 -1.16126 1.71841 0
M  V30 33750 C 3314.07 -1.82995 0.435258 0
M  V30 33751 O 3313.43 -1.70771 -0.60886 0
M  V30 33752 C 3313.48 -2.18598 2.86788 0
M  V30 33753 O 3312.58 -3.25156 2.53668 0
M  V30 33754 H 3311.92 -0.338125 0.571461 0
M  V30 33755 H 3314.45 -0.455045 1.99476 0
M  V30 33756 H 3314.46 -2.62617 3.12244 0
M  V30 33757 H 3313.14 -1.69315 3.79875 0
M  V30 33758 H 3311.72 -2.86285 2.38947 0
M  V30 33759 N 3313.9 -1.4363 -0.648706 0
M  V30 33760 C 3315.31 -1.40457 -1.22998 0
M  V30 33761 C 3315.66 -0.110931 -1.95886 0
M  V30 33762 O 3314.79 0.789451 -2.01486 0
M  V30 33763 C 3315.38 -2.54438 -2.23712 0
M  V30 33764 C 3313.94 -2.54515 -2.77306 0
M  V30 33765 C 3313.09 -2.31917 -1.5202 0
M  V30 33766 H 3316.04 -1.52466 -0.440446 0
M  V30 33767 H 3316.06 -2.26185 -3.05975 0
M  V30 33768 H 3315.57 -3.48577 -1.70634 0
M  V30 33769 H 3313.67 -1.64269 -3.34435 0
M  V30 33770 H 3313.79 -3.52432 -3.24544 0
M  V30 33771 H 3312.15 -1.8067 -1.79528 0
M  V30 33772 H 3312.93 -3.28146 -1.0087 0
M  V30 33773 N 3315.38 0.887495 -1.30236 0
M  V30 33774 C 3316.34 1.9745 -1.16387 0
M  V30 33775 C 3317.34 1.60514 -0.0958224 0
M  V30 33776 O 3318.53 1.70775 -0.343736 0
M  V30 33777 C 3315.66 3.31796 -0.782573 0
M  V30 33778 H 3316.86 2.11163 -2.12956 0
M  V30 33779 H 3314.41 1.07357 -1.13596 0
M  V30 33780 H 3315.14 3.23785 0.182723 0
M  V30 33781 H 3314.93 3.59973 -1.55441 0
M  V30 33782 H 3316.42 4.11536 -0.709083 0
M  V30 33783 N 3316.86 1.12911 1.0995 0
M  V30 33784 C 3317.79 0.824052 2.18476 0
M  V30 33785 C 3318.77 -0.214295 1.68745 0
M  V30 33786 O 3319.95 -0.074394 1.94057 0
M  V30 33787 C 3317.08 0.283369 3.46142 0
M  V30 33788 C 3316.04 1.25535 4.09176 0
M  V30 33789 C 3315.36 0.574667 5.31603 0
M  V30 33790 C 3316.66 2.61188 4.52303 0
M  V30 33791 H 3318.36 1.73153 2.44251 0
M  V30 33792 H 3315.9 0.833973 1.17392 0
M  V30 33793 H 3317.86 0.0576571 4.21361 0
M  V30 33794 H 3316.58 -0.659469 3.19873 0
M  V30 33795 H 3315.24 1.46696 3.3597 0
M  V30 33796 H 3314.89 -0.373472 5.01612 0
M  V30 33797 H 3314.59 1.22309 5.7473 0
M  V30 33798 H 3316.11 0.358111 6.09549 0
M  V30 33799 H 3317.52 2.44027 5.18772 0
M  V30 33800 H 3315.92 3.22155 5.06296 0
M  V30 33801 H 3316.99 3.19255 3.64971 0
M  V30 33802 N 3318.33 -1.27832 0.92178 0
M  V30 33803 C 3319.28 -2.29017 0.406668 0
M  V30 33804 C 3320.28 -1.6167 -0.505886 0
M  V30 33805 O 3321.48 -1.75807 -0.386243 0
M  V30 33806 H 3317.86 -0.743473 0.112927 0
M  V30 33807 H 3319.83 -2.69884 1.273 0
M  V30 33808 C 3318.58 -3.46124 -0.330722 0
M  V30 33809 H 3317.9 -3.98155 0.362277 0
M  V30 33810 H 3319.34 -4.189 -0.655665 0
M  V30 33811 C 3317.8 -2.99562 -1.54156 0
M  V30 33812 O 3318.33 -3.02725 -2.64047 0
M  V30 33813 N 3316.54 -2.55128 -1.39133 0
M  V30 33814 H 3316.08 -2.52755 -0.497275 0
M  V30 33815 H 3316.04 -2.24336 -2.20274 0
M  V30 33816 N 3319.81 -0.686634 -1.41856 0
M  V30 33817 C 3320.76 -0.00417599 -2.326 0
M  V30 33818 C 3321.75 0.778051 -1.50475 0
M  V30 33819 O 3322.96 0.68468 -1.6647 0
M  V30 33820 H 3319.34 0.0174483 -0.751798 0
M  V30 33821 H 3321.31 -0.786706 -2.87843 0
M  V30 33822 C 3320.06 0.92476 -3.35177 0
M  V30 33823 H 3319.38 0.332268 -3.98417 0
M  V30 33824 H 3320.82 1.37075 -4.01231 0
M  V30 33825 C 3319.28 2.03674 -2.68363 0
M  V30 33826 O 3319.81 3.12454 -2.52459 0
M  V30 33827 N 3318.01 1.81188 -2.27199 0
M  V30 33828 H 3317.56 0.927208 -2.40334 0
M  V30 33829 H 3317.52 2.55775 -1.82829 0
M  V30 33830 N 3321.29 1.51599 -0.430766 0
M  V30 33831 C 3322.22 2.30475 0.374655 0
M  V30 33832 C 3323.2 1.35604 1.02691 0
M  V30 33833 O 3324.39 1.64522 1.03181 0
M  V30 33834 C 3321.52 3.14198 1.47975 0
M  V30 33835 C 3320.47 4.17293 0.951342 0
M  V30 33836 C 3319.8 4.89496 2.15169 0
M  V30 33837 C 3321.1 5.22299 -0.00967132 0
M  V30 33838 H 3322.79 2.98054 -0.28356 0
M  V30 33839 H 3320.34 1.43339 -0.137815 0
M  V30 33840 H 3322.29 3.68155 2.05037 0
M  V30 33841 H 3321.01 2.44428 2.16616 0
M  V30 33842 H 3319.67 3.64378 0.402988 0
M  V30 33843 H 3319.32 4.16235 2.82414 0
M  V30 33844 H 3319.02 5.59205 1.80454 0
M  V30 33845 H 3320.54 5.46274 2.72796 0
M  V30 33846 H 3321.96 5.71367 0.470427 0
M  V30 33847 H 3320.36 5.99496 -0.269065 0
M  V30 33848 H 3321.43 4.75535 -0.948381 0
M  V30 33849 N 3322.77 0.161897 1.56766 0
M  V30 33850 C 3323.7 -0.803318 2.14661 0
M  V30 33851 C 3324.71 -1.20035 1.09979 0
M  V30 33852 O 3325.9 -1.14184 1.37201 0
M  V30 33853 C 3323 -2.09146 2.66667 0
M  V30 33854 C 3322.18 -1.85947 3.95907 0
M  V30 33855 C 3321.23 -2.98889 4.33072 0
M  V30 33856 O 3320.26 -2.69933 5.01123 0
M  V30 33857 N 3321.46 -4.26441 3.93863 0
M  V30 33858 H 3324.23 -0.30842 2.98109 0
M  V30 33859 H 3321.79 -0.0211953 1.61886 0
M  V30 33860 H 3323.78 -2.83779 2.88533 0
M  V30 33861 H 3322.35 -2.49854 1.87861 0
M  V30 33862 H 3321.57 -0.952684 3.82515 0
M  V30 33863 H 3322.86 -1.67802 4.80333 0
M  V30 33864 H 3322.26 -4.5283 3.39059 0
M  V30 33865 H 3320.81 -4.97808 4.2075 0
M  V30 33866 N 3324.25 -1.57203 -0.111858 0
M  V30 33867 C 3325.18 -1.97519 -1.16271 0
M  V30 33868 C 3326.19 -0.87545 -1.37258 0
M  V30 33869 O 3327.38 -1.15369 -1.36206 0
M  V30 33870 C 3324.48 -2.26446 -2.52141 0
M  V30 33871 C 3323.65 -3.57752 -2.51659 0
M  V30 33872 C 3322.71 -3.74809 -3.6933 0
M  V30 33873 O 3321.74 -4.46845 -3.52588 0
M  V30 33874 N 3322.94 -3.14116 -4.88171 0
M  V30 33875 H 3325.71 -2.88273 -0.819696 0
M  V30 33876 H 3323.27 -1.59076 -0.301048 0
M  V30 33877 H 3325.26 -2.35066 -3.29433 0
M  V30 33878 H 3323.83 -1.41784 -2.78596 0
M  V30 33879 H 3323.05 -3.60255 -1.60032 0
M  V30 33880 H 3324.34 -4.44044 -2.484 0
M  V30 33881 H 3323.73 -2.55573 -5.04677 0
M  V30 33882 H 3322.29 -3.28246 -5.63114 0
M  V30 33883 N 3325.72 0.382237 -1.52894 0
M  V30 33884 C 3326.95 1.14763 -1.72154 0
M  V30 33885 C 3327.37 1.83531 -0.442943 0
M  V30 33886 O 3326.72 1.72936 0.583055 0
M  V30 33887 C 3326.78 2.19057 -2.8757 0
M  V30 33888 O 3326.5 1.53092 -4.10481 0
M  V30 33889 C 3328 3.08272 -3.18565 0
M  V30 33890 H 3325.22 0.343822 -0.576218 0
M  V30 33891 H 3327.76 0.446238 -1.99572 0
M  V30 33892 H 3325.92 2.84821 -2.62594 0
M  V30 33893 H 3326.33 2.22446 -4.74993 0
M  V30 33894 H 3327.8 3.77466 -4.02769 0
M  V30 33895 H 3328.28 3.72157 -2.33229 0
M  V30 33896 H 3328.89 2.48144 -3.45405 0
M  V30 33897 N 3327.2 1.43972 0.64108 0
M  V30 33898 C 3328.13 1.52888 1.76487 0
M  V30 33899 C 3329.11 0.382609 1.65741 0
M  V30 33900 O 3330.3 0.60143 1.84652 0
M  V30 33901 C 3327.43 1.46316 3.14975 0
M  V30 33902 C 3326.38 2.59317 3.40498 0
M  V30 33903 C 3325.71 2.37797 4.78912 0
M  V30 33904 C 3327.01 4.01514 3.34041 0
M  V30 33905 H 3328.7 2.46949 1.69282 0
M  V30 33906 H 3326.25 1.18855 0.812994 0
M  V30 33907 H 3328.2 1.51156 3.93357 0
M  V30 33908 H 3326.93 0.487656 3.22939 0
M  V30 33909 H 3325.59 2.53851 2.64491 0
M  V30 33910 H 3325.23 1.38462 4.83567 0
M  V30 33911 H 3324.93 3.13554 4.96948 0
M  V30 33912 H 3326.46 2.44439 5.59537 0
M  V30 33913 H 3327.87 4.08403 4.02343 0
M  V30 33914 H 3326.27 4.77394 3.63613 0
M  V30 33915 H 3327.34 4.2579 2.32015 0
M  V30 33916 N 3328.68 -0.880575 1.30704 0
M  V30 33917 C 3329.63 -2.00815 1.17372 0
M  V30 33918 C 3330.62 -1.69189 0.0845457 0
M  V30 33919 O 3331.83 -1.78315 0.245704 0
M  V30 33920 H 3328.2 -0.65852 0.363119 0
M  V30 33921 H 3330.18 -2.09193 2.12793 0
M  V30 33922 C 3328.92 -3.36198 0.88691 0
M  V30 33923 H 3328.25 -3.61048 1.71711 0
M  V30 33924 H 3329.69 -4.15722 0.833753 0
M  V30 33925 C 3328.15 -3.34393 -0.410234 0
M  V30 33926 O 3328.68 -3.75371 -1.43038 0
M  V30 33927 N 3326.88 -2.87505 -0.422973 0
M  V30 33928 H 3326.43 -2.54354 0.407681 0
M  V30 33929 H 3326.39 -2.8668 -1.29081 0
M  V30 33930 N 3330.16 -1.13492 -1.09349 0
M  V30 33931 C 3331.41 -0.891801 -1.80914 0
M  V30 33932 C 3331.72 0.583667 -1.86689 0
M  V30 33933 O 3332.93 0.943744 -2.5457 0
M  V30 33934 C 3331.38 -1.54592 -3.25007 0
M  V30 33935 C 3330.99 -3.05697 -3.27495 0
M  V30 33936 C 3332.74 -1.38354 -4.01321 0
M  V30 33937 C 3330.64 -3.63991 -4.66117 0
M  V30 33938 H 3329.57 -0.32999 -0.677955 0
M  V30 33939 H 3332.22 -1.36272 -1.22891 0
M  V30 33940 H 3330.61 -1.00267 -3.83096 0
M  V30 33941 H 3331.78 -3.66609 -2.79167 0
M  V30 33942 H 3330.09 -3.21462 -2.64672 0
M  V30 33943 H 3332.69 -1.79316 -5.03736 0
M  V30 33944 H 3333.03 -0.328477 -4.15002 0
M  V30 33945 H 3333.57 -1.89662 -3.49676 0
M  V30 33946 H 3330.31 -4.69306 -4.57637 0
M  V30 33947 H 3329.83 -3.07857 -5.14766 0
M  V30 33948 H 3331.51 -3.63713 -5.35091 0
M  V30 33949 N 3331.64 1.27341 -0.928546 0
M  V30 33950 C 3332.88 1.94617 -0.57027 0
M  V30 33951 C 3333.22 1.72793 0.886351 0
M  V30 33952 O 3332.49 1.0575 1.6324 0
M  V30 33953 C 3332.77 3.48723 -0.898025 0
M  V30 33954 C 3332.63 3.79886 -2.40846 0
M  V30 33955 C 3333.95 4.38237 -0.404506 0
M  V30 33956 H 3331.07 0.706846 -0.208657 0
M  V30 33957 H 3333.71 1.50442 -1.16048 0
M  V30 33958 H 3331.86 3.86479 -0.395747 0
M  V30 33959 H 3333.53 3.51916 -2.9825 0
M  V30 33960 H 3331.77 3.26407 -2.85729 0
M  V30 33961 H 3332.44 4.87555 -2.58831 0
M  V30 33962 H 3334.92 4.07636 -0.83499 0
M  V30 33963 H 3333.8 5.44884 -0.66278 0
M  V30 33964 H 3334.06 4.36596 0.695431 0
M  V30 33965 N 3333.12 0.694147 1.4149 0
M  V30 33966 C 3334.34 0.233503 2.05578 0
M  V30 33967 C 3334.76 -1.11673 1.52232 0
M  V30 33968 O 3334.12 -1.69758 0.669967 0
M  V30 33969 C 3334.17 0.181031 3.61046 0
M  V30 33970 O 3333.89 1.47792 4.12419 0
M  V30 33971 C 3335.39 -0.300776 4.42278 0
M  V30 33972 H 3332.61 0.108955 0.662095 0
M  V30 33973 H 3335.15 0.946331 1.81287 0
M  V30 33974 H 3333.31 -0.482611 3.84382 0
M  V30 33975 H 3333.72 1.36409 5.06451 0
M  V30 33976 H 3335.2 -0.286367 5.51257 0
M  V30 33977 H 3335.67 -1.33941 4.18278 0
M  V30 33978 H 3336.28 0.331816 4.24004 0
M  V30 33979 N 3334.59 -1.51368 0.438799 0
M  V30 33980 C 3335.84 -2.024 -0.127366 0
M  V30 33981 C 3336.17 -1.32225 -1.42233 0
M  V30 33982 O 3335.45 -0.437641 -1.89512 0
M  V30 33983 C 3335.73 -3.58447 -0.34461 0
M  V30 33984 C 3335.58 -4.39236 0.969104 0
M  V30 33985 C 3336.9 -4.25775 -1.11373 0
M  V30 33986 H 3334.02 -0.735636 -0.0448151 0
M  V30 33987 H 3336.66 -1.80992 0.578082 0
M  V30 33988 H 3334.81 -3.76819 -0.945516 0
M  V30 33989 H 3336.49 -4.32511 1.6041 0
M  V30 33990 H 3334.73 -4.04262 1.57336 0
M  V30 33991 H 3335.4 -5.46587 0.771125 0
M  V30 33992 H 3337.88 -4.11682 -0.604712 0
M  V30 33993 H 3336.75 -5.34838 -1.2345 0
M  V30 33994 H 3337.01 -3.86734 -2.14218 0
M  V30 33995 N 3336.07 -0.170208 -1.56678 0
M  V30 33996 C 3337 0.791923 -2.15084 0
M  V30 33997 C 3338.02 1.1945 -1.10614 0
M  V30 33998 O 3339.21 1.13455 -1.37805 0
M  V30 33999 C 3336.31 2.07729 -2.67772 0
M  V30 34000 C 3335.48 1.83844 -3.96888 0
M  V30 34001 C 3334.54 2.96589 -4.34651 0
M  V30 34002 O 3333.56 2.67272 -5.02548 0
M  V30 34003 N 3334.77 4.24346 -3.96119 0
M  V30 34004 H 3337.53 0.292606 -2.98268 0
M  V30 34005 H 3335.09 0.0126098 -1.61895 0
M  V30 34006 H 3337.08 2.82245 -2.90034 0
M  V30 34007 H 3335.65 2.48854 -1.89183 0
M  V30 34008 H 3334.87 0.932385 -3.83015 0
M  V30 34009 H 3336.16 1.65253 -4.81216 0
M  V30 34010 H 3335.56 4.51026 -3.41456 0
M  V30 34011 H 3334.12 4.95569 -4.23384 0
M  V30 34012 N 3337.55 1.5726 0.10352 0
M  V30 34013 C 3338.5 2.0146 1.12617 0
M  V30 34014 C 3339.47 0.889415 1.4028 0
M  V30 34015 O 3340.65 1.15479 1.51885 0
M  V30 34016 C 3337.79 2.43697 2.44348 0
M  V30 34017 C 3336.9 3.69699 2.23488 0
M  V30 34018 C 3336.04 4.0085 3.48558 0
M  V30 34019 C 3335.08 5.19988 3.22923 0
M  V30 34020 N 3334.22 5.46933 4.40236 0
M  V30 34021 H 3339.06 2.88608 0.742265 0
M  V30 34022 H 3336.59 1.42752 0.354991 0
M  V30 34023 H 3338.55 2.66227 3.21215 0
M  V30 34024 H 3337.18 1.5957 2.80602 0
M  V30 34025 H 3336.23 3.54694 1.37464 0
M  V30 34026 H 3337.54 4.56715 2.00532 0
M  V30 34027 H 3336.7 4.24112 4.33836 0
M  V30 34028 H 3335.44 3.1234 3.7456 0
M  V30 34029 H 3334.44 4.96555 2.36036 0
M  V30 34030 H 3335.67 6.10089 2.98276 0
M  V30 34031 H 3333.61 4.61381 4.6633 0
M  V30 34032 H 3333.53 6.28304 4.20441 0
M  V30 34033 H 3334.8 5.74725 5.26604 0
M  V30 34034 N 3339.03 -0.374123 1.53095 0
M  V30 34035 C 3339.94 -1.48184 1.81875 0
M  V30 34036 C 3340.95 -1.59011 0.706515 0
M  V30 34037 O 3342.13 -1.75066 0.995679 0
M  V30 34038 C 3339.19 -2.83551 1.99499 0
M  V30 34039 C 3338.26 -2.82323 3.23407 0
M  V30 34040 C 3337.49 -4.11233 3.40181 0
M  V30 34041 O 3337.71 -5.0696 2.61434 0
M  V30 34042 O 3336.65 -4.17565 4.33501 0
M  V30 34043 H 3340.47 -1.2679 2.75967 0
M  V30 34044 H 3338.06 -0.563405 1.38369 0
M  V30 34045 H 3339.94 -3.63774 2.12712 0
M  V30 34046 H 3338.61 -3.0494 1.08597 0
M  V30 34047 H 3337.52 -2.00828 3.15624 0
M  V30 34048 H 3338.85 -2.65887 4.14204 0
M  V30 34049 N 3340.51 -1.4431 -0.633436 0
M  V30 34050 C 3341.75 -1.47189 -1.3951 0
M  V30 34051 C 3342.08 -0.10322 -1.93925 0
M  V30 34052 O 3341.36 0.878823 -1.73514 0
M  V30 34053 C 3341.64 -2.5304 -2.56208 0
M  V30 34054 C 3341.5 -3.99257 -2.07157 0
M  V30 34055 C 3342.81 -2.55419 -3.58398 0
M  V30 34056 H 3339.93 -0.535917 -0.505926 0
M  V30 34057 H 3342.58 -1.75976 -0.716414 0
M  V30 34058 H 3340.73 -2.28624 -3.14107 0
M  V30 34059 H 3342.4 -4.34797 -1.54107 0
M  V30 34060 H 3340.64 -4.11144 -1.3836 0
M  V30 34061 H 3341.31 -4.68965 -2.91163 0
M  V30 34062 H 3343.79 -2.77229 -3.10295 0
M  V30 34063 H 3342.66 -3.31389 -4.37575 0
M  V30 34064 H 3342.92 -1.59531 -4.12313 0
M  V30 34065 N 3341.98 0.873632 -1.3117 0
M  V30 34066 C 3343.23 1.62115 -1.20006 0
M  V30 34067 C 3343.55 1.94104 0.241471 0
M  V30 34068 O 3344.75 2.67317 0.474754 0
M  V30 34069 C 3343.21 2.92237 -2.1006 0
M  V30 34070 C 3342.82 2.67746 -3.59188 0
M  V30 34071 C 3344.56 3.70224 -2.07688 0
M  V30 34072 C 3342.47 3.93753 -4.41262 0
M  V30 34073 H 3341.4 0.608259 -0.445574 0
M  V30 34074 H 3344.05 0.96626 -1.55999 0
M  V30 34075 H 3342.43 3.59082 -1.66962 0
M  V30 34076 H 3343.6 2.09332 -4.10508 0
M  V30 34077 H 3341.92 2.03118 -3.635 0
M  V30 34078 H 3344.52 4.63695 -2.66254 0
M  V30 34079 H 3344.86 4.02497 -1.06312 0
M  V30 34080 H 3345.39 3.10259 -2.48967 0
M  V30 34081 H 3342.13 3.66633 -5.43379 0
M  V30 34082 H 3341.65 4.51631 -3.94701 0
M  V30 34083 H 3343.33 4.61672 -4.53286 0
M  V30 34084 N 3343.46 1.1407 1.08746 0
M  V30 34085 C 3344.74 0.817691 1.77688 0
M  V30 34086 C 3345.12 -0.689466 1.99523 0
M  V30 34087 O 3344.47 -1.62911 1.60225 0
M  V30 34088 C 3344.68 1.6125 3.09515 0
M  V30 34089 C 3346.03 1.80965 3.84105 0
M  V30 34090 O 3347.05 1.57907 3.19286 0
M  V30 34091 O 3345.91 2.19487 5.00487 0
M  V30 34092 H 3343 0.299279 0.770948 0
M  V30 34093 H 3345.55 1.24571 1.1524 0
M  V30 34094 H 3344.32 2.63643 2.8915 0
M  V30 34095 H 3343.94 1.17988 3.7969 0
M  V30 34096 N 3344.94 -1.26847 0.935286 0
M  V30 34097 C 3346.17 -1.98121 0.596284 0
M  V30 34098 C 3346.58 -1.69703 -0.827422 0
M  V30 34099 O 3345.94 -0.961892 -1.55093 0
M  V30 34100 C 3345.99 -3.52034 0.821835 0
M  V30 34101 O 3345.71 -3.79461 2.18954 0
M  V30 34102 C 3347.21 -4.40555 0.492576 0
M  V30 34103 H 3344.43 -0.632062 0.225253 0
M  V30 34104 H 3346.98 -1.6151 1.25438 0
M  V30 34105 H 3345.13 -3.86828 0.210431 0
M  V30 34106 H 3345.55 -4.74017 2.24518 0
M  V30 34107 H 3347.02 -5.4753 0.701049 0
M  V30 34108 H 3347.5 -4.35457 -0.572203 0
M  V30 34109 H 3348.1 -4.11294 1.08245 0
M  V30 34110 N 3346.42 -0.701641 -1.4112 0
M  V30 34111 C 3347.37 -0.0288461 -2.32582 0
M  V30 34112 C 3348.36 0.762047 -1.51292 0
M  V30 34113 O 3349.57 0.666985 -1.67186 0
M  V30 34114 H 3345.94 0.00947353 -0.75194 0
M  V30 34115 H 3347.91 -0.817192 -2.86992 0
M  V30 34116 C 3346.66 0.889158 -3.36139 0
M  V30 34117 H 3345.98 0.289992 -3.98747 0
M  V30 34118 H 3347.42 1.32812 -4.02662 0
M  V30 34119 C 3345.88 2.00816 -2.70508 0
M  V30 34120 O 3346.41 3.09759 -2.55758 0
M  V30 34121 N 3344.62 1.78768 -2.29108 0
M  V30 34122 H 3344.17 0.901665 -2.41304 0
M  V30 34123 H 3344.12 2.53822 -1.85531 0
M  V30 34124 N 3347.9 1.51133 -0.446821 0
M  V30 34125 C 3348.83 2.30859 0.350189 0
M  V30 34126 C 3349.81 1.36686 1.01247 0
M  V30 34127 O 3350.99 1.65607 1.0143 0
M  V30 34128 C 3348.12 3.1575 1.44635 0
M  V30 34129 C 3347.08 4.18279 0.907029 0
M  V30 34130 C 3346.4 4.91751 2.09965 0
M  V30 34131 C 3347.7 5.22259 -0.0650676 0
M  V30 34132 H 3349.4 2.97737 -0.315157 0
M  V30 34133 H 3346.94 1.43185 -0.15301 0
M  V30 34134 H 3348.9 3.70309 2.0112 0
M  V30 34135 H 3347.62 2.46712 2.14012 0
M  V30 34136 H 3346.28 3.64785 0.364318 0
M  V30 34137 H 3345.93 4.19207 2.77983 0
M  V30 34138 H 3345.63 5.61087 1.74513 0
M  V30 34139 H 3347.15 5.49136 2.66987 0
M  V30 34140 H 3348.56 5.71833 0.409799 0
M  V30 34141 H 3346.96 5.99177 -0.332634 0
M  V30 34142 H 3348.03 4.74503 -0.998764 0
M  V30 34143 N 3349.37 0.178515 1.56586 0
M  V30 34144 C 3350.6 -0.470649 2.01476 0
M  V30 34145 C 3351.02 -1.56322 1.05873 0
M  V30 34146 O 3350.37 -1.82399 0.0607811 0
M  V30 34147 C 3350.43 -1.04232 3.46147 0
M  V30 34148 O 3350.15 0.00663521 4.38099 0
M  V30 34149 C 3351.65 -1.76901 4.06474 0
M  V30 34150 H 3348.87 -0.119789 0.660221 0
M  V30 34151 H 3351.41 0.282357 2.02541 0
M  V30 34152 H 3349.57 -1.74579 3.45834 0
M  V30 34153 H 3349.98 -0.416462 5.22844 0
M  V30 34154 H 3351.45 -2.12152 5.09603 0
M  V30 34155 H 3351.93 -2.66666 3.48978 0
M  V30 34156 H 3352.54 -1.11179 4.10511 0
M  V30 34157 N 3350.85 -1.57312 -0.0951784 0
M  V30 34158 C 3352.08 -1.9029 -0.812237 0
M  V30 34159 C 3352.5 -0.772208 -1.72286 0
M  V30 34160 O 3351.85 0.25581 -1.80698 0
M  V30 34161 C 3351.9 -3.22884 -1.62566 0
M  V30 34162 O 3351.62 -4.31603 -0.751674 0
M  V30 34163 C 3353.13 -3.69724 -2.44579 0
M  V30 34164 H 3350.35 -0.629526 -0.232245 0
M  V30 34165 H 3352.89 -2.04372 -0.0724374 0
M  V30 34166 H 3351.04 -3.10401 -2.31797 0
M  V30 34167 H 3351.46 -5.07747 -1.31505 0
M  V30 34168 H 3352.93 -4.65197 -2.97146 0
M  V30 34169 H 3353.41 -2.97561 -3.23039 0
M  V30 34170 H 3354.02 -3.85075 -1.80547 0
M  V30 34171 N 3352.33 0.365999 -1.53291 0
M  V30 34172 C 3353.26 1.45434 -1.82678 0
M  V30 34173 C 3354.24 1.55906 -0.680255 0
M  V30 34174 O 3355.43 1.7048 -0.930062 0
M  V30 34175 C 3352.56 2.82776 -2.01631 0
M  V30 34176 C 3351.51 2.8713 -3.17397 0
M  V30 34177 C 3350.84 4.27142 -3.21642 0
M  V30 34178 C 3352.14 2.54689 -4.55994 0
M  V30 34179 H 3353.83 1.21091 -2.7382 0
M  V30 34180 H 3351.38 0.581085 -1.31755 0
M  V30 34181 H 3353.33 3.5894 -2.20772 0
M  V30 34182 H 3352.05 3.08506 -1.07198 0
M  V30 34183 H 3350.71 2.13417 -2.98075 0
M  V30 34184 H 3350.36 4.49947 -2.24848 0
M  V30 34185 H 3350.06 4.30971 -3.99422 0
M  V30 34186 H 3351.58 5.0518 -3.42966 0
M  V30 34187 H 3353 3.20567 -4.753 0
M  V30 34188 H 3351.4 2.69835 -5.36012 0
M  V30 34189 H 3352.47 1.49941 -4.61135 0
M  V30 34190 N 3353.81 1.44644 0.625774 0
M  V30 34191 C 3355.22 1.28649 0.944547 0
M  V30 34192 C 3355.42 0.226169 2.00227 0
M  V30 34193 O 3354.48 -0.386118 2.4953 0
M  V30 34194 C 3355.79 2.65977 1.40273 0
M  V30 34195 C 3357.34 2.7373 1.51792 0
M  V30 34196 C 3357.82 4.11541 2.00992 0
M  V30 34197 N 3359.31 4.13744 2.08254 0
M  V30 34198 C 3360.04 5.17232 2.47506 0
M  V30 34199 N 3359.54 6.31077 2.85856 0
M  V30 34200 N 3361.33 5.04587 2.47686 0
M  V30 34201 H 3353.48 2.12272 -0.073653 0
M  V30 34202 H 3355.75 0.947535 0.0296832 0
M  V30 34203 H 3355.45 3.44667 0.699811 0
M  V30 34204 H 3355.33 2.93225 2.37274 0
M  V30 34205 H 3357.71 1.95355 2.21179 0
M  V30 34206 H 3357.79 2.50217 0.53153 0
M  V30 34207 H 3357.44 4.90394 1.32198 0
M  V30 34208 H 3357.37 4.32435 3.00513 0
M  V30 34209 H 3359.86 3.31581 1.8128 0
M  V30 34210 H 3360.17 7.0585 3.14635 0
M  V30 34211 H 3358.52 6.34507 2.83594 0
M  V30 34212 H 3361.71 4.147 2.1712 0
M  V30 34213 H 3361.88 5.8536 2.77952 0
M  V30 34214 N 3355.29 -0.866663 1.31631 0
M  V30 34215 C 3356.56 -1.60263 1.12139 0
M  V30 34216 C 3356.94 -2.08619 -0.322692 0
M  V30 34217 O 3356.29 -1.86703 -1.31735 0
M  V30 34218 C 3356.5 -2.75807 2.1385 0
M  V30 34219 C 3357.85 -3.45687 2.46547 0
M  V30 34220 O 3358.87 -2.86018 2.12303 0
M  V30 34221 O 3357.73 -4.53336 3.05202 0
M  V30 34222 H 3354.83 -0.705238 0.431935 0
M  V30 34223 H 3357.37 -0.911838 1.43121 0
M  V30 34224 H 3356.14 -2.37513 3.10972 0
M  V30 34225 H 3355.77 -3.52571 1.83792 0
M  V30 34226 N 3356.77 -1.14645 -1.0814 0
M  V30 34227 C 3358.01 -0.914549 -1.80223 0
M  V30 34228 C 3358.33 0.560236 -1.86779 0
M  V30 34229 O 3357.6 1.40722 -1.36287 0
M  V30 34230 H 3356.18 -0.335367 -0.667486 0
M  V30 34231 H 3358.85 -1.44556 -1.30727 0
M  V30 34232 H 3357.94 -1.3169 -2.82956 0
M  V30 34233 N 3358.24 1.26349 -0.942 0
M  V30 34234 C 3359.17 2.28722 -0.469953 0
M  V30 34235 C 3360.15 1.63269 0.47719 0
M  V30 34236 O 3361.34 1.90468 0.378869 0
M  V30 34237 C 3358.47 3.46288 0.26491 0
M  V30 34238 C 3357.42 4.23833 -0.595756 0
M  V30 34239 C 3356.75 5.34022 0.269114 0
M  V30 34240 C 3358.05 4.87772 -1.86751 0
M  V30 34241 H 3359.74 2.68457 -1.32555 0
M  V30 34242 H 3357.29 1.29054 -0.638832 0
M  V30 34243 H 3359.24 4.17017 0.606185 0
M  V30 34244 H 3357.97 3.05508 1.15466 0
M  V30 34245 H 3356.63 3.5487 -0.919938 0
M  V30 34246 H 3356.27 4.89483 1.15824 0
M  V30 34247 H 3355.97 5.86816 -0.303354 0
M  V30 34248 H 3357.5 6.07589 0.605641 0
M  V30 34249 H 3358.91 5.50711 -1.59343 0
M  V30 34250 H 3357.31 5.50687 -2.38462 0
M  V30 34251 H 3358.38 4.10667 -2.57839 0
M  V30 34252 N 3359.72 0.709115 1.40746 0
M  V30 34253 C 3360.67 0.028967 2.27982 0
M  V30 34254 C 3361.66 -0.739139 1.42918 0
M  V30 34255 O 3362.85 -0.612404 1.66068 0
M  V30 34256 C 3359.98 -0.896798 3.3138 0
M  V30 34257 C 3359.06 -0.124222 4.23918 0
M  V30 34258 N 3359.45 0.889131 4.97924 0
M  V30 34259 C 3357.75 -0.35773 4.44563 0
M  V30 34260 C 3358.45 1.35278 5.65752 0
M  V30 34261 N 3357.43 0.676142 5.39379 0
M  V30 34262 H 3361.23 0.805725 2.8264 0
M  V30 34263 H 3358.74 0.541132 1.53119 0
M  V30 34264 H 3360.74 -1.39932 3.92714 0
M  V30 34265 H 3359.4 -1.673 2.78282 0
M  V30 34266 H 3360.41 1.26979 5.02092 0
M  V30 34267 H 3357.09 -1.11077 4.02453 0
M  V30 34268 H 3358.48 2.19443 6.35055 0
M  V30 34269 N 3361.2 -1.50894 0.454829 0
M  V30 34270 C 3362.45 -2.01824 -0.105526 0
M  V30 34271 C 3362.77 -1.33994 -1.41671 0
M  V30 34272 O 3362.04 -0.480027 -1.89928 0
M  V30 34273 H 3360.62 -0.745819 -0.041988 0
M  V30 34274 H 3363.28 -1.85385 0.601537 0
M  V30 34275 H 3362.38 -3.1094 -0.268817 0
M  V30 34276 N 3362.68 -0.186817 -1.56489 0
M  V30 34277 C 3363.93 0.454295 -1.96517 0
M  V30 34278 C 3364.24 1.63331 -1.07621 0
M  V30 34279 O 3365.45 2.34168 -1.37396 0
M  V30 34280 C 3363.9 0.859624 -3.49483 0
M  V30 34281 C 3363.51 -0.294651 -4.4703 0
M  V30 34282 C 3365.25 1.46828 -3.98298 0
M  V30 34283 C 3363.16 0.131175 -5.91255 0
M  V30 34284 H 3362.09 0.173497 -0.733768 0
M  V30 34285 H 3364.74 -0.277517 -1.81389 0
M  V30 34286 H 3363.12 1.64786 -3.60085 0
M  V30 34287 H 3364.3 -1.07212 -4.48154 0
M  V30 34288 H 3362.61 -0.814268 -4.08361 0
M  V30 34289 H 3365.21 1.79919 -5.03521 0
M  V30 34290 H 3365.55 2.3718 -3.42127 0
M  V30 34291 H 3366.09 0.744178 -3.90777 0
M  V30 34292 H 3362.82 -0.737953 -6.51333 0
M  V30 34293 H 3362.34 0.873681 -5.93403 0
M  V30 34294 H 3364.02 0.5698 -6.44486 0
M  V30 34295 N 3364.16 1.57361 0.0868344 0
M  V30 34296 C 3365.09 1.99344 1.13113 0
M  V30 34297 C 3366.1 0.897175 1.35848 0
M  V30 34298 O 3367.29 1.17522 1.34354 0
M  V30 34299 C 3364.39 2.30429 2.48507 0
M  V30 34300 C 3363.56 3.6171 2.45936 0
M  V30 34301 C 3362.62 3.80637 3.6332 0
M  V30 34302 O 3361.65 4.52398 3.45435 0
M  V30 34303 N 3362.85 3.21843 4.83112 0
M  V30 34304 H 3365.61 2.8954 0.773731 0
M  V30 34305 H 3363.18 1.59535 0.275703 0
M  V30 34306 H 3365.17 2.40277 3.25651 0
M  V30 34307 H 3363.74 1.46198 2.76306 0
M  V30 34308 H 3362.96 3.62755 1.5428 0
M  V30 34309 H 3364.25 4.47939 2.41305 0
M  V30 34310 H 3363.64 2.63569 5.00548 0
M  V30 34311 H 3362.2 3.37164 5.57821 0
M  V30 34312 N 3365.63 -0.357865 1.53483 0
M  V30 34313 C 3367.05 -0.700048 1.43428 0
M  V30 34314 C 3367.25 -1.92986 0.579527 0
M  V30 34315 O 3366.31 -2.52416 0.064953 0
M  V30 34316 C 3367.62 -0.906049 2.86725 0
M  V30 34317 C 3369.17 -1.00557 2.96407 0
M  V30 34318 C 3369.64 -1.24399 4.40782 0
M  V30 34319 N 3371.13 -1.31152 4.44245 0
M  V30 34320 C 3371.87 -1.51324 5.53072 0
M  V30 34321 N 3371.36 -1.68762 6.71931 0
M  V30 34322 N 3373.16 -1.53756 5.40662 0
M  V30 34323 H 3365.31 0.45093 2.07558 0
M  V30 34324 H 3367.57 0.139727 0.937646 0
M  V30 34325 H 3367.28 -0.0740961 3.51622 0
M  V30 34326 H 3367.15 -1.81193 3.30831 0
M  V30 34327 H 3369.54 -1.82806 2.31659 0
M  V30 34328 H 3369.62 -0.0769063 2.55684 0
M  V30 34329 H 3369.26 -0.426486 5.06106 0
M  V30 34330 H 3369.19 -2.186 4.79084 0
M  V30 34331 H 3371.68 -1.19258 3.58589 0
M  V30 34332 H 3372 -1.83749 7.50637 0
M  V30 34333 H 3370.34 -1.65925 6.74903 0
M  V30 34334 H 3373.53 -1.39705 4.46766 0
M  V30 34335 H 3373.71 -1.69135 6.25538 0
M  V30 34336 N 3367.11 -1.44974 -0.618094 0
M  V30 34337 C 3368.36 -1.48148 -1.37465 0
M  V30 34338 C 3368.68 -0.1204 -1.94628 0
M  V30 34339 O 3367.95 0.848951 -1.76549 0
M  V30 34340 H 3366.53 -0.545545 -0.510283 0
M  V30 34341 H 3369.19 -1.80851 -0.726566 0
M  V30 34342 H 3368.29 -2.21434 -2.1994 0
M  V30 34343 N 3368.59 0.85967 -1.32089 0
M  V30 34344 C 3369.87 1.59666 -1.12987 0
M  V30 34345 C 3370.25 2.08787 0.311624 0
M  V30 34346 O 3369.59 1.87399 1.30743 0
M  V30 34347 C 3369.8 2.74669 -2.1531 0
M  V30 34348 C 3371.15 3.44375 -2.48377 0
M  V30 34349 O 3372.18 2.84888 -2.13816 0
M  V30 34350 O 3371.04 4.51712 -3.07602 0
M  V30 34351 H 3368.13 0.702938 -0.435669 0
M  V30 34352 H 3370.68 0.904235 -1.43603 0
M  V30 34353 H 3369.45 2.3586 -3.12227 0
M  V30 34354 H 3369.07 3.51591 -1.8566 0
M  V30 34355 N 3370.07 1.15217 1.0753 0
M  V30 34356 C 3371.32 0.92047 1.79472 0
M  V30 34357 C 3371.63 -0.553893 1.87594 0
M  V30 34358 O 3372.84 -0.903124 2.56039 0
M  V30 34359 C 3371.29 1.59743 3.22506 0
M  V30 34360 C 3370.9 3.10869 3.22591 0
M  V30 34361 C 3372.64 1.44721 3.99069 0
M  V30 34362 C 3370.55 3.7136 4.60267 0
M  V30 34363 H 3369.48 0.340734 0.672619 0
M  V30 34364 H 3372.13 1.3821 1.20707 0
M  V30 34365 H 3370.51 1.06349 3.81452 0
M  V30 34366 H 3371.69 3.71004 2.73299 0
M  V30 34367 H 3370 3.25632 2.59524 0
M  V30 34368 H 3372.6 1.87308 5.00819 0
M  V30 34369 H 3372.94 0.394458 4.14427 0
M  V30 34370 H 3373.48 1.95201 3.46614 0
M  V30 34371 H 3370.21 4.76527 4.50113 0
M  V30 34372 H 3369.73 3.16007 5.09803 0
M  V30 34373 H 3371.41 3.72179 5.29237 0
M  V30 34374 N 3371.55 -1.25848 0.948687 0
M  V30 34375 C 3372.82 -1.8862 0.517865 0
M  V30 34376 C 3373.2 -1.85656 -1.00474 0
M  V30 34377 O 3372.55 -1.31601 -1.86798 0
M  V30 34378 C 3372.76 -3.31616 1.08774 0
M  V30 34379 C 3374.11 -4.0842 1.16096 0
M  V30 34380 O 3375.13 -3.40714 1.03886 0
M  V30 34381 O 3373.99 -5.29517 1.35181 0
M  V30 34382 H 3371.09 -0.809353 0.16993 0
M  V30 34383 H 3373.63 -1.33963 1.04174 0
M  V30 34384 H 3372.4 -3.28173 2.13115 0
M  V30 34385 H 3372.03 -3.93823 0.546759 0
M  V30 34386 N 3373.02 -0.716569 -1.40368 0
M  V30 34387 C 3373.99 -0.0733508 -2.29083 0
M  V30 34388 C 3374.99 0.686353 -1.45416 0
M  V30 34389 O 3376.18 0.51811 -1.66317 0
M  V30 34390 C 3373.31 0.905974 -3.28641 0
M  V30 34391 H 3374.5 -0.854721 -2.87462 0
M  V30 34392 H 3372.06 -0.481283 -1.48706 0
M  V30 34393 H 3372.79 1.71436 -2.75282 0
M  V30 34394 H 3372.58 0.364095 -3.90406 0
M  V30 34395 H 3374.07 1.35317 -3.95068 0
M  V30 34396 N 3374.5 1.50651 -0.462825 0
M  V30 34397 C 3375.44 2.2499 0.381429 0
M  V30 34398 C 3376.41 1.27959 1.00326 0
M  V30 34399 O 3377.6 1.57161 1.04079 0
M  V30 34400 C 3374.72 3.01984 1.53373 0
M  V30 34401 C 3373.77 4.13873 1.0301 0
M  V30 34402 S 3374.6 5.35478 -0.0485411 0
M  V30 34403 C 3375.76 6.16018 1.10783 0
M  V30 34404 H 3375.99 2.9625 -0.24963 0
M  V30 34405 H 3373.53 1.52402 -0.24761 0
M  V30 34406 H 3375.48 3.46937 2.19419 0
M  V30 34407 H 3374.14 2.30265 2.13628 0
M  V30 34408 H 3373.34 4.67119 1.89252 0
M  V30 34409 H 3372.94 3.71313 0.447483 0
M  V30 34410 H 3375.23 6.4665 2.02114 0
M  V30 34411 H 3376.17 7.05426 0.614813 0
M  V30 34412 H 3376.58 5.47924 1.35792 0
M  V30 34413 N 3375.98 0.195113 1.56388 0
M  V30 34414 C 3377.23 -0.443867 1.96755 0
M  V30 34415 C 3377.54 -1.62758 1.08485 0
M  V30 34416 O 3378.75 -2.33436 1.38636 0
M  V30 34417 C 3377.2 -0.841078 3.49934 0
M  V30 34418 C 3376.81 0.318354 4.46867 0
M  V30 34419 C 3378.56 -1.44714 3.99072 0
M  V30 34420 C 3376.46 -0.0998172 5.91316 0
M  V30 34421 H 3375.39 -0.169603 0.734677 0
M  V30 34422 H 3378.04 0.287132 1.8124 0
M  V30 34423 H 3376.43 -1.62874 3.60954 0
M  V30 34424 H 3377.6 1.09588 4.47579 0
M  V30 34425 H 3375.92 0.835913 4.07923 0
M  V30 34426 H 3378.51 -1.77246 5.04468 0
M  V30 34427 H 3378.86 -2.35363 3.4338 0
M  V30 34428 H 3379.39 -0.723444 3.91166 0
M  V30 34429 H 3376.13 0.772484 6.50932 0
M  V30 34430 H 3375.65 -0.842199 5.93858 0
M  V30 34431 H 3377.33 -0.535613 6.44779 0
M  V30 34432 N 3377.46 -1.57404 -0.0784879 0
M  V30 34433 C 3378.68 -1.91523 -0.795838 0
M  V30 34434 C 3379.11 -0.790922 -1.70664 0
M  V30 34435 O 3378.47 0.256629 -1.79475 0
M  V30 34436 C 3378.51 -3.24572 -1.57116 0
M  V30 34437 O 3377.62 -3.13333 -2.68135 0
M  V30 34438 H 3376.96 -0.627345 -0.217564 0
M  V30 34439 H 3379.49 -2.04542 -0.0487364 0
M  V30 34440 H 3379.5 -3.58284 -1.95184 0
M  V30 34441 H 3378.17 -4.05982 -0.902838 0
M  V30 34442 H 3376.75 -2.91167 -2.32973 0
M  V30 34443 N 3378.94 0.34972 -1.53671 0
M  V30 34444 C 3380.16 1.11529 -1.7486 0
M  V30 34445 C 3380.59 1.81777 -0.483623 0
M  V30 34446 O 3379.94 1.72325 0.563369 0
M  V30 34447 C 3379.99 2.10918 -2.92483 0
M  V30 34448 O 3379.1 3.18316 -2.62199 0
M  V30 34449 H 3378.44 0.322854 -0.580225 0
M  V30 34450 H 3380.97 0.401997 -2.00612 0
M  V30 34451 H 3380.98 2.54246 -3.19097 0
M  V30 34452 H 3379.65 1.59184 -3.84231 0
M  V30 34453 H 3378.23 2.79849 -2.46453 0
M  V30 34454 N 3380.41 1.45299 0.610397 0
M  V30 34455 C 3381.38 1.53373 1.70321 0
M  V30 34456 C 3382.38 0.41352 1.55392 0
M  V30 34457 O 3383.57 0.676901 1.60511 0
M  V30 34458 C 3380.7 1.42757 3.09569 0
M  V30 34459 H 3381.89 2.50738 1.6453 0
M  V30 34460 H 3379.45 1.32698 0.825883 0
M  V30 34461 H 3380.18 0.465657 3.20939 0
M  V30 34462 H 3379.97 2.24006 3.21813 0
M  V30 34463 H 3381.46 1.51433 3.89176 0
M  V30 34464 N 3381.89 -0.852653 1.32543 0
M  V30 34465 C 3382.84 -1.9614 1.21647 0
M  V30 34466 C 3383.81 -1.6581 0.0981788 0
M  V30 34467 O 3384.99 -1.88821 0.274073 0
M  V30 34468 C 3382.13 -3.31837 0.947542 0
M  V30 34469 C 3381.25 -3.74652 2.1508 0
M  V30 34470 C 3380.38 -4.99151 1.81719 0
M  V30 34471 C 3379.42 -5.34463 2.98355 0
M  V30 34472 N 3378.56 -6.50139 2.65074 0
M  V30 34473 H 3383.4 -2.04791 2.16482 0
M  V30 34474 H 3380.94 -1.00232 1.07666 0
M  V30 34475 H 3382.89 -4.09993 0.77211 0
M  V30 34476 H 3381.52 -3.2278 0.0359679 0
M  V30 34477 H 3380.58 -2.92133 2.43644 0
M  V30 34478 H 3381.89 -3.96741 3.02321 0
M  V30 34479 H 3381.04 -5.85019 1.6074 0
M  V30 34480 H 3379.78 -4.79002 0.916959 0
M  V30 34481 H 3378.79 -4.47105 3.19964 0
M  V30 34482 H 3380.01 -5.56567 3.89114 0
M  V30 34483 H 3377.96 -6.31503 1.77593 0
M  V30 34484 H 3377.87 -6.72256 3.45844 0
M  V30 34485 H 3379.14 -7.39155 2.47529 0
M  V30 34486 N 3383.37 -1.15786 -1.06918 0
M  V30 34487 C 3384.6 -0.959935 -1.83848 0
M  V30 34488 C 3385.02 0.486841 -1.81691 0
M  V30 34489 O 3384.38 1.34737 -1.21308 0
M  V30 34490 C 3384.43 -1.4842 -3.2864 0
M  V30 34491 O 3383.53 -0.686321 -4.06649 0
M  V30 34492 H 3382.87 -0.342069 -0.569109 0
M  V30 34493 H 3385.4 -1.53874 -1.34848 0
M  V30 34494 H 3385.41 -1.49894 -3.79468 0
M  V30 34495 H 3384.09 -2.53745 -3.29525 0
M  V30 34496 H 3382.66 -0.741565 -3.65452 0
M  V30 34497 N 3384.85 1.25343 -0.955348 0
M  V30 34498 C 3385.78 2.24295 -0.420339 0
M  V30 34499 C 3386.76 1.54763 0.498726 0
M  V30 34500 O 3387.94 1.83461 0.432939 0
M  V30 34501 C 3385.07 3.36394 0.394516 0
M  V30 34502 C 3384.12 4.23957 -0.465048 0
M  V30 34503 S 3384.95 5.00746 -1.89773 0
M  V30 34504 C 3386.11 6.16312 -1.09132 0
M  V30 34505 H 3386.34 2.69329 -1.25893 0
M  V30 34506 H 3383.87 1.3443 -0.759473 0
M  V30 34507 H 3385.83 4.01418 0.858717 0
M  V30 34508 H 3384.49 2.89944 1.20794 0
M  V30 34509 H 3383.68 5.03746 0.159966 0
M  V30 34510 H 3383.29 3.63872 -0.864486 0
M  V30 34511 H 3385.58 6.76645 -0.340337 0
M  V30 34512 H 3386.52 6.83149 -1.86316 0
M  V30 34513 H 3386.93 5.61072 -0.621131 0
M  V30 34514 N 3386.33 0.724003 1.39986 0
M  V30 34515 C 3387.57 0.267546 2.01027 0
M  V30 34516 C 3387.91 -1.13892 1.57297 0
M  V30 34517 O 3387.18 -1.77428 0.796836 0
M  V30 34518 C 3387.46 0.357034 3.58326 0
M  V30 34519 C 3387.32 1.80248 4.12105 0
M  V30 34520 C 3388.64 -0.266925 4.3929 0
M  V30 34521 H 3385.76 0.0986904 0.730362 0
M  V30 34522 H 3388.4 0.918089 1.66346 0
M  V30 34523 H 3386.55 -0.19684 3.88001 0
M  V30 34524 H 3388.22 2.41238 3.93194 0
M  V30 34525 H 3386.46 2.32744 3.66078 0
M  V30 34526 H 3387.13 1.81643 5.21258 0
M  V30 34527 H 3389.61 0.205103 4.15594 0
M  V30 34528 H 3388.49 -0.173908 5.48624 0
M  V30 34529 H 3388.75 -1.35156 4.20934 0
M  V30 34530 N 3387.81 -1.50403 0.470808 0
M  V30 34531 C 3389.22 -1.5911 0.124947 0
M  V30 34532 C 3389.42 -1.47897 -1.36853 0
M  V30 34533 O 3388.48 -1.33732 -2.14178 0
M  V30 34534 C 3389.79 -2.93029 0.67489 0
M  V30 34535 C 3391.34 -3.06423 0.638293 0
M  V30 34536 C 3391.81 -4.42915 1.16578 0
M  V30 34537 N 3393.3 -4.49326 1.12517 0
M  V30 34538 C 3394.04 -5.53329 1.50382 0
M  V30 34539 N 3393.54 -6.64586 1.95695 0
M  V30 34540 N 3395.33 -5.43871 1.41987 0
M  V30 34541 H 3387.48 -1.55936 1.44215 0
M  V30 34542 H 3389.74 -0.73692 0.596367 0
M  V30 34543 H 3389.45 -3.06709 1.72112 0
M  V30 34544 H 3389.32 -3.77014 0.118301 0
M  V30 34545 H 3391.71 -2.9239 -0.399024 0
M  V30 34546 H 3391.79 -2.24195 1.23168 0
M  V30 34547 H 3391.43 -4.57697 2.20172 0
M  V30 34548 H 3391.36 -5.23735 0.548605 0
M  V30 34549 H 3393.86 -3.6949 0.792825 0
M  V30 34550 H 3394.17 -7.40005 2.22737 0
M  V30 34551 H 3392.51 -6.65707 1.99648 0
M  V30 34552 H 3395.7 -4.55841 1.06428 0
M  V30 34553 H 3395.88 -6.24805 1.71823 0
M  V30 34554 N 3389.28 -0.203404 -1.56282 0
M  V30 34555 C 3390.23 0.714125 -2.19474 0
M  V30 34556 C 3391.2 1.2037 -1.14456 0
M  V30 34557 O 3392.39 1.26608 -1.42741 0
M  V30 34558 C 3389.53 1.92452 -2.86455 0
M  V30 34559 C 3388.64 1.47554 -4.0602 0
M  V30 34560 C 3387.77 2.64208 -4.60834 0
M  V30 34561 C 3386.81 2.15957 -5.72738 0
M  V30 34562 N 3385.95 3.25818 -6.21922 0
M  V30 34563 H 3390.79 0.168506 -2.97523 0
M  V30 34564 H 3388.33 0.0714267 -1.46926 0
M  V30 34565 H 3390.28 2.63491 -3.23463 0
M  V30 34566 H 3388.91 2.44331 -2.10955 0
M  V30 34567 H 3387.97 0.660718 -3.74618 0
M  V30 34568 H 3389.28 1.08159 -4.86932 0
M  V30 34569 H 3388.43 3.43357 -5.00191 0
M  V30 34570 H 3387.17 3.06881 -3.79046 0
M  V30 34571 H 3386.18 1.35264 -5.32901 0
M  V30 34572 H 3387.4 1.74305 -6.56349 0
M  V30 34573 H 3385.35 3.68006 -5.43054 0
M  V30 34574 H 3385.26 2.90619 -6.97909 0
M  V30 34575 H 3386.53 4.05157 -6.65934 0
M  V30 34576 N 3390.76 1.57444 0.0701393 0
M  V30 34577 C 3391.72 2.02819 1.06757 0
M  V30 34578 C 3392.72 0.925485 1.31497 0
M  V30 34579 O 3393.91 1.19031 1.27189 0
M  V30 34580 C 3391.05 2.41023 2.41082 0
M  V30 34581 H 3392.24 2.92171 0.676459 0
M  V30 34582 H 3389.79 1.53074 0.315909 0
M  V30 34583 H 3390.53 1.54702 2.85022 0
M  V30 34584 H 3390.31 3.21492 2.24467 0
M  V30 34585 H 3391.8 2.76699 3.12773 0
M  V30 34586 N 3392.24 -0.341566 1.53854 0
M  V30 34587 C 3393.19 -1.43978 1.82683 0
M  V30 34588 C 3394.18 -1.54376 0.697442 0
M  V30 34589 O 3395.39 -1.56977 0.880813 0
M  V30 34590 H 3391.76 -0.480103 0.578796 0
M  V30 34591 H 3393.73 -1.16879 2.74558 0
M  V30 34592 C 3392.48 -2.80472 2.05501 0
M  V30 34593 H 3391.81 -2.73239 2.91857 0
M  V30 34594 H 3393.25 -3.56431 2.29636 0
M  V30 34595 C 3391.7 -3.26231 0.841118 0
M  V30 34596 O 3392.23 -4.01679 0.0415082 0
M  V30 34597 N 3390.44 -2.83057 0.657786 0
M  V30 34598 H 3389.99 -2.21824 1.30966 0
M  V30 34599 H 3389.95 -3.14028 -0.152948 0
M  V30 34600 N 3393.72 -1.45621 -0.602683 0
M  V30 34601 C 3394.99 -1.40368 -1.36221 0
M  V30 34602 C 3395.37 -0.0768016 -2.1096 0
M  V30 34603 O 3394.72 0.941342 -2.08209 0
M  V30 34604 C 3394.93 -2.62056 -2.30494 0
M  V30 34605 C 3396.28 -3.07354 -2.92949 0
M  V30 34606 O 3397.3 -2.62464 -2.40814 0
M  V30 34607 O 3396.16 -3.8527 -3.87595 0
M  V30 34608 H 3393.26 -0.557263 -0.611054 0
M  V30 34609 H 3395.8 -1.57757 -0.625363 0
M  V30 34610 H 3394.58 -3.50206 -1.7456 0
M  V30 34611 H 3394.2 -2.47025 -3.11551 0
M  V30 34612 N 3395.2 0.845612 -1.32993 0
M  V30 34613 C 3396.44 1.59533 -1.23418 0
M  V30 34614 C 3396.76 1.94572 0.200244 0
M  V30 34615 O 3397.96 2.68264 0.417946 0
M  V30 34616 C 3396.42 2.87716 -2.16212 0
M  V30 34617 C 3396.03 2.60067 -3.64787 0
M  V30 34618 C 3397.77 3.65736 -2.15494 0
M  V30 34619 C 3395.68 3.84305 -4.49515 0
M  V30 34620 H 3394.61 0.598671 -0.458376 0
M  V30 34621 H 3397.26 0.932953 -1.58013 0
M  V30 34622 H 3395.64 3.55459 -1.74541 0
M  V30 34623 H 3396.82 2.00577 -4.14856 0
M  V30 34624 H 3395.13 1.95362 -3.67726 0
M  V30 34625 H 3397.73 4.57943 -2.76029 0
M  V30 34626 H 3398.07 4.00151 -1.14825 0
M  V30 34627 H 3398.6 3.04908 -2.55492 0
M  V30 34628 H 3395.34 3.55025 -5.51033 0
M  V30 34629 H 3394.86 4.43157 -4.04192 0
M  V30 34630 H 3396.54 4.51953 -4.62977 0
M  V30 34631 N 3396.67 1.16351 1.06302 0
M  V30 34632 C 3397.9 0.969162 1.82797 0
M  V30 34633 C 3398.32 -0.482627 1.82527 0
M  V30 34634 O 3397.67 -1.33496 1.24439 0
M  V30 34635 C 3397.72 1.4889 3.29415 0
M  V30 34636 O 3397.45 2.88383 3.29798 0
M  V30 34637 C 3398.95 1.33755 4.2264 0
M  V30 34638 H 3396.17 0.343547 0.576382 0
M  V30 34639 H 3398.71 1.54377 1.34119 0
M  V30 34640 H 3396.87 0.956575 3.75404 0
M  V30 34641 H 3397.28 3.12177 4.2148 0
M  V30 34642 H 3398.75 1.74951 5.23542 0
M  V30 34643 H 3399.23 0.283098 4.38287 0
M  V30 34644 H 3399.84 1.85949 3.82496 0
M  V30 34645 N 3398.15 -1.24835 0.961982 0
M  V30 34646 C 3399.43 -1.8806 0.537842 0
M  V30 34647 C 3399.81 -1.86711 -0.98499 0
M  V30 34648 O 3399.16 -1.33575 -1.85391 0
M  V30 34649 C 3399.37 -3.30444 1.12285 0
M  V30 34650 C 3400.71 -4.07166 1.20422 0
M  V30 34651 O 3401.74 -3.39593 1.07494 0
M  V30 34652 O 3400.6 -5.28054 1.4079 0
M  V30 34653 H 3397.69 -0.807505 0.178505 0
M  V30 34654 H 3400.24 -1.3285 1.05589 0
M  V30 34655 H 3399.01 -3.25894 2.16584 0
M  V30 34656 H 3398.63 -3.93221 0.588499 0
M  V30 34657 N 3399.63 -0.731417 -1.396 0
M  V30 34658 C 3400.54 -0.0905682 -2.34425 0
M  V30 34659 C 3401.56 0.725964 -1.58132 0
M  V30 34660 O 3402.73 0.655261 -1.90442 0
M  V30 34661 C 3399.8 0.808565 -3.3714 0
M  V30 34662 C 3398.86 -0.019812 -4.29295 0
M  V30 34663 C 3398.09 0.836501 -5.27104 0
M  V30 34664 O 3398.31 2.07533 -5.31306 0
M  V30 34665 O 3397.25 0.267066 -6.01307 0
M  V30 34666 H 3401.07 -0.873136 -2.90878 0
M  V30 34667 H 3398.66 -0.492049 -1.41065 0
M  V30 34668 H 3400.54 1.32312 -4.00089 0
M  V30 34669 H 3399.22 1.57001 -2.83077 0
M  V30 34670 H 3398.12 -0.579809 -3.6958 0
M  V30 34671 H 3399.46 -0.743393 -4.86554 0
M  V30 34672 N 3401.11 1.50152 -0.478778 0
M  V30 34673 C 3402.35 2.02666 0.0736584 0
M  V30 34674 C 3402.69 1.3595 1.38677 0
M  V30 34675 O 3401.96 0.487733 1.88285 0
M  V30 34676 C 3402.25 3.59235 0.249453 0
M  V30 34677 C 3402.1 4.36512 -1.08522 0
M  V30 34678 C 3403.42 4.28578 1.00045 0
M  V30 34679 H 3400.54 0.736566 0.0252953 0
M  V30 34680 H 3403.18 1.79396 -0.625866 0
M  V30 34681 H 3401.33 3.79193 0.845277 0
M  V30 34682 H 3403 4.28106 -1.71821 0
M  V30 34683 H 3401.24 3.99949 -1.67999 0
M  V30 34684 H 3401.91 5.44351 -0.915772 0
M  V30 34685 H 3404.39 4.13141 0.495349 0
M  V30 34686 H 3403.27 5.37923 1.09226 0
M  V30 34687 H 3403.53 3.92277 2.03889 0
M  V30 34688 N 3402.59 0.211689 1.56172 0
M  V30 34689 C 3403.52 -0.697336 2.22844 0
M  V30 34690 C 3404.5 -1.20864 1.19691 0
M  V30 34691 O 3405.68 -1.25444 1.48248 0
M  V30 34692 C 3402.81 -1.90988 2.9007 0
M  V30 34693 C 3401.77 -1.53283 3.9961 0
M  V30 34694 C 3401.09 -2.82335 4.54083 0
M  V30 34695 C 3402.39 -0.730242 5.1717 0
M  V30 34696 H 3404.09 -0.141481 2.99066 0
M  V30 34697 H 3401.63 -0.0666085 1.43846 0
M  V30 34698 H 3403.59 -2.55117 3.354 0
M  V30 34699 H 3402.31 -2.49054 2.1128 0
M  V30 34700 H 3400.97 -0.915052 3.54996 0
M  V30 34701 H 3400.62 -3.38525 3.72035 0
M  V30 34702 H 3400.32 -2.57844 5.28006 0
M  V30 34703 H 3401.84 -3.47423 5.02125 0
M  V30 34704 H 3403.25 -1.275 5.58942 0
M  V30 34705 H 3401.65 -0.582811 5.97263 0
M  V30 34706 H 3402.72 0.265242 4.84174 0
M  V30 34707 N 3404.06 -1.57479 -0.0617887 0
M  V30 34708 C 3405.34 -1.78822 -0.792604 0
M  V30 34709 C 3405.72 -0.801758 -1.95282 0
M  V30 34710 O 3405.07 0.163055 -2.27917 0
M  V30 34711 C 3405.28 -3.25607 -1.25623 0
M  V30 34712 C 3406.63 -3.89711 -1.68555 0
M  V30 34713 O 3407.65 -3.29559 -1.35165 0
M  V30 34714 O 3406.51 -4.95555 -2.30408 0
M  V30 34715 H 3403.6 -0.734225 -0.380582 0
M  V30 34716 H 3406.15 -1.6965 -0.0410906 0
M  V30 34717 H 3404.92 -3.88969 -0.426513 0
M  V30 34718 H 3404.55 -3.39541 -2.06876 0
M  V30 34719 N 3405.54 0.333401 -1.54033 0
M  V30 34720 C 3406.79 1.07037 -1.71428 0
M  V30 34721 C 3407.11 1.88859 -0.485529 0
M  V30 34722 O 3406.38 1.89398 0.500522 0
M  V30 34723 H 3404.96 0.398162 -0.632041 0
M  V30 34724 H 3407.62 0.372219 -1.91313 0
M  V30 34725 H 3406.72 1.742 -2.58961 0
M  V30 34726 N 3407.02 1.45939 0.594952 0
M  V30 34727 C 3407.95 1.58425 1.71533 0
M  V30 34728 C 3408.93 0.435145 1.6444 0
M  V30 34729 O 3410.12 0.659871 1.82645 0
M  V30 34730 C 3407.25 1.56263 3.1016 0
M  V30 34731 C 3406.2 2.70019 3.32075 0
M  V30 34732 C 3405.53 2.52913 4.71104 0
M  V30 34733 C 3406.83 4.11938 3.21098 0
M  V30 34734 H 3408.52 2.5221 1.6134 0
M  V30 34735 H 3406.07 1.21381 0.774769 0
M  V30 34736 H 3408.02 1.63593 3.88349 0
M  V30 34737 H 3406.74 0.590149 3.21224 0
M  V30 34738 H 3405.4 2.62137 2.56281 0
M  V30 34739 H 3405.05 1.53776 4.78917 0
M  V30 34740 H 3404.75 3.29205 4.86721 0
M  V30 34741 H 3406.27 2.62117 5.51477 0
M  V30 34742 H 3407.69 4.20997 3.89146 0
M  V30 34743 H 3406.09 4.88721 3.48241 0
M  V30 34744 H 3407.16 4.32956 2.18351 0
M  V30 34745 N 3408.5 -0.838547 1.3344 0
M  V30 34746 C 3409.45 -1.96979 1.23702 0
M  V30 34747 C 3410.44 -1.68834 0.138329 0
M  V30 34748 O 3411.65 -1.77443 0.302309 0
M  V30 34749 H 3408.02 -0.646635 0.383885 0
M  V30 34750 H 3409.99 -2.02317 2.19341 0
M  V30 34751 C 3408.74 -3.33206 0.99342 0
M  V30 34752 H 3408.06 -3.55402 1.8311 0
M  V30 34753 H 3409.5 -4.12859 0.965589 0
M  V30 34754 C 3407.96 -3.35529 -0.303642 0
M  V30 34755 O 3408.49 -3.79731 -1.31023 0
M  V30 34756 N 3406.7 -2.88705 -0.331291 0
M  V30 34757 H 3406.25 -2.52928 0.488396 0
M  V30 34758 H 3406.2 -2.90642 -1.19895 0
M  V30 34759 N 3409.98 -1.16914 -1.05683 0
M  V30 34760 C 3411.39 -0.961182 -1.60057 0
M  V30 34761 C 3411.74 0.493376 -1.89895 0
M  V30 34762 O 3410.86 1.36775 -1.67695 0
M  V30 34763 C 3411.46 -1.73842 -2.908 0
M  V30 34764 C 3410.02 -1.57528 -3.41851 0
M  V30 34765 C 3409.16 -1.74322 -2.15655 0
M  V30 34766 H 3412.12 -1.31694 -0.885568 0
M  V30 34767 H 3412.14 -1.21787 -3.60483 0
M  V30 34768 H 3411.65 -2.79702 -2.69051 0
M  V30 34769 H 3409.75 -0.541349 -3.68646 0
M  V30 34770 H 3409.86 -2.36309 -4.16767 0
M  V30 34771 H 3408.23 -1.17119 -2.26175 0
M  V30 34772 H 3409.01 -2.81584 -1.96381 0
M  V30 34773 N 3411.45 1.24323 -0.968589 0
M  V30 34774 C 3412.7 1.91722 -0.626553 0
M  V30 34775 C 3413.02 1.76539 0.842219 0
M  V30 34776 O 3414.22 2.38635 1.29482 0
M  V30 34777 C 3412.68 3.43627 -1.06998 0
M  V30 34778 C 3412.29 3.67494 -2.56227 0
M  V30 34779 C 3414.03 4.16872 -0.80113 0
M  V30 34780 C 3411.94 5.12975 -2.94297 0
M  V30 34781 H 3410.87 0.717861 -0.230633 0
M  V30 34782 H 3413.52 1.40954 -1.17491 0
M  V30 34783 H 3411.9 3.93436 -0.449919 0
M  V30 34784 H 3413.07 3.28281 -3.2337 0
M  V30 34785 H 3411.39 3.07537 -2.80731 0
M  V30 34786 H 3413.99 5.24056 -1.06156 0
M  V30 34787 H 3414.33 4.15471 0.262669 0
M  V30 34788 H 3414.86 3.73015 -1.3822 0
M  V30 34789 H 3411.6 5.19499 -3.99752 0
M  V30 34790 H 3411.12 5.53183 -2.31838 0
M  V30 34791 H 3412.8 5.81214 -2.84252 0
M  V30 34792 N 3412.93 0.73881 1.3921 0
M  V30 34793 C 3413.86 0.0616891 2.29117 0
M  V30 34794 C 3414.88 -0.699436 1.47009 0
M  V30 34795 O 3416.07 -0.542969 1.70041 0
M  V30 34796 C 3413.17 -0.936836 3.25694 0
M  V30 34797 C 3412.34 -0.236438 4.3676 0
M  V30 34798 C 3411.4 -1.14361 5.13622 0
M  V30 34799 O 3410.42 -0.619663 5.65817 0
M  V30 34800 N 3411.63 -2.47301 5.25188 0
M  V30 34801 H 3414.39 0.833761 2.87869 0
M  V30 34802 H 3411.95 0.58835 1.50831 0
M  V30 34803 H 3413.94 -1.54641 3.7399 0
M  V30 34804 H 3412.51 -1.61009 2.67946 0
M  V30 34805 H 3411.73 0.553663 3.90292 0
M  V30 34806 H 3413.02 0.248797 5.08191 0
M  V30 34807 H 3412.42 -2.92341 4.84307 0
M  V30 34808 H 3410.98 -3.03345 5.7691 0
M  V30 34809 N 3414.41 -1.49895 0.486734 0
M  V30 34810 C 3415.64 -2.06813 -0.0600452 0
M  V30 34811 C 3416.05 -1.34879 -1.3211 0
M  V30 34812 O 3415.41 -0.422757 -1.77536 0
M  V30 34813 C 3415.46 -3.5997 -0.332203 0
M  V30 34814 O 3415.18 -4.29194 0.878847 0
M  V30 34815 C 3416.68 -4.33559 -0.924213 0
M  V30 34816 H 3413.9 -0.670852 0.0140729 0
M  V30 34817 H 3416.45 -1.92863 0.680004 0
M  V30 34818 H 3414.6 -3.73671 -1.02221 0
M  V30 34819 H 3415.02 -5.20667 0.632965 0
M  V30 34820 H 3416.49 -5.41642 -1.06431 0
M  V30 34821 H 3416.97 -3.95089 -1.91837 0
M  V30 34822 H 3417.57 -4.24429 -0.272114 0
M  V30 34823 N 3415.89 -0.219968 -1.56057 0
M  V30 34824 C 3417.17 0.461087 -1.90088 0
M  V30 34825 C 3417.55 1.77859 -1.13708 0
M  V30 34826 O 3416.89 2.27173 -0.245908 0
M  V30 34827 C 3417.1 0.655584 -3.42787 0
M  V30 34828 C 3418.45 0.96373 -4.13518 0
M  V30 34829 O 3419.48 0.742427 -3.48377 0
M  V30 34830 O 3418.34 1.38365 -5.28694 0
M  V30 34831 H 3415.43 0.243581 -0.790315 0
M  V30 34832 H 3417.98 -0.262035 -1.67665 0
M  V30 34833 H 3416.75 -0.273807 -3.90341 0
M  V30 34834 H 3416.37 1.43025 -3.70985 0
M  V30 34835 N 3417.37 1.57509 0.0534363 0
M  V30 34836 C 3418.61 1.88415 0.750179 0
M  V30 34837 C 3418.95 0.81465 1.76287 0
M  V30 34838 O 3418.22 -0.173102 1.93728 0
M  V30 34839 C 3418.5 3.2998 1.44171 0
M  V30 34840 C 3418.36 4.47601 0.444185 0
M  V30 34841 C 3419.68 3.70066 2.382 0
M  V30 34842 H 3416.8 0.685267 0.271254 0
M  V30 34843 H 3419.44 1.89995 0.0131342 0
M  V30 34844 H 3417.59 3.28763 2.06995 0
M  V30 34845 H 3419.26 4.60948 -0.180263 0
M  V30 34846 H 3417.5 4.33142 -0.238847 0
M  V30 34847 H 3418.17 5.43481 0.966038 0
M  V30 34848 H 3420.65 3.72493 1.8544 0
M  V30 34849 H 3419.53 4.69972 2.83579 0
M  V30 34850 H 3419.79 3.00991 3.23816 0
M  V30 34851 N 3418.85 -0.325228 1.54208 0
M  V30 34852 C 3419.76 -1.42323 1.86497 0
M  V30 34853 C 3420.77 -1.56682 0.756746 0
M  V30 34854 O 3421.95 -1.7181 1.05087 0
M  V30 34855 C 3419.01 -2.7706 2.08419 0
M  V30 34856 C 3418.07 -2.71891 3.32225 0
M  V30 34857 C 3417.31 -4.00202 3.53092 0
M  V30 34858 O 3417.53 -4.98386 2.7743 0
M  V30 34859 O 3416.46 -4.03562 4.46566 0
M  V30 34860 H 3420.29 -1.17946 2.79861 0
M  V30 34861 H 3417.87 -0.519099 1.40092 0
M  V30 34862 H 3419.76 -3.56823 2.24177 0
M  V30 34863 H 3418.43 -3.01331 1.18243 0
M  V30 34864 H 3417.34 -1.90685 3.21854 0
M  V30 34865 H 3418.67 -2.52575 4.22453 0
M  V30 34866 N 3420.32 -1.46252 -0.587204 0
M  V30 34867 C 3421.74 -1.31108 -0.910106 0
M  V30 34868 C 3421.94 -0.279176 -1.99557 0
M  V30 34869 O 3421 0.319823 -2.50466 0
M  V30 34870 C 3422.31 -2.69603 -1.33172 0
M  V30 34871 C 3423.86 -2.77658 -1.44481 0
M  V30 34872 C 3424.33 -4.16725 -1.90011 0
M  V30 34873 N 3425.82 -4.1912 -1.97211 0
M  V30 34874 C 3426.56 -5.23612 -2.33705 0
M  V30 34875 N 3426.05 -6.38434 -2.69023 0
M  V30 34876 N 3427.85 -5.10976 -2.34221 0
M  V30 34877 H 3420 -2.12002 0.129907 0
M  V30 34878 H 3422.26 -0.947989 -0.00455051 0
M  V30 34879 H 3421.97 -3.46402 -0.608182 0
M  V30 34880 H 3421.84 -2.99413 -2.29416 0
M  V30 34881 H 3424.23 -2.01151 -2.15922 0
M  V30 34882 H 3424.31 -2.51538 -0.465003 0
M  V30 34883 H 3423.95 -4.93726 -1.1915 0
M  V30 34884 H 3423.88 -4.4025 -2.88942 0
M  V30 34885 H 3426.37 -3.36271 -1.72425 0
M  V30 34886 H 3426.69 -7.13944 -2.9581 0
M  V30 34887 H 3425.03 -6.41803 -2.66672 0
M  V30 34888 H 3428.22 -4.20311 -2.06049 0
M  V30 34889 H 3428.4 -5.92524 -2.62334 0
M  V30 34890 N 3421.8 0.831459 -1.33883 0
M  V30 34891 C 3423.05 1.58215 -1.25103 0
M  V30 34892 C 3423.36 1.94774 0.179596 0
M  V30 34893 O 3424.57 2.68692 0.389469 0
M  V30 34894 C 3423.03 2.85406 -2.19251 0
M  V30 34895 C 3422.63 2.56183 -3.67524 0
M  V30 34896 C 3424.38 3.63429 -2.19361 0
M  V30 34897 C 3422.28 3.79515 -4.53566 0
M  V30 34898 H 3421.21 0.593776 -0.4647 0
M  V30 34899 H 3423.87 0.916141 -1.58994 0
M  V30 34900 H 3422.25 3.53588 -1.78302 0
M  V30 34901 H 3423.42 1.96166 -4.1696 0
M  V30 34902 H 3421.74 1.91451 -3.69778 0
M  V30 34903 H 3424.33 4.5499 -2.80871 0
M  V30 34904 H 3424.68 3.98911 -1.19063 0
M  V30 34905 H 3425.21 3.02181 -2.58711 0
M  V30 34906 H 3421.95 3.4916 -5.54768 0
M  V30 34907 H 3421.47 4.38846 -4.0887 0
M  V30 34908 H 3423.15 4.47017 -4.67744 0
M  V30 34909 N 3423.28 1.17472 1.05062 0
M  V30 34910 C 3424.23 0.892628 2.1284 0
M  V30 34911 C 3425.2 -0.163991 1.65288 0
M  V30 34912 O 3426.38 -0.0265035 1.90782 0
M  V30 34913 C 3423.52 0.4135 3.42614 0
M  V30 34914 C 3422.63 1.53439 4.03832 0
M  V30 34915 C 3421.77 1.009 5.21529 0
M  V30 34916 C 3420.81 2.10525 5.74757 0
M  V30 34917 N 3419.95 1.59454 6.83754 0
M  V30 34918 H 3424.79 1.81555 2.36309 0
M  V30 34919 H 3422.32 0.905503 1.15927 0
M  V30 34920 H 3424.28 0.117255 4.17035 0
M  V30 34921 H 3422.91 -0.472461 3.19324 0
M  V30 34922 H 3421.96 1.94633 3.26836 0
M  V30 34923 H 3423.27 2.36115 4.39376 0
M  V30 34924 H 3422.43 0.666681 6.03026 0
M  V30 34925 H 3421.17 0.151693 4.87464 0
M  V30 34926 H 3420.17 2.45613 4.91888 0
M  V30 34927 H 3421.4 2.96674 6.10869 0
M  V30 34928 H 3419.34 0.759964 6.51583 0
M  V30 34929 H 3419.26 2.35737 7.18307 0
M  V30 34930 H 3420.53 1.28118 7.68899 0
M  V30 34931 N 3424.76 -1.23807 0.975168 0
M  V30 34932 C 3426.03 -1.87479 0.557758 0
M  V30 34933 C 3426.41 -1.87746 -0.965131 0
M  V30 34934 O 3425.76 -1.35534 -1.83964 0
M  V30 34935 C 3425.97 -3.29234 1.15783 0
M  V30 34936 C 3427.32 -4.05865 1.24733 0
M  V30 34937 O 3428.34 -3.38434 1.1109 0
M  V30 34938 O 3427.2 -5.26531 1.46382 0
M  V30 34939 H 3424.3 -0.805567 0.18706 0
M  V30 34940 H 3426.84 -1.31723 1.06992 0
M  V30 34941 H 3425.62 -3.23579 2.20028 0
M  V30 34942 H 3425.24 -3.92574 0.630172 0
M  V30 34943 N 3426.24 -0.746182 -1.38816 0
M  V30 34944 C 3427.46 -0.309641 -2.0457 0
M  V30 34945 C 3427.88 1.05946 -1.56272 0
M  V30 34946 O 3427.24 1.67154 -0.73251 0
M  V30 34947 C 3427.29 -0.314906 -3.60126 0
M  V30 34948 O 3427.01 -1.62997 -4.06649 0
M  V30 34949 C 3428.51 0.13642 -4.4309 0
M  V30 34950 H 3425.73 -0.133453 -0.657595 0
M  V30 34951 H 3428.27 -1.01296 -1.77649 0
M  V30 34952 H 3426.43 0.339617 -3.85908 0
M  V30 34953 H 3426.84 -1.55111 -5.0104 0
M  V30 34954 H 3428.32 0.0815744 -5.5194 0
M  V30 34955 H 3428.79 1.18324 -4.22961 0
M  V30 34956 H 3429.4 -0.488953 -4.2248 0
M  V30 34957 N 3427.71 1.49635 -0.494676 0
M  V30 34958 C 3428.94 2.06542 0.0490054 0
M  V30 34959 C 3429.35 1.35602 1.31943 0
M  V30 34960 O 3428.69 0.426078 1.7869 0
M  V30 34961 C 3428.76 3.57493 0.379364 0
M  V30 34962 C 3428.42 4.50077 -0.792424 0
M  V30 34963 C 3429.42 4.91969 -1.68115 0
M  V30 34964 C 3427.1 4.92459 -0.989437 0
M  V30 34965 C 3429.1 5.74973 -2.75109 0
M  V30 34966 C 3426.78 5.7524 -2.06257 0
M  V30 34967 C 3427.78 6.16401 -2.94174 0
M  V30 34968 O 3427.47 6.97529 -3.99636 0
M  V30 34969 H 3427.2 0.675847 -0.0143827 0
M  V30 34970 H 3429.76 1.93485 -0.689392 0
M  V30 34971 H 3427.99 3.68535 1.17127 0
M  V30 34972 H 3429.67 3.96665 0.860909 0
M  V30 34973 H 3430.44 4.59877 -1.54073 0
M  V30 34974 H 3426.32 4.59926 -0.314516 0
M  V30 34975 H 3429.86 6.07021 -3.43761 0
M  V30 34976 H 3425.76 6.06745 -2.20296 0
M  V30 34977 H 3426.53 7.15824 -3.96911 0
M  V30 34978 N 3429.19 0.228241 1.55939 0
M  V30 34979 C 3430.44 -0.400849 1.98085 0
M  V30 34980 C 3430.76 -1.59817 1.1173 0
M  V30 34981 O 3430.03 -1.94919 0.195828 0
M  V30 34982 H 3428.61 -0.151089 0.731561 0
M  V30 34983 H 3431.27 0.322692 1.9221 0
M  V30 34984 H 3430.37 -0.722653 3.03618 0
M  V30 34985 N 3430.67 -1.57536 -0.0450825 0
M  V30 34986 C 3432.09 -1.54495 -0.400436 0
M  V30 34987 C 3432.29 -0.952197 -1.77582 0
M  V30 34988 O 3431.34 -0.566264 -2.46068 0
M  V30 34989 C 3432.66 -2.99025 -0.316978 0
M  V30 34990 C 3434.2 -3.10495 -0.39523 0
M  V30 34991 C 3434.68 -4.56726 -0.341395 0
M  V30 34992 N 3436.17 -4.61464 -0.400674 0
M  V30 34993 C 3436.9 -5.72128 -0.381657 0
M  V30 34994 N 3436.4 -6.9208 -0.315873 0
M  V30 34995 N 3438.19 -5.60451 -0.430201 0
M  V30 34996 H 3430.34 -1.94423 0.855191 0
M  V30 34997 H 3432.61 -0.891047 0.323633 0
M  V30 34998 H 3432.31 -3.46056 0.627538 0
M  V30 34999 H 3432.19 -3.60285 -1.1169 0
M  V30 35000 H 3434.57 -2.63421 -1.33017 0
M  V30 35001 H 3434.66 -2.52096 0.433753 0
M  V30 35002 H 3434.3 -5.04464 0.589813 0
M  V30 35003 H 3434.23 -5.13018 -1.18827 0
M  V30 35004 H 3436.72 -3.75155 -0.454679 0
M  V30 35005 H 3437.03 -7.72194 -0.306022 0
M  V30 35006 H 3435.38 -6.94427 -0.282159 0
M  V30 35007 H 3438.57 -4.65638 -0.479473 0
M  V30 35008 H 3438.74 -6.46689 -0.411912 0
M  V30 35009 N 3432.15 0.317045 -1.54378 0
M  V30 35010 C 3433.38 1.07359 -1.76866 0
M  V30 35011 C 3433.79 1.81487 -0.520386 0
M  V30 35012 O 3433.15 1.75253 0.509182 0
M  V30 35013 C 3433.2 2.06663 -2.96602 0
M  V30 35014 O 3432.92 1.35544 -4.16604 0
M  V30 35015 C 3434.42 2.94483 -3.31353 0
M  V30 35016 H 3431.64 0.319073 -0.590283 0
M  V30 35017 H 3434.19 0.361192 -2.01285 0
M  V30 35018 H 3432.34 2.73427 -2.74438 0
M  V30 35019 H 3432.75 2.021 -4.84 0
M  V30 35020 H 3434.23 3.60044 -4.18417 0
M  V30 35021 H 3434.71 3.6193 -2.48803 0
M  V30 35022 H 3435.31 2.33271 -3.55619 0
M  V30 35023 N 3433.63 1.46561 0.57944 0
M  V30 35024 C 3434.56 1.53409 1.70289 0
M  V30 35025 C 3435.57 0.422144 1.57232 0
M  V30 35026 O 3436.76 0.690669 1.64597 0
M  V30 35027 C 3433.86 1.40137 3.08569 0
M  V30 35028 C 3433.03 2.65509 3.47597 0
M  V30 35029 C 3432.09 2.46389 4.64951 0
M  V30 35030 O 3431.12 3.20125 4.70647 0
M  V30 35031 N 3432.32 1.52766 5.60038 0
M  V30 35032 H 3435.09 2.50277 1.64868 0
M  V30 35033 H 3432.65 1.42659 0.765508 0
M  V30 35034 H 3434.64 1.25113 3.84875 0
M  V30 35035 H 3433.21 0.514376 3.08339 0
M  V30 35036 H 3432.43 2.95451 2.60964 0
M  V30 35037 H 3433.72 3.48786 3.7044 0
M  V30 35038 H 3433.11 0.919685 5.58174 0
M  V30 35039 H 3431.67 1.43704 6.35761 0
M  V30 35040 N 3435.1 -0.824347 1.34322 0
M  V30 35041 C 3436.05 -1.95656 1.25784 0
M  V30 35042 C 3437.05 -1.68678 0.156228 0
M  V30 35043 O 3438.25 -1.77113 0.321112 0
M  V30 35044 H 3434.63 -0.642527 0.390722 0
M  V30 35045 H 3436.6 -1.99979 2.21474 0
M  V30 35046 C 3435.35 -3.32134 1.02871 0
M  V30 35047 H 3434.67 -3.5344 1.86869 0
M  V30 35048 H 3436.11 -4.11811 1.00932 0
M  V30 35049 C 3434.57 -3.35832 -0.268038 0
M  V30 35050 O 3435.1 -3.811 -1.26988 0
M  V30 35051 N 3433.31 -2.89041 -0.300651 0
M  V30 35052 H 3432.85 -2.52396 0.515195 0
M  V30 35053 H 3432.81 -2.91897 -1.16805 0
M  V30 35054 N 3436.58 -1.18028 -1.04437 0
M  V30 35055 C 3437.49 -0.918785 -2.1586 0
M  V30 35056 C 3438.51 0.115777 -1.73614 0
M  V30 35057 O 3439.68 -0.0652666 -2.01294 0
M  V30 35058 C 3436.75 -0.443982 -3.43845 0
M  V30 35059 C 3435.81 -1.54606 -4.00494 0
M  V30 35060 C 3435.04 -1.09382 -5.22371 0
M  V30 35061 O 3435.27 0.0489847 -5.70379 0
M  V30 35062 O 3434.2 -1.89002 -5.71456 0
M  V30 35063 H 3438.03 -1.85101 -2.40772 0
M  V30 35064 H 3435.61 -0.961789 -1.14324 0
M  V30 35065 H 3437.49 -0.187091 -4.20984 0
M  V30 35066 H 3436.17 0.459995 -3.20415 0
M  V30 35067 H 3435.08 -1.85692 -3.2476 0
M  V30 35068 H 3436.41 -2.42602 -4.28258 0
M  V30 35069 N 3438.06 1.23288 -0.98172 0
M  V30 35070 C 3439.34 1.87181 -0.567692 0
M  V30 35071 C 3439.72 1.88255 0.955161 0
M  V30 35072 O 3439.07 1.36508 1.83243 0
M  V30 35073 C 3439.28 3.28616 -1.17527 0
M  V30 35074 C 3440.62 4.05198 -1.26884 0
M  V30 35075 O 3441.65 3.3784 -1.12883 0
M  V30 35076 O 3440.51 5.25747 -1.49173 0
M  V30 35077 H 3437.6 0.804563 -0.191329 0
M  V30 35078 H 3440.15 1.31153 -1.07689 0
M  V30 35079 H 3438.92 3.22407 -2.21741 0
M  V30 35080 H 3438.54 3.92235 -0.650982 0
M  V30 35081 N 3439.54 0.753533 1.38418 0
M  V30 35082 C 3440.79 0.309668 2.00118 0
M  V30 35083 C 3441.11 -1.1086 1.59813 0
M  V30 35084 O 3440.37 -1.77365 0.827044 0
M  V30 35085 C 3440.67 0.38 3.55374 0
M  V30 35086 C 3440.33 1.75391 4.1539 0
M  V30 35087 C 3439 2.12992 4.31495 0
M  V30 35088 C 3441.35 2.65516 4.48498 0
M  V30 35089 C 3438.68 3.40189 4.78005 0
M  V30 35090 C 3441.03 3.92104 4.96425 0
M  V30 35091 C 3439.69 4.29773 5.10736 0
M  V30 35092 H 3438.96 0.113315 0.732285 0
M  V30 35093 H 3441.61 0.964004 1.65467 0
M  V30 35094 H 3439.91 -0.3579 3.90162 0
M  V30 35095 H 3441.61 0.0181442 4.00996 0
M  V30 35096 H 3438.2 1.45163 4.03269 0
M  V30 35097 H 3442.38 2.37732 4.35657 0
M  V30 35098 H 3437.64 3.69293 4.87271 0
M  V30 35099 H 3441.81 4.62081 5.21013 0
M  V30 35100 H 3439.44 5.28396 5.46536 0
M  V30 35101 N 3441.02 -1.49371 0.502605 0
M  V30 35102 C 3441.96 -2.29156 -0.274964 0
M  V30 35103 C 3442.93 -1.35626 -0.958896 0
M  V30 35104 O 3444.12 -1.64583 -0.965247 0
M  V30 35105 C 3441.26 -3.18337 -1.33249 0
M  V30 35106 C 3440.37 -4.26926 -0.660173 0
M  V30 35107 C 3439.51 -5.03321 -1.69828 0
M  V30 35108 C 3438.55 -6.03745 -1.00792 0
M  V30 35109 N 3437.68 -6.73299 -1.9903 0
M  V30 35110 H 3442.52 -2.95143 0.411651 0
M  V30 35111 H 3440.06 -1.45523 0.214849 0
M  V30 35112 H 3442.02 -3.68419 -1.95763 0
M  V30 35113 H 3440.65 -2.54331 -1.98785 0
M  V30 35114 H 3439.7 -3.80319 0.0782849 0
M  V30 35115 H 3441.01 -4.98663 -0.116803 0
M  V30 35116 H 3440.17 -5.5728 -2.39842 0
M  V30 35117 H 3438.9 -4.31361 -2.27551 0
M  V30 35118 H 3437.91 -5.49016 -0.293557 0
M  V30 35119 H 3439.13 -6.77691 -0.437166 0
M  V30 35120 H 3437.08 -6.04109 -2.55712 0
M  V30 35121 H 3437 -7.41017 -1.49763 0
M  V30 35122 H 3438.27 -7.31861 -2.68328 0
M  V30 35123 N 3442.49 -0.236508 -1.55815 0
M  V30 35124 C 3443.44 0.667411 -2.2094 0
M  V30 35125 C 3444.41 1.17915 -1.16984 0
M  V30 35126 O 3445.6 1.23552 -1.45394 0
M  V30 35127 C 3442.74 1.86332 -2.90472 0
M  V30 35128 C 3441.85 1.38908 -4.09058 0
M  V30 35129 C 3440.98 2.54374 -4.66334 0
M  V30 35130 C 3440.02 2.0376 -5.7719 0
M  V30 35131 N 3439.16 3.12553 -6.28693 0
M  V30 35132 H 3444 0.105359 -2.97814 0
M  V30 35133 H 3441.54 0.0402453 -1.47045 0
M  V30 35134 H 3443.5 2.5657 -3.2898 0
M  V30 35135 H 3442.13 2.39802 -2.1609 0
M  V30 35136 H 3441.18 0.581107 -3.75935 0
M  V30 35137 H 3442.49 0.978066 -4.89117 0
M  V30 35138 H 3441.64 3.3267 -5.07361 0
M  V30 35139 H 3440.38 2.98771 -3.8547 0
M  V30 35140 H 3439.39 1.2393 -5.35651 0
M  V30 35141 H 3440.61 1.60344 -6.59899 0
M  V30 35142 H 3438.56 3.56405 -5.50737 0
M  V30 35143 H 3438.48 2.7575 -7.03916 0
M  V30 35144 H 3439.74 3.9094 -6.74378 0
M  V30 35145 N 3443.97 1.57557 0.0367273 0
M  V30 35146 C 3444.94 2.05038 1.02431 0
M  V30 35147 C 3445.94 0.953169 1.29504 0
M  V30 35148 O 3447.13 1.21702 1.24636 0
M  V30 35149 C 3444.26 2.46083 2.35915 0
M  V30 35150 H 3445.45 2.9354 0.614333 0
M  V30 35151 H 3443 1.5371 0.283369 0
M  V30 35152 H 3443.74 1.60713 2.81677 0
M  V30 35153 H 3443.52 3.26181 2.17597 0
M  V30 35154 H 3445.01 2.83271 3.06834 0
M  V30 35155 N 3445.45 -0.308854 1.54544 0
M  V30 35156 C 3446.38 -1.38554 1.8795 0
M  V30 35157 C 3447.36 -1.53273 0.737649 0
M  V30 35158 O 3448.55 -1.66911 0.992694 0
M  V30 35159 C 3445.68 -2.75098 2.11987 0
M  V30 35160 C 3444.63 -2.75152 3.27834 0
M  V30 35161 C 3443.96 -4.14911 3.37273 0
M  V30 35162 C 3445.26 -2.3759 4.65133 0
M  V30 35163 H 3446.95 -1.10845 2.78125 0
M  V30 35164 H 3444.5 -0.531784 1.33821 0
M  V30 35165 H 3446.45 -3.50499 2.33941 0
M  V30 35166 H 3445.17 -3.04315 1.18574 0
M  V30 35167 H 3443.83 -2.02207 3.05791 0
M  V30 35168 H 3443.48 -4.41292 2.41392 0
M  V30 35169 H 3443.18 -4.1585 4.15142 0
M  V30 35170 H 3444.71 -4.92103 3.61479 0
M  V30 35171 H 3446.12 -3.02705 4.8687 0
M  V30 35172 H 3444.52 -2.49755 5.45658 0
M  V30 35173 H 3445.59 -1.32723 4.66383 0
M  V30 35174 N 3446.93 -1.46867 -0.571659 0
M  V30 35175 C 3448.16 -1.56338 -1.35521 0
M  V30 35176 C 3448.57 -0.208392 -1.87646 0
M  V30 35177 O 3447.93 0.796107 -1.64221 0
M  V30 35178 C 3447.98 -2.57708 -2.53513 0
M  V30 35179 O 3447.7 -3.87944 -2.03545 0
M  V30 35180 C 3449.2 -2.77226 -3.4592 0
M  V30 35181 H 3446.42 -0.528355 -0.413621 0
M  V30 35182 H 3448.97 -1.92367 -0.693909 0
M  V30 35183 H 3447.12 -2.24652 -3.15611 0
M  V30 35184 H 3447.54 -4.43213 -2.80468 0
M  V30 35185 H 3449.01 -3.5205 -4.25164 0
M  V30 35186 H 3449.49 -1.84527 -3.98556 0
M  V30 35187 H 3450.09 -3.11421 -2.8965 0
M  V30 35188 N 3448.41 0.817212 -1.34757 0
M  V30 35189 C 3449.68 1.55991 -1.1801 0
M  V30 35190 C 3450.06 2.09673 0.245042 0
M  V30 35191 O 3449.41 1.91464 1.24715 0
M  V30 35192 C 3449.62 2.6768 -2.23939 0
M  V30 35193 C 3450.97 3.36299 -2.59207 0
M  V30 35194 O 3451.99 2.77941 -2.22772 0
M  V30 35195 O 3450.85 4.41697 -3.21817 0
M  V30 35196 H 3447.95 0.688721 -0.457812 0
M  V30 35197 H 3450.49 0.858091 -1.46407 0
M  V30 35198 H 3449.27 2.25808 -3.19572 0
M  V30 35199 H 3448.89 3.45506 -1.96751 0
M  V30 35200 N 3449.89 1.1858 1.0381 0
M  V30 35201 C 3450.85 0.917217 2.10047 0
M  V30 35202 C 3451.85 -0.098484 1.60498 0
M  V30 35203 O 3453.04 0.135244 1.73674 0
M  V30 35204 C 3450.17 0.376658 3.38813 0
M  V30 35205 H 3451.36 1.85932 2.35307 0
M  V30 35206 H 3448.92 0.998177 1.20275 0
M  V30 35207 H 3449.65 -0.571927 3.19217 0
M  V30 35208 H 3449.44 1.10887 3.76094 0
M  V30 35209 H 3450.93 0.207526 4.17084 0
M  V30 35210 N 3451.36 -1.22766 0.988245 0
M  V30 35211 C 3452.64 -1.86877 0.577611 0
M  V30 35212 C 3453.02 -1.88759 -0.945164 0
M  V30 35213 O 3452.37 -1.37478 -1.82516 0
M  V30 35214 C 3452.58 -3.27988 1.19269 0
M  V30 35215 C 3453.93 -4.0452 1.29031 0
M  V30 35216 O 3454.95 -3.37237 1.14673 0
M  V30 35217 O 3453.81 -5.24948 1.51959 0
M  V30 35218 H 3450.9 -0.803537 0.195593 0
M  V30 35219 H 3453.45 -1.30581 1.08383 0
M  V30 35220 H 3452.22 -3.21227 2.23448 0
M  V30 35221 H 3451.84 -3.91884 0.671774 0
M  V30 35222 N 3452.84 -0.760864 -1.38017 0
M  V30 35223 C 3453.79 -0.127466 -2.3225 0
M  V30 35224 C 3454.78 0.697193 -1.54388 0
M  V30 35225 O 3455.99 0.595475 -1.69865 0
M  V30 35226 H 3452.36 -0.0224274 -0.751665 0
M  V30 35227 H 3454.34 -0.93818 -2.83268 0
M  V30 35228 C 3453.08 0.74579 -3.39608 0
M  V30 35229 H 3452.41 0.120609 -3.99618 0
M  V30 35230 H 3453.85 1.15614 -4.07933 0
M  V30 35231 C 3452.31 1.89162 -2.78782 0
M  V30 35232 O 3452.84 2.98633 -2.68666 0
M  V30 35233 N 3451.04 1.68889 -2.36484 0
M  V30 35234 H 3450.59 0.798508 -2.44911 0
M  V30 35235 H 3450.55 2.45724 -1.9613 0
M  V30 35236 N 3454.32 1.49102 -0.510519 0
M  V30 35237 C 3455.54 2.07379 0.0292749 0
M  V30 35238 C 3455.97 1.36715 1.29192 0
M  V30 35239 O 3455.33 0.426869 1.76203 0
M  V30 35240 C 3455.38 3.59689 0.256227 0
M  V30 35241 O 3454.48 3.90399 1.329 0
M  V30 35242 H 3453.82 0.663301 -0.0304565 0
M  V30 35243 H 3456.35 1.9178 -0.712866 0
M  V30 35244 H 3456.36 4.05109 0.484843 0
M  V30 35245 H 3455.04 4.10529 -0.666235 0
M  V30 35246 H 3453.61 3.56779 1.08458 0
M  V30 35247 N 3455.8 0.244768 1.55688 0
M  V30 35248 C 3457.04 -0.381132 1.99186 0
M  V30 35249 C 3457.38 -1.57746 1.13269 0
M  V30 35250 O 3456.65 -1.93514 0.195602 0
M  V30 35251 C 3456.93 -0.79308 3.51258 0
M  V30 35252 C 3456.79 0.408488 4.47941 0
M  V30 35253 C 3458.11 -1.64083 4.08368 0
M  V30 35254 H 3455.23 -0.13706 0.724143 0
M  V30 35255 H 3457.87 0.345652 1.86829 0
M  V30 35256 H 3456.02 -1.41233 3.61919 0
M  V30 35257 H 3457.69 1.0469 4.49263 0
M  V30 35258 H 3455.93 1.05196 4.20852 0
M  V30 35259 H 3456.6 0.0769501 5.51946 0
M  V30 35260 H 3459.08 -1.11813 4.00796 0
M  V30 35261 H 3457.96 -1.89793 5.15043 0
M  V30 35262 H 3458.22 -2.61196 3.56692 0
M  V30 35263 N 3457.28 -1.57574 -0.0283712 0
M  V30 35264 C 3458.22 -2.07694 -1.04719 0
M  V30 35265 C 3459.22 -0.990871 -1.37398 0
M  V30 35266 O 3460.42 -1.17575 -1.36295 0
M  V30 35267 H 3456.8 -0.662804 -0.355239 0
M  V30 35268 H 3458.77 -2.92333 -0.598686 0
M  V30 35269 C 3457.52 -2.57233 -2.33937 0
M  V30 35270 H 3456.84 -3.4042 -2.09653 0
M  V30 35271 H 3458.28 -2.9601 -3.03568 0
M  V30 35272 C 3456.74 -1.47387 -3.0295 0
M  V30 35273 O 3457.27 -0.8405 -3.92808 0
M  V30 35274 N 3455.48 -1.20824 -2.64291 0
M  V30 35275 H 3455.02 -1.72513 -1.91304 0
M  V30 35276 H 3454.98 -0.475408 -3.10785 0
M  V30 35277 N 3458.75 0.300654 -1.54706 0
M  V30 35278 C 3459.7 1.37081 -1.85681 0
M  V30 35279 C 3460.67 1.50361 -0.705756 0
M  V30 35280 O 3461.86 1.65214 -0.954415 0
M  V30 35281 C 3459 2.73081 -2.11 0
M  V30 35282 C 3458.11 2.68248 -3.38625 0
M  V30 35283 C 3457.24 3.96244 -3.53786 0
M  V30 35284 C 3456.28 3.8581 -4.75202 0
M  V30 35285 N 3455.42 5.05582 -4.87166 0
M  V30 35286 H 3460.26 1.09966 -2.76968 0
M  V30 35287 H 3457.8 0.531863 -1.37148 0
M  V30 35288 H 3459.75 3.52172 -2.23675 0
M  V30 35289 H 3458.38 2.98456 -1.22978 0
M  V30 35290 H 3457.44 1.81019 -3.34569 0
M  V30 35291 H 3458.75 2.56428 -4.27839 0
M  V30 35292 H 3457.9 4.83772 -3.66127 0
M  V30 35293 H 3456.64 4.10898 -2.62706 0
M  V30 35294 H 3455.65 2.96665 -4.62893 0
M  V30 35295 H 3456.87 3.72701 -5.67689 0
M  V30 35296 H 3454.82 5.20699 -3.9901 0
M  V30 35297 H 3454.73 4.96187 -5.70381 0
M  V30 35298 H 3456 5.94761 -5.03865 0
M  V30 35299 N 3460.23 1.47168 0.563863 0
M  V30 35300 C 3461.16 1.62028 1.68134 0
M  V30 35301 C 3462.14 0.469927 1.6348 0
M  V30 35302 O 3463.33 0.698464 1.81205 0
M  V30 35303 C 3460.46 1.62806 3.06776 0
M  V30 35304 C 3459.41 2.77002 3.26273 0
M  V30 35305 C 3458.74 2.62849 4.65633 0
M  V30 35306 C 3460.04 4.18657 3.12288 0
M  V30 35307 H 3461.73 2.55575 1.55954 0
M  V30 35308 H 3459.28 1.22997 0.748848 0
M  V30 35309 H 3461.23 1.71794 3.84792 0
M  V30 35310 H 3459.96 0.658153 3.199 0
M  V30 35311 H 3458.61 2.67514 2.50663 0
M  V30 35312 H 3458.26 1.639 4.75548 0
M  V30 35313 H 3457.96 3.39456 4.79629 0
M  V30 35314 H 3459.49 2.73756 5.45793 0
M  V30 35315 H 3460.9 4.29156 3.80128 0
M  V30 35316 H 3459.3 4.95998 3.37796 0
M  V30 35317 H 3460.37 4.3749 2.09119 0
M  V30 35318 N 3461.71 -0.810054 1.35188 0
M  V30 35319 C 3462.94 -1.59839 1.31374 0
M  V30 35320 C 3463.35 -1.88482 -0.109514 0
M  V30 35321 O 3462.71 -1.48529 -1.06045 0
M  V30 35322 C 3462.76 -2.93171 2.11502 0
M  V30 35323 O 3462.48 -2.65771 3.48277 0
M  V30 35324 C 3463.98 -3.87543 2.15233 0
M  V30 35325 H 3461.2 -0.496433 0.451437 0
M  V30 35326 H 3463.75 -1.00694 1.77992 0
M  V30 35327 H 3461.9 -3.4884 1.68493 0
M  V30 35328 H 3462.32 -3.50879 3.89851 0
M  V30 35329 H 3463.79 -4.78222 2.75696 0
M  V30 35330 H 3464.27 -4.23873 1.15015 0
M  V30 35331 H 3464.87 -3.3781 2.58388 0
M  V30 35332 N 3463.19 -1.19129 -1.0318 0
M  V30 35333 C 3464.14 -0.922937 -2.13506 0
M  V30 35334 C 3465.13 0.120141 -1.68973 0
M  V30 35335 O 3466.34 -0.0288323 -1.79977 0
M  V30 35336 H 3462.71 -0.281039 -0.697511 0
M  V30 35337 H 3464.68 -1.86007 -2.33332 0
M  V30 35338 C 3463.43 -0.474925 -3.44441 0
M  V30 35339 H 3462.75 -1.26909 -3.79123 0
M  V30 35340 H 3464.19 -0.326236 -4.22743 0
M  V30 35341 C 3462.65 0.810573 -3.27004 0
M  V30 35342 O 3463.18 1.87269 -3.55377 0
M  V30 35343 N 3461.39 0.766664 -2.80305 0
M  V30 35344 H 3460.94 -0.0979124 -2.57414 0
M  V30 35345 H 3460.89 1.62717 -2.69018 0
M  V30 35346 N 3464.67 1.2224 -0.994741 0
M  V30 35347 C 3465.61 2.24235 -0.546544 0
M  V30 35348 C 3466.58 1.60648 0.422073 0
M  V30 35349 O 3467.77 1.87987 0.326419 0
M  V30 35350 C 3464.91 3.44852 0.130848 0
M  V30 35351 C 3464.02 4.22948 -0.879727 0
M  V30 35352 C 3463.16 5.30909 -0.175662 0
M  V30 35353 C 3462.2 6.00726 -1.17448 0
M  V30 35354 N 3461.33 7.00327 -0.498597 0
M  V30 35355 H 3466.17 2.61936 -1.42103 0
M  V30 35356 H 3463.71 1.28733 -0.711777 0
M  V30 35357 H 3465.67 4.13684 0.540523 0
M  V30 35358 H 3464.3 3.07909 0.969116 0
M  V30 35359 H 3463.35 3.53394 -1.40771 0
M  V30 35360 H 3464.66 4.7106 -1.64025 0
M  V30 35361 H 3463.82 6.06003 0.29065 0
M  V30 35362 H 3462.55 4.83777 0.617353 0
M  V30 35363 H 3461.56 5.24413 -1.65141 0
M  V30 35364 H 3462.78 6.49947 -1.9684 0
M  V30 35365 H 3460.73 6.55424 0.274948 0
M  V30 35366 H 3460.65 7.46455 -1.19754 0
M  V30 35367 H 3461.92 7.7948 -0.055149 0
M  V30 35368 N 3466.14 0.768172 1.37611 0
M  V30 35369 C 3467.07 0.165952 2.3291 0
M  V30 35370 C 3468.06 -0.687178 1.55602 0
M  V30 35371 O 3469.24 -0.625374 1.83855 0
M  V30 35372 C 3466.37 -0.71674 3.39824 0
M  V30 35373 C 3465.32 0.0348016 4.27986 0
M  V30 35374 C 3464.65 -0.9671 5.25881 0
M  V30 35375 C 3465.95 1.21173 5.0805 0
M  V30 35376 H 3467.64 0.962055 2.83522 0
M  V30 35377 H 3465.19 0.464075 1.36317 0
M  V30 35378 H 3467.14 -1.14782 4.05466 0
M  V30 35379 H 3465.87 -1.54532 2.87728 0
M  V30 35380 H 3464.53 0.446621 3.63869 0
M  V30 35381 H 3464.17 -1.79014 4.70067 0
M  V30 35382 H 3463.87 -0.46881 5.85727 0
M  V30 35383 H 3465.4 -1.39719 5.944 0
M  V30 35384 H 3466.81 0.857473 5.66851 0
M  V30 35385 H 3465.21 1.64186 5.77203 0
M  V30 35386 H 3466.28 2.01758 4.40933 0
M  V30 35387 N 3467.62 -1.48829 0.518419 0
M  V30 35388 C 3469.03 -1.86549 0.0750101 0
M  V30 35389 C 3469.38 -1.42912 -1.34427 0
M  V30 35390 O 3468.51 -0.814683 -2.00479 0
M  V30 35391 C 3469.1 -3.38553 0.129348 0
M  V30 35392 C 3467.66 -3.75509 -0.258805 0
M  V30 35393 C 3466.81 -2.7286 0.494233 0
M  V30 35394 H 3469.76 -1.40899 0.730291 0
M  V30 35395 H 3469.78 -3.74701 -0.661778 0
M  V30 35396 H 3469.29 -3.70283 1.16243 0
M  V30 35397 H 3467.4 -3.49391 -1.29447 0
M  V30 35398 H 3467.51 -4.79045 0.0727611 0
M  V30 35399 H 3465.87 -2.54634 -0.0580981 0
M  V30 35400 H 3466.66 -3.07434 1.52773 0
M  V30 35401 N 3469.1 -0.253021 -1.55556 0
M  V30 35402 C 3470.38 0.420663 -1.91023 0
M  V30 35403 C 3470.76 1.75407 -1.17455 0
M  V30 35404 O 3470.11 2.266 -0.294039 0
M  V30 35405 C 3470.32 0.582726 -3.44101 0
M  V30 35406 C 3471.66 0.8758 -4.15469 0
M  V30 35407 O 3472.69 0.668364 -3.49873 0
M  V30 35408 O 3471.55 1.27119 -5.3151 0
M  V30 35409 H 3468.64 0.226762 -0.795304 0
M  V30 35410 H 3471.19 -0.29754 -1.67071 0
M  V30 35411 H 3469.96 -0.356542 -3.89672 0
M  V30 35412 H 3469.58 1.35124 -3.73935 0
M  V30 35413 N 3470.58 1.57587 0.0200142 0
M  V30 35414 C 3471.51 2.10183 1.01712 0
M  V30 35415 C 3472.49 1.00639 1.37134 0
M  V30 35416 O 3473.67 1.28213 1.4586 0
M  V30 35417 C 3470.8 2.58869 2.31526 0
M  V30 35418 C 3469.76 3.72759 2.1032 0
M  V30 35419 C 3469.08 4.07684 3.45974 0
M  V30 35420 C 3470.38 5.00833 1.48201 0
M  V30 35421 H 3472.08 2.93743 0.579255 0
M  V30 35422 H 3469.62 1.41307 0.277187 0
M  V30 35423 H 3471.58 2.94287 3.01618 0
M  V30 35424 H 3470.3 1.72404 2.77389 0
M  V30 35425 H 3468.96 3.37704 1.42659 0
M  V30 35426 H 3468.61 3.18272 3.89502 0
M  V30 35427 H 3468.31 4.84403 3.32608 0
M  V30 35428 H 3469.83 4.45644 4.17413 0
M  V30 35429 H 3471.25 5.3415 2.08222 0
M  V30 35430 H 3469.64 5.82223 1.45383 0
M  V30 35431 H 3470.71 4.82818 0.448857 0
M  V30 35432 N 3472.06 -0.292445 1.54863 0
M  V30 35433 C 3473.3 -1.02412 1.75737 0
M  V30 35434 C 3473.66 -1.84631 0.541229 0
M  V30 35435 O 3472.95 -1.85839 -0.466312 0
M  V30 35436 C 3473.14 -1.95458 2.99217 0
M  V30 35437 C 3472.97 -1.22393 4.32724 0
M  V30 35438 C 3471.74 -0.947572 4.96336 0
M  V30 35439 C 3473.94 -0.62407 5.105 0
M  V30 35440 N 3471.92 -0.18809 6.13612 0
M  V30 35441 C 3473.29 0.00221097 6.2 0
M  V30 35442 C 3475.35 -0.529972 4.95071 0
M  V30 35443 C 3474.05 0.713497 7.15753 0
M  V30 35444 C 3476.08 0.167679 5.91162 0
M  V30 35445 C 3475.44 0.782776 7.00037 0
M  V30 35446 H 3471.54 -0.357391 0.695554 0
M  V30 35447 H 3474.12 -0.301816 1.92346 0
M  V30 35448 H 3472.29 -2.64931 2.84018 0
M  V30 35449 H 3474.03 -2.61841 3.0858 0
M  V30 35450 H 3470.78 -1.24791 4.56863 0
M  V30 35451 H 3471.21 0.178414 6.76765 0
M  V30 35452 H 3475.85 -0.991216 4.11017 0
M  V30 35453 H 3473.57 1.18648 7.99342 0
M  V30 35454 H 3477.15 0.240544 5.81303 0
M  V30 35455 H 3476.03 1.31402 7.73113 0
M  V30 35456 N 3473.53 -1.47465 -0.55605 0
M  V30 35457 C 3474.95 -1.33009 -0.882091 0
M  V30 35458 C 3475.15 -0.321442 -1.9892 0
M  V30 35459 O 3474.21 0.266624 -2.51088 0
M  V30 35460 C 3475.52 -2.72367 -1.27423 0
M  V30 35461 C 3477.07 -2.8066 -1.38559 0
M  V30 35462 C 3477.54 -4.20662 -1.81128 0
M  V30 35463 N 3479.03 -4.23209 -1.88277 0
M  V30 35464 C 3479.77 -5.28451 -2.22546 0
M  V30 35465 N 3479.26 -6.43997 -2.55421 0
M  V30 35466 N 3481.06 -5.1583 -2.2333 0
M  V30 35467 H 3473.21 -2.11679 0.174847 0
M  V30 35468 H 3475.47 -0.947872 0.0155588 0
M  V30 35469 H 3475.18 -3.47614 -0.534569 0
M  V30 35470 H 3475.05 -3.04212 -2.23013 0
M  V30 35471 H 3477.44 -2.05686 -2.11607 0
M  V30 35472 H 3477.52 -2.52468 -0.411543 0
M  V30 35473 H 3477.16 -4.96143 -1.0865 0
M  V30 35474 H 3477.09 -4.4628 -2.79538 0
M  V30 35475 H 3479.58 -3.39853 -1.65253 0
M  V30 35476 H 3479.9 -7.20058 -2.806 0
M  V30 35477 H 3478.24 -6.47315 -2.52998 0
M  V30 35478 H 3481.43 -4.24587 -1.97087 0
M  V30 35479 H 3481.61 -5.97955 -2.49707 0
M  V30 35480 N 3475.01 0.802873 -1.35616 0
M  V30 35481 C 3475.96 1.9149 -1.28842 0
M  V30 35482 C 3476.93 1.65331 -0.15965 0
M  V30 35483 O 3478.12 1.87674 -0.343964 0
M  V30 35484 C 3475.26 3.28091 -1.07005 0
M  V30 35485 C 3474.37 3.66412 -2.28837 0
M  V30 35486 C 3473.5 4.92062 -2.0012 0
M  V30 35487 C 3472.54 5.23021 -3.17986 0
M  V30 35488 N 3471.68 6.39853 -2.89021 0
M  V30 35489 H 3476.52 1.96616 -2.23934 0
M  V30 35490 H 3474.06 0.961668 -1.11312 0
M  V30 35491 H 3476.01 4.06845 -0.923745 0
M  V30 35492 H 3474.64 3.22424 -0.155741 0
M  V30 35493 H 3473.7 2.82889 -2.54319 0
M  V30 35494 H 3475.01 3.85248 -3.16837 0
M  V30 35495 H 3474.16 5.78651 -1.82342 0
M  V30 35496 H 3472.9 4.75269 -1.09411 0
M  V30 35497 H 3471.91 4.34922 -3.36338 0
M  V30 35498 H 3473.13 5.41742 -4.09502 0
M  V30 35499 H 3471.08 6.24477 -2.00909 0
M  V30 35500 H 3470.99 6.58957 -3.70556 0
M  V30 35501 H 3472.26 7.29459 -2.74792 0
M  V30 35502 N 3476.49 1.19674 1.02547 0
M  V30 35503 C 3477.74 0.995762 1.75407 0
M  V30 35504 C 3478.05 -0.473829 1.89774 0
M  V30 35505 O 3479.26 -0.793717 2.59639 0
M  V30 35506 C 3477.72 1.73278 3.1544 0
M  V30 35507 C 3477.32 3.24271 3.09115 0
M  V30 35508 C 3479.07 1.61516 3.92572 0
M  V30 35509 C 3476.97 3.90548 4.44102 0
M  V30 35510 H 3475.9 0.368955 0.657562 0
M  V30 35511 H 3478.56 1.43205 1.14737 0
M  V30 35512 H 3476.94 1.22432 3.76598 0
M  V30 35513 H 3478.11 3.82262 2.57318 0
M  V30 35514 H 3476.43 3.36346 2.45479 0
M  V30 35515 H 3479.02 2.08381 4.92424 0
M  V30 35516 H 3479.37 0.569876 4.12381 0
M  V30 35517 H 3479.9 2.09727 3.38023 0
M  V30 35518 H 3476.64 4.95189 4.29497 0
M  V30 35519 H 3476.16 3.37346 4.95942 0
M  V30 35520 H 3477.84 3.94291 5.12975 0
M  V30 35521 N 3477.97 -1.21711 1.00121 0
M  V30 35522 C 3478.88 -2.2763 0.567622 0
M  V30 35523 C 3479.9 -1.69629 -0.387563 0
M  V30 35524 O 3481.07 -1.99813 -0.252337 0
M  V30 35525 C 3478.14 -3.46548 -0.102684 0
M  V30 35526 C 3477.2 -4.19835 0.896506 0
M  V30 35527 C 3476.43 -5.33076 0.258094 0
M  V30 35528 O 3476.65 -5.625 -0.946019 0
M  V30 35529 O 3475.59 -5.94079 0.967125 0
M  V30 35530 H 3479.41 -2.66903 1.44902 0
M  V30 35531 H 3477 -1.28036 0.769885 0
M  V30 35532 H 3478.88 -4.18683 -0.477773 0
M  V30 35533 H 3477.56 -3.09183 -0.958521 0
M  V30 35534 H 3476.46 -3.49937 1.32268 0
M  V30 35535 H 3477.8 -4.61101 1.72181 0
M  V30 35536 N 3479.45 -0.775459 -1.37202 0
M  V30 35537 C 3480.67 -0.351772 -2.04395 0
M  V30 35538 C 3481.1 1.01911 -1.58101 0
M  V30 35539 O 3480.46 1.65378 -0.742961 0
M  V30 35540 C 3480.5 -0.408168 -3.58282 0
M  V30 35541 O 3479.61 0.590032 -4.08157 0
M  V30 35542 H 3478.95 -0.151658 -0.646449 0
M  V30 35543 H 3481.48 -1.05268 -1.75441 0
M  V30 35544 H 3481.49 -0.266783 -4.07127 0
M  V30 35545 H 3480.16 -1.40826 -3.91332 0
M  V30 35546 H 3478.74 0.411459 -3.70623 0
M  V30 35547 N 3480.93 1.48552 -0.526305 0
M  V30 35548 C 3482.17 2.01697 0.0111118 0
M  V30 35549 C 3482.49 1.40898 1.35673 0
M  V30 35550 O 3483.69 1.85519 1.9823 0
M  V30 35551 C 3482.15 3.59832 0.0702088 0
M  V30 35552 C 3481.76 4.29613 -1.27029 0
M  V30 35553 C 3483.5 4.20834 0.556648 0
M  V30 35554 C 3481.41 5.79671 -1.17198 0
M  V30 35555 H 3480.34 0.753958 0.00792372 0
M  V30 35556 H 3482.99 1.70849 -0.669533 0
M  V30 35557 H 3481.37 3.87505 0.815851 0
M  V30 35558 H 3482.55 4.13616 -2.03121 0
M  V30 35559 H 3480.86 3.80466 -1.69217 0
M  V30 35560 H 3483.46 5.30758 0.648112 0
M  V30 35561 H 3483.8 3.85903 1.56156 0
M  V30 35562 H 3484.33 3.97577 -0.133202 0
M  V30 35563 H 3481.07 6.19171 -2.15193 0
M  V30 35564 H 3480.59 5.98092 -0.452364 0
M  V30 35565 H 3482.27 6.41244 -0.861123 0
M  V30 35566 N 3482.4 0.261267 1.55419 0
M  V30 35567 C 3483.35 -0.648284 2.23383 0
M  V30 35568 C 3484.35 -1.16882 1.22618 0
M  V30 35569 O 3485.55 -1.12405 1.40589 0
M  V30 35570 H 3481.93 -0.227579 0.716737 0
M  V30 35571 H 3483.9 -0.0520764 2.98355 0
M  V30 35572 C 3482.65 -1.82761 2.95794 0
M  V30 35573 H 3481.97 -1.43624 3.73112 0
M  V30 35574 H 3483.41 -2.44094 3.4669 0
M  V30 35575 C 3481.87 -2.7076 2.00477 0
M  V30 35576 O 3482.4 -3.70715 1.54705 0
M  V30 35577 N 3480.6 -2.37632 1.67271 0
M  V30 35578 H 3480.15 -1.56399 2.04688 0
M  V30 35579 H 3480.11 -2.96783 1.03764 0
M  V30 35580 N 3483.88 -1.57596 -0.0116567 0
M  V30 35581 C 3484.81 -2.04514 -1.03474 0
M  V30 35582 C 3485.83 -0.960968 -1.31412 0
M  V30 35583 O 3487.02 -1.23798 -1.28594 0
M  V30 35584 C 3484.12 -2.42023 -2.3723 0
M  V30 35585 C 3483.29 -3.73032 -2.28398 0
M  V30 35586 C 3482.35 -3.97538 -3.44746 0
M  V30 35587 O 3481.37 -4.68364 -3.23457 0
M  V30 35588 N 3482.58 -3.44526 -4.67206 0
M  V30 35589 H 3485.34 -2.92902 -0.634706 0
M  V30 35590 H 3482.9 -1.60669 -0.199272 0
M  V30 35591 H 3484.89 -2.55541 -3.13817 0
M  V30 35592 H 3483.46 -1.59215 -2.69016 0
M  V30 35593 H 3482.68 -3.69703 -1.36797 0
M  V30 35594 H 3483.97 -4.58942 -2.19658 0
M  V30 35595 H 3483.37 -2.87151 -4.87402 0
M  V30 35596 H 3481.93 -3.63394 -5.41099 0
M  V30 35597 N 3485.36 0.284228 -1.55016 0
M  V30 35598 C 3486.29 1.37307 -1.8352 0
M  V30 35599 C 3487.3 1.46061 -0.719034 0
M  V30 35600 O 3488.49 1.48079 -0.996745 0
M  V30 35601 C 3485.59 2.75536 -1.97314 0
M  V30 35602 C 3484.77 2.89512 -3.27875 0
M  V30 35603 C 3483.83 4.08345 -3.31875 0
M  V30 35604 O 3482.85 3.99634 -4.05316 0
M  V30 35605 N 3484.05 5.19783 -2.58469 0
M  V30 35606 H 3486.82 1.13205 -2.77497 0
M  V30 35607 H 3484.38 0.474332 -1.54796 0
M  V30 35608 H 3486.37 3.53307 -1.97373 0
M  V30 35609 H 3484.94 2.92511 -1.10254 0
M  V30 35610 H 3484.16 1.98716 -3.40449 0
M  V30 35611 H 3485.45 2.95772 -4.14001 0
M  V30 35612 H 3484.85 5.29744 -1.98464 0
M  V30 35613 H 3483.4 5.95826 -2.64263 0
M  V30 35614 N 3486.84 1.47758 0.548222 0
M  V30 35615 C 3487.77 1.63802 1.66406 0
M  V30 35616 C 3488.75 0.48724 1.62972 0
M  V30 35617 O 3489.93 0.717644 1.80454 0
M  V30 35618 C 3487.06 1.66051 3.05032 0
M  V30 35619 C 3486.02 2.80447 3.23317 0
M  V30 35620 C 3485.34 2.67773 4.62819 0
M  V30 35621 C 3486.64 4.21945 3.0783 0
M  V30 35622 H 3488.34 2.57215 1.53234 0
M  V30 35623 H 3485.88 1.23784 0.735761 0
M  V30 35624 H 3487.84 1.75866 3.82948 0
M  V30 35625 H 3486.56 0.692046 3.19184 0
M  V30 35626 H 3485.22 2.70157 2.47812 0
M  V30 35627 H 3484.87 1.68935 4.73783 0
M  V30 35628 H 3484.57 3.44524 4.76001 0
M  V30 35629 H 3486.09 2.79529 5.42859 0
M  V30 35630 H 3487.51 4.33164 3.75555 0
M  V30 35631 H 3485.9 4.99553 3.32517 0
M  V30 35632 H 3486.97 4.39683 2.04467 0
M  V30 35633 N 3488.32 -0.79567 1.3604 0
M  V30 35634 C 3489.25 -1.92244 1.32531 0
M  V30 35635 C 3490.23 -1.68946 0.197835 0
M  V30 35636 O 3491.41 -1.90151 0.394508 0
M  V30 35637 C 3488.54 -3.29167 1.10754 0
M  V30 35638 C 3487.5 -3.66974 2.20259 0
M  V30 35639 C 3486.82 -5.02178 1.83633 0
M  V30 35640 C 3488.12 -3.7621 3.62303 0
M  V30 35641 H 3489.82 -1.95438 2.26814 0
M  V30 35642 H 3487.36 -0.938889 1.09183 0
M  V30 35643 H 3489.31 -4.07606 1.06936 0
M  V30 35644 H 3488.04 -3.26344 0.129198 0
M  V30 35645 H 3486.7 -2.90828 2.23192 0
M  V30 35646 H 3486.35 -4.9587 0.843891 0
M  V30 35647 H 3486.05 -5.28444 2.56944 0
M  V30 35648 H 3487.57 -5.83045 1.8136 0
M  V30 35649 H 3488.98 -4.44855 3.61631 0
M  V30 35650 H 3487.38 -4.13955 4.34466 0
M  V30 35651 H 3488.45 -2.77476 3.97662 0
M  V30 35652 N 3489.79 -1.20217 -1.0191 0
M  V30 35653 C 3491.21 -1.01162 -1.56918 0
M  V30 35654 C 3491.56 0.432712 -1.91369 0
M  V30 35655 O 3490.68 1.31371 -1.71961 0
M  V30 35656 C 3491.28 -1.83006 -2.85122 0
M  V30 35657 C 3489.84 -1.68324 -3.36666 0
M  V30 35658 C 3488.98 -1.81095 -2.1 0
M  V30 35659 H 3491.93 -1.34445 -0.843223 0
M  V30 35660 H 3491.95 -1.33194 -3.56426 0
M  V30 35661 H 3491.47 -2.8812 -2.60016 0
M  V30 35662 H 3489.57 -0.658357 -3.66738 0
M  V30 35663 H 3489.68 -2.49449 -4.09038 0
M  V30 35664 H 3488.04 -1.24255 -2.22335 0
M  V30 35665 H 3488.83 -2.87689 -1.87324 0
M  V30 35666 N 3491.27 1.21178 -1.00765 0
M  V30 35667 C 3492.2 2.25909 -0.590533 0
M  V30 35668 C 3493.18 1.65569 0.389973 0
M  V30 35669 O 3494.37 1.92209 0.277373 0
M  V30 35670 C 3491.5 3.47206 0.0809778 0
M  V30 35671 C 3490.45 4.2008 -0.819583 0
M  V30 35672 C 3489.78 5.34698 -0.014338 0
M  V30 35673 C 3491.08 4.77187 -2.12344 0
M  V30 35674 H 3492.77 2.61054 -1.46599 0
M  V30 35675 H 3490.32 1.25486 -0.706343 0
M  V30 35676 H 3492.27 4.19644 0.384282 0
M  V30 35677 H 3491 3.11199 0.99109 0
M  V30 35678 H 3489.65 3.49495 -1.10675 0
M  V30 35679 H 3489.3 4.94935 0.897146 0
M  V30 35680 H 3489 5.84383 -0.613986 0
M  V30 35681 H 3490.53 6.09945 0.28272 0
M  V30 35682 H 3491.94 5.4149 -1.88311 0
M  V30 35683 H 3490.34 5.37272 -2.67317 0
M  V30 35684 H 3491.41 3.96422 -2.79245 0
M  V30 35685 N 3492.75 0.782725 1.36789 0
M  V30 35686 C 3494 0.351351 1.99022 0
M  V30 35687 C 3494.32 -1.07884 1.62438 0
M  V30 35688 O 3493.59 -1.74254 0.895114 0
M  V30 35689 H 3492.17 0.126922 0.736138 0
M  V30 35690 H 3494.83 1.00328 1.67093 0
M  V30 35691 H 3493.93 0.437794 3.09014 0
M  V30 35692 N 3494.23 -1.48271 0.534176 0
M  V30 35693 C 3495.18 -2.31362 -0.239631 0
M  V30 35694 C 3496.17 -1.41492 -0.931476 0
M  V30 35695 O 3497.38 -1.58377 -0.855383 0
M  V30 35696 H 3493.75 -0.745828 -0.0961469 0
M  V30 35697 H 3495.72 -2.94503 0.48069 0
M  V30 35698 C 3494.47 -3.23639 -1.27096 0
M  V30 35699 H 3493.79 -3.9274 -0.748013 0
M  V30 35700 H 3495.23 -3.84655 -1.78373 0
M  V30 35701 C 3493.69 -2.45538 -2.30679 0
M  V30 35702 O 3494.22 -2.1832 -3.37193 0
M  V30 35703 N 3492.43 -2.06958 -2.04002 0
M  V30 35704 H 3491.98 -2.29293 -1.17399 0
M  V30 35705 H 3491.93 -1.55014 -2.73529 0
M  V30 35706 N 3495.71 -0.269505 -1.55279 0
M  V30 35707 C 3496.96 0.349487 -1.98649 0
M  V30 35708 C 3497.27 1.57397 -1.16127 0
M  V30 35709 O 3498.47 2.26555 -1.49616 0
M  V30 35710 C 3496.93 0.673162 -3.53548 0
M  V30 35711 C 3496.54 -0.531198 -4.4484 0
M  V30 35712 C 3498.28 1.25509 -4.05522 0
M  V30 35713 C 3496.19 -0.182421 -5.91119 0
M  V30 35714 H 3495.12 0.134357 -0.741933 0
M  V30 35715 H 3497.77 -0.373277 -1.79663 0
M  V30 35716 H 3496.15 1.45467 -3.68314 0
M  V30 35717 H 3497.33 -1.30817 -4.41841 0
M  V30 35718 H 3495.64 -1.02959 -4.03471 0
M  V30 35719 H 3498.24 1.52975 -5.1235 0
M  V30 35720 H 3498.58 2.18711 -3.54219 0
M  V30 35721 H 3499.11 0.53599 -3.94173 0
M  V30 35722 H 3495.85 -1.08217 -6.46505 0
M  V30 35723 H 3495.37 0.557903 -5.972 0
M  V30 35724 H 3497.05 0.227371 -6.466 0
M  V30 35725 N 3497.18 1.576 0.00329885 0
M  V30 35726 C 3498.41 1.95102 0.703553 0
M  V30 35727 C 3498.83 0.871447 1.66696 0
M  V30 35728 O 3498.19 -0.170707 1.80495 0
M  V30 35729 C 3498.24 3.31699 1.41451 0
M  V30 35730 O 3497.34 3.25769 2.5288 0
M  V30 35731 H 3496.69 0.637011 0.187385 0
M  V30 35732 H 3499.22 2.04542 -0.0489087 0
M  V30 35733 H 3499.23 3.67188 1.77867 0
M  V30 35734 H 3497.9 4.09828 0.70811 0
M  V30 35735 H 3496.48 3.01951 2.18815 0
M  V30 35736 N 3498.66 -0.276003 1.55164 0
M  V30 35737 C 3499.94 -1.0291 1.6634 0
M  V30 35738 C 3500.32 -2.04393 0.527912 0
M  V30 35739 O 3499.67 -2.23564 -0.472398 0
M  V30 35740 C 3499.88 -1.6886 3.0543 0
M  V30 35741 C 3501.23 -2.20134 3.63079 0
M  V30 35742 O 3502.25 -1.78852 3.08043 0
M  V30 35743 O 3501.11 -2.95845 4.59497 0
M  V30 35744 H 3498.2 -0.47717 0.675454 0
M  V30 35745 H 3500.75 -0.2721 1.67504 0
M  V30 35746 H 3499.52 -0.953058 3.79516 0
M  V30 35747 H 3499.14 -2.51254 3.08151 0
M  V30 35748 N 3500.14 -1.48046 -0.540378 0
M  V30 35749 C 3501.09 -1.62224 -1.66692 0
M  V30 35750 C 3502.08 -0.488972 -1.62189 0
M  V30 35751 O 3503.29 -0.667349 -1.67172 0
M  V30 35752 H 3499.66 -0.510838 -0.551859 0
M  V30 35753 H 3501.63 -2.56859 -1.51875 0
M  V30 35754 C 3500.38 -1.66945 -3.04999 0
M  V30 35755 H 3499.71 -2.53504 -3.09153 0
M  V30 35756 H 3501.15 -1.80911 -3.83467 0
M  V30 35757 C 3499.61 -0.406039 -3.34444 0
M  V30 35758 O 3500.14 0.485606 -3.98754 0
M  V30 35759 N 3498.34 -0.280907 -2.89239 0
M  V30 35760 H 3497.89 -1.00745 -2.37083 0
M  V30 35761 H 3497.85 0.563439 -3.0931 0
M  V30 35762 N 3501.62 0.788444 -1.3646 0
M  V30 35763 C 3502.55 1.90772 -1.25225 0
M  V30 35764 C 3503.53 1.62028 -0.136216 0
M  V30 35765 O 3504.71 1.85975 -0.307518 0
M  V30 35766 C 3501.84 3.25615 -0.932345 0
M  V30 35767 C 3500.89 3.73288 -2.06296 0
M  V30 35768 S 3501.72 3.88934 -3.68091 0
M  V30 35769 C 3502.88 5.26651 -3.38215 0
M  V30 35770 H 3503.11 2.0001 -2.19962 0
M  V30 35771 H 3500.64 0.947779 -1.21887 0
M  V30 35772 H 3502.6 4.03505 -0.754585 0
M  V30 35773 H 3501.26 3.141 -0.00273934 0
M  V30 35774 H 3500.45 4.71001 -1.79371 0
M  V30 35775 H 3500.06 3.02451 -2.19999 0
M  V30 35776 H 3502.35 6.11264 -2.92168 0
M  V30 35777 H 3503.29 5.5858 -4.35195 0
M  V30 35778 H 3503.7 4.93798 -2.7354 0
M  V30 35779 N 3503.1 1.20755 1.01271 0
M  V30 35780 C 3504.37 0.929039 1.72129 0
M  V30 35781 C 3504.75 -0.561181 2.03504 0
M  V30 35782 O 3504.1 -1.52392 1.70261 0
M  V30 35783 C 3504.31 1.80608 2.98633 0
M  V30 35784 C 3505.66 2.05026 3.71819 0
M  V30 35785 O 3506.68 1.77893 3.08598 0
M  V30 35786 O 3505.54 2.50872 4.85516 0
M  V30 35787 H 3502.64 0.347703 0.750355 0
M  V30 35788 H 3505.18 1.31648 1.07084 0
M  V30 35789 H 3503.95 2.81499 2.71798 0
M  V30 35790 H 3503.58 1.41896 3.71418 0
M  V30 35791 N 3504.58 -1.20642 1.01406 0
M  V30 35792 C 3505.99 -1.42005 0.728471 0
M  V30 35793 C 3506.19 -1.89213 -0.69286 0
M  V30 35794 O 3505.25 -2.05941 -1.46097 0
M  V30 35795 C 3506.56 -2.44386 1.75203 0
M  V30 35796 C 3508.11 -2.58156 1.76987 0
M  V30 35797 C 3508.58 -3.63777 2.78262 0
M  V30 35798 N 3510.07 -3.71258 2.76987 0
M  V30 35799 C 3510.81 -4.52635 3.52007 0
M  V30 35800 N 3510.31 -5.37837 4.36696 0
M  V30 35801 N 3512.1 -4.47143 3.40616 0
M  V30 35802 H 3504.25 -0.883138 1.93169 0
M  V30 35803 H 3506.51 -0.450173 0.834295 0
M  V30 35804 H 3506.22 -2.16691 2.77016 0
M  V30 35805 H 3506.09 -3.43334 1.56209 0
M  V30 35806 H 3508.48 -2.85183 0.758601 0
M  V30 35807 H 3508.56 -1.59411 2.00054 0
M  V30 35808 H 3508.2 -3.37495 3.79552 0
M  V30 35809 H 3508.13 -4.62139 2.52458 0
M  V30 35810 H 3510.63 -3.10396 2.15552 0
M  V30 35811 H 3510.94 -5.97009 4.90714 0
M  V30 35812 H 3509.28 -5.37347 4.40775 0
M  V30 35813 H 3512.47 -3.79616 2.73878 0
M  V30 35814 H 3512.65 -5.10328 3.99336 0
M  V30 35815 N 3506.05 -0.789968 -1.36372 0
M  V30 35816 C 3507.3 -0.3592 -1.98476 0
M  V30 35817 C 3507.62 1.07514 -1.63402 0
M  V30 35818 O 3508.82 1.6082 -2.18745 0
M  V30 35819 C 3507.28 -0.59129 -3.5501 0
M  V30 35820 C 3506.89 -2.03708 -3.99008 0
M  V30 35821 C 3508.63 -0.225054 -4.23903 0
M  V30 35822 C 3506.54 -2.2158 -5.48321 0
M  V30 35823 H 3505.47 -0.130566 -0.742609 0
M  V30 35824 H 3508.12 -0.971679 -1.55662 0
M  V30 35825 H 3506.5 0.0909092 -3.95896 0
M  V30 35826 H 3507.67 -2.75572 -3.69319 0
M  V30 35827 H 3505.99 -2.36161 -3.42953 0
M  V30 35828 H 3508.59 -0.336858 -5.33638 0
M  V30 35829 H 3508.93 0.826893 -4.08005 0
M  V30 35830 H 3509.46 -0.860511 -3.88381 0
M  V30 35831 H 3506.2 -3.25159 -5.69168 0
M  V30 35832 H 3505.72 -1.54221 -5.79634 0
M  V30 35833 H 3507.4 -2.02321 -6.14553 0
M  V30 35834 N 3507.53 1.47986 -0.542031 0
M  V30 35835 C 3508.95 1.58333 -0.200719 0
M  V30 35836 C 3509.15 1.54258 1.29641 0
M  V30 35837 O 3508.2 1.43798 2.07553 0
M  V30 35838 C 3509.52 2.89475 -0.813929 0
M  V30 35839 C 3511.06 3.03028 -0.783764 0
M  V30 35840 C 3511.54 4.36849 -1.37577 0
M  V30 35841 N 3513.03 4.43446 -1.33827 0
M  V30 35842 C 3513.77 5.45524 -1.76611 0
M  V30 35843 N 3513.26 6.54493 -2.27181 0
M  V30 35844 N 3515.05 5.36478 -1.67774 0
M  V30 35845 H 3507.21 1.48877 -1.5149 0
M  V30 35846 H 3509.47 0.707627 -0.630847 0
M  V30 35847 H 3509.17 2.98148 -1.86549 0
M  V30 35848 H 3509.05 3.76021 -0.298045 0
M  V30 35849 H 3511.44 2.93961 0.259067 0
M  V30 35850 H 3511.52 2.18063 -1.33725 0
M  V30 35851 H 3511.16 4.46671 -2.41759 0
M  V30 35852 H 3511.09 5.20521 -0.797861 0
M  V30 35853 H 3513.58 3.65286 -0.968211 0
M  V30 35854 H 3513.89 7.28536 -2.5779 0
M  V30 35855 H 3512.24 6.55423 -2.31182 0
M  V30 35856 H 3515.43 4.50244 -1.28056 0
M  V30 35857 H 3515.6 6.15895 -2.01437 0
M  V30 35858 N 3509.01 0.277736 1.55133 0
M  V30 35859 C 3509.92 -0.618618 2.26297 0
M  V30 35860 C 3510.94 -1.16791 1.2898 0
M  V30 35861 O 3512.11 -1.19765 1.61921 0
M  V30 35862 C 3509.18 -1.78503 2.97217 0
M  V30 35863 C 3508.24 -1.27214 4.10018 0
M  V30 35864 C 3507.47 -2.38295 4.77547 0
M  V30 35865 O 3507.69 -3.57707 4.44299 0
M  V30 35866 O 3506.63 -2.06303 5.6544 0
M  V30 35867 H 3510.45 -0.0420497 3.03671 0
M  V30 35868 H 3508.04 0.0450429 1.49332 0
M  V30 35869 H 3509.92 -2.46507 3.41778 0
M  V30 35870 H 3508.6 -2.34863 2.22757 0
M  V30 35871 H 3507.5 -0.558479 3.69908 0
M  V30 35872 H 3508.84 -0.754248 4.86387 0
M  V30 35873 N 3510.49 -1.57599 0.00505908 0
M  V30 35874 C 3511.42 -2.11775 -0.983548 0
M  V30 35875 C 3512.4 -1.02808 -1.35516 0
M  V30 35876 O 3513.58 -1.30517 -1.43802 0
M  V30 35877 C 3510.71 -2.62519 -2.27378 0
M  V30 35878 C 3509.67 -3.76058 -2.04364 0
M  V30 35879 C 3508.99 -4.13136 -3.39444 0
M  V30 35880 C 3510.29 -5.03127 -1.40215 0
M  V30 35881 H 3511.99 -2.94627 -0.53245 0
M  V30 35882 H 3509.53 -1.4173 -0.254671 0
M  V30 35883 H 3511.49 -2.99048 -2.96898 0
M  V30 35884 H 3510.21 -1.76795 -2.74611 0
M  V30 35885 H 3508.87 -3.39931 -1.37269 0
M  V30 35886 H 3508.52 -3.24429 -3.84389 0
M  V30 35887 H 3508.22 -4.89633 -3.24859 0
M  V30 35888 H 3509.74 -4.52228 -4.10271 0
M  V30 35889 H 3511.16 -5.37395 -1.99698 0
M  V30 35890 H 3509.55 -5.84462 -1.36102 0
M  V30 35891 H 3510.62 -4.83471 -0.371988 0
M  V30 35892 N 3511.97 0.267771 -1.55309 0
M  V30 35893 C 3513.21 0.996484 -1.75366 0
M  V30 35894 C 3513.53 1.8726 -0.56506 0
M  V30 35895 O 3514.73 2.6365 -0.648165 0
M  V30 35896 C 3513.19 1.82169 -3.10391 0
M  V30 35897 C 3512.8 0.993985 -4.36834 0
M  V30 35898 C 3514.54 2.54439 -3.39795 0
M  V30 35899 C 3512.45 1.81388 -5.62896 0
M  V30 35900 H 3511.38 0.375781 -0.653685 0
M  V30 35901 H 3514.03 0.251943 -1.81762 0
M  V30 35902 H 3512.41 2.60739 -2.98046 0
M  V30 35903 H 3513.59 0.252086 -4.6011 0
M  V30 35904 H 3511.9 0.385589 -4.14611 0
M  V30 35905 H 3514.5 3.16196 -4.3119 0
M  V30 35906 H 3514.84 3.24992 -2.60165 0
M  V30 35907 H 3515.37 1.82896 -3.53262 0
M  V30 35908 H 3512.11 1.15247 -6.45289 0
M  V30 35909 H 3511.63 2.53161 -5.43755 0
M  V30 35910 H 3513.31 2.38623 -6.01388 0
M  V30 35911 N 3513.44 1.48331 0.532519 0
M  V30 35912 C 3514.38 1.58749 1.65322 0
M  V30 35913 C 3515.39 0.471952 1.55809 0
M  V30 35914 O 3516.58 0.742685 1.62316 0
M  V30 35915 C 3513.68 1.49883 3.03955 0
M  V30 35916 C 3512.85 2.76433 3.38975 0
M  V30 35917 C 3511.91 2.61056 4.56877 0
M  V30 35918 O 3510.94 3.34936 4.60224 0
M  V30 35919 N 3512.14 1.70506 5.54895 0
M  V30 35920 H 3514.9 2.55395 1.56822 0
M  V30 35921 H 3512.46 1.45022 0.719734 0
M  V30 35922 H 3514.46 1.37294 3.807 0
M  V30 35923 H 3513.03 0.612211 3.06546 0
M  V30 35924 H 3512.25 3.03604 2.51433 0
M  V30 35925 H 3513.53 3.60395 3.59156 0
M  V30 35926 H 3512.93 1.0968 5.54966 0
M  V30 35927 H 3511.49 1.63858 6.30868 0
M  V30 35928 N 3514.92 -0.781196 1.36876 0
M  V30 35929 C 3515.85 -1.90302 1.27742 0
M  V30 35930 C 3516.87 -1.61626 0.195175 0
M  V30 35931 O 3518.06 -1.7272 0.450561 0
M  V30 35932 C 3515.16 -3.25308 0.95016 0
M  V30 35933 C 3514.33 -3.81701 2.13596 0
M  V30 35934 C 3513.39 -4.95163 1.78046 0
M  V30 35935 O 3512.41 -5.11246 2.50232 0
M  V30 35936 N 3513.62 -5.7603 0.718987 0
M  V30 35937 H 3516.38 -1.98657 2.24401 0
M  V30 35938 H 3513.94 -0.95986 1.30378 0
M  V30 35939 H 3515.93 -3.98716 0.693356 0
M  V30 35940 H 3514.5 -3.12516 0.0724398 0
M  V30 35941 H 3513.72 -3.00182 2.55508 0
M  V30 35942 H 3515.01 -4.16109 2.92798 0
M  V30 35943 H 3514.41 -5.65573 0.11978 0
M  V30 35944 H 3512.97 -6.49706 0.522024 0
M  V30 35945 N 3516.4 -1.21291 -1.0063 0
M  V30 35946 C 3517.36 -0.972585 -2.07541 0
M  V30 35947 C 3518.36 0.0558961 -1.60703 0
M  V30 35948 O 3519.55 -0.181243 -1.73255 0
M  V30 35949 C 3516.68 -0.466356 -3.37695 0
M  V30 35950 H 3517.88 -1.92105 -2.30295 0
M  V30 35951 H 3515.43 -1.02972 -1.17586 0
M  V30 35952 H 3516.17 0.487091 -3.20621 0
M  V30 35953 H 3515.95 -1.2082 -3.73021 0
M  V30 35954 H 3517.44 -0.318035 -4.16387 0
M  V30 35955 N 3517.88 1.20103 -1.02045 0
M  V30 35956 C 3519.29 1.41617 -0.735992 0
M  V30 35957 C 3519.49 1.89578 0.682816 0
M  V30 35958 O 3518.55 2.06713 1.45003 0
M  V30 35959 C 3519.86 2.43453 -1.76496 0
M  V30 35960 C 3521.41 2.57214 -1.78354 0
M  V30 35961 C 3521.89 3.62297 -2.80188 0
M  V30 35962 N 3523.38 3.69784 -2.78952 0
M  V30 35963 C 3524.11 4.50762 -3.54403 0
M  V30 35964 N 3523.61 5.35513 -4.39542 0
M  V30 35965 N 3525.4 4.45331 -3.42982 0
M  V30 35966 H 3517.55 0.872882 -1.93635 0
M  V30 35967 H 3519.81 0.445742 -0.836671 0
M  V30 35968 H 3519.52 2.15218 -2.78162 0
M  V30 35969 H 3519.39 3.42501 -1.58028 0
M  V30 35970 H 3521.78 2.84777 -0.773715 0
M  V30 35971 H 3521.86 1.58348 -2.00897 0
M  V30 35972 H 3521.51 3.35477 -3.81337 0
M  V30 35973 H 3521.44 4.60793 -2.54906 0
M  V30 35974 H 3523.93 3.09249 -2.17195 0
M  V30 35975 H 3524.24 5.94398 -4.93873 0
M  V30 35976 H 3522.59 5.35002 -4.43619 0
M  V30 35977 H 3525.78 3.78158 -2.75888 0
M  V30 35978 H 3525.95 5.08203 -4.02037 0
M  V30 35979 N 3519.36 0.797189 1.35951 0
M  V30 35980 C 3520.63 0.296834 1.93335 0
M  V30 35981 C 3521.01 -1.21219 1.72827 0
M  V30 35982 O 3520.36 -2.00731 1.09176 0
M  V30 35983 C 3520.57 0.697954 3.4195 0
M  V30 35984 C 3521.92 0.6821 4.19085 0
M  V30 35985 O 3522.94 0.63891 3.50423 0
M  V30 35986 O 3521.8 0.731985 5.41576 0
M  V30 35987 H 3518.9 0.0754368 0.823552 0
M  V30 35988 H 3521.44 0.880255 1.45085 0
M  V30 35989 H 3520.21 1.73838 3.50565 0
M  V30 35990 H 3519.84 0.0888338 3.97501 0
M  V30 35991 N 3520.83 -1.47696 0.549872 0
M  V30 35992 C 3521.8 -2.284 -0.191386 0
M  V30 35993 C 3522.8 -1.36528 -0.849509 0
M  V30 35994 O 3523.99 -1.5923 -0.706498 0
M  V30 35995 C 3521.12 -3.15997 -1.27902 0
M  V30 35996 H 3522.31 -2.95403 0.517427 0
M  V30 35997 H 3519.87 -1.53265 0.306537 0
M  V30 35998 H 3520.6 -2.53669 -2.02046 0
M  V30 35999 H 3520.39 -3.836 -0.811999 0
M  V30 36000 H 3521.88 -3.76822 -1.79985 0
M  V30 36001 N 3522.31 -0.285959 -1.54984 0
M  V30 36002 C 3523.28 0.583785 -2.21641 0
M  V30 36003 C 3524.28 1.07298 -1.19766 0
M  V30 36004 O 3525.47 0.971413 -1.446 0
M  V30 36005 C 3522.6 1.8066 -2.89093 0
M  V30 36006 H 3523.79 0.00162838 -2.999 0
M  V30 36007 H 3521.34 -0.03666 -1.56257 0
M  V30 36008 H 3522.08 2.42899 -2.14874 0
M  V30 36009 H 3521.86 1.46363 -3.63758 0
M  V30 36010 H 3523.35 2.42485 -3.39987 0
M  V30 36011 N 3523.79 1.57594 -0.0134169 0
M  V30 36012 C 3525.02 1.95837 0.68282 0
M  V30 36013 C 3525.44 0.889078 1.65762 0
M  V30 36014 O 3524.8 -0.151553 1.80665 0
M  V30 36015 C 3524.85 3.3318 1.37925 0
M  V30 36016 O 3523.95 3.28433 2.4941 0
M  V30 36017 H 3523.29 0.638963 0.180618 0
M  V30 36018 H 3525.82 2.04478 -0.0706003 0
M  V30 36019 H 3525.83 3.69054 1.73963 0
M  V30 36020 H 3524.51 4.10556 0.664602 0
M  V30 36021 H 3523.08 3.04255 2.156 0
M  V30 36022 N 3525.27 -0.259531 1.55448 0
M  V30 36023 C 3526.22 -1.3211 1.8925 0
M  V30 36024 C 3527.19 -1.48436 0.745374 0
M  V30 36025 O 3528.37 -1.62625 0.997883 0
M  V30 36026 C 3525.51 -2.6739 2.18166 0
M  V30 36027 C 3524.62 -2.59176 3.45618 0
M  V30 36028 C 3523.76 -3.86725 3.64167 0
M  V30 36029 C 3522.8 -3.73075 4.85264 0
M  V30 36030 N 3521.93 -4.92488 5.004 0
M  V30 36031 H 3526.77 -1.02584 2.79787 0
M  V30 36032 H 3524.31 -0.495314 1.3851 0
M  V30 36033 H 3526.27 -3.46118 2.32933 0
M  V30 36034 H 3524.9 -2.95091 1.30848 0
M  V30 36035 H 3523.95 -1.72085 3.39251 0
M  V30 36036 H 3525.26 -2.44995 4.34487 0
M  V30 36037 H 3524.42 -4.73895 3.78825 0
M  V30 36038 H 3523.16 -4.03788 2.73508 0
M  V30 36039 H 3522.16 -2.84288 4.70596 0
M  V30 36040 H 3523.39 -3.57518 5.77371 0
M  V30 36041 H 3521.33 -5.09937 4.12675 0
M  V30 36042 H 3521.25 -4.8089 5.83336 0
M  V30 36043 H 3522.52 -5.81193 5.19457 0
M  V30 36044 N 3526.75 -1.48611 -0.524645 0
M  V30 36045 C 3527.99 -1.57132 -1.28208 0
M  V30 36046 C 3528.33 -0.246785 -1.92626 0
M  V30 36047 O 3527.6 0.747694 -1.79554 0
M  V30 36048 C 3527.88 -2.71348 -2.36733 0
M  V30 36049 C 3527.74 -4.13523 -1.76971 0
M  V30 36050 C 3529.06 -2.813 -3.38465 0
M  V30 36051 H 3526.17 -0.571969 -0.46478 0
M  V30 36052 H 3528.82 -1.80805 -0.583905 0
M  V30 36053 H 3526.97 -2.51294 -2.96283 0
M  V30 36054 H 3528.64 -4.45031 -1.2143 0
M  V30 36055 H 3526.88 -4.20274 -1.07481 0
M  V30 36056 H 3527.55 -4.89271 -2.55575 0
M  V30 36057 H 3530.03 -2.99482 -2.88876 0
M  V30 36058 H 3528.9 -3.62935 -4.11788 0
M  V30 36059 H 3529.17 -1.89676 -3.99344 0
M  V30 36060 N 3528.22 0.773926 -1.37289 0
M  V30 36061 C 3529.19 1.86876 -1.32703 0
M  V30 36062 C 3530.19 1.59125 -0.231514 0
M  V30 36063 O 3531.38 1.67247 -0.487232 0
M  V30 36064 C 3528.51 3.2397 -1.06096 0
M  V30 36065 H 3529.7 1.92355 -2.30086 0
M  V30 36066 H 3527.26 0.973438 -1.22286 0
M  V30 36067 H 3527.99 3.24168 -0.0923438 0
M  V30 36068 H 3527.78 3.45504 -1.85389 0
M  V30 36069 H 3529.27 4.04046 -1.05531 0
M  V30 36070 N 3529.7 1.21823 0.99985 0
M  V30 36071 C 3530.95 1.04012 1.74096 0
M  V30 36072 C 3531.28 -0.424683 1.895 0
M  V30 36073 O 3530.56 -1.31503 1.43308 0
M  V30 36074 C 3530.84 1.74388 3.15057 0
M  V30 36075 C 3530.69 3.28419 3.07345 0
M  V30 36076 C 3532.01 1.49062 4.14088 0
M  V30 36077 H 3529.13 0.379256 0.631928 0
M  V30 36078 H 3531.77 1.50068 1.16531 0
M  V30 36079 H 3529.92 1.35234 3.64203 0
M  V30 36080 H 3531.59 3.76974 2.65873 0
M  V30 36081 H 3529.84 3.58456 2.44319 0
M  V30 36082 H 3530.51 3.72832 4.07063 0
M  V30 36083 H 3532.98 1.8306 3.73669 0
M  V30 36084 H 3531.86 2.00809 5.10849 0
M  V30 36085 H 3532.12 0.421718 4.40084 0
M  V30 36086 N 3531.18 -1.1956 1.0268 0
M  V30 36087 C 3532.59 -1.70883 0.752057 0
M  V30 36088 C 3532.94 -1.82174 -0.728491 0
M  V30 36089 O 3532.07 -1.49143 -1.56797 0
M  V30 36090 C 3532.66 -3.1037 1.35854 0
M  V30 36091 C 3531.22 -3.58961 1.13243 0
M  V30 36092 C 3530.37 -2.35883 1.45789 0
M  V30 36093 H 3533.32 -1.0443 1.19499 0
M  V30 36094 H 3533.34 -3.72946 0.754413 0
M  V30 36095 H 3532.85 -3.02119 2.43609 0
M  V30 36096 H 3530.95 -3.72528 0.0729926 0
M  V30 36097 H 3531.07 -4.43198 1.81967 0
M  V30 36098 H 3529.43 -2.39119 0.877167 0
M  V30 36099 H 3530.21 -2.30265 2.54623 0
M  V30 36100 N 3532.66 -0.804387 -1.35526 0
M  V30 36101 C 3533.59 -0.158807 -2.27647 0
M  V30 36102 C 3534.57 0.673916 -1.47977 0
M  V30 36103 O 3535.75 0.641672 -1.77242 0
M  V30 36104 C 3532.88 0.779915 -3.29598 0
M  V30 36105 C 3531.93 0.0270926 -4.26491 0
M  V30 36106 S 3532.76 -1.30745 -5.19294 0
M  V30 36107 C 3533.92 -0.373113 -6.24787 0
M  V30 36108 H 3534.15 -0.939855 -2.82053 0
M  V30 36109 H 3531.68 -0.599338 -1.42293 0
M  V30 36110 H 3533.64 1.31602 -3.88833 0
M  V30 36111 H 3532.3 1.53433 -2.74075 0
M  V30 36112 H 3531.49 0.739971 -4.98538 0
M  V30 36113 H 3531.1 -0.438988 -3.71415 0
M  V30 36114 H 3533.39 0.442447 -6.76054 0
M  V30 36115 H 3534.33 -1.06271 -7.0008 0
M  V30 36116 H 3534.74 0.0302139 -5.64492 0
M  V30 36117 N 3534.14 1.47403 -0.557697 0
M  V30 36118 C 3535.55 1.58111 -0.217501 0
M  V30 36119 C 3535.75 1.55624 1.27997 0
M  V30 36120 O 3534.81 1.45991 2.06016 0
M  V30 36121 C 3536.12 2.88595 -0.844586 0
M  V30 36122 C 3537.67 3.0218 -0.81586 0
M  V30 36123 C 3538.15 4.35365 -1.42202 0
M  V30 36124 N 3539.64 4.42002 -1.38523 0
M  V30 36125 C 3540.37 5.4362 -1.82387 0
M  V30 36126 N 3539.87 6.52046 -2.3411 0
M  V30 36127 N 3541.66 5.34668 -1.73455 0
M  V30 36128 H 3533.81 1.47262 -1.53061 0
M  V30 36129 H 3536.07 0.700896 -0.638317 0
M  V30 36130 H 3535.78 2.96153 -1.89701 0
M  V30 36131 H 3535.65 3.75683 -0.33791 0
M  V30 36132 H 3538.04 2.94219 0.227874 0
M  V30 36133 H 3538.12 2.16632 -1.3603 0
M  V30 36134 H 3537.77 4.44082 -2.46483 0
M  V30 36135 H 3537.7 5.19645 -0.853024 0
M  V30 36136 H 3540.19 3.64239 -1.0069 0
M  V30 36137 H 3540.5 7.25761 -2.65502 0
M  V30 36138 H 3538.85 6.52935 -2.38121 0
M  V30 36139 H 3542.04 4.4886 -1.32824 0
M  V30 36140 H 3542.21 6.13724 -2.07958 0
M  V30 36141 N 3535.62 0.294175 1.5483 0
M  V30 36142 C 3536.86 -0.3171 2.00002 0
M  V30 36143 C 3537.19 -1.54419 1.18259 0
M  V30 36144 O 3536.45 -1.94159 0.245069 0
M  V30 36145 C 3536.74 -0.724888 3.49972 0
M  V30 36146 C 3536.41 0.399695 4.49125 0
M  V30 36147 C 3535.07 0.708438 4.75957 0
M  V30 36148 C 3537.42 1.15653 5.08206 0
M  V30 36149 C 3534.75 1.77726 5.59134 0
M  V30 36150 C 3537.1 2.21522 5.92546 0
M  V30 36151 C 3535.77 2.5301 6.17691 0
M  V30 36152 H 3535.04 -0.116035 0.731858 0
M  V30 36153 H 3537.69 0.411853 1.87019 0
M  V30 36154 H 3535.99 -1.53382 3.60529 0
M  V30 36155 H 3537.69 -1.20892 3.82343 0
M  V30 36156 H 3534.28 0.148953 4.28341 0
M  V30 36157 H 3538.46 0.931264 4.87485 0
M  V30 36158 H 3533.72 2.02603 5.76855 0
M  V30 36159 H 3537.89 2.80629 6.37354 0
M  V30 36160 H 3535.52 3.35963 6.81933 0
M  V30 36161 N 3537.09 -1.57585 0.0217743 0
M  V30 36162 C 3538.04 -2.1092 -0.980587 0
M  V30 36163 C 3539.04 -1.03408 -1.34176 0
M  V30 36164 O 3540.24 -1.21851 -1.32485 0
M  V30 36165 H 3536.62 -0.67377 -0.333973 0
M  V30 36166 H 3538.59 -2.94089 -0.505379 0
M  V30 36167 C 3537.34 -2.64546 -2.25635 0
M  V30 36168 H 3536.66 -3.46918 -1.98716 0
M  V30 36169 H 3538.1 -3.05518 -2.93997 0
M  V30 36170 C 3536.56 -1.5695 -2.98108 0
M  V30 36171 O 3537.09 -0.965044 -3.89936 0
M  V30 36172 N 3535.29 -1.29171 -2.60314 0
M  V30 36173 H 3534.84 -1.78511 -1.85719 0
M  V30 36174 H 3534.8 -0.574041 -3.09115 0
M  V30 36175 N 3538.57 0.251283 -1.55584 0
M  V30 36176 C 3539.82 0.978 -1.7686 0
M  V30 36177 C 3540.14 1.8602 -0.584957 0
M  V30 36178 O 3539.41 1.91785 0.399422 0
M  V30 36179 H 3537.99 0.364099 -0.652258 0
M  V30 36180 H 3540.65 0.270285 -1.93017 0
M  V30 36181 H 3539.75 1.60228 -2.67831 0
M  V30 36182 N 3540.05 1.48887 0.516757 0
M  V30 36183 C 3541 1.64392 1.62 0
M  V30 36184 C 3541.97 0.485661 1.58841 0
M  V30 36185 O 3543.15 0.710773 1.77067 0
M  V30 36186 C 3540.29 1.70192 3.00215 0
M  V30 36187 C 3539.4 2.97215 3.13508 0
M  V30 36188 C 3538.54 2.94092 4.42361 0
M  V30 36189 C 3537.58 4.15762 4.49231 0
M  V30 36190 N 3536.72 4.10641 5.6949 0
M  V30 36191 H 3541.56 2.586 1.48089 0
M  V30 36192 H 3539.09 1.28232 0.720766 0
M  V30 36193 H 3541.05 1.71536 3.80304 0
M  V30 36194 H 3539.68 0.794633 3.12866 0
M  V30 36195 H 3538.73 3.05555 2.26584 0
M  V30 36196 H 3540.04 3.87203 3.14444 0
M  V30 36197 H 3539.2 2.93911 5.30755 0
M  V30 36198 H 3537.94 2.01855 4.43966 0
M  V30 36199 H 3536.94 4.16204 3.59241 0
M  V30 36200 H 3538.17 5.09174 4.49354 0
M  V30 36201 H 3536.11 3.21232 5.71967 0
M  V30 36202 H 3536.03 4.94347 5.71976 0
M  V30 36203 H 3537.3 4.14539 6.60135 0
M  V30 36204 N 3541.53 -0.766635 1.37697 0
M  V30 36205 C 3542.75 -1.56091 1.36566 0
M  V30 36206 C 3543.18 -1.88045 -0.0455497 0
M  V30 36207 O 3542.54 -1.49611 -1.02402 0
M  V30 36208 C 3542.58 -2.84477 2.21597 0
M  V30 36209 O 3541.69 -3.79073 1.62411 0
M  V30 36210 H 3541.03 -0.472615 0.466402 0
M  V30 36211 H 3543.56 -0.948454 1.81288 0
M  V30 36212 H 3543.57 -3.3353 2.34993 0
M  V30 36213 H 3542.24 -2.60548 3.24172 0
M  V30 36214 H 3540.82 -3.37733 1.58084 0
M  V30 36215 N 3543.01 -1.22351 -0.993375 0
M  V30 36216 C 3544.25 -1.04571 -1.72943 0
M  V30 36217 C 3544.57 0.420145 -1.9042 0
M  V30 36218 O 3543.84 1.30225 -1.4635 0
M  V30 36219 H 3542.42 -0.383956 -0.64077 0
M  V30 36220 H 3545.09 -1.53855 -1.19644 0
M  V30 36221 H 3544.18 -1.52316 -2.72408 0
M  V30 36222 N 3544.48 1.19014 -1.03313 0
M  V30 36223 C 3545.73 1.89084 -0.733157 0
M  V30 36224 C 3546.06 1.79683 0.736719 0
M  V30 36225 O 3545.34 1.19204 1.5369 0
M  V30 36226 C 3545.62 3.39857 -1.19034 0
M  V30 36227 C 3545.47 3.58107 -2.72175 0
M  V30 36228 C 3546.79 4.33232 -0.774459 0
M  V30 36229 H 3543.91 0.686619 -0.267812 0
M  V30 36230 H 3546.55 1.40066 -1.2838 0
M  V30 36231 H 3544.7 3.81735 -0.721866 0
M  V30 36232 H 3546.38 3.25373 -3.27002 0
M  V30 36233 H 3544.62 3.01017 -3.12364 0
M  V30 36234 H 3545.29 4.63865 -2.99221 0
M  V30 36235 H 3547.77 3.99093 -1.17746 0
M  V30 36236 H 3546.64 5.37306 -1.12219 0
M  V30 36237 H 3546.9 4.40919 0.322911 0
M  V30 36238 N 3545.96 0.811563 1.35098 0
M  V30 36239 C 3546.87 0.227091 2.33498 0
M  V30 36240 C 3547.89 -0.632534 1.62096 0
M  V30 36241 O 3549.06 -0.543113 1.93939 0
M  V30 36242 C 3546.13 -0.610627 3.4128 0
M  V30 36243 C 3545.19 0.27007 4.2845 0
M  V30 36244 C 3544.42 -0.527761 5.31084 0
M  V30 36245 O 3544.65 -1.76204 5.42502 0
M  V30 36246 O 3543.58 0.0839678 6.01841 0
M  V30 36247 H 3547.41 1.04124 2.85293 0
M  V30 36248 H 3544.99 0.573456 1.37956 0
M  V30 36249 H 3546.87 -1.08761 4.07123 0
M  V30 36250 H 3545.55 -1.40229 2.91749 0
M  V30 36251 H 3544.45 0.794298 3.6557 0
M  V30 36252 H 3545.79 1.0258 4.81392 0
M  V30 36253 N 3547.44 -1.47105 0.565506 0
M  V30 36254 C 3548.69 -2.02751 0.0446271 0
M  V30 36255 C 3549.02 -1.43804 -1.30515 0
M  V30 36256 O 3548.29 -0.596679 -1.85122 0
M  V30 36257 C 3548.58 -3.60078 -0.0395841 0
M  V30 36258 C 3548.43 -4.29443 1.33787 0
M  V30 36259 C 3549.75 -4.33682 -0.748877 0
M  V30 36260 H 3546.87 -0.736788 0.0176916 0
M  V30 36261 H 3549.51 -1.75442 0.729394 0
M  V30 36262 H 3547.66 -3.83476 -0.622759 0
M  V30 36263 H 3549.33 -4.17361 1.96489 0
M  V30 36264 H 3547.57 -3.89473 1.91031 0
M  V30 36265 H 3548.25 -5.38085 1.23159 0
M  V30 36266 H 3550.72 -4.15326 -0.253634 0
M  V30 36267 H 3549.6 -5.43376 -0.776782 0
M  V30 36268 H 3549.86 -4.03497 -1.80672 0
M  V30 36269 N 3548.92 -0.302382 -1.54672 0
M  V30 36270 C 3550.33 0.0509619 -1.59519 0
M  V30 36271 C 3550.53 1.52302 -1.31933 0
M  V30 36272 O 3549.59 2.27597 -1.09342 0
M  V30 36273 C 3550.9 -0.34822 -2.98677 0
M  V30 36274 C 3552.45 -0.297101 -3.11587 0
M  V30 36275 C 3552.93 -0.671126 -4.53056 0
M  V30 36276 N 3554.42 -0.623714 -4.58982 0
M  V30 36277 C 3555.15 -0.885576 -5.6652 0
M  V30 36278 N 3554.65 -1.21348 -6.8209 0
M  V30 36279 N 3556.44 -0.812545 -5.56196 0
M  V30 36280 H 3548.59 -1.26173 -1.70863 0
M  V30 36281 H 3550.86 -0.511622 -0.79809 0
M  V30 36282 H 3550.56 -1.37303 -3.23791 0
M  V30 36283 H 3550.44 0.297439 -3.76025 0
M  V30 36284 H 3552.82 0.718464 -2.8622 0
M  V30 36285 H 3552.9 -0.977402 -2.36391 0
M  V30 36286 H 3552.55 -1.68451 -4.79152 0
M  V30 36287 H 3552.48 0.0312611 -5.26591 0
M  V30 36288 H 3554.97 -0.381269 -3.75972 0
M  V30 36289 H 3555.28 -1.39923 -7.60027 0
M  V30 36290 H 3553.63 -1.25153 -6.83639 0
M  V30 36291 H 3556.82 -0.556021 -4.64786 0
M  V30 36292 H 3556.99 -1.01999 -6.39922 0
M  V30 36293 N 3550.4 1.57571 -0.0301311 0
M  V30 36294 C 3551.33 2.13313 0.949732 0
M  V30 36295 C 3552.31 1.04951 1.33863 0
M  V30 36296 O 3553.49 1.32788 1.41707 0
M  V30 36297 C 3550.62 2.66103 2.23173 0
M  V30 36298 C 3549.58 3.79262 1.98355 0
M  V30 36299 C 3548.9 4.18484 3.32829 0
M  V30 36300 C 3550.2 5.05294 1.32193 0
M  V30 36301 H 3551.9 2.95437 0.48551 0
M  V30 36302 H 3549.44 1.42117 0.232091 0
M  V30 36303 H 3551.4 3.03734 2.92103 0
M  V30 36304 H 3550.12 1.81142 2.71763 0
M  V30 36305 H 3548.78 3.42071 1.31843 0
M  V30 36306 H 3548.43 3.30503 3.79179 0
M  V30 36307 H 3548.13 4.94739 3.17028 0
M  V30 36308 H 3549.65 4.58698 4.03024 0
M  V30 36309 H 3551.06 5.40504 1.91123 0
M  V30 36310 H 3549.46 5.86554 1.26787 0
M  V30 36311 H 3550.53 4.84002 0.295025 0
M  V30 36312 N 3551.87 -0.243029 1.55715 0
M  V30 36313 C 3553.29 -0.811784 1.68128 0
M  V30 36314 C 3553.64 -1.85868 0.628292 0
M  V30 36315 O 3552.76 -2.1523 -0.22471 0
M  V30 36316 C 3553.36 -1.47922 3.04802 0
M  V30 36317 C 3551.92 -1.99563 3.19142 0
M  V30 36318 C 3551.06 -0.848103 2.64012 0
M  V30 36319 H 3554.01 -0.0187639 1.58689 0
M  V30 36320 H 3554.03 -2.34738 2.99463 0
M  V30 36321 H 3553.55 -0.717039 3.81419 0
M  V30 36322 H 3551.65 -2.7865 2.47355 0
M  V30 36323 H 3551.76 -2.19036 4.26099 0
M  V30 36324 H 3550.12 -1.24966 2.21936 0
M  V30 36325 H 3550.91 -0.0989384 3.43157 0
M  V30 36326 N 3553.35 -1.49159 -0.508854 0
M  V30 36327 C 3554.3 -1.65723 -1.63213 0
M  V30 36328 C 3555.29 -0.523265 -1.61116 0
M  V30 36329 O 3556.5 -0.702658 -1.65719 0
M  V30 36330 H 3552.88 -0.522429 -0.5409 0
M  V30 36331 H 3554.85 -2.60023 -1.46392 0
M  V30 36332 C 3553.6 -1.73377 -3.0139 0
M  V30 36333 H 3552.92 -2.60005 -3.03706 0
M  V30 36334 H 3554.36 -1.89004 -3.79544 0
M  V30 36335 C 3552.82 -0.476888 -3.33508 0
M  V30 36336 O 3553.35 0.400915 -3.99694 0
M  V30 36337 N 3551.55 -0.342196 -2.88578 0
M  V30 36338 H 3551.1 -1.05751 -2.34892 0
M  V30 36339 H 3551.06 0.497703 -3.10436 0
M  V30 36340 N 3554.83 0.759322 -1.38102 0
M  V30 36341 C 3556.11 1.50845 -1.2452 0
M  V30 36342 C 3556.49 2.10524 0.155892 0
M  V30 36343 O 3555.84 1.96581 1.16482 0
M  V30 36344 C 3556.05 2.57941 -2.35091 0
M  V30 36345 C 3557.39 3.25002 -2.73238 0
M  V30 36346 O 3558.42 2.68242 -2.3436 0
M  V30 36347 O 3557.28 4.2765 -3.40261 0
M  V30 36348 H 3554.37 0.668684 -0.486611 0
M  V30 36349 H 3556.92 0.795223 -1.49914 0
M  V30 36350 H 3555.69 2.1205 -3.28862 0
M  V30 36351 H 3555.31 3.36851 -2.11228 0
M  V30 36352 N 3556.31 1.22876 0.986873 0
M  V30 36353 C 3557.24 1.02854 2.09627 0
M  V30 36354 C 3558.22 -0.0524819 1.70019 0
M  V30 36355 O 3559.4 0.110908 1.93883 0
M  V30 36356 C 3556.53 0.612 3.41865 0
M  V30 36357 C 3555.49 1.63963 3.95348 0
M  V30 36358 C 3554.81 1.07874 5.23705 0
M  V30 36359 C 3556.11 3.0311 4.25349 0
M  V30 36360 H 3557.81 1.95645 2.26635 0
M  V30 36361 H 3555.35 0.942067 1.08909 0
M  V30 36362 H 3557.31 0.45901 4.18893 0
M  V30 36363 H 3556.03 -0.351583 3.24702 0
M  V30 36364 H 3554.69 1.7805 3.20458 0
M  V30 36365 H 3554.34 0.106334 5.02888 0
M  V30 36366 H 3554.04 1.76532 5.60455 0
M  V30 36367 H 3555.56 0.937466 6.03361 0
M  V30 36368 H 3556.98 2.92362 4.93151 0
M  V30 36369 H 3555.37 3.68946 4.73285 0
M  V30 36370 H 3556.44 3.52589 3.3288 0
M  V30 36371 N 3557.79 -1.18464 1.03942 0
M  V30 36372 C 3558.7 -2.25708 0.639753 0
M  V30 36373 C 3559.71 -1.70776 -0.333401 0
M  V30 36374 O 3560.89 -2.00515 -0.188641 0
M  V30 36375 C 3557.95 -3.46699 0.00761994 0
M  V30 36376 C 3557.01 -4.1677 1.02962 0
M  V30 36377 C 3556.25 -5.31985 0.427557 0
M  V30 36378 O 3556.47 -5.65225 -0.766585 0
M  V30 36379 O 3555.4 -5.90702 1.15564 0
M  V30 36380 H 3559.23 -2.62158 1.5332 0
M  V30 36381 H 3556.82 -1.25522 0.810228 0
M  V30 36382 H 3558.7 -4.19991 -0.34433 0
M  V30 36383 H 3557.37 -3.12076 -0.859672 0
M  V30 36384 H 3556.28 -3.45552 1.43334 0
M  V30 36385 H 3557.61 -4.5539 1.86764 0
M  V30 36386 N 3559.26 -0.818716 -1.34665 0
M  V30 36387 C 3560.54 -0.327555 -1.92838 0
M  V30 36388 C 3560.92 1.18454 -1.74734 0
M  V30 36389 O 3560.27 1.98969 -1.12355 0
M  V30 36390 C 3560.48 -0.752267 -3.40796 0
M  V30 36391 C 3561.83 -0.748686 -4.17947 0
M  V30 36392 O 3562.85 -0.694579 -3.49362 0
M  V30 36393 O 3561.71 -0.818053 -5.40343 0
M  V30 36394 H 3558.8 -0.0885292 -0.822248 0
M  V30 36395 H 3561.35 -0.903226 -1.43666 0
M  V30 36396 H 3560.12 -1.79393 -3.47756 0
M  V30 36397 H 3559.75 -0.152062 -3.97309 0
M  V30 36398 N 3560.74 1.46803 -0.573299 0
M  V30 36399 C 3561.67 2.32996 0.153275 0
M  V30 36400 C 3562.65 1.44775 0.892988 0
M  V30 36401 O 3563.84 1.73607 0.870298 0
M  V30 36402 C 3560.97 3.26872 1.17354 0
M  V30 36403 C 3559.92 4.24461 0.549272 0
M  V30 36404 C 3559.25 5.07776 1.67533 0
M  V30 36405 C 3560.55 5.19829 -0.507451 0
M  V30 36406 H 3562.24 2.93994 -0.566356 0
M  V30 36407 H 3559.79 1.41373 -0.27381 0
M  V30 36408 H 3561.74 3.86022 1.69013 0
M  V30 36409 H 3560.47 2.63962 1.92333 0
M  V30 36410 H 3559.12 3.6656 0.0538498 0
M  V30 36411 H 3558.77 4.41258 2.41455 0
M  V30 36412 H 3558.47 5.73859 1.26333 0
M  V30 36413 H 3560 5.69788 2.19486 0
M  V30 36414 H 3561.41 5.73249 -0.0763069 0
M  V30 36415 H 3559.81 5.94203 -0.839243 0
M  V30 36416 H 3560.88 4.64331 -1.39731 0
M  V30 36417 N 3562.22 0.31058 1.54509 0
M  V30 36418 C 3563.17 -0.561238 2.23872 0
M  V30 36419 C 3564.14 -1.12199 1.22477 0
M  V30 36420 O 3565.32 -1.16475 1.51124 0
M  V30 36421 C 3562.46 -1.72261 2.99032 0
M  V30 36422 C 3561.58 -1.19233 4.1522 0
M  V30 36423 C 3560.71 -2.31835 4.7794 0
M  V30 36424 C 3559.75 -1.75989 5.86254 0
M  V30 36425 N 3558.89 -2.82201 6.42889 0
M  V30 36426 H 3563.73 0.0368522 2.97977 0
M  V30 36427 H 3561.26 0.0299575 1.47069 0
M  V30 36428 H 3563.22 -2.40582 3.40846 0
M  V30 36429 H 3561.85 -2.29219 2.27285 0
M  V30 36430 H 3560.9 -0.401082 3.7828 0
M  V30 36431 H 3562.22 -0.743588 4.93226 0
M  V30 36432 H 3561.37 -3.08084 5.22656 0
M  V30 36433 H 3560.11 -2.8004 3.99286 0
M  V30 36434 H 3559.11 -0.98232 5.40953 0
M  V30 36435 H 3560.34 -1.28676 6.66798 0
M  V30 36436 H 3558.28 -3.29722 5.67115 0
M  V30 36437 H 3558.2 -2.41851 7.16271 0
M  V30 36438 H 3559.47 -3.58319 6.92263 0
M  V30 36439 N 3563.7 -1.57553 0.0384871 0
M  V30 36440 C 3564.95 -1.91804 -0.636846 0
M  V30 36441 C 3565.27 -0.916377 -1.72126 0
M  V30 36442 O 3564.54 0.0407061 -1.95858 0
M  V30 36443 H 3563.12 -0.707996 -0.238224 0
M  V30 36444 H 3565.78 -1.94699 0.0884993 0
M  V30 36445 H 3564.88 -2.92685 -1.08359 0
M  V30 36446 N 3565.18 0.234767 -1.55842 0
M  V30 36447 C 3566.41 0.976905 -1.82044 0
M  V30 36448 C 3566.82 1.78974 -0.613583 0
M  V30 36449 O 3566.16 1.78663 0.42724 0
M  V30 36450 C 3566.22 1.95364 -3.01783 0
M  V30 36451 C 3565.88 1.32658 -4.37322 0
M  V30 36452 C 3566.88 0.723016 -5.14848 0
M  V30 36453 C 3564.57 1.34231 -4.84032 0
M  V30 36454 C 3566.56 0.143534 -6.37238 0
M  V30 36455 C 3564.25 0.75898 -6.06368 0
M  V30 36456 C 3565.25 0.16063 -6.82811 0
M  V30 36457 O 3564.93 -0.413661 -8.02835 0
M  V30 36458 H 3564.67 0.292527 -0.609429 0
M  V30 36459 H 3567.22 0.25918 -2.03758 0
M  V30 36460 H 3565.45 2.71 -2.75855 0
M  V30 36461 H 3567.14 2.56022 -3.14972 0
M  V30 36462 H 3567.9 0.703286 -4.79874 0
M  V30 36463 H 3563.78 1.79743 -4.24516 0
M  V30 36464 H 3567.33 -0.324124 -6.96847 0
M  V30 36465 H 3563.22 0.776078 -6.40818 0
M  V30 36466 H 3563.99 -0.306698 -8.17925 0
M  V30 36467 N 3566.66 1.49427 0.500936 0
M  V30 36468 C 3567.88 1.62626 1.27908 0
M  V30 36469 C 3568.3 0.297684 1.86438 0
M  V30 36470 O 3567.66 -0.716849 1.67832 0
M  V30 36471 C 3567.71 2.6951 2.40929 0
M  V30 36472 O 3567.43 3.97214 1.84804 0
M  V30 36473 C 3568.93 2.93414 3.323 0
M  V30 36474 H 3566.15 0.547488 0.387941 0
M  V30 36475 H 3568.69 1.95459 0.601338 0
M  V30 36476 H 3566.85 2.39455 3.04533 0
M  V30 36477 H 3567.26 4.5609 2.59003 0
M  V30 36478 H 3568.74 3.71935 4.07883 0
M  V30 36479 H 3569.21 2.03332 3.89298 0
M  V30 36480 H 3569.82 3.24886 2.74462 0
M  V30 36481 N 3568.13 -0.751987 1.38502 0
M  V30 36482 C 3569.36 -1.54634 1.38214 0
M  V30 36483 C 3569.78 -1.88083 -0.0256025 0
M  V30 36484 O 3569.14 -1.50689 -1.0081 0
M  V30 36485 C 3569.19 -2.8211 2.24602 0
M  V30 36486 O 3568.29 -3.77329 1.66422 0
M  V30 36487 H 3567.63 -0.467642 0.471389 0
M  V30 36488 H 3570.16 -0.929173 1.82284 0
M  V30 36489 H 3570.17 -3.31019 2.38517 0
M  V30 36490 H 3568.85 -2.57095 3.26917 0
M  V30 36491 H 3567.43 -3.36038 1.61657 0
M  V30 36492 N 3569.61 -1.23398 -0.980343 0
M  V30 36493 C 3570.54 -1.03964 -2.09078 0
M  V30 36494 C 3571.52 0.0434647 -1.70044 0
M  V30 36495 O 3572.71 -0.121189 -1.93821 0
M  V30 36496 C 3569.84 -0.630121 -3.41536 0
M  V30 36497 C 3568.79 -1.66058 -3.94473 0
M  V30 36498 C 3568.12 -1.1065 -5.23126 0
M  V30 36499 C 3569.42 -3.05361 -4.23736 0
M  V30 36500 H 3571.11 -1.96844 -2.25594 0
M  V30 36501 H 3568.66 -0.947829 -1.08408 0
M  V30 36502 H 3570.61 -0.481218 -4.18643 0
M  V30 36503 H 3569.33 0.334358 -3.24884 0
M  V30 36504 H 3567.99 -1.79747 -3.1951 0
M  V30 36505 H 3567.64 -0.133002 -5.02824 0
M  V30 36506 H 3567.34 -1.79501 -5.59511 0
M  V30 36507 H 3568.87 -0.96945 -6.02855 0
M  V30 36508 H 3570.28 -2.94973 -4.91593 0
M  V30 36509 H 3568.68 -3.71451 -4.71322 0
M  V30 36510 H 3569.75 -3.54349 -3.31006 0
M  V30 36511 N 3571.09 1.17911 -1.04569 0
M  V30 36512 C 3572.31 1.92489 -0.772179 0
M  V30 36513 C 3572.74 1.75943 0.665266 0
M  V30 36514 O 3572.1 1.07294 1.46142 0
M  V30 36515 C 3572.15 3.4178 -1.14972 0
M  V30 36516 O 3571.25 4.11461 -0.278163 0
M  V30 36517 H 3570.59 0.60033 -0.283725 0
M  V30 36518 H 3573.12 1.49494 -1.39688 0
M  V30 36519 H 3573.13 3.92503 -1.1138 0
M  V30 36520 H 3571.81 3.53144 -2.19686 0
M  V30 36521 H 3570.38 3.71018 -0.374138 0
M  V30 36522 N 3572.57 0.825847 1.34229 0
M  V30 36523 C 3573.5 0.264587 2.31996 0
M  V30 36524 C 3574.48 -0.620564 1.58376 0
M  V30 36525 O 3575.66 -0.546832 1.86342 0
M  V30 36526 C 3572.79 -0.571964 3.42558 0
M  V30 36527 C 3571.75 0.216294 4.27453 0
M  V30 36528 C 3571.07 -0.743185 5.2951 0
M  V30 36529 C 3572.37 1.42612 5.02453 0
M  V30 36530 H 3574.07 1.08144 2.79187 0
M  V30 36531 H 3571.61 0.521475 1.34226 0
M  V30 36532 H 3573.57 -0.974816 4.0997 0
M  V30 36533 H 3572.29 -1.4219 2.94023 0
M  V30 36534 H 3570.95 0.600549 3.61648 0
M  V30 36535 H 3570.6 -1.58916 4.77237 0
M  V30 36536 H 3570.3 -0.219961 5.87188 0
M  V30 36537 H 3571.82 -1.14383 5.99791 0
M  V30 36538 H 3573.24 1.09712 5.62704 0
M  V30 36539 H 3571.63 1.88519 5.6972 0
M  V30 36540 H 3572.7 2.20278 4.31979 0
M  V30 36541 N 3574.05 -1.46497 0.581077 0
M  V30 36542 C 3575.29 -2.02392 0.0660312 0
M  V30 36543 C 3575.62 -1.45275 -1.29327 0
M  V30 36544 O 3574.88 -0.607074 -1.86046 0
M  V30 36545 C 3575.17 -3.57363 -0.0514146 0
M  V30 36546 C 3574.84 -4.33512 1.24008 0
M  V30 36547 C 3573.5 -4.54035 1.59391 0
M  V30 36548 C 3575.85 -4.77249 2.09481 0
M  V30 36549 C 3573.18 -5.15547 2.8005 0
M  V30 36550 C 3575.53 -5.40094 3.29364 0
M  V30 36551 C 3574.2 -5.58845 3.65032 0
M  V30 36552 H 3573.47 -0.740606 0.0241625 0
M  V30 36553 H 3576.12 -1.75886 0.757385 0
M  V30 36554 H 3574.42 -3.82997 -0.825887 0
M  V30 36555 H 3576.12 -3.98287 -0.465656 0
M  V30 36556 H 3572.71 -4.17834 0.95462 0
M  V30 36557 H 3576.89 -4.61151 1.83449 0
M  V30 36558 H 3572.15 -5.28256 3.07823 0
M  V30 36559 H 3576.32 -5.72943 3.95865 0
M  V30 36560 H 3573.95 -6.06279 4.58617 0
M  V30 36561 N 3575.52 -0.31877 -1.54343 0
M  V30 36562 C 3576.45 0.542167 -2.27118 0
M  V30 36563 C 3577.43 1.12331 -1.27733 0
M  V30 36564 O 3578.62 1.14934 -1.56537 0
M  V30 36565 C 3575.75 1.70552 -3.02538 0
M  V30 36566 C 3574.7 1.2539 -4.0922 0
M  V30 36567 C 3574.03 2.50383 -4.72454 0
M  V30 36568 C 3575.33 0.37224 -5.20972 0
M  V30 36569 H 3577.02 -0.0648752 -2.9933 0
M  V30 36570 H 3574.57 -0.0326421 -1.43963 0
M  V30 36571 H 3576.52 2.31406 -3.52178 0
M  V30 36572 H 3575.25 2.33908 -2.27935 0
M  V30 36573 H 3573.91 0.668329 -3.60457 0
M  V30 36574 H 3573.55 3.12092 -3.94472 0
M  V30 36575 H 3573.25 2.20858 -5.44514 0
M  V30 36576 H 3574.78 3.12007 -5.24866 0
M  V30 36577 H 3576.19 0.88693 -5.66398 0
M  V30 36578 H 3574.59 0.169985 -5.99859 0
M  V30 36579 H 3575.66 -0.598149 -4.81197 0
M  V30 36580 N 3577 1.5753 -0.0468419 0
M  V30 36581 C 3577.93 2.08213 0.95812 0
M  V30 36582 C 3578.95 1.00908 1.27755 0
M  V30 36583 O 3580.14 1.28485 1.2391 0
M  V30 36584 C 3577.24 2.50661 2.28084 0
M  V30 36585 C 3576.41 3.81252 2.14396 0
M  V30 36586 C 3575.47 4.10059 3.29754 0
M  V30 36587 O 3574.49 4.80046 3.05851 0
M  V30 36588 N 3575.7 3.61629 4.54098 0
M  V30 36589 H 3578.46 2.95056 0.52556 0
M  V30 36590 H 3576.02 1.61298 0.139504 0
M  V30 36591 H 3578.01 2.67012 3.04116 0
M  V30 36592 H 3576.58 1.6909 2.62921 0
M  V30 36593 H 3575.8 3.74525 1.22981 0
M  V30 36594 H 3577.09 4.66778 2.02473 0
M  V30 36595 H 3576.49 3.05043 4.76409 0
M  V30 36596 H 3575.05 3.83226 5.27239 0
M  V30 36597 N 3578.48 -0.226499 1.55964 0
M  V30 36598 C 3579.9 -0.575973 1.48845 0
M  V30 36599 C 3580.1 -1.87381 0.740999 0
M  V30 36600 O 3579.15 -2.50958 0.278643 0
M  V30 36601 C 3580.47 -0.659788 2.93372 0
M  V30 36602 C 3582.01 -0.750748 3.03863 0
M  V30 36603 C 3582.49 -0.865951 4.49739 0
M  V30 36604 N 3583.98 -0.9303 4.53762 0
M  V30 36605 C 3584.71 -1.03906 5.63907 0
M  V30 36606 N 3584.21 -1.11208 6.83816 0
M  V30 36607 N 3586 -1.07381 5.51748 0
M  V30 36608 H 3578.15 0.625214 2.0299 0
M  V30 36609 H 3580.42 0.21869 0.922431 0
M  V30 36610 H 3580.12 0.224172 3.50985 0
M  V30 36611 H 3580 -1.52503 3.44996 0
M  V30 36612 H 3582.38 -1.62515 2.46319 0
M  V30 36613 H 3582.47 0.140064 2.55416 0
M  V30 36614 H 3582.11 0.00397559 5.079 0
M  V30 36615 H 3582.04 -1.77211 4.95887 0
M  V30 36616 H 3584.53 -0.884387 3.67406 0
M  V30 36617 H 3584.84 -1.19471 7.63509 0
M  V30 36618 H 3583.19 -1.0813 6.86537 0
M  V30 36619 H 3586.38 -1.01339 4.56999 0
M  V30 36620 H 3586.55 -1.15512 6.37621 0
M  V30 36621 N 3579.96 -1.4969 -0.493005 0
M  V30 36622 C 3581.37 -1.52689 -1.07438 0
M  V30 36623 C 3581.72 -0.317686 -1.93611 0
M  V30 36624 O 3580.85 0.571708 -2.08711 0
M  V30 36625 C 3581.44 -2.76691 -1.95518 0
M  V30 36626 C 3580 -2.82443 -2.48803 0
M  V30 36627 C 3579.15 -2.46707 -1.26613 0
M  V30 36628 H 3582.1 -1.56272 -0.276561 0
M  V30 36629 H 3582.12 -2.57306 -2.8031 0
M  V30 36630 H 3581.63 -3.64682 -1.32773 0
M  V30 36631 H 3579.73 -1.98751 -3.15165 0
M  V30 36632 H 3579.84 -3.8481 -2.85409 0
M  V30 36633 H 3578.21 -1.98661 -1.59392 0
M  V30 36634 H 3578.99 -3.36981 -0.655636 0
M  V30 36635 N 3581.44 0.744631 -1.38899 0
M  V30 36636 C 3582.38 1.87989 -1.36977 0
M  V30 36637 C 3583.38 1.6748 -0.254307 0
M  V30 36638 O 3584.58 1.74939 -0.423828 0
M  V30 36639 H 3580.96 0.618653 -0.427518 0
M  V30 36640 H 3582.93 1.86727 -2.32757 0
M  V30 36641 C 3581.68 3.25571 -1.2206 0
M  V30 36642 H 3581 3.41944 -2.07158 0
M  V30 36643 H 3582.44 4.05226 -1.24771 0
M  V30 36644 C 3580.9 3.36824 0.0717821 0
M  V30 36645 O 3581.43 3.87855 1.04553 0
M  V30 36646 N 3579.64 2.90302 0.131621 0
M  V30 36647 H 3579.18 2.48962 -0.661472 0
M  V30 36648 H 3579.14 2.98211 0.995883 0
M  V30 36649 N 3582.91 1.23916 0.973785 0
M  V30 36650 C 3584.14 1.10299 1.75638 0
M  V30 36651 C 3584.56 -0.340921 1.84985 0
M  V30 36652 O 3583.92 -1.24672 1.31631 0
M  V30 36653 C 3583.97 1.74066 3.15806 0
M  V30 36654 O 3583.07 1.00729 3.99909 0
M  V30 36655 H 3582.42 0.386212 0.540127 0
M  V30 36656 H 3584.95 1.64103 1.22194 0
M  V30 36657 H 3584.96 1.79575 3.66356 0
M  V30 36658 H 3583.63 2.79128 3.08319 0
M  V30 36659 H 3582.21 1.02963 3.58404 0
M  V30 36660 N 3584.39 -1.17355 1.05193 0
M  V30 36661 C 3585.81 -1.39616 0.77328 0
M  V30 36662 C 3586.01 -1.91322 -0.632313 0
M  V30 36663 O 3585.06 -2.10485 -1.39472 0
M  V30 36664 C 3586.38 -2.38688 1.82889 0
M  V30 36665 C 3587.93 -2.52394 1.85111 0
M  V30 36666 C 3588.4 -3.54741 2.89695 0
M  V30 36667 N 3589.89 -3.62258 2.88658 0
M  V30 36668 C 3590.63 -4.41207 3.66229 0
M  V30 36669 N 3590.12 -5.23671 4.53586 0
M  V30 36670 N 3591.92 -4.36081 3.54669 0
M  V30 36671 H 3584.07 -0.821236 1.95881 0
M  V30 36672 H 3586.33 -0.423402 0.848195 0
M  V30 36673 H 3586.04 -2.07768 2.8377 0
M  V30 36674 H 3585.91 -3.38191 1.67053 0
M  V30 36675 H 3588.3 -2.82625 0.848946 0
M  V30 36676 H 3588.38 -1.52966 2.05024 0
M  V30 36677 H 3588.02 -3.25249 3.90097 0
M  V30 36678 H 3587.95 -4.53873 2.67033 0
M  V30 36679 H 3590.44 -3.03382 2.25318 0
M  V30 36680 H 3590.76 -5.81095 5.09459 0
M  V30 36681 H 3589.1 -5.23053 4.57647 0
M  V30 36682 H 3592.29 -3.70711 2.85817 0
M  V30 36683 H 3592.46 -4.97365 4.1537 0
M  V30 36684 N 3585.87 -0.832954 -1.3379 0
M  V30 36685 C 3586.78 -0.264209 -2.33107 0
M  V30 36686 C 3587.8 0.606666 -1.63081 0
M  V30 36687 O 3588.97 0.51219 -1.94778 0
M  V30 36688 C 3586.04 0.556255 -3.42209 0
M  V30 36689 C 3585.1 -0.338198 -4.27966 0
M  V30 36690 C 3584.33 0.443203 -5.31857 0
M  V30 36691 O 3584.55 1.6755 -5.45237 0
M  V30 36692 O 3583.49 -0.179705 -6.01632 0
M  V30 36693 H 3587.31 -1.0865 -2.836 0
M  V30 36694 H 3584.9 -0.595331 -1.37026 0
M  V30 36695 H 3586.78 1.0227 -4.08802 0
M  V30 36696 H 3585.46 1.3557 -2.93943 0
M  V30 36697 H 3584.36 -0.852357 -3.6426 0
M  V30 36698 H 3585.7 -1.10226 -4.79699 0
M  V30 36699 N 3587.35 1.46186 -0.588837 0
M  V30 36700 C 3588.3 2.32092 0.153597 0
M  V30 36701 C 3589.29 1.44851 0.87832 0
M  V30 36702 O 3590.5 1.61442 0.796013 0
M  V30 36703 H 3586.87 0.748883 0.0683997 0
M  V30 36704 H 3588.84 2.92516 -0.589662 0
M  V30 36705 C 3587.59 3.28133 1.14997 0
M  V30 36706 H 3586.91 3.95246 0.601734 0
M  V30 36707 H 3588.35 3.9101 1.63973 0
M  V30 36708 C 3586.81 2.5393 2.21407 0
M  V30 36709 O 3587.34 2.30685 3.28858 0
M  V30 36710 N 3585.55 2.14387 1.9618 0
M  V30 36711 H 3585.1 2.33492 1.08808 0
M  V30 36712 H 3585.05 1.6506 2.67587 0
M  V30 36713 N 3588.83 0.32695 1.54171 0
M  V30 36714 C 3590.07 -0.274063 2.00233 0
M  V30 36715 C 3590.4 -1.52388 1.21668 0
M  V30 36716 O 3589.67 -1.93279 0.319393 0
M  V30 36717 H 3588.25 -0.104258 0.739689 0
M  V30 36718 H 3590.91 0.444278 1.89769 0
M  V30 36719 H 3590 -0.5281 3.076 0
M  V30 36720 N 3590.3 -1.57503 0.0551955 0
M  V30 36721 C 3591.55 -1.92468 -0.616466 0
M  V30 36722 C 3591.87 -0.934582 -1.71145 0
M  V30 36723 O 3591.14 0.0199305 -1.9589 0
M  V30 36724 H 3589.72 -0.710483 -0.230701 0
M  V30 36725 H 3592.39 -1.94594 0.109145 0
M  V30 36726 H 3591.48 -2.93818 -1.05249 0
M  V30 36727 N 3591.78 0.218225 -1.56082 0
M  V30 36728 C 3593.01 0.958932 -1.83336 0
M  V30 36729 C 3593.43 1.7781 -0.634751 0
M  V30 36730 O 3592.78 1.78136 0.396697 0
M  V30 36731 C 3592.83 1.87382 -3.09145 0
M  V30 36732 O 3592.55 1.08776 -4.24381 0
M  V30 36733 C 3594.06 2.72814 -3.4941 0
M  V30 36734 H 3591.28 0.280887 -0.60938 0
M  V30 36735 H 3593.82 0.232451 -2.03175 0
M  V30 36736 H 3591.97 2.55421 -2.91272 0
M  V30 36737 H 3592.39 1.7091 -4.95873 0
M  V30 36738 H 3593.86 3.32705 -4.40467 0
M  V30 36739 H 3594.34 3.45375 -2.71317 0
M  V30 36740 H 3594.95 2.10183 -3.69734 0
M  V30 36741 N 3593.26 1.4995 0.485059 0
M  V30 36742 C 3594.17 1.70554 1.61086 0
M  V30 36743 C 3595.19 0.588362 1.63751 0
M  V30 36744 O 3596.36 0.865012 1.81878 0
M  V30 36745 C 3593.43 1.78233 2.97379 0
M  V30 36746 C 3592.49 3.01899 3.05214 0
M  V30 36747 C 3591.72 3.09202 4.35005 0
M  V30 36748 O 3591.95 2.23667 5.24718 0
M  V30 36749 O 3590.88 4.0181 4.48144 0
M  V30 36750 H 3594.71 2.65958 1.46629 0
M  V30 36751 H 3592.29 1.3388 0.663068 0
M  V30 36752 H 3594.17 1.85545 3.78353 0
M  V30 36753 H 3592.85 0.860098 3.12064 0
M  V30 36754 H 3591.75 3.00096 2.23368 0
M  V30 36755 H 3593.09 3.93655 2.9546 0
M  V30 36756 N 3594.74 -0.737255 1.39292 0
M  V30 36757 C 3595.69 -1.8726 1.37972 0
M  V30 36758 C 3596.68 -1.67343 0.263185 0
M  V30 36759 O 3597.89 -1.74712 0.433099 0
M  V30 36760 H 3594.26 -0.616377 0.430793 0
M  V30 36761 H 3596.23 -1.8549 2.33744 0
M  V30 36762 C 3594.98 -3.24919 1.23785 0
M  V30 36763 H 3594.31 -3.4084 2.08969 0
M  V30 36764 H 3595.75 -4.04559 1.26918 0
M  V30 36765 C 3594.2 -3.36857 -0.0539185 0
M  V30 36766 O 3594.73 -3.88404 -1.02495 0
M  V30 36767 N 3592.94 -2.90367 -0.116224 0
M  V30 36768 H 3592.49 -2.48608 0.674666 0
M  V30 36769 H 3592.45 -2.98734 -0.980055 0
M  V30 36770 N 3596.22 -1.24431 -0.967199 0
M  V30 36771 C 3597.15 -0.98035 -2.06069 0
M  V30 36772 C 3598.13 0.0860543 -1.62372 0
M  V30 36773 O 3599.31 -0.0509855 -1.88431 0
M  V30 36774 C 3596.44 -0.479511 -3.35288 0
M  V30 36775 C 3595.49 -1.53454 -3.97937 0
M  V30 36776 S 3596.32 -3.11602 -4.35505 0
M  V30 36777 C 3597.47 -2.63222 -5.6786 0
M  V30 36778 H 3597.71 -1.90627 -2.28142 0
M  V30 36779 H 3595.24 -1.07821 -1.10517 0
M  V30 36780 H 3597.2 -0.197175 -4.10026 0
M  V30 36781 H 3595.86 0.425701 -3.11202 0
M  V30 36782 H 3595.05 -1.13453 -4.91065 0
M  V30 36783 H 3594.65 -1.76691 -3.29631 0
M  V30 36784 H 3596.95 -2.06065 -6.45402 0
M  V30 36785 H 3597.89 -3.5494 -6.12718 0
M  V30 36786 H 3598.3 -2.03633 -5.26492 0
M  V30 36787 N 3597.7 1.16795 -1.05814 0
M  V30 36788 C 3598.94 1.87209 -0.771956 0
M  V30 36789 C 3599.27 1.81415 0.701333 0
M  V30 36790 O 3598.53 1.22125 1.52918 0
M  V30 36791 C 3598.82 3.36448 -1.20571 0
M  V30 36792 C 3598.49 3.62442 -2.68228 0
M  V30 36793 C 3597.15 3.69246 -3.08563 0
M  V30 36794 C 3599.5 3.73409 -3.63614 0
M  V30 36795 C 3596.83 3.84513 -4.43133 0
M  V30 36796 C 3599.18 3.90197 -4.97925 0
M  V30 36797 C 3597.85 3.95241 -5.37904 0
M  V30 36798 H 3597.12 0.685045 -0.282479 0
M  V30 36799 H 3599.77 1.3813 -1.32636 0
M  V30 36800 H 3598.07 3.87625 -0.570415 0
M  V30 36801 H 3599.77 3.89305 -0.961395 0
M  V30 36802 H 3596.36 3.57776 -2.35996 0
M  V30 36803 H 3600.54 3.67468 -3.33588 0
M  V30 36804 H 3595.8 3.86669 -4.736 0
M  V30 36805 H 3599.97 3.97625 -5.71723 0
M  V30 36806 H 3597.6 4.06823 -6.42183 0
M  V30 36807 N 3599.17 0.840037 1.33346 0
M  V30 36808 C 3600.42 0.436955 1.98037 0
M  V30 36809 C 3600.75 -1.00151 1.66383 0
M  V30 36810 O 3600.03 -1.70037 0.944341 0
M  V30 36811 C 3600.31 0.659432 3.54011 0
M  V30 36812 C 3600.16 2.14525 3.95347 0
M  V30 36813 C 3601.48 0.106335 4.39972 0
M  V30 36814 H 3598.6 0.160234 0.719371 0
M  V30 36815 H 3601.24 1.05577 1.57967 0
M  V30 36816 H 3599.39 0.132701 3.88273 0
M  V30 36817 H 3601.07 2.73694 3.71335 0
M  V30 36818 H 3599.31 2.62932 3.45035 0
M  V30 36819 H 3599.98 2.25166 5.03988 0
M  V30 36820 H 3602.46 0.556583 4.12361 0
M  V30 36821 H 3601.33 0.29168 5.48124 0
M  V30 36822 H 3601.59 -0.989956 4.30874 0
M  V30 36823 N 3600.65 -1.45872 0.596582 0
M  V30 36824 C 3601.58 -2.2751 -0.177314 0
M  V30 36825 C 3602.56 -1.36472 -0.883975 0
M  V30 36826 O 3603.75 -1.65894 -0.895069 0
M  V30 36827 C 3600.87 -3.14566 -1.25561 0
M  V30 36828 C 3599.92 -4.21467 -0.653288 0
M  V30 36829 S 3600.75 -5.32866 0.530453 0
M  V30 36830 C 3601.91 -6.2349 -0.548708 0
M  V30 36831 H 3602.14 -2.92799 0.515341 0
M  V30 36832 H 3599.67 -1.49553 0.383817 0
M  V30 36833 H 3601.63 -3.65283 -1.87292 0
M  V30 36834 H 3600.29 -2.48564 -1.92029 0
M  V30 36835 H 3599.49 -4.82261 -1.46427 0
M  V30 36836 H 3599.09 -3.73834 -0.11136 0
M  V30 36837 H 3601.38 -6.62221 -1.43073 0
M  V30 36838 H 3602.32 -7.08096 0.022803 0
M  V30 36839 H 3602.73 -5.57925 -0.85909 0
M  V30 36840 N 3602.13 -0.335122 -1.53996 0
M  V30 36841 C 3603.36 0.265209 -2.04891 0
M  V30 36842 C 3603.77 1.45428 -1.21026 0
M  V30 36843 O 3603.11 1.82172 -0.236449 0
M  V30 36844 C 3603.17 0.751957 -3.51548 0
M  V30 36845 C 3602.84 -0.316341 -4.55904 0
M  V30 36846 C 3603.83 -1.15626 -5.06879 0
M  V30 36847 C 3601.52 -0.467849 -5.00116 0
M  V30 36848 C 3603.51 -2.13332 -6.0064 0
M  V30 36849 C 3601.2 -1.44831 -5.9369 0
M  V30 36850 C 3602.2 -2.2795 -6.43838 0
M  V30 36851 O 3601.89 -3.24328 -7.35572 0
M  V30 36852 H 3601.62 0.0565309 -0.673632 0
M  V30 36853 H 3604.17 -0.482806 -1.99645 0
M  V30 36854 H 3602.4 1.55107 -3.5423 0
M  V30 36855 H 3604.09 1.27191 -3.85457 0
M  V30 36856 H 3604.86 -1.05026 -4.73492 0
M  V30 36857 H 3600.74 0.169257 -4.60689 0
M  V30 36858 H 3604.28 -2.78247 -6.39707 0
M  V30 36859 H 3600.18 -1.55491 -6.26493 0
M  V30 36860 H 3600.94 -3.19701 -7.53481 0
M  V30 36861 N 3603.61 1.57472 -0.0635475 0
M  V30 36862 C 3604.54 2.15279 0.904272 0
M  V30 36863 C 3605.52 1.07766 1.31607 0
M  V30 36864 O 3606.7 1.35764 1.38859 0
M  V30 36865 C 3603.83 2.70777 2.17479 0
M  V30 36866 C 3602.79 3.83384 1.90266 0
M  V30 36867 C 3602.11 4.2545 3.23877 0
M  V30 36868 C 3603.41 5.07985 1.21445 0
M  V30 36869 H 3605.11 2.96401 0.422734 0
M  V30 36870 H 3602.65 1.42578 0.201893 0
M  V30 36871 H 3604.61 3.09861 2.85594 0
M  V30 36872 H 3603.33 1.86865 2.6786 0
M  V30 36873 H 3601.99 3.44791 1.24558 0
M  V30 36874 H 3601.64 3.38471 3.72084 0
M  V30 36875 H 3601.34 5.01352 3.06463 0
M  V30 36876 H 3602.86 4.67144 3.93204 0
M  V30 36877 H 3604.28 5.44437 1.79615 0
M  V30 36878 H 3602.67 5.89111 1.14316 0
M  V30 36879 H 3603.74 4.84519 0.192295 0
M  V30 36880 N 3605.09 -0.209945 1.56195 0
M  V30 36881 C 3606.33 -0.930764 1.79391 0
M  V30 36882 C 3606.65 -1.84403 0.634071 0
M  V30 36883 O 3605.92 -1.92776 -0.348434 0
M  V30 36884 H 3604.5 -0.346678 0.661682 0
M  V30 36885 H 3607.17 -0.219015 1.93666 0
M  V30 36886 H 3606.26 -1.53071 2.71985 0
M  V30 36887 N 3606.56 -1.50205 -0.4771 0
M  V30 36888 C 3607.51 -1.69148 -1.59661 0
M  V30 36889 C 3608.51 -0.557322 -1.5997 0
M  V30 36890 O 3609.71 -0.737652 -1.64191 0
M  V30 36891 H 3606.09 -0.533784 -0.529696 0
M  V30 36892 H 3608.06 -2.6307 -1.40844 0
M  V30 36893 C 3606.81 -1.79731 -2.97644 0
M  V30 36894 H 3606.13 -2.66389 -2.98123 0
M  V30 36895 H 3607.57 -1.97013 -3.75449 0
M  V30 36896 C 3606.03 -0.547523 -3.32421 0
M  V30 36897 O 3606.56 0.316044 -4.00455 0
M  V30 36898 N 3604.76 -0.403331 -2.87787 0
M  V30 36899 H 3604.31 -1.1071 -2.32596 0
M  V30 36900 H 3604.27 0.431743 -3.11421 0
M  V30 36901 N 3608.04 0.729857 -1.39681 0
M  V30 36902 C 3608.99 1.84391 -1.38812 0
M  V30 36903 C 3609.96 1.64252 -0.247064 0
M  V30 36904 O 3611.14 1.85587 -0.442962 0
M  V30 36905 C 3608.28 3.21958 -1.24246 0
M  V30 36906 C 3607.4 3.53766 -2.47938 0
M  V30 36907 C 3606.53 4.80763 -2.25922 0
M  V30 36908 C 3605.57 5.0543 -3.45263 0
M  V30 36909 N 3604.71 6.23633 -3.22531 0
M  V30 36910 H 3609.55 1.84469 -2.34041 0
M  V30 36911 H 3607.09 0.901311 -1.16253 0
M  V30 36912 H 3609.04 4.01376 -1.13811 0
M  V30 36913 H 3607.67 3.21145 -0.326432 0
M  V30 36914 H 3606.73 2.6901 -2.68957 0
M  V30 36915 H 3608.04 3.67911 -3.36813 0
M  V30 36916 H 3607.19 5.68171 -2.12758 0
M  V30 36917 H 3605.93 4.68801 -1.3445 0
M  V30 36918 H 3604.94 4.16482 -3.58919 0
M  V30 36919 H 3606.16 5.19274 -4.37643 0
M  V30 36920 H 3604.11 6.12949 -2.33729 0
M  V30 36921 H 3604.02 6.38388 -4.04965 0
M  V30 36922 H 3605.29 7.13867 -3.13072 0
M  V30 36923 N 3609.52 1.24942 0.960587 0
M  V30 36924 C 3610.8 1.00121 1.68033 0
M  V30 36925 C 3611.18 -0.474363 2.05701 0
M  V30 36926 O 3610.53 -1.45033 1.76572 0
M  V30 36927 C 3610.74 1.93112 2.90704 0
M  V30 36928 C 3612.08 2.20612 3.62789 0
M  V30 36929 O 3613.11 1.90822 3.00775 0
M  V30 36930 O 3611.97 2.71239 4.74438 0
M  V30 36931 H 3609.06 0.379215 0.734932 0
M  V30 36932 H 3611.61 1.36071 1.01404 0
M  V30 36933 H 3610.38 2.92773 2.59614 0
M  V30 36934 H 3610 1.57522 3.65065 0
M  V30 36935 N 3611 -1.16233 1.06432 0
M  V30 36936 C 3611.96 -2.18867 0.680421 0
M  V30 36937 C 3612.96 -1.58439 -0.274563 0
M  V30 36938 O 3614.15 -1.74108 -0.0567601 0
M  V30 36939 C 3611.28 -3.409 0.00140083 0
M  V30 36940 H 3612.48 -2.54345 1.58899 0
M  V30 36941 H 3610.03 -1.30532 0.859711 0
M  V30 36942 H 3610.76 -3.10981 -0.919848 0
M  V30 36943 H 3610.55 -3.86015 0.688125 0
M  V30 36944 H 3612.04 -4.16834 -0.252865 0
M  V30 36945 N 3612.48 -0.847097 -1.32899 0
M  V30 36946 C 3613.7 -0.459623 -2.02243 0
M  V30 36947 C 3614.13 0.933869 -1.6328 0
M  V30 36948 O 3613.48 1.61207 -0.82958 0
M  V30 36949 C 3613.53 -0.597512 -3.55615 0
M  V30 36950 O 3612.64 0.372847 -4.10711 0
M  V30 36951 H 3611.98 -0.185712 -0.637501 0
M  V30 36952 H 3614.51 -1.1442 -1.69615 0
M  V30 36953 H 3614.52 -0.482217 -4.0514 0
M  V30 36954 H 3613.19 -1.61372 -3.83317 0
M  V30 36955 H 3611.77 0.214421 -3.72283 0
M  V30 36956 N 3613.95 1.45554 -0.604309 0
M  V30 36957 C 3615.37 1.57339 -0.267692 0
M  V30 36958 C 3615.57 1.59618 1.22981 0
M  V30 36959 O 3614.63 1.52472 2.01268 0
M  V30 36960 C 3615.94 2.85762 -0.935973 0
M  V30 36961 C 3617.49 2.99431 -0.911584 0
M  V30 36962 C 3617.96 4.3062 -1.55981 0
M  V30 36963 N 3619.45 4.37371 -1.52515 0
M  V30 36964 C 3620.19 5.37542 -1.9959 0
M  V30 36965 N 3619.68 6.44268 -2.54735 0
M  V30 36966 N 3621.48 5.28879 -1.90377 0
M  V30 36967 H 3613.63 1.42318 -1.57668 0
M  V30 36968 H 3615.89 0.680234 -0.660292 0
M  V30 36969 H 3615.6 2.89968 -1.99027 0
M  V30 36970 H 3615.47 3.74418 -0.45726 0
M  V30 36971 H 3617.86 2.94795 0.134155 0
M  V30 36972 H 3617.94 2.12195 -1.42853 0
M  V30 36973 H 3617.58 4.36015 -2.60486 0
M  V30 36974 H 3617.51 5.16668 -1.01791 0
M  V30 36975 H 3620 3.60851 -1.12227 0
M  V30 36976 H 3620.32 7.16946 -2.88458 0
M  V30 36977 H 3618.66 6.45028 -2.58773 0
M  V30 36978 H 3621.85 4.44407 -1.47037 0
M  V30 36979 H 3622.03 6.06798 -2.27378 0
M  V30 36980 N 3615.43 0.343284 1.53816 0
M  V30 36981 C 3616.71 -0.308575 1.93151 0
M  V30 36982 C 3617.09 -1.68261 1.27482 0
M  V30 36983 O 3616.44 -2.245 0.425654 0
M  V30 36984 C 3616.65 -0.381115 3.46913 0
M  V30 36985 C 3618 -0.63208 4.19869 0
M  V30 36986 O 3619.02 -0.463241 3.53175 0
M  V30 36987 O 3617.88 -0.959142 5.38017 0
M  V30 36988 H 3614.97 -0.180008 0.807172 0
M  V30 36989 H 3617.52 0.394441 1.65052 0
M  V30 36990 H 3616.29 0.583126 3.86931 0
M  V30 36991 H 3615.91 -1.13093 3.81177 0
M  V30 36992 N 3616.91 -1.57436 0.0718977 0
M  V30 36993 C 3618.14 -1.97533 -0.605339 0
M  V30 36994 C 3618.55 -0.949003 -1.63678 0
M  V30 36995 O 3617.89 0.0726664 -1.83556 0
M  V30 36996 C 3617.95 -3.3394 -1.33133 0
M  V30 36997 C 3617.62 -4.54746 -0.453346 0
M  V30 36998 C 3618.61 -5.19096 0.289104 0
M  V30 36999 C 3616.3 -5.00874 -0.378194 0
M  V30 37000 C 3618.29 -6.27925 1.09493 0
M  V30 37001 C 3615.98 -6.09576 0.431299 0
M  V30 37002 C 3616.98 -6.72964 1.16653 0
M  V30 37003 O 3616.67 -7.79573 1.96267 0
M  V30 37004 H 3616.4 -0.654588 -0.168793 0
M  V30 37005 H 3618.95 -2.04916 0.140868 0
M  V30 37006 H 3617.18 -3.23171 -2.12362 0
M  V30 37007 H 3618.87 -3.58641 -1.90082 0
M  V30 37008 H 3619.64 -4.84403 0.240637 0
M  V30 37009 H 3615.52 -4.51313 -0.940086 0
M  V30 37010 H 3619.06 -6.77333 1.6693 0
M  V30 37011 H 3614.96 -6.43703 0.48133 0
M  V30 37012 H 3615.73 -7.96451 1.887 0
M  V30 37013 N 3618.39 0.201658 -1.56305 0
M  V30 37014 C 3619.64 0.921209 -1.79434 0
M  V30 37015 C 3619.95 1.84695 -0.643976 0
M  V30 37016 O 3621.16 2.60663 -0.759404 0
M  V30 37017 C 3619.61 1.68841 -3.17838 0
M  V30 37018 C 3619.22 0.807815 -4.40657 0
M  V30 37019 C 3620.96 2.39798 -3.50281 0
M  V30 37020 C 3618.87 1.5735 -5.70083 0
M  V30 37021 H 3617.8 0.347718 -0.669035 0
M  V30 37022 H 3620.45 0.174625 -1.82667 0
M  V30 37023 H 3618.83 2.47863 -3.08836 0
M  V30 37024 H 3620.01 0.0567113 -4.60765 0
M  V30 37025 H 3618.32 0.209392 -4.15873 0
M  V30 37026 H 3620.92 2.97623 -4.44212 0
M  V30 37027 H 3621.26 3.13665 -2.73715 0
M  V30 37028 H 3621.8 1.67748 -3.60701 0
M  V30 37029 H 3618.54 0.877741 -6.49597 0
M  V30 37030 H 3618.06 2.29871 -5.54003 0
M  V30 37031 H 3619.73 2.12902 -6.10968 0
M  V30 37032 N 3619.87 1.50456 0.469128 0
M  V30 37033 C 3621.11 1.61224 1.21865 0
M  V30 37034 C 3621.44 0.315569 1.9243 0
M  V30 37035 O 3620.71 -0.667051 1.84193 0
M  V30 37036 H 3619.29 0.594109 0.452818 0
M  V30 37037 H 3621.95 1.87242 0.54096 0
M  V30 37038 H 3621.04 2.42435 1.9655 0
M  V30 37039 N 3621.34 -0.722439 1.40066 0
M  V30 37040 C 3622.28 -1.8458 1.34185 0
M  V30 37041 C 3623.26 -1.61194 0.213367 0
M  V30 37042 O 3624.44 -1.84296 0.395899 0
M  V30 37043 C 3621.57 -3.20796 1.08664 0
M  V30 37044 C 3620.61 -3.63021 2.23871 0
M  V30 37045 S 3621.45 -3.70929 3.86228 0
M  V30 37046 C 3622.6 -5.09915 3.62957 0
M  V30 37047 H 3622.83 -1.89287 2.29255 0
M  V30 37048 H 3620.37 -0.888546 1.2627 0
M  V30 37049 H 3622.33 -3.99445 0.946243 0
M  V30 37050 H 3620.99 -3.13729 0.152597 0
M  V30 37051 H 3620.18 -4.61907 2.01639 0
M  V30 37052 H 3619.78 -2.9161 2.34179 0
M  V30 37053 H 3622.07 -5.96628 3.21 0
M  V30 37054 H 3623.02 -5.3718 4.61349 0
M  V30 37055 H 3623.42 -4.80184 2.96788 0
M  V30 37056 N 3622.82 -1.2545 -0.953947 0
M  V30 37057 C 3623.79 -1.05974 -2.0323 0
M  V30 37058 C 3624.79 -0.0123137 -1.60795 0
M  V30 37059 O 3625.98 -0.254563 -1.7233 0
M  V30 37060 C 3623.11 -0.609164 -3.35413 0
M  V30 37061 H 3624.3 -2.017 -2.2194 0
M  V30 37062 H 3621.85 -1.07866 -1.13113 0
M  V30 37063 H 3622.59 0.350667 -3.22399 0
M  V30 37064 H 3622.37 -1.36532 -3.67561 0
M  V30 37065 H 3623.86 -0.494353 -4.14664 0
M  V30 37066 N 3624.3 1.15667 -1.07047 0
M  V30 37067 C 3625.55 1.86656 -0.792941 0
M  V30 37068 C 3625.88 1.81936 0.679181 0
M  V30 37069 O 3625.16 1.24033 1.4982 0
M  V30 37070 C 3625.44 3.35898 -1.29786 0
M  V30 37071 C 3625.29 3.49267 -2.8343 0
M  V30 37072 C 3626.61 4.30549 -0.911897 0
M  V30 37073 H 3623.73 0.677751 -0.289521 0
M  V30 37074 H 3626.37 1.35911 -1.32771 0
M  V30 37075 H 3624.52 3.79245 -0.842946 0
M  V30 37076 H 3626.19 3.14805 -3.37188 0
M  V30 37077 H 3624.44 2.90927 -3.21782 0
M  V30 37078 H 3625.11 4.54111 -3.13827 0
M  V30 37079 H 3627.58 3.95145 -1.30383 0
M  V30 37080 H 3626.46 5.33464 -1.29256 0
M  V30 37081 H 3626.72 4.41723 0.182473 0
M  V30 37082 N 3625.78 0.854133 1.32447 0
M  V30 37083 C 3627.03 0.457935 1.97562 0
M  V30 37084 C 3627.36 -0.983805 1.67436 0
M  V30 37085 O 3626.63 -1.69025 0.962322 0
M  V30 37086 C 3626.92 0.696943 3.53291 0
M  V30 37087 C 3626.77 2.18706 3.93049 0
M  V30 37088 C 3628.09 0.152994 4.39834 0
M  V30 37089 H 3625.21 0.167855 0.717631 0
M  V30 37090 H 3627.85 1.07246 1.56838 0
M  V30 37091 H 3626 0.173875 3.88111 0
M  V30 37092 H 3627.67 2.77617 3.68411 0
M  V30 37093 H 3625.91 2.66576 3.42227 0
M  V30 37094 H 3626.59 2.30499 5.01572 0
M  V30 37095 H 3629.06 0.600288 4.11747 0
M  V30 37096 H 3627.94 0.349799 5.47784 0
M  V30 37097 H 3628.2 -0.9442 4.319 0
M  V30 37098 N 3627.26 -1.45231 0.61202 0
M  V30 37099 C 3628.53 -1.95558 0.0407344 0
M  V30 37100 C 3628.91 -1.55438 -1.42836 0
M  V30 37101 O 3628.26 -0.819093 -2.13315 0
M  V30 37102 C 3628.47 -3.4815 0.243498 0
M  V30 37103 C 3629.82 -4.24411 0.126626 0
M  V30 37104 O 3630.84 -3.55775 0.173852 0
M  V30 37105 O 3629.7 -5.46498 0.0154487 0
M  V30 37106 H 3626.8 -0.826333 -0.0332143 0
M  V30 37107 H 3629.34 -1.55375 0.682391 0
M  V30 37108 H 3628.12 -3.70335 1.26364 0
M  V30 37109 H 3627.74 -3.95233 -0.433211 0
M  V30 37110 N 3628.74 -0.351436 -1.53632 0
M  V30 37111 C 3629.98 0.242173 -2.00644 0
M  V30 37112 C 3630.3 1.50433 -1.24077 0
M  V30 37113 O 3629.57 1.92746 -0.350101 0
M  V30 37114 H 3628.15 0.0924774 -0.741254 0
M  V30 37115 H 3630.82 -0.474412 -1.89038 0
M  V30 37116 H 3629.91 0.479097 -3.08401 0
M  V30 37117 N 3630.21 1.57396 -0.0802459 0
M  V30 37118 C 3631.15 2.10199 0.91374 0
M  V30 37119 C 3632.16 1.03595 1.25586 0
M  V30 37120 O 3633.35 1.31085 1.21157 0
M  V30 37121 C 3630.45 2.55443 2.22716 0
M  V30 37122 C 3629.62 3.85714 2.06261 0
M  V30 37123 C 3628.68 4.16962 3.20982 0
M  V30 37124 O 3627.71 4.86425 2.956 0
M  V30 37125 N 3628.91 3.7118 4.46325 0
M  V30 37126 H 3631.67 2.96104 0.462856 0
M  V30 37127 H 3629.23 1.61557 0.105259 0
M  V30 37128 H 3631.23 2.73403 2.98384 0
M  V30 37129 H 3629.8 1.74628 2.59275 0
M  V30 37130 H 3629.02 3.7705 1.1501 0
M  V30 37131 H 3630.3 4.70968 1.92527 0
M  V30 37132 H 3629.7 3.15079 4.69831 0
M  V30 37133 H 3628.26 3.94323 5.18992 0
M  V30 37134 N 3631.69 -0.193366 1.56409 0
M  V30 37135 C 3632.62 -1.24231 1.97709 0
M  V30 37136 C 3633.6 -1.47379 0.849311 0
M  V30 37137 O 3634.79 -1.59087 1.11377 0
M  V30 37138 C 3631.92 -2.58616 2.31809 0
M  V30 37139 C 3630.87 -2.50076 3.47341 0
M  V30 37140 C 3630.2 -3.88749 3.67121 0
M  V30 37141 C 3631.5 -2.02433 4.81475 0
M  V30 37142 H 3633.19 -0.89909 2.85581 0
M  V30 37143 H 3630.74 -0.431054 1.37397 0
M  V30 37144 H 3632.69 -3.3218 2.59296 0
M  V30 37145 H 3631.41 -2.94681 1.40821 0
M  V30 37146 H 3630.07 -1.78967 3.19947 0
M  V30 37147 H 3629.72 -4.22171 2.73461 0
M  V30 37148 H 3629.42 -3.8391 4.44845 0
M  V30 37149 H 3630.95 -4.63933 3.96986 0
M  V30 37150 H 3632.36 -2.65757 5.07983 0
M  V30 37151 H 3630.76 -2.08591 5.62681 0
M  V30 37152 H 3631.83 -0.97762 4.74943 0
M  V30 37153 N 3633.17 -1.50702 -0.461142 0
M  V30 37154 C 3634.4 -1.6596 -1.23551 0
M  V30 37155 C 3634.81 -0.34701 -1.85584 0
M  V30 37156 O 3634.17 0.672099 -1.69673 0
M  V30 37157 C 3634.22 -2.75803 -2.33699 0
M  V30 37158 O 3633.94 -4.01974 -1.74208 0
M  V30 37159 C 3635.44 -3.02121 -3.24403 0
M  V30 37160 H 3632.66 -0.557581 -0.373289 0
M  V30 37161 H 3635.21 -1.96985 -0.549304 0
M  V30 37162 H 3633.36 -2.47445 -2.98077 0
M  V30 37163 H 3633.78 -4.62796 -2.46819 0
M  V30 37164 H 3635.25 -3.82618 -3.97879 0
M  V30 37165 H 3635.73 -2.13582 -3.8377 0
M  V30 37166 H 3636.33 -3.32049 -2.65752 0
M  V30 37167 N 3634.65 0.715001 -1.40447 0
M  V30 37168 C 3635.89 1.48732 -1.40208 0
M  V30 37169 C 3636.25 1.92 -0.00365722 0
M  V30 37170 O 3637.45 2.68514 0.12386 0
M  V30 37171 C 3635.72 2.6801 -2.36444 0
M  V30 37172 S 3637.28 3.57409 -2.54567 0
M  V30 37173 H 3634.1 0.508498 -0.496942 0
M  V30 37174 H 3636.7 0.836056 -1.76721 0
M  V30 37175 H 3635.41 2.34395 -3.36879 0
M  V30 37176 H 3634.94 3.38047 -2.01216 0
M  V30 37177 H 3636.95 4.62458 -1.79852 0
M  V30 37178 N 3636.13 1.25954 0.947281 0
M  V30 37179 C 3637.37 1.11302 1.69528 0
M  V30 37180 C 3637.7 -0.343928 1.9113 0
M  V30 37181 O 3636.98 -1.25306 1.48757 0
M  V30 37182 C 3637.26 1.87593 3.07377 0
M  V30 37183 C 3637.12 3.41159 2.93139 0
M  V30 37184 C 3638.43 1.66491 4.07393 0
M  V30 37185 H 3635.55 0.405717 0.615274 0
M  V30 37186 H 3638.2 1.54876 1.10062 0
M  V30 37187 H 3636.35 1.50559 3.5814 0
M  V30 37188 H 3638.02 3.87911 2.49645 0
M  V30 37189 H 3636.26 3.68496 2.28896 0
M  V30 37190 H 3636.93 3.89762 3.90883 0
M  V30 37191 H 3639.41 1.98744 3.65568 0
M  V30 37192 H 3638.28 2.22296 5.01872 0
M  V30 37193 H 3638.54 0.607993 4.37899 0
M  V30 37194 N 3637.6 -1.15097 1.07659 0
M  V30 37195 C 3638.83 -1.89558 0.821665 0
M  V30 37196 C 3639.24 -1.78433 -0.629142 0
M  V30 37197 O 3638.59 -1.13616 -1.44351 0
M  V30 37198 C 3638.65 -3.40448 1.15479 0
M  V30 37199 C 3638.31 -3.75358 2.60682 0
M  V30 37200 C 3639.31 -3.76119 3.5893 0
M  V30 37201 C 3636.99 -4.05571 2.9634 0
M  V30 37202 C 3638.99 -4.06603 4.9087 0
M  V30 37203 C 3636.67 -4.35719 4.28476 0
M  V30 37204 C 3637.67 -4.36217 5.25551 0
M  V30 37205 O 3637.36 -4.6564 6.55313 0
M  V30 37206 H 3637.09 -0.607516 0.29648 0
M  V30 37207 H 3639.65 -1.4674 1.43724 0
M  V30 37208 H 3637.88 -3.83682 0.482184 0
M  V30 37209 H 3639.57 -3.96204 0.881902 0
M  V30 37210 H 3640.33 -3.52873 3.32724 0
M  V30 37211 H 3636.21 -4.0434 2.21427 0
M  V30 37212 H 3639.75 -4.06906 5.66633 0
M  V30 37213 H 3635.65 -4.58433 4.54434 0
M  V30 37214 H 3636.42 -4.83391 6.60512 0
M  V30 37215 N 3639.08 -0.861145 -1.31993 0
M  V30 37216 C 3640.03 -0.299393 -2.30665 0
M  V30 37217 C 3641.02 0.580751 -1.59134 0
M  V30 37218 O 3642.23 0.467833 -1.73814 0
M  V30 37219 H 3638.61 -0.0781223 -0.747931 0
M  V30 37220 H 3640.58 -1.14572 -2.75528 0
M  V30 37221 C 3639.33 0.491822 -3.44204 0
M  V30 37222 H 3638.65 -0.17615 -3.99412 0
M  V30 37223 H 3640.09 0.850361 -4.15385 0
M  V30 37224 C 3638.55 1.67962 -2.92045 0
M  V30 37225 O 3639.08 2.77881 -2.90078 0
M  V30 37226 N 3637.28 1.50882 -2.4836 0
M  V30 37227 H 3636.83 0.614639 -2.5016 0
M  V30 37228 H 3636.79 2.30499 -2.13817 0
M  V30 37229 N 3640.56 1.44905 -0.619713 0
M  V30 37230 C 3641.49 2.33366 0.0790711 0
M  V30 37231 C 3642.47 1.47542 0.846477 0
M  V30 37232 O 3643.66 1.76288 0.814626 0
M  V30 37233 C 3640.79 3.3044 1.06896 0
M  V30 37234 C 3639.74 4.25993 0.413955 0
M  V30 37235 C 3639.07 5.12849 1.51294 0
M  V30 37236 C 3640.37 5.17951 -0.672574 0
M  V30 37237 H 3642.06 2.92044 -0.659602 0
M  V30 37238 H 3639.61 1.4043 -0.318648 0
M  V30 37239 H 3641.56 3.91203 1.56646 0
M  V30 37240 H 3640.28 2.69947 1.83838 0
M  V30 37241 H 3638.94 3.66546 -0.0627959 0
M  V30 37242 H 3638.59 4.48716 2.27295 0
M  V30 37243 H 3638.29 5.77587 1.08012 0
M  V30 37244 H 3639.81 5.76482 2.01248 0
M  V30 37245 H 3641.23 5.72716 -0.258643 0
M  V30 37246 H 3639.63 5.91232 -1.02786 0
M  V30 37247 H 3640.7 4.5965 -1.54433 0
M  V30 37248 N 3642.04 0.359579 1.53443 0
M  V30 37249 C 3643.29 -0.231529 2.00769 0
M  V30 37250 C 3643.61 -1.49773 1.24873 0
M  V30 37251 O 3642.88 -1.92558 0.360318 0
M  V30 37252 H 3641.46 -0.0885451 0.741734 0
M  V30 37253 H 3644.12 0.48443 1.88784 0
M  V30 37254 H 3643.22 -0.462735 3.08651 0
M  V30 37255 N 3643.52 -1.57351 0.0885919 0
M  V30 37256 C 3644.79 -1.85562 -0.618554 0
M  V30 37257 C 3645.17 -0.984239 -1.86751 0
M  V30 37258 O 3644.52 -0.054924 -2.28434 0
M  V30 37259 C 3644.73 -3.36098 -0.940163 0
M  V30 37260 C 3646.08 -4.04002 -1.30642 0
M  V30 37261 O 3647.1 -3.40941 -1.03138 0
M  V30 37262 O 3645.96 -5.1526 -1.82126 0
M  V30 37263 H 3643.06 -0.767157 -0.308868 0
M  V30 37264 H 3645.6 -1.6927 0.120797 0
M  V30 37265 H 3644.37 -3.91263 -0.0538304 0
M  V30 37266 H 3644 -3.57713 -1.73571 0
M  V30 37267 N 3644.99 0.185069 -1.5651 0
M  V30 37268 C 3646.41 0.536307 -1.50319 0
M  V30 37269 C 3646.61 1.8535 -0.790419 0
M  V30 37270 O 3645.67 2.50131 -0.345083 0
M  V30 37271 C 3646.98 0.581774 -2.95018 0
M  V30 37272 C 3648.53 0.669921 -3.05747 0
M  V30 37273 C 3649 0.746406 -4.51877 0
M  V30 37274 N 3650.49 0.809666 -4.56069 0
M  V30 37275 C 3651.23 0.889186 -5.66464 0
M  V30 37276 N 3650.72 0.930388 -6.86524 0
M  V30 37277 N 3652.52 0.927148 -5.54401 0
M  V30 37278 H 3644.67 -0.678814 -2.01261 0
M  V30 37279 H 3646.93 -0.24307 -0.916308 0
M  V30 37280 H 3646.64 -0.31715 -3.50267 0
M  V30 37281 H 3646.51 1.43303 -3.48919 0
M  V30 37282 H 3648.9 1.55927 -2.50541 0
M  V30 37283 H 3648.98 -0.207734 -2.54955 0
M  V30 37284 H 3648.62 -0.138635 -5.07711 0
M  V30 37285 H 3648.55 1.64001 -5.00411 0
M  V30 37286 H 3651.04 0.786664 -3.69621 0
M  V30 37287 H 3651.36 0.991857 -7.66409 0
M  V30 37288 H 3649.7 0.898896 -6.89162 0
M  V30 37289 H 3652.89 0.891866 -4.59525 0
M  V30 37290 H 3653.07 0.985661 -6.4046 0
M  V30 37291 N 3646.47 1.50945 0.453144 0
M  V30 37292 C 3647.38 1.73932 1.57432 0
M  V30 37293 C 3648.4 0.622963 1.62466 0
M  V30 37294 O 3649.57 0.903397 1.80002 0
M  V30 37295 C 3646.64 1.845 2.93531 0
M  V30 37296 C 3645.7 3.08305 2.98741 0
M  V30 37297 C 3644.93 3.1836 4.28349 0
M  V30 37298 O 3645.16 2.34747 5.19856 0
M  V30 37299 O 3644.09 4.11225 4.3952 0
M  V30 37300 H 3647.92 2.69009 1.40954 0
M  V30 37301 H 3645.5 1.35256 0.634521 0
M  V30 37302 H 3647.38 1.93528 3.74332 0
M  V30 37303 H 3646.06 0.926098 3.10169 0
M  V30 37304 H 3644.97 3.04766 2.16952 0
M  V30 37305 H 3646.3 3.99833 2.87044 0
M  V30 37306 N 3647.95 -0.707543 1.40825 0
M  V30 37307 C 3648.91 -1.80332 1.41467 0
M  V30 37308 C 3649.91 -1.57839 0.307171 0
M  V30 37309 O 3651.1 -1.64732 0.566473 0
M  V30 37310 C 3648.24 -3.18539 1.21432 0
M  V30 37311 H 3649.43 -1.81158 2.39002 0
M  V30 37312 H 3646.98 -0.913985 1.26791 0
M  V30 37313 H 3647.72 -3.23359 0.246904 0
M  V30 37314 H 3647.5 -3.36266 2.01663 0
M  V30 37315 H 3648.99 -3.98551 1.24688 0
M  V30 37316 N 3649.43 -1.26454 -0.940588 0
M  V30 37317 C 3650.34 -1.09842 -2.07297 0
M  V30 37318 C 3651.35 -0.0317783 -1.73971 0
M  V30 37319 O 3652.53 -0.23563 -2.00017 0
M  V30 37320 C 3649.6 -0.733796 -3.38846 0
M  V30 37321 C 3648.66 -1.87992 -3.8595 0
M  V30 37322 C 3647.89 -1.53259 -5.11221 0
M  V30 37323 O 3648.11 -0.434591 -5.68742 0
M  V30 37324 O 3647.05 -2.36753 -5.53382 0
M  V30 37325 H 3650.87 -2.04841 -2.24219 0
M  V30 37326 H 3648.46 -1.05522 -1.05761 0
M  V30 37327 H 3650.34 -0.543204 -4.17884 0
M  V30 37328 H 3649.01 0.186786 -3.23161 0
M  V30 37329 H 3647.92 -2.12547 -3.07854 0
M  V30 37330 H 3649.25 -2.78024 -4.06157 0
M  V30 37331 N 3650.91 1.14525 -1.08268 0
M  V30 37332 C 3651.84 2.21696 -0.733007 0
M  V30 37333 C 3652.82 1.67714 0.283888 0
M  V30 37334 O 3654 1.93584 0.154573 0
M  V30 37335 C 3651.13 3.47018 -0.139996 0
M  V30 37336 C 3650.09 4.14017 -1.08508 0
M  V30 37337 C 3649.41 5.33525 -0.354357 0
M  V30 37338 C 3650.71 4.62716 -2.42262 0
M  V30 37339 H 3652.41 2.51202 -1.62905 0
M  V30 37340 H 3649.95 1.2074 -0.784717 0
M  V30 37341 H 3651.91 4.21239 0.116626 0
M  V30 37342 H 3650.63 3.16872 0.791173 0
M  V30 37343 H 3649.29 3.41749 -1.32678 0
M  V30 37344 H 3648.94 4.99638 0.58057 0
M  V30 37345 H 3648.64 5.79296 -0.984389 0
M  V30 37346 H 3650.16 6.10508 -0.105755 0
M  V30 37347 H 3651.57 5.28418 -2.22366 0
M  V30 37348 H 3649.97 5.19184 -3.00944 0
M  V30 37349 H 3651.04 3.77861 -3.0389 0
M  V30 37350 N 3652.39 0.868133 1.31534 0
M  V30 37351 C 3653.32 0.279789 2.27486 0
M  V30 37352 C 3654.33 -0.556131 1.53007 0
M  V30 37353 O 3655.52 -0.378423 1.74443 0
M  V30 37354 C 3652.62 -0.622139 3.33141 0
M  V30 37355 C 3651.79 0.180932 4.37026 0
M  V30 37356 C 3650.85 -0.648848 5.22184 0
M  V30 37357 O 3649.88 -0.0775394 5.69147 0
M  V30 37358 N 3651.08 -1.96117 5.46368 0
M  V30 37359 H 3653.84 1.10434 2.78611 0
M  V30 37360 H 3651.41 0.729434 1.44537 0
M  V30 37361 H 3653.4 -1.18291 3.87026 0
M  V30 37362 H 3651.97 -1.34737 2.82072 0
M  V30 37363 H 3651.19 0.923145 3.83238 0
M  V30 37364 H 3652.48 0.732041 5.03506 0
M  V30 37365 H 3651.87 -2.44848 5.09966 0
M  V30 37366 H 3650.43 -2.46976 6.03196 0
M  V30 37367 N 3653.86 -1.44574 0.627389 0
M  V30 37368 C 3655.11 -2.02379 0.13058 0
M  V30 37369 C 3655.44 -1.4921 -1.24298 0
M  V30 37370 O 3654.72 -0.674658 -1.82424 0
M  V30 37371 C 3655 -3.59922 0.113173 0
M  V30 37372 C 3654.85 -4.23382 1.51881 0
M  V30 37373 C 3656.17 -4.36468 -0.564264 0
M  V30 37374 H 3653.29 -0.735374 0.0489254 0
M  V30 37375 H 3655.93 -1.7219 0.803149 0
M  V30 37376 H 3654.08 -3.85772 -0.459553 0
M  V30 37377 H 3655.76 -4.08651 2.14014 0
M  V30 37378 H 3654 -3.81021 2.07378 0
M  V30 37379 H 3654.67 -5.32378 1.4587 0
M  V30 37380 H 3657.15 -4.16028 -0.0772513 0
M  V30 37381 H 3656.02 -5.46181 -0.545619 0
M  V30 37382 H 3656.28 -4.10797 -1.63395 0
M  V30 37383 N 3655.34 -0.367711 -1.5325 0
M  V30 37384 C 3656.62 0.277808 -1.93617 0
M  V30 37385 C 3657 1.66211 -1.30143 0
M  V30 37386 O 3656.35 2.23795 -0.461316 0
M  V30 37387 C 3656.56 0.325876 -3.47475 0
M  V30 37388 C 3657.9 0.565202 -4.20821 0
M  V30 37389 O 3658.93 0.406995 -3.53867 0
M  V30 37390 O 3657.79 0.873427 -5.39475 0
M  V30 37391 H 3654.88 0.167144 -0.809933 0
M  V30 37392 H 3657.43 -0.42065 -1.64404 0
M  V30 37393 H 3656.2 -0.644609 -3.85954 0
M  V30 37394 H 3655.82 1.07014 -3.82928 0
M  V30 37395 N 3656.82 1.57302 -0.0969353 0
M  V30 37396 C 3657.75 2.11156 0.891394 0
M  V30 37397 C 3658.76 1.04921 1.2448 0
M  V30 37398 O 3659.95 1.32362 1.1976 0
M  V30 37399 C 3657.05 2.57791 2.19994 0
M  V30 37400 C 3656.23 3.8788 2.02158 0
M  V30 37401 C 3655.29 4.20343 3.16541 0
M  V30 37402 O 3654.31 4.89533 2.90424 0
M  V30 37403 N 3655.51 3.75893 4.42363 0
M  V30 37404 H 3658.28 2.96579 0.431424 0
M  V30 37405 H 3655.84 1.6166 0.0881174 0
M  V30 37406 H 3657.83 2.76552 2.95468 0
M  V30 37407 H 3656.4 1.77369 2.57409 0
M  V30 37408 H 3655.62 3.78248 1.11004 0
M  V30 37409 H 3656.91 4.72984 1.87521 0
M  V30 37410 H 3656.31 3.20045 4.66463 0
M  V30 37411 H 3654.86 3.99806 5.1478 0
M  V30 37412 N 3658.3 -0.176766 1.56606 0
M  V30 37413 C 3659.55 -0.892546 1.80877 0
M  V30 37414 C 3659.86 -1.83647 0.673277 0
M  V30 37415 O 3661.07 -2.59422 0.800778 0
M  V30 37416 C 3659.52 -1.63763 3.20484 0
M  V30 37417 C 3659.13 -0.737608 4.41886 0
M  V30 37418 C 3660.87 -2.34195 3.54052 0
M  V30 37419 C 3658.78 -1.48261 5.72514 0
M  V30 37420 H 3657.71 -0.33703 0.674482 0
M  V30 37421 H 3660.36 -0.145542 1.82922 0
M  V30 37422 H 3658.74 -2.42919 3.1274 0
M  V30 37423 H 3659.92 0.0165996 4.60797 0
M  V30 37424 H 3658.23 -0.143204 4.16154 0
M  V30 37425 H 3660.83 -2.90518 4.48891 0
M  V30 37426 H 3661.17 -3.09271 2.78671 0
M  V30 37427 H 3661.71 -1.61988 3.63324 0
M  V30 37428 H 3658.44 -0.774285 6.50911 0
M  V30 37429 H 3657.96 -2.21028 5.5759 0
M  V30 37430 H 3659.64 -2.03155 6.14278 0
M  V30 37431 N 3659.78 -1.51183 -0.445132 0
M  V30 37432 C 3660.71 -1.74877 -1.54727 0
M  V30 37433 C 3661.69 -0.598351 -1.59229 0
M  V30 37434 O 3662.87 -0.84025 -1.75081 0
M  V30 37435 C 3660 -1.86669 -2.92868 0
M  V30 37436 C 3658.96 -3.02053 -3.03229 0
M  V30 37437 C 3658.28 -2.9902 -4.43274 0
M  V30 37438 C 3659.58 -4.42149 -2.78032 0
M  V30 37439 H 3661.28 -2.6716 -1.35151 0
M  V30 37440 H 3658.82 -1.28559 -0.648741 0
M  V30 37441 H 3660.77 -2.01828 -3.69923 0
M  V30 37442 H 3659.5 -0.910281 -3.13658 0
M  V30 37443 H 3658.16 -2.86587 -2.28612 0
M  V30 37444 H 3657.81 -2.01171 -4.6102 0
M  V30 37445 H 3657.51 -3.76496 -4.51137 0
M  V30 37446 H 3659.03 -3.16261 -5.22313 0
M  V30 37447 H 3660.44 -4.58006 -3.44823 0
M  V30 37448 H 3658.84 -5.21272 -2.97314 0
M  V30 37449 H 3659.91 -4.52724 -1.73692 0
M  V30 37450 N 3661.25 0.700065 -1.41198 0
M  V30 37451 C 3662.48 1.48894 -1.4366 0
M  V30 37452 C 3662.9 1.88756 -0.0406103 0
M  V30 37453 O 3662.25 1.56486 0.939063 0
M  V30 37454 C 3662.3 2.75437 -2.3413 0
M  V30 37455 O 3662.03 2.37255 -3.68296 0
M  V30 37456 C 3663.53 3.69214 -2.45348 0
M  V30 37457 H 3660.75 0.45899 -0.489458 0
M  V30 37458 H 3663.29 0.862313 -1.8543 0
M  V30 37459 H 3661.45 3.34347 -1.9568 0
M  V30 37460 H 3661.86 3.1879 -4.16501 0
M  V30 37461 H 3663.33 4.54801 -3.12826 0
M  V30 37462 H 3663.81 4.13393 -1.48334 0
M  V30 37463 H 3664.42 3.16209 -2.84415 0
M  V30 37464 N 3662.73 1.26951 0.933869 0
M  V30 37465 C 3663.68 1.09143 2.03363 0
M  V30 37466 C 3664.65 -0.0057011 1.66099 0
M  V30 37467 O 3665.83 0.155459 1.90166 0
M  V30 37468 C 3662.97 0.738176 3.37113 0
M  V30 37469 C 3662.09 1.91231 3.87369 0
M  V30 37470 C 3661.22 1.5015 5.09538 0
M  V30 37471 C 3660.26 2.64349 5.52074 0
M  V30 37472 N 3659.4 2.23899 6.65442 0
M  V30 37473 H 3664.24 2.03252 2.17928 0
M  V30 37474 H 3661.77 1.01188 1.06768 0
M  V30 37475 H 3663.73 0.514213 4.14019 0
M  V30 37476 H 3662.36 -0.16595 3.22373 0
M  V30 37477 H 3661.41 2.24899 3.06797 0
M  V30 37478 H 3662.73 2.76919 4.1487 0
M  V30 37479 H 3661.88 1.23841 5.93926 0
M  V30 37480 H 3660.62 0.615624 4.83799 0
M  V30 37481 H 3659.62 2.91379 4.66239 0
M  V30 37482 H 3660.85 3.53548 5.79811 0
M  V30 37483 H 3658.8 1.37755 6.41373 0
M  V30 37484 H 3658.71 3.03128 6.92567 0
M  V30 37485 H 3659.98 2.00822 7.53187 0
M  V30 37486 N 3664.21 -1.13949 1.08873 0
M  V30 37487 C 3665.43 -1.89491 0.843089 0
M  V30 37488 C 3665.86 -1.78291 -0.599507 0
M  V30 37489 O 3665.22 -1.12644 -1.4206 0
M  V30 37490 C 3665.27 -3.37278 1.27578 0
M  V30 37491 O 3664.37 -4.10145 0.430683 0
M  V30 37492 H 3663.71 -0.589386 0.305811 0
M  V30 37493 H 3666.24 -1.44207 1.4514 0
M  V30 37494 H 3666.25 -3.88098 1.25871 0
M  V30 37495 H 3664.93 -3.44747 2.32641 0
M  V30 37496 H 3663.5 -3.69374 0.511581 0
M  V30 37497 N 3665.69 -0.875096 -1.31072 0
M  V30 37498 C 3666.6 -0.338237 -2.32149 0
M  V30 37499 C 3667.61 0.554475 -1.64929 0
M  V30 37500 O 3668.79 0.449964 -1.96309 0
M  V30 37501 C 3665.85 0.447103 -3.43805 0
M  V30 37502 C 3664.92 -0.474181 -4.26673 0
M  V30 37503 C 3664.15 0.273773 -5.32997 0
M  V30 37504 O 3664.37 1.50119 -5.50291 0
M  V30 37505 O 3663.31 -0.371018 -6.00755 0
M  V30 37506 H 3667.13 -1.17617 -2.8 0
M  V30 37507 H 3664.72 -0.638624 -1.35063 0
M  V30 37508 H 3666.6 0.892127 -4.11848 0
M  V30 37509 H 3665.27 1.2615 -2.98107 0
M  V30 37510 H 3664.18 -0.967812 -3.61364 0
M  V30 37511 H 3665.51 -1.25431 -4.75949 0
M  V30 37512 N 3667.17 1.44239 -0.635047 0
M  V30 37513 C 3668.39 2.06368 -0.148296 0
M  V30 37514 C 3668.81 1.47484 1.17872 0
M  V30 37515 O 3668.17 0.599199 1.72383 0
M  V30 37516 C 3668.22 3.61486 -0.0315826 0
M  V30 37517 O 3667.94 4.18177 -1.30612 0
M  V30 37518 C 3669.44 4.40656 0.483401 0
M  V30 37519 H 3666.66 0.666034 -0.0814837 0
M  V30 37520 H 3669.2 1.85045 -0.870559 0
M  V30 37521 H 3667.36 3.82058 0.641141 0
M  V30 37522 H 3667.77 5.11659 -1.1535 0
M  V30 37523 H 3669.25 5.49601 0.514068 0
M  V30 37524 H 3669.72 4.12382 1.51122 0
M  V30 37525 H 3670.33 4.25013 -0.156206 0
M  V30 37526 N 3668.64 0.375833 1.53053 0
M  V30 37527 C 3669.59 -0.465781 2.26051 0
M  V30 37528 C 3670.56 -1.06904 1.27125 0
M  V30 37529 O 3671.75 -1.0996 1.55928 0
M  V30 37530 C 3668.89 -1.59423 3.06069 0
M  V30 37531 C 3668 -1.01515 4.19903 0
M  V30 37532 C 3667.13 -2.11355 4.87342 0
M  V30 37533 C 3666.17 -1.50966 5.93191 0
M  V30 37534 N 3665.31 -2.5468 6.5428 0
M  V30 37535 H 3670.15 0.163201 2.97553 0
M  V30 37536 H 3667.69 0.0923078 1.4681 0
M  V30 37537 H 3669.65 -2.25909 3.50743 0
M  V30 37538 H 3668.28 -2.19372 2.36803 0
M  V30 37539 H 3667.33 -0.240279 3.7964 0
M  V30 37540 H 3668.64 -0.533725 4.95936 0
M  V30 37541 H 3667.79 -2.8564 5.35252 0
M  V30 37542 H 3666.53 -2.62853 4.10804 0
M  V30 37543 H 3665.54 -0.752 5.44633 0
M  V30 37544 H 3666.76 -1.00279 6.71655 0
M  V30 37545 H 3664.71 -3.05372 5.80589 0
M  V30 37546 H 3664.63 -2.11254 7.25884 0
M  V30 37547 H 3665.89 -3.28636 7.06837 0
M  V30 37548 N 3670.12 -1.57248 0.105276 0
M  V30 37549 C 3671.03 -2.18112 -0.863968 0
M  V30 37550 C 3672.05 -1.15339 -1.3028 0
M  V30 37551 O 3673.22 -1.47753 -1.36862 0
M  V30 37552 C 3670.29 -2.75761 -2.10136 0
M  V30 37553 C 3669.35 -3.93523 -1.71576 0
M  V30 37554 C 3668.58 -4.48413 -2.89416 0
M  V30 37555 O 3668.81 -4.02222 -4.04442 0
M  V30 37556 O 3667.74 -5.39294 -2.67294 0
M  V30 37557 H 3671.57 -3.01362 -0.376078 0
M  V30 37558 H 3669.15 -1.4892 -0.119617 0
M  V30 37559 H 3671.03 -3.12565 -2.82633 0
M  V30 37560 H 3669.71 -1.9555 -2.57957 0
M  V30 37561 H 3668.62 -3.61512 -0.962283 0
M  V30 37562 H 3669.95 -4.75128 -1.28508 0
M  V30 37563 N 3671.6 0.168458 -1.56697 0
M  V30 37564 C 3672.56 1.19232 -1.95746 0
M  V30 37565 C 3673.56 1.37027 -0.841443 0
M  V30 37566 O 3674.75 1.34384 -1.10845 0
M  V30 37567 C 3671.89 2.55682 -2.25476 0
M  V30 37568 H 3673.08 0.857842 -2.87369 0
M  V30 37569 H 3670.63 0.411015 -1.50799 0
M  V30 37570 H 3671.37 2.94139 -1.36576 0
M  V30 37571 H 3671.15 2.44132 -3.06826 0
M  V30 37572 H 3672.64 3.29465 -2.56599 0
M  V30 37573 N 3673.08 1.51417 0.437109 0
M  V30 37574 C 3674.32 1.6434 1.18828 0
M  V30 37575 C 3674.66 0.358672 1.90859 0
M  V30 37576 O 3673.93 -0.641736 1.83608 0
M  V30 37577 C 3674.22 2.84688 2.2051 0
M  V30 37578 C 3674.07 4.23138 1.5256 0
M  V30 37579 C 3675.39 3.00555 3.21488 0
M  V30 37580 H 3672.51 0.598094 0.430642 0
M  V30 37581 H 3675.15 1.83902 0.477497 0
M  V30 37582 H 3673.3 2.68141 2.81128 0
M  V30 37583 H 3674.97 4.51353 0.952772 0
M  V30 37584 H 3673.21 4.25826 0.82795 0
M  V30 37585 H 3673.88 5.03339 2.26614 0
M  V30 37586 H 3676.36 3.15815 2.70924 0
M  V30 37587 H 3675.24 3.86326 3.89928 0
M  V30 37588 H 3675.5 2.12636 3.87606 0
M  V30 37589 N 3674.56 -0.692567 1.41567 0
M  V30 37590 C 3675.49 -1.81692 1.3807 0
M  V30 37591 C 3676.47 -1.60705 0.247511 0
M  V30 37592 O 3677.65 -1.83414 0.434902 0
M  V30 37593 C 3674.78 -3.18419 1.15444 0
M  V30 37594 C 3673.82 -3.5819 2.31521 0
M  V30 37595 S 3674.66 -3.62653 3.94009 0
M  V30 37596 C 3675.81 -5.02101 3.73692 0
M  V30 37597 H 3676.05 -1.84382 2.33218 0
M  V30 37598 H 3673.58 -0.861562 1.28127 0
M  V30 37599 H 3675.54 -3.97348 1.03076 0
M  V30 37600 H 3674.2 -3.13335 0.21911 0
M  V30 37601 H 3673.39 -4.57526 2.11391 0
M  V30 37602 H 3672.99 -2.86577 2.40312 0
M  V30 37603 H 3675.29 -5.89685 3.33583 0
M  V30 37604 H 3676.23 -5.27273 4.7264 0
M  V30 37605 H 3676.64 -4.73781 3.06907 0
M  V30 37606 N 3676.03 -1.27445 -0.927123 0
M  V30 37607 C 3677.31 -1.04541 -1.6532 0
M  V30 37608 C 3677.69 0.419658 -2.06887 0
M  V30 37609 O 3677.04 1.40301 -1.80355 0
M  V30 37610 C 3677.25 -2.00751 -2.85482 0
M  V30 37611 C 3678.6 -2.30153 -3.56812 0
M  V30 37612 O 3679.62 -1.98729 -2.9561 0
M  V30 37613 O 3678.48 -2.83722 -4.6708 0
M  V30 37614 H 3675.57 -0.398567 -0.72462 0
M  V30 37615 H 3678.12 -1.38712 -0.977609 0
M  V30 37616 H 3676.89 -2.99553 -2.51761 0
M  V30 37617 H 3676.52 -1.67146 -3.6076 0
M  V30 37618 N 3677.51 1.1337 -1.09476 0
M  V30 37619 C 3678.93 1.3665 -0.824565 0
M  V30 37620 C 3679.13 1.93537 0.560869 0
M  V30 37621 O 3678.18 2.15516 1.31563 0
M  V30 37622 C 3679.5 2.31736 -1.91622 0
M  V30 37623 C 3681.05 2.4535 -1.94351 0
M  V30 37624 C 3681.52 3.43744 -3.02661 0
M  V30 37625 N 3683.01 3.51295 -3.01904 0
M  V30 37626 C 3683.75 4.27311 -3.82352 0
M  V30 37627 N 3683.24 5.06476 -4.72709 0
M  V30 37628 N 3685.04 4.22617 -3.70609 0
M  V30 37629 H 3677.19 0.74797 -1.98794 0
M  V30 37630 H 3679.45 0.391631 -0.863325 0
M  V30 37631 H 3679.16 1.97093 -2.91286 0
M  V30 37632 H 3679.03 3.31758 -1.7949 0
M  V30 37633 H 3681.42 2.7928 -0.953256 0
M  V30 37634 H 3681.5 1.45251 -2.1056 0
M  V30 37635 H 3681.14 3.10546 -4.019 0
M  V30 37636 H 3681.07 4.4365 -2.83694 0
M  V30 37637 H 3683.56 2.9481 -2.36422 0
M  V30 37638 H 3683.88 5.61787 -5.30675 0
M  V30 37639 H 3682.22 5.05707 -4.76745 0
M  V30 37640 H 3685.41 3.59847 -2.99379 0
M  V30 37641 H 3685.58 4.81606 -4.33543 0
M  V30 37642 N 3678.99 0.882035 1.30606 0
M  V30 37643 C 3680.24 0.499738 1.96546 0
M  V30 37644 C 3680.57 -0.948068 1.69485 0
M  V30 37645 O 3679.84 -1.66946 0.997958 0
M  V30 37646 C 3680.13 0.771724 3.51733 0
M  V30 37647 C 3679.98 2.26994 3.88322 0
M  V30 37648 C 3681.3 0.246255 4.39411 0
M  V30 37649 H 3678.42 0.183039 0.713909 0
M  V30 37650 H 3681.06 1.10549 1.54528 0
M  V30 37651 H 3679.21 0.25616 3.87655 0
M  V30 37652 H 3680.88 2.85369 3.62439 0
M  V30 37653 H 3679.13 2.73776 3.36496 0
M  V30 37654 H 3679.8 2.41086 4.9657 0
M  V30 37655 H 3682.27 0.687491 4.10381 0
M  V30 37656 H 3681.15 0.465914 5.46919 0
M  V30 37657 H 3681.41 -0.852375 4.33805 0
M  V30 37658 N 3680.47 -1.439 0.642688 0
M  V30 37659 C 3681.42 -2.30734 -0.0552946 0
M  V30 37660 C 3682.39 -1.44148 -0.82526 0
M  V30 37661 O 3683.57 -1.73034 -0.803982 0
M  V30 37662 C 3680.71 -3.29589 -1.02301 0
M  V30 37663 C 3679.82 -4.31275 -0.250247 0
M  V30 37664 C 3678.96 -5.17216 -1.21081 0
M  V30 37665 C 3678 -6.10603 -0.427876 0
M  V30 37666 N 3677.13 -6.89204 -1.33949 0
M  V30 37667 H 3681.97 -2.89876 0.691089 0
M  V30 37668 H 3679.51 -1.42812 0.352575 0
M  V30 37669 H 3681.47 -3.85401 -1.59756 0
M  V30 37670 H 3680.1 -2.7212 -1.73638 0
M  V30 37671 H 3679.15 -3.77842 0.440426 0
M  V30 37672 H 3680.46 -4.97506 0.359024 0
M  V30 37673 H 3679.62 -5.77603 -1.85634 0
M  V30 37674 H 3678.36 -4.51086 -1.854 0
M  V30 37675 H 3677.36 -5.49314 0.231067 0
M  V30 37676 H 3678.59 -6.78773 0.210758 0
M  V30 37677 H 3676.53 -6.25731 -1.96967 0
M  V30 37678 H 3676.45 -7.51918 -0.784523 0
M  V30 37679 H 3677.72 -7.54104 -1.97349 0
M  V30 37680 N 3681.95 -0.383945 -1.52852 0
M  V30 37681 C 3683.19 0.199954 -2.0151 0
M  V30 37682 C 3683.52 1.47261 -1.27061 0
M  V30 37683 O 3682.78 1.924 -0.357853 0
M  V30 37684 C 3683.08 0.519612 -3.53603 0
M  V30 37685 C 3682.74 -0.660868 -4.46031 0
M  V30 37686 C 3681.4 -0.984729 -4.71016 0
M  V30 37687 C 3683.76 -1.45086 -5.00599 0
M  V30 37688 C 3681.08 -2.10023 -5.47821 0
M  V30 37689 C 3683.44 -2.55692 -5.78623 0
M  V30 37690 C 3682.1 -2.88593 -6.01889 0
M  V30 37691 H 3681.37 0.0731683 -0.737379 0
M  V30 37692 H 3684.02 -0.52019 -1.84299 0
M  V30 37693 H 3682.32 1.32101 -3.68858 0
M  V30 37694 H 3684.02 0.983943 -3.88741 0
M  V30 37695 H 3680.61 -0.398434 -4.26744 0
M  V30 37696 H 3684.79 -1.2139 -4.81226 0
M  V30 37697 H 3680.05 -2.3589 -5.64062 0
M  V30 37698 H 3684.22 -3.17311 -6.19909 0
M  V30 37699 H 3681.85 -3.7515 -6.61186 0
M  V30 37700 N 3683.43 1.5719 -0.113614 0
M  V30 37701 C 3684.36 2.12089 0.868948 0
M  V30 37702 C 3685.37 1.06236 1.23361 0
M  V30 37703 O 3686.56 1.33625 1.18349 0
M  V30 37704 C 3683.66 2.60109 2.17247 0
M  V30 37705 C 3682.83 3.90002 1.98033 0
M  V30 37706 C 3681.89 4.23676 3.12065 0
M  V30 37707 O 3680.92 4.92586 2.85215 0
M  V30 37708 N 3682.12 3.80564 4.38351 0
M  V30 37709 H 3684.88 2.97019 0.399944 0
M  V30 37710 H 3682.45 1.61744 0.0709662 0
M  V30 37711 H 3684.44 2.7967 2.92518 0
M  V30 37712 H 3683.01 1.80089 2.55513 0
M  V30 37713 H 3682.23 3.79404 1.06986 0
M  V30 37714 H 3683.52 4.74946 1.82494 0
M  V30 37715 H 3682.91 3.24974 4.63042 0
M  V30 37716 H 3681.47 4.05243 5.10511 0
M  V30 37717 N 3684.9 -0.160146 1.56784 0
M  V30 37718 C 3686.32 -0.512325 1.51154 0
M  V30 37719 C 3686.52 -1.84069 0.819807 0
M  V30 37720 O 3685.58 -2.4955 0.384833 0
M  V30 37721 C 3686.89 -0.534765 2.95907 0
M  V30 37722 C 3688.44 -0.621194 3.06774 0
M  V30 37723 C 3688.91 -0.674422 4.53007 0
M  V30 37724 N 3690.4 -0.737007 4.57299 0
M  V30 37725 C 3691.14 -0.798954 5.67807 0
M  V30 37726 N 3690.63 -0.821051 6.87918 0
M  V30 37727 N 3692.43 -0.838831 5.55806 0
M  V30 37728 H 3684.58 0.710747 2.00155 0
M  V30 37729 H 3686.84 0.257617 0.912325 0
M  V30 37730 H 3686.55 0.372835 3.49718 0
M  V30 37731 H 3686.42 -1.37734 3.51154 0
M  V30 37732 H 3688.81 -1.51922 2.5299 0
M  V30 37733 H 3688.89 0.248269 2.54592 0
M  V30 37734 H 3688.53 0.21939 5.07426 0
M  V30 37735 H 3688.46 -1.56019 5.02957 0
M  V30 37736 H 3690.95 -0.727761 3.70826 0
M  V30 37737 H 3691.27 -0.869803 7.67889 0
M  V30 37738 H 3689.61 -0.789143 6.90505 0
M  V30 37739 H 3692.8 -0.818647 4.60886 0
M  V30 37740 H 3692.98 -0.883645 6.41947 0
M  V30 37741 N 3686.38 -1.51647 -0.429072 0
M  V30 37742 C 3687.63 -1.63956 -1.17479 0
M  V30 37743 C 3687.94 -0.365684 -1.92151 0
M  V30 37744 O 3689.15 -0.368268 -2.68991 0
M  V30 37745 C 3687.61 -2.89588 -2.13697 0
M  V30 37746 C 3687.21 -4.2401 -1.44635 0
M  V30 37747 C 3688.96 -3.11257 -2.88651 0
M  V30 37748 C 3686.86 -5.40785 -2.39385 0
M  V30 37749 H 3685.79 -0.6107 -0.442223 0
M  V30 37750 H 3688.45 -1.78121 -0.441057 0
M  V30 37751 H 3686.83 -2.69076 -2.90541 0
M  V30 37752 H 3688 -4.54934 -0.732932 0
M  V30 37753 H 3686.32 -4.08286 -0.818013 0
M  V30 37754 H 3688.91 -3.95675 -3.59646 0
M  V30 37755 H 3689.26 -2.2467 -3.5047 0
M  V30 37756 H 3689.79 -3.32147 -2.18913 0
M  V30 37757 H 3686.53 -6.29657 -1.82244 0
M  V30 37758 H 3686.05 -5.14227 -3.08757 0
M  V30 37759 H 3687.73 -5.73066 -3.00339 0
M  V30 37760 N 3687.86 0.685049 -1.41932 0
M  V30 37761 C 3689.09 1.47148 -1.45021 0
M  V30 37762 C 3689.5 1.89114 -0.0569744 0
M  V30 37763 O 3688.84 1.58042 0.936392 0
M  V30 37764 C 3688.9 2.75858 -2.30527 0
M  V30 37765 C 3688.57 2.56031 -3.78546 0
M  V30 37766 C 3689.56 2.21295 -4.70452 0
M  V30 37767 C 3687.25 2.71344 -4.22703 0
M  V30 37768 C 3689.24 2.02125 -6.04503 0
M  V30 37769 C 3686.93 2.5179 -5.56817 0
M  V30 37770 C 3687.93 2.17232 -6.47533 0
M  V30 37771 O 3687.62 1.97859 -7.79171 0
M  V30 37772 H 3687.35 0.459638 -0.49569 0
M  V30 37773 H 3689.9 0.850047 -1.86985 0
M  V30 37774 H 3688.13 3.40446 -1.83394 0
M  V30 37775 H 3689.82 3.37703 -2.25192 0
M  V30 37776 H 3690.59 2.09069 -4.37624 0
M  V30 37777 H 3686.47 2.97224 -3.52391 0
M  V30 37778 H 3690.01 1.75074 -6.75274 0
M  V30 37779 H 3685.91 2.63609 -5.8922 0
M  V30 37780 H 3686.67 2.12538 -7.90424 0
M  V30 37781 N 3689.34 1.27935 0.920351 0
M  V30 37782 C 3690.27 1.07093 2.02642 0
M  V30 37783 C 3691.28 0.0247027 1.62781 0
M  V30 37784 O 3692.47 0.267055 1.76491 0
M  V30 37785 C 3689.57 0.603978 3.33475 0
M  V30 37786 C 3688.74 1.72414 4.01985 0
M  V30 37787 C 3687.8 1.25168 5.11096 0
M  V30 37788 O 3686.83 1.95271 5.34657 0
M  V30 37789 N 3688.03 0.111299 5.80393 0
M  V30 37790 H 3690.8 2.02344 2.21082 0
M  V30 37791 H 3688.36 1.19599 1.09122 0
M  V30 37792 H 3690.35 0.27165 4.03787 0
M  V30 37793 H 3688.92 -0.255502 3.11554 0
M  V30 37794 H 3688.14 2.22639 3.25309 0
M  V30 37795 H 3689.43 2.47573 4.44505 0
M  V30 37796 H 3688.83 -0.473647 5.63714 0
M  V30 37797 H 3687.38 -0.161798 6.51599 0
M  V30 37798 N 3690.82 -1.12788 1.10076 0
M  V30 37799 C 3692.06 -1.84215 0.840905 0
M  V30 37800 C 3692.39 -1.83893 -0.633519 0
M  V30 37801 O 3691.65 -1.27716 -1.4828 0
M  V30 37802 C 3691.94 -3.31741 1.32975 0
M  V30 37803 C 3691.61 -3.52237 2.81495 0
M  V30 37804 C 3690.27 -3.57539 3.22054 0
M  V30 37805 C 3692.62 -3.59657 3.77222 0
M  V30 37806 C 3689.95 -3.67801 4.57099 0
M  V30 37807 C 3692.3 -3.71448 5.12064 0
M  V30 37808 C 3690.97 -3.75005 5.52203 0
M  V30 37809 H 3690.24 -0.674089 0.307709 0
M  V30 37810 H 3692.89 -1.33113 1.37671 0
M  V30 37811 H 3691.19 -3.85241 0.713887 0
M  V30 37812 H 3692.89 -3.85468 1.10522 0
M  V30 37813 H 3689.48 -3.48771 2.49112 0
M  V30 37814 H 3693.66 -3.54834 3.46996 0
M  V30 37815 H 3688.92 -3.68825 4.87625 0
M  V30 37816 H 3693.09 -3.76131 5.86087 0
M  V30 37817 H 3690.72 -3.82709 6.56839 0
M  V30 37818 N 3692.29 -0.888949 -1.30136 0
M  V30 37819 C 3693.26 -0.363544 -2.26298 0
M  V30 37820 C 3694.26 0.496217 -1.52952 0
M  V30 37821 O 3695.45 0.302804 -1.71548 0
M  V30 37822 C 3692.58 0.481485 -3.37483 0
M  V30 37823 H 3693.77 -1.2127 -2.74288 0
M  V30 37824 H 3691.32 -0.666149 -1.41394 0
M  V30 37825 H 3692.06 1.35107 -2.94816 0
M  V30 37826 H 3691.84 -0.134412 -3.9187 0
M  V30 37827 H 3693.33 0.840744 -4.09049 0
M  V30 37828 N 3693.77 1.43557 -0.65031 0
M  V30 37829 C 3695.19 1.56408 -0.317613 0
M  V30 37830 C 3695.39 1.6345 1.17841 0
M  V30 37831 O 3694.44 1.58798 1.96315 0
M  V30 37832 C 3695.76 2.8264 -1.02641 0
M  V30 37833 C 3697.3 2.9638 -1.00638 0
M  V30 37834 C 3697.78 4.2544 -1.69602 0
M  V30 37835 N 3699.27 4.32298 -1.66352 0
M  V30 37836 C 3700.01 5.3092 -2.1659 0
M  V30 37837 N 3699.5 6.35838 -2.75103 0
M  V30 37838 N 3701.29 5.22554 -2.07107 0
M  V30 37839 H 3693.45 1.3723 -1.62116 0
M  V30 37840 H 3695.71 0.658883 -0.681599 0
M  V30 37841 H 3695.41 2.83489 -2.08151 0
M  V30 37842 H 3695.29 3.72774 -0.576146 0
M  V30 37843 H 3697.68 2.95072 0.0403 0
M  V30 37844 H 3697.76 2.07543 -1.49532 0
M  V30 37845 H 3697.4 4.27507 -2.74226 0
M  V30 37846 H 3697.33 5.13168 -1.18177 0
M  V30 37847 H 3699.82 3.57098 -1.2365 0
M  V30 37848 H 3700.13 7.07406 -3.11121 0
M  V30 37849 H 3698.48 6.36469 -2.79163 0
M  V30 37850 H 3701.67 4.39504 -1.61101 0
M  V30 37851 H 3701.84 5.99256 -2.46568 0
M  V30 37852 N 3695.25 0.392045 1.52646 0
M  V30 37853 C 3696.18 -0.433188 2.29447 0
M  V30 37854 C 3697.16 -1.06109 1.32947 0
M  V30 37855 O 3698.35 -1.07334 1.61842 0
M  V30 37856 C 3695.48 -1.55924 3.10331 0
M  V30 37857 C 3694.43 -1.05723 4.14737 0
M  V30 37858 C 3693.76 -2.27557 4.83862 0
M  V30 37859 C 3695.06 -0.123254 5.22155 0
M  V30 37860 H 3696.75 0.207615 2.98679 0
M  V30 37861 H 3694.3 0.101292 1.43643 0
M  V30 37862 H 3696.25 -2.14339 3.62818 0
M  V30 37863 H 3694.97 -2.22767 2.38836 0
M  V30 37864 H 3693.63 -0.495589 3.63235 0
M  V30 37865 H 3693.28 -2.92916 4.08913 0
M  V30 37866 H 3692.98 -1.94627 5.54431 0
M  V30 37867 H 3694.5 -2.8661 5.39154 0
M  V30 37868 H 3695.92 -0.615684 5.69984 0
M  V30 37869 H 3694.31 0.116409 5.99987 0
M  V30 37870 H 3695.38 0.827053 4.77795 0
M  V30 37871 N 3696.73 -1.57127 0.121948 0
M  V30 37872 C 3697.68 -2.16729 -0.844465 0
M  V30 37873 C 3698.67 -1.11732 -1.27328 0
M  V30 37874 O 3699.88 -1.3003 -1.24467 0
M  V30 37875 H 3696.25 -0.693646 -0.290447 0
M  V30 37876 H 3698.22 -2.96708 -0.317327 0
M  V30 37877 C 3696.97 -2.7836 -2.08354 0
M  V30 37878 H 3696.29 -3.58853 -1.76251 0
M  V30 37879 H 3697.73 -3.23597 -2.73972 0
M  V30 37880 C 3696.19 -1.75591 -2.87523 0
M  V30 37881 O 3696.72 -1.21107 -3.83009 0
M  V30 37882 N 3694.93 -1.45464 -2.51572 0
M  V30 37883 H 3694.48 -1.89961 -1.7399 0
M  V30 37884 H 3694.43 -0.769464 -3.04839 0
M  V30 37885 N 3698.21 0.151829 -1.56867 0
M  V30 37886 C 3699.44 0.879033 -1.86967 0
M  V30 37887 C 3699.84 1.7547 -0.707591 0
M  V30 37888 O 3699.19 1.80676 0.331934 0
M  V30 37889 C 3699.25 1.79092 -3.11715 0
M  V30 37890 C 3698.91 1.0929 -4.43739 0
M  V30 37891 C 3699.91 0.44909 -5.17957 0
M  V30 37892 C 3697.6 1.08385 -4.90467 0
M  V30 37893 C 3699.59 -0.194454 -6.37103 0
M  V30 37894 C 3697.28 0.43649 -6.09539 0
M  V30 37895 C 3698.27 -0.201539 -6.82703 0
M  V30 37896 O 3697.96 -0.838645 -7.99514 0
M  V30 37897 H 3697.69 0.259811 -0.624079 0
M  V30 37898 H 3700.25 0.150808 -2.04846 0
M  V30 37899 H 3698.48 2.55996 -2.89832 0
M  V30 37900 H 3700.17 2.38966 -3.28101 0
M  V30 37901 H 3700.93 0.447927 -4.82927 0
M  V30 37902 H 3696.81 1.56987 -4.33447 0
M  V30 37903 H 3700.36 -0.693052 -6.94149 0
M  V30 37904 H 3696.25 0.435303 -6.44031 0
M  V30 37905 H 3697.02 -0.739831 -8.1515 0
M  V30 37906 N 3699.68 1.51872 0.421024 0
M  V30 37907 C 3700.91 1.69177 1.19108 0
M  V30 37908 C 3701.33 0.396092 1.84598 0
M  V30 37909 O 3700.68 -0.626877 1.71396 0
M  V30 37910 C 3700.74 2.81902 2.26304 0
M  V30 37911 O 3700.46 4.06452 1.63489 0
M  V30 37912 C 3701.96 3.10616 3.16279 0
M  V30 37913 H 3699.18 0.567282 0.358375 0
M  V30 37914 H 3701.72 1.98372 0.496884 0
M  V30 37915 H 3699.88 2.55261 2.91412 0
M  V30 37916 H 3700.29 4.69178 2.34462 0
M  V30 37917 H 3701.76 3.93033 3.87594 0
M  V30 37918 H 3702.24 2.23682 3.77972 0
M  V30 37919 H 3702.85 3.38978 2.56854 0
M  V30 37920 N 3701.16 -0.677513 1.42294 0
M  V30 37921 C 3702.11 -1.79112 1.4556 0
M  V30 37922 C 3703.08 -1.63222 0.307855 0
M  V30 37923 O 3704.26 -1.83815 0.511536 0
M  V30 37924 C 3701.4 -3.17125 1.36109 0
M  V30 37925 C 3700.52 -3.44321 2.60897 0
M  V30 37926 C 3699.65 -4.72047 2.43609 0
M  V30 37927 C 3698.69 -4.92268 3.63784 0
M  V30 37928 N 3697.83 -6.11233 3.45455 0
M  V30 37929 H 3702.67 -1.75655 2.40726 0
M  V30 37930 H 3700.21 -0.857544 1.19518 0
M  V30 37931 H 3702.16 -3.96876 1.28629 0
M  V30 37932 H 3700.79 -3.19712 0.445398 0
M  V30 37933 H 3699.85 -2.58843 2.78755 0
M  V30 37934 H 3701.16 -3.55157 3.50235 0
M  V30 37935 H 3700.31 -5.59884 2.33699 0
M  V30 37936 H 3699.05 -4.63488 1.51756 0
M  V30 37937 H 3698.06 -4.02874 3.74129 0
M  V30 37938 H 3699.28 -5.02673 4.56614 0
M  V30 37939 H 3697.23 -6.03852 2.56317 0
M  V30 37940 H 3697.14 -6.22918 4.28379 0
M  V30 37941 H 3698.41 -7.01756 3.39351 0
M  V30 37942 N 3702.64 -1.28421 -0.913554 0
M  V30 37943 C 3703.89 -1.15358 -1.65942 0
M  V30 37944 C 3704.21 0.298194 -1.92707 0
M  V30 37945 O 3703.48 1.20654 -1.54335 0
M  V30 37946 H 3702.06 -0.423929 -0.615055 0
M  V30 37947 H 3704.72 -1.61152 -1.09617 0
M  V30 37948 H 3703.82 -1.69332 -2.6217 0
M  V30 37949 N 3704.12 1.12202 -1.10672 0
M  V30 37950 C 3705.08 2.16191 -0.761183 0
M  V30 37951 C 3706.08 1.59348 0.215571 0
M  V30 37952 O 3707.27 1.74198 -0.00789785 0
M  V30 37953 C 3704.4 3.4066 -0.127923 0
M  V30 37954 H 3705.6 2.48272 -1.68229 0
M  V30 37955 H 3703.15 1.27252 -0.907565 0
M  V30 37956 H 3703.88 3.14181 0.803796 0
M  V30 37957 H 3703.67 3.83195 -0.830918 0
M  V30 37958 H 3705.16 4.17485 0.0979859 0
M  V30 37959 N 3705.6 0.895838 1.29663 0
M  V30 37960 C 3706.82 0.535078 1.99861 0
M  V30 37961 C 3707.24 -0.879216 1.67079 0
M  V30 37962 O 3706.6 -1.57978 0.913745 0
M  V30 37963 C 3706.65 0.713194 3.54395 0
M  V30 37964 O 3706.37 2.07182 3.86015 0
M  V30 37965 C 3707.87 0.356869 4.41861 0
M  V30 37966 H 3705.09 0.20571 0.63869 0
M  V30 37967 H 3707.63 1.20412 1.65291 0
M  V30 37968 H 3705.79 0.0913797 3.87292 0
M  V30 37969 H 3706.2 2.09835 4.80697 0
M  V30 37970 H 3707.68 0.532349 5.49427 0
M  V30 37971 H 3708.15 -0.705838 4.33491 0
M  V30 37972 H 3708.76 0.955462 4.14429 0
M  V30 37973 N 3707.07 -1.43211 0.657914 0
M  V30 37974 C 3708.3 -2.06622 0.17948 0
M  V30 37975 C 3708.72 -1.49017 -1.14785 0
M  V30 37976 O 3708.08 -0.60195 -1.71015 0
M  V30 37977 C 3708.13 -3.60442 0.106889 0
M  V30 37978 O 3707.23 -4.01787 -0.929549 0
M  V30 37979 H 3706.58 -0.656873 0.0970246 0
M  V30 37980 H 3709.11 -1.83636 0.902165 0
M  V30 37981 H 3709.12 -4.07931 -0.0748783 0
M  V30 37982 H 3707.79 -4.01745 1.07581 0
M  V30 37983 H 3706.37 -3.65879 -0.72019 0
M  V30 37984 N 3708.55 -0.400135 -1.52436 0
M  V30 37985 C 3709.78 0.180825 -2.0661 0
M  V30 37986 C 3710.2 1.38843 -1.26903 0
M  V30 37987 O 3709.56 1.78853 -0.296894 0
M  V30 37988 C 3709.61 0.518532 -3.56852 0
M  V30 37989 O 3708.71 1.61089 -3.79637 0
M  V30 37990 H 3708.05 0.0181231 -0.663753 0
M  V30 37991 H 3710.58 -0.570736 -1.96478 0
M  V30 37992 H 3710.59 0.779746 -4.0048 0
M  V30 37993 H 3709.27 -0.364288 -4.14302 0
M  V30 37994 H 3707.85 1.34254 -3.47894 0
M  V30 37995 N 3710.03 1.57061 -0.13028 0
M  V30 37996 C 3710.98 2.15904 0.815729 0
M  V30 37997 C 3711.95 1.08717 1.25578 0
M  V30 37998 O 3713.13 1.36679 1.33129 0
M  V30 37999 C 3710.27 2.77165 2.05605 0
M  V30 38000 C 3709.39 3.98694 1.66333 0
M  V30 38001 C 3708.52 4.48007 2.85418 0
M  V30 38002 C 3707.56 5.62041 2.42439 0
M  V30 38003 N 3706.7 6.06046 3.54475 0
M  V30 38004 H 3711.54 2.96413 0.307112 0
M  V30 38005 H 3709.07 1.46433 0.139888 0
M  V30 38006 H 3711.03 3.1082 2.78293 0
M  V30 38007 H 3709.66 1.99328 2.53906 0
M  V30 38008 H 3708.71 3.71128 0.834751 0
M  V30 38009 H 3710.03 4.81357 1.30756 0
M  V30 38010 H 3709.18 4.83629 3.66316 0
M  V30 38011 H 3707.92 3.64318 3.24228 0
M  V30 38012 H 3706.92 5.26011 1.59975 0
M  V30 38013 H 3708.15 6.47504 2.04733 0
M  V30 38014 H 3706.09 5.25296 3.92938 0
M  V30 38015 H 3706.01 6.83592 3.22859 0
M  V30 38016 H 3707.28 6.46309 4.3578 0
M  V30 38017 N 3711.51 -0.143508 1.56945 0
M  V30 38018 C 3712.92 -0.703218 1.7295 0
M  V30 38019 C 3713.27 -1.81496 0.745225 0
M  V30 38020 O 3712.4 -2.16224 -0.0873764 0
M  V30 38021 C 3712.99 -1.28239 3.13593 0
M  V30 38022 C 3711.55 -1.78863 3.31187 0
M  V30 38023 C 3710.7 -0.678484 2.68872 0
M  V30 38024 H 3713.65 0.0821943 1.58487 0
M  V30 38025 H 3713.67 -2.15218 3.13785 0
M  V30 38026 H 3713.18 -0.473019 3.85207 0
M  V30 38027 H 3711.28 -2.62356 2.64576 0
M  V30 38028 H 3711.4 -1.91494 4.39166 0
M  V30 38029 H 3709.76 -1.10599 2.29434 0
M  V30 38030 H 3710.54 0.119497 3.43092 0
M  V30 38031 N 3712.99 -1.52093 -0.412964 0
M  V30 38032 C 3713.9 -1.78045 -1.52765 0
M  V30 38033 C 3714.91 -0.665819 -1.60757 0
M  V30 38034 O 3716.09 -0.950803 -1.77543 0
M  V30 38035 C 3713.15 -1.92218 -2.88536 0
M  V30 38036 C 3712.22 -3.16117 -2.90462 0
M  V30 38037 C 3711.45 -3.29605 -4.19757 0
M  V30 38038 O 3711.67 -2.48447 -5.13449 0
M  V30 38039 O 3710.61 -4.22734 -4.28462 0
M  V30 38040 H 3714.43 -2.72651 -1.33772 0
M  V30 38041 H 3712.02 -1.36891 -0.598437 0
M  V30 38042 H 3713.9 -2.03385 -3.6907 0
M  V30 38043 H 3712.57 -1.00801 -3.07605 0
M  V30 38044 H 3711.48 -3.10411 -2.08796 0
M  V30 38045 H 3712.81 -4.07303 -2.76342 0
M  V30 38046 N 3714.47 0.669957 -1.42651 0
M  V30 38047 C 3715.69 1.45813 -1.46786 0
M  V30 38048 C 3716.11 1.88628 -0.0806392 0
M  V30 38049 O 3715.47 1.58443 0.905659 0
M  V30 38050 C 3715.52 2.70409 -2.39919 0
M  V30 38051 O 3715.24 2.29389 -3.73245 0
M  V30 38052 C 3716.74 3.63927 -2.53125 0
M  V30 38053 H 3713.96 0.448505 -0.499084 0
M  V30 38054 H 3716.5 0.822786 -1.87218 0
M  V30 38055 H 3714.66 3.30121 -2.02728 0
M  V30 38056 H 3715.07 3.09884 -4.23169 0
M  V30 38057 H 3716.55 4.48063 -3.22402 0
M  V30 38058 H 3717.02 4.10153 -1.57069 0
M  V30 38059 H 3717.63 3.10105 -2.91058 0
M  V30 38060 N 3715.94 1.28904 0.90673 0
M  V30 38061 C 3717.35 1.14879 1.47173 0
M  V30 38062 C 3717.71 -0.258659 1.94488 0
M  V30 38063 O 3716.83 -1.15355 1.8309 0
M  V30 38064 C 3717.43 2.07933 2.67487 0
M  V30 38065 C 3715.98 1.97951 3.20144 0
M  V30 38066 C 3715.13 1.99267 1.92842 0
M  V30 38067 H 3718.08 1.41491 0.718753 0
M  V30 38068 H 3718.1 1.64744 3.42987 0
M  V30 38069 H 3717.62 3.1036 2.3302 0
M  V30 38070 H 3715.72 0.985869 3.59321 0
M  V30 38071 H 3715.83 2.85263 3.84918 0
M  V30 38072 H 3714.19 1.43768 2.10245 0
M  V30 38073 H 3714.98 3.03386 1.60661 0
M  V30 38074 N 3717.42 -1.11614 1.11266 0
M  V30 38075 C 3718.67 -1.8295 0.858697 0
M  V30 38076 C 3718.99 -1.84968 -0.617407 0
M  V30 38077 O 3718.26 -1.31895 -1.44846 0
M  V30 38078 H 3716.84 -0.677483 0.314683 0
M  V30 38079 H 3719.5 -1.3511 1.40468 0
M  V30 38080 H 3718.6 -2.86872 1.22927 0
M  V30 38081 N 3718.9 -0.902701 -1.29186 0
M  V30 38082 C 3720.15 -0.530943 -1.95726 0
M  V30 38083 C 3720.48 0.920984 -1.70972 0
M  V30 38084 O 3719.75 1.65337 -1.02439 0
M  V30 38085 C 3720.04 -0.827584 -3.50461 0
M  V30 38086 C 3719.89 -2.33143 -3.84661 0
M  V30 38087 C 3721.21 -0.31613 -4.38963 0
M  V30 38088 H 3718.33 -0.194374 -0.710906 0
M  V30 38089 H 3720.97 -1.12993 -1.5275 0
M  V30 38090 H 3719.12 -0.3178 -3.87198 0
M  V30 38091 H 3720.79 -2.91099 -3.57854 0
M  V30 38092 H 3719.03 -2.79094 -3.32098 0
M  V30 38093 H 3719.71 -2.48956 -4.92671 0
M  V30 38094 H 3722.18 -0.752692 -4.09236 0
M  V30 38095 H 3721.06 -0.552865 -5.46109 0
M  V30 38096 H 3721.32 0.783253 -4.35106 0
M  V30 38097 N 3720.38 1.4286 -0.6655 0
M  V30 38098 C 3721.61 2.05708 -0.191758 0
M  V30 38099 C 3722.02 1.50039 1.1526 0
M  V30 38100 O 3721.36 0.63119 1.72516 0
M  V30 38101 C 3721.42 3.59478 -0.0393635 0
M  V30 38102 C 3721.08 4.37793 -1.31096 0
M  V30 38103 C 3722.08 4.69055 -2.24241 0
M  V30 38104 C 3719.77 4.77593 -1.55597 0
M  V30 38105 C 3721.76 5.39039 -3.4017 0
M  V30 38106 C 3719.45 5.4732 -2.71817 0
M  V30 38107 C 3720.45 5.77967 -3.63928 0
M  V30 38108 O 3720.13 6.46266 -4.78116 0
M  V30 38109 H 3719.87 0.669578 -0.0929585 0
M  V30 38110 H 3722.42 1.84145 -0.909936 0
M  V30 38111 H 3720.65 3.79664 0.734305 0
M  V30 38112 H 3722.34 4.0399 0.393309 0
M  V30 38113 H 3723.1 4.38815 -2.06559 0
M  V30 38114 H 3718.98 4.53138 -0.847766 0
M  V30 38115 H 3722.53 5.62878 -4.12086 0
M  V30 38116 H 3718.42 5.76976 -2.89428 0
M  V30 38117 H 3719.19 6.64754 -4.7754 0
M  V30 38118 N 3721.86 0.408213 1.52221 0
M  V30 38119 C 3723.13 -0.226376 1.94286 0
M  V30 38120 C 3723.51 -1.62702 1.34504 0
M  V30 38121 O 3722.86 -2.22493 0.520489 0
M  V30 38122 C 3723.07 -0.233634 3.48217 0
M  V30 38123 C 3724.42 -0.45343 4.22172 0
M  V30 38124 O 3725.44 -0.31303 3.54822 0
M  V30 38125 O 3724.3 -0.730088 5.41601 0
M  V30 38126 H 3721.4 -0.145611 0.81408 0
M  V30 38127 H 3723.94 0.464091 1.63231 0
M  V30 38128 H 3722.71 0.746712 3.84109 0
M  V30 38129 H 3722.34 -0.968237 3.85631 0
M  V30 38130 N 3723.33 -1.56989 0.138607 0
M  V30 38131 C 3724.27 -2.12095 -0.842068 0
M  V30 38132 C 3725.24 -1.04234 -1.24796 0
M  V30 38133 O 3726.43 -1.32012 -1.34555 0
M  V30 38134 C 3723.56 -2.63377 -2.12956 0
M  V30 38135 C 3722.6 -3.83307 -1.87024 0
M  V30 38136 S 3723.43 -5.24726 -1.06879 0
M  V30 38137 C 3724.59 -5.7939 -2.36766 0
M  V30 38138 H 3724.82 -2.94945 -0.373424 0
M  V30 38139 H 3722.36 -1.54215 -0.0755295 0
M  V30 38140 H 3724.31 -2.93575 -2.86922 0
M  V30 38141 H 3722.98 -1.80673 -2.56936 0
M  V30 38142 H 3722.17 -4.17404 -2.8247 0
M  V30 38143 H 3721.77 -3.53827 -1.2117 0
M  V30 38144 H 3724.06 -5.9031 -3.32476 0
M  V30 38145 H 3725.01 -6.77111 -2.07185 0
M  V30 38146 H 3725.41 -5.07579 -2.4703 0
M  V30 38147 N 3724.81 0.135183 -1.57019 0
M  V30 38148 C 3726.09 0.875159 -1.7493 0
M  V30 38149 C 3726.47 1.98809 -0.70979 0
M  V30 38150 O 3725.82 2.26909 0.269198 0
M  V30 38151 C 3726.03 1.40675 -3.19392 0
M  V30 38152 C 3727.37 1.8655 -3.81424 0
M  V30 38153 O 3728.4 1.50391 -3.22895 0
M  V30 38154 O 3727.26 2.53274 -4.84267 0
M  V30 38155 H 3724.35 0.414418 -0.715672 0
M  V30 38156 H 3726.9 0.120185 -1.69274 0
M  V30 38157 H 3725.67 0.607496 -3.86556 0
M  V30 38158 H 3725.29 2.2249 -3.29521 0
M  V30 38159 N 3726.29 1.5231 0.404892 0
M  V30 38160 C 3727.54 1.66248 1.14918 0
M  V30 38161 C 3727.86 0.396901 1.90918 0
M  V30 38162 O 3727.13 -0.588328 1.86857 0
M  V30 38163 H 3725.71 0.612779 0.427212 0
M  V30 38164 H 3728.37 1.89368 0.461058 0
M  V30 38165 H 3727.47 2.50553 1.8609 0
M  V30 38166 N 3727.77 -0.662382 1.43004 0
M  V30 38167 C 3729.18 -0.976981 1.26203 0
M  V30 38168 C 3729.38 -2.00737 0.175139 0
M  V30 38169 O 3728.44 -2.48467 -0.449496 0
M  V30 38170 C 3729.75 -1.46997 2.62321 0
M  V30 38171 C 3731.3 -1.58709 2.69778 0
M  V30 38172 C 3731.78 -2.11401 4.06293 0
M  V30 38173 N 3733.27 -2.18716 4.0831 0
M  V30 38174 C 3734 -2.60589 5.10765 0
M  V30 38175 N 3733.5 -3.01824 6.23598 0
M  V30 38176 N 3735.29 -2.60447 4.9812 0
M  V30 38177 H 3727.44 0.0196071 2.12391 0
M  V30 38178 H 3729.71 -0.0537878 0.946473 0
M  V30 38179 H 3729.41 -0.7873 3.42775 0
M  V30 38180 H 3729.29 -2.44659 2.87092 0
M  V30 38181 H 3731.67 -2.26079 1.89663 0
M  V30 38182 H 3731.75 -0.595037 2.48783 0
M  V30 38183 H 3731.4 -1.44636 4.86871 0
M  V30 38184 H 3731.33 -3.11421 4.24647 0
M  V30 38185 H 3733.82 -1.8966 3.2686 0
M  V30 38186 H 3734.13 -3.32496 6.97614 0
M  V30 38187 H 3732.48 -2.9965 6.27084 0
M  V30 38188 H 3735.67 -2.27604 4.09041 0
M  V30 38189 H 3735.84 -2.92759 5.78097 0
M  V30 38190 N 3729.25 -1.29383 -0.899882 0
M  V30 38191 C 3730.19 -1.14378 -2.02535 0
M  V30 38192 C 3731.19 -0.0594201 -1.69296 0
M  V30 38193 O 3732.39 -0.219206 -1.7866 0
M  V30 38194 H 3728.77 -0.353303 -0.663838 0
M  V30 38195 H 3730.74 -2.09664 -2.12329 0
M  V30 38196 C 3729.49 -0.836904 -3.37478 0
M  V30 38197 H 3728.81 -1.66332 -3.63557 0
M  V30 38198 H 3730.25 -0.771947 -4.16914 0
M  V30 38199 C 3728.71 0.45983 -3.33747 0
M  V30 38200 O 3729.24 1.48594 -3.73206 0
M  V30 38201 N 3727.45 0.465606 -2.86846 0
M  V30 38202 H 3726.99 -0.369878 -2.54931 0
M  V30 38203 H 3726.95 1.33322 -2.84732 0
M  V30 38204 N 3730.72 1.11022 -1.11856 0
M  V30 38205 C 3731.95 1.87189 -0.893032 0
M  V30 38206 C 3732.37 1.79817 0.552026 0
M  V30 38207 O 3731.73 1.16371 1.39023 0
M  V30 38208 C 3731.78 3.33777 -1.36475 0
M  V30 38209 O 3730.88 4.08859 -0.539274 0
M  V30 38210 H 3730.23 0.581071 -0.32133 0
M  V30 38211 H 3732.76 1.40308 -1.48912 0
M  V30 38212 H 3732.77 3.84625 -1.36117 0
M  V30 38213 H 3731.44 3.38458 -2.417 0
M  V30 38214 H 3730.02 3.67888 -0.609335 0
M  V30 38215 N 3732.2 0.90954 1.28706 0
M  V30 38216 C 3733.15 0.384796 2.29395 0
M  V30 38217 C 3734.14 -0.52129 1.6118 0
M  V30 38218 O 3735.35 -0.403001 1.75431 0
M  V30 38219 H 3731.73 0.105827 0.744516 0
M  V30 38220 H 3733.7 1.24719 2.71086 0
M  V30 38221 C 3732.45 -0.363734 3.45792 0
M  V30 38222 H 3731.77 0.324268 3.98483 0
M  V30 38223 H 3733.21 -0.695607 4.18255 0
M  V30 38224 C 3731.67 -1.57007 2.98078 0
M  V30 38225 O 3732.2 -2.66923 3.00191 0
M  V30 38226 N 3730.4 -1.41561 2.53789 0
M  V30 38227 H 3729.95 -0.521371 2.52269 0
M  V30 38228 H 3729.91 -2.22404 2.22224 0
M  V30 38229 N 3733.68 -1.42505 0.673067 0
M  V30 38230 C 3734.91 -2.05902 0.202959 0
M  V30 38231 C 3735.32 -1.50558 -1.1392 0
M  V30 38232 O 3734.68 -0.644692 -1.70734 0
M  V30 38233 C 3734.73 -3.61275 0.127413 0
M  V30 38234 O 3734.45 -4.14567 1.41654 0
M  V30 38235 C 3735.95 -4.41783 -0.366399 0
M  V30 38236 H 3733.17 -0.66364 0.0991138 0
M  V30 38237 H 3735.72 -1.82671 0.919314 0
M  V30 38238 H 3733.87 -3.83623 -0.53962 0
M  V30 38239 H 3734.29 -5.0842 1.28875 0
M  V30 38240 H 3735.76 -5.50771 -0.36817 0
M  V30 38241 H 3736.24 -4.16244 -1.40135 0
M  V30 38242 H 3736.84 -4.24449 0.268836 0
M  V30 38243 N 3735.16 -0.41628 -1.52003 0
M  V30 38244 C 3736.09 0.39663 -2.30107 0
M  V30 38245 C 3737.07 1.03981 -1.34618 0
M  V30 38246 O 3738.25 1.04746 -1.6353 0
M  V30 38247 C 3735.38 1.50967 -3.12772 0
M  V30 38248 C 3734.34 0.991117 -4.16366 0
M  V30 38249 C 3733.66 2.1983 -4.87421 0
M  V30 38250 C 3734.96 0.0401681 -5.22285 0
M  V30 38251 H 3736.66 -0.255106 -2.98311 0
M  V30 38252 H 3734.2 -0.124131 -1.43464 0
M  V30 38253 H 3736.16 2.0854 -3.66182 0
M  V30 38254 H 3734.88 2.18939 -2.4235 0
M  V30 38255 H 3733.54 0.437739 -3.63977 0
M  V30 38256 H 3733.19 2.86373 -4.13521 0
M  V30 38257 H 3732.89 1.85782 -5.57457 0
M  V30 38258 H 3734.41 2.77996 -5.43646 0
M  V30 38259 H 3735.83 0.524926 -5.70892 0
M  V30 38260 H 3734.22 -0.211847 -5.99726 0
M  V30 38261 H 3735.29 -0.902961 -4.76419 0
M  V30 38262 N 3736.64 1.56914 -0.146931 0
M  V30 38263 C 3737.57 2.1977 0.788886 0
M  V30 38264 C 3738.55 1.14591 1.2571 0
M  V30 38265 O 3739.73 1.42934 1.31467 0
M  V30 38266 C 3736.86 2.81925 2.02819 0
M  V30 38267 C 3735.82 3.9293 1.69676 0
M  V30 38268 C 3735.14 4.4202 3.0087 0
M  V30 38269 C 3736.44 5.13708 0.943469 0
M  V30 38270 H 3738.14 2.98225 0.265024 0
M  V30 38271 H 3735.68 1.43447 0.126032 0
M  V30 38272 H 3737.64 3.24564 2.68768 0
M  V30 38273 H 3736.36 2.00801 2.57578 0
M  V30 38274 H 3735.02 3.50909 1.06106 0
M  V30 38275 H 3734.67 3.57719 3.53619 0
M  V30 38276 H 3734.37 5.16892 2.79457 0
M  V30 38277 H 3735.89 4.8733 3.67889 0
M  V30 38278 H 3737.3 5.53192 1.50504 0
M  V30 38279 H 3735.7 5.94342 0.829282 0
M  V30 38280 H 3736.77 4.84857 -0.0648081 0
M  V30 38281 N 3738.11 -0.126854 1.57089 0
M  V30 38282 C 3739.06 -1.17502 2.00739 0
M  V30 38283 C 3740.06 -1.43325 0.903011 0
M  V30 38284 O 3741.26 -1.4338 1.08822 0
M  V30 38285 H 3737.64 -0.395992 0.639292 0
M  V30 38286 H 3739.61 -0.780322 2.88017 0
M  V30 38287 C 3738.36 -2.49565 2.42101 0
M  V30 38288 H 3737.68 -2.3053 3.26643 0
M  V30 38289 H 3739.12 -3.21485 2.76448 0
M  V30 38290 C 3737.58 -3.11574 1.28153 0
M  V30 38291 O 3738.11 -3.97296 0.593215 0
M  V30 38292 N 3736.32 -2.7133 1.0406 0
M  V30 38293 H 3735.86 -2.01717 1.60212 0
M  V30 38294 H 3735.82 -3.1315 0.28013 0
M  V30 38295 N 3739.59 -1.52523 -0.396809 0
M  V30 38296 C 3740.52 -1.79711 -1.49085 0
M  V30 38297 C 3741.5 -0.648705 -1.57244 0
M  V30 38298 O 3742.69 -0.895525 -1.72319 0
M  V30 38299 C 3739.82 -1.95892 -2.86781 0
M  V30 38300 C 3738.77 -3.11547 -2.93466 0
M  V30 38301 C 3738.1 -3.12971 -4.33536 0
M  V30 38302 C 3739.4 -4.5077 -2.63824 0
M  V30 38303 H 3741.09 -2.71325 -1.26583 0
M  V30 38304 H 3738.64 -1.30558 -0.607512 0
M  V30 38305 H 3740.59 -2.13495 -3.63315 0
M  V30 38306 H 3739.32 -1.00961 -3.10603 0
M  V30 38307 H 3737.97 -2.93715 -2.19379 0
M  V30 38308 H 3737.62 -2.15737 -4.54386 0
M  V30 38309 H 3737.32 -3.90658 -4.38931 0
M  V30 38310 H 3738.85 -3.32718 -5.11987 0
M  V30 38311 H 3740.26 -4.68745 -3.30078 0
M  V30 38312 H 3738.66 -5.30467 -2.80579 0
M  V30 38313 H 3739.73 -4.58021 -1.59201 0
M  V30 38314 N 3741.07 0.654789 -1.43354 0
M  V30 38315 C 3742.35 1.41193 -1.35366 0
M  V30 38316 C 3742.73 2.111 -0.000698629 0
M  V30 38317 O 3742.08 2.0468 1.01579 0
M  V30 38318 C 3742.29 2.39792 -2.53576 0
M  V30 38319 C 3743.63 3.03839 -2.96593 0
M  V30 38320 O 3744.66 2.50119 -2.53612 0
M  V30 38321 O 3743.52 4.01232 -3.71046 0
M  V30 38322 H 3740.61 0.630746 -0.534872 0
M  V30 38323 H 3743.16 0.681829 -1.554 0
M  V30 38324 H 3741.93 1.87072 -3.43686 0
M  V30 38325 H 3741.55 3.20254 -2.35633 0
M  V30 38326 N 3742.55 1.29858 0.893007 0
M  V30 38327 C 3743.96 1.16433 1.45946 0
M  V30 38328 C 3744.31 -0.238016 1.94751 0
M  V30 38329 O 3743.44 -1.13407 1.84304 0
M  V30 38330 C 3744.03 2.10758 2.65267 0
M  V30 38331 C 3742.59 2.01336 3.18027 0
M  V30 38332 C 3741.74 2.01301 1.90718 0
M  V30 38333 H 3744.69 1.42245 0.703705 0
M  V30 38334 H 3744.71 1.68372 3.4122 0
M  V30 38335 H 3744.22 3.12814 2.29715 0
M  V30 38336 H 3742.32 1.02392 3.58255 0
M  V30 38337 H 3742.44 2.89329 3.81871 0
M  V30 38338 H 3740.8 1.4599 2.08708 0
M  V30 38339 H 3741.58 3.05073 1.57434 0
M  V30 38340 N 3744.03 -1.10427 1.12443 0
M  V30 38341 C 3744.94 -2.20341 0.805416 0
M  V30 38342 C 3745.95 -1.72779 -0.205805 0
M  V30 38343 O 3747.13 -2.01361 -0.0393841 0
M  V30 38344 C 3744.19 -3.45688 0.264772 0
M  V30 38345 C 3743.26 -4.07984 1.33593 0
M  V30 38346 C 3742.49 -5.27348 0.820993 0
M  V30 38347 O 3742.71 -5.69354 -0.345203 0
M  V30 38348 O 3741.65 -5.80502 1.59062 0
M  V30 38349 H 3745.47 -2.50062 1.72344 0
M  V30 38350 H 3743.06 -1.19166 0.901105 0
M  V30 38351 H 3744.94 -4.21388 -0.0318424 0
M  V30 38352 H 3743.61 -3.17593 -0.625813 0
M  V30 38353 H 3742.52 -3.33968 1.68572 0
M  V30 38354 H 3743.85 -4.40282 2.20029 0
M  V30 38355 N 3745.51 -0.916353 -1.28221 0
M  V30 38356 C 3746.45 -0.396956 -2.29188 0
M  V30 38357 C 3747.45 0.512735 -1.61454 0
M  V30 38358 O 3748.65 0.393692 -1.75642 0
M  V30 38359 H 3745.03 -0.109774 -0.743945 0
M  V30 38360 H 3747 -1.26155 -2.70421 0
M  V30 38361 C 3745.75 0.345391 -3.4598 0
M  V30 38362 H 3745.07 -0.345396 -3.98305 0
M  V30 38363 H 3746.51 0.673416 -4.18618 0
M  V30 38364 C 3744.97 1.55424 -2.98906 0
M  V30 38365 O 3745.5 2.65328 -3.01603 0
M  V30 38366 N 3743.71 1.40213 -2.54536 0
M  V30 38367 H 3743.25 0.507985 -2.52542 0
M  V30 38368 H 3743.21 2.21223 -2.23401 0
M  V30 38369 N 3746.98 1.42146 -0.680615 0
M  V30 38370 C 3748.23 2.01755 -0.205602 0
M  V30 38371 C 3748.56 1.5372 1.18675 0
M  V30 38372 O 3747.84 0.741899 1.79795 0
M  V30 38373 C 3748.12 3.59254 -0.246678 0
M  V30 38374 C 3747.97 4.17453 -1.6749 0
M  V30 38375 C 3749.29 4.38261 0.401883 0
M  V30 38376 H 3746.41 0.733052 -0.0761846 0
M  V30 38377 H 3749.05 1.69091 -0.866503 0
M  V30 38378 H 3747.2 3.87212 0.316059 0
M  V30 38379 H 3748.88 4.00427 -2.29033 0
M  V30 38380 H 3747.12 3.73061 -2.21377 0
M  V30 38381 H 3747.79 5.26597 -1.65528 0
M  V30 38382 H 3750.27 4.16028 -0.0772081 0
M  V30 38383 H 3749.14 5.4783 0.342531 0
M  V30 38384 H 3749.4 4.16579 1.48036 0
M  V30 38385 N 3748.46 0.424336 1.5178 0
M  V30 38386 C 3749.71 -0.146674 2.02269 0
M  V30 38387 C 3750.04 -1.43488 1.30862 0
M  V30 38388 O 3749.32 -1.89921 0.419537 0
M  V30 38389 C 3749.6 -0.378798 3.58102 0
M  V30 38390 C 3749.45 0.927147 4.40141 0
M  V30 38391 C 3750.77 -1.15431 4.24693 0
M  V30 38392 H 3747.89 -0.0518327 0.735175 0
M  V30 38393 H 3750.53 0.560785 1.81536 0
M  V30 38394 H 3748.68 -0.98143 3.75899 0
M  V30 38395 H 3750.35 1.56276 4.34022 0
M  V30 38396 H 3748.6 1.53471 4.05745 0
M  V30 38397 H 3749.27 0.718933 5.47298 0
M  V30 38398 H 3751.74 -0.643968 4.11087 0
M  V30 38399 H 3750.62 -1.28548 5.33635 0
M  V30 38400 H 3750.88 -2.17899 3.84672 0
M  V30 38401 N 3749.94 -1.56833 0.15525 0
M  V30 38402 C 3751.19 -1.96387 -0.493791 0
M  V30 38403 C 3751.51 -1.04051 -1.64328 0
M  V30 38404 O 3750.77 -0.0713466 -1.9557 0
M  V30 38405 C 3751.07 -3.42134 -1.0334 0
M  V30 38406 C 3750.73 -4.509 -0.00149289 0
M  V30 38407 C 3749.4 -4.80372 0.282153 0
M  V30 38408 C 3751.75 -5.16481 0.699775 0
M  V30 38409 C 3749.08 -5.72729 1.27273 0
M  V30 38410 C 3751.43 -6.09906 1.67923 0
M  V30 38411 C 3750.09 -6.37752 1.97049 0
M  V30 38412 H 3749.36 -0.718632 -0.180691 0
M  V30 38413 H 3752.01 -1.89941 0.243822 0
M  V30 38414 H 3750.31 -3.45452 -1.84851 0
M  V30 38415 H 3752.01 -3.70071 -1.54431 0
M  V30 38416 H 3748.6 -4.27968 -0.232749 0
M  V30 38417 H 3752.79 -4.93837 0.493838 0
M  V30 38418 H 3748.04 -5.92594 1.50474 0
M  V30 38419 H 3752.22 -6.59795 2.22808 0
M  V30 38420 H 3749.84 -7.09121 2.73956 0
M  V30 38421 N 3751.42 0.118521 -1.57154 0
M  V30 38422 C 3752.65 0.839177 -1.88789 0
M  V30 38423 C 3753.06 1.7393 -0.744651 0
M  V30 38424 O 3752.4 1.8134 0.293535 0
M  V30 38425 C 3752.46 1.7244 -3.15444 0
M  V30 38426 C 3752.12 0.998535 -4.45958 0
M  V30 38427 C 3753.12 0.339123 -5.18793 0
M  V30 38428 C 3750.81 0.97957 -4.92656 0
M  V30 38429 C 3752.8 -0.32955 -6.36548 0
M  V30 38430 C 3750.49 0.3071 -6.10328 0
M  V30 38431 C 3751.49 -0.346305 -6.82121 0
M  V30 38432 O 3751.17 -1.00804 -7.97555 0
M  V30 38433 H 3750.91 0.246515 -0.629449 0
M  V30 38434 H 3753.46 0.107323 -2.05119 0
M  V30 38435 H 3751.69 2.49791 -2.95197 0
M  V30 38436 H 3753.38 2.31953 -3.33096 0
M  V30 38437 H 3754.14 0.34539 -4.83769 0
M  V30 38438 H 3750.02 1.47758 -4.36679 0
M  V30 38439 H 3753.57 -0.840135 -6.92523 0
M  V30 38440 H 3749.46 0.298597 -6.44809 0
M  V30 38441 H 3750.23 -0.91257 -8.13397 0
M  V30 38442 N 3752.9 1.52731 0.388715 0
M  V30 38443 C 3754.14 1.68037 1.1354 0
M  V30 38444 C 3754.47 0.41921 1.89621 0
M  V30 38445 O 3753.75 -0.582998 1.85557 0
M  V30 38446 C 3754.03 2.9156 2.11341 0
M  V30 38447 C 3753.89 4.27777 1.39021 0
M  V30 38448 C 3755.2 3.10631 3.11764 0
M  V30 38449 H 3752.32 0.611492 0.411396 0
M  V30 38450 H 3754.97 1.85328 0.418749 0
M  V30 38451 H 3753.12 2.76949 2.72455 0
M  V30 38452 H 3754.79 4.54156 0.808695 0
M  V30 38453 H 3753.03 4.28244 0.692058 0
M  V30 38454 H 3753.7 5.10294 2.10486 0
M  V30 38455 H 3756.18 3.24275 2.6074 0
M  V30 38456 H 3755.05 3.98536 3.7744 0
M  V30 38457 H 3755.31 2.2486 3.80645 0
M  V30 38458 N 3754.37 -0.647178 1.43699 0
M  V30 38459 C 3755.62 -1.40422 1.45348 0
M  V30 38460 C 3755.94 -1.94831 0.0811633 0
M  V30 38461 O 3755.21 -1.74803 -0.884349 0
M  V30 38462 H 3753.79 -0.521171 0.535154 0
M  V30 38463 H 3756.45 -0.762856 1.7935 0
M  V30 38464 H 3755.55 -2.24356 2.16958 0
M  V30 38465 N 3755.85 -1.3033 -0.886108 0
M  V30 38466 C 3757.1 -1.18852 -1.63458 0
M  V30 38467 C 3757.42 0.257251 -1.93296 0
M  V30 38468 O 3756.69 1.17353 -1.5686 0
M  V30 38469 H 3755.27 -0.43688 -0.605925 0
M  V30 38470 H 3757.93 -1.63441 -1.06174 0
M  V30 38471 H 3757.03 -1.74855 -2.58519 0
M  V30 38472 N 3757.33 1.0983 -1.13028 0
M  V30 38473 C 3758.56 1.85422 -0.91117 0
M  V30 38474 C 3758.97 1.81232 0.543293 0
M  V30 38475 O 3758.31 1.20374 1.38766 0
M  V30 38476 C 3758.37 3.34551 -1.3159 0
M  V30 38477 C 3758.04 3.62493 -2.78294 0
M  V30 38478 C 3759.03 3.58566 -3.76466 0
M  V30 38479 C 3756.72 3.9097 -3.15353 0
M  V30 38480 C 3758.71 3.8272 -5.0971 0
M  V30 38481 C 3756.4 4.1478 -4.48777 0
M  V30 38482 C 3757.4 4.10646 -5.45765 0
M  V30 38483 O 3757.09 4.33844 -6.76783 0
M  V30 38484 H 3756.82 0.592679 -0.325127 0
M  V30 38485 H 3759.37 1.39715 -1.50562 0
M  V30 38486 H 3757.6 3.80944 -0.664695 0
M  V30 38487 H 3759.29 3.91545 -1.06993 0
M  V30 38488 H 3760.06 3.36597 -3.49181 0
M  V30 38489 H 3755.94 3.93315 -2.40466 0
M  V30 38490 H 3759.48 3.79408 -5.85402 0
M  V30 38491 H 3755.38 4.36229 -4.75788 0
M  V30 38492 H 3756.15 4.51326 -6.82823 0
M  V30 38493 N 3758.81 0.92314 1.27734 0
M  V30 38494 C 3760.22 0.606407 1.76577 0
M  V30 38495 C 3760.57 -0.878397 1.75438 0
M  V30 38496 O 3759.7 -1.68728 1.35498 0
M  V30 38497 C 3760.29 1.09402 3.2065 0
M  V30 38498 C 3758.85 0.828039 3.67179 0
M  V30 38499 C 3758 1.25537 2.47257 0
M  V30 38500 H 3760.95 1.1034 1.14065 0
M  V30 38501 H 3760.97 0.439647 3.77952 0
M  V30 38502 H 3760.48 2.1747 3.21447 0
M  V30 38503 H 3758.58 -0.239033 3.71832 0
M  V30 38504 H 3758.69 1.44237 4.56872 0
M  V30 38505 H 3757.06 0.673971 2.45621 0
M  V30 38506 H 3757.84 2.34459 2.50766 0
M  V30 38507 N 3760.29 -1.41783 0.688143 0
M  V30 38508 C 3761.7 -1.84408 0.291657 0
M  V30 38509 C 3762.05 -1.57589 -1.16877 0
M  V30 38510 O 3761.17 -1.04252 -1.89633 0
M  V30 38511 C 3761.77 -3.34746 0.52257 0
M  V30 38512 C 3760.33 -3.75969 0.180074 0
M  V30 38513 C 3759.47 -2.65252 0.808502 0
M  V30 38514 H 3762.43 -1.3144 0.889343 0
M  V30 38515 H 3762.45 -3.79857 -0.2211 0
M  V30 38516 H 3761.96 -3.54234 1.58556 0
M  V30 38517 H 3760.06 -3.62085 -0.878948 0
M  V30 38518 H 3760.17 -4.74941 0.62991 0
M  V30 38519 H 3758.54 -2.53579 0.238709 0
M  V30 38520 H 3759.32 -2.8756 1.87522 0
M  V30 38521 N 3761.76 -0.432379 -1.51553 0
M  V30 38522 C 3763.04 0.195438 -1.94621 0
M  V30 38523 C 3763.42 1.60542 -1.37075 0
M  V30 38524 O 3762.77 2.21637 -0.55582 0
M  V30 38525 C 3762.98 0.178206 -3.48545 0
M  V30 38526 C 3764.33 0.386209 -4.2284 0
M  V30 38527 O 3765.35 0.256541 -3.55275 0
M  V30 38528 O 3764.21 0.643831 -5.42694 0
M  V30 38529 H 3761.3 0.132641 -0.816294 0
M  V30 38530 H 3763.85 -0.49 -1.62472 0
M  V30 38531 H 3762.62 -0.807726 -3.82873 0
M  V30 38532 H 3762.25 0.906764 -3.87122 0
M  V30 38533 N 3763.24 1.56749 -0.163565 0
M  V30 38534 C 3764.49 1.96646 0.483369 0
M  V30 38535 C 3764.82 1.04921 1.63774 0
M  V30 38536 O 3764.07 0.0817172 1.95529 0
M  V30 38537 C 3764.37 3.42677 1.01524 0
M  V30 38538 C 3764.04 4.50894 -0.0224194 0
M  V30 38539 C 3762.7 4.80216 -0.307624 0
M  V30 38540 C 3765.05 5.16103 -0.727155 0
M  V30 38541 C 3762.38 5.72046 -1.30309 0
M  V30 38542 C 3764.73 6.09006 -1.71155 0
M  V30 38543 C 3763.4 6.36698 -2.00428 0
M  V30 38544 H 3762.67 0.71958 0.176877 0
M  V30 38545 H 3765.31 1.89809 -0.253892 0
M  V30 38546 H 3763.62 3.46428 1.83017 0
M  V30 38547 H 3765.31 3.70884 1.52466 0
M  V30 38548 H 3761.9 4.28085 0.210049 0
M  V30 38549 H 3766.09 4.93568 -0.520021 0
M  V30 38550 H 3761.34 5.91788 -1.53615 0
M  V30 38551 H 3765.52 6.58604 -2.26304 0
M  V30 38552 H 3763.15 7.07658 -2.77713 0
M  V30 38553 N 3764.72 -0.110185 1.57214 0
M  V30 38554 C 3765.67 -1.1347 2.0098 0
M  V30 38555 C 3766.64 -1.40656 0.883461 0
M  V30 38556 O 3767.82 -1.52374 1.14834 0
M  V30 38557 C 3764.96 -2.45379 2.42659 0
M  V30 38558 C 3764.08 -2.25053 3.68748 0
M  V30 38559 C 3763.21 -3.50254 3.99369 0
M  V30 38560 C 3762.25 -3.25124 5.18614 0
M  V30 38561 N 3761.39 -4.42551 5.45062 0
M  V30 38562 H 3766.23 -0.754492 2.8829 0
M  V30 38563 H 3763.76 -0.361039 1.42601 0
M  V30 38564 H 3765.72 -3.22341 2.64863 0
M  V30 38565 H 3764.35 -2.81276 1.58379 0
M  V30 38566 H 3763.4 -1.38966 3.54108 0
M  V30 38567 H 3764.72 -2.02467 4.5586 0
M  V30 38568 H 3763.87 -4.3563 4.22269 0
M  V30 38569 H 3762.61 -3.7588 3.10749 0
M  V30 38570 H 3761.61 -2.38139 4.9555 0
M  V30 38571 H 3762.84 -3.00859 6.08819 0
M  V30 38572 H 3760.78 -4.68281 4.594 0
M  V30 38573 H 3760.7 -4.231 6.26516 0
M  V30 38574 H 3761.97 -5.29035 5.72487 0
M  V30 38575 N 3766.2 -1.52935 -0.38061 0
M  V30 38576 C 3767.13 -1.81282 -1.47171 0
M  V30 38577 C 3768.11 -0.665347 -1.56548 0
M  V30 38578 O 3769.29 -0.913752 -1.7136 0
M  V30 38579 C 3766.42 -1.98923 -2.84687 0
M  V30 38580 C 3765.38 -3.14642 -2.90145 0
M  V30 38581 C 3764.7 -3.17551 -4.30192 0
M  V30 38582 C 3766 -4.53543 -2.59029 0
M  V30 38583 H 3767.7 -2.72652 -1.23698 0
M  V30 38584 H 3765.24 -1.31195 -0.593631 0
M  V30 38585 H 3767.2 -2.17336 -3.6103 0
M  V30 38586 H 3765.92 -1.04249 -3.09515 0
M  V30 38587 H 3764.58 -2.96025 -2.16251 0
M  V30 38588 H 3764.23 -2.20544 -4.52072 0
M  V30 38589 H 3763.93 -3.95291 -4.34763 0
M  V30 38590 H 3765.45 -3.3813 -5.08429 0
M  V30 38591 H 3766.87 -4.72219 -3.25088 0
M  V30 38592 H 3765.26 -5.33413 -2.74937 0
M  V30 38593 H 3766.33 -4.59684 -1.54334 0
M  V30 38594 N 3767.68 0.639548 -1.4404 0
M  V30 38595 C 3769.09 1.22102 -1.41238 0
M  V30 38596 C 3769.44 1.95812 -0.123402 0
M  V30 38597 O 3768.56 2.01985 0.776606 0
M  V30 38598 C 3769.16 2.22087 -2.55857 0
M  V30 38599 C 3767.72 2.7568 -2.56276 0
M  V30 38600 C 3766.86 1.5054 -2.3288 0
M  V30 38601 H 3769.82 0.430729 -1.52743 0
M  V30 38602 H 3769.84 3.04529 -2.28128 0
M  V30 38603 H 3769.35 1.68411 -3.49656 0
M  V30 38604 H 3767.45 3.33382 -1.66395 0
M  V30 38605 H 3767.56 3.22293 -3.54491 0
M  V30 38606 H 3765.93 1.78374 -1.8181 0
M  V30 38607 H 3766.71 0.987787 -3.28782 0
M  V30 38608 N 3769.15 1.30798 0.879184 0
M  V30 38609 C 3770.38 1.23024 1.66973 0
M  V30 38610 C 3770.8 -0.202765 1.87004 0
M  V30 38611 O 3770.16 -1.14564 1.40516 0
M  V30 38612 C 3770.21 1.97012 3.02024 0
M  V30 38613 O 3769.31 1.30116 3.91336 0
M  V30 38614 H 3768.66 0.425213 0.50999 0
M  V30 38615 H 3771.19 1.72715 1.09685 0
M  V30 38616 H 3771.2 2.06255 3.52027 0
M  V30 38617 H 3769.87 3.01229 2.86764 0
M  V30 38618 H 3768.45 1.29265 3.49779 0
M  V30 38619 N 3770.63 -1.09229 1.13608 0
M  V30 38620 C 3772.05 -1.33495 0.874713 0
M  V30 38621 C 3772.25 -1.95485 -0.488653 0
M  V30 38622 O 3771.31 -2.20251 -1.23474 0
M  V30 38623 C 3772.62 -2.24465 2.0009 0
M  V30 38624 C 3774.17 -2.37968 2.03323 0
M  V30 38625 C 3774.64 -3.32274 3.15211 0
M  V30 38626 N 3776.13 -3.39848 3.14734 0
M  V30 38627 C 3776.87 -4.12826 3.97948 0
M  V30 38628 N 3776.36 -4.88583 4.91181 0
M  V30 38629 N 3778.16 -4.08571 3.86039 0
M  V30 38630 H 3770.31 -0.673674 2.01433 0
M  V30 38631 H 3772.57 -0.359319 0.877265 0
M  V30 38632 H 3772.28 -1.86146 2.984 0
M  V30 38633 H 3772.15 -3.24868 1.91679 0
M  V30 38634 H 3774.54 -2.75549 1.05625 0
M  V30 38635 H 3774.62 -1.37336 2.15806 0
M  V30 38636 H 3774.26 -2.95416 4.13149 0
M  V30 38637 H 3774.19 -4.32815 2.99965 0
M  V30 38638 H 3776.68 -2.85832 2.47201 0
M  V30 38639 H 3777 -5.41704 5.51159 0
M  V30 38640 H 3775.34 -4.87664 4.95185 0
M  V30 38641 H 3778.53 -3.48488 3.12528 0
M  V30 38642 H 3778.71 -4.65183 4.51119 0
M  V30 38643 N 3772.11 -0.929901 -1.27242 0
M  V30 38644 C 3773.04 -0.448106 -2.2916 0
M  V30 38645 C 3774.02 0.492747 -1.62807 0
M  V30 38646 O 3775.21 0.397026 -1.90098 0
M  V30 38647 C 3772.34 0.297942 -3.4602 0
M  V30 38648 C 3771.29 -0.555286 -4.24383 0
M  V30 38649 C 3770.62 0.320059 -5.33741 0
M  V30 38650 C 3771.92 -1.82088 -4.89532 0
M  V30 38651 H 3773.61 -1.29988 -2.6971 0
M  V30 38652 H 3771.16 -0.626488 -1.29658 0
M  V30 38653 H 3773.11 0.645951 -4.1642 0
M  V30 38654 H 3771.83 1.18376 -3.04392 0
M  V30 38655 H 3770.49 -0.886033 -3.55732 0
M  V30 38656 H 3770.14 1.20489 -4.88356 0
M  V30 38657 H 3769.84 -0.247344 -5.87079 0
M  V30 38658 H 3771.37 0.663591 -6.06983 0
M  V30 38659 H 3772.78 -1.54081 -5.52207 0
M  V30 38660 H 3771.18 -2.33196 -5.52937 0
M  V30 38661 H 3772.25 -2.53908 -4.13108 0
M  V30 38662 N 3773.59 1.41416 -0.695653 0
M  V30 38663 C 3774.81 2.06073 -0.234199 0
M  V30 38664 C 3775.24 1.52008 1.10793 0
M  V30 38665 O 3774.6 0.64708 1.69359 0
M  V30 38666 C 3774.65 3.60031 -0.202417 0
M  V30 38667 O 3773.75 4.04111 0.822696 0
M  V30 38668 H 3773.09 0.65407 -0.114406 0
M  V30 38669 H 3775.62 1.81179 -0.950535 0
M  V30 38670 H 3775.63 4.07986 -0.0333038 0
M  V30 38671 H 3774.31 3.98751 -1.18195 0
M  V30 38672 H 3772.88 3.6766 0.622931 0
M  V30 38673 N 3775.07 0.44041 1.51321 0
M  V30 38674 C 3776.31 -0.125027 2.02114 0
M  V30 38675 C 3776.64 -1.42444 1.32439 0
M  V30 38676 O 3775.9 -1.9094 0.429014 0
M  V30 38677 C 3776.2 -0.388017 3.55287 0
M  V30 38678 C 3775.86 0.825954 4.43271 0
M  V30 38679 C 3774.52 1.15887 4.67037 0
M  V30 38680 C 3776.88 1.63566 4.94869 0
M  V30 38681 C 3774.2 2.3021 5.39648 0
M  V30 38682 C 3776.56 2.76991 5.68734 0
M  V30 38683 C 3775.22 3.10733 5.90763 0
M  V30 38684 H 3774.49 -0.0457505 0.739586 0
M  V30 38685 H 3777.14 0.588233 1.82242 0
M  V30 38686 H 3775.44 -1.1832 3.73507 0
M  V30 38687 H 3777.14 -0.838986 3.92125 0
M  V30 38688 H 3773.73 0.556543 4.24971 0
M  V30 38689 H 3777.91 1.39166 4.76389 0
M  V30 38690 H 3773.17 2.56662 5.54918 0
M  V30 38691 H 3777.34 3.401 6.07705 0
M  V30 38692 H 3774.97 3.99431 6.46807 0
M  V30 38693 N 3776.55 -1.5666 0.171876 0
M  V30 38694 C 3777.96 -1.83489 -0.344758 0
M  V30 38695 C 3778.31 -1.0917 -1.63023 0
M  V30 38696 O 3777.43 -0.344918 -2.13634 0
M  V30 38697 C 3778.03 -3.32848 -0.632282 0
M  V30 38698 C 3776.59 -3.6017 -1.09335 0
M  V30 38699 C 3775.73 -2.76997 -0.12952 0
M  V30 38700 H 3778.68 -1.53677 0.396128 0
M  V30 38701 H 3778.71 -3.50356 -1.48428 0
M  V30 38702 H 3778.22 -3.86912 0.303477 0
M  V30 38703 H 3776.32 -3.11518 -2.04419 0
M  V30 38704 H 3776.43 -4.68502 -1.00213 0
M  V30 38705 H 3774.8 -2.46862 -0.62699 0
M  V30 38706 H 3775.58 -3.33842 0.80027 0
M  V30 38707 N 3778.02 0.101846 -1.57271 0
M  V30 38708 C 3779.43 0.657116 -1.74754 0
M  V30 38709 C 3779.79 1.79456 -0.793084 0
M  V30 38710 O 3778.91 2.16379 0.0300178 0
M  V30 38711 C 3779.51 1.19879 -3.16882 0
M  V30 38712 C 3778.06 1.70019 -3.35813 0
M  V30 38713 C 3777.21 0.606959 -2.70576 0
M  V30 38714 H 3780.16 -0.124185 -1.58213 0
M  V30 38715 H 3780.18 2.06823 -3.19381 0
M  V30 38716 H 3779.7 0.370722 -3.86325 0
M  V30 38717 H 3777.8 2.55249 -2.71439 0
M  V30 38718 H 3777.91 1.79783 -4.44089 0
M  V30 38719 H 3776.27 1.04477 -2.32286 0
M  V30 38720 H 3777.06 -0.21042 -3.42655 0
M  V30 38721 N 3779.5 1.53135 0.372494 0
M  V30 38722 C 3780.73 1.7263 1.135 0
M  V30 38723 C 3781.14 0.45191 1.83724 0
M  V30 38724 O 3780.48 -0.584508 1.74153 0
M  V30 38725 C 3780.54 2.83204 2.2144 0
M  V30 38726 C 3780.21 4.23785 1.71042 0
M  V30 38727 C 3781.21 5.06373 1.17823 0
M  V30 38728 C 3778.89 4.7017 1.76765 0
M  V30 38729 C 3780.88 6.33434 0.709938 0
M  V30 38730 C 3778.57 5.97211 1.29548 0
M  V30 38731 C 3779.57 6.78674 0.767515 0
M  V30 38732 O 3779.26 8.03331 0.302291 0
M  V30 38733 H 3778.99 0.580985 0.345589 0
M  V30 38734 H 3781.54 2.00644 0.439443 0
M  V30 38735 H 3779.77 2.50649 2.94469 0
M  V30 38736 H 3781.46 2.90944 2.83031 0
M  V30 38737 H 3782.23 4.71713 1.12746 0
M  V30 38738 H 3778.11 4.0684 2.16801 0
M  V30 38739 H 3781.65 6.96967 0.297171 0
M  V30 38740 H 3777.55 6.31371 1.34316 0
M  V30 38741 H 3778.32 8.1741 0.422256 0
M  V30 38742 N 3780.98 -0.6319 1.44377 0
M  V30 38743 C 3781.93 -1.7439 1.51184 0
M  V30 38744 C 3782.9 -1.6216 0.359627 0
M  V30 38745 O 3784.08 -1.82095 0.569757 0
M  V30 38746 C 3781.22 -3.12634 1.4613 0
M  V30 38747 C 3780.33 -3.35846 2.71719 0
M  V30 38748 C 3779.47 -4.64057 2.58504 0
M  V30 38749 C 3778.51 -4.80445 3.79261 0
M  V30 38750 N 3777.65 -5.99933 3.64726 0
M  V30 38751 H 3782.49 -1.67908 2.46193 0
M  V30 38752 H 3780.02 -0.819086 1.22186 0
M  V30 38753 H 3781.98 -3.92583 1.4119 0
M  V30 38754 H 3780.61 -3.18134 0.546887 0
M  V30 38755 H 3779.66 -2.49843 2.86849 0
M  V30 38756 H 3780.97 -3.43835 3.61357 0
M  V30 38757 H 3780.13 -5.52165 2.51393 0
M  V30 38758 H 3778.87 -4.58426 1.66425 0
M  V30 38759 H 3777.87 -3.90767 3.86757 0
M  V30 38760 H 3779.1 -4.87892 4.72375 0
M  V30 38761 H 3777.04 -5.95392 2.75398 0
M  V30 38762 H 3776.96 -6.08975 4.4798 0
M  V30 38763 H 3778.23 -6.90604 3.61505 0
M  V30 38764 N 3782.46 -1.31262 -0.872235 0
M  V30 38765 C 3783.71 -1.20579 -1.62188 0
M  V30 38766 C 3784.03 0.236735 -1.93558 0
M  V30 38767 O 3783.3 1.15683 -1.58096 0
M  V30 38768 H 3781.88 -0.443282 -0.601257 0
M  V30 38769 H 3784.54 -1.64558 -1.04435 0
M  V30 38770 H 3783.63 -1.77587 -2.5665 0
M  V30 38771 N 3783.94 1.08625 -1.14186 0
M  V30 38772 C 3785.18 1.82573 -0.919048 0
M  V30 38773 C 3785.54 1.84112 0.544697 0
M  V30 38774 O 3786.74 2.538 0.885373 0
M  V30 38775 C 3785.01 3.24363 -1.50078 0
M  V30 38776 S 3786.57 4.15215 -1.41922 0
M  V30 38777 H 3783.39 0.629218 -0.331067 0
M  V30 38778 H 3785.99 1.30583 -1.45493 0
M  V30 38779 H 3784.69 3.20824 -2.5593 0
M  V30 38780 H 3784.23 3.81426 -0.963196 0
M  V30 38781 H 3786.24 4.94559 -0.40323 0
M  V30 38782 N 3785.41 0.936635 1.26747 0
M  V30 38783 C 3786.66 0.577558 1.93254 0
M  V30 38784 C 3786.98 -0.886875 1.74338 0
M  V30 38785 O 3788.18 -1.35513 2.35263 0
M  V30 38786 C 3786.64 0.982179 3.46239 0
M  V30 38787 C 3786.25 2.46791 3.73896 0
M  V30 38788 C 3787.99 0.694779 4.18776 0
M  V30 38789 C 3785.9 2.81147 5.20298 0
M  V30 38790 H 3784.83 0.212289 0.723498 0
M  V30 38791 H 3787.48 1.13866 1.43899 0
M  V30 38792 H 3785.86 0.349647 3.94453 0
M  V30 38793 H 3787.03 3.14911 3.36404 0
M  V30 38794 H 3785.35 2.72813 3.14582 0
M  V30 38795 H 3787.95 0.927848 5.26588 0
M  V30 38796 H 3788.29 -0.368319 4.14667 0
M  V30 38797 H 3788.82 1.28682 3.76412 0
M  V30 38798 H 3785.56 3.86401 5.29504 0
M  V30 38799 H 3785.08 2.17685 5.58904 0
M  V30 38800 H 3786.76 2.69368 5.8826 0
M  V30 38801 N 3786.89 -1.41045 0.703143 0
M  V30 38802 C 3787.8 -2.3456 0.0433189 0
M  V30 38803 C 3788.82 -1.56637 -0.757676 0
M  V30 38804 O 3789.99 -1.89084 -0.693497 0
M  V30 38805 C 3787.06 -3.35442 -0.876326 0
M  V30 38806 C 3786.12 -4.29248 -0.0666845 0
M  V30 38807 C 3785.35 -5.25311 -0.942529 0
M  V30 38808 O 3785.58 -5.27017 -2.18196 0
M  V30 38809 O 3784.51 -6.00647 -0.38816 0
M  V30 38810 H 3788.34 -2.92578 0.814354 0
M  V30 38811 H 3785.92 -1.42027 0.463528 0
M  V30 38812 H 3787.8 -3.97342 -1.40346 0
M  V30 38813 H 3786.48 -2.79856 -1.62672 0
M  V30 38814 H 3785.39 -3.70673 0.50523 0
M  V30 38815 H 3786.72 -4.87953 0.645214 0
M  V30 38816 N 3788.37 -0.448429 -1.51086 0
M  V30 38817 C 3789.3 0.347732 -2.30896 0
M  V30 38818 C 3790.28 1.01102 -1.36793 0
M  V30 38819 O 3791.47 1.01254 -1.65715 0
M  V30 38820 C 3788.6 1.44298 -3.15904 0
M  V30 38821 C 3787.55 0.902577 -4.18375 0
M  V30 38822 C 3786.88 2.09442 -4.91974 0
M  V30 38823 C 3788.18 -0.0706253 -5.22252 0
M  V30 38824 H 3789.87 -0.318325 -2.97703 0
M  V30 38825 H 3787.42 -0.154534 -1.43168 0
M  V30 38826 H 3789.37 2.00726 -3.70523 0
M  V30 38827 H 3788.09 2.13749 -2.46939 0
M  V30 38828 H 3786.75 0.360436 -3.64824 0
M  V30 38829 H 3786.4 2.77537 -4.19502 0
M  V30 38830 H 3786.1 1.73916 -5.61273 0
M  V30 38831 H 3787.62 2.66402 -5.4942 0
M  V30 38832 H 3789.04 0.403714 -5.71877 0
M  V30 38833 H 3787.44 -0.33901 -5.99142 0
M  V30 38834 H 3788.51 -1.00381 -4.74396 0
M  V30 38835 N 3789.85 1.56567 -0.180181 0
M  V30 38836 C 3791.13 1.88853 0.509314 0
M  V30 38837 C 3791.51 1.09145 1.80695 0
M  V30 38838 O 3790.85 0.188014 2.27725 0
M  V30 38839 C 3791.06 3.41008 0.742609 0
M  V30 38840 C 3792.41 4.10932 1.06866 0
M  V30 38841 O 3793.44 3.46375 0.830846 0
M  V30 38842 O 3792.29 5.25002 1.51775 0
M  V30 38843 H 3789.39 0.78386 0.263615 0
M  V30 38844 H 3791.93 1.68277 -0.21928 0
M  V30 38845 H 3790.71 3.90911 -0.174379 0
M  V30 38846 H 3790.33 3.67225 1.5242 0
M  V30 38847 N 3791.33 -0.0935042 1.57322 0
M  V30 38848 C 3792.6 -0.828471 1.77188 0
M  V30 38849 C 3792.98 -1.96858 0.762251 0
M  V30 38850 O 3792.33 -2.27543 -0.208942 0
M  V30 38851 C 3792.54 -1.32158 3.2301 0
M  V30 38852 C 3793.89 -1.76372 3.86236 0
M  V30 38853 O 3794.91 -1.41777 3.26769 0
M  V30 38854 O 3793.77 -2.40345 4.90812 0
M  V30 38855 H 3790.87 -0.395298 0.726408 0
M  V30 38856 H 3793.41 -0.0752626 1.69533 0
M  V30 38857 H 3792.18 -0.504794 3.8803 0
M  V30 38858 H 3791.81 -2.13675 3.35304 0
M  V30 38859 N 3792.8 -1.5333 -0.364368 0
M  V30 38860 C 3793.73 -1.82832 -1.4524 0
M  V30 38861 C 3794.72 -0.681913 -1.55833 0
M  V30 38862 O 3795.9 -0.931875 -1.70381 0
M  V30 38863 C 3793.03 -2.01931 -2.82562 0
M  V30 38864 C 3791.98 -3.17702 -2.86792 0
M  V30 38865 C 3791.31 -3.22096 -4.268 0
M  V30 38866 C 3792.61 -4.56265 -2.54204 0
M  V30 38867 H 3794.3 -2.73949 -1.208 0
M  V30 38868 H 3791.85 -1.31817 -0.579682 0
M  V30 38869 H 3793.8 -2.21153 -3.58705 0
M  V30 38870 H 3792.53 -1.07526 -3.08392 0
M  V30 38871 H 3791.19 -2.98302 -2.131 0
M  V30 38872 H 3790.83 -2.25326 -4.49708 0
M  V30 38873 H 3790.53 -3.9988 -4.30546 0
M  V30 38874 H 3792.06 -3.43504 -5.04815 0
M  V30 38875 H 3793.47 -4.75641 -3.20061 0
M  V30 38876 H 3791.87 -5.36299 -2.69264 0
M  V30 38877 H 3792.94 -4.61295 -1.4945 0
M  V30 38878 N 3794.28 0.624234 -1.4471 0
M  V30 38879 C 3795.23 1.75704 -1.52417 0
M  V30 38880 C 3796.22 1.64722 -0.395332 0
M  V30 38881 O 3797.43 1.70718 -0.570565 0
M  V30 38882 H 3793.81 0.580195 -0.478411 0
M  V30 38883 H 3795.78 1.66329 -2.47745 0
M  V30 38884 C 3794.53 3.14055 -1.49213 0
M  V30 38885 H 3793.85 3.23157 -2.35393 0
M  V30 38886 H 3795.29 3.93194 -1.58665 0
M  V30 38887 C 3793.75 3.3622 -0.213936 0
M  V30 38888 O 3794.28 3.95321 0.713059 0
M  V30 38889 N 3792.48 2.90373 -0.114885 0
M  V30 38890 H 3792.03 2.42461 -0.870089 0
M  V30 38891 H 3791.99 3.05578 0.739566 0
M  V30 38892 N 3795.76 1.31723 0.865262 0
M  V30 38893 C 3796.67 1.21741 2.0054 0
M  V30 38894 C 3797.69 0.133154 1.7349 0
M  V30 38895 O 3798.86 0.351844 1.98303 0
M  V30 38896 C 3795.93 0.930104 3.33991 0
M  V30 38897 C 3794.99 2.10174 3.74333 0
M  V30 38898 C 3794.22 1.82804 5.01416 0
M  V30 38899 O 3794.44 0.765444 5.65241 0
M  V30 38900 O 3793.38 2.68614 5.38637 0
M  V30 38901 H 3797.2 2.17565 2.11895 0
M  V30 38902 H 3794.79 1.11509 0.994293 0
M  V30 38903 H 3796.67 0.785919 4.14006 0
M  V30 38904 H 3795.35 0.00194332 3.237 0
M  V30 38905 H 3794.25 2.30135 2.94939 0
M  V30 38906 H 3795.59 3.01232 3.89256 0
M  V30 38907 N 3797.24 -1.08018 1.14761 0
M  V30 38908 C 3798.19 -2.17139 0.833862 0
M  V30 38909 C 3799.18 -1.68332 -0.18991 0
M  V30 38910 O 3800.39 -1.79942 -0.0456131 0
M  V30 38911 H 3796.76 -0.708535 0.251956 0
M  V30 38912 H 3798.73 -2.40824 1.762 0
M  V30 38913 C 3797.48 -3.4611 0.332091 0
M  V30 38914 H 3796.8 -3.84046 1.11123 0
M  V30 38915 H 3798.24 -4.2373 0.151152 0
M  V30 38916 C 3796.7 -3.23372 -0.945096 0
M  V30 38917 O 3797.23 -3.4733 -2.01804 0
M  V30 38918 N 3795.44 -2.76895 -0.881914 0
M  V30 38919 H 3794.99 -2.57599 -0.0086124 0
M  V30 38920 H 3794.94 -2.62059 -1.73701 0
M  V30 38921 N 3798.72 -0.943344 -1.26249 0
M  V30 38922 C 3799.96 -0.592943 -1.93938 0
M  V30 38923 C 3800.3 0.866125 -1.73816 0
M  V30 38924 O 3799.57 1.61995 -1.07647 0
M  V30 38925 C 3799.85 -0.938662 -3.47651 0
M  V30 38926 C 3799.71 -2.45263 -3.77049 0
M  V30 38927 C 3801.03 -0.455623 -4.37735 0
M  V30 38928 H 3798.14 -0.216892 -0.704363 0
M  V30 38929 H 3800.79 -1.17796 -1.49078 0
M  V30 38930 H 3798.94 -0.440824 -3.85991 0
M  V30 38931 H 3800.61 -3.02336 -3.48411 0
M  V30 38932 H 3798.85 -2.89518 -3.2305 0
M  V30 38933 H 3799.52 -2.64504 -4.84502 0
M  V30 38934 H 3802 -0.882506 -4.06634 0
M  V30 38935 H 3800.87 -0.726325 -5.44073 0
M  V30 38936 H 3801.14 0.644431 -4.37378 0
M  V30 38937 N 3800.2 1.4067 -0.710613 0
M  V30 38938 C 3801.13 2.33397 -0.0695011 0
M  V30 38939 C 3802.11 1.52627 0.750932 0
M  V30 38940 O 3803.29 1.81112 0.700864 0
M  V30 38941 C 3800.42 3.36569 0.856645 0
M  V30 38942 C 3799.38 4.27764 0.142201 0
M  V30 38943 C 3798.7 5.21433 1.18373 0
M  V30 38944 C 3800 5.12626 -1.00061 0
M  V30 38945 H 3801.7 2.87258 -0.843996 0
M  V30 38946 H 3799.24 1.38119 -0.407311 0
M  V30 38947 H 3801.19 4.00373 1.3145 0
M  V30 38948 H 3799.92 2.81092 1.66298 0
M  V30 38949 H 3798.58 3.65405 -0.295779 0
M  V30 38950 H 3798.23 4.62263 1.98298 0
M  V30 38951 H 3797.93 5.83287 0.710608 0
M  V30 38952 H 3799.45 5.88114 1.64179 0
M  V30 38953 H 3800.86 5.69912 -0.622346 0
M  V30 38954 H 3799.26 5.83498 -1.40178 0
M  V30 38955 H 3800.33 4.48899 -1.83352 0
M  V30 38956 N 3801.67 0.456435 1.50846 0
M  V30 38957 C 3802.9 -0.104018 2.07139 0
M  V30 38958 C 3803.32 -1.34037 1.31968 0
M  V30 38959 O 3802.68 -1.77627 0.363069 0
M  V30 38960 C 3802.73 -0.385731 3.58531 0
M  V30 38961 O 3801.83 -1.46888 3.85354 0
M  V30 38962 H 3801.17 0.00652413 0.663968 0
M  V30 38963 H 3803.7 0.643265 1.94225 0
M  V30 38964 H 3803.71 -0.630574 4.03098 0
M  V30 38965 H 3802.39 0.517803 4.12664 0
M  V30 38966 H 3800.97 -1.2125 3.52637 0
M  V30 38967 N 3803.15 -1.56469 0.188482 0
M  V30 38968 C 3804.08 -2.21784 -0.73034 0
M  V30 38969 C 3805.06 -1.17884 -1.22627 0
M  V30 38970 O 3806.25 -1.46369 -1.27631 0
M  V30 38971 C 3803.38 -2.87203 -1.95273 0
M  V30 38972 C 3802.33 -3.97291 -1.59198 0
M  V30 38973 C 3801.66 -4.49842 -2.89044 0
M  V30 38974 C 3802.96 -5.16029 -0.806936 0
M  V30 38975 H 3804.65 -2.98823 -0.185862 0
M  V30 38976 H 3802.2 -1.43731 -0.0879552 0
M  V30 38977 H 3804.15 -3.31576 -2.60068 0
M  V30 38978 H 3802.87 -2.0756 -2.52163 0
M  V30 38979 H 3801.53 -3.53599 -0.967651 0
M  V30 38980 H 3801.18 -3.66969 -3.4401 0
M  V30 38981 H 3800.88 -5.2412 -2.65654 0
M  V30 38982 H 3802.41 -4.96912 -3.54839 0
M  V30 38983 H 3803.82 -5.56988 -1.35784 0
M  V30 38984 H 3802.22 -5.96332 -0.671412 0
M  V30 38985 H 3803.29 -4.84514 0.193336 0
M  V30 38986 N 3804.63 0.0851597 -1.5737 0
M  V30 38987 C 3805.86 0.798943 -1.90527 0
M  V30 38988 C 3806.27 1.72311 -0.781377 0
M  V30 38989 O 3805.61 1.81921 0.255004 0
M  V30 38990 C 3805.67 1.6571 -3.1903 0
M  V30 38991 C 3805.34 0.903716 -4.47975 0
M  V30 38992 C 3806.33 0.229003 -5.19395 0
M  V30 38993 C 3804.02 0.87485 -4.94623 0
M  V30 38994 C 3806.01 -0.464497 -6.35705 0
M  V30 38995 C 3803.7 0.177571 -6.10842 0
M  V30 38996 C 3804.7 -0.490915 -6.81233 0
M  V30 38997 O 3804.39 -1.17699 -7.95237 0
M  V30 38998 H 3804.12 0.233108 -0.634537 0
M  V30 38999 H 3806.67 0.0637905 -2.05301 0
M  V30 39000 H 3804.9 2.43473 -3.00429 0
M  V30 39001 H 3806.59 2.24835 -3.37941 0
M  V30 39002 H 3807.36 0.242698 -4.84392 0
M  V30 39003 H 3803.24 1.38462 -4.39715 0
M  V30 39004 H 3806.78 -0.98684 -6.90585 0
M  V30 39005 H 3802.68 0.161756 -6.45297 0
M  V30 39006 H 3803.44 -1.0849 -8.11278 0
M  V30 39007 N 3806.11 1.53521 0.356231 0
M  V30 39008 C 3807.06 1.81301 1.45715 0
M  V30 39009 C 3808.05 0.68268 1.55035 0
M  V30 39010 O 3809.26 0.865794 1.5781 0
M  V30 39011 H 3805.63 0.574189 0.485604 0
M  V30 39012 H 3807.6 2.7343 1.19494 0
M  V30 39013 C 3806.35 2.02815 2.82421 0
M  V30 39014 H 3805.67 2.89237 2.76011 0
M  V30 39015 H 3807.11 2.26225 3.58606 0
M  V30 39016 C 3805.57 0.80995 3.27019 0
M  V30 39017 O 3806.1 0.00317729 4.017 0
M  V30 39018 N 3804.31 0.630746 2.83672 0
M  V30 39019 H 3803.86 1.28843 2.23063 0
M  V30 39020 H 3803.81 -0.182906 3.13868 0
M  V30 39021 N 3807.59 -0.616551 1.45039 0
M  V30 39022 C 3808.83 -1.37579 1.48587 0
M  V30 39023 C 3809.16 -1.94104 0.124099 0
M  V30 39024 O 3808.42 -1.74995 -0.876081 0
M  V30 39025 C 3808.71 -2.54872 2.5055 0
M  V30 39026 C 3808.38 -2.16548 3.95497 0
M  V30 39027 C 3807.04 -2.0581 4.34966 0
M  V30 39028 C 3809.39 -1.86504 4.86689 0
M  V30 39029 C 3806.72 -1.63237 5.63534 0
M  V30 39030 C 3809.07 -1.45419 6.15659 0
M  V30 39031 C 3807.74 -1.33233 6.54068 0
M  V30 39032 H 3807.01 -0.503438 0.54372 0
M  V30 39033 H 3809.66 -0.697756 1.78336 0
M  V30 39034 H 3807.96 -3.27973 2.14338 0
M  V30 39035 H 3809.66 -3.13102 2.50536 0
M  V30 39036 H 3806.25 -2.25829 3.64279 0
M  V30 39037 H 3810.43 -1.93702 4.56939 0
M  V30 39038 H 3805.69 -1.52417 5.92097 0
M  V30 39039 H 3809.86 -1.21214 6.8577 0
M  V30 39040 H 3807.49 -1.00017 7.53592 0
M  V30 39041 N 3809.06 -1.3218 -0.858264 0
M  V30 39042 C 3810.01 -1.20814 -1.96654 0
M  V30 39043 C 3810.98 -0.0911491 -1.6585 0
M  V30 39044 O 3812.17 -0.266066 -1.88936 0
M  V30 39045 C 3809.31 -0.933466 -3.32235 0
M  V30 39046 C 3808.42 -2.1349 -3.75561 0
M  V30 39047 C 3807.55 -1.79602 -4.99917 0
M  V30 39048 C 3806.59 -2.96087 -5.35723 0
M  V30 39049 N 3805.73 -2.62315 -6.51257 0
M  V30 39050 H 3810.57 -2.15612 -2.05707 0
M  V30 39051 H 3808.11 -1.0724 -1.00687 0
M  V30 39052 H 3810.06 -0.754724 -4.10317 0
M  V30 39053 H 3808.69 -0.0222847 -3.22792 0
M  V30 39054 H 3807.75 -2.42404 -2.93163 0
M  V30 39055 H 3809.06 -3.00636 -3.98019 0
M  V30 39056 H 3808.21 -1.58258 -5.85695 0
M  V30 39057 H 3806.95 -0.896645 -4.79387 0
M  V30 39058 H 3805.96 -3.18066 -4.48457 0
M  V30 39059 H 3807.18 -3.86751 -5.58212 0
M  V30 39060 H 3805.13 -1.74915 -6.32251 0
M  V30 39061 H 3805.04 -3.42991 -6.73716 0
M  V30 39062 H 3806.31 -2.44393 -7.40197 0
M  V30 39063 N 3810.54 1.07407 -1.15332 0
M  V30 39064 C 3811.49 2.14595 -0.849565 0
M  V30 39065 C 3812.46 1.64925 0.197259 0
M  V30 39066 O 3813.64 1.90689 0.0649359 0
M  V30 39067 C 3810.78 3.43377 -0.344388 0
M  V30 39068 C 3809.9 4.06842 -1.45271 0
M  V30 39069 C 3809.03 5.23456 -0.903722 0
M  V30 39070 C 3808.07 5.78882 -1.98903 0
M  V30 39071 N 3807.21 6.86827 -1.45645 0
M  V30 39072 H 3812.05 2.39918 -1.76757 0
M  V30 39073 H 3809.58 1.17728 -0.881963 0
M  V30 39074 H 3811.54 4.17187 -0.0332085 0
M  V30 39075 H 3810.17 3.18307 0.536701 0
M  V30 39076 H 3809.22 3.30692 -1.88009 0
M  V30 39077 H 3810.54 4.44044 -2.27215 0
M  V30 39078 H 3809.69 6.04247 -0.545051 0
M  V30 39079 H 3808.43 4.87671 -0.0534506 0
M  V30 39080 H 3807.43 4.96737 -2.35653 0
M  V30 39081 H 3808.66 6.16723 -2.84306 0
M  V30 39082 H 3806.61 6.52982 -0.628532 0
M  V30 39083 H 3806.52 7.2291 -2.21217 0
M  V30 39084 H 3807.79 7.71324 -1.12601 0
M  V30 39085 N 3812.02 0.950026 1.25747 0
M  V30 39086 C 3813.25 0.619365 1.97412 0
M  V30 39087 C 3813.66 -0.807561 1.70657 0
M  V30 39088 O 3813.02 -1.5396 0.979926 0
M  V30 39089 C 3813.07 0.862863 3.51051 0
M  V30 39090 O 3812.79 2.23367 3.7688 0
M  V30 39091 C 3814.29 0.543957 4.3995 0
M  V30 39092 H 3811.51 0.232614 0.62939 0
M  V30 39093 H 3814.06 1.27315 1.60035 0
M  V30 39094 H 3812.21 0.255561 3.86556 0
M  V30 39095 H 3812.63 2.30034 4.71364 0
M  V30 39096 H 3814.1 0.764901 5.46675 0
M  V30 39097 H 3814.58 -0.521344 4.36095 0
M  V30 39098 H 3815.18 1.13038 4.10003 0
M  V30 39099 N 3813.5 -1.40291 0.718063 0
M  V30 39100 C 3814.74 -2.00842 0.258639 0
M  V30 39101 C 3815.07 -1.5694 -1.14891 0
M  V30 39102 O 3814.33 -0.781638 -1.79413 0
M  V30 39103 C 3814.63 -3.56226 0.289436 0
M  V30 39104 C 3814.29 -4.19719 1.64763 0
M  V30 39105 C 3812.95 -4.36776 2.01941 0
M  V30 39106 C 3815.31 -4.5511 2.54016 0
M  V30 39107 C 3812.63 -4.86508 3.27913 0
M  V30 39108 C 3814.99 -5.06243 3.79343 0
M  V30 39109 C 3813.65 -5.21509 4.16635 0
M  V30 39110 H 3812.92 -0.734931 0.0946426 0
M  V30 39111 H 3815.57 -1.67866 0.921581 0
M  V30 39112 H 3813.87 -3.89125 -0.457078 0
M  V30 39113 H 3815.57 -4.00912 -0.0839128 0
M  V30 39114 H 3812.16 -4.06833 1.34853 0
M  V30 39115 H 3816.34 -4.41566 2.26568 0
M  V30 39116 H 3811.6 -4.96511 3.56772 0
M  V30 39117 H 3815.77 -5.32604 4.48672 0
M  V30 39118 H 3813.4 -5.59806 5.14316 0
M  V30 39119 N 3814.98 -0.464428 -1.50602 0
M  V30 39120 C 3815.92 0.347297 -2.29993 0
M  V30 39121 C 3816.92 0.996465 -1.36992 0
M  V30 39122 O 3818.12 0.928332 -1.54214 0
M  V30 39123 H 3814.5 0.130834 -0.740531 0
M  V30 39124 H 3816.47 -0.342786 -2.96425 0
M  V30 39125 C 3815.22 1.42055 -3.17357 0
M  V30 39126 H 3814.54 0.930405 -3.88823 0
M  V30 39127 H 3815.98 1.96122 -3.75915 0
M  V30 39128 C 3814.44 2.41882 -2.3451 0
M  V30 39129 O 3814.97 3.4701 -2.02353 0
M  V30 39130 N 3813.18 2.13434 -1.97216 0
M  V30 39131 H 3812.72 1.27968 -2.23567 0
M  V30 39132 H 3812.68 2.80462 -1.42086 0
M  V30 39133 N 3816.45 1.56367 -0.196777 0
M  V30 39134 C 3817.38 2.22169 0.718568 0
M  V30 39135 C 3818.37 1.18532 1.22 0
M  V30 39136 O 3819.55 1.47044 1.26853 0
M  V30 39137 C 3816.68 2.88235 1.93748 0
M  V30 39138 C 3815.63 3.98129 1.57089 0
M  V30 39139 C 3814.96 4.51368 2.86655 0
M  V30 39140 C 3816.26 5.1645 0.779559 0
M  V30 39141 H 3817.95 2.98917 0.170012 0
M  V30 39142 H 3815.5 1.43776 0.0803315 0
M  V30 39143 H 3817.45 3.32951 2.58306 0
M  V30 39144 H 3816.18 2.08894 2.51059 0
M  V30 39145 H 3814.84 3.54107 0.948885 0
M  V30 39146 H 3814.48 3.68788 3.42059 0
M  V30 39147 H 3814.18 5.25521 2.62871 0
M  V30 39148 H 3815.71 4.98787 3.52198 0
M  V30 39149 H 3817.12 5.577 1.32828 0
M  V30 39150 H 3815.52 5.9668 0.639777 0
M  V30 39151 H 3816.59 4.84405 -0.219029 0
M  V30 39152 N 3817.93 -0.0768128 1.57413 0
M  V30 39153 C 3818.88 -1.11057 2.04375 0
M  V30 39154 C 3819.87 -1.4038 0.948152 0
M  V30 39155 O 3821.08 -1.39846 1.13328 0
M  V30 39156 H 3817.46 -0.375453 0.651567 0
M  V30 39157 H 3819.43 -0.688297 2.90353 0
M  V30 39158 C 3818.18 -2.41736 2.49918 0
M  V30 39159 H 3817.5 -2.20022 3.33812 0
M  V30 39160 H 3818.94 -3.12527 2.86536 0
M  V30 39161 C 3817.4 -3.07339 1.38001 0
M  V30 39162 O 3817.93 -3.95207 0.719312 0
M  V30 39163 N 3816.13 -2.67882 1.1264 0
M  V30 39164 H 3815.68 -1.96518 1.66548 0
M  V30 39165 H 3815.64 -3.121 0.379615 0
M  V30 39166 N 3819.41 -1.53708 -0.348084 0
M  V30 39167 C 3820.64 -1.74668 -1.109 0
M  V30 39168 C 3821.05 -0.483715 -1.82498 0
M  V30 39169 O 3820.41 0.544388 -1.74191 0
M  V30 39170 C 3820.46 -2.92378 -2.12597 0
M  V30 39171 O 3820.18 -4.13789 -1.43911 0
M  V30 39172 C 3821.68 -3.25352 -3.01099 0
M  V30 39173 H 3818.9 -0.583734 -0.330901 0
M  V30 39174 H 3821.45 -2.00516 -0.401672 0
M  V30 39175 H 3819.6 -2.68874 -2.78901 0
M  V30 39176 H 3820.02 -4.7983 -2.1181 0
M  V30 39177 H 3821.49 -4.11078 -3.68401 0
M  V30 39178 H 3821.97 -2.41461 -3.6687 0
M  V30 39179 H 3822.57 -3.50847 -2.40389 0
M  V30 39180 N 3820.89 0.608851 -1.45364 0
M  V30 39181 C 3822.12 1.39456 -1.52839 0
M  V30 39182 C 3822.53 1.88116 -0.16057 0
M  V30 39183 O 3821.89 1.62141 0.837643 0
M  V30 39184 C 3821.94 2.5999 -2.51172 0
M  V30 39185 O 3821.66 2.13352 -3.82639 0
M  V30 39186 C 3823.16 3.52864 -2.68332 0
M  V30 39187 H 3820.38 0.426933 -0.517657 0
M  V30 39188 H 3822.93 0.74264 -1.90539 0
M  V30 39189 H 3821.08 3.21226 -2.16547 0
M  V30 39190 H 3821.49 2.91657 -4.35932 0
M  V30 39191 H 3822.97 4.33986 -3.41116 0
M  V30 39192 H 3823.45 4.03123 -1.74324 0
M  V30 39193 H 3824.05 2.97482 -3.03949 0
M  V30 39194 N 3822.37 1.32633 0.851242 0
M  V30 39195 C 3823.28 1.23861 1.99237 0
M  V30 39196 C 3824.29 0.151548 1.73339 0
M  V30 39197 O 3825.47 0.372857 1.97919 0
M  V30 39198 C 3822.53 0.965476 3.32986 0
M  V30 39199 C 3821.59 2.14132 3.72083 0
M  V30 39200 C 3820.83 1.88112 4.99449 0
M  V30 39201 O 3821.05 0.825352 5.64397 0
M  V30 39202 O 3819.98 2.74312 5.35758 0
M  V30 39203 H 3823.81 2.198 2.09575 0
M  V30 39204 H 3821.4 1.12557 0.98241 0
M  V30 39205 H 3823.28 0.829786 4.1315 0
M  V30 39206 H 3821.95 0.0362759 3.2368 0
M  V30 39207 H 3820.86 2.3325 2.92481 0
M  V30 39208 H 3822.19 3.05343 3.86039 0
M  V30 39209 N 3823.84 -1.06794 1.159 0
M  V30 39210 C 3825.09 -1.79764 0.93876 0
M  V30 39211 C 3825.42 -1.86758 -0.532457 0
M  V30 39212 O 3824.7 -1.35546 -1.3949 0
M  V30 39213 C 3824.98 -3.24523 1.56068 0
M  V30 39214 C 3824.83 -3.2564 3.10288 0
M  V30 39215 C 3826.15 -4.21941 1.25115 0
M  V30 39216 H 3823.27 -0.652601 0.342463 0
M  V30 39217 H 3825.91 -1.2493 1.43152 0
M  V30 39218 H 3824.06 -3.71347 1.14165 0
M  V30 39219 H 3825.74 -2.87015 3.61137 0
M  V30 39220 H 3823.98 -2.64437 3.43883 0
M  V30 39221 H 3824.65 -4.27737 3.4892 0
M  V30 39222 H 3827.13 -3.83534 1.61371 0
M  V30 39223 H 3826 -5.21506 1.71239 0
M  V30 39224 H 3826.26 -4.41776 0.16912 0
M  V30 39225 N 3825.32 -0.956681 -1.25241 0
M  V30 39226 C 3826.23 -0.48519 -2.29528 0
M  V30 39227 C 3827.25 0.448464 -1.68121 0
M  V30 39228 O 3828.42 0.324208 -1.98773 0
M  V30 39229 C 3825.49 0.22755 -3.45952 0
M  V30 39230 C 3824.55 -0.744569 -4.22794 0
M  V30 39231 C 3823.78 -0.0657477 -5.3366 0
M  V30 39232 O 3824.01 1.14819 -5.58724 0
M  V30 39233 O 3822.94 -0.752325 -5.9718 0
M  V30 39234 H 3826.77 -1.35186 -2.71953 0
M  V30 39235 H 3824.35 -0.723226 -1.30728 0
M  V30 39236 H 3826.23 0.628401 -4.16688 0
M  V30 39237 H 3824.91 1.06936 -3.05526 0
M  V30 39238 H 3823.82 -1.19567 -3.54478 0
M  V30 39239 H 3825.15 -1.55446 -4.67009 0
M  V30 39240 N 3826.8 1.39908 -0.725493 0
M  V30 39241 C 3828.21 1.8357 -0.340447 0
M  V30 39242 C 3828.56 1.60632 1.12658 0
M  V30 39243 O 3827.69 1.09243 1.86802 0
M  V30 39244 C 3828.28 3.33242 -0.611138 0
M  V30 39245 C 3826.84 3.75359 -0.279693 0
M  V30 39246 C 3825.99 2.63015 -0.878544 0
M  V30 39247 H 3828.94 1.29036 -0.923879 0
M  V30 39248 H 3828.96 3.8031 0.12031 0
M  V30 39249 H 3828.47 3.49905 -1.67893 0
M  V30 39250 H 3826.57 3.64288 0.782639 0
M  V30 39251 H 3826.69 4.73104 -0.755611 0
M  V30 39252 H 3825.05 2.52857 -0.305857 0
M  V30 39253 H 3825.83 2.82487 -1.9508 0
M  V30 39254 N 3828.28 0.472408 1.50353 0
M  V30 39255 C 3829.52 -0.0808555 2.0424 0
M  V30 39256 C 3829.88 -1.36869 1.34651 0
M  V30 39257 O 3831.08 -2.00441 1.791 0
M  V30 39258 C 3829.35 -0.25913 3.56459 0
M  V30 39259 S 3830.91 -0.77076 4.31978 0
M  V30 39260 H 3827.73 -0.0153335 0.710835 0
M  V30 39261 H 3830.33 0.639848 1.84733 0
M  V30 39262 H 3829.04 0.683936 4.04661 0
M  V30 39263 H 3828.57 -1.00591 3.80322 0
M  V30 39264 H 3830.58 -2.04398 4.52146 0
M  V30 39265 N 3829.76 -1.5626 0.205067 0
M  V30 39266 C 3831.17 -1.58888 -0.150616 0
M  V30 39267 C 3831.37 -1.22151 -1.60254 0
M  V30 39268 O 3830.43 -0.948953 -2.3399 0
M  V30 39269 C 3831.74 -3.0027 0.160763 0
M  V30 39270 C 3833.29 -3.12835 0.101671 0
M  V30 39271 C 3833.77 -4.56366 0.386497 0
M  V30 39272 N 3835.26 -4.61984 0.335473 0
M  V30 39273 C 3835.99 -5.70949 0.529573 0
M  V30 39274 N 3835.49 -6.88343 0.784562 0
M  V30 39275 N 3837.28 -5.60189 0.463142 0
M  V30 39276 H 3829.43 -1.78419 1.15241 0
M  V30 39277 H 3831.69 -0.828521 0.460713 0
M  V30 39278 H 3831.4 -3.31744 1.16786 0
M  V30 39279 H 3831.27 -3.73429 -0.532002 0
M  V30 39280 H 3833.66 -2.81167 -0.896044 0
M  V30 39281 H 3833.74 -2.4204 0.827664 0
M  V30 39282 H 3833.39 -4.88748 1.38157 0
M  V30 39283 H 3833.32 -5.25365 -0.360499 0
M  V30 39284 H 3835.81 -3.7762 0.145412 0
M  V30 39285 H 3836.12 -7.6729 0.921211 0
M  V30 39286 H 3834.47 -6.90127 0.82157 0
M  V30 39287 H 3837.66 -4.67353 0.264282 0
M  V30 39288 H 3837.83 -6.45048 0.617826 0
M  V30 39289 N 3831.24 0.0684638 -1.57451 0
M  V30 39290 C 3832.65 0.423327 -1.53883 0
M  V30 39291 C 3832.85 1.78976 -0.92573 0
M  V30 39292 O 3831.91 2.46882 -0.529673 0
M  V30 39293 C 3833.22 0.361333 -2.98521 0
M  V30 39294 C 3834.77 0.44128 -3.09874 0
M  V30 39295 C 3835.24 0.409158 -4.56169 0
M  V30 39296 N 3836.73 0.469135 -4.60818 0
M  V30 39297 C 3837.47 0.466548 -5.71499 0
M  V30 39298 N 3836.97 0.418578 -6.91534 0
M  V30 39299 N 3838.76 0.513353 -5.59751 0
M  V30 39300 H 3830.91 -0.826234 -1.95671 0
M  V30 39301 H 3833.17 -0.31037 -0.895754 0
M  V30 39302 H 3832.88 -0.576096 -3.4695 0
M  V30 39303 H 3832.75 1.17026 -3.58587 0
M  V30 39304 H 3835.14 1.36913 -2.61417 0
M  V30 39305 H 3835.22 -0.396281 -2.52712 0
M  V30 39306 H 3834.86 -0.51486 -5.05284 0
M  V30 39307 H 3834.79 1.2643 -5.11198 0
M  V30 39308 H 3837.29 0.510321 -3.74438 0
M  V30 39309 H 3837.6 0.420622 -7.71654 0
M  V30 39310 H 3835.94 0.385216 -6.93932 0
M  V30 39311 H 3839.13 0.548544 -4.64875 0
M  V30 39312 H 3839.31 0.507868 -6.46007 0
M  V30 39313 N 3832.71 1.5389 0.339928 0
M  V30 39314 C 3834.13 1.44235 0.683261 0
M  V30 39315 C 3834.33 0.60201 1.92297 0
M  V30 39316 O 3833.39 0.0944067 2.52323 0
M  V30 39317 C 3834.7 2.87763 0.872525 0
M  V30 39318 C 3836.25 2.97561 0.970912 0
M  V30 39319 C 3836.72 4.42204 1.19247 0
M  V30 39320 N 3838.21 4.45745 1.25958 0
M  V30 39321 C 3838.95 5.548 1.44859 0
M  V30 39322 N 3838.44 6.73855 1.60909 0
M  V30 39323 N 3840.24 5.4242 1.47436 0
M  V30 39324 H 3832.39 2.07018 -0.475123 0
M  V30 39325 H 3834.65 0.935952 -0.15066 0
M  V30 39326 H 3834.36 3.51684 0.0330552 0
M  V30 39327 H 3834.23 3.32923 1.7732 0
M  V30 39328 H 3836.62 2.33777 1.8009 0
M  V30 39329 H 3836.7 2.55757 0.0470616 0
M  V30 39330 H 3836.34 5.06569 0.367393 0
M  V30 39331 H 3836.27 4.81603 2.12994 0
M  V30 39332 H 3838.76 3.59956 1.15065 0
M  V30 39333 H 3839.08 7.52731 1.74976 0
M  V30 39334 H 3837.42 6.76793 1.58038 0
M  V30 39335 H 3840.61 4.48366 1.34482 0
M  V30 39336 H 3840.79 6.27469 1.61823 0
M  V30 39337 N 3834.19 -0.601133 1.45685 0
M  V30 39338 C 3835.14 -1.71144 1.54849 0
M  V30 39339 C 3836.11 -1.61361 0.393943 0
M  V30 39340 O 3837.29 -1.80845 0.608254 0
M  V30 39341 C 3834.43 -3.09464 1.52728 0
M  V30 39342 C 3833.55 -3.30007 2.78782 0
M  V30 39343 C 3832.68 -4.5847 2.68289 0
M  V30 39344 C 3831.72 -4.72292 3.89367 0
M  V30 39345 N 3830.86 -5.92061 3.77369 0
M  V30 39346 H 3835.7 -1.62648 2.49699 0
M  V30 39347 H 3833.23 -0.792984 1.23896 0
M  V30 39348 H 3835.19 -3.895 1.49486 0
M  V30 39349 H 3833.82 -3.16902 0.614244 0
M  V30 39350 H 3832.87 -2.43703 2.92084 0
M  V30 39351 H 3834.19 -3.36093 3.68569 0
M  V30 39352 H 3833.34 -5.46709 2.63049 0
M  V30 39353 H 3832.08 -4.54792 1.76111 0
M  V30 39354 H 3831.08 -3.82476 3.94959 0
M  V30 39355 H 3832.31 -4.77762 4.82618 0
M  V30 39356 H 3830.26 -5.89417 2.87965 0
M  V30 39357 H 3830.17 -5.99335 4.60796 0
M  V30 39358 H 3831.44 -6.82781 3.76073 0
M  V30 39359 N 3835.67 -1.33083 -0.844196 0
M  V30 39360 C 3836.58 -1.24916 -1.98578 0
M  V30 39361 C 3837.6 -0.160738 -1.73256 0
M  V30 39362 O 3838.77 -0.383348 -1.97718 0
M  V30 39363 C 3835.84 -0.983121 -3.32469 0
M  V30 39364 C 3834.9 -2.16103 -3.70942 0
M  V30 39365 C 3834.13 -1.90758 -4.98445 0
M  V30 39366 O 3834.35 -0.855272 -5.63951 0
M  V30 39367 O 3833.29 -2.77149 -5.34296 0
M  V30 39368 H 3837.11 -2.20908 -2.08406 0
M  V30 39369 H 3834.7 -1.13076 -0.976427 0
M  V30 39370 H 3836.58 -0.851684 -4.12704 0
M  V30 39371 H 3835.26 -0.0534409 -3.23656 0
M  V30 39372 H 3834.16 -2.34798 -2.9124 0
M  V30 39373 H 3835.5 -3.07386 -3.84415 0
M  V30 39374 N 3837.15 1.06178 -1.16464 0
M  V30 39375 C 3838.06 2.172 -0.886639 0
M  V30 39376 C 3839.07 1.73423 0.141538 0
M  V30 39377 O 3840.25 2.01369 -0.0353771 0
M  V30 39378 C 3837.31 3.44467 -0.392889 0
M  V30 39379 C 3836.38 4.02745 -1.48643 0
M  V30 39380 C 3835.61 5.23937 -1.01615 0
M  V30 39381 O 3835.83 5.70243 0.133653 0
M  V30 39382 O 3834.77 5.74199 -1.80498 0
M  V30 39383 H 3838.59 2.43494 -1.81506 0
M  V30 39384 H 3836.18 1.15739 -0.944712 0
M  V30 39385 H 3838.06 4.21216 -0.124575 0
M  V30 39386 H 3836.73 3.19697 0.50751 0
M  V30 39387 H 3835.64 3.27481 -1.8085 0
M  V30 39388 H 3836.97 4.31812 -2.36218 0
M  V30 39389 N 3838.63 0.96331 1.24732 0
M  V30 39390 C 3839.85 0.639843 1.97283 0
M  V30 39391 C 3840.28 -0.783069 1.71025 0
M  V30 39392 O 3839.63 -1.53083 0.971351 0
M  V30 39393 C 3839.68 0.915258 3.48791 0
M  V30 39394 O 3838.79 -0.00155556 4.124 0
M  V30 39395 H 3838.13 0.242354 0.618191 0
M  V30 39396 H 3840.66 1.29227 1.58624 0
M  V30 39397 H 3840.67 0.84502 3.99153 0
M  V30 39398 H 3839.34 1.95228 3.67231 0
M  V30 39399 H 3837.92 0.121629 3.72702 0
M  V30 39400 N 3840.1 -1.39522 0.732902 0
M  V30 39401 C 3841.38 -1.94509 0.206324 0
M  V30 39402 C 3841.76 -1.66984 -1.29149 0
M  V30 39403 O 3841.11 -0.996931 -2.05605 0
M  V30 39404 C 3841.32 -3.44833 0.53768 0
M  V30 39405 C 3842.67 -4.21811 0.485861 0
M  V30 39406 O 3843.69 -3.53022 0.474748 0
M  V30 39407 O 3842.55 -5.44401 0.478553 0
M  V30 39408 H 3839.64 -0.826175 0.0369373 0
M  V30 39409 H 3842.19 -1.49033 0.811617 0
M  V30 39410 H 3840.96 -3.58293 1.57295 0
M  V30 39411 H 3840.58 -3.97482 -0.0966902 0
M  V30 39412 N 3841.58 -0.480375 -1.501 0
M  V30 39413 C 3842.53 0.308952 -2.28723 0
M  V30 39414 C 3843.5 0.978924 -1.34187 0
M  V30 39415 O 3844.68 0.989573 -1.63132 0
M  V30 39416 C 3841.82 1.3796 -3.16324 0
M  V30 39417 C 3840.94 0.723478 -4.25899 0
M  V30 39418 C 3840.07 1.77281 -5.00744 0
M  V30 39419 C 3839.11 1.09743 -6.02182 0
M  V30 39420 N 3838.25 2.09003 -6.7027 0
M  V30 39421 H 3843.09 -0.367791 -2.95722 0
M  V30 39422 H 3840.62 -0.193223 -1.45825 0
M  V30 39423 H 3842.58 2.01211 -3.65473 0
M  V30 39424 H 3841.21 2.02538 -2.51352 0
M  V30 39425 H 3840.26 -0.0218176 -3.80394 0
M  V30 39426 H 3841.58 0.190817 -4.98435 0
M  V30 39427 H 3840.73 2.48089 -5.53658 0
M  V30 39428 H 3839.47 2.33929 -4.27935 0
M  V30 39429 H 3838.47 0.375027 -5.48519 0
M  V30 39430 H 3839.7 0.537722 -6.76968 0
M  V30 39431 H 3837.65 2.64651 -6.00246 0
M  V30 39432 H 3837.56 1.60747 -7.38713 0
M  V30 39433 H 3838.83 2.79163 -7.27797 0
M  V30 39434 N 3843.06 1.56149 -0.213351 0
M  V30 39435 C 3844.01 2.21284 0.716669 0
M  V30 39436 C 3845 1.18965 1.20597 0
M  V30 39437 O 3846.21 1.37066 1.16675 0
M  V30 39438 H 3842.58 0.7094 0.249512 0
M  V30 39439 H 3844.55 2.98053 0.143798 0
M  V30 39440 C 3843.3 2.90034 1.9177 0
M  V30 39441 H 3842.63 3.68519 1.55029 0
M  V30 39442 H 3844.07 3.3902 2.5464 0
M  V30 39443 C 3842.52 1.92056 2.76796 0
M  V30 39444 O 3843.05 1.43232 3.75297 0
M  V30 39445 N 3841.26 1.59884 2.42663 0
M  V30 39446 H 3840.81 1.99782 1.62619 0
M  V30 39447 H 3840.77 0.945885 2.99834 0
M  V30 39448 N 3844.54 -0.0601128 1.57485 0
M  V30 39449 C 3845.77 -0.768531 1.91774 0
M  V30 39450 C 3846.18 -1.71046 0.808691 0
M  V30 39451 O 3845.52 -1.82304 -0.22603 0
M  V30 39452 C 3845.58 -1.60614 3.21626 0
M  V30 39453 C 3845.25 -0.832332 4.49356 0
M  V30 39454 C 3846.24 -0.146342 5.19694 0
M  V30 39455 C 3843.93 -0.796049 4.95952 0
M  V30 39456 C 3845.92 0.565573 6.34886 0
M  V30 39457 C 3843.61 -0.0803689 6.11047 0
M  V30 39458 C 3844.61 0.599231 6.80366 0
M  V30 39459 O 3844.29 1.30336 7.93264 0
M  V30 39460 H 3844.03 -0.222983 0.638165 0
M  V30 39461 H 3846.58 -0.0311208 2.05376 0
M  V30 39462 H 3844.81 -2.38663 3.04264 0
M  V30 39463 H 3846.5 -2.1943 3.41475 0
M  V30 39464 H 3847.27 -0.165604 4.84717 0
M  V30 39465 H 3843.14 -1.31449 4.41862 0
M  V30 39466 H 3846.69 1.09658 6.88927 0
M  V30 39467 H 3842.59 -0.0590746 6.45473 0
M  V30 39468 H 3843.35 1.21383 8.09449 0
M  V30 39469 N 3846.02 -1.54068 -0.331762 0
M  V30 39470 C 3847.26 -1.71881 -1.07066 0
M  V30 39471 C 3847.59 -0.488172 -1.88274 0
M  V30 39472 O 3846.85 0.530097 -1.88384 0
M  V30 39473 C 3847.15 -2.94146 -2.0301 0
M  V30 39474 C 3846.81 -4.29256 -1.38021 0
M  V30 39475 C 3845.47 -4.6599 -1.20028 0
M  V30 39476 C 3847.83 -5.1314 -0.913074 0
M  V30 39477 C 3845.15 -5.84214 -0.539561 0
M  V30 39478 C 3847.51 -6.3204 -0.266218 0
M  V30 39479 C 3846.17 -6.67459 -0.0740614 0
M  V30 39480 H 3845.44 -0.628957 -0.391784 0
M  V30 39481 H 3848.09 -1.88299 -0.348672 0
M  V30 39482 H 3846.39 -2.7238 -2.81632 0
M  V30 39483 H 3848.09 -3.05121 -2.60196 0
M  V30 39484 H 3844.68 -4.00351 -1.53027 0
M  V30 39485 H 3848.86 -4.85283 -1.0399 0
M  V30 39486 H 3844.12 -6.10222 -0.379408 0
M  V30 39487 H 3848.29 -6.96323 0.103791 0
M  V30 39488 H 3845.92 -7.58926 0.439944 0
M  V30 39489 N 3847.49 0.593399 -1.46002 0
M  V30 39490 C 3848.4 1.73125 -1.58319 0
M  V30 39491 C 3849.42 1.67614 -0.467059 0
M  V30 39492 O 3850.6 1.87716 -0.729715 0
M  V30 39493 C 3847.66 3.09614 -1.56012 0
M  V30 39494 C 3846.72 3.26471 -2.78775 0
M  V30 39495 C 3845.96 4.56449 -2.76569 0
M  V30 39496 O 3846.18 5.39667 -1.84703 0
M  V30 39497 O 3845.11 4.76323 -3.67968 0
M  V30 39498 H 3848.94 1.65682 -2.54525 0
M  V30 39499 H 3846.52 0.759181 -1.28673 0
M  V30 39500 H 3848.41 3.90907 -1.57384 0
M  V30 39501 H 3847.08 3.17518 -0.629626 0
M  V30 39502 H 3845.99 2.44712 -2.82961 0
M  V30 39503 H 3847.32 3.23452 -3.70998 0
M  V30 39504 N 3848.97 1.33529 0.837127 0
M  V30 39505 C 3850.22 1.24837 1.58934 0
M  V30 39506 C 3850.54 -0.185334 1.94117 0
M  V30 39507 O 3849.81 -1.11451 1.61107 0
M  V30 39508 H 3848.39 0.459068 0.589293 0
M  V30 39509 H 3851.05 1.67269 1.00035 0
M  V30 39510 H 3850.15 1.84329 2.51852 0
M  V30 39511 N 3850.45 -1.05559 1.17026 0
M  V30 39512 C 3851.68 -1.82176 0.980782 0
M  V30 39513 C 3852.09 -1.82831 -0.470995 0
M  V30 39514 O 3851.45 -1.25286 -1.32701 0
M  V30 39515 C 3851.5 -3.2846 1.50985 0
M  V30 39516 O 3851.22 -3.27955 2.90477 0
M  V30 39517 C 3852.72 -4.2178 1.36443 0
M  V30 39518 H 3849.94 -0.574183 0.34721 0
M  V30 39519 H 3852.49 -1.33133 1.55228 0
M  V30 39520 H 3850.64 -3.74788 0.980459 0
M  V30 39521 H 3851.06 -4.19484 3.14855 0
M  V30 39522 H 3852.53 -5.22417 1.78281 0
M  V30 39523 H 3853.01 -4.38098 0.310999 0
M  V30 39524 H 3853.61 -3.81304 1.8838 0
M  V30 39525 N 3851.93 -0.969911 -1.2422 0
M  V30 39526 C 3853.18 -0.631759 -1.91972 0
M  V30 39527 C 3853.5 0.836001 -1.7617 0
M  V30 39528 O 3852.77 1.59698 -1.13461 0
M  V30 39529 H 3851.35 -0.23067 -0.710493 0
M  V30 39530 H 3854.01 -1.23146 -1.51067 0
M  V30 39531 H 3853.11 -0.874275 -2.99604 0
M  V30 39532 N 3853.41 1.39131 -0.740291 0
M  V30 39533 C 3854.64 2.04402 -0.30053 0
M  V30 39534 C 3855.04 1.55938 1.07145 0
M  V30 39535 O 3854.39 0.72175 1.68927 0
M  V30 39536 C 3854.45 3.58764 -0.22986 0
M  V30 39537 C 3854.11 4.30229 -1.54118 0
M  V30 39538 C 3855.11 4.56509 -2.48789 0
M  V30 39539 C 3852.8 4.68674 -1.80694 0
M  V30 39540 C 3854.79 5.2025 -3.68265 0
M  V30 39541 C 3852.48 5.32142 -3.00447 0
M  V30 39542 C 3853.47 5.57863 -3.94053 0
M  V30 39543 O 3853.16 6.20014 -5.11701 0
M  V30 39544 H 3852.89 0.663709 -0.128321 0
M  V30 39545 H 3855.45 1.79063 -1.00627 0
M  V30 39546 H 3853.68 3.83023 0.532021 0
M  V30 39547 H 3855.37 4.05507 0.17861 0
M  V30 39548 H 3856.13 4.27249 -2.29529 0
M  V30 39549 H 3852.01 4.48007 -1.08677 0
M  V30 39550 H 3855.56 5.40242 -4.41343 0
M  V30 39551 H 3851.45 5.60823 -3.19605 0
M  V30 39552 H 3852.22 6.38506 -5.12106 0
M  V30 39553 N 3854.88 0.488329 1.49844 0
M  V30 39554 C 3855.85 -0.285666 2.27413 0
M  V30 39555 C 3856.85 -0.905238 1.32899 0
M  V30 39556 O 3858.04 -0.771736 1.56173 0
M  V30 39557 C 3855.17 -1.40859 3.10438 0
M  V30 39558 H 3856.36 0.394835 2.9729 0
M  V30 39559 H 3853.92 0.2429 1.54401 0
M  V30 39560 H 3854.65 -2.12362 2.45097 0
M  V30 39561 H 3854.44 -0.969924 3.79914 0
M  V30 39562 H 3855.93 -1.95413 3.69058 0
M  V30 39563 N 3856.36 -1.56034 0.221629 0
M  V30 39564 C 3857.78 -1.59039 -0.133755 0
M  V30 39565 C 3857.98 -1.23844 -1.58949 0
M  V30 39566 O 3857.03 -0.973718 -2.3297 0
M  V30 39567 C 3858.35 -3.00083 0.192602 0
M  V30 39568 C 3859.9 -3.12709 0.134846 0
M  V30 39569 C 3860.37 -4.55931 0.434879 0
M  V30 39570 N 3861.86 -4.61602 0.384453 0
M  V30 39571 C 3862.6 -5.70355 0.5901 0
M  V30 39572 N 3862.09 -6.87472 0.857526 0
M  V30 39573 N 3863.89 -5.59666 0.522532 0
M  V30 39574 H 3856.04 -1.77187 1.17127 0
M  V30 39575 H 3858.3 -0.823588 0.469474 0
M  V30 39576 H 3858.01 -3.30486 1.20298 0
M  V30 39577 H 3857.88 -3.73973 -0.492364 0
M  V30 39578 H 3860.27 -2.82102 -0.866172 0
M  V30 39579 H 3860.35 -2.41149 0.853289 0
M  V30 39580 H 3859.99 -4.87255 1.43334 0
M  V30 39581 H 3859.92 -5.25717 -0.304757 0
M  V30 39582 H 3862.41 -3.77445 0.185456 0
M  V30 39583 H 3862.73 -7.6627 1.00254 0
M  V30 39584 H 3861.07 -6.89217 0.894721 0
M  V30 39585 H 3864.26 -4.67047 0.313836 0
M  V30 39586 H 3864.43 -6.44356 0.686207 0
M  V30 39587 N 3857.84 0.0517601 -1.57515 0
M  V30 39588 C 3859.09 0.748173 -1.88495 0
M  V30 39589 C 3859.42 1.762 -0.816525 0
M  V30 39590 O 3858.69 1.93746 0.17104 0
M  V30 39591 C 3858.98 1.43819 -3.30133 0
M  V30 39592 C 3858.83 0.439421 -4.47648 0
M  V30 39593 C 3860.15 2.37806 -3.70319 0
M  V30 39594 H 3857.27 0.270525 -0.685555 0
M  V30 39595 H 3859.91 0.0111123 -1.89997 0
M  V30 39596 H 3858.06 2.06645 -3.28983 0
M  V30 39597 H 3859.73 -0.185169 -4.60928 0
M  V30 39598 H 3857.98 -0.243457 -4.33116 0
M  V30 39599 H 3858.65 0.960254 -5.43584 0
M  V30 39600 H 3861.12 1.85043 -3.72691 0
M  V30 39601 H 3860 2.83079 -4.70274 0
M  V30 39602 H 3860.26 3.23495 -3.01336 0
M  V30 39603 N 3859.32 1.54242 0.323587 0
M  V30 39604 C 3860.73 1.63684 0.898023 0
M  V30 39605 C 3861.08 0.530894 1.88881 0
M  V30 39606 O 3860.21 -0.336208 2.13772 0
M  V30 39607 C 3860.8 2.96707 1.63556 0
M  V30 39608 C 3859.36 3.08345 2.15872 0
M  V30 39609 C 3858.51 2.5925 0.984099 0
M  V30 39610 H 3861.46 1.58377 0.10117 0
M  V30 39611 H 3861.48 2.86865 2.49977 0
M  V30 39612 H 3860.99 3.77179 0.914199 0
M  V30 39613 H 3859.09 2.32547 2.91123 0
M  V30 39614 H 3859.21 4.14146 2.40874 0
M  V30 39615 H 3857.57 2.15145 1.36326 0
M  V30 39616 H 3858.35 3.4218 0.277058 0
M  V30 39617 N 3860.8 -0.585648 1.46314 0
M  V30 39618 C 3862.03 -1.37007 1.55038 0
M  V30 39619 C 3862.44 -1.87837 0.190477 0
M  V30 39620 O 3861.8 -1.63453 -0.811742 0
M  V30 39621 C 3861.85 -2.55961 2.55277 0
M  V30 39622 O 3861.57 -2.07238 3.85984 0
M  V30 39623 C 3863.07 -3.4855 2.73912 0
M  V30 39624 H 3860.29 -0.418644 0.524384 0
M  V30 39625 H 3862.83 -0.712233 1.91696 0
M  V30 39626 H 3860.99 -3.1774 2.2163 0
M  V30 39627 H 3861.4 -2.84685 4.40517 0
M  V30 39628 H 3862.88 -4.28504 3.47977 0
M  V30 39629 H 3863.35 -4.00298 1.80715 0
M  V30 39630 H 3863.96 -2.92608 3.08643 0
M  V30 39631 N 3862.28 -1.33971 -0.830033 0
M  V30 39632 C 3863.21 -1.20798 -1.94783 0
M  V30 39633 C 3864.22 -0.136781 -1.62224 0
M  V30 39634 O 3865.41 -0.388001 -1.74232 0
M  V30 39635 C 3862.51 -0.832266 -3.28522 0
M  V30 39636 C 3861.68 -1.99696 -3.89153 0
M  V30 39637 C 3860.74 -1.60079 -5.0126 0
M  V30 39638 O 3859.77 -2.31638 -5.19935 0
M  V30 39639 N 3860.97 -0.510856 -5.78248 0
M  V30 39640 H 3863.73 -2.17093 -2.06617 0
M  V30 39641 H 3861.3 -1.26832 -1.00624 0
M  V30 39642 H 3863.29 -0.549165 -4.00957 0
M  V30 39643 H 3861.86 0.0402721 -3.12574 0
M  V30 39644 H 3861.08 -2.4452 -3.09199 0
M  V30 39645 H 3862.37 -2.77606 -4.26394 0
M  V30 39646 H 3861.76 0.0841918 -5.65637 0
M  V30 39647 H 3860.32 -0.287459 -6.51166 0
M  V30 39648 N 3863.75 1.04937 -1.17584 0
M  V30 39649 C 3865.16 1.59442 -0.971354 0
M  V30 39650 C 3865.52 1.90206 0.481275 0
M  V30 39651 O 3864.64 1.68562 1.35705 0
M  V30 39652 C 3865.24 2.89687 -1.7569 0
M  V30 39653 C 3863.79 3.40841 -1.59701 0
M  V30 39654 C 3862.94 2.1454 -1.75692 0
M  V30 39655 H 3865.89 0.877165 -1.32255 0
M  V30 39656 H 3865.91 3.597 -1.2408 0
M  V30 39657 H 3865.43 2.67264 -2.8141 0
M  V30 39658 H 3863.53 3.68294 -0.564811 0
M  V30 39659 H 3863.64 4.15254 -2.38958 0
M  V30 39660 H 3862 2.25425 -1.18557 0
M  V30 39661 H 3862.79 1.94584 -2.82828 0
M  V30 39662 N 3865.23 0.976485 1.23703 0
M  V30 39663 C 3866.18 0.484715 2.22788 0
M  V30 39664 C 3867.17 -0.438112 1.5482 0
M  V30 39665 O 3868.36 -0.267604 1.74965 0
M  V30 39666 C 3865.49 -0.21535 3.42624 0
M  V30 39667 C 3864.57 0.726819 4.17826 0
M  V30 39668 N 3864.96 1.8678 4.7005 0
M  V30 39669 C 3863.26 0.539359 4.42727 0
M  V30 39670 C 3863.96 2.45783 5.27225 0
M  V30 39671 N 3862.94 1.74209 5.14929 0
M  V30 39672 H 3866.74 1.35516 2.60792 0
M  V30 39673 H 3864.25 0.836669 1.39189 0
M  V30 39674 H 3866.25 -0.584937 4.12776 0
M  V30 39675 H 3864.91 -1.08213 3.06137 0
M  V30 39676 H 3865.92 2.24909 4.66515 0
M  V30 39677 H 3862.6 -0.282726 4.16542 0
M  V30 39678 H 3863.99 3.42117 5.78278 0
M  V30 39679 N 3866.71 -1.38737 0.747659 0
M  V30 39680 C 3867.67 -2.28862 0.124362 0
M  V30 39681 C 3868.67 -1.46909 -0.653791 0
M  V30 39682 O 3869.86 -1.6743 -0.480933 0
M  V30 39683 C 3866.99 -3.30578 -0.832543 0
M  V30 39684 H 3868.19 -2.85487 0.918542 0
M  V30 39685 H 3865.74 -1.47597 0.514288 0
M  V30 39686 H 3866.48 -2.79032 -1.65262 0
M  V30 39687 H 3866.26 -3.9112 -0.27704 0
M  V30 39688 H 3867.75 -3.97985 -1.26483 0
M  V30 39689 N 3868.19 -0.496268 -1.49583 0
M  V30 39690 C 3869.6 -0.0473084 -1.8664 0
M  V30 39691 C 3869.95 1.36534 -1.40901 0
M  V30 39692 O 3869.07 2.01666 -0.784832 0
M  V30 39693 C 3869.67 -0.0790755 -3.38708 0
M  V30 39694 C 3868.23 0.314522 -3.75084 0
M  V30 39695 C 3867.38 -0.453672 -2.73564 0
M  V30 39696 H 3870.33 -0.709294 -1.41967 0
M  V30 39697 H 3870.35 0.71733 -3.73677 0
M  V30 39698 H 3869.86 -1.10733 -3.71967 0
M  V30 39699 H 3867.96 1.34619 -3.47431 0
M  V30 39700 H 3868.07 -0.00163849 -4.791 0
M  V30 39701 H 3866.44 0.0958923 -2.54519 0
M  V30 39702 H 3867.22 -1.48192 -3.09668 0
M  V30 39703 N 3869.67 1.55914 -0.2299 0
M  V30 39704 C 3870.91 1.97695 0.399929 0
M  V30 39705 C 3871.23 1.12084 1.60301 0
M  V30 39706 O 3872.43 1.43802 2.3029 0
M  V30 39707 C 3870.89 3.51721 0.76292 0
M  V30 39708 C 3870.5 4.46047 -0.417816 0
M  V30 39709 C 3872.24 4.02196 1.35789 0
M  V30 39710 C 3870.15 5.91391 -0.0319255 0
M  V30 39711 H 3869.08 0.738273 0.153196 0
M  V30 39712 H 3871.73 1.80555 -0.327433 0
M  V30 39713 H 3870.11 3.64493 1.54794 0
M  V30 39714 H 3871.29 4.45027 -1.1953 0
M  V30 39715 H 3869.6 4.0596 -0.926572 0
M  V30 39716 H 3872.2 5.08291 1.65965 0
M  V30 39717 H 3872.54 3.48538 2.27655 0
M  V30 39718 H 3873.07 3.92681 0.636131 0
M  V30 39719 H 3869.81 6.4905 -0.91729 0
M  V30 39720 H 3869.33 5.95586 0.709706 0
M  V30 39721 H 3871.01 6.45812 0.391853 0
M  V30 39722 N 3871.14 -0.043406 1.5754 0
M  V30 39723 C 3872.55 -0.591805 1.77072 0
M  V30 39724 C 3872.91 -1.76389 0.859141 0
M  V30 39725 O 3872.03 -2.16342 0.0503106 0
M  V30 39726 C 3872.63 -1.08036 3.21113 0
M  V30 39727 C 3871.18 -1.57439 3.41892 0
M  V30 39728 C 3870.33 -0.506118 2.72642 0
M  V30 39729 H 3873.28 0.18282 1.57643 0
M  V30 39730 H 3873.3 -1.94827 3.26837 0
M  V30 39731 H 3872.82 -0.227085 3.87435 0
M  V30 39732 H 3870.92 -2.44998 2.80725 0
M  V30 39733 H 3871.03 -1.63177 4.50455 0
M  V30 39734 H 3869.39 -0.957836 2.36003 0
M  V30 39735 H 3870.18 0.337449 3.41637 0
M  V30 39736 N 3872.62 -1.54412 -0.315402 0
M  V30 39737 C 3873.85 -1.76981 -1.0717 0
M  V30 39738 C 3874.26 -0.522317 -1.81431 0
M  V30 39739 O 3873.62 0.507317 -1.75307 0
M  V30 39740 C 3873.67 -2.96822 -2.06347 0
M  V30 39741 O 3873.39 -4.16749 -1.35101 0
M  V30 39742 C 3874.89 -3.31666 -2.9413 0
M  V30 39743 H 3872.11 -0.590622 -0.318444 0
M  V30 39744 H 3874.66 -2.01323 -0.359049 0
M  V30 39745 H 3872.81 -2.74729 -2.73135 0
M  V30 39746 H 3873.23 -4.84215 -2.01585 0
M  V30 39747 H 3874.7 -4.188 -3.59598 0
M  V30 39748 H 3875.18 -2.49188 -3.61665 0
M  V30 39749 H 3875.78 -3.55867 -2.32893 0
M  V30 39750 N 3874.1 0.57788 -1.46623 0
M  V30 39751 C 3875.35 1.33591 -1.52183 0
M  V30 39752 C 3875.68 1.93706 -0.175518 0
M  V30 39753 O 3874.93 1.77256 0.829376 0
M  V30 39754 C 3875.23 2.48139 -2.57219 0
M  V30 39755 C 3874.9 2.05986 -4.01099 0
M  V30 39756 C 3873.56 1.94206 -4.4027 0
M  V30 39757 C 3875.91 1.73535 -4.91462 0
M  V30 39758 C 3873.24 1.48238 -5.67664 0
M  V30 39759 C 3875.59 1.29045 -6.19298 0
M  V30 39760 C 3874.25 1.15844 -6.57371 0
M  V30 39761 H 3873.52 0.488845 -0.556877 0
M  V30 39762 H 3876.17 0.650228 -1.80123 0
M  V30 39763 H 3874.48 3.22175 -2.22958 0
M  V30 39764 H 3876.17 3.06349 -2.58749 0
M  V30 39765 H 3872.76 2.16092 -3.70138 0
M  V30 39766 H 3876.95 1.81519 -4.61914 0
M  V30 39767 H 3872.2 1.36665 -5.9593 0
M  V30 39768 H 3876.38 1.02989 -6.88742 0
M  V30 39769 H 3874 0.800015 -7.55979 0
M  V30 39770 N 3875.58 1.34409 0.822917 0
M  V30 39771 C 3876.83 1.26516 1.57601 0
M  V30 39772 C 3877.15 -0.164735 1.94303 0
M  V30 39773 O 3876.42 -1.09736 1.6228 0
M  V30 39774 H 3875 0.465292 0.584391 0
M  V30 39775 H 3877.66 1.68321 0.982553 0
M  V30 39776 H 3876.76 1.8699 2.49882 0
M  V30 39777 N 3877.06 -1.04312 1.18139 0
M  V30 39778 C 3877.99 -2.12295 0.863917 0
M  V30 39779 C 3879 -1.62219 -0.137441 0
M  V30 39780 O 3880.19 -1.78273 0.0900619 0
M  V30 39781 C 3877.29 -3.3783 0.269062 0
M  V30 39782 C 3876.46 -4.1715 1.31547 0
M  V30 39783 C 3875.52 -5.21017 0.736757 0
M  V30 39784 O 3874.55 -5.51438 1.41085 0
M  V30 39785 N 3875.75 -5.78619 -0.466935 0
M  V30 39786 H 3878.52 -2.40124 1.79334 0
M  V30 39787 H 3876.08 -1.20484 1.08144 0
M  V30 39788 H 3878.07 -4.04486 -0.1316 0
M  V30 39789 H 3876.64 -3.07464 -0.564332 0
M  V30 39790 H 3875.86 -3.45853 1.89154 0
M  V30 39791 H 3877.15 -4.6694 2.02101 0
M  V30 39792 H 3876.54 -5.562 -1.03238 0
M  V30 39793 H 3875.1 -6.46753 -0.80955 0
M  V30 39794 N 3878.53 -0.983032 -1.23184 0
M  V30 39795 C 3879.76 -0.671487 -1.957 0
M  V30 39796 C 3880.18 0.76203 -1.72738 0
M  V30 39797 O 3879.53 1.51308 -1.0204 0
M  V30 39798 C 3879.59 -0.955635 -3.4864 0
M  V30 39799 O 3879.31 -2.33281 -3.70825 0
M  V30 39800 C 3880.81 -0.66041 -4.38353 0
M  V30 39801 H 3878.03 -0.249219 -0.623001 0
M  V30 39802 H 3880.57 -1.31513 -1.56603 0
M  V30 39803 H 3878.73 -0.35796 -3.85743 0
M  V30 39804 H 3879.14 -2.42451 -4.651 0
M  V30 39805 H 3880.61 -0.909573 -5.44455 0
M  V30 39806 H 3881.09 0.405538 -4.37324 0
M  V30 39807 H 3881.7 -1.23868 -4.06862 0
M  V30 39808 N 3880.01 1.38338 -0.755006 0
M  V30 39809 C 3881.26 1.99326 -0.308572 0
M  V30 39810 C 3881.57 1.60613 1.11637 0
M  V30 39811 O 3882.78 2.14581 1.66335 0
M  V30 39812 C 3881.24 3.56399 -0.500751 0
M  V30 39813 C 3880.84 4.04063 -1.93487 0
M  V30 39814 C 3882.59 4.24338 -0.1171 0
M  V30 39815 C 3880.5 5.53783 -2.07554 0
M  V30 39816 H 3879.43 0.745692 -0.111624 0
M  V30 39817 H 3882.08 1.58084 -0.931749 0
M  V30 39818 H 3880.46 3.95536 0.191633 0
M  V30 39819 H 3881.63 3.76213 -2.66084 0
M  V30 39820 H 3879.95 3.48852 -2.27357 0
M  V30 39821 H 3882.54 5.34322 -0.200941 0
M  V30 39822 H 3882.89 4.05769 0.93046 0
M  V30 39823 H 3883.42 3.90445 -0.761392 0
M  V30 39824 H 3880.16 5.77258 -3.10569 0
M  V30 39825 H 3879.68 5.83371 -1.39419 0
M  V30 39826 H 3881.36 6.19503 -1.86616 0
M  V30 39827 N 3881.49 0.504194 1.49317 0
M  V30 39828 C 3882.42 -0.309287 2.27104 0
M  V30 39829 C 3883.44 -0.927758 1.33778 0
M  V30 39830 O 3884.62 -0.810557 1.59035 0
M  V30 39831 C 3881.72 -1.45072 3.0628 0
M  V30 39832 C 3880.9 -0.93897 4.27203 0
M  V30 39833 C 3879.96 -1.9584 4.88398 0
M  V30 39834 O 3878.98 -1.52567 5.48372 0
M  V30 39835 N 3880.18 -3.28902 4.78334 0
M  V30 39836 H 3882.95 0.357722 2.97557 0
M  V30 39837 H 3880.51 0.336935 1.58355 0
M  V30 39838 H 3882.5 -2.13032 3.44092 0
M  V30 39839 H 3881.07 -2.02183 2.38413 0
M  V30 39840 H 3880.29 -0.084174 3.9411 0
M  V30 39841 H 3881.58 -0.575515 5.05535 0
M  V30 39842 H 3880.98 -3.66746 4.30714 0
M  V30 39843 H 3879.54 -3.92566 5.20322 0
M  V30 39844 N 3882.97 -1.5579 0.238166 0
M  V30 39845 C 3884.2 -2.03126 -0.393387 0
M  V30 39846 C 3884.61 -1.11763 -1.52166 0
M  V30 39847 O 3883.97 -0.130373 -1.82034 0
M  V30 39848 C 3884.02 -3.49874 -0.909413 0
M  V30 39849 O 3883.74 -4.37755 0.173887 0
M  V30 39850 C 3885.24 -4.12931 -1.61254 0
M  V30 39851 H 3882.46 -0.664313 -0.0944961 0
M  V30 39852 H 3885.01 -2.01316 0.359477 0
M  V30 39853 H 3883.16 -3.52247 -1.61249 0
M  V30 39854 H 3883.57 -5.24053 -0.216549 0
M  V30 39855 H 3885.05 -5.17331 -1.92542 0
M  V30 39856 H 3885.53 -3.58905 -2.53148 0
M  V30 39857 H 3886.13 -4.14456 -0.954254 0
M  V30 39858 N 3884.45 0.0350506 -1.57561 0
M  V30 39859 C 3885.67 0.738996 -1.93252 0
M  V30 39860 C 3886.09 1.69212 -0.83742 0
M  V30 39861 O 3885.45 1.81543 0.186637 0
M  V30 39862 C 3885.5 1.50121 -3.28856 0
M  V30 39863 O 3885.22 0.58635 -4.34158 0
M  V30 39864 C 3886.72 2.30285 -3.78792 0
M  V30 39865 H 3883.94 0.208041 -0.637934 0
M  V30 39866 H 3886.48 -0.00563993 -2.04499 0
M  V30 39867 H 3884.64 2.19778 -3.19024 0
M  V30 39868 H 3885.05 1.12025 -5.12397 0
M  V30 39869 H 3886.53 2.7917 -4.76202 0
M  V30 39870 H 3887 3.11443 -3.09677 0
M  V30 39871 H 3887.61 1.65714 -3.91687 0
M  V30 39872 N 3885.92 1.54577 0.307209 0
M  V30 39873 C 3887.17 1.7382 1.04473 0
M  V30 39874 C 3887.5 0.519135 1.87133 0
M  V30 39875 O 3886.78 -0.483819 1.88386 0
M  V30 39876 C 3887.06 3.02353 1.95589 0
M  V30 39877 C 3886.91 4.34545 1.1615 0
M  V30 39878 C 3888.23 3.2672 2.94859 0
M  V30 39879 H 3885.35 0.63244 0.378403 0
M  V30 39880 H 3887.99 1.87287 0.319922 0
M  V30 39881 H 3886.14 2.91002 2.57391 0
M  V30 39882 H 3887.82 4.57804 0.56682 0
M  V30 39883 H 3886.06 4.3131 0.464082 0
M  V30 39884 H 3886.73 5.20734 1.8314 0
M  V30 39885 H 3889.21 3.3764 2.43184 0
M  V30 39886 H 3888.08 4.17982 3.55783 0
M  V30 39887 H 3888.34 2.44721 3.6819 0
M  V30 39888 N 3887.4 -0.570096 1.46927 0
M  V30 39889 C 3888.68 -1.33061 1.43367 0
M  V30 39890 C 3889.06 -2.10737 0.123775 0
M  V30 39891 O 3888.41 -2.10254 -0.894729 0
M  V30 39892 C 3888.62 -2.246 2.67126 0
M  V30 39893 C 3889.97 -2.8603 3.13803 0
M  V30 39894 O 3890.99 -2.34907 2.67763 0
M  V30 39895 O 3889.85 -3.78916 3.93808 0
M  V30 39896 H 3886.94 -0.598489 0.570736 0
M  V30 39897 H 3889.49 -0.590067 1.59111 0
M  V30 39898 H 3888.26 -1.66716 3.54008 0
M  V30 39899 H 3887.88 -3.05971 2.53904 0
M  V30 39900 N 3888.88 -1.34844 -0.815777 0
M  V30 39901 C 3890.3 -1.14681 -1.10997 0
M  V30 39902 C 3890.5 0.0468985 -2.01445 0
M  V30 39903 O 3889.55 0.720279 -2.42009 0
M  V30 39904 C 3890.87 -2.44546 -1.7498 0
M  V30 39905 C 3892.41 -2.50668 -1.87442 0
M  V30 39906 C 3892.89 -3.80552 -2.54841 0
M  V30 39907 N 3894.38 -3.81752 -2.62334 0
M  V30 39908 C 3895.12 -4.78975 -3.15231 0
M  V30 39909 N 3894.61 -5.86583 -3.68635 0
M  V30 39910 N 3896.4 -4.66422 -3.13698 0
M  V30 39911 H 3888.56 -2.11316 -0.214314 0
M  V30 39912 H 3890.82 -0.9348 -0.157649 0
M  V30 39913 H 3890.52 -3.32025 -1.15984 0
M  V30 39914 H 3890.4 -2.58415 -2.74776 0
M  V30 39915 H 3892.79 -1.63623 -2.45584 0
M  V30 39916 H 3892.87 -2.40721 -0.865283 0
M  V30 39917 H 3892.51 -4.6799 -1.97352 0
M  V30 39918 H 3892.44 -3.87785 -3.56273 0
M  V30 39919 H 3894.93 -3.03996 -2.24488 0
M  V30 39920 H 3895.24 -6.56773 -4.0727 0
M  V30 39921 H 3893.59 -5.90287 -3.66859 0
M  V30 39922 H 3896.78 -3.815 -2.71248 0
M  V30 39923 H 3896.95 -5.42357 -3.54617 0
M  V30 39924 N 3890.36 1.03684 -1.1869 0
M  V30 39925 C 3891.61 1.766 -0.982687 0
M  V30 39926 C 3891.93 1.88782 0.48852 0
M  V30 39927 O 3891.2 1.4156 1.35416 0
M  V30 39928 H 3889.78 0.654196 -0.360606 0
M  V30 39929 H 3892.44 1.25113 -1.49442 0
M  V30 39930 H 3891.54 2.77722 -1.42396 0
M  V30 39931 N 3891.84 0.989551 1.22661 0
M  V30 39932 C 3892.77 0.556931 2.26761 0
M  V30 39933 C 3893.75 -0.414509 1.64972 0
M  V30 39934 O 3894.93 -0.305876 1.91776 0
M  V30 39935 C 3892.06 -0.132512 3.47047 0
M  V30 39936 C 3891.02 0.757132 4.2125 0
M  V30 39937 C 3890.34 -0.06504 5.3466 0
M  V30 39938 C 3891.64 2.05237 4.80286 0
M  V30 39939 H 3893.34 1.42708 2.63201 0
M  V30 39940 H 3890.88 0.687636 1.26521 0
M  V30 39941 H 3892.84 -0.446536 4.19027 0
M  V30 39942 H 3891.56 -1.03718 3.09694 0
M  V30 39943 H 3890.22 1.05475 3.51099 0
M  V30 39944 H 3889.87 -0.970521 4.93548 0
M  V30 39945 H 3889.57 0.527166 5.8523 0
M  V30 39946 H 3891.09 -0.373235 6.09458 0
M  V30 39947 H 3892.51 1.80252 5.44226 0
M  V30 39948 H 3890.9 2.59312 5.41182 0
M  V30 39949 H 3891.97 2.73329 4.00524 0
M  V30 39950 N 3893.32 -1.37936 0.762332 0
M  V30 39951 C 3894.25 -2.32978 0.156077 0
M  V30 39952 C 3895.23 -1.55309 -0.693768 0
M  V30 39953 O 3896.41 -1.83588 -0.633163 0
M  V30 39954 C 3893.54 -3.39517 -0.731139 0
M  V30 39955 C 3892.5 -4.27997 0.0166586 0
M  V30 39956 C 3891.82 -5.25467 -0.989384 0
M  V30 39957 C 3893.12 -5.08559 1.19018 0
M  V30 39958 H 3894.82 -2.83928 0.950028 0
M  V30 39959 H 3892.36 -1.36513 0.458293 0
M  V30 39960 H 3894.31 -4.04976 -1.165 0
M  V30 39961 H 3893.04 -2.8707 -1.55751 0
M  V30 39962 H 3891.7 -3.64055 0.431192 0
M  V30 39963 H 3891.35 -4.69304 -1.81005 0
M  V30 39964 H 3891.05 -5.85523 -0.493635 0
M  V30 39965 H 3892.57 -5.93802 -1.42238 0
M  V30 39966 H 3893.98 -5.6721 0.833436 0
M  V30 39967 H 3892.38 -5.77894 1.61738 0
M  V30 39968 H 3893.45 -4.41784 1.99887 0
M  V30 39969 N 3894.79 -0.512106 -1.49048 0
M  V30 39970 C 3896.04 0.0284533 -2.0248 0
M  V30 39971 C 3896.37 1.35963 -1.39084 0
M  V30 39972 O 3895.62 1.88675 -0.519626 0
M  V30 39973 C 3895.92 0.218062 -3.56734 0
M  V30 39974 C 3895.59 -1.0365 -4.38825 0
M  V30 39975 C 3894.25 -1.38038 -4.60976 0
M  V30 39976 C 3896.6 -1.8699 -4.86502 0
M  V30 39977 C 3893.93 -2.55695 -5.2805 0
M  V30 39978 C 3896.28 -3.03811 -5.54871 0
M  V30 39979 C 3894.95 -3.38565 -5.75265 0
M  V30 39980 H 3894.22 0.0104118 -0.740927 0
M  V30 39981 H 3896.86 -0.674513 -1.79228 0
M  V30 39982 H 3895.17 1.00365 -3.78727 0
M  V30 39983 H 3896.87 0.650943 -3.95681 0
M  V30 39984 H 3893.46 -0.758669 -4.21832 0
M  V30 39985 H 3897.64 -1.61737 -4.69207 0
M  V30 39986 H 3892.9 -2.82846 -5.42041 0
M  V30 39987 H 3897.07 -3.68707 -5.90786 0
M  V30 39988 H 3894.7 -4.29836 -6.27013 0
M  V30 39989 N 3896.27 1.55662 -0.246424 0
M  V30 39990 C 3897.52 1.98932 0.378452 0
M  V30 39991 C 3897.85 1.13454 1.57982 0
M  V30 39992 O 3897.1 0.185248 1.94821 0
M  V30 39993 C 3897.4 3.47577 0.832164 0
M  V30 39994 C 3897.07 4.50142 -0.261397 0
M  V30 39995 C 3895.73 4.7791 -0.561744 0
M  V30 39996 C 3898.08 5.11523 -0.999708 0
M  V30 39997 C 3895.41 5.64334 -1.60448 0
M  V30 39998 C 3897.76 5.99078 -2.03196 0
M  V30 39999 C 3896.42 6.25179 -2.33896 0
M  V30 40000 H 3895.69 0.727944 0.138485 0
M  V30 40001 H 3898.34 1.88197 -0.354149 0
M  V30 40002 H 3896.65 3.55642 1.64396 0
M  V30 40003 H 3898.34 3.78445 1.32592 0
M  V30 40004 H 3894.93 4.28597 -0.0171648 0
M  V30 40005 H 3899.12 4.90118 -0.780919 0
M  V30 40006 H 3894.37 5.82813 -1.84768 0
M  V30 40007 H 3898.55 6.45682 -2.60897 0
M  V30 40008 H 3896.17 6.91942 -3.14834 0
M  V30 40009 N 3897.75 -0.0266943 1.57577 0
M  V30 40010 C 3898.71 -1.01124 2.05686 0
M  V30 40011 C 3899.71 -1.28895 0.961396 0
M  V30 40012 O 3900.9 -1.23859 1.22494 0
M  V30 40013 C 3898.03 -2.34344 2.4758 0
M  V30 40014 H 3899.23 -0.595629 2.93926 0
M  V30 40015 H 3896.78 -0.273576 1.53887 0
M  V30 40016 H 3897.52 -2.80648 1.62503 0
M  V30 40017 H 3897.3 -2.15516 3.2756 0
M  V30 40018 H 3898.79 -3.05024 2.85219 0
M  V30 40019 N 3899.23 -1.54738 -0.299007 0
M  V30 40020 C 3900.14 -1.88886 -1.39137 0
M  V30 40021 C 3901.15 -0.783231 -1.55375 0
M  V30 40022 O 3902.33 -1.07988 -1.70002 0
M  V30 40023 C 3899.39 -2.13091 -2.73483 0
M  V30 40024 C 3898.46 -3.36792 -2.66213 0
M  V30 40025 C 3897.69 -3.59833 -3.94152 0
M  V30 40026 O 3897.91 -2.85849 -4.93605 0
M  V30 40027 O 3896.85 -4.53351 -3.95925 0
M  V30 40028 H 3900.67 -2.81823 -1.13179 0
M  V30 40029 H 3898.26 -1.40953 -0.495246 0
M  V30 40030 H 3900.14 -2.30201 -3.52966 0
M  V30 40031 H 3898.81 -1.23341 -2.9928 0
M  V30 40032 H 3897.72 -3.25044 -1.85195 0
M  V30 40033 H 3899.05 -4.26679 -2.45368 0
M  V30 40034 N 3900.71 0.562296 -1.47228 0
M  V30 40035 C 3901.65 1.69082 -1.59732 0
M  V30 40036 C 3902.65 1.62897 -0.464841 0
M  V30 40037 O 3903.85 1.68144 -0.642459 0
M  V30 40038 H 3900.23 0.559382 -0.502589 0
M  V30 40039 H 3902.2 1.55671 -2.54576 0
M  V30 40040 C 3900.95 3.07444 -1.62399 0
M  V30 40041 H 3900.27 3.12882 -2.48887 0
M  V30 40042 H 3901.71 3.86111 -1.75199 0
M  V30 40043 C 3900.17 3.3501 -0.356346 0
M  V30 40044 O 3900.7 3.97989 0.544748 0
M  V30 40045 N 3898.91 2.89624 -0.237939 0
M  V30 40046 H 3898.45 2.38552 -0.972142 0
M  V30 40047 H 3898.41 3.0844 0.609294 0
M  V30 40048 N 3902.18 1.35274 0.808615 0
M  V30 40049 C 3903.43 1.2818 1.56251 0
M  V30 40050 C 3903.75 -0.144117 1.94467 0
M  V30 40051 O 3903.02 -1.08008 1.63435 0
M  V30 40052 H 3901.6 0.471464 0.579423 0
M  V30 40053 H 3904.26 1.69354 0.964645 0
M  V30 40054 H 3903.36 1.8963 2.47885 0
M  V30 40055 N 3903.66 -1.03053 1.19239 0
M  V30 40056 C 3904.94 -1.73489 0.903384 0
M  V30 40057 C 3905.32 -2.02649 -0.591329 0
M  V30 40058 O 3904.67 -1.6798 -1.54903 0
M  V30 40059 C 3904.88 -3.01281 1.76155 0
M  V30 40060 C 3906.23 -3.74822 1.99484 0
M  V30 40061 O 3907.25 -3.11204 1.73292 0
M  V30 40062 O 3906.11 -4.89186 2.43637 0
M  V30 40063 H 3903.2 -0.755434 0.336525 0
M  V30 40064 H 3905.75 -1.09027 1.30043 0
M  V30 40065 H 3904.52 -2.75947 2.77433 0
M  V30 40066 H 3904.14 -3.73483 1.36367 0
M  V30 40067 N 3905.14 -0.996042 -1.22134 0
M  V30 40068 C 3906.56 -0.70731 -1.43071 0
M  V30 40069 C 3906.76 0.720873 -1.88164 0
M  V30 40070 O 3905.81 1.49138 -2.0375 0
M  V30 40071 C 3907.13 -1.71555 -2.4696 0
M  V30 40072 C 3908.67 -1.73136 -2.60755 0
M  V30 40073 C 3909.15 -2.72831 -3.67868 0
M  V30 40074 N 3910.64 -2.71445 -3.75329 0
M  V30 40075 C 3911.37 -3.45249 -4.57811 0
M  V30 40076 N 3910.87 -4.28664 -5.4426 0
M  V30 40077 N 3912.66 -3.3394 -4.52151 0
M  V30 40078 H 3904.81 -1.91837 -0.911717 0
M  V30 40079 H 3907.08 -0.82752 -0.462508 0
M  V30 40080 H 3906.78 -2.73769 -2.20779 0
M  V30 40081 H 3906.66 -1.51095 -3.45616 0
M  V30 40082 H 3909.04 -0.716182 -2.86278 0
M  V30 40083 H 3909.13 -1.97666 -1.62364 0
M  V30 40084 H 3908.77 -3.745 -3.43092 0
M  V30 40085 H 3908.7 -2.4557 -4.65836 0
M  V30 40086 H 3911.19 -2.1092 -3.13562 0
M  V30 40087 H 3911.5 -4.81797 -6.04228 0
M  V30 40088 H 3909.85 -4.3275 -5.43832 0
M  V30 40089 H 3913.04 -2.68213 -3.8364 0
M  V30 40090 H 3913.21 -3.91717 -5.162 0
M  V30 40091 N 3906.62 1.37529 -0.769636 0
M  V30 40092 C 3907.87 1.99743 -0.333001 0
M  V30 40093 C 3908.19 1.61096 1.08987 0
M  V30 40094 O 3907.45 0.847687 1.76388 0
M  V30 40095 C 3907.75 3.54906 -0.421448 0
M  V30 40096 C 3907.41 4.13315 -1.80227 0
M  V30 40097 C 3906.08 4.2898 -2.18013 0
M  V30 40098 C 3908.43 4.45369 -2.70732 0
M  V30 40099 C 3905.76 4.74002 -3.45744 0
M  V30 40100 C 3908.11 4.91815 -3.97871 0
M  V30 40101 C 3906.77 5.05686 -4.35704 0
M  V30 40102 H 3906.04 0.730912 -0.121854 0
M  V30 40103 H 3908.69 1.6433 -0.983249 0
M  V30 40104 H 3906.99 3.90553 0.312342 0
M  V30 40105 H 3908.69 4.00947 -0.064941 0
M  V30 40106 H 3905.28 4.01547 -1.49859 0
M  V30 40107 H 3909.46 4.32853 -2.428 0
M  V30 40108 H 3904.72 4.82928 -3.74954 0
M  V30 40109 H 3908.89 5.15584 -4.6813 0
M  V30 40110 H 3906.52 5.40332 -5.34739 0
M  V30 40111 N 3908.1 0.520003 1.48774 0
M  V30 40112 C 3909.35 -0.0196618 2.0169 0
M  V30 40113 C 3909.66 -1.36269 1.40321 0
M  V30 40114 O 3910.86 -1.99014 1.84677 0
M  V30 40115 C 3909.32 -0.0854618 3.59799 0
M  V30 40116 C 3908.93 1.25207 4.30148 0
M  V30 40117 C 3910.67 -0.574483 4.20595 0
M  V30 40118 C 3908.58 1.1474 5.80163 0
M  V30 40119 H 3907.51 -0.0111197 0.753918 0
M  V30 40120 H 3910.16 0.662284 1.71132 0
M  V30 40121 H 3908.54 -0.832271 3.87155 0
M  V30 40122 H 3909.72 2.01366 4.14474 0
M  V30 40123 H 3908.03 1.67603 3.8118 0
M  V30 40124 H 3910.63 -0.670605 5.30478 0
M  V30 40125 H 3910.97 -1.5779 3.85237 0
M  V30 40126 H 3911.5 0.116347 3.9763 0
M  V30 40127 H 3908.24 2.12566 6.20077 0
M  V30 40128 H 3907.76 0.427007 5.98278 0
M  V30 40129 H 3909.44 0.833933 6.41603 0
M  V30 40130 N 3909.57 -1.55529 0.254676 0
M  V30 40131 C 3910.8 -2.03986 -0.374759 0
M  V30 40132 C 3911.22 -1.13251 -1.50186 0
M  V30 40133 O 3910.58 -0.126995 -1.80855 0
M  V30 40134 C 3910.63 -3.50376 -0.852573 0
M  V30 40135 O 3909.73 -3.62763 -1.96154 0
M  V30 40136 H 3909.08 -0.65909 -0.0806041 0
M  V30 40137 H 3911.61 -2.00983 0.383005 0
M  V30 40138 H 3911.62 -3.91347 -1.15375 0
M  V30 40139 H 3910.29 -4.15891 -0.0278313 0
M  V30 40140 H 3908.87 -3.33691 -1.66447 0
M  V30 40141 N 3911.05 0.0183372 -1.57589 0
M  V30 40142 C 3911.98 1.01488 -2.10291 0
M  V30 40143 C 3912.96 1.37027 -1.00785 0
M  V30 40144 O 3914.15 1.45724 -1.28368 0
M  V30 40145 C 3911.28 2.3125 -2.59115 0
M  V30 40146 C 3910.23 2.09924 -3.72983 0
M  V30 40147 C 3909.56 3.4554 -4.08052 0
M  V30 40148 C 3910.86 1.47668 -5.0099 0
M  V30 40149 H 3912.55 0.576129 -2.93805 0
M  V30 40150 H 3910.1 0.275683 -1.41336 0
M  V30 40151 H 3912.05 3.01304 -2.94608 0
M  V30 40152 H 3910.78 2.77205 -1.72699 0
M  V30 40153 H 3909.43 1.423 -3.37855 0
M  V30 40154 H 3909.08 3.89163 -3.18686 0
M  V30 40155 H 3908.78 3.32092 -4.84756 0
M  V30 40156 H 3910.31 4.16939 -4.46088 0
M  V30 40157 H 3911.72 2.07654 -5.34371 0
M  V30 40158 H 3910.12 1.44764 -5.82377 0
M  V30 40159 H 3911.19 0.443719 -4.82866 0
M  V30 40160 N 3912.53 1.54894 0.290797 0
M  V30 40161 C 3913.48 1.87318 1.37894 0
M  V30 40162 C 3914.47 0.747821 1.52 0
M  V30 40163 O 3915.68 0.931947 1.53996 0
M  V30 40164 H 3912.05 0.594268 0.460814 0
M  V30 40165 H 3914.02 2.78252 1.07789 0
M  V30 40166 C 3912.77 2.14611 2.73564 0
M  V30 40167 H 3912.1 3.00683 2.63495 0
M  V30 40168 H 3913.54 2.41231 3.48689 0
M  V30 40169 C 3912 0.947921 3.23289 0
M  V30 40170 O 3912.53 0.173549 4.01325 0
M  V30 40171 N 3910.73 0.750494 2.80742 0
M  V30 40172 H 3910.28 1.38188 2.17398 0
M  V30 40173 H 3910.24 -0.0496194 3.14361 0
M  V30 40174 N 3914.01 -0.55448 1.47524 0
M  V30 40175 C 3915.26 -1.30789 1.53549 0
M  V30 40176 C 3915.57 -1.94538 0.203589 0
M  V30 40177 O 3916.78 -2.71129 0.141858 0
M  V30 40178 C 3915.23 -2.37183 2.70688 0
M  V30 40179 C 3914.84 -1.79613 4.10418 0
M  V30 40180 C 3916.58 -3.13688 2.86007 0
M  V30 40181 C 3914.49 -2.83804 5.18854 0
M  V30 40182 H 3913.42 -0.491782 0.571548 0
M  V30 40183 H 3916.07 -0.588579 1.73804 0
M  V30 40184 H 3914.45 -3.1204 2.43817 0
M  V30 40185 H 3915.63 -1.1111 4.47204 0
M  V30 40186 H 3913.94 -1.15684 4.00008 0
M  V30 40187 H 3916.54 -3.91499 3.64188 0
M  V30 40188 H 3916.88 -3.68043 1.94551 0
M  V30 40189 H 3917.42 -2.45943 3.12661 0
M  V30 40190 H 3914.16 -2.343 6.12196 0
M  V30 40191 H 3913.68 -3.50709 4.86583 0
M  V30 40192 H 3915.35 -3.47246 5.45921 0
M  V30 40193 N 3915.49 -1.35701 -0.80143 0
M  V30 40194 C 3916.4 -1.31171 -1.94503 0
M  V30 40195 C 3917.41 -0.215777 -1.72657 0
M  V30 40196 O 3918.59 -0.446057 -1.96398 0
M  V30 40197 C 3915.65 -1.0884 -3.29173 0
M  V30 40198 C 3914.71 -2.27794 -3.63879 0
M  V30 40199 C 3913.95 -2.06519 -4.92123 0
M  V30 40200 O 3914.17 -1.03426 -5.60945 0
M  V30 40201 O 3913.1 -2.94007 -5.25208 0
M  V30 40202 H 3916.93 -2.27427 -2.01273 0
M  V30 40203 H 3914.52 -1.16126 -0.939959 0
M  V30 40204 H 3916.4 -0.982552 -4.09785 0
M  V30 40205 H 3915.07 -0.156383 -3.23322 0
M  V30 40206 H 3913.98 -2.43945 -2.83623 0
M  V30 40207 H 3915.31 -3.1946 -3.74441 0
M  V30 40208 N 3916.96 1.02419 -1.19783 0
M  V30 40209 C 3918.24 1.73007 -0.912572 0
M  V30 40210 C 3918.62 2.02959 0.580574 0
M  V30 40211 O 3917.97 1.688 1.5401 0
M  V30 40212 C 3918.18 3.00343 -1.7775 0
M  V30 40213 C 3919.53 3.73758 -2.01469 0
M  V30 40214 O 3920.55 3.10281 -1.7494 0
M  V30 40215 O 3919.41 4.87887 -2.46228 0
M  V30 40216 H 3916.5 0.753638 -0.340527 0
M  V30 40217 H 3919.05 1.08335 -1.3062 0
M  V30 40218 H 3917.82 2.74472 -2.78892 0
M  V30 40219 H 3917.45 3.72755 -1.38346 0
M  V30 40220 N 3918.44 1.0025 1.21604 0
M  V30 40221 C 3919.69 0.682435 1.90229 0
M  V30 40222 C 3920.01 -0.788999 1.78325 0
M  V30 40223 O 3919.28 -1.56633 1.17656 0
M  V30 40224 H 3917.86 0.249426 0.704127 0
M  V30 40225 H 3920.52 1.27108 1.47749 0
M  V30 40226 H 3919.62 0.953403 2.97181 0
M  V30 40227 N 3919.92 -1.37119 0.776919 0
M  V30 40228 C 3920.87 -2.3021 0.164879 0
M  V30 40229 C 3921.84 -1.51358 -0.68411 0
M  V30 40230 O 3923.02 -1.79909 -0.635396 0
M  V30 40231 C 3920.16 -3.37839 -0.704204 0
M  V30 40232 C 3919.28 -4.31696 0.161957 0
M  V30 40233 C 3918.41 -5.26402 -0.712318 0
M  V30 40234 C 3917.45 -6.11901 0.156061 0
M  V30 40235 N 3916.59 -6.98833 -0.676484 0
M  V30 40236 H 3921.43 -2.81969 0.964235 0
M  V30 40237 H 3918.96 -1.38801 0.487089 0
M  V30 40238 H 3920.92 -3.98873 -1.22295 0
M  V30 40239 H 3919.55 -2.87432 -1.46911 0
M  V30 40240 H 3918.6 -3.71924 0.798557 0
M  V30 40241 H 3919.92 -4.91819 0.831582 0
M  V30 40242 H 3919.07 -5.92667 -1.29735 0
M  V30 40243 H 3917.81 -4.66703 -1.41561 0
M  V30 40244 H 3916.81 -5.44611 0.753588 0
M  V30 40245 H 3918.04 -6.73674 0.856764 0
M  V30 40246 H 3915.99 -6.41656 -1.3643 0
M  V30 40247 H 3915.9 -7.55973 -0.0642688 0
M  V30 40248 H 3917.17 -7.69481 -1.24574 0
M  V30 40249 N 3921.4 -0.527886 -1.48496 0
M  V30 40250 C 3922.33 0.22485 -2.32415 0
M  V30 40251 C 3923.31 0.937085 -1.4196 0
M  V30 40252 O 3924.5 0.923272 -1.70849 0
M  V30 40253 C 3921.63 1.2735 -3.23109 0
M  V30 40254 C 3920.58 0.679536 -4.22571 0
M  V30 40255 C 3919.91 1.83069 -5.02384 0
M  V30 40256 C 3921.21 -0.347361 -5.21144 0
M  V30 40257 H 3922.9 -0.475684 -2.95597 0
M  V30 40258 H 3920.45 -0.230207 -1.42148 0
M  V30 40259 H 3922.4 1.80803 -3.80642 0
M  V30 40260 H 3921.12 2.00359 -2.57922 0
M  V30 40261 H 3919.78 0.166544 -3.66222 0
M  V30 40262 H 3919.43 2.5491 -4.33624 0
M  V30 40263 H 3919.13 1.43919 -5.69703 0
M  V30 40264 H 3920.65 2.36904 -5.62769 0
M  V30 40265 H 3922.07 0.100007 -5.73213 0
M  V30 40266 H 3920.46 -0.656126 -5.96502 0
M  V30 40267 H 3921.53 -1.25387 -4.68408 0
M  V30 40268 N 3922.88 1.55391 -0.26292 0
M  V30 40269 C 3923.81 2.18116 0.670863 0
M  V30 40270 C 3924.79 1.13821 1.16118 0
M  V30 40271 O 3925.97 1.42287 1.23639 0
M  V30 40272 C 3923.1 2.79467 1.91353 0
M  V30 40273 C 3922.15 3.96957 1.55973 0
M  V30 40274 S 3922.98 5.31559 0.648441 0
M  V30 40275 C 3924.13 5.96372 1.89975 0
M  V30 40276 H 3924.37 2.9698 0.137864 0
M  V30 40277 H 3921.9 1.54328 -0.0472566 0
M  V30 40278 H 3923.86 3.15447 2.62685 0
M  V30 40279 H 3922.52 2.00519 2.41766 0
M  V30 40280 H 3921.71 4.38531 2.48408 0
M  V30 40281 H 3921.31 3.62337 0.926699 0
M  V30 40282 H 3923.61 6.14864 2.84515 0
M  V30 40283 H 3924.55 6.91434 1.52723 0
M  V30 40284 H 3924.96 5.25604 2.05914 0
M  V30 40285 N 3924.36 -0.00997961 1.57597 0
M  V30 40286 C 3925.6 -0.697934 1.90412 0
M  V30 40287 C 3925.93 -1.73973 0.862955 0
M  V30 40288 O 3925.21 -1.94132 -0.119612 0
M  V30 40289 C 3925.49 -1.35016 3.3383 0
M  V30 40290 C 3925.35 -0.320581 4.48656 0
M  V30 40291 C 3926.66 -2.27904 3.76494 0
M  V30 40292 H 3923.78 -0.252253 0.692486 0
M  V30 40293 H 3926.43 0.0392659 1.89959 0
M  V30 40294 H 3924.58 -1.9785 3.34347 0
M  V30 40295 H 3926.25 0.30731 4.60275 0
M  V30 40296 H 3924.49 0.358204 4.32319 0
M  V30 40297 H 3925.16 -0.815795 5.45938 0
M  V30 40298 H 3927.64 -1.75097 3.77466 0
M  V30 40299 H 3926.51 -2.70511 4.77614 0
M  V30 40300 H 3926.77 -3.15392 3.09807 0
M  V30 40301 N 3925.83 -1.55046 -0.282578 0
M  V30 40302 C 3927.25 -1.46671 -0.629259 0
M  V30 40303 C 3927.45 -0.672965 -1.8993 0
M  V30 40304 O 3926.51 -0.18799 -2.51799 0
M  V30 40305 C 3927.82 -2.90803 -0.765122 0
M  V30 40306 C 3929.37 -3.00959 -0.859806 0
M  V30 40307 C 3929.84 -4.46325 -1.02752 0
M  V30 40308 N 3931.33 -4.50113 -1.09328 0
M  V30 40309 C 3932.07 -5.59795 -1.24168 0
M  V30 40310 N 3931.56 -6.79363 -1.35788 0
M  V30 40311 N 3933.36 -5.47518 -1.27202 0
M  V30 40312 H 3925.51 -2.05112 0.551628 0
M  V30 40313 H 3927.77 -0.929715 0.185294 0
M  V30 40314 H 3927.48 -3.51565 0.097493 0
M  V30 40315 H 3927.35 -3.39274 -1.64842 0
M  V30 40316 H 3929.74 -2.403 -1.7129 0
M  V30 40317 H 3929.82 -2.55755 0.0478933 0
M  V30 40318 H 3929.46 -5.07584 -0.179129 0
M  V30 40319 H 3929.39 -4.89176 -1.94973 0
M  V30 40320 H 3931.88 -3.63979 -1.01626 0
M  V30 40321 H 3932.2 -7.58706 -1.46918 0
M  V30 40322 H 3930.54 -6.82192 -1.3281 0
M  V30 40323 H 3933.73 -4.53049 -1.17748 0
M  V30 40324 H 3933.91 -6.33043 -1.38424 0
M  V30 40325 N 3927.31 0.546649 -1.47816 0
M  V30 40326 C 3928.54 1.32656 -1.58386 0
M  V30 40327 C 3928.95 1.8771 -0.236967 0
M  V30 40328 O 3928.29 1.66248 0.781492 0
M  V30 40329 C 3928.35 2.52629 -2.55771 0
M  V30 40330 C 3928.02 2.18784 -4.01226 0
M  V30 40331 C 3929.02 1.75447 -4.89402 0
M  V30 40332 C 3926.7 2.29819 -4.46641 0
M  V30 40333 C 3928.69 1.43587 -6.21017 0
M  V30 40334 C 3926.38 1.97571 -5.78281 0
M  V30 40335 C 3927.38 1.54524 -6.6529 0
M  V30 40336 O 3927.07 1.22692 -7.94482 0
M  V30 40337 H 3926.8 0.4103 -0.537243 0
M  V30 40338 H 3929.35 0.667954 -1.94236 0
M  V30 40339 H 3927.58 3.21416 -2.15009 0
M  V30 40340 H 3929.27 3.14702 -2.56354 0
M  V30 40341 H 3930.04 1.66405 -4.55559 0
M  V30 40342 H 3925.92 2.62283 -3.79116 0
M  V30 40343 H 3929.46 1.09914 -6.88887 0
M  V30 40344 H 3925.36 2.06248 -6.11663 0
M  V30 40345 H 3926.13 1.36232 -8.07083 0
M  V30 40346 N 3928.79 1.36124 0.794222 0
M  V30 40347 C 3929.74 1.30059 1.90665 0
M  V30 40348 C 3930.71 0.170174 1.65226 0
M  V30 40349 O 3931.89 0.355907 1.87451 0
M  V30 40350 C 3929.03 1.09092 3.27403 0
M  V30 40351 C 3928.14 2.31166 3.64947 0
M  V30 40352 C 3927.28 2.03249 4.90778 0
M  V30 40353 C 3926.32 3.2131 5.20986 0
M  V30 40354 N 3925.46 2.93089 6.37999 0
M  V30 40355 H 3930.3 2.25181 1.95186 0
M  V30 40356 H 3927.83 1.11922 0.95456 0
M  V30 40357 H 3929.79 0.949631 4.06248 0
M  V30 40358 H 3928.42 0.176268 3.22318 0
M  V30 40359 H 3927.47 2.56115 2.81264 0
M  V30 40360 H 3928.78 3.19284 3.83222 0
M  V30 40361 H 3927.94 1.86022 5.77478 0
M  V30 40362 H 3926.68 1.12435 4.74563 0
M  V30 40363 H 3925.68 3.391 4.32771 0
M  V30 40364 H 3926.91 4.12943 5.39124 0
M  V30 40365 H 3924.85 2.04881 6.23185 0
M  V30 40366 H 3924.77 3.74744 6.56584 0
M  V30 40367 H 3926.04 2.79431 7.27694 0
M  V30 40368 N 3930.27 -1.01782 1.20325 0
M  V30 40369 C 3931.2 -2.12176 0.974856 0
M  V30 40370 C 3932.18 -1.6983 -0.0957338 0
M  V30 40371 O 3933.36 -1.94102 0.0615304 0
M  V30 40372 C 3930.49 -3.43312 0.524799 0
M  V30 40373 C 3929.45 -3.99393 1.53849 0
M  V30 40374 C 3928.77 -5.26281 0.945113 0
M  V30 40375 C 3930.07 -4.32925 2.92187 0
M  V30 40376 H 3931.77 -2.31541 1.89814 0
M  V30 40377 H 3929.31 -1.11271 0.914045 0
M  V30 40378 H 3931.27 -4.19925 0.352255 0
M  V30 40379 H 3929.99 -3.23702 -0.434104 0
M  V30 40380 H 3928.65 -3.24886 1.69837 0
M  V30 40381 H 3928.3 -5.02995 -0.0216825 0
M  V30 40382 H 3928 -5.64767 1.62211 0
M  V30 40383 H 3929.52 -6.05551 0.78361 0
M  V30 40384 H 3930.94 -5.00431 2.79717 0
M  V30 40385 H 3929.33 -4.82521 3.56781 0
M  V30 40386 H 3930.4 -3.41746 3.44003 0
M  V30 40387 N 3931.75 -1.00894 -1.21071 0
M  V30 40388 C 3932.69 -0.565869 -2.25612 0
M  V30 40389 C 3933.69 0.39156 -1.64813 0
M  V30 40390 O 3934.89 0.26232 -1.78078 0
M  V30 40391 H 3931.27 -0.164656 -0.733752 0
M  V30 40392 H 3933.24 -1.45866 -2.60318 0
M  V30 40393 C 3931.99 0.0877999 -3.47589 0
M  V30 40394 H 3931.31 -0.639897 -3.94646 0
M  V30 40395 H 3932.75 0.361041 -4.2246 0
M  V30 40396 C 3931.21 1.32824 -3.09612 0
M  V30 40397 O 3931.74 2.42224 -3.20453 0
M  V30 40398 N 3929.95 1.20946 -2.64236 0
M  V30 40399 H 3929.49 0.319256 -2.55614 0
M  V30 40400 H 3929.45 2.04042 -2.39195 0
M  V30 40401 N 3933.22 1.36705 -0.78418 0
M  V30 40402 C 3934.45 2.04167 -0.36478 0
M  V30 40403 C 3934.87 1.58746 1.00902 0
M  V30 40404 O 3934.23 0.753476 1.64901 0
M  V30 40405 C 3934.28 3.58015 -0.430973 0
M  V30 40406 O 3933.38 4.08525 0.564031 0
M  V30 40407 H 3932.73 0.64547 -0.155771 0
M  V30 40408 H 3935.26 1.74768 -1.06383 0
M  V30 40409 H 3935.27 4.06949 -0.292701 0
M  V30 40410 H 3933.94 3.90427 -1.43315 0
M  V30 40411 H 3932.52 3.70878 0.387852 0
M  V30 40412 N 3934.7 0.535753 1.48214 0
M  V30 40413 C 3935.61 -0.227536 2.33494 0
M  V30 40414 C 3936.63 -0.933301 1.46852 0
M  V30 40415 O 3937.8 -0.906977 1.79822 0
M  V30 40416 C 3934.87 -1.25741 3.23095 0
M  V30 40417 C 3933.93 -0.561379 4.25614 0
M  V30 40418 C 3933.16 -1.54219 5.10933 0
M  V30 40419 O 3933.39 -2.77531 4.9833 0
M  V30 40420 O 3932.32 -1.07842 5.9216 0
M  V30 40421 H 3936.15 0.471428 3.00019 0
M  V30 40422 H 3933.73 0.296605 1.46426 0
M  V30 40423 H 3935.61 -1.85243 3.78501 0
M  V30 40424 H 3934.29 -1.93868 2.59224 0
M  V30 40425 H 3933.2 0.0742851 3.74026 0
M  V30 40426 H 3934.53 0.0780514 4.92138 0
M  V30 40427 N 3936.18 -1.5525 0.271158 0
M  V30 40428 C 3937.11 -2.25344 -0.61175 0
M  V30 40429 C 3938.09 -1.24218 -1.16206 0
M  V30 40430 O 3939.28 -1.52929 -1.19693 0
M  V30 40431 C 3936.41 -2.9715 -1.79775 0
M  V30 40432 C 3935.36 -4.05171 -1.37915 0
M  V30 40433 C 3934.69 -4.64531 -2.64793 0
M  V30 40434 C 3935.99 -5.19581 -0.532266 0
M  V30 40435 H 3937.68 -2.99388 -0.0272011 0
M  V30 40436 H 3935.23 -1.43995 -0.0116428 0
M  V30 40437 H 3937.18 -3.44896 -2.42126 0
M  V30 40438 H 3935.9 -2.20635 -2.40807 0
M  V30 40439 H 3934.56 -3.58231 -0.778855 0
M  V30 40440 H 3934.21 -3.84688 -3.24074 0
M  V30 40441 H 3933.91 -5.37465 -2.37498 0
M  V30 40442 H 3935.43 -5.15023 -3.28 0
M  V30 40443 H 3936.85 -5.63403 -1.06068 0
M  V30 40444 H 3935.25 -5.99053 -0.354365 0
M  V30 40445 H 3936.32 -4.82808 0.449895 0
M  V30 40446 N 3937.66 0.00162173 -1.576 0
M  V30 40447 C 3939.07 0.544649 -1.78579 0
M  V30 40448 C 3939.42 1.74049 -0.905606 0
M  V30 40449 O 3938.55 2.16132 -0.107652 0
M  V30 40450 C 3939.14 0.994841 -3.23865 0
M  V30 40451 C 3937.7 1.48319 -3.45946 0
M  V30 40452 C 3936.85 0.433654 -2.73888 0
M  V30 40453 H 3939.8 -0.224552 -1.57103 0
M  V30 40454 H 3939.82 1.86093 -3.31888 0
M  V30 40455 H 3939.33 0.124283 -3.87901 0
M  V30 40456 H 3937.43 2.37469 -2.87122 0
M  V30 40457 H 3937.54 1.51177 -4.54623 0
M  V30 40458 H 3935.91 0.894927 -2.3846 0
M  V30 40459 H 3936.69 -0.42791 -3.40623 0
M  V30 40460 N 3939.14 1.55194 0.274352 0
M  V30 40461 C 3940.08 1.87981 1.3391 0
M  V30 40462 C 3941.05 0.731176 1.49141 0
M  V30 40463 O 3942.24 0.982319 1.6357 0
M  V30 40464 C 3939.38 2.15605 2.6946 0
M  V30 40465 C 3938.49 3.4313 2.62462 0
M  V30 40466 C 3937.63 3.6046 3.90182 0
M  V30 40467 C 3936.67 4.81682 3.77689 0
M  V30 40468 N 3935.8 4.95677 4.97241 0
M  V30 40469 H 3940.64 2.78795 1.05249 0
M  V30 40470 H 3938.18 1.38031 0.508508 0
M  V30 40471 H 3940.14 2.2962 3.48325 0
M  V30 40472 H 3938.77 1.28026 2.96326 0
M  V30 40473 H 3937.82 3.37593 1.75314 0
M  V30 40474 H 3939.13 4.3213 2.49129 0
M  V30 40475 H 3938.29 3.74286 4.77488 0
M  V30 40476 H 3937.02 2.69642 4.06379 0
M  V30 40477 H 3936.03 4.67862 2.88766 0
M  V30 40478 H 3937.25 5.73933 3.63011 0
M  V30 40479 H 3935.2 4.0779 5.13851 0
M  V30 40480 H 3935.12 5.78721 4.86434 0
M  V30 40481 H 3936.39 5.13887 5.86123 0
M  V30 40482 N 3940.61 -0.538802 1.48104 0
M  V30 40483 C 3941.52 -1.6713 1.64635 0
M  V30 40484 C 3942.54 -1.65765 0.528946 0
M  V30 40485 O 3943.72 -1.84878 0.798882 0
M  V30 40486 C 3940.78 -3.03611 1.67396 0
M  V30 40487 C 3939.84 -3.15899 2.907 0
M  V30 40488 C 3939.08 -4.45869 2.93319 0
M  V30 40489 O 3939.3 -5.3244 2.04605 0
M  V30 40490 O 3938.23 -4.62338 3.85393 0
M  V30 40491 H 3942.06 -1.56121 2.60499 0
M  V30 40492 H 3939.64 -0.710902 1.31402 0
M  V30 40493 H 3941.53 -3.84796 1.71784 0
M  V30 40494 H 3940.2 -3.14962 0.747037 0
M  V30 40495 H 3939.11 -2.34042 2.91848 0
M  V30 40496 H 3940.44 -3.0946 3.82747 0
M  V30 40497 N 3942.09 -1.36544 -0.786992 0
M  V30 40498 C 3943.51 -1.1701 -1.08539 0
M  V30 40499 C 3943.71 0.00415837 -2.015 0
M  V30 40500 O 3942.76 0.668784 -2.43482 0
M  V30 40501 C 3944.08 -2.48202 -1.69753 0
M  V30 40502 C 3945.63 -2.54587 -1.82083 0
M  V30 40503 C 3946.1 -3.85872 -2.46712 0
M  V30 40504 N 3947.59 -3.87231 -2.54178 0
M  V30 40505 C 3948.33 -4.85554 -3.05 0
M  V30 40506 N 3947.82 -5.9427 -3.5611 0
M  V30 40507 N 3949.62 -4.72971 -3.03734 0
M  V30 40508 H 3941.77 -2.11723 -0.169442 0
M  V30 40509 H 3944.03 -0.937933 -0.137786 0
M  V30 40510 H 3943.74 -3.3441 -1.08916 0
M  V30 40511 H 3943.61 -2.64185 -2.69232 0
M  V30 40512 H 3946 -1.68796 -2.42058 0
M  V30 40513 H 3946.08 -2.42502 -0.814028 0
M  V30 40514 H 3945.72 -4.72071 -1.87381 0
M  V30 40515 H 3945.65 -3.95254 -3.47968 0
M  V30 40516 H 3948.14 -3.08689 -2.17989 0
M  V30 40517 H 3948.46 -6.65264 -3.93247 0
M  V30 40518 H 3946.8 -5.97936 -3.54256 0
M  V30 40519 H 3949.99 -3.87168 -2.63095 0
M  V30 40520 H 3950.16 -5.49757 -3.43033 0
M  V30 40521 N 3943.57 1.01143 -1.20863 0
M  V30 40522 C 3944.82 1.74476 -1.01993 0
M  V30 40523 C 3945.14 1.89775 0.448367 0
M  V30 40524 O 3944.41 1.44401 1.32383 0
M  V30 40525 H 3942.99 0.6464 -0.374401 0
M  V30 40526 H 3945.65 1.21915 -1.52062 0
M  V30 40527 H 3944.75 2.74639 -1.48255 0
M  V30 40528 N 3945.05 1.01535 1.20534 0
M  V30 40529 C 3946.29 0.705006 1.90151 0
M  V30 40530 C 3946.63 -0.763312 1.7857 0
M  V30 40531 O 3945.9 -1.55443 1.16909 0
M  V30 40532 C 3946.19 1.13976 3.41587 0
M  V30 40533 C 3946.04 2.66829 3.62108 0
M  V30 40534 C 3947.36 0.71006 4.34334 0
M  V30 40535 H 3944.48 0.257589 0.690519 0
M  V30 40536 H 3947.12 1.26287 1.41956 0
M  V30 40537 H 3945.27 0.665117 3.82764 0
M  V30 40538 H 3946.94 3.22135 3.30192 0
M  V30 40539 H 3945.18 3.07861 3.05621 0
M  V30 40540 H 3945.85 2.92302 4.68256 0
M  V30 40541 H 3948.33 1.11808 4.00797 0
M  V30 40542 H 3947.21 1.0423 5.38913 0
M  V30 40543 H 3947.47 -0.388331 4.40391 0
M  V30 40544 N 3946.53 -1.36288 0.791419 0
M  V30 40545 C 3947.77 -1.98795 0.364016 0
M  V30 40546 C 3948.1 -1.63121 -1.06847 0
M  V30 40547 O 3947.37 -0.906192 -1.73681 0
M  V30 40548 H 3945.95 -0.735315 0.131607 0
M  V30 40549 H 3948.61 -1.66451 1.0139 0
M  V30 40550 H 3947.7 -3.08729 0.457461 0
M  V30 40551 N 3948.01 -0.543606 -1.47928 0
M  V30 40552 C 3949.28 0.0505343 -1.95535 0
M  V30 40553 C 3949.66 1.49932 -1.48606 0
M  V30 40554 O 3949.01 2.16903 -0.718693 0
M  V30 40555 C 3949.22 -0.0808268 -3.48906 0
M  V30 40556 C 3950.57 0.0714925 -4.2454 0
M  V30 40557 O 3951.59 -0.00769961 -3.56199 0
M  V30 40558 O 3950.45 0.2395 -5.45975 0
M  V30 40559 H 3947.55 0.0717251 -0.823884 0
M  V30 40560 H 3950.09 -0.609168 -1.58389 0
M  V30 40561 H 3948.86 -1.08951 -3.75826 0
M  V30 40562 H 3948.49 0.617109 -3.92782 0
M  V30 40563 N 3949.48 1.55104 -0.279387 0
M  V30 40564 C 3950.45 2.21391 0.593175 0
M  V30 40565 C 3951.45 1.1931 1.07804 0
M  V30 40566 O 3952.64 1.44187 0.977534 0
M  V30 40567 C 3949.77 2.88324 1.81884 0
M  V30 40568 H 3950.96 2.99897 0.0143414 0
M  V30 40569 H 3948.51 1.56271 -0.0300358 0
M  V30 40570 H 3949.25 2.13842 2.43808 0
M  V30 40571 H 3949.03 3.63135 1.47904 0
M  V30 40572 H 3950.52 3.38956 2.43924 0
M  V30 40573 N 3950.96 0.0067362 1.57599 0
M  V30 40574 C 3952.21 -0.675924 1.90037 0
M  V30 40575 C 3952.52 -1.74561 0.882479 0
M  V30 40576 O 3953.73 -2.48337 1.09732 0
M  V30 40577 C 3952.19 -1.25343 3.37368 0
M  V30 40578 C 3951.79 -0.218205 4.47468 0
M  V30 40579 C 3953.54 -1.91389 3.78907 0
M  V30 40580 C 3951.44 -0.806079 5.85881 0
M  V30 40581 H 3950.37 -0.256224 0.70913 0
M  V30 40582 H 3953.03 0.0683824 1.83373 0
M  V30 40583 H 3951.41 -2.04862 3.38892 0
M  V30 40584 H 3952.58 0.552889 4.57471 0
M  V30 40585 H 3950.9 0.342204 4.14991 0
M  V30 40586 H 3953.49 -2.36289 4.79658 0
M  V30 40587 H 3953.84 -2.74729 3.12777 0
M  V30 40588 H 3954.37 -1.18593 3.79711 0
M  V30 40589 H 3951.11 -0.0113123 6.55499 0
M  V30 40590 H 3950.63 -1.54618 5.79529 0
M  V30 40591 H 3952.31 -1.30267 6.3375 0
M  V30 40592 N 3952.44 -1.55337 -0.266118 0
M  V30 40593 C 3953.39 -1.89488 -1.34897 0
M  V30 40594 C 3954.38 -0.771908 -1.50791 0
M  V30 40595 O 3955.59 -0.956329 -1.52494 0
M  V30 40596 H 3951.96 -0.601524 -0.451301 0
M  V30 40597 H 3953.93 -2.79931 -1.03349 0
M  V30 40598 C 3952.68 -2.18936 -2.70115 0
M  V30 40599 H 3952.01 -3.04837 -2.58679 0
M  V30 40600 H 3953.45 -2.46748 -3.44807 0
M  V30 40601 C 3951.9 -0.999234 -3.2174 0
M  V30 40602 O 3952.43 -0.237374 -4.00998 0
M  V30 40603 N 3950.64 -0.795062 -2.79512 0
M  V30 40604 H 3950.19 -1.41629 -2.15172 0
M  V30 40605 H 3950.15 -0.000398997 -3.144 0
M  V30 40606 N 3953.92 0.53094 -1.48387 0
M  V30 40607 C 3954.87 1.65655 -1.63282 0
M  V30 40608 C 3955.86 1.61875 -0.499289 0
M  V30 40609 O 3957.07 1.66744 -0.67798 0
M  V30 40610 H 3953.44 0.548596 -0.514341 0
M  V30 40611 H 3955.41 1.50236 -2.57821 0
M  V30 40612 C 3954.16 3.0393 -1.68884 0
M  V30 40613 H 3953.48 3.07533 -2.55468 0
M  V30 40614 H 3954.92 3.82308 -1.83349 0
M  V30 40615 C 3953.38 3.34179 -0.427326 0
M  V30 40616 O 3953.91 3.99055 0.460206 0
M  V30 40617 N 3952.12 2.89054 -0.299319 0
M  V30 40618 H 3951.67 2.36436 -1.02252 0
M  V30 40619 H 3951.62 3.09663 0.543732 0
M  V30 40620 N 3955.4 1.36959 0.779739 0
M  V30 40621 C 3956.64 1.31466 1.53497 0
M  V30 40622 C 3956.96 -0.102835 1.94729 0
M  V30 40623 O 3956.23 -1.04517 1.65689 0
M  V30 40624 H 3954.81 0.483648 0.569292 0
M  V30 40625 H 3957.48 1.71362 0.928506 0
M  V30 40626 H 3956.57 1.94845 2.43807 0
M  V30 40627 N 3956.87 -1.00501 1.21398 0
M  V30 40628 C 3958.29 -1.26639 0.971327 0
M  V30 40629 C 3958.49 -1.98571 -0.342301 0
M  V30 40630 O 3957.55 -2.28803 -1.06796 0
M  V30 40631 C 3958.86 -2.09004 2.16189 0
M  V30 40632 C 3960.41 -2.2223 2.20415 0
M  V30 40633 C 3960.88 -3.07978 3.38989 0
M  V30 40634 N 3962.37 -3.15566 3.39076 0
M  V30 40635 C 3963.11 -3.8217 4.27474 0
M  V30 40636 N 3962.6 -4.50802 5.2607 0
M  V30 40637 N 3964.4 -3.7881 4.15282 0
M  V30 40638 H 3956.55 -0.522399 2.05876 0
M  V30 40639 H 3958.81 -0.293256 0.901502 0
M  V30 40640 H 3958.52 -1.63499 3.11386 0
M  V30 40641 H 3958.39 -3.09754 2.15249 0
M  V30 40642 H 3960.78 -2.66955 1.25774 0
M  V30 40643 H 3960.86 -1.2095 2.25399 0
M  V30 40644 H 3960.5 -2.63956 4.33924 0
M  V30 40645 H 3960.43 -4.09372 3.31244 0
M  V30 40646 H 3962.92 -2.66708 2.67722 0
M  V30 40647 H 3963.24 -4.99328 5.89823 0
M  V30 40648 H 3961.58 -4.49589 5.29995 0
M  V30 40649 H 3964.77 -3.24346 3.37517 0
M  V30 40650 H 3964.95 -4.30439 4.84382 0
M  V30 40651 N 3958.35 -1.02172 -1.19994 0
M  V30 40652 C 3959.63 -0.628926 -1.85213 0
M  V30 40653 C 3960.01 0.892751 -1.91293 0
M  V30 40654 O 3959.36 1.78656 -1.42459 0
M  V30 40655 C 3959.57 -1.28268 -3.24574 0
M  V30 40656 C 3960.91 -1.40137 -4.00807 0
M  V30 40657 O 3961.94 -1.23929 -3.33946 0
M  V30 40658 O 3960.8 -1.66377 -5.20558 0
M  V30 40659 H 3957.89 -0.217678 -0.797838 0
M  V30 40660 H 3960.44 -1.11943 -1.27542 0
M  V30 40661 H 3959.21 -2.32221 -3.14943 0
M  V30 40662 H 3958.83 -0.779589 -3.89882 0
M  V30 40663 N 3959.83 1.35866 -0.798635 0
M  V30 40664 C 3960.78 2.27317 -0.176315 0
M  V30 40665 C 3961.76 1.47398 0.645184 0
M  V30 40666 O 3962.96 1.6968 0.503746 0
M  V30 40667 C 3960.08 3.36485 0.680657 0
M  V30 40668 C 3959.17 4.23834 -0.150136 0
M  V30 40669 N 3959.56 4.91133 -1.20922 0
M  V30 40670 C 3957.86 4.45946 0.0695351 0
M  V30 40671 C 3958.56 5.55821 -1.71575 0
M  V30 40672 N 3957.54 5.33878 -1.02348 0
M  V30 40673 H 3961.34 2.76839 -0.986789 0
M  V30 40674 H 3958.85 1.493 -0.639004 0
M  V30 40675 H 3960.85 4.0094 1.14247 0
M  V30 40676 H 3959.51 2.88517 1.48957 0
M  V30 40677 H 3960.52 4.92832 -1.59177 0
M  V30 40678 H 3957.2 4.08793 0.848223 0
M  V30 40679 H 3958.59 6.19537 -2.60046 0
M  V30 40680 N 3961.31 0.551443 1.47638 0
M  V30 40681 C 3962.53 0.0279253 2.07381 0
M  V30 40682 C 3962.96 -1.25373 1.40226 0
M  V30 40683 O 3962.32 -1.74959 0.475299 0
M  V30 40684 C 3962.36 -0.156938 3.60258 0
M  V30 40685 O 3961.47 -1.22083 3.93915 0
M  V30 40686 H 3960.81 0.0487368 0.662209 0
M  V30 40687 H 3963.34 0.765482 1.89741 0
M  V30 40688 H 3963.35 -0.372942 4.06292 0
M  V30 40689 H 3962.02 0.779194 4.08536 0
M  V30 40690 H 3960.6 -0.98578 3.59634 0
M  V30 40691 N 3962.79 -1.54953 0.287609 0
M  V30 40692 C 3964.04 -1.99043 -0.32628 0
M  V30 40693 C 3964.35 -1.17956 -1.56031 0
M  V30 40694 O 3965.55 -1.5225 -2.24794 0
M  V30 40695 C 3964.01 -3.5431 -0.631855 0
M  V30 40696 C 3963.62 -4.44189 0.583076 0
M  V30 40697 C 3965.36 -4.06959 -1.20768 0
M  V30 40698 C 3963.27 -5.90865 0.251395 0
M  V30 40699 H 3962.2 -0.74345 -0.12569 0
M  V30 40700 H 3964.85 -1.79215 0.394219 0
M  V30 40701 H 3963.23 -3.69987 -1.41159 0
M  V30 40702 H 3964.41 -4.40284 1.35965 0
M  V30 40703 H 3962.72 -4.02241 1.0766 0
M  V30 40704 H 3965.32 -5.14101 -1.46985 0
M  V30 40705 H 3965.66 -3.56747 -2.14563 0
M  V30 40706 H 3966.19 -3.94771 -0.489951 0
M  V30 40707 H 3962.93 -6.45198 1.15755 0
M  V30 40708 H 3962.45 -5.9781 -0.488169 0
M  V30 40709 H 3964.13 -6.46822 -0.151894 0
M  V30 40710 N 3964.26 -0.0150939 -1.57593 0
M  V30 40711 C 3965.2 0.999876 -2.0624 0
M  V30 40712 C 3966.21 1.29762 -0.983135 0
M  V30 40713 O 3967.4 1.26474 -1.25963 0
M  V30 40714 C 3964.5 2.33088 -2.46015 0
M  V30 40715 C 3963.67 2.22034 -3.76855 0
M  V30 40716 C 3962.73 3.37949 -4.03332 0
M  V30 40717 O 3961.76 3.15461 -4.73786 0
M  V30 40718 N 3962.96 4.61291 -3.52407 0
M  V30 40719 H 3965.72 0.5849 -2.93937 0
M  V30 40720 H 3963.28 0.171973 -1.60984 0
M  V30 40721 H 3965.28 3.09434 -2.60831 0
M  V30 40722 H 3963.85 2.66274 -1.63758 0
M  V30 40723 H 3963.07 1.30502 -3.71971 0
M  V30 40724 H 3964.35 2.11837 -4.62604 0
M  V30 40725 H 3963.75 4.82458 -2.95382 0
M  V30 40726 H 3962.31 5.34853 -3.72526 0
M  V30 40727 N 3965.74 1.55476 0.257876 0
M  V30 40728 C 3966.99 1.75997 0.985298 0
M  V30 40729 C 3967.3 0.576973 1.86897 0
M  V30 40730 O 3968.51 0.664939 2.63231 0
M  V30 40731 C 3966.97 3.11544 1.80189 0
M  V30 40732 C 3966.57 4.37458 0.96615 0
M  V30 40733 C 3968.32 3.41409 2.52271 0
M  V30 40734 C 3966.23 5.6404 1.778 0
M  V30 40735 H 3965.16 0.656065 0.371612 0
M  V30 40736 H 3967.81 1.81919 0.240364 0
M  V30 40737 H 3966.19 2.997 2.58836 0
M  V30 40738 H 3967.36 4.60261 0.222784 0
M  V30 40739 H 3965.68 4.14848 0.359182 0
M  V30 40740 H 3968.27 4.33194 3.13444 0
M  V30 40741 H 3968.62 2.62229 3.23329 0
M  V30 40742 H 3969.15 3.54419 1.80643 0
M  V30 40743 H 3965.89 6.4601 1.11136 0
M  V30 40744 H 3965.41 5.45356 2.49693 0
M  V30 40745 H 3967.09 6.02896 2.34789 0
M  V30 40746 N 3967.22 -0.523064 1.48667 0
M  V30 40747 C 3968.17 -1.62695 1.63703 0
M  V30 40748 C 3969.14 -1.59046 0.478923 0
M  V30 40749 O 3970.32 -1.77367 0.70326 0
M  V30 40750 C 3967.46 -3.00933 1.68917 0
M  V30 40751 C 3966.58 -3.14765 2.95883 0
M  V30 40752 C 3965.71 -4.43604 2.92214 0
M  V30 40753 C 3964.75 -4.50989 4.13854 0
M  V30 40754 N 3963.89 -5.71226 4.08223 0
M  V30 40755 H 3968.73 -1.49183 2.5797 0
M  V30 40756 H 3966.26 -0.726195 1.27925 0
M  V30 40757 H 3968.22 -3.81028 1.69922 0
M  V30 40758 H 3966.85 -3.132 0.781364 0
M  V30 40759 H 3965.9 -2.27877 3.04592 0
M  V30 40760 H 3967.22 -3.16083 3.85867 0
M  V30 40761 H 3966.37 -5.31996 2.91659 0
M  V30 40762 H 3965.11 -4.44818 1.99971 0
M  V30 40763 H 3964.11 -3.61002 4.14678 0
M  V30 40764 H 3965.34 -4.51508 5.07264 0
M  V30 40765 H 3963.28 -5.73324 3.18804 0
M  V30 40766 H 3963.2 -5.74067 4.91918 0
M  V30 40767 H 3964.47 -6.61886 4.11737 0
M  V30 40768 N 3968.7 -1.37371 -0.772465 0
M  V30 40769 C 3969.95 -1.31863 -1.52627 0
M  V30 40770 C 3970.26 0.0947451 -1.9537 0
M  V30 40771 O 3971.47 0.272283 -2.70131 0
M  V30 40772 C 3969.92 -2.31453 -2.75604 0
M  V30 40773 C 3969.53 -3.78315 -2.39962 0
M  V30 40774 C 3971.27 -2.34954 -3.53549 0
M  V30 40775 C 3969.18 -4.69637 -3.59437 0
M  V30 40776 H 3968.11 -0.490076 -0.573011 0
M  V30 40777 H 3970.76 -1.62827 -0.84615 0
M  V30 40778 H 3969.14 -1.93506 -3.45502 0
M  V30 40779 H 3970.32 -4.25094 -1.77853 0
M  V30 40780 H 3968.63 -3.77752 -1.75193 0
M  V30 40781 H 3971.23 -3.00387 -4.42348 0
M  V30 40782 H 3971.57 -1.36294 -3.93357 0
M  V30 40783 H 3972.11 -2.71605 -2.90647 0
M  V30 40784 H 3968.85 -5.69423 -3.24711 0
M  V30 40785 H 3968.37 -4.27563 -4.20654 0
M  V30 40786 H 3970.04 -4.86737 -4.26259 0
M  V30 40787 N 3970.18 0.998553 -1.21929 0
M  V30 40788 C 3971.42 1.73385 -1.03837 0
M  V30 40789 C 3971.75 1.9024 0.428213 0
M  V30 40790 O 3971.02 1.45797 1.30844 0
M  V30 40791 H 3969.6 0.642392 -0.381236 0
M  V30 40792 H 3972.26 1.20295 -1.53346 0
M  V30 40793 H 3971.35 2.73051 -1.5116 0
M  V30 40794 N 3971.65 1.02807 1.1945 0
M  V30 40795 C 3972.6 0.608173 2.22643 0
M  V30 40796 C 3973.57 -0.37761 1.61751 0
M  V30 40797 O 3974.76 -0.274454 1.88816 0
M  V30 40798 C 3971.9 -0.0356983 3.45082 0
M  V30 40799 C 3971.01 0.996029 4.20361 0
M  V30 40800 C 3970.14 0.322004 5.30223 0
M  V30 40801 C 3969.18 1.3397 5.97259 0
M  V30 40802 N 3968.32 0.691537 6.98686 0
M  V30 40803 H 3973.16 1.49273 2.57918 0
M  V30 40804 H 3970.7 0.747007 1.26721 0
M  V30 40805 H 3972.66 -0.426236 4.15017 0
M  V30 40806 H 3971.29 -0.883835 3.10464 0
M  V30 40807 H 3970.34 1.50463 3.49378 0
M  V30 40808 H 3971.65 1.76953 4.66357 0
M  V30 40809 H 3970.8 -0.123422 6.06574 0
M  V30 40810 H 3969.54 -0.483707 4.85295 0
M  V30 40811 H 3968.55 1.79539 5.19659 0
M  V30 40812 H 3969.77 2.14689 6.44271 0
M  V30 40813 H 3967.72 -0.0940968 6.55933 0
M  V30 40814 H 3967.64 1.40294 7.42869 0
M  V30 40815 H 3968.9 0.270085 7.79032 0
M  V30 40816 N 3973.13 -1.35441 0.805829 0
M  V30 40817 C 3974.06 -2.32363 0.230118 0
M  V30 40818 C 3975.04 -1.57438 -0.644006 0
M  V30 40819 O 3976.23 -1.8551 -0.574435 0
M  V30 40820 C 3973.36 -3.41671 -0.622754 0
M  V30 40821 C 3972.31 -4.27727 0.152814 0
M  V30 40822 C 3971.64 -5.28348 -0.82171 0
M  V30 40823 C 3972.94 -5.04515 1.35137 0
M  V30 40824 H 3974.63 -2.80761 1.03988 0
M  V30 40825 H 3972.18 -1.34985 0.501491 0
M  V30 40826 H 3974.13 -4.08478 -1.03557 0
M  V30 40827 H 3972.86 -2.9188 -1.46539 0
M  V30 40828 H 3971.51 -3.62499 0.546796 0
M  V30 40829 H 3971.16 -4.74825 -1.65983 0
M  V30 40830 H 3970.86 -5.86797 -0.307105 0
M  V30 40831 H 3972.39 -5.98027 -1.23275 0
M  V30 40832 H 3973.8 -5.64271 1.01347 0
M  V30 40833 H 3972.2 -5.72455 1.80041 0
M  V30 40834 H 3973.27 -4.35201 2.13841 0
M  V30 40835 N 3974.61 -0.559265 -1.47343 0
M  V30 40836 C 3975.54 0.224786 -2.28095 0
M  V30 40837 C 3976.56 0.877468 -1.37129 0
M  V30 40838 O 3977.74 0.750974 -1.61934 0
M  V30 40839 C 3974.84 1.33605 -3.11453 0
M  V30 40840 C 3974.02 0.77977 -4.30393 0
M  V30 40841 C 3973.08 1.77579 -4.9533 0
M  V30 40842 O 3972.1 1.32109 -5.53657 0
M  V30 40843 N 3973.3 3.10923 -4.90212 0
M  V30 40844 H 3976.07 -0.467912 -2.96025 0
M  V30 40845 H 3973.63 -0.395475 -1.56996 0
M  V30 40846 H 3975.62 2.00114 -3.51762 0
M  V30 40847 H 3974.19 1.93196 -2.45752 0
M  V30 40848 H 3973.41 -0.0621554 -3.94151 0
M  V30 40849 H 3974.7 0.387492 -5.07322 0
M  V30 40850 H 3974.1 3.50507 -4.44028 0
M  V30 40851 H 3972.66 3.72985 -5.34533 0
M  V30 40852 N 3976.09 1.54799 -0.295822 0
M  V30 40853 C 3977.04 2.23326 0.582574 0
M  V30 40854 C 3978.01 1.214 1.13363 0
M  V30 40855 O 3979.19 1.50005 1.17911 0
M  V30 40856 C 3976.33 2.97374 1.75107 0
M  V30 40857 C 3975.44 4.14063 1.2319 0
M  V30 40858 C 3974.58 4.75706 2.36385 0
M  V30 40859 C 3973.62 5.84548 1.81575 0
M  V30 40860 N 3972.75 6.40167 2.88323 0
M  V30 40861 H 3977.59 2.97999 -0.00841689 0
M  V30 40862 H 3975.13 1.47091 -0.0159225 0
M  V30 40863 H 3977.09 3.38535 2.43824 0
M  V30 40864 H 3975.72 2.25088 2.31377 0
M  V30 40865 H 3974.77 3.7788 0.43716 0
M  V30 40866 H 3976.08 4.92494 0.790619 0
M  V30 40867 H 3975.24 5.19692 3.13058 0
M  V30 40868 H 3973.98 3.96595 2.83837 0
M  V30 40869 H 3972.98 5.39991 1.03389 0
M  V30 40870 H 3974.21 6.6554 1.35033 0
M  V30 40871 H 3972.15 5.63943 3.35119 0
M  V30 40872 H 3972.07 7.13931 2.48675 0
M  V30 40873 H 3973.34 6.88812 3.64909 0
M  V30 40874 N 3977.57 0.0234513 1.57583 0
M  V30 40875 C 3978.98 -0.332888 1.5609 0
M  V30 40876 C 3979.18 -1.73275 1.0285 0
M  V30 40877 O 3978.24 -2.43374 0.672711 0
M  V30 40878 C 3979.55 -0.186672 3.0012 0
M  V30 40879 C 3981.1 -0.259864 3.11919 0
M  V30 40880 C 3981.58 -0.142503 4.57778 0
M  V30 40881 N 3983.07 -0.199666 4.62769 0
M  V30 40882 C 3983.8 -0.132554 5.73247 0
M  V30 40883 N 3983.3 -0.0146819 6.92798 0
M  V30 40884 N 3985.09 -0.186129 5.61792 0
M  V30 40885 H 3977.24 0.93891 1.90521 0
M  V30 40886 H 3979.5 0.362067 0.876134 0
M  V30 40887 H 3979.21 0.777398 3.43001 0
M  V30 40888 H 3979.08 -0.959203 3.648 0
M  V30 40889 H 3981.47 -1.21439 2.68955 0
M  V30 40890 H 3981.55 0.542945 2.49971 0
M  V30 40891 H 3981.2 0.808579 5.01422 0
M  V30 40892 H 3981.13 -0.964103 5.17699 0
M  V30 40893 H 3983.62 -0.291145 3.76777 0
M  V30 40894 H 3983.93 0.0299907 7.72794 0
M  V30 40895 H 3982.28 0.0200215 6.94997 0
M  V30 40896 H 3985.47 -0.276576 4.67282 0
M  V30 40897 H 3985.64 -0.130364 6.47869 0
M  V30 40898 N 3979.05 -1.5561 -0.249627 0
M  V30 40899 C 3979.98 -1.85053 -1.33531 0
M  V30 40900 C 3980.96 -0.705399 -1.46502 0
M  V30 40901 O 3982.14 -0.95087 -1.6276 0
M  V30 40902 C 3979.27 -2.03283 -2.70913 0
M  V30 40903 C 3978.31 -3.25913 -2.75105 0
M  V30 40904 S 3979.15 -4.8264 -2.3199 0
M  V30 40905 C 3980.3 -5.03871 -3.71301 0
M  V30 40906 H 3980.54 -2.7685 -1.08357 0
M  V30 40907 H 3978.07 -1.47682 -0.450472 0
M  V30 40908 H 3980.03 -2.1447 -3.50018 0
M  V30 40909 H 3978.69 -1.12333 -2.93326 0
M  V30 40910 H 3977.88 -3.35626 -3.75993 0
M  V30 40911 H 3977.48 -3.13438 -2.04041 0
M  V30 40912 H 3979.77 -4.91047 -4.66775 0
M  V30 40913 H 3980.72 -6.05859 -3.66524 0
M  V30 40914 H 3981.13 -4.31731 -3.63688 0
M  V30 40915 N 3980.52 0.515172 -1.48942 0
M  V30 40916 C 3981.77 1.26946 -1.58922 0
M  V30 40917 C 3982.12 1.9055 -0.266175 0
M  V30 40918 O 3981.42 1.77051 0.732356 0
M  V30 40919 C 3981.61 2.37006 -2.67512 0
M  V30 40920 C 3981.44 1.84193 -4.10247 0
M  V30 40921 C 3980.21 1.6613 -4.77209 0
M  V30 40922 C 3982.41 1.36192 -4.9594 0
M  V30 40923 N 3980.39 1.08098 -6.04308 0
M  V30 40924 C 3981.76 0.902028 -6.13403 0
M  V30 40925 C 3983.82 1.24632 -4.82049 0
M  V30 40926 C 3982.52 0.337994 -7.18505 0
M  V30 40927 C 3984.55 0.696272 -5.87287 0
M  V30 40928 C 3983.91 0.246536 -7.03968 0
M  V30 40929 H 3980.01 0.45501 -0.635995 0
M  V30 40930 H 3982.59 0.579109 -1.85888 0
M  V30 40931 H 3980.76 3.0352 -2.42343 0
M  V30 40932 H 3982.49 3.04045 -2.67093 0
M  V30 40933 H 3979.25 1.90086 -4.33779 0
M  V30 40934 H 3979.67 0.810496 -6.72131 0
M  V30 40935 H 3984.31 1.58005 -3.92166 0
M  V30 40936 H 3982.03 -0.00802801 -8.081 0
M  V30 40937 H 3985.62 0.609806 -5.78595 0
M  V30 40938 H 3984.5 -0.172459 -7.8401 0
M  V30 40939 N 3982 1.37779 0.765169 0
M  V30 40940 C 3983.25 1.32671 1.51925 0
M  V30 40941 C 3983.56 -0.0843828 1.95418 0
M  V30 40942 O 3984.77 -0.257953 2.70272 0
M  V30 40943 C 3983.23 2.32911 2.74373 0
M  V30 40944 C 3982.83 3.79582 2.37953 0
M  V30 40945 C 3984.58 2.36826 3.52298 0
M  V30 40946 C 3982.48 4.71537 3.56941 0
M  V30 40947 H 3981.41 0.493108 0.570404 0
M  V30 40948 H 3984.07 1.63273 0.837503 0
M  V30 40949 H 3982.45 1.95335 3.44471 0
M  V30 40950 H 3983.62 4.26031 1.75596 0
M  V30 40951 H 3981.94 3.78675 1.73188 0
M  V30 40952 H 3984.53 3.02729 4.40749 0
M  V30 40953 H 3984.88 1.38378 3.92629 0
M  V30 40954 H 3985.41 2.73142 2.89203 0
M  V30 40955 H 3982.15 5.71137 3.21687 0
M  V30 40956 H 3981.67 4.29788 4.18381 0
M  V30 40957 H 3983.35 4.8899 4.23671 0
M  V30 40958 N 3983.48 -0.992073 1.22457 0
M  V30 40959 C 3984.43 -2.10356 0.992634 0
M  V30 40960 C 3985.42 -1.69277 -0.0645217 0
M  V30 40961 O 3986.63 -1.79785 0.0879893 0
M  V30 40962 H 3983 -0.687894 0.30382 0
M  V30 40963 H 3984.97 -2.2709 1.93578 0
M  V30 40964 C 3983.72 -3.42694 0.587913 0
M  V30 40965 H 3983.05 -3.74746 1.39305 0
M  V30 40966 H 3984.49 -4.21442 0.465049 0
M  V30 40967 C 3982.94 -3.29492 -0.702623 0
M  V30 40968 O 3983.47 -3.61342 -1.75484 0
M  V30 40969 N 3981.68 -2.82674 -0.674091 0
M  V30 40970 H 3981.23 -2.56953 0.182492 0
M  V30 40971 H 3981.19 -2.74222 -1.53784 0
M  V30 40972 N 3984.96 -1.03439 -1.18904 0
M  V30 40973 C 3986.2 -0.735169 -1.89006 0
M  V30 40974 C 3986.54 0.734806 -1.79762 0
M  V30 40975 O 3985.81 1.53563 -1.19367 0
M  V30 40976 C 3986.09 -1.19395 -3.3973 0
M  V30 40977 C 3985.95 -2.72556 -3.57817 0
M  V30 40978 C 3987.27 -0.779069 -4.3315 0
M  V30 40979 H 3984.39 -0.268542 -0.686334 0
M  V30 40980 H 3987.03 -1.28529 -1.39929 0
M  V30 40981 H 3985.18 -0.725928 -3.81658 0
M  V30 40982 H 3986.85 -3.27348 -3.25025 0
M  V30 40983 H 3985.09 -3.12684 -3.00685 0
M  V30 40984 H 3985.76 -2.99714 -4.63546 0
M  V30 40985 H 3988.24 -1.18171 -3.98967 0
M  V30 40986 H 3987.12 -1.1279 -5.37187 0
M  V30 40987 H 3987.38 0.318219 -4.40953 0
M  V30 40988 N 3986.44 1.35011 -0.813001 0
M  V30 40989 C 3987.71 1.92975 -0.319377 0
M  V30 40990 C 3988.09 1.7423 1.19193 0
M  V30 40991 O 3987.44 1.11511 1.99443 0
M  V30 40992 C 3987.65 3.41112 -0.737813 0
M  V30 40993 C 3989 4.18261 -0.730962 0
M  V30 40994 O 3990.02 3.49654 -0.679763 0
M  V30 40995 O 3988.88 5.40685 -0.79514 0
M  V30 40996 H 3985.98 0.822616 -0.0850429 0
M  V30 40997 H 3988.52 1.44048 -0.897127 0
M  V30 40998 H 3987.29 3.48513 -1.77917 0
M  V30 40999 H 3986.92 3.9737 -0.135218 0
M  V30 41000 N 3987.91 0.567071 1.47044 0
M  V30 41001 C 3989.16 0.0467847 2.02746 0
M  V30 41002 C 3989.49 -1.30362 1.43943 0
M  V30 41003 O 3988.77 -1.85058 0.598648 0
M  V30 41004 C 3989.05 -0.0357523 3.60082 0
M  V30 41005 C 3988.9 1.34244 4.293 0
M  V30 41006 C 3990.22 -0.744262 4.33761 0
M  V30 41007 H 3987.34 0.0184757 0.736768 0
M  V30 41008 H 3989.98 0.731261 1.75364 0
M  V30 41009 H 3988.13 -0.618677 3.83542 0
M  V30 41010 H 3989.81 1.96933 4.17151 0
M  V30 41011 H 3988.05 1.91445 3.8927 0
M  V30 41012 H 3988.72 1.23731 5.37954 0
M  V30 41013 H 3991.2 -0.249214 4.15353 0
M  V30 41014 H 3990.07 -0.770999 5.43458 0
M  V30 41015 H 3990.33 -1.80242 4.03689 0
M  V30 41016 N 3989.39 -1.5464 0.304027 0
M  V30 41017 C 3990.32 -2.21086 -0.604436 0
M  V30 41018 C 3991.34 -1.20456 -1.09518 0
M  V30 41019 O 3992.53 -1.47032 -1.01211 0
M  V30 41020 C 3989.63 -2.8461 -1.83985 0
M  V30 41021 C 3988.8 -4.112 -1.49109 0
M  V30 41022 C 3987.86 -4.58498 -2.58197 0
M  V30 41023 O 3986.88 -5.23629 -2.23162 0
M  V30 41024 N 3988.09 -4.31071 -3.8879 0
M  V30 41025 H 3990.85 -2.99679 -0.0355804 0
M  V30 41026 H 3988.41 -1.61406 0.12636 0
M  V30 41027 H 3990.4 -3.13184 -2.56316 0
M  V30 41028 H 3988.97 -2.0984 -2.31702 0
M  V30 41029 H 3988.19 -3.89603 -0.600278 0
M  V30 41030 H 3989.48 -4.93622 -1.2335 0
M  V30 41031 H 3988.88 -3.78899 -4.20062 0
M  V30 41032 H 3987.44 -4.64348 -4.57411 0
M  V30 41033 N 3990.87 -0.0318079 -1.57568 0
M  V30 41034 C 3991.82 0.967137 -2.1154 0
M  V30 41035 C 3992.81 1.33515 -1.0426 0
M  V30 41036 O 3994.02 1.31706 -1.22692 0
M  V30 41037 H 3990.39 0.329676 -0.675883 0
M  V30 41038 H 3992.36 0.486643 -2.94405 0
M  V30 41039 C 3991.11 2.23946 -2.65977 0
M  V30 41040 H 3990.44 1.96503 -3.48176 0
M  V30 41041 H 3991.88 2.92046 -3.07384 0
M  V30 41042 C 3990.33 2.97102 -1.58845 0
M  V30 41043 O 3990.86 3.89313 -0.989853 0
M  V30 41044 N 3989.07 2.59486 -1.30826 0
M  V30 41045 H 3988.62 1.84578 -1.7969 0
M  V30 41046 H 3988.58 3.08743 -0.593712 0
M  V30 41047 N 3992.35 1.55741 0.241371 0
M  V30 41048 C 3993.58 1.81892 0.986043 0
M  V30 41049 C 3993.99 0.608285 1.78733 0
M  V30 41050 O 3993.35 -0.423098 1.77528 0
M  V30 41051 C 3993.4 3.06329 1.9195 0
M  V30 41052 O 3993.12 4.2272 1.15064 0
M  V30 41053 C 3994.62 3.45322 2.77971 0
M  V30 41054 H 3991.84 0.605143 0.289903 0
M  V30 41055 H 3994.39 2.02807 0.262586 0
M  V30 41056 H 3992.54 2.87448 2.59716 0
M  V30 41057 H 3992.95 4.93281 1.78252 0
M  V30 41058 H 3994.43 4.3548 3.39207 0
M  V30 41059 H 3994.91 2.6616 3.49364 0
M  V30 41060 H 3995.51 3.66573 2.15649 0
M  V30 41061 N 3993.83 -0.507266 1.49213 0
M  V30 41062 C 3995.08 -1.25837 1.57632 0
M  V30 41063 C 3995.39 -1.93791 0.265377 0
M  V30 41064 O 3996.59 -2.70541 0.228044 0
M  V30 41065 C 3995.05 -2.28452 2.78097 0
M  V30 41066 C 3994.66 -1.66465 4.15925 0
M  V30 41067 C 3996.4 -3.0443 2.95842 0
M  V30 41068 C 3994.31 -2.67153 5.2762 0
M  V30 41069 H 3993.24 -0.473349 0.586904 0
M  V30 41070 H 3995.89 -0.532987 1.75589 0
M  V30 41071 H 3994.27 -3.04126 2.53621 0
M  V30 41072 H 3995.45 -0.968258 4.50512 0
M  V30 41073 H 3993.76 -1.02899 4.03486 0
M  V30 41074 H 3996.36 -3.79714 3.76459 0
M  V30 41075 H 3996.7 -3.61667 2.06162 0
M  V30 41076 H 3997.23 -2.35871 3.20328 0
M  V30 41077 H 3993.97 -2.14705 6.1934 0
M  V30 41078 H 3993.49 -3.35051 4.97494 0
M  V30 41079 H 3995.17 -3.29702 5.56692 0
M  V30 41080 N 3995.3 -1.38182 -0.757851 0
M  V30 41081 C 3996.55 -1.33475 -1.5122 0
M  V30 41082 C 3996.87 0.0740182 -1.9546 0
M  V30 41083 O 3998.07 0.243616 -2.70405 0
M  V30 41084 C 3996.53 -2.34363 -2.73134 0
M  V30 41085 C 3996.14 -3.80839 -2.35936 0
M  V30 41086 C 3997.88 -2.38691 -3.51037 0
M  V30 41087 C 3995.79 -4.73423 -3.54436 0
M  V30 41088 H 3994.72 -0.496126 -0.567781 0
M  V30 41089 H 3997.37 -1.63715 -0.828832 0
M  V30 41090 H 3995.75 -1.97159 -3.4343 0
M  V30 41091 H 3996.92 -4.26957 -1.73334 0
M  V30 41092 H 3995.24 -3.79588 -1.71177 0
M  V30 41093 H 3997.84 -3.05062 -4.39137 0
M  V30 41094 H 3998.18 -1.40458 -3.91889 0
M  V30 41095 H 3998.71 -2.74672 -2.8775 0
M  V30 41096 H 3995.45 -5.72835 -3.18653 0
M  V30 41097 H 3994.97 -4.32 -4.16096 0
M  V30 41098 H 3996.65 -4.9123 -4.21072 0
M  V30 41099 N 3996.78 0.985565 -1.22981 0
M  V30 41100 C 3998.06 1.70016 -0.967151 0
M  V30 41101 C 3998.44 2.04704 0.51571 0
M  V30 41102 O 3997.79 1.73614 1.48561 0
M  V30 41103 C 3998 2.94536 -1.87215 0
M  V30 41104 C 3999.35 3.6716 -2.13258 0
M  V30 41105 O 4000.37 3.04558 -1.84723 0
M  V30 41106 O 3999.23 4.79807 -2.61625 0
M  V30 41107 H 3996.32 0.742423 -0.364331 0
M  V30 41108 H 3998.87 1.04125 -1.34 0
M  V30 41109 H 3997.64 2.6546 -2.87483 0
M  V30 41110 H 3997.26 3.68165 -1.50135 0
M  V30 41111 N 3998.26 1.04068 1.18353 0
M  V30 41112 C 3999.51 0.742609 1.87962 0
M  V30 41113 C 3999.83 -0.731867 1.80745 0
M  V30 41114 O 3999.1 -1.52811 1.22579 0
M  V30 41115 H 3997.68 0.271701 0.695836 0
M  V30 41116 H 4000.34 1.31744 1.4363 0
M  V30 41117 H 3999.44 1.04747 2.93998 0
M  V30 41118 N 3999.74 -1.34578 0.820149 0
M  V30 41119 C 4000.65 -2.33349 0.241954 0
M  V30 41120 C 4001.66 -1.62495 -0.6222 0
M  V30 41121 O 4002.84 -1.94281 -0.530753 0
M  V30 41122 C 3999.91 -3.41662 -0.588884 0
M  V30 41123 C 3998.97 -4.28269 0.297345 0
M  V30 41124 C 3998.2 -5.31409 -0.493934 0
M  V30 41125 O 3998.42 -5.43613 -1.72746 0
M  V30 41126 O 3997.36 -6.01776 0.122288 0
M  V30 41127 H 4001.18 -2.84624 1.05939 0
M  V30 41128 H 3998.77 -1.37588 0.582229 0
M  V30 41129 H 4000.65 -4.07807 -1.06166 0
M  V30 41130 H 3999.32 -2.92636 -1.38369 0
M  V30 41131 H 3998.23 -3.65057 0.817559 0
M  V30 41132 H 3999.56 -4.80729 1.05643 0
M  V30 41133 N 4001.22 -0.574861 -1.46742 0
M  V30 41134 C 4002.46 -0.0575361 -2.02718 0
M  V30 41135 C 4002.8 1.29597 -1.44632 0
M  V30 41136 O 4002.07 1.84738 -0.608454 0
M  V30 41137 C 4002.35 0.0166557 -3.60096 0
M  V30 41138 C 4002.21 -1.36519 -4.28582 0
M  V30 41139 C 4003.53 0.721248 -4.3415 0
M  V30 41140 H 4000.64 -0.0223827 -0.73666 0
M  V30 41141 H 4003.29 -0.74055 -1.74974 0
M  V30 41142 H 4001.44 0.598328 -3.83865 0
M  V30 41143 H 4003.11 -1.99142 -4.16101 0
M  V30 41144 H 4001.35 -1.93507 -3.88249 0
M  V30 41145 H 4002.02 -1.26582 -5.3729 0
M  V30 41146 H 4004.5 0.227183 -4.15479 0
M  V30 41147 H 4003.37 0.742167 -5.43859 0
M  V30 41148 H 4003.64 1.78099 -4.0464 0
M  V30 41149 N 4002.69 1.54476 -0.312224 0
M  V30 41150 C 4003.94 2.00358 0.293737 0
M  V30 41151 C 4004.27 1.20053 1.53028 0
M  V30 41152 O 4003.52 0.267712 1.9386 0
M  V30 41153 C 4003.82 3.50794 0.683996 0
M  V30 41154 C 4003.49 4.48628 -0.452082 0
M  V30 41155 C 4002.15 4.75097 -0.763936 0
M  V30 41156 C 4004.5 5.06822 -1.21576 0
M  V30 41157 C 4001.83 5.57021 -1.84239 0
M  V30 41158 C 4004.18 5.8992 -2.28422 0
M  V30 41159 C 4002.85 6.14696 -2.60202 0
M  V30 41160 H 4002.12 0.733163 0.107486 0
M  V30 41161 H 4004.76 1.86525 -0.433651 0
M  V30 41162 H 4003.07 3.62295 1.49164 0
M  V30 41163 H 4004.77 3.83728 1.16421 0
M  V30 41164 H 4001.36 4.28138 -0.198932 0
M  V30 41165 H 4005.54 4.86365 -0.988092 0
M  V30 41166 H 4000.8 5.74452 -2.09321 0
M  V30 41167 H 4004.97 6.34036 -2.88048 0
M  V30 41168 H 4002.6 6.77966 -3.43898 0
M  V30 41169 N 4004.17 0.0401637 1.57549 0
M  V30 41170 C 4005.45 -0.675323 1.83572 0
M  V30 41171 C 4005.83 -1.89689 0.926346 0
M  V30 41172 O 4005.18 -2.28495 -0.0153467 0
M  V30 41173 C 4005.39 -1.04307 3.33048 0
M  V30 41174 C 4006.74 -1.43004 3.99794 0
M  V30 41175 O 4007.76 -1.13573 3.37609 0
M  V30 41176 O 4006.62 -1.97884 5.09416 0
M  V30 41177 H 4003.71 -0.332312 0.757296 0
M  V30 41178 H 4006.26 0.0686882 1.69561 0
M  V30 41179 H 4005.03 -0.174121 3.90912 0
M  V30 41180 H 4004.65 -1.84489 3.52207 0
M  V30 41181 N 4005.65 -1.55866 -0.233109 0
M  V30 41182 C 4006.9 -1.78342 -0.959187 0
M  V30 41183 C 4007.23 -0.606919 -1.84788 0
M  V30 41184 O 4006.48 0.409219 -1.91374 0
M  V30 41185 C 4006.78 -3.06461 -1.83892 0
M  V30 41186 C 4006.45 -4.37165 -1.10443 0
M  V30 41187 C 4005.11 -4.7268 -0.901494 0
M  V30 41188 C 4007.46 -5.17908 -0.584888 0
M  V30 41189 C 4004.79 -5.86462 -0.166931 0
M  V30 41190 C 4007.14 -6.32453 0.136275 0
M  V30 41191 C 4005.8 -6.66579 0.350568 0
M  V30 41192 H 4005.07 -0.652599 -0.350991 0
M  V30 41193 H 4007.72 -1.90135 -0.228215 0
M  V30 41194 H 4006.03 -2.89739 -2.63739 0
M  V30 41195 H 4007.72 -3.21051 -2.40265 0
M  V30 41196 H 4004.31 -4.09272 -1.27256 0
M  V30 41197 H 4008.5 -4.90914 -0.729177 0
M  V30 41198 H 4003.75 -6.11399 0.00943789 0
M  V30 41199 H 4007.93 -6.94253 0.546416 0
M  V30 41200 H 4005.55 -7.54592 0.921702 0
M  V30 41201 N 4007.13 0.499346 -1.4948 0
M  V30 41202 C 4008.35 1.28206 -1.63027 0
M  V30 41203 C 4008.78 1.85655 -0.30227 0
M  V30 41204 O 4008.14 1.6594 0.730326 0
M  V30 41205 C 4008.19 2.38694 -2.70291 0
M  V30 41206 O 4007.29 3.42589 -2.29579 0
M  V30 41207 H 4006.63 0.378422 -0.545612 0
M  V30 41208 H 4009.16 0.597594 -1.95678 0
M  V30 41209 H 4009.17 2.84433 -2.9251 0
M  V30 41210 H 4007.85 1.96247 -3.66688 0
M  V30 41211 H 4006.42 3.02758 -2.17698 0
M  V30 41212 N 4008.61 1.38582 0.750513 0
M  V30 41213 C 4009.84 1.38199 1.53976 0
M  V30 41214 C 4010.25 -0.0274645 1.8878 0
M  V30 41215 O 4009.61 -0.994867 1.52999 0
M  V30 41216 C 4009.66 2.24048 2.83699 0
M  V30 41217 O 4009.38 3.59503 2.50378 0
M  V30 41218 C 4010.88 2.31878 3.77819 0
M  V30 41219 H 4008.1 0.472593 0.476337 0
M  V30 41220 H 4010.64 1.82201 0.928602 0
M  V30 41221 H 4008.8 1.835 3.41184 0
M  V30 41222 H 4009.21 4.04738 3.33598 0
M  V30 41223 H 4010.69 2.96226 4.65783 0
M  V30 41224 H 4011.16 1.33334 4.18472 0
M  V30 41225 H 4011.77 2.7283 3.26257 0
M  V30 41226 N 4010.09 -0.979029 1.23502 0
M  V30 41227 C 4011.32 -1.75316 1.09307 0
M  V30 41228 C 4011.72 -1.85778 -0.358233 0
M  V30 41229 O 4011.07 -1.33722 -1.25953 0
M  V30 41230 C 4011.13 -3.19617 1.64576 0
M  V30 41231 C 4010.79 -3.32661 3.13346 0
M  V30 41232 C 4011.79 -3.18877 4.10625 0
M  V30 41233 C 4009.47 -3.57265 3.53082 0
M  V30 41234 C 4011.47 -3.29506 5.45623 0
M  V30 41235 C 4009.16 -3.67533 4.88224 0
M  V30 41236 C 4010.15 -3.53663 5.84304 0
M  V30 41237 O 4009.84 -3.63564 7.16991 0
M  V30 41238 H 4009.57 -0.556967 0.383097 0
M  V30 41239 H 4012.13 -1.23861 1.63852 0
M  V30 41240 H 4010.36 -3.72326 1.04452 0
M  V30 41241 H 4012.05 -3.78796 1.45837 0
M  V30 41242 H 4012.81 -2.99765 3.81269 0
M  V30 41243 H 4008.69 -3.67132 2.78811 0
M  V30 41244 H 4012.24 -3.18597 6.20598 0
M  V30 41245 H 4008.13 -3.86156 5.17256 0
M  V30 41246 H 4008.9 -3.80351 7.24759 0
M  V30 41247 N 4011.56 -1.04695 -1.178 0
M  V30 41248 C 4012.79 -0.773157 -1.91588 0
M  V30 41249 C 4013.2 0.674349 -1.76774 0
M  V30 41250 O 4012.54 1.47195 -1.09905 0
M  V30 41251 C 4012.61 -1.06777 -3.43277 0
M  V30 41252 C 4012.27 -2.51045 -3.81871 0
M  V30 41253 C 4013.27 -3.49242 -3.85132 0
M  V30 41254 C 4010.95 -2.85923 -4.12981 0
M  V30 41255 C 4012.95 -4.80363 -4.18963 0
M  V30 41256 C 4010.63 -4.17249 -4.46483 0
M  V30 41257 C 4011.63 -5.14279 -4.49451 0
M  V30 41258 O 4011.32 -6.4325 -4.82166 0
M  V30 41259 H 4011.05 -0.280923 -0.614865 0
M  V30 41260 H 4013.61 -1.39943 -1.5035 0
M  V30 41261 H 4011.84 -0.384383 -3.84785 0
M  V30 41262 H 4013.52 -0.780784 -3.9832 0
M  V30 41263 H 4014.29 -3.23636 -3.61227 0
M  V30 41264 H 4010.17 -2.11065 -4.09845 0
M  V30 41265 H 4013.71 -5.56094 -4.21195 0
M  V30 41266 H 4009.61 -4.4262 -4.69849 0
M  V30 41267 H 4010.38 -6.47996 -5.00044 0
M  V30 41268 N 4013.04 1.34141 -0.827275 0
M  V30 41269 C 4013.97 2.31968 -0.267056 0
M  V30 41270 C 4014.95 1.58442 0.618878 0
M  V30 41271 O 4016.14 1.864 0.544849 0
M  V30 41272 C 4013.27 3.42618 0.568319 0
M  V30 41273 C 4012.22 4.2743 -0.220842 0
M  V30 41274 C 4011.55 5.29589 0.73755 0
M  V30 41275 C 4012.85 5.02301 -1.43146 0
M  V30 41276 H 4014.54 2.79071 -1.08441 0
M  V30 41277 H 4012.09 1.34171 -0.522903 0
M  V30 41278 H 4014.04 4.10073 0.970453 0
M  V30 41279 H 4012.76 2.94174 1.41877 0
M  V30 41280 H 4011.42 3.61583 -0.604397 0
M  V30 41281 H 4011.07 4.77406 1.58408 0
M  V30 41282 H 4010.77 5.87211 0.213712 0
M  V30 41283 H 4012.3 5.99912 1.13745 0
M  V30 41284 H 4013.71 5.62587 -1.10311 0
M  V30 41285 H 4012.11 5.69519 -1.89125 0
M  V30 41286 H 4013.18 4.31744 -2.20737 0
M  V30 41287 N 4014.52 0.582635 1.46435 0
M  V30 41288 C 4015.77 0.0680503 2.01985 0
M  V30 41289 C 4016.09 -1.2965 1.45657 0
M  V30 41290 O 4015.36 -1.85108 0.641235 0
M  V30 41291 H 4013.94 0.0221662 0.746671 0
M  V30 41292 H 4016.6 0.758398 1.79539 0
M  V30 41293 H 4015.7 -0.00100515 3.121 0
M  V30 41294 N 4016 -1.54309 0.320412 0
M  V30 41295 C 4017.25 -2.00115 -0.282548 0
M  V30 41296 C 4017.57 -1.21021 -1.52902 0
M  V30 41297 O 4016.84 -0.311197 -1.93412 0
M  V30 41298 H 4015.42 -0.73924 -0.107393 0
M  V30 41299 H 4018.08 -1.89955 0.436229 0
M  V30 41300 H 4017.17 -3.07373 -0.541135 0
M  V30 41301 N 4017.48 -0.0485183 -1.57525 0
M  V30 41302 C 4018.72 0.625301 -1.91763 0
M  V30 41303 C 4019.04 1.7216 -0.928451 0
M  V30 41304 O 4020.24 2.4534 -1.16278 0
M  V30 41305 C 4018.7 1.16354 -3.40573 0
M  V30 41306 C 4018.31 0.09949 -4.4789 0
M  V30 41307 C 4020.05 1.81276 -3.83848 0
M  V30 41308 C 4017.96 0.65046 -5.87812 0
M  V30 41309 H 4016.89 0.237333 -0.715674 0
M  V30 41310 H 4019.54 -0.116976 -1.83127 0
M  V30 41311 H 4017.92 1.95805 -3.44204 0
M  V30 41312 H 4019.1 -0.673985 -4.55844 0
M  V30 41313 H 4017.41 -0.452111 -4.13938 0
M  V30 41314 H 4020.01 2.23488 -4.85754 0
M  V30 41315 H 4020.35 2.6634 -3.19951 0
M  V30 41316 H 4020.88 1.08484 -3.82722 0
M  V30 41317 H 4017.62 -0.162486 -6.55299 0
M  V30 41318 H 4017.14 1.39198 -5.83424 0
M  V30 41319 H 4018.82 1.13418 -6.36981 0
M  V30 41320 N 4018.95 1.55988 0.224839 0
M  V30 41321 C 4020.36 1.69064 0.792108 0
M  V30 41322 C 4020.72 0.649941 1.85122 0
M  V30 41323 O 4019.84 -0.199576 2.15478 0
M  V30 41324 C 4020.44 3.06508 1.44355 0
M  V30 41325 C 4018.99 3.21449 1.95825 0
M  V30 41326 C 4018.14 2.64984 0.817234 0
M  V30 41327 H 4021.09 1.587 0.000242937 0
M  V30 41328 H 4021.11 3.02182 2.31227 0
M  V30 41329 H 4020.63 3.82229 0.672477 0
M  V30 41330 H 4018.73 2.50591 2.75745 0
M  V30 41331 H 4018.84 4.28626 2.14048 0
M  V30 41332 H 4017.2 2.23379 1.22367 0
M  V30 41333 H 4017.99 3.43249 0.0588836 0
M  V30 41334 N 4020.43 -0.491412 1.49743 0
M  V30 41335 C 4021.68 -1.24159 1.58958 0
M  V30 41336 C 4021.99 -1.93499 0.285916 0
M  V30 41337 O 4023.2 -2.70284 0.256725 0
M  V30 41338 C 4021.66 -2.25489 2.80504 0
M  V30 41339 C 4021.26 -1.62044 4.17667 0
M  V30 41340 C 4023.01 -3.01275 2.99055 0
M  V30 41341 C 4020.91 -2.61542 5.30424 0
M  V30 41342 H 4019.84 -0.467098 0.591892 0
M  V30 41343 H 4022.5 -0.514333 1.76144 0
M  V30 41344 H 4020.88 -3.01419 2.56832 0
M  V30 41345 H 4022.05 -0.920421 4.51514 0
M  V30 41346 H 4020.37 -0.98614 4.04554 0
M  V30 41347 H 4022.96 -3.757 3.80465 0
M  V30 41348 H 4023.31 -3.5946 2.09986 0
M  V30 41349 H 4023.84 -2.3246 3.22811 0
M  V30 41350 H 4020.58 -2.08124 6.21582 0
M  V30 41351 H 4020.1 -3.29756 5.0102 0
M  V30 41352 H 4021.78 -3.23779 5.60157 0
M  V30 41353 N 4021.91 -1.38978 -0.743153 0
M  V30 41354 C 4022.87 -1.36832 -1.83874 0
M  V30 41355 C 4023.87 -0.266902 -1.58569 0
M  V30 41356 O 4025.06 -0.524367 -1.66121 0
M  V30 41357 C 4022.2 -1.13286 -3.21526 0
M  V30 41358 H 4023.39 -2.34314 -1.87182 0
M  V30 41359 H 4020.94 -1.24424 -0.945957 0
M  V30 41360 H 4021.68 -0.164531 -3.23882 0
M  V30 41361 H 4021.46 -1.9304 -3.41289 0
M  V30 41362 H 4022.95 -1.14505 -4.01595 0
M  V30 41363 N 4023.39 0.972465 -1.2402 0
M  V30 41364 C 4024.64 1.70911 -1.07108 0
M  V30 41365 C 4024.95 1.91655 0.390874 0
M  V30 41366 O 4026.16 2.62844 0.680084 0
M  V30 41367 C 4024.61 3.07609 -1.86829 0
M  V30 41368 C 4024.22 2.94725 -3.37404 0
M  V30 41369 C 4025.96 3.85179 -1.78431 0
M  V30 41370 C 4023.87 4.26702 -4.09486 0
M  V30 41371 H 4022.8 0.6409 -0.397195 0
M  V30 41372 H 4025.45 1.08402 -1.48058 0
M  V30 41373 H 4023.83 3.70919 -1.38689 0
M  V30 41374 H 4025.01 2.40455 -3.93088 0
M  V30 41375 H 4023.32 2.30624 -3.46701 0
M  V30 41376 H 4025.92 4.82899 -2.29592 0
M  V30 41377 H 4026.26 4.09513 -0.748627 0
M  V30 41378 H 4026.8 3.28585 -2.24225 0
M  V30 41379 H 4023.54 4.07562 -5.13394 0
M  V30 41380 H 4023.06 4.80806 -3.58588 0
M  V30 41381 H 4024.73 4.95348 -4.16221 0
M  V30 41382 N 4024.87 1.05318 1.17243 0
M  V30 41383 C 4026.28 0.774765 1.39533 0
M  V30 41384 C 4026.48 -0.630277 1.91389 0
M  V30 41385 O 4025.54 -1.39247 2.10633 0
M  V30 41386 C 4026.85 1.83143 2.38494 0
M  V30 41387 C 4028.4 1.85379 2.52197 0
M  V30 41388 C 4028.87 2.90072 3.54432 0
M  V30 41389 N 4030.37 2.89043 3.61951 0
M  V30 41390 C 4031.1 3.66698 4.40817 0
M  V30 41391 N 4030.6 4.54143 5.23188 0
M  V30 41392 N 4032.39 3.55133 4.35703 0
M  V30 41393 H 4024.54 1.95969 0.819151 0
M  V30 41394 H 4026.8 0.848645 0.4225 0
M  V30 41395 H 4026.51 2.83991 2.07466 0
M  V30 41396 H 4026.38 1.67413 3.38013 0
M  V30 41397 H 4028.77 0.851953 2.82535 0
M  V30 41398 H 4028.85 2.05187 1.52748 0
M  V30 41399 H 4028.5 3.90443 3.24833 0
M  V30 41400 H 4028.43 2.67516 4.53589 0
M  V30 41401 H 4030.92 2.2564 3.03142 0
M  V30 41402 H 4031.23 5.10077 5.80553 0
M  V30 41403 H 4029.57 4.58204 5.22565 0
M  V30 41404 H 4032.77 2.86211 3.70406 0
M  V30 41405 H 4032.94 4.15899 4.96923 0
M  V30 41406 N 4026.34 -1.33701 0.834377 0
M  V30 41407 C 4027.25 -2.33079 0.26669 0
M  V30 41408 C 4028.27 -1.63146 -0.60493 0
M  V30 41409 O 4029.45 -1.94833 -0.510117 0
M  V30 41410 C 4026.51 -3.42268 -0.552613 0
M  V30 41411 C 4025.57 -4.2793 0.342752 0
M  V30 41412 C 4024.81 -5.31903 -0.437543 0
M  V30 41413 O 4025.03 -5.45415 -1.6697 0
M  V30 41414 O 4023.96 -6.01612 0.186107 0
M  V30 41415 H 4027.79 -2.83484 1.08951 0
M  V30 41416 H 4025.37 -1.36963 0.596789 0
M  V30 41417 H 4027.26 -4.0891 -1.01835 0
M  V30 41418 H 4025.93 -2.94087 -1.35257 0
M  V30 41419 H 4024.84 -3.6417 0.856232 0
M  V30 41420 H 4026.17 -4.79581 1.10736 0
M  V30 41421 N 4027.82 -0.590393 -1.46124 0
M  V30 41422 C 4029.24 -0.252667 -1.57587 0
M  V30 41423 C 4029.44 1.24499 -1.58437 0
M  V30 41424 O 4028.49 2.02713 -1.50544 0
M  V30 41425 C 4029.81 -0.908662 -2.86642 0
M  V30 41426 C 4031.36 -0.88297 -3.00288 0
M  V30 41427 C 4031.83 -1.51865 -4.32089 0
M  V30 41428 N 4033.32 -1.48334 -4.38806 0
M  V30 41429 C 4034.06 -1.94451 -5.39422 0
M  V30 41430 N 4033.55 -2.48576 -6.4667 0
M  V30 41431 N 4035.35 -1.85322 -5.30671 0
M  V30 41432 H 4027.5 -1.56303 -1.43816 0
M  V30 41433 H 4029.76 -0.653771 -0.686503 0
M  V30 41434 H 4029.47 -1.96251 -2.91854 0
M  V30 41435 H 4029.34 -0.421511 -3.74837 0
M  V30 41436 H 4031.73 0.162279 -2.94653 0
M  V30 41437 H 4031.81 -1.40822 -2.13548 0
M  V30 41438 H 4031.45 -2.56314 -4.38481 0
M  V30 41439 H 4031.38 -0.968565 -5.17616 0
M  V30 41440 H 4033.87 -1.08779 -3.61906 0
M  V30 41441 H 4034.19 -2.81603 -7.19666 0
M  V30 41442 H 4032.53 -2.52606 -6.47468 0
M  V30 41443 H 4035.72 -1.4279 -4.4579 0
M  V30 41444 H 4035.89 -2.21578 -6.0894 0
M  V30 41445 N 4029.3 1.54136 -0.328591 0
M  V30 41446 C 4030.55 2.00659 0.27247 0
M  V30 41447 C 4030.88 1.21669 1.51746 0
M  V30 41448 O 4030.13 0.288258 1.93565 0
M  V30 41449 C 4030.43 3.51499 0.646751 0
M  V30 41450 C 4030.1 4.48123 -0.49964 0
M  V30 41451 C 4028.76 4.7426 -0.814283 0
M  V30 41452 C 4031.11 5.05504 -1.26945 0
M  V30 41453 C 4028.44 5.55036 -1.90137 0
M  V30 41454 C 4030.79 5.87464 -2.34666 0
M  V30 41455 C 4029.45 6.11902 -2.66707 0
M  V30 41456 H 4028.72 0.734262 0.0997039 0
M  V30 41457 H 4031.37 1.86055 -0.45341 0
M  V30 41458 H 4029.68 3.63856 1.45313 0
M  V30 41459 H 4031.37 3.84941 1.12345 0
M  V30 41460 H 4027.96 4.27903 -0.24433 0
M  V30 41461 H 4032.15 4.85289 -1.03962 0
M  V30 41462 H 4027.4 5.72199 -2.15402 0
M  V30 41463 H 4031.58 6.30945 -2.94756 0
M  V30 41464 H 4029.2 6.7428 -3.5107 0
M  V30 41465 N 4030.78 0.0568716 1.57497 0
M  V30 41466 C 4031.73 -0.933361 2.13052 0
M  V30 41467 C 4032.72 -1.31839 1.06371 0
M  V30 41468 O 4033.93 -1.29738 1.24772 0
M  V30 41469 H 4030.3 -0.318881 0.681042 0
M  V30 41470 H 4032.27 -0.439744 2.95142 0
M  V30 41471 C 4031.02 -2.19686 2.69506 0
M  V30 41472 H 4030.34 -1.90939 3.51258 0
M  V30 41473 H 4031.78 -2.87119 3.11992 0
M  V30 41474 C 4030.24 -2.94538 1.63552 0
M  V30 41475 O 4030.77 -3.87689 1.05166 0
M  V30 41476 N 4028.98 -2.57372 1.34937 0
M  V30 41477 H 4028.53 -1.81696 1.82604 0
M  V30 41478 H 4028.48 -3.0776 0.642755 0
M  V30 41479 N 4032.26 -1.56105 -0.216564 0
M  V30 41480 C 4033.51 -1.78547 -0.938289 0
M  V30 41481 C 4033.82 -0.626322 -1.85301 0
M  V30 41482 O 4035.02 -0.734497 -2.61376 0
M  V30 41483 C 4033.48 -3.16212 -1.71866 0
M  V30 41484 C 4033.09 -4.39866 -0.849826 0
M  V30 41485 C 4034.83 -3.47977 -2.4313 0
M  V30 41486 C 4032.74 -5.68556 -1.62783 0
M  V30 41487 H 4031.67 -0.665687 -0.354086 0
M  V30 41488 H 4034.32 -1.82492 -0.192047 0
M  V30 41489 H 4032.7 -3.06457 -2.50799 0
M  V30 41490 H 4033.88 -4.6069 -0.100676 0
M  V30 41491 H 4032.19 -4.15654 -0.249066 0
M  V30 41492 H 4034.79 -4.41352 -3.01848 0
M  V30 41493 H 4035.13 -2.7071 -3.16263 0
M  V30 41494 H 4035.66 -3.59084 -1.71182 0
M  V30 41495 H 4032.4 -6.4873 -0.939687 0
M  V30 41496 H 4031.92 -5.51785 -2.35147 0
M  V30 41497 H 4033.6 -6.08909 -2.18722 0
M  V30 41498 N 4033.73 0.483463 -1.50001 0
M  V30 41499 C 4034.96 1.2647 -1.64378 0
M  V30 41500 C 4035.38 1.85324 -0.321944 0
M  V30 41501 O 4034.74 1.66705 0.712685 0
M  V30 41502 C 4034.79 2.35814 -2.72808 0
M  V30 41503 O 4033.89 3.40135 -2.332 0
M  V30 41504 H 4033.24 0.372614 -0.549595 0
M  V30 41505 H 4035.77 0.576806 -1.96301 0
M  V30 41506 H 4035.78 2.81315 -2.9551 0
M  V30 41507 H 4034.45 1.92347 -3.68749 0
M  V30 41508 H 4033.03 3.00432 -2.20896 0
M  V30 41509 N 4035.21 1.39371 0.735772 0
M  V30 41510 C 4036.44 1.39824 1.52502 0
M  V30 41511 C 4036.86 -0.00744027 1.88799 0
M  V30 41512 O 4036.21 -0.978584 1.54045 0
M  V30 41513 C 4036.26 2.27044 2.81306 0
M  V30 41514 O 4035.98 3.62138 2.46551 0
M  V30 41515 C 4037.49 2.35873 3.75339 0
M  V30 41516 H 4034.71 0.477619 0.471298 0
M  V30 41517 H 4037.25 1.83176 0.909224 0
M  V30 41518 H 4035.4 1.87108 3.39219 0
M  V30 41519 H 4035.82 4.08253 3.29287 0
M  V30 41520 H 4037.29 3.0115 4.62615 0
M  V30 41521 H 4037.77 1.37765 4.17034 0
M  V30 41522 H 4038.38 2.76275 3.23345 0
M  V30 41523 N 4036.69 -0.965875 1.24534 0
M  V30 41524 C 4038.1 -1.52371 1.07888 0
M  V30 41525 C 4038.45 -1.93069 -0.349103 0
M  V30 41526 O 4037.58 -1.7751 -1.23771 0
M  V30 41527 C 4038.17 -2.76896 1.95229 0
M  V30 41528 C 4036.73 -3.2903 1.82802 0
M  V30 41529 C 4035.88 -2.01928 1.90054 0
M  V30 41530 H 4038.83 -0.783973 1.37984 0
M  V30 41531 H 4038.85 -3.50298 1.48565 0
M  V30 41532 H 4038.36 -2.47244 2.99152 0
M  V30 41533 H 4036.46 -3.63528 0.817179 0
M  V30 41534 H 4036.58 -3.97806 2.66996 0
M  V30 41535 H 4034.94 -2.16722 1.33804 0
M  V30 41536 H 4035.72 -1.74639 2.95561 0
M  V30 41537 N 4038.17 -1.05938 -1.16683 0
M  V30 41538 C 4039.13 -0.671137 -2.19154 0
M  V30 41539 C 4040.13 0.281277 -1.58321 0
M  V30 41540 O 4041.32 0.0641402 -1.74082 0
M  V30 41541 C 4038.45 0.0130502 -3.40898 0
M  V30 41542 H 4039.65 -1.57819 -2.55016 0
M  V30 41543 H 4037.2 -0.85417 -1.30895 0
M  V30 41544 H 4037.94 0.933023 -3.10588 0
M  V30 41545 H 4037.72 -0.671755 -3.86303 0
M  V30 41546 H 4039.21 0.270533 -4.16723 0
M  V30 41547 N 4039.65 1.33256 -0.841456 0
M  V30 41548 C 4040.89 1.97697 -0.438413 0
M  V30 41549 C 4041.22 1.66647 1.00295 0
M  V30 41550 O 4040.48 0.939995 1.71647 0
M  V30 41551 C 4040.78 3.52173 -0.608983 0
M  V30 41552 C 4040.44 4.0318 -2.01883 0
M  V30 41553 C 4039.1 4.16821 -2.40446 0
M  V30 41554 C 4041.46 4.30392 -2.9396 0
M  V30 41555 C 4038.78 4.55009 -3.70384 0
M  V30 41556 C 4041.14 4.70033 -4.23381 0
M  V30 41557 C 4039.8 4.81879 -4.61897 0
M  V30 41558 H 4039.07 0.723425 -0.160427 0
M  V30 41559 H 4041.72 1.58887 -1.06897 0
M  V30 41560 H 4040.02 3.9166 0.10488 0
M  V30 41561 H 4041.72 4.00039 -0.277383 0
M  V30 41562 H 4038.31 3.93039 -1.70934 0
M  V30 41563 H 4042.49 4.19374 -2.65403 0
M  V30 41564 H 4037.75 4.62374 -4.00026 0
M  V30 41565 H 4041.92 4.90045 -4.94802 0
M  V30 41566 H 4039.55 5.11227 -5.62629 0
M  V30 41567 N 4041.13 0.598134 1.45809 0
M  V30 41568 C 4042.54 0.26102 1.57451 0
M  V30 41569 C 4042.74 -1.23657 1.59095 0
M  V30 41570 O 4041.8 -2.01912 1.51617 0
M  V30 41571 C 4043.11 0.923851 2.86156 0
M  V30 41572 C 4044.66 0.898882 2.99815 0
M  V30 41573 C 4045.13 1.54154 4.31278 0
M  V30 41574 N 4046.62 1.50659 4.38014 0
M  V30 41575 C 4047.36 1.97309 5.38383 0
M  V30 41576 N 4046.86 2.52002 6.45342 0
M  V30 41577 N 4048.65 1.88134 5.29681 0
M  V30 41578 H 4040.8 1.57064 1.42985 0
M  V30 41579 H 4043.06 0.657403 0.683027 0
M  V30 41580 H 4042.77 1.97796 2.90809 0
M  V30 41581 H 4042.64 0.441383 3.74609 0
M  V30 41582 H 4045.03 -0.14665 2.94735 0
M  V30 41583 H 4045.11 1.41952 2.12798 0
M  V30 41584 H 4044.75 2.58636 4.37116 0
M  V30 41585 H 4044.68 0.996002 5.17095 0
M  V30 41586 H 4047.18 1.10696 3.61324 0
M  V30 41587 H 4047.49 2.85416 7.18163 0
M  V30 41588 H 4045.83 2.56036 6.4612 0
M  V30 41589 H 4049.02 1.45152 4.45027 0
M  V30 41590 H 4049.2 2.24804 6.07756 0
M  V30 41591 N 4042.6 -1.5396 0.33676 0
M  V30 41592 C 4043.85 -2.00404 -0.261308 0
M  V30 41593 C 4044.17 -1.22635 -1.5161 0
M  V30 41594 O 4043.44 -0.331693 -1.93072 0
M  V30 41595 H 4042.02 -0.740337 -0.0995464 0
M  V30 41596 H 4044.68 -1.89482 0.456352 0
M  V30 41597 H 4043.78 -3.0793 -0.508503 0
M  V30 41598 N 4044.08 -0.0652232 -1.57465 0
M  V30 41599 C 4045.32 0.609124 -1.95113 0
M  V30 41600 C 4045.69 1.67172 -0.944319 0
M  V30 41601 O 4046.89 2.40115 -1.20823 0
M  V30 41602 C 4045.16 1.17706 -3.37461 0
M  V30 41603 S 4046.72 1.86745 -3.97079 0
M  V30 41604 H 4043.53 0.199632 -0.682399 0
M  V30 41605 H 4046.14 -0.137513 -1.95016 0
M  V30 41606 H 4044.84 0.391757 -4.08526 0
M  V30 41607 H 4044.37 1.9602 -3.41086 0
M  V30 41608 H 4046.39 3.14931 -3.83448 0
M  V30 41609 N 4045.56 1.56218 0.208282 0
M  V30 41610 C 4046.49 1.88529 1.28578 0
M  V30 41611 C 4047.47 0.743993 1.4458 0
M  V30 41612 O 4048.65 0.993688 1.60181 0
M  V30 41613 C 4045.78 2.10394 2.65428 0
M  V30 41614 C 4044.83 3.33092 2.66368 0
M  V30 41615 S 4045.66 4.88621 2.19112 0
M  V30 41616 C 4046.82 5.13538 3.57812 0
M  V30 41617 H 4047.05 2.79626 1.00978 0
M  V30 41618 H 4044.58 1.48825 0.411159 0
M  V30 41619 H 4046.54 2.23675 3.44209 0
M  V30 41620 H 4045.2 1.2007 2.90245 0
M  V30 41621 H 4044.39 3.45477 3.66963 0
M  V30 41622 H 4044 3.18737 1.95659 0
M  V30 41623 H 4046.29 5.0325 4.53592 0
M  V30 41624 H 4047.23 6.15364 3.50332 0
M  V30 41625 H 4047.64 4.41221 3.52114 0
M  V30 41626 N 4047.04 -0.475502 1.50256 0
M  V30 41627 C 4047.98 -1.57405 1.68797 0
M  V30 41628 C 4048.95 -1.57442 0.52928 0
M  V30 41629 O 4050.14 -1.75039 0.759332 0
M  V30 41630 C 4047.28 -2.95407 1.78406 0
M  V30 41631 C 4046.39 -3.05193 3.05747 0
M  V30 41632 C 4045.53 -4.34083 3.06179 0
M  V30 41633 C 4044.57 -4.37594 4.27993 0
M  V30 41634 N 4043.7 -5.57949 4.26189 0
M  V30 41635 H 4048.54 -1.40901 2.62585 0
M  V30 41636 H 4046.08 -0.685129 1.30171 0
M  V30 41637 H 4048.04 -3.75429 1.81958 0
M  V30 41638 H 4046.67 -3.10556 0.88061 0
M  V30 41639 H 4045.72 -2.18072 3.11687 0
M  V30 41640 H 4047.03 -3.03647 3.95727 0
M  V30 41641 H 4046.19 -5.22448 3.08436 0
M  V30 41642 H 4044.93 -4.38231 2.14022 0
M  V30 41643 H 4043.93 -3.47627 4.25953 0
M  V30 41644 H 4045.16 -4.35141 5.21372 0
M  V30 41645 H 4043.1 -5.62891 3.36883 0
M  V30 41646 H 4043.02 -5.58126 5.09933 0
M  V30 41647 H 4044.29 -6.48452 4.32586 0
M  V30 41648 N 4048.52 -1.39759 -0.72837 0
M  V30 41649 C 4049.46 -1.39162 -1.86378 0
M  V30 41650 C 4050.46 -0.273835 -1.67172 0
M  V30 41651 O 4051.66 -0.444215 -1.74433 0
M  V30 41652 H 4048.04 -0.434709 -0.613622 0
M  V30 41653 H 4050.01 -2.3492 -1.83997 0
M  V30 41654 C 4048.76 -1.25851 -3.24125 0
M  V30 41655 H 4048.08 -2.11135 -3.39503 0
M  V30 41656 H 4049.52 -1.29491 -4.03743 0
M  V30 41657 C 4047.98 0.0324684 -3.36884 0
M  V30 41658 O 4048.51 1.00019 -3.89049 0
M  V30 41659 N 4046.72 0.0977323 -2.90436 0
M  V30 41660 H 4046.26 -0.690482 -2.48174 0
M  V30 41661 H 4046.22 0.961013 -2.99352 0
M  V30 41662 N 4049.99 0.959257 -1.25044 0
M  V30 41663 C 4050.92 2.07284 -1.07498 0
M  V30 41664 C 4051.9 1.70094 0.0145965 0
M  V30 41665 O 4053.09 1.93588 -0.154069 0
M  V30 41666 C 4050.22 3.40417 -0.688 0
M  V30 41667 C 4049.17 3.91597 -1.72729 0
M  V30 41668 C 4048.5 5.21172 -1.19513 0
M  V30 41669 C 4049.8 4.18492 -3.12509 0
M  V30 41670 H 4051.49 2.22221 -2.00645 0
M  V30 41671 H 4049.04 1.06783 -0.966093 0
M  V30 41672 H 4050.99 4.17766 -0.552206 0
M  V30 41673 H 4049.72 3.25405 0.279167 0
M  V30 41674 H 4048.38 3.16413 -1.85145 0
M  V30 41675 H 4048.02 5.02526 -0.218328 0
M  V30 41676 H 4047.72 5.56384 -1.88972 0
M  V30 41677 H 4049.25 6.01123 -1.07163 0
M  V30 41678 H 4050.66 4.86516 -3.03274 0
M  V30 41679 H 4049.06 4.64949 -3.79397 0
M  V30 41680 H 4050.13 3.24944 -3.59916 0
M  V30 41681 N 4051.47 1.06556 1.16119 0
M  V30 41682 C 4052.42 0.678698 2.20595 0
M  V30 41683 C 4053.39 -0.32596 1.6287 0
M  V30 41684 O 4054.57 -0.214245 1.89593 0
M  V30 41685 C 4051.71 0.0741048 3.4502 0
M  V30 41686 C 4050.83 1.12926 4.16979 0
M  V30 41687 C 4049.96 0.490528 5.2893 0
M  V30 41688 C 4049 1.52903 5.92695 0
M  V30 41689 N 4048.14 0.913469 6.96132 0
M  V30 41690 H 4052.98 1.57403 2.53038 0
M  V30 41691 H 4050.52 0.786944 1.2428 0
M  V30 41692 H 4052.47 -0.293986 4.16163 0
M  V30 41693 H 4051.1 -0.784616 3.13119 0
M  V30 41694 H 4050.16 1.61502 3.44414 0
M  V30 41695 H 4051.47 1.91701 4.60491 0
M  V30 41696 H 4050.62 0.0696178 6.0666 0
M  V30 41697 H 4049.36 -0.329069 4.86589 0
M  V30 41698 H 4048.37 1.95981 5.13684 0
M  V30 41699 H 4049.59 2.35077 6.37115 0
M  V30 41700 H 4047.54 0.114631 6.559 0
M  V30 41701 H 4047.45 1.63856 7.38029 0
M  V30 41702 H 4048.72 0.517792 7.77778 0
M  V30 41703 N 4052.95 -1.32808 0.848511 0
M  V30 41704 C 4053.9 -2.29013 0.286676 0
M  V30 41705 C 4054.87 -1.54771 -0.602917 0
M  V30 41706 O 4056.05 -1.83024 -0.539137 0
M  V30 41707 C 4053.19 -3.41097 -0.524133 0
M  V30 41708 C 4052.31 -4.30231 0.390562 0
M  V30 41709 C 4051.44 -5.29438 -0.432283 0
M  V30 41710 C 4050.48 -6.10214 0.480197 0
M  V30 41711 N 4049.62 -7.01437 -0.305097 0
M  V30 41712 H 4054.46 -2.76461 1.11234 0
M  V30 41713 H 4051.99 -1.36024 0.55998 0
M  V30 41714 H 4053.95 -4.04795 -1.00979 0
M  V30 41715 H 4052.58 -2.94815 -1.31468 0
M  V30 41716 H 4051.63 -3.67168 0.994582 0
M  V30 41717 H 4052.95 -4.8672 1.09112 0
M  V30 41718 H 4052.1 -5.9871 -0.981366 0
M  V30 41719 H 4050.84 -4.73551 -1.16623 0
M  V30 41720 H 4049.84 -5.39851 1.04122 0
M  V30 41721 H 4051.07 -6.68185 1.21266 0
M  V30 41722 H 4049.01 -6.47986 -1.02225 0
M  V30 41723 H 4048.93 -7.55251 0.336546 0
M  V30 41724 H 4050.2 -7.75003 -0.836106 0
M  V30 41725 N 4054.43 -0.605858 -1.45489 0
M  V30 41726 C 4055.66 -0.106688 -2.06625 0
M  V30 41727 C 4056.07 1.2082 -1.4508 0
M  V30 41728 O 4055.43 1.73555 -0.564346 0
M  V30 41729 C 4055.48 0.0412544 -3.61476 0
M  V30 41730 O 4055.2 -1.22161 -4.20724 0
M  V30 41731 C 4056.7 0.572085 -4.39593 0
M  V30 41732 H 4053.92 -0.0680482 -0.667541 0
M  V30 41733 H 4056.47 -0.8331 -1.86761 0
M  V30 41734 H 4054.62 0.717986 -3.80688 0
M  V30 41735 H 4055.03 -1.05018 -5.13879 0
M  V30 41736 H 4056.51 0.624694 -5.48454 0
M  V30 41737 H 4056.99 1.594 -4.09253 0
M  V30 41738 H 4057.59 -0.0705444 -4.25241 0
M  V30 41739 N 4055.91 1.53779 -0.34492 0
M  V30 41740 C 4057.13 2.05824 0.255192 0
M  V30 41741 C 4057.56 1.21815 1.43327 0
M  V30 41742 O 4056.91 0.232223 1.79807 0
M  V30 41743 C 4056.96 3.54751 0.646843 0
M  V30 41744 O 4056.07 3.73583 1.7467 0
M  V30 41745 H 4055.41 0.662668 0.0420402 0
M  V30 41746 H 4057.94 1.98408 -0.499533 0
M  V30 41747 H 4057.95 3.97408 0.923616 0
M  V30 41748 H 4056.62 4.15345 -0.214692 0
M  V30 41749 H 4055.2 3.42828 1.46709 0
M  V30 41750 N 4057.38 0.0735731 1.57428 0
M  V30 41751 C 4058.63 -0.593962 1.93175 0
M  V30 41752 C 4058.95 -1.70043 0.954492 0
M  V30 41753 O 4058.22 -1.959 0.00293208 0
M  V30 41754 H 4056.8 -0.222394 0.713127 0
M  V30 41755 H 4059.47 0.131847 1.94454 0
M  V30 41756 H 4058.56 -1.01813 2.95026 0
M  V30 41757 N 4058.86 -1.56326 -0.199995 0
M  V30 41758 C 4060.11 -1.80604 -0.922507 0
M  V30 41759 C 4060.44 -0.646814 -1.83112 0
M  V30 41760 O 4059.72 0.352894 -1.91272 0
M  V30 41761 C 4060 -3.15108 -1.74296 0
M  V30 41762 C 4059.85 -4.41514 -0.859394 0
M  V30 41763 C 4061.17 -3.46256 -2.71652 0
M  V30 41764 H 4058.29 -0.657005 -0.333937 0
M  V30 41765 H 4060.93 -1.89046 -0.190143 0
M  V30 41766 H 4059.08 -3.08042 -2.36733 0
M  V30 41767 H 4060.75 -4.60622 -0.250102 0
M  V30 41768 H 4059 -4.33483 -0.165859 0
M  V30 41769 H 4059.67 -5.32113 -1.46833 0
M  V30 41770 H 4062.14 -3.5359 -2.19347 0
M  V30 41771 H 4061.02 -4.41499 -3.26144 0
M  V30 41772 H 4061.28 -2.69503 -3.50457 0
M  V30 41773 N 4060.34 0.467527 -1.50506 0
M  V30 41774 C 4061.59 1.22115 -1.61913 0
M  V30 41775 C 4061.92 1.91543 -0.320145 0
M  V30 41776 O 4061.19 1.82278 0.678599 0
M  V30 41777 C 4061.48 2.26201 -2.80188 0
M  V30 41778 C 4061.33 1.61054 -4.19978 0
M  V30 41779 C 4062.65 3.27478 -2.94017 0
M  V30 41780 H 4059.77 0.442604 -0.589297 0
M  V30 41781 H 4062.41 0.514452 -1.82903 0
M  V30 41782 H 4060.56 2.86473 -2.62422 0
M  V30 41783 H 4062.23 1.04352 -4.49342 0
M  V30 41784 H 4060.48 0.913575 -4.24071 0
M  V30 41785 H 4061.15 2.36709 -4.98671 0
M  V30 41786 H 4063.62 2.77232 -3.10293 0
M  V30 41787 H 4062.5 3.97632 -3.78391 0
M  V30 41788 H 4062.76 3.91811 -2.04783 0
M  V30 41789 N 4061.82 1.40143 0.720948 0
M  V30 41790 C 4063.23 1.22055 1.02833 0
M  V30 41791 C 4063.43 0.0919844 2.0129 0
M  V30 41792 O 4062.49 -0.551854 2.46396 0
M  V30 41793 C 4063.8 2.56019 1.57718 0
M  V30 41794 C 4065.35 2.62985 1.69729 0
M  V30 41795 C 4065.83 3.97204 2.2802 0
M  V30 41796 N 4067.32 3.98917 2.35413 0
M  V30 41797 C 4068.05 4.99553 2.81486 0
M  V30 41798 N 4067.55 6.10584 3.27351 0
M  V30 41799 N 4069.34 4.86924 2.80822 0
M  V30 41800 H 4061.49 2.1229 0.0682337 0
M  V30 41801 H 4063.76 0.943439 0.0928786 0
M  V30 41802 H 4063.46 3.39226 0.928365 0
M  V30 41803 H 4063.34 2.7673 2.56321 0
M  V30 41804 H 4065.72 1.80152 2.33729 0
M  V30 41805 H 4065.8 2.4611 0.6974 0
M  V30 41806 H 4065.45 4.80473 1.64644 0
M  V30 41807 H 4065.38 4.11406 3.28713 0
M  V30 41808 H 4067.87 3.18738 2.03013 0
M  V30 41809 H 4068.18 6.83269 3.61059 0
M  V30 41810 H 4066.53 6.14157 3.25324 0
M  V30 41811 H 4069.72 3.99279 2.44323 0
M  V30 41812 H 4069.89 5.65497 3.16413 0
M  V30 41813 N 4063.3 -0.952612 1.25551 0
M  V30 41814 C 4064.23 -2.06711 1.08596 0
M  V30 41815 C 4065.21 -1.70099 -0.00557581 0
M  V30 41816 O 4066.39 -1.93503 0.164333 0
M  V30 41817 C 4063.52 -3.40048 0.706044 0
M  V30 41818 C 4062.48 -3.90676 1.74804 0
M  V30 41819 C 4061.8 -5.20531 1.22275 0
M  V30 41820 C 4063.1 -4.16828 3.14724 0
M  V30 41821 H 4064.8 -2.21154 2.0182 0
M  V30 41822 H 4062.34 -1.06269 0.971742 0
M  V30 41823 H 4064.3 -4.17468 0.574353 0
M  V30 41824 H 4063.02 -3.25548 -0.261906 0
M  V30 41825 H 4061.68 -3.15426 1.8682 0
M  V30 41826 H 4061.33 -5.02403 0.244975 0
M  V30 41827 H 4061.03 -5.55374 1.9192 0
M  V30 41828 H 4062.55 -6.00546 1.1035 0
M  V30 41829 H 4063.96 -4.84901 3.0585 0
M  V30 41830 H 4062.36 -4.62931 3.81857 0
M  V30 41831 H 4063.43 -3.2303 3.61634 0
M  V30 41832 N 4064.77 -1.0717 -1.15553 0
M  V30 41833 C 4065.72 -0.684665 -2.22295 0
M  V30 41834 C 4066.72 0.303645 -1.66656 0
M  V30 41835 O 4067.92 0.167556 -1.79218 0
M  V30 41836 H 4064.3 -0.203319 -0.723993 0
M  V30 41837 H 4066.27 -1.5946 -2.5222 0
M  V30 41838 C 4065.02 -0.0965729 -3.47566 0
M  V30 41839 H 4064.34 -0.848191 -3.90699 0
M  V30 41840 H 4065.78 0.136596 -4.2378 0
M  V30 41841 C 4064.24 1.16225 -3.16217 0
M  V30 41842 O 4064.77 2.24897 -3.32842 0
M  V30 41843 N 4062.98 1.06769 -2.70275 0
M  V30 41844 H 4062.52 0.183312 -2.56947 0
M  V30 41845 H 4062.48 1.91076 -2.49674 0
M  V30 41846 N 4066.25 1.32356 -0.855542 0
M  V30 41847 C 4067.53 1.91861 -0.380609 0
M  V30 41848 C 4067.91 1.77934 1.1359 0
M  V30 41849 O 4067.26 1.178 1.95795 0
M  V30 41850 C 4067.47 3.38592 -0.845962 0
M  V30 41851 C 4068.82 4.15724 -0.863659 0
M  V30 41852 O 4069.84 3.47314 -0.790658 0
M  V30 41853 O 4068.7 5.37881 -0.966752 0
M  V30 41854 H 4065.79 0.819494 -0.111171 0
M  V30 41855 H 4068.34 1.41121 -0.942501 0
M  V30 41856 H 4067.11 3.42676 -1.88915 0
M  V30 41857 H 4066.73 3.96739 -0.26157 0
M  V30 41858 N 4067.73 0.613565 1.45166 0
M  V30 41859 C 4068.96 0.117644 2.06565 0
M  V30 41860 C 4069.37 -1.20048 1.45718 0
M  V30 41861 O 4068.73 -1.73253 0.573542 0
M  V30 41862 C 4068.78 -0.0220839 3.61493 0
M  V30 41863 O 4068.5 1.2439 4.2007 0
M  V30 41864 C 4070 -0.548764 4.3989 0
M  V30 41865 H 4067.22 0.0715874 0.66717 0
M  V30 41866 H 4069.77 0.842993 1.86317 0
M  V30 41867 H 4067.92 -0.697787 3.81064 0
M  V30 41868 H 4068.34 1.07742 5.13315 0
M  V30 41869 H 4069.81 -0.5956 5.48777 0
M  V30 41870 H 4070.29 -1.57227 4.10093 0
M  V30 41871 H 4070.89 0.093095 4.25198 0
M  V30 41872 N 4069.21 -1.53594 0.353071 0
M  V30 41873 C 4070.46 -2.01365 -0.240869 0
M  V30 41874 C 4070.79 -1.24026 -1.49436 0
M  V30 41875 O 4070.06 -0.330485 -1.91672 0
M  V30 41876 C 4070.35 -3.55945 -0.545434 0
M  V30 41877 C 4070.2 -4.43987 0.72082 0
M  V30 41878 C 4071.52 -4.18846 -1.35116 0
M  V30 41879 H 4068.64 -0.731957 -0.0860709 0
M  V30 41880 H 4071.28 -1.83954 0.475491 0
M  V30 41881 H 4069.43 -3.70912 -1.15571 0
M  V30 41882 H 4071.1 -4.4084 1.35859 0
M  V30 41883 H 4069.34 -4.12463 1.34377 0
M  V30 41884 H 4070.02 -5.50056 0.462845 0
M  V30 41885 H 4072.49 -4.07635 -0.835032 0
M  V30 41886 H 4071.37 -5.27058 -1.53301 0
M  V30 41887 H 4071.63 -3.74089 -2.35606 0
M  V30 41888 N 4070.69 -0.0819208 -1.57387 0
M  V30 41889 C 4071.94 0.58371 -1.93487 0
M  V30 41890 C 4072.26 1.69534 -0.963496 0
M  V30 41891 O 4071.53 1.95895 -0.0133211 0
M  V30 41892 H 4070.11 0.218609 -0.714296 0
M  V30 41893 H 4072.77 -0.142158 -1.94381 0
M  V30 41894 H 4071.86 1.00247 -2.95562 0
M  V30 41895 N 4072.17 1.5643 0.191702 0
M  V30 41896 C 4073.41 1.8109 0.912916 0
M  V30 41897 C 4073.74 0.656515 1.82766 0
M  V30 41898 O 4073.02 -0.342745 1.91456 0
M  V30 41899 C 4073.3 3.16028 1.72622 0
M  V30 41900 C 4073.16 4.41963 0.835967 0
M  V30 41901 C 4074.47 3.47692 2.69812 0
M  V30 41902 H 4071.59 0.658766 0.330448 0
M  V30 41903 H 4074.24 1.89144 0.180115 0
M  V30 41904 H 4072.39 3.09293 2.35096 0
M  V30 41905 H 4074.06 4.60748 0.22567 0
M  V30 41906 H 4072.3 4.33565 0.142868 0
M  V30 41907 H 4072.97 5.32884 1.44009 0
M  V30 41908 H 4075.45 3.54749 2.17469 0
M  V30 41909 H 4074.32 4.43222 3.23798 0
M  V30 41910 H 4074.58 2.71358 3.49023 0
M  V30 41911 N 4073.64 -0.459538 1.50751 0
M  V30 41912 C 4074.87 -1.23374 1.66091 0
M  V30 41913 C 4075.29 -1.85547 0.348985 0
M  V30 41914 O 4074.64 -1.69745 -0.670293 0
M  V30 41915 C 4074.69 -2.33405 2.76051 0
M  V30 41916 O 4074.42 -1.7378 4.02159 0
M  V30 41917 C 4075.92 -3.24082 3.02466 0
M  V30 41918 H 4073.14 -0.372696 0.557978 0
M  V30 41919 H 4075.68 -0.547207 1.97043 0
M  V30 41920 H 4073.84 -2.97814 2.47762 0
M  V30 41921 H 4074.25 -2.46327 4.63059 0
M  V30 41922 H 4075.72 -3.97471 3.83041 0
M  V30 41923 H 4076.2 -3.83542 2.13991 0
M  V30 41924 H 4076.81 -2.65398 3.32331 0
M  V30 41925 N 4075.12 -1.40523 -0.713506 0
M  V30 41926 C 4076.07 -1.40954 -1.82758 0
M  V30 41927 C 4077.04 -0.266216 -1.63953 0
M  V30 41928 O 4078.22 -0.464591 -1.85057 0
M  V30 41929 C 4075.36 -1.27995 -3.20486 0
M  V30 41930 C 4074.48 -2.5205 -3.50849 0
M  V30 41931 C 4073.61 -2.31517 -4.78093 0
M  V30 41932 C 4072.65 -3.51138 -5.01367 0
M  V30 41933 N 4071.79 -3.29788 -6.19826 0
M  V30 41934 H 4076.63 -2.36178 -1.81725 0
M  V30 41935 H 4074.16 -1.17297 -0.887683 0
M  V30 41936 H 4076.12 -1.18487 -4.00021 0
M  V30 41937 H 4074.75 -0.363889 -3.20742 0
M  V30 41938 H 4073.8 -2.72078 -2.65853 0
M  V30 41939 H 4075.12 -3.41083 -3.63955 0
M  V30 41940 H 4074.27 -2.19375 -5.6565 0
M  V30 41941 H 4073.01 -1.39912 -4.672 0
M  V30 41942 H 4072.01 -3.63755 -4.12265 0
M  V30 41943 H 4073.24 -4.43673 -5.14131 0
M  V30 41944 H 4071.19 -2.40866 -6.1018 0
M  V30 41945 H 4071.1 -4.12387 -6.33619 0
M  V30 41946 H 4072.37 -3.21382 -7.10165 0
M  V30 41947 N 4076.6 0.94594 -1.26054 0
M  V30 41948 C 4077.55 2.04395 -1.07197 0
M  V30 41949 C 4078.52 1.66086 0.0215504 0
M  V30 41950 O 4079.7 1.90305 -0.137305 0
M  V30 41951 C 4076.84 3.37802 -0.705974 0
M  V30 41952 C 4075.95 3.89176 -1.87526 0
M  V30 41953 C 4075.09 5.10947 -1.45281 0
M  V30 41954 C 4074.13 5.54572 -2.59069 0
M  V30 41955 N 4073.27 6.67549 -2.17539 0
M  V30 41956 H 4078.11 2.19857 -2.01163 0
M  V30 41957 H 4075.64 1.07729 -1.00164 0
M  V30 41958 H 4077.6 4.14491 -0.474683 0
M  V30 41959 H 4076.23 3.222 0.196704 0
M  V30 41960 H 4075.28 3.08929 -2.21961 0
M  V30 41961 H 4076.59 4.17494 -2.72948 0
M  V30 41962 H 4075.75 5.95081 -1.18168 0
M  V30 41963 H 4074.49 4.84364 -0.569431 0
M  V30 41964 H 4073.49 4.68998 -2.86916 0
M  V30 41965 H 4074.72 5.83158 -3.47999 0
M  V30 41966 H 4072.66 6.42658 -1.31629 0
M  V30 41967 H 4072.58 6.95428 -2.96505 0
M  V30 41968 H 4073.85 7.55069 -1.93626 0
M  V30 41969 N 4078.08 1.07781 1.14983 0
M  V30 41970 C 4079.32 0.813036 1.87534 0
M  V30 41971 C 4079.68 -0.64919 1.80692 0
M  V30 41972 O 4080.88 -1.0292 2.48316 0
M  V30 41973 C 4079.15 1.31265 3.32422 0
M  V30 41974 S 4080.71 1.17922 4.22658 0
M  V30 41975 H 4077.53 0.294508 0.647137 0
M  V30 41976 H 4080.13 1.3778 1.38697 0
M  V30 41977 H 4078.84 2.37146 3.34948 0
M  V30 41978 H 4078.37 0.743286 3.86314 0
M  V30 41979 H 4080.38 0.119481 4.96056 0
M  V30 41980 N 4079.56 -1.31901 0.862549 0
M  V30 41981 C 4080.78 -2.01693 0.483195 0
M  V30 41982 C 4081.21 -1.64359 -0.91475 0
M  V30 41983 O 4080.56 -0.848337 -1.60228 0
M  V30 41984 C 4080.61 -3.54894 0.638973 0
M  V30 41985 O 4079.72 -4.11118 -0.32489 0
M  V30 41986 H 4079.06 -0.63529 0.193139 0
M  V30 41987 H 4081.59 -1.68268 1.16392 0
M  V30 41988 H 4081.6 -4.0455 0.529465 0
M  V30 41989 H 4080.27 -3.81408 1.65834 0
M  V30 41990 H 4078.85 -3.72508 -0.17096 0
M  V30 41991 N 4081.03 -0.621255 -1.44838 0
M  V30 41992 C 4081.94 0.0910154 -2.34423 0
M  V30 41993 C 4082.96 0.846094 -1.52044 0
M  V30 41994 O 4084.14 0.800593 -1.84804 0
M  V30 41995 C 4081.2 1.0669 -3.29876 0
M  V30 41996 C 4080.26 0.312279 -4.28163 0
M  V30 41997 C 4079.5 1.24167 -5.19055 0
M  V30 41998 O 4079.72 2.48005 -5.13663 0
M  V30 41999 O 4078.65 0.731337 -5.9744 0
M  V30 42000 H 4082.48 -0.645545 -2.9676 0
M  V30 42001 H 4080.06 -0.381471 -1.44448 0
M  V30 42002 H 4081.95 1.6286 -3.88657 0
M  V30 42003 H 4080.62 1.78425 -2.70086 0
M  V30 42004 H 4079.53 -0.292227 -3.72957 0
M  V30 42005 H 4080.86 -0.364849 -4.90846 0
M  V30 42006 N 4082.51 1.53405 -0.361211 0
M  V30 42007 C 4083.79 1.93498 0.286013 0
M  V30 42008 C 4084.17 1.29437 1.66761 0
M  V30 42009 O 4083.52 0.451825 2.23988 0
M  V30 42010 C 4083.73 3.47334 0.340602 0
M  V30 42011 C 4085.08 4.20578 0.583036 0
M  V30 42012 O 4086.1 3.53691 0.421992 0
M  V30 42013 O 4084.96 5.391 0.896288 0
M  V30 42014 H 4082.05 0.809218 0.170576 0
M  V30 42015 H 4084.6 1.64581 -0.413677 0
M  V30 42016 H 4083.37 3.86224 -0.628243 0
M  V30 42017 H 4082.99 3.82471 1.08636 0
M  V30 42018 N 4083.99 0.0902663 1.57341 0
M  V30 42019 C 4085.24 -0.569323 1.9527 0
M  V30 42020 C 4085.59 -1.66091 0.971157 0
M  V30 42021 O 4084.88 -1.916 -0.00363415 0
M  V30 42022 C 4085.08 -1.17398 3.37568 0
M  V30 42023 C 4084.91 -0.1425 4.49474 0
M  V30 42024 C 4083.68 0.279323 5.04527 0
M  V30 42025 C 4085.88 0.627457 5.10458 0
M  V30 42026 N 4083.86 1.29958 5.99987 0
M  V30 42027 C 4085.23 1.49968 6.01589 0
M  V30 42028 C 4087.28 0.681505 4.93214 0
M  V30 42029 C 4085.99 2.42118 6.77326 0
M  V30 42030 C 4088.01 1.59059 5.69609 0
M  V30 42031 C 4087.37 2.45045 6.60403 0
M  V30 42032 H 4083.47 -0.178806 0.761283 0
M  V30 42033 H 4086.06 0.17171 1.93941 0
M  V30 42034 H 4084.23 -1.88486 3.39599 0
M  V30 42035 H 4085.96 -1.79554 3.62688 0
M  V30 42036 H 4082.72 -0.107465 4.73478 0
M  V30 42037 H 4083.14 1.80777 6.52417 0
M  V30 42038 H 4087.78 0.0308934 4.22789 0
M  V30 42039 H 4085.5 3.08207 7.47017 0
M  V30 42040 H 4089.09 1.63749 5.58281 0
M  V30 42041 H 4087.97 3.14248 7.18483 0
M  V30 42042 N 4085.47 -1.56529 -0.183403 0
M  V30 42043 C 4086.42 -1.95468 -1.22722 0
M  V30 42044 C 4087.39 -0.816885 -1.44624 0
M  V30 42045 O 4088.57 -1.07601 -1.57565 0
M  V30 42046 C 4085.71 -2.30948 -2.56431 0
M  V30 42047 C 4084.82 -3.57848 -2.4201 0
M  V30 42048 C 4083.96 -3.82596 -3.68502 0
M  V30 42049 C 4083 -5.02883 -3.48963 0
M  V30 42050 N 4082.13 -5.23825 -4.67495 0
M  V30 42051 H 4086.97 -2.84457 -0.888154 0
M  V30 42052 H 4084.51 -1.40761 -0.427167 0
M  V30 42053 H 4086.47 -2.49538 -3.34345 0
M  V30 42054 H 4085.1 -1.45085 -2.88358 0
M  V30 42055 H 4084.15 -3.4724 -1.55333 0
M  V30 42056 H 4085.46 -4.45919 -2.23511 0
M  V30 42057 H 4084.62 -4.01488 -4.54854 0
M  V30 42058 H 4083.36 -2.92877 -3.89967 0
M  V30 42059 H 4082.36 -4.83902 -2.60997 0
M  V30 42060 H 4083.59 -5.94122 -3.28932 0
M  V30 42061 H 4081.53 -4.37056 -4.89202 0
M  V30 42062 H 4081.45 -6.06097 -4.51866 0
M  V30 42063 H 4082.72 -5.47186 -5.55165 0
M  V30 42064 N 4086.95 0.451537 -1.50993 0
M  V30 42065 C 4087.88 1.55467 -1.74219 0
M  V30 42066 C 4088.86 1.59481 -0.591596 0
M  V30 42067 O 4090.04 1.75436 -0.832821 0
M  V30 42068 C 4087.17 2.93657 -1.85426 0
M  V30 42069 C 4086.13 3.04507 -3.00765 0
M  V30 42070 C 4085.45 4.44537 -2.97138 0
M  V30 42071 C 4086.75 2.79904 -4.40966 0
M  V30 42072 H 4088.45 1.36283 -2.66585 0
M  V30 42073 H 4085.99 0.654184 -1.28283 0
M  V30 42074 H 4087.95 3.70776 -2.00258 0
M  V30 42075 H 4086.67 3.14041 -0.896976 0
M  V30 42076 H 4085.33 2.29825 -2.85615 0
M  V30 42077 H 4084.98 4.61868 -1.99215 0
M  V30 42078 H 4084.68 4.52729 -3.7458 0
M  V30 42079 H 4086.2 5.23649 -3.14045 0
M  V30 42080 H 4087.61 3.46762 -4.5654 0
M  V30 42081 H 4086.01 2.99521 -5.20007 0
M  V30 42082 H 4087.08 1.7561 -4.51984 0
M  V30 42083 N 4088.42 1.409 0.706044 0
M  V30 42084 C 4089.67 1.399 1.46819 0
M  V30 42085 C 4090 0.00441269 1.94199 0
M  V30 42086 O 4089.28 -0.965972 1.68817 0
M  V30 42087 C 4089.56 2.39676 2.68752 0
M  V30 42088 C 4089.41 3.88199 2.27204 0
M  V30 42089 C 4090.73 2.36852 3.7093 0
M  V30 42090 H 4087.85 0.50948 0.53254 0
M  V30 42091 H 4090.49 1.72103 0.805026 0
M  V30 42092 H 4088.64 2.12346 3.25333 0
M  V30 42093 H 4090.32 4.26393 1.76031 0
M  V30 42094 H 4088.56 4.03571 1.59101 0
M  V30 42095 H 4089.23 4.53542 3.14648 0
M  V30 42096 H 4091.71 2.61081 3.24 0
M  V30 42097 H 4090.58 3.08695 4.5387 0
M  V30 42098 H 4090.84 1.38345 4.19897 0
M  V30 42099 N 4089.9 -0.939242 1.26554 0
M  V30 42100 C 4091.32 -1.21312 1.03709 0
M  V30 42101 C 4091.52 -2.00107 -0.236561 0
M  V30 42102 O 4090.57 -2.34142 -0.945177 0
M  V30 42103 C 4091.89 -1.9725 2.26964 0
M  V30 42104 C 4093.44 -2.10234 2.31885 0
M  V30 42105 C 4093.91 -2.89575 3.54838 0
M  V30 42106 N 4095.4 -2.97148 3.55327 0
M  V30 42107 C 4096.14 -3.58973 4.47131 0
M  V30 42108 N 4095.63 -4.22282 5.49226 0
M  V30 42109 N 4097.43 -3.56264 4.34779 0
M  V30 42110 H 4089.58 -0.412535 2.08355 0
M  V30 42111 H 4091.84 -0.245057 0.915779 0
M  V30 42112 H 4091.55 -1.46763 3.19615 0
M  V30 42113 H 4091.42 -2.97909 2.31366 0
M  V30 42114 H 4093.81 -2.59913 1.39748 0
M  V30 42115 H 4093.89 -1.08832 2.31493 0
M  V30 42116 H 4093.53 -2.40583 4.47305 0
M  V30 42117 H 4093.46 -3.91238 3.52478 0
M  V30 42118 H 4095.95 -2.52142 2.81483 0
M  V30 42119 H 4096.27 -4.67361 6.15462 0
M  V30 42120 H 4094.61 -4.20863 5.53081 0
M  V30 42121 H 4097.8 -3.05998 3.54235 0
M  V30 42122 H 4097.97 -4.04158 5.06518 0
M  V30 42123 N 4091.38 -1.08389 -1.14409 0
M  V30 42124 C 4092.61 -0.835048 -1.89847 0
M  V30 42125 C 4093.03 0.60706 -1.78035 0
M  V30 42126 O 4092.39 1.42536 -1.12041 0
M  V30 42127 C 4092.44 -1.26147 -3.37815 0
M  V30 42128 O 4091.54 -0.413292 -4.10324 0
M  V30 42129 H 4090.88 -0.303309 -0.590677 0
M  V30 42130 H 4093.41 -1.44527 -1.44821 0
M  V30 42131 H 4093.42 -1.24225 -3.88629 0
M  V30 42132 H 4092.1 -2.31178 -3.4573 0
M  V30 42133 H 4090.67 -0.495919 -3.69588 0
M  V30 42134 N 4092.86 1.31442 -0.869532 0
M  V30 42135 C 4093.82 2.26813 -0.329909 0
M  V30 42136 C 4094.82 1.52199 0.518868 0
M  V30 42137 O 4096.01 1.7108 0.328237 0
M  V30 42138 C 4093.14 3.36731 0.531531 0
M  V30 42139 H 4094.34 2.76058 -1.17185 0
M  V30 42140 H 4091.89 1.42367 -0.645086 0
M  V30 42141 H 4092.62 2.92778 1.39468 0
M  V30 42142 H 4092.41 3.92026 -0.0762242 0
M  V30 42143 H 4093.9 4.07756 0.901375 0
M  V30 42144 N 4094.34 0.628927 1.44507 0
M  V30 42145 C 4095.56 0.137814 2.06942 0
M  V30 42146 C 4095.99 -1.17764 1.46674 0
M  V30 42147 O 4095.34 -1.72193 0.567372 0
M  V30 42148 C 4095.39 0.0342476 3.60584 0
M  V30 42149 O 4094.5 -1.01031 3.99833 0
M  V30 42150 H 4093.84 0.0837705 0.658695 0
M  V30 42151 H 4096.37 0.864983 1.85416 0
M  V30 42152 H 4096.38 -0.157051 4.07698 0
M  V30 42153 H 4095.05 0.994654 4.03831 0
M  V30 42154 H 4093.63 -0.79376 3.64354 0
M  V30 42155 N 4095.82 -1.53211 0.369342 0
M  V30 42156 C 4097.06 -2.0131 -0.219173 0
M  V30 42157 C 4097.39 -1.2565 -1.48467 0
M  V30 42158 O 4096.65 -0.339477 -1.92733 0
M  V30 42159 C 4096.94 -3.53091 -0.55333 0
M  V30 42160 C 4096.61 -4.46641 0.618276 0
M  V30 42161 C 4095.27 -4.71935 0.939739 0
M  V30 42162 C 4097.62 -5.01961 1.40303 0
M  V30 42163 C 4094.95 -5.498 2.04786 0
M  V30 42164 C 4097.3 -5.81036 2.50159 0
M  V30 42165 C 4095.97 -6.04615 2.82836 0
M  V30 42166 H 4095.24 -0.736647 -0.0802012 0
M  V30 42167 H 4097.89 -1.84787 0.50258 0
M  V30 42168 H 4096.19 -3.67581 -1.35615 0
M  V30 42169 H 4097.89 -3.87784 -1.02099 0
M  V30 42170 H 4094.48 -4.27105 0.357695 0
M  V30 42171 H 4098.66 -4.82362 1.16792 0
M  V30 42172 H 4093.92 -5.66287 2.30497 0
M  V30 42173 H 4098.09 -6.22908 3.11381 0
M  V30 42174 H 4095.72 -6.64735 3.68824 0
M  V30 42175 N 4097.29 -0.0986092 -1.57291 0
M  V30 42176 C 4098.52 0.575931 -1.99243 0
M  V30 42177 C 4098.94 1.60712 -0.977406 0
M  V30 42178 O 4098.3 1.81221 0.0536451 0
M  V30 42179 C 4098.35 1.19708 -3.40151 0
M  V30 42180 O 4097.45 2.31287 -3.41438 0
M  V30 42181 H 4096.79 0.145805 -0.647794 0
M  V30 42182 H 4099.32 -0.181059 -2.03797 0
M  V30 42183 H 4099.33 1.53754 -3.7792 0
M  V30 42184 H 4098.01 0.441641 -4.13548 0
M  V30 42185 H 4096.59 1.98834 -3.15467 0
M  V30 42186 N 4098.77 1.56624 0.175099 0
M  V30 42187 C 4100.19 1.50658 0.526725 0
M  V30 42188 C 4100.39 0.802205 1.84843 0
M  V30 42189 O 4099.44 0.361002 2.49906 0
M  V30 42190 C 4100.76 2.95383 0.562977 0
M  V30 42191 C 4102.3 3.06167 0.650439 0
M  V30 42192 C 4102.78 4.52343 0.717618 0
M  V30 42193 N 4104.27 4.56575 0.78061 0
M  V30 42194 C 4105.01 5.67018 0.853099 0
M  V30 42195 N 4104.5 6.87103 0.886656 0
M  V30 42196 N 4106.29 5.5498 0.891829 0
M  V30 42197 H 4098.45 2.00824 -0.691615 0
M  V30 42198 H 4100.71 0.914742 -0.2489 0
M  V30 42199 H 4100.41 3.50058 -0.339447 0
M  V30 42200 H 4100.29 3.49824 1.41078 0
M  V30 42201 H 4102.68 2.51529 1.54329 0
M  V30 42202 H 4102.76 2.54818 -0.223964 0
M  V30 42203 H 4102.4 5.07612 -0.17096 0
M  V30 42204 H 4102.33 5.01445 1.60811 0
M  V30 42205 H 4104.82 3.70115 0.763113 0
M  V30 42206 H 4105.13 7.67025 0.943037 0
M  V30 42207 H 4103.48 6.89721 0.854996 0
M  V30 42208 H 4106.67 4.60084 0.862588 0
M  V30 42209 H 4106.84 6.41074 0.94486 0
M  V30 42210 N 4100.25 -0.443523 1.5123 0
M  V30 42211 C 4101.5 -1.19111 1.63269 0
M  V30 42212 C 4101.82 -1.91866 0.348185 0
M  V30 42213 O 4101.09 -1.85299 -0.635691 0
M  V30 42214 H 4099.67 -0.442669 0.601709 0
M  V30 42215 H 4102.33 -0.509101 1.88133 0
M  V30 42216 H 4101.43 -1.92407 2.45736 0
M  V30 42217 N 4101.73 -1.41272 -0.698562 0
M  V30 42218 C 4102.98 -1.40191 -1.45571 0
M  V30 42219 C 4103.3 -0.0108722 -1.94997 0
M  V30 42220 O 4102.57 0.946792 -1.71501 0
M  V30 42221 H 4101.15 -0.516017 -0.540125 0
M  V30 42222 H 4103.81 -1.76484 -0.827017 0
M  V30 42223 H 4102.9 -2.08728 -2.32032 0
M  V30 42224 N 4103.21 0.932517 -1.27051 0
M  V30 42225 C 4104.14 2.03655 -1.05154 0
M  V30 42226 C 4105.15 1.62797 -0.00916858 0
M  V30 42227 O 4106.34 1.76738 -0.250201 0
M  V30 42228 C 4103.44 3.34036 -0.572129 0
M  V30 42229 C 4102.61 4.03612 -1.6857 0
M  V30 42230 C 4101.67 5.12267 -1.20285 0
M  V30 42231 O 4100.7 5.36496 -1.9016 0
M  V30 42232 N 4101.9 5.80473 -0.0559119 0
M  V30 42233 H 4104.66 2.23002 -2.00225 0
M  V30 42234 H 4102.23 1.10258 -1.18553 0
M  V30 42235 H 4104.22 4.04028 -0.233107 0
M  V30 42236 H 4102.79 3.11296 0.28522 0
M  V30 42237 H 4102.01 3.27418 -2.19524 0
M  V30 42238 H 4103.3 4.46847 -2.43321 0
M  V30 42239 H 4102.69 5.63236 0.527417 0
M  V30 42240 H 4101.25 6.51415 0.223968 0
M  V30 42241 N 4104.68 1.08995 1.13833 0
M  V30 42242 C 4105.61 0.747109 2.21225 0
M  V30 42243 C 4106.59 -0.273203 1.67892 0
M  V30 42244 O 4107.78 -0.142244 1.93678 0
M  V30 42245 C 4104.91 0.162089 3.46922 0
M  V30 42246 C 4103.86 1.11142 4.13318 0
M  V30 42247 C 4103.19 0.388321 5.33288 0
M  V30 42248 C 4104.49 2.45203 4.61165 0
M  V30 42249 H 4106.18 1.64501 2.5016 0
M  V30 42250 H 4103.73 0.79239 1.20238 0
M  V30 42251 H 4105.68 -0.0898013 4.21304 0
M  V30 42252 H 4104.41 -0.77098 3.1737 0
M  V30 42253 H 4103.07 1.34851 3.40897 0
M  V30 42254 H 4102.71 -0.548744 4.99998 0
M  V30 42255 H 4102.41 1.02125 5.78657 0
M  V30 42256 H 4103.94 0.144626 6.10429 0
M  V30 42257 H 4105.35 2.25727 5.26992 0
M  V30 42258 H 4103.75 3.04244 5.17258 0
M  V30 42259 H 4104.82 3.0629 3.75918 0
M  V30 42260 N 4106.16 -1.30979 0.87649 0
M  V30 42261 C 4107.39 -2.01169 0.50456 0
M  V30 42262 C 4107.81 -1.6532 -0.897266 0
M  V30 42263 O 4107.17 -0.865283 -1.59319 0
M  V30 42264 C 4107.22 -3.54196 0.676579 0
M  V30 42265 O 4106.32 -4.1144 -0.281267 0
M  V30 42266 H 4105.66 -0.633206 0.199866 0
M  V30 42267 H 4108.19 -1.67024 1.1817 0
M  V30 42268 H 4108.2 -4.03966 0.572344 0
M  V30 42269 H 4106.88 -3.79627 1.6987 0
M  V30 42270 H 4105.45 -3.72668 -0.131441 0
M  V30 42271 N 4107.64 -0.636582 -1.44171 0
M  V30 42272 C 4108.89 -0.143252 -2.01993 0
M  V30 42273 C 4109.21 1.23686 -1.50106 0
M  V30 42274 O 4108.47 1.83593 -0.677659 0
M  V30 42275 C 4108.77 -0.0850561 -3.57299 0
M  V30 42276 C 4108.43 -1.40468 -4.28462 0
M  V30 42277 C 4107.1 -1.76609 -4.47619 0
M  V30 42278 C 4109.45 -2.27549 -4.68904 0
M  V30 42279 C 4106.78 -2.99528 -5.0448 0
M  V30 42280 C 4109.13 -3.49744 -5.27126 0
M  V30 42281 C 4107.79 -3.86101 -5.44502 0
M  V30 42282 H 4107.06 -0.0524196 -0.739144 0
M  V30 42283 H 4109.71 -0.823983 -1.72866 0
M  V30 42284 H 4108.01 0.679066 -3.8587 0
M  V30 42285 H 4109.71 0.313259 -3.99775 0
M  V30 42286 H 4106.3 -1.11344 -4.13885 0
M  V30 42287 H 4110.49 -2.00921 -4.53811 0
M  V30 42288 H 4105.74 -3.27767 -5.16119 0
M  V30 42289 H 4109.92 -4.1745 -5.57412 0
M  V30 42290 H 4107.54 -4.81429 -5.88328 0
M  V30 42291 N 4109.12 1.53013 -0.377462 0
M  V30 42292 C 4110.35 2.05843 0.208908 0
M  V30 42293 C 4110.76 1.2501 1.41485 0
M  V30 42294 O 4110.12 0.293734 1.80121 0
M  V30 42295 C 4110.17 3.56641 0.590715 0
M  V30 42296 O 4109.89 4.34411 -0.567307 0
M  V30 42297 C 4111.39 4.25772 1.23421 0
M  V30 42298 H 4108.61 0.670123 0.0343019 0
M  V30 42299 H 4111.15 1.97262 -0.539269 0
M  V30 42300 H 4109.31 3.65334 1.2888 0
M  V30 42301 H 4109.72 5.23874 -0.256154 0
M  V30 42302 H 4111.2 5.32565 1.45183 0
M  V30 42303 H 4111.67 3.80239 2.19807 0
M  V30 42304 H 4112.28 4.21365 0.577229 0
M  V30 42305 N 4110.6 0.106949 1.57237 0
M  V30 42306 C 4111.87 -0.596856 1.86271 0
M  V30 42307 C 4112.25 -1.8559 1.00597 0
M  V30 42308 O 4111.6 -2.28354 0.0815795 0
M  V30 42309 C 4111.81 -0.900875 3.37172 0
M  V30 42310 C 4113.16 -1.25919 4.05499 0
M  V30 42311 O 4114.18 -0.991519 3.42122 0
M  V30 42312 O 4113.04 -1.761 5.1735 0
M  V30 42313 H 4110.14 -0.299894 0.770709 0
M  V30 42314 H 4112.68 0.140543 1.69117 0
M  V30 42315 H 4111.45 -0.00816459 3.91299 0
M  V30 42316 H 4111.08 -1.69385 3.59715 0
M  V30 42317 N 4112.07 -1.56715 -0.166791 0
M  V30 42318 C 4113 -1.9979 -1.20857 0
M  V30 42319 C 4113.99 -0.874204 -1.45917 0
M  V30 42320 O 4115.17 -1.14061 -1.57174 0
M  V30 42321 C 4112.3 -2.36165 -2.54644 0
M  V30 42322 C 4111.25 -3.51536 -2.44144 0
M  V30 42323 C 4110.58 -3.73667 -3.82462 0
M  V30 42324 C 4111.88 -4.84842 -1.94231 0
M  V30 42325 H 4113.57 -2.87066 -0.850488 0
M  V30 42326 H 4111.12 -1.38109 -0.407671 0
M  V30 42327 H 4113.07 -2.64897 -3.27731 0
M  V30 42328 H 4111.8 -1.45802 -2.92249 0
M  V30 42329 H 4110.46 -3.22939 -1.73511 0
M  V30 42330 H 4110.1 -2.80587 -4.17468 0
M  V30 42331 H 4109.8 -4.51297 -3.76304 0
M  V30 42332 H 4111.33 -4.04804 -4.57128 0
M  V30 42333 H 4112.74 -5.1242 -2.57096 0
M  V30 42334 H 4111.14 -5.6614 -1.99011 0
M  V30 42335 H 4112.21 -4.76534 -0.896866 0
M  V30 42336 N 4113.55 0.435497 -1.51463 0
M  V30 42337 C 4114.8 1.18244 -1.63899 0
M  V30 42338 C 4115.12 1.91679 -0.358355 0
M  V30 42339 O 4114.39 1.85634 0.625856 0
M  V30 42340 H 4112.97 0.439472 -0.604048 0
M  V30 42341 H 4115.63 0.499117 -1.88401 0
M  V30 42342 H 4114.73 1.91101 -2.46753 0
M  V30 42343 N 4115.03 1.41641 0.69106 0
M  V30 42344 C 4115.96 1.4662 1.81728 0
M  V30 42345 C 4116.94 0.324387 1.66978 0
M  V30 42346 O 4118.13 0.536456 1.86643 0
M  V30 42347 C 4115.26 1.35206 3.19901 0
M  V30 42348 C 4114.21 2.47245 3.49362 0
M  V30 42349 C 4113.54 2.20896 4.86938 0
M  V30 42350 C 4114.84 3.89581 3.47885 0
M  V30 42351 H 4116.53 2.40875 1.77818 0
M  V30 42352 H 4114.08 1.15937 0.85408 0
M  V30 42353 H 4116.03 1.373 3.98405 0
M  V30 42354 H 4114.75 0.374369 3.24447 0
M  V30 42355 H 4113.41 2.44441 2.73211 0
M  V30 42356 H 4113.06 1.21459 4.88116 0
M  V30 42357 H 4112.76 2.95975 5.07614 0
M  V30 42358 H 4114.28 2.24713 5.67747 0
M  V30 42359 H 4115.7 3.94076 4.16385 0
M  V30 42360 H 4114.1 4.6438 3.80093 0
M  V30 42361 H 4115.17 4.17412 2.4677 0
M  V30 42362 N 4116.51 -0.925766 1.27543 0
M  V30 42363 C 4117.92 -1.48862 1.12681 0
M  V30 42364 C 4118.27 -1.94082 -0.287502 0
M  V30 42365 O 4117.4 -1.81358 -1.18061 0
M  V30 42366 C 4117.99 -2.70544 2.03939 0
M  V30 42367 C 4116.55 -3.23047 1.93177 0
M  V30 42368 C 4115.7 -1.95779 1.96382 0
M  V30 42369 H 4118.65 -0.739678 1.40408 0
M  V30 42370 H 4118.67 -3.45394 1.59634 0
M  V30 42371 H 4118.18 -2.37601 3.06867 0
M  V30 42372 H 4116.28 -3.60745 0.932419 0
M  V30 42373 H 4116.39 -3.8911 2.79517 0
M  V30 42374 H 4114.76 -2.12356 1.40631 0
M  V30 42375 H 4115.54 -1.65147 3.00967 0
M  V30 42376 N 4117.99 -1.09597 -1.13253 0
M  V30 42377 C 4119.4 -0.852176 -1.66117 0
M  V30 42378 C 4119.75 0.619058 -1.86178 0
M  V30 42379 O 4118.87 1.47666 -1.58189 0
M  V30 42380 C 4119.47 -1.54039 -3.01757 0
M  V30 42381 C 4118.03 -1.34353 -3.51605 0
M  V30 42382 C 4117.17 -1.59535 -2.26812 0
M  V30 42383 H 4120.13 -1.25488 -0.971517 0
M  V30 42384 H 4120.15 -0.974482 -3.6781 0
M  V30 42385 H 4119.66 -2.61115 -2.87125 0
M  V30 42386 H 4117.76 -0.294016 -3.71438 0
M  V30 42387 H 4117.87 -2.07957 -4.31614 0
M  V30 42388 H 4116.24 -1.01757 -2.3349 0
M  V30 42389 H 4117.02 -2.67844 -2.14743 0
M  V30 42390 N 4119.46 1.30512 -0.883424 0
M  V30 42391 C 4120.69 2.00363 -0.515983 0
M  V30 42392 C 4121.11 1.66232 0.895119 0
M  V30 42393 O 4120.46 0.898628 1.58842 0
M  V30 42394 C 4120.52 3.55059 -0.679344 0
M  V30 42395 O 4120.24 3.87974 -2.03489 0
M  V30 42396 C 4121.74 4.42182 -0.31469 0
M  V30 42397 H 4118.96 0.640623 -0.199606 0
M  V30 42398 H 4121.5 1.66432 -1.1883 0
M  V30 42399 H 4119.66 3.87362 -0.0544192 0
M  V30 42400 H 4120.07 4.82677 -2.05239 0
M  V30 42401 H 4121.54 5.4991 -0.479897 0
M  V30 42402 H 4122.02 4.32798 0.747171 0
M  V30 42403 H 4122.63 4.15321 -0.915873 0
M  V30 42404 N 4120.94 0.644219 1.43832 0
M  V30 42405 C 4122.22 0.0842855 1.95418 0
M  V30 42406 C 4122.6 -1.39338 1.58581 0
M  V30 42407 O 4121.95 -2.11437 0.866406 0
M  V30 42408 C 4122.16 0.320989 3.47521 0
M  V30 42409 C 4123.51 0.221134 4.24024 0
M  V30 42410 O 4124.53 0.253059 3.553 0
M  V30 42411 O 4123.39 0.137179 5.46328 0
M  V30 42412 H 4120.48 -0.0147991 0.826868 0
M  V30 42413 H 4123.03 0.716832 1.53817 0
M  V30 42414 H 4121.8 1.34582 3.67428 0
M  V30 42415 H 4121.42 -0.345064 3.961 0
M  V30 42416 N 4122.42 -1.52811 0.385571 0
M  V30 42417 C 4123.37 -2.2314 -0.468239 0
M  V30 42418 C 4124.35 -1.2339 -1.03265 0
M  V30 42419 O 4125.55 -1.48745 -0.959376 0
M  V30 42420 C 4122.68 -3.03894 -1.59697 0
M  V30 42421 C 4121.76 -4.11037 -1.04447 0
M  V30 42422 N 4122.15 -5.05336 -0.216616 0
M  V30 42423 C 4120.45 -4.26101 -1.31734 0
M  V30 42424 C 4121.15 -5.81633 0.0881847 0
M  V30 42425 N 4120.13 -5.41157 -0.514776 0
M  V30 42426 H 4123.93 -2.93403 0.170837 0
M  V30 42427 H 4121.44 -1.61229 0.194671 0
M  V30 42428 H 4123.44 -3.52813 -2.22101 0
M  V30 42429 H 4122.1 -2.35166 -2.2389 0
M  V30 42430 H 4123.11 -5.17695 0.145823 0
M  V30 42431 H 4119.79 -3.68602 -1.96059 0
M  V30 42432 H 4121.18 -6.67603 0.758703 0
M  V30 42433 N 4123.9 -0.115287 -1.57178 0
M  V30 42434 C 4124.83 0.833004 -2.18136 0
M  V30 42435 C 4125.81 1.27993 -1.12035 0
M  V30 42436 O 4126.99 1.3432 -1.40256 0
M  V30 42437 C 4124.12 2.08458 -2.77781 0
M  V30 42438 C 4123.08 1.77558 -3.89432 0
M  V30 42439 C 4122.4 3.09714 -4.35868 0
M  V30 42440 C 4123.7 1.04678 -5.11703 0
M  V30 42441 H 4125.4 0.325055 -2.9763 0
M  V30 42442 H 4122.94 0.154908 -1.43164 0
M  V30 42443 H 4124.9 2.75252 -3.19083 0
M  V30 42444 H 4123.62 2.61571 -1.95571 0
M  V30 42445 H 4122.28 1.13155 -3.487 0
M  V30 42446 H 4121.93 3.60754 -3.50522 0
M  V30 42447 H 4121.63 2.89814 -5.11157 0
M  V30 42448 H 4123.15 3.77633 -4.79819 0
M  V30 42449 H 4124.57 1.61618 -5.50048 0
M  V30 42450 H 4122.96 0.948859 -5.92551 0
M  V30 42451 H 4124.03 0.0328918 -4.84889 0
M  V30 42452 N 4125.38 1.56801 0.158477 0
M  V30 42453 C 4126.31 1.9398 1.22083 0
M  V30 42454 C 4127.32 0.834316 1.39796 0
M  V30 42455 O 4128.51 1.11275 1.39571 0
M  V30 42456 C 4125.61 2.18861 2.58753 0
M  V30 42457 C 4124.78 3.50123 2.62169 0
M  V30 42458 C 4123.84 3.63679 3.80294 0
M  V30 42459 O 4122.87 4.36181 3.65698 0
M  V30 42460 N 4124.07 2.99486 4.97281 0
M  V30 42461 H 4126.84 2.85712 0.904914 0
M  V30 42462 H 4124.4 1.58113 0.348141 0
M  V30 42463 H 4126.39 2.25183 3.36266 0
M  V30 42464 H 4124.96 1.33451 2.82683 0
M  V30 42465 H 4124.18 3.55345 1.70656 0
M  V30 42466 H 4125.47 4.36474 2.61473 0
M  V30 42467 H 4124.87 2.40478 5.12042 0
M  V30 42468 H 4123.42 3.11385 5.72611 0
M  V30 42469 N 4126.86 -0.427458 1.51692 0
M  V30 42470 C 4127.82 -1.5021 1.73117 0
M  V30 42471 C 4128.82 -1.49142 0.601105 0
M  V30 42472 O 4130.01 -1.5099 0.868777 0
M  V30 42473 C 4127.14 -2.89708 1.79671 0
M  V30 42474 H 4128.33 -1.32514 2.69036 0
M  V30 42475 H 4125.89 -0.65678 1.41831 0
M  V30 42476 H 4126.62 -3.12798 0.856023 0
M  V30 42477 H 4126.41 -2.91888 2.61808 0
M  V30 42478 H 4127.9 -3.67648 1.98052 0
M  V30 42479 N 4128.33 -1.42005 -0.683539 0
M  V30 42480 C 4129.56 -1.45592 -1.47708 0
M  V30 42481 C 4129.98 -0.0661638 -1.87984 0
M  V30 42482 O 4129.34 0.9334 -1.55426 0
M  V30 42483 C 4129.39 -2.38094 -2.7082 0
M  V30 42484 O 4128.49 -1.84628 -3.68763 0
M  V30 42485 H 4127.83 -0.493637 -0.444093 0
M  V30 42486 H 4130.36 -1.86599 -0.839159 0
M  V30 42487 H 4130.37 -2.54379 -3.18991 0
M  V30 42488 H 4129.05 -3.39068 -2.40844 0
M  V30 42489 H 4127.63 -1.77855 -3.27753 0
M  V30 42490 N 4129.81 0.918989 -1.28033 0
M  V30 42491 C 4131.06 1.66759 -1.14881 0
M  V30 42492 C 4131.39 1.92115 0.303654 0
M  V30 42493 O 4130.64 1.51583 1.23778 0
M  V30 42494 C 4130.94 3.03521 -1.88706 0
M  V30 42495 C 4130.61 2.97844 -3.38526 0
M  V30 42496 C 4129.27 2.96003 -3.79388 0
M  V30 42497 C 4131.62 2.88483 -4.34082 0
M  V30 42498 C 4128.95 2.82595 -5.14157 0
M  V30 42499 C 4131.3 2.76615 -5.68917 0
M  V30 42500 C 4129.96 2.73129 -6.09062 0
M  V30 42501 H 4129.23 0.610216 -0.420378 0
M  V30 42502 H 4131.88 1.07109 -1.58745 0
M  V30 42503 H 4130.19 3.66927 -1.37375 0
M  V30 42504 H 4131.88 3.60337 -1.7595 0
M  V30 42505 H 4128.47 3.00069 -3.06033 0
M  V30 42506 H 4132.66 2.88997 -4.03478 0
M  V30 42507 H 4127.91 2.78288 -5.44395 0
M  V30 42508 H 4132.09 2.68339 -6.42625 0
M  V30 42509 H 4129.71 2.62497 -7.13442 0
M  V30 42510 N 4131.29 1.10196 1.12671 0
M  V30 42511 C 4132.54 0.8412 1.83761 0
M  V30 42512 C 4132.86 -0.635029 1.8437 0
M  V30 42513 O 4132.13 -1.46098 1.30507 0
M  V30 42514 H 4130.71 0.308204 0.680455 0
M  V30 42515 H 4133.37 1.39172 1.36444 0
M  V30 42516 H 4132.47 1.20184 2.88032 0
M  V30 42517 N 4132.77 -1.30042 0.890333 0
M  V30 42518 C 4134.01 -1.95934 0.511485 0
M  V30 42519 C 4134.34 -1.70254 -0.940408 0
M  V30 42520 O 4133.6 -1.00305 -1.6804 0
M  V30 42521 C 4133.9 -3.49671 0.739271 0
M  V30 42522 C 4133.56 -3.9541 2.16707 0
M  V30 42523 C 4132.22 -4.07609 2.5575 0
M  V30 42524 C 4134.58 -4.19185 3.09731 0
M  V30 42525 C 4131.9 -4.40949 3.87016 0
M  V30 42526 C 4134.26 -4.53996 4.40535 0
M  V30 42527 C 4132.92 -4.64404 4.79463 0
M  V30 42528 H 4132.19 -0.716973 0.187166 0
M  V30 42529 H 4134.84 -1.5481 1.12721 0
M  V30 42530 H 4133.14 -3.91779 0.0405546 0
M  V30 42531 H 4134.84 -3.98734 0.425664 0
M  V30 42532 H 4131.43 -3.86424 1.85403 0
M  V30 42533 H 4135.61 -4.09235 2.80785 0
M  V30 42534 H 4130.87 -4.47208 4.16911 0
M  V30 42535 H 4135.04 -4.71343 5.12649 0
M  V30 42536 H 4132.67 -4.89993 5.81215 0
M  V30 42537 N 4134.25 -0.651838 -1.43488 0
M  V30 42538 C 4135.18 0.0792705 -2.29063 0
M  V30 42539 C 4136.19 0.788483 -1.42432 0
M  V30 42540 O 4137.38 0.64647 -1.66382 0
M  V30 42541 C 4134.48 1.13527 -3.19319 0
M  V30 42542 C 4133.65 0.504477 -4.34481 0
M  V30 42543 C 4132.71 1.45718 -5.05621 0
M  V30 42544 O 4131.74 0.96631 -5.60938 0
M  V30 42545 N 4132.94 2.79118 -5.08993 0
M  V30 42546 H 4135.7 -0.655226 -2.9245 0
M  V30 42547 H 4133.27 -0.494518 -1.54163 0
M  V30 42548 H 4135.26 1.77339 -3.63776 0
M  V30 42549 H 4133.83 1.77176 -2.57541 0
M  V30 42550 H 4133.05 -0.312695 -3.92958 0
M  V30 42551 H 4134.34 0.0640697 -5.0876 0
M  V30 42552 H 4133.73 3.21559 -4.6542 0
M  V30 42553 H 4132.29 3.38235 -5.57172 0
M  V30 42554 N 4135.72 1.52604 -0.39367 0
M  V30 42555 C 4136.95 2.06053 0.187064 0
M  V30 42556 C 4137.37 1.26503 1.40151 0
M  V30 42557 O 4136.72 0.312822 1.79799 0
M  V30 42558 C 4136.77 3.57247 0.552856 0
M  V30 42559 O 4136.5 4.33785 -0.61335 0
M  V30 42560 C 4138 4.27057 1.18898 0
M  V30 42561 H 4135.22 0.670449 0.0271924 0
M  V30 42562 H 4137.76 1.96679 -0.560161 0
M  V30 42563 H 4135.92 3.6668 1.24998 0
M  V30 42564 H 4136.33 5.23573 -0.311703 0
M  V30 42565 H 4137.8 5.34075 1.39526 0
M  V30 42566 H 4138.28 3.82549 2.15762 0
M  V30 42567 H 4138.89 4.21953 0.532505 0
M  V30 42568 N 4137.2 0.12362 1.57114 0
M  V30 42569 C 4138.45 -0.533258 1.95353 0
M  V30 42570 C 4138.78 -1.66391 1.00719 0
M  V30 42571 O 4138.03 -1.95674 0.0319296 0
M  V30 42572 C 4138.33 -1.10212 3.39983 0
M  V30 42573 C 4138 -0.0923378 4.50805 0
M  V30 42574 C 4136.66 0.185312 4.80843 0
M  V30 42575 C 4139.01 0.595574 5.17786 0
M  V30 42576 C 4136.34 1.15708 5.75177 0
M  V30 42577 C 4138.69 1.556 6.13165 0
M  V30 42578 C 4137.35 1.84159 6.41593 0
M  V30 42579 H 4136.62 -0.195133 0.714846 0
M  V30 42580 H 4139.27 0.205504 1.90394 0
M  V30 42581 H 4137.58 -1.91774 3.41658 0
M  V30 42582 H 4139.27 -1.61855 3.66884 0
M  V30 42583 H 4135.86 -0.318926 4.27412 0
M  V30 42584 H 4140.05 0.394242 4.94732 0
M  V30 42585 H 4135.3 1.38504 5.95505 0
M  V30 42586 H 4139.48 2.0947 6.6415 0
M  V30 42587 H 4137.1 2.59614 7.14496 0
M  V30 42588 N 4138.68 -1.56883 -0.15016 0
M  V30 42589 C 4139.61 -1.94625 -1.21053 0
M  V30 42590 C 4140.62 -0.841718 -1.39352 0
M  V30 42591 O 4141.81 -1.12014 -1.38979 0
M  V30 42592 C 4138.91 -2.2023 -2.57588 0
M  V30 42593 C 4138.09 -3.51508 -2.60309 0
M  V30 42594 C 4137.15 -3.65691 -3.7836 0
M  V30 42595 O 4136.17 -4.38114 -3.6338 0
M  V30 42596 N 4137.37 -3.02119 -4.95686 0
M  V30 42597 H 4140.14 -2.86188 -0.889749 0
M  V30 42598 H 4137.7 -1.58295 -0.339751 0
M  V30 42599 H 4139.69 -2.26963 -3.35067 0
M  V30 42600 H 4138.26 -1.34948 -2.81971 0
M  V30 42601 H 4137.48 -3.56245 -1.68769 0
M  V30 42602 H 4138.77 -4.37854 -2.59155 0
M  V30 42603 H 4138.17 -2.4319 -5.1076 0
M  V30 42604 H 4136.72 -3.14417 -5.70951 0
M  V30 42605 N 4140.16 0.419408 -1.51917 0
M  V30 42606 C 4141.57 0.998624 -1.57748 0
M  V30 42607 C 4141.92 1.91831 -0.41174 0
M  V30 42608 O 4141.05 2.11251 0.469231 0
M  V30 42609 C 4141.64 1.8179 -2.85898 0
M  V30 42610 C 4140.2 2.34731 -2.94242 0
M  V30 42611 C 4139.35 1.14429 -2.52589 0
M  V30 42612 H 4142.3 0.200012 -1.57435 0
M  V30 42613 H 4142.32 2.67427 -2.70672 0
M  V30 42614 H 4141.83 1.14828 -3.70724 0
M  V30 42615 H 4139.93 3.05096 -2.13887 0
M  V30 42616 H 4140.04 2.66301 -3.98272 0
M  V30 42617 H 4138.41 1.49513 -2.06199 0
M  V30 42618 H 4139.19 0.490496 -3.39778 0
M  V30 42619 N 4141.64 1.42366 0.675998 0
M  V30 42620 C 4142.86 1.46373 1.46934 0
M  V30 42621 C 4143.29 0.0761321 1.87946 0
M  V30 42622 O 4142.64 -0.925144 1.55919 0
M  V30 42623 C 4142.69 2.39527 2.69553 0
M  V30 42624 O 4141.8 1.86581 3.67779 0
M  V30 42625 H 4141.14 0.495985 0.441469 0
M  V30 42626 H 4143.67 1.87042 0.829251 0
M  V30 42627 H 4143.68 2.56067 3.17638 0
M  V30 42628 H 4142.35 3.4034 2.39043 0
M  V30 42629 H 4140.93 1.79591 3.26805 0
M  V30 42630 N 4143.11 -0.912187 1.28518 0
M  V30 42631 C 4144.36 -1.6582 1.15535 0
M  V30 42632 C 4144.68 -1.92738 -0.296143 0
M  V30 42633 O 4143.95 -1.54464 -1.2049 0
M  V30 42634 H 4142.53 -0.614604 0.424584 0
M  V30 42635 H 4145.2 -1.09446 1.61269 0
M  V30 42636 H 4144.29 -2.6199 1.69611 0
M  V30 42637 N 4144.59 -1.10792 -1.12085 0
M  V30 42638 C 4145.84 -0.847419 -1.83035 0
M  V30 42639 C 4146.15 0.629019 -1.8521 0
M  V30 42640 O 4147.36 1.00554 -2.52193 0
M  V30 42641 C 4145.82 -1.46621 -3.2868 0
M  V30 42642 C 4145.42 -2.9762 -3.34853 0
M  V30 42643 C 4147.17 -1.28526 -4.04575 0
M  V30 42644 C 4145.08 -3.52516 -4.74854 0
M  V30 42645 H 4144.01 -0.313359 -0.6858 0
M  V30 42646 H 4146.66 -1.33235 -1.26177 0
M  V30 42647 H 4145.04 -0.908951 -3.85427 0
M  V30 42648 H 4146.21 -3.59693 -2.88024 0
M  V30 42649 H 4144.53 -3.14912 -2.72432 0
M  V30 42650 H 4147.12 -1.66979 -5.07959 0
M  V30 42651 H 4147.47 -0.227178 -4.1568 0
M  V30 42652 H 4148 -1.81079 -3.54197 0
M  V30 42653 H 4144.74 -4.58007 -4.68946 0
M  V30 42654 H 4144.26 -2.95213 -5.2212 0
M  V30 42655 H 4145.94 -3.50556 -5.43801 0
M  V30 42656 N 4146.07 1.29568 -0.897217 0
M  V30 42657 C 4147 2.30226 -0.389641 0
M  V30 42658 C 4147.98 1.615 0.534021 0
M  V30 42659 O 4149.17 1.89026 0.445276 0
M  V30 42660 C 4146.3 3.45149 0.385905 0
M  V30 42661 C 4145.25 4.25658 -0.447103 0
M  V30 42662 C 4144.58 5.32754 0.45579 0
M  V30 42663 C 4145.88 4.94007 -1.69571 0
M  V30 42664 H 4147.57 2.72931 -1.23082 0
M  V30 42665 H 4145.12 1.3121 -0.593288 0
M  V30 42666 H 4147.07 4.14641 0.751718 0
M  V30 42667 H 4145.79 3.01281 1.26084 0
M  V30 42668 H 4144.45 3.57871 -0.795215 0
M  V30 42669 H 4144.1 4.85131 1.32879 0
M  V30 42670 H 4143.8 5.87519 -0.0978561 0
M  V30 42671 H 4145.32 6.05098 0.81785 0
M  V30 42672 H 4146.74 5.55949 -1.39977 0
M  V30 42673 H 4145.14 5.58693 -2.19049 0
M  V30 42674 H 4146.21 4.19436 -2.43313 0
M  V30 42675 N 4147.55 0.659438 1.4314 0
M  V30 42676 C 4148.48 -0.0146856 2.33495 0
M  V30 42677 C 4149.46 -0.805467 1.49821 0
M  V30 42678 O 4150.64 -0.765701 1.78468 0
M  V30 42679 C 4147.77 -0.977424 3.33262 0
M  V30 42680 C 4146.73 -0.296321 4.26973 0
M  V30 42681 C 4146.05 -1.37094 5.16826 0
M  V30 42682 C 4147.35 0.815154 5.159 0
M  V30 42683 H 4149.05 0.739888 2.90114 0
M  V30 42684 H 4146.59 0.357253 1.39498 0
M  V30 42685 H 4148.55 -1.45798 3.95374 0
M  V30 42686 H 4147.27 -1.76323 2.74914 0
M  V30 42687 H 4145.93 0.163855 3.66234 0
M  V30 42688 H 4145.58 -2.14834 4.54813 0
M  V30 42689 H 4145.28 -0.920426 5.80346 0
M  V30 42690 H 4146.8 -1.85274 5.81813 0
M  V30 42691 H 4148.22 0.416483 5.71785 0
M  V30 42692 H 4146.61 1.19051 5.88172 0
M  V30 42693 H 4147.68 1.6705 4.55217 0
M  V30 42694 N 4149.03 -1.52393 0.401757 0
M  V30 42695 C 4150.3 -1.94188 -0.23461 0
M  V30 42696 C 4150.68 -1.33813 -1.63271 0
M  V30 42697 O 4150.03 -0.511053 -2.22712 0
M  V30 42698 C 4150.24 -3.48115 -0.248393 0
M  V30 42699 C 4151.59 -4.21976 -0.471322 0
M  V30 42700 O 4152.61 -3.54686 -0.328069 0
M  V30 42701 O 4151.47 -5.41287 -0.75304 0
M  V30 42702 H 4148.57 -0.813456 -0.149061 0
M  V30 42703 H 4151.11 -1.63426 0.457167 0
M  V30 42704 H 4149.88 -3.84422 0.730422 0
M  V30 42705 H 4149.51 -3.85217 -0.984576 0
M  V30 42706 N 4150.5 -0.131951 -1.57047 0
M  V30 42707 C 4151.45 0.824859 -2.12556 0
M  V30 42708 C 4152.44 1.21955 -1.04956 0
M  V30 42709 O 4153.63 1.18848 -1.31164 0
M  V30 42710 C 4150.76 2.06988 -2.73881 0
M  V30 42711 C 4149.85 1.69896 -3.88582 0
M  V30 42712 N 4150.24 1.03547 -4.95088 0
M  V30 42713 C 4148.53 1.99269 -3.99008 0
M  V30 42714 C 4149.24 0.858793 -5.75326 0
M  V30 42715 N 4148.21 1.38791 -5.25584 0
M  V30 42716 H 4152.01 0.308545 -2.92276 0
M  V30 42717 H 4149.53 0.0700972 -1.62249 0
M  V30 42718 H 4151.52 2.76516 -3.12001 0
M  V30 42719 H 4150.18 2.59151 -1.95629 0
M  V30 42720 H 4151.2 0.69795 -5.13175 0
M  V30 42721 H 4147.87 2.53388 -3.31814 0
M  V30 42722 H 4149.26 0.336996 -6.71054 0
M  V30 42723 N 4151.98 1.5696 0.141838 0
M  V30 42724 C 4152.91 1.95264 1.20019 0
M  V30 42725 C 4153.93 0.849096 1.38904 0
M  V30 42726 O 4155.12 1.12749 1.38383 0
M  V30 42727 C 4152.22 2.21593 2.56417 0
M  V30 42728 C 4151.39 3.52884 2.58441 0
M  V30 42729 C 4150.45 3.67693 3.76416 0
M  V30 42730 O 4149.47 4.40035 3.61051 0
M  V30 42731 N 4150.68 3.04743 4.94077 0
M  V30 42732 H 4153.44 2.86656 0.87456 0
M  V30 42733 H 4151 1.58473 0.331351 0
M  V30 42734 H 4152.99 2.28737 3.33859 0
M  V30 42735 H 4151.56 1.36442 2.81251 0
M  V30 42736 H 4150.78 3.57135 1.66878 0
M  V30 42737 H 4152.07 4.39222 2.56829 0
M  V30 42738 H 4151.47 2.45895 5.09463 0
M  V30 42739 H 4150.03 3.1744 5.69276 0
M  V30 42740 N 4153.46 -0.411345 1.52137 0
M  V30 42741 C 4154.69 -1.18028 1.69932 0
M  V30 42742 C 4155.1 -1.84342 0.407838 0
M  V30 42743 O 4154.46 -1.71791 -0.615951 0
M  V30 42744 C 4154.51 -2.24505 2.83337 0
M  V30 42745 O 4154.23 -1.60898 4.07484 0
M  V30 42746 C 4155.73 -3.14295 3.12624 0
M  V30 42747 H 4152.95 -0.354755 0.569552 0
M  V30 42748 H 4155.5 -0.484243 1.98684 0
M  V30 42749 H 4153.65 -2.8978 2.57111 0
M  V30 42750 H 4154.07 -2.3147 4.70661 0
M  V30 42751 H 4155.54 -3.85084 3.95493 0
M  V30 42752 H 4156.02 -3.7654 2.26084 0
M  V30 42753 H 4156.62 -2.54691 3.40606 0
M  V30 42754 N 4154.94 -1.42722 -0.668439 0
M  V30 42755 C 4156.19 -1.44742 -1.42903 0
M  V30 42756 C 4156.54 -0.0649969 -1.9229 0
M  V30 42757 O 4155.83 0.913887 -1.684 0
M  V30 42758 C 4156.03 -2.41199 -2.63739 0
M  V30 42759 C 4155.86 -3.88683 -2.26176 0
M  V30 42760 C 4154.63 -4.57169 -2.15231 0
M  V30 42761 C 4156.82 -4.78934 -1.8742 0
M  V30 42762 N 4154.81 -5.8965 -1.70839 0
M  V30 42763 C 4156.18 -6.00571 -1.53996 0
M  V30 42764 C 4158.23 -4.66332 -1.74469 0
M  V30 42765 C 4156.94 -7.11006 -1.08919 0
M  V30 42766 C 4158.96 -5.76755 -1.30796 0
M  V30 42767 C 4158.32 -6.97507 -0.982996 0
M  V30 42768 H 4154.42 -0.584804 -0.519162 0
M  V30 42769 H 4157.01 -1.78795 -0.770746 0
M  V30 42770 H 4155.18 -2.09197 -3.27248 0
M  V30 42771 H 4156.91 -2.33756 -3.30364 0
M  V30 42772 H 4153.66 -4.11467 -2.34503 0
M  V30 42773 H 4154.09 -6.59934 -1.51048 0
M  V30 42774 H 4158.73 -3.73446 -1.98237 0
M  V30 42775 H 4156.45 -8.03733 -0.838972 0
M  V30 42776 H 4160.03 -5.69017 -1.21286 0
M  V30 42777 H 4158.91 -7.815 -0.650199 0
M  V30 42778 N 4156.42 0.905358 -1.29 0
M  V30 42779 C 4157.65 1.6889 -1.19515 0
M  V30 42780 C 4158.06 1.87203 0.24504 0
M  V30 42781 O 4157.42 1.40502 1.16471 0
M  V30 42782 C 4157.47 3.07649 -1.89827 0
M  V30 42783 O 4157.19 2.90176 -3.28222 0
M  V30 42784 C 4158.69 4.02044 -1.86749 0
M  V30 42785 H 4155.91 0.527671 -0.414493 0
M  V30 42786 H 4158.45 1.13257 -1.70273 0
M  V30 42787 H 4156.61 3.60074 -1.42919 0
M  V30 42788 H 4157.02 3.78058 -3.63555 0
M  V30 42789 H 4158.5 4.96844 -2.40521 0
M  V30 42790 H 4158.97 4.31059 -0.841735 0
M  V30 42791 H 4159.58 3.55551 -2.33375 0
M  V30 42792 N 4157.9 1.11385 1.11495 0
M  V30 42793 C 4159.31 0.84764 1.3523 0
M  V30 42794 C 4159.51 -0.527939 1.94461 0
M  V30 42795 O 4158.57 -1.27886 2.17718 0
M  V30 42796 C 4159.88 1.95527 2.2845 0
M  V30 42797 C 4161.43 1.98487 2.42016 0
M  V30 42798 C 4161.9 3.08452 3.38558 0
M  V30 42799 N 4163.39 3.07823 3.4612 0
M  V30 42800 C 4164.13 3.8955 4.2076 0
M  V30 42801 N 4163.63 4.81238 4.9838 0
M  V30 42802 N 4165.42 3.77729 4.16266 0
M  V30 42803 H 4157.57 2.00035 0.714121 0
M  V30 42804 H 4159.83 0.869848 0.376921 0
M  V30 42805 H 4159.54 2.94589 1.9212 0
M  V30 42806 H 4159.41 1.85095 3.28664 0
M  V30 42807 H 4161.8 1.00052 2.77621 0
M  V30 42808 H 4161.88 2.12995 1.41657 0
M  V30 42809 H 4161.52 4.07113 3.0368 0
M  V30 42810 H 4161.45 2.91184 4.38771 0
M  V30 42811 H 4163.95 2.41392 2.90755 0
M  V30 42812 H 4164.26 5.40134 5.52698 0
M  V30 42813 H 4162.6 4.8526 4.97542 0
M  V30 42814 H 4165.79 3.05443 3.54714 0
M  V30 42815 H 4165.97 4.41655 4.74178 0
M  V30 42816 N 4159.37 -1.2909 0.904076 0
M  V30 42817 C 4160.32 -2.29556 0.375069 0
M  V30 42818 C 4161.32 -1.60957 -0.528118 0
M  V30 42819 O 4162.52 -1.75258 -0.410434 0
M  V30 42820 H 4158.9 -0.744958 0.10267 0
M  V30 42821 H 4160.87 -2.71613 1.23568 0
M  V30 42822 C 4159.62 -3.45635 -0.37839 0
M  V30 42823 H 4158.94 -3.98617 0.307373 0
M  V30 42824 H 4160.38 -4.17956 -0.713331 0
M  V30 42825 C 4158.84 -2.9741 -1.58269 0
M  V30 42826 O 4159.37 -2.99057 -2.68193 0
M  V30 42827 N 4157.57 -2.53187 -1.42635 0
M  V30 42828 H 4157.12 -2.52045 -0.53206 0
M  V30 42829 H 4157.08 -2.21279 -2.23344 0
M  V30 42830 N 4160.85 -0.66702 -1.42789 0
M  V30 42831 C 4161.78 0.00230257 -2.335 0
M  V30 42832 C 4162.76 0.79751 -1.50246 0
M  V30 42833 O 4163.95 0.756226 -1.78871 0
M  V30 42834 C 4161.08 0.959737 -3.33776 0
M  V30 42835 C 4160.03 0.273674 -4.27124 0
M  V30 42836 C 4159.36 1.34351 -5.17546 0
M  V30 42837 C 4160.66 -0.842501 -5.1546 0
M  V30 42838 H 4162.35 -0.755263 -2.89717 0
M  V30 42839 H 4159.9 -0.364646 -1.39307 0
M  V30 42840 H 4161.85 1.437 -3.96142 0
M  V30 42841 H 4160.57 1.74863 -2.75845 0
M  V30 42842 H 4159.23 -0.183274 -3.66142 0
M  V30 42843 H 4158.88 2.12419 -4.55946 0
M  V30 42844 H 4158.58 0.889636 -5.80826 0
M  V30 42845 H 4160.11 1.82186 -5.82787 0
M  V30 42846 H 4161.52 -0.4468 -5.71556 0
M  V30 42847 H 4159.92 -1.22169 -5.87533 0
M  V30 42848 H 4160.99 -1.69462 -4.54324 0
M  V30 42849 N 4162.33 1.52178 -0.409833 0
M  V30 42850 C 4163.26 2.24725 0.450699 0
M  V30 42851 C 4164.27 1.27714 1.0096 0
M  V30 42852 O 4165.46 1.53655 0.908422 0
M  V30 42853 C 4162.56 2.96608 1.63942 0
M  V30 42854 C 4161.74 4.20495 1.20428 0
M  V30 42855 C 4160.8 4.75196 2.25999 0
M  V30 42856 O 4159.82 5.37758 1.8656 0
M  V30 42857 N 4161.02 4.5683 3.58171 0
M  V30 42858 H 4163.79 2.99212 -0.170947 0
M  V30 42859 H 4161.35 1.60152 -0.237249 0
M  V30 42860 H 4163.34 3.30097 2.34133 0
M  V30 42861 H 4161.91 2.25303 2.16697 0
M  V30 42862 H 4161.13 3.92812 0.330463 0
M  V30 42863 H 4162.42 5.00946 0.89052 0
M  V30 42864 H 4161.82 4.06936 3.92962 0
M  V30 42865 H 4160.37 4.94755 4.24336 0
M  V30 42866 N 4163.81 0.140278 1.56974 0
M  V30 42867 C 4165.05 -0.513268 1.96197 0
M  V30 42868 C 4165.39 -1.64956 1.02485 0
M  V30 42869 O 4164.66 -1.94388 0.0659673 0
M  V30 42870 C 4164.94 -1.02583 3.45179 0
M  V30 42871 C 4164.8 0.108511 4.49669 0
M  V30 42872 C 4166.12 -1.90982 3.96502 0
M  V30 42873 H 4163.24 -0.185101 0.713377 0
M  V30 42874 H 4165.88 0.220145 1.8872 0
M  V30 42875 H 4164.03 -1.65081 3.51682 0
M  V30 42876 H 4165.7 0.744618 4.55251 0
M  V30 42877 H 4163.94 0.768633 4.26936 0
M  V30 42878 H 4164.61 -0.291726 5.51229 0
M  V30 42879 H 4167.09 -1.38322 3.92436 0
M  V30 42880 H 4165.97 -2.23756 5.01223 0
M  V30 42881 H 4166.23 -2.84428 3.38457 0
M  V30 42882 N 4165.29 -1.57033 -0.133512 0
M  V30 42883 C 4166.51 -1.88253 -0.858398 0
M  V30 42884 C 4166.93 -0.729965 -1.74118 0
M  V30 42885 O 4166.29 0.299798 -1.80021 0
M  V30 42886 C 4166.34 -3.18824 -1.70392 0
M  V30 42887 O 4166.06 -4.29642 -0.8567 0
M  V30 42888 C 4167.56 -3.6365 -2.53522 0
M  V30 42889 H 4164.78 -0.623676 -0.247527 0
M  V30 42890 H 4167.32 -2.04134 -0.122253 0
M  V30 42891 H 4165.48 -3.04656 -2.39298 0
M  V30 42892 H 4165.89 -5.04389 -1.43848 0
M  V30 42893 H 4167.37 -4.57812 -3.08402 0
M  V30 42894 H 4167.84 -2.89595 -3.30199 0
M  V30 42895 H 4168.45 -3.80558 -1.89884 0
M  V30 42896 N 4166.76 0.403271 -1.52353 0
M  V30 42897 C 4167.69 1.49846 -1.79077 0
M  V30 42898 C 4168.67 1.57518 -0.642034 0
M  V30 42899 O 4169.86 1.72697 -0.888213 0
M  V30 42900 C 4166.99 2.87609 -1.94675 0
M  V30 42901 C 4165.94 2.94784 -3.103 0
M  V30 42902 C 4165.27 4.34859 -3.1113 0
M  V30 42903 C 4166.57 2.65733 -4.49648 0
M  V30 42904 H 4168.26 1.27732 -2.70786 0
M  V30 42905 H 4165.81 0.613041 -1.30299 0
M  V30 42906 H 4167.76 3.64217 -2.11953 0
M  V30 42907 H 4166.49 3.11029 -0.996432 0
M  V30 42908 H 4165.15 2.20622 -2.92782 0
M  V30 42909 H 4164.79 4.55297 -2.13809 0
M  V30 42910 H 4164.49 4.40583 -3.88794 0
M  V30 42911 H 4166.02 5.13393 -3.30545 0
M  V30 42912 H 4167.43 3.32062 -4.67341 0
M  V30 42913 H 4165.83 2.82825 -5.29273 0
M  V30 42914 H 4166.9 1.61141 -4.57342 0
M  V30 42915 N 4168.24 1.43075 0.66086 0
M  V30 42916 C 4169.15 1.50071 1.80322 0
M  V30 42917 C 4170.17 0.388361 1.69611 0
M  V30 42918 O 4171.34 0.641354 1.90915 0
M  V30 42919 C 4168.41 1.414 3.16555 0
M  V30 42920 C 4167.47 2.63242 3.39119 0
M  V30 42921 C 4166.7 2.54975 4.68853 0
M  V30 42922 O 4166.93 1.59327 5.47696 0
M  V30 42923 O 4165.86 3.45347 4.92969 0
M  V30 42924 H 4169.69 2.46519 1.77375 0
M  V30 42925 H 4167.27 1.24992 0.818378 0
M  V30 42926 H 4169.15 1.38978 3.97823 0
M  V30 42927 H 4167.83 0.480824 3.20109 0
M  V30 42928 H 4166.73 2.71237 2.57645 0
M  V30 42929 H 4168.07 3.55506 3.40406 0
M  V30 42930 N 4169.72 -0.898504 1.29478 0
M  V30 42931 C 4171 -1.6295 1.08197 0
M  V30 42932 C 4171.38 -2.0777 -0.373469 0
M  V30 42933 O 4170.73 -1.83435 -1.36249 0
M  V30 42934 C 4170.94 -2.80939 2.07061 0
M  V30 42935 C 4172.28 -3.51597 2.38044 0
M  V30 42936 O 4173.31 -2.9111 2.05265 0
M  V30 42937 O 4172.17 -4.60644 2.94056 0
M  V30 42938 H 4169.26 -0.715561 0.414609 0
M  V30 42939 H 4171.81 -0.946467 1.40855 0
M  V30 42940 H 4170.58 -2.45025 3.05087 0
M  V30 42941 H 4170.2 -3.56948 1.7514 0
M  V30 42942 N 4171.2 -1.11974 -1.10903 0
M  V30 42943 C 4172.45 -0.870328 -1.824 0
M  V30 42944 C 4172.77 0.605617 -1.85357 0
M  V30 42945 O 4172.04 1.44004 -1.32815 0
M  V30 42946 H 4170.62 -0.318991 -0.675466 0
M  V30 42947 H 4173.28 -1.41325 -1.34213 0
M  V30 42948 H 4172.38 -1.24751 -2.86083 0
M  V30 42949 N 4172.68 1.28609 -0.910909 0
M  V30 42950 C 4173.91 1.98934 -0.557557 0
M  V30 42951 C 4174.31 1.68277 0.864845 0
M  V30 42952 O 4173.66 0.93034 1.58399 0
M  V30 42953 C 4173.72 3.52945 -0.683398 0
M  V30 42954 C 4173.38 4.07185 -2.07483 0
M  V30 42955 C 4174.38 4.21236 -3.04723 0
M  V30 42956 C 4172.07 4.41946 -2.38724 0
M  V30 42957 C 4174.06 4.69296 -4.31324 0
M  V30 42958 C 4171.75 4.897 -3.65564 0
M  V30 42959 C 4172.74 5.03332 -4.61678 0
M  V30 42960 O 4172.43 5.50046 -5.86264 0
M  V30 42961 H 4172.16 0.642052 -0.211531 0
M  V30 42962 H 4174.72 1.64841 -1.22542 0
M  V30 42963 H 4172.95 3.86678 0.0415276 0
M  V30 42964 H 4174.64 4.04494 -0.337565 0
M  V30 42965 H 4175.4 3.94658 -2.81905 0
M  V30 42966 H 4171.28 4.30588 -1.64666 0
M  V30 42967 H 4174.83 4.79851 -5.06349 0
M  V30 42968 H 4170.72 5.15718 -3.88208 0
M  V30 42969 H 4171.49 5.68337 -5.89012 0
M  V30 42970 N 4174.15 0.674583 1.42433 0
M  V30 42971 C 4175.4 0.193971 2.00765 0
M  V30 42972 C 4175.72 -1.20648 1.53959 0
M  V30 42973 O 4176.92 -1.78345 2.04708 0
M  V30 42974 C 4175.38 0.295925 3.58681 0
M  V30 42975 C 4174.99 1.70041 4.14475 0
M  V30 42976 C 4176.73 -0.125985 4.24313 0
M  V30 42977 C 4174.64 1.75515 5.64755 0
M  V30 42978 H 4173.57 0.0687575 0.750858 0
M  V30 42979 H 4176.22 0.839734 1.63159 0
M  V30 42980 H 4174.6 -0.417725 3.93791 0
M  V30 42981 H 4175.77 2.44113 3.90827 0
M  V30 42982 H 4174.09 2.07015 3.61294 0
M  V30 42983 H 4176.69 -0.105237 5.34596 0
M  V30 42984 H 4177.03 -1.1612 3.99777 0
M  V30 42985 H 4177.56 0.53665 3.94164 0
M  V30 42986 H 4174.3 2.77017 5.94089 0
M  V30 42987 H 4173.82 1.05798 5.90395 0
M  V30 42988 H 4175.5 1.50849 6.29169 0
M  V30 42989 N 4175.63 -1.51958 0.417898 0
M  V30 42990 C 4176.54 -2.30991 -0.409905 0
M  V30 42991 C 4177.56 -1.39082 -1.04557 0
M  V30 42992 O 4178.73 -1.72157 -1.04517 0
M  V30 42993 C 4175.8 -3.12241 -1.50686 0
M  V30 42994 C 4174.86 -4.19902 -0.89335 0
M  V30 42995 C 4174.09 -4.97269 -1.93803 0
M  V30 42996 O 4174.32 -4.75036 -3.15748 0
M  V30 42997 O 4173.25 -5.81882 -1.53938 0
M  V30 42998 H 4177.08 -3.02791 0.234749 0
M  V30 42999 H 4174.66 -1.48301 0.180887 0
M  V30 43000 H 4176.54 -3.62812 -2.14349 0
M  V30 43001 H 4175.22 -2.43226 -2.13595 0
M  V30 43002 H 4174.13 -3.73457 -0.219196 0
M  V30 43003 H 4175.46 -4.91235 -0.308046 0
M  V30 43004 N 4177.11 -0.1486 -1.56898 0
M  V30 43005 C 4178.04 0.786547 -2.19854 0
M  V30 43006 C 4179.02 1.25588 -1.14725 0
M  V30 43007 O 4180.21 1.31315 -1.43074 0
M  V30 43008 C 4177.34 2.02519 -2.8214 0
M  V30 43009 C 4176.29 1.69257 -3.93111 0
M  V30 43010 C 4175.62 3.00399 -4.4234 0
M  V30 43011 C 4176.92 0.938001 -5.13808 0
M  V30 43012 H 4178.61 0.26185 -2.98253 0
M  V30 43013 H 4176.16 0.124505 -1.43461 0
M  V30 43014 H 4178.11 2.68422 -3.2485 0
M  V30 43015 H 4176.83 2.57364 -2.01075 0
M  V30 43016 H 4175.49 1.05733 -3.51022 0
M  V30 43017 H 4175.14 3.53238 -3.58095 0
M  V30 43018 H 4174.84 2.78906 -5.1719 0
M  V30 43019 H 4176.36 3.6737 -4.87721 0
M  V30 43020 H 4177.78 1.49915 -5.53352 0
M  V30 43021 H 4176.18 0.822957 -5.9443 0
M  V30 43022 H 4177.25 -0.0699677 -4.8485 0
M  V30 43023 N 4178.59 1.57102 0.125182 0
M  V30 43024 C 4179.81 1.89076 0.852344 0
M  V30 43025 C 4180.24 0.739909 1.72936 0
M  V30 43026 O 4179.6 -0.309796 1.78634 0
M  V30 43027 C 4179.64 3.19765 1.66682 0
M  V30 43028 O 4178.75 3.05235 2.77318 0
M  V30 43029 H 4178.09 0.62061 0.236092 0
M  V30 43030 H 4180.62 2.04307 0.109437 0
M  V30 43031 H 4180.63 3.52331 2.05734 0
M  V30 43032 H 4179.3 4.03123 1.02296 0
M  V30 43033 H 4177.88 2.84122 2.41514 0
M  V30 43034 N 4180.07 -0.395186 1.52565 0
M  V30 43035 C 4181.29 -1.16219 1.71175 0
M  V30 43036 C 4181.71 -1.83899 0.427367 0
M  V30 43037 O 4181.07 -1.72435 -0.597696 0
M  V30 43038 C 4181.12 -2.21487 2.85702 0
M  V30 43039 O 4180.84 -1.56567 4.09168 0
M  V30 43040 C 4182.34 -3.10962 3.1594 0
M  V30 43041 H 4179.56 -0.348694 0.573283 0
M  V30 43042 H 4182.1 -0.463142 1.99186 0
M  V30 43043 H 4180.26 -2.87037 2.6017 0
M  V30 43044 H 4180.67 -2.26465 4.7309 0
M  V30 43045 H 4182.15 -3.80867 3.99555 0
M  V30 43046 H 4182.62 -3.74121 2.30065 0
M  V30 43047 H 4183.23 -2.51064 3.43289 0
M  V30 43048 N 4181.54 -1.43423 -0.653263 0
M  V30 43049 C 4182.77 -1.48692 -1.44587 0
M  V30 43050 C 4183.19 -0.106023 -1.87801 0
M  V30 43051 O 4182.55 0.900222 -1.57371 0
M  V30 43052 C 4182.6 -2.43785 -2.65709 0
M  V30 43053 O 4181.7 -1.92408 -3.64764 0
M  V30 43054 H 4181.05 -0.502945 -0.433523 0
M  V30 43055 H 4183.58 -1.88337 -0.79939 0
M  V30 43056 H 4183.59 -2.61088 -3.13524 0
M  V30 43057 H 4182.26 -3.441 -2.33598 0
M  V30 43058 H 4180.84 -1.84767 -3.23907 0
M  V30 43059 N 4183.02 0.891625 -1.29953 0
M  V30 43060 C 4184.3 1.62374 -1.0906 0
M  V30 43061 C 4184.68 2.07965 0.362445 0
M  V30 43062 O 4184.03 1.84155 1.35274 0
M  V30 43063 C 4184.24 2.79837 -2.08548 0
M  V30 43064 C 4185.59 3.50329 -2.39905 0
M  V30 43065 O 4186.61 2.90017 -2.06806 0
M  V30 43066 O 4185.47 4.59078 -2.96495 0
M  V30 43067 H 4182.56 0.713353 -0.418398 0
M  V30 43068 H 4185.11 0.938984 -1.41355 0
M  V30 43069 H 4183.88 2.43404 -3.06382 0
M  V30 43070 H 4183.5 3.56014 -1.77031 0
M  V30 43071 N 4184.5 1.12561 1.10308 0
M  V30 43072 C 4185.73 0.904933 1.86616 0
M  V30 43073 C 4186.15 -0.540565 1.80165 0
M  V30 43074 O 4185.51 -1.38279 1.17254 0
M  V30 43075 C 4185.56 1.38598 3.32901 0
M  V30 43076 O 4184.66 0.565297 4.08507 0
M  V30 43077 H 4184 0.325023 0.579013 0
M  V30 43078 H 4186.53 1.49803 1.39357 0
M  V30 43079 H 4186.54 1.38563 3.8375 0
M  V30 43080 H 4185.22 2.4385 3.36912 0
M  V30 43081 H 4183.79 0.632747 3.67492 0
M  V30 43082 N 4185.98 -1.28124 0.917717 0
M  V30 43083 C 4187.23 -1.9442 0.551838 0
M  V30 43084 C 4187.55 -1.72563 -0.908133 0
M  V30 43085 O 4186.82 -1.06761 -1.64253 0
M  V30 43086 H 4185.4 -0.719424 0.201094 0
M  V30 43087 H 4188.06 -1.5603 1.16794 0
M  V30 43088 H 4187.16 -3.02963 0.749641 0
M  V30 43089 N 4187.46 -0.682127 -1.42073 0
M  V30 43090 C 4188.68 -0.214524 -2.06288 0
M  V30 43091 C 4189.11 1.12239 -1.50944 0
M  V30 43092 O 4188.47 1.69969 -0.63089 0
M  V30 43093 C 4188.51 -0.168052 -3.60208 0
M  V30 43094 O 4187.62 0.86122 -4.03307 0
M  V30 43095 H 4186.96 -0.10816 -0.655132 0
M  V30 43096 H 4189.49 -0.933203 -1.82078 0
M  V30 43097 H 4189.5 0.00562867 -4.08 0
M  V30 43098 H 4188.17 -1.14385 -3.99861 0
M  V30 43099 H 4186.75 0.657985 -3.67049 0
M  V30 43100 N 4188.94 1.51735 -0.425951 0
M  V30 43101 C 4190.35 1.86658 0.0398075 0
M  V30 43102 C 4190.7 1.34378 1.42958 0
M  V30 43103 O 4189.82 0.689904 2.05108 0
M  V30 43104 C 4190.42 3.38708 0.079012 0
M  V30 43105 C 4188.98 3.73208 0.489149 0
M  V30 43106 C 4188.12 2.75382 -0.325565 0
M  V30 43107 H 4191.07 1.45121 -0.642297 0
M  V30 43108 H 4191.1 3.69924 0.890863 0
M  V30 43109 H 4190.61 3.76728 -0.932611 0
M  V30 43110 H 4188.71 3.40773 1.5068 0
M  V30 43111 H 4188.82 4.78586 0.221855 0
M  V30 43112 H 4187.19 2.53795 0.214517 0
M  V30 43113 H 4187.97 3.16243 -1.33585 0
M  V30 43114 N 4190.41 0.156919 1.56817 0
M  V30 43115 C 4191.66 -0.491715 1.95615 0
M  V30 43116 C 4191.98 -1.65355 1.04484 0
M  V30 43117 O 4193.18 -2.36747 1.32902 0
M  V30 43118 C 4191.64 -0.926161 3.47779 0
M  V30 43119 C 4191.25 0.209288 4.47511 0
M  V30 43120 C 4192.99 -1.54403 3.95424 0
M  V30 43121 C 4190.9 -0.243983 5.90897 0
M  V30 43122 H 4189.83 -0.187468 0.730323 0
M  V30 43123 H 4192.48 0.242851 1.81886 0
M  V30 43124 H 4190.86 -1.71628 3.56875 0
M  V30 43125 H 4192.03 0.986405 4.50119 0
M  V30 43126 H 4190.35 0.73619 4.0984 0
M  V30 43127 H 4192.95 -1.89495 4.99996 0
M  V30 43128 H 4193.29 -2.43666 3.37539 0
M  V30 43129 H 4193.82 -0.818617 3.89286 0
M  V30 43130 H 4190.56 0.613521 6.52623 0
M  V30 43131 H 4190.08 -0.986765 5.91627 0
M  V30 43132 H 4191.76 -0.692687 6.43281 0
M  V30 43133 N 4191.89 -1.57166 -0.116849 0
M  V30 43134 C 4193.14 -1.84966 -0.824255 0
M  V30 43135 C 4193.47 -0.742318 -1.79777 0
M  V30 43136 O 4192.72 0.266136 -1.93882 0
M  V30 43137 C 4193.02 -3.19258 -1.60653 0
M  V30 43138 C 4192.69 -4.44153 -0.777107 0
M  V30 43139 C 4191.35 -4.78065 -0.548387 0
M  V30 43140 C 4193.7 -5.2082 -0.199105 0
M  V30 43141 C 4191.03 -5.86085 0.268553 0
M  V30 43142 C 4193.38 -6.297 0.605038 0
M  V30 43143 C 4192.04 -6.62142 0.844054 0
M  V30 43144 H 4191.31 -0.676837 -0.301616 0
M  V30 43145 H 4193.96 -1.91304 -0.0865488 0
M  V30 43146 H 4192.27 -3.08505 -2.4152 0
M  V30 43147 H 4193.96 -3.37989 -2.15788 0
M  V30 43148 H 4190.55 -4.17584 -0.965467 0
M  V30 43149 H 4194.74 -4.94971 -0.36302 0
M  V30 43150 H 4189.99 -6.09645 0.462933 0
M  V30 43151 H 4194.17 -6.88287 1.05989 0
M  V30 43152 H 4191.79 -7.45676 1.4789 0
M  V30 43153 N 4193.37 0.38709 -1.52772 0
M  V30 43154 C 4194.32 1.47296 -1.77687 0
M  V30 43155 C 4195.29 1.54088 -0.620172 0
M  V30 43156 O 4196.47 1.70315 -0.860094 0
M  V30 43157 C 4193.61 2.84503 -1.95326 0
M  V30 43158 C 4192.72 2.86848 -3.23021 0
M  V30 43159 C 4191.86 4.15493 -3.30967 0
M  V30 43160 C 4190.9 4.11897 -4.52778 0
M  V30 43161 N 4190.04 5.32152 -4.57994 0
M  V30 43162 H 4194.88 1.25352 -2.70353 0
M  V30 43163 H 4192.41 0.60807 -1.33944 0
M  V30 43164 H 4194.37 3.64182 -2.03537 0
M  V30 43165 H 4193 3.04894 -1.06018 0
M  V30 43166 H 4192.05 1.99528 -3.23871 0
M  V30 43167 H 4193.36 2.80058 -4.12757 0
M  V30 43168 H 4192.52 5.03577 -3.38372 0
M  V30 43169 H 4191.26 4.25007 -2.39208 0
M  V30 43170 H 4190.26 3.22201 -4.45496 0
M  V30 43171 H 4191.49 4.04004 -5.45855 0
M  V30 43172 H 4189.43 5.42292 -3.69128 0
M  V30 43173 H 4189.35 5.27446 -5.41605 0
M  V30 43174 H 4190.62 6.22128 -4.69656 0
M  V30 43175 N 4194.85 1.43768 0.645648 0
M  V30 43176 C 4196.07 1.49457 1.43796 0
M  V30 43177 C 4196.5 0.115981 1.87742 0
M  V30 43178 O 4195.86 -0.891864 1.57846 0
M  V30 43179 C 4195.9 2.45191 2.64412 0
M  V30 43180 O 4195.01 1.9434 3.63738 0
M  V30 43181 H 4194.35 0.505237 0.430849 0
M  V30 43182 H 4196.88 1.88759 0.78939 0
M  V30 43183 H 4196.89 2.62747 3.12135 0
M  V30 43184 H 4195.56 3.45334 2.3177 0
M  V30 43185 H 4194.14 1.86482 3.22922 0
M  V30 43186 N 4196.33 -0.884721 1.30424 0
M  V30 43187 C 4197.74 -1.45202 1.1736 0
M  V30 43188 C 4198.09 -1.94899 -0.225611 0
M  V30 43189 O 4197.21 -1.85022 -1.12231 0
M  V30 43190 C 4197.81 -2.63919 2.12443 0
M  V30 43191 C 4196.37 -3.16738 2.03357 0
M  V30 43192 C 4195.51 -1.89432 2.02511 0
M  V30 43193 H 4198.46 -0.694634 1.4269 0
M  V30 43194 H 4198.49 -3.40141 1.70541 0
M  V30 43195 H 4198 -2.27718 3.14271 0
M  V30 43196 H 4196.1 -3.57596 1.04672 0
M  V30 43197 H 4196.21 -3.80021 2.91755 0
M  V30 43198 H 4194.58 -2.07774 1.47316 0
M  V30 43199 H 4195.36 -1.55489 3.06069 0
M  V30 43200 N 4197.8 -1.13144 -1.09709 0
M  V30 43201 C 4198.74 -0.763944 -2.16094 0
M  V30 43202 C 4199.75 0.212964 -1.61401 0
M  V30 43203 O 4200.94 -0.00680269 -1.78499 0
M  V30 43204 C 4198.04 -0.111177 -3.38718 0
M  V30 43205 C 4197.21 -1.11944 -4.22832 0
M  V30 43206 C 4196.27 -0.49291 -5.23886 0
M  V30 43207 O 4195.3 -1.15208 -5.57419 0
M  V30 43208 N 4196.5 0.736343 -5.75811 0
M  V30 43209 H 4199.26 -1.67938 -2.48228 0
M  V30 43210 H 4196.82 -1.02406 -1.25398 0
M  V30 43211 H 4198.82 0.320143 -4.03432 0
M  V30 43212 H 4197.39 0.707144 -3.04497 0
M  V30 43213 H 4196.61 -1.72815 -3.543 0
M  V30 43214 H 4197.89 -1.80099 -4.75859 0
M  V30 43215 H 4197.29 1.29071 -5.50779 0
M  V30 43216 H 4195.85 1.11037 -6.42273 0
M  V30 43217 N 4199.28 1.27635 -0.924498 0
M  V30 43218 C 4200.51 1.9862 -0.579466 0
M  V30 43219 C 4200.93 1.68996 0.84178 0
M  V30 43220 O 4200.28 0.948708 1.55903 0
M  V30 43221 C 4200.33 3.52718 -0.79196 0
M  V30 43222 O 4200.05 3.81304 -2.15729 0
M  V30 43223 C 4201.56 4.40957 -0.455207 0
M  V30 43224 H 4198.78 0.633949 -0.219886 0
M  V30 43225 H 4201.32 1.62568 -1.24064 0
M  V30 43226 H 4199.47 3.86993 -0.177628 0
M  V30 43227 H 4199.89 4.75903 -2.20491 0
M  V30 43228 H 4201.36 5.48105 -0.654604 0
M  V30 43229 H 4201.84 4.34956 0.609101 0
M  V30 43230 H 4202.45 4.12197 -1.04754 0
M  V30 43231 N 4200.76 0.689652 1.41709 0
M  V30 43232 C 4201.99 0.226645 2.05353 0
M  V30 43233 C 4202.4 -1.12697 1.51974 0
M  V30 43234 O 4201.74 -1.7142 0.660381 0
M  V30 43235 C 4201.8 0.100373 3.5936 0
M  V30 43236 C 4201.47 1.38508 4.35505 0
M  V30 43237 C 4202.46 2.3217 4.65181 0
M  V30 43238 C 4200.15 1.63681 4.74883 0
M  V30 43239 C 4202.14 3.4927 5.33188 0
M  V30 43240 C 4199.83 2.81067 5.42627 0
M  V30 43241 C 4200.83 3.73685 5.71707 0
M  V30 43242 O 4200.52 4.89017 6.38058 0
M  V30 43243 H 4200.25 0.10431 0.667904 0
M  V30 43244 H 4202.8 0.94106 1.82574 0
M  V30 43245 H 4201.03 -0.669759 3.80856 0
M  V30 43246 H 4202.72 -0.324682 4.04599 0
M  V30 43247 H 4203.49 2.13977 4.35246 0
M  V30 43248 H 4199.37 0.924555 4.51634 0
M  V30 43249 H 4202.91 4.2158 5.55802 0
M  V30 43250 H 4198.81 2.99179 5.71981 0
M  V30 43251 H 4199.58 4.88754 6.56553 0
M  V30 43252 N 4202.24 -1.51507 0.433991 0
M  V30 43253 C 4203.17 -2.24221 -0.424296 0
M  V30 43254 C 4204.15 -1.26021 -1.02749 0
M  V30 43255 O 4205.33 -1.55147 -1.0706 0
M  V30 43256 C 4202.46 -2.99002 -1.59108 0
M  V30 43257 C 4201.51 -4.11832 -1.10889 0
M  V30 43258 S 4202.34 -5.35473 -0.0536561 0
M  V30 43259 C 4203.5 -6.13792 -1.22519 0
M  V30 43260 H 4203.73 -2.96673 0.19305 0
M  V30 43261 H 4201.26 -1.52846 0.218481 0
M  V30 43262 H 4203.22 -3.42687 -2.26 0
M  V30 43263 H 4201.88 -2.26146 -2.17983 0
M  V30 43264 H 4201.07 -4.63422 -1.98131 0
M  V30 43265 H 4200.68 -3.70392 -0.518262 0
M  V30 43266 H 4202.97 -6.42675 -2.14417 0
M  V30 43267 H 4203.91 -7.04124 -0.749322 0
M  V30 43268 H 4204.32 -5.45233 -1.46224 0
M  V30 43269 N 4203.72 -0.165233 -1.56731 0
M  V30 43270 C 4204.99 0.527311 -1.88358 0
M  V30 43271 C 4205.37 1.81728 -1.07415 0
M  V30 43272 O 4204.72 2.27894 -0.166276 0
M  V30 43273 C 4204.93 0.775115 -3.40284 0
M  V30 43274 C 4206.28 1.10782 -4.09893 0
M  V30 43275 O 4207.3 0.86386 -3.45566 0
M  V30 43276 O 4206.16 1.56777 -5.23529 0
M  V30 43277 H 4203.26 0.271083 -0.781309 0
M  V30 43278 H 4205.8 -0.203213 -1.68479 0
M  V30 43279 H 4204.57 -0.137069 -3.9106 0
M  V30 43280 H 4204.2 1.55917 -3.65753 0
M  V30 43281 N 4205.19 1.57226 0.108512 0
M  V30 43282 C 4206.44 1.85034 0.812826 0
M  V30 43283 C 4206.76 0.751976 1.79918 0
M  V30 43284 O 4206.03 -0.223059 1.94626 0
M  V30 43285 H 4204.61 0.682713 0.303169 0
M  V30 43286 H 4207.28 1.94676 0.0933357 0
M  V30 43287 H 4206.37 2.81313 1.35164 0
M  V30 43288 N 4206.67 -0.378982 1.52975 0
M  V30 43289 C 4207.6 -1.46978 1.81438 0
M  V30 43290 C 4208.58 -1.56477 0.667012 0
M  V30 43291 O 4209.77 -1.71263 0.915575 0
M  V30 43292 C 4206.9 -2.84476 1.99226 0
M  V30 43293 C 4205.85 -2.8981 3.14951 0
M  V30 43294 C 4205.18 -4.29854 3.18009 0
M  V30 43295 C 4206.48 -2.58546 4.53819 0
M  V30 43296 H 4208.17 -1.23408 2.72783 0
M  V30 43297 H 4205.72 -0.592234 1.31258 0
M  V30 43298 H 4207.67 -3.60799 2.17721 0
M  V30 43299 H 4206.4 -3.09404 1.04579 0
M  V30 43300 H 4205.05 -2.15936 2.96255 0
M  V30 43301 H 4204.7 -4.51837 2.21025 0
M  V30 43302 H 4204.4 -4.34342 3.95754 0
M  V30 43303 H 4205.93 -5.08069 3.38671 0
M  V30 43304 H 4207.34 -3.24585 4.72565 0
M  V30 43305 H 4205.74 -2.74369 5.33705 0
M  V30 43306 H 4206.81 -1.53845 4.59848 0
M  V30 43307 N 4208.15 -1.44108 -0.638015 0
M  V30 43308 C 4209.08 -1.53263 -1.76161 0
M  V30 43309 C 4210.06 -0.386136 -1.65659 0
M  V30 43310 O 4211.25 -0.605358 -1.84524 0
M  V30 43311 C 4208.38 -1.46986 -3.14662 0
M  V30 43312 C 4207.33 -2.60041 -3.39945 0
M  V30 43313 C 4206.66 -2.38816 -4.78405 0
M  V30 43314 C 4207.96 -4.02224 -3.33186 0
M  V30 43315 H 4209.65 -2.47309 -1.68756 0
M  V30 43316 H 4207.2 -1.19027 -0.810462 0
M  V30 43317 H 4209.15 -1.51992 -3.93035 0
M  V30 43318 H 4207.87 -0.494528 -3.22834 0
M  V30 43319 H 4206.53 -2.54413 -2.6395 0
M  V30 43320 H 4206.18 -1.39491 -4.83271 0
M  V30 43321 H 4205.88 -3.14611 -4.9628 0
M  V30 43322 H 4207.4 -2.4563 -5.59016 0
M  V30 43323 H 4208.82 -4.09259 -4.01473 0
M  V30 43324 H 4207.22 -4.78167 -3.62596 0
M  V30 43325 H 4208.29 -4.26283 -2.31108 0
M  V30 43326 N 4209.63 0.877792 -1.30891 0
M  V30 43327 C 4210.58 1.97173 -1.14485 0
M  V30 43328 C 4211.56 1.60795 -0.0580047 0
M  V30 43329 O 4212.75 1.74738 -0.282095 0
M  V30 43330 C 4209.88 3.32707 -0.846204 0
M  V30 43331 C 4208.97 3.75377 -1.97365 0
M  V30 43332 N 4209.36 3.90078 -3.21983 0
M  V30 43333 C 4207.66 4.04828 -1.87163 0
M  V30 43334 C 4208.36 4.26393 -3.95682 0
M  V30 43335 N 4207.34 4.36649 -3.23788 0
M  V30 43336 H 4211.14 2.06639 -2.08992 0
M  V30 43337 H 4208.65 1.06808 -1.22335 0
M  V30 43338 H 4210.65 4.10815 -0.709668 0
M  V30 43339 H 4209.31 3.24573 0.0907159 0
M  V30 43340 H 4210.32 3.75015 -3.57189 0
M  V30 43341 H 4207 4.05128 -1.00886 0
M  V30 43342 H 4208.39 4.45429 -5.03033 0
M  V30 43343 N 4211.11 1.13725 1.09108 0
M  V30 43344 C 4212.34 0.922958 1.84838 0
M  V30 43345 C 4212.74 -0.531742 1.81574 0
M  V30 43346 O 4212.09 -1.37996 1.21255 0
M  V30 43347 C 4212.15 1.33718 3.33706 0
M  V30 43348 C 4211.81 2.80597 3.60714 0
M  V30 43349 C 4212.81 3.78742 3.56161 0
M  V30 43350 C 4210.5 3.17836 3.88954 0
M  V30 43351 C 4212.49 5.12137 3.79466 0
M  V30 43352 C 4210.18 4.51409 4.11914 0
M  V30 43353 C 4211.17 5.48369 4.07162 0
M  V30 43354 O 4210.86 6.79531 4.29526 0
M  V30 43355 H 4210.59 0.328895 0.590597 0
M  V30 43356 H 4213.15 1.51448 1.38754 0
M  V30 43357 H 4211.38 0.688937 3.80514 0
M  V30 43358 H 4213.07 1.09484 3.90856 0
M  V30 43359 H 4213.83 3.51318 3.34367 0
M  V30 43360 H 4209.71 2.42966 3.91776 0
M  V30 43361 H 4213.26 5.87806 3.75673 0
M  V30 43362 H 4209.15 4.78556 4.3319 0
M  V30 43363 H 4209.92 6.85683 4.46969 0
M  V30 43364 N 4212.58 -1.27143 0.931254 0
M  V30 43365 C 4213.83 -1.94495 0.57441 0
M  V30 43366 C 4214.16 -1.72981 -0.882671 0
M  V30 43367 O 4213.44 -1.06097 -1.63015 0
M  V30 43368 C 4213.72 -3.48531 0.905445 0
M  V30 43369 C 4213.57 -3.79372 2.41654 0
M  V30 43370 C 4214.89 -4.3815 0.413833 0
M  V30 43371 H 4212.01 -0.7064 0.210161 0
M  V30 43372 H 4214.65 -1.50195 1.16368 0
M  V30 43373 H 4212.8 -3.86394 0.403971 0
M  V30 43374 H 4214.48 -3.5128 2.98998 0
M  V30 43375 H 4212.72 -3.25798 2.86423 0
M  V30 43376 H 4213.39 -4.87003 2.59869 0
M  V30 43377 H 4215.87 -4.07457 0.843664 0
M  V30 43378 H 4214.74 -5.44742 0.674375 0
M  V30 43379 H 4215 -4.36743 -0.686137 0
M  V30 43380 N 4214.06 -0.697157 -1.41342 0
M  V30 43381 C 4215.29 -0.236392 -2.06048 0
M  V30 43382 C 4215.71 1.10632 -1.52126 0
M  V30 43383 O 4215.07 1.6929 -0.648882 0
M  V30 43384 C 4215.12 -0.206248 -3.6001 0
M  V30 43385 O 4214.22 0.818395 -4.04198 0
M  V30 43386 H 4213.56 -0.115102 -0.653948 0
M  V30 43387 H 4216.09 -0.952463 -1.81078 0
M  V30 43388 H 4216.1 -0.0376455 -4.07983 0
M  V30 43389 H 4214.78 -1.18619 -3.98625 0
M  V30 43390 H 4213.36 0.619018 -3.67726 0
M  V30 43391 N 4215.54 1.51274 -0.44202 0
M  V30 43392 C 4216.79 2.02426 0.123058 0
M  V30 43393 C 4217.12 1.32528 1.41951 0
M  V30 43394 O 4216.4 0.441673 1.89419 0
M  V30 43395 C 4216.68 3.5852 0.33698 0
M  V30 43396 C 4216.53 4.39029 -0.978451 0
M  V30 43397 C 4217.85 4.26011 1.10467 0
M  V30 43398 H 4214.97 0.73573 0.0432494 0
M  V30 43399 H 4217.61 1.80869 -0.581933 0
M  V30 43400 H 4215.76 3.77019 0.937494 0
M  V30 43401 H 4217.43 4.32169 -1.61331 0
M  V30 43402 H 4215.68 4.03926 -1.58196 0
M  V30 43403 H 4216.35 5.46422 -0.782756 0
M  V30 43404 H 4218.82 4.1181 0.595949 0
M  V30 43405 H 4217.7 5.35099 1.22312 0
M  V30 43406 H 4217.96 3.87189 2.13395 0
M  V30 43407 N 4217.02 0.173543 1.56642 0
M  V30 43408 C 4218.27 -0.47094 1.96125 0
M  V30 43409 C 4218.58 -1.64238 1.06232 0
M  V30 43410 O 4219.79 -2.35324 1.35406 0
M  V30 43411 C 4218.24 -0.889223 3.48742 0
M  V30 43412 C 4217.85 0.256741 4.47264 0
M  V30 43413 C 4219.6 -1.502 3.97039 0
M  V30 43414 C 4217.5 -0.181297 5.91122 0
M  V30 43415 H 4216.43 -0.179711 0.73227 0
M  V30 43416 H 4219.08 0.262128 1.81618 0
M  V30 43417 H 4217.47 -1.67833 3.58675 0
M  V30 43418 H 4218.64 1.03409 4.49047 0
M  V30 43419 H 4216.95 0.779618 4.09037 0
M  V30 43420 H 4219.55 -1.84181 5.01977 0
M  V30 43421 H 4219.89 -2.40072 3.40104 0
M  V30 43422 H 4220.43 -0.777282 3.90132 0
M  V30 43423 H 4217.17 0.682706 6.51935 0
M  V30 43424 H 4216.69 -0.923959 5.92641 0
M  V30 43425 H 4218.37 -0.624419 6.4398 0
M  V30 43426 N 4218.5 -1.57281 -0.100172 0
M  V30 43427 C 4219.72 -1.90408 -0.822156 0
M  V30 43428 C 4220.15 -0.767328 -1.71737 0
M  V30 43429 O 4219.51 0.281338 -1.79104 0
M  V30 43430 C 4219.55 -3.22376 -1.61574 0
M  V30 43431 O 4218.66 -3.09608 -2.72427 0
M  V30 43432 H 4218 -0.624287 -0.226189 0
M  V30 43433 H 4220.53 -2.04455 -0.0769198 0
M  V30 43434 H 4220.54 -3.5556 -2.00103 0
M  V30 43435 H 4219.21 -4.047 -0.9587 0
M  V30 43436 H 4217.79 -2.87929 -2.36963 0
M  V30 43437 N 4219.98 0.370864 -1.53174 0
M  V30 43438 C 4221.25 1.12941 -1.59699 0
M  V30 43439 C 4221.63 2.07251 -0.401269 0
M  V30 43440 O 4220.98 2.20237 0.608934 0
M  V30 43441 C 4221.19 1.87316 -2.94472 0
M  V30 43442 C 4222.54 2.42037 -3.4886 0
M  V30 43443 O 4223.56 1.97449 -2.96466 0
M  V30 43444 O 4222.42 3.23532 -4.40442 0
M  V30 43445 H 4219.52 0.517789 -0.644844 0
M  V30 43446 H 4222.06 0.374554 -1.65515 0
M  V30 43447 H 4220.83 1.18455 -3.7294 0
M  V30 43448 H 4220.46 2.69722 -2.92123 0
M  V30 43449 N 4221.45 1.44444 0.630363 0
M  V30 43450 C 4222.4 1.5167 1.76349 0
M  V30 43451 C 4223.4 0.388346 1.64889 0
M  V30 43452 O 4224.6 0.563323 1.70958 0
M  V30 43453 H 4220.98 0.475948 0.582218 0
M  V30 43454 H 4222.95 2.47037 1.67377 0
M  V30 43455 C 4221.7 1.4788 3.14685 0
M  V30 43456 H 4221.02 2.34021 3.24152 0
M  V30 43457 H 4222.46 1.56997 3.93863 0
M  V30 43458 C 4220.92 0.199681 3.36308 0
M  V30 43459 O 4221.45 -0.72981 3.95015 0
M  V30 43460 N 4219.65 0.102575 2.90419 0
M  V30 43461 H 4219.2 0.859803 2.42827 0
M  V30 43462 H 4219.16 -0.752513 3.05262 0
M  V30 43463 N 4222.93 -0.870838 1.31355 0
M  V30 43464 C 4224.16 -1.66186 1.24085 0
M  V30 43465 C 4224.58 -1.87129 -0.190853 0
M  V30 43466 O 4223.94 -1.41243 -1.13667 0
M  V30 43467 C 4223.99 -3.00764 1.98931 0
M  V30 43468 O 4223.09 -3.90499 1.32605 0
M  V30 43469 H 4222.43 -0.507272 0.428451 0
M  V30 43470 H 4224.96 -1.08583 1.7341 0
M  V30 43471 H 4224.97 -3.50706 2.08493 0
M  V30 43472 H 4223.65 -2.8484 3.03049 0
M  V30 43473 H 4222.22 -3.48948 1.31489 0
M  V30 43474 N 4224.41 -1.14302 -1.08503 0
M  V30 43475 C 4225.66 -0.908822 -1.80513 0
M  V30 43476 C 4225.98 0.566164 -1.866 0
M  V30 43477 O 4225.25 1.41154 -1.35839 0
M  V30 43478 H 4223.83 -0.333246 -0.668548 0
M  V30 43479 H 4226.49 -1.4414 -1.31185 0
M  V30 43480 H 4225.59 -1.30791 -2.83373 0
M  V30 43481 N 4225.89 1.26648 -0.937984 0
M  V30 43482 C 4226.82 2.2887 -0.462689 0
M  V30 43483 C 4227.8 1.63117 0.482371 0
M  V30 43484 O 4228.98 1.90347 0.384914 0
M  V30 43485 C 4226.11 3.46202 0.275903 0
M  V30 43486 C 4225.07 4.2402 -0.582297 0
M  V30 43487 C 4224.39 5.33934 0.286067 0
M  V30 43488 C 4225.69 4.88362 -1.85202 0
M  V30 43489 H 4227.39 2.68877 -1.31702 0
M  V30 43490 H 4224.93 1.29256 -0.634732 0
M  V30 43491 H 4226.89 4.16823 0.619422 0
M  V30 43492 H 4225.61 3.0514 1.16435 0
M  V30 43493 H 4224.27 3.5516 -0.908666 0
M  V30 43494 H 4223.92 4.89113 1.17377 0
M  V30 43495 H 4223.62 5.8691 -0.284721 0
M  V30 43496 H 4225.14 6.07394 0.624928 0
M  V30 43497 H 4226.56 5.51214 -1.57594 0
M  V30 43498 H 4224.95 5.51441 -2.36712 0
M  V30 43499 H 4226.02 4.11483 -2.56534 0
M  V30 43500 N 4227.37 0.704643 1.4097 0
M  V30 43501 C 4228.78 0.377094 1.55081 0
M  V30 43502 C 4228.98 -1.11515 1.67829 0
M  V30 43503 O 4228.04 -1.90109 1.66177 0
M  V30 43504 C 4229.35 1.13357 2.78515 0
M  V30 43505 C 4230.9 1.1188 2.92321 0
M  V30 43506 C 4231.37 1.85721 4.18655 0
M  V30 43507 N 4232.86 1.82735 4.25631 0
M  V30 43508 C 4233.6 2.36702 5.22264 0
M  V30 43509 N 4233.1 2.99178 6.24872 0
M  V30 43510 N 4234.89 2.26906 5.14267 0
M  V30 43511 H 4227.04 1.67237 1.30941 0
M  V30 43512 H 4229.3 0.706257 0.63238 0
M  V30 43513 H 4229.01 2.18822 2.75336 0
M  V30 43514 H 4228.88 0.718043 3.70303 0
M  V30 43515 H 4231.27 0.0723814 2.95011 0
M  V30 43516 H 4231.35 1.57346 2.01683 0
M  V30 43517 H 4230.99 2.90347 4.16726 0
M  V30 43518 H 4230.92 1.37683 5.08282 0
M  V30 43519 H 4233.42 1.37193 3.52117 0
M  V30 43520 H 4233.73 3.37901 6.95013 0
M  V30 43521 H 4232.07 3.03258 6.25347 0
M  V30 43522 H 4235.26 1.77763 4.33033 0
M  V30 43523 H 4235.44 2.69266 5.89406 0
M  V30 43524 N 4228.84 -1.51038 0.450036 0
M  V30 43525 C 4229.77 -2.30933 -0.345275 0
M  V30 43526 C 4230.76 -1.36901 -1.00956 0
M  V30 43527 O 4231.94 -1.65822 -1.01077 0
M  V30 43528 C 4229.07 -3.16057 -1.43962 0
M  V30 43529 C 4228.02 -4.18471 -0.898124 0
M  V30 43530 C 4227.35 -4.92197 -2.08918 0
M  V30 43531 C 4228.65 -5.22244 0.0761829 0
M  V30 43532 H 4230.34 -2.97669 0.321493 0
M  V30 43533 H 4227.89 -1.43152 0.156058 0
M  V30 43534 H 4229.84 -3.70736 -2.00332 0
M  V30 43535 H 4228.57 -2.47166 -2.13486 0
M  V30 43536 H 4227.23 -3.64862 -0.356553 0
M  V30 43537 H 4226.87 -4.19797 -2.77091 0
M  V30 43538 H 4226.57 -5.61457 -1.73318 0
M  V30 43539 H 4228.1 -5.49703 -2.65817 0
M  V30 43540 H 4229.51 -5.71919 -0.397628 0
M  V30 43541 H 4227.91 -5.99105 0.345386 0
M  V30 43542 H 4228.98 -4.74289 1.00886 0
M  V30 43543 N 4230.32 -0.181847 -1.56547 0
M  V30 43544 C 4231.25 0.739735 -2.21473 0
M  V30 43545 C 4232.23 1.23126 -1.17363 0
M  V30 43546 O 4233.42 1.28251 -1.45827 0
M  V30 43547 C 4230.55 1.96489 -2.86373 0
M  V30 43548 C 4229.5 1.60881 -3.96612 0
M  V30 43549 C 4228.83 2.90949 -4.48612 0
M  V30 43550 C 4230.13 0.828804 -5.15682 0
M  V30 43551 H 4231.82 0.198527 -2.98741 0
M  V30 43552 H 4229.37 0.0940473 -1.43693 0
M  V30 43553 H 4231.32 2.61471 -3.30471 0
M  V30 43554 H 4230.05 2.53041 -2.06489 0
M  V30 43555 H 4228.7 0.982631 -3.53185 0
M  V30 43556 H 4228.35 3.45563 -3.65507 0
M  V30 43557 H 4228.05 2.67873 -5.22989 0
M  V30 43558 H 4229.58 3.56942 -4.95404 0
M  V30 43559 H 4230.99 1.38144 -5.56407 0
M  V30 43560 H 4229.39 0.696685 -5.96042 0
M  V30 43561 H 4230.46 -0.172796 -4.84592 0
M  V30 43562 N 4231.8 1.57332 0.09183 0
M  V30 43563 C 4233.05 1.85438 0.793439 0
M  V30 43564 C 4233.36 0.771591 1.79738 0
M  V30 43565 O 4234.57 0.939877 2.54713 0
M  V30 43566 C 4233.02 3.2887 1.46194 0
M  V30 43567 C 4232.63 4.45228 0.497599 0
M  V30 43568 C 4234.38 3.66197 2.14709 0
M  V30 43569 C 4232.28 5.79693 1.17088 0
M  V30 43570 H 4231.21 0.691719 0.300068 0
M  V30 43571 H 4233.86 1.83441 0.046422 0
M  V30 43572 H 4232.25 3.25418 2.25653 0
M  V30 43573 H 4233.42 4.60033 -0.26573 0
M  V30 43574 H 4231.74 4.16319 -0.0820222 0
M  V30 43575 H 4234.33 4.63943 2.65821 0
M  V30 43576 H 4234.68 2.94985 2.93751 0
M  V30 43577 H 4235.21 3.71552 1.42106 0
M  V30 43578 H 4231.95 6.54145 0.421201 0
M  V30 43579 H 4231.47 5.68726 1.90555 0
M  V30 43580 H 4233.15 6.24364 1.69643 0
M  V30 43581 N 4233.28 -0.362736 1.53369 0
M  V30 43582 C 4234.56 -1.12092 1.60296 0
M  V30 43583 C 4234.94 -2.07035 0.412255 0
M  V30 43584 O 4234.28 -2.20557 -0.597246 0
M  V30 43585 C 4234.49 -1.85752 2.95461 0
M  V30 43586 C 4235.84 -2.40183 3.50139 0
M  V30 43587 O 4236.87 -1.95874 2.97509 0
M  V30 43588 O 4235.72 -3.21192 4.42152 0
M  V30 43589 H 4232.82 -0.514362 0.647581 0
M  V30 43590 H 4235.36 -0.365771 1.65711 0
M  V30 43591 H 4234.14 -1.16476 3.73563 0
M  V30 43592 H 4233.76 -2.68169 2.9355 0
M  V30 43593 N 4234.76 -1.44777 -0.622694 0
M  V30 43594 C 4236.03 -1.38477 -1.38143 0
M  V30 43595 C 4236.41 -0.0477218 -2.11046 0
M  V30 43596 O 4235.76 0.969946 -2.06892 0
M  V30 43597 C 4235.97 -2.58855 -2.34084 0
M  V30 43598 C 4237.32 -3.03287 -2.97157 0
M  V30 43599 O 4238.34 -2.5912 -2.44408 0
M  V30 43600 O 4237.2 -3.79891 -3.92867 0
M  V30 43601 H 4234.3 -0.548789 -0.618675 0
M  V30 43602 H 4236.84 -1.5688 -0.647044 0
M  V30 43603 H 4235.61 -3.47767 -1.7937 0
M  V30 43604 H 4235.24 -2.42708 -3.14926 0
M  V30 43605 N 4236.23 0.863859 -1.31815 0
M  V30 43606 C 4237.17 1.97794 -1.15802 0
M  V30 43607 C 4238.18 1.6252 -0.0954511 0
M  V30 43608 O 4239.37 1.75163 -0.343534 0
M  V30 43609 C 4236.47 3.30533 -0.74839 0
M  V30 43610 C 4235.64 3.94109 -1.89728 0
M  V30 43611 C 4234.7 5.05171 -1.47271 0
M  V30 43612 O 4233.73 5.25662 -2.18331 0
M  V30 43613 N 4234.93 5.79361 -0.363529 0
M  V30 43614 H 4237.69 2.12075 -2.11764 0
M  V30 43615 H 4235.25 1.03819 -1.2423 0
M  V30 43616 H 4237.25 4.02224 -0.446946 0
M  V30 43617 H 4235.82 3.1237 0.119807 0
M  V30 43618 H 4235.04 3.15321 -2.36572 0
M  V30 43619 H 4236.32 4.33321 -2.66665 0
M  V30 43620 H 4235.72 5.6524 0.228116 0
M  V30 43621 H 4234.28 6.51686 -0.121648 0
M  V30 43622 N 4237.71 1.14875 1.07895 0
M  V30 43623 C 4238.64 0.863325 2.16954 0
M  V30 43624 C 4239.62 -0.183823 1.69104 0
M  V30 43625 O 4240.81 -0.0393794 1.9416 0
M  V30 43626 C 4237.94 0.345757 3.45575 0
M  V30 43627 C 4236.89 1.32895 4.06845 0
M  V30 43628 C 4236.22 0.67046 5.3048 0
M  V30 43629 C 4237.52 2.69304 4.47518 0
M  V30 43630 H 4239.21 1.7753 2.41088 0
M  V30 43631 H 4236.76 0.855011 1.15869 0
M  V30 43632 H 4238.71 0.133649 4.21188 0
M  V30 43633 H 4237.44 -0.601666 3.2101 0
M  V30 43634 H 4236.09 1.52732 3.33269 0
M  V30 43635 H 4235.74 -0.282935 5.02204 0
M  V30 43636 H 4235.44 1.32655 5.7243 0
M  V30 43637 H 4236.97 0.467998 6.08804 0
M  V30 43638 H 4238.38 2.53344 5.14286 0
M  V30 43639 H 4236.78 3.31235 5.00403 0
M  V30 43640 H 4237.85 3.25786 3.59154 0
M  V30 43641 N 4239.19 -1.26148 0.944687 0
M  V30 43642 C 4240.12 -2.28621 0.47482 0
M  V30 43643 C 4241.1 -1.63371 -0.473714 0
M  V30 43644 O 4242.29 -1.90549 -0.374814 0
M  V30 43645 C 4239.42 -3.46344 -0.257539 0
M  V30 43646 C 4238.37 -4.23706 0.604775 0
M  V30 43647 C 4237.7 -5.34078 -0.257748 0
M  V30 43648 C 4239 -4.87373 1.87789 0
M  V30 43649 H 4240.69 -2.68175 1.33127 0
M  V30 43650 H 4238.24 -1.28918 0.641577 0
M  V30 43651 H 4240.19 -4.17145 -0.597309 0
M  V30 43652 H 4238.91 -3.05753 -1.14815 0
M  V30 43653 H 4237.57 -3.54673 0.927488 0
M  V30 43654 H 4237.22 -4.89729 -1.14782 0
M  V30 43655 H 4236.92 -5.86751 0.315842 0
M  V30 43656 H 4238.44 -6.07716 -0.592708 0
M  V30 43657 H 4239.86 -5.50371 1.60515 0
M  V30 43658 H 4238.26 -5.50178 2.39633 0
M  V30 43659 H 4239.33 -4.10117 2.58712 0
M  V30 43660 N 4240.67 -0.712109 -1.40594 0
M  V30 43661 C 4242.08 -0.385313 -1.54879 0
M  V30 43662 C 4242.28 1.10623 -1.68418 0
M  V30 43663 O 4241.34 1.89225 -1.67183 0
M  V30 43664 C 4242.65 -1.14832 -2.7791 0
M  V30 43665 C 4244.2 -1.13429 -2.91724 0
M  V30 43666 C 4244.68 -1.87938 -4.17664 0
M  V30 43667 N 4246.17 -1.8499 -4.24656 0
M  V30 43668 C 4246.9 -2.39468 -5.21002 0
M  V30 43669 N 4246.4 -3.02487 -6.23276 0
M  V30 43670 N 4248.19 -2.2963 -5.13056 0
M  V30 43671 H 4240.34 -1.67929 -1.30052 0
M  V30 43672 H 4242.61 -0.709601 -0.628626 0
M  V30 43673 H 4242.31 -2.20279 -2.74171 0
M  V30 43674 H 4242.19 -0.737671 -3.69917 0
M  V30 43675 H 4244.57 -0.0880256 -2.94969 0
M  V30 43676 H 4244.65 -1.58413 -2.00845 0
M  V30 43677 H 4244.3 -2.92553 -4.15181 0
M  V30 43678 H 4244.23 -1.40376 -5.07545 0
M  V30 43679 H 4246.72 -1.39059 -3.51384 0
M  V30 43680 H 4247.03 -3.41582 -6.93211 0
M  V30 43681 H 4245.38 -3.0657 -6.2373 0
M  V30 43682 H 4248.57 -1.80057 -4.32085 0
M  V30 43683 H 4248.74 -2.72388 -5.8797 0
M  V30 43684 N 4242.15 1.50797 -0.45804 0
M  V30 43685 C 4243.09 2.29843 0.357043 0
M  V30 43686 C 4244.09 1.36569 1.00226 0
M  V30 43687 O 4245.29 1.53819 0.934861 0
M  V30 43688 H 4241.67 0.73997 0.133972 0
M  V30 43689 H 4243.64 2.96567 -0.330218 0
M  V30 43690 C 4242.39 3.16752 1.43399 0
M  V30 43691 H 4241.71 3.88425 0.946879 0
M  V30 43692 H 4243.15 3.7508 1.97714 0
M  V30 43693 C 4241.61 2.33482 2.42874 0
M  V30 43694 O 4242.14 2.0088 3.47865 0
M  V30 43695 N 4240.35 1.9631 2.14268 0
M  V30 43696 H 4239.89 2.23022 1.28914 0
M  V30 43697 H 4239.85 1.40896 2.81062 0
M  V30 43698 N 4243.63 0.190147 1.56449 0
M  V30 43699 C 4244.85 -0.458787 2.02262 0
M  V30 43700 C 4245.28 -1.5474 1.06944 0
M  V30 43701 O 4244.63 -1.81225 0.0521029 0
M  V30 43702 C 4244.68 -0.996725 3.46551 0
M  V30 43703 O 4243.79 -2.10987 3.54342 0
M  V30 43704 H 4243.13 -0.107789 0.655193 0
M  V30 43705 H 4245.66 0.299571 2.02395 0
M  V30 43706 H 4245.67 -1.31458 3.86242 0
M  V30 43707 H 4244.34 -0.199779 4.1542 0
M  V30 43708 H 4242.92 -1.80103 3.26523 0
M  V30 43709 N 4245.1 -1.57379 -0.083485 0
M  V30 43710 C 4246.05 -2.02877 -1.10043 0
M  V30 43711 C 4247.02 -0.907207 -1.39136 0
M  V30 43712 O 4248.21 -1.17404 -1.50403 0
M  V30 43713 C 4245.35 -2.46789 -2.41225 0
M  V30 43714 C 4244.46 -3.72515 -2.18762 0
M  V30 43715 C 4243.59 -4.05257 -3.43425 0
M  V30 43716 C 4242.63 -5.24058 -3.16275 0
M  V30 43717 N 4241.77 -5.52495 -4.33236 0
M  V30 43718 H 4246.61 -2.8953 -0.705452 0
M  V30 43719 H 4244.15 -1.43193 -0.336783 0
M  V30 43720 H 4246.1 -2.70296 -3.17799 0
M  V30 43721 H 4244.73 -1.6313 -2.78547 0
M  V30 43722 H 4243.79 -3.56416 -1.32936 0
M  V30 43723 H 4245.1 -4.59231 -1.947 0
M  V30 43724 H 4244.25 -4.29602 -4.284 0
M  V30 43725 H 4242.99 -3.17084 -3.70552 0
M  V30 43726 H 4242 -4.9952 -2.29694 0
M  V30 43727 H 4243.22 -6.13838 -2.90482 0
M  V30 43728 H 4241.17 -4.67282 -4.60417 0
M  V30 43729 H 4241.08 -6.33607 -4.12406 0
M  V30 43730 H 4242.35 -5.81384 -5.19242 0
M  V30 43731 N 4246.58 0.354597 -1.53559 0
M  V30 43732 C 4248 0.696993 -1.43576 0
M  V30 43733 C 4248.2 1.92863 -0.583633 0
M  V30 43734 O 4247.25 2.52402 -0.0703251 0
M  V30 43735 C 4248.57 0.899944 -2.86917 0
M  V30 43736 C 4250.11 0.999262 -2.96621 0
M  V30 43737 C 4250.59 1.23461 -4.41046 0
M  V30 43738 N 4252.08 1.30206 -4.44523 0
M  V30 43739 C 4252.82 1.50146 -5.53393 0
M  V30 43740 N 4252.31 1.67331 -6.72289 0
M  V30 43741 N 4254.1 1.52605 -5.40988 0
M  V30 43742 H 4246.26 -0.455347 -2.07462 0
M  V30 43743 H 4248.52 -0.141722 -0.937347 0
M  V30 43744 H 4248.22 0.0666122 -3.51637 0
M  V30 43745 H 4248.1 1.80489 -3.31215 0
M  V30 43746 H 4250.49 1.82313 -2.32048 0
M  V30 43747 H 4250.57 0.0714643 -2.557 0
M  V30 43748 H 4250.21 0.415714 -5.06196 0
M  V30 43749 H 4250.14 2.1758 -4.79548 0
M  V30 43750 H 4252.63 1.18495 -3.58842 0
M  V30 43751 H 4252.94 1.82151 -7.51027 0
M  V30 43752 H 4251.29 1.64488 -6.75254 0
M  V30 43753 H 4254.48 1.38754 -4.47063 0
M  V30 43754 H 4254.65 1.67804 -6.25896 0
M  V30 43755 N 4248.06 1.45105 0.615008 0
M  V30 43756 C 4248.99 1.56046 1.737 0
M  V30 43757 C 4249.97 0.412442 1.65024 0
M  V30 43758 O 4251.16 0.634638 1.83537 0
M  V30 43759 C 4248.29 1.51973 3.12284 0
M  V30 43760 C 4247.24 2.65417 3.35765 0
M  V30 43761 C 4246.57 2.46397 4.74545 0
M  V30 43762 C 4247.87 4.07474 3.26745 0
M  V30 43763 H 4249.56 2.49963 1.648 0
M  V30 43764 H 4247.11 1.20302 0.791423 0
M  V30 43765 H 4249.06 1.58226 3.90567 0
M  V30 43766 H 4247.78 0.545825 3.22007 0
M  V30 43767 H 4246.44 2.5858 2.59869 0
M  V30 43768 H 4246.09 1.47162 4.80991 0
M  V30 43769 H 4245.79 3.22467 4.91212 0
M  V30 43770 H 4247.31 2.54492 5.55037 0
M  V30 43771 H 4248.73 4.15594 3.94911 0
M  V30 43772 H 4247.12 4.83875 3.54943 0
M  V30 43773 H 4248.19 4.29906 2.24297 0
M  V30 43774 N 4249.54 -0.856857 1.32271 0
M  V30 43775 C 4250.48 -1.96525 1.21023 0
M  V30 43776 C 4251.45 -1.6584 0.092914 0
M  V30 43777 O 4252.64 -1.88907 0.268077 0
M  V30 43778 C 4249.78 -3.32136 0.937001 0
M  V30 43779 C 4248.89 -3.75333 2.1389 0
M  V30 43780 C 4248.03 -4.99725 1.80134 0
M  V30 43781 C 4247.07 -5.35407 2.96657 0
M  V30 43782 N 4246.2 -6.50977 2.63008 0
M  V30 43783 H 4251.04 -2.05477 2.15831 0
M  V30 43784 H 4248.58 -1.00573 1.07347 0
M  V30 43785 H 4250.54 -4.10236 0.75909 0
M  V30 43786 H 4249.17 -3.2279 0.0257197 0
M  V30 43787 H 4248.22 -2.92905 2.42716 0
M  V30 43788 H 4249.53 -3.97699 3.01059 0
M  V30 43789 H 4248.69 -5.85527 1.58881 0
M  V30 43790 H 4247.43 -4.79291 0.901746 0
M  V30 43791 H 4246.43 -4.48119 3.18543 0
M  V30 43792 H 4247.66 -5.578 3.87345 0
M  V30 43793 H 4245.6 -6.32064 1.75588 0
M  V30 43794 H 4245.52 -6.73351 3.43708 0
M  V30 43795 H 4246.79 -7.39937 2.45181 0
M  V30 43796 N 4251.02 -1.15446 -1.07285 0
M  V30 43797 C 4251.97 -0.820281 -2.12733 0
M  V30 43798 C 4252.95 0.195773 -1.59705 0
M  V30 43799 O 4254.14 -0.00358267 -1.77 0
M  V30 43800 C 4251.27 -0.312054 -3.41879 0
M  V30 43801 C 4250.36 -1.3583 -4.0176 0
M  V30 43802 N 4250.75 -2.56582 -4.35889 0
M  V30 43803 C 4249.05 -1.2112 -4.29239 0
M  V30 43804 C 4249.75 -3.23647 -4.8335 0
M  V30 43805 N 4248.72 -2.51035 -4.82164 0
M  V30 43806 H 4252.52 -1.73867 -2.36955 0
M  V30 43807 H 4250.04 -1.04002 -1.24729 0
M  V30 43808 H 4252.04 -0.054296 -4.16865 0
M  V30 43809 H 4250.7 0.600389 -3.19101 0
M  V30 43810 H 4251.71 -2.9372 -4.26555 0
M  V30 43811 H 4248.38 -0.358708 -4.15956 0
M  V30 43812 H 4249.77 -4.26665 -5.19044 0
M  V30 43813 N 4252.49 1.25646 -0.951364 0
M  V30 43814 C 4253.74 1.92567 -0.600072 0
M  V30 43815 C 4254.06 1.75362 0.866468 0
M  V30 43816 O 4255.26 2.36828 1.32758 0
M  V30 43817 C 4253.72 3.45069 -1.02252 0
M  V30 43818 C 4253.33 3.7099 -2.51138 0
M  V30 43819 C 4255.07 4.17936 -0.743605 0
M  V30 43820 C 4252.98 5.16982 -2.872 0
M  V30 43821 H 4251.91 0.720971 -0.220718 0
M  V30 43822 H 4254.56 1.4256 -1.15538 0
M  V30 43823 H 4252.94 3.94018 -0.395657 0
M  V30 43824 H 4254.11 3.32706 -3.18815 0
M  V30 43825 H 4252.43 3.11377 -2.76466 0
M  V30 43826 H 4255.03 5.25469 -0.98924 0
M  V30 43827 H 4255.37 4.15069 0.3199 0
M  V30 43828 H 4255.9 3.74884 -1.33066 0
M  V30 43829 H 4252.64 5.24958 -3.92555 0
M  V30 43830 H 4252.16 5.56325 -2.24193 0
M  V30 43831 H 4253.84 5.85076 -2.76215 0
M  V30 43832 N 4253.97 0.719555 1.40215 0
M  V30 43833 C 4255.2 0.269142 2.05646 0
M  V30 43834 C 4255.62 -1.08197 1.53867 0
M  V30 43835 O 4254.98 -1.68237 0.675732 0
M  V30 43836 C 4255.03 0.263496 3.59636 0
M  V30 43837 O 4254.13 -0.753987 4.05449 0
M  V30 43838 H 4253.47 0.125491 0.652034 0
M  V30 43839 H 4256 0.98115 1.7954 0
M  V30 43840 H 4256.01 0.102547 4.07871 0
M  V30 43841 H 4254.69 1.24946 3.96688 0
M  V30 43842 H 4253.26 -0.560437 3.68664 0
M  V30 43843 N 4255.45 -1.50552 0.466031 0
M  V30 43844 C 4256.67 -2.07201 -0.0908265 0
M  V30 43845 C 4257.1 -1.32819 -1.33194 0
M  V30 43846 O 4256.46 -0.374372 -1.77393 0
M  V30 43847 C 4256.51 -3.58769 -0.362894 0
M  V30 43848 O 4255.61 -3.86282 -1.44431 0
M  V30 43849 H 4254.95 -0.663913 0.0107517 0
M  V30 43850 H 4257.48 -1.93811 0.655619 0
M  V30 43851 H 4257.49 -4.03491 -0.604894 0
M  V30 43852 H 4256.17 -4.12326 0.544068 0
M  V30 43853 H 4254.74 -3.53402 -1.19002 0
M  V30 43854 N 4256.93 -0.198441 -1.56346 0
M  V30 43855 C 4258.15 0.448054 -2.02502 0
M  V30 43856 C 4258.58 1.54171 -1.07763 0
M  V30 43857 O 4257.94 1.81195 -0.061713 0
M  V30 43858 C 4257.98 0.978333 -3.47075 0
M  V30 43859 O 4257.09 2.09105 -3.55456 0
M  V30 43860 H 4256.43 0.104312 -0.655755 0
M  V30 43861 H 4258.96 -0.3103 -2.02233 0
M  V30 43862 H 4258.97 1.29408 -3.86934 0
M  V30 43863 H 4257.64 0.177746 -4.1552 0
M  V30 43864 H 4256.22 1.78369 -3.27474 0
M  V30 43865 N 4258.41 1.57421 0.0751377 0
M  V30 43866 C 4259.82 1.53703 0.429846 0
M  V30 43867 C 4260.02 0.918134 1.79367 0
M  V30 43868 O 4259.08 0.519203 2.47104 0
M  V30 43869 C 4260.39 2.98365 0.373985 0
M  V30 43870 C 4261.94 3.09684 0.454411 0
M  V30 43871 C 4262.41 4.55991 0.428492 0
M  V30 43872 N 4263.91 4.60615 0.488665 0
M  V30 43873 C 4264.64 5.71296 0.49077 0
M  V30 43874 N 4264.14 6.91351 0.447889 0
M  V30 43875 N 4265.93 5.59528 0.537077 0
M  V30 43876 H 4258.08 1.96019 -0.817932 0
M  V30 43877 H 4260.34 0.897061 -0.30657 0
M  V30 43878 H 4260.05 3.47191 -0.561384 0
M  V30 43879 H 4259.92 3.58088 1.18545 0
M  V30 43880 H 4262.31 2.60834 1.3802 0
M  V30 43881 H 4262.39 2.52878 -0.385565 0
M  V30 43882 H 4262.04 5.05497 -0.493436 0
M  V30 43883 H 4261.97 5.10657 1.28596 0
M  V30 43884 H 4264.46 3.74219 0.526189 0
M  V30 43885 H 4264.77 7.71469 0.453329 0
M  V30 43886 H 4263.11 6.93762 0.414629 0
M  V30 43887 H 4266.31 4.64638 0.568246 0
M  V30 43888 H 4266.48 6.45786 0.535248 0
M  V30 43889 N 4259.88 -0.346449 1.53745 0
M  V30 43890 C 4260.82 -1.44589 1.77839 0
M  V30 43891 C 4261.83 -1.48839 0.659607 0
M  V30 43892 O 4263.02 -1.51974 0.936279 0
M  V30 43893 C 4260.12 -2.83262 1.86054 0
M  V30 43894 C 4259.29 -3.02486 3.15945 0
M  V30 43895 C 4258.35 -4.21384 3.15154 0
M  V30 43896 O 4257.38 -4.15639 3.88887 0
M  V30 43897 N 4258.58 -5.29774 2.37319 0
M  V30 43898 H 4261.34 -1.24292 2.72711 0
M  V30 43899 H 4258.9 -0.536309 1.52759 0
M  V30 43900 H 4260.9 -3.60972 1.82979 0
M  V30 43901 H 4259.47 -2.96715 0.983805 0
M  V30 43902 H 4258.69 -2.12271 3.32167 0
M  V30 43903 H 4259.97 -3.1221 4.01749 0
M  V30 43904 H 4259.37 -5.37309 1.76961 0
M  V30 43905 H 4257.93 -6.05988 2.40045 0
M  V30 43906 N 4261.36 -1.45429 -0.607304 0
M  V30 43907 C 4262.59 -1.53217 -1.39783 0
M  V30 43908 C 4263.01 -0.165717 -1.87369 0
M  V30 43909 O 4262.37 0.8497 -1.60156 0
M  V30 43910 C 4262.42 -2.52115 -2.57818 0
M  V30 43911 O 4261.52 -2.03916 -3.58458 0
M  V30 43912 H 4260.86 -0.516483 -0.417303 0
M  V30 43913 H 4263.39 -1.90785 -0.739067 0
M  V30 43914 H 4263.4 -2.7093 -3.05059 0
M  V30 43915 H 4262.08 -3.51358 -2.22532 0
M  V30 43916 H 4260.66 -1.94978 -3.17865 0
M  V30 43917 N 4262.84 0.84983 -1.32724 0
M  V30 43918 C 4263.77 1.97427 -1.24678 0
M  V30 43919 C 4264.75 1.69605 -0.129611 0
M  V30 43920 O 4265.94 1.91586 -0.317582 0
M  V30 43921 C 4263.07 3.33362 -0.97403 0
M  V30 43922 C 4262.02 3.7555 -2.05296 0
M  V30 43923 C 4261.35 5.09169 -1.63253 0
M  V30 43924 C 4262.65 3.90501 -3.46852 0
M  V30 43925 H 4264.34 2.04417 -2.18756 0
M  V30 43926 H 4261.89 0.982113 -1.05312 0
M  V30 43927 H 4263.84 4.11583 -0.904278 0
M  V30 43928 H 4262.56 3.266 0.00238075 0
M  V30 43929 H 4261.22 2.99583 -2.11295 0
M  V30 43930 H 4260.87 4.98868 -0.643436 0
M  V30 43931 H 4260.57 5.38367 -2.35446 0
M  V30 43932 H 4262.09 5.89878 -1.57723 0
M  V30 43933 H 4263.51 4.59063 -3.43416 0
M  V30 43934 H 4261.91 4.31123 -4.17437 0
M  V30 43935 H 4262.98 2.93272 -3.8616 0
M  V30 43936 N 4264.32 1.16013 1.06671 0
M  V30 43937 C 4265.73 0.904233 1.31513 0
M  V30 43938 C 4265.93 -0.444987 1.96525 0
M  V30 43939 O 4264.99 -1.18537 2.22947 0
M  V30 43940 C 4266.3 2.05041 2.19952 0
M  V30 43941 C 4267.85 2.08573 2.3338 0
M  V30 43942 C 4268.33 3.22534 3.25171 0
M  V30 43943 N 4269.82 3.22226 3.32753 0
M  V30 43944 C 4270.55 4.07045 4.03859 0
M  V30 43945 N 4270.05 5.01943 4.7752 0
M  V30 43946 N 4271.84 3.95044 3.9987 0
M  V30 43947 H 4263.99 2.02884 0.628636 0
M  V30 43948 H 4266.26 0.885051 0.339688 0
M  V30 43949 H 4265.96 3.02472 1.79453 0
M  V30 43950 H 4265.84 1.98868 3.20517 0
M  V30 43951 H 4268.22 1.11737 2.73128 0
M  V30 43952 H 4268.3 2.18812 1.32495 0
M  V30 43953 H 4267.95 4.19627 2.8614 0
M  V30 43954 H 4267.88 3.09531 4.26026 0
M  V30 43955 H 4270.37 2.53507 2.80255 0
M  V30 43956 H 4270.68 5.63089 5.29292 0
M  V30 43957 H 4269.03 5.05925 4.76513 0
M  V30 43958 H 4272.22 3.20213 3.4144 0
M  V30 43959 H 4272.39 4.61369 4.55019 0
M  V30 43960 N 4265.8 -1.25139 0.958014 0
M  V30 43961 C 4266.73 -2.28105 0.499042 0
M  V30 43962 C 4267.71 -1.63864 -0.456359 0
M  V30 43963 O 4268.89 -1.90935 -0.354583 0
M  V30 43964 C 4266.02 -3.46597 -0.22079 0
M  V30 43965 C 4264.98 -4.2304 0.649681 0
M  V30 43966 C 4264.3 -5.34322 -0.201087 0
M  V30 43967 C 4265.6 -4.85354 1.92948 0
M  V30 43968 H 4267.3 -2.66748 1.35963 0
M  V30 43969 H 4264.84 -1.2823 0.655215 0
M  V30 43970 H 4266.8 -4.17755 -0.553031 0
M  V30 43971 H 4265.52 -3.06954 -1.11566 0
M  V30 43972 H 4264.18 -3.5367 0.965054 0
M  V30 43973 H 4263.83 -4.90918 -1.09581 0
M  V30 43974 H 4263.53 -5.86383 0.378057 0
M  V30 43975 H 4265.05 -6.08311 -0.528218 0
M  V30 43976 H 4266.46 -5.48637 1.66343 0
M  V30 43977 H 4264.86 -5.47606 2.45455 0
M  V30 43978 H 4265.93 -4.0735 2.63047 0
M  V30 43979 N 4267.27 -0.726981 -1.39831 0
M  V30 43980 C 4268.52 -0.270886 -2.00276 0
M  V30 43981 C 4268.84 1.14341 -1.5796 0
M  V30 43982 O 4268.11 1.77719 -0.824186 0
M  V30 43983 H 4266.69 -0.0971626 -0.740654 0
M  V30 43984 H 4269.36 -0.935153 -1.71 0
M  V30 43985 H 4268.45 -0.312947 -3.10527 0
M  V30 43986 N 4268.75 1.50303 -0.474008 0
M  V30 43987 C 4270 2.01942 0.0798161 0
M  V30 43988 C 4270.32 1.35787 1.39953 0
M  V30 43989 O 4269.59 0.504175 1.89301 0
M  V30 43990 H 4268.17 0.746293 0.032487 0
M  V30 43991 H 4270.83 1.84604 -0.625096 0
M  V30 43992 H 4269.93 3.11257 0.229198 0
M  V30 43993 N 4270.23 0.20673 1.56238 0
M  V30 43994 C 4271.46 -0.437309 2.02737 0
M  V30 43995 C 4271.88 -1.53597 1.0858 0
M  V30 43996 O 4271.24 -1.8116 0.0713213 0
M  V30 43997 C 4271.29 -0.959913 3.47589 0
M  V30 43998 O 4270.39 -2.07217 3.5656 0
M  V30 43999 H 4269.73 -0.100833 0.656299 0
M  V30 44000 H 4272.26 0.321021 2.02066 0
M  V30 44001 H 4272.27 -1.27354 3.87614 0
M  V30 44002 H 4270.95 -0.155707 4.15608 0
M  V30 44003 H 4269.52 -1.7663 3.28415 0
M  V30 44004 N 4271.71 -1.57458 -0.0667882 0
M  V30 44005 C 4272.66 -2.05078 -1.09753 0
M  V30 44006 C 4273.65 -0.957071 -1.39773 0
M  V30 44007 O 4274.86 -1.14216 -1.39121 0
M  V30 44008 H 4271.23 -0.653944 -0.371296 0
M  V30 44009 H 4273.2 -2.90786 -0.669795 0
M  V30 44010 C 4271.95 -2.51452 -2.4014 0
M  V30 44011 H 4271.27 -3.35206 -2.17892 0
M  V30 44012 H 4272.71 -2.8852 -3.10697 0
M  V30 44013 C 4271.17 -1.39955 -3.06454 0
M  V30 44014 O 4271.7 -0.744461 -3.94741 0
M  V30 44015 N 4269.91 -1.14343 -2.67159 0
M  V30 44016 H 4269.46 -1.67796 -1.95454 0
M  V30 44017 H 4269.41 -0.39948 -3.11852 0
M  V30 44018 N 4273.19 0.33829 -1.53926 0
M  V30 44019 C 4274.43 1.07794 -1.71425 0
M  V30 44020 C 4274.76 1.88479 -0.480186 0
M  V30 44021 O 4274.02 1.88157 0.538078 0
M  V30 44022 C 4274.32 2.04255 -2.93283 0
M  V30 44023 C 4273.98 1.3984 -4.28667 0
M  V30 44024 C 4272.64 1.22002 -4.65477 0
M  V30 44025 C 4275 0.934818 -5.12748 0
M  V30 44026 C 4272.32 0.564322 -5.8398 0
M  V30 44027 C 4274.68 0.293008 -6.31921 0
M  V30 44028 C 4273.34 0.102355 -6.67422 0
M  V30 44029 H 4272.61 0.394447 -0.62729 0
M  V30 44030 H 4275.26 0.356651 -1.8815 0
M  V30 44031 H 4273.56 2.82784 -2.71184 0
M  V30 44032 H 4275.26 2.61487 -3.04016 0
M  V30 44033 H 4271.85 1.54722 -3.99699 0
M  V30 44034 H 4276.03 1.06047 -4.84838 0
M  V30 44035 H 4271.29 0.405273 -6.10055 0
M  V30 44036 H 4275.46 -0.074272 -6.9636 0
M  V30 44037 H 4273.09 -0.407768 -7.59106 0
M  V30 44038 N 4274.67 1.45749 0.599583 0
M  V30 44039 C 4275.58 1.57584 1.73794 0
M  V30 44040 C 4276.59 0.459949 1.67811 0
M  V30 44041 O 4277.77 0.721751 1.88023 0
M  V30 44042 C 4274.83 1.54699 3.10273 0
M  V30 44043 C 4273.89 2.77389 3.27649 0
M  V30 44044 C 4273.13 2.74631 4.57617 0
M  V30 44045 O 4273.35 1.82414 5.40446 0
M  V30 44046 O 4272.28 3.65945 4.77878 0
M  V30 44047 H 4276.11 2.53821 1.66759 0
M  V30 44048 H 4273.69 1.2835 0.764629 0
M  V30 44049 H 4275.58 1.55726 3.9157 0
M  V30 44050 H 4274.25 0.616161 3.17782 0
M  V30 44051 H 4273.16 2.81921 2.45909 0
M  V30 44052 H 4274.49 3.69624 3.25022 0
M  V30 44053 N 4276.14 -0.84278 1.33173 0
M  V30 44054 C 4277.39 -1.59462 1.24162 0
M  V30 44055 C 4277.71 -1.94037 -0.193561 0
M  V30 44056 O 4276.98 -1.60633 -1.12132 0
M  V30 44057 H 4275.56 -0.591233 0.456565 0
M  V30 44058 H 4278.22 -1.00743 1.66844 0
M  V30 44059 H 4277.32 -2.52631 1.8326 0
M  V30 44060 N 4277.62 -1.16577 -1.06054 0
M  V30 44061 C 4278.86 -0.959489 -1.8048 0
M  V30 44062 C 4279.23 0.50355 -1.85279 0
M  V30 44063 O 4280.43 0.828618 -2.5571 0
M  V30 44064 C 4278.7 -1.57266 -3.20939 0
M  V30 44065 S 4280.26 -1.51136 -4.11951 0
M  V30 44066 H 4277.07 -0.345001 -0.621687 0
M  V30 44067 H 4279.68 -1.48366 -1.2731 0
M  V30 44068 H 4278.38 -2.63013 -3.15043 0
M  V30 44069 H 4277.91 -1.04792 -3.79186 0
M  V30 44070 H 4279.93 -0.513295 -4.93538 0
M  V30 44071 N 4279.1 1.2463 -0.964637 0
M  V30 44072 C 4280.35 1.9192 -0.620462 0
M  V30 44073 C 4280.66 1.76271 0.84782 0
M  V30 44074 O 4281.87 2.38223 1.30239 0
M  V30 44075 C 4280.32 3.43965 -1.05906 0
M  V30 44076 C 4279.93 3.68306 -2.55058 0
M  V30 44077 C 4281.68 4.17124 -0.787891 0
M  V30 44078 C 4279.58 5.13907 -2.92667 0
M  V30 44079 H 4278.51 0.71859 -0.228353 0
M  V30 44080 H 4281.16 1.41326 -1.17043 0
M  V30 44081 H 4279.55 3.93577 -0.437426 0
M  V30 44082 H 4280.72 3.29306 -3.22326 0
M  V30 44083 H 4279.03 3.08427 -2.79753 0
M  V30 44084 H 4281.63 5.24391 -1.04492 0
M  V30 44085 H 4281.97 4.15385 0.275859 0
M  V30 44086 H 4282.51 3.73452 -1.37035 0
M  V30 44087 H 4279.25 5.20765 -3.981 0
M  V30 44088 H 4278.77 5.53916 -2.30081 0
M  V30 44089 H 4280.45 5.82114 -2.82405 0
M  V30 44090 N 4280.58 0.734386 1.39444 0
M  V30 44091 C 4281.8 0.290939 2.05349 0
M  V30 44092 C 4282.23 -1.06559 1.55006 0
M  V30 44093 O 4281.59 -1.6751 0.693538 0
M  V30 44094 C 4281.63 0.301626 3.59336 0
M  V30 44095 O 4280.74 -0.710941 4.06226 0
M  V30 44096 H 4280.08 0.1324 0.650666 0
M  V30 44097 H 4282.61 1.00014 1.78489 0
M  V30 44098 H 4282.62 0.145802 4.07739 0
M  V30 44099 H 4281.29 1.29147 3.9534 0
M  V30 44100 H 4279.87 -0.521304 3.69238 0
M  V30 44101 N 4282.06 -1.50049 0.481972 0
M  V30 44102 C 4283 -2.30382 -0.320432 0
M  V30 44103 C 4284 -1.38146 -0.98041 0
M  V30 44104 O 4285.2 -1.55287 -0.910271 0
M  V30 44105 H 4281.58 -0.742008 -0.122183 0
M  V30 44106 H 4283.55 -2.96004 0.377357 0
M  V30 44107 C 4282.3 -3.18994 -1.38341 0
M  V30 44108 H 4281.62 -3.89883 -0.884964 0
M  V30 44109 H 4283.06 -3.78178 -1.91721 0
M  V30 44110 C 4281.52 -2.37317 -2.39128 0
M  V30 44111 O 4282.05 -2.06389 -3.44625 0
M  V30 44112 N 4280.26 -1.99694 -2.11118 0
M  V30 44113 H 4279.8 -2.25045 -1.2535 0
M  V30 44114 H 4279.76 -1.4535 -2.78785 0
M  V30 44115 N 4283.53 -0.215012 -1.56126 0
M  V30 44116 C 4284.78 0.419075 -1.98423 0
M  V30 44117 C 4285.11 1.59879 -1.10238 0
M  V30 44118 O 4284.39 1.93852 -0.158637 0
M  V30 44119 C 4284.67 0.859968 -3.49681 0
M  V30 44120 C 4284.52 -0.32293 -4.48639 0
M  V30 44121 C 4285.84 1.71847 -4.05163 0
M  V30 44122 H 4282.96 0.150854 -0.721396 0
M  V30 44123 H 4285.6 -0.309935 -1.87455 0
M  V30 44124 H 4283.75 1.48114 -3.59158 0
M  V30 44125 H 4285.43 -0.960976 -4.5118 0
M  V30 44126 H 4283.67 -0.971455 -4.22783 0
M  V30 44127 H 4284.34 0.028395 -5.51993 0
M  V30 44128 H 4286.82 1.19441 -3.98589 0
M  V30 44129 H 4285.69 1.99587 -5.11328 0
M  V30 44130 H 4285.95 2.67955 -3.51642 0
M  V30 44131 N 4285.01 1.57492 0.0584368 0
M  V30 44132 C 4286.26 1.87897 0.755038 0
M  V30 44133 C 4286.59 0.80853 1.76898 0
M  V30 44134 O 4285.84 -0.193994 1.94736 0
M  V30 44135 C 4286.14 3.25 1.48693 0
M  V30 44136 C 4285.81 4.46731 0.611727 0
M  V30 44137 C 4284.47 4.79771 0.370579 0
M  V30 44138 C 4286.82 5.212 0.0056692 0
M  V30 44139 C 4284.15 5.84685 -0.485889 0
M  V30 44140 C 4286.5 6.27021 -0.83833 0
M  V30 44141 C 4285.16 6.58553 -1.08922 0
M  V30 44142 H 4284.43 0.687565 0.276288 0
M  V30 44143 H 4287.08 1.91494 0.0154878 0
M  V30 44144 H 4285.39 3.17256 2.29904 0
M  V30 44145 H 4287.08 3.45765 2.03095 0
M  V30 44146 H 4283.67 4.2088 0.809818 0
M  V30 44147 H 4287.86 4.95977 0.179064 0
M  V30 44148 H 4283.11 6.07507 -0.68888 0
M  V30 44149 H 4287.29 6.83879 -1.31461 0
M  V30 44150 H 4284.91 7.39673 -1.75463 0
M  V30 44151 N 4286.49 -0.330122 1.54104 0
M  V30 44152 C 4287.74 -1.07042 1.72249 0
M  V30 44153 C 4288.07 -1.87883 0.491298 0
M  V30 44154 O 4287.34 -1.87647 -0.511731 0
M  V30 44155 C 4287.63 -2.00056 2.99416 0
M  V30 44156 C 4287.48 -1.22588 4.32773 0
M  V30 44157 C 4288.8 -2.99677 3.22307 0
M  V30 44158 H 4285.92 -0.38775 0.626752 0
M  V30 44159 H 4288.56 -0.347689 1.86792 0
M  V30 44160 H 4286.71 -2.61683 2.87149 0
M  V30 44161 H 4288.38 -0.634719 4.56912 0
M  V30 44162 H 4286.62 -0.528059 4.30574 0
M  V30 44163 H 4287.3 -1.90851 5.17958 0
M  V30 44164 H 4289.77 -2.4817 3.33993 0
M  V30 44165 H 4288.65 -3.61949 4.12655 0
M  V30 44166 H 4288.91 -3.71783 2.39228 0
M  V30 44167 N 4287.97 -1.46065 -0.591845 0
M  V30 44168 C 4288.9 -1.5196 -1.71583 0
M  V30 44169 C 4289.91 -0.408798 -1.57584 0
M  V30 44170 O 4291.1 -0.67669 -1.65176 0
M  V30 44171 C 4288.2 -1.37515 -3.09746 0
M  V30 44172 C 4287.38 -2.62552 -3.49836 0
M  V30 44173 C 4286.43 -2.42438 -4.67023 0
M  V30 44174 O 4285.46 -3.16123 -4.73344 0
M  V30 44175 N 4286.66 -1.48013 -5.61313 0
M  V30 44176 H 4289.43 -2.4887 -1.66984 0
M  V30 44177 H 4286.99 -1.42005 -0.777575 0
M  V30 44178 H 4288.98 -1.21846 -3.85922 0
M  V30 44179 H 4287.55 -0.488216 -3.08764 0
M  V30 44180 H 4286.77 -2.93228 -2.6346 0
M  V30 44181 H 4288.06 -3.45633 -3.73384 0
M  V30 44182 H 4287.46 -0.872329 -5.58934 0
M  V30 44183 H 4286.01 -1.38309 -6.36957 0
M  V30 44184 N 4289.45 0.835705 -1.33618 0
M  V30 44185 C 4290.86 1.12687 -1.13021 0
M  V30 44186 C 4291.06 2.01354 0.0767981 0
M  V30 44187 O 4290.12 2.40913 0.756126 0
M  V30 44188 C 4291.43 1.78591 -2.41921 0
M  V30 44189 C 4292.98 1.91143 -2.47858 0
M  V30 44190 C 4293.45 2.60462 -3.76727 0
M  V30 44191 N 4294.95 2.67973 -3.77816 0
M  V30 44192 C 4295.68 3.22306 -4.74243 0
M  V30 44193 N 4295.18 3.77303 -5.81046 0
M  V30 44194 N 4296.97 3.20588 -4.61714 0
M  V30 44195 H 4289.12 0.24566 -2.10975 0
M  V30 44196 H 4291.38 0.171509 -0.932356 0
M  V30 44197 H 4291.09 1.20901 -3.30266 0
M  V30 44198 H 4290.96 2.78581 -2.54307 0
M  V30 44199 H 4293.35 2.47986 -1.5996 0
M  V30 44200 H 4293.43 0.900923 -2.3941 0
M  V30 44201 H 4293.08 2.04277 -4.65009 0
M  V30 44202 H 4293.01 3.61991 -3.82453 0
M  V30 44203 H 4295.5 2.28976 -3.0063 0
M  V30 44204 H 4295.81 4.16975 -6.50655 0
M  V30 44205 H 4294.15 3.75582 -5.84776 0
M  V30 44206 H 4297.35 2.76881 -3.77431 0
M  V30 44207 H 4297.52 3.62629 -5.37033 0
M  V30 44208 N 4290.92 1.17138 1.05434 0
M  V30 44209 C 4291.85 0.90915 2.15074 0
M  V30 44210 C 4292.84 -0.147912 1.69456 0
M  V30 44211 O 4294.02 0.00181366 1.942 0
M  V30 44212 C 4291.15 0.41898 3.44763 0
M  V30 44213 C 4290.1 1.41495 4.03935 0
M  V30 44214 C 4289.43 0.782832 5.28938 0
M  V30 44215 C 4290.73 2.78736 4.41705 0
M  V30 44216 H 4292.42 1.82604 2.37268 0
M  V30 44217 H 4289.97 0.879396 1.14029 0
M  V30 44218 H 4291.92 0.222959 4.2081 0
M  V30 44219 H 4290.65 -0.533439 3.22214 0
M  V30 44220 H 4289.31 1.59767 3.29955 0
M  V30 44221 H 4288.95 -0.176346 5.02691 0
M  V30 44222 H 4288.65 1.44768 5.69488 0
M  V30 44223 H 4290.18 0.597029 6.07674 0
M  V30 44224 H 4291.59 2.64196 5.08796 0
M  V30 44225 H 4289.99 3.41775 4.93265 0
M  V30 44226 H 4291.06 3.33331 3.52162 0
M  V30 44227 N 4292.4 -1.24116 0.971232 0
M  V30 44228 C 4293.63 -1.96872 0.652392 0
M  V30 44229 C 4294.05 -1.7152 -0.772163 0
M  V30 44230 O 4293.41 -0.981078 -1.52462 0
M  V30 44231 C 4293.46 -3.48201 0.937449 0
M  V30 44232 O 4292.56 -4.12393 0.0247036 0
M  V30 44233 H 4291.9 -0.616636 0.246285 0
M  V30 44234 H 4294.43 -1.57798 1.30234 0
M  V30 44235 H 4294.44 -3.98607 0.870419 0
M  V30 44236 H 4293.12 -3.65981 1.97562 0
M  V30 44237 H 4291.7 -3.72617 0.145358 0
M  V30 44238 N 4293.88 -0.741771 -1.39052 0
M  V30 44239 C 4294.81 -0.121474 -2.33184 0
M  V30 44240 C 4295.79 0.716747 -1.54262 0
M  V30 44241 O 4296.98 0.660347 -1.82628 0
M  V30 44242 C 4294.11 0.78146 -3.38394 0
M  V30 44243 C 4293.06 0.0468798 -4.27974 0
M  V30 44244 C 4292.39 1.06728 -5.2394 0
M  V30 44245 C 4293.69 -1.11455 -5.1027 0
M  V30 44246 H 4295.38 -0.907774 -2.85307 0
M  V30 44247 H 4292.93 -0.437977 -1.37178 0
M  V30 44248 H 4294.88 1.22499 -4.03202 0
M  V30 44249 H 4293.6 1.59995 -2.84726 0
M  V30 44250 H 4292.26 -0.377101 -3.64655 0
M  V30 44251 H 4291.91 1.87952 -4.66565 0
M  V30 44252 H 4291.61 0.580502 -5.84726 0
M  V30 44253 H 4293.13 1.51037 -5.91625 0
M  V30 44254 H 4294.55 -0.749141 -5.68384 0
M  V30 44255 H 4292.95 -1.53141 -5.80231 0
M  V30 44256 H 4294.02 -1.93306 -4.44703 0
M  V30 44257 N 4295.36 1.49792 -0.489923 0
M  V30 44258 C 4296.58 2.07319 0.0578511 0
M  V30 44259 C 4297.01 1.34921 1.31064 0
M  V30 44260 O 4296.37 0.402546 1.76775 0
M  V30 44261 C 4296.41 3.59301 0.305771 0
M  V30 44262 O 4295.52 3.8853 1.38267 0
M  V30 44263 H 4294.86 0.663658 -0.0213127 0
M  V30 44264 H 4297.39 1.92744 -0.686369 0
M  V30 44265 H 4297.4 4.04402 0.540626 0
M  V30 44266 H 4296.07 4.11408 -0.609597 0
M  V30 44267 H 4294.65 3.5525 1.13365 0
M  V30 44268 N 4296.84 0.223289 1.5601 0
M  V30 44269 C 4298.25 -0.284244 1.84524 0
M  V30 44270 C 4298.6 -1.59345 1.14471 0
M  V30 44271 O 4297.72 -2.12384 0.41497 0
M  V30 44272 C 4298.32 -0.522507 3.34747 0
M  V30 44273 C 4296.88 -0.974345 3.6357 0
M  V30 44274 C 4296.02 -0.0383793 2.77273 0
M  V30 44275 H 4298.98 0.446439 1.52291 0
M  V30 44276 H 4299 -1.36828 3.55047 0
M  V30 44277 H 4298.51 0.430521 3.85705 0
M  V30 44278 H 4296.61 -1.94067 3.1807 0
M  V30 44279 H 4296.72 -0.847551 4.71544 0
M  V30 44280 H 4295.09 -0.545488 2.4879 0
M  V30 44281 H 4295.87 0.909597 3.31031 0
M  V30 44282 N 4298.31 -1.5752 -0.0500839 0
M  V30 44283 C 4299.22 -2.08544 -1.07455 0
M  V30 44284 C 4300.24 -1.0195 -1.41004 0
M  V30 44285 O 4301.42 -1.33557 -1.50746 0
M  V30 44286 C 4298.48 -2.53727 -2.36269 0
M  V30 44287 C 4297.54 -3.74714 -2.09494 0
M  V30 44288 C 4296.78 -4.17734 -3.32166 0
M  V30 44289 O 4297 -3.6044 -4.42085 0
M  V30 44290 O 4295.93 -5.10351 -3.19101 0
M  V30 44291 H 4299.76 -2.96194 -0.671013 0
M  V30 44292 H 4297.34 -1.47019 -0.265683 0
M  V30 44293 H 4299.23 -2.83214 -3.12038 0
M  V30 44294 H 4297.9 -1.69197 -2.7596 0
M  V30 44295 H 4296.81 -3.50279 -1.3136 0
M  V30 44296 H 4298.14 -4.60164 -1.74671 0
M  V30 44297 N 4299.79 0.321945 -1.54277 0
M  V30 44298 C 4301.04 1.06127 -1.72815 0
M  V30 44299 C 4301.37 1.87619 -0.501255 0
M  V30 44300 O 4300.65 1.87916 0.501773 0
M  V30 44301 C 4300.93 1.98465 -3.00472 0
M  V30 44302 C 4300.78 1.20291 -4.33417 0
M  V30 44303 C 4302.1 2.97964 -3.23891 0
M  V30 44304 H 4299.22 0.384421 -0.6288 0
M  V30 44305 H 4301.86 0.337778 -1.86973 0
M  V30 44306 H 4300.01 2.60156 -2.88532 0
M  V30 44307 H 4301.68 0.610479 -4.57243 0
M  V30 44308 H 4299.93 0.505217 -4.30848 0
M  V30 44309 H 4300.6 1.88101 -5.18962 0
M  V30 44310 H 4303.07 2.46395 -3.35304 0
M  V30 44311 H 4301.95 3.59756 -4.14569 0
M  V30 44312 H 4302.21 3.70509 -2.41196 0
M  V30 44313 N 4301.27 1.46377 0.58409 0
M  V30 44314 C 4302.2 1.59696 1.70351 0
M  V30 44315 C 4303.18 0.447353 1.64112 0
M  V30 44316 O 4304.37 0.673426 1.8215 0
M  V30 44317 C 4301.5 1.58563 3.0899 0
M  V30 44318 C 4300.45 2.72479 3.30059 0
M  V30 44319 C 4299.78 2.56407 4.69211 0
M  V30 44320 C 4301.08 4.14313 3.18028 0
M  V30 44321 H 4302.77 2.53402 1.59461 0
M  V30 44322 H 4300.32 1.21953 0.765728 0
M  V30 44323 H 4302.27 1.66475 3.87123 0
M  V30 44324 H 4300.99 0.614005 3.20776 0
M  V30 44325 H 4299.65 2.64034 2.54326 0
M  V30 44326 H 4299.3 1.57331 4.77761 0
M  V30 44327 H 4299 3.32813 4.84261 0
M  V30 44328 H 4300.52 2.66208 5.49514 0
M  V30 44329 H 4301.94 4.23877 3.86007 0
M  V30 44330 H 4300.34 4.91295 3.446 0
M  V30 44331 H 4301.41 4.34566 2.15128 0
M  V30 44332 N 4302.75 -0.828607 1.34059 0
M  V30 44333 C 4304.03 -1.56986 1.16683 0
M  V30 44334 C 4304.41 -2.09458 -0.26281 0
M  V30 44335 O 4303.75 -1.904 -1.26334 0
M  V30 44336 C 4303.96 -2.69569 2.21661 0
M  V30 44337 C 4305.31 -3.38484 2.56347 0
M  V30 44338 O 4306.34 -2.7982 2.20407 0
M  V30 44339 O 4305.2 -4.44409 3.18061 0
M  V30 44340 H 4302.29 -0.692578 0.451957 0
M  V30 44341 H 4304.84 -0.870473 1.45674 0
M  V30 44342 H 4303.61 -2.28509 3.17647 0
M  V30 44343 H 4303.23 -3.47162 1.93815 0
M  V30 44344 N 4304.23 -1.17696 -1.04812 0
M  V30 44345 C 4305.16 -0.920543 -2.14589 0
M  V30 44346 C 4306.14 0.138924 -1.69532 0
M  V30 44347 O 4307.32 -0.0121125 -1.94196 0
M  V30 44348 C 4304.45 -0.437258 -3.44536 0
M  V30 44349 C 4303.41 -1.43635 -4.03179 0
M  V30 44350 C 4302.73 -0.810872 -5.28516 0
M  V30 44351 C 4304.03 -2.81074 -4.40221 0
M  V30 44352 H 4305.73 -1.8386 -2.36296 0
M  V30 44353 H 4303.27 -0.885431 -1.13561 0
M  V30 44354 H 4305.23 -0.245273 -4.20686 0
M  V30 44355 H 4303.95 0.516344 -3.22493 0
M  V30 44356 H 4302.61 -1.61514 -3.29103 0
M  V30 44357 H 4302.26 0.149685 -5.02777 0
M  V30 44358 H 4301.96 -1.47786 -5.68712 0
M  V30 44359 H 4303.48 -0.629247 -6.07349 0
M  V30 44360 H 4304.9 -2.6689 -5.07388 0
M  V30 44361 H 4303.29 -3.44386 -4.91445 0
M  V30 44362 H 4304.36 -3.35194 -3.5039 0
M  V30 44363 N 4305.71 1.23599 -0.977801 0
M  V30 44364 C 4306.93 1.95983 -0.663185 0
M  V30 44365 C 4307.35 1.72414 0.769346 0
M  V30 44366 O 4306.71 1.01398 1.51739 0
M  V30 44367 C 4306.76 3.49042 -0.940847 0
M  V30 44368 O 4306.48 3.71811 -2.31707 0
M  V30 44369 C 4307.98 4.38629 -0.641822 0
M  V30 44370 H 4305.2 0.624052 -0.246576 0
M  V30 44371 H 4307.74 1.57159 -1.30848 0
M  V30 44372 H 4305.9 3.85891 -0.341605 0
M  V30 44373 H 4306.31 4.66123 -2.40477 0
M  V30 44374 H 4307.79 5.44835 -0.886485 0
M  V30 44375 H 4308.26 4.37148 0.424073 0
M  V30 44376 H 4308.87 4.07383 -1.22143 0
M  V30 44377 N 4307.18 0.749135 1.38657 0
M  V30 44378 C 4308.41 0.312703 2.05029 0
M  V30 44379 C 4308.83 -1.04909 1.56127 0
M  V30 44380 O 4308.19 -1.66765 0.711266 0
M  V30 44381 C 4308.24 0.339721 3.58996 0
M  V30 44382 O 4307.34 -0.667816 4.06957 0
M  V30 44383 H 4306.68 0.139294 0.649225 0
M  V30 44384 H 4309.21 1.01901 1.77418 0
M  V30 44385 H 4309.22 0.18904 4.07562 0
M  V30 44386 H 4307.9 1.33332 3.93948 0
M  V30 44387 H 4306.48 -0.482112 3.6977 0
M  V30 44388 N 4308.66 -1.4953 0.49786 0
M  V30 44389 C 4309.61 -2.30709 -0.295979 0
M  V30 44390 C 4310.6 -1.39178 -0.965702 0
M  V30 44391 O 4311.81 -1.56244 -0.89375 0
M  V30 44392 H 4308.18 -0.743262 -0.114306 0
M  V30 44393 H 4310.16 -2.95587 0.408731 0
M  V30 44394 C 4308.9 -3.20443 -1.3495 0
M  V30 44395 H 4308.23 -3.90799 -0.843562 0
M  V30 44396 H 4309.67 -3.80191 -1.877 0
M  V30 44397 C 4308.13 -2.3984 -2.36598 0
M  V30 44398 O 4308.66 -2.10033 -3.42417 0
M  V30 44399 N 4306.86 -2.01922 -2.08988 0
M  V30 44400 H 4306.41 -2.26362 -1.22956 0
M  V30 44401 H 4306.37 -1.48298 -2.77227 0
M  V30 44402 N 4310.14 -0.23156 -1.5589 0
M  V30 44403 C 4311.36 0.405 -2.03407 0
M  V30 44404 C 4311.79 1.5185 -1.11009 0
M  V30 44405 O 4311.15 1.81023 -0.100133 0
M  V30 44406 C 4311.2 0.904493 -3.49072 0
M  V30 44407 O 4310.3 2.01518 -3.59812 0
M  V30 44408 H 4309.64 0.0903795 -0.65782 0
M  V30 44409 H 4312.17 -0.353127 -2.0153 0
M  V30 44410 H 4312.18 1.21171 -3.89591 0
M  V30 44411 H 4310.86 0.0895676 -4.15804 0
M  V30 44412 H 4309.43 1.71382 -3.31183 0
M  V30 44413 N 4311.62 1.57545 0.0417295 0
M  V30 44414 C 4312.55 2.08762 1.04598 0
M  V30 44415 C 4313.53 0.987392 1.38508 0
M  V30 44416 O 4314.71 1.2619 1.47613 0
M  V30 44417 C 4311.84 2.55653 2.35072 0
M  V30 44418 C 4310.8 3.69825 2.15437 0
M  V30 44419 C 4310.12 4.02877 3.51559 0
M  V30 44420 C 4311.42 4.98743 1.55089 0
M  V30 44421 H 4313.12 2.92917 0.619681 0
M  V30 44422 H 4310.66 1.40912 0.296634 0
M  V30 44423 H 4312.62 2.90102 3.05645 0
M  V30 44424 H 4311.34 1.68565 2.79738 0
M  V30 44425 H 4310 3.35706 1.473 0
M  V30 44426 H 4309.65 3.12874 3.93851 0
M  V30 44427 H 4309.35 4.79773 3.39252 0
M  V30 44428 H 4310.87 4.39849 4.23515 0
M  V30 44429 H 4312.29 5.3123 2.15564 0
M  V30 44430 H 4310.68 5.80164 1.53393 0
M  V30 44431 H 4311.75 4.82154 0.515352 0
M  V30 44432 N 4313.1 -0.313759 1.54445 0
M  V30 44433 C 4314.04 -1.38651 1.84512 0
M  V30 44434 C 4315.01 -1.50953 0.692983 0
M  V30 44435 O 4316.2 -1.66017 0.940373 0
M  V30 44436 C 4313.34 -2.7486 2.08677 0
M  V30 44437 C 4312.45 -2.71109 3.36339 0
M  V30 44438 C 4311.59 -3.99229 3.50413 0
M  V30 44439 C 4310.62 -3.89825 4.71914 0
M  V30 44440 N 4309.76 -5.09694 4.82862 0
M  V30 44441 H 4314.6 -1.1231 2.76026 0
M  V30 44442 H 4312.14 -0.543472 1.36692 0
M  V30 44443 H 4314.1 -3.54056 2.20681 0
M  V30 44444 H 4312.73 -2.99488 1.20444 0
M  V30 44445 H 4311.78 -1.83849 3.33022 0
M  V30 44446 H 4313.09 -2.60046 4.25649 0
M  V30 44447 H 4312.24 -4.86859 3.62013 0
M  V30 44448 H 4310.98 -4.1311 2.59213 0
M  V30 44449 H 4309.99 -3.00579 4.60361 0
M  V30 44450 H 4311.21 -3.775 5.64509 0
M  V30 44451 H 4309.16 -5.24063 3.94581 0
M  V30 44452 H 4309.08 -5.01005 5.66154 0
M  V30 44453 H 4310.34 -5.99011 4.98804 0
M  V30 44454 N 4314.57 -1.46684 -0.576319 0
M  V30 44455 C 4315.99 -1.3178 -0.900337 0
M  V30 44456 C 4316.19 -0.293999 -1.99344 0
M  V30 44457 O 4315.25 0.301201 -2.50697 0
M  V30 44458 C 4316.56 -2.70585 -1.31165 0
M  V30 44459 C 4318.11 -2.78724 -1.42414 0
M  V30 44460 C 4318.58 -4.18126 -1.86908 0
M  V30 44461 N 4320.07 -4.20574 -1.94091 0
M  V30 44462 C 4320.81 -5.25334 -2.29808 0
M  V30 44463 N 4320.3 -6.40416 -2.64271 0
M  V30 44464 N 4322.1 -5.12703 -2.30417 0
M  V30 44465 H 4314.25 -2.119 0.145659 0
M  V30 44466 H 4316.51 -0.947997 0.00249463 0
M  V30 44467 H 4316.22 -3.46844 -0.582423 0
M  V30 44468 H 4316.09 -3.0111 -2.27184 0
M  V30 44469 H 4318.48 -2.0275 -2.14421 0
M  V30 44470 H 4318.56 -2.51877 -0.446297 0
M  V30 44471 H 4318.2 -4.94598 -1.15477 0
M  V30 44472 H 4318.13 -4.42385 -2.85662 0
M  V30 44473 H 4320.62 -3.37543 -1.69921 0
M  V30 44474 H 4320.94 -7.16123 -2.90496 0
M  V30 44475 H 4319.28 -6.43767 -2.61895 0
M  V30 44476 H 4322.47 -4.21831 -2.02919 0
M  V30 44477 H 4322.65 -5.94457 -2.57924 0
M  V30 44478 N 4316.05 0.821486 -1.34497 0
M  V30 44479 C 4317.33 1.56365 -1.17514 0
M  V30 44480 C 4317.71 2.09594 0.251698 0
M  V30 44481 O 4317.06 1.91067 1.25322 0
M  V30 44482 C 4317.27 2.68389 -2.23088 0
M  V30 44483 C 4318.61 3.3712 -2.58138 0
M  V30 44484 O 4319.64 2.78647 -2.21888 0
M  V30 44485 O 4318.5 4.42716 -3.20413 0
M  V30 44486 H 4315.59 0.690171 -0.455623 0
M  V30 44487 H 4318.14 0.862735 -1.46133 0
M  V30 44488 H 4316.91 2.26821 -3.18854 0
M  V30 44489 H 4316.53 3.46129 -1.95653 0
M  V30 44490 N 4317.53 1.1825 1.04186 0
M  V30 44491 C 4318.78 0.97857 1.77628 0
M  V30 44492 C 4319.11 -0.490724 1.87898 0
M  V30 44493 O 4318.38 -1.36436 1.3862 0
M  V30 44494 C 4318.67 1.63258 3.20966 0
M  V30 44495 C 4318.52 3.17465 3.18647 0
M  V30 44496 C 4319.84 1.34483 4.19049 0
M  V30 44497 H 4316.96 0.356915 0.644811 0
M  V30 44498 H 4319.6 1.45899 1.21711 0
M  V30 44499 H 4317.75 1.22408 3.68712 0
M  V30 44500 H 4319.42 3.67441 2.78899 0
M  V30 44501 H 4317.67 3.49688 2.56711 0
M  V30 44502 H 4318.34 3.58362 4.19858 0
M  V30 44503 H 4320.81 1.69874 3.79845 0
M  V30 44504 H 4319.69 1.82813 5.17562 0
M  V30 44505 H 4319.95 0.267486 4.4129 0
M  V30 44506 N 4319.01 -1.23079 0.984342 0
M  V30 44507 C 4320.23 -1.96169 0.673236 0
M  V30 44508 C 4320.66 -1.7233 -0.753928 0
M  V30 44509 O 4320.02 -0.997194 -1.51412 0
M  V30 44510 C 4320.06 -3.47188 0.974327 0
M  V30 44511 O 4319.17 -4.12343 0.068442 0
M  V30 44512 H 4318.51 -0.613989 0.252812 0
M  V30 44513 H 4321.04 -1.56408 1.319 0
M  V30 44514 H 4321.05 -3.97662 0.912647 0
M  V30 44515 H 4319.72 -3.63865 2.01433 0
M  V30 44516 H 4318.3 -3.72441 0.184871 0
M  V30 44517 N 4320.49 -0.756478 -1.38258 0
M  V30 44518 C 4321.42 -0.146199 -2.33042 0
M  V30 44519 C 4322.4 0.700345 -1.55013 0
M  V30 44520 O 4323.58 0.640939 -1.83318 0
M  V30 44521 C 4320.71 0.745525 -3.39204 0
M  V30 44522 C 4319.67 0.00148472 -4.28 0
M  V30 44523 C 4318.99 1.01165 -5.25043 0
M  V30 44524 C 4320.29 -1.16861 -5.09059 0
M  V30 44525 H 4321.99 -0.937984 -2.84328 0
M  V30 44526 H 4319.53 -0.452502 -1.36706 0
M  V30 44527 H 4321.49 1.18216 -4.04479 0
M  V30 44528 H 4320.21 1.56966 -2.86407 0
M  V30 44529 H 4318.87 -0.415756 -3.64235 0
M  V30 44530 H 4318.52 1.82993 -4.68532 0
M  V30 44531 H 4318.22 0.518451 -5.85308 0
M  V30 44532 H 4319.74 1.44754 -5.93194 0
M  V30 44533 H 4321.15 -0.809384 -5.67558 0
M  V30 44534 H 4319.55 -1.59286 -5.78574 0
M  V30 44535 H 4320.62 -1.98012 -4.42628 0
M  V30 44536 N 4321.96 1.49264 -0.505783 0
M  V30 44537 C 4323.21 2.02066 0.0369632 0
M  V30 44538 C 4323.53 1.38725 1.37041 0
M  V30 44539 O 4322.8 0.544215 1.88189 0
M  V30 44540 H 4321.38 0.746814 0.0166497 0
M  V30 44541 H 4324.05 1.83236 -0.664112 0
M  V30 44542 H 4323.14 3.11673 0.163125 0
M  V30 44543 N 4323.44 0.239823 1.55765 0
M  V30 44544 C 4324.69 -0.386117 1.98377 0
M  V30 44545 C 4325.01 -1.58982 1.12915 0
M  V30 44546 O 4324.28 -1.94768 0.210308 0
M  V30 44547 H 4322.86 -0.145648 0.732663 0
M  V30 44548 H 4325.52 0.336968 1.91965 0
M  V30 44549 H 4324.62 -0.700069 3.04147 0
M  V30 44550 N 4324.92 -1.57565 -0.0333739 0
M  V30 44551 C 4326.16 -1.90922 -0.729944 0
M  V30 44552 C 4326.52 -0.837931 -1.7275 0
M  V30 44553 O 4327.73 -1.05571 -2.47201 0
M  V30 44554 C 4326 -3.2944 -1.38578 0
M  V30 44555 S 4327.56 -3.84624 -2.1121 0
M  V30 44556 H 4324.37 -0.668579 -0.241915 0
M  V30 44557 H 4326.98 -1.95494 0.015292 0
M  V30 44558 H 4325.68 -4.05277 -0.646459 0
M  V30 44559 H 4325.21 -3.28161 -2.16966 0
M  V30 44560 H 4327.23 -3.63004 -3.38294 0
M  V30 44561 N 4326.4 0.305564 -1.54609 0
M  V30 44562 C 4327.62 1.06476 -1.77982 0
M  V30 44563 C 4328.05 1.80317 -0.535487 0
M  V30 44564 O 4327.41 1.73868 0.513783 0
M  V30 44565 C 4327.45 2.02454 -2.98403 0
M  V30 44566 O 4326.56 3.10676 -2.71209 0
M  V30 44567 H 4325.9 0.306104 -0.589234 0
M  V30 44568 H 4328.43 0.344376 -2.01681 0
M  V30 44569 H 4328.44 2.45002 -3.26248 0
M  V30 44570 H 4327.11 1.48114 -3.88632 0
M  V30 44571 H 4325.69 2.72675 -2.54367 0
M  V30 44572 N 4327.88 1.46988 0.568532 0
M  V30 44573 C 4328.81 1.61494 1.68648 0
M  V30 44574 C 4329.79 0.464735 1.63628 0
M  V30 44575 O 4330.97 0.692708 1.81425 0
M  V30 44576 C 4328.1 1.61832 3.07291 0
M  V30 44577 C 4327.06 2.75964 3.27151 0
M  V30 44578 C 4326.38 2.61369 4.66466 0
M  V30 44579 C 4327.68 4.17663 3.13616 0
M  V30 44580 H 4329.38 2.55079 1.56764 0
M  V30 44581 H 4326.92 1.22759 0.75275 0
M  V30 44582 H 4328.88 1.70572 3.85335 0
M  V30 44583 H 4327.6 0.647993 3.20107 0
M  V30 44584 H 4326.26 2.66717 2.51511 0
M  V30 44585 H 4325.91 1.6239 4.76066 0
M  V30 44586 H 4325.61 3.37931 4.80704 0
M  V30 44587 H 4327.13 2.72021 5.4666 0
M  V30 44588 H 4328.54 4.27947 3.81489 0
M  V30 44589 H 4326.94 4.94923 3.39369 0
M  V30 44590 H 4328.01 4.36824 2.10507 0
M  V30 44591 N 4329.35 -0.814342 1.3493 0
M  V30 44592 C 4330.3 -1.94716 1.27234 0
M  V30 44593 C 4331.3 -1.68557 0.168759 0
M  V30 44594 O 4332.5 -1.76869 0.334266 0
M  V30 44595 H 4328.88 -0.639605 0.395486 0
M  V30 44596 H 4330.85 -1.98328 2.22954 0
M  V30 44597 C 4329.6 -3.3136 1.05336 0
M  V30 44598 H 4328.92 -3.52042 1.89491 0
M  V30 44599 H 4330.36 -4.1105 1.0399 0
M  V30 44600 C 4328.82 -3.36022 -0.243073 0
M  V30 44601 O 4329.35 -3.82033 -1.24153 0
M  V30 44602 N 4327.56 -2.89256 -0.279163 0
M  V30 44603 H 4327.1 -2.52006 0.533937 0
M  V30 44604 H 4327.06 -2.92757 -1.14633 0
M  V30 44605 N 4330.83 -1.18801 -1.03557 0
M  V30 44606 C 4331.78 -0.91966 -2.11686 0
M  V30 44607 C 4332.75 0.142929 -1.65484 0
M  V30 44608 O 4333.93 0.00220619 -1.908 0
M  V30 44609 C 4331.07 -0.457096 -3.42059 0
M  V30 44610 C 4330.19 -1.58569 -4.01846 0
M  V30 44611 C 4329.32 -1.07533 -5.20202 0
M  V30 44612 C 4328.36 -2.17827 -5.72029 0
M  V30 44613 N 4327.5 -1.68148 -6.81668 0
M  V30 44614 H 4332.34 -1.8455 -2.33977 0
M  V30 44615 H 4329.88 -0.920193 -1.14764 0
M  V30 44616 H 4331.83 -0.170353 -4.16852 0
M  V30 44617 H 4330.46 0.431759 -3.19899 0
M  V30 44618 H 4329.52 -1.9878 -3.24331 0
M  V30 44619 H 4330.83 -2.41691 -4.36333 0
M  V30 44620 H 4329.98 -0.74342 -6.02128 0
M  V30 44621 H 4328.72 -0.213757 -4.87231 0
M  V30 44622 H 4327.73 -2.51857 -4.88721 0
M  V30 44623 H 4328.95 -3.04429 -6.07042 0
M  V30 44624 H 4326.9 -0.842878 -6.50562 0
M  V30 44625 H 4326.81 -2.44865 -7.15246 0
M  V30 44626 H 4328.08 -1.379 -7.67205 0
M  V30 44627 N 4332.31 1.22555 -0.990855 0
M  V30 44628 C 4333.72 1.7304 -0.700996 0
M  V30 44629 C 4334.07 1.79931 0.782251 0
M  V30 44630 O 4333.2 1.44423 1.61155 0
M  V30 44631 C 4333.79 3.14266 -1.2658 0
M  V30 44632 C 4332.35 3.62165 -1.02536 0
M  V30 44633 C 4331.5 2.40107 -1.38722 0
M  V30 44634 H 4334.45 1.07932 -1.16346 0
M  V30 44635 H 4334.47 3.75021 -0.643364 0
M  V30 44636 H 4333.98 3.09218 -2.34533 0
M  V30 44637 H 4332.08 3.72581 0.0376318 0
M  V30 44638 H 4332.2 4.48405 -1.6873 0
M  V30 44639 H 4330.56 2.41618 -0.805793 0
M  V30 44640 H 4331.34 2.37722 -2.47675 0
M  V30 44641 N 4333.79 0.763799 1.37855 0
M  V30 44642 C 4335.2 0.390941 1.82561 0
M  V30 44643 C 4335.55 -1.08185 1.63678 0
M  V30 44644 O 4334.68 -1.83718 1.14353 0
M  V30 44645 C 4335.27 0.702804 3.3143 0
M  V30 44646 C 4333.83 0.383099 3.74445 0
M  V30 44647 C 4332.98 0.950742 2.60492 0
M  V30 44648 H 4335.93 0.959112 1.26439 0
M  V30 44649 H 4335.95 -0.015386 3.80497 0
M  V30 44650 H 4335.46 1.77478 3.45142 0
M  V30 44651 H 4333.56 -0.681882 3.66307 0
M  V30 44652 H 4333.68 0.885791 4.7084 0
M  V30 44653 H 4332.04 0.375471 2.51917 0
M  V30 44654 H 4332.82 2.02796 2.77 0
M  V30 44655 N 4335.27 -1.48993 0.513692 0
M  V30 44656 C 4336.51 -2.02483 -0.0262985 0
M  V30 44657 C 4336.84 -1.39229 -1.35815 0
M  V30 44658 O 4336.1 -0.521633 -1.8862 0
M  V30 44659 C 4336.4 -3.56757 -0.214266 0
M  V30 44660 C 4336.06 -4.38714 1.04117 0
M  V30 44661 C 4334.72 -4.60829 1.38528 0
M  V30 44662 C 4337.08 -4.86303 1.87508 0
M  V30 44663 C 4334.4 -5.27778 2.56257 0
M  V30 44664 C 4336.76 -5.54547 3.04401 0
M  V30 44665 C 4335.42 -5.74904 3.39177 0
M  V30 44666 H 4334.69 -0.740938 -0.00962332 0
M  V30 44667 H 4337.34 -1.79156 0.67642 0
M  V30 44668 H 4335.64 -3.78834 -0.999619 0
M  V30 44669 H 4337.34 -3.9575 -0.646732 0
M  V30 44670 H 4333.93 -4.21751 0.763157 0
M  V30 44671 H 4338.11 -4.69034 1.62236 0
M  V30 44672 H 4333.37 -5.41739 2.83423 0
M  V30 44673 H 4337.54 -5.90393 3.69335 0
M  V30 44674 H 4335.17 -6.26555 4.30503 0
M  V30 44675 N 4336.75 -0.248081 -1.55635 0
M  V30 44676 C 4337.68 0.645136 -2.24411 0
M  V30 44677 C 4338.66 1.18037 -1.22479 0
M  V30 44678 O 4339.84 1.2195 -1.51135 0
M  V30 44679 C 4336.97 1.84166 -2.94449 0
M  V30 44680 C 4335.93 1.43915 -4.03079 0
M  V30 44681 C 4335.25 2.7166 -4.60549 0
M  V30 44682 C 4336.55 0.60934 -5.18733 0
M  V30 44683 H 4338.25 0.0716425 -2.99314 0
M  V30 44684 H 4335.79 0.0330177 -1.43962 0
M  V30 44685 H 4337.74 2.47219 -3.41263 0
M  V30 44686 H 4336.47 2.44055 -2.17036 0
M  V30 44687 H 4335.13 0.831949 -3.57035 0
M  V30 44688 H 4334.78 3.29749 -3.79835 0
M  V30 44689 H 4334.48 2.4545 -5.3388 0
M  V30 44690 H 4336 3.35609 -5.10097 0
M  V30 44691 H 4337.41 1.1442 -5.61766 0
M  V30 44692 H 4335.81 0.443256 -5.98461 0
M  V30 44693 H 4336.88 -0.378172 -4.83423 0
M  V30 44694 N 4338.22 1.5758 0.0250174 0
M  V30 44695 C 4339.16 2.02214 1.05757 0
M  V30 44696 C 4340.13 0.907238 1.34937 0
M  V30 44697 O 4341.32 1.1734 1.47525 0
M  V30 44698 C 4338.45 2.39862 2.39132 0
M  V30 44699 C 4337.49 3.61835 2.25782 0
M  V30 44700 S 4338.32 5.10805 1.60743 0
M  V30 44701 C 4339.48 5.51699 2.956 0
M  V30 44702 H 4339.71 2.8948 0.677414 0
M  V30 44703 H 4337.25 1.52599 0.23512 0
M  V30 44704 H 4339.2 2.62222 3.15832 0
M  V30 44705 H 4337.87 1.53041 2.74294 0
M  V30 44706 H 4337.06 3.85846 3.24252 0
M  V30 44707 H 4336.66 3.39347 1.57226 0
M  V30 44708 H 4338.95 5.5263 3.91926 0
M  V30 44709 H 4339.9 6.51962 2.76317 0
M  V30 44710 H 4340.3 4.7921 2.98358 0
M  V30 44711 N 4339.7 -0.29736 1.54769 0
M  V30 44712 C 4340.63 -1.37153 1.88974 0
M  V30 44713 C 4341.61 -1.52721 0.749019 0
M  V30 44714 O 4342.8 -1.66169 1.00507 0
M  V30 44715 C 4339.93 -2.73515 2.14025 0
M  V30 44716 C 4338.88 -2.72708 3.2987 0
M  V30 44717 C 4338.21 -4.12393 3.40347 0
M  V30 44718 C 4339.51 -2.34126 4.66886 0
M  V30 44719 H 4341.2 -1.08775 2.78941 0
M  V30 44720 H 4338.75 -0.521825 1.34212 0
M  V30 44721 H 4340.7 -3.48751 2.3654 0
M  V30 44722 H 4339.42 -3.03426 1.20833 0
M  V30 44723 H 4338.08 -1.99929 3.07285 0
M  V30 44724 H 4337.73 -4.39486 2.44665 0
M  V30 44725 H 4337.43 -4.12753 4.18221 0
M  V30 44726 H 4338.96 -4.89403 3.65126 0
M  V30 44727 H 4340.37 -2.99079 4.89106 0
M  V30 44728 H 4338.77 -2.45693 5.47499 0
M  V30 44729 H 4339.84 -1.29253 4.67356 0
M  V30 44730 N 4341.18 -1.47287 -0.560729 0
M  V30 44731 C 4342.11 -1.62386 -1.67789 0
M  V30 44732 C 4343.09 -0.473406 -1.6338 0
M  V30 44733 O 4344.28 -0.702319 -1.81056 0
M  V30 44734 C 4341.41 -1.63459 -3.06429 0
M  V30 44735 C 4340.36 -2.77695 -3.25683 0
M  V30 44736 C 4339.69 -2.6384 -4.65073 0
M  V30 44737 C 4340.99 -4.1932 -3.11396 0
M  V30 44738 H 4342.68 -2.55907 -1.55409 0
M  V30 44739 H 4340.23 -1.23156 -0.746229 0
M  V30 44740 H 4342.18 -1.72613 -3.84425 0
M  V30 44741 H 4340.9 -0.66496 -3.19759 0
M  V30 44742 H 4339.56 -2.68047 -2.50093 0
M  V30 44743 H 4339.21 -1.64912 -4.75198 0
M  V30 44744 H 4338.91 -3.40476 -4.78905 0
M  V30 44745 H 4340.43 -2.74917 -5.45209 0
M  V30 44746 H 4341.85 -4.29964 -3.79214 0
M  V30 44747 H 4340.24 -4.96715 -3.3674 0
M  V30 44748 H 4341.31 -4.37934 -2.08187 0
M  V30 44749 N 4342.66 0.807175 -1.3536 0
M  V30 44750 C 4343.6 1.91898 -1.28234 0
M  V30 44751 C 4344.57 1.65381 -0.1544 0
M  V30 44752 O 4345.76 1.87782 -0.338004 0
M  V30 44753 C 4342.9 3.2843 -1.05963 0
M  V30 44754 C 4342.01 3.67136 -2.27673 0
M  V30 44755 C 4341.15 4.92695 -1.98557 0
M  V30 44756 C 4340.19 5.24028 -3.16324 0
M  V30 44757 N 4339.32 6.40767 -2.86988 0
M  V30 44758 H 4344.16 1.97325 -2.23308 0
M  V30 44759 H 4341.7 0.965197 -1.11006 0
M  V30 44760 H 4343.66 4.07136 -0.910823 0
M  V30 44761 H 4342.29 3.22472 -0.145503 0
M  V30 44762 H 4341.34 2.83695 -2.53419 0
M  V30 44763 H 4342.65 3.86252 -3.15612 0
M  V30 44764 H 4341.81 5.79227 -1.80503 0
M  V30 44765 H 4340.55 4.75614 -1.07901 0
M  V30 44766 H 4339.55 4.35987 -3.34955 0
M  V30 44767 H 4340.78 5.4304 -4.0778 0
M  V30 44768 H 4338.72 6.25112 -1.98925 0
M  V30 44769 H 4338.64 6.6013 -3.68462 0
M  V30 44770 H 4339.91 7.30327 -2.72474 0
M  V30 44771 N 4344.14 1.19348 1.02926 0
M  V30 44772 C 4345.38 0.993912 1.75971 0
M  V30 44773 C 4345.7 -0.476489 1.89089 0
M  V30 44774 O 4344.97 -1.34512 1.42419 0
M  V30 44775 H 4343.55 0.364764 0.651887 0
M  V30 44776 H 4346.22 1.50235 1.24159 0
M  V30 44777 H 4345.31 1.44162 2.7681 0
M  V30 44778 N 4345.61 -1.22028 0.997341 0
M  V30 44779 C 4346.84 -1.95444 0.694005 0
M  V30 44780 C 4347.26 -1.7312 -0.735608 0
M  V30 44781 O 4346.62 -1.0132 -1.50346 0
M  V30 44782 C 4346.67 -3.46135 1.0111 0
M  V30 44783 O 4345.77 -4.12247 0.112173 0
M  V30 44784 H 4345.11 -0.611273 0.25931 0
M  V30 44785 H 4347.64 -1.55 1.33552 0
M  V30 44786 H 4347.65 -3.96671 0.954773 0
M  V30 44787 H 4346.33 -3.61708 2.05281 0
M  V30 44788 H 4344.91 -3.72224 0.224363 0
M  V30 44789 N 4347.09 -0.771099 -1.37448 0
M  V30 44790 C 4348.32 -0.346489 -2.03978 0
M  V30 44791 C 4348.74 1.0311 -1.58158 0
M  V30 44792 O 4348.09 1.65806 -0.76254 0
M  V30 44793 C 4348.14 -0.379811 -3.59499 0
M  V30 44794 O 4347.86 -1.70305 -4.03643 0
M  V30 44795 C 4349.37 0.0564765 -4.43264 0
M  V30 44796 H 4346.59 -0.145292 -0.655081 0
M  V30 44797 H 4349.13 -1.04484 -1.75793 0
M  V30 44798 H 4347.28 0.269955 -3.86458 0
M  V30 44799 H 4347.7 -1.64123 -4.9816 0
M  V30 44800 H 4349.17 -0.0179932 -5.51997 0
M  V30 44801 H 4349.65 1.10676 -4.25026 0
M  V30 44802 H 4350.26 -0.565077 -4.21529 0
M  V30 44803 N 4348.57 1.48719 -0.521586 0
M  V30 44804 C 4349.99 1.58594 -0.17888 0
M  V30 44805 C 4350.19 1.52457 1.31754 0
M  V30 44806 O 4349.24 1.40924 2.09515 0
M  V30 44807 C 4350.56 2.90569 -0.773959 0
M  V30 44808 C 4352.1 3.0408 -0.741929 0
M  V30 44809 C 4352.58 4.38703 -1.31544 0
M  V30 44810 N 4354.07 4.45248 -1.27703 0
M  V30 44811 C 4354.8 5.47906 -1.69077 0
M  V30 44812 N 4354.3 6.57561 -2.18139 0
M  V30 44813 N 4356.09 5.38739 -1.60365 0
M  V30 44814 H 4348.24 1.50951 -1.49424 0
M  V30 44815 H 4350.51 0.716253 -0.621036 0
M  V30 44816 H 4350.21 3.00691 -1.82423 0
M  V30 44817 H 4350.09 3.76396 -0.246197 0
M  V30 44818 H 4352.47 2.93576 0.299553 0
M  V30 44819 H 4352.56 2.19885 -1.30707 0
M  V30 44820 H 4352.2 4.4996 -2.3558 0
M  V30 44821 H 4352.13 5.21571 -0.726052 0
M  V30 44822 H 4354.62 3.66586 -0.917779 0
M  V30 44823 H 4354.93 7.32019 -2.47725 0
M  V30 44824 H 4353.28 6.58547 -2.22128 0
M  V30 44825 H 4356.47 4.51966 -1.21839 0
M  V30 44826 H 4356.64 6.18613 -1.9293 0
M  V30 44827 N 4350.05 0.256331 1.55501 0
M  V30 44828 C 4351.3 -0.365777 1.99169 0
M  V30 44829 C 4351.62 -1.57257 1.14458 0
M  V30 44830 O 4350.88 -1.94699 0.197649 0
M  V30 44831 C 4351.18 -0.810015 3.481 0
M  V30 44832 C 4350.84 0.290054 4.49966 0
M  V30 44833 C 4349.51 0.592163 4.77543 0
M  V30 44834 C 4351.86 1.03226 5.10876 0
M  V30 44835 C 4349.19 1.64038 5.63301 0
M  V30 44836 C 4351.54 2.07007 5.97772 0
M  V30 44837 C 4350.2 2.37872 6.23677 0
M  V30 44838 H 4349.47 -0.133847 0.728811 0
M  V30 44839 H 4352.12 0.366125 1.87967 0
M  V30 44840 H 4350.42 -1.62128 3.56682 0
M  V30 44841 H 4352.12 -1.30179 3.79281 0
M  V30 44842 H 4348.71 0.0444548 4.28577 0
M  V30 44843 H 4352.89 0.812111 4.89611 0
M  V30 44844 H 4348.15 1.88475 5.81624 0
M  V30 44845 H 4352.32 2.65003 6.44008 0
M  V30 44846 H 4349.95 3.19234 6.89923 0
M  V30 44847 N 4351.53 -1.57591 -0.0166602 0
M  V30 44848 C 4352.47 -2.08466 -1.03173 0
M  V30 44849 C 4353.47 -1.00105 -1.36657 0
M  V30 44850 O 4354.67 -1.18584 -1.35417 0
M  V30 44851 H 4351.05 -0.665426 -0.350304 0
M  V30 44852 H 4353.02 -2.92769 -0.576945 0
M  V30 44853 C 4351.77 -2.58965 -2.32019 0
M  V30 44854 H 4351.09 -3.41969 -2.07117 0
M  V30 44855 H 4352.53 -2.98258 -3.0136 0
M  V30 44856 C 4350.99 -1.49634 -3.01846 0
M  V30 44857 O 4351.52 -0.869668 -3.92173 0
M  V30 44858 N 4349.73 -1.22785 -2.63386 0
M  V30 44859 H 4349.27 -1.73929 -1.90017 0
M  V30 44860 H 4349.23 -0.498491 -3.10423 0
M  V30 44861 N 4353 0.289148 -1.54925 0
M  V30 44862 C 4353.95 1.35698 -1.86694 0
M  V30 44863 C 4354.92 1.49832 -0.716911 0
M  V30 44864 O 4356.11 1.645 -0.966666 0
M  V30 44865 C 4353.25 2.71505 -2.13023 0
M  V30 44866 C 4352.36 2.65724 -3.40609 0
M  V30 44867 C 4351.49 3.93604 -3.56721 0
M  V30 44868 C 4350.53 3.82268 -4.78056 0
M  V30 44869 N 4349.67 5.01948 -4.9091 0
M  V30 44870 H 4354.51 1.07904 -2.77778 0
M  V30 44871 H 4352.05 0.521656 -1.3754 0
M  V30 44872 H 4354.01 3.505 -2.26286 0
M  V30 44873 H 4352.64 2.97534 -1.25193 0
M  V30 44874 H 4351.69 1.78527 -3.35905 0
M  V30 44875 H 4353 2.53242 -4.29733 0
M  V30 44876 H 4352.15 4.81038 -3.69712 0
M  V30 44877 H 4350.89 4.08934 -2.65752 0
M  V30 44878 H 4349.9 2.93217 -4.65085 0
M  V30 44879 H 4351.12 3.68472 -5.70443 0
M  V30 44880 H 4349.07 5.17719 -4.02868 0
M  V30 44881 H 4348.99 4.91934 -5.74053 0
M  V30 44882 H 4350.25 5.91 -5.08271 0
M  V30 44883 N 4354.48 1.47583 0.55291 0
M  V30 44884 C 4355.71 1.58051 1.33519 0
M  V30 44885 C 4356.13 0.232271 1.87366 0
M  V30 44886 O 4355.48 -0.77513 1.65221 0
M  V30 44887 C 4355.53 2.60915 2.50211 0
M  V30 44888 O 4355.25 3.90505 1.98589 0
M  V30 44889 C 4356.76 2.81608 3.42362 0
M  V30 44890 H 4353.98 0.533579 0.406859 0
M  V30 44891 H 4356.52 1.93235 0.669355 0
M  V30 44892 H 4354.67 2.28653 3.12724 0
M  V30 44893 H 4355.09 4.46749 2.74801 0
M  V30 44894 H 4356.56 3.57436 4.20646 0
M  V30 44895 H 4357.04 1.89587 3.96173 0
M  V30 44896 H 4357.65 3.15084 2.85661 0
M  V30 44897 N 4355.96 -0.799985 1.35787 0
M  V30 44898 C 4356.91 -1.91215 1.2925 0
M  V30 44899 C 4357.88 -1.65297 0.163169 0
M  V30 44900 O 4359.06 -1.876 0.347957 0
M  V30 44901 C 4356.2 -3.27863 1.07703 0
M  V30 44902 C 4355.32 -3.65924 2.29617 0
M  V30 44903 C 4354.45 -4.91635 2.01167 0
M  V30 44904 C 4353.49 -5.22343 3.19098 0
M  V30 44905 N 4352.63 -6.39236 2.90382 0
M  V30 44906 H 4357.47 -1.96138 2.24352 0
M  V30 44907 H 4355 -0.959296 1.11516 0
M  V30 44908 H 4356.96 -4.06647 0.932402 0
M  V30 44909 H 4355.59 -3.2239 0.162603 0
M  V30 44910 H 4354.64 -2.82347 2.5492 0
M  V30 44911 H 4355.96 -3.84572 3.17656 0
M  V30 44912 H 4355.11 -5.78261 1.83573 0
M  V30 44913 H 4353.85 -4.75035 1.10422 0
M  V30 44914 H 4352.85 -4.34205 3.37263 0
M  V30 44915 H 4354.08 -5.40869 4.10654 0
M  V30 44916 H 4352.02 -6.24048 2.02238 0
M  V30 44917 H 4351.94 -6.58167 3.71958 0
M  V30 44918 H 4353.21 -7.28872 2.76343 0
M  V30 44919 N 4357.44 -1.19892 -1.02292 0
M  V30 44920 C 4358.67 -1.03065 -1.79403 0
M  V30 44921 C 4359.08 0.420396 -1.8406 0
M  V30 44922 O 4358.44 1.29196 -1.28898 0
M  V30 44923 C 4358.49 -1.59985 -3.24171 0
M  V30 44924 O 4358.21 -2.9941 -3.1982 0
M  V30 44925 C 4359.71 -1.48023 -4.17857 0
M  V30 44926 H 4356.93 -0.362912 -0.56439 0
M  V30 44927 H 4359.48 -1.5884 -1.28802 0
M  V30 44928 H 4357.63 -1.08344 -3.71941 0
M  V30 44929 H 4358.04 -3.26303 -4.10642 0
M  V30 44930 H 4359.52 -1.9262 -5.17302 0
M  V30 44931 H 4360 -0.431695 -4.37073 0
M  V30 44932 H 4360.6 -1.98824 -3.75964 0
M  V30 44933 N 4358.92 1.21498 -1.0038 0
M  V30 44934 C 4360.16 1.90533 -0.685814 0
M  V30 44935 C 4360.49 1.7803 0.783303 0
M  V30 44936 O 4359.75 1.15027 1.58326 0
M  V30 44937 C 4360.05 3.41595 -1.05109 0
M  V30 44938 C 4359.71 3.74293 -2.51427 0
M  V30 44939 C 4358.37 3.82928 -2.9141 0
M  V30 44940 C 4360.73 3.89597 -3.46214 0
M  V30 44941 C 4358.05 4.04313 -4.25144 0
M  V30 44942 C 4360.41 4.12489 -4.7962 0
M  V30 44943 C 4359.07 4.19351 -5.19328 0
M  V30 44944 H 4358.34 0.69721 -0.250957 0
M  V30 44945 H 4360.99 1.44033 -1.26201 0
M  V30 44946 H 4359.29 3.89823 -0.393122 0
M  V30 44947 H 4360.99 3.93283 -0.78293 0
M  V30 44948 H 4357.58 3.68162 -2.19441 0
M  V30 44949 H 4361.76 3.82293 -3.1649 0
M  V30 44950 H 4357.02 4.07856 -4.55481 0
M  V30 44951 H 4361.19 4.23273 -5.53003 0
M  V30 44952 H 4358.82 4.35674 -6.2297 0
M  V30 44953 N 4360.39 0.778378 1.37037 0
M  V30 44954 C 4361.81 0.458769 1.52864 0
M  V30 44955 C 4362.01 -1.02462 1.73504 0
M  V30 44956 O 4361.07 -1.81033 1.7602 0
M  V30 44957 C 4362.38 1.27961 2.72115 0
M  V30 44958 C 4363.93 1.27218 2.8598 0
M  V30 44959 C 4364.4 2.07652 4.08221 0
M  V30 44960 N 4365.89 2.0504 4.15347 0
M  V30 44961 C 4366.63 2.64053 5.08983 0
M  V30 44962 N 4366.12 3.3188 6.08134 0
M  V30 44963 N 4367.92 2.53847 5.01516 0
M  V30 44964 H 4360.07 1.73943 1.21892 0
M  V30 44965 H 4362.33 0.738785 0.594054 0
M  V30 44966 H 4362.04 2.3311 2.63349 0
M  V30 44967 H 4361.91 0.913323 3.65976 0
M  V30 44968 H 4364.3 0.228659 2.94213 0
M  V30 44969 H 4364.38 1.67816 1.93058 0
M  V30 44970 H 4364.02 3.12029 4.0075 0
M  V30 44971 H 4363.95 1.64432 5.0027 0
M  V30 44972 H 4366.44 1.55666 3.4435 0
M  V30 44973 H 4366.76 3.74267 6.76124 0
M  V30 44974 H 4365.1 3.3598 6.08393 0
M  V30 44975 H 4368.29 2.00467 4.23002 0
M  V30 44976 H 4368.47 3.00131 5.74304 0
M  V30 44977 N 4361.87 -1.4844 0.529465 0
M  V30 44978 C 4363.12 -2.01699 -0.00681899 0
M  V30 44979 C 4363.44 -1.41186 -1.35373 0
M  V30 44980 O 4364.64 -1.8594 -1.97834 0
M  V30 44981 C 4363.1 -3.59846 -0.0625502 0
M  V30 44982 C 4362.71 -4.29342 1.27943 0
M  V30 44983 C 4364.45 -4.20952 -0.54769 0
M  V30 44984 C 4362.36 -5.7942 1.18431 0
M  V30 44985 H 4361.29 -0.753974 -0.00631902 0
M  V30 44986 H 4363.94 -1.70706 0.673167 0
M  V30 44987 H 4362.32 -3.87677 -0.807602 0
M  V30 44988 H 4363.49 -4.13183 2.04001 0
M  V30 44989 H 4361.81 -3.80105 1.70027 0
M  V30 44990 H 4364.41 -5.30894 -0.636814 0
M  V30 44991 H 4364.75 -3.86234 -1.55334 0
M  V30 44992 H 4365.28 -3.97548 0.141663 0
M  V30 44993 H 4362.02 -6.18711 2.1651 0
M  V30 44994 H 4361.54 -5.97994 0.465093 0
M  V30 44995 H 4363.22 -6.41059 0.874769 0
M  V30 44996 N 4363.35 -0.264574 -1.55363 0
M  V30 44997 C 4364.3 0.643528 -2.23521 0
M  V30 44998 C 4365.29 1.1662 -1.22866 0
M  V30 44999 O 4366.5 1.12105 -1.40828 0
M  V30 45000 H 4362.87 0.226053 -0.71722 0
M  V30 45001 H 4364.85 0.0457263 -2.98365 0
M  V30 45002 C 4363.59 1.82131 -2.96182 0
M  V30 45003 H 4362.92 1.42829 -3.73416 0
M  V30 45004 H 4364.36 2.43356 -3.47209 0
M  V30 45005 C 4362.82 2.70332 -2.01052 0
M  V30 45006 O 4363.35 3.70384 -1.55493 0
M  V30 45007 N 4361.55 2.37275 -1.67776 0
M  V30 45008 H 4361.1 1.55963 -2.05021 0
M  V30 45009 H 4361.06 2.96562 -1.04395 0
M  V30 45010 N 4364.83 1.57598 0.00830251 0
M  V30 45011 C 4365.76 2.04733 1.03038 0
M  V30 45012 C 4366.77 0.963763 1.31208 0
M  V30 45013 O 4367.96 1.24071 1.2833 0
M  V30 45014 C 4365.06 2.42528 2.36714 0
M  V30 45015 C 4364.24 3.73517 2.27604 0
M  V30 45016 C 4363.3 3.98271 3.43899 0
M  V30 45017 O 4362.32 4.69051 3.22459 0
M  V30 45018 N 4363.52 3.4552 4.66472 0
M  V30 45019 H 4366.29 2.93036 0.628471 0
M  V30 45020 H 4363.85 1.60711 0.195852 0
M  V30 45021 H 4365.84 2.56208 3.13272 0
M  V30 45022 H 4364.41 1.59787 2.68676 0
M  V30 45023 H 4363.63 3.69993 1.3601 0
M  V30 45024 H 4364.92 4.59408 2.18681 0
M  V30 45025 H 4364.32 2.88187 4.8679 0
M  V30 45026 H 4362.87 3.64545 5.40324 0
M  V30 45027 N 4366.31 -0.280928 1.55076 0
M  V30 45028 C 4367.24 -1.35141 1.90418 0
M  V30 45029 C 4368.22 -1.51918 0.765175 0
M  V30 45030 O 4369.4 -1.65093 1.02264 0
M  V30 45031 C 4366.53 -2.7123 2.16914 0
M  V30 45032 C 4365.49 -2.69194 3.32744 0
M  V30 45033 C 4364.81 -4.0876 3.44702 0
M  V30 45034 C 4366.11 -2.29161 4.69343 0
M  V30 45035 H 4367.81 -1.0581 2.80079 0
M  V30 45036 H 4365.35 -0.50756 1.34758 0
M  V30 45037 H 4367.31 -3.46222 2.40225 0
M  V30 45038 H 4366.03 -3.02127 1.24044 0
M  V30 45039 H 4364.69 -1.96658 3.09388 0
M  V30 45040 H 4364.34 -4.36866 2.49313 0
M  V30 45041 H 4364.04 -4.08294 4.22575 0
M  V30 45042 H 4365.56 -4.85503 3.70297 0
M  V30 45043 H 4366.98 -2.93874 4.92251 0
M  V30 45044 H 4365.37 -2.39872 5.50074 0
M  V30 45045 H 4366.44 -1.24289 4.68701 0
M  V30 45046 N 4367.79 -1.47874 -0.545076 0
M  V30 45047 C 4368.72 -1.64156 -1.66057 0
M  V30 45048 C 4369.7 -0.490708 -1.62868 0
M  V30 45049 O 4370.88 -0.721483 -1.803 0
M  V30 45050 C 4368.01 -1.667 -3.04678 0
M  V30 45051 C 4366.97 -2.81134 -3.22719 0
M  V30 45052 C 4366.29 -2.68757 -4.62248 0
M  V30 45053 C 4367.59 -4.226 -3.06931 0
M  V30 45054 H 4369.29 -2.57541 -1.52686 0
M  V30 45055 H 4366.83 -1.23941 -0.733125 0
M  V30 45056 H 4368.78 -1.7668 -3.82573 0
M  V30 45057 H 4367.51 -0.698837 -3.19036 0
M  V30 45058 H 4366.17 -2.70684 -2.47236 0
M  V30 45059 H 4365.82 -1.69943 -4.73422 0
M  V30 45060 H 4365.52 -3.45536 -4.75267 0
M  V30 45061 H 4367.04 -2.80684 -5.42263 0
M  V30 45062 H 4368.45 -4.33962 -3.74633 0
M  V30 45063 H 4366.85 -5.00259 -3.31453 0
M  V30 45064 H 4367.92 -4.40117 -2.0353 0
M  V30 45065 N 4369.26 0.792773 -1.36209 0
M  V30 45066 C 4370.2 1.91378 -1.26124 0
M  V30 45067 C 4371.21 1.61785 -0.181465 0
M  V30 45068 O 4372.4 1.73096 -0.435901 0
M  V30 45069 C 4369.5 3.26102 -0.922546 0
M  V30 45070 C 4368.67 3.83498 -2.10352 0
M  V30 45071 C 4367.73 4.96654 -1.73842 0
M  V30 45072 O 4366.76 5.13349 -2.45888 0
M  V30 45073 N 4367.96 5.76619 -0.670125 0
M  V30 45074 H 4370.72 2.00552 -2.22708 0
M  V30 45075 H 4368.28 0.970879 -1.29559 0
M  V30 45076 H 4370.28 3.9929 -0.659528 0
M  V30 45077 H 4368.85 3.12566 -0.0459418 0
M  V30 45078 H 4368.07 3.02338 -2.52953 0
M  V30 45079 H 4369.35 4.18577 -2.89259 0
M  V30 45080 H 4368.75 5.65654 -0.0718261 0
M  V30 45081 H 4367.31 6.50125 -0.466922 0
M  V30 45082 N 4370.74 1.20433 1.01654 0
M  V30 45083 C 4372.02 0.923569 1.72423 0
M  V30 45084 C 4372.4 -0.567639 2.03325 0
M  V30 45085 O 4371.75 -1.52932 1.69777 0
M  V30 45086 C 4371.96 1.79659 2.99205 0
M  V30 45087 C 4373.3 2.03845 3.72468 0
M  V30 45088 O 4374.33 1.76913 3.09161 0
M  V30 45089 O 4373.19 2.49329 4.8631 0
M  V30 45090 H 4370.28 0.345318 0.751455 0
M  V30 45091 H 4372.83 1.31307 1.07502 0
M  V30 45092 H 4371.6 2.80634 2.72691 0
M  V30 45093 H 4371.22 1.40717 3.71866 0
M  V30 45094 N 4372.22 -1.20963 1.01023 0
M  V30 45095 C 4373.45 -1.94156 0.714914 0
M  V30 45096 C 4373.86 -1.74393 -0.723363 0
M  V30 45097 O 4373.22 -1.05385 -1.48997 0
M  V30 45098 C 4373.27 -3.46425 1.03306 0
M  V30 45099 O 4372.99 -3.65537 2.41484 0
M  V30 45100 C 4374.49 -4.36773 0.757892 0
M  V30 45101 H 4371.71 -0.617295 0.263035 0
M  V30 45102 H 4374.26 -1.53635 1.34969 0
M  V30 45103 H 4372.41 -3.8485 0.443797 0
M  V30 45104 H 4372.83 -4.59584 2.52751 0
M  V30 45105 H 4374.3 -5.42293 1.03063 0
M  V30 45106 H 4374.78 -4.38119 -0.308022 0
M  V30 45107 H 4375.38 -4.04002 1.32901 0
M  V30 45108 N 4373.7 -0.785634 -1.36622 0
M  V30 45109 C 4375.11 -0.419935 -1.81916 0
M  V30 45110 C 4375.46 1.05567 -1.65378 0
M  V30 45111 O 4374.58 1.81876 -1.17261 0
M  V30 45112 C 4375.18 -0.755442 -3.3027 0
M  V30 45113 C 4373.74 -0.442622 -3.73788 0
M  V30 45114 C 4372.89 -0.992064 -2.58947 0
M  V30 45115 H 4375.84 -0.979106 -1.24897 0
M  V30 45116 H 4375.86 -0.0451497 -3.80473 0
M  V30 45117 H 4375.37 -1.82946 -3.42275 0
M  V30 45118 H 4373.47 0.623519 -3.67346 0
M  V30 45119 H 4373.58 -0.960586 -4.69371 0
M  V30 45120 H 4371.95 -0.415502 -2.51288 0
M  V30 45121 H 4372.73 -2.07177 -2.73738 0
M  V30 45122 N 4375.18 1.48157 -0.53733 0
M  V30 45123 C 4376.42 2.02799 -0.00592682 0
M  V30 45124 C 4376.75 1.41287 1.33235 0
M  V30 45125 O 4376.03 0.561242 1.86227 0
M  V30 45126 C 4376.31 3.59937 0.108293 0
M  V30 45127 C 4376.17 4.31918 -1.25568 0
M  V30 45128 C 4377.48 4.32174 0.831503 0
M  V30 45129 H 4374.6 0.736991 -0.00362787 0
M  V30 45130 H 4377.25 1.76802 -0.695781 0
M  V30 45131 H 4375.4 3.82218 0.695826 0
M  V30 45132 H 4377.07 4.21034 -1.88488 0
M  V30 45133 H 4375.31 3.93048 -1.83564 0
M  V30 45134 H 4375.98 5.40338 -1.12868 0
M  V30 45135 H 4378.46 4.14767 0.332846 0
M  V30 45136 H 4377.33 5.41795 0.880336 0
M  V30 45137 H 4377.59 3.99976 1.88339 0
M  V30 45138 N 4376.65 0.272809 1.55221 0
M  V30 45139 C 4377.62 -0.602555 2.21138 0
M  V30 45140 C 4378.62 -1.08309 1.18852 0
M  V30 45141 O 4379.81 -0.983638 1.43771 0
M  V30 45142 C 4376.94 -1.83105 2.87551 0
M  V30 45143 H 4378.13 -0.0270541 2.99888 0
M  V30 45144 H 4375.69 0.023411 1.56282 0
M  V30 45145 H 4376.42 -2.44712 2.12806 0
M  V30 45146 H 4376.21 -1.49442 3.62504 0
M  V30 45147 H 4377.7 -2.45359 3.37918 0
M  V30 45148 N 4378.13 -1.576 5.54043e-05 0
M  V30 45149 C 4379.36 -1.95252 -0.699399 0
M  V30 45150 C 4379.78 -0.874993 -1.6651 0
M  V30 45151 O 4379.14 0.166865 -1.8053 0
M  V30 45152 C 4379.19 -3.31999 -1.40745 0
M  V30 45153 O 4378.29 -3.26307 -2.52186 0
M  V30 45154 H 4377.63 -0.637408 -0.186029 0
M  V30 45155 H 4380.16 -2.04531 0.0532619 0
M  V30 45156 H 4380.17 -3.67566 -1.77086 0
M  V30 45157 H 4378.85 -4.09977 -0.699386 0
M  V30 45158 H 4377.43 -3.02416 -2.18172 0
M  V30 45159 N 4379.61 0.2727 -1.55223 0
M  V30 45160 C 4381.02 0.843721 -1.66548 0
M  V30 45161 C 4381.37 1.87033 -0.592707 0
M  V30 45162 O 4380.5 2.14762 0.265742 0
M  V30 45163 C 4381.09 1.53712 -3.01924 0
M  V30 45164 C 4379.65 2.05617 -3.15275 0
M  V30 45165 C 4378.8 0.898331 -2.62346 0
M  V30 45166 H 4381.75 0.049044 -1.58624 0
M  V30 45167 H 4381.77 2.4041 -2.94929 0
M  V30 45168 H 4381.28 0.789697 -3.79981 0
M  V30 45169 H 4379.38 2.8332 -2.41993 0
M  V30 45170 H 4379.5 2.27127 -4.21841 0
M  V30 45171 H 4377.86 1.29179 -2.19511 0
M  V30 45172 H 4378.64 0.164407 -3.42906 0
M  V30 45173 N 4381.09 1.48161 0.537226 0
M  V30 45174 C 4382.5 1.34121 0.865082 0
M  V30 45175 C 4382.7 0.346748 1.98494 0
M  V30 45176 O 4381.76 -0.234627 2.51408 0
M  V30 45177 C 4383.07 2.73968 1.23944 0
M  V30 45178 C 4384.62 2.82402 1.34974 0
M  V30 45179 C 4385.1 4.22934 1.75757 0
M  V30 45180 N 4386.59 4.25573 1.82872 0
M  V30 45181 C 4387.32 5.31243 2.15798 0
M  V30 45182 N 4386.82 6.47197 2.47199 0
M  V30 45183 N 4388.61 5.18632 2.16743 0
M  V30 45184 H 4380.76 2.11439 -0.201789 0
M  V30 45185 H 4383.03 0.947597 -0.0276282 0
M  V30 45186 H 4382.73 3.48266 0.490258 0
M  V30 45187 H 4382.61 3.07027 2.19121 0
M  V30 45188 H 4384.99 2.08364 2.0897 0
M  V30 45189 H 4385.07 2.52971 0.379359 0
M  V30 45190 H 4384.72 4.97486 1.02323 0
M  V30 45191 H 4384.65 4.49804 2.73833 0
M  V30 45192 H 4387.14 3.41929 1.60912 0
M  V30 45193 H 4387.45 7.23573 2.71407 0
M  V30 45194 H 4385.8 6.50484 2.44734 0
M  V30 45195 H 4388.99 4.27063 1.91664 0
M  V30 45196 H 4389.16 6.01087 2.42072 0
M  V30 45197 N 4382.57 -0.785538 1.36627 0
M  V30 45198 C 4383.79 -1.57958 1.34402 0
M  V30 45199 C 4384.22 -1.87964 -0.0714599 0
M  V30 45200 O 4383.57 -1.48186 -1.04454 0
M  V30 45201 C 4383.62 -2.87504 2.17656 0
M  V30 45202 O 4382.73 -3.81275 1.57171 0
M  V30 45203 H 4382.07 -0.478998 0.459845 0
M  V30 45204 H 4384.6 -0.973347 1.79964 0
M  V30 45205 H 4384.61 -3.36737 2.30374 0
M  V30 45206 H 4383.28 -2.64991 3.2055 0
M  V30 45207 H 4381.86 -3.3988 1.53415 0
M  V30 45208 N 4384.04 -1.20971 -1.01014 0
M  V30 45209 C 4385.29 -1.02532 -1.74971 0
M  V30 45210 C 4385.62 0.440734 -1.89133 0
M  V30 45211 O 4384.9 1.32713 -1.42188 0
M  V30 45212 C 4385.18 -1.7171 -3.16524 0
M  V30 45213 C 4385.03 -3.25802 -3.10118 0
M  V30 45214 C 4386.35 -1.45546 -4.15336 0
M  V30 45215 H 4383.47 -0.373885 -0.635121 0
M  V30 45216 H 4386.11 -1.49075 -1.178 0
M  V30 45217 H 4384.26 -1.32141 -3.65337 0
M  V30 45218 H 4385.94 -3.74706 -2.69059 0
M  V30 45219 H 4384.18 -3.56372 -2.47349 0
M  V30 45220 H 4384.85 -3.69368 -4.10209 0
M  V30 45221 H 4387.33 -1.79886 -3.75207 0
M  V30 45222 H 4386.2 -1.96471 -5.12533 0
M  V30 45223 H 4386.46 -0.384392 -4.40426 0
M  V30 45224 N 4385.52 1.20426 -1.01663 0
M  V30 45225 C 4386.47 2.23213 -0.5869 0
M  V30 45226 C 4387.44 1.61383 0.393028 0
M  V30 45227 O 4388.62 1.88545 0.292459 0
M  V30 45228 C 4385.76 3.45032 0.0686251 0
M  V30 45229 C 4384.88 4.21292 -0.955872 0
M  V30 45230 C 4384.01 5.30506 -0.271395 0
M  V30 45231 C 4383.05 5.9851 -1.28265 0
M  V30 45232 N 4382.19 6.99314 -0.624835 0
M  V30 45233 H 4387.03 2.59331 -1.46805 0
M  V30 45234 H 4384.57 1.27428 -0.734881 0
M  V30 45235 H 4386.52 4.14591 0.465819 0
M  V30 45236 H 4385.15 3.09607 0.91342 0
M  V30 45237 H 4384.21 3.50798 -1.47123 0
M  V30 45238 H 4385.52 4.68024 -1.72495 0
M  V30 45239 H 4384.67 6.06429 0.181297 0
M  V30 45240 H 4383.41 4.84812 0.529993 0
M  V30 45241 H 4382.42 5.21349 -1.74573 0
M  V30 45242 H 4383.64 6.46291 -2.08531 0
M  V30 45243 H 4381.59 6.55813 0.156683 0
M  V30 45244 H 4381.5 7.44173 -1.33199 0
M  V30 45245 H 4382.77 7.79254 -0.195736 0
M  V30 45246 N 4387 0.792868 1.36203 0
M  V30 45247 C 4388.25 0.3674 1.99444 0
M  V30 45248 C 4388.58 -1.05911 1.62778 0
M  V30 45249 O 4387.85 -1.73237 0.884271 0
M  V30 45250 C 4388.14 0.535169 3.56101 0
M  V30 45251 C 4387.99 2.00562 4.0261 0
M  V30 45252 C 4389.31 -0.0476644 4.40074 0
M  V30 45253 H 4386.43 0.134967 0.724536 0
M  V30 45254 H 4389.07 0.999851 1.61564 0
M  V30 45255 H 4387.22 -0.00322672 3.885 0
M  V30 45256 H 4388.89 2.60534 3.80683 0
M  V30 45257 H 4387.14 2.50699 3.54023 0
M  V30 45258 H 4387.81 2.07395 5.11558 0
M  V30 45259 H 4390.28 0.411968 4.14056 0
M  V30 45260 H 4389.16 0.0997266 5.48809 0
M  V30 45261 H 4389.42 -1.1401 4.27146 0
M  V30 45262 N 4388.48 -1.4787 0.54518 0
M  V30 45263 C 4389.72 -2.03385 0.0248666 0
M  V30 45264 C 4390.08 -1.4133 -1.30551 0
M  V30 45265 O 4389.37 -0.555265 -1.83378 0
M  V30 45266 C 4389.57 -3.57131 -0.138544 0
M  V30 45267 C 4389.4 -4.34093 1.17445 0
M  V30 45268 C 4388.17 -4.74452 1.73848 0
M  V30 45269 C 4390.36 -4.69973 2.08878 0
M  V30 45270 N 4388.35 -5.3601 2.99277 0
M  V30 45271 C 4389.72 -5.31707 3.18884 0
M  V30 45272 C 4391.77 -4.51902 2.09019 0
M  V30 45273 C 4390.47 -5.7728 4.29116 0
M  V30 45274 C 4392.5 -4.98466 3.18255 0
M  V30 45275 C 4391.86 -5.60238 4.2698 0
M  V30 45276 H 4387.96 -0.780337 0.0509704 0
M  V30 45277 H 4390.55 -1.80504 0.729816 0
M  V30 45278 H 4388.72 -3.79804 -0.812599 0
M  V30 45279 H 4390.45 -3.99285 -0.659835 0
M  V30 45280 H 4387.2 -4.56032 1.27796 0
M  V30 45281 H 4387.63 -5.71342 3.63177 0
M  V30 45282 H 4392.27 -4.03511 1.26248 0
M  V30 45283 H 4389.99 -6.24669 5.12655 0
M  V30 45284 H 4393.57 -4.86263 3.19437 0
M  V30 45285 H 4392.45 -5.95613 5.10112 0
M  V30 45286 N 4389.96 -0.281037 -1.55074 0
M  V30 45287 C 4390.89 0.63719 -2.20165 0
M  V30 45288 C 4391.9 1.11294 -1.18817 0
M  V30 45289 O 4393.09 1.03383 -1.45514 0
M  V30 45290 C 4390.19 1.8819 -2.81847 0
M  V30 45291 C 4389.36 1.55197 -4.08941 0
M  V30 45292 C 4388.42 2.64975 -4.54615 0
M  V30 45293 O 4387.45 2.30911 -5.20259 0
M  V30 45294 N 4388.65 3.95146 -4.25252 0
M  V30 45295 H 4391.42 0.080064 -2.99593 0
M  V30 45296 H 4388.98 -0.102385 -1.61576 0
M  V30 45297 H 4390.97 2.60937 -3.09344 0
M  V30 45298 H 4389.54 2.34792 -2.06377 0
M  V30 45299 H 4388.76 0.658049 -3.88669 0
M  V30 45300 H 4390.05 1.30664 -4.91736 0
M  V30 45301 H 4389.44 4.2564 -3.72622 0
M  V30 45302 H 4388 4.64253 -4.57506 0
M  V30 45303 N 4391.44 1.57598 -0.00841331 0
M  V30 45304 C 4392.71 1.82174 0.712171 0
M  V30 45305 C 4393.09 0.887941 1.91517 0
M  V30 45306 O 4392.44 -0.0613797 2.28418 0
M  V30 45307 C 4392.65 3.30879 1.10996 0
M  V30 45308 C 4394 3.96831 1.5103 0
M  V30 45309 O 4395.02 3.35252 1.20352 0
M  V30 45310 O 4393.88 5.05325 2.08107 0
M  V30 45311 H 4390.98 0.750447 0.347502 0
M  V30 45312 H 4393.52 1.69665 -0.0345119 0
M  V30 45313 H 4392.29 3.90482 0.252844 0
M  V30 45314 H 4391.92 3.48418 1.91548 0
M  V30 45315 N 4392.91 -0.264465 1.55365 0
M  V30 45316 C 4393.88 -1.31039 1.88046 0
M  V30 45317 C 4394.88 -1.4194 0.755618 0
M  V30 45318 O 4396.07 -1.40944 1.02374 0
M  V30 45319 C 4393.2 -2.69059 2.09332 0
M  V30 45320 H 4394.39 -1.03287 2.81552 0
M  V30 45321 H 4391.94 -0.502937 1.47987 0
M  V30 45322 H 4392.68 -3.01978 1.18236 0
M  V30 45323 H 4392.46 -2.62531 2.91238 0
M  V30 45324 H 4393.95 -3.44615 2.35861 0
M  V30 45325 N 4394.39 -1.48444 -0.529361 0
M  V30 45326 C 4395.63 -1.58091 -1.29563 0
M  V30 45327 C 4396 -0.249369 -1.90374 0
M  V30 45328 O 4397.2 -0.220832 -2.67891 0
M  V30 45329 C 4395.47 -2.68802 -2.35543 0
M  V30 45330 S 4397.03 -2.98218 -3.21887 0
M  V30 45331 H 4393.84 -0.557937 -0.440712 0
M  V30 45332 H 4396.45 -1.85968 -0.602993 0
M  V30 45333 H 4395.15 -3.64108 -1.8935 0
M  V30 45334 H 4394.68 -2.42828 -3.09513 0
M  V30 45335 H 4396.7 -2.37563 -4.35635 0
M  V30 45336 N 4395.87 0.778281 -1.37042 0
M  V30 45337 C 4397.09 1.57243 -1.35238 0
M  V30 45338 C 4397.52 1.87999 0.0614907 0
M  V30 45339 O 4396.88 1.48737 1.03667 0
M  V30 45340 C 4396.93 2.86345 -2.19177 0
M  V30 45341 O 4396.03 3.80437 -1.59191 0
M  V30 45342 H 4395.37 0.476552 -0.462379 0
M  V30 45343 H 4397.9 0.96379 -1.80478 0
M  V30 45344 H 4397.91 3.3551 -2.32157 0
M  V30 45345 H 4396.59 2.63287 -3.21951 0
M  V30 45346 H 4395.16 3.39061 -1.55215 0
M  V30 45347 N 4397.35 1.21505 1.00371 0
M  V30 45348 C 4398.76 1.03152 1.55617 0
M  V30 45349 C 4399.11 -0.408307 1.91904 0
M  V30 45350 O 4398.23 -1.29171 1.7362 0
M  V30 45351 C 4398.83 1.86622 2.82768 0
M  V30 45352 C 4397.39 1.72597 3.34495 0
M  V30 45353 C 4396.54 1.83755 2.07677 0
M  V30 45354 H 4399.49 1.35508 0.826033 0
M  V30 45355 H 4399.51 1.37722 3.54701 0
M  V30 45356 H 4399.02 2.91408 2.56326 0
M  V30 45357 H 4397.12 0.705006 3.65869 0
M  V30 45358 H 4397.23 2.54637 4.05828 0
M  V30 45359 H 4395.6 1.27077 2.20734 0
M  V30 45360 H 4396.38 2.90051 1.83645 0
M  V30 45361 N 4398.83 -1.19885 1.023 0
M  V30 45362 C 4399.76 -2.25139 0.619253 0
M  V30 45363 C 4400.74 -1.66053 -0.368857 0
M  V30 45364 O 4401.92 -1.92547 -0.252873 0
M  V30 45365 C 4399.05 -3.47281 -0.0367562 0
M  V30 45366 C 4398.01 -4.19002 0.873012 0
M  V30 45367 C 4397.33 -5.34636 0.0824281 0
M  V30 45368 C 4398.63 -4.74444 2.18404 0
M  V30 45369 H 4400.33 -2.59166 1.49912 0
M  V30 45370 H 4397.87 -1.24577 0.722266 0
M  V30 45371 H 4399.82 -4.201 -0.330811 0
M  V30 45372 H 4398.55 -3.12436 -0.95138 0
M  V30 45373 H 4397.21 -3.48057 1.15117 0
M  V30 45374 H 4396.86 -4.96037 -0.834046 0
M  V30 45375 H 4396.56 -5.83554 0.688354 0
M  V30 45376 H 4398.08 -6.10256 -0.205023 0
M  V30 45377 H 4399.49 -5.39048 1.95191 0
M  V30 45378 H 4397.89 -5.33825 2.74137 0
M  V30 45379 H 4398.96 -3.92834 2.8427 0
M  V30 45380 N 4400.3 -0.80008 -1.35781 0
M  V30 45381 C 4401.71 -0.439206 -1.8146 0
M  V30 45382 C 4402.07 1.03807 -1.66489 0
M  V30 45383 O 4401.19 1.80622 -1.19183 0
M  V30 45384 C 4401.79 -0.790429 -3.29451 0
M  V30 45385 C 4400.34 -0.482242 -3.73298 0
M  V30 45386 C 4399.49 -1.01947 -2.5788 0
M  V30 45387 H 4402.44 -0.992298 -1.23851 0
M  V30 45388 H 4402.46 -0.0855015 -3.80404 0
M  V30 45389 H 4401.98 -1.86566 -3.40315 0
M  V30 45390 H 4400.08 0.584522 -3.67987 0
M  V30 45391 H 4400.19 -1.01031 -4.68326 0
M  V30 45392 H 4398.55 -0.442131 -2.50833 0
M  V30 45393 H 4399.34 -2.10069 -2.71525 0
M  V30 45394 N 4401.78 1.47579 -0.553014 0
M  V30 45395 C 4402.73 2.29957 0.197027 0
M  V30 45396 C 4403.7 1.38802 0.91231 0
M  V30 45397 O 4404.88 1.67765 0.908829 0
M  V30 45398 C 4402.02 3.22677 1.22368 0
M  V30 45399 C 4401.14 4.28921 0.514888 0
M  V30 45400 C 4400.27 5.08795 1.52646 0
M  V30 45401 C 4399.31 6.06818 0.802418 0
M  V30 45402 N 4398.45 6.79666 1.76062 0
M  V30 45403 H 4403.29 2.93576 -0.51159 0
M  V30 45404 H 4400.82 1.44709 -0.264118 0
M  V30 45405 H 4402.78 3.74851 1.83145 0
M  V30 45406 H 4401.41 2.60932 1.90038 0
M  V30 45407 H 4400.46 3.79835 -0.207326 0
M  V30 45408 H 4401.78 4.98772 -0.0525179 0
M  V30 45409 H 4400.93 5.65099 2.20789 0
M  V30 45410 H 4399.67 4.38836 2.12778 0
M  V30 45411 H 4398.67 5.49696 0.107045 0
M  V30 45412 H 4399.9 6.78785 0.206896 0
M  V30 45413 H 4397.85 6.1244 2.3506 0
M  V30 45414 H 4397.76 7.45674 1.24526 0
M  V30 45415 H 4399.03 7.40547 2.43333 0
M  V30 45416 N 4403.26 0.289257 1.54923 0
M  V30 45417 C 4404.49 -0.326391 2.04309 0
M  V30 45418 C 4404.9 -1.48409 1.16706 0
M  V30 45419 O 4404.26 -1.81507 0.190151 0
M  V30 45420 C 4404.31 -0.79389 3.52675 0
M  V30 45421 O 4404.03 0.317717 4.36946 0
M  V30 45422 C 4405.53 -1.4759 4.1801 0
M  V30 45423 H 4402.75 -0.0726038 0.66706 0
M  V30 45424 H 4405.3 0.425471 2.00025 0
M  V30 45425 H 4403.45 -1.4958 3.57358 0
M  V30 45426 H 4403.87 -0.0441342 5.24481 0
M  V30 45427 H 4405.34 -1.75429 5.23382 0
M  V30 45428 H 4405.82 -2.41212 3.67034 0
M  V30 45429 H 4406.42 -0.817473 4.1737 0
M  V30 45430 N 4404.74 -1.57591 0.016771 0
M  V30 45431 C 4405.67 -2.06347 -0.99768 0
M  V30 45432 C 4406.68 -0.984515 -1.29658 0
M  V30 45433 O 4407.87 -1.26097 -1.2634 0
M  V30 45434 C 4404.97 -2.46263 -2.32826 0
M  V30 45435 C 4404.14 -3.77091 -2.21633 0
M  V30 45436 C 4403.2 -4.03692 -3.37519 0
M  V30 45437 O 4402.23 -4.74122 -3.14956 0
M  V30 45438 N 4403.43 -3.52897 -4.60916 0
M  V30 45439 H 4406.2 -2.93999 -0.581772 0
M  V30 45440 H 4403.76 -1.61002 -0.17026 0
M  V30 45441 H 4405.75 -2.6116 -3.09156 0
M  V30 45442 H 4404.32 -1.64041 -2.661 0
M  V30 45443 H 4403.54 -3.7211 -1.30106 0
M  V30 45444 H 4404.83 -4.62829 -2.11344 0
M  V30 45445 H 4404.23 -2.95895 -4.82144 0
M  V30 45446 H 4402.78 -3.73095 -5.34456 0
M  V30 45447 N 4406.22 0.256222 -1.55503 0
M  V30 45448 C 4407.18 1.3004 -1.88739 0
M  V30 45449 C 4408.18 1.41538 -0.763135 0
M  V30 45450 O 4409.37 1.40399 -1.0312 0
M  V30 45451 C 4406.5 2.67945 -2.10756 0
M  V30 45452 H 4407.69 1.01793 -2.82096 0
M  V30 45453 H 4405.25 0.495082 -1.48252 0
M  V30 45454 H 4405.98 3.01347 -1.19836 0
M  V30 45455 H 4405.77 2.60983 -2.92626 0
M  V30 45456 H 4407.26 3.43359 -2.37685 0
M  V30 45457 N 4407.69 1.48722 0.521481 0
M  V30 45458 C 4408.64 1.64334 1.64612 0
M  V30 45459 C 4409.64 0.509586 1.61554 0
M  V30 45460 O 4410.84 0.688583 1.66309 0
M  V30 45461 H 4407.22 0.517824 0.545309 0
M  V30 45462 H 4409.19 2.58772 1.48591 0
M  V30 45463 C 4407.94 1.70816 3.02849 0
M  V30 45464 H 4407.26 2.57421 3.059 0
M  V30 45465 H 4408.7 1.8578 3.81132 0
M  V30 45466 C 4407.16 0.448596 3.339 0
M  V30 45467 O 4407.69 -0.434788 3.9934 0
M  V30 45468 N 4405.9 0.317718 2.88858 0
M  V30 45469 H 4405.44 1.03756 2.35781 0
M  V30 45470 H 4405.4 -0.524004 3.10003 0
M  V30 45471 N 4409.17 -0.771003 1.37453 0
M  V30 45472 C 4410.12 -1.87452 1.29792 0
M  V30 45473 C 4411.11 -1.59826 0.185598 0
M  V30 45474 O 4412.3 -1.71943 0.420058 0
M  V30 45475 C 4409.43 -3.24931 1.10791 0
M  V30 45476 C 4408.51 -3.58506 2.26571 0
M  V30 45477 N 4408.9 -3.63258 3.51962 0
M  V30 45478 C 4407.2 -3.88675 2.18741 0
M  V30 45479 C 4407.9 -3.93601 4.28314 0
M  V30 45480 N 4406.88 -4.09538 3.57463 0
M  V30 45481 H 4410.68 -1.89378 2.24751 0
M  V30 45482 H 4408.2 -0.967485 1.30436 0
M  V30 45483 H 4410.19 -4.03877 1.03388 0
M  V30 45484 H 4408.85 -3.24268 0.167494 0
M  V30 45485 H 4409.86 -3.45445 3.8586 0
M  V30 45486 H 4406.54 -3.95829 1.3276 0
M  V30 45487 H 4407.93 -4.04047 5.36839 0
M  V30 45488 N 4410.65 -1.22035 -0.997255 0
M  V30 45489 C 4411.9 -1.04022 -1.73274 0
M  V30 45490 C 4412.22 0.426188 -1.90286 0
M  V30 45491 O 4411.49 1.30689 -1.45936 0
M  V30 45492 H 4410.07 -0.38192 -0.641986 0
M  V30 45493 H 4412.73 -1.53474 -1.20132 0
M  V30 45494 H 4411.83 -1.5145 -2.7289 0
M  V30 45495 N 4412.13 1.19341 -1.02934 0
M  V30 45496 C 4413.09 2.20791 -0.615146 0
M  V30 45497 C 4414.09 1.57554 0.321478 0
M  V30 45498 O 4415.28 1.73862 0.108422 0
M  V30 45499 C 4412.41 3.40754 0.0998024 0
M  V30 45500 H 4413.61 2.5895 -1.51278 0
M  V30 45501 H 4411.16 1.33027 -0.820581 0
M  V30 45502 H 4411.89 3.08113 1.01176 0
M  V30 45503 H 4411.68 3.87887 -0.573226 0
M  V30 45504 H 4413.17 4.15899 0.376499 0
M  V30 45505 N 4413.61 0.80727 1.35355 0
M  V30 45506 C 4414.54 0.232591 2.32339 0
M  V30 45507 C 4415.52 -0.642331 1.57506 0
M  V30 45508 O 4416.7 -0.57246 1.85571 0
M  V30 45509 C 4413.83 -0.619118 3.41737 0
M  V30 45510 C 4412.79 0.157366 4.27711 0
M  V30 45511 C 4412.11 -0.816087 5.28436 0
M  V30 45512 C 4413.41 1.35674 5.04371 0
M  V30 45513 H 4415.11 1.04286 2.80651 0
M  V30 45514 H 4412.65 0.502927 1.34932 0
M  V30 45515 H 4414.61 -1.03122 4.08588 0
M  V30 45516 H 4413.33 -1.46228 2.92036 0
M  V30 45517 H 4411.99 0.550653 3.62441 0
M  V30 45518 H 4411.64 -1.65477 4.75001 0
M  V30 45519 H 4411.34 -0.300861 5.86829 0
M  V30 45520 H 4412.86 -1.22638 5.98157 0
M  V30 45521 H 4414.27 1.01947 5.64163 0
M  V30 45522 H 4412.67 1.8065 5.72264 0
M  V30 45523 H 4413.74 2.14304 4.34974 0
M  V30 45524 N 4415.08 -1.47283 0.560833 0
M  V30 45525 C 4416.02 -2.28119 -0.222358 0
M  V30 45526 C 4417.03 -1.37222 -0.876008 0
M  V30 45527 O 4418.22 -1.62014 -0.74925 0
M  V30 45528 C 4415.32 -3.11595 -1.33274 0
M  V30 45529 C 4414.49 -4.30476 -0.775189 0
M  V30 45530 C 4413.55 -4.95519 -1.77051 0
M  V30 45531 O 4412.58 -5.53797 -1.3152 0
M  V30 45532 N 4413.78 -4.90542 -3.10401 0
M  V30 45533 H 4416.54 -2.95975 0.471062 0
M  V30 45534 H 4414.1 -1.56953 0.397146 0
M  V30 45535 H 4416.1 -3.51974 -1.9974 0
M  V30 45536 H 4414.67 -2.45958 -1.92934 0
M  V30 45537 H 4413.89 -3.94144 0.0663498 0
M  V30 45538 H 4415.17 -5.07363 -0.382093 0
M  V30 45539 H 4414.57 -4.44401 -3.50034 0
M  V30 45540 H 4413.13 -5.3493 -3.72415 0
M  V30 45541 N 4416.56 -0.297469 -1.54767 0
M  V30 45542 C 4417.81 0.312843 -2.00069 0
M  V30 45543 C 4418.14 1.54167 -1.18587 0
M  V30 45544 O 4417.39 1.94107 -0.249201 0
M  V30 45545 C 4417.69 0.717438 -3.50125 0
M  V30 45546 C 4417.36 -0.409253 -4.49039 0
M  V30 45547 C 4416.02 -0.718566 -4.75805 0
M  V30 45548 C 4418.37 -1.16734 -5.07959 0
M  V30 45549 C 4415.7 -1.78916 -5.58754 0
M  V30 45550 C 4418.05 -2.22783 -5.92073 0
M  V30 45551 C 4416.72 -2.54324 -6.17151 0
M  V30 45552 H 4415.99 0.114477 -0.732104 0
M  V30 45553 H 4418.63 -0.415832 -1.86931 0
M  V30 45554 H 4416.94 1.52614 -3.60855 0
M  V30 45555 H 4418.63 1.20078 -3.82599 0
M  V30 45556 H 4415.22 -0.158069 -4.28308 0
M  V30 45557 H 4419.41 -0.941637 -4.87285 0
M  V30 45558 H 4414.66 -2.0383 -5.76423 0
M  V30 45559 H 4418.84 -2.81985 -6.36756 0
M  V30 45560 H 4416.47 -3.37413 -6.81217 0
M  V30 45561 N 4418.04 1.5758 -0.0251282 0
M  V30 45562 C 4419.29 1.91257 0.653084 0
M  V30 45563 C 4419.61 0.901751 1.72897 0
M  V30 45564 O 4418.88 -0.0573096 1.95816 0
M  V30 45565 H 4417.46 0.705951 0.244218 0
M  V30 45566 H 4420.12 1.94767 -0.0719893 0
M  V30 45567 H 4419.22 2.91756 1.10837 0
M  V30 45568 N 4419.52 -0.247971 1.55637 0
M  V30 45569 C 4420.8 -0.998929 1.68169 0
M  V30 45570 C 4421.18 -2.03407 0.564693 0
M  V30 45571 O 4420.52 -2.24379 -0.431997 0
M  V30 45572 C 4420.73 -1.63323 3.08426 0
M  V30 45573 C 4422.08 -2.13549 3.6699 0
M  V30 45574 O 4423.11 -1.73266 3.11219 0
M  V30 45575 O 4421.96 -2.87509 4.64759 0
M  V30 45576 H 4419.06 -0.464909 0.683951 0
M  V30 45577 H 4421.6 -0.241843 1.67968 0
M  V30 45578 H 4420.38 -0.884449 3.81173 0
M  V30 45579 H 4420 -2.45655 3.12633 0
M  V30 45580 N 4421 -1.48997 -0.513587 0
M  V30 45581 C 4422.25 -1.57097 -1.26505 0
M  V30 45582 C 4422.56 -0.25716 -1.93902 0
M  V30 45583 O 4423.77 -0.216573 -2.70635 0
M  V30 45584 C 4422.22 -2.77126 -2.29628 0
M  V30 45585 C 4421.83 -4.15215 -1.68227 0
M  V30 45586 C 4423.57 -2.94549 -3.05681 0
M  V30 45587 C 4421.48 -5.26483 -2.69387 0
M  V30 45588 H 4420.41 -0.584892 -0.475833 0
M  V30 45589 H 4423.06 -1.75361 -0.540425 0
M  V30 45590 H 4421.44 -2.52329 -3.05198 0
M  V30 45591 H 4422.62 -4.50098 -0.987347 0
M  V30 45592 H 4420.93 -4.03046 -1.04609 0
M  V30 45593 H 4423.53 -3.74846 -3.81307 0
M  V30 45594 H 4423.87 -2.04627 -3.62538 0
M  V30 45595 H 4424.41 -3.19325 -2.37227 0
M  V30 45596 H 4421.14 -6.18424 -2.17329 0
M  V30 45597 H 4420.66 -4.9607 -3.37157 0
M  V30 45598 H 4422.34 -5.55289 -3.32059 0
M  V30 45599 N 4422.48 0.763702 -1.3786 0
M  V30 45600 C 4423.89 1.34046 -1.29956 0
M  V30 45601 C 4424.24 1.96138 0.0492209 0
M  V30 45602 O 4423.36 1.94375 0.951171 0
M  V30 45603 C 4423.96 2.4372 -2.35342 0
M  V30 45604 C 4422.52 2.97143 -2.31048 0
M  V30 45605 C 4421.66 1.7043 -2.18744 0
M  V30 45606 H 4424.61 0.563343 -1.48365 0
M  V30 45607 H 4424.64 3.23405 -2.00473 0
M  V30 45608 H 4424.15 1.98499 -3.33496 0
M  V30 45609 H 4422.25 3.46719 -1.36442 0
M  V30 45610 H 4422.36 3.5221 -3.24785 0
M  V30 45611 H 4420.73 1.93667 -1.65424 0
M  V30 45612 H 4421.51 1.27301 -3.18825 0
M  V30 45613 N 4423.95 1.22562 0.990769 0
M  V30 45614 C 4425.18 1.07785 1.76607 0
M  V30 45615 C 4425.6 -0.371448 1.8511 0
M  V30 45616 O 4424.95 -1.25733 1.32278 0
M  V30 45617 C 4425 1.68524 3.19816 0
M  V30 45618 O 4424.73 3.07785 3.11769 0
M  V30 45619 C 4426.23 1.5905 4.13785 0
M  V30 45620 H 4423.45 0.377748 0.554569 0
M  V30 45621 H 4425.99 1.622 1.24545 0
M  V30 45622 H 4424.15 1.18167 3.68938 0
M  V30 45623 H 4424.56 3.37076 4.01846 0
M  V30 45624 H 4426.03 2.06268 5.12013 0
M  V30 45625 H 4426.51 0.547426 4.35775 0
M  V30 45626 H 4427.12 2.08722 3.70561 0
M  V30 45627 N 4425.43 -1.18793 1.03566 0
M  V30 45628 C 4426.66 -1.93137 0.755832 0
M  V30 45629 C 4427.08 -1.75372 -0.680158 0
M  V30 45630 O 4426.44 -1.06052 -1.47047 0
M  V30 45631 C 4426.49 -3.42743 1.1207 0
M  V30 45632 O 4425.59 -4.11682 0.243269 0
M  V30 45633 H 4424.93 -0.602714 0.278625 0
M  V30 45634 H 4427.46 -1.50673 1.38415 0
M  V30 45635 H 4427.47 -3.93433 1.08049 0
M  V30 45636 H 4426.15 -3.54994 2.16684 0
M  V30 45637 H 4424.72 -3.71322 0.342669 0
M  V30 45638 N 4426.91 -0.814437 -1.34925 0
M  V30 45639 C 4427.86 -0.202832 -2.27096 0
M  V30 45640 C 4428.84 0.627938 -1.48141 0
M  V30 45641 O 4430.04 0.483909 -1.70257 0
M  V30 45642 C 4427.16 0.641342 -3.37256 0
M  V30 45643 C 4426.25 -0.199589 -4.2363 0
M  V30 45644 N 4426.64 -1.26645 -4.89688 0
M  V30 45645 C 4424.94 0.0174865 -4.45997 0
M  V30 45646 C 4425.64 -1.7805 -5.53781 0
M  V30 45647 N 4424.62 -1.08572 -5.32647 0
M  V30 45648 H 4428.42 -1.01903 -2.75668 0
M  V30 45649 H 4425.93 -0.656384 -1.48544 0
M  V30 45650 H 4427.93 1.0956 -4.02246 0
M  V30 45651 H 4426.59 1.4558 -2.90235 0
M  V30 45652 H 4427.6 -1.64918 -4.9094 0
M  V30 45653 H 4424.28 0.800457 -4.09755 0
M  V30 45654 H 4425.67 -2.67258 -6.1646 0
M  V30 45655 N 4428.39 1.46984 -0.568636 0
M  V30 45656 C 4429.32 2.32947 0.160671 0
M  V30 45657 C 4430.3 1.44491 0.89758 0
M  V30 45658 O 4431.48 1.7333 0.875806 0
M  V30 45659 C 4428.61 3.26498 1.18391 0
M  V30 45660 C 4427.57 4.24284 0.562746 0
M  V30 45661 C 4426.89 5.07242 1.69145 0
M  V30 45662 C 4428.19 5.19988 -0.490944 0
M  V30 45663 H 4429.89 2.94173 -0.557019 0
M  V30 45664 H 4427.43 1.41459 -0.26932 0
M  V30 45665 H 4429.39 3.85483 1.70238 0
M  V30 45666 H 4428.11 2.6335 1.9317 0
M  V30 45667 H 4426.77 3.66542 0.0654875 0
M  V30 45668 H 4426.42 4.40489 2.42855 0
M  V30 45669 H 4426.12 5.73455 1.28154 0
M  V30 45670 H 4427.64 5.69088 2.21294 0
M  V30 45671 H 4429.06 5.73271 -0.0581062 0
M  V30 45672 H 4427.45 5.94466 -0.820374 0
M  V30 45673 H 4428.52 4.64772 -1.38257 0
M  V30 45674 N 4429.87 0.305673 1.54607 0
M  V30 45675 C 4430.8 -0.561402 2.26651 0
M  V30 45676 C 4431.78 -1.1341 1.26776 0
M  V30 45677 O 4432.96 -1.16257 1.55557 0
M  V30 45678 C 4430.09 -1.73111 3.01081 0
M  V30 45679 C 4429.05 -1.28855 4.08143 0
M  V30 45680 C 4428.37 -2.5438 4.70314 0
M  V30 45681 C 4429.67 -0.416395 5.20638 0
M  V30 45682 H 4431.37 0.0394954 2.99374 0
M  V30 45683 H 4428.91 0.0204356 1.43985 0
M  V30 45684 H 4430.86 -2.34383 3.50203 0
M  V30 45685 H 4429.59 -2.35832 2.25944 0
M  V30 45686 H 4428.25 -0.698865 3.59877 0
M  V30 45687 H 4427.9 -3.15425 3.91811 0
M  V30 45688 H 4427.6 -2.25467 5.42622 0
M  V30 45689 H 4429.12 -3.16446 5.22201 0
M  V30 45690 H 4430.53 -0.934918 5.65625 0
M  V30 45691 H 4428.93 -0.220836 5.99694 0
M  V30 45692 H 4430 0.557331 4.81686 0
M  V30 45693 N 4431.34 -1.57564 0.0334847 0
M  V30 45694 C 4432.59 -1.9198 -0.644204 0
M  V30 45695 C 4432.92 -0.910291 -1.71884 0
M  V30 45696 O 4432.17 0.0801274 -1.95536 0
M  V30 45697 C 4432.47 -3.33117 -1.29492 0
M  V30 45698 C 4432.14 -4.49538 -0.35023 0
M  V30 45699 C 4430.8 -4.81115 -0.0902282 0
M  V30 45700 C 4433.15 -5.20346 0.298215 0
M  V30 45701 C 4430.48 -5.80857 0.825951 0
M  V30 45702 C 4432.83 -6.21066 1.20247 0
M  V30 45703 C 4431.5 -6.51082 1.47132 0
M  V30 45704 H 4430.77 -0.702504 -0.235731 0
M  V30 45705 H 4433.41 -1.91258 0.0961849 0
M  V30 45706 H 4431.72 -3.3012 -2.11016 0
M  V30 45707 H 4433.42 -3.57018 -1.82591 0
M  V30 45708 H 4430.01 -4.24885 -0.563056 0
M  V30 45709 H 4434.19 -4.96177 0.110409 0
M  V30 45710 H 4429.45 -6.02457 1.0419 0
M  V30 45711 H 4433.62 -6.75051 1.7111 0
M  V30 45712 H 4431.25 -7.28185 2.1829 0
M  V30 45713 N 4432.82 0.239714 -1.55766 0
M  V30 45714 C 4433.77 1.29689 -1.90917 0
M  V30 45715 C 4434.74 1.47475 -0.764216 0
M  V30 45716 O 4435.92 1.61341 -1.01851 0
M  V30 45717 C 4433.06 2.6459 -2.21553 0
M  V30 45718 C 4432.18 2.54753 -3.48891 0
M  V30 45719 C 4431.31 3.82056 -3.69062 0
M  V30 45720 C 4430.35 3.66865 -4.89976 0
M  V30 45721 N 4429.49 4.86076 -5.06631 0
M  V30 45722 H 4434.33 0.990126 -2.8107 0
M  V30 45723 H 4431.86 0.477635 -1.3913 0
M  V30 45724 H 4433.82 3.43124 -2.37322 0
M  V30 45725 H 4432.45 2.93401 -1.34595 0
M  V30 45726 H 4431.5 1.67751 -3.41415 0
M  V30 45727 H 4432.82 2.39442 -4.37572 0
M  V30 45728 H 4431.97 4.69033 -3.84829 0
M  V30 45729 H 4430.71 4.00272 -2.78628 0
M  V30 45730 H 4429.71 2.78272 -4.74178 0
M  V30 45731 H 4430.94 3.50137 -5.81877 0
M  V30 45732 H 4428.89 5.0464 -4.19135 0
M  V30 45733 H 4428.8 4.73422 -5.89413 0
M  V30 45734 H 4430.07 5.74531 -5.26816 0
M  V30 45735 N 4434.3 1.49267 0.505678 0
M  V30 45736 C 4435.23 1.68501 1.61647 0
M  V30 45737 C 4436.21 0.533717 1.6151 0
M  V30 45738 O 4437.4 0.769033 1.78324 0
M  V30 45739 C 4434.53 1.74719 3.00151 0
M  V30 45740 C 4433.48 2.89592 3.15152 0
M  V30 45741 C 4432.81 2.80919 4.5496 0
M  V30 45742 C 4434.11 4.30589 2.95619 0
M  V30 45743 H 4435.8 2.61498 1.45805 0
M  V30 45744 H 4433.35 1.25841 0.700006 0
M  V30 45745 H 4435.3 1.86761 3.77754 0
M  V30 45746 H 4434.02 0.783178 3.17071 0
M  V30 45747 H 4432.68 2.77144 2.39972 0
M  V30 45748 H 4432.33 1.82435 4.6875 0
M  V30 45749 H 4432.03 3.58015 4.65939 0
M  V30 45750 H 4433.55 2.94962 5.3463 0
M  V30 45751 H 4434.97 4.43743 3.62995 0
M  V30 45752 H 4433.36 5.08871 3.18073 0
M  V30 45753 H 4434.43 4.45359 1.9179 0
M  V30 45754 N 4435.78 -0.756381 1.38263 0
M  V30 45755 C 4437.19 -1.33355 1.30665 0
M  V30 45756 C 4437.54 -1.96162 -0.0388185 0
M  V30 45757 O 4436.67 -1.94877 -0.940849 0
M  V30 45758 C 4437.26 -2.42469 2.36631 0
M  V30 45759 C 4435.82 -2.95913 2.3262 0
M  V30 45760 C 4434.97 -1.69268 2.19645 0
M  V30 45761 H 4437.92 -0.555467 1.48662 0
M  V30 45762 H 4437.94 -3.22337 2.02185 0
M  V30 45763 H 4437.45 -1.96727 3.34544 0
M  V30 45764 H 4435.55 -3.45991 1.38279 0
M  V30 45765 H 4435.66 -3.50482 3.26648 0
M  V30 45766 H 4434.03 -1.92787 1.66449 0
M  V30 45767 H 4434.81 -1.25608 3.19496 0
M  V30 45768 N 4437.26 -1.23086 -0.984255 0
M  V30 45769 C 4438.19 -0.966434 -2.07829 0
M  V30 45770 C 4439.2 0.0581563 -1.62696 0
M  V30 45771 O 4440.39 -0.176906 -1.77621 0
M  V30 45772 C 4437.49 -0.433515 -3.36116 0
M  V30 45773 C 4436.66 -1.51737 -4.10237 0
M  V30 45774 C 4435.72 -0.990002 -5.16803 0
M  V30 45775 O 4434.75 -1.67813 -5.439 0
M  V30 45776 N 4435.95 0.184163 -5.80208 0
M  V30 45777 H 4438.72 -1.90833 -2.31091 0
M  V30 45778 H 4436.28 -1.13892 -1.15066 0
M  V30 45779 H 4438.27 -0.0658412 -4.04646 0
M  V30 45780 H 4436.84 0.413697 -3.0985 0
M  V30 45781 H 4436.06 -2.05798 -3.36216 0
M  V30 45782 H 4437.35 -2.24635 -4.56526 0
M  V30 45783 H 4436.74 0.759865 -5.60573 0
M  V30 45784 H 4435.3 0.493137 -6.49932 0
M  V30 45785 N 4438.73 1.18243 -1.04194 0
M  V30 45786 C 4439.64 2.25572 -0.644556 0
M  V30 45787 C 4440.66 1.70847 0.329766 0
M  V30 45788 O 4441.84 2.00554 0.184373 0
M  V30 45789 C 4438.9 3.46697 -0.0149988 0
M  V30 45790 C 4437.96 4.1655 -1.03849 0
M  V30 45791 C 4437.2 5.31892 -0.438879 0
M  V30 45792 O 4437.42 5.65387 0.754553 0
M  V30 45793 O 4436.35 5.90455 -1.16821 0
M  V30 45794 H 4440.18 2.61831 -1.53878 0
M  V30 45795 H 4437.76 1.25349 -0.812898 0
M  V30 45796 H 4439.65 4.20063 0.33539 0
M  V30 45797 H 4438.32 3.12258 0.853028 0
M  V30 45798 H 4437.23 3.45246 -1.44069 0
M  V30 45799 H 4438.56 4.54992 -1.87732 0
M  V30 45800 N 4440.21 0.821581 1.34491 0
M  V30 45801 C 4441.14 0.25722 2.32079 0
M  V30 45802 C 4442.12 -0.625589 1.58178 0
M  V30 45803 O 4443.31 -0.552746 1.86168 0
M  V30 45804 C 4440.44 -0.582837 3.42374 0
M  V30 45805 C 4439.39 0.202721 4.2752 0
M  V30 45806 C 4438.72 -0.759993 5.29271 0
M  V30 45807 C 4440.02 1.41016 5.02903 0
M  V30 45808 H 4441.71 1.07257 2.79529 0
M  V30 45809 H 4439.26 0.51721 1.34391 0
M  V30 45810 H 4441.21 -0.987828 4.09658 0
M  V30 45811 H 4439.94 -1.43123 2.9357 0
M  V30 45812 H 4438.59 0.589064 3.61836 0
M  V30 45813 H 4438.24 -1.6043 4.7673 0
M  V30 45814 H 4437.94 -0.238603 5.87115 0
M  V30 45815 H 4439.47 -1.16287 5.99424 0
M  V30 45816 H 4440.88 1.07925 5.6305 0
M  V30 45817 H 4439.28 1.8671 5.70315 0
M  V30 45818 H 4440.35 2.18905 4.32676 0
M  V30 45819 N 4441.69 -1.4668 0.576422 0
M  V30 45820 C 4442.62 -2.33028 -0.148315 0
M  V30 45821 C 4443.6 -1.44965 -0.889905 0
M  V30 45822 O 4444.79 -1.73792 -0.866601 0
M  V30 45823 C 4441.92 -3.27121 -1.16658 0
M  V30 45824 C 4440.87 -4.24577 -0.540237 0
M  V30 45825 C 4440.2 -5.08132 -1.66452 0
M  V30 45826 C 4441.5 -5.1972 0.518514 0
M  V30 45827 H 4443.19 -2.93873 0.572612 0
M  V30 45828 H 4440.74 -1.41314 0.276818 0
M  V30 45829 H 4442.69 -3.8638 -1.68191 0
M  V30 45830 H 4441.41 -2.6437 -1.9177 0
M  V30 45831 H 4440.07 -3.66571 -0.046048 0
M  V30 45832 H 4439.72 -4.41771 -2.40516 0
M  V30 45833 H 4439.42 -5.74126 -1.25111 0
M  V30 45834 H 4440.94 -5.70254 -2.18273 0
M  V30 45835 H 4442.36 -5.73232 0.0885074 0
M  V30 45836 H 4440.76 -5.94023 0.851888 0
M  V30 45837 H 4441.83 -4.64032 1.40719 0
M  V30 45838 N 4443.17 -0.313868 -1.54443 0
M  V30 45839 C 4444.12 0.556472 -2.23991 0
M  V30 45840 C 4445.09 1.11938 -1.22715 0
M  V30 45841 O 4446.27 1.16153 -1.51371 0
M  V30 45842 C 4443.41 1.71625 -2.99398 0
M  V30 45843 C 4442.52 1.18349 -4.15473 0
M  V30 45844 C 4441.66 2.30817 -4.78432 0
M  V30 45845 C 4440.7 1.74741 -5.86628 0
M  V30 45846 N 4439.83 2.80832 -6.43489 0
M  V30 45847 H 4444.67 -0.0431941 -2.97969 0
M  V30 45848 H 4442.21 -0.0330876 -1.47063 0
M  V30 45849 H 4444.17 2.39856 -3.41357 0
M  V30 45850 H 4442.8 2.28734 -2.27773 0
M  V30 45851 H 4441.85 0.39303 -3.78364 0
M  V30 45852 H 4443.16 0.733089 -4.93383 0
M  V30 45853 H 4442.32 3.06971 -5.2331 0
M  V30 45854 H 4441.06 2.79189 -3.99881 0
M  V30 45855 H 4440.06 0.970805 -5.41161 0
M  V30 45856 H 4441.29 1.27257 -6.6707 0
M  V30 45857 H 4439.23 3.28515 -5.67815 0
M  V30 45858 H 4439.15 2.40326 -7.16784 0
M  V30 45859 H 4440.42 3.56845 -6.93024 0
M  V30 45860 N 4444.65 1.57544 -0.0418402 0
M  V30 45861 C 4446.06 1.80013 0.495195 0
M  V30 45862 C 4446.41 0.953259 1.71486 0
M  V30 45863 O 4445.53 0.167214 2.15753 0
M  V30 45864 C 4446.13 3.26485 0.905151 0
M  V30 45865 C 4444.69 3.49904 1.38722 0
M  V30 45866 C 4443.83 2.7498 0.357959 0
M  V30 45867 H 4446.79 1.56424 -0.267791 0
M  V30 45868 H 4446.81 3.36894 1.7687 0
M  V30 45869 H 4446.32 3.88096 0.0172646 0
M  V30 45870 H 4444.42 2.93562 2.29461 0
M  V30 45871 H 4444.53 4.58619 1.38582 0
M  V30 45872 H 4442.9 2.40837 0.828827 0
M  V30 45873 H 4443.68 3.39313 -0.52168 0
M  V30 45874 N 4446.12 -0.23145 1.55891 0
M  V30 45875 C 4447.54 -0.580696 1.48661 0
M  V30 45876 C 4447.74 -1.87615 0.735046 0
M  V30 45877 O 4446.8 -2.51045 0.270674 0
M  V30 45878 C 4448.11 -0.669099 2.93161 0
M  V30 45879 C 4449.66 -0.760392 3.03623 0
M  V30 45880 C 4450.13 -0.880225 4.49462 0
M  V30 45881 N 4451.62 -0.944702 4.53464 0
M  V30 45882 C 4452.36 -1.05696 5.63574 0
M  V30 45883 N 4451.85 -1.13379 6.8346 0
M  V30 45884 N 4453.65 -1.09132 5.51404 0
M  V30 45885 H 4445.8 0.618767 2.03187 0
M  V30 45886 H 4448.06 0.215761 0.92312 0
M  V30 45887 H 4447.77 0.213027 3.51054 0
M  V30 45888 H 4447.64 -1.53598 3.44511 0
M  V30 45889 H 4450.03 -1.63296 2.45801 0
M  V30 45890 H 4450.11 0.131954 2.55459 0
M  V30 45891 H 4449.75 -0.0121499 5.07899 0
M  V30 45892 H 4449.68 -1.78784 4.95322 0
M  V30 45893 H 4452.17 -0.896047 3.67123 0
M  V30 45894 H 4452.49 -1.21894 7.63126 0
M  V30 45895 H 4450.83 -1.10309 6.8619 0
M  V30 45896 H 4454.02 -1.02789 4.56675 0
M  V30 45897 H 4454.2 -1.17536 6.37251 0
M  V30 45898 N 4447.6 -1.49533 -0.497755 0
M  V30 45899 C 4448.83 -1.63164 -1.28033 0
M  V30 45900 C 4449.25 -0.304246 -1.85623 0
M  V30 45901 O 4448.61 0.728559 -1.66017 0
M  V30 45902 C 4448.66 -2.70545 -2.38407 0
M  V30 45903 O 4447.76 -2.29944 -3.42344 0
M  V30 45904 H 4447.1 -0.546015 -0.377841 0
M  V30 45905 H 4449.63 -1.95742 -0.595511 0
M  V30 45906 H 4449.64 -2.92812 -2.84122 0
M  V30 45907 H 4448.32 -3.66896 -1.95857 0
M  V30 45908 H 4446.9 -2.1802 -3.02526 0
M  V30 45909 N 4449.08 0.749038 -1.38662 0
M  V30 45910 C 4450.01 1.87268 -1.32148 0
M  V30 45911 C 4451.03 1.61126 -0.232844 0
M  V30 45912 O 4452.21 1.71621 -0.49075 0
M  V30 45913 C 4449.31 3.23002 -1.02583 0
M  V30 45914 C 4448.49 3.76612 -2.22446 0
M  V30 45915 C 4447.55 4.90872 -1.89554 0
M  V30 45916 O 4446.57 5.05267 -2.62096 0
M  V30 45917 N 4447.77 5.74195 -0.853233 0
M  V30 45918 H 4450.54 1.93365 -2.28976 0
M  V30 45919 H 4448.1 0.92917 -1.32582 0
M  V30 45920 H 4450.09 3.96989 -0.786225 0
M  V30 45921 H 4448.66 3.12262 -0.145359 0
M  V30 45922 H 4447.88 2.94137 -2.62444 0
M  V30 45923 H 4449.17 4.09162 -3.0243 0
M  V30 45924 H 4448.57 5.6514 -0.251748 0
M  V30 45925 H 4447.13 6.48311 -0.673518 0
M  V30 45926 N 4450.56 1.23606 0.977714 0
M  V30 45927 C 4451.81 1.06977 1.71937 0
M  V30 45928 C 4452.13 -0.392942 1.90489 0
M  V30 45929 O 4451.39 -1.30714 1.45644 0
M  V30 45930 C 4451.69 1.74341 3.11993 0
M  V30 45931 C 4451.35 3.24263 3.13312 0
M  V30 45932 C 4450.02 3.65167 3.13379 0
M  V30 45933 C 4452.37 4.20152 3.08418 0
M  V30 45934 C 4449.7 5.00414 3.06272 0
M  V30 45935 C 4452.05 5.55394 3.02853 0
M  V30 45936 C 4450.71 5.95658 3.01244 0
M  V30 45937 H 4449.98 0.391455 0.629161 0
M  V30 45938 H 4452.63 1.53576 1.14397 0
M  V30 45939 H 4450.93 1.20109 3.72936 0
M  V30 45940 H 4452.63 1.58949 3.68152 0
M  V30 45941 H 4449.22 2.91703 3.14018 0
M  V30 45942 H 4453.41 3.89558 3.07504 0
M  V30 45943 H 4448.66 5.3082 3.0338 0
M  V30 45944 H 4452.84 6.29408 2.98024 0
M  V30 45945 H 4450.46 7.0042 2.95492 0
M  V30 45946 N 4452.04 -1.17688 1.0482 0
M  V30 45947 C 4453 -2.19784 0.650194 0
M  V30 45948 C 4454 -1.58045 -0.296372 0
M  V30 45949 O 4455.19 -1.74013 -0.0807485 0
M  V30 45950 C 4452.32 -3.4087 -0.0455788 0
M  V30 45951 H 4453.52 -2.5651 1.55379 0
M  V30 45952 H 4451.07 -1.31705 0.841641 0
M  V30 45953 H 4451.8 -3.09684 -0.962617 0
M  V30 45954 H 4451.59 -3.86926 0.634863 0
M  V30 45955 H 4453.08 -4.16446 -0.310285 0
M  V30 45956 N 4453.52 -0.828702 -1.34053 0
M  V30 45957 C 4454.76 -0.42015 -1.984 0
M  V30 45958 C 4455.09 1.01558 -1.65528 0
M  V30 45959 O 4454.37 1.70831 -0.929891 0
M  V30 45960 C 4454.65 -0.629395 -3.54557 0
M  V30 45961 C 4454.51 -2.11166 -3.97151 0
M  V30 45962 C 4455.82 -0.0690303 -4.40046 0
M  V30 45963 H 4452.94 -0.154129 -0.720703 0
M  V30 45964 H 4455.59 -1.04234 -1.58856 0
M  V30 45965 H 4453.74 -0.0997783 -3.88372 0
M  V30 45966 H 4455.41 -2.70536 -3.73642 0
M  V30 45967 H 4453.65 -2.59997 -3.47252 0
M  V30 45968 H 4454.32 -2.20885 -5.05879 0
M  V30 45969 H 4456.8 -0.521603 -4.12818 0
M  V30 45970 H 4455.67 -0.245199 -5.48352 0
M  V30 45971 H 4455.93 1.02645 -4.30019 0
M  V30 45972 N 4454.99 1.46373 -0.584193 0
M  V30 45973 C 4456.27 1.956 -0.00340756 0
M  V30 45974 C 4456.65 1.52684 1.45776 0
M  V30 45975 O 4456 0.778235 2.14839 0
M  V30 45976 C 4456.21 3.48551 -0.177014 0
M  V30 45977 C 4457.56 4.24576 -0.0456101 0
M  V30 45978 O 4458.58 3.56042 -0.105926 0
M  V30 45979 O 4457.44 5.46428 0.0888455 0
M  V30 45980 H 4454.53 0.825548 0.0489776 0
M  V30 45981 H 4457.08 1.56649 -0.652616 0
M  V30 45982 H 4455.85 3.72679 -1.19273 0
M  V30 45983 H 4455.47 3.94334 0.508556 0
M  V30 45984 N 4456.47 0.322054 1.54274 0
M  V30 45985 C 4457.4 -0.587102 2.20518 0
M  V30 45986 C 4458.38 -1.11688 1.18171 0
M  V30 45987 O 4459.57 -1.18117 1.46904 0
M  V30 45988 C 4456.69 -1.80544 2.86569 0
M  V30 45989 C 4455.74 -1.40704 4.02622 0
M  V30 45990 S 4456.57 -0.445031 5.33648 0
M  V30 45991 C 4457.73 -1.67069 6.03191 0
M  V30 45992 H 4457.96 -0.024383 2.9729 0
M  V30 45993 H 4455.49 0.106141 1.54035 0
M  V30 45994 H 4457.45 -2.50451 3.25245 0
M  V30 45995 H 4456.11 -2.33935 2.09603 0
M  V30 45996 H 4455.31 -2.31485 4.47695 0
M  V30 45997 H 4454.91 -0.787691 3.65611 0
M  V30 45998 H 4457.2 -2.60834 6.25278 0
M  V30 45999 H 4458.14 -1.26215 6.96761 0
M  V30 46000 H 4458.55 -1.85698 5.33082 0
M  V30 46001 N 4457.95 -1.5752 0.0501946 0
M  V30 46002 C 4458.88 -2.08417 -0.953687 0
M  V30 46003 C 4459.89 -1.0118 -1.2754 0
M  V30 46004 O 4461.08 -1.28749 -1.23637 0
M  V30 46005 C 4458.18 -2.51146 -2.2755 0
M  V30 46006 C 4457.36 -3.81707 -2.13584 0
M  V30 46007 C 4456.42 -4.1076 -3.28881 0
M  V30 46008 O 4455.44 -4.80696 -3.04829 0
M  V30 46009 N 4456.64 -3.62595 -4.53327 0
M  V30 46010 H 4459.41 -2.95167 -0.519279 0
M  V30 46011 H 4456.97 -1.61327 -0.13607 0
M  V30 46012 H 4458.96 -2.67659 -3.03547 0
M  V30 46013 H 4457.53 -1.69649 -2.62561 0
M  V30 46014 H 4456.75 -3.74786 -1.22184 0
M  V30 46015 H 4458.04 -4.67208 -2.01479 0
M  V30 46016 H 4457.44 -3.06056 -4.75759 0
M  V30 46017 H 4455.99 -3.84347 -5.26422 0
M  V30 46018 N 4459.43 0.223179 -1.56012 0
M  V30 46019 C 4460.66 0.964748 -1.83031 0
M  V30 46020 C 4461.07 1.7801 -0.629103 0
M  V30 46021 O 4460.43 1.7801 0.402351 0
M  V30 46022 C 4460.48 1.88362 -3.08548 0
M  V30 46023 O 4460.2 1.10122 -4.24034 0
M  V30 46024 C 4461.7 2.73922 -3.48542 0
M  V30 46025 H 4458.92 0.28282 -0.608485 0
M  V30 46026 H 4461.46 0.2389 -2.031 0
M  V30 46027 H 4459.62 2.56344 -2.90459 0
M  V30 46028 H 4460.03 1.72483 -4.95328 0
M  V30 46029 H 4461.51 3.34102 -4.39409 0
M  V30 46030 H 4461.98 3.46234 -2.70219 0
M  V30 46031 H 4462.59 2.11356 -3.69065 0
M  V30 46032 N 4460.91 1.49795 0.489818 0
M  V30 46033 C 4462.13 1.63572 1.26696 0
M  V30 46034 C 4462.55 0.311531 1.86212 0
M  V30 46035 O 4461.91 -0.704357 1.6836 0
M  V30 46036 C 4461.96 2.71293 2.38919 0
M  V30 46037 O 4461.68 3.98576 1.81847 0
M  V30 46038 C 4463.18 2.95876 3.3011 0
M  V30 46039 H 4460.4 0.550355 0.383862 0
M  V30 46040 H 4462.94 1.959 0.586795 0
M  V30 46041 H 4461.1 2.41711 3.02745 0
M  V30 46042 H 4461.51 4.58002 2.55606 0
M  V30 46043 H 4462.99 3.74956 4.05108 0
M  V30 46044 H 4463.46 2.0622 3.87776 0
M  V30 46045 H 4464.07 3.26917 2.7204 0
M  V30 46046 N 4462.38 -0.741673 1.39057 0
M  V30 46047 C 4463.61 -1.53602 1.3936 0
M  V30 46048 C 4464.03 -1.88096 -0.0116244 0
M  V30 46049 O 4463.39 -1.51434 -0.996871 0
M  V30 46050 C 4463.44 -2.80434 2.26692 0
M  V30 46051 O 4462.54 -3.76082 1.69222 0
M  V30 46052 H 4461.88 -0.464126 0.474851 0
M  V30 46053 H 4464.41 -0.9156 1.8297 0
M  V30 46054 H 4464.42 -3.29237 2.40971 0
M  V30 46055 H 4463.1 -2.54659 3.28819 0
M  V30 46056 H 4461.68 -3.34827 1.6415 0
M  V30 46057 N 4463.86 -1.24123 -0.971145 0
M  V30 46058 C 4465.09 -1.10673 -1.75403 0
M  V30 46059 C 4465.51 0.336983 -1.85057 0
M  V30 46060 O 4464.87 1.24391 -1.31896 0
M  V30 46061 C 4464.92 -1.74737 -3.15435 0
M  V30 46062 O 4464.02 -1.0158 -3.99694 0
M  V30 46063 H 4463.36 -0.38736 -0.539303 0
M  V30 46064 H 4465.89 -1.64363 -1.21845 0
M  V30 46065 H 4465.9 -1.80354 -3.65973 0
M  V30 46066 H 4464.58 -2.79783 -3.07724 0
M  V30 46067 H 4463.15 -1.03725 -3.58184 0
M  V30 46068 N 4465.34 1.17131 -1.05443 0
M  V30 46069 C 4466.76 1.39451 -0.77625 0
M  V30 46070 C 4466.96 1.91456 0.628239 0
M  V30 46071 O 4466.01 2.10781 1.39023 0
M  V30 46072 C 4467.33 2.38299 -1.83397 0
M  V30 46073 C 4468.87 2.52 -1.85648 0
M  V30 46074 C 4469.35 3.54123 -2.90449 0
M  V30 46075 N 4470.84 3.61643 -2.89428 0
M  V30 46076 C 4471.57 4.40427 -3.67167 0
M  V30 46077 N 4471.07 5.22705 -4.54699 0
M  V30 46078 N 4472.86 4.35325 -3.55596 0
M  V30 46079 H 4465.01 0.817065 -1.96056 0
M  V30 46080 H 4467.28 0.421596 -0.849094 0
M  V30 46081 H 4466.98 2.07163 -2.84212 0
M  V30 46082 H 4466.86 3.37835 -1.67772 0
M  V30 46083 H 4469.24 2.82444 -0.854959 0
M  V30 46084 H 4469.33 1.52529 -2.0535 0
M  V30 46085 H 4468.97 3.24418 -3.90788 0
M  V30 46086 H 4468.9 4.53304 -2.67999 0
M  V30 46087 H 4471.39 3.02901 -2.25963 0
M  V30 46088 H 4471.7 5.8001 -5.10694 0
M  V30 46089 H 4470.05 5.22077 -4.5876 0
M  V30 46090 H 4473.24 3.70101 -2.86605 0
M  V30 46091 H 4473.41 4.9648 -4.16428 0
M  V30 46092 N 4466.82 0.835799 1.33612 0
M  V30 46093 C 4468.07 0.429179 1.9749 0
M  V30 46094 C 4468.39 -1.01427 1.66546 0
M  V30 46095 O 4467.66 -1.70607 0.962804 0
M  V30 46096 H 4466.24 0.155712 0.730591 0
M  V30 46097 H 4468.9 1.06808 1.63028 0
M  V30 46098 H 4468 0.558718 3.07058 0
M  V30 46099 N 4468.3 -1.46061 0.591947 0
M  V30 46100 C 4469.23 -2.33173 -0.123591 0
M  V30 46101 C 4470.21 -1.459 -0.874479 0
M  V30 46102 O 4471.39 -1.74701 -0.848119 0
M  V30 46103 C 4468.52 -3.2834 -1.13182 0
M  V30 46104 C 4467.48 -4.25126 -0.495174 0
M  V30 46105 C 4466.8 -5.09868 -1.61054 0
M  V30 46106 C 4468.1 -5.19141 0.573608 0
M  V30 46107 H 4469.8 -2.93249 0.603749 0
M  V30 46108 H 4467.34 -1.41013 0.291791 0
M  V30 46109 H 4469.3 -3.88143 -1.64083 0
M  V30 46110 H 4468.02 -2.66389 -1.88956 0
M  V30 46111 H 4466.68 -3.66599 -0.00716564 0
M  V30 46112 H 4466.33 -4.44297 -2.35817 0
M  V30 46113 H 4466.03 -5.75421 -1.19015 0
M  V30 46114 H 4467.55 -5.72537 -2.12213 0
M  V30 46115 H 4468.96 -5.73106 0.149301 0
M  V30 46116 H 4467.36 -5.93086 0.914844 0
M  V30 46117 H 4468.43 -4.62514 1.45633 0
M  V30 46118 N 4469.77 -0.330231 -1.54101 0
M  V30 46119 C 4471.02 0.270735 -2.00985 0
M  V30 46120 C 4471.35 1.51261 -1.21794 0
M  V30 46121 O 4470.63 1.92141 -0.301995 0
M  V30 46122 C 4470.91 0.598214 -3.55096 0
M  V30 46123 C 4470.76 -0.65483 -4.45008 0
M  V30 46124 C 4472.08 1.41319 -4.16794 0
M  V30 46125 H 4469.2 0.0969274 -0.730598 0
M  V30 46126 H 4471.84 -0.448131 -1.8464 0
M  V30 46127 H 4469.99 1.21065 -3.69155 0
M  V30 46128 H 4471.67 -1.293 -4.42808 0
M  V30 46129 H 4469.91 -1.28239 -4.14412 0
M  V30 46130 H 4470.58 -0.381138 -5.50683 0
M  V30 46131 H 4473.06 0.895454 -4.06351 0
M  V30 46132 H 4471.93 1.61109 -5.24724 0
M  V30 46133 H 4472.19 2.41133 -3.7055 0
M  V30 46134 N 4471.25 1.57491 -0.0585476 0
M  V30 46135 C 4472.5 1.9298 0.613581 0
M  V30 46136 C 4472.83 0.937521 1.70414 0
M  V30 46137 O 4472.08 -0.0490092 1.95639 0
M  V30 46138 C 4472.38 3.35134 1.24176 0
M  V30 46139 C 4472.05 4.50038 0.278668 0
M  V30 46140 C 4470.71 4.81198 0.0136755 0
M  V30 46141 C 4473.06 5.19806 -0.38096 0
M  V30 46142 C 4470.39 5.7947 -0.918255 0
M  V30 46143 C 4472.74 6.19075 -1.30113 0
M  V30 46144 C 4471.41 6.48659 -1.57472 0
M  V30 46145 H 4470.68 0.706165 0.224525 0
M  V30 46146 H 4473.32 1.91081 -0.1266 0
M  V30 46147 H 4471.63 3.33436 2.05737 0
M  V30 46148 H 4473.32 3.59877 1.76888 0
M  V30 46149 H 4469.91 4.25727 0.495389 0
M  V30 46150 H 4474.1 4.95939 -0.189332 0
M  V30 46151 H 4469.35 6.00723 -1.13762 0
M  V30 46152 H 4473.53 6.72244 -1.81828 0
M  V30 46153 H 4471.16 7.2462 -2.29847 0
M  V30 46154 N 4472.73 -0.214903 1.56128 0
M  V30 46155 C 4473.68 -1.26999 1.89355 0
M  V30 46156 C 4474.66 -1.41967 0.757252 0
M  V30 46157 O 4475.86 -1.4467 1.01979 0
M  V30 46158 C 4472.99 -2.61903 2.21949 0
M  V30 46159 C 4472.07 -2.5081 3.41987 0
M  V30 46160 N 4472.46 -2.09374 4.6043 0
M  V30 46161 C 4470.76 -2.81753 3.45733 0
M  V30 46162 C 4471.46 -2.09693 5.4259 0
M  V30 46163 N 4470.44 -2.50437 4.82475 0
M  V30 46164 H 4474.24 -0.940636 2.78441 0
M  V30 46165 H 4471.75 -0.423437 1.56783 0
M  V30 46166 H 4473.75 -3.38088 2.43931 0
M  V30 46167 H 4472.41 -2.95679 1.34179 0
M  V30 46168 H 4473.42 -1.80399 4.85466 0
M  V30 46169 H 4470.1 -3.19856 2.68325 0
M  V30 46170 H 4471.49 -1.79726 6.47417 0
M  V30 46171 N 4474.21 -1.50053 -0.481867 0
M  V30 46172 C 4475.44 -1.64242 -1.25826 0
M  V30 46173 C 4475.85 -0.321402 -1.86044 0
M  V30 46174 O 4475.21 0.695418 -1.68731 0
M  V30 46175 C 4475.26 -2.72556 -2.37477 0
M  V30 46176 O 4474.98 -3.99535 -1.79731 0
M  V30 46177 C 4476.48 -2.97622 -3.28536 0
M  V30 46178 H 4473.7 -0.552383 -0.380938 0
M  V30 46179 H 4476.25 -1.96209 -0.576398 0
M  V30 46180 H 4474.4 -2.43313 -3.01459 0
M  V30 46181 H 4474.81 -4.59351 -2.53174 0
M  V30 46182 H 4476.29 -3.77099 -4.03114 0
M  V30 46183 H 4476.77 -2.08273 -3.86677 0
M  V30 46184 H 4477.37 -3.28355 -2.70302 0
M  V30 46185 N 4475.69 0.734288 -1.39449 0
M  V30 46186 C 4476.93 1.49091 -1.36441 0
M  V30 46187 C 4477.26 1.94961 0.0387569 0
M  V30 46188 O 4476.53 1.69036 0.990131 0
M  V30 46189 H 4475.11 0.553083 -0.502104 0
M  V30 46190 H 4477.77 0.871664 -1.74322 0
M  V30 46191 H 4476.86 2.37269 -2.02756 0
M  V30 46192 N 4477.16 1.24636 0.964549 0
M  V30 46193 C 4478.39 1.11507 1.74281 0
M  V30 46194 C 4478.81 -0.3321 1.85856 0
M  V30 46195 O 4478.16 -1.22898 1.34916 0
M  V30 46196 C 4478.22 1.75269 3.16169 0
M  V30 46197 O 4477.94 3.14329 3.05171 0
M  V30 46198 C 4479.44 1.67791 4.10318 0
M  V30 46199 H 4476.66 0.389426 0.546432 0
M  V30 46200 H 4479.2 1.64805 1.21077 0
M  V30 46201 H 4477.36 1.25967 3.66348 0
M  V30 46202 H 4477.77 3.45524 3.94606 0
M  V30 46203 H 4479.24 2.17082 5.07523 0
M  V30 46204 H 4479.72 0.639737 4.34516 0
M  V30 46205 H 4480.33 2.16535 3.6605 0
M  V30 46206 N 4478.64 -1.1657 1.06062 0
M  V30 46207 C 4479.59 -2.20881 0.66934 0
M  V30 46208 C 4480.56 -1.62731 -0.332861 0
M  V30 46209 O 4481.74 -1.89501 -0.22228 0
M  V30 46210 C 4478.88 -3.45049 0.0594785 0
M  V30 46211 C 4478 -4.17454 1.11157 0
M  V30 46212 C 4477.13 -5.29133 0.468102 0
M  V30 46213 C 4476.17 -5.93338 1.5039 0
M  V30 46214 N 4475.31 -6.96513 0.883951 0
M  V30 46215 H 4480.15 -2.53703 1.56328 0
M  V30 46216 H 4477.69 -1.24613 0.781669 0
M  V30 46217 H 4479.64 -4.16035 -0.311625 0
M  V30 46218 H 4478.27 -3.12784 -0.797882 0
M  V30 46219 H 4477.33 -3.45096 1.60041 0
M  V30 46220 H 4478.64 -4.613 1.89747 0
M  V30 46221 H 4477.79 -6.06684 0.0439004 0
M  V30 46222 H 4476.53 -4.86445 -0.349693 0
M  V30 46223 H 4475.54 -5.1451 1.93802 0
M  V30 46224 H 4476.76 -6.38106 2.32374 0
M  V30 46225 H 4474.71 -6.55943 0.0868256 0
M  V30 46226 H 4474.62 -7.38717 1.60726 0
M  V30 46227 H 4475.89 -7.77991 0.484816 0
M  V30 46228 N 4480.12 -0.842873 -1.33167 0
M  V30 46229 C 4481.07 -0.267576 -2.31056 0
M  V30 46230 C 4482.06 0.602627 -1.58319 0
M  V30 46231 O 4483.27 0.491742 -1.73153 0
M  V30 46232 H 4479.64 -0.0678076 -0.748937 0
M  V30 46233 H 4481.62 -1.10764 -2.77081 0
M  V30 46234 C 4480.36 0.539211 -3.43494 0
M  V30 46235 H 4479.69 -0.12109 -3.99617 0
M  V30 46236 H 4481.13 0.907524 -4.14174 0
M  V30 46237 C 4479.59 1.71971 -2.89703 0
M  V30 46238 O 4480.12 2.81852 -2.86221 0
M  V30 46239 N 4478.32 1.54291 -2.46257 0
M  V30 46240 H 4477.87 0.649055 -2.49289 0
M  V30 46241 H 4477.83 2.33424 -2.1062 0
M  V30 46242 N 4481.6 1.45745 -0.599685 0
M  V30 46243 C 4482.82 2.07177 -0.0960927 0
M  V30 46244 C 4483.25 1.44272 1.20695 0
M  V30 46245 O 4482.61 0.532564 1.73302 0
M  V30 46246 C 4482.66 3.6058 0.0384081 0
M  V30 46247 O 4481.76 3.97716 1.09066 0
M  V30 46248 H 4481.1 0.660249 -0.0704825 0
M  V30 46249 H 4483.63 1.87121 -0.827451 0
M  V30 46250 H 4483.64 4.07298 0.23916 0
M  V30 46251 H 4482.32 4.05753 -0.91309 0
M  V30 46252 H 4480.89 3.62681 0.867007 0
M  V30 46253 N 4483.08 0.338398 1.53924 0
M  V30 46254 C 4484.32 -0.259688 2.00828 0
M  V30 46255 C 4484.65 -1.50968 1.22633 0
M  V30 46256 O 4483.91 -1.93378 0.300577 0
M  V30 46257 C 4484.21 -0.624357 3.51904 0
M  V30 46258 C 4483.87 0.528164 4.47796 0
M  V30 46259 C 4482.53 0.844465 4.73732 0
M  V30 46260 C 4484.89 1.30161 5.04686 0
M  V30 46261 C 4482.21 1.93667 5.53814 0
M  V30 46262 C 4484.57 2.38402 5.85958 0
M  V30 46263 C 4483.23 2.70598 6.10191 0
M  V30 46264 H 4482.5 -0.0950265 0.734882 0
M  V30 46265 H 4485.15 0.465248 1.85762 0
M  V30 46266 H 4483.45 -1.42993 3.64774 0
M  V30 46267 H 4485.15 -1.09891 3.85649 0
M  V30 46268 H 4481.74 0.271572 4.27739 0
M  V30 46269 H 4485.92 1.0705 4.84617 0
M  V30 46270 H 4481.18 2.19041 5.70816 0
M  V30 46271 H 4485.35 2.98768 6.29055 0
M  V30 46272 H 4482.98 3.55356 6.72031 0
M  V30 46273 N 4484.56 -1.57458 0.0668989 0
M  V30 46274 C 4485.49 -2.08036 -0.937877 0
M  V30 46275 C 4486.47 -0.984367 -1.29418 0
M  V30 46276 O 4487.65 -1.25741 -1.40433 0
M  V30 46277 C 4484.78 -2.53396 -2.24741 0
M  V30 46278 C 4483.82 -3.74383 -2.04302 0
M  V30 46279 S 4484.66 -5.19308 -1.30688 0
M  V30 46280 C 4485.81 -5.67995 -2.62931 0
M  V30 46281 H 4486.05 -2.92937 -0.507487 0
M  V30 46282 H 4483.58 -1.53711 -0.14575 0
M  V30 46283 H 4485.54 -2.8019 -3.00006 0
M  V30 46284 H 4484.2 -1.68773 -2.64905 0
M  V30 46285 H 4483.39 -4.04094 -3.01204 0
M  V30 46286 H 4482.99 -3.47936 -1.37173 0
M  V30 46287 H 4485.28 -5.74541 -3.59039 0
M  V30 46288 H 4486.23 -6.66963 -2.37836 0
M  V30 46289 H 4486.64 -4.9579 -2.69912 0
M  V30 46290 N 4486.03 0.20662 -1.5624 0
M  V30 46291 C 4487 1.2397 -1.9278 0
M  V30 46292 C 4488 1.39038 -0.807778 0
M  V30 46293 O 4489.19 1.37047 -1.07535 0
M  V30 46294 C 4486.32 2.61105 -2.19174 0
M  V30 46295 H 4487.51 0.927663 -2.85192 0
M  V30 46296 H 4485.06 0.447666 -1.49752 0
M  V30 46297 H 4485.8 2.97382 -1.29362 0
M  V30 46298 H 4485.58 2.51541 -3.00781 0
M  V30 46299 H 4487.07 3.35624 -2.48488 0
M  V30 46300 N 4487.51 1.50306 0.473902 0
M  V30 46301 C 4488.44 1.71892 1.58036 0
M  V30 46302 C 4489.42 0.567855 1.60342 0
M  V30 46303 O 4490.61 0.806685 1.76653 0
M  V30 46304 C 4487.74 1.81047 2.96377 0
M  V30 46305 C 4486.69 2.96211 3.08938 0
M  V30 46306 C 4486.02 2.90506 4.48899 0
M  V30 46307 C 4487.32 4.36762 2.86419 0
M  V30 46308 H 4489.01 2.64532 1.40225 0
M  V30 46309 H 4486.56 1.27297 0.673156 0
M  V30 46310 H 4488.51 1.94732 3.73708 0
M  V30 46311 H 4487.23 0.850258 3.15338 0
M  V30 46312 H 4485.89 2.82172 2.3404 0
M  V30 46313 H 4485.54 1.92337 4.64775 0
M  V30 46314 H 4485.24 3.67818 4.5824 0
M  V30 46315 H 4486.77 3.06236 5.28253 0
M  V30 46316 H 4488.18 4.51342 3.53501 0
M  V30 46317 H 4486.58 5.15503 3.07207 0
M  V30 46318 H 4487.65 4.49327 1.823 0
M  V30 46319 N 4488.99 -0.726883 1.39836 0
M  V30 46320 C 4490.22 -1.51388 1.40589 0
M  V30 46321 C 4490.63 -1.892 0.000807138 0
M  V30 46322 O 4489.97 -1.55193 -0.982897 0
M  V30 46323 C 4490.03 -2.8258 2.22236 0
M  V30 46324 C 4489.7 -2.67156 3.70779 0
M  V30 46325 C 4490.69 -2.35163 4.63675 0
M  V30 46326 C 4488.38 -2.83773 4.14461 0
M  V30 46327 C 4490.37 -2.19981 5.98237 0
M  V30 46328 C 4488.06 -2.68209 5.49096 0
M  V30 46329 C 4489.06 -2.3636 6.40799 0
M  V30 46330 O 4488.75 -2.20902 7.72954 0
M  V30 46331 H 4488.48 -0.474151 0.481826 0
M  V30 46332 H 4491.03 -0.905182 1.84379 0
M  V30 46333 H 4489.26 -3.4574 1.73207 0
M  V30 46334 H 4490.95 -3.4424 2.15067 0
M  V30 46335 H 4491.72 -2.21969 4.31225 0
M  V30 46336 H 4487.6 -3.07554 3.43412 0
M  V30 46337 H 4491.14 -1.95044 6.69779 0
M  V30 46338 H 4487.04 -2.80985 5.81135 0
M  V30 46339 H 4487.8 -2.3591 7.83766 0
M  V30 46340 N 4490.47 -1.25146 -0.957926 0
M  V30 46341 C 4491.4 -1.07718 -2.07169 0
M  V30 46342 C 4492.38 0.0127864 -1.70095 0
M  V30 46343 O 4493.56 -0.156129 -1.93571 0
M  V30 46344 C 4490.69 -0.691622 -3.40344 0
M  V30 46345 C 4489.65 -1.73146 -3.91413 0
M  V30 46346 C 4488.97 -1.20068 -5.21045 0
M  V30 46347 C 4490.27 -3.12954 -4.18159 0
M  V30 46348 H 4491.97 -2.00881 -2.22007 0
M  V30 46349 H 4489.51 -0.967229 -1.0668 0
M  V30 46350 H 4491.47 -0.556651 -4.17707 0
M  V30 46351 H 4490.19 0.275704 -3.25434 0
M  V30 46352 H 4488.85 -1.85481 -3.16216 0
M  V30 46353 H 4488.5 -0.223675 -5.02502 0
M  V30 46354 H 4488.2 -1.89564 -5.56183 0
M  V30 46355 H 4489.72 -1.07803 -6.01008 0
M  V30 46356 H 4491.14 -3.03792 -4.86193 0
M  V30 46357 H 4489.53 -3.79891 -4.64545 0
M  V30 46358 H 4490.6 -3.60262 -3.24561 0
M  V30 46359 N 4491.95 1.16006 -1.06679 0
M  V30 46360 C 4493.17 1.91065 -0.806773 0
M  V30 46361 C 4493.6 1.77114 0.633422 0
M  V30 46362 O 4492.95 1.09913 1.44183 0
M  V30 46363 C 4493 3.39651 -1.21118 0
M  V30 46364 O 4492.11 4.10892 -0.352334 0
M  V30 46365 H 4491.45 0.595115 -0.294507 0
M  V30 46366 H 4493.98 1.4695 -1.42362 0
M  V30 46367 H 4493.99 3.9043 -1.18442 0
M  V30 46368 H 4492.66 3.49124 -2.2602 0
M  V30 46369 H 4491.24 3.70283 -0.440998 0
M  V30 46370 N 4493.42 0.849923 1.32718 0
M  V30 46371 C 4494.37 0.289113 2.28982 0
M  V30 46372 C 4495.34 -0.601269 1.54835 0
M  V30 46373 O 4496.53 -0.537189 1.83082 0
M  V30 46374 C 4493.67 -0.520503 3.41152 0
M  V30 46375 C 4492.78 0.39514 4.30189 0
M  V30 46376 C 4491.91 -0.426648 5.29484 0
M  V30 46377 C 4490.95 0.48669 6.10162 0
M  V30 46378 N 4490.09 -0.297632 7.01469 0
M  V30 46379 H 4494.93 1.11529 2.76343 0
M  V30 46380 H 4492.47 0.561427 1.35965 0
M  V30 46381 H 4494.42 -1.00549 4.04902 0
M  V30 46382 H 4493.05 -1.31155 2.94955 0
M  V30 46383 H 4492.11 0.998489 3.67062 0
M  V30 46384 H 4493.42 1.09629 4.86603 0
M  V30 46385 H 4492.57 -0.974994 5.98814 0
M  V30 46386 H 4491.31 -1.16119 4.73675 0
M  V30 46387 H 4490.32 1.04696 5.3974 0
M  V30 46388 H 4491.54 1.21977 6.68056 0
M  V30 46389 H 4489.49 -1.01535 6.48095 0
M  V30 46390 H 4489.4 0.344583 7.55214 0
M  V30 46391 H 4490.67 -0.827858 7.75091 0
M  V30 46392 N 4494.9 -1.45425 0.607406 0
M  V30 46393 C 4496.15 -2.01841 0.102324 0
M  V30 46394 C 4496.47 -1.47836 -1.27159 0
M  V30 46395 O 4495.74 -0.672562 -1.83993 0
M  V30 46396 H 4494.32 -0.746187 0.0348363 0
M  V30 46397 H 4496.98 -1.78226 0.788762 0
M  V30 46398 H 4496.08 -3.12057 0.0519682 0
M  V30 46399 N 4496.38 -0.346557 -1.53742 0
M  V30 46400 C 4497.8 0.00525364 -1.59599 0
M  V30 46401 C 4498 1.48461 -1.36241 0
M  V30 46402 O 4497.05 2.24372 -1.15816 0
M  V30 46403 C 4498.37 -0.433621 -2.97557 0
M  V30 46404 C 4499.91 -0.38622 -3.10608 0
M  V30 46405 C 4500.39 -0.800609 -4.50948 0
M  V30 46406 N 4501.88 -0.754914 -4.57007 0
M  V30 46407 C 4502.61 -1.04747 -5.63751 0
M  V30 46408 N 4502.11 -1.40833 -6.78335 0
M  V30 46409 N 4503.9 -0.971511 -5.53641 0
M  V30 46410 H 4496.05 -1.31015 -1.67179 0
M  V30 46411 H 4498.32 -0.53427 -0.783109 0
M  V30 46412 H 4498.02 -1.4652 -3.19726 0
M  V30 46413 H 4497.9 0.189621 -3.76723 0
M  V30 46414 H 4500.28 0.636194 -2.88161 0
M  V30 46415 H 4500.37 -1.04471 -2.33494 0
M  V30 46416 H 4500.01 -1.82105 -4.74131 0
M  V30 46417 H 4499.94 -0.119571 -5.26464 0
M  V30 46418 H 4502.43 -0.488794 -3.74726 0
M  V30 46419 H 4502.74 -1.61633 -7.55708 0
M  V30 46420 H 4501.09 -1.44681 -6.79774 0
M  V30 46421 H 4504.28 -0.688911 -4.63003 0
M  V30 46422 H 4504.45 -1.20285 -6.36738 0
M  V30 46423 N 4497.86 1.5742 -0.0752483 0
M  V30 46424 C 4498.79 2.15945 0.888248 0
M  V30 46425 C 4499.77 1.08741 1.30803 0
M  V30 46426 O 4500.95 1.36792 1.37846 0
M  V30 46427 C 4498.08 2.72386 2.1546 0
M  V30 46428 C 4497.04 3.84787 1.87411 0
M  V30 46429 C 4496.36 4.27845 3.20706 0
M  V30 46430 C 4497.66 5.08873 1.17666 0
M  V30 46431 H 4499.36 2.96707 0.400695 0
M  V30 46432 H 4496.9 1.42724 0.191292 0
M  V30 46433 H 4498.86 3.11975 2.83284 0
M  V30 46434 H 4497.58 1.88851 2.66464 0
M  V30 46435 H 4496.24 3.45707 1.21992 0
M  V30 46436 H 4495.89 3.41227 3.69558 0
M  V30 46437 H 4495.59 5.03616 3.02729 0
M  V30 46438 H 4497.11 4.70053 3.89721 0
M  V30 46439 H 4498.53 5.45756 1.75564 0
M  V30 46440 H 4496.92 5.89944 1.09935 0
M  V30 46441 H 4497.99 4.84648 0.156283 0
M  V30 46442 N 4499.34 -0.198331 1.56347 0
M  V30 46443 C 4500.58 -0.920585 1.80702 0
M  V30 46444 C 4500.92 -1.83043 0.648762 0
M  V30 46445 O 4500.19 -1.91309 -0.350858 0
M  V30 46446 C 4500.47 -1.7396 3.15293 0
M  V30 46447 C 4500.33 -0.854695 4.41605 0
M  V30 46448 C 4501.65 -2.71283 3.46545 0
M  V30 46449 H 4498.76 -0.333238 0.65736 0
M  V30 46450 H 4501.41 -0.188132 1.89066 0
M  V30 46451 H 4499.56 -2.36405 3.08293 0
M  V30 46452 H 4501.23 -0.2452 4.60648 0
M  V30 46453 H 4499.47 -0.161246 4.335 0
M  V30 46454 H 4500.14 -1.46267 5.32269 0
M  V30 46455 H 4502.62 -2.18971 3.53823 0
M  V30 46456 H 4501.49 -3.25674 4.41846 0
M  V30 46457 H 4501.76 -3.5017 2.69876 0
M  V30 46458 N 4500.81 -1.50555 -0.465925 0
M  V30 46459 C 4502.06 -1.61803 -1.21763 0
M  V30 46460 C 4502.39 -0.320763 -1.91837 0
M  V30 46461 O 4501.64 0.69366 -1.82994 0
M  V30 46462 C 4501.94 -2.7516 -2.28083 0
M  V30 46463 C 4501.61 -4.1546 -1.75224 0
M  V30 46464 C 4500.27 -4.53634 -1.6053 0
M  V30 46465 C 4502.62 -5.03126 -1.36066 0
M  V30 46466 C 4499.95 -5.77208 -1.05108 0
M  V30 46467 C 4502.3 -6.27252 -0.820836 0
M  V30 46468 C 4500.97 -6.64223 -0.660562 0
M  V30 46469 H 4500.24 -0.592078 -0.445561 0
M  V30 46470 H 4502.88 -1.84505 -0.512863 0
M  V30 46471 H 4501.19 -2.46566 -3.04487 0
M  V30 46472 H 4502.89 -2.81065 -2.86013 0
M  V30 46473 H 4499.48 -3.85348 -1.8763 0
M  V30 46474 H 4503.66 -4.74262 -1.46251 0
M  V30 46475 H 4498.92 -6.04523 -0.914407 0
M  V30 46476 H 4503.09 -6.94539 -0.508773 0
M  V30 46477 H 4500.72 -7.59855 -0.228959 0
M  V30 46478 N 4502.29 0.719457 -1.4022 0
M  V30 46479 C 4503.26 1.81525 -1.39934 0
M  V30 46480 C 4504.26 1.58094 -0.293778 0
M  V30 46481 O 4505.45 1.65207 -0.552487 0
M  V30 46482 C 4502.58 3.19557 -1.18727 0
M  V30 46483 H 4503.77 1.83178 -2.37457 0
M  V30 46484 H 4501.32 0.924702 -1.26012 0
M  V30 46485 H 4502.06 3.23556 -0.21948 0
M  V30 46486 H 4501.84 3.37963 -1.98805 0
M  V30 46487 H 4503.33 3.99593 -1.21305 0
M  V30 46488 N 4503.77 1.25652 0.951275 0
M  V30 46489 C 4504.7 1.08815 2.06595 0
M  V30 46490 C 4505.68 -0.00376567 1.701 0
M  V30 46491 O 4506.87 0.166393 1.93486 0
M  V30 46492 C 4504 0.709662 3.39972 0
M  V30 46493 C 4502.95 1.75219 3.9049 0
M  V30 46494 C 4502.28 1.22829 5.20401 0
M  V30 46495 C 4503.58 3.15168 4.16493 0
M  V30 46496 H 4505.27 2.02056 2.20939 0
M  V30 46497 H 4502.82 0.972872 1.06166 0
M  V30 46498 H 4504.77 0.578796 4.17406 0
M  V30 46499 H 4503.49 -0.258442 3.25576 0
M  V30 46500 H 4502.15 1.87156 3.15227 0
M  V30 46501 H 4501.8 0.250321 5.02377 0
M  V30 46502 H 4501.5 1.92511 5.5517 0
M  V30 46503 H 4503.02 1.10989 6.00428 0
M  V30 46504 H 4504.44 3.06366 4.84575 0
M  V30 46505 H 4502.84 3.8235 4.62524 0
M  V30 46506 H 4503.91 3.61978 3.22645 0
M  V30 46507 N 4505.25 -1.15438 1.07293 0
M  V30 46508 C 4506.5 -1.85843 0.794161 0
M  V30 46509 C 4506.82 -1.82694 -0.681744 0
M  V30 46510 O 4506.09 -1.26747 -1.49372 0
M  V30 46511 H 4504.67 -0.688078 0.290787 0
M  V30 46512 H 4507.33 -1.39942 1.35655 0
M  V30 46513 H 4506.43 -2.90997 1.12814 0
M  V30 46514 N 4506.73 -0.85695 -1.32265 0
M  V30 46515 C 4507.95 -0.47551 -2.01362 0
M  V30 46516 C 4508.37 0.928429 -1.64395 0
M  V30 46517 O 4507.73 1.60621 -0.866443 0
M  V30 46518 C 4507.78 -0.607671 -3.56356 0
M  V30 46519 O 4507.5 -1.95631 -3.91995 0
M  V30 46520 C 4509 -0.225537 -4.42726 0
M  V30 46521 H 4506.22 -0.186659 -0.644515 0
M  V30 46522 H 4508.76 -1.15452 -1.68793 0
M  V30 46523 H 4506.92 0.0236357 -3.87393 0
M  V30 46524 H 4507.33 -1.95472 -4.86714 0
M  V30 46525 H 4508.81 -0.369006 -5.50765 0
M  V30 46526 H 4509.28 0.834217 -4.31205 0
M  V30 46527 H 4509.89 -0.83201 -4.17082 0
M  V30 46528 N 4508.2 1.45101 -0.61511 0
M  V30 46529 C 4509.48 1.95548 -0.0448964 0
M  V30 46530 C 4509.86 1.55742 1.42505 0
M  V30 46531 O 4509.21 0.823631 2.1314 0
M  V30 46532 C 4509.42 3.48097 -0.250907 0
M  V30 46533 C 4510.77 4.24383 -0.135659 0
M  V30 46534 O 4511.79 3.55738 -0.181424 0
M  V30 46535 O 4510.65 5.46493 -0.02708 0
M  V30 46536 H 4507.74 0.826402 0.0314555 0
M  V30 46537 H 4510.29 1.5523 -0.685696 0
M  V30 46538 H 4509.06 3.70065 -1.27152 0
M  V30 46539 H 4508.69 3.95324 0.424798 0
M  V30 46540 N 4509.68 0.354705 1.53557 0
M  V30 46541 C 4510.93 -0.237902 2.00695 0
M  V30 46542 C 4511.25 -1.50168 1.24396 0
M  V30 46543 O 4510.52 -1.92671 0.354203 0
M  V30 46544 H 4509.1 -0.0908996 0.741449 0
M  V30 46545 H 4511.76 0.478434 1.88937 0
M  V30 46546 H 4510.86 -0.472532 3.08502 0
M  V30 46547 N 4511.16 -1.57378 0.0835957 0
M  V30 46548 C 4512.11 -2.13387 -0.879464 0
M  V30 46549 C 4513.08 -1.04941 -1.2875 0
M  V30 46550 O 4514.26 -1.32667 -1.37128 0
M  V30 46551 C 4511.4 -2.70939 -2.13742 0
M  V30 46552 C 4510.52 -3.93581 -1.78096 0
M  V30 46553 C 4509.65 -4.39336 -2.98592 0
M  V30 46554 C 4508.69 -5.54596 -2.59017 0
M  V30 46555 N 4507.83 -5.95256 -3.7231 0
M  V30 46556 H 4512.67 -2.95371 -0.394972 0
M  V30 46557 H 4510.2 -1.45954 -0.183298 0
M  V30 46558 H 4512.16 -3.02421 -2.87398 0
M  V30 46559 H 4510.79 -1.91702 -2.59712 0
M  V30 46560 H 4509.84 -3.68486 -0.94456 0
M  V30 46561 H 4511.16 -4.77263 -1.44989 0
M  V30 46562 H 4510.31 -4.72541 -3.80512 0
M  V30 46563 H 4509.05 -3.54532 -3.34901 0
M  V30 46564 H 4508.05 -5.2103 -1.75521 0
M  V30 46565 H 4509.28 -6.41141 -2.23865 0
M  V30 46566 H 4507.23 -5.13399 -4.0836 0
M  V30 46567 H 4507.14 -6.73706 -3.4301 0
M  V30 46568 H 4508.41 -6.33088 -4.54775 0
M  V30 46569 N 4512.64 0.190037 -1.5645 0
M  V30 46570 C 4513.59 1.2355 -1.94946 0
M  V30 46571 C 4514.56 1.44969 -0.810747 0
M  V30 46572 O 4515.74 1.58019 -1.06933 0
M  V30 46573 C 4512.88 2.57408 -2.29859 0
M  V30 46574 C 4511.99 2.43525 -3.56819 0
M  V30 46575 C 4511.13 3.70121 -3.8103 0
M  V30 46576 C 4510.17 3.51091 -5.01399 0
M  V30 46577 N 4509.31 4.69712 -5.21838 0
M  V30 46578 H 4514.15 0.900204 -2.84078 0
M  V30 46579 H 4511.68 0.43313 -1.40579 0
M  V30 46580 H 4513.64 3.354 -2.48118 0
M  V30 46581 H 4512.27 2.8897 -1.43862 0
M  V30 46582 H 4511.32 1.56804 -3.46579 0
M  V30 46583 H 4512.63 2.254 -4.44968 0
M  V30 46584 H 4511.79 4.56552 -3.99556 0
M  V30 46585 H 4510.53 3.91205 -2.91221 0
M  V30 46586 H 4509.53 2.63046 -4.82791 0
M  V30 46587 H 4510.76 3.31448 -5.92722 0
M  V30 46588 H 4508.7 4.9105 -4.34978 0
M  V30 46589 H 4508.62 4.54431 -6.04176 0
M  V30 46590 H 4509.89 5.5748 -5.44827 0
M  V30 46591 N 4514.12 1.508 0.457934 0
M  V30 46592 C 4515.05 1.73558 1.56204 0
M  V30 46593 C 4516.03 0.58483 1.5973 0
M  V30 46594 O 4517.21 0.825376 1.75787 0
M  V30 46595 C 4514.34 1.8418 2.9444 0
M  V30 46596 C 4513.3 2.99471 3.05779 0
M  V30 46597 C 4512.62 2.95251 4.45793 0
M  V30 46598 C 4513.92 4.39776 2.8177 0
M  V30 46599 H 4515.62 2.66005 1.37411 0
M  V30 46600 H 4513.16 1.28004 0.659617 0
M  V30 46601 H 4515.12 1.98685 3.71621 0
M  V30 46602 H 4513.84 0.883656 3.14419 0
M  V30 46603 H 4512.5 2.84638 2.31034 0
M  V30 46604 H 4512.15 1.97256 4.62709 0
M  V30 46605 H 4511.85 3.72657 4.54313 0
M  V30 46606 H 4513.37 3.11822 5.24976 0
M  V30 46607 H 4514.79 4.55066 3.48694 0
M  V30 46608 H 4513.18 5.18733 3.01722 0
M  V30 46609 H 4514.25 4.51235 1.77524 0
M  V30 46610 N 4515.6 -0.71201 1.40599 0
M  V30 46611 C 4517.01 -1.02054 1.22708 0
M  V30 46612 C 4517.21 -2.01227 0.104799 0
M  V30 46613 O 4516.27 -2.46742 -0.536153 0
M  V30 46614 C 4517.58 -1.56085 2.57018 0
M  V30 46615 C 4519.13 -1.68051 2.6406 0
M  V30 46616 C 4519.6 -2.25487 3.98647 0
M  V30 46617 N 4521.09 -2.32868 4.00408 0
M  V30 46618 C 4521.83 -2.783 5.01335 0
M  V30 46619 N 4521.33 -3.23457 6.12656 0
M  V30 46620 N 4523.12 -2.77716 4.88703 0
M  V30 46621 H 4515.27 -0.054715 2.1233 0
M  V30 46622 H 4517.53 -0.0868695 0.944011 0
M  V30 46623 H 4517.24 -0.906746 3.3981 0
M  V30 46624 H 4517.11 -2.54554 2.78356 0
M  V30 46625 H 4519.5 -2.32577 1.81637 0
M  V30 46626 H 4519.58 -0.681715 2.46549 0
M  V30 46627 H 4519.22 -1.61582 4.81512 0
M  V30 46628 H 4519.15 -3.26087 4.13491 0
M  V30 46629 H 4521.65 -2.0098 3.20024 0
M  V30 46630 H 4521.96 -3.56701 6.85554 0
M  V30 46631 H 4520.3 -3.21407 6.16216 0
M  V30 46632 H 4523.49 -2.41776 4.00827 0
M  V30 46633 H 4523.67 -3.12806 5.675 0
M  V30 46634 N 4517.07 -1.26155 -0.944598 0
M  V30 46635 C 4518.32 -1.10889 -1.68483 0
M  V30 46636 C 4518.64 0.348085 -1.92478 0
M  V30 46637 O 4519.84 0.621366 -2.64294 0
M  V30 46638 C 4518.3 -1.93634 -3.03371 0
M  V30 46639 C 4517.91 -3.43885 -2.87136 0
M  V30 46640 C 4519.65 -1.86967 -3.81108 0
M  V30 46641 C 4517.56 -4.1889 -4.17475 0
M  V30 46642 H 4516.49 -0.411373 -0.631893 0
M  V30 46643 H 4519.14 -1.50436 -1.05077 0
M  V30 46644 H 4517.52 -1.46917 -3.67738 0
M  V30 46645 H 4518.69 -3.98346 -2.31639 0
M  V30 46646 H 4517.01 -3.51752 -2.22844 0
M  V30 46647 H 4519.61 -2.40292 -4.77665 0
M  V30 46648 H 4519.95 -0.839662 -4.07744 0
M  V30 46649 H 4520.48 -2.31488 -3.23509 0
M  V30 46650 H 4517.22 -5.22345 -3.96025 0
M  V30 46651 H 4516.74 -3.6921 -4.72699 0
M  V30 46652 H 4518.42 -4.27152 -4.85953 0
M  V30 46653 N 4518.55 1.14868 -1.07903 0
M  V30 46654 C 4519.5 2.19788 -0.704396 0
M  V30 46655 C 4520.47 1.6324 0.30693 0
M  V30 46656 O 4521.65 1.8983 0.192104 0
M  V30 46657 C 4518.79 3.4491 -0.114365 0
M  V30 46658 C 4517.91 4.15633 -1.17785 0
M  V30 46659 C 4517.04 5.28322 -0.552223 0
M  V30 46660 C 4516.08 5.9087 -1.5981 0
M  V30 46661 N 4515.22 6.95019 -0.994648 0
M  V30 46662 H 4520.06 2.51184 -1.60345 0
M  V30 46663 H 4517.59 1.23353 -0.801395 0
M  V30 46664 H 4519.55 4.16478 0.245398 0
M  V30 46665 H 4518.18 3.14014 0.74802 0
M  V30 46666 H 4517.23 3.42506 -1.65511 0
M  V30 46667 H 4518.55 4.58223 -1.97062 0
M  V30 46668 H 4517.7 6.06537 -0.140413 0
M  V30 46669 H 4516.44 4.86939 0.272259 0
M  V30 46670 H 4515.44 5.11362 -2.01963 0
M  V30 46671 H 4516.67 6.34328 -2.42497 0
M  V30 46672 H 4514.62 6.55721 -0.191169 0
M  V30 46673 H 4514.53 7.36067 -1.72458 0
M  V30 46674 H 4515.8 7.77121 -0.608527 0
M  V30 46675 N 4520.03 0.863952 1.31809 0
M  V30 46676 C 4521.25 0.485341 2.01641 0
M  V30 46677 C 4521.68 -0.913 1.64456 0
M  V30 46678 O 4521.04 -1.60137 0.850041 0
M  V30 46679 C 4521.09 0.64275 3.54825 0
M  V30 46680 O 4520.19 -0.320515 4.11153 0
M  V30 46681 H 4519.53 0.193815 0.635084 0
M  V30 46682 H 4522.06 1.16571 1.68144 0
M  V30 46683 H 4522.07 0.53377 4.04493 0
M  V30 46684 H 4520.75 1.6624 3.81231 0
M  V30 46685 H 4519.32 -0.166995 3.72526 0
M  V30 46686 N 4521.51 -1.44772 0.622796 0
M  V30 46687 C 4522.45 -2.30636 -0.0870868 0
M  V30 46688 C 4523.42 -1.42997 -0.845047 0
M  V30 46689 O 4524.61 -1.7191 -0.827752 0
M  V30 46690 C 4521.75 -3.28147 -1.06833 0
M  V30 46691 C 4520.86 -4.30889 -0.309658 0
M  V30 46692 C 4520 -5.15499 -1.28197 0
M  V30 46693 C 4519.04 -6.09955 -0.511983 0
M  V30 46694 N 4518.17 -6.87293 -1.43434 0
M  V30 46695 H 4523.01 -2.90801 0.651076 0
M  V30 46696 H 4520.55 -1.43285 0.33286 0
M  V30 46697 H 4522.51 -3.83163 -1.65052 0
M  V30 46698 H 4521.14 -2.69702 -1.77372 0
M  V30 46699 H 4520.19 -3.78413 0.388314 0
M  V30 46700 H 4521.5 -4.97954 0.290429 0
M  V30 46701 H 4520.66 -5.7499 -1.93576 0
M  V30 46702 H 4519.4 -4.48488 -1.91599 0
M  V30 46703 H 4518.4 -5.4958 0.155344 0
M  V30 46704 H 4519.63 -6.78999 0.117196 0
M  V30 46705 H 4517.57 -6.22958 -2.05572 0
M  V30 46706 H 4517.49 -7.50766 -0.888071 0
M  V30 46707 H 4518.76 -7.51313 -2.07723 0
M  V30 46708 N 4522.99 -0.362844 -1.53366 0
M  V30 46709 C 4523.9 0.492913 -2.29363 0
M  V30 46710 C 4524.91 1.09503 -1.35223 0
M  V30 46711 O 4526.09 1.10656 -1.68277 0
M  V30 46712 C 4523.15 1.61845 -3.06606 0
M  V30 46713 C 4522.21 1.04415 -4.16409 0
M  V30 46714 C 4521.45 2.11604 -4.89959 0
M  V30 46715 O 4521.67 3.32668 -4.63345 0
M  V30 46716 O 4520.6 1.74815 -5.75954 0
M  V30 46717 H 4524.43 -0.125437 -3.03441 0
M  V30 46718 H 4522.01 -0.127306 -1.48857 0
M  V30 46719 H 4523.9 2.27289 -3.54849 0
M  V30 46720 H 4522.57 2.22225 -2.35367 0
M  V30 46721 H 4521.48 0.353688 -3.72424 0
M  V30 46722 H 4522.81 0.484941 -4.89805 0
M  V30 46723 N 4524.46 1.57332 -0.0919406 0
M  V30 46724 C 4525.41 2.13851 0.868136 0
M  V30 46725 C 4526.38 1.05622 1.28192 0
M  V30 46726 O 4527.57 1.33392 1.36423 0
M  V30 46727 C 4524.71 2.72069 2.12303 0
M  V30 46728 C 4523.82 3.9452 1.76006 0
M  V30 46729 C 4522.95 4.40914 2.96258 0
M  V30 46730 C 4521.99 5.55962 2.56073 0
M  V30 46731 N 4521.13 5.97222 3.69148 0
M  V30 46732 H 4525.97 2.95576 0.379302 0
M  V30 46733 H 4523.51 1.46049 0.175555 0
M  V30 46734 H 4525.47 3.03941 2.8579 0
M  V30 46735 H 4524.1 1.93077 2.58691 0
M  V30 46736 H 4523.15 3.68982 0.925005 0
M  V30 46737 H 4524.46 4.78025 1.42456 0
M  V30 46738 H 4523.61 4.74553 3.78001 0
M  V30 46739 H 4522.35 3.56303 3.33016 0
M  V30 46740 H 4521.36 5.21954 1.72755 0
M  V30 46741 H 4522.58 6.42319 2.20462 0
M  V30 46742 H 4520.53 5.15557 4.05631 0
M  V30 46743 H 4520.45 6.75516 3.39433 0
M  V30 46744 H 4521.71 6.3549 4.51411 0
M  V30 46745 N 4525.94 -0.181737 1.56549 0
M  V30 46746 C 4527.18 -0.906647 1.83192 0
M  V30 46747 C 4527.55 -1.79879 0.671375 0
M  V30 46748 O 4528.75 -2.56051 0.81801 0
M  V30 46749 C 4527.02 -1.69012 3.14912 0
M  V30 46750 S 4528.58 -2.46522 3.63004 0
M  V30 46751 H 4525.4 -0.303854 0.642801 0
M  V30 46752 H 4528 -0.169038 1.94768 0
M  V30 46753 H 4526.7 -1.02557 3.97379 0
M  V30 46754 H 4526.23 -2.4693 3.0625 0
M  V30 46755 H 4528.25 -3.71002 3.29502 0
M  V30 46756 N 4527.42 -1.51041 -0.44993 0
M  V30 46757 C 4528.37 -1.72 -1.56584 0
M  V30 46758 C 4529.36 -0.586085 -1.58938 0
M  V30 46759 O 4530.57 -0.767147 -1.62834 0
M  V30 46760 H 4526.94 -0.543252 -0.519982 0
M  V30 46761 H 4528.91 -2.65567 -1.36076 0
M  V30 46762 C 4527.66 -1.8507 -2.94354 0
M  V30 46763 H 4526.99 -2.71723 -2.93269 0
M  V30 46764 H 4528.43 -2.03753 -3.71834 0
M  V30 46765 C 4526.89 -0.607393 -3.31379 0
M  V30 46766 O 4527.42 0.243762 -4.0096 0
M  V30 46767 N 4525.62 -0.455174 -2.87013 0
M  V30 46768 H 4525.17 -1.14887 -2.30562 0
M  V30 46769 H 4525.13 0.375501 -3.1215 0
M  V30 46770 N 4528.9 0.704544 -1.40975 0
M  V30 46771 C 4530.18 1.45843 -1.30343 0
M  V30 46772 C 4530.56 2.10973 0.0731602 0
M  V30 46773 O 4529.9 2.01001 1.08678 0
M  V30 46774 C 4530.11 2.48517 -2.45031 0
M  V30 46775 C 4531.46 3.1403 -2.85781 0
M  V30 46776 O 4532.49 2.58839 -2.44705 0
M  V30 46777 O 4531.34 4.13968 -3.56781 0
M  V30 46778 H 4528.44 0.649074 -0.512476 0
M  V30 46779 H 4530.98 0.735782 -1.52919 0
M  V30 46780 H 4529.76 1.98982 -3.3693 0
M  V30 46781 H 4529.38 3.28302 -2.24284 0
M  V30 46782 N 4530.38 1.26654 0.937895 0
M  V30 46783 C 4531.62 1.12171 1.68114 0
M  V30 46784 C 4531.95 -0.334915 1.92102 0
M  V30 46785 O 4531.22 -1.23577 1.52005 0
M  V30 46786 H 4529.8 0.412115 0.623033 0
M  V30 46787 H 4532.46 1.59031 1.12673 0
M  V30 46788 H 4531.55 1.64298 2.65354 0
M  V30 46789 N 4531.85 -1.14294 1.08511 0
M  V30 46790 C 4532.8 -2.19412 0.716042 0
M  V30 46791 C 4533.77 -1.634 -0.298268 0
M  V30 46792 O 4534.96 -1.8993 -0.182034 0
M  V30 46793 C 4532.1 -3.44845 0.132655 0
M  V30 46794 C 4531.21 -4.15003 1.19987 0
M  V30 46795 C 4530.34 -5.28022 0.580233 0
M  V30 46796 C 4529.38 -5.90014 1.62941 0
M  V30 46797 N 4528.52 -6.94482 1.03149 0
M  V30 46798 H 4533.36 -2.5033 1.61675 0
M  V30 46799 H 4530.9 -1.22927 0.807925 0
M  V30 46800 H 4532.86 -4.16602 -0.223308 0
M  V30 46801 H 4531.49 -3.14406 -0.731356 0
M  V30 46802 H 4530.54 -3.41623 1.67325 0
M  V30 46803 H 4531.85 -4.57171 1.99489 0
M  V30 46804 H 4531 -6.06455 0.172577 0
M  V30 46805 H 4529.74 -4.87077 -0.246432 0
M  V30 46806 H 4528.75 -5.10284 2.04672 0
M  V30 46807 H 4529.97 -6.33033 2.45857 0
M  V30 46808 H 4527.92 -6.55611 0.225941 0
M  V30 46809 H 4527.84 -7.35142 1.76359 0
M  V30 46810 H 4529.1 -7.76787 0.649731 0
M  V30 46811 N 4533.33 -0.87093 -1.31349 0
M  V30 46812 C 4534.58 -0.492384 -1.9735 0
M  V30 46813 C 4534.93 0.945115 -1.67587 0
M  V30 46814 O 4534.23 1.65671 -0.962481 0
M  V30 46815 C 4534.42 -0.68728 -3.5073 0
M  V30 46816 C 4534.25 -2.14217 -3.954 0
M  V30 46817 C 4533.02 -2.78396 -4.21691 0
M  V30 46818 C 4535.22 -3.11454 -4.09269 0
M  V30 46819 N 4533.2 -4.14627 -4.52722 0
M  V30 46820 C 4534.57 -4.32718 -4.44022 0
M  V30 46821 C 4536.63 -3.07432 -3.91651 0
M  V30 46822 C 4535.33 -5.50479 -4.62996 0
M  V30 46823 C 4537.35 -4.24453 -4.11818 0
M  V30 46824 C 4536.72 -5.44478 -4.46903 0
M  V30 46825 H 4532.82 -0.229232 -0.747647 0
M  V30 46826 H 4535.4 -1.12573 -1.58857 0
M  V30 46827 H 4533.57 -0.0835205 -3.8831 0
M  V30 46828 H 4535.3 -0.277025 -4.03751 0
M  V30 46829 H 4532.06 -2.29341 -4.14367 0
M  V30 46830 H 4532.48 -4.84945 -4.72396 0
M  V30 46831 H 4537.12 -2.15745 -3.63613 0
M  V30 46832 H 4534.84 -6.42683 -4.89881 0
M  V30 46833 H 4538.43 -4.22794 -3.99671 0
M  V30 46834 H 4537.31 -6.33521 -4.62192 0
M  V30 46835 N 4534.81 1.4444 -0.630465 0
M  V30 46836 C 4535.76 2.27795 0.0967302 0
M  V30 46837 C 4536.74 1.38627 0.816786 0
M  V30 46838 O 4537.94 1.6244 0.703003 0
M  V30 46839 C 4535.07 3.25933 1.07808 0
M  V30 46840 C 4534.15 4.22589 0.357677 0
M  V30 46841 N 4534.54 5.02067 -0.613346 0
M  V30 46842 C 4532.84 4.41916 0.60221 0
M  V30 46843 C 4533.54 5.72347 -1.03891 0
M  V30 46844 N 4532.52 5.42285 -0.377833 0
M  V30 46845 H 4536.32 2.86651 -0.648722 0
M  V30 46846 H 4533.83 1.55869 -0.455917 0
M  V30 46847 H 4535.83 3.84405 1.61364 0
M  V30 46848 H 4534.49 2.68638 1.82384 0
M  V30 46849 H 4535.5 5.08328 -0.991125 0
M  V30 46850 H 4532.18 3.95719 1.33089 0
M  V30 46851 H 4533.57 6.46184 -1.84108 0
M  V30 46852 N 4536.29 0.370972 1.53172 0
M  V30 46853 C 4537.52 -0.217632 2.05752 0
M  V30 46854 C 4537.93 -1.42014 1.24409 0
M  V30 46855 O 4537.29 -1.80244 0.286096 0
M  V30 46856 C 4537.34 -0.605828 3.56387 0
M  V30 46857 O 4537.06 0.548886 4.34648 0
M  V30 46858 C 4538.56 -1.25225 4.25245 0
M  V30 46859 H 4535.78 -0.0371423 0.669971 0
M  V30 46860 H 4538.33 0.530902 1.97488 0
M  V30 46861 H 4536.48 -1.30427 3.64784 0
M  V30 46862 H 4536.89 0.233944 5.23978 0
M  V30 46863 H 4538.37 -1.47439 5.31945 0
M  V30 46864 H 4538.85 -2.21417 3.79304 0
M  V30 46865 H 4539.45 -0.595085 4.21116 0
M  V30 46866 N 4537.77 -1.57281 0.100283 0
M  V30 46867 C 4539.01 -1.94828 -0.563032 0
M  V30 46868 C 4539.35 -0.982534 -1.67511 0
M  V30 46869 O 4538.62 -0.0164753 -1.94493 0
M  V30 46870 C 4538.9 -3.42457 -1.11334 0
M  V30 46871 C 4538.76 -4.498 -0.00596268 0
M  V30 46872 C 4540.08 -3.91513 -2.01011 0
M  V30 46873 H 4537.19 -0.708435 -0.203196 0
M  V30 46874 H 4539.84 -1.89219 0.172045 0
M  V30 46875 H 4537.99 -3.47367 -1.73978 0
M  V30 46876 H 4539.66 -4.56998 0.628518 0
M  V30 46877 H 4537.9 -4.28754 0.659731 0
M  V30 46878 H 4538.57 -5.50308 -0.431916 0
M  V30 46879 H 4541.05 -3.88789 -1.48264 0
M  V30 46880 H 4539.92 -4.95366 -2.3644 0
M  V30 46881 H 4540.19 -3.31109 -2.92949 0
M  V30 46882 N 4539.25 0.173432 -1.56643 0
M  V30 46883 C 4540.49 0.89172 -1.82143 0
M  V30 46884 C 4540.82 1.81988 -0.6778 0
M  V30 46885 O 4540.1 1.91843 0.320378 0
M  V30 46886 C 4540.38 1.68922 -3.18021 0
M  V30 46887 C 4540.24 0.784331 -4.42909 0
M  V30 46888 C 4541.55 2.65736 -3.50817 0
M  V30 46889 H 4538.67 0.322737 -0.662578 0
M  V30 46890 H 4541.32 0.158029 -1.89342 0
M  V30 46891 H 4539.47 2.31471 -3.12015 0
M  V30 46892 H 4541.14 0.171883 -4.6098 0
M  V30 46893 H 4539.38 0.0922593 -4.33702 0
M  V30 46894 H 4540.05 1.3778 -5.34528 0
M  V30 46895 H 4542.53 2.13314 -3.57262 0
M  V30 46896 H 4541.4 3.18604 -4.46971 0
M  V30 46897 H 4541.66 3.45833 -2.75413 0
M  V30 46898 N 4540.72 1.51278 0.441914 0
M  V30 46899 C 4541.97 1.63719 1.19173 0
M  V30 46900 C 4542.3 0.351242 1.91302 0
M  V30 46901 O 4541.55 -0.664459 1.84075 0
M  V30 46902 C 4541.85 2.78754 2.23677 0
M  V30 46903 C 4541.52 4.18195 1.68593 0
M  V30 46904 C 4540.18 4.5613 1.53292 0
M  V30 46905 C 4542.53 5.05227 1.28044 0
M  V30 46906 C 4539.86 5.78807 0.959113 0
M  V30 46907 C 4542.21 6.28478 0.720941 0
M  V30 46908 C 4540.88 6.6519 0.554806 0
M  V30 46909 H 4540.15 0.599092 0.436085 0
M  V30 46910 H 4542.79 1.85297 0.483445 0
M  V30 46911 H 4541.1 2.51379 3.00526 0
M  V30 46912 H 4542.8 2.8558 2.81505 0
M  V30 46913 H 4539.39 3.88284 1.81476 0
M  V30 46914 H 4543.57 4.76529 1.38687 0
M  V30 46915 H 4538.83 6.05902 0.818117 0
M  V30 46916 H 4543 6.95261 0.398214 0
M  V30 46917 H 4540.63 7.60123 0.108043 0
M  V30 46918 N 4542.2 -0.697058 1.41347 0
M  V30 46919 C 4543.45 -1.45421 1.40346 0
M  V30 46920 C 4543.77 -1.94996 0.0129473 0
M  V30 46921 O 4543.04 -1.71602 -0.944966 0
M  V30 46922 H 4541.62 -0.539576 0.516592 0
M  V30 46923 H 4544.28 -0.825139 1.76571 0
M  V30 46924 H 4543.38 -2.3181 2.08975 0
M  V30 46925 N 4543.68 -1.2715 -0.931165 0
M  V30 46926 C 4544.63 -1.06234 -2.01738 0
M  V30 46927 C 4545.61 0.00853409 -1.60898 0
M  V30 46928 O 4546.81 -0.209599 -1.75755 0
M  V30 46929 C 4543.93 -0.707905 -3.35922 0
M  V30 46930 C 4543.02 -1.81675 -3.83217 0
M  V30 46931 N 4543.41 -3.05578 -4.03058 0
M  V30 46932 C 4541.71 -1.70263 -4.12221 0
M  V30 46933 C 4542.41 -3.77712 -4.42389 0
M  V30 46934 N 4541.39 -3.05456 -4.49664 0
M  V30 46935 H 4545.19 -2.00268 -2.15104 0
M  V30 46936 H 4542.7 -1.17814 -1.11775 0
M  V30 46937 H 4544.7 -0.539188 -4.13399 0
M  V30 46938 H 4543.36 0.22485 -3.23921 0
M  V30 46939 H 4544.37 -3.41377 -3.89464 0
M  V30 46940 H 4541.05 -0.840473 -4.08953 0
M  V30 46941 H 4542.44 -4.84185 -4.65849 0
M  V30 46942 N 4545.16 1.13717 -1.09116 0
M  V30 46943 C 4546.43 1.81153 -0.737769 0
M  V30 46944 C 4546.81 1.96256 0.777614 0
M  V30 46945 O 4546.16 1.52813 1.69883 0
M  V30 46946 C 4546.37 3.16387 -1.4731 0
M  V30 46947 C 4547.72 3.91781 -1.63684 0
M  V30 46948 O 4548.74 3.26 -1.43536 0
M  V30 46949 O 4547.6 5.09763 -1.96987 0
M  V30 46950 H 4544.7 0.783508 -0.264658 0
M  V30 46951 H 4547.24 1.20672 -1.19317 0
M  V30 46952 H 4546.02 3.00601 -2.50508 0
M  V30 46953 H 4545.64 3.84567 -1.00967 0
M  V30 46954 N 4546.64 0.877884 1.30885 0
M  V30 46955 C 4547.88 0.491792 1.96025 0
M  V30 46956 C 4548.2 -0.960768 1.69689 0
M  V30 46957 O 4547.47 -1.67458 1.01659 0
M  V30 46958 H 4546.05 0.178876 0.725267 0
M  V30 46959 H 4548.72 1.11941 1.59547 0
M  V30 46960 H 4547.81 0.656123 3.05125 0
M  V30 46961 N 4548.11 -1.44104 0.638116 0
M  V30 46962 C 4549.02 -2.34514 -0.0636509 0
M  V30 46963 C 4550.04 -1.53021 -0.828292 0
M  V30 46964 O 4551.22 -1.85726 -0.778971 0
M  V30 46965 C 4548.28 -3.31099 -1.02833 0
M  V30 46966 C 4547.34 -4.28498 -0.262289 0
M  V30 46967 C 4546.57 -5.20469 -1.18101 0
M  V30 46968 O 4546.8 -5.16523 -2.41993 0
M  V30 46969 O 4545.73 -5.98253 -0.661563 0
M  V30 46970 H 4549.56 -2.95986 0.680135 0
M  V30 46971 H 4547.14 -1.43993 0.398302 0
M  V30 46972 H 4549.02 -3.90531 -1.58313 0
M  V30 46973 H 4547.7 -2.7215 -1.7526 0
M  V30 46974 H 4546.61 -3.7259 0.335733 0
M  V30 46975 H 4547.94 -4.90387 0.422108 0
M  V30 46976 N 4549.59 -0.37909 -1.52973 0
M  V30 46977 C 4550.54 0.460969 -2.2615 0
M  V30 46978 C 4551.51 1.06633 -1.27352 0
M  V30 46979 O 4552.69 1.09628 -1.56161 0
M  V30 46980 C 4549.83 1.58772 -3.06408 0
M  V30 46981 C 4548.95 1.00621 -4.20118 0
M  V30 46982 C 4548.08 2.10317 -4.87791 0
M  V30 46983 C 4547.12 1.49703 -5.93511 0
M  V30 46984 N 4546.26 2.53287 -6.54821 0
M  V30 46985 H 4551.1 -0.169534 -2.97517 0
M  V30 46986 H 4548.63 -0.0954322 -1.4679 0
M  V30 46987 H 4550.59 2.25162 -3.51223 0
M  V30 46988 H 4549.22 2.18868 -2.37269 0
M  V30 46989 H 4548.27 0.232199 -3.79691 0
M  V30 46990 H 4549.59 0.523168 -4.96049 0
M  V30 46991 H 4548.74 2.845 -5.35859 0
M  V30 46992 H 4547.48 2.61978 -4.11362 0
M  V30 46993 H 4546.48 0.740406 -5.44792 0
M  V30 46994 H 4547.71 0.988496 -6.71867 0
M  V30 46995 H 4545.66 3.04136 -5.81238 0
M  V30 46996 H 4545.57 2.09708 -7.26332 0
M  V30 46997 H 4546.84 3.27131 -7.07535 0
M  V30 46998 N 4551.07 1.57225 -0.108623 0
M  V30 46999 C 4552.32 1.9445 0.550785 0
M  V30 47000 C 4552.64 0.992133 1.67874 0
M  V30 47001 O 4551.91 0.0465688 1.95845 0
M  V30 47002 H 4550.49 0.717904 0.206454 0
M  V30 47003 H 4553.15 1.94112 -0.17513 0
M  V30 47004 H 4552.25 2.97221 0.952154 0
M  V30 47005 N 4552.55 -0.165123 1.56733 0
M  V30 47006 C 4553.96 -0.517121 1.5099 0
M  V30 47007 C 4554.16 -1.84328 0.813958 0
M  V30 47008 O 4553.22 -2.49671 0.376908 0
M  V30 47009 C 4554.53 -0.544157 2.95735 0
M  V30 47010 C 4556.08 -0.630931 3.06575 0
M  V30 47011 C 4556.56 -0.688801 4.52791 0
M  V30 47012 N 4558.05 -0.751522 4.57063 0
M  V30 47013 C 4558.78 -0.816978 5.6755 0
M  V30 47014 N 4558.28 -0.842887 6.87653 0
M  V30 47015 N 4560.07 -0.856473 5.55537 0
M  V30 47016 H 4552.22 0.704388 2.0038 0
M  V30 47017 H 4554.48 0.254719 0.913139 0
M  V30 47018 H 4554.19 0.36173 3.49835 0
M  V30 47019 H 4554.06 -1.38848 3.50715 0
M  V30 47020 H 4556.45 -1.52724 2.52506 0
M  V30 47021 H 4556.53 0.240185 2.5467 0
M  V30 47022 H 4556.18 0.203278 5.07493 0
M  V30 47023 H 4556.11 -1.57615 5.02459 0
M  V30 47024 H 4558.6 -0.739531 3.70593 0
M  V30 47025 H 4558.91 -0.894178 7.67609 0
M  V30 47026 H 4557.26 -0.811062 6.90251 0
M  V30 47027 H 4560.45 -0.833275 4.60624 0
M  V30 47028 H 4560.62 -0.904021 6.41663 0
M  V30 47029 N 4554.03 -1.5151 -0.433885 0
M  V30 47030 C 4554.96 -1.76022 -1.53423 0
M  V30 47031 C 4555.94 -0.610167 -1.5878 0
M  V30 47032 O 4557.12 -0.853238 -1.74452 0
M  V30 47033 C 4554.25 -1.88841 -2.91473 0
M  V30 47034 C 4553.21 -3.04298 -3.00976 0
M  V30 47035 C 4552.53 -3.02305 -4.41039 0
M  V30 47036 C 4553.83 -4.44203 -2.74738 0
M  V30 47037 H 4555.53 -2.68157 -1.33162 0
M  V30 47038 H 4553.07 -1.29037 -0.639169 0
M  V30 47039 H 4555.03 -2.04572 -3.68413 0
M  V30 47040 H 4553.75 -0.933565 -3.12973 0
M  V30 47041 H 4552.41 -2.88278 -2.26476 0
M  V30 47042 H 4552.06 -2.04592 -4.59512 0
M  V30 47043 H 4551.76 -3.79838 -4.48327 0
M  V30 47044 H 4553.28 -3.20134 -5.19948 0
M  V30 47045 H 4554.69 -4.60556 -3.4141 0
M  V30 47046 H 4553.09 -5.23467 -2.93431 0
M  V30 47047 H 4554.16 -4.54002 -1.70323 0
M  V30 47048 N 4555.5 0.689552 -1.41714 0
M  V30 47049 C 4556.75 1.45176 -1.41604 0
M  V30 47050 C 4557.08 1.94181 -0.0270763 0
M  V30 47051 O 4556.36 1.69933 0.946205 0
M  V30 47052 C 4556.64 2.65936 -2.42796 0
M  V30 47053 C 4556.49 2.22658 -3.90824 0
M  V30 47054 C 4557.81 3.68141 -2.41164 0
M  V30 47055 H 4554.93 0.526558 -0.515661 0
M  V30 47056 H 4557.57 0.784886 -1.7303 0
M  V30 47057 H 4555.72 3.22833 -2.16128 0
M  V30 47058 H 4557.4 1.71043 -4.28418 0
M  V30 47059 H 4555.64 1.5438 -4.054 0
M  V30 47060 H 4556.31 3.09334 -4.57183 0
M  V30 47061 H 4558.79 3.20931 -2.64845 0
M  V30 47062 H 4557.66 4.50237 -3.13971 0
M  V30 47063 H 4557.92 4.18253 -1.43236 0
M  V30 47064 N 4556.98 1.27642 0.924409 0
M  V30 47065 C 4558.23 1.14342 1.67493 0
M  V30 47066 C 4558.56 -0.309397 1.9172 0
M  V30 47067 O 4557.84 -1.22603 1.50993 0
M  V30 47068 C 4558.12 1.93107 3.03944 0
M  V30 47069 C 4557.97 3.46391 2.86937 0
M  V30 47070 C 4559.29 1.73812 4.04323 0
M  V30 47071 H 4556.41 0.416749 0.607856 0
M  V30 47072 H 4559.05 1.56836 1.0725 0
M  V30 47073 H 4557.2 1.56994 3.55366 0
M  V30 47074 H 4558.87 3.92351 2.42607 0
M  V30 47075 H 4557.12 3.72564 2.22212 0
M  V30 47076 H 4557.79 3.96749 3.8379 0
M  V30 47077 H 4560.26 2.05306 3.61924 0
M  V30 47078 H 4559.14 2.31312 4.97781 0
M  V30 47079 H 4559.4 0.686879 4.36731 0
M  V30 47080 N 4558.46 -1.13137 1.09717 0
M  V30 47081 C 4559.74 -1.80759 0.747366 0
M  V30 47082 C 4560.12 -1.96666 -0.767196 0
M  V30 47083 O 4559.47 -1.53712 -1.69071 0
M  V30 47084 C 4559.68 -3.15601 1.48986 0
M  V30 47085 C 4561.02 -3.90908 1.6576 0
M  V30 47086 O 4562.05 -3.25234 1.45262 0
M  V30 47087 O 4560.91 -5.08711 1.99688 0
M  V30 47088 H 4558 -0.782094 0.268809 0
M  V30 47089 H 4560.55 -1.20037 1.19955 0
M  V30 47090 H 4559.32 -2.99269 2.52099 0
M  V30 47091 H 4558.94 -3.84026 1.03005 0
M  V30 47092 N 4559.94 -0.884812 -1.30418 0
M  V30 47093 C 4561.19 -0.50218 -1.95761 0
M  V30 47094 C 4561.51 0.951755 -1.70196 0
M  V30 47095 O 4560.78 1.66916 -1.02546 0
M  V30 47096 H 4559.36 -0.18272 -0.724308 0
M  V30 47097 H 4562.02 -1.12785 -1.58951 0
M  V30 47098 H 4561.12 -0.672295 -3.04773 0
M  V30 47099 N 4561.42 1.43763 -0.645749 0
M  V30 47100 C 4562.35 2.33471 0.0369656 0
M  V30 47101 C 4563.33 1.49045 0.819727 0
M  V30 47102 O 4564.51 1.77729 0.782696 0
M  V30 47103 C 4561.64 3.32314 1.00918 0
M  V30 47104 C 4560.6 4.26671 0.337051 0
M  V30 47105 C 4559.92 5.15495 1.42019 0
M  V30 47106 C 4561.22 5.16654 -0.765888 0
M  V30 47107 H 4562.92 2.90807 -0.712171 0
M  V30 47108 H 4560.46 1.39833 -0.343926 0
M  V30 47109 H 4562.42 3.93965 1.49565 0
M  V30 47110 H 4561.14 2.73219 1.78939 0
M  V30 47111 H 4559.8 3.66373 -0.1289 0
M  V30 47112 H 4559.45 4.52743 2.19164 0
M  V30 47113 H 4559.15 5.79442 0.975762 0
M  V30 47114 H 4560.67 5.80018 1.90817 0
M  V30 47115 H 4562.08 5.72157 -0.361903 0
M  V30 47116 H 4560.48 5.89282 -1.13433 0
M  V30 47117 H 4561.55 4.5679 -1.62699 0
M  V30 47118 N 4562.89 0.387197 1.5277 0
M  V30 47119 C 4564.31 0.0370631 1.59557 0
M  V30 47120 C 4564.51 -1.44796 1.4013 0
M  V30 47121 O 4563.57 -2.21223 1.21724 0
M  V30 47122 C 4564.88 0.51236 2.96303 0
M  V30 47123 C 4566.43 0.468436 3.09475 0
M  V30 47124 C 4566.9 0.919889 4.48667 0
M  V30 47125 N 4568.39 0.875816 4.54845 0
M  V30 47126 C 4569.13 1.19657 5.60776 0
M  V30 47127 N 4568.62 1.58769 6.74362 0
M  V30 47128 N 4570.42 1.11796 5.5087 0
M  V30 47129 H 4562.57 1.35401 1.63647 0
M  V30 47130 H 4564.83 0.554845 0.768668 0
M  V30 47131 H 4564.54 1.54946 3.15729 0
M  V30 47132 H 4564.41 -0.0896724 3.77093 0
M  V30 47133 H 4566.8 -0.55957 2.89746 0
M  V30 47134 H 4566.88 1.10624 2.30642 0
M  V30 47135 H 4566.52 1.94611 4.69136 0
M  V30 47136 H 4566.45 0.259112 5.25962 0
M  V30 47137 H 4568.94 0.587974 3.73298 0
M  V30 47138 H 4569.26 1.81613 7.51157 0
M  V30 47139 H 4567.6 1.62653 6.75699 0
M  V30 47140 H 4570.79 0.811426 4.61014 0
M  V30 47141 H 4570.97 1.37125 6.33325 0
M  V30 47142 N 4564.37 -1.57165 0.116959 0
M  V30 47143 C 4565.34 -2.14042 -0.819667 0
M  V30 47144 C 4566.34 -1.07481 -1.19601 0
M  V30 47145 O 4567.53 -1.33267 -1.12185 0
M  V30 47146 C 4564.66 -2.67898 -2.10816 0
M  V30 47147 H 4565.85 -2.98129 -0.325407 0
M  V30 47148 H 4563.4 -1.55739 -0.132258 0
M  V30 47149 H 4564.14 -1.87393 -2.64678 0
M  V30 47150 H 4563.92 -3.4583 -1.84781 0
M  V30 47151 H 4565.41 -3.11819 -2.77774 0
M  V30 47152 N 4565.85 0.156809 -1.56818 0
M  V30 47153 C 4567.27 0.509107 -1.51262 0
M  V30 47154 C 4567.47 1.83894 -0.823722 0
M  V30 47155 O 4566.52 2.49468 -0.390143 0
M  V30 47156 C 4567.84 0.528466 -2.9602 0
M  V30 47157 C 4569.38 0.614664 -3.06905 0
M  V30 47158 C 4569.86 0.664779 -4.5315 0
M  V30 47159 N 4571.35 0.727272 -4.57455 0
M  V30 47160 C 4572.08 0.786867 -5.67975 0
M  V30 47161 N 4571.58 0.806408 -6.88091 0
M  V30 47162 N 4573.37 0.826999 -5.55983 0
M  V30 47163 H 4565.52 -0.715005 -2.00004 0
M  V30 47164 H 4567.79 -0.259558 -0.911775 0
M  V30 47165 H 4567.49 -0.380277 -3.49638 0
M  V30 47166 H 4567.37 1.36986 -3.51447 0
M  V30 47167 H 4569.75 1.51383 -2.53312 0
M  V30 47168 H 4569.84 -0.253687 -2.54539 0
M  V30 47169 H 4569.48 -0.230189 -5.07378 0
M  V30 47170 H 4569.41 1.54948 -5.03288 0
M  V30 47171 H 4571.9 0.719867 -3.7098 0
M  V30 47172 H 4572.21 0.853457 -7.68073 0
M  V30 47173 H 4570.56 0.774445 -6.90672 0
M  V30 47174 H 4573.75 0.808835 -4.61059 0
M  V30 47175 H 4573.92 0.86998 -6.42133 0
M  V30 47176 N 4567.33 1.51738 0.425844 0
M  V30 47177 C 4568.24 1.76743 1.54269 0
M  V30 47178 C 4569.25 0.652166 1.61316 0
M  V30 47179 O 4570.43 0.935717 1.78343 0
M  V30 47180 C 4567.5 1.89765 2.90155 0
M  V30 47181 C 4566.56 3.13644 2.93132 0
M  V30 47182 C 4565.79 3.26034 4.22537 0
M  V30 47183 O 4566.01 2.44085 5.15537 0
M  V30 47184 O 4564.95 4.19086 4.32031 0
M  V30 47185 H 4568.77 2.71507 1.36079 0
M  V30 47186 H 4566.36 1.36379 0.610021 0
M  V30 47187 H 4568.24 2.00249 3.70781 0
M  V30 47188 H 4566.91 0.981893 3.08449 0
M  V30 47189 H 4565.82 3.0863 2.1142 0
M  V30 47190 H 4567.15 4.04946 2.79785 0
M  V30 47191 N 4568.81 -0.682027 1.42078 0
M  V30 47192 C 4570.06 -1.43925 1.41881 0
M  V30 47193 C 4570.38 -1.94971 0.0336284 0
M  V30 47194 O 4569.65 -1.72594 -0.926713 0
M  V30 47195 H 4568.23 -0.534066 0.522285 0
M  V30 47196 H 4570.89 -0.806365 1.77437 0
M  V30 47197 H 4569.98 -2.2958 2.11422 0
M  V30 47198 N 4570.29 -1.2813 -0.917626 0
M  V30 47199 C 4571.51 -1.18013 -1.70551 0
M  V30 47200 C 4571.94 0.258191 -1.8632 0
M  V30 47201 O 4571.29 1.18685 -1.37053 0
M  V30 47202 C 4571.34 -1.87959 -3.0774 0
M  V30 47203 O 4570.45 -1.18441 -3.95026 0
M  V30 47204 H 4569.79 -0.409885 -0.522389 0
M  V30 47205 H 4572.32 -1.69383 -1.14764 0
M  V30 47206 H 4572.33 -1.95714 -3.57994 0
M  V30 47207 H 4571 -2.92583 -2.9558 0
M  V30 47208 H 4569.58 -1.18824 -3.53462 0
M  V30 47209 N 4571.76 1.12553 -1.10316 0
M  V30 47210 C 4572.69 2.20338 -0.772876 0
M  V30 47211 C 4573.67 1.68199 0.253591 0
M  V30 47212 O 4574.86 1.93831 0.119631 0
M  V30 47213 C 4571.99 3.46709 -0.202565 0
M  V30 47214 C 4570.94 4.11992 -1.15958 0
M  V30 47215 C 4570.27 5.32799 -0.450532 0
M  V30 47216 C 4571.57 4.58271 -2.50568 0
M  V30 47217 H 4573.26 2.48223 -1.67409 0
M  V30 47218 H 4570.81 1.19305 -0.806368 0
M  V30 47219 H 4572.76 4.2138 0.0406271 0
M  V30 47220 H 4571.49 3.18248 0.733889 0
M  V30 47221 H 4570.15 3.393 -1.3882 0
M  V30 47222 H 4569.79 5.00604 0.490355 0
M  V30 47223 H 4569.49 5.77426 -1.08872 0
M  V30 47224 H 4571.02 6.10218 -0.215856 0
M  V30 47225 H 4572.43 5.24322 -2.31861 0
M  V30 47226 H 4570.83 5.13672 -3.1026 0
M  V30 47227 H 4571.9 3.72318 -3.10657 0
M  V30 47228 N 4573.24 0.891716 1.29947 0
M  V30 47229 C 4574.65 0.563167 1.78004 0
M  V30 47230 C 4575 -0.920917 1.73244 0
M  V30 47231 O 4574.13 -1.71982 1.31343 0
M  V30 47232 C 4574.72 1.0155 3.23223 0
M  V30 47233 C 4573.28 0.738254 3.69089 0
M  V30 47234 C 4572.43 1.1947 2.50244 0
M  V30 47235 H 4575.38 1.07526 1.16721 0
M  V30 47236 H 4575.4 0.347351 3.78911 0
M  V30 47237 H 4574.91 2.09567 3.26655 0
M  V30 47238 H 4573.01 -0.329635 3.71139 0
M  V30 47239 H 4573.13 1.33053 4.60254 0
M  V30 47240 H 4571.49 0.613874 2.47192 0
M  V30 47241 H 4572.27 2.28274 2.56409 0
M  V30 47242 N 4574.72 -1.43419 0.653364 0
M  V30 47243 C 4575.97 -2.01413 0.166486 0
M  V30 47244 C 4576.29 -1.51807 -1.22391 0
M  V30 47245 O 4575.56 -0.730757 -1.8176 0
M  V30 47246 H 4574.14 -0.744701 0.0585581 0
M  V30 47247 H 4576.8 -1.75627 0.845064 0
M  V30 47248 H 4575.9 -3.11733 0.15122 0
M  V30 47249 N 4576.2 -0.395293 -1.52562 0
M  V30 47250 C 4577.15 0.451778 -2.2817 0
M  V30 47251 C 4578.14 1.05788 -1.32308 0
M  V30 47252 O 4579.35 0.997666 -1.49822 0
M  V30 47253 H 4575.72 0.164455 -0.733797 0
M  V30 47254 H 4577.69 -0.207304 -2.97679 0
M  V30 47255 C 4576.44 1.56374 -3.10552 0
M  V30 47256 H 4575.76 1.10668 -3.84178 0
M  V30 47257 H 4577.2 2.13054 -3.66584 0
M  V30 47258 C 4575.66 2.5232 -2.2324 0
M  V30 47259 O 4576.19 3.55874 -1.86324 0
M  V30 47260 N 4574.4 2.22202 -1.87282 0
M  V30 47261 H 4573.95 1.38026 -2.17501 0
M  V30 47262 H 4573.9 2.86647 -1.29153 0
M  V30 47263 N 4577.68 1.57101 -0.125292 0
M  V30 47264 C 4578.9 2.00192 0.54203 0
M  V30 47265 C 4579.33 1.00454 1.5903 0
M  V30 47266 O 4578.68 -0.0228785 1.81286 0
M  V30 47267 C 4578.73 3.42133 1.13917 0
M  V30 47268 O 4577.84 3.45315 2.25458 0
M  V30 47269 H 4577.18 0.650175 0.134789 0
M  V30 47270 H 4579.71 2.03461 -0.215624 0
M  V30 47271 H 4579.72 3.80476 1.47317 0
M  V30 47272 H 4578.39 4.14239 0.371385 0
M  V30 47273 H 4576.97 3.18797 1.93451 0
M  V30 47274 N 4579.15 -0.14849 1.56899 0
M  V30 47275 C 4580.38 -0.876323 1.87425 0
M  V30 47276 C 4580.8 -1.74806 0.713317 0
M  V30 47277 O 4580.15 -1.79726 -0.316962 0
M  V30 47278 C 4580.2 -1.73426 3.17184 0
M  V30 47279 O 4579.93 -0.897658 4.28805 0
M  V30 47280 C 4581.43 -2.56981 3.61214 0
M  V30 47281 H 4578.65 -0.253467 0.621285 0
M  V30 47282 H 4581.19 -0.141726 2.04008 0
M  V30 47283 H 4579.35 -2.42194 3.02359 0
M  V30 47284 H 4579.76 -1.48654 5.02993 0
M  V30 47285 H 4581.23 -3.12757 4.54849 0
M  V30 47286 H 4581.71 -3.32947 2.86431 0
M  V30 47287 H 4582.32 -1.93507 3.78728 0
M  V30 47288 N 4580.63 -1.51961 -0.417791 0
M  V30 47289 C 4581.88 -1.64824 -1.16258 0
M  V30 47290 C 4582.19 -0.379954 -1.91874 0
M  V30 47291 O 4583.4 -0.388248 -2.6871 0
M  V30 47292 C 4581.86 -2.91168 -2.11539 0
M  V30 47293 C 4581.46 -4.25073 -1.4148 0
M  V30 47294 C 4583.21 -3.13393 -2.8633 0
M  V30 47295 C 4581.11 -5.42549 -2.3536 0
M  V30 47296 H 4580.04 -0.613969 -0.437673 0
M  V30 47297 H 4582.7 -1.78443 -0.427808 0
M  V30 47298 H 4581.08 -2.71228 -2.88533 0
M  V30 47299 H 4582.25 -4.55466 -0.699103 0
M  V30 47300 H 4580.57 -4.08883 -0.787648 0
M  V30 47301 H 4583.16 -3.98337 -3.56696 0
M  V30 47302 H 4583.51 -2.27269 -3.4879 0
M  V30 47303 H 4584.04 -3.33765 -2.16439 0
M  V30 47304 H 4580.78 -6.30994 -1.77559 0
M  V30 47305 H 4580.3 -5.16507 -3.04927 0
M  V30 47306 H 4581.98 -5.75283 -2.96072 0
M  V30 47307 N 4582.11 0.674483 -1.42438 0
M  V30 47308 C 4583.33 1.46778 -1.46529 0
M  V30 47309 C 4583.76 1.87938 -0.0781321 0
M  V30 47310 O 4583.12 1.56017 0.923485 0
M  V30 47311 C 4583.17 2.69298 -2.39814 0
M  V30 47312 O 4582.27 3.6758 -1.86972 0
M  V30 47313 H 4581.61 0.440941 -0.496454 0
M  V30 47314 H 4584.14 0.82726 -1.8713 0
M  V30 47315 H 4584.15 3.17365 -2.56405 0
M  V30 47316 H 4582.83 2.3868 -3.40594 0
M  V30 47317 H 4581.4 3.26614 -1.79938 0
M  V30 47318 N 4583.59 1.28615 0.910818 0
M  V30 47319 C 4584.84 1.15317 1.65484 0
M  V30 47320 C 4585.15 -0.296931 1.93333 0
M  V30 47321 O 4586.36 -0.551074 2.65848 0
M  V30 47322 C 4584.81 2.0161 2.9813 0
M  V30 47323 C 4584.42 3.51377 2.77917 0
M  V30 47324 C 4586.16 1.97006 3.76017 0
M  V30 47325 C 4584.07 4.29811 4.06222 0
M  V30 47326 H 4583 0.427982 0.620764 0
M  V30 47327 H 4585.65 1.53169 1.01052 0
M  V30 47328 H 4584.03 1.56616 3.63714 0
M  V30 47329 H 4585.21 4.04348 2.20996 0
M  V30 47330 H 4583.52 3.57537 2.1344 0
M  V30 47331 H 4586.12 2.52872 4.71126 0
M  V30 47332 H 4586.46 0.947473 4.05375 0
M  V30 47333 H 4587 2.39984 3.17258 0
M  V30 47334 H 4583.74 5.32662 3.82036 0
M  V30 47335 H 4583.26 3.81613 4.62744 0
M  V30 47336 H 4584.93 4.39886 4.74457 0
M  V30 47337 N 4585.07 -1.11967 1.10911 0
M  V30 47338 C 4586.48 -1.35588 0.841899 0
M  V30 47339 C 4586.68 -1.94235 -0.536178 0
M  V30 47340 O 4585.74 -2.17174 -1.28808 0
M  V30 47341 C 4587.05 -2.29277 1.94557 0
M  V30 47342 C 4588.6 -2.42855 1.97459 0
M  V30 47343 C 4589.07 -3.39862 3.07014 0
M  V30 47344 N 4590.57 -3.47422 3.06353 0
M  V30 47345 C 4591.3 -4.22407 3.87763 0
M  V30 47346 N 4590.8 -5.00415 4.79121 0
M  V30 47347 N 4592.59 -4.17863 3.75961 0
M  V30 47348 H 4584.74 -0.722594 1.99731 0
M  V30 47349 H 4587 -0.380605 0.868242 0
M  V30 47350 H 4586.71 -1.93367 2.93772 0
M  V30 47351 H 4586.58 -3.29445 1.837 0
M  V30 47352 H 4588.97 -2.78043 0.988743 0
M  V30 47353 H 4589.05 -1.42558 2.12393 0
M  V30 47354 H 4588.7 -3.05403 4.05822 0
M  V30 47355 H 4588.63 -4.40001 2.89321 0
M  V30 47356 H 4591.12 -2.91775 2.40157 0
M  V30 47357 H 4591.43 -5.54983 5.37786 0
M  V30 47358 H 4589.77 -4.99595 4.83146 0
M  V30 47359 H 4592.97 -3.56006 3.03937 0
M  V30 47360 H 4593.14 -4.76046 4.39641 0
M  V30 47361 N 4586.54 -0.898595 -1.29472 0
M  V30 47362 C 4587.51 -0.380351 -2.26022 0
M  V30 47363 C 4588.51 0.484837 -1.53317 0
M  V30 47364 O 4589.7 0.290047 -1.71768 0
M  V30 47365 C 4586.83 0.456391 -3.37831 0
M  V30 47366 H 4588.02 -1.23305 -2.73379 0
M  V30 47367 H 4585.58 -0.676638 -1.40895 0
M  V30 47368 H 4586.31 1.32912 -2.95812 0
M  V30 47369 H 4586.1 -0.163531 -3.91759 0
M  V30 47370 H 4587.59 0.810322 -4.09663 0
M  V30 47371 N 4588.02 1.4307 -0.660961 0
M  V30 47372 C 4589.43 1.84931 -0.256413 0
M  V30 47373 C 4589.78 1.5533 1.19863 0
M  V30 47374 O 4588.91 1.00614 1.91588 0
M  V30 47375 C 4589.5 3.35682 -0.458593 0
M  V30 47376 C 4588.06 3.76244 -0.108293 0
M  V30 47377 C 4587.21 2.66746 -0.757735 0
M  V30 47378 H 4590.16 1.33113 -0.864097 0
M  V30 47379 H 4590.18 3.79366 0.29355 0
M  V30 47380 H 4589.69 3.57195 -1.51767 0
M  V30 47381 H 4587.8 3.60341 0.947887 0
M  V30 47382 H 4587.91 4.76057 -0.539159 0
M  V30 47383 H 4586.27 2.53988 -0.190274 0
M  V30 47384 H 4587.06 2.91086 -1.82 0
M  V30 47385 N 4589.5 0.403378 1.5235 0
M  V30 47386 C 4590.75 -0.174534 2.02048 0
M  V30 47387 C 4591.08 -1.45278 1.28872 0
M  V30 47388 O 4590.35 -1.90482 0.393324 0
M  V30 47389 C 4590.64 -0.428112 3.57546 0
M  V30 47390 C 4590.49 0.866403 4.41377 0
M  V30 47391 C 4591.81 -1.21273 4.23061 0
M  V30 47392 H 4588.93 -0.0619593 0.734391 0
M  V30 47393 H 4591.57 0.535714 1.82291 0
M  V30 47394 H 4589.72 -1.03314 3.74511 0
M  V30 47395 H 4591.39 1.5028 4.36135 0
M  V30 47396 H 4589.64 1.47865 4.07822 0
M  V30 47397 H 4590.31 0.643442 5.48237 0
M  V30 47398 H 4592.78 -0.700559 4.1016 0
M  V30 47399 H 4591.66 -1.3589 5.31813 0
M  V30 47400 H 4591.92 -2.23179 3.81633 0
M  V30 47401 N 4590.98 -1.57033 0.133622 0
M  V30 47402 C 4592.21 -1.99756 -0.527359 0
M  V30 47403 C 4592.62 -1.0125 -1.59828 0
M  V30 47404 O 4591.96 0.000580916 -1.837 0
M  V30 47405 C 4592.02 -3.38907 -1.19927 0
M  V30 47406 C 4591.69 -4.56175 -0.274549 0
M  V30 47407 C 4592.68 -5.17561 0.49258 0
M  V30 47408 C 4590.37 -5.01973 -0.181354 0
M  V30 47409 C 4592.36 -6.23145 1.34049 0
M  V30 47410 C 4590.05 -6.07414 0.670172 0
M  V30 47411 C 4591.05 -6.67868 1.42971 0
M  V30 47412 O 4590.73 -7.71271 2.26707 0
M  V30 47413 H 4590.47 -0.660707 -0.142976 0
M  V30 47414 H 4593.02 -2.04206 0.221171 0
M  V30 47415 H 4591.25 -3.31255 -1.99517 0
M  V30 47416 H 4592.94 -3.65824 -1.75862 0
M  V30 47417 H 4593.71 -4.83085 0.430537 0
M  V30 47418 H 4589.58 -4.54654 -0.762262 0
M  V30 47419 H 4593.13 -6.70261 1.93381 0
M  V30 47420 H 4589.03 -6.41318 0.733555 0
M  V30 47421 H 4589.79 -7.88433 2.19808 0
M  V30 47422 N 4592.46 0.140167 -1.56975 0
M  V30 47423 C 4593.39 1.17448 -2.01812 0
M  V30 47424 C 4594.37 1.44412 -0.898845 0
M  V30 47425 O 4595.55 1.55216 -1.16712 0
M  V30 47426 C 4592.68 2.50599 -2.40453 0
M  V30 47427 C 4591.64 2.38143 -3.55629 0
M  V30 47428 C 4590.96 3.76065 -3.80104 0
M  V30 47429 C 4592.26 1.85974 -4.88069 0
M  V30 47430 H 4593.96 0.801641 -2.88468 0
M  V30 47431 H 4591.5 0.384171 -1.38781 0
M  V30 47432 H 4593.46 3.23188 -2.70421 0
M  V30 47433 H 4592.18 2.89732 -1.50742 0
M  V30 47434 H 4590.84 1.68005 -3.25837 0
M  V30 47435 H 4590.49 4.12646 -2.87633 0
M  V30 47436 H 4590.19 3.6859 -4.57619 0
M  V30 47437 H 4591.71 4.50192 -4.12504 0
M  V30 47438 H 4593.12 2.48362 -5.1671 0
M  V30 47439 H 4591.52 1.89373 -5.69436 0
M  V30 47440 H 4592.59 0.815854 -4.77987 0
M  V30 47441 N 4593.93 1.52181 0.409726 0
M  V30 47442 C 4595.18 1.65882 1.15445 0
M  V30 47443 C 4595.5 0.390838 1.91043 0
M  V30 47444 O 4594.77 -0.594257 1.86669 0
M  V30 47445 H 4593.35 0.61142 0.429156 0
M  V30 47446 H 4596.02 1.89221 0.467068 0
M  V30 47447 H 4595.11 2.49961 1.86885 0
M  V30 47448 N 4595.41 -0.666919 1.42793 0
M  V30 47449 C 4596.64 -1.45999 1.47306 0
M  V30 47450 C 4597.06 -1.87894 0.0880978 0
M  V30 47451 O 4596.42 -1.56505 -0.915198 0
M  V30 47452 C 4596.47 -2.68023 2.41239 0
M  V30 47453 O 4595.57 -3.66583 1.88919 0
M  V30 47454 H 4594.91 -0.438302 0.498786 0
M  V30 47455 H 4597.44 -0.817325 1.87566 0
M  V30 47456 H 4597.45 -3.16001 2.58084 0
M  V30 47457 H 4596.13 -2.36871 3.41855 0
M  V30 47458 H 4594.71 -3.25655 1.81668 0
M  V30 47459 N 4596.89 -1.29096 -0.903985 0
M  V30 47460 C 4598.3 -1.15192 -1.46928 0
M  V30 47461 C 4598.65 0.254519 -1.94542 0
M  V30 47462 O 4597.78 1.14965 -1.83336 0
M  V30 47463 C 4598.37 -2.08502 -2.67044 0
M  V30 47464 C 4596.93 -1.98632 -3.19722 0
M  V30 47465 C 4596.08 -1.99677 -1.92418 0
M  V30 47466 H 4599.03 -1.41643 -0.71574 0
M  V30 47467 H 4599.05 -1.65473 -3.42635 0
M  V30 47468 H 4598.56 -3.10855 -2.32359 0
M  V30 47469 H 4596.66 -0.993515 -3.5911 0
M  V30 47470 H 4596.78 -2.86081 -3.8431 0
M  V30 47471 H 4595.14 -1.44215 -2.09938 0
M  V30 47472 H 4595.92 -3.03727 -1.60015 0
M  V30 47473 N 4598.37 1.11377 -1.11503 0
M  V30 47474 C 4599.78 1.64647 -0.880248 0
M  V30 47475 C 4600.13 1.87202 0.587368 0
M  V30 47476 O 4599.26 1.60672 1.4496 0
M  V30 47477 C 4599.85 2.99099 -1.59139 0
M  V30 47478 C 4598.41 3.49274 -1.40301 0
M  V30 47479 C 4597.56 2.24072 -1.63362 0
M  V30 47480 H 4600.51 0.950078 -1.27119 0
M  V30 47481 H 4600.53 3.66103 -1.03677 0
M  V30 47482 H 4600.04 2.82651 -2.65951 0
M  V30 47483 H 4598.14 3.70886 -0.357019 0
M  V30 47484 H 4598.26 4.28022 -2.15253 0
M  V30 47485 H 4596.62 2.31729 -1.05706 0
M  V30 47486 H 4597.4 2.10166 -2.7145 0
M  V30 47487 N 4599.85 0.905449 1.28994 0
M  V30 47488 C 4601.07 0.549246 1.99995 0
M  V30 47489 C 4601.5 -0.860217 1.67278 0
M  V30 47490 O 4600.86 -1.57352 0.900557 0
M  V30 47491 C 4600.9 0.755309 3.52601 0
M  V30 47492 O 4600.01 -0.189548 4.11964 0
M  V30 47493 H 4599.35 0.213921 0.628597 0
M  V30 47494 H 4601.88 1.21861 1.6435 0
M  V30 47495 H 4601.89 0.662186 4.0259 0
M  V30 47496 H 4600.56 1.78284 3.75749 0
M  V30 47497 H 4599.14 -0.0483946 3.72869 0
M  V30 47498 N 4601.33 -1.42718 0.668539 0
M  V30 47499 C 4602.57 -2.01225 0.187839 0
M  V30 47500 C 4602.89 -1.53097 -1.20774 0
M  V30 47501 O 4602.16 -0.749994 -1.80975 0
M  V30 47502 H 4600.74 -0.744038 0.0664533 0
M  V30 47503 H 4603.41 -1.7472 0.863644 0
M  V30 47504 H 4602.5 -3.11556 0.184275 0
M  V30 47505 N 4602.8 -0.411452 -1.52134 0
M  V30 47506 C 4603.75 0.412895 -2.27077 0
M  V30 47507 C 4604.72 1.03908 -1.29586 0
M  V30 47508 O 4605.91 1.06291 -1.58452 0
M  V30 47509 C 4603.05 1.52237 -3.09706 0
M  V30 47510 C 4602.16 0.916873 -4.22158 0
M  V30 47511 C 4601.29 1.99923 -4.92142 0
M  V30 47512 C 4600.33 1.3708 -5.96553 0
M  V30 47513 N 4599.47 2.3934 -6.60046 0
M  V30 47514 H 4604.31 -0.232604 -2.97091 0
M  V30 47515 H 4601.85 -0.126547 -1.46555 0
M  V30 47516 H 4603.8 2.17662 -3.5592 0
M  V30 47517 H 4602.43 2.13786 -2.41858 0
M  V30 47518 H 4601.49 0.151609 -3.80098 0
M  V30 47519 H 4602.8 0.417831 -4.97047 0
M  V30 47520 H 4601.95 2.73069 -5.41773 0
M  V30 47521 H 4600.69 2.53193 -4.16827 0
M  V30 47522 H 4599.7 0.624681 -5.4624 0
M  V30 47523 H 4600.92 0.845761 -6.73813 0
M  V30 47524 H 4598.87 2.91739 -5.87558 0
M  V30 47525 H 4598.78 1.94255 -7.30617 0
M  V30 47526 H 4600.05 3.12049 -7.14315 0
M  V30 47527 N 4604.28 1.56959 -0.141948 0
M  V30 47528 C 4605.69 1.82798 0.379711 0
M  V30 47529 C 4606.04 1.06039 1.65076 0
M  V30 47530 O 4605.17 0.304086 2.14253 0
M  V30 47531 C 4605.76 3.31581 0.695686 0
M  V30 47532 C 4604.32 3.58018 1.16189 0
M  V30 47533 C 4603.47 2.767 0.182357 0
M  V30 47534 H 4606.42 1.54405 -0.366729 0
M  V30 47535 H 4606.44 3.4746 1.55087 0
M  V30 47536 H 4605.95 3.8742 -0.229585 0
M  V30 47537 H 4604.05 3.0756 2.10327 0
M  V30 47538 H 4604.17 4.66504 1.09135 0
M  V30 47539 H 4602.53 2.45621 0.673986 0
M  V30 47540 H 4603.31 3.35309 -0.736415 0
M  V30 47541 N 4605.76 -0.13184 1.57048 0
M  V30 47542 C 4606.71 -1.16229 1.99398 0
M  V30 47543 C 4607.68 -1.4186 0.863993 0
M  V30 47544 O 4608.86 -1.53942 1.12724 0
M  V30 47545 C 4606 -2.487 2.39254 0
M  V30 47546 C 4605.11 -2.30114 3.65611 0
M  V30 47547 C 4604.25 -3.55724 3.94504 0
M  V30 47548 C 4603.29 -3.3224 5.14084 0
M  V30 47549 N 4602.43 -4.50021 5.38912 0
M  V30 47550 H 4607.27 -0.79415 2.87223 0
M  V30 47551 H 4604.8 -0.380657 1.42089 0
M  V30 47552 H 4606.76 -3.2596 2.60395 0
M  V30 47553 H 4605.39 -2.83432 1.54487 0
M  V30 47554 H 4604.44 -1.43833 3.52159 0
M  V30 47555 H 4605.75 -2.0873 4.53027 0
M  V30 47556 H 4604.91 -4.41408 4.16225 0
M  V30 47557 H 4603.65 -3.80127 3.0554 0
M  V30 47558 H 4602.65 -2.44946 4.92221 0
M  V30 47559 H 4603.88 -3.09221 6.04615 0
M  V30 47560 H 4601.82 -4.74568 4.52903 0
M  V30 47561 H 4601.74 -4.31694 6.20626 0
M  V30 47562 H 4603.01 -5.36875 5.65142 0
M  V30 47563 N 4607.24 -1.52396 -0.40165 0
M  V30 47564 C 4608.46 -1.70976 -1.17397 0
M  V30 47565 C 4608.89 -0.421679 -1.83313 0
M  V30 47566 O 4608.25 0.621504 -1.70314 0
M  V30 47567 C 4608.29 -2.85159 -2.20718 0
M  V30 47568 O 4607.4 -2.5125 -3.27028 0
M  V30 47569 H 4606.74 -0.568939 -0.342352 0
M  V30 47570 H 4609.27 -1.99133 -0.469821 0
M  V30 47571 H 4609.28 -3.10288 -2.64925 0
M  V30 47572 H 4607.95 -3.7861 -1.72127 0
M  V30 47573 H 4606.53 -2.36818 -2.88048 0
M  V30 47574 N 4608.72 0.659337 -1.43145 0
M  V30 47575 C 4609.65 1.78417 -1.50631 0
M  V30 47576 C 4610.63 1.66214 -0.361501 0
M  V30 47577 O 4611.81 1.85402 -0.577899 0
M  V30 47578 C 4608.94 3.1681 -1.42299 0
M  V30 47579 C 4607.9 3.43768 -2.54966 0
M  V30 47580 C 4607.22 4.81897 -2.31688 0
M  V30 47581 C 4608.52 3.3912 -3.97234 0
M  V30 47582 H 4610.22 1.72409 -2.44777 0
M  V30 47583 H 4607.76 0.828043 -1.17811 0
M  V30 47584 H 4609.71 3.95248 -1.46141 0
M  V30 47585 H 4608.44 3.23533 -0.446548 0
M  V30 47586 H 4607.1 2.67698 -2.50467 0
M  V30 47587 H 4606.75 4.85289 -1.32301 0
M  V30 47588 H 4606.45 5.00895 -3.07209 0
M  V30 47589 H 4607.97 5.626 -2.37304 0
M  V30 47590 H 4609.38 4.07504 -4.03254 0
M  V30 47591 H 4607.78 3.69655 -4.72732 0
M  V30 47592 H 4608.85 2.37411 -4.22805 0
M  V30 47593 N 4610.19 1.29574 0.897126 0
M  V30 47594 C 4611.6 1.15969 1.46315 0
M  V30 47595 C 4611.96 -0.244198 1.94674 0
M  V30 47596 O 4611.08 -1.13991 1.83943 0
M  V30 47597 C 4611.68 2.09915 2.65934 0
M  V30 47598 C 4610.23 2.00325 3.18664 0
M  V30 47599 C 4609.38 2.00694 1.91356 0
M  V30 47600 H 4612.33 1.42021 0.708218 0
M  V30 47601 H 4612.35 1.67288 3.41753 0
M  V30 47602 H 4611.87 3.12083 2.30707 0
M  V30 47603 H 4609.97 1.01255 3.58578 0
M  V30 47604 H 4610.08 2.88115 3.82788 0
M  V30 47605 H 4608.44 1.45327 2.0917 0
M  V30 47606 H 4609.23 3.04571 1.58402 0
M  V30 47607 N 4611.67 -1.10784 1.12092 0
M  V30 47608 C 4612.9 -1.86458 0.896717 0
M  V30 47609 C 4613.31 -1.80494 -0.553849 0
M  V30 47610 O 4612.67 -1.19107 -1.38274 0
M  V30 47611 C 4612.72 -3.35001 1.35855 0
M  V30 47612 O 4612.44 -3.40856 2.75225 0
M  V30 47613 C 4613.94 -4.27561 1.17075 0
M  V30 47614 H 4611.16 -0.589414 0.320675 0
M  V30 47615 H 4613.71 -1.40071 1.48998 0
M  V30 47616 H 4611.86 -3.78867 0.808592 0
M  V30 47617 H 4612.28 -4.33401 2.95405 0
M  V30 47618 H 4613.75 -5.30001 1.54282 0
M  V30 47619 H 4614.23 -4.3906 0.110968 0
M  V30 47620 H 4614.83 -3.89495 1.70803 0
M  V30 47621 N 4613.15 -0.912277 -1.28512 0
M  V30 47622 C 4614.1 -0.389678 -2.29313 0
M  V30 47623 C 4615.09 0.517858 -1.6129 0
M  V30 47624 O 4616.3 0.399266 -1.75516 0
M  V30 47625 H 4612.67 -0.107412 -0.744289 0
M  V30 47626 H 4614.64 -1.25295 -2.7082 0
M  V30 47627 C 4613.39 0.356374 -3.45869 0
M  V30 47628 H 4612.72 -0.332748 -3.98413 0
M  V30 47629 H 4614.16 0.686704 -4.18402 0
M  V30 47630 C 4612.62 1.56372 -2.98411 0
M  V30 47631 O 4613.15 2.66284 -3.00759 0
M  V30 47632 N 4611.35 1.4102 -2.5409 0
M  V30 47633 H 4610.9 0.516 -2.52379 0
M  V30 47634 H 4610.86 2.21931 -2.22697 0
M  V30 47635 N 4614.63 1.42361 -0.676098 0
M  V30 47636 C 4615.85 2.06377 -0.205778 0
M  V30 47637 C 4616.28 1.50467 1.12878 0
M  V30 47638 O 4615.64 0.623679 1.70235 0
M  V30 47639 C 4615.68 3.60276 -0.152781 0
M  V30 47640 O 4614.79 4.02939 0.878308 0
M  V30 47641 H 4614.13 0.655584 -0.105382 0
M  V30 47642 H 4616.66 1.82472 -0.925477 0
M  V30 47643 H 4616.67 4.07994 0.0229241 0
M  V30 47644 H 4615.34 4.00342 -1.12689 0
M  V30 47645 H 4613.92 3.66767 0.673539 0
M  V30 47646 N 4616.11 0.419515 1.51914 0
M  V30 47647 C 4617.35 -0.152868 2.01922 0
M  V30 47648 C 4617.68 -1.44256 1.30463 0
M  V30 47649 O 4616.94 -1.91513 0.40266 0
M  V30 47650 C 4617.24 -0.436942 3.54719 0
M  V30 47651 C 4616.9 0.764788 4.44367 0
M  V30 47652 C 4615.56 1.09439 4.6859 0
M  V30 47653 C 4617.92 1.5673 4.97076 0
M  V30 47654 C 4615.24 2.22751 5.42769 0
M  V30 47655 C 4617.6 2.69127 5.72497 0
M  V30 47656 C 4616.26 3.02562 5.94989 0
M  V30 47657 H 4615.53 -0.0559384 0.738886 0
M  V30 47658 H 4618.18 0.563062 1.83035 0
M  V30 47659 H 4616.48 -1.23456 3.71841 0
M  V30 47660 H 4618.18 -0.892946 3.90932 0
M  V30 47661 H 4614.77 0.497925 4.25698 0
M  V30 47662 H 4618.95 1.32588 4.78262 0
M  V30 47663 H 4614.21 2.48991 5.58403 0
M  V30 47664 H 4618.38 3.31693 6.12334 0
M  V30 47665 H 4616.01 3.90479 6.5225 0
M  V30 47666 N 4617.58 -1.56882 0.15027 0
M  V30 47667 C 4618.83 -1.9652 -0.500765 0
M  V30 47668 C 4619.16 -1.03533 -1.643 0
M  V30 47669 O 4618.44 -0.0783434 -1.94342 0
M  V30 47670 C 4618.72 -3.45826 -1.00383 0
M  V30 47671 C 4618.57 -4.49591 0.137141 0
M  V30 47672 C 4619.89 -3.9771 -1.88453 0
M  V30 47673 H 4617.01 -0.714541 -0.180555 0
M  V30 47674 H 4619.65 -1.88576 0.232157 0
M  V30 47675 H 4617.8 -3.52726 -1.62839 0
M  V30 47676 H 4619.48 -4.54767 0.77359 0
M  V30 47677 H 4617.72 -4.26438 0.795802 0
M  V30 47678 H 4618.39 -5.51403 -0.256621 0
M  V30 47679 H 4620.87 -3.93309 -1.3582 0
M  V30 47680 H 4619.74 -5.02637 -2.2056 0
M  V30 47681 H 4620 -3.40262 -2.82267 0
M  V30 47682 N 4619.06 0.12351 -1.57115 0
M  V30 47683 C 4620.31 0.830445 -1.8425 0
M  V30 47684 C 4620.63 1.80627 -0.734773 0
M  V30 47685 O 4619.9 1.94404 0.24162 0
M  V30 47686 H 4618.48 0.30967 -0.679789 0
M  V30 47687 H 4621.14 0.111908 -1.94578 0
M  V30 47688 H 4620.24 1.37843 -2.8001 0
M  V30 47689 N 4620.54 1.52607 0.393562 0
M  V30 47690 C 4621.78 1.69114 1.14804 0
M  V30 47691 C 4622.14 0.419756 1.87355 0
M  V30 47692 O 4623.35 0.461127 2.64815 0
M  V30 47693 C 4621.62 2.88917 2.10385 0
M  V30 47694 S 4623.18 3.25988 2.9373 0
M  V30 47695 H 4619.99 0.59535 0.388689 0
M  V30 47696 H 4622.6 1.90642 0.433111 0
M  V30 47697 H 4621.3 3.79677 1.55799 0
M  V30 47698 H 4620.83 2.69708 2.86393 0
M  V30 47699 H 4622.85 2.7582 4.12478 0
M  V30 47700 N 4622.02 -0.651737 1.43493 0
M  V30 47701 C 4622.95 -1.77615 1.51575 0
M  V30 47702 C 4623.93 -1.6602 0.370311 0
M  V30 47703 O 4625.11 -1.85093 0.587723 0
M  V30 47704 C 4622.24 -3.16051 1.43977 0
M  V30 47705 C 4621.2 -3.42411 2.56786 0
M  V30 47706 C 4620.52 -4.80662 2.3424 0
M  V30 47707 C 4621.82 -3.37009 3.99027 0
M  V30 47708 H 4623.52 -1.71108 2.45688 0
M  V30 47709 H 4621.06 -0.821783 1.18249 0
M  V30 47710 H 4623.02 -3.94467 1.48235 0
M  V30 47711 H 4621.74 -3.23291 0.4637 0
M  V30 47712 H 4620.4 -2.66366 2.51883 0
M  V30 47713 H 4620.05 -4.8458 1.34873 0
M  V30 47714 H 4619.75 -4.99259 3.09861 0
M  V30 47715 H 4621.27 -5.61334 2.40284 0
M  V30 47716 H 4622.69 -4.0536 4.05409 0
M  V30 47717 H 4621.08 -3.67143 4.74686 0
M  V30 47718 H 4622.15 -2.35165 4.24058 0
M  V30 47719 N 4623.5 -1.30048 -0.890242 0
M  V30 47720 C 4624.44 -1.15983 -1.99541 0
M  V30 47721 C 4625.41 -0.0506786 -1.66023 0
M  V30 47722 O 4626.6 -0.219914 -1.89528 0
M  V30 47723 C 4623.74 -0.852171 -3.34413 0
M  V30 47724 C 4622.85 -2.04269 -3.80655 0
M  V30 47725 C 4621.99 -1.67358 -5.04148 0
M  V30 47726 C 4621.03 -2.82935 -5.42784 0
M  V30 47727 N 4620.16 -2.46356 -6.5746 0
M  V30 47728 H 4625 -2.10532 -2.10904 0
M  V30 47729 H 4622.54 -1.04753 -1.03272 0
M  V30 47730 H 4624.5 -0.654441 -4.12035 0
M  V30 47731 H 4623.13 0.0564367 -3.22751 0
M  V30 47732 H 4622.18 -2.35183 -2.98987 0
M  V30 47733 H 4623.49 -2.90841 -4.05232 0
M  V30 47734 H 4622.65 -1.43929 -5.89381 0
M  V30 47735 H 4621.38 -0.779477 -4.81431 0
M  V30 47736 H 4620.39 -3.07036 -4.5608 0
M  V30 47737 H 4621.61 -3.73024 -5.67477 0
M  V30 47738 H 4619.56 -1.59445 -6.36328 0
M  V30 47739 H 4619.48 -3.2646 -6.8188 0
M  V30 47740 H 4620.75 -2.2627 -7.45937 0
M  V30 47741 N 4624.97 1.10188 -1.12678 0
M  V30 47742 C 4625.92 2.18691 -0.792273 0
M  V30 47743 C 4626.92 1.67939 0.221999 0
M  V30 47744 O 4628.12 1.79822 0.0799442 0
M  V30 47745 H 4624.5 0.713214 -0.238389 0
M  V30 47746 H 4626.47 2.44143 -1.71572 0
M  V30 47747 C 4625.22 3.46681 -0.265981 0
M  V30 47748 H 4624.54 3.86097 -1.03774 0
M  V30 47749 H 4625.98 4.23942 -0.0702618 0
M  V30 47750 C 4624.44 3.2151 1.00664 0
M  V30 47751 O 4624.97 3.43415 2.08396 0
M  V30 47752 N 4623.18 2.75161 0.934595 0
M  V30 47753 H 4622.72 2.57535 0.0577698 0
M  V30 47754 H 4622.68 2.58697 1.78671 0
M  V30 47755 N 4626.45 0.919079 1.28026 0
M  V30 47756 C 4627.7 0.555003 1.94746 0
M  V30 47757 C 4628.03 -0.90225 1.72307 0
M  V30 47758 O 4627.28 -1.65764 1.04024 0
M  V30 47759 C 4627.58 0.816978 3.47937 0
M  V30 47760 C 4627.25 2.25462 3.90484 0
M  V30 47761 C 4625.91 2.64766 4.01811 0
M  V30 47762 C 4628.26 3.18991 4.12182 0
M  V30 47763 C 4625.59 3.96742 4.32218 0
M  V30 47764 C 4627.94 4.50538 4.4407 0
M  V30 47765 C 4626.61 4.89689 4.53609 0
M  V30 47766 H 4625.88 0.20309 0.712626 0
M  V30 47767 H 4628.52 1.16141 1.52261 0
M  V30 47768 H 4626.83 0.127815 3.91591 0
M  V30 47769 H 4628.52 0.514378 3.97687 0
M  V30 47770 H 4625.11 1.93965 3.82198 0
M  V30 47771 H 4629.3 2.89831 4.02879 0
M  V30 47772 H 4624.55 4.26769 4.3781 0
M  V30 47773 H 4628.73 5.23021 4.59807 0
M  V30 47774 H 4626.36 5.91985 4.76925 0
M  V30 47775 N 4627.93 -1.42001 0.683638 0
M  V30 47776 C 4628.86 -2.29183 -0.0282262 0
M  V30 47777 C 4629.88 -1.44153 -0.75656 0
M  V30 47778 O 4631.07 -1.67781 -0.609247 0
M  V30 47779 C 4628.17 -3.21769 -1.06386 0
M  V30 47780 C 4627.34 -4.35497 -0.407569 0
M  V30 47781 C 4626.4 -5.08742 -1.34419 0
M  V30 47782 O 4625.42 -5.62951 -0.84112 0
M  V30 47783 N 4626.63 -5.15084 -2.6771 0
M  V30 47784 H 4629.39 -2.90918 0.720207 0
M  V30 47785 H 4626.95 -1.53023 0.528736 0
M  V30 47786 H 4628.94 -3.67636 -1.69191 0
M  V30 47787 H 4627.51 -2.61424 -1.71395 0
M  V30 47788 H 4626.73 -3.92164 0.40015 0
M  V30 47789 H 4628.02 -5.08776 0.0492744 0
M  V30 47790 H 4627.42 -4.72468 -3.11112 0
M  V30 47791 H 4625.98 -5.64568 -3.2574 0
M  V30 47792 N 4629.41 -0.427565 -1.51689 0
M  V30 47793 C 4630.34 0.379519 -2.30395 0
M  V30 47794 C 4631.32 1.02977 -1.35387 0
M  V30 47795 O 4632.51 1.03528 -1.64303 0
M  V30 47796 C 4629.64 1.48638 -3.13885 0
M  V30 47797 C 4628.59 0.960148 -4.17091 0
M  V30 47798 C 4627.92 2.16202 -4.89041 0
M  V30 47799 C 4629.22 0.00135318 -5.223 0
M  V30 47800 H 4630.91 -0.277268 -2.98113 0
M  V30 47801 H 4628.46 -0.134789 -1.43368 0
M  V30 47802 H 4630.41 2.05813 -3.67721 0
M  V30 47803 H 4629.13 2.17132 -2.4397 0
M  V30 47804 H 4627.79 0.410678 -3.64292 0
M  V30 47805 H 4627.44 2.83292 -4.15638 0
M  V30 47806 H 4627.14 1.81634 -5.58823 0
M  V30 47807 H 4628.66 2.73948 -5.45696 0
M  V30 47808 H 4630.08 0.482486 -5.71266 0
M  V30 47809 H 4628.47 -0.25641 -5.99552 0
M  V30 47810 H 4629.54 -0.938341 -4.75734 0
M  V30 47811 N 4630.89 1.568 -0.158588 0
M  V30 47812 C 4632.16 1.88133 0.535291 0
M  V30 47813 C 4632.54 1.06644 1.82182 0
M  V30 47814 O 4631.89 0.156613 2.27963 0
M  V30 47815 C 4632.1 3.39952 0.789533 0
M  V30 47816 C 4633.45 4.0942 1.12519 0
M  V30 47817 O 4634.47 3.45197 0.878501 0
M  V30 47818 O 4633.33 5.2286 1.58995 0
M  V30 47819 H 4630.43 0.780153 0.274392 0
M  V30 47820 H 4632.97 1.68564 -0.196069 0
M  V30 47821 H 4631.75 3.91114 -0.120491 0
M  V30 47822 H 4631.37 3.65089 1.57466 0
M  V30 47823 N 4632.37 -0.115176 1.57179 0
M  V30 47824 C 4633.59 -0.840288 1.89615 0
M  V30 47825 C 4634.02 -1.72462 0.750905 0
M  V30 47826 O 4633.37 -1.78827 -0.298416 0
M  V30 47827 C 4633.42 -1.64642 3.2082 0
M  V30 47828 O 4632.53 -2.75369 3.06994 0
M  V30 47829 H 4631.87 -0.232136 0.6221 0
M  V30 47830 H 4634.4 -0.0964259 2.04373 0
M  V30 47831 H 4634.41 -2.03487 3.53634 0
M  V30 47832 H 4633.08 -0.997274 4.03766 0
M  V30 47833 H 4631.66 -2.397 2.85654 0
M  V30 47834 N 4633.84 -1.52813 -0.385464 0
M  V30 47835 C 4634.79 -1.77843 -1.47107 0
M  V30 47836 C 4635.76 -0.621812 -1.54022 0
M  V30 47837 O 4636.95 -0.861905 -1.70223 0
M  V30 47838 C 4634.09 -1.95628 -2.84295 0
M  V30 47839 C 4633.2 -3.23326 -2.86504 0
M  V30 47840 C 4632.33 -3.31409 -4.15141 0
M  V30 47841 C 4631.37 -4.53216 -4.11415 0
M  V30 47842 N 4630.51 -4.5856 -5.31664 0
M  V30 47843 H 4635.35 -2.70487 -1.25064 0
M  V30 47844 H 4632.89 -1.34008 -0.606645 0
M  V30 47845 H 4634.84 -2.03925 -3.63965 0
M  V30 47846 H 4633.47 -1.06342 -3.04781 0
M  V30 47847 H 4632.53 -3.24083 -1.99184 0
M  V30 47848 H 4633.84 -4.13055 -2.79619 0
M  V30 47849 H 4632.99 -3.38907 -5.03216 0
M  V30 47850 H 4631.73 -2.3966 -4.24752 0
M  V30 47851 H 4630.74 -4.45839 -3.21727 0
M  V30 47852 H 4631.96 -5.46285 -4.03423 0
M  V30 47853 H 4629.91 -3.69705 -5.41899 0
M  V30 47854 H 4629.82 -5.42166 -5.2687 0
M  V30 47855 H 4631.09 -4.70318 -6.21628 0
M  V30 47856 N 4635.32 0.644118 -1.43836 0
M  V30 47857 C 4636.73 1.22549 -1.40849 0
M  V30 47858 C 4637.08 1.9585 -0.117184 0
M  V30 47859 O 4636.21 2.01737 0.783015 0
M  V30 47860 C 4636.8 2.22898 -2.55151 0
M  V30 47861 C 4635.36 2.76492 -2.554 0
M  V30 47862 C 4634.51 1.51278 -2.32401 0
M  V30 47863 H 4637.46 0.435577 -1.52605 0
M  V30 47864 H 4637.48 3.05251 -2.2716 0
M  V30 47865 H 4636.99 1.69521 -3.49119 0
M  V30 47866 H 4635.09 3.33908 -1.65336 0
M  V30 47867 H 4635.21 3.23417 -3.53466 0
M  V30 47868 H 4633.57 1.7895 -1.81243 0
M  V30 47869 H 4634.35 0.998221 -3.28467 0
M  V30 47870 N 4636.8 1.30518 0.883332 0
M  V30 47871 C 4637.73 1.19614 2.00536 0
M  V30 47872 C 4638.71 0.0864057 1.6988 0
M  V30 47873 O 4639.9 0.268721 1.92332 0
M  V30 47874 C 4637.03 0.888876 3.35732 0
M  V30 47875 C 4635.98 1.95672 3.80653 0
M  V30 47876 C 4635.31 1.50242 5.13158 0
M  V30 47877 C 4636.61 3.36802 3.99201 0
M  V30 47878 H 4638.3 2.13483 2.09918 0
M  V30 47879 H 4635.85 1.02778 1.0086 0
M  V30 47880 H 4637.8 0.79924 4.13751 0
M  V30 47881 H 4636.52 -0.0854978 3.26488 0
M  V30 47882 H 4635.18 2.03602 3.04864 0
M  V30 47883 H 4634.83 0.516268 5.00344 0
M  V30 47884 H 4634.53 2.21669 5.44184 0
M  V30 47885 H 4636.05 1.4266 5.93701 0
M  V30 47886 H 4637.47 3.31621 4.67654 0
M  V30 47887 H 4635.86 4.0633 4.41606 0
M  V30 47888 H 4636.93 3.78572 3.03004 0
M  V30 47889 N 4638.28 -1.09589 1.13261 0
M  V30 47890 C 4639.51 -1.85227 0.915114 0
M  V30 47891 C 4639.92 -1.81347 -0.539435 0
M  V30 47892 O 4639.26 -1.20669 -1.38509 0
M  V30 47893 C 4639.32 -3.3427 1.32302 0
M  V30 47894 C 4638.98 -3.619 2.79065 0
M  V30 47895 C 4639.98 -3.57763 3.77228 0
M  V30 47896 C 4637.67 -3.90298 3.16184 0
M  V30 47897 C 4639.66 -3.81634 5.10524 0
M  V30 47898 C 4637.35 -4.13824 4.49659 0
M  V30 47899 C 4638.35 -4.09483 5.46638 0
M  V30 47900 O 4638.03 -4.32402 6.77705 0
M  V30 47901 H 4637.77 -0.591985 0.326388 0
M  V30 47902 H 4640.32 -1.39394 1.50859 0
M  V30 47903 H 4638.55 -3.80802 0.672801 0
M  V30 47904 H 4640.24 -3.91316 1.07826 0
M  V30 47905 H 4641 -3.35853 3.49897 0
M  V30 47906 H 4636.88 -3.92803 2.41303 0
M  V30 47907 H 4640.43 -3.78161 5.86208 0
M  V30 47908 H 4636.32 -4.35215 4.76716 0
M  V30 47909 H 4637.09 -4.49872 6.83782 0
M  V30 47910 N 4639.76 -0.925856 -1.27537 0
M  V30 47911 C 4640.98 -0.581579 -1.98558 0
M  V30 47912 C 4641.4 0.839981 -1.69085 0
M  V30 47913 O 4640.76 1.55802 -0.950367 0
M  V30 47914 C 4640.81 -0.795713 -3.52634 0
M  V30 47915 O 4640.53 -2.16135 -3.81074 0
M  V30 47916 C 4642.03 -0.459899 -4.40908 0
M  V30 47917 H 4639.25 -0.220561 -0.633714 0
M  V30 47918 H 4641.79 -1.24237 -1.62436 0
M  V30 47919 H 4639.95 -0.181746 -3.86973 0
M  V30 47920 H 4640.36 -2.20997 -4.75668 0
M  V30 47921 H 4641.84 -0.660436 -5.48035 0
M  V30 47922 H 4642.31 0.604472 -4.3502 0
M  V30 47923 H 4642.92 -1.05193 -4.12086 0
M  V30 47924 N 4641.23 1.41636 -0.691159 0
M  V30 47925 C 4642.64 1.84345 -0.295581 0
M  V30 47926 C 4643 1.57837 1.16541 0
M  V30 47927 O 4642.12 1.04655 1.8941 0
M  V30 47928 C 4642.72 3.34634 -0.529693 0
M  V30 47929 C 4641.27 3.7593 -0.188076 0
M  V30 47930 C 4640.42 2.65079 -0.814145 0
M  V30 47931 H 4643.37 1.3125 -0.892138 0
M  V30 47932 H 4643.39 3.79903 0.213015 0
M  V30 47933 H 4642.91 3.53895 -1.5931 0
M  V30 47934 H 4641.01 3.62271 0.87124 0
M  V30 47935 H 4641.12 4.74806 -0.640017 0
M  V30 47936 H 4639.48 2.53528 -0.244106 0
M  V30 47937 H 4640.27 2.8716 -1.88133 0
M  V30 47938 N 4642.71 0.435603 1.5146 0
M  V30 47939 C 4643.94 -0.132554 2.06976 0
M  V30 47940 C 4644.36 -1.35843 1.30109 0
M  V30 47941 O 4643.72 -1.78111 0.338556 0
M  V30 47942 C 4643.77 -0.435104 3.57965 0
M  V30 47943 O 4642.87 -1.52184 3.83293 0
M  V30 47944 H 4642.21 -0.00262665 0.663995 0
M  V30 47945 H 4644.74 0.616437 1.95093 0
M  V30 47946 H 4644.75 -0.686065 4.0219 0
M  V30 47947 H 4643.43 0.460884 4.13338 0
M  V30 47948 H 4642.01 -1.26098 3.50933 0
M  V30 47949 N 4644.19 -1.56714 0.166901 0
M  V30 47950 C 4645.42 -2.01559 -0.488763 0
M  V30 47951 C 4645.84 -1.04635 -1.56311 0
M  V30 47952 O 4645.2 -0.0251942 -1.81282 0
M  V30 47953 C 4645.25 -3.45033 -1.04806 0
M  V30 47954 O 4644.35 -3.51171 -2.16224 0
M  V30 47955 H 4643.69 -0.65352 -0.117503 0
M  V30 47956 H 4646.22 -2.02817 0.269492 0
M  V30 47957 H 4646.23 -3.84248 -1.37177 0
M  V30 47958 H 4644.91 -4.15078 -0.261427 0
M  V30 47959 H 4643.48 -3.23813 -1.8493 0
M  V30 47960 N 4645.67 0.106839 -1.57237 0
M  V30 47961 C 4646.89 0.83022 -1.90058 0
M  V30 47962 C 4647.32 1.72061 -0.760041 0
M  V30 47963 O 4646.68 1.78983 0.288928 0
M  V30 47964 C 4646.72 1.62939 -3.21688 0
M  V30 47965 O 4645.83 2.73737 -3.0845 0
M  V30 47966 H 4645.17 0.228833 -0.623323 0
M  V30 47967 H 4647.7 0.0855861 -2.04421 0
M  V30 47968 H 4647.71 2.01608 -3.54708 0
M  V30 47969 H 4646.38 0.975847 -4.0429 0
M  V30 47970 H 4644.96 2.38181 -2.86922 0
M  V30 47971 N 4647.15 1.53016 0.377354 0
M  V30 47972 C 4648.39 1.68627 1.12122 0
M  V30 47973 C 4648.72 0.432064 1.8964 0
M  V30 47974 O 4647.98 -0.585789 1.86727 0
M  V30 47975 C 4648.28 2.8799 2.11652 0
M  V30 47976 C 4647.94 4.2497 1.50704 0
M  V30 47977 C 4646.6 4.62222 1.33808 0
M  V30 47978 C 4648.96 5.10203 1.06501 0
M  V30 47979 C 4646.28 5.82354 0.712758 0
M  V30 47980 C 4648.64 6.30971 0.453734 0
M  V30 47981 C 4647.3 6.66945 0.272177 0
M  V30 47982 H 4646.57 0.617049 0.410283 0
M  V30 47983 H 4649.22 1.87181 0.404419 0
M  V30 47984 H 4647.52 2.63899 2.89594 0
M  V30 47985 H 4649.22 2.97262 2.69139 0
M  V30 47986 H 4645.81 3.95631 1.64844 0
M  V30 47987 H 4649.99 4.81982 1.18351 0
M  V30 47988 H 4645.25 6.08826 0.560397 0
M  V30 47989 H 4649.42 6.96324 0.102972 0
M  V30 47990 H 4647.05 7.59897 -0.214448 0
M  V30 47991 N 4648.62 -0.636481 1.44176 0
M  V30 47992 C 4649.87 -1.39338 1.46388 0
M  V30 47993 C 4650.19 -1.94765 0.09564 0
M  V30 47994 O 4649.46 -1.75455 -0.871334 0
M  V30 47995 H 4648.04 -0.51718 0.539012 0
M  V30 47996 H 4650.71 -0.749506 1.79912 0
M  V30 47997 H 4649.8 -2.22738 2.18619 0
M  V30 47998 N 4650.1 -1.30985 -0.876398 0
M  V30 47999 C 4651.35 -1.2048 -1.63133 0
M  V30 48000 C 4651.68 0.238029 -1.92736 0
M  V30 48001 O 4650.96 1.16914 -1.55439 0
M  V30 48002 C 4651.24 -2.04255 -2.96567 0
M  V30 48003 C 4651.09 -3.56802 -2.73884 0
M  V30 48004 C 4652.41 -1.88698 -3.97594 0
M  V30 48005 H 4649.53 -0.439022 -0.59197 0
M  V30 48006 H 4652.17 -1.60708 -1.01356 0
M  V30 48007 H 4650.32 -1.70075 -3.49294 0
M  V30 48008 H 4651.99 -4.01085 -2.27878 0
M  V30 48009 H 4650.24 -3.80555 -2.08231 0
M  V30 48010 H 4650.91 -4.10719 -3.688 0
M  V30 48011 H 4653.38 -2.18597 -3.54055 0
M  V30 48012 H 4652.26 -2.49627 -4.88853 0
M  V30 48013 H 4652.52 -0.848496 -4.33881 0
M  V30 48014 N 4651.58 1.08987 -1.13841 0
M  V30 48015 C 4652.81 1.85548 -0.926651 0
M  V30 48016 C 4653.23 1.80784 0.519502 0
M  V30 48017 O 4652.59 1.1886 1.36901 0
M  V30 48018 C 4652.64 3.31261 -1.42474 0
M  V30 48019 O 4651.74 4.0782 -0.612933 0
M  V30 48020 H 4651.08 0.57518 -0.331758 0
M  V30 48021 H 4653.61 1.37599 -1.51419 0
M  V30 48022 H 4653.62 3.82107 -1.43032 0
M  V30 48023 H 4652.3 3.34043 -2.47766 0
M  V30 48024 H 4650.87 3.66729 -0.675592 0
M  V30 48025 N 4653.06 0.932607 1.27044 0
M  V30 48026 C 4654.28 0.591544 1.98785 0
M  V30 48027 C 4654.71 -0.824542 1.69065 0
M  V30 48028 O 4654.07 -1.55406 0.933731 0
M  V30 48029 C 4654.11 0.829931 3.5092 0
M  V30 48030 O 4653.22 -0.102121 4.12274 0
M  V30 48031 H 4652.56 0.227207 0.623918 0
M  V30 48032 H 4655.09 1.2532 1.61728 0
M  V30 48033 H 4655.1 0.747433 4.01095 0
M  V30 48034 H 4653.77 1.86215 3.71883 0
M  V30 48035 H 4652.35 0.0307072 3.72887 0
M  V30 48036 N 4654.54 -1.41267 0.698661 0
M  V30 48037 C 4655.78 -2.03043 0.235133 0
M  V30 48038 C 4656.14 -1.5415 -1.14463 0
M  V30 48039 O 4657.34 -2.07873 -1.70418 0
M  V30 48040 C 4655.61 -3.56191 0.293777 0
M  V30 48041 S 4657.17 -4.38697 -0.095251 0
M  V30 48042 H 4653.99 -0.704693 0.0944896 0
M  V30 48043 H 4656.59 -1.72653 0.917125 0
M  V30 48044 H 4655.3 -3.89269 1.2999 0
M  V30 48045 H 4654.83 -3.91286 -0.40726 0
M  V30 48046 H 4656.84 -4.78262 -1.32213 0
M  V30 48047 N 4656.01 -0.44363 -1.51227 0
M  V30 48048 C 4656.94 0.355061 -2.30785 0
M  V30 48049 C 4657.93 1.01536 -1.36472 0
M  V30 48050 O 4659.11 1.01779 -1.65392 0
M  V30 48051 C 4656.24 1.45301 -3.15444 0
M  V30 48052 C 4655.19 0.915855 -4.18086 0
M  V30 48053 C 4654.52 2.11002 -4.91306 0
M  V30 48054 C 4655.82 -0.0540438 -5.22272 0
M  V30 48055 H 4657.51 -0.308872 -2.97803 0
M  V30 48056 H 4655.06 -0.149988 -1.43217 0
M  V30 48057 H 4657.01 2.01901 -3.69883 0
M  V30 48058 H 4655.74 2.14532 -2.46259 0
M  V30 48059 H 4654.4 0.372017 -3.64708 0
M  V30 48060 H 4654.04 2.78868 -4.18619 0
M  V30 48061 H 4653.74 1.75697 -5.60718 0
M  V30 48062 H 4655.27 2.68145 -5.48571 0
M  V30 48063 H 4656.68 0.421868 -5.71746 0
M  V30 48064 H 4655.08 -0.319986 -5.99246 0
M  V30 48065 H 4656.15 -0.988747 -4.74712 0
M  V30 48066 N 4657.49 1.56623 -0.175209 0
M  V30 48067 C 4658.74 1.96611 0.467816 0
M  V30 48068 C 4659.06 1.06244 1.63515 0
M  V30 48069 O 4658.33 0.129591 1.95471 0
M  V30 48070 H 4656.91 0.726014 0.175819 0
M  V30 48071 H 4659.57 1.93194 -0.257302 0
M  V30 48072 H 4658.67 3.00992 0.825236 0
M  V30 48073 N 4658.97 -0.0984986 1.57292 0
M  V30 48074 C 4660.22 -0.801027 1.85548 0
M  V30 48075 C 4660.54 -1.79435 0.763417 0
M  V30 48076 O 4659.81 -1.94764 -0.210662 0
M  V30 48077 H 4658.39 -0.298816 0.68463 0
M  V30 48078 H 4661.05 -0.080938 1.94732 0
M  V30 48079 H 4660.15 -1.3337 2.82168 0
M  V30 48080 N 4660.45 -1.53214 -0.369234 0
M  V30 48081 C 4661.86 -1.60946 -0.94622 0
M  V30 48082 C 4662.21 -0.474587 -1.90374 0
M  V30 48083 O 4661.34 0.399522 -2.1268 0
M  V30 48084 C 4661.93 -2.91721 -1.72292 0
M  V30 48085 C 4660.49 -3.018 -2.2493 0
M  V30 48086 C 4659.64 -2.56215 -1.06063 0
M  V30 48087 H 4662.59 -1.58007 -0.148142 0
M  V30 48088 H 4662.61 -2.79318 -2.58383 0
M  V30 48089 H 4662.12 -3.74299 -1.02577 0
M  V30 48090 H 4660.22 -2.23802 -2.97898 0
M  V30 48091 H 4660.34 -4.06812 -2.53062 0
M  V30 48092 H 4658.7 -2.11003 -1.42653 0
M  V30 48093 H 4659.48 -3.41207 -0.378519 0
M  V30 48094 N 4661.93 0.628826 -1.44511 0
M  V30 48095 C 4662.86 1.75181 -1.54382 0
M  V30 48096 C 4663.84 1.6541 -0.396676 0
M  V30 48097 O 4665.02 1.84135 -0.617095 0
M  V30 48098 C 4662.15 3.1372 -1.48987 0
M  V30 48099 C 4661.11 3.38282 -2.62201 0
M  V30 48100 C 4660.43 4.76874 -2.41857 0
M  V30 48101 C 4661.73 3.30618 -4.04338 0
M  V30 48102 H 4663.43 1.67178 -2.48379 0
M  V30 48103 H 4660.97 0.802867 -1.19541 0
M  V30 48104 H 4662.93 3.92059 -1.54492 0
M  V30 48105 H 4661.65 3.22513 -0.515074 0
M  V30 48106 H 4660.31 2.62325 -2.56088 0
M  V30 48107 H 4659.96 4.82373 -1.42565 0
M  V30 48108 H 4659.66 4.94266 -3.17765 0
M  V30 48109 H 4661.18 5.5744 -2.49184 0
M  V30 48110 H 4662.6 3.98859 -4.11807 0
M  V30 48111 H 4660.99 3.59544 -4.80466 0
M  V30 48112 H 4662.06 2.28389 -4.27746 0
M  V30 48113 N 4663.41 1.31448 0.869439 0
M  V30 48114 C 4664.32 1.21104 2.00925 0
M  V30 48115 C 4665.33 0.127645 1.73531 0
M  V30 48116 O 4666.51 0.345547 1.98414 0
M  V30 48117 C 4663.57 0.919495 3.34285 0
M  V30 48118 C 4662.63 2.08984 3.74999 0
M  V30 48119 C 4661.87 1.81211 5.01994 0
M  V30 48120 O 4662.09 0.747494 5.65481 0
M  V30 48121 O 4661.02 2.66902 5.39487 0
M  V30 48122 H 4664.85 2.16891 2.12584 0
M  V30 48123 H 4662.43 1.11192 0.997829 0
M  V30 48124 H 4664.32 0.772771 4.14254 0
M  V30 48125 H 4662.99 -0.00833392 3.23699 0
M  V30 48126 H 4661.9 2.29197 2.95668 0
M  V30 48127 H 4663.23 2.99994 3.90211 0
M  V30 48128 N 4664.88 -1.08381 1.14417 0
M  V30 48129 C 4665.83 -2.15308 0.83134 0
M  V30 48130 C 4666.8 -1.64751 -0.211234 0
M  V30 48131 O 4667.99 -1.90628 -0.0811004 0
M  V30 48132 C 4665.13 -3.43657 0.315263 0
M  V30 48133 C 4664.24 -4.08059 1.41817 0
M  V30 48134 C 4663.37 -5.24203 0.85931 0
M  V30 48135 C 4662.41 -5.80547 1.93988 0
M  V30 48136 N 4661.55 -6.88037 1.39817 0
M  V30 48137 H 4666.39 -2.41408 1.74717 0
M  V30 48138 H 4663.93 -1.18471 0.87195 0
M  V30 48139 H 4665.88 -4.172 -0.00216217 0
M  V30 48140 H 4664.51 -3.17841 -0.563668 0
M  V30 48141 H 4663.57 -3.32274 1.85198 0
M  V30 48142 H 4664.88 -4.45954 2.23442 0
M  V30 48143 H 4664.03 -6.04687 0.493803 0
M  V30 48144 H 4662.77 -4.87698 0.0121034 0
M  V30 48145 H 4661.78 -4.98717 2.31433 0
M  V30 48146 H 4663 -6.19111 2.79067 0
M  V30 48147 H 4660.95 -6.53491 0.573149 0
M  V30 48148 H 4660.86 -7.2476 2.1508 0
M  V30 48149 H 4662.13 -7.72251 1.06058 0
M  V30 48150 N 4666.36 -0.939331 -1.26548 0
M  V30 48151 C 4667.61 -0.584758 -1.93455 0
M  V30 48152 C 4667.93 0.878713 -1.74079 0
M  V30 48153 O 4667.2 1.62417 -1.09533 0
M  V30 48154 H 4665.78 -0.213276 -0.715907 0
M  V30 48155 H 4668.44 -1.19425 -1.54025 0
M  V30 48156 H 4667.54 -0.800955 -3.01647 0
M  V30 48157 N 4667.84 1.40895 -0.706143 0
M  V30 48158 C 4669.09 2.00283 -0.238645 0
M  V30 48159 C 4669.4 1.56608 1.17189 0
M  V30 48160 O 4670.61 2.0863 1.73741 0
M  V30 48161 C 4669.06 3.57933 -0.375749 0
M  V30 48162 C 4668.67 4.10585 -1.79232 0
M  V30 48163 C 4670.42 4.24488 0.0314365 0
M  V30 48164 C 4668.32 5.60706 -1.88051 0
M  V30 48165 H 4667.25 0.749141 -0.0854661 0
M  V30 48166 H 4669.9 1.61248 -0.875869 0
M  V30 48167 H 4668.29 3.94623 0.329903 0
M  V30 48168 H 4669.46 3.85292 -2.52758 0
M  V30 48169 H 4667.77 3.56593 -2.15012 0
M  V30 48170 H 4670.37 5.34698 -0.0138722 0
M  V30 48171 H 4670.71 4.02265 1.07186 0
M  V30 48172 H 4671.25 3.9287 -0.624319 0
M  V30 48173 H 4667.99 5.87771 -2.90182 0
M  V30 48174 H 4667.51 5.87892 -1.18923 0
M  V30 48175 H 4669.19 6.25653 -1.64827 0
M  V30 48176 N 4669.32 0.451643 1.5099 0
M  V30 48177 C 4670.55 -0.108104 2.06317 0
M  V30 48178 C 4670.96 -1.3577 1.31769 0
M  V30 48179 O 4670.3 -1.79837 0.374757 0
M  V30 48180 C 4670.36 -0.481534 3.5626 0
M  V30 48181 C 4670.02 0.663273 4.52161 0
M  V30 48182 C 4671.02 1.53964 4.96579 0
M  V30 48183 C 4668.71 0.848074 4.95089 0
M  V30 48184 C 4670.7 2.58539 5.82612 0
M  V30 48185 C 4668.39 1.89707 5.80908 0
M  V30 48186 C 4669.39 2.7641 6.24569 0
M  V30 48187 O 4669.07 3.79507 7.08682 0
M  V30 48188 H 4668.81 -0.00496807 0.675982 0
M  V30 48189 H 4671.36 0.633727 1.95379 0
M  V30 48190 H 4669.59 -1.27628 3.65032 0
M  V30 48191 H 4671.28 -0.974095 3.94038 0
M  V30 48192 H 4672.04 1.40847 4.64098 0
M  V30 48193 H 4667.92 0.182742 4.60638 0
M  V30 48194 H 4671.47 3.26245 6.16612 0
M  V30 48195 H 4667.36 2.02839 6.12802 0
M  V30 48196 H 4668.13 3.7626 7.26891 0
M  V30 48197 N 4670.8 -1.56528 0.183513 0
M  V30 48198 C 4672.04 -1.97246 -0.458288 0
M  V30 48199 C 4672.37 -1.06998 -1.62425 0
M  V30 48200 O 4671.63 -0.10661 -1.95409 0
M  V30 48201 C 4671.92 -3.43942 -0.971516 0
M  V30 48202 C 4671.59 -4.50829 0.0798369 0
M  V30 48203 C 4670.25 -4.79785 0.368752 0
M  V30 48204 C 4672.6 -5.15135 0.792819 0
M  V30 48205 C 4669.93 -5.7034 1.37583 0
M  V30 48206 C 4672.28 -6.06777 1.78896 0
M  V30 48207 C 4670.95 -6.34094 2.0852 0
M  V30 48208 H 4670.22 -0.721774 -0.167699 0
M  V30 48209 H 4672.87 -1.89471 0.278043 0
M  V30 48210 H 4671.17 -3.4873 -1.7859 0
M  V30 48211 H 4672.87 -3.72796 -1.4773 0
M  V30 48212 H 4669.46 -4.28318 -0.155517 0
M  V30 48213 H 4673.64 -4.92866 0.582832 0
M  V30 48214 H 4668.9 -5.89783 1.61138 0
M  V30 48215 H 4673.07 -6.55669 2.34673 0
M  V30 48216 H 4670.7 -7.04064 2.86702 0
M  V30 48217 N 4672.27 0.0901557 -1.57342 0
M  V30 48218 C 4673.5 0.810015 -1.90928 0
M  V30 48219 C 4673.92 1.71245 -0.778247 0
M  V30 48220 O 4673.28 1.79279 0.269928 0
M  V30 48221 C 4673.33 1.59518 -3.23398 0
M  V30 48222 O 4672.43 2.7045 -3.11336 0
M  V30 48223 H 4671.78 0.222209 -0.625715 0
M  V30 48224 H 4674.31 0.0638997 -2.045 0
M  V30 48225 H 4674.32 1.97835 -3.56827 0
M  V30 48226 H 4672.99 0.932912 -4.05302 0
M  V30 48227 H 4671.57 2.35125 -2.89432 0
M  V30 48228 N 4673.75 1.53407 0.361103 0
M  V30 48229 C 4674.66 1.83127 1.46634 0
M  V30 48230 C 4675.68 0.719999 1.58405 0
M  V30 48231 O 4676.85 1.01052 1.74214 0
M  V30 48232 C 4673.92 2.01901 2.81846 0
M  V30 48233 C 4672.98 3.25794 2.79565 0
M  V30 48234 C 4672.21 3.43662 4.08328 0
M  V30 48235 O 4672.44 2.65731 5.04721 0
M  V30 48236 O 4671.37 4.37033 4.13867 0
M  V30 48237 H 4675.2 2.77034 1.24441 0
M  V30 48238 H 4672.78 1.38843 0.55163 0
M  V30 48239 H 4674.66 2.15795 3.61954 0
M  V30 48240 H 4673.34 1.11183 3.04007 0
M  V30 48241 H 4672.25 3.17319 1.9814 0
M  V30 48242 H 4673.58 4.16448 2.62358 0
M  V30 48243 N 4675.23 -0.621153 1.44843 0
M  V30 48244 C 4676.14 -1.76115 1.54986 0
M  V30 48245 C 4677.16 -1.68475 0.434987 0
M  V30 48246 O 4678.33 -1.89074 0.693759 0
M  V30 48247 C 4675.4 -3.12535 1.50075 0
M  V30 48248 C 4674.46 -3.31731 2.72494 0
M  V30 48249 C 4673.69 -4.61643 2.67808 0
M  V30 48250 O 4673.91 -5.43094 1.74371 0
M  V30 48251 O 4672.85 -4.83258 3.58811 0
M  V30 48252 H 4676.67 -1.70509 2.51317 0
M  V30 48253 H 4674.26 -0.783598 1.27201 0
M  V30 48254 H 4676.14 -3.93839 1.49896 0
M  V30 48255 H 4674.82 -3.18661 0.568918 0
M  V30 48256 H 4673.72 -2.50067 2.78239 0
M  V30 48257 H 4675.06 -3.30473 3.64758 0
M  V30 48258 N 4676.71 -1.31907 -0.862456 0
M  V30 48259 C 4677.96 -1.21781 -1.61288 0
M  V30 48260 C 4678.28 0.222344 -1.93728 0
M  V30 48261 O 4677.55 1.14505 -1.58951 0
M  V30 48262 H 4676.13 -0.447738 -0.597946 0
M  V30 48263 H 4678.79 -1.6533 -1.03209 0
M  V30 48264 H 4677.89 -1.79489 -2.55323 0
M  V30 48265 N 4678.19 1.07773 -1.1499 0
M  V30 48266 C 4679.43 1.7993 -0.920298 0
M  V30 48267 C 4679.76 1.86957 0.554271 0
M  V30 48268 O 4679.03 1.36735 1.40286 0
M  V30 48269 H 4677.61 0.666412 -0.337497 0
M  V30 48270 H 4680.27 1.30265 -1.44973 0
M  V30 48271 H 4679.36 2.82534 -1.32593 0
M  V30 48272 N 4679.66 0.946029 1.26048 0
M  V30 48273 C 4680.61 0.430243 2.23904 0
M  V30 48274 C 4681.6 -0.475736 1.53706 0
M  V30 48275 O 4682.79 -0.310191 1.74261 0
M  V30 48276 C 4679.92 -0.298837 3.41997 0
M  V30 48277 C 4679.01 0.624714 4.19474 0
M  V30 48278 N 4679.4 1.75262 4.74465 0
M  V30 48279 C 4677.69 0.431238 4.4391 0
M  V30 48280 C 4678.4 2.32853 5.33061 0
M  V30 48281 N 4677.37 1.61601 5.19024 0
M  V30 48282 H 4681.17 1.29116 2.64019 0
M  V30 48283 H 4678.69 0.802478 1.41188 0
M  V30 48284 H 4680.68 -0.68542 4.11227 0
M  V30 48285 H 4679.34 -1.15646 3.03407 0
M  V30 48286 H 4680.36 2.13466 4.71861 0
M  V30 48287 H 4677.03 -0.384218 4.15728 0
M  V30 48288 H 4678.42 3.27913 5.86449 0
M  V30 48289 N 4681.14 -1.40518 0.713605 0
M  V30 48290 C 4682.39 -2.0122 0.252634 0
M  V30 48291 C 4682.72 -1.56448 -1.15055 0
M  V30 48292 O 4682 -0.78366 -1.78014 0
M  V30 48293 C 4682.28 -3.58581 0.330458 0
M  V30 48294 C 4682.13 -4.1343 1.77187 0
M  V30 48295 C 4683.45 -4.3908 -0.299487 0
M  V30 48296 H 4680.57 -0.731074 0.0932728 0
M  V30 48297 H 4683.21 -1.67022 0.905731 0
M  V30 48298 H 4681.36 -3.87844 -0.225601 0
M  V30 48299 H 4683.03 -3.94972 2.38316 0
M  V30 48300 H 4681.28 -3.67793 2.30023 0
M  V30 48301 H 4681.95 -5.2259 1.77773 0
M  V30 48302 H 4684.42 -4.15735 0.174285 0
M  V30 48303 H 4683.3 -5.4848 -0.214578 0
M  V30 48304 H 4683.56 -4.1992 -1.38273 0
M  V30 48305 N 4682.62 -0.459644 -1.50748 0
M  V30 48306 C 4683.87 0.0994254 -2.02556 0
M  V30 48307 C 4684.2 1.40395 -1.34175 0
M  V30 48308 O 4683.47 1.8889 -0.463749 0
M  V30 48309 C 4683.76 0.295116 -3.58889 0
M  V30 48310 C 4683.61 -1.02962 -4.37857 0
M  V30 48311 C 4684.93 1.05487 -4.27271 0
M  V30 48312 H 4682.05 0.0346601 -0.736185 0
M  V30 48313 H 4684.69 -0.603002 -1.80177 0
M  V30 48314 H 4682.84 0.89343 -3.78087 0
M  V30 48315 H 4684.51 -1.66363 -4.30257 0
M  V30 48316 H 4682.76 -1.62899 -4.02053 0
M  V30 48317 H 4683.43 -0.846473 -5.45471 0
M  V30 48318 H 4685.9 0.547848 -4.12478 0
M  V30 48319 H 4684.78 1.16058 -5.3649 0
M  V30 48320 H 4685.04 2.08861 -3.89653 0
M  V30 48321 N 4684.1 1.56428 -0.191812 0
M  V30 48322 C 4685.03 2.21939 0.725618 0
M  V30 48323 C 4686.01 1.18144 1.22376 0
M  V30 48324 O 4687.19 1.4664 1.27319 0
M  V30 48325 C 4684.32 2.87618 1.94662 0
M  V30 48326 C 4683.28 3.97629 1.58352 0
M  V30 48327 C 4682.6 4.50456 2.88086 0
M  V30 48328 C 4683.9 5.16199 0.795952 0
M  V30 48329 H 4685.6 2.98861 0.179501 0
M  V30 48330 H 4683.14 1.4375 0.0848959 0
M  V30 48331 H 4685.1 3.32129 2.59362 0
M  V30 48332 H 4683.82 2.08096 2.51721 0
M  V30 48333 H 4682.48 3.53804 0.960123 0
M  V30 48334 H 4682.13 3.677 3.43228 0
M  V30 48335 H 4681.83 5.24684 2.64538 0
M  V30 48336 H 4683.35 4.97666 3.5378 0
M  V30 48337 H 4684.77 5.57276 1.34598 0
M  V30 48338 H 4683.16 5.96474 0.658718 0
M  V30 48339 H 4684.23 4.84472 -0.203648 0
M  V30 48340 N 4685.58 -0.0818102 1.57388 0
M  V30 48341 C 4686.54 -1.08258 2.02022 0
M  V30 48342 C 4687.54 -1.32179 0.91571 0
M  V30 48343 O 4688.73 -1.28068 1.18085 0
M  V30 48344 C 4685.86 -2.42862 2.39229 0
M  V30 48345 H 4687.05 -0.698102 2.91662 0
M  V30 48346 H 4684.61 -0.327249 1.52836 0
M  V30 48347 H 4685.34 -2.86161 1.52585 0
M  V30 48348 H 4685.13 -2.26844 3.19819 0
M  V30 48349 H 4686.62 -3.14816 2.74373 0
M  V30 48350 N 4687.06 -1.53597 -0.352963 0
M  V30 48351 C 4688.01 -1.77304 -1.43343 0
M  V30 48352 C 4688.99 -0.627936 -1.48141 0
M  V30 48353 O 4690.18 -0.887023 -1.53169 0
M  V30 48354 C 4687.31 -1.97767 -2.80612 0
M  V30 48355 C 4686.4 -3.18315 -2.80243 0
M  V30 48356 N 4686.79 -4.39975 -2.4951 0
M  V30 48357 C 4685.09 -3.19294 -3.11396 0
M  V30 48358 C 4685.79 -5.21781 -2.57137 0
M  V30 48359 N 4684.76 -4.58279 -2.92372 0
M  V30 48360 H 4688.56 -2.68967 -1.18464 0
M  V30 48361 H 4686.08 -1.52393 -0.561253 0
M  V30 48362 H 4688.08 -2.12882 -3.5845 0
M  V30 48363 H 4686.74 -1.0734 -3.06445 0
M  V30 48364 H 4687.75 -4.67489 -2.22877 0
M  V30 48365 H 4684.42 -2.38802 -3.42461 0
M  V30 48366 H 4685.81 -6.28858 -2.36616 0
M  V30 48367 N 4688.53 0.613463 -1.4517 0
M  V30 48368 C 4689.76 1.40431 -1.52623 0
M  V30 48369 C 4690.18 1.87437 -0.157773 0
M  V30 48370 O 4689.54 1.59794 0.856481 0
M  V30 48371 C 4689.59 2.58885 -2.5102 0
M  V30 48372 O 4688.69 3.59319 -2.02394 0
M  V30 48373 H 4688.03 0.419488 -0.514709 0
M  V30 48374 H 4690.56 0.747148 -1.9047 0
M  V30 48375 H 4690.57 3.06205 -2.69634 0
M  V30 48376 H 4689.25 2.2402 -3.50411 0
M  V30 48377 H 4687.83 3.18688 -1.93629 0
M  V30 48378 N 4690.01 1.32363 0.855449 0
M  V30 48379 C 4691.26 1.2306 1.61196 0
M  V30 48380 C 4691.59 -0.207336 1.9309 0
M  V30 48381 O 4690.87 -1.14426 1.5728 0
M  V30 48382 C 4691.15 2.08947 2.9328 0
M  V30 48383 C 4691 3.61114 2.68173 0
M  V30 48384 C 4692.32 1.95 3.94542 0
M  V30 48385 H 4689.44 0.448384 0.584911 0
M  V30 48386 H 4692.08 1.623 0.987859 0
M  V30 48387 H 4690.23 1.75611 3.46544 0
M  V30 48388 H 4691.9 4.0466 2.21468 0
M  V30 48389 H 4690.15 3.8382 2.02151 0
M  V30 48390 H 4690.82 4.16535 3.62219 0
M  V30 48391 H 4693.29 2.24202 3.50532 0
M  V30 48392 H 4692.17 2.57373 4.8482 0
M  V30 48393 H 4692.43 0.917415 4.32476 0
M  V30 48394 N 4691.49 -1.07162 1.1556 0
M  V30 48395 C 4692.42 -2.164 0.877122 0
M  V30 48396 C 4693.4 -1.69217 -0.173052 0
M  V30 48397 O 4694.59 -1.94181 -0.0270157 0
M  V30 48398 C 4691.72 -3.45347 0.367754 0
M  V30 48399 C 4690.67 -4.05991 1.35483 0
M  V30 48400 C 4690 -5.30042 0.704224 0
M  V30 48401 C 4691.3 -4.45795 2.72148 0
M  V30 48402 H 4692.99 -2.39953 1.79062 0
M  V30 48403 H 4690.54 -1.15322 0.862372 0
M  V30 48404 H 4692.49 -4.21094 0.160465 0
M  V30 48405 H 4691.21 -3.21387 -0.581213 0
M  V30 48406 H 4689.87 -3.3229 1.54851 0
M  V30 48407 H 4689.52 -5.02374 -0.250952 0
M  V30 48408 H 4689.22 -5.71574 1.36297 0
M  V30 48409 H 4690.74 -6.08494 0.506753 0
M  V30 48410 H 4692.16 -5.12662 2.56613 0
M  V30 48411 H 4690.55 -4.98284 3.34415 0
M  V30 48412 H 4691.62 -3.57072 3.28067 0
M  V30 48413 N 4692.97 -0.9527 -1.25544 0
M  V30 48414 C 4693.9 -0.489367 -2.28314 0
M  V30 48415 C 4694.88 0.463302 -1.63669 0
M  V30 48416 O 4696.06 0.362673 -1.90783 0
M  V30 48417 C 4693.19 0.235481 -3.46501 0
M  V30 48418 C 4692.15 -0.631742 -4.23312 0
M  V30 48419 C 4691.47 0.223735 -5.34232 0
M  V30 48420 C 4692.77 -1.90888 -4.86168 0
M  V30 48421 H 4694.47 -1.34831 -2.67322 0
M  V30 48422 H 4692.01 -0.649773 -1.28507 0
M  V30 48423 H 4693.97 0.570735 -4.17517 0
M  V30 48424 H 4692.69 1.12866 -3.06478 0
M  V30 48425 H 4691.35 -0.950053 -3.54076 0
M  V30 48426 H 4691 1.11661 -4.9045 0
M  V30 48427 H 4690.7 -0.353197 -5.86538 0
M  V30 48428 H 4692.22 0.554 -6.08082 0
M  V30 48429 H 4693.64 -1.64016 -5.49338 0
M  V30 48430 H 4692.03 -2.43131 -5.48641 0
M  V30 48431 H 4693.1 -2.61318 -4.08461 0
M  V30 48432 N 4694.45 1.40138 -0.721047 0
M  V30 48433 C 4695.69 2.00389 -0.262393 0
M  V30 48434 C 4696.01 1.57474 1.15009 0
M  V30 48435 O 4695.28 0.816645 1.78067 0
M  V30 48436 H 4693.86 0.741059 -0.0940221 0
M  V30 48437 H 4696.53 1.71395 -0.927896 0
M  V30 48438 H 4695.62 3.10657 -0.29978 0
M  V30 48439 N 4695.92 0.467632 1.50502 0
M  V30 48440 C 4697.33 0.0116822 1.86696 0
M  V30 48441 C 4697.69 -1.39198 1.3827 0
M  V30 48442 O 4696.81 -2.03127 0.746204 0
M  V30 48443 C 4697.41 0.0144235 3.38797 0
M  V30 48444 C 4695.96 -0.386044 3.74415 0
M  V30 48445 C 4695.11 0.401383 2.7438 0
M  V30 48446 H 4698.06 0.682073 1.43295 0
M  V30 48447 H 4698.08 -0.788511 3.7224 0
M  V30 48448 H 4697.6 1.03615 3.74013 0
M  V30 48449 H 4695.7 -1.41225 3.44799 0
M  V30 48450 H 4695.81 -0.0897912 4.79016 0
M  V30 48451 H 4694.17 -0.144446 2.5429 0
M  V30 48452 H 4694.96 1.42255 3.12439 0
M  V30 48453 N 4697.4 -1.56324 0.200105 0
M  V30 48454 C 4698.31 -2.22934 -0.73059 0
M  V30 48455 C 4699.33 -1.23001 -1.23072 0
M  V30 48456 O 4700.5 -1.55753 -1.27683 0
M  V30 48457 C 4697.57 -2.87955 -1.93088 0
M  V30 48458 C 4696.63 -4.03172 -1.47483 0
M  V30 48459 C 4695.86 -4.65082 -2.61791 0
M  V30 48460 O 4696.09 -4.25926 -3.79398 0
M  V30 48461 O 4695.02 -5.5446 -2.34217 0
M  V30 48462 H 4698.85 -3.03084 -0.193285 0
M  V30 48463 H 4696.43 -1.49371 -0.0294096 0
M  V30 48464 H 4698.31 -3.29072 -2.63229 0
M  V30 48465 H 4696.99 -2.1078 -2.45669 0
M  V30 48466 H 4695.89 -3.66666 -0.742072 0
M  V30 48467 H 4697.23 -4.82025 -0.995627 0
M  V30 48468 N 4698.88 0.0734624 -1.57429 0
M  V30 48469 C 4700.13 0.772934 -1.87168 0
M  V30 48470 C 4700.45 1.77662 -0.791613 0
M  V30 48471 O 4699.71 1.94542 0.212567 0
M  V30 48472 C 4700.01 1.51788 -3.23566 0
M  V30 48473 C 4699.67 0.654327 -4.46127 0
M  V30 48474 C 4698.34 0.416343 -4.79395 0
M  V30 48475 C 4700.69 0.055403 -5.21171 0
M  V30 48476 C 4698.02 -0.430075 -5.85122 0
M  V30 48477 C 4700.37 -0.77846 -6.27792 0
M  V30 48478 C 4699.03 -1.02633 -6.59562 0
M  V30 48479 H 4698.3 0.282836 -0.684897 0
M  V30 48480 H 4700.95 0.0337599 -1.9147 0
M  V30 48481 H 4699.25 2.32921 -3.15048 0
M  V30 48482 H 4700.95 2.06385 -3.43811 0
M  V30 48483 H 4697.54 0.849943 -4.20088 0
M  V30 48484 H 4701.73 0.226384 -4.95783 0
M  V30 48485 H 4696.98 -0.630879 -6.08136 0
M  V30 48486 H 4701.16 -1.2493 -6.85103 0
M  V30 48487 H 4698.78 -1.68397 -7.41314 0
M  V30 48488 N 4700.36 1.53782 0.344812 0
M  V30 48489 C 4701.3 1.81681 1.4234 0
M  V30 48490 C 4702.27 0.662429 1.52319 0
M  V30 48491 O 4703.46 0.906734 1.67878 0
M  V30 48492 C 4700.6 2.03097 2.79008 0
M  V30 48493 C 4699.71 3.30808 2.77831 0
M  V30 48494 C 4698.85 3.42299 4.06208 0
M  V30 48495 C 4697.89 4.63964 3.99254 0
M  V30 48496 N 4697.02 4.72495 5.19319 0
M  V30 48497 H 4701.86 2.73707 1.17848 0
M  V30 48498 H 4699.4 1.3557 0.570901 0
M  V30 48499 H 4701.36 2.13503 3.5843 0
M  V30 48500 H 4699.99 1.14385 3.01854 0
M  V30 48501 H 4699.04 3.2925 1.90521 0
M  V30 48502 H 4700.35 4.20324 2.68569 0
M  V30 48503 H 4699.51 3.5213 4.94054 0
M  V30 48504 H 4698.25 2.50837 4.18249 0
M  V30 48505 H 4697.25 4.54212 3.09793 0
M  V30 48506 H 4698.48 5.56789 3.88797 0
M  V30 48507 H 4696.42 3.83942 5.31906 0
M  V30 48508 H 4696.34 5.55945 5.1231 0
M  V30 48509 H 4697.61 4.86634 6.0894 0
M  V30 48510 N 4701.84 -0.605756 1.45494 0
M  V30 48511 C 4702.77 -1.72703 1.57149 0
M  V30 48512 C 4703.75 -1.64758 0.422942 0
M  V30 48513 O 4704.93 -1.8313 0.646312 0
M  V30 48514 C 4702.06 -3.1131 1.53959 0
M  V30 48515 C 4701.02 -3.34068 2.67549 0
M  V30 48516 C 4700.34 -4.72966 2.49414 0
M  V30 48517 C 4701.64 -3.24143 4.09547 0
M  V30 48518 H 4703.34 -1.63205 2.51007 0
M  V30 48519 H 4700.88 -0.783747 1.20803 0
M  V30 48520 H 4702.84 -3.89551 1.6071 0
M  V30 48521 H 4701.56 -3.21653 0.566318 0
M  V30 48522 H 4700.22 -2.58217 2.60229 0
M  V30 48523 H 4699.87 -4.80044 1.50221 0
M  V30 48524 H 4699.57 -4.89149 3.25588 0
M  V30 48525 H 4701.09 -5.53405 2.58021 0
M  V30 48526 H 4702.5 -3.92257 4.181 0
M  V30 48527 H 4700.9 -3.51855 4.86126 0
M  V30 48528 H 4701.97 -2.21555 4.31325 0
M  V30 48529 N 4703.31 -1.32814 -0.848417 0
M  V30 48530 C 4704.56 -1.23913 -1.60541 0
M  V30 48531 C 4704.89 0.197093 -1.93197 0
M  V30 48532 O 4704.17 1.13591 -1.57884 0
M  V30 48533 C 4704.45 -2.10499 -2.92168 0
M  V30 48534 C 4704.3 -3.62531 -2.66254 0
M  V30 48535 C 4705.62 -1.97089 -3.93502 0
M  V30 48536 H 4702.74 -0.45148 -0.582525 0
M  V30 48537 H 4705.38 -1.62822 -0.979238 0
M  V30 48538 H 4703.53 -1.77446 -3.45608 0
M  V30 48539 H 4705.21 -4.05828 -2.19319 0
M  V30 48540 H 4703.45 -3.84886 -2.00112 0
M  V30 48541 H 4704.12 -4.1845 -3.60005 0
M  V30 48542 H 4706.6 -2.26057 -3.49338 0
M  V30 48543 H 4705.47 -2.5994 -4.83448 0
M  V30 48544 H 4705.73 -0.940337 -4.31984 0
M  V30 48545 N 4704.79 1.06547 -1.16127 0
M  V30 48546 C 4706.04 1.79298 -0.941189 0
M  V30 48547 C 4706.37 1.87107 0.531169 0
M  V30 48548 O 4705.62 1.35697 1.41013 0
M  V30 48549 C 4705.92 3.23905 -1.51063 0
M  V30 48550 C 4705.59 3.36182 -3.00487 0
M  V30 48551 C 4704.25 3.3924 -3.41277 0
M  V30 48552 C 4706.6 3.38313 -3.96477 0
M  V30 48553 C 4703.93 3.42041 -4.76681 0
M  V30 48554 C 4706.28 3.42651 -5.31764 0
M  V30 48555 C 4704.95 3.4399 -5.72038 0
M  V30 48556 H 4704.22 0.656099 -0.344406 0
M  V30 48557 H 4706.86 1.2532 -1.448 0
M  V30 48558 H 4705.17 3.8072 -0.925196 0
M  V30 48559 H 4706.86 3.78789 -1.31606 0
M  V30 48560 H 4703.45 3.34506 -2.67962 0
M  V30 48561 H 4707.64 3.35164 -3.66031 0
M  V30 48562 H 4702.89 3.4138 -5.07218 0
M  V30 48563 H 4707.07 3.43247 -6.05933 0
M  V30 48564 H 4704.7 3.45913 -6.7694 0
M  V30 48565 N 4706.27 0.959345 1.25037 0
M  V30 48566 C 4707.5 0.633576 1.97486 0
M  V30 48567 C 4707.92 -0.788495 1.70776 0
M  V30 48568 O 4707.28 -1.53391 0.966485 0
M  V30 48569 C 4707.33 0.90418 3.4908 0
M  V30 48570 O 4706.43 -0.0146489 4.12397 0
M  V30 48571 H 4705.77 0.24039 0.618958 0
M  V30 48572 H 4708.3 1.28722 1.59034 0
M  V30 48573 H 4708.31 0.832343 3.9942 0
M  V30 48574 H 4706.99 1.94061 3.67849 0
M  V30 48575 H 4705.56 0.109795 3.72738 0
M  V30 48576 N 4707.75 -1.39754 0.728469 0
M  V30 48577 C 4709 -1.99878 0.270478 0
M  V30 48578 C 4709.31 -1.58453 -1.14682 0
M  V30 48579 O 4710.52 -2.11368 -1.704 0
M  V30 48580 C 4708.97 -3.5729 0.432646 0
M  V30 48581 C 4708.58 -4.07681 1.85741 0
M  V30 48582 C 4710.32 -4.24485 0.0360999 0
M  V30 48583 C 4708.23 -5.57643 1.96948 0
M  V30 48584 H 4707.16 -0.747686 0.0973735 0
M  V30 48585 H 4709.81 -1.59834 0.901412 0
M  V30 48586 H 4708.19 -3.95098 -0.26708 0
M  V30 48587 H 4709.37 -3.81222 2.58856 0
M  V30 48588 H 4707.68 -3.53127 2.20658 0
M  V30 48589 H 4710.28 -5.34608 0.0989363 0
M  V30 48590 H 4710.62 -4.03919 -1.00773 0
M  V30 48591 H 4711.16 -3.91827 0.686742 0
M  V30 48592 H 4707.9 -5.8308 2.99496 0
M  V30 48593 H 4707.42 -5.85926 1.28261 0
M  V30 48594 H 4709.09 -6.22951 1.74759 0
M  V30 48595 N 4709.23 -0.475607 -1.50252 0
M  V30 48596 C 4710.64 -0.130026 -1.59069 0
M  V30 48597 C 4710.84 1.3638 -1.48333 0
M  V30 48598 O 4709.9 2.1375 -1.34415 0
M  V30 48599 C 4711.21 -0.684242 -2.92812 0
M  V30 48600 C 4712.76 -0.648072 -3.06217 0
M  V30 48601 C 4713.23 -1.17991 -4.42541 0
M  V30 48602 N 4714.73 -1.13951 -4.48965 0
M  V30 48603 C 4715.46 -1.52148 -5.52846 0
M  V30 48604 N 4714.96 -1.97816 -6.63958 0
M  V30 48605 N 4716.75 -1.43723 -5.43415 0
M  V30 48606 H 4708.9 -1.44712 -1.55474 0
M  V30 48607 H 4711.16 -0.598717 -0.735012 0
M  V30 48608 H 4710.87 -1.7309 -3.06158 0
M  V30 48609 H 4710.74 -0.130336 -3.76975 0
M  V30 48610 H 4713.13 0.389687 -2.92516 0
M  V30 48611 H 4713.21 -1.23883 -2.238 0
M  V30 48612 H 4712.86 -2.21632 -4.56992 0
M  V30 48613 H 4712.79 -0.565322 -5.23557 0
M  V30 48614 H 4715.28 -0.804617 -3.69235 0
M  V30 48615 H 4715.59 -2.25098 -7.39291 0
M  V30 48616 H 4713.93 -2.01772 -6.65066 0
M  V30 48617 H 4717.13 -1.07883 -4.55498 0
M  V30 48618 H 4717.3 -1.73816 -6.24253 0
M  V30 48619 N 4710.7 1.56216 -0.208392 0
M  V30 48620 C 4712.12 1.84244 0.301839 0
M  V30 48621 C 4712.47 1.12945 1.6043 0
M  V30 48622 O 4711.59 0.394685 2.1277 0
M  V30 48623 C 4712.19 3.34233 0.554425 0
M  V30 48624 C 4710.75 3.62624 1.00899 0
M  V30 48625 C 4709.89 2.77224 0.0648356 0
M  V30 48626 H 4712.84 1.5271 -0.431887 0
M  V30 48627 H 4712.86 3.53725 1.4021 0
M  V30 48628 H 4712.38 3.86098 -0.393697 0
M  V30 48629 H 4710.48 3.16204 1.97093 0
M  V30 48630 H 4710.59 4.70713 0.892508 0
M  V30 48631 H 4708.95 2.48258 0.569203 0
M  V30 48632 H 4709.74 3.31883 -0.877968 0
M  V30 48633 N 4712.18 -0.0651125 1.57465 0
M  V30 48634 C 4713.6 -0.420051 1.53973 0
M  V30 48635 C 4713.8 -1.78779 0.929537 0
M  V30 48636 O 4712.85 -2.46769 0.534926 0
M  V30 48637 C 4714.17 -0.354979 2.98597 0
M  V30 48638 C 4715.72 -0.434683 3.09967 0
M  V30 48639 C 4716.19 -0.399449 4.56255 0
M  V30 48640 N 4717.68 -0.459326 4.60917 0
M  V30 48641 C 4718.42 -0.454383 5.71597 0
M  V30 48642 N 4717.91 -0.403859 6.91622 0
M  V30 48643 N 4719.71 -0.501439 5.59859 0
M  V30 48644 H 4711.86 0.830397 1.95495 0
M  V30 48645 H 4714.12 0.312276 0.895091 0
M  V30 48646 H 4713.83 0.583479 3.46826 0
M  V30 48647 H 4713.7 -1.16263 3.58835 0
M  V30 48648 H 4716.09 -1.36357 2.61708 0
M  V30 48649 H 4716.17 0.401659 2.52627 0
M  V30 48650 H 4715.81 0.525613 5.05173 0
M  V30 48651 H 4715.74 -1.25341 5.11466 0
M  V30 48652 H 4718.23 -0.502351 3.74546 0
M  V30 48653 H 4718.55 -0.404197 7.71742 0
M  V30 48654 H 4716.89 -0.370446 6.94012 0
M  V30 48655 H 4720.08 -0.538649 4.64991 0
M  V30 48656 H 4720.25 -0.494118 6.46113 0
M  V30 48657 N 4713.66 -1.53962 -0.336652 0
M  V30 48658 C 4714.89 -1.75801 -1.1004 0
M  V30 48659 C 4715.31 -0.499049 -1.81359 0
M  V30 48660 O 4714.67 0.548708 -1.72797 0
M  V30 48661 C 4714.72 -2.94264 -2.08425 0
M  V30 48662 O 4713.82 -2.64894 -3.16077 0
M  V30 48663 H 4713.16 -0.582947 -0.317913 0
M  V30 48664 H 4715.69 -2.00946 -0.384939 0
M  V30 48665 H 4715.7 -3.21246 -2.51526 0
M  V30 48666 H 4714.38 -3.85569 -1.55914 0
M  V30 48667 H 4712.95 -2.48822 -2.77745 0
M  V30 48668 N 4715.14 0.598031 -1.45813 0
M  V30 48669 C 4716.07 1.71867 -1.58063 0
M  V30 48670 C 4717.05 1.64531 -0.431673 0
M  V30 48671 O 4718.23 1.82784 -0.656014 0
M  V30 48672 C 4715.36 3.10489 -1.55608 0
M  V30 48673 C 4714.32 3.32644 -2.69317 0
M  V30 48674 C 4713.64 4.71637 -2.51918 0
M  V30 48675 C 4714.94 3.21967 -4.1126 0
M  V30 48676 H 4716.64 1.61872 -2.51869 0
M  V30 48677 H 4714.18 0.77733 -1.21217 0
M  V30 48678 H 4716.14 3.88694 -1.62773 0
M  V30 48679 H 4714.86 3.21348 -0.583368 0
M  V30 48680 H 4713.52 2.56834 -2.61595 0
M  V30 48681 H 4713.17 4.79241 -1.52765 0
M  V30 48682 H 4712.87 4.87415 -3.28177 0
M  V30 48683 H 4714.39 5.52029 -2.60952 0
M  V30 48684 H 4715.81 3.90034 -4.20174 0
M  V30 48685 H 4714.2 3.49272 -4.87985 0
M  V30 48686 H 4715.27 2.19265 -4.32494 0
M  V30 48687 N 4716.62 1.33262 0.841362 0
M  V30 48688 C 4717.85 1.27611 1.62859 0
M  V30 48689 C 4718.26 -0.153441 1.88175 0
M  V30 48690 O 4717.62 -1.0948 1.46015 0
M  V30 48691 C 4717.67 2.04607 2.98024 0
M  V30 48692 O 4717.39 3.41984 2.73821 0
M  V30 48693 C 4718.89 2.06136 3.92457 0
M  V30 48694 H 4716.11 0.439736 0.506827 0
M  V30 48695 H 4718.65 1.75595 1.04818 0
M  V30 48696 H 4716.81 1.60311 3.52674 0
M  V30 48697 H 4717.22 3.81562 3.59876 0
M  V30 48698 H 4718.7 2.64468 4.84521 0
M  V30 48699 H 4719.17 1.05098 4.2644 0
M  V30 48700 H 4719.78 2.50439 3.43745 0
M  V30 48701 N 4718.1 -1.0593 1.1669 0
M  V30 48702 C 4719.34 -1.78443 0.948807 0
M  V30 48703 C 4719.66 -1.87815 -0.524457 0
M  V30 48704 O 4718.93 -1.3895 -1.38093 0
M  V30 48705 H 4717.51 -0.660958 0.348056 0
M  V30 48706 H 4720.18 -1.27942 1.47027 0
M  V30 48707 H 4719.27 -2.80389 1.37071 0
M  V30 48708 N 4719.57 -0.965962 -1.24527 0
M  V30 48709 C 4720.82 -0.622504 -1.91854 0
M  V30 48710 C 4721.14 0.845944 -1.76361 0
M  V30 48711 O 4722.34 1.29985 -2.38361 0
M  V30 48712 C 4720.8 -1.06272 -3.43852 0
M  V30 48713 C 4720.41 -2.5545 -3.68034 0
M  V30 48714 C 4722.15 -0.792329 -4.1704 0
M  V30 48715 C 4720.06 -2.93214 -5.13595 0
M  V30 48716 H 4718.99 -0.229117 -0.718346 0
M  V30 48717 H 4721.64 -1.17193 -1.41202 0
M  V30 48718 H 4720.02 -0.441614 -3.9353 0
M  V30 48719 H 4721.19 -3.22676 -3.28963 0
M  V30 48720 H 4719.51 -2.80081 -3.08129 0
M  V30 48721 H 4722.11 -1.0505 -5.24279 0
M  V30 48722 H 4722.45 0.271438 -4.15414 0
M  V30 48723 H 4722.98 -1.37432 -3.73306 0
M  V30 48724 H 4719.72 -3.98654 -5.20341 0
M  V30 48725 H 4719.24 -2.3067 -5.53671 0
M  V30 48726 H 4720.92 -2.83024 -5.81813 0
M  V30 48727 N 4721.05 1.39365 -0.73587 0
M  V30 48728 C 4721.98 2.33233 -0.111588 0
M  V30 48729 C 4722.96 1.53957 0.72328 0
M  V30 48730 O 4724.15 1.82347 0.668083 0
M  V30 48731 C 4721.28 3.3806 0.795798 0
M  V30 48732 C 4720.23 4.27951 0.0650215 0
M  V30 48733 C 4719.56 5.23483 1.08948 0
M  V30 48734 C 4720.86 5.10737 -1.09291 0
M  V30 48735 H 4722.55 2.85689 -0.895671 0
M  V30 48736 H 4720.1 1.37362 -0.432158 0
M  V30 48737 H 4722.05 4.02679 1.24207 0
M  V30 48738 H 4720.77 2.84046 1.61201 0
M  V30 48739 H 4719.43 3.64812 -0.361639 0
M  V30 48740 H 4719.08 4.65764 1.89928 0
M  V30 48741 H 4718.78 5.84474 0.605284 0
M  V30 48742 H 4720.31 5.90979 1.53544 0
M  V30 48743 H 4721.72 5.68697 -0.72504 0
M  V30 48744 H 4720.12 5.80875 -1.5068 0
M  V30 48745 H 4721.19 4.45518 -1.9142 0
M  V30 48746 N 4722.53 0.483569 1.49998 0
M  V30 48747 C 4723.78 -0.0688394 2.01582 0
M  V30 48748 C 4724.09 -1.3965 1.36957 0
M  V30 48749 O 4725.3 -2.03459 1.79769 0
M  V30 48750 C 4723.75 -0.173175 3.59483 0
M  V30 48751 C 4723.36 1.1468 4.33073 0
M  V30 48752 C 4725.11 -0.676877 4.19069 0
M  V30 48753 C 4723.01 1.00558 5.82788 0
M  V30 48754 H 4721.94 -0.0295012 0.753423 0
M  V30 48755 H 4724.59 0.620356 1.72696 0
M  V30 48756 H 4722.98 -0.926433 3.85011 0
M  V30 48757 H 4724.15 1.91199 4.19261 0
M  V30 48758 H 4722.46 1.58258 3.85154 0
M  V30 48759 H 4725.06 -0.799766 5.28685 0
M  V30 48760 H 4725.4 -1.67138 3.81275 0
M  V30 48761 H 4725.94 0.0193481 3.97795 0
M  V30 48762 H 4722.68 1.97382 6.25076 0
M  V30 48763 H 4722.2 0.280986 5.99141 0
M  V30 48764 H 4723.88 0.677226 6.43446 0
M  V30 48765 N 4724.01 -1.56103 0.216674 0
M  V30 48766 C 4724.96 -2.16705 -0.708722 0
M  V30 48767 C 4725.94 -1.11396 -1.16102 0
M  V30 48768 O 4727.13 -1.37399 -1.11582 0
M  V30 48769 C 4724.26 -2.84672 -1.91876 0
M  V30 48770 C 4723.35 -3.972 -1.48637 0
M  V30 48771 N 4723.74 -4.99962 -0.766258 0
M  V30 48772 C 4722.04 -4.09199 -1.77403 0
M  V30 48773 C 4722.74 -5.79128 -0.546456 0
M  V30 48774 N 4721.71 -5.32319 -1.10169 0
M  V30 48775 H 4725.52 -2.93517 -0.150058 0
M  V30 48776 H 4723.03 -1.6239 0.0177339 0
M  V30 48777 H 4725.03 -3.26495 -2.59242 0
M  V30 48778 H 4723.69 -2.09355 -2.48194 0
M  V30 48779 H 4724.7 -5.16199 -0.419453 0
M  V30 48780 H 4721.38 -3.4503 -2.35076 0
M  V30 48781 H 4722.77 -6.71895 0.0263392 0
M  V30 48782 N 4725.49 0.0567608 -1.57498 0
M  V30 48783 C 4726.73 0.751935 -1.8716 0
M  V30 48784 C 4727.05 1.77975 -0.811437 0
M  V30 48785 O 4728.25 2.52556 -0.996382 0
M  V30 48786 C 4726.71 1.38832 -3.32045 0
M  V30 48787 C 4726.32 0.398299 -4.46226 0
M  V30 48788 C 4728.06 2.06499 -3.70889 0
M  V30 48789 C 4725.97 1.04146 -5.82158 0
M  V30 48790 H 4724.9 0.284585 -0.698232 0
M  V30 48791 H 4727.55 0.00554821 -1.83499 0
M  V30 48792 H 4725.93 2.18348 -3.30363 0
M  V30 48793 H 4727.11 -0.368139 -4.59327 0
M  V30 48794 H 4725.42 -0.174739 -4.16033 0
M  V30 48795 H 4728.02 2.55421 -4.69749 0
M  V30 48796 H 4728.36 2.87107 -3.01456 0
M  V30 48797 H 4728.89 1.33794 -3.74625 0
M  V30 48798 H 4725.63 0.275383 -6.54921 0
M  V30 48799 H 4725.15 1.77839 -5.72829 0
M  V30 48800 H 4726.83 1.55693 -6.27988 0
M  V30 48801 N 4726.96 1.54139 0.328482 0
M  V30 48802 C 4728.21 1.71768 1.0649 0
M  V30 48803 C 4728.53 0.491556 1.88703 0
M  V30 48804 O 4727.8 -0.494473 1.89557 0
M  V30 48805 H 4726.38 0.633309 0.396142 0
M  V30 48806 H 4729.04 1.91431 0.366109 0
M  V30 48807 H 4728.14 2.59516 1.73372 0
M  V30 48808 N 4728.44 -0.59029 1.46128 0
M  V30 48809 C 4729.67 -1.37986 1.54838 0
M  V30 48810 C 4730.09 -1.87162 0.187572 0
M  V30 48811 O 4729.45 -1.61136 -0.830951 0
M  V30 48812 C 4729.5 -2.54858 2.55107 0
M  V30 48813 O 4728.6 -3.56054 2.08085 0
M  V30 48814 H 4727.94 -0.411247 0.521318 0
M  V30 48815 H 4730.47 -0.716751 1.91635 0
M  V30 48816 H 4730.48 -3.01876 2.74472 0
M  V30 48817 H 4729.16 -2.18417 3.53931 0
M  V30 48818 H 4727.73 -3.15567 1.98675 0
M  V30 48819 N 4729.92 -1.33707 -0.834283 0
M  V30 48820 C 4730.85 -1.20179 -1.95166 0
M  V30 48821 C 4731.86 -0.131629 -1.62267 0
M  V30 48822 O 4733.05 -0.382467 -1.74354 0
M  V30 48823 C 4730.15 -0.821832 -3.28784 0
M  V30 48824 C 4729.33 -1.9846 -3.89785 0
M  V30 48825 C 4728.39 -1.58487 -5.01765 0
M  V30 48826 O 4727.41 -2.29986 -5.20668 0
M  V30 48827 N 4728.61 -0.492494 -5.78407 0
M  V30 48828 H 4731.38 -2.16436 -2.07306 0
M  V30 48829 H 4728.94 -1.26512 -1.01026 0
M  V30 48830 H 4730.93 -0.536432 -4.01129 0
M  V30 48831 H 4729.5 0.0501959 -3.1256 0
M  V30 48832 H 4728.72 -2.43537 -3.09973 0
M  V30 48833 H 4730.01 -2.76251 -4.27274 0
M  V30 48834 H 4729.41 0.10215 -5.65608 0
M  V30 48835 H 4727.96 -0.266784 -6.51254 0
M  V30 48836 N 4731.4 1.0531 -1.1725 0
M  V30 48837 C 4732.81 1.59749 -0.966287 0
M  V30 48838 C 4733.16 1.90052 0.487311 0
M  V30 48839 O 4732.29 1.6813 1.36239 0
M  V30 48840 C 4732.88 2.90243 -1.7477 0
M  V30 48841 C 4731.44 3.41346 -1.58618 0
M  V30 48842 C 4730.59 2.15097 -1.7501 0
M  V30 48843 H 4733.54 0.88136 -1.31976 0
M  V30 48844 H 4733.56 3.60092 -1.22938 0
M  V30 48845 H 4733.07 2.68157 -2.8056 0
M  V30 48846 H 4731.17 3.68472 -0.553115 0
M  V30 48847 H 4731.28 4.1601 -2.37639 0
M  V30 48848 H 4729.65 2.258 -1.17841 0
M  V30 48849 H 4730.43 1.95481 -2.82209 0
M  V30 48850 N 4732.88 0.972553 1.24013 0
M  V30 48851 C 4734.12 0.635843 1.91837 0
M  V30 48852 C 4734.45 -0.83225 1.76348 0
M  V30 48853 O 4733.72 -1.59456 1.13801 0
M  V30 48854 H 4732.3 0.232182 0.71 0
M  V30 48855 H 4734.96 1.23467 1.50804 0
M  V30 48856 H 4734.05 0.88065 2.99418 0
M  V30 48857 N 4734.35 -1.38973 0.74325 0
M  V30 48858 C 4735.3 -2.30544 0.108691 0
M  V30 48859 C 4736.27 -1.49644 -0.720816 0
M  V30 48860 O 4737.46 -1.78306 -0.679079 0
M  V30 48861 C 4734.6 -3.36021 -0.786378 0
M  V30 48862 C 4733.71 -4.31963 0.0566368 0
M  V30 48863 C 4732.84 -5.24509 -0.840473 0
M  V30 48864 C 4731.88 -6.121 0.00679881 0
M  V30 48865 N 4731.02 -6.96976 -0.846698 0
M  V30 48866 H 4735.86 -2.84236 0.895188 0
M  V30 48867 H 4733.4 -1.39948 0.453097 0
M  V30 48868 H 4735.36 -3.95772 -1.31985 0
M  V30 48869 H 4733.99 -2.83764 -1.53877 0
M  V30 48870 H 4733.04 -3.7376 0.707623 0
M  V30 48871 H 4734.35 -4.93701 0.711402 0
M  V30 48872 H 4733.5 -5.89327 -1.44149 0
M  V30 48873 H 4732.24 -4.63112 -1.529 0
M  V30 48874 H 4731.25 -5.46287 0.620558 0
M  V30 48875 H 4732.47 -6.75563 0.69223 0
M  V30 48876 H 4730.42 -6.38139 -1.52036 0
M  V30 48877 H 4730.34 -7.55591 -0.248598 0
M  V30 48878 H 4731.6 -7.66215 -1.43301 0
M  V30 48879 N 4735.83 -0.491517 -1.49739 0
M  V30 48880 C 4736.78 0.311006 -2.25869 0
M  V30 48881 C 4737.77 0.943812 -1.30311 0
M  V30 48882 O 4738.96 0.85298 -1.55091 0
M  V30 48883 C 4736.09 1.38048 -3.14321 0
M  V30 48884 C 4735.17 0.754394 -4.17336 0
M  V30 48885 N 4735.56 -0.137394 -5.05613 0
M  V30 48886 C 4733.86 1.01605 -4.34272 0
M  V30 48887 C 4734.56 -0.494818 -5.79592 0
M  V30 48888 N 4733.54 0.134978 -5.43432 0
M  V30 48889 H 4737.34 -0.375653 -2.91489 0
M  V30 48890 H 4734.86 -0.306973 -1.59472 0
M  V30 48891 H 4736.85 1.96878 -3.67484 0
M  V30 48892 H 4735.51 2.06892 -2.50251 0
M  V30 48893 H 4736.52 -0.507591 -5.15407 0
M  V30 48894 H 4733.2 1.69795 -3.81413 0
M  V30 48895 H 4734.59 -1.22383 -6.6066 0
M  V30 48896 N 4737.31 1.55986 -0.224949 0
M  V30 48897 C 4738.24 2.23428 0.678378 0
M  V30 48898 C 4739.22 1.20714 1.19842 0
M  V30 48899 O 4740.41 1.49308 1.2418 0
M  V30 48900 C 4737.54 2.91682 1.88517 0
M  V30 48901 C 4736.49 4.00898 1.49882 0
M  V30 48902 C 4735.82 4.56465 2.78467 0
M  V30 48903 C 4737.12 5.17772 0.686279 0
M  V30 48904 H 4738.81 2.99175 0.116068 0
M  V30 48905 H 4736.36 1.43897 0.0543854 0
M  V30 48906 H 4738.31 3.37556 2.52258 0
M  V30 48907 H 4737.03 2.13389 2.47251 0
M  V30 48908 H 4735.69 3.55761 0.88486 0
M  V30 48909 H 4735.34 3.74898 3.35352 0
M  V30 48910 H 4735.04 5.30177 2.53349 0
M  V30 48911 H 4736.56 5.05059 3.43144 0
M  V30 48912 H 4737.98 5.60005 1.22747 0
M  V30 48913 H 4736.38 5.97737 0.532049 0
M  V30 48914 H 4737.45 4.83931 -0.306366 0
M  V30 48915 N 4738.79 -0.0484076 1.57526 0
M  V30 48916 C 4740.03 -0.748129 1.90217 0
M  V30 48917 C 4740.39 -1.73542 0.821408 0
M  V30 48918 O 4741.59 -2.48197 1.03207 0
M  V30 48919 C 4739.86 -1.41715 3.28103 0
M  V30 48920 S 4741.42 -2.14871 3.82591 0
M  V30 48921 H 4738.24 -0.248283 0.666241 0
M  V30 48922 H 4740.84 -0.00336315 1.955 0
M  V30 48923 H 4739.55 -0.685101 4.04641 0
M  V30 48924 H 4739.08 -2.20087 3.26076 0
M  V30 48925 H 4741.09 -3.41742 3.59759 0
M  V30 48926 N 4740.27 -1.54311 -0.320303 0
M  V30 48927 C 4741.51 -1.72928 -1.05943 0
M  V30 48928 C 4741.85 -0.503251 -1.87566 0
M  V30 48929 O 4741.12 0.499773 -1.87969 0
M  V30 48930 C 4741.4 -3.00683 -1.98145 0
M  V30 48931 C 4741.26 -4.33544 -1.1983 0
M  V30 48932 C 4742.58 -3.24208 -2.97619 0
M  V30 48933 H 4739.69 -0.629209 -0.383752 0
M  V30 48934 H 4742.34 -1.87009 -0.335788 0
M  V30 48935 H 4740.49 -2.88809 -2.59849 0
M  V30 48936 H 4742.16 -4.57307 -0.605613 0
M  V30 48937 H 4740.4 -4.30902 -0.500632 0
M  V30 48938 H 4741.07 -5.19162 -1.87549 0
M  V30 48939 H 4743.55 -3.35566 -2.46038 0
M  V30 48940 H 4742.42 -4.14951 -3.59314 0
M  V30 48941 H 4742.69 -2.4159 -3.70252 0
M  V30 48942 N 4741.74 0.582532 -1.46439 0
M  V30 48943 C 4742.97 1.36478 -1.55104 0
M  V30 48944 C 4743.38 1.88232 -0.191122 0
M  V30 48945 O 4742.73 1.64293 0.8218 0
M  V30 48946 C 4742.79 2.58791 -2.49534 0
M  V30 48947 C 4742.45 2.28504 -3.95772 0
M  V30 48948 C 4743.45 1.87329 -4.84978 0
M  V30 48949 C 4741.13 2.40642 -4.40904 0
M  V30 48950 C 4743.13 1.58688 -6.1733 0
M  V30 48951 C 4740.81 2.11614 -5.73291 0
M  V30 48952 C 4741.81 1.70702 -6.61324 0
M  V30 48953 O 4741.5 1.42029 -7.91254 0
M  V30 48954 H 4741.23 0.423278 -0.527078 0
M  V30 48955 H 4743.79 0.715121 -1.92549 0
M  V30 48956 H 4742.02 3.26563 -2.07107 0
M  V30 48957 H 4743.71 3.2086 -2.48604 0
M  V30 48958 H 4744.47 1.77465 -4.51366 0
M  V30 48959 H 4740.35 2.7145 -3.72607 0
M  V30 48960 H 4743.89 1.2668 -6.86001 0
M  V30 48961 H 4739.79 2.21103 -6.06452 0
M  V30 48962 H 4740.56 1.55873 -8.03521 0
M  V30 48963 N 4743.22 1.34147 0.82718 0
M  V30 48964 C 4744.15 1.28011 1.95283 0
M  V30 48965 C 4745.13 0.15838 1.69361 0
M  V30 48966 O 4746.32 0.350054 1.91019 0
M  V30 48967 C 4743.45 1.03047 3.3166 0
M  V30 48968 C 4742.4 2.11641 3.72011 0
M  V30 48969 C 4741.73 1.71872 5.06324 0
M  V30 48970 C 4743.03 3.5343 3.84557 0
M  V30 48971 H 4744.72 2.22194 2.00674 0
M  V30 48972 H 4742.27 1.06963 0.964097 0
M  V30 48973 H 4744.22 0.974007 4.09989 0
M  V30 48974 H 4742.95 0.0530539 3.26557 0
M  V30 48975 H 4741.6 2.16349 2.95954 0
M  V30 48976 H 4741.25 0.728016 4.97704 0
M  V30 48977 H 4740.95 2.4455 5.34293 0
M  V30 48978 H 4742.48 1.67713 5.87116 0
M  V30 48979 H 4743.89 3.51158 4.53168 0
M  V30 48980 H 4742.29 4.24694 4.23975 0
M  V30 48981 H 4743.36 3.91082 2.86675 0
M  V30 48982 N 4744.7 -1.04686 1.17807 0
M  V30 48983 C 4745.61 -2.16053 0.914227 0
M  V30 48984 C 4746.63 -1.7359 -0.119442 0
M  V30 48985 O 4747.8 -2.01308 0.0610176 0
M  V30 48986 C 4744.87 -3.43938 0.436724 0
M  V30 48987 C 4743.93 -4.0082 1.5376 0
M  V30 48988 C 4743.16 -5.22601 1.08279 0
M  V30 48989 O 4743.38 -5.70367 -0.0610239 0
M  V30 48990 O 4742.32 -5.71854 1.87795 0
M  V30 48991 H 4746.14 -2.41163 1.84592 0
M  V30 48992 H 4743.73 -1.14527 0.959374 0
M  V30 48993 H 4745.61 -4.21023 0.178205 0
M  V30 48994 H 4744.29 -3.20317 -0.466757 0
M  V30 48995 H 4743.19 -3.25152 1.85006 0
M  V30 48996 H 4744.53 -4.28769 2.41698 0
M  V30 48997 N 4746.18 -0.979116 -1.23495 0
M  V30 48998 C 4747.14 -0.523323 -2.23146 0
M  V30 48999 C 4748.14 0.386352 -1.5609 0
M  V30 49000 O 4749.33 0.180222 -1.73265 0
M  V30 49001 C 4746.46 0.240619 -3.4005 0
M  V30 49002 H 4747.66 -1.40441 -2.64984 0
M  V30 49003 H 4745.21 -0.764872 -1.36306 0
M  V30 49004 H 4745.95 1.1383 -3.03666 0
M  V30 49005 H 4745.73 -0.412344 -3.89926 0
M  V30 49006 H 4747.22 0.548152 -4.13987 0
M  V30 49007 N 4747.66 1.38577 -0.75061 0
M  V30 49008 C 4748.91 1.99788 -0.30484 0
M  V30 49009 C 4749.23 1.59878 1.11643 0
M  V30 49010 O 4748.5 0.854232 1.76294 0
M  V30 49011 H 4747.08 0.738898 -0.10972 0
M  V30 49012 H 4749.74 1.69388 -0.964042 0
M  V30 49013 H 4748.83 3.09951 -0.365608 0
M  V30 49014 N 4749.14 0.499451 1.49477 0
M  V30 49015 C 4750.08 -0.279801 2.29098 0
M  V30 49016 C 4751.05 -0.961757 1.35423 0
M  V30 49017 O 4752.24 -0.968719 1.64379 0
M  V30 49018 C 4749.38 -1.33921 3.18055 0
M  V30 49019 C 4748.49 -0.669183 4.26786 0
M  V30 49020 C 4747.63 -1.7089 5.02961 0
M  V30 49021 C 4746.66 -1.02066 6.0353 0
M  V30 49022 N 4745.8 -2.00451 6.72877 0
M  V30 49023 H 4750.64 0.40542 2.95229 0
M  V30 49024 H 4748.18 0.211777 1.45568 0
M  V30 49025 H 4750.14 -1.9654 3.68005 0
M  V30 49026 H 4748.77 -1.99321 2.53911 0
M  V30 49027 H 4747.82 0.0702571 3.80335 0
M  V30 49028 H 4749.13 -0.127328 4.98637 0
M  V30 49029 H 4748.28 -2.41018 5.56772 0
M  V30 49030 H 4747.02 -2.28461 4.30879 0
M  V30 49031 H 4746.03 -0.305145 5.48953 0
M  V30 49032 H 4747.25 -0.45147 6.77598 0
M  V30 49033 H 4745.2 -2.56986 6.03568 0
M  V30 49034 H 4745.12 -1.51327 7.407 0
M  V30 49035 H 4746.38 -2.69872 7.31293 0
M  V30 49036 N 4750.61 -1.55865 0.233218 0
M  V30 49037 C 4751.86 -1.98898 -0.395889 0
M  V30 49038 C 4752.19 -1.12097 -1.58581 0
M  V30 49039 O 4751.47 -0.18125 -1.93654 0
M  V30 49040 C 4751.75 -3.5066 -0.8191 0
M  V30 49041 C 4751.6 -4.48232 0.375266 0
M  V30 49042 C 4752.92 -4.07141 -1.67107 0
M  V30 49043 H 4750.04 -0.723107 -0.142425 0
M  V30 49044 H 4752.68 -1.87081 0.331791 0
M  V30 49045 H 4750.83 -3.60862 -1.43913 0
M  V30 49046 H 4752.51 -4.50027 1.01356 0
M  V30 49047 H 4750.75 -4.2162 1.02073 0
M  V30 49048 H 4751.42 -5.51988 0.0360269 0
M  V30 49049 H 4753.9 -3.99956 -1.14781 0
M  V30 49050 H 4752.77 -5.13622 -1.93606 0
M  V30 49051 H 4753.03 -3.54746 -2.63833 0
M  V30 49052 N 4752.09 0.0400529 -1.57549 0
M  V30 49053 C 4753.32 0.745128 -1.93017 0
M  V30 49054 C 4753.73 1.69477 -0.832043 0
M  V30 49055 O 4753.09 1.81483 0.1924 0
M  V30 49056 C 4753.14 1.51164 -3.28377 0
M  V30 49057 O 4752.86 0.600131 -4.3397 0
M  V30 49058 C 4754.36 2.31487 -3.78059 0
M  V30 49059 H 4751.58 0.210066 -0.63727 0
M  V30 49060 H 4754.13 0.000852797 -2.045 0
M  V30 49061 H 4752.28 2.2079 -3.18325 0
M  V30 49062 H 4752.7 1.13651 -5.12039 0
M  V30 49063 H 4754.17 2.8068 -4.75313 0
M  V30 49064 H 4754.65 3.12425 -3.08686 0
M  V30 49065 H 4755.25 1.66957 -3.91159 0
M  V30 49066 N 4753.57 1.54478 0.312115 0
M  V30 49067 C 4754.53 1.83928 1.3676 0
M  V30 49068 C 4755.53 0.711614 1.44197 0
M  V30 49069 O 4756.72 0.979917 1.44025 0
M  V30 49070 C 4753.85 2.00959 2.75369 0
M  V30 49071 H 4755.05 2.78243 1.11896 0
M  V30 49072 H 4752.6 1.46371 0.548206 0
M  V30 49073 H 4753.34 1.08894 3.05471 0
M  V30 49074 H 4753.12 2.83028 2.71363 0
M  V30 49075 H 4754.61 2.25152 3.51705 0
M  V30 49076 N 4755.05 -0.574758 1.46746 0
M  V30 49077 C 4756.27 -1.36336 1.56293 0
M  V30 49078 C 4756.7 -1.86953 0.207413 0
M  V30 49079 O 4756.06 -1.62009 -0.813814 0
M  V30 49080 C 4756.1 -2.52138 2.57796 0
M  V30 49081 O 4755.21 -3.53827 2.1185 0
M  V30 49082 H 4754.55 -0.405694 0.52565 0
M  V30 49083 H 4757.08 -0.696385 1.92384 0
M  V30 49084 H 4757.09 -2.98948 2.77658 0
M  V30 49085 H 4755.76 -2.14651 3.56227 0
M  V30 49086 H 4754.34 -3.13442 2.02011 0
M  V30 49087 N 4756.53 -1.34584 -0.820054 0
M  V30 49088 C 4757.46 -1.20742 -1.9364 0
M  V30 49089 C 4758.44 -0.0983914 -1.62302 0
M  V30 49090 O 4759.62 -0.264062 -1.86641 0
M  V30 49091 C 4756.75 -0.856152 -3.27701 0
M  V30 49092 C 4755.79 -1.97534 -3.77998 0
M  V30 49093 S 4756.63 -3.5892 -3.97413 0
M  V30 49094 C 4757.78 -3.25841 -5.34396 0
M  V30 49095 H 4758.02 -2.15238 -2.05085 0
M  V30 49096 H 4755.55 -1.19644 -0.975948 0
M  V30 49097 H 4757.51 -0.660275 -4.05155 0
M  V30 49098 H 4756.17 0.0705149 -3.14021 0
M  V30 49099 H 4755.36 -1.68338 -4.75056 0
M  V30 49100 H 4754.96 -2.12886 -3.07499 0
M  V30 49101 H 4757.25 -2.77833 -6.17912 0
M  V30 49102 H 4758.2 -4.22049 -5.68577 0
M  V30 49103 H 4758.61 -2.61949 -5.00043 0
M  V30 49104 N 4758 1.0406 -1.18361 0
M  V30 49105 C 4759.28 1.74248 -0.888643 0
M  V30 49106 C 4759.66 2.0214 0.608489 0
M  V30 49107 O 4759.01 1.66661 1.56321 0
M  V30 49108 C 4759.22 3.02764 -1.73594 0
M  V30 49109 C 4760.57 3.76499 -1.96299 0
M  V30 49110 O 4761.59 3.12662 -1.70648 0
M  V30 49111 O 4760.45 4.91234 -2.39481 0
M  V30 49112 H 4757.54 0.758259 -0.330108 0
M  V30 49113 H 4760.09 1.10125 -1.29114 0
M  V30 49114 H 4758.86 2.78289 -2.75083 0
M  V30 49115 H 4758.48 3.74626 -1.33196 0
M  V30 49116 N 4759.48 0.985651 1.22974 0
M  V30 49117 C 4760.71 0.675323 1.96097 0
M  V30 49118 C 4761.13 -0.752093 1.7241 0
M  V30 49119 O 4760.49 -1.51306 0.998804 0
M  V30 49120 C 4760.54 0.978022 3.47084 0
M  V30 49121 O 4759.64 0.07283 4.12336 0
M  V30 49122 H 4758.98 0.253465 0.613719 0
M  V30 49123 H 4761.51 1.32067 1.56268 0
M  V30 49124 H 4761.52 0.916879 3.97564 0
M  V30 49125 H 4760.2 2.0182 3.6365 0
M  V30 49126 H 4758.77 0.188834 3.72422 0
M  V30 49127 N 4760.96 -1.38177 0.757949 0
M  V30 49128 C 4762.21 -1.99623 0.315431 0
M  V30 49129 C 4762.53 -1.60467 -1.10794 0
M  V30 49130 O 4761.8 -0.863569 -1.75839 0
M  V30 49131 H 4760.38 -0.738306 0.113637 0
M  V30 49132 H 4763.04 -1.68874 0.973012 0
M  V30 49133 H 4762.14 -3.09753 0.38204 0
M  V30 49134 N 4762.44 -0.507371 -1.4921 0
M  V30 49135 C 4763.4 0.256683 -2.27758 0
M  V30 49136 C 4764.4 0.88824 -1.34041 0
M  V30 49137 O 4765.59 0.751785 -1.57143 0
M  V30 49138 C 4762.72 1.36894 -3.12206 0
M  V30 49139 H 4763.92 -0.432661 -2.96763 0
M  V30 49140 H 4761.47 -0.262543 -1.54079 0
M  V30 49141 H 4762.2 2.09224 -2.47782 0
M  V30 49142 H 4761.99 0.921465 -3.81119 0
M  V30 49143 H 4763.48 1.90697 -3.71516 0
M  V30 49144 N 4763.92 1.55739 -0.241481 0
M  V30 49145 C 4765.16 1.98418 0.384006 0
M  V30 49146 C 4765.49 1.13084 1.58862 0
M  V30 49147 O 4764.76 0.212381 1.94745 0
M  V30 49148 H 4763.34 0.732818 0.144868 0
M  V30 49149 H 4766 1.91929 -0.33901 0
M  V30 49150 H 4765.09 3.04221 0.696832 0
M  V30 49151 N 4765.39 -0.0316971 1.57568 0
M  V30 49152 C 4766.64 -0.721609 1.88778 0
M  V30 49153 C 4766.96 -1.76036 0.838834 0
M  V30 49154 O 4766.23 -1.95482 -0.127866 0
M  V30 49155 H 4764.81 -0.269509 0.696688 0
M  V30 49156 H 4767.48 0.00172731 1.949 0
M  V30 49157 H 4766.57 -1.21283 2.87571 0
M  V30 49158 N 4766.87 -1.54642 -0.303919 0
M  V30 49159 C 4768.1 -1.77772 -1.05852 0
M  V30 49160 C 4768.52 -0.535786 -1.81038 0
M  V30 49161 O 4767.87 0.494275 -1.75679 0
M  V30 49162 C 4767.92 -2.98347 -2.04135 0
M  V30 49163 O 4767.64 -4.17741 -1.32 0
M  V30 49164 C 4769.15 -3.33843 -2.91657 0
M  V30 49165 H 4766.37 -0.592972 -0.314046 0
M  V30 49166 H 4768.91 -2.01585 -0.344078 0
M  V30 49167 H 4767.06 -2.76751 -2.71086 0
M  V30 49168 H 4767.48 -4.85699 -1.9798 0
M  V30 49169 H 4768.95 -4.2146 -3.56476 0
M  V30 49170 H 4769.43 -2.51869 -3.59803 0
M  V30 49171 H 4770.04 -3.57588 -2.30242 0
M  V30 49172 N 4768.35 0.566968 -1.47048 0
M  V30 49173 C 4769.58 1.35505 -1.57013 0
M  V30 49174 C 4770 1.8684 -0.217324 0
M  V30 49175 O 4769.36 1.62438 0.805211 0
M  V30 49176 C 4769.41 2.50768 -2.59129 0
M  V30 49177 O 4768.51 3.52698 -2.13723 0
M  V30 49178 H 4767.85 0.402901 -0.527794 0
M  V30 49179 H 4770.38 0.686173 -1.92751 0
M  V30 49180 H 4770.39 2.97471 -2.7924 0
M  V30 49181 H 4769.07 2.12758 -3.57361 0
M  V30 49182 H 4767.64 3.12367 -2.0367 0
M  V30 49183 N 4769.83 1.35017 0.812906 0
M  V30 49184 C 4771.06 1.31036 1.60116 0
M  V30 49185 C 4771.47 -0.113492 1.88459 0
M  V30 49186 O 4770.83 -1.06358 1.48305 0
M  V30 49187 C 4770.88 2.10882 2.93617 0
M  V30 49188 O 4770.6 3.47716 2.66506 0
M  V30 49189 C 4772.1 2.14414 3.87997 0
M  V30 49190 H 4769.32 0.450388 0.497385 0
M  V30 49191 H 4771.87 1.77779 1.01069 0
M  V30 49192 H 4770.02 1.67756 3.49194 0
M  V30 49193 H 4770.43 3.8911 3.51701 0
M  V30 49194 H 4771.91 2.74686 4.78802 0
M  V30 49195 H 4772.39 1.1412 4.24115 0
M  V30 49196 H 4772.99 2.57674 3.38355 0
M  V30 49197 N 4771.31 -1.03431 1.18911 0
M  V30 49198 C 4772.53 -1.80915 1.01412 0
M  V30 49199 C 4772.96 -1.83057 -0.432656 0
M  V30 49200 O 4772.31 -1.25256 -1.31075 0
M  V30 49201 C 4772.36 -3.24086 1.58116 0
M  V30 49202 O 4771.47 -4.04431 0.806811 0
M  V30 49203 H 4770.81 -0.558697 0.358823 0
M  V30 49204 H 4773.34 -1.30218 1.57811 0
M  V30 49205 H 4773.35 -3.74848 1.611 0
M  V30 49206 H 4772.02 -3.21842 2.63421 0
M  V30 49207 H 4770.6 -3.63088 0.849794 0
M  V30 49208 N 4772.78 -0.992159 -1.2245 0
M  V30 49209 C 4774.03 -0.66859 -1.91462 0
M  V30 49210 C 4774.36 0.79725 -1.77081 0
M  V30 49211 O 4773.64 1.57646 -1.13921 0
M  V30 49212 C 4773.92 -1.07436 -3.437 0
M  V30 49213 C 4773.77 -2.5987 -3.67134 0
M  V30 49214 C 4775.09 -0.627044 -4.3561 0
M  V30 49215 H 4772.21 -0.244365 -0.695309 0
M  V30 49216 H 4774.85 -1.23555 -1.44341 0
M  V30 49217 H 4773 -0.591951 -3.83964 0
M  V30 49218 H 4774.68 -3.15776 -3.36279 0
M  V30 49219 H 4772.92 -3.01972 -3.1144 0
M  V30 49220 H 4773.59 -2.83313 -4.73749 0
M  V30 49221 H 4776.07 -1.04139 -4.02858 0
M  V30 49222 H 4774.94 -0.939266 -5.40804 0
M  V30 49223 H 4775.2 0.472302 -4.3957 0
M  V30 49224 N 4774.26 1.37773 -0.765266 0
M  V30 49225 C 4775.49 2.04123 -0.337839 0
M  V30 49226 C 4775.91 1.57719 1.03779 0
M  V30 49227 O 4775.26 0.755505 1.66128 0
M  V30 49228 C 4775.31 3.59657 -0.364568 0
M  V30 49229 O 4775.03 4.04361 -1.68593 0
M  V30 49230 C 4776.54 4.43236 0.0752663 0
M  V30 49231 H 4773.76 0.655691 -0.142514 0
M  V30 49232 H 4776.3 1.76235 -1.03738 0
M  V30 49233 H 4774.45 3.8634 0.286335 0
M  V30 49234 H 4774.87 4.98852 -1.6201 0
M  V30 49235 H 4776.34 5.52 0.00540662 0
M  V30 49236 H 4776.82 4.24553 1.12477 0
M  V30 49237 H 4777.43 4.21765 -0.547203 0
M  V30 49238 N 4775.74 0.515277 1.48938 0
M  V30 49239 C 4777.15 0.0710723 1.86565 0
M  V30 49240 C 4777.5 -1.34728 1.42628 0
M  V30 49241 O 4776.63 -2.00651 0.81045 0
M  V30 49242 C 4777.22 0.122202 3.3858 0
M  V30 49243 C 4775.78 -0.266731 3.75454 0
M  V30 49244 C 4774.93 0.488472 2.72964 0
M  V30 49245 H 4777.88 0.727315 1.41053 0
M  V30 49246 H 4777.9 -0.669686 3.7456 0
M  V30 49247 H 4777.41 1.15461 3.70527 0
M  V30 49248 H 4775.51 -1.30184 3.49117 0
M  V30 49249 H 4775.63 0.0626495 4.79059 0
M  V30 49250 H 4773.99 -0.0634726 2.54621 0
M  V30 49251 H 4774.77 1.52123 3.07755 0
M  V30 49252 N 4777.22 -1.55609 0.249737 0
M  V30 49253 C 4778.17 -2.21499 -0.648616 0
M  V30 49254 C 4779.14 -1.17981 -1.16917 0
M  V30 49255 O 4780.32 -1.46439 -1.22313 0
M  V30 49256 C 4777.46 -2.92045 -1.83858 0
M  V30 49257 C 4776.57 -4.10223 -1.35428 0
M  V30 49258 C 4775.71 -4.68478 -2.50403 0
M  V30 49259 C 4774.75 -5.789 -1.98849 0
M  V30 49260 N 4773.89 -6.31326 -3.072 0
M  V30 49261 H 4778.73 -2.97892 -0.0800535 0
M  V30 49262 H 4776.26 -1.47074 -0.0277514 0
M  V30 49263 H 4778.22 -3.31147 -2.53766 0
M  V30 49264 H 4776.85 -2.1812 -2.37957 0
M  V30 49265 H 4775.9 -3.76415 -0.549148 0
M  V30 49266 H 4777.21 -4.8993 -0.936477 0
M  V30 49267 H 4776.37 -5.10169 -3.28348 0
M  V30 49268 H 4775.11 -3.87994 -2.95486 0
M  V30 49269 H 4774.11 -5.36684 -1.19375 0
M  V30 49270 H 4775.34 -6.61237 -1.54731 0
M  V30 49271 H 4773.28 -5.53745 -3.51713 0
M  V30 49272 H 4773.2 -7.06233 -2.6976 0
M  V30 49273 H 4774.47 -6.77675 -3.85197 0
M  V30 49274 N 4778.7 0.0233405 -1.57583 0
M  V30 49275 C 4779.63 1.04987 -2.03741 0
M  V30 49276 C 4780.64 1.32121 -0.951199 0
M  V30 49277 O 4781.83 1.29508 -1.22841 0
M  V30 49278 C 4778.93 2.39018 -2.40258 0
M  V30 49279 C 4778.1 2.31158 -3.71329 0
M  V30 49280 C 4777.16 3.47684 -3.94971 0
M  V30 49281 O 4776.19 3.2692 -4.65953 0
M  V30 49282 N 4777.39 4.69748 -3.41053 0
M  V30 49283 H 4780.16 0.656404 -2.92423 0
M  V30 49284 H 4777.72 0.211179 -1.60517 0
M  V30 49285 H 4779.71 3.15703 -2.53207 0
M  V30 49286 H 4778.28 2.70189 -1.57216 0
M  V30 49287 H 4777.5 1.39534 -3.68679 0
M  V30 49288 H 4778.79 2.23055 -4.57301 0
M  V30 49289 H 4778.19 4.89518 -2.83529 0
M  V30 49290 H 4776.74 5.43778 -3.59372 0
M  V30 49291 N 4780.18 1.54801 0.295713 0
M  V30 49292 C 4781.4 1.78657 1.0534 0
M  V30 49293 C 4781.83 0.546958 1.79972 0
M  V30 49294 O 4781.18 -0.502701 1.74191 0
M  V30 49295 C 4781.23 2.99687 2.0055 0
M  V30 49296 O 4780.34 2.73181 3.08943 0
M  V30 49297 H 4779.68 0.591171 0.302346 0
M  V30 49298 H 4782.21 2.01896 0.331527 0
M  V30 49299 H 4782.22 3.27801 2.4292 0
M  V30 49300 H 4780.89 3.89568 1.45636 0
M  V30 49301 H 4779.47 2.56098 2.7105 0
M  V30 49302 N 4781.65 -0.559161 1.47347 0
M  V30 49303 C 4782.58 -1.67616 1.62564 0
M  V30 49304 C 4783.56 -1.63329 0.475144 0
M  V30 49305 O 4784.75 -1.80981 0.704246 0
M  V30 49306 C 4781.88 -3.06254 1.63785 0
M  V30 49307 C 4780.83 -3.25387 2.78042 0
M  V30 49308 C 4780.16 -4.64792 2.64334 0
M  V30 49309 C 4781.46 -3.1095 4.19652 0
M  V30 49310 H 4783.15 -1.55137 2.56072 0
M  V30 49311 H 4780.7 -0.744918 1.23235 0
M  V30 49312 H 4782.65 -3.84241 1.73022 0
M  V30 49313 H 4781.38 -3.19688 0.668363 0
M  V30 49314 H 4780.04 -2.49808 2.68313 0
M  V30 49315 H 4779.68 -4.75022 1.65418 0
M  V30 49316 H 4779.38 -4.78543 3.40985 0
M  V30 49317 H 4780.91 -5.44916 2.75497 0
M  V30 49318 H 4782.32 -3.78756 4.30368 0
M  V30 49319 H 4780.72 -3.36211 4.97074 0
M  V30 49320 H 4781.79 -2.07721 4.38155 0
M  V30 49321 N 4783.13 -1.35446 -0.805734 0
M  V30 49322 C 4784.37 -1.30133 -1.57623 0
M  V30 49323 C 4784.74 0.122499 -1.91609 0
M  V30 49324 O 4785.94 0.300013 -2.6712 0
M  V30 49325 C 4784.21 -2.18324 -2.82966 0
M  V30 49326 S 4785.77 -2.30534 -3.73362 0
M  V30 49327 H 4782.58 -0.462458 -0.54005 0
M  V30 49328 H 4785.19 -1.70846 -0.95036 0
M  V30 49329 H 4783.89 -3.2075 -2.56022 0
M  V30 49330 H 4783.42 -1.7857 -3.50537 0
M  V30 49331 H 4785.44 -1.49079 -4.73276 0
M  V30 49332 N 4784.61 1.02799 -1.19458 0
M  V30 49333 C 4785.89 1.73296 -0.907074 0
M  V30 49334 C 4786.27 2.02774 0.587015 0
M  V30 49335 O 4785.61 1.6831 1.54545 0
M  V30 49336 C 4785.82 3.00906 -1.76796 0
M  V30 49337 C 4787.17 3.74396 -2.00281 0
M  V30 49338 O 4788.2 3.10835 -1.73954 0
M  V30 49339 O 4787.06 4.88667 -2.44678 0
M  V30 49340 H 4784.15 0.754716 -0.338132 0
M  V30 49341 H 4786.7 1.0875 -1.30275 0
M  V30 49342 H 4785.47 2.75356 -2.78019 0
M  V30 49343 H 4785.09 3.73192 -1.37162 0
M  V30 49344 N 4786.09 0.998639 1.21922 0
M  V30 49345 C 4787.34 0.676392 1.90445 0
M  V30 49346 C 4787.66 -0.794657 1.78074 0
M  V30 49347 O 4786.93 -1.57006 1.17158 0
M  V30 49348 H 4785.51 0.24719 0.704916 0
M  V30 49349 H 4788.17 1.26638 1.48151 0
M  V30 49350 H 4787.26 0.943963 2.97482 0
M  V30 49351 N 4787.57 -1.37365 0.772562 0
M  V30 49352 C 4788.5 -2.28898 0.117583 0
M  V30 49353 C 4789.51 -1.48672 -0.663353 0
M  V30 49354 O 4790.7 -1.71316 -0.501311 0
M  V30 49355 C 4787.8 -3.27883 -0.857077 0
M  V30 49356 C 4786.97 -4.37207 -0.129785 0
M  V30 49357 C 4786.03 -5.1626 -1.01793 0
M  V30 49358 O 4785.06 -5.67161 -0.481401 0
M  V30 49359 N 4786.26 -5.31067 -2.34411 0
M  V30 49360 H 4789.02 -2.85749 0.903762 0
M  V30 49361 H 4786.59 -1.49351 0.624982 0
M  V30 49362 H 4788.58 -3.77652 -1.45469 0
M  V30 49363 H 4787.15 -2.71795 -1.54422 0
M  V30 49364 H 4786.37 -3.88825 0.648742 0
M  V30 49365 H 4787.66 -5.07433 0.372737 0
M  V30 49366 H 4787.05 -4.91297 -2.80435 0
M  V30 49367 H 4785.61 -5.84141 -2.89176 0
M  V30 49368 N 4789.04 -0.523168 -1.48663 0
M  V30 49369 C 4790.29 0.0053288 -2.03399 0
M  V30 49370 C 4790.64 1.32635 -1.39376 0
M  V30 49371 O 4789.94 1.84182 -0.527981 0
M  V30 49372 C 4790.13 0.191546 -3.56886 0
M  V30 49373 C 4789.96 -1.10987 -4.35789 0
M  V30 49374 C 4788.73 -1.66786 -4.76981 0
M  V30 49375 C 4790.93 -2.01878 -4.73022 0
M  V30 49376 N 4788.91 -2.91287 -5.40393 0
M  V30 49377 C 4790.28 -3.10956 -5.36383 0
M  V30 49378 C 4792.34 -2.02287 -4.54955 0
M  V30 49379 C 4791.04 -4.20499 -5.83587 0
M  V30 49380 C 4793.07 -3.1082 -5.03135 0
M  V30 49381 C 4792.43 -4.18617 -5.66515 0
M  V30 49382 H 4788.53 -0.0393806 -0.781008 0
M  V30 49383 H 4791.11 -0.70294 -1.81568 0
M  V30 49384 H 4789.28 0.868892 -3.78556 0
M  V30 49385 H 4791.01 0.719037 -3.98261 0
M  V30 49386 H 4787.77 -1.21012 -4.57879 0
M  V30 49387 H 4788.19 -3.54655 -5.7667 0
M  V30 49388 H 4792.83 -1.20244 -4.05341 0
M  V30 49389 H 4790.55 -5.03325 -6.3221 0
M  V30 49390 H 4794.14 -3.12183 -4.90951 0
M  V30 49391 H 4793.02 -5.01214 -6.0312 0
M  V30 49392 N 4790.52 1.55474 -0.257986 0
M  V30 49393 C 4791.47 2.18508 0.651017 0
M  V30 49394 C 4792.46 1.14435 1.13108 0
M  V30 49395 O 4793.65 1.40309 1.079 0
M  V30 49396 C 4790.78 2.8966 1.84261 0
M  V30 49397 C 4789.86 4.01001 1.38054 0
M  V30 49398 N 4790.25 5.01818 0.633433 0
M  V30 49399 C 4788.55 4.13759 1.66492 0
M  V30 49400 C 4789.25 5.80373 0.392718 0
M  V30 49401 N 4788.23 5.35053 0.960171 0
M  V30 49402 H 4792.03 2.93811 0.072185 0
M  V30 49403 H 4789.55 1.62286 -0.0607826 0
M  V30 49404 H 4791.54 3.33254 2.50494 0
M  V30 49405 H 4790.2 2.15862 2.42556 0
M  V30 49406 H 4791.21 5.17129 0.282444 0
M  V30 49407 H 4787.89 3.51141 2.25846 0
M  V30 49408 H 4789.28 6.71589 -0.204471 0
M  V30 49409 N 4792 -0.0149831 1.57593 0
M  V30 49410 C 4793.23 -0.717999 1.94575 0
M  V30 49411 C 4793.65 -1.67337 0.859064 0
M  V30 49412 O 4793.01 -1.80363 -0.184084 0
M  V30 49413 C 4793.06 -1.43906 3.30641 0
M  V30 49414 O 4792.16 -2.55288 3.23885 0
M  V30 49415 H 4791.5 -0.192103 0.635604 0
M  V30 49416 H 4794.03 0.0337427 2.04572 0
M  V30 49417 H 4794.04 -1.80585 3.65859 0
M  V30 49418 H 4792.72 -0.738475 4.09291 0
M  V30 49419 H 4791.29 -2.21048 3.0032 0
M  V30 49420 N 4793.48 -1.54955 -0.2875 0
M  V30 49421 C 4794.72 -1.75136 -1.02251 0
M  V30 49422 C 4795.06 -0.542923 -1.86456 0
M  V30 49423 O 4794.33 0.459789 -1.88987 0
M  V30 49424 C 4794.62 -3.04819 -1.91723 0
M  V30 49425 C 4794.47 -4.35989 -1.10607 0
M  V30 49426 C 4795.79 -3.30448 -2.90675 0
M  V30 49427 H 4792.91 -0.637207 -0.370319 0
M  V30 49428 H 4795.55 -1.87679 -0.296046 0
M  V30 49429 H 4793.7 -2.94256 -2.53665 0
M  V30 49430 H 4795.37 -4.58489 -0.508475 0
M  V30 49431 H 4793.61 -4.31866 -0.409119 0
M  V30 49432 H 4794.28 -5.23024 -1.76494 0
M  V30 49433 H 4796.76 -3.40709 -2.38865 0
M  V30 49434 H 4795.64 -4.22479 -3.50432 0
M  V30 49435 H 4795.9 -2.4939 -3.65044 0
M  V30 49436 N 4794.96 0.551339 -1.47641 0
M  V30 49437 C 4795.92 1.64001 -1.60113 0
M  V30 49438 C 4796.92 1.53599 -0.475814 0
M  V30 49439 O 4798.11 1.57652 -0.741044 0
M  V30 49440 C 4795.24 3.03564 -1.55118 0
M  V30 49441 H 4796.43 1.54291 -2.57166 0
M  V30 49442 H 4793.99 0.771728 -1.35919 0
M  V30 49443 H 4794.72 3.18802 -0.594632 0
M  V30 49444 H 4794.51 3.12523 -2.36794 0
M  V30 49445 H 4796 3.82756 -1.66996 0
M  V30 49446 N 4796.43 1.35872 0.79854 0
M  V30 49447 C 4797.68 1.29786 1.55832 0
M  V30 49448 C 4798.01 -0.125253 1.93796 0
M  V30 49449 O 4797.29 -1.07653 1.61991 0
M  V30 49450 C 4797.57 2.21198 2.84154 0
M  V30 49451 C 4797.42 3.72163 2.52615 0
M  V30 49452 C 4798.74 2.11558 3.85916 0
M  V30 49453 H 4795.86 0.472789 0.565367 0
M  V30 49454 H 4798.5 1.66344 0.918134 0
M  V30 49455 H 4796.65 1.90151 3.38784 0
M  V30 49456 H 4798.33 4.13689 2.04106 0
M  V30 49457 H 4796.57 3.92048 1.8569 0
M  V30 49458 H 4797.24 4.31523 3.44227 0
M  V30 49459 H 4799.72 2.38867 3.40708 0
M  V30 49460 H 4798.59 2.77704 4.73468 0
M  V30 49461 H 4798.85 1.10002 4.28196 0
M  V30 49462 N 4797.91 -1.02164 1.20001 0
M  V30 49463 C 4799.14 -1.79293 1.03256 0
M  V30 49464 C 4799.56 -1.84105 -0.418437 0
M  V30 49465 O 4798.91 -1.29036 -1.29058 0
M  V30 49466 C 4798.96 -3.24001 1.6033 0
M  V30 49467 O 4798.68 -3.19501 2.99751 0
M  V30 49468 C 4800.19 -4.17699 1.48468 0
M  V30 49469 H 4797.41 -0.564003 0.363512 0
M  V30 49470 H 4799.95 -1.28633 1.58977 0
M  V30 49471 H 4798.1 -3.71826 1.0874 0
M  V30 49472 H 4798.52 -4.10294 3.2674 0
M  V30 49473 H 4799.99 -5.17097 1.93171 0
M  V30 49474 H 4800.47 -4.37027 0.436346 0
M  V30 49475 H 4801.08 -3.75753 1.99224 0
M  V30 49476 N 4799.39 -1.00509 -1.21391 0
M  V30 49477 C 4800.64 -0.683226 -1.89776 0
M  V30 49478 C 4800.95 0.789408 -1.78963 0
M  V30 49479 O 4802.16 1.22336 -2.42376 0
M  V30 49480 C 4800.61 -1.17158 -3.40297 0
M  V30 49481 C 4800.22 -2.6703 -3.59721 0
M  V30 49482 C 4801.97 -0.924606 -4.14308 0
M  V30 49483 C 4799.87 -3.09405 -5.04006 0
M  V30 49484 H 4798.8 -0.251855 -0.710693 0
M  V30 49485 H 4801.45 -1.21626 -1.37402 0
M  V30 49486 H 4799.84 -0.566589 -3.91926 0
M  V30 49487 H 4801.01 -3.32979 -3.18531 0
M  V30 49488 H 4799.33 -2.89742 -2.99062 0
M  V30 49489 H 4801.92 -1.21676 -5.20672 0
M  V30 49490 H 4802.27 0.13914 -4.16067 0
M  V30 49491 H 4802.8 -1.49239 -3.68745 0
M  V30 49492 H 4799.54 -4.15007 -5.07395 0
M  V30 49493 H 4799.06 -2.48168 -5.46052 0
M  V30 49494 H 4800.74 -3.01391 -5.72514 0
M  V30 49495 N 4800.87 1.36954 -0.779835 0
M  V30 49496 C 4801.82 2.30175 -0.169778 0
M  V30 49497 C 4802.79 1.51503 0.680887 0
M  V30 49498 O 4803.97 1.80044 0.631566 0
M  V30 49499 C 4801.11 3.37988 0.697012 0
M  V30 49500 C 4800.22 4.31661 -0.171144 0
M  V30 49501 C 4799.36 5.26553 0.701113 0
M  V30 49502 C 4798.4 6.11866 -0.169084 0
M  V30 49503 N 4797.53 6.98976 0.661609 0
M  V30 49504 H 4802.37 2.81763 -0.970234 0
M  V30 49505 H 4799.91 1.38697 -0.490042 0
M  V30 49506 H 4801.87 3.99133 1.21446 0
M  V30 49507 H 4800.5 2.87744 1.46299 0
M  V30 49508 H 4799.55 3.71753 -0.80647 0
M  V30 49509 H 4800.86 4.91641 -0.842048 0
M  V30 49510 H 4800.02 5.92941 1.28473 0
M  V30 49511 H 4798.76 4.67003 1.40567 0
M  V30 49512 H 4797.76 5.44449 -0.765178 0
M  V30 49513 H 4798.99 6.7349 -0.8711 0
M  V30 49514 H 4796.93 6.41945 1.35064 0
M  V30 49515 H 4796.85 7.55985 0.048179 0
M  V30 49516 H 4798.12 7.69745 1.22936 0
M  V30 49517 N 4802.35 0.531045 1.48384 0
M  V30 49518 C 4803.28 -0.268273 2.27625 0
M  V30 49519 C 4804.29 -0.903477 1.35429 0
M  V30 49520 O 4805.48 -0.78174 1.60471 0
M  V30 49521 C 4802.58 -1.39524 3.08846 0
M  V30 49522 C 4801.75 -0.861762 4.28827 0
M  V30 49523 C 4800.81 -1.86999 4.91851 0
M  V30 49524 O 4799.84 -1.42651 5.51035 0
M  V30 49525 N 4801.04 -3.20221 4.84189 0
M  V30 49526 H 4803.81 0.411335 2.96864 0
M  V30 49527 H 4801.37 0.365443 1.57722 0
M  V30 49528 H 4803.36 -2.06791 3.47879 0
M  V30 49529 H 4801.93 -1.9785 2.42021 0
M  V30 49530 H 4801.15 -0.013074 3.94198 0
M  V30 49531 H 4802.44 -0.484237 5.0649 0
M  V30 49532 H 4801.83 -3.58917 4.37259 0
M  V30 49533 H 4800.39 -3.83117 5.27318 0
M  V30 49534 N 4803.82 -1.55335 0.266227 0
M  V30 49535 C 4804.77 -2.1885 -0.63942 0
M  V30 49536 C 4805.76 -1.15034 -1.12499 0
M  V30 49537 O 4806.95 -1.40879 -1.07155 0
M  V30 49538 C 4804.08 -2.90633 -1.82723 0
M  V30 49539 C 4803.17 -4.01728 -1.35925 0
M  V30 49540 N 4803.56 -5.02147 -0.606811 0
M  V30 49541 C 4801.85 -4.14636 -1.64295 0
M  V30 49542 C 4802.56 -5.80573 -0.361934 0
M  V30 49543 N 4801.53 -5.35555 -0.931783 0
M  V30 49544 H 4805.33 -2.93845 -0.0566024 0
M  V30 49545 H 4802.85 -1.62252 0.0693882 0
M  V30 49546 H 4804.84 -3.34578 -2.48723 0
M  V30 49547 H 4803.5 -2.17145 -2.41408 0
M  V30 49548 H 4804.52 -5.17272 -0.255016 0
M  V30 49549 H 4801.19 -3.52334 -2.2398 0
M  V30 49550 H 4802.58 -6.71471 0.240084 0
M  V30 49551 N 4805.3 0.0066254 -1.57599 0
M  V30 49552 C 4806.55 0.692011 -1.89457 0
M  V30 49553 C 4806.87 1.75303 -0.867648 0
M  V30 49554 O 4808.07 2.49258 -1.07623 0
M  V30 49555 C 4806.53 1.28198 -3.36293 0
M  V30 49556 C 4806.14 0.256134 -4.47267 0
M  V30 49557 C 4807.88 1.94595 -3.77271 0
M  V30 49558 C 4805.79 0.855722 -5.85176 0
M  V30 49559 H 4804.72 0.262227 -0.706932 0
M  V30 49560 H 4807.37 -0.0528335 -1.83424 0
M  V30 49561 H 4805.75 2.07728 -3.37143 0
M  V30 49562 H 4806.92 -0.514084 -4.57923 0
M  V30 49563 H 4805.24 -0.307008 -4.15267 0
M  V30 49564 H 4807.84 2.40347 -4.77637 0
M  V30 49565 H 4808.18 2.77371 -3.10437 0
M  V30 49566 H 4808.71 1.21808 -3.78692 0
M  V30 49567 H 4805.45 0.0668857 -6.55466 0
M  V30 49568 H 4804.97 1.59525 -5.78197 0
M  V30 49569 H 4806.65 1.35635 -6.32623 0
M  V30 49570 N 4806.78 1.55106 0.279278 0
M  V30 49571 C 4807.71 1.90562 1.34939 0
M  V30 49572 C 4808.69 0.766792 1.51836 0
M  V30 49573 O 4809.88 1.02439 1.64984 0
M  V30 49574 C 4807.01 2.17203 2.70999 0
M  V30 49575 C 4805.96 3.3303 2.6884 0
M  V30 49576 C 4805.29 3.45137 4.08393 0
M  V30 49577 C 4806.59 4.69586 2.28662 0
M  V30 49578 H 4808.28 2.80192 1.05512 0
M  V30 49579 H 4805.83 1.34812 0.506126 0
M  V30 49580 H 4807.78 2.40594 3.45966 0
M  V30 49581 H 4806.5 1.24365 3.01995 0
M  V30 49582 H 4805.16 3.09597 1.96329 0
M  V30 49583 H 4804.81 2.49777 4.36601 0
M  V30 49584 H 4804.51 4.23009 4.07844 0
M  V30 49585 H 4806.04 3.70813 4.85108 0
M  V30 49586 H 4807.45 4.92563 2.9335 0
M  V30 49587 H 4805.85 5.50329 2.39287 0
M  V30 49588 H 4806.92 4.68833 1.2379 0
M  V30 49589 N 4808.26 -0.543502 1.47932 0
M  V30 49590 C 4809.21 -1.64522 1.5785 0
M  V30 49591 C 4810.19 -1.54867 0.436462 0
M  V30 49592 O 4811.39 -1.63117 0.687159 0
M  V30 49593 C 4808.51 -3.03275 1.6087 0
M  V30 49594 C 4807.6 -3.18083 2.80506 0
M  V30 49595 N 4807.99 -3.02909 4.05067 0
M  V30 49596 C 4806.29 -3.49112 2.77555 0
M  V30 49597 C 4806.99 -3.20774 4.85262 0
M  V30 49598 N 4805.97 -3.47734 4.1783 0
M  V30 49599 H 4809.77 -1.5138 2.51916 0
M  V30 49600 H 4807.28 -0.74862 1.44116 0
M  V30 49601 H 4809.28 -3.82397 1.66067 0
M  V30 49602 H 4807.94 -3.17519 0.679108 0
M  V30 49603 H 4808.95 -2.79951 4.35715 0
M  V30 49604 H 4805.63 -3.69798 1.93794 0
M  V30 49605 H 4807.02 -3.13894 5.94071 0
M  V30 49606 N 4809.74 -1.36293 -0.791323 0
M  V30 49607 C 4810.67 -1.33144 -1.9182 0
M  V30 49608 C 4811.65 -0.203227 -1.68882 0
M  V30 49609 O 4812.83 -0.400576 -1.90024 0
M  V30 49610 C 4809.96 -1.11804 -3.28812 0
M  V30 49611 C 4808.92 -2.21429 -3.66269 0
M  V30 49612 C 4808.24 -1.85235 -5.01589 0
M  V30 49613 C 4809.54 -3.63502 -3.75051 0
M  V30 49614 H 4811.24 -2.27437 -1.94712 0
M  V30 49615 H 4808.78 -1.09482 -0.935399 0
M  V30 49616 H 4810.74 -1.08237 -4.07263 0
M  V30 49617 H 4809.46 -0.139616 -3.26301 0
M  V30 49618 H 4808.12 -2.2412 -2.90114 0
M  V30 49619 H 4807.77 -0.859718 -4.95598 0
M  V30 49620 H 4807.47 -2.5863 -5.27621 0
M  V30 49621 H 4808.99 -1.8322 -5.82463 0
M  V30 49622 H 4810.41 -3.63049 -4.43698 0
M  V30 49623 H 4808.8 -4.35786 -4.12566 0
M  V30 49624 H 4809.87 -3.98546 -2.76205 0
M  V30 49625 N 4811.22 1.01526 -1.20541 0
M  V30 49626 C 4812.13 2.13554 -0.971188 0
M  V30 49627 C 4813.14 1.73845 0.0733755 0
M  V30 49628 O 4814.32 2.01075 -0.114369 0
M  V30 49629 C 4811.38 3.4266 -0.527759 0
M  V30 49630 C 4810.44 3.96602 -1.64333 0
M  V30 49631 C 4809.68 5.19546 -1.22096 0
M  V30 49632 O 4809.9 5.70329 -0.0902203 0
M  V30 49633 O 4808.83 5.66674 -2.02891 0
M  V30 49634 H 4812.66 2.36184 -1.90921 0
M  V30 49635 H 4810.24 1.11943 -0.989402 0
M  V30 49636 H 4812.13 4.20403 -0.289769 0
M  V30 49637 H 4810.8 3.21442 0.381666 0
M  V30 49638 H 4809.71 3.20132 -1.93562 0
M  V30 49639 H 4811.04 4.2221 -2.52981 0
M  V30 49640 N 4812.69 1.01151 1.20856 0
M  V30 49641 C 4813.62 0.597742 2.2572 0
M  V30 49642 C 4814.6 -0.384685 1.65693 0
M  V30 49643 O 4815.79 -0.271235 1.92297 0
M  V30 49644 C 4812.92 -0.0698928 3.4723 0
M  V30 49645 C 4811.87 0.83299 4.19816 0
M  V30 49646 C 4811.2 0.0314082 5.34691 0
M  V30 49647 C 4812.5 2.13867 4.76506 0
M  V30 49648 H 4814.19 1.47432 2.60584 0
M  V30 49649 H 4811.74 0.710345 1.2526 0
M  V30 49650 H 4813.69 -0.370882 4.19765 0
M  V30 49651 H 4812.42 -0.98115 3.11514 0
M  V30 49652 H 4811.08 1.11791 3.4914 0
M  V30 49653 H 4810.72 -0.881341 4.95219 0
M  V30 49654 H 4810.42 0.632639 5.84184 0
M  V30 49655 H 4811.95 -0.263246 6.10032 0
M  V30 49656 H 4813.36 1.90039 5.40886 0
M  V30 49657 H 4811.76 2.69031 5.36416 0
M  V30 49658 H 4812.83 2.80509 3.95528 0
M  V30 49659 N 4814.17 -1.36538 0.787088 0
M  V30 49660 C 4815.45 -1.93549 0.282492 0
M  V30 49661 C 4815.83 -1.71924 -1.22497 0
M  V30 49662 O 4815.18 -1.07684 -2.01535 0
M  V30 49663 C 4815.39 -3.42458 0.672582 0
M  V30 49664 C 4816.73 -4.1958 0.65101 0
M  V30 49665 O 4817.76 -3.50887 0.612912 0
M  V30 49666 O 4816.62 -5.42103 0.691813 0
M  V30 49667 H 4813.71 -0.824089 0.0693289 0
M  V30 49668 H 4816.26 -1.45733 0.869474 0
M  V30 49669 H 4815.03 -3.51845 1.71234 0
M  V30 49670 H 4814.65 -3.97556 0.0593608 0
M  V30 49671 N 4815.65 -0.538906 -1.481 0
M  V30 49672 C 4816.88 -0.0123863 -2.06896 0
M  V30 49673 C 4817.29 1.27307 -1.39421 0
M  V30 49674 O 4816.65 1.75947 -0.484644 0
M  V30 49675 C 4816.7 0.205992 -3.60913 0
M  V30 49676 O 4816.42 -1.02855 -4.25855 0
M  V30 49677 C 4817.92 0.77188 -4.36528 0
M  V30 49678 H 4815.14 -0.0375474 -0.669949 0
M  V30 49679 H 4817.69 -0.747099 -1.90365 0
M  V30 49680 H 4815.84 0.890777 -3.7702 0
M  V30 49681 H 4816.26 -0.814836 -5.18132 0
M  V30 49682 H 4817.73 0.874059 -5.45036 0
M  V30 49683 H 4818.21 1.7789 -4.01562 0
M  V30 49684 H 4818.81 0.123376 -4.25121 0
M  V30 49685 N 4817.13 1.55192 -0.274461 0
M  V30 49686 C 4818.4 1.91585 0.394264 0
M  V30 49687 C 4818.78 1.19864 1.73769 0
M  V30 49688 O 4818.13 0.325279 2.26173 0
M  V30 49689 C 4818.34 3.44872 0.53519 0
M  V30 49690 C 4819.69 4.16638 0.818388 0
M  V30 49691 O 4820.71 3.50762 0.620022 0
M  V30 49692 O 4819.57 5.33214 1.19773 0
M  V30 49693 H 4816.67 0.798357 0.215766 0
M  V30 49694 H 4819.21 1.66645 -0.320565 0
M  V30 49695 H 4817.99 3.89143 -0.410278 0
M  V30 49696 H 4817.61 3.75764 1.29951 0
M  V30 49697 N 4818.61 0.00173253 1.576 0
M  V30 49698 C 4819.83 -0.697321 1.95326 0
M  V30 49699 C 4820.26 -1.66417 0.876764 0
M  V30 49700 O 4819.61 -1.80548 -0.164944 0
M  V30 49701 C 4819.66 -1.40391 3.32149 0
M  V30 49702 O 4818.77 -2.51838 3.26575 0
M  V30 49703 H 4818.11 -0.18535 0.637606 0
M  V30 49704 H 4820.64 0.0554384 2.04525 0
M  V30 49705 H 4820.65 -1.76694 3.67754 0
M  V30 49706 H 4819.32 -0.695023 4.10052 0
M  V30 49707 H 4817.9 -2.1785 3.02648 0
M  V30 49708 N 4820.08 -1.55252 -0.271048 0
M  V30 49709 C 4821.31 -1.8031 -1.02484 0
M  V30 49710 C 4821.73 -0.57552 -1.79079 0
M  V30 49711 O 4821.09 0.474926 -1.74969 0
M  V30 49712 C 4821.14 -3.02839 -1.95757 0
M  V30 49713 O 4820.24 -2.78062 -3.04558 0
M  V30 49714 H 4819.59 -0.595906 -0.292903 0
M  V30 49715 H 4822.12 -2.02398 -0.299365 0
M  V30 49716 H 4822.13 -3.31625 -2.37674 0
M  V30 49717 H 4820.8 -3.91835 -1.3942 0
M  V30 49718 H 4819.38 -2.60378 -2.66941 0
M  V30 49719 N 4821.56 0.535649 -1.48218 0
M  V30 49720 C 4822.79 1.31475 -1.59367 0
M  V30 49721 C 4823.2 1.87529 -0.25091 0
M  V30 49722 O 4822.54 1.66824 0.769116 0
M  V30 49723 C 4822.61 2.50722 -2.57641 0
M  V30 49724 C 4822.27 2.15797 -4.02841 0
M  V30 49725 C 4823.27 1.71805 -4.90693 0
M  V30 49726 C 4820.95 2.26494 -4.48337 0
M  V30 49727 C 4822.95 1.38968 -6.22067 0
M  V30 49728 C 4820.63 1.93269 -5.79733 0
M  V30 49729 C 4821.63 1.49576 -6.6642 0
M  V30 49730 O 4821.32 1.16784 -7.95372 0
M  V30 49731 H 4821.05 0.406296 -0.540278 0
M  V30 49732 H 4823.6 0.653501 -1.94727 0
M  V30 49733 H 4821.83 3.19809 -2.17391 0
M  V30 49734 H 4823.52 3.12788 -2.58686 0
M  V30 49735 H 4824.29 1.63015 -4.56783 0
M  V30 49736 H 4820.17 2.59458 -3.81055 0
M  V30 49737 H 4823.71 1.04792 -6.89684 0
M  V30 49738 H 4819.61 2.01697 -6.13179 0
M  V30 49739 H 4820.38 1.30231 -8.08073 0
M  V30 49740 N 4823.04 1.36711 0.784084 0
M  V30 49741 C 4824.27 1.34403 1.573 0
M  V30 49742 C 4824.68 -0.0734914 1.88657 0
M  V30 49743 O 4824.04 -1.03188 1.50527 0
M  V30 49744 C 4824.09 2.17063 2.89078 0
M  V30 49745 O 4823.81 3.5329 2.5907 0
M  V30 49746 C 4825.31 2.22596 3.83361 0
M  V30 49747 H 4822.53 0.460837 0.48772 0
M  V30 49748 H 4825.08 1.79882 0.972756 0
M  V30 49749 H 4823.23 1.75125 3.45558 0
M  V30 49750 H 4823.65 3.96482 3.43369 0
M  V30 49751 H 4825.12 2.8478 4.72868 0
M  V30 49752 H 4825.6 1.2309 4.21599 0
M  V30 49753 H 4826.2 2.64793 3.32813 0
M  V30 49754 N 4824.52 -1.00885 1.21078 0
M  V30 49755 C 4825.48 -2.07746 0.968202 0
M  V30 49756 C 4826.48 -1.60691 -0.0592881 0
M  V30 49757 O 4827.67 -1.73292 0.177586 0
M  V30 49758 C 4824.8 -3.37793 0.459227 0
M  V30 49759 H 4826 -2.307 1.91618 0
M  V30 49760 H 4823.55 -1.17803 1.02723 0
M  V30 49761 H 4824.28 -3.20518 -0.493858 0
M  V30 49762 H 4824.07 -3.73276 1.20032 0
M  V30 49763 H 4825.56 -4.16453 0.309246 0
M  V30 49764 N 4826 -1.01791 -1.20318 0
M  V30 49765 C 4827.24 -0.706604 -1.89345 0
M  V30 49766 C 4827.57 0.766226 -1.79315 0
M  V30 49767 O 4826.84 1.55122 -1.19641 0
M  V30 49768 H 4825.42 -0.258373 -0.700894 0
M  V30 49769 H 4828.08 -1.28979 -1.46118 0
M  V30 49770 H 4827.17 -0.99117 -2.95943 0
M  V30 49771 N 4827.47 1.36119 -0.794317 0
M  V30 49772 C 4828.41 2.28682 -0.153983 0
M  V30 49773 C 4829.42 1.49709 0.639616 0
M  V30 49774 O 4830.61 1.72092 0.473993 0
M  V30 49775 C 4827.71 3.29205 0.804805 0
M  V30 49776 C 4826.88 4.37359 0.0602123 0
M  V30 49777 C 4825.94 5.17814 0.935667 0
M  V30 49778 O 4824.97 5.67855 0.39111 0
M  V30 49779 N 4826.17 5.34729 2.25932 0
M  V30 49780 H 4828.93 2.84275 -0.949108 0
M  V30 49781 H 4826.49 1.48337 -0.648663 0
M  V30 49782 H 4828.49 3.79918 1.39442 0
M  V30 49783 H 4827.06 2.74217 1.50079 0
M  V30 49784 H 4826.28 3.87744 -0.710518 0
M  V30 49785 H 4827.56 5.06776 -0.453418 0
M  V30 49786 H 4826.96 4.95696 2.72583 0
M  V30 49787 H 4825.52 5.88667 2.79846 0
M  V30 49788 N 4828.95 0.546753 1.47812 0
M  V30 49789 C 4830.2 0.0167206 2.01693 0
M  V30 49790 C 4830.51 -1.33716 1.42756 0
M  V30 49791 O 4831.72 -1.95651 1.88236 0
M  V30 49792 C 4830.18 -0.0205504 3.59894 0
M  V30 49793 C 4829.78 1.32945 4.2782 0
M  V30 49794 C 4831.53 -0.498526 4.21563 0
M  V30 49795 C 4829.44 1.25185 5.77999 0
M  V30 49796 H 4828.37 0.00248061 0.753996 0
M  V30 49797 H 4831.02 0.693044 1.69909 0
M  V30 49798 H 4829.4 -0.762303 3.88594 0
M  V30 49799 H 4830.57 2.08809 4.10774 0
M  V30 49800 H 4828.89 1.74451 3.78095 0
M  V30 49801 H 4831.48 -0.574813 5.31601 0
M  V30 49802 H 4831.83 -1.50816 3.88021 0
M  V30 49803 H 4832.36 0.188049 3.97355 0
M  V30 49804 H 4829.1 2.23716 6.16142 0
M  V30 49805 H 4828.62 0.53485 5.97411 0
M  V30 49806 H 4830.3 0.949524 6.39995 0
M  V30 49807 N 4830.43 -1.55044 0.282687 0
M  V30 49808 C 4831.84 -1.85474 -0.21359 0
M  V30 49809 C 4832.19 -1.20471 -1.54859 0
M  V30 49810 O 4831.32 -0.49575 -2.10645 0
M  V30 49811 C 4831.91 -3.36497 -0.394327 0
M  V30 49812 C 4830.47 -3.67025 -0.834832 0
M  V30 49813 C 4829.62 -2.77218 0.0675055 0
M  V30 49814 H 4832.57 -1.50476 0.504255 0
M  V30 49815 H 4832.59 -3.60012 -1.23174 0
M  V30 49816 H 4832.1 -3.8378 0.577461 0
M  V30 49817 H 4830.2 -3.25248 -1.81782 0
M  V30 49818 H 4830.32 -4.74436 -0.666908 0
M  V30 49819 H 4828.68 -2.50691 -0.450108 0
M  V30 49820 H 4829.46 -3.27317 1.03531 0
M  V30 49821 N 4831.91 -0.0100904 -1.57597 0
M  V30 49822 C 4833.16 0.672633 -1.91002 0
M  V30 49823 C 4833.48 1.73216 -0.884675 0
M  V30 49824 O 4832.74 1.95395 0.109146 0
M  V30 49825 C 4833.04 1.34423 -3.31158 0
M  V30 49826 C 4832.7 0.416925 -4.48968 0
M  V30 49827 C 4831.37 0.16164 -4.80928 0
M  V30 49828 C 4833.72 -0.220936 -5.20732 0
M  V30 49829 C 4831.05 -0.739631 -5.82019 0
M  V30 49830 C 4833.4 -1.11014 -6.22783 0
M  V30 49831 C 4832.06 -1.37451 -6.53195 0
M  V30 49832 H 4831.33 0.246134 -0.698927 0
M  V30 49833 H 4833.98 -0.0677818 -1.9138 0
M  V30 49834 H 4832.28 2.15893 -3.26952 0
M  V30 49835 H 4833.98 1.8787 -3.54268 0
M  V30 49836 H 4830.57 0.626068 -4.24003 0
M  V30 49837 H 4834.75 -0.0367387 -4.96286 0
M  V30 49838 H 4830.01 -0.952352 -6.03937 0
M  V30 49839 H 4834.18 -1.6107 -6.77517 0
M  V30 49840 H 4831.81 -2.07456 -7.31345 0
M  V30 49841 N 4833.39 1.55393 0.262811 0
M  V30 49842 C 4834.8 1.67082 0.833099 0
M  V30 49843 C 4835.15 0.604604 1.86652 0
M  V30 49844 O 4834.27 -0.252062 2.14927 0
M  V30 49845 C 4834.87 3.02896 1.51787 0
M  V30 49846 C 4833.43 3.16578 2.03606 0
M  V30 49847 C 4832.57 2.62912 0.881609 0
M  V30 49848 H 4835.53 1.58652 0.0389428 0
M  V30 49849 H 4835.55 2.96454 2.38528 0
M  V30 49850 H 4835.06 3.80476 0.765486 0
M  V30 49851 H 4833.16 2.43792 2.81774 0
M  V30 49852 H 4833.27 4.23279 2.24437 0
M  V30 49853 H 4831.64 2.20329 1.27778 0
M  V30 49854 H 4832.42 3.43004 0.14257 0
M  V30 49855 N 4834.87 -0.527781 1.485 0
M  V30 49856 C 4836.28 -1.10969 1.50142 0
M  V30 49857 C 4836.63 -1.94299 0.272446 0
M  V30 49858 O 4835.75 -2.07321 -0.620228 0
M  V30 49859 C 4836.35 -2.01918 2.72056 0
M  V30 49860 C 4834.91 -2.55323 2.76563 0
M  V30 49861 C 4834.05 -1.32332 2.43687 0
M  V30 49862 H 4837 -0.312931 1.55584 0
M  V30 49863 H 4837.03 -2.86235 2.50699 0
M  V30 49864 H 4836.54 -1.41242 3.61486 0
M  V30 49865 H 4834.64 -3.19714 1.91347 0
M  V30 49866 H 4834.75 -2.94306 3.78049 0
M  V30 49867 H 4833.12 -1.63982 1.9489 0
M  V30 49868 H 4833.9 -0.734047 3.3536 0
M  V30 49869 N 4836.34 -1.37125 -0.776822 0
M  V30 49870 C 4837.31 -1.32308 -1.87156 0
M  V30 49871 C 4838.31 -0.228155 -1.59173 0
M  V30 49872 O 4839.5 -0.483701 -1.6735 0
M  V30 49873 C 4836.63 -1.05412 -3.24193 0
M  V30 49874 H 4837.82 -2.2968 -1.9284 0
M  V30 49875 H 4835.37 -1.2208 -0.976017 0
M  V30 49876 H 4836.11 -0.0855012 -3.24187 0
M  V30 49877 H 4835.89 -1.8466 -3.45895 0
M  V30 49878 H 4837.38 -1.04678 -4.04268 0
M  V30 49879 N 4837.82 1.00242 -1.21611 0
M  V30 49880 C 4839.05 1.78163 -1.06173 0
M  V30 49881 C 4839.47 1.84139 0.38397 0
M  V30 49882 O 4838.83 1.28688 1.27707 0
M  V30 49883 C 4838.88 3.1978 -1.66653 0
M  V30 49884 O 4837.98 4.0215 -0.913755 0
M  V30 49885 H 4837.32 0.548987 -0.37351 0
M  V30 49886 H 4839.85 1.25988 -1.61208 0
M  V30 49887 H 4839.86 3.70445 -1.70982 0
M  V30 49888 H 4838.54 3.14745 -2.71861 0
M  V30 49889 H 4837.11 3.60707 -0.945761 0
M  V30 49890 N 4839.3 1.02428 1.19776 0
M  V30 49891 C 4840.53 0.737524 1.93309 0
M  V30 49892 C 4840.94 -0.702961 1.75225 0
M  V30 49893 O 4840.3 -1.47757 1.07117 0
M  V30 49894 C 4840.35 1.07342 3.45196 0
M  V30 49895 O 4840.07 2.45733 3.62694 0
M  V30 49896 C 4841.57 0.808813 4.35859 0
M  V30 49897 H 4838.79 0.270221 0.614183 0
M  V30 49898 H 4841.34 1.36752 1.52049 0
M  V30 49899 H 4839.49 0.48868 3.84305 0
M  V30 49900 H 4839.91 2.58097 4.56603 0
M  V30 49901 H 4841.38 1.09384 5.41054 0
M  V30 49902 H 4841.86 -0.256871 4.38448 0
M  V30 49903 H 4842.46 1.37606 4.02423 0
M  V30 49904 N 4840.78 -1.35696 0.801525 0
M  V30 49905 C 4841.71 -2.28597 0.166109 0
M  V30 49906 C 4842.72 -1.50046 -0.631668 0
M  V30 49907 O 4843.91 -1.72341 -0.46486 0
M  V30 49908 C 4841.01 -3.29627 -0.787335 0
M  V30 49909 C 4840.18 -4.37384 -0.0370172 0
M  V30 49910 C 4839.24 -5.18303 -0.908192 0
M  V30 49911 O 4838.27 -5.68054 -0.36099 0
M  V30 49912 N 4839.47 -5.35919 -2.23093 0
M  V30 49913 H 4842.24 -2.83767 0.96417 0
M  V30 49914 H 4839.8 -1.47991 0.656521 0
M  V30 49915 H 4841.79 -3.80653 -1.37425 0
M  V30 49916 H 4840.36 -2.75009 -1.48622 0
M  V30 49917 H 4839.58 -3.87362 0.731071 0
M  V30 49918 H 4840.87 -5.06528 0.480287 0
M  V30 49919 H 4840.27 -4.97135 -2.69951 0
M  V30 49920 H 4838.82 -5.90143 -2.76721 0
M  V30 49921 N 4842.26 -0.554584 -1.4752 0
M  V30 49922 C 4843.17 0.197783 -2.33765 0
M  V30 49923 C 4844.18 0.914524 -1.48029 0
M  V30 49924 O 4845.36 0.884004 -1.80962 0
M  V30 49925 C 4842.42 1.21616 -3.2467 0
M  V30 49926 C 4841.48 0.507133 -4.26294 0
M  V30 49927 C 4840.72 1.477 -5.12855 0
M  V30 49928 O 4840.94 2.71162 -5.01824 0
M  V30 49929 O 4839.87 1.00292 -5.93486 0
M  V30 49930 H 4843.7 -0.509595 -2.99394 0
M  V30 49931 H 4841.28 -0.315227 -1.46037 0
M  V30 49932 H 4843.17 1.80408 -3.80829 0
M  V30 49933 H 4841.84 1.90551 -2.61672 0
M  V30 49934 H 4840.75 -0.12191 -3.73901 0
M  V30 49935 H 4842.08 -0.140717 -4.91999 0
M  V30 49936 N 4843.73 1.54892 -0.290906 0
M  V30 49937 C 4845.14 1.85585 0.203751 0
M  V30 49938 C 4845.5 1.2129 1.54218 0
M  V30 49939 O 4844.62 0.506915 2.10379 0
M  V30 49940 C 4845.22 3.36702 0.376476 0
M  V30 49941 C 4843.77 3.67463 0.815356 0
M  V30 49942 C 4842.92 2.77178 -0.0822061 0
M  V30 49943 H 4845.87 1.50206 -0.512228 0
M  V30 49944 H 4845.89 3.6066 1.21263 0
M  V30 49945 H 4845.41 3.83468 -0.597805 0
M  V30 49946 H 4843.51 3.26207 1.80055 0
M  V30 49947 H 4843.62 4.74783 0.641738 0
M  V30 49948 H 4841.98 2.50926 0.436807 0
M  V30 49949 H 4842.77 3.26763 -1.05266 0
M  V30 49950 N 4845.21 0.018448 1.57589 0
M  V30 49951 C 4846.14 -0.965521 2.12603 0
M  V30 49952 C 4847.12 -1.34638 1.03955 0
M  V30 49953 O 4848.31 -1.42688 1.31734 0
M  V30 49954 C 4845.44 -2.2514 2.64441 0
M  V30 49955 C 4844.39 -2.01161 3.77781 0
M  V30 49956 C 4843.72 -3.35922 4.16005 0
M  V30 49957 C 4845.02 -1.35935 5.043 0
M  V30 49958 H 4846.71 -0.5074 2.95069 0
M  V30 49959 H 4844.26 -0.242621 1.41941 0
M  V30 49960 H 4846.21 -2.94346 3.0156 0
M  V30 49961 H 4844.93 -2.73099 1.79122 0
M  V30 49962 H 4843.59 -1.34376 3.41085 0
M  V30 49963 H 4843.24 -3.81619 3.27682 0
M  V30 49964 H 4842.94 -3.20688 4.92375 0
M  V30 49965 H 4844.47 -4.06414 4.55697 0
M  V30 49966 H 4845.88 -1.95125 5.39072 0
M  V30 49967 H 4844.28 -1.31132 5.85598 0
M  V30 49968 H 4845.35 -0.330901 4.8377 0
M  V30 49969 N 4846.69 -1.5553 -0.254567 0
M  V30 49970 C 4847.64 -1.86061 -1.31777 0
M  V30 49971 C 4848.62 -0.720877 -1.43848 0
M  V30 49972 O 4849.82 -0.982638 -1.47218 0
M  V30 49973 C 4846.94 -2.15212 -2.67467 0
M  V30 49974 C 4846.03 -3.35493 -2.59432 0
M  V30 49975 N 4846.42 -4.54953 -2.21024 0
M  V30 49976 C 4844.72 -3.38451 -2.9046 0
M  V30 49977 C 4845.42 -5.37078 -2.23434 0
M  V30 49978 N 4844.4 -4.75945 -2.62635 0
M  V30 49979 H 4848.2 -2.75957 -1.01119 0
M  V30 49980 H 4845.71 -1.55654 -0.4632 0
M  V30 49981 H 4847.71 -2.35248 -3.44186 0
M  V30 49982 H 4846.37 -1.26611 -2.98998 0
M  V30 49983 H 4847.38 -4.80717 -1.92695 0
M  V30 49984 H 4844.06 -2.60098 -3.26581 0
M  V30 49985 H 4845.45 -6.42633 -1.96144 0
M  V30 49986 N 4848.17 0.519898 -1.48778 0
M  V30 49987 C 4849.1 1.63247 -1.66951 0
M  V30 49988 C 4850.08 1.62012 -0.518281 0
M  V30 49989 O 4851.26 1.7905 -0.751982 0
M  V30 49990 C 4848.39 3.01804 -1.71847 0
M  V30 49991 C 4847.35 3.17901 -2.86571 0
M  V30 49992 C 4846.67 4.5762 -2.76565 0
M  V30 49993 C 4847.97 2.99714 -4.27748 0
M  V30 49994 H 4849.67 1.48293 -2.60095 0
M  V30 49995 H 4847.21 0.711982 -1.25167 0
M  V30 49996 H 4849.17 3.79519 -1.83148 0
M  V30 49997 H 4847.89 3.17804 -0.752887 0
M  V30 49998 H 4846.55 2.42606 -2.74842 0
M  V30 49999 H 4846.2 4.70469 -1.77954 0
M  V30 50000 H 4845.9 4.69334 -3.53553 0
M  V30 50001 H 4847.42 5.37421 -2.89847 0
M  V30 50002 H 4848.84 3.67213 -4.40259 0
M  V30 50003 H 4847.23 3.22914 -5.05813 0
M  V30 50004 H 4848.3 1.96031 -4.43509 0
M  V30 50005 N 4849.65 1.37535 0.769539 0
M  V30 50006 C 4850.89 1.32603 1.52515 0
M  V30 50007 C 4851.22 -0.088361 1.948 0
M  V30 50008 O 4850.49 -1.03283 1.66462 0
M  V30 50009 H 4849.07 0.487866 0.565682 0
M  V30 50010 H 4851.73 1.72047 0.915745 0
M  V30 50011 H 4850.82 1.96652 2.42352 0
M  V30 50012 N 4851.12 -0.995956 1.22141 0
M  V30 50013 C 4852.37 -1.73163 1.04206 0
M  V30 50014 C 4852.69 -1.90331 -0.424163 0
M  V30 50015 O 4851.96 -1.46075 -1.30534 0
M  V30 50016 H 4850.54 -0.64158 0.382603 0
M  V30 50017 H 4853.21 -1.19968 1.53602 0
M  V30 50018 H 4852.3 -2.72729 1.51741 0
M  V30 50019 N 4852.6 -1.03061 -1.19231 0
M  V30 50020 C 4853.57 -0.617495 -2.20725 0
M  V30 50021 C 4854.57 0.319801 -1.57588 0
M  V30 50022 O 4855.76 0.106572 -1.73874 0
M  V30 50023 C 4852.89 0.0961762 -3.40764 0
M  V30 50024 H 4854.08 -1.51554 -2.58789 0
M  V30 50025 H 4851.63 -0.821996 -1.3294 0
M  V30 50026 H 4852.37 1.00848 -3.08221 0
M  V30 50027 H 4852.15 -0.577353 -3.87826 0
M  V30 50028 H 4853.64 0.372073 -4.15939 0
M  V30 50029 N 4854.08 1.35269 -0.80871 0
M  V30 50030 C 4855.49 1.81177 -0.450752 0
M  V30 50031 C 4855.84 1.67146 1.02745 0
M  V30 50032 O 4854.97 1.20331 1.79859 0
M  V30 50033 C 4855.56 3.28941 -0.811391 0
M  V30 50034 C 4854.12 3.72983 -0.506002 0
M  V30 50035 C 4853.27 2.57226 -1.03587 0
M  V30 50036 H 4856.22 1.23217 -1.00016 0
M  V30 50037 H 4856.24 3.80342 -0.109722 0
M  V30 50038 H 4855.75 3.39121 -1.8873 0
M  V30 50039 H 4853.85 3.68351 0.561079 0
M  V30 50040 H 4853.97 4.67673 -1.04011 0
M  V30 50041 H 4852.33 2.50547 -0.458093 0
M  V30 50042 H 4853.11 2.70182 -2.11793 0
M  V30 50043 N 4855.56 0.5624 1.47224 0
M  V30 50044 C 4856.52 -0.171976 2.28554 0
M  V30 50045 C 4857.52 -0.83788 1.37245 0
M  V30 50046 O 4858.71 -0.692945 1.59825 0
M  V30 50047 C 4855.84 -1.25212 3.17072 0
M  V30 50048 H 4857.04 0.542504 2.94952 0
M  V30 50049 H 4854.59 0.319547 1.52999 0
M  V30 50050 H 4855.32 -1.99883 2.55376 0
M  V30 50051 H 4855.11 -0.77938 3.84276 0
M  V30 50052 H 4856.6 -1.76777 3.78338 0
M  V30 50053 N 4857.04 -1.54735 0.299116 0
M  V30 50054 C 4857.98 -2.24899 -0.593579 0
M  V30 50055 C 4858.98 -1.25433 -1.13854 0
M  V30 50056 O 4860.18 -1.4329 -1.0894 0
M  V30 50057 H 4856.56 -0.722077 -0.210021 0
M  V30 50058 H 4858.53 -2.98393 0.020747 0
M  V30 50059 C 4857.28 -3.00165 -1.75488 0
M  V30 50060 H 4856.6 -3.76505 -1.34476 0
M  V30 50061 H 4858.04 -3.52543 -2.35561 0
M  V30 50062 C 4856.5 -2.07024 -2.65787 0
M  V30 50063 O 4857.03 -1.63705 -3.66829 0
M  V30 50064 N 4855.24 -1.7302 -2.33479 0
M  V30 50065 H 4854.78 -2.08444 -1.51357 0
M  V30 50066 H 4854.74 -1.10975 -2.94163 0
M  V30 50067 N 4858.51 -0.0268051 -1.57577 0
M  V30 50068 C 4859.44 0.954233 -2.13112 0
M  V30 50069 C 4860.43 1.34085 -1.04668 0
M  V30 50070 O 4861.61 1.41987 -1.32489 0
M  V30 50071 C 4858.74 2.23734 -2.65632 0
M  V30 50072 C 4857.69 1.99155 -3.78842 0
M  V30 50073 C 4857.02 3.33711 -4.17781 0
M  V30 50074 C 4858.32 1.33259 -5.05014 0
M  V30 50075 H 4860.01 0.491745 -2.95334 0
M  V30 50076 H 4857.56 0.23509 -1.42068 0
M  V30 50077 H 4859.51 2.92743 -3.03116 0
M  V30 50078 H 4858.24 2.72145 -1.80568 0
M  V30 50079 H 4856.9 1.32565 -3.41792 0
M  V30 50080 H 4856.54 3.79876 -3.29702 0
M  V30 50081 H 4856.24 3.18072 -4.94069 0
M  V30 50082 H 4857.77 4.03991 -4.57846 0
M  V30 50083 H 4859.18 1.92264 -5.401 0
M  V30 50084 H 4857.58 1.28024 -5.86285 0
M  V30 50085 H 4858.65 0.305241 -4.83938 0
M  V30 50086 N 4859.99 1.55663 0.246315 0
M  V30 50087 C 4861.22 1.81578 0.991813 0
M  V30 50088 C 4861.64 0.602608 1.78925 0
M  V30 50089 O 4860.99 -0.428732 1.77393 0
M  V30 50090 C 4861.04 3.05718 1.92922 0
M  V30 50091 O 4860.76 4.22352 1.16405 0
M  V30 50092 C 4862.27 3.44437 2.79066 0
M  V30 50093 H 4859.49 0.604219 0.291822 0
M  V30 50094 H 4862.03 2.02723 0.269024 0
M  V30 50095 H 4860.18 2.86622 2.60628 0
M  V30 50096 H 4860.6 4.92713 1.79818 0
M  V30 50097 H 4862.07 4.344 3.40588 0
M  V30 50098 H 4862.55 2.6505 3.50208 0
M  V30 50099 H 4863.16 3.65886 2.16811 0
M  V30 50100 N 4861.47 -0.512001 1.49051 0
M  V30 50101 C 4862.7 -1.2911 1.61673 0
M  V30 50102 C 4863.11 -1.86654 0.283853 0
M  V30 50103 O 4862.47 -1.67296 -0.729272 0
M  V30 50104 C 4862.52 -2.42921 2.67716 0
M  V30 50105 O 4862.24 -1.87744 3.95833 0
M  V30 50106 C 4863.74 -3.34466 2.90942 0
M  V30 50107 H 4860.96 -0.39199 0.544596 0
M  V30 50108 H 4863.51 -0.615812 1.95008 0
M  V30 50109 H 4861.66 -3.063 2.3719 0
M  V30 50110 H 4862.08 -2.62377 4.54157 0
M  V30 50111 H 4863.55 -4.10629 3.689 0
M  V30 50112 H 4864.03 -3.90794 2.0044 0
M  V30 50113 H 4864.63 -2.76863 3.22842 0
M  V30 50114 N 4862.95 -1.37941 -0.762235 0
M  V30 50115 C 4863.88 -1.37183 -1.88953 0
M  V30 50116 C 4864.86 -0.239004 -1.68413 0
M  V30 50117 O 4866.04 -0.440793 -1.89131 0
M  V30 50118 C 4863.17 -1.18754 -3.26366 0
M  V30 50119 C 4862.13 -2.29149 -3.6149 0
M  V30 50120 C 4861.45 -1.95833 -4.97547 0
M  V30 50121 C 4862.75 -3.71376 -3.67257 0
M  V30 50122 H 4864.45 -2.31516 -1.89844 0
M  V30 50123 H 4861.99 -1.11441 -0.911965 0
M  V30 50124 H 4863.95 -1.16851 -4.04875 0
M  V30 50125 H 4862.67 -0.208798 -3.25932 0
M  V30 50126 H 4861.33 -2.30223 -2.85294 0
M  V30 50127 H 4860.98 -0.964648 -4.93663 0
M  V30 50128 H 4860.68 -2.69763 -5.22017 0
M  V30 50129 H 4862.2 -1.95534 -5.78445 0
M  V30 50130 H 4863.62 -3.72379 -4.35898 0
M  V30 50131 H 4862.01 -4.44439 -4.0323 0
M  V30 50132 H 4863.08 -4.04315 -2.67689 0
M  V30 50133 N 4864.43 0.989464 -1.22668 0
M  V30 50134 C 4865.84 1.25392 -0.987375 0
M  V30 50135 C 4866.04 1.98991 0.316986 0
M  V30 50136 O 4865.1 2.30144 1.03874 0
M  V30 50137 C 4866.41 2.06234 -2.18833 0
M  V30 50138 C 4867.96 2.19406 -2.23227 0
M  V30 50139 C 4868.44 3.03636 -3.42884 0
M  V30 50140 N 4869.93 3.11222 -3.43067 0
M  V30 50141 C 4870.66 3.76695 -4.32306 0
M  V30 50142 N 4870.16 4.44066 -5.31768 0
M  V30 50143 N 4871.95 3.73491 -4.20073 0
M  V30 50144 H 4864.1 0.49614 -2.06524 0
M  V30 50145 H 4866.36 0.281752 -0.905163 0
M  V30 50146 H 4866.07 1.5952 -3.13443 0
M  V30 50147 H 4865.94 3.06988 -2.19176 0
M  V30 50148 H 4868.33 2.65332 -1.29163 0
M  V30 50149 H 4868.41 1.1807 -2.26921 0
M  V30 50150 H 4868.06 2.58409 -4.3725 0
M  V30 50151 H 4867.99 4.0512 -3.3643 0
M  V30 50152 H 4870.48 2.63277 -2.71097 0
M  V30 50153 H 4870.79 4.91776 -5.96134 0
M  V30 50154 H 4869.14 4.42804 -5.35677 0
M  V30 50155 H 4872.33 3.20021 -3.4162 0
M  V30 50156 H 4872.5 4.24236 -4.89824 0
M  V30 50157 N 4865.91 1.03692 1.18683 0
M  V30 50158 C 4867.15 0.733302 1.87898 0
M  V30 50159 C 4867.47 -0.741681 1.80993 0
M  V30 50160 O 4868.67 -1.15867 2.45534 0
M  V30 50161 C 4867.13 1.26139 3.37071 0
M  V30 50162 C 4866.74 2.76473 3.52515 0
M  V30 50163 C 4868.48 1.03413 4.11711 0
M  V30 50164 C 4866.39 3.22659 4.95626 0
M  V30 50165 H 4865.32 0.270609 0.703766 0
M  V30 50166 H 4867.97 1.25227 1.34129 0
M  V30 50167 H 4866.35 0.670302 3.90286 0
M  V30 50168 H 4867.53 3.41307 3.0959 0
M  V30 50169 H 4865.84 2.9757 2.91275 0
M  V30 50170 H 4868.44 1.35438 5.17263 0
M  V30 50171 H 4868.78 -0.0287782 4.1629 0
M  V30 50172 H 4869.31 1.58963 3.64658 0
M  V30 50173 H 4866.05 4.28314 4.96213 0
M  V30 50174 H 4865.57 2.62558 5.3928 0
M  V30 50175 H 4867.25 3.16464 5.64322 0
M  V30 50176 N 4867.38 -1.34838 0.815872 0
M  V30 50177 C 4868.79 -1.80935 0.460353 0
M  V30 50178 C 4869.15 -1.67689 -1.01857 0
M  V30 50179 O 4868.27 -1.21283 -1.79219 0
M  V30 50180 C 4868.87 -3.28506 0.828824 0
M  V30 50181 C 4867.42 -3.7271 0.525775 0
M  V30 50182 C 4866.57 -2.56673 1.0495 0
M  V30 50183 H 4869.52 -1.22685 1.00668 0
M  V30 50184 H 4869.54 -3.80278 0.12989 0
M  V30 50185 H 4869.06 -3.38115 1.90525 0
M  V30 50186 H 4867.16 -3.68644 -0.541537 0
M  V30 50187 H 4867.27 -4.67115 1.0649 0
M  V30 50188 H 4865.63 -2.503 0.471374 0
M  V30 50189 H 4866.42 -2.69055 2.13223 0
M  V30 50190 N 4868.86 -0.570199 -1.46923 0
M  V30 50191 C 4870.11 -0.0510997 -2.02736 0
M  V30 50192 C 4870.44 1.30055 -1.4422 0
M  V30 50193 O 4869.72 1.8493 -0.602586 0
M  V30 50194 C 4870 0.0280884 -3.60089 0
M  V30 50195 C 4869.85 -1.35158 -4.29013 0
M  V30 50196 C 4871.17 0.735028 -4.33919 0
M  V30 50197 H 4868.29 -0.0200437 -0.736727 0
M  V30 50198 H 4870.93 -0.734991 -1.75208 0
M  V30 50199 H 4869.08 0.610513 -3.83673 0
M  V30 50200 H 4870.75 -1.9782 -4.16731 0
M  V30 50201 H 4869 -1.92274 -3.88862 0
M  V30 50202 H 4869.67 -1.24876 -5.3769 0
M  V30 50203 H 4872.14 0.240373 -4.15405 0
M  V30 50204 H 4871.02 0.759431 -5.43621 0
M  V30 50205 H 4871.28 1.79382 -4.04072 0
M  V30 50206 N 4870.34 1.54575 -0.307318 0
M  V30 50207 C 4871.59 2.01273 0.293382 0
M  V30 50208 C 4871.94 1.19184 1.5104 0
M  V30 50209 O 4871.23 0.261771 1.89803 0
M  V30 50210 C 4871.43 3.50575 0.69513 0
M  V30 50211 C 4871.26 4.47116 -0.481406 0
M  V30 50212 C 4870.03 4.95796 -0.975414 0
M  V30 50213 C 4872.22 4.96848 -1.32841 0
M  V30 50214 N 4870.21 5.76205 -2.11805 0
M  V30 50215 C 4871.58 5.7502 -2.31844 0
M  V30 50216 C 4873.63 4.79021 -1.35805 0
M  V30 50217 C 4872.34 6.37264 -3.33596 0
M  V30 50218 C 4874.36 5.42089 -2.36419 0
M  V30 50219 C 4873.72 6.20099 -3.34151 0
M  V30 50220 H 4869.82 0.778711 0.0716432 0
M  V30 50221 H 4872.41 1.89694 -0.438669 0
M  V30 50222 H 4870.58 3.62432 1.39634 0
M  V30 50223 H 4872.31 3.84061 1.27591 0
M  V30 50224 H 4869.06 4.70403 -0.549349 0
M  V30 50225 H 4869.49 6.21091 -2.69397 0
M  V30 50226 H 4874.13 4.18286 -0.616168 0
M  V30 50227 H 4871.85 6.9713 -4.087 0
M  V30 50228 H 4875.43 5.30221 -2.39494 0
M  V30 50229 H 4874.31 6.68034 -4.10731 0
M  V30 50230 N 4871.82 0.0351614 1.57561 0
M  V30 50231 C 4872.76 -0.944666 2.10582 0
M  V30 50232 C 4873.73 -1.31916 1.00932 0
M  V30 50233 O 4874.92 -1.41143 1.28387 0
M  V30 50234 C 4872.06 -2.21973 2.64239 0
M  V30 50235 C 4871.17 -1.90114 3.87918 0
M  V30 50236 C 4870.31 -3.1196 4.29947 0
M  V30 50237 C 4869.35 -2.75949 5.46369 0
M  V30 50238 N 4868.48 -3.90439 5.83525 0
M  V30 50239 H 4873.32 -0.485614 2.94017 0
M  V30 50240 H 4870.86 -0.228092 1.45321 0
M  V30 50241 H 4872.82 -2.96561 2.9344 0
M  V30 50242 H 4871.45 -2.65484 1.83625 0
M  V30 50243 H 4870.5 -1.05743 3.65408 0
M  V30 50244 H 4871.81 -1.59596 4.72579 0
M  V30 50245 H 4870.97 -3.94863 4.60617 0
M  V30 50246 H 4869.71 -3.45645 3.44066 0
M  V30 50247 H 4868.71 -1.9146 5.15387 0
M  V30 50248 H 4869.94 -2.43474 6.33953 0
M  V30 50249 H 4867.88 -4.23954 5.00599 0
M  V30 50250 H 4867.8 -3.63565 6.6284 0
M  V30 50251 H 4869.07 -4.74028 6.18804 0
M  V30 50252 N 4873.3 -1.55792 -0.238056 0
M  V30 50253 C 4874.52 -1.82443 -0.986368 0
M  V30 50254 C 4874.95 -0.613376 -1.77818 0
M  V30 50255 O 4874.3 0.437705 -1.75937 0
M  V30 50256 C 4874.35 -3.06923 -1.89289 0
M  V30 50257 O 4873.46 -2.84459 -2.98591 0
M  V30 50258 H 4872.8 -0.601985 -0.280197 0
M  V30 50259 H 4875.33 -2.02987 -0.256366 0
M  V30 50260 H 4875.34 -3.36591 -2.30587 0
M  V30 50261 H 4874.01 -3.94704 -1.31077 0
M  V30 50262 H 4872.59 -2.65982 -2.61358 0
M  V30 50263 N 4874.77 0.504089 -1.49321 0
M  V30 50264 C 4876.02 1.25841 -1.58652 0
M  V30 50265 C 4876.35 1.92591 -0.271838 0
M  V30 50266 O 4875.6 1.8117 0.740006 0
M  V30 50267 C 4875.9 2.35012 -2.69266 0
M  V30 50268 C 4875.57 1.85741 -4.10866 0
M  V30 50269 C 4874.23 1.72022 -4.49402 0
M  V30 50270 C 4876.58 1.48826 -4.995 0
M  V30 50271 C 4873.91 1.19763 -5.74346 0
M  V30 50272 C 4876.26 0.980202 -6.2496 0
M  V30 50273 C 4874.93 0.829389 -6.62327 0
M  V30 50274 H 4874.2 0.460484 -0.580547 0
M  V30 50275 H 4876.84 0.559652 -1.8314 0
M  V30 50276 H 4875.15 3.10663 -2.38737 0
M  V30 50277 H 4876.85 2.93073 -2.73695 0
M  V30 50278 H 4873.44 1.97377 -3.80448 0
M  V30 50279 H 4877.62 1.58273 -4.70386 0
M  V30 50280 H 4872.88 1.06796 -6.02001 0
M  V30 50281 H 4877.05 0.685365 -6.93019 0
M  V30 50282 H 4874.68 0.422263 -7.59026 0
M  V30 50283 N 4876.25 1.38343 0.754909 0
M  V30 50284 C 4877.5 1.34478 1.51399 0
M  V30 50285 C 4877.83 -0.0655774 1.94389 0
M  V30 50286 O 4877.08 -1.04239 1.65629 0
M  V30 50287 C 4877.38 2.2453 2.78067 0
M  V30 50288 C 4877.05 3.72521 2.54046 0
M  V30 50289 C 4875.71 4.12848 2.47204 0
M  V30 50290 C 4878.06 4.66206 2.33028 0
M  V30 50291 C 4875.39 5.44952 2.17357 0
M  V30 50292 C 4877.74 5.98565 2.04702 0
M  V30 50293 C 4876.4 6.37979 1.96315 0
M  V30 50294 H 4875.67 0.492092 0.55401 0
M  V30 50295 H 4878.32 1.7069 0.868163 0
M  V30 50296 H 4876.63 1.81369 3.47293 0
M  V30 50297 H 4878.32 2.18844 3.36019 0
M  V30 50298 H 4874.91 3.40547 2.60241 0
M  V30 50299 H 4879.1 4.35896 2.37293 0
M  V30 50300 H 4874.35 5.74433 2.09371 0
M  V30 50301 H 4878.53 6.707 1.87442 0
M  V30 50302 H 4876.15 7.40265 1.72952 0
M  V30 50303 N 4877.73 -0.982945 1.23191 0
M  V30 50304 C 4878.98 -1.72048 1.06037 0
M  V30 50305 C 4879.3 -1.9077 -0.403952 0
M  V30 50306 O 4878.57 -1.47451 -1.28977 0
M  V30 50307 H 4877.15 -0.637485 0.389386 0
M  V30 50308 H 4879.81 -1.18333 1.54866 0
M  V30 50309 H 4878.91 -2.71104 1.54625 0
M  V30 50310 N 4879.21 -1.0432 -1.18132 0
M  V30 50311 C 4880.45 -0.757004 -1.89865 0
M  V30 50312 C 4880.81 0.702546 -1.78685 0
M  V30 50313 O 4882.01 1.10246 -2.45151 0
M  V30 50314 C 4880.28 -1.21339 -3.36172 0
M  V30 50315 S 4881.84 -1.05322 -4.25973 0
M  V30 50316 H 4878.66 -0.275167 -0.655595 0
M  V30 50317 H 4881.26 -1.33602 -1.42726 0
M  V30 50318 H 4879.97 -2.27098 -3.4184 0
M  V30 50319 H 4879.5 -0.628274 -3.88351 0
M  V30 50320 H 4881.51 0.0278349 -4.96192 0
M  V30 50321 N 4880.69 1.34403 -0.823012 0
M  V30 50322 C 4881.62 2.32051 -0.25969 0
M  V30 50323 C 4882.6 1.58245 0.623905 0
M  V30 50324 O 4883.78 1.86226 0.550765 0
M  V30 50325 C 4880.91 3.42436 0.579194 0
M  V30 50326 C 4879.87 4.27498 -0.207271 0
M  V30 50327 C 4879.19 5.29352 0.75436 0
M  V30 50328 C 4880.49 5.02753 -1.41551 0
M  V30 50329 H 4882.19 2.79414 -1.07555 0
M  V30 50330 H 4879.73 1.34336 -0.51864 0
M  V30 50331 H 4881.69 4.09763 0.983468 0
M  V30 50332 H 4880.41 2.93722 1.4281 0
M  V30 50333 H 4879.07 3.61774 -0.592914 0
M  V30 50334 H 4878.72 4.769 1.59923 0
M  V30 50335 H 4878.42 5.8714 0.232355 0
M  V30 50336 H 4879.94 5.99548 1.15649 0
M  V30 50337 H 4881.35 5.62935 -1.08524 0
M  V30 50338 H 4879.75 5.70116 -1.87316 0
M  V30 50339 H 4880.82 4.32443 -2.19365 0
M  V30 50340 N 4882.16 0.577983 1.46619 0
M  V30 50341 C 4883.58 0.239297 1.57796 0
M  V30 50342 C 4883.78 -1.25838 1.57376 0
M  V30 50343 O 4882.84 -2.03982 1.4882 0
M  V30 50344 C 4884.15 0.884328 2.87402 0
M  V30 50345 C 4885.7 0.857479 3.01025 0
M  V30 50346 C 4886.17 1.48196 4.33361 0
M  V30 50347 N 4887.66 1.44609 4.40048 0
M  V30 50348 C 4888.4 1.89871 5.41051 0
M  V30 50349 N 4887.89 2.43085 6.48754 0
M  V30 50350 N 4889.69 1.80816 5.32224 0
M  V30 50351 H 4881.84 1.55078 1.45136 0
M  V30 50352 H 4884.1 0.647928 0.692021 0
M  V30 50353 H 4883.81 1.93769 2.93507 0
M  V30 50354 H 4883.68 0.389717 3.75181 0
M  V30 50355 H 4886.07 -0.187254 2.94505 0
M  V30 50356 H 4886.15 1.39006 2.14735 0
M  V30 50357 H 4885.79 2.52587 4.40638 0
M  V30 50358 H 4885.72 0.924646 5.18419 0
M  V30 50359 H 4888.21 1.05706 3.62815 0
M  V30 50360 H 4888.53 2.75492 7.22028 0
M  V30 50361 H 4886.87 2.47108 6.49587 0
M  V30 50362 H 4890.06 1.39005 4.46985 0
M  V30 50363 H 4890.24 2.16407 6.10796 0
M  V30 50364 N 4883.64 -1.54409 0.315511 0
M  V30 50365 C 4884.59 -2.25516 -0.569692 0
M  V30 50366 C 4885.58 -1.26634 -1.12518 0
M  V30 50367 O 4886.79 -1.44437 -1.07414 0
M  V30 50368 H 4883.17 -0.724264 -0.20235 0
M  V30 50369 H 4885.14 -2.98354 0.0523944 0
M  V30 50370 C 4883.89 -3.0201 -1.72294 0
M  V30 50371 H 4883.21 -3.7791 -1.30475 0
M  V30 50372 H 4884.65 -3.55022 -2.31809 0
M  V30 50373 C 4883.11 -2.09832 -2.63576 0
M  V30 50374 O 4883.64 -1.67587 -3.65072 0
M  V30 50375 N 4881.84 -1.75487 -2.31631 0
M  V30 50376 H 4881.39 -2.10037 -1.49138 0
M  V30 50377 H 4881.35 -1.14089 -2.92969 0
M  V30 50378 N 4885.12 -0.0435168 -1.5754 0
M  V30 50379 C 4886.37 0.631387 -1.91563 0
M  V30 50380 C 4886.68 1.72454 -0.92298 0
M  V30 50381 O 4887.89 2.45708 -1.15498 0
M  V30 50382 C 4886.34 1.17435 -3.40202 0
M  V30 50383 C 4885.95 0.11371 -4.47856 0
M  V30 50384 C 4887.7 1.82493 -3.83271 0
M  V30 50385 C 4885.6 0.669119 -5.87603 0
M  V30 50386 H 4884.53 0.239604 -0.714917 0
M  V30 50387 H 4887.18 -0.111162 -1.83163 0
M  V30 50388 H 4885.57 1.96897 -3.43581 0
M  V30 50389 H 4886.74 -0.659508 -4.56056 0
M  V30 50390 H 4885.06 -0.438966 -4.1408 0
M  V30 50391 H 4887.65 2.2503 -4.85042 0
M  V30 50392 H 4888 2.67354 -3.19104 0
M  V30 50393 H 4888.53 1.09699 -3.82375 0
M  V30 50394 H 4885.27 -0.14168 -6.55347 0
M  V30 50395 H 4884.79 1.4105 -5.82979 0
M  V30 50396 H 4886.47 1.1544 -6.36618 0
M  V30 50397 N 4886.6 1.55916 0.229791 0
M  V30 50398 C 4887.55 1.88134 1.288 0
M  V30 50399 C 4888.53 0.743671 1.42683 0
M  V30 50400 O 4889.72 1.00593 1.45636 0
M  V30 50401 C 4886.85 2.1944 2.64009 0
M  V30 50402 C 4885.94 3.39578 2.54062 0
M  V30 50403 N 4886.33 4.58411 2.13758 0
M  V30 50404 C 4884.63 3.43029 2.85039 0
M  V30 50405 C 4885.33 5.40564 2.14861 0
M  V30 50406 N 4884.31 4.80063 2.5503 0
M  V30 50407 H 4888.11 2.7753 0.967163 0
M  V30 50408 H 4885.62 1.56371 0.438378 0
M  V30 50409 H 4887.62 2.40693 3.404 0
M  V30 50410 H 4886.28 1.31352 2.96946 0
M  V30 50411 H 4887.29 4.83722 1.85023 0
M  V30 50412 H 4883.97 2.65261 3.22402 0
M  V30 50413 H 4885.36 6.45672 1.85895 0
M  V30 50414 N 4888.08 -0.496163 1.49586 0
M  V30 50415 C 4889.32 -1.25183 1.59553 0
M  V30 50416 C 4889.66 -1.92119 0.283534 0
M  V30 50417 O 4888.93 -1.8095 -0.71326 0
M  V30 50418 C 4889.21 -2.31506 2.7582 0
M  V30 50419 C 4889.07 -1.6904 4.16828 0
M  V30 50420 C 4890.39 -3.3303 2.87714 0
M  V30 50421 H 4887.5 -0.45377 0.580743 0
M  V30 50422 H 4890.15 -0.549263 1.81888 0
M  V30 50423 H 4888.3 -2.91429 2.56908 0
M  V30 50424 H 4889.97 -1.12908 4.47269 0
M  V30 50425 H 4888.21 -0.994337 4.2225 0
M  V30 50426 H 4888.88 -2.46182 4.94063 0
M  V30 50427 H 4891.36 -2.83103 3.04945 0
M  V30 50428 H 4890.23 -4.04781 3.70734 0
M  V30 50429 H 4890.5 -3.95648 1.97269 0
M  V30 50430 N 4889.55 -1.38742 -0.747561 0
M  V30 50431 C 4890.5 -1.3658 -1.88278 0
M  V30 50432 C 4891.5 -0.250771 -1.67534 0
M  V30 50433 O 4892.7 -0.420134 -1.75028 0
M  V30 50434 H 4889.08 -0.426212 -0.619554 0
M  V30 50435 H 4891.05 -2.32362 -1.87217 0
M  V30 50436 C 4889.8 -1.21372 -3.25828 0
M  V30 50437 H 4889.12 -2.06436 -3.4238 0
M  V30 50438 H 4890.56 -1.23915 -4.05489 0
M  V30 50439 C 4889.02 0.0788915 -3.36808 0
M  V30 50440 O 4889.55 1.05371 -3.87634 0
M  V30 50441 N 4887.76 0.137748 -2.90273 0
M  V30 50442 H 4887.3 -0.656216 -2.49102 0
M  V30 50443 H 4887.26 1.00218 -2.98 0
M  V30 50444 N 4891.03 0.976398 -1.2371 0
M  V30 50445 C 4891.98 2.05437 -0.988923 0
M  V30 50446 C 4892.97 1.60762 0.0665336 0
M  V30 50447 O 4894.16 1.76396 -0.146102 0
M  V30 50448 C 4891.29 3.38256 -0.586342 0
M  V30 50449 C 4890.37 3.89517 -1.67741 0
M  V30 50450 N 4890.76 4.13812 -2.90849 0
M  V30 50451 C 4889.06 4.18091 -1.55292 0
M  V30 50452 C 4889.76 4.55719 -3.61518 0
M  V30 50453 N 4888.74 4.60384 -2.89046 0
M  V30 50454 H 4892.54 2.22184 -1.92383 0
M  V30 50455 H 4890.06 1.1595 -1.13708 0
M  V30 50456 H 4892.05 4.15074 -0.389804 0
M  V30 50457 H 4890.71 3.22899 0.34148 0
M  V30 50458 H 4891.72 4.01518 -3.27115 0
M  V30 50459 H 4888.4 4.11717 -0.692495 0
M  V30 50460 H 4889.79 4.83001 -4.67076 0
M  V30 50461 N 4892.51 1.04945 1.17577 0
M  V30 50462 C 4893.76 0.753189 1.87109 0
M  V30 50463 C 4894.07 -0.722443 1.81769 0
M  V30 50464 O 4895.28 -1.13256 2.4675 0
M  V30 50465 C 4893.73 1.29707 3.35714 0
M  V30 50466 C 4893.34 2.80197 3.49562 0
M  V30 50467 C 4895.09 1.07774 4.10591 0
M  V30 50468 C 4892.99 3.27898 4.92176 0
M  V30 50469 H 4891.92 0.278058 0.700856 0
M  V30 50470 H 4894.57 1.26642 1.32793 0
M  V30 50471 H 4892.96 0.711659 3.89553 0
M  V30 50472 H 4894.13 3.44571 3.05953 0
M  V30 50473 H 4892.45 3.00642 2.88103 0
M  V30 50474 H 4895.04 1.40917 5.15797 0
M  V30 50475 H 4895.39 0.0153765 4.16297 0
M  V30 50476 H 4895.92 1.62822 3.62952 0
M  V30 50477 H 4892.66 4.33553 4.91643 0
M  V30 50478 H 4892.18 2.68263 5.36465 0
M  V30 50479 H 4893.86 3.22432 5.60934 0
M  V30 50480 N 4893.99 -1.33965 0.830128 0
M  V30 50481 C 4895.4 -1.80437 0.479518 0
M  V30 50482 C 4895.75 -1.6876 -1.00073 0
M  V30 50483 O 4894.88 -1.23177 -1.77922 0
M  V30 50484 C 4895.47 -3.27608 0.86362 0
M  V30 50485 C 4894.03 -3.72131 0.565276 0
M  V30 50486 C 4893.18 -2.55545 1.07666 0
M  V30 50487 H 4896.13 -1.2161 1.01964 0
M  V30 50488 H 4896.15 -3.80119 0.170217 0
M  V30 50489 H 4895.66 -3.36075 1.94101 0
M  V30 50490 H 4893.76 -3.69197 -0.502407 0
M  V30 50491 H 4893.88 -4.6596 1.11439 0
M  V30 50492 H 4892.24 -2.49786 0.497895 0
M  V30 50493 H 4893.02 -2.66779 2.16065 0
M  V30 50494 N 4895.47 -0.585751 -1.4631 0
M  V30 50495 C 4896.71 -0.0725996 -2.0267 0
M  V30 50496 C 4897.05 1.28518 -1.45591 0
M  V30 50497 O 4896.32 1.84281 -0.622166 0
M  V30 50498 C 4896.6 -0.0101054 -3.60099 0
M  V30 50499 C 4896.46 -1.397 -4.27556 0
M  V30 50500 C 4897.78 0.688964 -4.34674 0
M  V30 50501 H 4894.9 -0.0278566 -0.736473 0
M  V30 50502 H 4897.54 -0.753533 -1.74419 0
M  V30 50503 H 4895.69 0.569785 -3.84299 0
M  V30 50504 H 4897.36 -2.02229 -4.1461 0
M  V30 50505 H 4895.6 -1.96387 -3.868 0
M  V30 50506 H 4896.27 -1.30572 -5.36335 0
M  V30 50507 H 4898.75 0.1963 -4.15637 0
M  V30 50508 H 4897.63 0.70173 -5.44396 0
M  V30 50509 H 4897.89 1.75087 -4.05952 0
M  V30 50510 N 4896.95 1.5424 -0.323695 0
M  V30 50511 C 4898.36 1.85975 0.16434 0
M  V30 50512 C 4898.71 1.24534 1.5161 0
M  V30 50513 O 4897.83 0.551425 2.09256 0
M  V30 50514 C 4898.43 3.37425 0.304972 0
M  V30 50515 C 4896.99 3.6911 0.737228 0
M  V30 50516 C 4896.13 2.76941 -0.140981 0
M  V30 50517 H 4899.08 1.49086 -0.543974 0
M  V30 50518 H 4899.11 3.63151 1.13585 0
M  V30 50519 H 4898.62 3.82114 -0.67901 0
M  V30 50520 H 4896.72 3.29953 1.73095 0
M  V30 50521 H 4896.83 4.76037 0.540886 0
M  V30 50522 H 4895.2 2.51797 0.383483 0
M  V30 50523 H 4895.98 3.24457 -1.12173 0
M  V30 50524 N 4898.42 0.0518709 1.57515 0
M  V30 50525 C 4899.67 -0.622677 1.93004 0
M  V30 50526 C 4900 -1.70453 0.930559 0
M  V30 50527 O 4899.28 -1.94452 -0.0433402 0
M  V30 50528 C 4899.56 -1.21812 3.38871 0
M  V30 50529 C 4899.41 -0.144276 4.49569 0
M  V30 50530 C 4900.73 -2.12955 3.85147 0
M  V30 50531 H 4897.85 -0.224885 0.701852 0
M  V30 50532 H 4900.49 0.113778 1.89659 0
M  V30 50533 H 4898.64 -1.84578 3.41853 0
M  V30 50534 H 4900.32 0.487691 4.58715 0
M  V30 50535 H 4898.56 0.527575 4.3058 0
M  V30 50536 H 4899.23 -0.600934 5.48719 0
M  V30 50537 H 4901.71 -1.6015 3.84046 0
M  V30 50538 H 4900.58 -2.51561 4.87861 0
M  V30 50539 H 4900.84 -3.02992 3.21944 0
M  V30 50540 N 4899.9 -1.56035 -0.221519 0
M  V30 50541 C 4901.13 -1.83133 -0.9628 0
M  V30 50542 C 4901.54 -0.630997 -1.77943 0
M  V30 50543 O 4900.9 0.400457 -1.78052 0
M  V30 50544 C 4900.95 -3.08748 -1.88034 0
M  V30 50545 O 4900.67 -4.24151 -1.09671 0
M  V30 50546 C 4902.17 -3.48833 -2.73551 0
M  V30 50547 H 4899.39 -0.608785 -0.282173 0
M  V30 50548 H 4901.94 -2.03125 -0.236739 0
M  V30 50549 H 4900.09 -2.90732 -2.56035 0
M  V30 50550 H 4900.51 -4.95511 -1.71956 0
M  V30 50551 H 4901.98 -4.39764 -3.33634 0
M  V30 50552 H 4902.46 -2.70588 -3.45947 0
M  V30 50553 H 4903.06 -3.69289 -2.10963 0
M  V30 50554 N 4901.38 0.488223 -1.49847 0
M  V30 50555 C 4902.29 1.61445 -1.70213 0
M  V30 50556 C 4903.31 1.63875 -0.584904 0
M  V30 50557 O 4904.48 1.8206 -0.861171 0
M  V30 50558 C 4901.55 2.97754 -1.77605 0
M  V30 50559 C 4900.61 3.0585 -3.01254 0
M  V30 50560 C 4899.84 4.35657 -3.08284 0
M  V30 50561 O 4900.06 5.25189 -2.22559 0
M  V30 50562 O 4899 4.48991 -4.00863 0
M  V30 50563 H 4902.82 1.4719 -2.65648 0
M  V30 50564 H 4900.41 0.665892 -1.33739 0
M  V30 50565 H 4902.29 3.78744 -1.84746 0
M  V30 50566 H 4900.97 3.12245 -0.853509 0
M  V30 50567 H 4899.87 2.24001 -2.99624 0
M  V30 50568 H 4901.21 2.96291 -3.9303 0
M  V30 50569 N 4902.86 1.39136 0.740193 0
M  V30 50570 C 4903.82 1.37223 1.83582 0
M  V30 50571 C 4904.82 0.270277 1.58512 0
M  V30 50572 O 4906.01 0.527901 1.66009 0
M  V30 50573 C 4903.14 1.1397 3.21284 0
M  V30 50574 H 4904.34 2.34712 1.86683 0
M  V30 50575 H 4901.89 1.24625 0.943306 0
M  V30 50576 H 4902.62 0.171424 3.23847 0
M  V30 50577 H 4902.41 1.93766 3.40877 0
M  V30 50578 H 4903.9 1.1536 4.0135 0
M  V30 50579 N 4904.34 -0.969824 1.24226 0
M  V30 50580 C 4905.27 -2.08187 1.05737 0
M  V30 50581 C 4906.25 -1.70075 -0.0290167 0
M  V30 50582 O 4907.43 -1.93712 0.137651 0
M  V30 50583 C 4904.56 -3.40988 0.659114 0
M  V30 50584 C 4903.52 -3.93048 1.69403 0
M  V30 50585 C 4902.84 -5.22167 1.1509 0
M  V30 50586 C 4904.14 -4.21126 3.0895 0
M  V30 50587 H 4905.84 -2.23914 1.98753 0
M  V30 50588 H 4903.38 -1.07598 0.957005 0
M  V30 50589 H 4905.33 -4.18219 0.516767 0
M  V30 50590 H 4904.06 -3.25156 -0.306745 0
M  V30 50591 H 4902.72 -3.17971 1.82455 0
M  V30 50592 H 4902.37 -5.02693 0.175715 0
M  V30 50593 H 4902.07 -5.57966 1.84248 0
M  V30 50594 H 4903.59 -6.0201 1.02063 0
M  V30 50595 H 4905 -4.8907 2.99139 0
M  V30 50596 H 4903.4 -4.68149 3.75441 0
M  V30 50597 H 4904.47 -3.27983 3.57148 0
M  V30 50598 N 4905.81 -1.05567 -1.17018 0
M  V30 50599 C 4906.72 -0.670837 -2.24804 0
M  V30 50600 C 4907.74 0.309805 -1.7122 0
M  V30 50601 O 4908.92 0.160954 -2.00756 0
M  V30 50602 C 4905.98 -0.0554589 -3.46656 0
M  V30 50603 C 4905.04 -1.08703 -4.1531 0
M  V30 50604 C 4904.27 -0.500923 -5.31344 0
M  V30 50605 O 4904.5 0.688519 -5.66229 0
M  V30 50606 O 4903.43 -1.23704 -5.89051 0
M  V30 50607 H 4907.26 -1.56923 -2.60017 0
M  V30 50608 H 4904.84 -0.827471 -1.24392 0
M  V30 50609 H 4906.72 0.286344 -4.20426 0
M  V30 50610 H 4905.4 0.816528 -3.13232 0
M  V30 50611 H 4904.31 -1.48089 -3.43541 0
M  V30 50612 H 4905.64 -1.93029 -4.5277 0
M  V30 50613 N 4907.29 1.33523 -0.837221 0
M  V30 50614 C 4908.54 1.98129 -0.432774 0
M  V30 50615 C 4908.87 1.66172 1.00502 0
M  V30 50616 O 4908.15 0.940749 1.70236 0
M  V30 50617 C 4908.43 3.54149 -0.651958 0
M  V30 50618 C 4908.28 3.95799 -2.1369 0
M  V30 50619 C 4909.6 4.39993 -0.0970484 0
M  V30 50620 H 4906.72 0.719707 -0.158715 0
M  V30 50621 H 4909.36 1.5819 -1.05243 0
M  V30 50622 H 4907.51 3.883 -0.124505 0
M  V30 50623 H 4909.18 3.71912 -2.72909 0
M  V30 50624 H 4907.43 3.4559 -2.62203 0
M  V30 50625 H 4908.1 5.04462 -2.24102 0
M  V30 50626 H 4910.57 4.12477 -0.547878 0
M  V30 50627 H 4909.45 5.48185 -0.280109 0
M  V30 50628 H 4909.71 4.30664 0.999048 0
M  V30 50629 N 4908.77 0.593501 1.45998 0
M  V30 50630 C 4909.7 -0.171489 2.28558 0
M  V30 50631 C 4910.72 -0.845224 1.3914 0
M  V30 50632 O 4911.9 -0.712975 1.63643 0
M  V30 50633 C 4909 -1.263 3.14486 0
M  V30 50634 C 4908.18 -0.679106 4.32096 0
M  V30 50635 C 4907.24 -1.6597 4.9934 0
M  V30 50636 O 4906.26 -1.19151 5.56589 0
M  V30 50637 N 4907.46 -2.99397 4.97335 0
M  V30 50638 H 4910.23 0.536875 2.94852 0
M  V30 50639 H 4907.79 0.432009 1.5603 0
M  V30 50640 H 4909.78 -1.9185 3.56336 0
M  V30 50641 H 4908.35 -1.87407 2.50194 0
M  V30 50642 H 4907.57 0.154131 3.93899 0
M  V30 50643 H 4908.86 -0.268981 5.08089 0
M  V30 50644 H 4908.26 -3.40048 4.52088 0
M  V30 50645 H 4906.82 -3.60407 5.43093 0
M  V30 50646 N 4910.25 -1.54066 0.33187 0
M  V30 50647 C 4911.5 -2.0032 -0.267669 0
M  V30 50648 C 4911.82 -1.22153 -1.51998 0
M  V30 50649 O 4911.09 -0.325561 -1.93176 0
M  V30 50650 H 4909.67 -0.740018 -0.101896 0
M  V30 50651 H 4912.33 -1.89626 0.450334 0
M  V30 50652 H 4911.43 -3.07767 -0.518277 0
M  V30 50653 N 4911.73 -0.0602235 -1.57485 0
M  V30 50654 C 4913.14 0.474153 -1.80579 0
M  V30 50655 C 4913.49 1.70362 -0.973207 0
M  V30 50656 O 4912.61 2.15543 -0.192382 0
M  V30 50657 C 4913.21 0.866987 -3.27519 0
M  V30 50658 C 4911.77 1.34629 -3.515 0
M  V30 50659 C 4910.91 0.325843 -2.75379 0
M  V30 50660 H 4913.87 -0.286028 -1.56101 0
M  V30 50661 H 4913.89 1.72926 -3.38935 0
M  V30 50662 H 4913.4 -0.0280291 -3.8809 0
M  V30 50663 H 4911.5 2.26019 -2.96219 0
M  V30 50664 H 4911.61 1.3322 -4.60206 0
M  V30 50665 H 4909.98 0.800664 -2.41788 0
M  V30 50666 H 4910.76 -0.561244 -3.38681 0
M  V30 50667 N 4913.2 1.56151 0.213241 0
M  V30 50668 C 4914.45 1.79815 0.937786 0
M  V30 50669 C 4914.78 0.631266 1.83654 0
M  V30 50670 O 4914.06 -0.369097 1.90966 0
M  V30 50671 C 4914.34 3.13619 1.76961 0
M  V30 50672 C 4914.19 4.40769 0.896795 0
M  V30 50673 C 4915.51 3.4394 2.74578 0
M  V30 50674 H 4912.63 0.65415 0.339495 0
M  V30 50675 H 4915.27 1.88878 0.206164 0
M  V30 50676 H 4913.42 3.06023 2.39336 0
M  V30 50677 H 4915.1 4.60393 0.289144 0
M  V30 50678 H 4913.34 4.33327 0.202604 0
M  V30 50679 H 4914.01 5.30849 1.51339 0
M  V30 50680 H 4916.49 3.51718 2.22337 0
M  V30 50681 H 4915.36 4.38718 3.29876 0
M  V30 50682 H 4915.62 2.66522 3.5273 0
M  V30 50683 N 4914.68 -0.48027 1.50104 0
M  V30 50684 C 4915.91 -1.2612 1.64647 0
M  V30 50685 C 4916.33 -1.85255 0.325888 0
M  V30 50686 O 4915.69 -1.66856 -0.709135 0
M  V30 50687 C 4915.74 -2.35233 2.73309 0
M  V30 50688 O 4914.84 -3.39638 2.33923 0
M  V30 50689 H 4914.18 -0.371443 0.550387 0
M  V30 50690 H 4916.71 -0.572627 1.96423 0
M  V30 50691 H 4916.72 -2.80685 2.96108 0
M  V30 50692 H 4915.4 -1.91561 3.69157 0
M  V30 50693 H 4913.98 -2.99961 2.21535 0
M  V30 50694 N 4916.16 -1.39527 -0.732804 0
M  V30 50695 C 4917.09 -1.4116 -1.86 0
M  V30 50696 C 4918.07 -0.274673 -1.67868 0
M  V30 50697 O 4919.26 -0.480811 -1.88154 0
M  V30 50698 C 4916.39 -1.2565 -3.23774 0
M  V30 50699 C 4915.34 -2.36765 -3.56548 0
M  V30 50700 C 4914.67 -2.06343 -4.93282 0
M  V30 50701 C 4915.97 -3.79082 -3.59297 0
M  V30 50702 H 4917.66 -2.3549 -1.84891 0
M  V30 50703 H 4915.21 -1.13351 -0.888122 0
M  V30 50704 H 4917.16 -1.25413 -4.02305 0
M  V30 50705 H 4915.88 -0.277886 -3.25416 0
M  V30 50706 H 4914.54 -2.36223 -2.80347 0
M  V30 50707 H 4914.19 -1.06914 -4.91506 0
M  V30 50708 H 4913.89 -2.80775 -5.16177 0
M  V30 50709 H 4915.41 -2.07759 -5.74168 0
M  V30 50710 H 4916.83 -3.81541 -4.27901 0
M  V30 50711 H 4915.23 -4.52892 -3.93712 0
M  V30 50712 H 4916.3 -4.09902 -2.59053 0
M  V30 50713 N 4917.64 0.963222 -1.24739 0
M  V30 50714 C 4918.59 2.07982 -1.04146 0
M  V30 50715 C 4919.58 1.69382 0.024996 0
M  V30 50716 O 4920.79 1.7953 -0.129926 0
M  V30 50717 H 4917.16 0.680615 -0.319792 0
M  V30 50718 H 4919.13 2.2251 -1.98826 0
M  V30 50719 C 4917.88 3.41228 -0.667735 0
M  V30 50720 H 4917.2 3.71392 -1.48013 0
M  V30 50721 H 4918.64 4.20242 -0.563284 0
M  V30 50722 C 4917.1 3.31042 0.62553 0
M  V30 50723 O 4917.63 3.6534 1.67003 0
M  V30 50724 N 4915.84 2.8417 0.607933 0
M  V30 50725 H 4915.39 2.56457 -0.242413 0
M  V30 50726 H 4915.34 2.77737 1.47342 0
M  V30 50727 N 4919.12 1.06186 1.16457 0
M  V30 50728 C 4920.36 0.776392 1.86592 0
M  V30 50729 C 4920.69 -0.699146 1.82036 0
M  V30 50730 O 4919.96 -1.50575 1.25316 0
M  V30 50731 H 4918.54 0.284208 0.690822 0
M  V30 50732 H 4921.2 1.34313 1.4123 0
M  V30 50733 H 4920.29 1.10032 2.9206 0
M  V30 50734 N 4920.59 -1.33077 0.84429 0
M  V30 50735 C 4921.83 -1.99413 0.448767 0
M  V30 50736 C 4922.2 -1.65402 -0.975 0
M  V30 50737 O 4923.4 -2.24746 -1.47453 0
M  V30 50738 C 4921.67 -3.51079 0.669213 0
M  V30 50739 S 4923.23 -4.3724 0.369717 0
M  V30 50740 H 4920.05 -0.69073 0.168562 0
M  V30 50741 H 4922.65 -1.61974 1.09475 0
M  V30 50742 H 4921.35 -3.7332 1.7047 0
M  V30 50743 H 4920.88 -3.93399 0.00927041 0
M  V30 50744 H 4922.9 -4.89571 -0.80838 0
M  V30 50745 N 4922.07 -0.601236 -1.45681 0
M  V30 50746 C 4923.48 -0.179724 -1.85833 0
M  V30 50747 C 4923.83 1.26183 -1.5024 0
M  V30 50748 O 4922.96 1.95584 -0.926056 0
M  V30 50749 C 4923.55 -0.319396 -3.37291 0
M  V30 50750 C 4922.11 0.0473769 -3.7637 0
M  V30 50751 C 4921.26 -0.646787 -2.69652 0
M  V30 50752 H 4924.21 -0.808316 -1.36572 0
M  V30 50753 H 4924.23 0.450167 -3.77828 0
M  V30 50754 H 4923.74 -1.36868 -3.63165 0
M  V30 50755 H 4921.85 1.09608 -3.56114 0
M  V30 50756 H 4921.96 -0.341848 -4.77879 0
M  V30 50757 H 4920.32 -0.0850866 -2.54558 0
M  V30 50758 H 4921.11 -1.69808 -2.98363 0
M  V30 50759 N 4923.55 1.53888 -0.340036 0
M  V30 50760 C 4924.83 1.93085 0.312651 0
M  V30 50761 C 4925.21 1.27126 1.68529 0
M  V30 50762 O 4924.56 0.420914 2.2459 0
M  V30 50763 C 4924.77 3.46832 0.388436 0
M  V30 50764 C 4926.11 4.19735 0.640941 0
M  V30 50765 O 4927.14 3.53076 0.470694 0
M  V30 50766 O 4926 5.37814 0.970496 0
M  V30 50767 H 4923.09 0.80679 0.181711 0
M  V30 50768 H 4925.64 1.65135 -0.390956 0
M  V30 50769 H 4924.41 3.87053 -0.574958 0
M  V30 50770 H 4924.03 3.80937 1.13897 0
M  V30 50771 N 4925.03 0.0685745 1.57451 0
M  V30 50772 C 4925.96 -0.929299 2.09515 0
M  V30 50773 C 4926.97 -1.26351 1.02661 0
M  V30 50774 O 4928.16 -1.22126 1.30183 0
M  V30 50775 C 4925.26 -2.24603 2.53785 0
M  V30 50776 C 4924.44 -2.09115 3.84174 0
M  V30 50777 C 4923.5 -3.24064 4.1457 0
M  V30 50778 O 4922.52 -2.99198 4.8422 0
M  V30 50779 N 4923.72 -4.49064 3.67861 0
M  V30 50780 H 4926.49 -0.484797 2.95753 0
M  V30 50781 H 4924.05 -0.117234 1.61475 0
M  V30 50782 H 4926.04 -3.00403 2.71183 0
M  V30 50783 H 4924.61 -2.60563 1.72701 0
M  V30 50784 H 4923.83 -1.17802 3.76187 0
M  V30 50785 H 4925.12 -1.96013 4.69528 0
M  V30 50786 H 4924.52 -4.72154 3.11587 0
M  V30 50787 H 4923.07 -5.21901 3.90465 0
M  V30 50788 O 4926.55 -1.61339 -0.0721313 0
M  V30 50789 H 4927.24 -1.80684 -0.698061 0
M  V30 END ATOM
M  V30 BEGIN BOND
M  V30 END BOND
M  V30 END CTAB
M  END
$$$$
