drugbank_target|Q16864 V-type proton ATPase subunit F (DB01133)
 OpenBabel12092121233D

  0  0  0     0  0            999 V3000
M  V30 BEGIN CTAB
M  V30 COUNTS 1885 1899 0 0 0
M  V30 BEGIN ATOM
M  V30 1 H -0.908 1.98254 -0.117106 0
M  V30 2 N 0 1.576 0 0
M  V30 3 C 0.933 2.03868 1.02534 0
M  V30 4 C 1.911 0.928543 1.3348 0
M  V30 5 O 3.095 1.19667 1.45644 0
M  V30 6 C 0.222 2.43627 2.35294 0
M  V30 7 C -0.732 3.65373 2.2001 0
M  V30 8 S 0.101 5.13292 1.52614 0
M  V30 9 C 1.257 5.56322 2.86805 0
M  V30 10 H 1.49 2.90518 0.631377 0
M  V30 11 H -0.977 1.52953 0.210867 0
M  V30 12 H 0.981 2.67203 3.11629 0
M  V30 13 H -0.358 1.57376 2.7183 0
M  V30 14 H -1.165 3.90944 3.18086 0
M  V30 15 H -1.563 3.418 1.51819 0
M  V30 16 H 0.729 5.58782 3.83104 0
M  V30 17 H 1.672 6.56266 2.65933 0
M  V30 18 H 2.08 4.83886 2.90714 0
M  V30 19 N 1.4781 -0.272755 1.55222 0
M  V30 20 C 2.4411 -1.32041 1.87344 0
M  V30 21 C 3.4411 -1.42342 0.74803 0
M  V30 22 O 4.6311 -1.41488 1.0162 0
M  V30 23 C 1.7631 -2.70173 2.07893 0
M  V30 24 H 2.9561 -1.04789 2.80997 0
M  V30 25 H 0.5091 -0.51083 1.47717 0
M  V30 26 H 1.2441 -3.02605 1.16622 0
M  V30 27 H 1.0291 -2.64082 2.89833 0
M  V30 28 H 2.5191 -3.45869 2.34017 0
M  V30 29 N 2.9562 -1.48159 -0.537278 0
M  V30 30 C 4.2042 -1.55497 -1.29094 0
M  V30 31 C 4.5252 -0.227454 -1.93669 0
M  V30 32 O 3.7952 0.750386 -1.80959 0
M  V30 33 H 2.3752 -0.572832 -0.47945 0
M  V30 34 H 5.0372 -1.84579 -0.625818 0
M  V30 35 H 4.1332 -2.33216 -2.07405 0
M  V30 36 N 4.4343 0.785586 -1.36625 0
M  V30 37 C 5.8503 1.08419 -1.17122 0
M  V30 38 C 6.0503 2.015 0.00208491 0
M  V30 39 O 5.1063 2.43551 0.666278 0
M  V30 40 C 6.4193 1.69498 -2.48377 0
M  V30 41 C 7.9673 1.81821 -2.54775 0
M  V30 42 C 8.4423 2.46315 -3.86126 0
M  V30 43 N 9.9333 2.53779 -3.87492 0
M  V30 44 C 10.6683 3.045 -4.85868 0
M  V30 45 N 10.1643 3.55499 -5.94637 0
M  V30 46 N 11.9573 3.03247 -4.73284 0
M  V30 47 H 4.1083 0.167264 -2.1174 0
M  V30 48 H 6.3713 0.13682 -0.938075 0
M  V30 49 H 6.0773 1.08571 -3.34522 0
M  V30 50 H 5.9513 2.6896 -2.64462 0
M  V30 51 H 8.3383 2.41884 -1.69045 0
M  V30 52 H 8.4193 0.811532 -2.42586 0
M  V30 53 H 8.0633 1.86895 -4.72263 0
M  V30 54 H 7.9933 3.47561 -3.95612 0
M  V30 55 H 10.4843 2.17672 -3.08913 0
M  V30 56 H 10.7973 3.92562 -6.65669 0
M  V30 57 H 9.1423 3.5364 -5.98301 0
M  V30 58 H 12.3333 2.62696 -3.87438 0
M  V30 59 H 12.5063 3.42467 -5.50109 0
M  V30 60 N 5.9124 1.20967 1.01018 0
M  V30 61 C 7.1604 1.02172 1.74371 0
M  V30 62 C 7.4814 -0.446414 1.89821 0
M  V30 63 O 6.7514 -1.32234 1.44537 0
M  V30 64 H 5.3314 0.375066 0.646014 0
M  V30 65 H 7.9934 1.52187 1.21758 0
M  V30 66 H 7.0894 1.48538 2.74487 0
M  V30 67 N 7.3905 -1.2043 1.01659 0
M  V30 68 C 8.3375 -2.23215 0.586822 0
M  V30 69 C 9.3075 -1.61382 -0.393085 0
M  V30 70 O 10.4925 -1.88544 -0.292525 0
M  V30 71 C 7.6325 -3.45032 -0.0687464 0
M  V30 72 C 6.7455 -4.21296 0.955724 0
M  V30 73 C 5.8805 -5.30507 0.271208 0
M  V30 74 C 4.9195 -5.98515 1.28244 0
M  V30 75 N 4.0565 -6.99316 0.62459 0
M  V30 76 H 8.8965 -2.59336 1.46796 0
M  V30 77 H 6.4335 -1.27431 0.734836 0
M  V30 78 H 8.3915 -4.1459 -0.465965 0
M  V30 79 H 7.0215 -3.09604 -0.913529 0
M  V30 80 H 6.0735 -3.50803 1.4711 0
M  V30 81 H 7.3855 -4.6803 1.72479 0
M  V30 82 H 6.5395 -6.06428 -0.18151 0
M  V30 83 H 5.2785 -4.8481 -0.530163 0
M  V30 84 H 4.2835 -5.21355 1.74554 0
M  V30 85 H 5.5085 -6.46298 2.08509 0
M  V30 86 H 3.4545 -6.55812 -0.156914 0
M  V30 87 H 3.3715 -7.44178 1.33172 0
M  V30 88 H 4.6395 -7.79255 0.195462 0
M  V30 89 N 8.8686 -0.792821 -1.36206 0
M  V30 90 C 9.7986 -0.207853 -2.32573 0
M  V30 91 C 10.7796 0.659055 -1.56813 0
M  V30 92 O 11.9646 0.592176 -1.84951 0
M  V30 93 C 9.0946 0.655449 -3.41059 0
M  V30 94 C 8.0486 -0.111842 -4.27854 0
M  V30 95 C 7.3746 0.872274 -5.27537 0
M  V30 96 C 8.6746 -1.30299 -5.05786 0
M  V30 97 H 10.3686 -1.01294 -2.81744 0
M  V30 98 H 7.9146 -0.48854 -1.3546 0
M  V30 99 H 9.8676 1.07464 -4.07467 0
M  V30 100 H 8.5916 1.49328 -2.90463 0
M  V30 101 H 7.2506 -0.512053 -3.63006 0
M  V30 102 H 6.8986 1.70523 -4.73214 0
M  V30 103 H 6.5986 0.363291 -5.86476 0
M  V30 104 H 8.1226 1.28996 -5.96818 0
M  V30 105 H 9.5366 -0.959379 -5.65216 0
M  V30 106 H 7.9336 -1.7455 -5.74154 0
M  V30 107 H 9.0036 -2.09663 -4.37229 0
M  V30 108 N 10.3467 1.47872 -0.545128 0
M  V30 109 C 11.5957 2.01695 -0.0145033 0
M  V30 110 C 11.9087 1.42609 1.33873 0
M  V30 111 O 13.1147 1.88021 1.95858 0
M  V30 112 C 11.5707 3.59892 0.0245068 0
M  V30 113 C 11.1787 4.27966 -1.32475 0
M  V30 114 C 12.9227 4.21507 0.50316 0
M  V30 115 C 10.8297 5.78136 -1.2455 0
M  V30 116 H 9.7597 0.753998 -0.00165172 0
M  V30 117 H 12.4107 1.69985 -0.691175 0
M  V30 118 H 10.7927 3.88509 0.766575 0
M  V30 119 H 11.9667 4.11003 -2.08357 0
M  V30 120 H 10.2817 3.78286 -1.74036 0
M  V30 121 H 12.8787 5.31538 0.580656 0
M  V30 122 H 13.2217 3.87855 1.51243 0
M  V30 123 H 13.7547 3.97376 -0.183681 0
M  V30 124 H 10.4937 6.16388 -2.23039 0
M  V30 125 H 10.0137 5.97469 -0.528282 0
M  V30 126 H 11.6927 6.40099 -0.942488 0
M  V30 127 N 11.8248 0.280983 1.55075 0
M  V30 128 C 12.7878 -0.590896 2.21452 0
M  V30 129 C 13.7878 -1.07682 1.19421 0
M  V30 130 O 14.9778 -0.97605 1.44288 0
M  V30 131 C 12.1098 -1.81587 2.88511 0
M  V30 132 H 13.3028 -0.0112554 2.99898 0
M  V30 133 H 10.8558 0.0316438 1.56268 0
M  V30 134 H 11.5908 -2.43587 2.14093 0
M  V30 135 H 11.3758 -1.4753 3.63287 0
M  V30 136 H 12.8658 -2.43575 3.39206 0
M  V30 137 N 13.3029 -1.57598 0.00835791 0
M  V30 138 C 14.5489 -1.91211 -0.675732 0
M  V30 139 C 14.8819 -0.883139 -1.72958 0
M  V30 140 O 14.1569 0.097016 -1.94258 0
M  V30 141 C 14.4399 -3.35379 -1.31123 0
M  V30 142 C 14.2929 -4.48999 -0.268356 0
M  V30 143 C 15.6119 -3.7912 -2.23508 0
M  V30 144 H 12.7309 -0.695374 -0.244179 0
M  V30 145 H 15.3729 -1.89901 0.0613655 0
M  V30 146 H 13.5229 -3.36626 -1.93946 0
M  V30 147 H 15.1949 -4.59887 0.360844 0
M  V30 148 H 13.4379 -4.31873 0.408482 0
M  V30 149 H 14.1089 -5.46851 -0.752218 0
M  V30 150 H 16.5849 -3.79477 -1.70693 0
M  V30 151 H 15.4609 -4.80729 -2.64936 0
M  V30 152 H 15.7219 -3.13455 -3.11766 0
M  V30 153 N 14.781 0.264519 -1.55364 0
M  V30 154 C 16.03 0.992812 -1.75574 0
M  V30 155 C 16.343 1.87142 -0.568979 0
M  V30 156 O 17.549 2.63513 -0.653682 0
M  V30 157 C 16.005 1.81519 -3.10771 0
M  V30 158 C 15.613 0.984839 -4.37041 0
M  V30 159 C 17.357 2.53727 -3.40327 0
M  V30 160 C 15.264 1.80209 -5.63275 0
M  V30 161 H 14.194 0.374412 -0.65447 0
M  V30 162 H 16.845 0.248138 -1.81815 0
M  V30 163 H 15.227 2.60115 -2.98591 0
M  V30 164 H 16.401 0.242455 -4.60162 0
M  V30 165 H 14.716 0.37691 -4.14691 0
M  V30 166 H 17.313 3.15292 -4.3185 0
M  V30 167 H 17.656 3.24447 -2.60845 0
M  V30 168 H 18.189 1.82156 -3.53644 0
M  V30 169 H 14.928 1.13896 -6.45529 0
M  V30 170 H 14.448 2.52022 -5.44284 0
M  V30 171 H 16.127 2.37364 -6.01887 0
M  V30 172 N 16.2591 1.48442 0.529413 0
M  V30 173 C 17.5071 1.56179 1.28267 0
M  V30 174 C 17.8281 0.237721 1.93546 0
M  V30 175 O 17.0981 -0.740779 1.81354 0
M  V30 176 H 15.6781 0.575367 0.476405 0
M  V30 177 H 18.3401 1.84909 0.61602 0
M  V30 178 H 17.4361 2.34312 2.06165 0
M  V30 179 N 17.7372 -0.778329 1.37039 0
M  V30 180 C 19.0142 -1.52551 1.22424 0
M  V30 181 C 19.3942 -2.10288 -0.184964 0
M  V30 182 O 18.7422 -1.94953 -1.19187 0
M  V30 183 C 18.9522 -2.61164 2.31504 0
M  V30 184 C 20.3002 -3.28746 2.68721 0
M  V30 185 O 21.3242 -2.71455 2.30631 0
M  V30 186 O 20.1832 -4.3231 3.3432 0
M  V30 187 H 17.2772 -0.675343 0.477326 0
M  V30 188 H 19.8232 -0.815859 1.48801 0
M  V30 189 H 18.5952 -2.16574 3.25901 0
M  V30 190 H 18.2182 -3.39737 2.06554 0
M  V30 191 N 19.2153 -1.21501 -1.00376 0
M  V30 192 C 20.1253 -0.991447 -2.12621 0
M  V30 193 C 21.1413 0.0568446 -1.73907 0
M  V30 194 O 22.3173 -0.13348 -2.00957 0
M  V30 195 C 19.3823 -0.560312 -3.42142 0
M  V30 196 C 18.4433 -1.68096 -3.95022 0
M  V30 197 C 17.6763 -1.2703 -5.18362 0
M  V30 198 O 17.8993 -0.144438 -5.70217 0
M  V30 199 O 16.8333 -2.08269 -5.64719 0
M  V30 200 H 20.6593 -1.93158 -2.34358 0
M  V30 201 H 18.2443 -0.999999 -1.10997 0
M  V30 202 H 20.1263 -0.329724 -4.20108 0
M  V30 203 H 18.8013 0.351089 -3.2179 0
M  V30 204 H 17.7083 -1.96597 -3.18278 0
M  V30 205 H 19.0413 -2.56983 -4.19786 0
M  V30 206 N 20.6934 1.19889 -1.02296 0
M  V30 207 C 21.9704 1.85148 -0.630832 0
M  V30 208 C 22.3504 1.91385 0.890782 0
M  V30 209 O 21.6984 1.42642 1.78509 0
M  V30 210 C 21.9084 3.24442 -1.28602 0
M  V30 211 C 23.2564 4.00663 -1.4055 0
M  V30 212 O 24.2804 3.33818 -1.24273 0
M  V30 213 O 23.1394 5.20387 -1.66913 0
M  V30 214 H 20.2334 0.797613 -0.218499 0
M  V30 215 H 22.7794 1.27427 -1.12074 0
M  V30 216 H 21.5514 3.14704 -2.32545 0
M  V30 217 H 21.1744 3.89802 -0.7836 0
M  V30 218 N 22.1715 0.800033 1.35784 0
M  V30 219 C 23.3995 0.389606 2.03199 0
M  V30 220 C 23.8145 -0.997375 1.60306 0
M  V30 221 O 23.1715 -1.64154 0.797481 0
M  V30 222 C 23.2225 0.455855 3.58614 0
M  V30 223 O 22.9435 1.78815 3.99946 0
M  V30 224 C 24.4445 0.0374032 4.43284 0
M  V30 225 H 21.6645 0.159132 0.651857 0
M  V30 226 H 24.2085 1.08183 1.73541 0
M  V30 227 H 22.3635 -0.188057 3.86943 0
M  V30 228 H 22.7775 1.74636 4.94573 0
M  V30 229 H 24.2515 0.134882 5.51835 0
M  V30 230 H 24.7285 -1.01651 4.27275 0
M  V30 231 H 25.3345 0.654215 4.20238 0
M  V30 232 N 23.6496 -1.47581 0.552962 0
M  V30 233 C 24.8956 -2.02782 0.0273648 0
M  V30 234 C 25.2286 -1.42687 -1.31734 0
M  V30 235 O 24.5036 -0.580897 -1.85623 0
M  V30 236 C 24.7866 -3.60031 -0.0702371 0
M  V30 237 C 24.6396 -4.30566 1.30126 0
M  V30 238 C 25.9586 -4.33028 -0.785771 0
M  V30 239 H 23.0776 -0.736912 0.0114185 0
M  V30 240 H 25.7196 -1.76056 0.714432 0
M  V30 241 H 23.8696 -3.82932 -0.655382 0
M  V30 242 H 25.5416 -4.19018 1.92929 0
M  V30 243 H 23.7846 -3.91086 1.87709 0
M  V30 244 H 24.4556 -5.39114 1.18573 0
M  V30 245 H 26.9316 -4.15095 -0.288982 0
M  V30 246 H 25.8076 -5.42695 -0.823013 0
M  V30 247 H 26.0686 -4.01945 -1.841 0
M  V30 248 N 25.1277 -0.289203 -1.54924 0
M  V30 249 C 26.3557 0.326463 -2.04308 0
M  V30 250 C 26.7707 1.48413 -1.16701 0
M  V30 251 O 26.1277 1.81507 -0.190087 0
M  V30 252 C 26.1787 0.794014 -3.52672 0
M  V30 253 O 25.8997 -0.317564 -4.36948 0
M  V30 254 C 27.4007 1.47605 -4.18004 0
M  V30 255 H 24.6207 0.0726272 -0.667058 0
M  V30 256 H 27.1647 -0.425401 -2.00026 0
M  V30 257 H 25.3197 1.49593 -3.57352 0
M  V30 258 H 25.7337 0.0443186 -5.24481 0
M  V30 259 H 27.2077 1.75447 -5.23376 0
M  V30 260 H 27.6847 2.41224 -3.67025 0
M  V30 261 H 28.2907 0.81762 -4.17367 0
M  V30 262 N 26.6058 1.57591 -0.0167156 0
M  V30 263 C 27.8538 1.90906 0.663285 0
M  V30 264 C 28.1748 0.892509 1.73376 0
M  V30 265 O 27.4448 -0.0677623 1.95783 0
M  V30 266 H 26.0248 0.704637 0.247983 0
M  V30 267 H 28.6868 1.94803 -0.0615909 0
M  V30 268 H 27.7828 2.9116 1.12393 0
M  V30 269 N 28.0839 -0.256276 1.55502 0
M  V30 270 C 29.3309 -0.985619 1.76895 0
M  V30 271 C 29.6589 -1.85671 0.579355 0
M  V30 272 O 28.9139 -1.90744 -0.437651 0
M  V30 273 C 29.2129 -1.88432 3.03691 0
M  V30 274 C 28.8789 -1.16936 4.35473 0
M  V30 275 C 27.5409 -0.97173 4.71286 0
M  V30 276 C 29.8929 -0.661889 5.1698 0
M  V30 277 C 27.2209 -0.254179 5.86149 0
M  V30 278 C 29.5729 0.042149 6.32586 0
M  V30 279 C 28.2369 0.25134 6.67027 0
M  V30 280 H 27.5069 -0.360663 0.647304 0
M  V30 281 H 30.1539 -0.256483 1.89775 0
M  V30 282 H 28.4589 -2.68021 2.85783 0
M  V30 283 H 30.1559 -2.45015 3.1744 0
M  V30 284 H 26.7459 -1.33332 4.07333 0
M  V30 285 H 30.9299 -0.802145 4.89775 0
M  V30 286 H 26.1859 -0.0815408 6.11346 0
M  V30 287 H 30.3599 0.443049 6.94989 0
M  V30 288 H 27.9869 0.809314 7.5588 0
M  V30 289 N 29.562 -1.4872 -0.521534 0
M  V30 290 C 30.492 -1.66771 -1.63431 0
M  V30 291 C 31.473 -0.516499 -1.62069 0
M  V30 292 O 32.658 -0.750013 -1.79132 0
M  V30 293 C 29.788 -1.71515 -3.01993 0
M  V30 294 C 28.742 -2.86222 -3.18216 0
M  V30 295 C 28.068 -2.76061 -4.57924 0
M  V30 296 C 29.368 -4.27419 -3.00184 0
M  V30 297 H 31.062 -2.59932 -1.48579 0
M  V30 298 H 28.608 -1.25089 -0.713358 0
M  V30 299 H 30.561 -1.82731 -3.7972 0
M  V30 300 H 29.285 -0.749393 -3.17886 0
M  V30 301 H 27.944 -2.74575 -2.42908 0
M  V30 302 H 27.592 -1.77437 -4.70665 0
M  V30 303 H 27.292 -3.53037 -4.69722 0
M  V30 304 H 28.816 -2.89256 -5.37739 0
M  V30 305 H 30.23 -4.39855 -3.67697 0
M  V30 306 H 28.627 -5.05458 -3.2347 0
M  V30 307 H 29.697 -4.43293 -1.96518 0
M  V30 308 N 31.0401 0.771051 -1.3745 0
M  V30 309 C 31.9701 1.89827 -1.3597 0
M  V30 310 C 32.9511 1.68562 -0.228216 0
M  V30 311 O 34.1361 1.8941 -0.428675 0
M  V30 312 C 31.2661 3.2712 -1.16662 0
M  V30 313 C 30.2201 3.6295 -2.2683 0
M  V30 314 C 29.5461 4.98791 -1.92644 0
M  V30 315 C 30.8461 3.69627 -3.69017 0
M  V30 316 H 32.5401 1.91323 -2.30295 0
M  V30 317 H 30.0861 0.919082 -1.10855 0
M  V30 318 H 32.0391 4.05615 -1.14256 0
M  V30 319 H 30.7631 3.26059 -0.187926 0
M  V30 320 H 29.4221 2.86763 -2.28392 0
M  V30 321 H 29.0701 4.94271 -0.933021 0
M  V30 322 H 28.7701 5.23733 -2.66416 0
M  V30 323 H 30.2941 5.79685 -1.91826 0
M  V30 324 H 31.7081 4.38273 -3.69581 0
M  V30 325 H 30.1051 4.06067 -4.41848 0
M  V30 326 H 31.1751 2.70273 -4.02592 0
M  V30 327 N 32.5182 1.22032 0.997298 0
M  V30 328 C 33.7662 1.04016 1.73278 0
M  V30 329 C 34.0872 -0.426255 1.90284 0
M  V30 330 O 33.3572 -1.30694 1.45931 0
M  V30 331 H 31.9372 0.381897 0.642 0
M  V30 332 H 34.5992 1.5347 1.20137 0
M  V30 333 H 33.6952 1.51441 2.72896 0
M  V30 334 N 33.9963 -1.19345 1.0293 0
M  V30 335 C 35.2443 -1.88665 0.724574 0
M  V30 336 C 35.5653 -1.80036 -0.749144 0
M  V30 337 O 34.8353 -1.2111 -1.53978 0
M  V30 338 H 33.4153 -0.698406 0.265025 0
M  V30 339 H 36.0773 -1.44885 1.30362 0
M  V30 340 H 35.1733 -2.94987 1.01926 0
M  V30 341 N 35.4744 -0.807222 -1.35358 0
M  V30 342 C 36.7234 -0.384376 -1.98004 0
M  V30 343 C 37.0364 1.0543 -1.64754 0
M  V30 344 O 38.2424 1.58029 -2.20769 0
M  V30 345 C 36.6984 -0.636326 -3.5423 0
M  V30 346 C 36.3064 -2.08759 -3.96388 0
M  V30 347 C 38.0504 -0.278869 -4.23583 0
M  V30 348 C 35.9574 -2.28525 -5.45463 0
M  V30 349 H 34.8874 -0.139986 -0.740891 0
M  V30 350 H 37.5384 -0.991369 -1.54415 0
M  V30 351 H 35.9204 0.0406256 -3.95979 0
M  V30 352 H 37.0944 -2.8024 -3.6579 0
M  V30 353 H 35.4094 -2.40497 -3.39926 0
M  V30 354 H 38.0064 -0.404599 -5.33167 0
M  V30 355 H 38.3494 0.775012 -4.09022 0
M  V30 356 H 38.8824 -0.909764 -3.87257 0
M  V30 357 H 35.6214 -3.32361 -5.64992 0
M  V30 358 H 35.1414 -1.61569 -5.77629 0
M  V30 359 H 36.8204 -2.10109 -6.11934 0
M  V30 360 N 36.9525 1.47285 -0.560781 0
M  V30 361 C 38.2005 2.02064 -0.0379868 0
M  V30 362 C 38.5215 1.43711 1.31803 0
M  V30 363 O 37.7915 0.61362 1.86042 0
M  V30 364 H 36.3715 0.746918 -0.0110531 0
M  V30 365 H 39.0335 1.80648 -0.731598 0
M  V30 366 H 38.1295 3.12064 0.0474463 0
M  V30 367 N 38.4306 0.297415 1.54768 0
M  V30 368 C 39.3406 -0.58983 2.27064 0
M  V30 369 C 40.3566 -1.15144 1.30453 0
M  V30 370 O 41.5326 -1.17699 1.63428 0
M  V30 371 C 38.5976 -1.74714 2.9946 0
M  V30 372 C 37.6586 -1.21997 4.11601 0
M  V30 373 C 36.8916 -2.32212 4.80535 0
M  V30 374 O 37.1146 -3.52036 4.48806 0
M  V30 375 O 36.0486 -1.99106 5.68014 0
M  V30 376 H 39.8746 -0.00348199 3.037 0
M  V30 377 H 37.4596 0.0640035 1.49263 0
M  V30 378 H 39.3416 -2.42147 3.44881 0
M  V30 379 H 38.0166 -2.32016 2.25722 0
M  V30 380 H 36.9236 -0.511458 3.70587 0
M  V30 381 H 38.2566 -0.692419 4.87305 0
M  V30 382 N 39.9087 -1.5758 0.0250728 0
M  V30 383 C 40.8387 -2.13007 -0.956575 0
M  V30 384 C 41.8197 -1.0452 -1.342 0
M  V30 385 O 43.0047 -1.32332 -1.42133 0
M  V30 386 C 40.1347 -2.65386 -2.24026 0
M  V30 387 C 39.0887 -3.78623 -1.99571 0
M  V30 388 C 38.4147 -4.17414 -3.3417 0
M  V30 389 C 39.7147 -5.04867 -1.33814 0
M  V30 390 H 41.4087 -2.9528 -0.494991 0
M  V30 391 H 38.9547 -1.42042 -0.236651 0
M  V30 392 H 40.9077 -3.02794 -2.93076 0
M  V30 393 H 39.6317 -1.80268 -2.72343 0
M  V30 394 H 38.2907 -3.41646 -1.32941 0
M  V30 395 H 37.9387 -3.29284 -3.80238 0
M  V30 396 H 37.6387 -4.93719 -3.18615 0
M  V30 397 H 39.1627 -4.57402 -4.04495 0
M  V30 398 H 40.5767 -5.39888 -1.92857 0
M  V30 399 H 38.9737 -5.86144 -1.28669 0
M  V30 400 H 40.0437 -4.83904 -0.310561 0
M  V30 401 N 41.3868 0.248026 -1.55636 0
M  V30 402 C 42.3348 1.32683 -1.91045 0
M  V30 403 C 43.3288 1.49883 -0.789401 0
M  V30 404 O 44.5348 1.51371 -0.974007 0
M  V30 405 H 40.9098 0.444272 -0.606734 0
M  V30 406 H 42.8808 1.00085 -2.81115 0
M  V30 407 C 41.6298 2.6755 -2.22064 0
M  V30 408 H 40.9528 2.55114 -3.07826 0
M  V30 409 H 42.3928 3.41912 -2.50743 0
M  V30 410 C 40.8518 3.20556 -1.0366 0
M  V30 411 O 41.3818 4.00695 -0.284016 0
M  V30 412 N 39.5878 2.78568 -0.82753 0
M  V30 413 H 39.1348 2.1351 -1.44123 0
M  V30 414 H 39.0928 3.14378 -0.0369803 0
M  V30 415 N 42.8649 1.48995 0.513639 0
M  V30 416 C 43.8119 1.6473 1.61656 0
M  V30 417 C 44.7819 0.488984 1.58739 0
M  V30 418 O 45.9669 0.714478 1.76918 0
M  V30 419 C 43.1069 1.7082 2.99858 0
M  V30 420 C 42.2199 2.9787 3.12885 0
M  V30 421 C 41.3549 2.95017 4.41744 0
M  V30 422 C 40.3939 4.16702 4.48359 0
M  V30 423 N 39.5309 4.11832 5.68629 0
M  V30 424 H 44.3709 2.58909 1.47547 0
M  V30 425 H 41.9079 1.28382 0.71808 0
M  V30 426 H 43.8659 1.72331 3.79944 0
M  V30 427 H 42.4959 0.801181 3.12699 0
M  V30 428 H 41.5479 3.06029 2.25944 0
M  V30 429 H 42.8599 3.8786 3.13633 0
M  V30 430 H 42.0139 2.95021 5.30139 0
M  V30 431 H 40.7529 2.02784 4.43542 0
M  V30 432 H 39.7579 4.16955 3.58369 0
M  V30 433 H 40.9829 5.10113 4.48287 0
M  V30 434 H 38.9289 3.22428 5.71293 0
M  V30 435 H 38.8459 4.95543 5.7094 0
M  V30 436 H 40.1139 4.1592 6.59266 0
M  V30 437 N 44.343 -0.763751 1.37857 0
M  V30 438 C 45.291 -1.89864 1.34367 0
M  V30 439 C 46.285 -1.67816 0.231143 0
M  V30 440 O 47.491 -1.75508 0.399617 0
M  V30 441 H 43.866 -0.624501 0.41893 0
M  V30 442 H 45.837 -1.89925 2.30155 0
M  V30 443 C 44.586 -3.27227 1.1755 0
M  V30 444 H 43.909 -3.44773 2.02414 0
M  V30 445 H 45.349 -4.06911 1.1916 0
M  V30 446 C 43.808 -3.36692 -0.118311 0
M  V30 447 O 44.338 -3.86374 -1.09902 0
M  V30 448 N 42.544 -2.90092 -0.171717 0
M  V30 449 H 42.091 -2.49853 0.627012 0
M  V30 450 H 42.049 -2.96806 -1.03699 0
M  V30 451 N 45.8211 -1.22559 -0.990812 0
M  V30 452 C 47.2371 -0.985996 -1.255 0
M  V30 453 C 47.4371 0.319173 -1.98956 0
M  V30 454 O 46.4931 1.04127 -2.3003 0
M  V30 455 C 47.8061 -2.18607 -2.06474 0
M  V30 456 C 49.3541 -2.22985 -2.19651 0
M  V30 457 C 49.8291 -3.4255 -3.04012 0
M  V30 458 N 51.3201 -3.42725 -3.11599 0
M  V30 459 C 52.0551 -4.31892 -3.7717 0
M  V30 460 N 51.5511 -5.31279 -4.44651 0
M  V30 461 N 53.3441 -4.19662 -3.73952 0
M  V30 462 H 45.4951 -2.06469 -0.49841 0
M  V30 463 H 47.7581 -0.904853 -0.282747 0
M  V30 464 H 47.4641 -3.13267 -1.59865 0
M  V30 465 H 47.3381 -2.18838 -3.07229 0
M  V30 466 H 49.7251 -1.28871 -2.65474 0
M  V30 467 H 49.8061 -2.26791 -1.18319 0
M  V30 468 H 49.4501 -4.36965 -2.58889 0
M  V30 469 H 49.3801 -3.35984 -4.0549 0
M  V30 470 H 51.8711 -2.70807 -2.63575 0
M  V30 471 H 52.1841 -5.95593 -4.92431 0
M  V30 472 H 50.5291 -5.3519 -4.43392 0
M  V30 473 H 53.7201 -3.41268 -3.20396 0
M  V30 474 H 53.8931 -4.89358 -4.24774 0
M  V30 475 N 47.2992 1.18797 -1.03562 0
M  V30 476 C 48.2492 2.20161 -0.592724 0
M  V30 477 C 49.2332 1.56772 0.362133 0
M  V30 478 O 50.4252 1.76062 0.182009 0
M  V30 479 C 47.5542 3.43266 0.0481024 0
M  V30 480 C 46.6402 4.13786 -0.9296 0
M  V30 481 N 47.0312 4.60388 -2.09467 0
M  V30 482 C 45.3292 4.39572 -0.754499 0
M  V30 483 C 46.0302 5.14619 -2.71187 0
M  V30 484 N 45.0062 5.05826 -1.991 0
M  V30 485 H 48.8082 2.53877 -1.48066 0
M  V30 486 H 46.3222 1.34946 -0.903514 0
M  V30 487 H 48.3192 4.15136 0.383058 0
M  V30 488 H 46.9792 3.11048 0.931636 0
M  V30 489 H 47.9902 4.54999 -2.47379 0
M  V30 490 H 44.6672 4.17425 0.0793713 0
M  V30 491 H 46.0572 5.60917 -3.69895 0
M  V30 492 N 48.7773 0.814389 1.34928 0
M  V30 493 C 50.1883 0.458364 1.80986 0
M  V30 494 C 50.5393 -1.02042 1.67577 0
M  V30 495 O 49.6643 -1.79352 1.21086 0
M  V30 496 C 50.2593 0.825212 3.28597 0
M  V30 497 C 48.8183 0.521677 3.72767 0
M  V30 498 C 47.9653 1.04668 2.56788 0
M  V30 499 H 50.9163 1.00533 1.22795 0
M  V30 500 H 50.9373 0.12571 3.80292 0
M  V30 501 H 50.4493 1.90154 3.38324 0
M  V30 502 H 48.5503 -0.545589 3.68584 0
M  V30 503 H 48.6633 1.05977 4.67232 0
M  V30 504 H 47.0273 0.468622 2.50352 0
M  V30 505 H 47.8103 2.12927 2.6929 0
M  V30 506 N 50.2554 -1.46986 0.568584 0
M  V30 507 C 51.2034 -2.31858 -0.185649 0
M  V30 508 C 52.1974 -1.43624 -0.898249 0
M  V30 509 O 53.4034 -1.60327 -0.818242 0
M  V30 510 H 49.7784 -0.747866 -0.0787399 0
M  V30 511 H 51.7494 -2.93303 0.549191 0
M  V30 512 C 50.4984 -3.26513 -1.19519 0
M  V30 513 H 49.8214 -3.94377 -0.656285 0
M  V30 514 H 51.2614 -3.88707 -1.6936 0
M  V30 515 C 49.7204 -2.50847 -2.24894 0
M  V30 516 O 50.2504 -2.26119 -3.32014 0
M  V30 517 N 48.4564 -2.11656 -1.99124 0
M  V30 518 H 48.0034 -2.31966 -1.12024 0
M  V30 519 H 47.9614 -1.61347 -2.69842 0
M  V30 520 N 51.7335 -0.305618 -1.54608 0
M  V30 521 C 52.9805 0.302298 -2.00231 0
M  V30 522 C 53.3085 1.5354 -1.19398 0
M  V30 523 O 52.5635 1.93973 -0.259423 0
M  V30 524 C 52.8625 0.698983 -3.50498 0
M  V30 525 C 52.5285 -0.432903 -4.48817 0
M  V30 526 C 51.1905 -0.743622 -4.75419 0
M  V30 527 C 53.5425 -1.19409 -5.07337 0
M  V30 528 C 50.8705 -1.81857 -5.57804 0
M  V30 529 C 53.2225 -2.25899 -5.90891 0
M  V30 530 C 51.8865 -2.57572 -6.15803 0
M  V30 531 H 51.1565 0.110619 -0.732697 0
M  V30 532 H 53.8035 -0.425674 -1.86709 0
M  V30 533 H 52.1085 1.50711 -3.61654 0
M  V30 534 H 53.8055 1.1806 -3.83227 0
M  V30 535 H 50.3955 -0.18063 -4.28219 0
M  V30 536 H 54.5795 -0.967295 -4.86782 0
M  V30 537 H 49.8355 -2.06864 -5.75341 0
M  V30 538 H 54.0095 -2.85335 -6.35261 0
M  V30 539 H 51.6365 -3.40998 -6.7943 0
M  V30 540 N 53.2116 1.57565 -0.0334293 0
M  V30 541 C 54.1416 2.13511 0.945265 0
M  V30 542 C 55.1226 1.05231 1.33643 0
M  V30 543 O 56.3076 1.33084 1.41429 0
M  V30 544 C 53.4376 2.6657 2.22616 0
M  V30 545 C 52.3916 3.79676 1.97561 0
M  V30 546 C 51.7176 4.1918 3.31952 0
M  V30 547 C 53.0176 5.0557 1.31135 0
M  V30 548 H 54.7116 2.95538 0.479325 0
M  V30 549 H 52.2576 1.42166 0.229115 0
M  V30 550 H 54.2106 3.04344 2.91466 0
M  V30 551 H 52.9346 1.8171 2.71384 0
M  V30 552 H 51.5936 3.42347 1.31127 0
M  V30 553 H 51.2416 3.31296 3.78487 0
M  V30 554 H 50.9416 4.95402 3.15992 0
M  V30 555 H 52.4656 4.59541 4.02063 0
M  V30 556 H 53.8796 5.40903 1.89992 0
M  V30 557 H 52.2766 5.86818 1.25559 0
M  V30 558 H 53.3466 4.84062 0.284894 0
M  V30 559 N 54.6897 -0.239769 1.55765 0
M  V30 560 C 55.9357 -0.968234 1.78194 0
M  V30 561 C 56.2687 -1.84701 0.599938 0
M  V30 562 O 55.5437 -1.9031 -0.401524 0
M  V30 563 C 55.8267 -1.8227 3.10564 0
M  V30 564 C 55.6797 -0.971633 4.3918 0
M  V30 565 C 56.9987 -2.80388 3.39221 0
M  V30 566 H 54.1177 -0.350572 0.648281 0
M  V30 567 H 56.7597 -0.238259 1.885 0
M  V30 568 H 54.9097 -2.44507 3.01908 0
M  V30 569 H 56.5817 -0.367408 4.59835 0
M  V30 570 H 54.8247 -0.276276 4.32919 0
M  V30 571 H 55.4957 -1.60346 5.28198 0
M  V30 572 H 57.9717 -2.28287 3.47885 0
M  V30 573 H 56.8477 -3.3729 4.33044 0
M  V30 574 H 57.1087 -3.57212 2.60484 0
M  V30 575 N 56.1678 -1.49265 -0.50573 0
M  V30 576 C 57.4138 -1.58748 -1.26202 0
M  V30 577 C 57.7468 -0.271227 -1.92297 0
M  V30 578 O 57.0218 0.724831 -1.80489 0
M  V30 579 C 57.3048 -2.74332 -2.33268 0
M  V30 580 C 57.1578 -4.15737 -1.71705 0
M  V30 581 C 58.4768 -2.85576 -3.34865 0
M  V30 582 H 55.5958 -0.577826 -0.457478 0
M  V30 583 H 58.2378 -1.81532 -0.560897 0
M  V30 584 H 56.3878 -2.55036 -2.93068 0
M  V30 585 H 58.0598 -4.46537 -1.15769 0
M  V30 586 H 56.3028 -4.21605 -1.02135 0
M  V30 587 H 56.9738 -4.92477 -2.49341 0
M  V30 588 H 59.4498 -3.03127 -2.8505 0
M  V30 589 H 58.3258 -3.68135 -4.07146 0
M  V30 590 H 58.5868 -1.94732 -3.96903 0
M  V30 591 N 57.6459 0.756429 -1.3826 0
M  V30 592 C 58.5559 1.9009 -1.37488 0
M  V30 593 C 59.5719 1.71855 -0.272366 0
M  V30 594 O 60.7479 1.94827 -0.510318 0
M  V30 595 C 57.8129 3.25421 -1.19592 0
M  V30 596 C 56.8739 3.56202 -2.39622 0
M  V30 597 C 56.1069 4.85075 -2.2257 0
M  V30 598 O 56.3299 5.57246 -1.21793 0
M  V30 599 O 55.2639 5.15269 -3.11098 0
M  V30 600 H 59.0899 1.93695 -2.33914 0
M  V30 601 H 56.6749 0.901313 -1.1915 0
M  V30 602 H 58.5569 4.06337 -1.11661 0
M  V30 603 H 57.2319 3.22634 -0.262486 0
M  V30 604 H 56.1389 2.75458 -2.53128 0
M  V30 605 H 57.4719 3.63747 -3.31586 0
M  V30 606 N 59.124 1.23083 0.984299 0
M  V30 607 C 60.071 1.00854 2.07598 0
M  V30 608 C 61.041 -0.0726709 1.65941 0
M  V30 609 O 62.226 0.0786535 1.90638 0
M  V30 610 C 59.366 0.601645 3.39815 0
M  V30 611 C 58.479 1.75456 3.94765 0
M  V30 612 C 57.614 1.29482 5.15177 0
M  V30 613 C 56.653 2.41873 5.62284 0
M  V30 614 N 55.79 1.96885 6.73929 0
M  V30 615 H 60.63 1.943 2.25946 0
M  V30 616 H 58.167 0.968001 1.10762 0
M  V30 617 H 60.125 0.346854 4.15756 0
M  V30 618 H 58.755 -0.295803 3.21442 0
M  V30 619 H 57.807 2.12346 3.15616 0
M  V30 620 H 59.119 2.59965 4.25699 0
M  V30 621 H 58.273 0.997923 5.98437 0
M  V30 622 H 57.012 0.420046 4.85888 0
M  V30 623 H 56.017 2.72342 4.77608 0
M  V30 624 H 57.242 3.29881 5.93595 0
M  V30 625 H 55.188 1.11782 6.46406 0
M  V30 626 H 55.105 2.74956 7.04227 0
M  V30 627 H 56.373 1.70289 7.60672 0
M  V30 628 N 60.6021 -1.18246 1.0419 0
M  V30 629 C 61.8791 -1.84121 0.660208 0
M  V30 630 C 62.2591 -1.92778 -0.860221 0
M  V30 631 O 61.6071 -1.45464 -1.76217 0
M  V30 632 C 61.8171 -3.22355 1.33747 0
M  V30 633 C 63.1651 -3.98376 1.46906 0
M  V30 634 O 64.1891 -3.31799 1.29568 0
M  V30 635 O 63.0481 -5.17665 1.75171 0
M  V30 636 H 60.1421 -0.794036 0.231161 0
M  V30 637 H 62.6881 -1.25628 1.14087 0
M  V30 638 H 61.4601 -3.10964 2.37522 0
M  V30 639 H 61.0831 -3.88506 0.845515 0
M  V30 640 N 62.0802 -0.821533 -1.34494 0
M  V30 641 C 63.3082 -0.421884 -2.02553 0
M  V30 642 C 63.7232 0.971745 -1.61872 0
M  V30 643 O 63.0802 1.62864 -0.823496 0
M  V30 644 C 63.1312 -0.51285 -3.57844 0
M  V30 645 O 62.8522 -1.85155 -3.97051 0
M  V30 646 C 64.3532 -0.107921 -4.43169 0
M  V30 647 H 61.5732 -0.169482 -0.649243 0
M  V30 648 H 64.1172 -1.1093 -1.71798 0
M  V30 649 H 62.2722 0.126474 -3.87193 0
M  V30 650 H 62.6862 -1.82482 -4.91732 0
M  V30 651 H 64.1602 -0.222657 -5.51551 0
M  V30 652 H 64.6372 0.948401 -4.28838 0
M  V30 653 H 65.2432 -0.720989 -4.19144 0
M  V30 654 N 63.5583 1.46682 -0.576371 0
M  V30 655 C 64.7863 2.06798 -0.0649635 0
M  V30 656 C 65.2013 1.42612 1.23723 0
M  V30 657 O 64.5583 0.529203 1.74659 0
M  V30 658 C 64.6093 3.6132 0.114202 0
M  V30 659 O 64.3303 4.23104 -1.13644 0
M  V30 660 C 65.8313 4.38349 0.66069 0
M  V30 661 H 63.0513 0.668778 -0.0545616 0
M  V30 662 H 65.5953 1.88404 -0.795237 0
M  V30 663 H 63.7503 3.79162 0.794673 0
M  V30 664 H 64.1643 5.15894 -0.946253 0
M  V30 665 H 65.6383 5.47081 0.73526 0
M  V30 666 H 66.1153 4.05953 1.67627 0
M  V30 667 H 66.7213 4.25297 0.0152951 0
M  V30 668 N 65.0364 0.313813 1.54444 0
M  V30 669 C 66.2854 -0.292519 1.99568 0
M  V30 670 C 66.5984 -1.54011 1.20582 0
M  V30 671 O 67.8044 -2.22183 1.56035 0
M  V30 672 C 66.2604 -0.571752 3.55329 0
M  V30 673 C 65.8684 0.658229 4.43138 0
M  V30 674 C 67.6124 -1.13857 4.08946 0
M  V30 675 C 65.5194 0.351439 5.90355 0
M  V30 676 H 64.4494 -0.113079 0.745472 0
M  V30 677 H 67.1004 0.424518 1.78522 0
M  V30 678 H 65.4824 -1.34872 3.72325 0
M  V30 679 H 66.6564 1.43403 4.37918 0
M  V30 680 H 64.9714 1.14458 4.0036 0
M  V30 681 H 67.5684 -1.38257 5.16516 0
M  V30 682 H 67.9114 -2.08489 3.6033 0
M  V30 683 H 68.4444 -0.423015 3.95544 0
M  V30 684 H 65.1834 1.26667 6.43145 0
M  V30 685 H 64.7034 -0.386842 5.98551 0
M  V30 686 H 66.3824 -0.0423134 6.46986 0
M  V30 687 N 66.5145 -1.57545 0.0417849 0
M  V30 688 C 67.4625 -2.12148 -0.953723 0
M  V30 689 C 68.4565 -1.05104 -1.32852 0
M  V30 690 O 69.6625 -1.23524 -1.30927 0
M  V30 691 H 66.0375 -0.677957 -0.325389 0
M  V30 692 H 68.0085 -2.94707 -0.467991 0
M  V30 693 C 66.7575 -2.6739 -2.22257 0
M  V30 694 H 66.0805 -3.49413 -1.94295 0
M  V30 695 H 67.5205 -3.09227 -2.90094 0
M  V30 696 C 65.9795 -1.60723 -2.96091 0
M  V30 697 O 66.5095 -1.01449 -3.88679 0
M  V30 698 N 64.7155 -1.32466 -2.58652 0
M  V30 699 H 64.2625 -1.80856 -1.83437 0
M  V30 700 H 64.2205 -0.61325 -3.08361 0
M  V30 701 N 67.9926 0.231505 -1.5589 0
M  V30 702 C 68.9026 1.308 -1.94752 0
M  V30 703 C 69.9186 1.51826 -0.849989 0
M  V30 704 O 71.0946 1.6515 -1.15271 0
M  V30 705 C 68.1596 2.63968 -2.24771 0
M  V30 706 C 67.2206 2.51331 -3.48039 0
M  V30 707 C 66.4536 3.78148 -3.76616 0
M  V30 708 O 66.6766 4.80722 -3.07022 0
M  V30 709 O 65.6106 3.75857 -4.70123 0
M  V30 710 H 69.4366 1.0083 -2.86474 0
M  V30 711 H 67.0216 0.433547 -1.42971 0
M  V30 712 H 68.9036 3.42633 -2.45318 0
M  V30 713 H 67.5786 2.9364 -1.36225 0
M  V30 714 H 66.4856 1.709 -3.32782 0
M  V30 715 H 67.8186 2.26601 -4.36936 0
M  V30 716 N 69.4707 1.49531 0.497807 0
M  V30 717 C 70.7197 1.58426 1.24837 0
M  V30 718 C 71.0327 0.277643 1.93619 0
M  V30 719 O 72.2387 0.24517 2.70391 0
M  V30 720 C 70.6947 2.79538 2.26686 0
M  V30 721 C 70.3027 4.16971 1.63828 0
M  V30 722 C 72.0467 2.97764 3.0255 0
M  V30 723 C 69.9537 5.29301 2.63807 0
M  V30 724 H 68.8837 0.58989 0.469623 0
M  V30 725 H 71.5347 1.75923 0.521857 0
M  V30 726 H 69.9167 2.55542 3.02514 0
M  V30 727 H 71.0907 4.51116 0.939711 0
M  V30 728 H 69.4057 4.04129 1.00342 0
M  V30 729 H 72.0027 3.78856 3.77323 0
M  V30 730 H 72.3457 2.08448 3.60354 0
M  V30 731 H 72.8787 3.21815 2.33838 0
M  V30 732 H 69.6177 6.20687 2.10779 0
M  V30 733 H 69.1377 4.99606 3.31894 0
M  V30 734 H 70.8167 5.58768 3.2617 0
M  V30 735 N 70.9488 -0.749086 1.3866 0
M  V30 736 C 71.8588 -1.89358 1.38494 0
M  V30 737 C 72.8748 -1.71708 0.281476 0
M  V30 738 O 74.0508 -1.94554 0.520643 0
M  V30 739 C 71.1158 -3.24782 1.21316 0
M  V30 740 C 70.1768 -3.54926 2.41508 0
M  V30 741 C 69.4098 -4.83888 2.2514 0
M  V30 742 O 69.6328 -5.56592 1.24746 0
M  V30 743 O 68.5668 -5.13612 3.13826 0
M  V30 744 H 72.3928 -1.92452 2.34938 0
M  V30 745 H 69.9778 -0.894981 1.19626 0
M  V30 746 H 71.8598 -4.05739 1.13814 0
M  V30 747 H 70.5348 -3.2249 0.279592 0
M  V30 748 H 69.4418 -2.74112 2.54585 0
M  V30 749 H 70.7748 -3.61983 3.3351 0
M  V30 750 N 72.4269 -1.23603 -0.977757 0
M  V30 751 C 73.7039 -0.977897 -1.69401 0
M  V30 752 C 74.0839 0.502738 -2.05026 0
M  V30 753 O 73.4319 1.47459 -1.74551 0
M  V30 754 C 73.6419 -1.89077 -2.93345 0
M  V30 755 C 74.9899 -2.15579 -3.65802 0
M  V30 756 O 76.0139 -1.86648 -3.03383 0
M  V30 757 O 74.8729 -2.64658 -4.78141 0
M  V30 758 H 71.9669 -0.369025 -0.740101 0
M  V30 759 H 74.5129 -1.34657 -1.03274 0
M  V30 760 H 73.2849 -2.89158 -2.63634 0
M  V30 761 H 72.9079 -1.52463 -3.67207 0
M  V30 762 N 73.905 1.17692 -1.04816 0
M  V30 763 C 75.133 1.91786 -0.776254 0
M  V30 764 C 75.548 1.76604 0.667577 0
M  V30 765 O 74.905 1.10067 1.45573 0
M  V30 766 C 74.956 3.42967 -1.14263 0
M  V30 767 O 74.677 3.57678 -2.52978 0
M  V30 768 C 76.178 4.34144 -0.896311 0
M  V30 769 H 73.398 0.608624 -0.282519 0
M  V30 770 H 75.942 1.49268 -1.39783 0
M  V30 771 H 74.097 3.83245 -0.565874 0
M  V30 772 H 74.511 4.51319 -2.67229 0
M  V30 773 H 75.985 5.38744 -1.20244 0
M  V30 774 H 76.462 4.38876 0.168636 0
M  V30 775 H 77.068 3.99574 -1.45672 0
M  V30 776 N 75.3831 0.828654 1.34056 0
M  V30 777 C 76.6301 0.419458 1.98108 0
M  V30 778 C 76.9581 -1.01886 1.65679 0
M  V30 779 O 76.2131 -1.72539 0.923512 0
M  V30 780 C 76.5121 0.575226 3.52741 0
M  V30 781 C 76.1781 1.98012 4.05095 0
M  V30 782 C 74.8401 2.36442 4.19104 0
M  V30 783 C 77.1921 2.89824 4.33188 0
M  V30 784 C 74.5201 3.66009 4.58535 0
M  V30 785 C 76.8721 4.1886 4.74066 0
M  V30 786 C 75.5361 4.5726 4.86281 0
M  V30 787 H 74.8061 0.153491 0.724929 0
M  V30 788 H 77.4531 1.05371 1.59904 0
M  V30 789 H 75.7581 -0.142385 3.91541 0
M  V30 790 H 77.4551 0.239057 4.00287 0
M  V30 791 H 74.0451 1.67162 3.94658 0
M  V30 792 H 78.2291 2.61375 4.21897 0
M  V30 793 H 73.4851 3.95579 4.66184 0
M  V30 794 H 77.6591 4.90086 4.94761 0
M  V30 795 H 75.2861 5.57707 5.16592 0
M  V30 796 N 76.8612 -1.46375 0.584142 0
M  V30 797 C 78.2772 -1.57694 0.245929 0
M  V30 798 C 78.4772 -1.57903 -1.25175 0
M  V30 799 O 77.5332 -1.49676 -2.03355 0
M  V30 800 C 78.8462 -2.87028 0.896402 0
M  V30 801 C 80.3942 -3.00662 0.870127 0
M  V30 802 C 80.8692 -4.32734 1.50017 0
M  V30 803 N 82.3602 -4.39436 1.46458 0
M  V30 804 C 83.0952 -5.40248 1.92144 0
M  V30 805 N 82.5912 -6.47726 2.4581 0
M  V30 806 N 84.3842 -5.31459 1.83052 0
M  V30 807 H 76.5352 -1.44483 1.55687 0
M  V30 808 H 78.7982 -0.689291 0.650831 0
M  V30 809 H 78.5042 -2.9269 1.95002 0
M  V30 810 H 78.3782 -3.75014 0.405486 0
M  V30 811 H 80.7652 -2.94581 -0.174871 0
M  V30 812 H 80.8462 -2.14148 1.39908 0
M  V30 813 H 80.4902 -4.39573 2.54437 0
M  V30 814 H 80.4202 -5.18025 0.946432 0
M  V30 815 H 82.9112 -3.62367 1.07231 0
M  V30 816 H 83.2242 -7.20863 2.78525 0
M  V30 817 H 81.5692 -6.48542 2.49836 0
M  V30 818 H 84.7602 -4.46396 1.40883 0
M  V30 819 H 84.9332 -6.09881 2.18973 0
M  V30 820 N 78.3393 -0.321999 -1.54275 0
M  V30 821 C 79.2713 0.578671 -2.21775 0
M  V30 822 C 80.2843 1.08109 -1.21722 0
M  V30 823 O 81.4733 0.994938 -1.482 0
M  V30 824 C 78.5733 1.80661 -2.86731 0
M  V30 825 C 77.7463 1.44314 -4.12907 0
M  V30 826 C 76.8053 2.52845 -4.61472 0
M  V30 827 O 75.8313 2.17054 -5.2619 0
M  V30 828 N 77.0333 3.83748 -4.35566 0
M  V30 829 H 79.7983 0.000709447 -2.997 0
M  V30 830 H 77.3593 -0.145132 -1.61248 0
M  V30 831 H 79.3513 2.52655 -3.16145 0
M  V30 832 H 77.9213 2.29245 -2.12521 0
M  V30 833 H 77.1413 0.554906 -3.90275 0
M  V30 834 H 78.4293 1.17598 -4.95023 0
M  V30 835 H 77.8273 4.15625 -3.83761 0
M  V30 836 H 76.3843 4.51977 -4.69638 0
M  V30 837 N 79.8174 1.5752 -0.0501392 0
M  V30 838 C 81.0644 1.9265 0.623874 0
M  V30 839 C 81.3924 0.928411 1.70912 0
M  V30 840 O 80.6474 -0.0594525 1.9561 0
M  V30 841 C 80.9464 3.34467 1.25963 0
M  V30 842 C 80.6124 4.49883 0.302689 0
M  V30 843 C 79.2744 4.81184 0.0393636 0
M  V30 844 C 81.6264 5.20002 -0.353205 0
M  V30 845 C 78.9544 5.79951 -0.887308 0
M  V30 846 C 81.3064 6.1976 -1.26806 0
M  V30 847 C 79.9704 6.49491 -1.54007 0
M  V30 848 H 79.2404 0.704957 0.228292 0
M  V30 849 H 81.8874 1.91146 -0.116398 0
M  V30 850 H 80.1924 3.32333 2.07514 0
M  V30 851 H 81.8894 3.58928 1.78806 0
M  V30 852 H 78.4794 4.25457 0.518109 0
M  V30 853 H 82.6634 4.96033 -0.162854 0
M  V30 854 H 77.9194 6.01322 -1.10553 0
M  V30 855 H 82.0934 6.73205 -1.78236 0
M  V30 856 H 79.7204 7.25837 -2.25976 0
M  V30 857 N 81.2955 -0.223234 1.56011 0
M  V30 858 C 82.2255 -1.27988 1.95298 0
M  V30 859 C 83.2065 -1.48976 0.820979 0
M  V30 860 O 84.3915 -1.61188 1.08315 0
M  V30 861 C 81.5215 -2.63 2.26822 0
M  V30 862 C 80.4755 -2.56671 3.42497 0
M  V30 863 C 79.8015 -3.95697 3.59622 0
M  V30 864 C 81.1015 -2.11601 4.77517 0
M  V30 865 H 82.7955 -0.953525 2.8381 0
M  V30 866 H 80.3415 -0.457244 1.36548 0
M  V30 867 H 82.2945 -3.37077 2.52898 0
M  V30 868 H 81.0185 -2.9732 1.35161 0
M  V30 869 H 79.6775 -1.85051 3.16467 0
M  V30 870 H 79.3255 -4.27322 2.6534 0
M  V30 871 H 79.0255 -3.92345 4.37424 0
M  V30 872 H 80.5495 -4.71438 3.88044 0
M  V30 873 H 81.9635 -2.7542 5.02809 0
M  V30 874 H 80.3605 -2.19311 5.5859 0
M  V30 875 H 81.4305 -1.06824 4.72987 0
M  V30 876 N 82.7736 -1.49793 -0.48987 0
M  V30 877 C 83.7216 -1.67783 -1.61095 0
M  V30 878 C 84.7156 -0.543683 -1.60438 0
M  V30 879 O 85.9216 -0.723647 -1.64813 0
M  V30 880 H 82.2966 -0.529255 -0.534222 0
M  V30 881 H 84.2676 -2.61861 -1.43078 0
M  V30 882 C 83.0166 -1.77191 -2.99164 0
M  V30 883 H 82.3396 -2.63841 -3.0038 0
M  V30 884 H 83.7796 -1.93809 -3.77113 0
M  V30 885 C 82.2386 -0.519203 -3.32875 0
M  V30 886 O 82.7686 0.350124 -4.00171 0
M  V30 887 N 80.9746 -0.378816 -2.8812 0
M  V30 888 H 80.5216 -1.08725 -2.33531 0
M  V30 889 H 80.4796 0.458239 -3.11043 0
M  V30 890 N 84.2517 0.741722 -1.39055 0
M  V30 891 C 85.6677 1.04638 -1.20512 0
M  V30 892 C 85.8677 2.01405 -0.0620218 0
M  V30 893 O 84.9237 2.45547 0.588457 0
M  V30 894 C 86.2367 1.6151 -2.53643 0
M  V30 895 C 87.7847 1.73623 -2.6043 0
M  V30 896 C 88.2597 2.33906 -3.93767 0
M  V30 897 N 89.7507 2.41323 -3.9537 0
M  V30 898 C 90.4857 2.88888 -4.95309 0
M  V30 899 N 89.9817 3.36401 -6.05645 0
M  V30 900 N 91.7747 2.88037 -4.82692 0
M  V30 901 H 83.9257 0.0998155 -2.12165 0
M  V30 902 H 86.1887 0.106907 -0.941953 0
M  V30 903 H 85.8947 0.978739 -3.37807 0
M  V30 904 H 85.7687 2.60411 -2.72885 0
M  V30 905 H 88.1557 2.36384 -1.76655 0
M  V30 906 H 88.2367 0.733945 -2.45045 0
M  V30 907 H 87.8807 1.71776 -4.7797 0
M  V30 908 H 87.8107 3.34799 -4.06469 0
M  V30 909 H 90.3017 2.07734 -3.15682 0
M  V30 910 H 90.6147 3.71186 -6.77821 0
M  V30 911 H 88.9597 3.34427 -6.09248 0
M  V30 912 H 92.1507 2.50237 -3.95599 0
M  V30 913 H 92.3237 3.24792 -5.60726 0
M  V30 914 N 85.7298 1.2412 0.971189 0
M  V30 915 C 87.0068 0.986867 1.6888 0
M  V30 916 C 87.3868 -0.491857 2.0529 0
M  V30 917 O 86.7348 -1.46531 1.75331 0
M  V30 918 C 86.9448 1.9063 2.92338 0
M  V30 919 C 88.2928 2.17515 3.64654 0
M  V30 920 O 89.3168 1.88254 3.02388 0
M  V30 921 O 88.1758 2.6719 4.7673 0
M  V30 922 H 85.2698 0.372944 0.738134 0
M  V30 923 H 87.8158 1.35203 1.02559 0
M  V30 924 H 86.5878 2.90552 2.62097 0
M  V30 925 H 86.2108 1.54408 3.66393 0
M  V30 926 N 87.2079 -1.17134 1.05439 0
M  V30 927 C 88.4849 -1.83411 0.679699 0
M  V30 928 C 88.8649 -1.9368 -0.839726 0
M  V30 929 O 88.2129 -1.47325 -1.74664 0
M  V30 930 C 88.4229 -3.20918 1.37159 0
M  V30 931 C 89.7709 -3.96796 1.51123 0
M  V30 932 O 90.7949 -3.30406 1.3308 0
M  V30 933 O 89.6539 -5.15778 1.80651 0
M  V30 934 H 86.7479 -0.79154 0.239569 0
M  V30 935 H 89.2939 -1.24411 1.15413 0
M  V30 936 H 88.0659 -3.08428 2.40807 0
M  V30 937 H 87.6889 -3.87587 0.886674 0
M  V30 938 N 88.686 -0.835752 -1.33615 0
M  V30 939 C 89.935 -0.426289 -1.97144 0
M  V30 940 C 90.248 1.01912 -1.66953 0
M  V30 941 O 91.454 1.53311 -2.24072 0
M  V30 942 C 89.91 -0.711321 -3.52801 0
M  V30 943 C 89.518 -2.1712 -3.91871 0
M  V30 944 C 91.262 -0.368654 -4.22896 0
M  V30 945 C 89.169 -2.40044 -5.40493 0
M  V30 946 H 88.099 -0.15567 -0.737755 0
M  V30 947 H 90.75 -1.0239 -1.52278 0
M  V30 948 H 89.132 -0.0433766 -3.95976 0
M  V30 949 H 90.306 -2.87936 -3.59763 0
M  V30 950 H 88.621 -2.47654 -3.34749 0
M  V30 951 H 91.218 -0.517601 -5.32189 0
M  V30 952 H 91.561 0.688078 -4.10574 0
M  V30 953 H 92.094 -0.991702 -3.8524 0
M  V30 954 H 88.833 -3.44271 -5.57815 0
M  V30 955 H 88.353 -1.73785 -5.74072 0
M  V30 956 H 90.032 -2.23042 -6.0734 0
M  V30 957 N 90.1641 1.46063 -0.591896 0
M  V30 958 C 91.4121 2.01938 -0.0808391 0
M  V30 959 C 91.7331 1.46475 1.28725 0
M  V30 960 O 91.0031 0.652944 1.84698 0
M  V30 961 H 89.5831 0.746516 -0.0268938 0
M  V30 962 H 92.2451 1.79055 -0.769752 0
M  V30 963 H 91.3411 3.12094 -0.0187578 0
M  V30 964 N 91.6422 0.330177 1.54103 0
M  V30 965 C 92.8912 -0.271336 1.99867 0
M  V30 966 C 93.2042 -1.52723 1.22209 0
M  V30 967 O 94.4102 -2.20515 1.58383 0
M  V30 968 C 92.8662 -0.534032 3.55916 0
M  V30 969 C 92.4742 0.705193 4.42415 0
M  V30 970 C 94.2182 -1.09514 4.1013 0
M  V30 971 C 92.1252 0.414035 5.89949 0
M  V30 972 H 91.0552 -0.105166 0.74663 0
M  V30 973 H 93.7062 0.443429 1.78062 0
M  V30 974 H 92.0882 -1.30915 3.73734 0
M  V30 975 H 93.2622 1.4804 4.36372 0
M  V30 976 H 91.5772 1.18698 3.99124 0
M  V30 977 H 94.1742 -1.3277 5.17954 0
M  V30 978 H 94.5172 -2.04656 3.62521 0
M  V30 979 H 95.0502 -0.381038 3.95971 0
M  V30 980 H 91.7892 1.33481 6.41766 0
M  V30 981 H 91.3092 -0.323336 5.98928 0
M  V30 982 H 92.9882 0.0263105 6.46995 0
M  V30 983 N 93.1203 -1.57491 0.0584922 0
M  V30 984 C 94.3693 -1.92155 -0.613146 0
M  V30 985 C 94.6823 -0.939334 -1.71569 0
M  V30 986 O 95.8883 -1.17829 -2.44599 0
M  V30 987 C 94.3443 -3.41303 -1.14195 0
M  V30 988 C 93.9523 -4.47944 -0.0711265 0
M  V30 989 C 95.6963 -3.84988 -1.78841 0
M  V30 990 C 93.6033 -5.88212 -0.613225 0
M  V30 991 H 92.5333 -0.717162 -0.232796 0
M  V30 992 H 95.1843 -1.83049 0.12857 0
M  V30 993 H 93.5663 -3.45437 -1.93621 0
M  V30 994 H 94.7403 -4.55408 0.702836 0
M  V30 995 H 93.0553 -4.13644 0.478313 0
M  V30 996 H 95.6523 -4.87159 -2.20408 0
M  V30 997 H 95.9953 -3.21632 -2.64308 0
M  V30 998 H 96.5283 -3.83401 -1.06059 0
M  V30 999 H 93.2673 -6.55183 0.203978 0
M  V30 1000 H 92.7873 -5.84294 -1.35501 0
M  V30 1001 H 94.4663 -6.37687 -1.09383 0
M  V30 1002 N 94.5984 0.214957 -1.56127 0
M  V30 1003 C 95.5284 1.2695 -1.95974 0
M  V30 1004 C 96.5094 1.48539 -0.828868 0
M  V30 1005 O 97.6944 1.60611 -1.09168 0
M  V30 1006 C 94.8244 2.61794 -2.28214 0
M  V30 1007 C 93.7784 2.54851 -3.43853 0
M  V30 1008 C 93.1044 3.93785 -3.61715 0
M  V30 1009 C 94.4044 2.09065 -4.78632 0
M  V30 1010 H 96.0984 0.93846 -2.84312 0
M  V30 1011 H 93.6444 0.449996 -1.36788 0
M  V30 1012 H 95.5974 3.35731 -2.54682 0
M  V30 1013 H 94.3214 2.96599 -1.36736 0
M  V30 1014 H 92.9804 1.8337 -3.17444 0
M  V30 1015 H 92.6284 4.25908 -2.67602 0
M  V30 1016 H 92.3284 3.90019 -4.39498 0
M  V30 1017 H 93.8524 4.69374 -3.90539 0
M  V30 1018 H 95.2664 2.7275 -5.04262 0
M  V30 1019 H 93.6634 2.16346 -5.59745 0
M  V30 1020 H 94.7334 1.04315 -4.73547 0
M  V30 1021 N 96.0765 1.50051 0.48192 0
M  V30 1022 C 97.3255 1.59741 1.23149 0
M  V30 1023 C 97.6385 0.298163 1.93314 0
M  V30 1024 O 98.8445 0.273835 2.70116 0
M  V30 1025 C 97.3005 2.81926 2.23708 0
M  V30 1026 C 96.9085 4.18685 1.59396 0
M  V30 1027 C 98.6525 3.00956 2.99375 0
M  V30 1028 C 96.5595 5.3207 2.58178 0
M  V30 1029 H 95.4895 0.594838 0.46334 0
M  V30 1030 H 98.1405 1.76467 0.503169 0
M  V30 1031 H 96.5225 2.58736 2.99786 0
M  V30 1032 H 97.6965 4.52088 0.891811 0
M  V30 1033 H 96.0115 4.05171 0.960503 0
M  V30 1034 H 98.6085 3.82836 3.73283 0
M  V30 1035 H 98.9515 2.12258 3.58123 0
M  V30 1036 H 99.4845 3.24277 2.30411 0
M  V30 1037 H 96.2235 6.22888 2.04184 0
M  V30 1038 H 95.7435 5.03098 3.26577 0
M  V30 1039 H 97.4225 5.62196 3.20225 0
M  V30 1040 N 97.5546 -0.734337 1.39446 0
M  V30 1041 C 98.5026 -1.86971 1.38364 0
M  V30 1042 C 99.4966 -1.67288 0.266687 0
M  V30 1043 O 100.703 -1.74621 0.436755 0
M  V30 1044 H 97.0776 -0.615474 0.432082 0
M  V30 1045 H 99.0486 -1.85 2.34132 0
M  V30 1046 C 97.7976 -3.2466 1.24465 0
M  V30 1047 H 97.1206 -3.40402 2.09682 0
M  V30 1048 H 98.5606 -4.04292 1.27764 0
M  V30 1049 C 97.0196 -3.36867 -0.0468674 0
M  V30 1050 O 97.5496 -3.88618 -1.01681 0
M  V30 1051 N 95.7556 -2.90391 -0.110145 0
M  V30 1052 H 95.3026 -2.48466 0.679868 0
M  V30 1053 H 95.2606 -2.98939 -0.973799 0
M  V30 1054 N 99.0327 -1.24633 -0.964593 0
M  V30 1055 C 99.9647 -0.999302 -2.06268 0
M  V30 1056 C 100.978 0.0323226 -1.62768 0
M  V30 1057 O 102.167 -0.205079 -1.77318 0
M  V30 1058 C 99.2667 -0.486816 -3.35385 0
M  V30 1059 C 98.4397 -1.5823 -4.07777 0
M  V30 1060 C 97.4987 -1.07191 -5.15166 0
M  V30 1061 O 96.5247 -1.76426 -5.41168 0
M  V30 1062 N 97.7267 0.0920373 -5.80427 0
M  V30 1063 H 100.492 -1.94477 -2.28033 0
M  V30 1064 H 98.0527 -1.15704 -1.13244 0
M  V30 1065 H 100.045 -0.130066 -4.04491 0
M  V30 1066 H 98.6147 0.364459 -3.10468 0
M  V30 1067 H 97.8347 -2.11109 -3.32906 0
M  V30 1068 H 99.1227 -2.31854 -4.52903 0
M  V30 1069 H 98.5207 0.670784 -5.61709 0
M  V30 1070 H 97.0777 0.389905 -6.50633 0
M  V30 1071 N 100.511 1.16574 -1.06058 0
M  V30 1072 C 101.741 1.90675 -0.795397 0
M  V30 1073 C 102.149 1.77547 0.653735 0
M  V30 1074 O 101.492 1.11611 1.45907 0
M  V30 1075 C 101.554 3.42011 -1.10764 0
M  V30 1076 C 101.218 3.78924 -2.55471 0
M  V30 1077 C 102.215 3.81042 -3.53699 0
M  V30 1078 C 99.8998 4.09626 -2.90708 0
M  V30 1079 C 101.894 4.13346 -4.85205 0
M  V30 1080 C 99.5808 4.41597 -4.22416 0
M  V30 1081 C 100.579 4.43436 -5.19474 0
M  V30 1082 O 100.267 4.74649 -6.48817 0
M  V30 1083 H 99.9988 0.611554 -0.288058 0
M  V30 1084 H 102.553 1.48711 -1.41683 0
M  V30 1085 H 100.783 3.84312 -0.429128 0
M  V30 1086 H 102.472 3.97384 -0.827077 0
M  V30 1087 H 103.238 3.57437 -3.27817 0
M  V30 1088 H 99.1168 4.07361 -2.15819 0
M  V30 1089 H 102.661 4.14696 -5.60957 0
M  V30 1090 H 98.5578 4.64667 -4.48056 0
M  V30 1091 H 99.3258 4.9247 -6.5377 0
M  V30 1092 N 101.989 0.842826 1.3317 0
M  V30 1093 C 103.238 0.436738 1.96915 0
M  V30 1094 C 103.551 -1.01025 1.67491 0
M  V30 1095 O 104.757 -1.5212 2.24881 0
M  V30 1096 C 103.213 0.730021 3.52418 0
M  V30 1097 C 102.821 2.19195 3.90714 0
M  V30 1098 C 104.565 0.391076 4.22695 0
M  V30 1099 C 102.472 2.42907 5.39212 0
M  V30 1100 H 101.402 0.15958 0.736919 0
M  V30 1101 H 104.053 1.03196 1.51733 0
M  V30 1102 H 102.435 0.0643755 3.95948 0
M  V30 1103 H 103.609 2.8984 3.58231 0
M  V30 1104 H 101.924 2.49425 3.33431 0
M  V30 1105 H 104.521 0.545817 5.31907 0
M  V30 1106 H 104.864 -0.666294 4.10933 0
M  V30 1107 H 105.397 1.01212 3.84709 0
M  V30 1108 H 102.136 3.47224 5.55982 0
M  V30 1109 H 101.656 1.76827 5.73142 0
M  V30 1110 H 103.335 2.2626 6.06148 0
M  V30 1111 N 103.467 -1.45747 0.599634 0
M  V30 1112 C 104.43 -2.28917 -0.113835 0
M  V30 1113 C 105.43 -1.3933 -0.802729 0
M  V30 1114 O 106.62 -1.61534 -0.652103 0
M  V30 1115 C 103.752 -3.20152 -1.17114 0
M  V30 1116 H 104.945 -2.93478 0.617289 0
M  V30 1117 H 102.498 -1.52137 0.358327 0
M  V30 1118 H 103.233 -2.60374 -1.93329 0
M  V30 1119 H 103.018 -3.86133 -0.681468 0
M  V30 1120 H 104.508 -3.82708 -1.67105 0
M  V30 1121 N 104.945 -0.338344 -1.53925 0
M  V30 1122 C 105.855 0.529421 -2.28548 0
M  V30 1123 C 106.871 1.11645 -1.3346 0
M  V30 1124 O 108.047 1.13325 -1.66492 0
M  V30 1125 C 105.112 1.66713 -3.03987 0
M  V30 1126 C 104.173 1.11041 -4.14691 0
M  V30 1127 C 103.406 2.19389 -4.86522 0
M  V30 1128 O 103.629 3.40013 -4.57982 0
M  V30 1129 O 102.563 1.83976 -5.73094 0
M  V30 1130 H 106.389 -0.0770399 -3.03602 0
M  V30 1131 H 103.974 -0.103555 -1.49041 0
M  V30 1132 H 105.856 2.32918 -3.5118 0
M  V30 1133 H 104.531 2.25949 -2.31794 0
M  V30 1134 H 103.438 0.413024 -3.71813 0
M  V30 1135 H 104.771 0.562975 -4.8897 0
M  V30 1136 N 106.423 1.57458 -0.0668435 0
M  V30 1137 C 107.356 2.08033 0.93795 0
M  V30 1138 C 108.334 0.984321 1.29421 0
M  V30 1139 O 109.518 1.25736 1.40437 0
M  V30 1140 C 106.645 2.53388 2.24749 0
M  V30 1141 C 105.691 3.74376 2.04315 0
M  V30 1142 S 106.524 5.19303 1.30706 0
M  V30 1143 C 107.68 5.67986 2.62951 0
M  V30 1144 H 107.913 2.92935 0.50759 0
M  V30 1145 H 105.446 1.5371 0.145804 0
M  V30 1146 H 107.404 2.8018 3.00016 0
M  V30 1147 H 106.065 1.68763 2.64911 0
M  V30 1148 H 105.258 4.04083 3.01218 0
M  V30 1149 H 104.86 3.47931 1.37186 0
M  V30 1150 H 107.152 5.74528 3.5906 0
M  V30 1151 H 108.095 6.66955 2.3786 0
M  V30 1152 H 108.503 4.95781 2.69929 0
M  V30 1153 N 107.901 -0.206675 1.56239 0
M  V30 1154 C 109.147 -0.930218 1.80208 0
M  V30 1155 C 109.48 -1.83387 0.638981 0
M  V30 1156 O 108.755 -1.91119 -0.361066 0
M  V30 1157 C 109.038 -1.75641 3.1436 0
M  V30 1158 C 108.891 -0.878257 4.41142 0
M  V30 1159 C 110.21 -2.73129 3.45092 0
M  V30 1160 H 107.329 -0.336742 0.655571 0
M  V30 1161 H 109.971 -0.198222 1.88963 0
M  V30 1162 H 108.121 -2.38048 3.07027 0
M  V30 1163 H 109.793 -0.269787 4.6051 0
M  V30 1164 H 108.036 -0.184385 4.33408 0
M  V30 1165 H 108.707 -1.49106 5.3148 0
M  V30 1166 H 111.183 -2.20856 3.52649 0
M  V30 1167 H 110.059 -3.28028 4.40101 0
M  V30 1168 H 110.32 -3.51606 2.68003 0
M  V30 1169 N 109.379 -1.50304 -0.473955 0
M  V30 1170 C 110.795 -1.37667 -0.807466 0
M  V30 1171 C 110.995 -0.430555 -1.96846 0
M  V30 1172 O 110.051 0.127874 -2.52176 0
M  V30 1173 C 111.364 -2.78974 -1.12223 0
M  V30 1174 C 112.912 -2.87868 -1.22885 0
M  V30 1175 C 113.387 -4.30003 -1.57676 0
M  V30 1176 N 114.878 -4.3294 -1.64673 0
M  V30 1177 C 115.613 -5.3991 -1.93091 0
M  V30 1178 N 115.109 -6.57092 -2.1955 0
M  V30 1179 N 116.902 -5.27351 -1.94569 0
M  V30 1180 H 109.053 -2.10394 0.291212 0
M  V30 1181 H 111.316 -0.945575 0.0677609 0
M  V30 1182 H 111.022 -3.50031 -0.342229 0
M  V30 1183 H 110.896 -3.16038 -2.05913 0
M  V30 1184 H 113.283 -2.17032 -1.99953 0
M  V30 1185 H 113.364 -2.54352 -0.271814 0
M  V30 1186 H 113.008 -5.01375 -0.81149 0
M  V30 1187 H 112.938 -4.61004 -2.54525 0
M  V30 1188 H 115.429 -3.48441 -1.46277 0
M  V30 1189 H 115.742 -7.34425 -2.405 0
M  V30 1190 H 114.087 -6.60272 -2.16948 0
M  V30 1191 H 117.278 -4.34801 -1.73394 0
M  V30 1192 H 117.451 -6.10805 -2.16381 0
M  V30 1193 N 110.857 0.726932 -1.39834 0
M  V30 1194 C 111.807 1.83232 -1.35683 0
M  V30 1195 C 112.791 1.59155 -0.236295 0
M  V30 1196 O 113.983 1.70522 -0.474488 0
M  V30 1197 C 111.112 3.21246 -1.21062 0
M  V30 1198 C 110.198 3.51125 -2.37849 0
M  V30 1199 N 110.589 3.51889 -3.63329 0
M  V30 1200 C 108.887 3.81527 -2.30982 0
M  V30 1201 C 109.588 3.79791 -4.40606 0
M  V30 1202 N 108.564 3.97971 -3.70297 0
M  V30 1203 H 112.366 1.8214 -2.30656 0
M  V30 1204 H 109.88 0.925545 -1.33444 0
M  V30 1205 H 111.877 4.00387 -1.16171 0
M  V30 1206 H 110.537 3.23572 -0.270458 0
M  V30 1207 H 111.548 3.33008 -3.96643 0
M  V30 1208 H 108.225 3.91411 -1.45272 0
M  V30 1209 H 109.615 3.86783 -5.49408 0
M  V30 1210 N 112.336 1.25143 0.95797 0
M  V30 1211 C 113.299 1.05321 2.03569 0
M  V30 1212 C 114.299 0.007152 1.60798 0
M  V30 1213 O 115.489 0.24903 1.72411 0
M  V30 1214 C 112.621 0.598394 3.35607 0
M  V30 1215 H 113.814 2.00986 2.22586 0
M  V30 1216 H 111.367 1.07502 1.13459 0
M  V30 1217 H 112.102 -0.361014 3.22284 0
M  V30 1218 H 111.887 1.35351 3.67998 0
M  V30 1219 H 113.377 0.48104 4.1482 0
M  V30 1220 N 113.814 -1.1601 1.06675 0
M  V30 1221 C 114.744 -2.22688 0.702307 0
M  V30 1222 C 115.725 -1.67306 -0.307032 0
M  V30 1223 O 116.91 -1.93352 -0.181305 0
M  V30 1224 C 114.04 -3.47178 0.092038 0
M  V30 1225 C 112.994 -4.15477 1.02777 0
M  V30 1226 C 112.32 -5.33963 0.28061 0
M  V30 1227 C 113.62 -4.66019 2.35846 0
M  V30 1228 H 115.314 -2.53429 1.59419 0
M  V30 1229 H 112.86 -1.21813 0.767961 0
M  V30 1230 H 114.813 -4.21037 -0.174814 0
M  V30 1231 H 113.537 -3.15749 -0.834877 0
M  V30 1232 H 112.196 -3.43549 1.27944 0
M  V30 1233 H 111.844 -4.98788 -0.649545 0
M  V30 1234 H 111.544 -5.806 0.904258 0
M  V30 1235 H 113.068 -6.10596 0.021396 0
M  V30 1236 H 114.482 -5.3144 2.15045 0
M  V30 1237 H 112.879 -5.23293 2.93743 0
M  V30 1238 H 113.949 -3.82023 2.98641 0
M  V30 1239 N 115.292 -0.849877 -1.32721 0
M  V30 1240 C 116.569 -0.372405 -1.92022 0
M  V30 1241 C 116.949 1.1435 -1.77447 0
M  V30 1242 O 116.297 1.96296 -1.16962 0
M  V30 1243 C 116.507 -0.831482 -3.3895 0
M  V30 1244 C 117.855 -0.845882 -4.16089 0
M  V30 1245 O 118.879 -0.775806 -3.47649 0
M  V30 1246 O 117.738 -0.943753 -5.38289 0
M  V30 1247 H 114.832 -0.107667 -0.819961 0
M  V30 1248 H 117.378 -0.93646 -1.41522 0
M  V30 1249 H 116.15 -1.87448 -3.4348 0
M  V30 1250 H 115.773 -0.24461 -3.96847 0
M  V30 1251 N 116.77 1.45427 -0.607355 0
M  V30 1252 C 117.733 2.28974 0.101693 0
M  V30 1253 C 118.733 1.39754 0.795329 0
M  V30 1254 O 119.923 1.61878 0.643527 0
M  V30 1255 C 117.055 3.20768 1.15414 0
M  V30 1256 H 118.248 2.93147 -0.632844 0
M  V30 1257 H 115.801 1.51945 -0.366391 0
M  V30 1258 H 116.536 2.61395 1.91945 0
M  V30 1259 H 116.321 3.86489 0.66098 0
M  V30 1260 H 117.811 3.83589 1.65073 0
M  V30 1261 N 118.248 0.346503 1.53744 0
M  V30 1262 C 119.198 -0.524953 2.21874 0
M  V30 1263 C 120.182 -1.06376 1.20718 0
M  V30 1264 O 121.374 -0.996972 1.46251 0
M  V30 1265 C 118.503 -1.6739 2.99726 0
M  V30 1266 C 117.589 -1.14888 4.08242 0
M  V30 1267 N 117.98 -0.345329 5.0462 0
M  V30 1268 C 116.278 -1.4255 4.22606 0
M  V30 1269 C 116.979 -0.0600706 5.81669 0
M  V30 1270 N 115.955 -0.65252 5.39669 0
M  V30 1271 H 119.757 0.0960091 2.93743 0
M  V30 1272 H 117.271 0.15352 1.61673 0
M  V30 1273 H 119.268 -2.3102 3.47038 0
M  V30 1274 H 117.928 -2.29811 2.29384 0
M  V30 1275 H 118.939 0.0138439 5.17898 0
M  V30 1276 H 115.616 -2.05389 3.63486 0
M  V30 1277 H 117.006 0.588321 6.69319 0
M  V30 1278 N 119.726 -1.57421 0.075193 0
M  V30 1279 C 120.658 -2.09904 -0.920483 0
M  V30 1280 C 121.671 -1.03191 -1.25918 0
M  V30 1281 O 122.86 -1.30695 -1.21577 0
M  V30 1282 C 119.96 -2.54726 -2.23534 0
M  V30 1283 C 119.133 -3.8505 -2.07498 0
M  V30 1284 C 118.192 -4.15929 -3.22319 0
M  V30 1285 O 117.218 -4.85474 -2.9716 0
M  V30 1286 N 118.42 -3.69745 -4.47514 0
M  V30 1287 H 121.185 -2.95954 -0.472359 0
M  V30 1288 H 118.746 -1.61523 -0.110444 0
M  V30 1289 H 120.738 -2.72443 -2.9926 0
M  V30 1290 H 119.308 -1.73795 -2.59835 0
M  V30 1291 H 118.528 -3.76679 -1.16219 0
M  V30 1292 H 119.816 -4.70348 -1.94038 0
M  V30 1293 H 119.214 -3.13569 -4.7084 0
M  V30 1294 H 117.771 -3.92655 -5.20255 0
M  V30 1295 N 121.204 0.198386 -1.56346 0
M  V30 1296 C 122.136 1.26987 -1.90806 0
M  V30 1297 C 123.149 1.41877 -0.798419 0
M  V30 1298 O 124.338 1.42362 -1.07682 0
M  V30 1299 C 121.438 2.64246 -2.12196 0
M  V30 1300 C 120.611 2.71007 -3.43328 0
M  V30 1301 C 119.67 3.89439 -3.5387 0
M  V30 1302 O 118.696 3.76695 -4.26719 0
M  V30 1303 N 119.898 5.04752 -2.86715 0
M  V30 1304 H 122.663 0.977433 -2.83313 0
M  V30 1305 H 120.224 0.388322 -1.57174 0
M  V30 1306 H 122.216 3.41896 -2.1654 0
M  V30 1307 H 120.786 2.85992 -1.26204 0
M  V30 1308 H 120.006 1.79657 -3.50881 0
M  V30 1309 H 121.294 2.72512 -4.29668 0
M  V30 1310 H 120.692 5.18004 -2.2735 0
M  V30 1311 H 119.249 5.8036 -2.96691 0
M  V30 1312 N 122.682 1.50554 0.465978 0
M  V30 1313 C 123.907 1.65838 1.24549 0
M  V30 1314 C 124.332 0.343486 1.84937 0
M  V30 1315 O 123.69 -0.69324 1.67523 0
M  V30 1316 C 123.738 2.75533 2.32624 0
M  V30 1317 O 122.842 2.37142 3.37398 0
M  V30 1318 H 122.183 0.553893 0.366194 0
M  V30 1319 H 124.713 1.96959 0.553927 0
M  V30 1320 H 124.723 2.98763 2.77857 0
M  V30 1321 H 123.398 3.70962 1.88043 0
M  V30 1322 H 121.975 2.24377 2.97841 0
M  V30 1323 N 124.16 -0.719506 1.40217 0
M  V30 1324 C 125.409 -1.47486 1.37589 0
M  V30 1325 C 125.722 -1.9559 -0.0201568 0
M  V30 1326 O 126.928 -2.70973 -0.169049 0
M  V30 1327 C 125.384 -2.66575 2.41796 0
M  V30 1328 C 124.992 -2.25358 3.87192 0
M  V30 1329 C 126.736 -3.4433 2.48269 0
M  V30 1330 C 124.643 -3.41262 4.83005 0
M  V30 1331 H 123.573 -0.553901 0.511576 0
M  V30 1332 H 126.224 -0.783427 1.65936 0
M  V30 1333 H 124.606 -3.3787 2.06543 0
M  V30 1334 H 125.78 -1.61509 4.31569 0
M  V30 1335 H 124.095 -1.60657 3.84159 0
M  V30 1336 H 126.692 -4.30569 3.17041 0
M  V30 1337 H 127.035 -3.87872 1.51198 0
M  V30 1338 H 127.568 -2.80076 2.82493 0
M  V30 1339 H 124.307 -3.02755 5.81394 0
M  V30 1340 H 123.827 -4.0404 4.43297 0
M  V30 1341 H 125.506 -4.07383 5.02641 0
M  V30 1342 N 125.638 -1.25649 -0.95132 0
M  V30 1343 C 127.049 -1.09654 -1.51106 0
M  V30 1344 C 127.4 0.326615 -1.93462 0
M  V30 1345 O 126.525 1.21697 -1.78938 0
M  V30 1346 C 127.12 -1.98437 -2.74605 0
M  V30 1347 C 125.679 -1.86618 -3.2688 0
M  V30 1348 C 124.826 -1.9239 -1.99703 0
M  V30 1349 H 127.777 -1.38887 -0.767865 0
M  V30 1350 H 127.798 -1.5263 -3.48546 0
M  V30 1351 H 127.31 -3.02009 -2.43746 0
M  V30 1352 H 125.411 -0.859421 -3.62553 0
M  V30 1353 H 125.524 -2.71607 -3.94673 0
M  V30 1354 H 123.888 -1.36317 -2.15151 0
M  V30 1355 H 124.671 -2.97573 -1.71188 0
M  V30 1356 N 127.117 1.15442 -1.07289 0
M  V30 1357 C 128.08 2.18358 -0.696591 0
M  V30 1358 C 129.08 1.58637 0.262837 0
M  V30 1359 O 130.27 1.74145 0.0438809 0
M  V30 1360 C 127.402 3.4089 -0.0266151 0
M  V30 1361 H 128.595 2.53162 -1.60776 0
M  V30 1362 H 126.148 1.29893 -0.869342 0
M  V30 1363 H 126.883 3.11653 0.896822 0
M  V30 1364 H 126.668 3.85495 -0.716657 0
M  V30 1365 H 128.158 4.17009 0.222028 0
M  V30 1366 N 128.595 0.856903 1.32268 0
M  V30 1367 C 129.841 0.462069 1.97466 0
M  V30 1368 C 130.174 -0.980298 1.67642 0
M  V30 1369 O 129.449 -1.68824 0.965858 0
M  V30 1370 C 129.732 0.704336 3.53145 0
M  V30 1371 C 129.585 2.19529 3.9259 0
M  V30 1372 C 130.904 0.1622 4.39801 0
M  V30 1373 H 128.023 0.169357 0.717278 0
M  V30 1374 H 130.665 1.07574 1.56614 0
M  V30 1375 H 128.815 0.181999 3.88073 0
M  V30 1376 H 130.487 2.78387 3.67829 0
M  V30 1377 H 128.73 2.67292 3.41668 0
M  V30 1378 H 129.401 2.31549 5.01088 0
M  V30 1379 H 131.877 0.608905 4.11621 0
M  V30 1380 H 130.753 0.361265 5.4771 0
M  V30 1381 H 131.014 -0.935158 4.32096 0
M  V30 1382 N 130.073 -1.45103 0.615059 0
M  V30 1383 C 131.003 -2.33339 -0.0865619 0
M  V30 1384 C 131.984 -1.4727 -0.851209 0
M  V30 1385 O 133.169 -1.76026 -0.820281 0
M  V30 1386 C 130.299 -3.30095 -1.07956 0
M  V30 1387 C 129.253 -4.25858 -0.427628 0
M  V30 1388 C 128.579 -5.12361 -1.5294 0
M  V30 1389 C 129.879 -5.18165 0.655944 0
M  V30 1390 H 131.573 -2.92254 0.650224 0
M  V30 1391 H 129.119 -1.40532 0.314138 0
M  V30 1392 H 131.072 -3.90698 -1.57901 0
M  V30 1393 H 129.796 -2.69355 -1.84703 0
M  V30 1394 H 128.455 -3.66564 0.0510292 0
M  V30 1395 H 128.103 -4.47984 -2.28734 0
M  V30 1396 H 127.803 -5.77238 -1.09865 0
M  V30 1397 H 129.327 -5.75833 -2.03098 0
M  V30 1398 H 130.741 -5.72796 0.240257 0
M  V30 1399 H 129.138 -5.91559 1.00888 0
M  V30 1400 H 130.208 -4.60144 1.52957 0
M  V30 1401 N 131.551 -0.354651 -1.53558 0
M  V30 1402 C 132.461 0.50515 -2.29097 0
M  V30 1403 C 133.477 1.10223 -1.34636 0
M  V30 1404 O 134.653 1.11553 -1.67684 0
M  V30 1405 C 131.718 1.63479 -3.05738 0
M  V30 1406 C 130.779 1.06636 -4.15845 0
M  V30 1407 C 130.012 2.14217 -4.88822 0
M  V30 1408 O 130.235 3.35137 -4.61562 0
M  V30 1409 O 129.169 1.77887 -5.75013 0
M  V30 1410 H 132.995 -0.109237 -3.03503 0
M  V30 1411 H 130.58 -0.119357 -1.48922 0
M  V30 1412 H 132.462 2.2918 -3.5363 0
M  V30 1413 H 131.137 2.23478 -2.34178 0
M  V30 1414 H 130.044 0.373565 -3.7223 0
M  V30 1415 H 131.377 0.511081 -4.89539 0
M  V30 1416 N 133.029 1.57378 -0.0835403 0
M  V30 1417 C 134.278 1.93106 0.582498 0
M  V30 1418 C 134.591 0.96651 1.70053 0
M  V30 1419 O 135.797 1.21705 2.42693 0
M  V30 1420 C 134.253 3.43076 1.08751 0
M  V30 1421 C 133.861 4.48 -0.000146404 0
M  V30 1422 C 135.605 3.87785 1.72694 0
M  V30 1423 C 133.512 5.89113 0.519568 0
M  V30 1424 H 132.442 0.720775 0.221358 0
M  V30 1425 H 135.093 1.82821 -0.157675 0
M  V30 1426 H 133.475 3.48474 1.88101 0
M  V30 1427 H 134.649 4.54233 -0.775199 0
M  V30 1428 H 132.964 4.1283 -0.54406 0
M  V30 1429 H 135.561 4.90604 2.1263 0
M  V30 1430 H 135.904 3.25796 2.59158 0
M  V30 1431 H 136.437 3.8504 0.999457 0
M  V30 1432 H 133.176 6.54775 -0.308186 0
M  V30 1433 H 132.696 5.86376 1.26188 0
M  V30 1434 H 134.375 6.39346 0.992237 0
M  V30 1435 N 134.507 -0.190092 1.56449 0
M  V30 1436 C 135.918 -0.754312 1.70784 0
M  V30 1437 C 136.269 -1.83631 0.690951 0
M  V30 1438 O 135.394 -2.15868 -0.151604 0
M  V30 1439 C 135.989 -1.37503 3.09642 0
M  V30 1440 C 134.548 -1.88628 3.25725 0
M  V30 1441 C 133.695 -0.758098 2.66736 0
M  V30 1442 H 136.646 0.0350524 1.58661 0
M  V30 1443 H 136.667 -2.2445 3.0725 0
M  V30 1444 H 136.179 -0.587302 3.83631 0
M  V30 1445 H 134.28 -2.70103 2.56661 0
M  V30 1446 H 134.393 -2.04462 4.3328 0
M  V30 1447 H 132.757 -1.17369 2.26046 0
M  V30 1448 H 133.54 0.0174705 3.43296 0
M  V30 1449 N 135.985 -1.50799 -0.457987 0
M  V30 1450 C 137.21 -1.66496 -1.23668 0
M  V30 1451 C 137.635 -0.353288 -1.84752 0
M  V30 1452 O 136.993 0.684346 -1.67888 0
M  V30 1453 C 137.041 -2.76763 -2.3116 0
M  V30 1454 O 136.145 -2.38928 -3.36136 0
M  V30 1455 H 135.486 -0.555828 -0.363252 0
M  V30 1456 H 138.016 -1.9725 -0.543474 0
M  V30 1457 H 138.026 -3.00232 -2.76269 0
M  V30 1458 H 136.701 -3.71954 -1.86073 0
M  V30 1459 H 135.278 -2.25953 -2.96647 0
M  V30 1460 N 137.463 0.71206 -1.40597 0
M  V30 1461 C 138.41 1.82613 -1.41142 0
M  V30 1462 C 139.38 1.63925 -0.267903 0
M  V30 1463 O 140.565 1.85009 -0.466495 0
M  V30 1464 C 137.705 3.20354 -1.28324 0
M  V30 1465 C 136.818 3.50589 -2.52411 0
M  V30 1466 C 135.953 4.77855 -2.32009 0
M  V30 1467 C 134.992 5.01005 -3.51654 0
M  V30 1468 N 134.129 6.19487 -3.30425 0
M  V30 1469 H 138.969 1.81482 -2.36365 0
M  V30 1470 H 136.506 0.886475 -1.17388 0
M  V30 1471 H 138.464 3.99899 -1.18899 0
M  V30 1472 H 137.094 3.20705 -0.367189 0
M  V30 1473 H 136.146 2.65573 -2.72351 0
M  V30 1474 H 137.458 3.63604 -3.41458 0
M  V30 1475 H 136.612 5.65424 -2.19956 0
M  V30 1476 H 135.351 4.67056 -1.40392 0
M  V30 1477 H 134.356 4.1189 -3.64179 0
M  V30 1478 H 135.581 5.13674 -4.44202 0
M  V30 1479 H 133.527 6.09932 -2.41494 0
M  V30 1480 H 133.444 6.33194 -4.13039 0
M  V30 1481 H 134.712 7.09834 -3.22113 0
M  V30 1482 N 138.941 1.26152 0.944643 0
M  V30 1483 C 139.851 1.09176 2.07648 0
M  V30 1484 C 140.867 0.0261935 1.7398 0
M  V30 1485 O 142.043 0.229208 2.00091 0
M  V30 1486 C 139.108 0.722915 3.39079 0
M  V30 1487 C 138.169 1.86752 3.86552 0
M  V30 1488 C 137.402 1.51617 5.11711 0
M  V30 1489 O 137.625 0.416331 5.68879 0
M  V30 1490 O 136.559 2.34975 5.54139 0
M  V30 1491 H 140.385 2.0412 2.24875 0
M  V30 1492 H 137.97 1.05182 1.061 0
M  V30 1493 H 139.852 0.529787 4.18056 0
M  V30 1494 H 138.527 -0.197159 3.23099 0
M  V30 1495 H 137.434 2.11558 3.08535 0
M  V30 1496 H 138.767 2.76719 4.07047 0
M  V30 1497 N 140.419 -1.14872 1.07899 0
M  V30 1498 C 141.369 -2.17809 0.674027 0
M  V30 1499 C 142.353 -1.58008 -0.303699 0
M  V30 1500 O 143.545 -1.76616 -0.11654 0
M  V30 1501 C 140.674 -3.43208 0.0793318 0
M  V30 1502 C 139.76 -4.10051 1.08253 0
M  V30 1503 N 140.151 -4.52296 2.2641 0
M  V30 1504 C 138.449 -4.36469 0.917124 0
M  V30 1505 C 139.15 -5.04199 2.901 0
M  V30 1506 N 138.126 -4.98088 2.17736 0
M  V30 1507 H 141.928 -2.48207 1.57386 0
M  V30 1508 H 139.442 -1.315 0.952976 0
M  V30 1509 H 141.439 -4.16272 -0.228719 0
M  V30 1510 H 140.099 -3.14291 -0.815551 0
M  V30 1511 H 141.11 -4.45504 2.64096 0
M  V30 1512 H 137.787 -4.17432 0.0756078 0
M  V30 1513 H 139.177 -5.46802 3.90458 0
M  V30 1514 N 141.898 -0.863906 -1.31812 0
M  V30 1515 C 143.309 -0.52522 -1.7916 0
M  V30 1516 C 143.66 0.957518 -1.71248 0
M  V30 1517 O 142.785 1.74734 -1.27659 0
M  V30 1518 C 143.38 -0.9466 -3.25307 0
M  V30 1519 C 141.939 -0.659668 -3.70574 0
M  V30 1520 C 141.086 -1.14126 -2.52726 0
M  V30 1521 H 144.037 -1.05022 -1.1898 0
M  V30 1522 H 144.058 -0.266766 -3.79564 0
M  V30 1523 H 143.57 -2.02579 -3.31034 0
M  V30 1524 H 141.671 0.408416 -3.70355 0
M  V30 1525 H 141.784 -1.23245 -4.62977 0
M  V30 1526 H 140.148 -0.561216 -2.4844 0
M  V30 1527 H 140.931 -2.22775 -2.61201 0
M  V30 1528 N 143.376 1.44774 -0.622745 0
M  V30 1529 C 144.606 2.06187 -0.130532 0
M  V30 1530 C 145.014 1.46547 1.19669 0
M  V30 1531 O 144.357 0.579636 1.74316 0
M  V30 1532 C 144.419 3.59437 0.0674983 0
M  V30 1533 C 144.083 4.41496 -1.18026 0
M  V30 1534 C 145.08 4.75512 -2.102 0
M  V30 1535 C 142.765 4.82007 -1.41333 0
M  V30 1536 C 144.759 5.48912 -3.23998 0
M  V30 1537 C 142.446 5.55157 -2.55429 0
M  V30 1538 C 143.444 5.88528 -3.46589 0
M  V30 1539 O 143.132 6.60191 -4.58697 0
M  V30 1540 H 142.864 0.672045 -0.0730162 0
M  V30 1541 H 145.418 1.86768 -0.854802 0
M  V30 1542 H 143.648 3.77314 0.846825 0
M  V30 1543 H 145.337 4.02642 0.513209 0
M  V30 1544 H 146.103 4.4476 -1.93425 0
M  V30 1545 H 141.982 4.55457 -0.712709 0
M  V30 1546 H 145.526 5.74877 -3.95174 0
M  V30 1547 H 141.423 5.85324 -2.72151 0
M  V30 1548 H 142.191 6.78654 -4.57571 0
M  V30 1549 N 144.854 0.36279 1.53368 0
M  V30 1550 C 146.131 -0.284021 1.93527 0
M  V30 1551 C 146.511 -1.66628 1.29608 0
M  V30 1552 O 145.859 -2.23942 0.45413 0
M  V30 1553 C 146.069 -0.337028 3.47369 0
M  V30 1554 C 147.417 -0.578708 4.20638 0
M  V30 1555 O 148.441 -0.418352 3.53735 0
M  V30 1556 O 147.3 -0.89074 5.39192 0
M  V30 1557 H 144.394 -0.169743 0.809393 0
M  V30 1558 H 146.94 0.41537 1.64538 0
M  V30 1559 H 145.712 0.632217 3.86159 0
M  V30 1560 H 145.335 -1.08243 3.82582 0
M  V30 1561 N 146.332 -1.57332 0.0918853 0
M  V30 1562 C 147.295 -2.12708 -0.85369 0
M  V30 1563 C 148.295 -1.05561 -1.213 0
M  V30 1564 O 149.485 -1.31461 -1.14296 0
M  V30 1565 C 146.617 -2.64503 -2.15061 0
M  V30 1566 H 147.81 -2.97573 -0.3729 0
M  V30 1567 H 145.363 -1.55509 -0.157072 0
M  V30 1568 H 146.098 -1.83149 -2.67632 0
M  V30 1569 H 145.883 -3.4284 -1.90272 0
M  V30 1570 H 147.373 -3.07351 -2.82711 0
M  V30 1571 N 147.81 0.181792 -1.56548 0
M  V30 1572 C 148.773 1.20894 -1.94724 0
M  V30 1573 C 149.773 1.37738 -0.829747 0
M  V30 1574 O 150.963 1.35323 -1.09697 0
M  V30 1575 C 148.095 2.57593 -2.23291 0
M  V30 1576 H 149.288 0.882275 -2.86629 0
M  V30 1577 H 146.841 0.423838 -1.50444 0
M  V30 1578 H 147.576 2.95291 -1.34067 0
M  V30 1579 H 147.361 2.46735 -3.04736 0
M  V30 1580 H 148.851 3.31637 -2.53785 0
M  V30 1581 N 149.288 1.51039 0.449983 0
M  V30 1582 C 150.235 1.71439 1.54523 0
M  V30 1583 C 151.205 0.555871 1.56522 0
M  V30 1584 O 152.39 0.788871 1.73728 0
M  V30 1585 C 149.53 1.83384 2.92343 0
M  V30 1586 C 148.643 3.10873 2.9997 0
M  V30 1587 C 147.778 3.13488 4.28834 0
M  V30 1588 C 146.817 4.35343 4.30282 0
M  V30 1589 N 145.954 4.35579 5.5065 0
M  V30 1590 H 150.794 2.64934 1.36433 0
M  V30 1591 H 148.331 1.31312 0.662982 0
M  V30 1592 H 150.289 1.88291 3.72293 0
M  V30 1593 H 148.919 0.933086 3.0902 0
M  V30 1594 H 147.971 3.15336 2.12761 0
M  V30 1595 H 149.283 4.00814 2.96901 0
M  V30 1596 H 148.437 3.17241 5.17149 0
M  V30 1597 H 147.176 2.21414 4.34543 0
M  V30 1598 H 146.181 4.3178 3.40362 0
M  V30 1599 H 147.406 5.28668 4.26248 0
M  V30 1600 H 145.352 3.46369 5.57104 0
M  V30 1601 H 145.269 5.19313 5.49409 0
M  V30 1602 H 146.537 4.43507 6.41032 0
M  V30 1603 N 150.766 -0.704594 1.40972 0
M  V30 1604 C 152.043 -1.45847 1.30338 0
M  V30 1605 C 152.423 -2.10973 -0.0732344 0
M  V30 1606 O 151.771 -2.00997 -1.08685 0
M  V30 1607 C 151.981 -2.48525 2.45023 0
M  V30 1608 C 153.329 -3.1404 2.8577 0
M  V30 1609 O 154.353 -2.58848 2.44696 0
M  V30 1610 O 153.212 -4.13981 3.56766 0
M  V30 1611 H 150.306 -0.649092 0.512454 0
M  V30 1612 H 152.852 -0.735836 1.52917 0
M  V30 1613 H 151.624 -1.98994 3.36923 0
M  V30 1614 H 151.247 -3.2831 2.24272 0
M  V30 1615 N 152.244 -1.26651 -0.937939 0
M  V30 1616 C 153.469 -1.15279 -1.72411 0
M  V30 1617 C 153.894 0.287866 -1.85884 0
M  V30 1618 O 153.252 1.20855 -1.35143 0
M  V30 1619 C 153.3 -1.83028 -3.10698 0
M  V30 1620 O 152.404 -1.12128 -3.96864 0
M  V30 1621 H 151.745 -0.401504 -0.528858 0
M  V30 1622 H 154.275 -1.67531 -1.1745 0
M  V30 1623 H 154.285 -1.89981 -3.6107 0
M  V30 1624 H 152.96 -2.87833 -3.00208 0
M  V30 1625 H 151.537 -1.13173 -3.55312 0
M  V30 1626 N 153.722 1.14298 -1.08507 0
M  V30 1627 C 154.971 1.84708 -0.810305 0
M  V30 1628 C 155.284 1.83903 0.666271 0
M  V30 1629 O 156.49 2.50112 1.05624 0
M  V30 1630 C 154.946 3.31572 -1.39957 0
M  V30 1631 C 154.554 3.40791 -2.90801 0
M  V30 1632 C 156.298 4.07087 -1.20334 0
M  V30 1633 C 154.205 4.81872 -3.4286 0
M  V30 1634 H 153.135 0.691985 -0.299454 0
M  V30 1635 H 155.786 1.28841 -1.30661 0
M  V30 1636 H 154.168 3.87183 -0.830976 0
M  V30 1637 H 155.342 2.95225 -3.53806 0
M  V30 1638 H 153.657 2.78732 -3.0935 0
M  V30 1639 H 156.254 5.11225 -1.56693 0
M  V30 1640 H 156.597 4.16054 -0.143237 0
M  V30 1641 H 157.13 3.57779 -1.73893 0
M  V30 1642 H 153.869 4.78094 -4.48449 0
M  V30 1643 H 153.389 5.27972 -2.84615 0
M  V30 1644 H 155.068 5.50765 -3.39509 0
M  V30 1645 N 155.201 0.870884 1.31352 0
M  V30 1646 C 156.131 0.343096 2.30966 0
M  V30 1647 C 157.112 -0.566507 1.60389 0
M  V30 1648 O 158.297 -0.483336 1.88089 0
M  V30 1649 C 155.427 -0.455487 3.443 0
M  V30 1650 C 154.381 0.361103 4.26474 0
M  V30 1651 C 153.707 -0.563221 5.31725 0
M  V30 1652 C 155.007 1.59566 4.97329 0
M  V30 1653 H 156.701 1.17548 2.75359 0
M  V30 1654 H 154.247 0.566686 1.32381 0
M  V30 1655 H 156.2 -0.83525 4.13039 0
M  V30 1656 H 154.924 -1.32139 2.98675 0
M  V30 1657 H 153.583 0.722825 3.59403 0
M  V30 1658 H 153.231 -1.42643 4.82351 0
M  V30 1659 H 152.931 -0.0207409 5.87596 0
M  V30 1660 H 154.455 -0.939808 6.03324 0
M  V30 1661 H 155.869 1.28728 5.58661 0
M  V30 1662 H 154.266 2.07728 5.63 0
M  V30 1663 H 155.336 2.34798 4.24262 0
M  V30 1664 N 156.679 -1.44442 0.630414 0
M  V30 1665 C 158.095 -1.56832 0.295973 0
M  V30 1666 C 158.295 -1.61806 -1.20088 0
M  V30 1667 O 157.351 -1.5607 -1.9849 0
M  V30 1668 C 158.664 -2.84031 0.987264 0
M  V30 1669 C 160.212 -2.97742 0.96534 0
M  V30 1670 C 160.687 -4.27743 1.63708 0
M  V30 1671 N 162.178 -4.34555 1.60364 0
M  V30 1672 C 162.913 -5.33862 2.09234 0
M  V30 1673 N 162.409 -6.39578 2.66292 0
M  V30 1674 N 164.202 -5.25366 1.99867 0
M  V30 1675 H 156.353 -1.39457 1.60205 0
M  V30 1676 H 158.616 -0.668237 0.672431 0
M  V30 1677 H 158.322 -2.86338 2.04215 0
M  V30 1678 H 158.196 -3.73534 0.524588 0
M  V30 1679 H 160.583 -2.94989 -0.0810639 0
M  V30 1680 H 160.664 -2.09589 1.4665 0
M  V30 1681 H 160.308 -4.31255 2.68293 0
M  V30 1682 H 160.238 -5.14752 1.11076 0
M  V30 1683 H 162.729 -3.58772 1.18705 0
M  V30 1684 H 163.042 -7.11637 3.01317 0
M  V30 1685 H 161.387 -6.40265 2.70343 0
M  V30 1686 H 164.578 -4.41688 1.55013 0
M  V30 1687 H 164.751 -6.02606 2.38265 0
M  V30 1688 N 158.157 -0.370918 -1.53173 0
M  V30 1689 C 159.573 -0.0200818 -1.59587 0
M  V30 1690 C 159.773 1.46279 -1.38581 0
M  V30 1691 O 158.829 2.22506 -1.19363 0
M  V30 1692 C 160.142 -0.4808 -2.96831 0
M  V30 1693 C 161.69 -0.435477 -3.09956 0
M  V30 1694 C 162.165 -0.872092 -4.4962 0
M  V30 1695 N 163.656 -0.827364 -4.55751 0
M  V30 1696 C 164.391 -1.13683 -5.62018 0
M  V30 1697 N 163.887 -1.51584 -6.76014 0
M  V30 1698 N 165.68 -1.05927 -5.52029 0
M  V30 1699 H 157.831 -1.33652 -1.65079 0
M  V30 1700 H 160.094 -0.546634 -0.774529 0
M  V30 1701 H 159.8 -1.51577 -3.1736 0
M  V30 1702 H 159.674 0.129796 -3.76977 0
M  V30 1703 H 162.061 0.590371 -2.89134 0
M  V30 1704 H 162.142 -1.08164 -2.31806 0
M  V30 1705 H 161.786 -1.89608 -4.71181 0
M  V30 1706 H 161.716 -0.203127 -5.26208 0
M  V30 1707 H 164.207 -0.548216 -3.73902 0
M  V30 1708 H 164.52 -1.73609 -7.53047 0
M  V30 1709 H 162.865 -1.55454 -6.77391 0
M  V30 1710 H 166.056 -0.762321 -4.61851 0
M  V30 1711 H 166.229 -1.30378 -6.34749 0
M  V30 1712 N 159.635 1.57281 -0.100228 0
M  V30 1713 C 160.598 2.13158 0.842398 0
M  V30 1714 C 161.598 1.06202 1.20738 0
M  V30 1715 O 162.788 1.32066 1.13597 0
M  V30 1716 C 159.92 2.65639 2.13655 0
M  V30 1717 H 161.113 2.97766 0.357114 0
M  V30 1718 H 158.666 1.5559 0.148823 0
M  V30 1719 H 159.401 1.84566 2.66657 0
M  V30 1720 H 159.186 3.43844 1.88451 0
M  V30 1721 H 160.676 3.08846 2.81077 0
M  V30 1722 N 161.113 -0.173488 1.56642 0
M  V30 1723 C 162.529 -0.525174 1.50712 0
M  V30 1724 C 162.729 -1.8476 0.804107 0
M  V30 1725 O 161.785 -2.49869 0.363574 0
M  V30 1726 C 163.098 -0.559937 2.95441 0
M  V30 1727 C 164.646 -0.647288 3.06234 0
M  V30 1728 C 165.121 -0.712963 4.52417 0
M  V30 1729 N 166.612 -0.775911 4.56655 0
M  V30 1730 C 167.347 -0.847264 5.67106 0
M  V30 1731 N 166.843 -0.879585 6.87194 0
M  V30 1732 N 168.636 -0.886117 5.55071 0
M  V30 1733 H 160.787 0.693681 2.00753 0
M  V30 1734 H 163.05 0.249841 0.914485 0
M  V30 1735 H 162.756 0.343049 3.50023 0
M  V30 1736 H 162.63 -1.40718 3.49969 0
M  V30 1737 H 165.017 -1.5407 2.51687 0
M  V30 1738 H 165.098 0.226586 2.54794 0
M  V30 1739 H 164.742 0.176183 5.07594 0
M  V30 1740 H 164.672 -1.60295 5.0161 0
M  V30 1741 H 167.163 -0.759304 3.70193 0
M  V30 1742 H 167.476 -0.935144 7.67121 0
M  V30 1743 H 165.821 -0.847898 6.89808 0
M  V30 1744 H 169.012 -0.857853 4.60172 0
M  V30 1745 H 169.185 -0.938263 6.41171 0
M  V30 1746 N 162.591 -1.51276 -0.441967 0
M  V30 1747 C 163.839 -1.63392 -1.18943 0
M  V30 1748 C 164.16 -0.350159 -1.9183 0
M  V30 1749 O 163.43 0.633784 -1.85364 0
M  V30 1750 H 162.01 -0.602164 -0.442049 0
M  V30 1751 H 164.672 -1.88186 -0.507165 0
M  V30 1752 H 163.768 -2.45934 -1.92154 0
M  V30 1753 N 164.069 0.697108 -1.41344 0
M  V30 1754 C 165.002 1.82134 -1.37486 0
M  V30 1755 C 165.98 1.60784 -0.242351 0
M  V30 1756 O 167.164 1.83553 -0.429012 0
M  V30 1757 C 164.291 3.18788 -1.14421 0
M  V30 1758 C 163.337 3.58932 -2.3037 0
M  V30 1759 S 164.17 3.63916 -3.92843 0
M  V30 1760 C 165.326 5.03298 -3.72078 0
M  V30 1761 H 165.559 1.85129 -2.32625 0
M  V30 1762 H 163.092 0.865671 -1.2785 0
M  V30 1763 H 165.05 3.97677 -1.018 0
M  V30 1764 H 163.711 3.13404 -0.20905 0
M  V30 1765 H 162.904 4.58202 -2.09922 0
M  V30 1766 H 162.506 2.87347 -2.39391 0
M  V30 1767 H 164.798 5.90753 -3.31688 0
M  V30 1768 H 165.741 5.28788 -4.70945 0
M  V30 1769 H 166.149 4.74764 -3.05384 0
M  V30 1770 N 165.547 1.27147 0.931209 0
M  V30 1771 C 166.794 1.13278 1.67852 0
M  V30 1772 C 167.122 -0.32204 1.91815 0
M  V30 1773 O 166.377 -1.25224 1.50391 0
M  V30 1774 C 166.676 1.8579 3.05314 0
M  V30 1775 C 166.342 3.35657 3.01073 0
M  V30 1776 C 165.004 3.76536 2.99623 0
M  V30 1777 C 167.356 4.31299 2.92627 0
M  V30 1778 C 164.684 5.11426 2.87506 0
M  V30 1779 C 167.036 5.66242 2.82051 0
M  V30 1780 C 165.7 6.06418 2.7895 0
M  V30 1781 H 164.97 0.414515 0.614214 0
M  V30 1782 H 167.617 1.57712 1.08624 0
M  V30 1783 H 165.922 1.33854 3.68226 0
M  V30 1784 H 167.619 1.72491 3.62005 0
M  V30 1785 H 164.209 3.03146 3.02986 0
M  V30 1786 H 168.393 4.00692 2.92848 0
M  V30 1787 H 163.649 5.41705 2.83489 0
M  V30 1788 H 167.823 6.40026 2.74481 0
M  V30 1789 H 165.45 7.10895 2.69318 0
M  V30 1790 N 167.025 -1.13721 1.09112 0
M  V30 1791 C 168.253 -1.88773 0.846899 0
M  V30 1792 C 168.668 -1.7896 -0.601572 0
M  V30 1793 O 168.025 -1.15394 -1.41388 0
M  V30 1794 C 168.076 -3.3849 1.26913 0
M  V30 1795 O 167.797 -3.48043 2.66079 0
M  V30 1796 C 169.298 -4.30518 1.05682 0
M  V30 1797 H 166.518 -0.59772 0.304914 0
M  V30 1798 H 169.062 -1.43977 1.45227 0
M  V30 1799 H 167.217 -3.80881 0.707723 0
M  V30 1800 H 167.631 -4.4109 2.83795 0
M  V30 1801 H 169.105 -5.3391 1.40156 0
M  V30 1802 H 169.582 -4.392 -0.00563416 0
M  V30 1803 H 170.188 -3.93893 1.60402 0
M  V30 1804 N 168.503 -0.877838 -1.30888 0
M  V30 1805 C 169.466 -0.344265 -2.266 0
M  V30 1806 C 170.466 0.50922 -1.52524 0
M  V30 1807 O 171.656 0.317398 -1.71284 0
M  V30 1808 C 168.788 0.510198 -3.37061 0
M  V30 1809 H 169.981 -1.1893 -2.7531 0
M  V30 1810 H 167.534 -0.654088 -1.41956 0
M  V30 1811 H 168.269 1.37612 -2.93655 0
M  V30 1812 H 168.054 -0.101047 -3.9197 0
M  V30 1813 H 169.544 0.875537 -4.08319 0
M  V30 1814 N 169.982 1.44106 -0.638065 0
M  V30 1815 C 170.892 2.34513 0.0637334 0
M  V30 1816 C 171.908 1.53018 0.828346 0
M  V30 1817 O 173.084 1.85723 0.779036 0
M  V30 1818 C 170.149 3.31095 1.02844 0
M  V30 1819 C 169.21 4.28497 0.26244 0
M  V30 1820 C 168.443 5.20465 1.1812 0
M  V30 1821 O 168.666 5.16514 2.42011 0
M  V30 1822 O 167.6 5.98251 0.661774 0
M  V30 1823 H 171.426 2.95989 -0.68003 0
M  V30 1824 H 169.011 1.43994 -0.398252 0
M  V30 1825 H 170.893 3.90526 1.58327 0
M  V30 1826 H 169.568 2.72144 1.7527 0
M  V30 1827 H 168.475 3.72592 -0.335602 0
M  V30 1828 H 169.808 4.90388 -0.421936 0
M  V30 1829 N 171.46 0.379036 1.52974 0
M  V30 1830 C 172.737 -0.263479 1.93817 0
M  V30 1831 C 173.117 -1.65244 1.31368 0
M  V30 1832 O 172.465 -2.23448 0.477856 0
M  V30 1833 C 172.675 -0.300166 3.47707 0
M  V30 1834 C 174.023 -0.534061 4.21228 0
M  V30 1835 O 175.047 -0.38081 3.54159 0
M  V30 1836 O 173.906 -0.833501 5.40106 0
M  V30 1837 H 171 -0.161149 0.811147 0
M  V30 1838 H 173.546 0.432798 1.64088 0
M  V30 1839 H 172.318 0.673138 3.85467 0
M  V30 1840 H 171.941 -1.04179 3.83709 0
M  V30 1841 N 172.938 -1.57226 0.108567 0
M  V30 1842 C 173.868 -2.17778 -0.84232 0
M  V30 1843 C 174.849 -1.11487 -1.2847 0
M  V30 1844 O 176.034 -1.39681 -1.34918 0
M  V30 1845 C 173.164 -2.76888 -2.09644 0
M  V30 1846 C 172.118 -3.88669 -1.79221 0
M  V30 1847 C 171.444 -4.34541 -3.11574 0
M  V30 1848 C 172.744 -5.11251 -1.06864 0
M  V30 1849 H 174.438 -2.97489 -0.337774 0
M  V30 1850 H 171.984 -1.43097 -0.161025 0
M  V30 1851 H 173.937 -3.17904 -2.76614 0
M  V30 1852 H 172.661 -1.94451 -2.62405 0
M  V30 1853 H 171.32 -3.48213 -1.14644 0
M  V30 1854 H 170.968 -3.48977 -3.62249 0
M  V30 1855 H 170.668 -5.09914 -2.91996 0
M  V30 1856 H 172.192 -4.782 -3.7968 0
M  V30 1857 H 173.606 -5.49352 -1.63968 0
M  V30 1858 H 172.003 -5.9214 -0.974178 0
M  V30 1859 H 173.073 -4.8487 -0.0536168 0
M  V30 1860 N 174.416 0.165178 -1.56732 0
M  V30 1861 C 175.832 0.517174 -1.50988 0
M  V30 1862 C 176.032 1.84331 -0.813894 0
M  V30 1863 O 175.088 2.49672 -0.37682 0
M  V30 1864 C 176.401 0.544261 -2.95733 0
M  V30 1865 C 177.949 0.631039 -3.06573 0
M  V30 1866 C 178.424 0.68896 -4.52788 0
M  V30 1867 N 179.915 0.751683 -4.5706 0
M  V30 1868 C 180.65 0.817177 -5.67547 0
M  V30 1869 N 180.146 0.843129 -6.8765 0
M  V30 1870 N 181.939 0.856668 -5.55534 0
M  V30 1871 H 174.09 -0.704318 -2.00382 0
M  V30 1872 H 176.353 -0.254687 -0.913148 0
M  V30 1873 H 176.059 -0.361607 -3.49836 0
M  V30 1874 H 175.933 1.3886 -3.5071 0
M  V30 1875 H 178.32 1.52733 -2.52501 0
M  V30 1876 H 178.401 -0.240095 -2.54671 0
M  V30 1877 H 178.045 -0.2031 -5.07494 0
M  V30 1878 H 177.975 1.57633 -5.02454 0
M  V30 1879 H 180.466 0.739661 -3.70591 0
M  V30 1880 H 180.779 0.894448 -7.67606 0
M  V30 1881 H 179.124 0.811304 -6.90248 0
M  V30 1882 H 182.315 0.833437 -4.60621 0
M  V30 1883 H 182.488 0.904247 -6.4166 0
M  V30 1884 O 175.933 1.58495 0.310088 0
M  V30 1885 H 176.624 1.68365 0.957755 0
M  V30 END ATOM
M  V30 BEGIN BOND
M  V30 END BOND
M  V30 END CTAB
M  END
$$$$
