drugbank_target|Q16831 Uridine phosphorylase 1 (DB07437)
 OpenBabel12092120213D

  0  0  0     0  0            999 V3000
M  V30 BEGIN CTAB
M  V30 COUNTS 4779 4817 0 0 0
M  V30 BEGIN ATOM
M  V30 1 H -0.908 1.98254 -0.117106 0
M  V30 2 N 0 1.576 0 0
M  V30 3 C 0.933 2.03868 1.02534 0
M  V30 4 C 1.911 0.928543 1.3348 0
M  V30 5 O 3.095 1.19667 1.45644 0
M  V30 6 C 0.222 2.43627 2.35294 0
M  V30 7 C -0.732 3.65373 2.2001 0
M  V30 8 S 0.101 5.13292 1.52614 0
M  V30 9 C 1.257 5.56322 2.86805 0
M  V30 10 H 1.49 2.90518 0.631377 0
M  V30 11 H -0.977 1.52953 0.210867 0
M  V30 12 H 0.981 2.67203 3.11629 0
M  V30 13 H -0.358 1.57376 2.7183 0
M  V30 14 H -1.165 3.90944 3.18086 0
M  V30 15 H -1.563 3.418 1.51819 0
M  V30 16 H 0.729 5.58782 3.83104 0
M  V30 17 H 1.672 6.56266 2.65933 0
M  V30 18 H 2.08 4.83886 2.90714 0
M  V30 19 N 1.4781 -0.272755 1.55222 0
M  V30 20 C 2.4411 -1.32041 1.87344 0
M  V30 21 C 3.4411 -1.42342 0.74803 0
M  V30 22 O 4.6311 -1.41488 1.0162 0
M  V30 23 C 1.7631 -2.70173 2.07893 0
M  V30 24 H 2.9561 -1.04789 2.80997 0
M  V30 25 H 0.5091 -0.51083 1.47717 0
M  V30 26 H 1.2441 -3.02605 1.16622 0
M  V30 27 H 1.0291 -2.64082 2.89833 0
M  V30 28 H 2.5191 -3.45869 2.34017 0
M  V30 29 N 2.9562 -1.48159 -0.537278 0
M  V30 30 C 3.9192 -1.61665 -1.62472 0
M  V30 31 C 4.9192 -0.490395 -1.5314 0
M  V30 32 O 6.1092 -0.755998 -1.5694 0
M  V30 33 C 3.2412 -1.57997 -3.02076 0
M  V30 34 H 4.4342 -2.58621 -1.51839 0
M  V30 35 H 1.9872 -1.36647 -0.758771 0
M  V30 36 H 2.7222 -0.624913 -3.18222 0
M  V30 37 H 2.5072 -2.39755 -3.10258 0
M  V30 38 H 3.9972 -1.70627 -3.81151 0
M  V30 39 N 4.4343 0.785586 -1.36625 0
M  V30 40 C 5.6623 1.57448 -1.3423 0
M  V30 41 C 6.0773 1.88649 0.0755653 0
M  V30 42 O 5.4343 1.50414 1.03354 0
M  V30 43 C 5.4853 2.89316 -2.16745 0
M  V30 44 O 5.2063 2.59459 -3.53005 0
M  V30 45 C 6.7073 3.83606 -2.22174 0
M  V30 46 H 3.9273 0.488226 -0.4603 0
M  V30 47 H 6.4713 0.974733 -1.79775 0
M  V30 48 H 4.6263 3.4575 -1.74745 0
M  V30 49 H 5.0403 3.43804 -3.96105 0
M  V30 50 H 6.5143 4.73181 -2.8426 0
M  V30 51 H 6.9913 4.21734 -1.22627 0
M  V30 52 H 7.5973 3.33104 -2.64427 0
M  V30 53 N 5.9124 1.20967 1.01018 0
M  V30 54 C 7.1604 1.02172 1.74371 0
M  V30 55 C 7.4814 -0.446414 1.89821 0
M  V30 56 O 6.7514 -1.32234 1.44537 0
M  V30 57 H 5.3314 0.375066 0.646014 0
M  V30 58 H 7.9934 1.52187 1.21758 0
M  V30 59 H 7.0894 1.48538 2.74487 0
M  V30 60 N 7.3905 -1.2043 1.01659 0
M  V30 61 C 8.3535 -2.21433 0.591616 0
M  V30 62 C 9.3535 -1.57203 -0.338226 0
M  V30 63 O 10.5435 -1.73737 -0.126918 0
M  V30 64 C 7.6755 -3.40628 -0.136058 0
M  V30 65 H 8.8685 -2.60545 1.48514 0
M  V30 66 H 6.4215 -1.33893 0.806379 0
M  V30 67 H 7.1565 -3.07019 -1.04449 0
M  V30 68 H 6.9415 -3.88475 0.531917 0
M  V30 69 H 8.4315 -4.15475 -0.420735 0
M  V30 70 N 8.8686 -0.792821 -1.36206 0
M  V30 71 C 9.8166 -0.181555 -2.3189 0
M  V30 72 C 10.8106 0.661025 -1.55971 0
M  V30 73 O 12.0166 0.555728 -1.71206 0
M  V30 74 H 8.3916 -0.0399382 -0.750939 0
M  V30 75 H 10.3626 -1.00394 -2.81005 0
M  V30 76 C 9.1116 0.666444 -3.41253 0
M  V30 77 H 8.4346 0.0274489 -3.99791 0
M  V30 78 H 9.8746 1.06076 -4.10517 0
M  V30 79 C 8.3336 1.82614 -2.83114 0
M  V30 80 O 8.8636 2.9229 -2.75553 0
M  V30 81 N 7.0696 1.63333 -2.40356 0
M  V30 82 H 6.6166 0.741217 -2.46706 0
M  V30 83 H 6.5746 2.41087 -2.01803 0
M  V30 84 N 10.3467 1.47872 -0.545128 0
M  V30 85 C 11.3097 2.28337 0.198717 0
M  V30 86 C 12.3097 1.36255 0.853888 0
M  V30 87 O 13.4997 1.59003 0.711606 0
M  V30 88 C 10.6317 3.15585 1.28915 0
M  V30 89 H 11.8247 2.95567 -0.507941 0
M  V30 90 H 9.3777 1.53362 -0.301616 0
M  V30 91 H 10.1127 2.53019 2.02859 0
M  V30 92 H 9.8977 3.83337 0.824309 0
M  V30 93 H 11.3877 3.76243 1.81194 0
M  V30 94 N 11.8248 0.280983 1.55075 0
M  V30 95 C 12.7348 -0.61388 2.26426 0
M  V30 96 C 13.7508 -1.16521 1.29224 0
M  V30 97 O 14.9268 -1.19426 1.62171 0
M  V30 98 C 11.9918 -1.7788 2.9759 0
M  V30 99 C 11.0528 -1.26355 4.10284 0
M  V30 100 C 10.2858 -2.37295 4.78045 0
M  V30 101 O 10.5088 -3.56777 4.45047 0
M  V30 102 O 9.4428 -2.05119 5.65871 0
M  V30 103 H 13.2688 -0.0356932 3.03679 0
M  V30 104 H 10.8538 0.0481686 1.49322 0
M  V30 105 H 12.7358 -2.45791 3.42293 0
M  V30 106 H 11.4108 -2.34397 2.23249 0
M  V30 107 H 10.3178 -0.550735 3.70024 0
M  V30 108 H 11.6508 -0.744065 4.86543 0
M  V30 109 N 13.3029 -1.57598 0.00835791 0
M  V30 110 C 14.2499 -2.08945 -0.980346 0
M  V30 111 C 15.2199 -0.986738 -1.33614 0
M  V30 112 O 16.4049 -1.25968 -1.43306 0
M  V30 113 C 13.5449 -2.60425 -2.26435 0
M  V30 114 C 12.6579 -3.84628 -1.96685 0
M  V30 115 C 11.7929 -4.24579 -3.19228 0
M  V30 116 C 10.8319 -5.41596 -2.85202 0
M  V30 117 N 9.9689 -5.768 -4.00307 0
M  V30 118 H 14.8089 -2.93148 -0.535551 0
M  V30 119 H 12.3459 -1.44912 -0.252776 0
M  V30 120 H 14.3039 -2.88354 -3.01509 0
M  V30 121 H 12.9339 -1.79083 -2.68568 0
M  V30 122 H 11.9859 -3.63556 -1.11942 0
M  V30 123 H 13.2979 -4.69796 -1.67611 0
M  V30 124 H 12.4519 -4.53834 -4.02641 0
M  V30 125 H 11.1909 -3.38137 -3.51447 0
M  V30 126 H 10.1959 -5.12056 -2.00198 0
M  V30 127 H 11.4209 -6.29721 -2.54222 0
M  V30 128 H 9.3669 -4.93316 -4.32407 0
M  V30 129 H 9.2839 -6.5656 -3.74786 0
M  V30 130 H 10.5519 -6.10652 -4.84484 0
M  V30 131 N 14.781 0.264519 -1.55364 0
M  V30 132 C 15.744 1.31046 -1.88042 0
M  V30 133 C 16.744 1.41943 -0.755569 0
M  V30 134 O 17.934 1.40947 -1.02369 0
M  V30 135 C 15.066 2.69067 -2.09323 0
M  V30 136 H 16.259 1.03297 -2.81549 0
M  V30 137 H 13.812 0.502989 -1.47986 0
M  V30 138 H 14.547 3.01982 -1.18226 0
M  V30 139 H 14.332 2.62542 -2.91229 0
M  V30 140 H 15.822 3.44623 -2.35848 0
M  V30 141 N 16.2591 1.48442 0.529413 0
M  V30 142 C 17.1691 1.6569 1.66084 0
M  V30 143 C 18.1851 0.539432 1.65427 0
M  V30 144 O 19.3611 0.810572 1.84368 0
M  V30 145 C 16.4261 1.69315 3.02545 0
M  V30 146 C 15.4871 2.92694 3.14052 0
M  V30 147 C 14.7201 2.96137 4.44003 0
M  V30 148 O 14.9431 2.07973 5.31134 0
M  V30 149 O 13.8771 3.88312 4.59888 0
M  V30 150 H 17.7031 2.61483 1.54469 0
M  V30 151 H 15.2881 1.3185 0.702567 0
M  V30 152 H 17.1701 1.74217 3.83701 0
M  V30 153 H 15.8451 0.766966 3.14483 0
M  V30 154 H 14.7521 2.93324 2.32189 0
M  V30 155 H 16.0851 3.84699 3.0703 0
M  V30 156 N 17.7372 -0.778329 1.37039 0
M  V30 157 C 18.9622 -1.57248 1.35233 0
M  V30 158 C 19.3872 -1.87999 -0.0615568 0
M  V30 159 O 18.7452 -1.48734 -1.03672 0
M  V30 160 C 18.7932 -2.86353 2.19167 0
M  V30 161 O 17.8972 -3.80442 1.59178 0
M  V30 162 H 17.2382 -0.476569 0.462362 0
M  V30 163 H 19.7682 -0.963853 1.80474 0
M  V30 164 H 19.7782 -3.35519 2.32145 0
M  V30 165 H 18.4532 -2.63299 3.21942 0
M  V30 166 H 17.0302 -3.39067 1.55203 0
M  V30 167 N 19.2153 -1.21501 -1.00376 0
M  V30 168 C 20.1653 -0.942843 -2.07592 0
M  V30 169 C 21.1493 0.102384 -1.60574 0
M  V30 170 O 22.3413 -0.10671 -1.76678 0
M  V30 171 C 19.4703 -0.510729 -3.3948 0
M  V30 172 C 18.5563 -1.59009 -3.93163 0
M  V30 173 N 18.9473 -2.81544 -4.20198 0
M  V30 174 C 17.2453 -1.45925 -4.21452 0
M  V30 175 C 17.9463 -3.51261 -4.63671 0
M  V30 176 N 16.9223 -2.78703 -4.66718 0
M  V30 177 H 20.7243 -1.87378 -2.26421 0
M  V30 178 H 18.2383 -1.11093 -1.18458 0
M  V30 179 H 20.2353 -0.297101 -4.1584 0
M  V30 180 H 18.8953 0.413436 -3.22057 0
M  V30 181 H 19.9063 -3.18075 -4.08716 0
M  V30 182 H 16.5833 -0.600467 -4.13159 0
M  V30 183 H 17.9733 -4.56183 -4.93302 0
M  V30 184 N 20.6934 1.19889 -1.02296 0
M  V30 185 C 21.6414 2.24938 -0.592081 0
M  V30 186 C 22.6354 1.65257 0.372357 0
M  V30 187 O 23.8414 1.78371 0.241583 0
M  V30 188 H 20.2164 0.731787 -0.173182 0
M  V30 189 H 22.1874 2.58603 -1.48885 0
M  V30 190 C 20.9364 3.47668 0.047351 0
M  V30 191 H 20.2594 3.93875 -0.685772 0
M  V30 192 H 21.6994 4.22852 0.311862 0
M  V30 193 C 20.1584 3.11136 1.29212 0
M  V30 194 O 20.6884 3.2325 2.38479 0
M  V30 195 N 18.8944 2.65625 1.17863 0
M  V30 196 H 18.4414 2.55968 0.289493 0
M  V30 197 H 18.3994 2.41553 2.01245 0
M  V30 198 N 22.1715 0.800033 1.35784 0
M  V30 199 C 23.4485 0.30088 1.93272 0
M  V30 200 C 23.8285 -1.20857 1.73081 0
M  V30 201 O 23.1765 -2.00502 1.09596 0
M  V30 202 C 23.3865 0.70511 3.41803 0
M  V30 203 C 24.7345 0.690871 4.18942 0
M  V30 204 O 25.7585 0.646244 3.50289 0
M  V30 205 O 24.6175 0.74332 5.41421 0
M  V30 206 H 21.7115 0.0771605 0.823393 0
M  V30 207 H 24.2575 0.88329 1.449 0
M  V30 208 H 23.0295 1.74571 3.50201 0
M  V30 209 H 22.6525 0.0971541 3.97481 0
M  V30 210 N 23.6496 -1.47581 0.552962 0
M  V30 211 C 24.8896 -2.04379 0.0296245 0
M  V30 212 C 25.2536 -1.4185 -1.29393 0
M  V30 213 O 26.4546 -1.89669 -1.90471 0
M  V30 214 C 24.7256 -3.57339 -0.0661371 0
M  V30 215 S 26.2846 -4.35511 -0.536213 0
M  V30 216 H 23.1026 -0.710625 0.0230991 0
M  V30 217 H 25.7046 -1.81005 0.738734 0
M  V30 218 H 24.4086 -4.00374 0.901596 0
M  V30 219 H 23.9396 -3.85202 -0.798931 0
M  V30 220 H 25.9546 -4.6253 -1.79668 0
M  V30 221 N 25.1277 -0.289203 -1.54924 0
M  V30 222 C 26.5387 0.205791 -1.85562 0
M  V30 223 C 26.8897 1.54351 -1.2112 0
M  V30 224 O 26.0147 2.10435 -0.504601 0
M  V30 225 C 26.6097 0.380177 -3.3666 0
M  V30 226 C 25.1687 0.819395 -3.67373 0
M  V30 227 C 24.3157 -0.079159 -2.77187 0
M  V30 228 H 27.2667 -0.510577 -1.50262 0
M  V30 229 H 27.2877 1.21659 -3.60526 0
M  V30 230 H 26.7997 -0.593589 -3.83534 0
M  V30 231 H 24.9007 1.80413 -3.26009 0
M  V30 232 H 25.0137 0.646957 -4.74712 0
M  V30 233 H 23.3777 0.439565 -2.50878 0
M  V30 234 H 24.1607 -1.04906 -3.26878 0
M  V30 235 N 26.6058 1.57591 -0.0167156 0
M  V30 236 C 27.8518 1.91567 0.665582 0
M  V30 237 C 28.1848 0.892298 1.72487 0
M  V30 238 O 27.4598 -0.0867127 1.94307 0
M  V30 239 C 27.7428 3.36069 1.29342 0
M  V30 240 C 27.5958 4.49135 0.244541 0
M  V30 241 C 28.9148 3.803 2.21495 0
M  V30 242 H 26.0338 0.69666 0.240488 0
M  V30 243 H 28.6758 1.89866 -0.0714356 0
M  V30 244 H 26.8258 3.3765 1.92158 0
M  V30 245 H 28.4978 4.59689 -0.385228 0
M  V30 246 H 26.7408 4.3165 -0.431379 0
M  V30 247 H 27.4118 5.47242 0.723207 0
M  V30 248 H 29.8878 3.80377 1.68678 0
M  V30 249 H 28.7638 4.82127 2.62382 0
M  V30 250 H 29.0248 3.15104 3.101 0
M  V30 251 N 28.0839 -0.256276 1.55502 0
M  V30 252 C 29.4999 -0.604325 1.47716 0
M  V30 253 C 29.6999 -1.88763 0.705039 0
M  V30 254 O 28.7559 -2.51445 0.230613 0
M  V30 255 C 30.0689 -0.715756 2.92057 0
M  V30 256 C 31.6169 -0.808706 3.02372 0
M  V30 257 C 32.0919 -0.951777 4.48001 0
M  V30 258 N 33.5829 -1.01688 4.519 0
M  V30 259 C 34.3179 -1.14668 5.61817 0
M  V30 260 N 33.8139 -1.24261 6.81565 0
M  V30 261 N 35.6069 -1.1791 5.49594 0
M  V30 262 H 27.7579 0.586291 2.04148 0
M  V30 263 H 30.0209 0.201015 0.926443 0
M  V30 264 H 29.7269 0.157027 3.51349 0
M  V30 265 H 29.6009 -1.59071 3.42018 0
M  V30 266 H 31.9879 -1.67195 2.43166 0
M  V30 267 H 32.0689 0.0912063 2.55637 0
M  V30 268 H 31.7129 -0.0931291 5.07815 0
M  V30 269 H 31.6429 -1.86659 4.92408 0
M  V30 270 H 34.1339 -0.954468 3.65648 0
M  V30 271 H 34.4469 -1.34046 7.61086 0
M  V30 272 H 32.7919 -1.21236 6.84344 0
M  V30 273 H 35.9829 -1.10057 4.54978 0
M  V30 274 H 36.1559 -1.27681 6.35296 0
M  V30 275 N 29.562 -1.4872 -0.521534 0
M  V30 276 C 30.492 -1.66771 -1.63431 0
M  V30 277 C 31.473 -0.516499 -1.62069 0
M  V30 278 O 32.658 -0.750013 -1.79132 0
M  V30 279 C 29.788 -1.71515 -3.01993 0
M  V30 280 C 28.742 -2.86222 -3.18216 0
M  V30 281 C 28.068 -2.76061 -4.57924 0
M  V30 282 C 29.368 -4.27419 -3.00184 0
M  V30 283 H 31.062 -2.59932 -1.48579 0
M  V30 284 H 28.608 -1.25089 -0.713358 0
M  V30 285 H 30.561 -1.82731 -3.7972 0
M  V30 286 H 29.285 -0.749393 -3.17886 0
M  V30 287 H 27.944 -2.74575 -2.42908 0
M  V30 288 H 27.592 -1.77437 -4.70665 0
M  V30 289 H 27.292 -3.53037 -4.69722 0
M  V30 290 H 28.816 -2.89256 -5.37739 0
M  V30 291 H 30.23 -4.39855 -3.67697 0
M  V30 292 H 28.627 -5.05458 -3.2347 0
M  V30 293 H 29.697 -4.43293 -1.96518 0
M  V30 294 N 31.0401 0.771051 -1.3745 0
M  V30 295 C 31.9701 1.89827 -1.3597 0
M  V30 296 C 32.9511 1.68562 -0.228216 0
M  V30 297 O 34.1361 1.8941 -0.428675 0
M  V30 298 C 31.2661 3.2712 -1.16662 0
M  V30 299 C 30.2201 3.6295 -2.2683 0
M  V30 300 C 29.5461 4.98791 -1.92644 0
M  V30 301 C 30.8461 3.69627 -3.69017 0
M  V30 302 H 32.5401 1.91323 -2.30295 0
M  V30 303 H 30.0861 0.919082 -1.10855 0
M  V30 304 H 32.0391 4.05615 -1.14256 0
M  V30 305 H 30.7631 3.26059 -0.187926 0
M  V30 306 H 29.4221 2.86763 -2.28392 0
M  V30 307 H 29.0701 4.94271 -0.933021 0
M  V30 308 H 28.7701 5.23733 -2.66416 0
M  V30 309 H 30.2941 5.79685 -1.91826 0
M  V30 310 H 31.7081 4.38273 -3.69581 0
M  V30 311 H 30.1051 4.06067 -4.41848 0
M  V30 312 H 31.1751 2.70273 -4.02592 0
M  V30 313 N 32.5182 1.22032 0.997298 0
M  V30 314 C 33.4662 0.983634 2.10778 0
M  V30 315 C 34.4602 -0.0717564 1.69248 0
M  V30 316 O 35.6662 0.080304 1.79821 0
M  V30 317 H 32.0412 0.300877 0.689186 0
M  V30 318 H 34.0122 1.92606 2.27916 0
M  V30 319 C 32.7612 0.57326 3.42942 0
M  V30 320 H 32.0842 1.37702 3.75338 0
M  V30 321 H 33.5242 0.447031 4.21637 0
M  V30 322 C 31.9832 -0.7167 3.29188 0
M  V30 323 O 32.5132 -1.77027 3.60589 0
M  V30 324 N 30.7192 -0.686167 2.82383 0
M  V30 325 H 30.2662 0.171507 2.57028 0
M  V30 326 H 30.2242 -1.54955 2.73562 0
M  V30 327 N 33.9963 -1.19345 1.0293 0
M  V30 328 C 35.4073 -1.70725 0.755633 0
M  V30 329 C 35.7583 -1.82326 -0.724676 0
M  V30 330 O 34.8833 -1.49471 -1.56484 0
M  V30 331 C 35.4783 -3.10084 1.36503 0
M  V30 332 C 34.0373 -3.58723 1.13994 0
M  V30 333 C 33.1843 -2.35577 1.46283 0
M  V30 334 H 36.1353 -1.0418 1.19718 0
M  V30 335 H 36.1563 -3.72787 0.762217 0
M  V30 336 H 35.6683 -3.01609 2.44241 0
M  V30 337 H 33.7693 -3.72512 0.0807901 0
M  V30 338 H 33.8823 -4.42816 1.82894 0
M  V30 339 H 32.2463 -2.38935 0.88217 0
M  V30 340 H 33.0293 -2.29731 2.55105 0
M  V30 341 N 35.4744 -0.807222 -1.35358 0
M  V30 342 C 36.4224 -0.20614 -2.31685 0
M  V30 343 C 37.4164 0.644445 -1.56663 0
M  V30 344 O 38.6224 0.537538 -1.71786 0
M  V30 345 H 34.9974 -0.0479006 -0.750473 0
M  V30 346 H 36.9684 -1.03369 -2.79924 0
M  V30 347 C 35.7174 0.630212 -3.41941 0
M  V30 348 H 35.0404 -0.0149558 -3.99797 0
M  V30 349 H 36.4804 1.01716 -4.11619 0
M  V30 350 C 34.9394 1.79601 -2.85035 0
M  V30 351 O 35.4694 2.89351 -2.78637 0
M  V30 352 N 33.6754 1.60774 -2.42074 0
M  V30 353 H 33.2224 0.715009 -2.47478 0
M  V30 354 H 33.1804 2.38933 -2.04349 0
M  V30 355 N 36.9525 1.47285 -0.560781 0
M  V30 356 C 38.2015 2.01668 -0.035895 0
M  V30 357 C 38.5145 1.44021 1.32353 0
M  V30 358 O 39.7205 1.90088 1.93853 0
M  V30 359 C 38.1765 3.59897 -0.0136659 0
M  V30 360 C 37.7845 4.26536 -1.37006 0
M  V30 361 C 39.5285 4.22017 0.458425 0
M  V30 362 C 37.4355 5.76782 -1.30675 0
M  V30 363 H 36.3655 0.753938 -0.00964879 0
M  V30 364 H 39.0165 1.69243 -0.709166 0
M  V30 365 H 37.3985 3.89301 0.725325 0
M  V30 366 H 38.5725 4.0877 -2.12705 0
M  V30 367 H 36.8875 3.76419 -1.78038 0
M  V30 368 H 39.4845 5.32124 0.524247 0
M  V30 369 H 39.8275 3.89437 1.4712 0
M  V30 370 H 40.3605 3.97159 -0.225818 0
M  V30 371 H 37.0995 6.13988 -2.29564 0
M  V30 372 H 36.6195 5.96875 -0.591622 0
M  V30 373 H 38.2985 6.39063 -1.01033 0
M  V30 374 N 38.4306 0.297415 1.54768 0
M  V30 375 C 39.3936 -0.567375 2.22066 0
M  V30 376 C 40.3936 -1.06409 1.20556 0
M  V30 377 O 41.5836 -0.960691 1.45315 0
M  V30 378 C 38.7156 -1.78517 2.90421 0
M  V30 379 H 39.9086 0.0205534 2.99893 0
M  V30 380 H 37.4616 0.0482163 1.56226 0
M  V30 381 H 38.1966 -2.41303 2.16664 0
M  V30 382 H 37.9816 -1.43669 3.64831 0
M  V30 383 H 39.4716 -2.39964 3.41771 0
M  V30 384 N 39.9087 -1.5758 0.0250728 0
M  V30 385 C 40.8557 -2.09973 -0.958129 0
M  V30 386 C 41.8257 -1.00085 -1.3256 0
M  V30 387 O 43.0107 -1.27481 -1.41962 0
M  V30 388 C 40.1507 -2.62812 -2.2366 0
M  V30 389 C 39.2637 -3.86693 -1.92594 0
M  V30 390 C 38.3987 -4.27941 -3.14707 0
M  V30 391 C 37.4377 -5.44591 -2.79442 0
M  V30 392 N 36.5747 -5.81014 -3.94167 0
M  V30 393 H 41.4147 -2.937 -0.504428 0
M  V30 394 H 38.9517 -1.45172 -0.237392 0
M  V30 395 H 40.9097 -2.91536 -2.98434 0
M  V30 396 H 39.5397 -1.81922 -2.66654 0
M  V30 397 H 38.5917 -3.64723 -1.0808 0
M  V30 398 H 39.9037 -4.71547 -1.62619 0
M  V30 399 H 39.0577 -4.58079 -3.97804 0
M  V30 400 H 37.7967 -3.41845 -3.4784 0
M  V30 401 H 36.8017 -5.1415 -1.94755 0
M  V30 402 H 38.0267 -6.32382 -2.47528 0
M  V30 403 H 35.9727 -4.97874 -4.2715 0
M  V30 404 H 35.8897 -6.60498 -3.67801 0
M  V30 405 H 37.1577 -6.15756 -4.7798 0
M  V30 406 N 41.3868 0.248026 -1.55636 0
M  V30 407 C 42.3198 1.3334 -1.85191 0
M  V30 408 C 43.2978 1.46429 -0.706906 0
M  V30 409 O 44.4818 1.62662 -0.952544 0
M  V30 410 C 41.6088 2.70703 -2.03562 0
M  V30 411 C 40.6548 2.7477 -3.26196 0
M  V30 412 S 41.4878 2.31493 -4.82878 0
M  V30 413 C 42.6438 3.70783 -5.04253 0
M  V30 414 H 42.8768 1.08072 -2.76962 0
M  V30 415 H 40.4098 0.448952 -1.47729 0
M  V30 416 H 42.3678 3.49798 -2.1483 0
M  V30 417 H 41.0288 2.9321 -1.12635 0
M  V30 418 H 40.2218 3.75648 -3.36013 0
M  V30 419 H 39.8238 2.03719 -3.13647 0
M  V30 420 H 42.1158 4.6627 -4.91527 0
M  V30 421 H 43.0588 3.65901 -6.06236 0
M  V30 422 H 43.4668 3.63244 -4.32105 0
M  V30 423 N 42.8649 1.48995 0.513639 0
M  V30 424 C 43.8119 1.6473 1.61656 0
M  V30 425 C 44.7819 0.488984 1.58739 0
M  V30 426 O 45.9669 0.714478 1.76918 0
M  V30 427 C 43.1069 1.7082 2.99858 0
M  V30 428 C 42.2199 2.9787 3.12885 0
M  V30 429 C 41.3549 2.95017 4.41744 0
M  V30 430 C 40.3939 4.16702 4.48359 0
M  V30 431 N 39.5309 4.11832 5.68629 0
M  V30 432 H 44.3709 2.58909 1.47547 0
M  V30 433 H 41.9079 1.28382 0.71808 0
M  V30 434 H 43.8659 1.72331 3.79944 0
M  V30 435 H 42.4959 0.801181 3.12699 0
M  V30 436 H 41.5479 3.06029 2.25944 0
M  V30 437 H 42.8599 3.8786 3.13633 0
M  V30 438 H 42.0139 2.95021 5.30139 0
M  V30 439 H 40.7529 2.02784 4.43542 0
M  V30 440 H 39.7579 4.16955 3.58369 0
M  V30 441 H 40.9829 5.10113 4.48287 0
M  V30 442 H 38.9289 3.22428 5.71293 0
M  V30 443 H 38.8459 4.95543 5.7094 0
M  V30 444 H 40.1139 4.1592 6.59266 0
M  V30 445 N 44.343 -0.763751 1.37857 0
M  V30 446 C 45.253 -1.90817 1.36478 0
M  V30 447 C 46.269 -1.71997 0.263248 0
M  V30 448 O 47.445 -1.95095 0.499979 0
M  V30 449 C 44.51 -3.2605 1.17864 0
M  V30 450 C 43.571 -3.57467 2.3773 0
M  V30 451 C 42.804 -4.86249 2.19995 0
M  V30 452 O 43.027 -5.57884 1.18836 0
M  V30 453 O 41.961 -5.16911 3.08361 0
M  V30 454 H 45.787 -1.94933 2.32884 0
M  V30 455 H 43.372 -0.907619 1.1867 0
M  V30 456 H 45.254 -4.06924 1.09504 0
M  V30 457 H 43.929 -3.22769 0.245372 0
M  V30 458 H 42.836 -2.76796 2.51664 0
M  V30 459 H 44.169 -3.655 3.29652 0
M  V30 460 N 45.8211 -1.22559 -0.990812 0
M  V30 461 C 47.0981 -0.959875 -1.70428 0
M  V30 462 C 47.4781 0.524455 -2.04481 0
M  V30 463 O 46.8261 1.49302 -1.72977 0
M  V30 464 C 47.0361 -1.85955 -2.95333 0
M  V30 465 C 48.3841 -2.11687 -3.68068 0
M  V30 466 O 49.4081 -1.8342 -3.05345 0
M  V30 467 O 48.2671 -2.59572 -4.80921 0
M  V30 468 H 45.3611 -0.361154 -0.743974 0
M  V30 469 H 47.9071 -1.33554 -1.04697 0
M  V30 470 H 46.6791 -2.86346 -2.66687 0
M  V30 471 H 46.3021 -1.4856 -3.68803 0
M  V30 472 N 47.2992 1.18797 -1.03562 0
M  V30 473 C 48.5482 1.87978 -0.731235 0
M  V30 474 C 48.8612 1.80911 0.743671 0
M  V30 475 O 50.0672 2.45407 1.16137 0
M  V30 476 C 48.5232 3.3721 -1.25768 0
M  V30 477 C 48.1312 3.52818 -2.76085 0
M  V30 478 C 49.8752 4.11825 -1.0296 0
M  V30 479 C 47.7822 4.9598 -3.22114 0
M  V30 480 H 46.7122 0.704063 -0.269835 0
M  V30 481 H 49.3632 1.34266 -1.25079 0
M  V30 482 H 47.7452 3.90359 -0.666011 0
M  V30 483 H 48.9192 3.09965 -3.40966 0
M  V30 484 H 47.2342 2.91602 -2.97249 0
M  V30 485 H 49.8312 5.17411 -1.34869 0
M  V30 486 H 50.1742 4.16287 0.0333546 0
M  V30 487 H 50.7072 3.64833 -1.58562 0
M  V30 488 H 47.4462 4.96684 -4.27768 0
M  V30 489 H 46.9662 5.39569 -2.61965 0
M  V30 490 H 48.6452 5.6467 -3.15844 0
M  V30 491 N 48.7773 0.814389 1.34928 0
M  V30 492 C 49.7073 0.244827 2.32213 0
M  V30 493 C 50.6883 -0.634024 1.57842 0
M  V30 494 O 51.8733 -0.562676 1.8587 0
M  V30 495 C 49.0033 -0.601106 3.42058 0
M  V30 496 C 47.9573 0.179896 4.27622 0
M  V30 497 C 47.2833 -0.788237 5.28858 0
M  V30 498 C 48.5833 1.38329 5.03649 0
M  V30 499 H 50.2773 1.05763 2.80097 0
M  V30 500 H 47.8233 0.510029 1.34665 0
M  V30 501 H 49.7763 -1.00968 4.09125 0
M  V30 502 H 48.5003 -1.44688 2.92802 0
M  V30 503 H 47.1593 0.569739 3.62146 0
M  V30 504 H 46.8073 -1.62973 4.75866 0
M  V30 505 H 46.5073 -0.269942 5.8698 0
M  V30 506 H 48.0313 -1.19485 5.98795 0
M  V30 507 H 49.4453 1.04918 5.63618 0
M  V30 508 H 47.8423 1.83662 5.71304 0
M  V30 509 H 48.9123 2.16592 4.33839 0
M  V30 510 N 50.2554 -1.46986 0.568584 0
M  V30 511 C 51.4854 -2.0653 0.0539173 0
M  V30 512 C 51.8934 -1.42004 -1.25026 0
M  V30 513 O 51.2364 -0.514541 -1.76347 0
M  V30 514 C 51.2984 -3.58938 -0.200854 0
M  V30 515 C 50.9624 -4.45572 1.01559 0
M  V30 516 C 51.9594 -4.82986 1.92407 0
M  V30 517 C 49.6444 -4.8692 1.23346 0
M  V30 518 C 51.6384 -5.60559 3.03402 0
M  V30 519 C 49.3254 -5.64255 2.34649 0
M  V30 520 C 50.3234 -6.00986 3.24507 0
M  V30 521 O 50.0114 -6.76761 4.33878 0
M  V30 522 H 49.7434 -0.674292 0.0480234 0
M  V30 523 H 52.2974 -1.89812 0.784896 0
M  V30 524 H 50.5274 -3.73911 -0.986279 0
M  V30 525 H 52.2164 -4.0046 -0.662294 0
M  V30 526 H 52.9824 -4.51633 1.76785 0
M  V30 527 H 48.8614 -4.57789 0.543178 0
M  V30 528 H 52.4054 -5.89147 3.73565 0
M  V30 529 H 48.3024 -5.95021 2.5024 0
M  V30 530 H 49.0704 -6.95168 4.32068 0
M  V30 531 N 51.7335 -0.305618 -1.54608 0
M  V30 532 C 52.6835 0.583595 -2.20405 0
M  V30 533 C 53.6675 1.09539 -1.17856 0
M  V30 534 O 54.8595 1.0354 -1.43557 0
M  V30 535 C 51.9885 1.75277 -2.95183 0
M  V30 536 C 51.0745 1.25672 -4.05052 0
M  V30 537 N 51.4655 0.478998 -5.03527 0
M  V30 538 C 49.7635 1.53704 -4.18678 0
M  V30 539 C 50.4645 0.214269 -5.81305 0
M  V30 540 N 49.4405 0.795374 -5.3775 0
M  V30 541 H 53.2425 -0.0180946 -2.93894 0
M  V30 542 H 50.7565 -0.110601 -1.62023 0
M  V30 543 H 52.7535 2.4014 -3.40791 0
M  V30 544 H 51.4135 2.35812 -2.23211 0
M  V30 545 H 52.4245 0.123473 -5.17753 0
M  V30 546 H 49.1015 2.14954 -3.57912 0
M  V30 547 H 50.4915 -0.410656 -6.70644 0
M  V30 548 N 53.2116 1.57565 -0.0334293 0
M  V30 549 C 54.4586 1.91978 0.644272 0
M  V30 550 C 54.7866 0.910231 1.71887 0
M  V30 551 O 54.0416 -0.0801961 1.95536 0
M  V30 552 C 54.3406 3.33112 1.29504 0
M  V30 553 C 54.0066 4.49537 0.350388 0
M  V30 554 C 52.6686 4.81115 0.0903974 0
M  V30 555 C 55.0206 5.20347 -0.298032 0
M  V30 556 C 52.3486 5.8086 -0.825746 0
M  V30 557 C 54.7006 6.2107 -1.20226 0
M  V30 558 C 53.3646 6.51088 -1.4711 0
M  V30 559 H 52.6346 0.702496 0.235756 0
M  V30 560 H 55.2816 1.91259 -0.0961176 0
M  V30 561 H 53.5866 3.30113 2.11028 0
M  V30 562 H 55.2836 3.57011 1.82603 0
M  V30 563 H 51.8736 4.24883 0.563205 0
M  V30 564 H 56.0576 4.96178 -0.110234 0
M  V30 565 H 51.3136 6.02461 -1.04169 0
M  V30 566 H 55.4876 6.75057 -1.71086 0
M  V30 567 H 53.1146 7.28193 -2.18264 0
M  V30 568 N 54.6897 -0.239769 1.55765 0
M  V30 569 C 55.6377 -1.31668 1.91745 0
M  V30 570 C 56.6317 -1.49462 0.797338 0
M  V30 571 O 57.8377 -1.50852 0.982021 0
M  V30 572 H 54.2127 -0.441048 0.609082 0
M  V30 573 H 56.1837 -0.985923 2.81642 0
M  V30 574 C 54.9327 -2.66368 2.2348 0
M  V30 575 H 54.2557 -2.53478 3.09175 0
M  V30 576 H 55.6957 -3.40578 2.52553 0
M  V30 577 C 54.1547 -3.20002 1.05359 0
M  V30 578 O 54.6847 -4.00538 0.305261 0
M  V30 579 N 52.8907 -2.78126 0.842292 0
M  V30 580 H 52.4377 -2.12742 1.45253 0
M  V30 581 H 52.3957 -3.14354 0.053652 0
M  V30 582 N 56.1678 -1.49265 -0.50573 0
M  V30 583 C 57.0978 -1.68495 -1.61653 0
M  V30 584 C 58.0788 -0.53366 -1.61512 0
M  V30 585 O 59.2638 -0.76897 -1.78327 0
M  V30 586 C 56.3938 -1.74709 -3.00157 0
M  V30 587 C 55.3478 -2.89581 -3.15162 0
M  V30 588 C 54.6738 -2.80903 -4.5497 0
M  V30 589 C 55.9738 -4.30578 -2.95634 0
M  V30 590 H 57.6678 -2.61493 -1.45814 0
M  V30 591 H 55.2138 -1.25838 -0.70005 0
M  V30 592 H 57.1668 -1.86748 -3.77761 0
M  V30 593 H 55.8908 -0.783067 -3.17074 0
M  V30 594 H 54.5498 -2.77136 -2.39982 0
M  V30 595 H 54.1978 -1.82419 -4.68756 0
M  V30 596 H 53.8978 -3.57999 -4.65951 0
M  V30 597 H 55.4218 -2.94944 -5.34641 0
M  V30 598 H 56.8358 -4.4373 -3.63011 0
M  V30 599 H 55.2328 -5.0886 -3.18091 0
M  V30 600 H 56.3028 -4.45352 -1.91806 0
M  V30 601 N 57.6459 0.756429 -1.3826 0
M  V30 602 C 58.8739 1.54565 -1.3754 0
M  V30 603 C 59.2889 1.88767 0.0355331 0
M  V30 604 O 58.6459 1.52572 1.0014 0
M  V30 605 C 58.6969 2.84654 -2.22833 0
M  V30 606 O 58.4179 2.51912 -3.5843 0
M  V30 607 C 59.9189 3.78807 -2.30261 0
M  V30 608 H 57.1389 0.478353 -0.470553 0
M  V30 609 H 59.6829 0.936381 -1.81803 0
M  V30 610 H 57.8379 3.41965 -1.8204 0
M  V30 611 H 58.2519 3.35325 -4.03308 0
M  V30 612 H 59.7259 4.67045 -2.94233 0
M  V30 613 H 60.2029 4.19038 -1.31545 0
M  V30 614 H 60.8089 3.2742 -2.71433 0
M  V30 615 N 59.124 1.23083 0.984299 0
M  V30 616 C 60.352 1.08714 1.76037 0
M  V30 617 C 60.767 -0.361691 1.85303 0
M  V30 618 O 60.124 -1.25034 1.32939 0
M  V30 619 C 60.175 1.70206 3.18923 0
M  V30 620 O 59.896 3.09423 3.10144 0
M  V30 621 C 61.397 1.61227 4.12941 0
M  V30 622 H 58.617 0.380664 0.552572 0
M  V30 623 H 61.161 1.62853 1.23689 0
M  V30 624 H 59.316 1.20109 3.6831 0
M  V30 625 H 59.73 3.39188 4.00065 0
M  V30 626 H 61.204 2.08962 5.10919 0
M  V30 627 H 61.681 0.570375 4.35481 0
M  V30 628 H 62.287 2.10671 3.69456 0
M  V30 629 N 60.6021 -1.18246 1.0419 0
M  V30 630 C 61.8271 -1.92736 0.765996 0
M  V30 631 C 62.2521 -1.75728 -0.67091 0
M  V30 632 O 61.6101 -1.06825 -1.46486 0
M  V30 633 C 61.6581 -3.42148 1.13875 0
M  V30 634 O 60.7621 -4.11548 0.264954 0
M  V30 635 H 60.1031 -0.601238 0.281797 0
M  V30 636 H 62.6331 -1.49942 1.39207 0
M  V30 637 H 62.6431 -3.92858 1.1012 0
M  V30 638 H 61.3181 -3.53848 2.18551 0
M  V30 639 H 59.8951 -3.71137 0.362226 0
M  V30 640 N 62.0802 -0.821533 -1.34494 0
M  V30 641 C 63.4962 -0.507117 -1.51329 0
M  V30 642 C 63.6962 0.968964 -1.76673 0
M  V30 643 O 62.7522 1.75348 -1.81685 0
M  V30 644 C 64.0652 -1.36544 -2.67911 0
M  V30 645 C 65.6132 -1.36242 -2.81793 0
M  V30 646 C 66.0882 -2.2052 -4.01416 0
M  V30 647 N 67.5792 -2.18136 -4.08621 0
M  V30 648 C 68.3142 -2.80095 -5.00334 0
M  V30 649 N 67.8102 -3.51039 -5.9728 0
M  V30 650 N 69.6032 -2.69656 -4.93196 0
M  V30 651 H 61.7542 -1.77729 -1.16302 0
M  V30 652 H 64.0172 -0.757291 -0.570276 0
M  V30 653 H 63.7232 -2.41361 -2.55808 0
M  V30 654 H 63.5972 -1.02917 -3.62888 0
M  V30 655 H 65.9842 -0.322041 -2.93338 0
M  V30 656 H 66.0652 -1.73866 -1.87628 0
M  V30 657 H 65.7092 -3.24607 -3.90631 0
M  V30 658 H 65.6392 -1.80247 -4.94791 0
M  V30 659 H 68.1302 -1.6653 -3.39229 0
M  V30 660 H 68.4432 -3.95565 -6.63889 0
M  V30 661 H 66.7882 -3.55145 -5.97409 0
M  V30 662 H 69.9792 -2.13808 -4.16418 0
M  V30 663 H 70.1522 -3.1823 -5.64476 0
M  V30 664 N 63.5583 1.46682 -0.576371 0
M  V30 665 C 64.5083 2.27278 0.181288 0
M  V30 666 C 65.4923 1.35497 0.867721 0
M  V30 667 O 66.6843 1.59717 0.762863 0
M  V30 668 C 63.8133 3.21703 1.19841 0
M  V30 669 C 62.8993 4.20969 0.51442 0
M  V30 670 N 63.2903 5.03999 -0.426407 0
M  V30 671 C 61.5883 4.39373 0.765963 0
M  V30 672 C 62.2893 5.75812 -0.825565 0
M  V30 673 N 61.2653 5.43315 -0.176116 0
M  V30 674 H 65.0673 2.88863 -0.541785 0
M  V30 675 H 62.5813 1.57455 -0.397697 0
M  V30 676 H 64.5783 3.78145 1.75533 0
M  V30 677 H 63.2383 2.61677 1.92238 0
M  V30 678 H 64.2493 5.11659 -0.8016 0
M  V30 679 H 60.9263 3.90502 1.47698 0
M  V30 680 H 62.3163 6.52577 -1.59976 0
M  V30 681 N 65.0364 0.313813 1.54444 0
M  V30 682 C 65.9844 -0.572171 2.25453 0
M  V30 683 C 66.9784 -1.12657 1.2651 0
M  V30 684 O 68.1844 -1.07573 1.44319 0
M  V30 685 H 64.5594 -0.203146 0.724041 0
M  V30 686 H 66.5304 0.0491145 2.9836 0
M  V30 687 C 65.2794 -1.72626 3.0182 0
M  V30 688 H 64.6024 -1.30891 3.77767 0
M  V30 689 H 66.0424 -2.32199 3.54767 0
M  V30 690 C 64.5014 -2.63806 2.09542 0
M  V30 691 O 65.0314 -3.65256 1.67185 0
M  V30 692 N 63.2374 -2.31824 1.75232 0
M  V30 693 H 62.7844 -1.49368 2.09873 0
M  V30 694 H 62.7424 -2.93095 1.13767 0
M  V30 695 N 66.5145 -1.57545 0.0417849 0
M  V30 696 C 67.7615 -1.92317 -0.634082 0
M  V30 697 C 68.0895 -0.919334 -1.71402 0
M  V30 698 O 67.3445 0.0698253 -1.95575 0
M  V30 699 C 67.6435 -3.33794 -1.27735 0
M  V30 700 C 67.3095 -4.49716 -0.326543 0
M  V30 701 C 65.9715 -4.81156 -0.0648814 0
M  V30 702 C 68.3235 -5.20182 0.325623 0
M  V30 703 C 65.6515 -5.80414 0.856539 0
M  V30 704 C 68.0035 -6.20424 1.23518 0
M  V30 705 C 66.6675 -6.50298 1.5056 0
M  V30 706 H 65.9375 -0.703736 -0.232027 0
M  V30 707 H 68.5845 -1.91205 0.106259 0
M  V30 708 H 66.8895 -3.31228 -2.09274 0
M  V30 709 H 68.5865 -3.57975 -1.80707 0
M  V30 710 H 65.1765 -4.25176 -0.540665 0
M  V30 711 H 69.3605 -4.96112 0.136546 0
M  V30 712 H 64.6165 -6.019 1.07363 0
M  V30 713 H 68.7905 -6.74141 1.74664 0
M  V30 714 H 66.4175 -7.27025 2.22123 0
M  V30 715 N 67.9926 0.231505 -1.5589 0
M  V30 716 C 69.4036 0.799327 -1.68724 0
M  V30 717 C 69.7546 1.85398 -0.642022 0
M  V30 718 O 68.8796 2.1539 0.208784 0
M  V30 719 C 69.4746 1.45664 -3.05888 0
M  V30 720 C 68.0336 1.97197 -3.20609 0
M  V30 721 C 67.1806 0.828552 -2.64632 0
M  V30 722 H 70.1316 0.00702616 -1.58698 0
M  V30 723 H 70.1526 2.32517 -3.01191 0
M  V30 724 H 69.6646 0.688808 -3.81939 0
M  V30 725 H 67.7656 2.76813 -2.4941 0
M  V30 726 H 67.8786 2.15878 -4.27707 0
M  V30 727 H 66.2426 1.23321 -2.22854 0
M  V30 728 H 67.0256 0.0735544 -3.43221 0
M  V30 729 N 69.4707 1.49531 0.497807 0
M  V30 730 C 70.4337 1.65916 1.58128 0
M  V30 731 C 71.4337 0.530825 1.51786 0
M  V30 732 O 72.6237 0.797342 1.54881 0
M  V30 733 C 69.7557 1.65951 2.9778 0
M  V30 734 H 70.9487 2.62556 1.44929 0
M  V30 735 H 68.5017 1.38611 0.722275 0
M  V30 736 H 69.2367 0.709065 3.16453 0
M  V30 737 H 69.0217 2.47897 3.03792 0
M  V30 738 H 70.5117 1.80673 3.76493 0
M  V30 739 N 70.9488 -0.749086 1.3866 0
M  V30 740 C 71.8788 -1.8764 1.38973 0
M  V30 741 C 72.8598 -1.68178 0.255004 0
M  V30 742 O 74.0448 -1.88704 0.458754 0
M  V30 743 C 71.1748 -3.25222 1.21851 0
M  V30 744 C 70.1288 -3.59295 2.32575 0
M  V30 745 C 69.4548 -4.95663 2.00555 0
M  V30 746 C 70.7548 -3.63709 3.7485 0
M  V30 747 H 72.4488 -1.87635 2.3331 0
M  V30 748 H 69.9948 -0.901329 1.12303 0
M  V30 749 H 71.9478 -4.03746 1.20695 0
M  V30 750 H 70.6718 -3.25719 0.239775 0
M  V30 751 H 69.3308 -2.83093 2.32925 0
M  V30 752 H 68.9788 -4.92724 1.01154 0
M  V30 753 H 68.6788 -5.19429 2.74714 0
M  V30 754 H 70.2028 -5.7656 2.01024 0
M  V30 755 H 71.6168 -4.32338 3.76506 0
M  V30 756 H 70.0138 -3.98986 4.48252 0
M  V30 757 H 71.0838 -2.63834 4.06841 0
M  V30 758 N 72.4269 -1.23603 -0.977757 0
M  V30 759 C 73.6739 -1.06971 -1.71941 0
M  V30 760 C 74.0019 0.393009 -1.90488 0
M  V30 761 O 73.2569 1.30719 -1.4564 0
M  V30 762 C 73.5559 -1.7433 -3.11999 0
M  V30 763 C 73.2219 -3.24252 -3.13323 0
M  V30 764 C 71.8839 -3.65156 -3.13392 0
M  V30 765 C 74.2359 -4.20141 -3.08433 0
M  V30 766 C 71.5639 -5.00403 -3.0629 0
M  V30 767 C 73.9159 -5.55384 -3.02873 0
M  V30 768 C 72.5799 -5.95647 -3.01265 0
M  V30 769 H 71.8499 -0.391433 -0.629175 0
M  V30 770 H 74.4969 -1.53572 -1.14403 0
M  V30 771 H 72.8019 -1.20096 -3.7294 0
M  V30 772 H 74.4989 -1.58936 -3.68158 0
M  V30 773 H 71.0889 -2.91692 -3.14029 0
M  V30 774 H 75.2729 -3.89547 -3.07517 0
M  V30 775 H 70.5289 -5.3081 -3.03399 0
M  V30 776 H 74.7029 -6.29398 -2.98046 0
M  V30 777 H 72.3299 -7.0041 -2.95516 0
M  V30 778 N 73.905 1.17692 -1.04816 0
M  V30 779 C 75.153 1.87488 -0.754497 0
M  V30 780 C 75.474 1.81205 0.720407 0
M  V30 781 O 74.744 1.23544 1.52032 0
M  V30 782 H 73.324 0.694101 -0.276102 0
M  V30 783 H 75.986 1.42793 -1.32651 0
M  V30 784 H 75.082 2.93328 -1.06606 0
M  V30 785 N 75.3831 0.828654 1.34056 0
M  V30 786 C 76.6601 0.341809 1.9259 0
M  V30 787 C 77.0401 -1.17158 1.75605 0
M  V30 788 O 76.3881 -1.98132 1.13824 0
M  V30 789 C 76.5981 0.777453 3.4023 0
M  V30 790 C 77.9461 0.779579 4.17382 0
M  V30 791 O 78.9701 0.7204 3.48839 0
M  V30 792 O 77.8291 0.857996 5.39723 0
M  V30 793 H 74.9231 0.0946085 0.821571 0
M  V30 794 H 77.4691 0.913827 1.42994 0
M  V30 795 H 76.2411 1.8196 3.46419 0
M  V30 796 H 75.8641 0.181444 3.97186 0
M  V30 797 N 76.8612 -1.46375 0.584142 0
M  V30 798 C 78.1072 -2.02678 0.0703716 0
M  V30 799 C 78.4402 -1.4545 -1.28678 0
M  V30 800 O 77.7152 -0.62014 -1.84349 0
M  V30 801 C 77.9982 -3.60099 0.00614674 0
M  V30 802 C 77.8512 -4.27709 1.3923 0
M  V30 803 C 79.1702 -4.34598 -0.693742 0
M  V30 804 H 76.2892 -0.736504 0.027047 0
M  V30 805 H 78.9312 -1.74501 0.751615 0
M  V30 806 H 77.0812 -3.84236 -0.574009 0
M  V30 807 H 78.7532 -4.14832 2.01773 0
M  V30 808 H 76.9962 -3.87016 1.95962 0
M  V30 809 H 77.6672 -5.36478 1.29982 0
M  V30 810 H 80.1432 -4.15615 -0.200869 0
M  V30 811 H 79.0192 -5.44318 -0.707714 0
M  V30 812 H 79.2802 -4.05759 -1.75533 0
M  V30 813 N 78.3393 -0.321999 -1.54275 0
M  V30 814 C 79.2863 0.544664 -2.24281 0
M  V30 815 C 80.2563 1.1129 -1.23303 0
M  V30 816 O 81.4413 1.15354 -1.51981 0
M  V30 817 C 78.5813 1.70045 -3.00298 0
M  V30 818 C 77.6943 1.16159 -4.1609 0
M  V30 819 C 76.8293 2.28293 -4.79641 0
M  V30 820 C 75.8683 1.71648 -5.8754 0
M  V30 821 N 75.0053 2.77438 -6.44959 0
M  V30 822 H 79.8453 -0.0588907 -2.97942 0
M  V30 823 H 77.3823 -0.0408345 -1.47043 0
M  V30 824 H 79.3403 2.38054 -3.42616 0
M  V30 825 H 77.9703 2.27531 -2.28975 0
M  V30 826 H 77.0223 0.373092 -3.78566 0
M  V30 827 H 78.3343 0.707087 -4.93763 0
M  V30 828 H 77.4883 3.0421 -5.2492 0
M  V30 829 H 76.2273 2.77079 -4.01346 0
M  V30 830 H 75.2323 0.942282 -5.41665 0
M  V30 831 H 76.4573 1.23741 -6.67731 0
M  V30 832 H 74.4033 3.25519 -5.69538 0
M  V30 833 H 74.3203 2.36547 -7.1804 0
M  V30 834 H 75.5883 3.53189 -6.94894 0
M  V30 835 N 79.8174 1.5752 -0.0501392 0
M  V30 836 C 81.0644 1.9265 0.623874 0
M  V30 837 C 81.3924 0.928411 1.70912 0
M  V30 838 O 80.6474 -0.0594525 1.9561 0
M  V30 839 C 80.9464 3.34467 1.25963 0
M  V30 840 C 80.6124 4.49883 0.302689 0
M  V30 841 C 79.2744 4.81184 0.0393636 0
M  V30 842 C 81.6264 5.20002 -0.353205 0
M  V30 843 C 78.9544 5.79951 -0.887308 0
M  V30 844 C 81.3064 6.1976 -1.26806 0
M  V30 845 C 79.9704 6.49491 -1.54007 0
M  V30 846 H 79.2404 0.704957 0.228292 0
M  V30 847 H 81.8874 1.91146 -0.116398 0
M  V30 848 H 80.1924 3.32333 2.07514 0
M  V30 849 H 81.8894 3.58928 1.78806 0
M  V30 850 H 78.4794 4.25457 0.518109 0
M  V30 851 H 82.6634 4.96033 -0.162854 0
M  V30 852 H 77.9194 6.01322 -1.10553 0
M  V30 853 H 82.0934 6.73205 -1.78236 0
M  V30 854 H 79.7204 7.25837 -2.25976 0
M  V30 855 N 81.2955 -0.223234 1.56011 0
M  V30 856 C 82.5415 -0.949279 1.79211 0
M  V30 857 C 82.8745 -1.84054 0.619494 0
M  V30 858 O 82.1495 -1.90726 -0.381317 0
M  V30 859 C 82.4325 -1.78965 3.12479 0
M  V30 860 C 82.2855 -0.924997 4.40186 0
M  V30 861 C 83.6045 -2.76774 3.42175 0
M  V30 862 H 80.7235 -0.343676 0.651963 0
M  V30 863 H 83.3655 -0.218253 1.88742 0
M  V30 864 H 81.5155 -2.41291 3.04485 0
M  V30 865 H 83.1875 -0.318615 4.60198 0
M  V30 866 H 81.4305 -0.230344 4.33188 0
M  V30 867 H 82.1015 -1.54735 5.29869 0
M  V30 868 H 84.5775 -2.24584 3.50287 0
M  V30 869 H 83.4535 -3.32678 4.36597 0
M  V30 870 H 83.7145 -3.54429 2.64258 0
M  V30 871 N 82.7736 -1.49793 -0.48987 0
M  V30 872 C 84.0136 -1.61466 -1.25332 0
M  V30 873 C 84.3776 -0.299688 -1.89647 0
M  V30 874 O 85.5786 -0.291687 -2.67213 0
M  V30 875 C 83.8496 -2.74944 -2.28343 0
M  V30 876 S 85.4086 -3.06637 -3.13878 0
M  V30 877 H 82.2266 -0.569411 -0.425784 0
M  V30 878 H 84.8286 -1.875 -0.553541 0
M  V30 879 H 83.5326 -3.68994 -1.79643 0
M  V30 880 H 83.0636 -2.50938 -3.02975 0
M  V30 881 H 85.0786 -2.49015 -4.29192 0
M  V30 882 N 84.2517 0.741722 -1.39055 0
M  V30 883 C 85.4977 1.50336 -1.36113 0
M  V30 884 C 85.8307 1.94148 0.0450796 0
M  V30 885 O 85.1057 1.66301 1.00868 0
M  V30 886 C 85.3887 2.74773 -2.32749 0
M  V30 887 C 85.2417 2.37023 -3.82283 0
M  V30 888 C 86.5607 3.76846 -2.27322 0
M  V30 889 H 83.6797 0.545351 -0.495743 0
M  V30 890 H 86.3217 0.848624 -1.69995 0
M  V30 891 H 84.4717 3.30639 -2.03986 0
M  V30 892 H 86.1437 1.8684 -4.21768 0
M  V30 893 H 84.3867 1.69334 -3.99385 0
M  V30 894 H 85.0577 3.26104 -4.45376 0
M  V30 895 H 87.5337 3.30548 -2.5274 0
M  V30 896 H 86.4097 4.6159 -2.97028 0
M  V30 897 H 86.6707 4.23286 -1.27599 0
M  V30 898 N 85.7298 1.2412 0.971189 0
M  V30 899 C 86.9778 1.07668 1.71032 0
M  V30 900 C 87.2988 -0.385797 1.91146 0
M  V30 901 O 86.5688 -1.27569 1.4867 0
M  V30 902 H 85.1488 0.395429 0.633755 0
M  V30 903 H 87.8108 1.55984 1.16855 0
M  V30 904 H 86.9068 1.57195 2.69622 0
M  V30 905 N 87.2079 -1.17134 1.05439 0
M  V30 906 C 88.4559 -1.87085 0.764429 0
M  V30 907 C 88.7769 -1.81584 -0.710787 0
M  V30 908 O 88.0469 -1.24349 -1.51374 0
M  V30 909 H 86.6269 -0.692627 0.279779 0
M  V30 910 H 89.2889 -1.42087 1.33406 0
M  V30 911 H 88.3849 -2.92759 1.0816 0
M  V30 912 N 88.686 -0.835752 -1.33615 0
M  V30 913 C 89.911 -0.442389 -2.02627 0
M  V30 914 C 90.336 0.947735 -1.62479 0
M  V30 915 O 89.694 1.61907 -0.815826 0
M  V30 916 C 89.742 -0.567216 -3.56111 0
M  V30 917 O 88.846 0.407799 -4.10379 0
M  V30 918 H 88.187 -0.180278 -0.639059 0
M  V30 919 H 90.717 -1.12972 -1.70583 0
M  V30 920 H 90.727 -0.447708 -4.05536 0
M  V30 921 H 89.402 -1.58103 -3.84677 0
M  V30 922 H 87.979 0.246107 -3.72087 0
M  V30 923 N 90.1641 1.46063 -0.591896 0
M  V30 924 C 91.5751 1.85944 -0.167822 0
M  V30 925 C 91.9261 1.49429 1.27143 0
M  V30 926 O 91.0511 0.913515 1.96173 0
M  V30 927 C 91.6461 3.37489 -0.297794 0
M  V30 928 C 90.2051 3.76332 0.0714732 0
M  V30 929 C 89.3521 2.7006 -0.629509 0
M  V30 930 H 92.3031 1.37087 -0.799555 0
M  V30 931 H 92.3241 3.77532 0.474349 0
M  V30 932 H 91.8361 3.64034 -1.3454 0
M  V30 933 H 89.9371 3.55405 1.11886 0
M  V30 934 H 90.0501 4.78088 -0.311245 0
M  V30 935 H 88.4141 2.54607 -0.0687867 0
M  V30 936 H 89.1971 2.99444 -1.67894 0
M  V30 937 N 91.6422 0.330177 1.54103 0
M  V30 938 C 92.8672 -0.274893 2.0557 0
M  V30 939 C 93.2922 -1.44487 1.20437 0
M  V30 940 O 92.6502 -1.80021 0.214991 0
M  V30 941 C 92.6982 -0.68079 3.54115 0
M  V30 942 O 91.8022 -1.7824 3.71893 0
M  V30 943 H 91.1432 -0.0483849 0.662235 0
M  V30 944 H 93.6732 0.480508 1.98878 0
M  V30 945 H 93.6832 -0.961635 3.96505 0
M  V30 946 H 92.3582 0.174903 4.15532 0
M  V30 947 H 90.9352 -1.49985 3.41407 0
M  V30 948 N 93.1203 -1.57491 0.0584922 0
M  V30 949 C 94.5363 -1.56792 -0.298091 0
M  V30 950 C 94.7363 -1.06679 -1.70944 0
M  V30 951 O 93.7923 -0.726672 -2.41818 0
M  V30 952 C 95.1053 -3.00461 -0.119879 0
M  V30 953 C 96.6533 -3.1242 -0.190428 0
M  V30 954 C 97.1283 -4.57982 -0.0406567 0
M  V30 955 N 98.6193 -4.63099 -0.0966958 0
M  V30 956 C 99.3543 -5.734 -0.00502943 0
M  V30 957 N 98.8503 -6.9266 0.139402 0
M  V30 958 N 100.643 -5.62067 -0.0611391 0
M  V30 959 H 92.7943 -1.88386 0.98105 0
M  V30 960 H 95.0573 -0.867865 0.381463 0
M  V30 961 H 94.7633 -3.41187 0.85349 0
M  V30 962 H 94.6373 -3.66843 -0.877833 0
M  V30 963 H 97.0243 -2.71589 -1.15427 0
M  V30 964 H 97.1053 -2.48702 0.598405 0
M  V30 965 H 96.7493 -4.995 0.919897 0
M  V30 966 H 96.6793 -5.19715 -0.848727 0
M  V30 967 H 99.1703 -3.77331 -0.207277 0
M  V30 968 H 99.4833 -7.72536 0.201855 0
M  V30 969 H 97.8283 -6.94781 0.174586 0
M  V30 970 H 101.019 -4.67782 -0.172583 0
M  V30 971 H 101.192 -6.47999 0.0137562 0
M  V30 972 N 94.5984 0.214957 -1.56127 0
M  V30 973 C 95.5314 1.29382 -1.87977 0
M  V30 974 C 96.5094 1.44897 -0.737807 0
M  V30 975 O 97.6934 1.60605 -0.986833 0
M  V30 976 C 94.8204 2.66325 -2.09258 0
M  V30 977 C 93.8664 2.67789 -3.31951 0
M  V30 978 S 94.6994 2.21198 -4.8768 0
M  V30 979 C 95.8554 3.60003 -5.12004 0
M  V30 980 H 96.0884 1.02173 -2.79192 0
M  V30 981 H 93.6214 0.417516 -1.48648 0
M  V30 982 H 95.5794 3.45162 -2.22201 0
M  V30 983 H 94.2404 2.90755 -1.18829 0
M  V30 984 H 93.4334 3.68436 -3.43906 0
M  V30 985 H 93.0354 1.9702 -3.17898 0
M  V30 986 H 95.3274 4.55739 -5.01307 0
M  V30 987 H 96.2704 3.52959 -6.13861 0
M  V30 988 H 96.6784 3.53996 -4.39712 0
M  V30 989 N 96.0765 1.50051 0.48192 0
M  V30 990 C 97.0235 1.68122 1.58125 0
M  V30 991 C 97.9935 0.522545 1.57666 0
M  V30 992 O 99.1785 0.751844 1.75362 0
M  V30 993 C 96.3185 1.77142 2.96167 0
M  V30 994 C 95.4315 3.0444 3.06497 0
M  V30 995 C 94.5665 3.04321 4.35387 0
M  V30 996 C 93.6055 4.26118 4.3942 0
M  V30 997 N 92.7425 4.238 5.59766 0
M  V30 998 H 97.5825 2.6198 1.42022 0
M  V30 999 H 95.1195 1.29877 0.690687 0
M  V30 1000 H 97.0775 1.80352 3.76203 0
M  V30 1001 H 95.7075 0.867329 3.1093 0
M  V30 1002 H 94.7595 3.10752 2.19402 0
M  V30 1003 H 96.0715 3.94426 3.05336 0
M  V30 1004 H 95.2255 3.062 5.23762 0
M  V30 1005 H 93.9645 2.12147 4.39141 0
M  V30 1006 H 92.9695 4.24463 3.49444 0
M  V30 1007 H 94.1945 5.19507 4.37366 0
M  V30 1008 H 92.1405 3.34474 5.64326 0
M  V30 1009 H 92.0575 5.07542 5.60301 0
M  V30 1010 H 93.3255 4.2981 6.50295 0
M  V30 1011 N 97.5546 -0.734337 1.39446 0
M  V30 1012 C 98.5176 -1.83004 1.37994 0
M  V30 1013 C 99.5176 -1.58397 0.276938 0
M  V30 1014 O 100.708 -1.65785 0.534875 0
M  V30 1015 C 97.8396 -3.20802 1.1532 0
M  V30 1016 H 99.0326 -1.85694 2.35494 0
M  V30 1017 H 96.5856 -0.938059 1.25021 0
M  V30 1018 H 97.3206 -3.23772 0.185036 0
M  V30 1019 H 97.1056 -3.4006 1.95197 0
M  V30 1020 H 98.5956 -4.00862 1.17046 0
M  V30 1021 N 99.0327 -1.24633 -0.964593 0
M  V30 1022 C 100.28 -1.08788 -1.70796 0
M  V30 1023 C 100.608 0.372783 -1.90894 0
M  V30 1024 O 99.8627 1.29167 -1.47018 0
M  V30 1025 C 100.162 -1.7763 -3.10133 0
M  V30 1026 C 99.8277 -3.27557 -3.09866 0
M  V30 1027 C 98.4897 -3.6846 -3.09501 0
M  V30 1028 C 100.842 -4.23389 -3.03959 0
M  V30 1029 C 98.1697 -5.03624 -3.00965 0
M  V30 1030 C 100.522 -5.58565 -2.96965 0
M  V30 1031 C 99.1857 -5.98809 -2.9493 0
M  V30 1032 H 98.4557 -0.398084 -0.624988 0
M  V30 1033 H 101.103 -1.54777 -1.12767 0
M  V30 1034 H 99.4077 -1.24044 -3.71645 0
M  V30 1035 H 101.105 -1.62832 -3.66451 0
M  V30 1036 H 97.6947 -2.95006 -3.10917 0
M  V30 1037 H 101.879 -3.92787 -3.03368 0
M  V30 1038 H 97.1347 -5.33998 -2.97752 0
M  V30 1039 H 101.309 -6.32523 -2.91354 0
M  V30 1040 H 98.9357 -7.03505 -2.88071 0
M  V30 1041 N 100.511 1.16574 -1.06058 0
M  V30 1042 C 101.76 1.86385 -0.770944 0
M  V30 1043 C 102.073 1.82448 0.705129 0
M  V30 1044 O 103.279 2.47815 1.10905 0
M  V30 1045 C 101.735 3.34466 -1.32893 0
M  V30 1046 C 101.343 3.46883 -2.83507 0
M  V30 1047 C 103.087 4.09548 -1.11672 0
M  V30 1048 C 100.994 4.89036 -3.32562 0
M  V30 1049 H 99.9238 0.698181 -0.284709 0
M  V30 1050 H 102.575 1.31583 -1.27899 0
M  V30 1051 H 100.957 3.88859 -0.748662 0
M  V30 1052 H 102.131 3.02663 -3.47465 0
M  V30 1053 H 100.446 2.85232 -3.03368 0
M  V30 1054 H 103.043 5.14434 -1.45814 0
M  V30 1055 H 103.386 4.16264 -0.0549535 0
M  V30 1056 H 103.919 3.61387 -1.66265 0
M  V30 1057 H 100.658 4.87499 -4.38207 0
M  V30 1058 H 100.178 5.3389 -2.73351 0
M  V30 1059 H 101.857 5.57843 -3.2775 0
M  V30 1060 N 101.989 0.842826 1.3317 0
M  V30 1061 C 103.405 0.531128 1.50503 0
M  V30 1062 C 103.605 -0.940734 1.78192 0
M  V30 1063 O 102.661 -1.72436 1.84451 0
M  V30 1064 C 103.974 1.40789 2.65705 0
M  V30 1065 C 105.522 1.40708 2.79589 0
M  V30 1066 C 105.997 2.26878 3.97857 0
M  V30 1067 N 107.488 2.24609 4.05099 0
M  V30 1068 C 108.223 2.88019 4.95815 0
M  V30 1069 N 107.719 3.60496 5.9162 0
M  V30 1070 N 109.512 2.77469 4.88843 0
M  V30 1071 H 101.663 1.79557 1.1346 0
M  V30 1072 H 103.926 0.766267 0.558156 0
M  V30 1073 H 103.632 2.454 2.51936 0
M  V30 1074 H 103.506 1.08677 3.61205 0
M  V30 1075 H 105.893 0.368668 2.92788 0
M  V30 1076 H 105.974 1.76829 1.84838 0
M  V30 1077 H 105.618 3.3078 3.85418 0
M  V30 1078 H 105.548 1.88096 4.91861 0
M  V30 1079 H 108.039 1.71906 3.36536 0
M  V30 1080 H 108.352 4.06076 6.57512 0
M  V30 1081 H 106.697 3.64604 5.91683 0
M  V30 1082 H 109.888 2.20406 4.12963 0
M  V30 1083 H 110.061 3.2717 5.59342 0
M  V30 1084 N 103.467 -1.45747 0.599634 0
M  V30 1085 C 104.707 -2.04181 0.0946309 0
M  V30 1086 C 105.071 -1.45895 -1.24815 0
M  V30 1087 O 106.272 -1.95633 -1.8434 0
M  V30 1088 C 104.543 -3.57368 0.047581 0
M  V30 1089 S 106.102 -4.36997 -0.397387 0
M  V30 1090 H 102.92 -0.70953 0.0456954 0
M  V30 1091 H 105.522 -1.78564 0.795946 0
M  V30 1092 H 104.226 -3.97303 1.02852 0
M  V30 1093 H 103.757 -3.87549 -0.675977 0
M  V30 1094 H 105.772 -4.68012 -1.64862 0
M  V30 1095 N 104.945 -0.338344 -1.53925 0
M  V30 1096 C 106.191 0.260143 -2.01125 0
M  V30 1097 C 106.524 1.50617 -1.22589 0
M  V30 1098 O 105.799 1.91979 -0.312113 0
M  V30 1099 C 106.082 0.579499 -3.55407 0
M  V30 1100 C 105.935 -0.678264 -4.44657 0
M  V30 1101 C 107.254 1.39122 -4.17532 0
M  V30 1102 H 104.373 0.0930772 -0.731099 0
M  V30 1103 H 107.015 -0.457852 -1.84401 0
M  V30 1104 H 105.165 1.19118 -3.69788 0
M  V30 1105 H 106.837 -1.31631 -4.42121 0
M  V30 1106 H 105.08 -1.3042 -4.13731 0
M  V30 1107 H 105.751 -0.410143 -5.50474 0
M  V30 1108 H 108.227 0.874035 -4.06817 0
M  V30 1109 H 107.103 1.58342 -5.25565 0
M  V30 1110 H 107.364 2.39178 -3.71815 0
M  V30 1111 N 106.423 1.57458 -0.0668435 0
M  V30 1112 C 107.671 1.92919 0.602214 0
M  V30 1113 C 107.992 0.947215 1.70449 0
M  V30 1114 O 107.262 -0.00544117 1.95899 0
M  V30 1115 H 105.842 0.71217 0.22544 0
M  V30 1116 H 108.504 1.94508 -0.123535 0
M  V30 1117 H 107.6 2.94589 1.03073 0
M  V30 1118 N 107.901 -0.206675 1.56239 0
M  V30 1119 C 108.864 -1.23976 1.92776 0
M  V30 1120 C 109.864 -1.39041 0.807729 0
M  V30 1121 O 111.054 -1.37051 1.0753 0
M  V30 1122 C 108.186 -2.61112 2.19165 0
M  V30 1123 H 109.379 -0.927764 2.85189 0
M  V30 1124 H 106.932 -0.447718 1.4975 0
M  V30 1125 H 107.667 -2.97386 1.29352 0
M  V30 1126 H 107.452 -2.51552 3.00772 0
M  V30 1127 H 108.942 -3.35633 2.48476 0
M  V30 1128 N 109.379 -1.50304 -0.473955 0
M  V30 1129 C 110.289 -1.7174 -1.5982 0
M  V30 1130 C 111.305 -0.600457 -1.63311 0
M  V30 1131 O 112.481 -0.878441 -1.81233 0
M  V30 1132 C 109.546 -1.80427 -2.96052 0
M  V30 1133 C 108.607 -3.04148 -3.02972 0
M  V30 1134 C 107.84 -3.12411 -4.32706 0
M  V30 1135 O 108.063 -2.27542 -5.23049 0
M  V30 1136 O 106.997 -4.05113 -4.45159 0
M  V30 1137 H 110.823 -2.67035 -1.44657 0
M  V30 1138 H 108.408 -1.34366 -0.653148 0
M  V30 1139 H 110.29 -1.88338 -3.7697 0
M  V30 1140 H 108.965 -0.883156 -3.11419 0
M  V30 1141 H 107.872 -3.0174 -2.21142 0
M  V30 1142 H 109.205 -3.95829 -2.92541 0
M  V30 1143 N 110.857 0.726932 -1.39834 0
M  V30 1144 C 111.787 1.85405 -1.41941 0
M  V30 1145 C 112.768 1.67751 -0.281728 0
M  V30 1146 O 113.953 1.8795 -0.488717 0
M  V30 1147 C 111.083 3.23243 -1.2701 0
M  V30 1148 C 110.037 3.55549 -2.38262 0
M  V30 1149 C 109.363 4.9241 -2.08415 0
M  V30 1150 C 110.663 3.577 -3.80589 0
M  V30 1151 H 112.357 1.83899 -2.36266 0
M  V30 1152 H 109.903 0.883349 -1.13723 0
M  V30 1153 H 111.856 4.01775 -1.27103 0
M  V30 1154 H 110.58 3.25296 -0.291564 0
M  V30 1155 H 109.239 2.79351 -2.37399 0
M  V30 1156 H 108.887 4.91052 -1.0898 0
M  V30 1157 H 108.587 5.14992 -2.82943 0
M  V30 1158 H 110.111 5.73289 -2.10171 0
M  V30 1159 H 111.525 4.26293 -3.83337 0
M  V30 1160 H 109.922 3.91804 -4.54543 0
M  V30 1161 H 110.992 2.57328 -4.10987 0
M  V30 1162 N 112.336 1.25143 0.95797 0
M  V30 1163 C 113.584 1.09476 1.69881 0
M  V30 1164 C 113.905 -0.365502 1.91544 0
M  V30 1165 O 113.175 -1.25985 1.50015 0
M  V30 1166 H 111.755 0.402128 0.629525 0
M  V30 1167 H 114.417 1.57214 1.15194 0
M  V30 1168 H 113.513 1.60046 2.6794 0
M  V30 1169 N 113.814 -1.1601 1.06675 0
M  V30 1170 C 114.744 -2.22688 0.702307 0
M  V30 1171 C 115.725 -1.67306 -0.307032 0
M  V30 1172 O 116.91 -1.93352 -0.181305 0
M  V30 1173 C 114.04 -3.47178 0.092038 0
M  V30 1174 C 112.994 -4.15477 1.02777 0
M  V30 1175 C 112.32 -5.33963 0.28061 0
M  V30 1176 C 113.62 -4.66019 2.35846 0
M  V30 1177 H 115.314 -2.53429 1.59419 0
M  V30 1178 H 112.86 -1.21813 0.767961 0
M  V30 1179 H 114.813 -4.21037 -0.174814 0
M  V30 1180 H 113.537 -3.15749 -0.834877 0
M  V30 1181 H 112.196 -3.43549 1.27944 0
M  V30 1182 H 111.844 -4.98788 -0.649545 0
M  V30 1183 H 111.544 -5.806 0.904258 0
M  V30 1184 H 113.068 -6.10596 0.021396 0
M  V30 1185 H 114.482 -5.3144 2.15045 0
M  V30 1186 H 112.879 -5.23293 2.93743 0
M  V30 1187 H 113.949 -3.82023 2.98641 0
M  V30 1188 N 115.292 -0.849877 -1.32721 0
M  V30 1189 C 116.569 -0.372405 -1.92022 0
M  V30 1190 C 116.949 1.1435 -1.77447 0
M  V30 1191 O 116.297 1.96296 -1.16962 0
M  V30 1192 C 116.507 -0.831482 -3.3895 0
M  V30 1193 C 117.855 -0.845882 -4.16089 0
M  V30 1194 O 118.879 -0.775806 -3.47649 0
M  V30 1195 O 117.738 -0.943753 -5.38289 0
M  V30 1196 H 114.832 -0.107667 -0.819961 0
M  V30 1197 H 117.378 -0.93646 -1.41522 0
M  V30 1198 H 116.15 -1.87448 -3.4348 0
M  V30 1199 H 115.773 -0.24461 -3.96847 0
M  V30 1200 N 116.77 1.45427 -0.607355 0
M  V30 1201 C 118.01 2.04128 -0.105458 0
M  V30 1202 C 118.374 1.46555 1.24039 0
M  V30 1203 O 119.575 1.96608 1.833 0
M  V30 1204 C 117.846 3.57338 -0.0665324 0
M  V30 1205 S 119.405 4.37201 0.374207 0
M  V30 1206 H 116.223 0.709278 -0.0494575 0
M  V30 1207 H 118.825 1.78139 -0.805404 0
M  V30 1208 H 117.529 3.96752 -1.04957 0
M  V30 1209 H 117.06 3.87902 0.655415 0
M  V30 1210 H 119.075 4.6888 1.62377 0
M  V30 1211 N 118.248 0.346503 1.53744 0
M  V30 1212 C 119.659 -0.136779 1.86198 0
M  V30 1213 C 120.01 -1.49749 1.26766 0
M  V30 1214 O 119.135 -2.08417 0.582355 0
M  V30 1215 C 119.73 -0.254966 3.37839 0
M  V30 1216 C 118.289 -0.682482 3.70161 0
M  V30 1217 C 117.436 0.181981 2.76702 0
M  V30 1218 H 120.387 0.565994 1.48264 0
M  V30 1219 H 120.408 -1.08195 3.64793 0
M  V30 1220 H 119.92 0.735526 3.81066 0
M  V30 1221 H 118.021 -1.68189 3.3248 0
M  V30 1222 H 118.134 -0.470326 4.76786 0
M  V30 1223 H 116.498 -0.34615 2.52337 0
M  V30 1224 H 117.281 1.16966 3.2276 0
M  V30 1225 N 119.726 -1.57421 0.075193 0
M  V30 1226 C 120.974 -1.93236 -0.591974 0
M  V30 1227 C 121.295 -0.956241 -1.69944 0
M  V30 1228 O 120.565 -0.00494792 -1.95899 0
M  V30 1229 H 119.145 -0.713355 -0.22166 0
M  V30 1230 H 121.807 -1.9444 0.133848 0
M  V30 1231 H 120.903 -2.95131 -1.01509 0
M  V30 1232 N 121.204 0.198386 -1.56346 0
M  V30 1233 C 122.62 0.549085 -1.49857 0
M  V30 1234 C 122.82 1.86016 -0.774611 0
M  V30 1235 O 121.876 2.50416 -0.323776 0
M  V30 1236 C 123.189 0.606868 -2.94512 0
M  V30 1237 C 124.737 0.695925 -3.05165 0
M  V30 1238 C 125.212 0.784848 -4.51225 0
M  V30 1239 N 126.703 0.848463 -4.55363 0
M  V30 1240 C 127.438 0.937378 -5.65686 0
M  V30 1241 N 126.934 0.9888 -6.85707 0
M  V30 1242 N 128.727 0.974312 -5.53592 0
M  V30 1243 H 120.878 -0.661655 -2.01831 0
M  V30 1244 H 123.141 -0.235261 -0.918344 0
M  V30 1245 H 122.847 -0.28732 -3.50524 0
M  V30 1246 H 122.721 1.46268 -3.47686 0
M  V30 1247 H 125.108 1.58055 -2.49204 0
M  V30 1248 H 125.189 -0.186022 -2.55123 0
M  V30 1249 H 124.833 -0.0954072 -5.0781 0
M  V30 1250 H 124.763 1.68255 -4.98997 0
M  V30 1251 H 127.254 0.818103 -3.68938 0
M  V30 1252 H 127.567 1.05707 -7.65536 0
M  V30 1253 H 125.912 0.957534 -6.88372 0
M  V30 1254 H 129.103 0.930954 -4.58749 0
M  V30 1255 H 129.276 1.04015 -6.39597 0
M  V30 1256 N 122.682 1.50554 0.465978 0
M  V30 1257 C 123.959 1.5232 1.22712 0
M  V30 1258 C 124.339 0.270807 2.09356 0
M  V30 1259 O 123.687 -0.745541 2.15995 0
M  V30 1260 C 123.897 2.82175 2.05374 0
M  V30 1261 C 125.245 3.33033 2.6339 0
M  V30 1262 O 126.269 2.83531 2.15612 0
M  V30 1263 O 125.128 4.19336 3.50456 0
M  V30 1264 H 122.222 0.611183 0.557122 0
M  V30 1265 H 124.768 1.62847 0.477381 0
M  V30 1266 H 123.54 3.64797 1.41558 0
M  V30 1267 H 123.163 2.74675 2.87471 0
M  V30 1268 N 124.16 -0.719506 1.40217 0
M  V30 1269 C 125.39 -1.50646 1.41384 0
M  V30 1270 C 125.798 -1.89197 0.0107743 0
M  V30 1271 O 125.141 -1.55709 -0.974708 0
M  V30 1272 C 125.203 -2.81405 2.23722 0
M  V30 1273 C 124.867 -2.65199 3.72181 0
M  V30 1274 C 125.864 -2.32717 4.64907 0
M  V30 1275 C 123.549 -2.81586 4.1595 0
M  V30 1276 C 125.543 -2.16827 5.99387 0
M  V30 1277 C 123.23 -2.65313 5.50502 0
M  V30 1278 C 124.228 -2.32981 6.42035 0
M  V30 1279 O 123.916 -2.16827 7.74107 0
M  V30 1280 H 123.648 -0.471606 0.484318 0
M  V30 1281 H 126.202 -0.895456 1.84853 0
M  V30 1282 H 124.432 -3.44823 1.75026 0
M  V30 1283 H 126.121 -3.43102 2.16878 0
M  V30 1284 H 126.887 -2.19694 4.32388 0
M  V30 1285 H 122.766 -3.0574 3.45027 0
M  V30 1286 H 126.31 -1.91513 6.70797 0
M  V30 1287 H 122.207 -2.7792 5.82607 0
M  V30 1288 H 122.975 -2.31778 7.84998 0
M  V30 1289 N 125.638 -1.25649 -0.95132 0
M  V30 1290 C 127.049 -1.09654 -1.51106 0
M  V30 1291 C 127.4 0.326615 -1.93462 0
M  V30 1292 O 126.525 1.21697 -1.78938 0
M  V30 1293 C 127.12 -1.98437 -2.74605 0
M  V30 1294 C 125.679 -1.86618 -3.2688 0
M  V30 1295 C 124.826 -1.9239 -1.99703 0
M  V30 1296 H 127.777 -1.38887 -0.767865 0
M  V30 1297 H 127.798 -1.5263 -3.48546 0
M  V30 1298 H 127.31 -3.02009 -2.43746 0
M  V30 1299 H 125.411 -0.859421 -3.62553 0
M  V30 1300 H 125.524 -2.71607 -3.94673 0
M  V30 1301 H 123.888 -1.36317 -2.15151 0
M  V30 1302 H 124.671 -2.97573 -1.71188 0
M  V30 1303 N 127.117 1.15442 -1.07289 0
M  V30 1304 C 128.065 2.22225 -0.686952 0
M  V30 1305 C 129.059 1.66688 0.30193 0
M  V30 1306 O 130.265 1.79236 0.165712 0
M  V30 1307 H 126.64 0.723783 -0.204064 0
M  V30 1308 H 128.611 2.52056 -1.5972 0
M  V30 1309 C 127.36 3.47556 -0.100149 0
M  V30 1310 H 126.683 3.90612 -0.852211 0
M  V30 1311 H 128.123 4.23794 0.132235 0
M  V30 1312 C 126.582 3.16337 1.159 0
M  V30 1313 O 127.112 3.33074 2.24555 0
M  V30 1314 N 125.318 2.70385 1.06491 0
M  V30 1315 H 124.865 2.56966 0.180668 0
M  V30 1316 H 124.823 2.49871 1.90819 0
M  V30 1317 N 128.595 0.856903 1.32268 0
M  V30 1318 C 129.844 0.457599 1.96441 0
M  V30 1319 C 130.157 -0.992426 1.68553 0
M  V30 1320 O 131.363 -1.49727 2.26482 0
M  V30 1321 C 129.819 0.767358 3.51624 0
M  V30 1322 C 129.427 2.23326 3.88367 0
M  V30 1323 C 131.171 0.435887 4.22256 0
M  V30 1324 C 129.078 2.48613 5.36606 0
M  V30 1325 H 128.008 0.167387 0.735185 0
M  V30 1326 H 130.659 1.048 1.5063 0
M  V30 1327 H 129.041 0.106367 3.95857 0
M  V30 1328 H 130.215 2.93623 3.55137 0
M  V30 1329 H 128.53 2.52948 3.30766 0
M  V30 1330 H 131.127 0.602202 5.31298 0
M  V30 1331 H 131.47 -0.622672 4.11617 0
M  V30 1332 H 132.003 1.05286 3.83614 0
M  V30 1333 H 128.742 3.53101 5.52268 0
M  V30 1334 H 128.262 1.82896 5.71235 0
M  V30 1335 H 129.941 2.32676 6.03714 0
M  V30 1336 N 130.073 -1.45103 0.615059 0
M  V30 1337 C 131.313 -2.04069 0.116282 0
M  V30 1338 C 131.677 -1.4721 -1.2326 0
M  V30 1339 O 132.878 -1.97577 -1.82255 0
M  V30 1340 C 131.149 -3.57298 0.085482 0
M  V30 1341 S 132.708 -4.37394 -0.351015 0
M  V30 1342 H 129.526 -0.709006 0.0532183 0
M  V30 1343 H 132.128 -1.77709 0.81484 0
M  V30 1344 H 130.832 -3.9619 1.0706 0
M  V30 1345 H 130.363 -3.88244 -0.634835 0
M  V30 1346 H 132.378 -4.69734 -1.59889 0
M  V30 1347 N 131.551 -0.354651 -1.53558 0
M  V30 1348 C 132.514 0.484566 -2.24019 0
M  V30 1349 C 133.514 1.01861 -1.24422 0
M  V30 1350 O 134.704 0.906097 -1.4878 0
M  V30 1351 C 131.836 1.67615 -2.96847 0
M  V30 1352 H 133.029 -0.131843 -2.9961 0
M  V30 1353 H 130.582 -0.106165 -1.55939 0
M  V30 1354 H 131.317 2.33095 -2.25471 0
M  V30 1355 H 131.102 1.30029 -3.69912 0
M  V30 1356 H 132.592 2.27114 -3.50441 0
M  V30 1357 N 133.029 1.57378 -0.0835403 0
M  V30 1358 C 134.277 1.93547 0.581718 0
M  V30 1359 C 134.598 0.96524 1.69435 0
M  V30 1360 O 133.868 0.0153369 1.95894 0
M  V30 1361 H 132.448 0.714521 0.217874 0
M  V30 1362 H 135.11 1.94366 -0.144158 0
M  V30 1363 H 134.206 2.95665 0.999423 0
M  V30 1364 N 134.507 -0.190092 1.56449 0
M  V30 1365 C 135.735 -0.925772 1.85033 0
M  V30 1366 C 136.15 -1.76638 0.666658 0
M  V30 1367 O 135.507 -1.78822 -0.364565 0
M  V30 1368 C 135.558 -1.81786 3.12468 0
M  V30 1369 O 135.279 -1.01118 4.26271 0
M  V30 1370 C 136.78 -2.6648 3.54265 0
M  V30 1371 H 134 -0.269872 0.614337 0
M  V30 1372 H 136.544 -0.195837 2.0356 0
M  V30 1373 H 134.699 -2.50136 2.95822 0
M  V30 1374 H 135.113 -1.61956 4.98869 0
M  V30 1375 H 136.587 -3.24722 4.46385 0
M  V30 1376 H 137.064 -3.40434 2.77491 0
M  V30 1377 H 137.67 -2.03493 3.73458 0
M  V30 1378 N 135.985 -1.50799 -0.457987 0
M  V30 1379 C 137.262 -1.52968 -1.21902 0
M  V30 1380 C 137.642 -0.281906 -2.09209 0
M  V30 1381 O 136.99 0.734076 -2.16388 0
M  V30 1382 C 137.2 -2.8326 -2.03875 0
M  V30 1383 C 138.548 -3.34425 -2.6162 0
M  V30 1384 O 139.572 -2.8467 -2.14106 0
M  V30 1385 O 138.431 -4.21188 -3.48228 0
M  V30 1386 H 135.525 -0.614129 -0.553873 0
M  V30 1387 H 138.071 -1.63098 -0.468739 0
M  V30 1388 H 136.843 -3.65543 -1.39621 0
M  V30 1389 H 136.466 -2.76195 -2.8601 0
M  V30 1390 N 137.463 0.71206 -1.40597 0
M  V30 1391 C 138.879 1.02058 -1.22704 0
M  V30 1392 C 139.079 2.01228 -0.104729 0
M  V30 1393 O 138.135 2.4674 0.53624 0
M  V30 1394 C 139.448 1.56094 -2.57012 0
M  V30 1395 C 140.996 1.6806 -2.64054 0
M  V30 1396 C 141.471 2.25501 -3.9864 0
M  V30 1397 N 142.962 2.32882 -4.004 0
M  V30 1398 C 143.697 2.78317 -5.01325 0
M  V30 1399 N 143.193 3.23478 -6.12645 0
M  V30 1400 N 144.986 2.77733 -4.88693 0
M  V30 1401 H 137.137 0.0547896 -2.12329 0
M  V30 1402 H 139.4 0.0869027 -0.944008 0
M  V30 1403 H 139.106 0.906865 -3.39807 0
M  V30 1404 H 138.98 2.54564 -2.78347 0
M  V30 1405 H 141.367 2.32583 -1.81629 0
M  V30 1406 H 141.448 0.681802 -2.46546 0
M  V30 1407 H 141.092 1.61598 -4.81506 0
M  V30 1408 H 141.022 3.26102 -4.13479 0
M  V30 1409 H 143.513 2.00991 -3.20017 0
M  V30 1410 H 143.826 3.56725 -6.85542 0
M  V30 1411 H 142.171 3.21429 -6.16205 0
M  V30 1412 H 145.362 2.4179 -4.00818 0
M  V30 1413 H 145.535 3.12826 -5.67489 0
M  V30 1414 N 138.941 1.26152 0.944643 0
M  V30 1415 C 140.171 1.14094 1.72239 0
M  V30 1416 C 140.579 -0.306931 1.86694 0
M  V30 1417 O 139.922 -1.22222 1.3714 0
M  V30 1418 C 139.984 1.73316 3.14963 0
M  V30 1419 C 139.648 3.2239 3.23904 0
M  V30 1420 C 140.645 4.19252 3.07447 0
M  V30 1421 C 138.33 3.62788 3.47405 0
M  V30 1422 C 140.324 5.54491 3.14353 0
M  V30 1423 C 138.011 4.98162 3.53947 0
M  V30 1424 C 139.009 5.93823 3.37436 0
M  V30 1425 O 138.697 7.26732 3.43679 0
M  V30 1426 H 138.429 0.398292 0.546205 0
M  V30 1427 H 140.983 1.67201 1.19301 0
M  V30 1428 H 139.213 1.14667 3.69308 0
M  V30 1429 H 140.902 1.56214 3.74636 0
M  V30 1430 H 141.668 3.8938 2.8915 0
M  V30 1431 H 137.547 2.88816 3.59313 0
M  V30 1432 H 141.091 6.29137 3.01384 0
M  V30 1433 H 136.988 5.27695 3.71763 0
M  V30 1434 H 137.756 7.3496 3.60245 0
M  V30 1435 N 140.419 -1.14872 1.07899 0
M  V30 1436 C 141.382 -2.17986 0.708161 0
M  V30 1437 C 142.382 -1.58775 -0.25442 0
M  V30 1438 O 143.572 -1.74166 -0.034645 0
M  V30 1439 C 140.704 -3.40871 0.0446929 0
M  V30 1440 H 141.897 -2.52306 1.62116 0
M  V30 1441 H 139.45 -1.2943 0.876218 0
M  V30 1442 H 140.185 -3.12124 -0.880281 0
M  V30 1443 H 139.97 -3.8511 0.737091 0
M  V30 1444 H 141.46 -4.17121 -0.19991 0
M  V30 1445 N 141.898 -0.863906 -1.31812 0
M  V30 1446 C 142.831 -0.259963 -2.26714 0
M  V30 1447 C 143.809 0.607392 -1.50829 0
M  V30 1448 O 144.993 0.562155 -1.79922 0
M  V30 1449 C 142.12 0.632456 -3.32743 0
M  V30 1450 C 141.166 -0.162743 -4.26189 0
M  V30 1451 S 141.999 -1.53726 -5.12961 0
M  V30 1452 C 143.155 -0.650803 -6.22507 0
M  V30 1453 H 143.388 -1.06445 -2.77591 0
M  V30 1454 H 140.921 -0.662071 -1.39485 0
M  V30 1455 H 142.879 1.14167 -3.94305 0
M  V30 1456 H 141.54 1.41083 -2.80632 0
M  V30 1457 H 140.733 0.517366 -5.01338 0
M  V30 1458 H 140.335 -0.60385 -3.69093 0
M  V30 1459 H 142.627 0.141134 -6.77353 0
M  V30 1460 H 143.57 -1.37322 -6.94657 0
M  V30 1461 H 143.978 -0.221041 -5.64067 0
M  V30 1462 N 143.376 1.44774 -0.622745 0
M  V30 1463 C 144.606 2.06187 -0.130532 0
M  V30 1464 C 145.014 1.46547 1.19669 0
M  V30 1465 O 144.357 0.579636 1.74316 0
M  V30 1466 C 144.419 3.59437 0.0674983 0
M  V30 1467 C 144.083 4.41496 -1.18026 0
M  V30 1468 C 145.08 4.75512 -2.102 0
M  V30 1469 C 142.765 4.82007 -1.41333 0
M  V30 1470 C 144.759 5.48912 -3.23998 0
M  V30 1471 C 142.446 5.55157 -2.55429 0
M  V30 1472 C 143.444 5.88528 -3.46589 0
M  V30 1473 O 143.132 6.60191 -4.58697 0
M  V30 1474 H 142.864 0.672045 -0.0730162 0
M  V30 1475 H 145.418 1.86768 -0.854802 0
M  V30 1476 H 143.648 3.77314 0.846825 0
M  V30 1477 H 145.337 4.02642 0.513209 0
M  V30 1478 H 146.103 4.4476 -1.93425 0
M  V30 1479 H 141.982 4.55457 -0.712709 0
M  V30 1480 H 145.526 5.74877 -3.95174 0
M  V30 1481 H 141.423 5.85324 -2.72151 0
M  V30 1482 H 142.191 6.78654 -4.57571 0
M  V30 1483 N 144.854 0.36279 1.53368 0
M  V30 1484 C 145.801 -0.485008 2.25646 0
M  V30 1485 C 146.771 -1.07982 1.2621 0
M  V30 1486 O 147.956 -1.11284 1.54986 0
M  V30 1487 C 145.096 -1.62023 3.04701 0
M  V30 1488 C 144.209 -1.05086 4.19024 0
M  V30 1489 C 143.344 -2.15496 4.85525 0
M  V30 1490 C 142.383 -1.5601 5.91884 0
M  V30 1491 N 141.52 -2.60241 6.52088 0
M  V30 1492 H 146.36 0.137864 2.97681 0
M  V30 1493 H 143.897 0.0798061 1.46883 0
M  V30 1494 H 145.855 -2.28887 3.48807 0
M  V30 1495 H 144.485 -2.2138 2.34927 0
M  V30 1496 H 143.537 -0.27259 3.79422 0
M  V30 1497 H 144.849 -0.575926 4.95464 0
M  V30 1498 H 144.003 -2.90186 5.32801 0
M  V30 1499 H 142.742 -2.66341 4.08551 0
M  V30 1500 H 141.747 -0.798338 5.43973 0
M  V30 1501 H 142.972 -1.05994 6.70777 0
M  V30 1502 H 140.918 -3.10304 5.77968 0
M  V30 1503 H 140.835 -2.17426 7.24059 0
M  V30 1504 H 142.103 -3.34641 7.04014 0
M  V30 1505 N 146.332 -1.57332 0.0918853 0
M  V30 1506 C 147.578 -1.94524 -0.573425 0
M  V30 1507 C 147.911 -0.973578 -1.68033 0
M  V30 1508 O 147.186 -0.00609226 -1.94499 0
M  V30 1509 C 147.469 -3.41858 -1.13161 0
M  V30 1510 C 147.322 -4.4979 -0.0299747 0
M  V30 1511 C 148.641 -3.90435 -2.03098 0
M  V30 1512 H 145.76 -0.70734 -0.206975 0
M  V30 1513 H 148.402 -1.89309 0.161942 0
M  V30 1514 H 146.552 -3.46433 -1.7583 0
M  V30 1515 H 148.224 -4.57327 0.604112 0
M  V30 1516 H 146.467 -4.291 0.636833 0
M  V30 1517 H 147.138 -5.50069 -0.461287 0
M  V30 1518 H 149.614 -3.87992 -1.50338 0
M  V30 1519 H 148.49 -4.94097 -2.39081 0
M  V30 1520 H 148.751 -3.29541 -2.94712 0
M  V30 1521 N 147.81 0.181792 -1.56548 0
M  V30 1522 C 149.058 0.89832 -1.81038 0
M  V30 1523 C 149.379 1.83232 -0.667164 0
M  V30 1524 O 148.649 1.93372 0.313673 0
M  V30 1525 H 147.229 0.33471 -0.667816 0
M  V30 1526 H 149.891 0.184116 -1.94028 0
M  V30 1527 H 148.987 1.4815 -2.74696 0
M  V30 1528 N 149.288 1.51039 0.449983 0
M  V30 1529 C 150.699 1.557 1.03026 0
M  V30 1530 C 151.05 0.372939 1.92623 0
M  V30 1531 O 150.175 -0.511771 2.10261 0
M  V30 1532 C 150.77 2.82171 1.87523 0
M  V30 1533 C 149.329 2.89444 2.40622 0
M  V30 1534 C 148.476 2.50228 1.19504 0
M  V30 1535 H 151.427 1.56999 0.231745 0
M  V30 1536 H 151.448 2.65219 2.72835 0
M  V30 1537 H 150.96 3.68331 1.22286 0
M  V30 1538 H 149.061 2.07685 3.0935 0
M  V30 1539 H 149.174 3.92816 2.74285 0
M  V30 1540 H 147.538 2.03139 1.53644 0
M  V30 1541 H 148.321 3.38719 0.558972 0
M  V30 1542 N 150.766 -0.704594 1.40972 0
M  V30 1543 C 152.012 -1.46675 1.40051 0
M  V30 1544 C 152.345 -1.94199 0.00641102 0
M  V30 1545 O 151.62 -1.68916 -0.964235 0
M  V30 1546 C 151.903 -2.68505 2.39952 0
M  V30 1547 C 151.756 -2.26805 3.88432 0
M  V30 1548 C 153.075 -3.70686 2.37233 0
M  V30 1549 H 150.194 -0.532015 0.510028 0
M  V30 1550 H 152.836 -0.803255 1.72185 0
M  V30 1551 H 150.986 -3.25114 2.1268 0
M  V30 1552 H 152.658 -1.75592 4.26574 0
M  V30 1553 H 150.901 -1.58685 4.03734 0
M  V30 1554 H 151.572 -3.14181 4.53866 0
M  V30 1555 H 154.048 -3.23731 2.61415 0
M  V30 1556 H 152.924 -4.53553 3.09162 0
M  V30 1557 H 153.185 -4.19754 1.38777 0
M  V30 1558 N 152.244 -1.26651 -0.937939 0
M  V30 1559 C 153.174 -1.10993 -2.05433 0
M  V30 1560 C 154.155 -0.0142161 -1.70094 0
M  V30 1561 O 155.34 -0.186837 -1.93299 0
M  V30 1562 C 152.47 -0.745561 -3.39203 0
M  V30 1563 C 151.424 -1.79337 -3.88616 0
M  V30 1564 C 150.75 -1.28324 -5.19073 0
M  V30 1565 C 152.05 -3.19553 -4.13138 0
M  V30 1566 H 153.744 -2.0438 -2.1879 0
M  V30 1567 H 151.29 -0.984041 -1.05131 0
M  V30 1568 H 153.243 -0.622888 -4.16771 0
M  V30 1569 H 151.967 0.22401 -3.25831 0
M  V30 1570 H 150.626 -1.90477 -3.13231 0
M  V30 1571 H 150.274 -0.303414 -5.02084 0
M  V30 1572 H 149.974 -1.98369 -5.53103 0
M  V30 1573 H 151.498 -1.1733 -5.99221 0
M  V30 1574 H 152.912 -3.11471 -4.81309 0
M  V30 1575 H 151.309 -3.87218 -4.58457 0
M  V30 1576 H 152.379 -3.65368 -3.18801 0
M  V30 1577 N 153.722 1.14298 -1.08507 0
M  V30 1578 C 154.947 1.8976 -0.837001 0
M  V30 1579 C 155.372 1.78097 0.605228 0
M  V30 1580 O 154.73 1.12188 1.4242 0
M  V30 1581 C 154.778 3.37685 -1.26495 0
M  V30 1582 O 153.882 4.10281 -0.417514 0
M  V30 1583 H 153.223 0.590365 -0.303917 0
M  V30 1584 H 155.753 1.44672 -1.44676 0
M  V30 1585 H 155.763 3.88501 -1.24625 0
M  V30 1586 H 154.438 3.45492 -2.31534 0
M  V30 1587 H 153.015 3.69536 -0.499722 0
M  V30 1588 N 155.201 0.870884 1.31352 0
M  V30 1589 C 156.447 0.482987 1.96965 0
M  V30 1590 C 156.78 -0.962462 1.68672 0
M  V30 1591 O 156.055 -1.6779 0.98371 0
M  V30 1592 C 156.338 0.741752 3.52378 0
M  V30 1593 C 156.191 2.2368 3.9024 0
M  V30 1594 C 157.51 0.208838 4.39604 0
M  V30 1595 H 154.629 0.176955 0.715441 0
M  V30 1596 H 157.271 1.09229 1.55464 0
M  V30 1597 H 155.421 0.223149 3.87859 0
M  V30 1598 H 157.093 2.82273 3.64856 0
M  V30 1599 H 155.336 2.70901 3.38814 0
M  V30 1600 H 156.007 2.3685 4.98604 0
M  V30 1601 H 158.483 0.652529 4.10952 0
M  V30 1602 H 157.359 0.419336 5.47296 0
M  V30 1603 H 157.62 -0.889275 4.33064 0
M  V30 1604 N 156.679 -1.44442 0.630414 0
M  V30 1605 C 157.904 -2.06927 0.139944 0
M  V30 1606 C 158.329 -1.46795 -1.17613 0
M  V30 1607 O 157.687 -0.569144 -1.72135 0
M  V30 1608 C 157.735 -3.6058 0.0379581 0
M  V30 1609 O 156.839 -3.99937 -1.0062 0
M  V30 1610 H 156.18 -0.658608 0.0844483 0
M  V30 1611 H 158.71 -1.85327 0.866891 0
M  V30 1612 H 158.72 -4.07714 -0.152856 0
M  V30 1613 H 157.395 -4.03728 0.998809 0
M  V30 1614 H 155.972 -3.64436 -0.79001 0
M  V30 1615 N 158.157 -0.370918 -1.53173 0
M  V30 1616 C 159.107 0.489588 -2.22681 0
M  V30 1617 C 160.091 1.04442 -1.22395 0
M  V30 1618 O 161.283 0.973578 -1.47819 0
M  V30 1619 C 158.412 1.626 -3.02351 0
M  V30 1620 C 157.498 1.08379 -4.10018 0
M  V30 1621 N 157.889 0.265004 -5.05105 0
M  V30 1622 C 156.187 1.35809 -4.2482 0
M  V30 1623 C 156.888 -0.0324755 -5.81691 0
M  V30 1624 N 155.864 0.566581 -5.40639 0
M  V30 1625 H 159.666 -0.142729 -2.93553 0
M  V30 1626 H 157.18 -0.179221 -1.61408 0
M  V30 1627 H 159.177 2.2547 -3.50669 0
M  V30 1628 H 157.837 2.26132 -2.33011 0
M  V30 1629 H 158.848 -0.0962352 -5.17811 0
M  V30 1630 H 155.525 1.9958 -3.66707 0
M  V30 1631 H 156.915 -0.69473 -6.68299 0
M  V30 1632 N 159.635 1.57281 -0.100228 0
M  V30 1633 C 160.883 1.94153 0.561157 0
M  V30 1634 C 161.204 0.983157 1.68401 0
M  V30 1635 O 160.474 0.0361132 1.95867 0
M  V30 1636 H 159.054 0.716791 0.210283 0
M  V30 1637 H 161.716 1.94202 -0.164765 0
M  V30 1638 H 160.812 2.96709 0.968008 0
M  V30 1639 N 161.113 -0.173488 1.56642 0
M  V30 1640 C 162.046 -1.24353 1.91342 0
M  V30 1641 C 163.024 -1.4289 0.775965 0
M  V30 1642 O 164.208 -1.57932 1.02907 0
M  V30 1643 C 161.335 -2.60683 2.16245 0
M  V30 1644 C 160.381 -2.58894 3.38934 0
M  V30 1645 S 161.214 -2.0819 4.93373 0
M  V30 1646 C 162.37 -3.46302 5.21369 0
M  V30 1647 H 162.603 -0.947345 2.81803 0
M  V30 1648 H 160.136 -0.377958 1.49703 0
M  V30 1649 H 162.094 -3.39149 2.31275 0
M  V30 1650 H 160.755 -2.87502 1.26496 0
M  V30 1651 H 159.948 -3.59188 3.53553 0
M  V30 1652 H 159.55 -1.88522 3.2301 0
M  V30 1653 H 161.842 -4.42287 5.13214 0
M  V30 1654 H 162.785 -3.3656 6.23003 0
M  V30 1655 H 163.193 -3.42214 4.48943 0
M  V30 1656 N 162.591 -1.51276 -0.441967 0
M  V30 1657 C 163.839 -1.63392 -1.18943 0
M  V30 1658 C 164.16 -0.350159 -1.9183 0
M  V30 1659 O 163.43 0.633784 -1.85364 0
M  V30 1660 H 162.01 -0.602164 -0.442049 0
M  V30 1661 H 164.672 -1.88186 -0.507165 0
M  V30 1662 H 163.768 -2.45934 -1.92154 0
M  V30 1663 N 164.069 0.697108 -1.41344 0
M  V30 1664 C 165.318 1.45279 -1.39918 0
M  V30 1665 C 165.631 1.95597 -0.0109624 0
M  V30 1666 O 166.837 2.71208 0.125919 0
M  V30 1667 C 165.293 2.62695 -2.46007 0
M  V30 1668 C 164.901 2.19169 -3.90729 0
M  V30 1669 C 166.645 3.40336 -2.53715 0
M  V30 1670 C 164.552 3.33535 -4.88373 0
M  V30 1671 H 163.482 0.545692 -0.520323 0
M  V30 1672 H 166.133 0.756929 -1.67161 0
M  V30 1673 H 164.515 3.34541 -2.11892 0
M  V30 1674 H 165.689 1.54623 -4.34083 0
M  V30 1675 H 164.004 1.54525 -3.86666 0
M  V30 1676 H 166.601 4.2547 -3.2385 0
M  V30 1677 H 166.944 3.85418 -1.5735 0
M  V30 1678 H 167.477 2.75546 -2.86913 0
M  V30 1679 H 164.216 2.93468 -5.86137 0
M  V30 1680 H 163.736 3.96936 -4.49668 0
M  V30 1681 H 165.415 3.99335 -5.09059 0
M  V30 1682 N 165.547 1.27147 0.931209 0
M  V30 1683 C 166.958 1.12044 1.49342 0
M  V30 1684 C 167.309 -0.295795 1.93957 0
M  V30 1685 O 166.434 -1.18835 1.80852 0
M  V30 1686 C 167.029 2.02781 2.71414 0
M  V30 1687 C 165.588 1.91794 3.2387 0
M  V30 1688 C 164.735 1.95543 1.96617 0
M  V30 1689 H 167.686 1.40091 0.745672 0
M  V30 1690 H 167.707 1.58156 3.46074 0
M  V30 1691 H 167.219 3.05848 2.38911 0
M  V30 1692 H 165.32 0.916992 3.6114 0
M  V30 1693 H 165.433 2.77852 3.90302 0
M  V30 1694 H 163.797 1.39722 2.12955 0
M  V30 1695 H 164.58 3.00259 1.66432 0
M  V30 1696 N 167.025 -1.13721 1.09112 0
M  V30 1697 C 168.25 -1.89314 0.847053 0
M  V30 1698 C 168.675 -1.78416 -0.595774 0
M  V30 1699 O 168.033 -1.12942 -1.41823 0
M  V30 1700 C 168.081 -3.3701 1.28284 0
M  V30 1701 O 167.185 -4.10054 0.439267 0
M  V30 1702 H 166.526 -0.588745 0.307044 0
M  V30 1703 H 169.056 -1.43902 1.45442 0
M  V30 1704 H 169.066 -3.87834 1.26683 0
M  V30 1705 H 167.741 -3.4426 2.33363 0
M  V30 1706 H 166.318 -3.69266 0.519312 0
M  V30 1707 N 168.503 -0.877838 -1.30888 0
M  V30 1708 C 169.752 -0.488793 -1.95688 0
M  V30 1709 C 170.065 0.965485 -1.70111 0
M  V30 1710 O 171.271 1.46104 -2.28836 0
M  V30 1711 C 169.727 -0.823201 -3.50359 0
M  V30 1712 C 169.335 -2.29477 -3.84765 0
M  V30 1713 C 171.079 -0.503009 -4.21509 0
M  V30 1714 C 168.986 -2.57118 -5.32583 0
M  V30 1715 H 167.916 -0.179062 -0.732429 0
M  V30 1716 H 170.567 -1.07183 -1.48943 0
M  V30 1717 H 168.949 -0.169331 -3.95638 0
M  V30 1718 H 170.123 -2.99236 -3.5042 0
M  V30 1719 H 168.438 -2.58178 -3.267 0
M  V30 1720 H 171.035 -0.68665 -5.30273 0
M  V30 1721 H 171.378 0.557109 -4.12555 0
M  V30 1722 H 171.911 -1.11376 -3.8189 0
M  V30 1723 H 168.65 -3.61843 -5.4658 0
M  V30 1724 H 168.17 -1.91961 -5.68253 0
M  V30 1725 H 169.849 -2.42251 -5.99936 0
M  V30 1726 N 169.982 1.44106 -0.638065 0
M  V30 1727 C 171.207 2.0685 -0.150916 0
M  V30 1728 C 171.632 1.47417 1.16833 0
M  V30 1729 O 170.99 0.578264 1.71831 0
M  V30 1730 C 171.038 3.60555 -0.05708 0
M  V30 1731 O 170.142 4.00465 0.984972 0
M  V30 1732 H 169.483 0.658151 -0.0879399 0
M  V30 1733 H 172.013 1.84865 -0.876707 0
M  V30 1734 H 172.023 4.07789 0.131232 0
M  V30 1735 H 170.698 4.03193 -1.02021 0
M  V30 1736 H 169.275 3.64849 0.770672 0
M  V30 1737 N 171.46 0.379036 1.52974 0
M  V30 1738 C 172.709 -0.207612 2.00629 0
M  V30 1739 C 173.022 -1.48758 1.27006 0
M  V30 1740 O 174.228 -2.15365 1.65318 0
M  V30 1741 C 172.684 -0.42053 3.57435 0
M  V30 1742 C 172.292 0.845587 4.39948 0
M  V30 1743 C 174.036 -0.964102 4.13407 0
M  V30 1744 C 171.943 0.601513 5.88333 0
M  V30 1745 H 170.873 -0.0813591 0.749598 0
M  V30 1746 H 173.524 0.499853 1.76561 0
M  V30 1747 H 171.906 -1.18959 3.7771 0
M  V30 1748 H 173.08 1.61848 4.31442 0
M  V30 1749 H 171.395 1.31336 3.95145 0
M  V30 1750 H 173.992 -1.16225 5.21916 0
M  V30 1751 H 174.335 -1.93019 3.68849 0
M  V30 1752 H 174.868 -0.25487 3.96983 0
M  V30 1753 H 171.607 1.53831 6.37194 0
M  V30 1754 H 171.127 -0.132628 5.99653 0
M  V30 1755 H 172.806 0.232134 6.46583 0
M  V30 1756 N 172.938 -1.57226 0.108567 0
M  V30 1757 C 173.871 -2.10447 -0.882464 0
M  V30 1758 C 174.849 -1.01829 -1.26766 0
M  V30 1759 O 176.033 -1.29415 -1.37054 0
M  V30 1760 C 173.16 -2.59258 -2.17952 0
M  V30 1761 C 172.206 -3.79662 -1.94318 0
M  V30 1762 S 173.039 -5.22586 -1.16892 0
M  V30 1763 C 174.195 -5.74758 -2.47799 0
M  V30 1764 H 174.428 -2.94178 -0.429745 0
M  V30 1765 H 171.961 -1.54043 -0.105 0
M  V30 1766 H 173.919 -2.88036 -2.92482 0
M  V30 1767 H 172.58 -1.75728 -2.60343 0
M  V30 1768 H 171.773 -4.11928 -2.90399 0
M  V30 1769 H 171.375 -3.51446 -1.27913 0
M  V30 1770 H 173.667 -5.83846 -3.43701 0
M  V30 1771 H 174.61 -6.73027 -2.20093 0
M  V30 1772 H 175.018 -5.02763 -2.56689 0
M  V30 1773 N 174.416 0.165178 -1.56732 0
M  V30 1774 C 175.346 1.20651 -1.99914 0
M  V30 1775 C 176.327 1.45827 -0.875705 0
M  V30 1776 O 177.512 1.57057 -1.14223 0
M  V30 1777 C 174.642 2.54401 -2.36427 0
M  V30 1778 C 173.596 2.43782 -3.51787 0
M  V30 1779 C 172.922 3.82078 -3.7406 0
M  V30 1780 C 174.222 1.93732 -4.85041 0
M  V30 1781 H 175.916 0.847534 -2.87154 0
M  V30 1782 H 173.462 0.40625 -1.38151 0
M  V30 1783 H 175.415 3.27458 -2.65234 0
M  V30 1784 H 174.139 2.92098 -1.46103 0
M  V30 1785 H 172.798 1.73178 -3.23117 0
M  V30 1786 H 172.446 4.17179 -2.81017 0
M  V30 1787 H 172.146 3.7584 -4.51684 0
M  V30 1788 H 173.67 4.56712 -4.05274 0
M  V30 1789 H 175.084 2.56569 -5.12684 0
M  V30 1790 H 173.481 1.98428 -5.66345 0
M  V30 1791 H 174.551 0.891962 -4.76626 0
M  V30 1792 N 175.894 1.51508 0.433938 0
M  V30 1793 C 176.844 1.69451 1.52546 0
M  V30 1794 C 177.828 0.548474 1.51263 0
M  V30 1795 O 179.02 0.804529 1.57659 0
M  V30 1796 C 176.149 1.82604 2.90707 0
M  V30 1797 C 175.235 3.03002 2.96733 0
M  V30 1798 N 175.626 4.26121 2.72496 0
M  V30 1799 C 173.924 3.02327 3.27894 0
M  V30 1800 C 174.625 5.07407 2.84452 0
M  V30 1801 N 173.601 4.42126 3.16269 0
M  V30 1802 H 177.403 2.62305 1.32564 0
M  V30 1803 H 174.917 1.49202 0.641297 0
M  V30 1804 H 176.914 1.93569 3.69238 0
M  V30 1805 H 175.574 0.909339 3.11707 0
M  V30 1806 H 176.585 4.55009 2.4736 0
M  V30 1807 H 173.262 2.20301 3.54646 0
M  V30 1808 H 174.652 6.15422 2.69639 0
M  V30 1809 N 177.372 -0.689602 1.41712 0
M  V30 1810 C 178.282 -1.83314 1.46401 0
M  V30 1811 C 179.298 -1.7036 0.35405 0
M  V30 1812 O 180.474 -1.92171 0.602692 0
M  V30 1813 C 177.539 -3.19344 1.34982 0
M  V30 1814 C 176.6 -3.44363 2.56344 0
M  V30 1815 C 175.833 -4.73904 2.45461 0
M  V30 1816 O 176.056 -5.508 1.48241 0
M  V30 1817 O 174.99 -4.99839 3.35328 0
M  V30 1818 H 178.816 -1.82314 2.42889 0
M  V30 1819 H 176.401 -0.843438 1.23315 0
M  V30 1820 H 178.283 -4.00547 1.3092 0
M  V30 1821 H 176.958 -3.21014 0.41612 0
M  V30 1822 H 175.865 -2.63067 2.65982 0
M  V30 1823 H 177.198 -3.47512 3.48563 0
M  V30 1824 N 178.85 -1.27639 -0.924453 0
M  V30 1825 C 179.78 -1.13166 -2.04244 0
M  V30 1826 C 180.761 -0.032256 -1.70069 0
M  V30 1827 O 181.946 -0.207328 -1.9309 0
M  V30 1828 C 179.076 -0.781496 -3.38393 0
M  V30 1829 C 178.03 -1.83449 -3.86692 0
M  V30 1830 C 177.356 -1.33822 -5.17683 0
M  V30 1831 C 178.656 -3.23917 -4.09726 0
M  V30 1832 H 180.35 -2.06689 -2.1661 0
M  V30 1833 H 177.896 -0.995136 -1.04082 0
M  V30 1834 H 179.849 -0.667057 -4.16087 0
M  V30 1835 H 178.573 0.189439 -3.2605 0
M  V30 1836 H 177.232 -1.93789 -3.11193 0
M  V30 1837 H 176.88 -0.35665 -5.01734 0
M  V30 1838 H 176.58 -2.04224 -5.50968 0
M  V30 1839 H 178.104 -1.23679 -5.97943 0
M  V30 1840 H 179.518 -3.16559 -4.77978 0
M  V30 1841 H 177.915 -3.92059 -4.54324 0
M  V30 1842 H 178.985 -3.68729 -3.14908 0
M  V30 1843 N 180.328 1.1314 -1.09713 0
M  V30 1844 C 181.577 1.83838 -0.829851 0
M  V30 1845 C 181.89 1.84599 0.646728 0
M  V30 1846 O 183.096 2.51218 1.02965 0
M  V30 1847 C 181.552 3.30069 -1.43466 0
M  V30 1848 C 181.16 3.37688 -2.94399 0
M  V30 1849 C 182.904 4.05788 -1.24645 0
M  V30 1850 C 180.811 4.78209 -3.47952 0
M  V30 1851 H 179.741 0.68877 -0.306777 0
M  V30 1852 H 182.392 1.27448 -1.3202 0
M  V30 1853 H 180.774 3.8628 -0.871996 0
M  V30 1854 H 181.948 2.91456 -3.56918 0
M  V30 1855 H 180.263 2.75436 -3.12289 0
M  V30 1856 H 182.86 5.09535 -1.62107 0
M  V30 1857 H 183.203 4.15878 -0.187357 0
M  V30 1858 H 183.736 3.55915 -1.77678 0
M  V30 1859 H 180.475 4.73311 -4.53495 0
M  V30 1860 H 179.995 5.24924 -2.90198 0
M  V30 1861 H 181.674 5.47133 -3.45332 0
M  V30 1862 N 181.806 0.884767 1.30421 0
M  V30 1863 C 182.753 0.349642 2.28136 0
M  V30 1864 C 183.723 -0.560061 1.56373 0
M  V30 1865 O 184.908 -0.488524 1.8444 0
M  V30 1866 C 182.048 -0.42999 3.42411 0
M  V30 1867 C 181.161 0.508907 4.28992 0
M  V30 1868 C 180.296 -0.286301 5.30428 0
M  V30 1869 C 179.335 0.648079 6.08659 0
M  V30 1870 N 178.472 -0.111792 7.02011 0
M  V30 1871 H 183.312 1.18807 2.73293 0
M  V30 1872 H 180.849 0.597231 1.3443 0
M  V30 1873 H 182.807 -0.897923 4.07423 0
M  V30 1874 H 181.437 -1.23299 2.98324 0
M  V30 1875 H 180.489 1.09533 3.64289 0
M  V30 1876 H 181.801 1.22475 4.8353 0
M  V30 1877 H 180.955 -0.816098 6.01186 0
M  V30 1878 H 179.694 -1.03536 4.76583 0
M  V30 1879 H 178.699 1.18951 5.36778 0
M  V30 1880 H 179.924 1.39623 6.64592 0
M  V30 1881 H 177.87 -0.843395 6.50556 0
M  V30 1882 H 177.787 0.544429 7.54037 0
M  V30 1883 H 179.055 -0.622339 7.77012 0
M  V30 1884 N 183.284 -1.43765 0.645699 0
M  V30 1885 C 184.214 -2.33471 -0.0370477 0
M  V30 1886 C 185.195 -1.49042 -0.819779 0
M  V30 1887 O 186.38 -1.77726 -0.782758 0
M  V30 1888 C 183.51 -3.32311 -1.0093 0
M  V30 1889 C 182.464 -4.2667 -0.337201 0
M  V30 1890 C 181.79 -5.1549 -1.42037 0
M  V30 1891 C 183.09 -5.16657 0.765706 0
M  V30 1892 H 184.784 -2.90809 0.712069 0
M  V30 1893 H 182.33 -1.39834 0.343876 0
M  V30 1894 H 184.283 -3.9396 -1.49578 0
M  V30 1895 H 183.007 -2.73213 -1.78948 0
M  V30 1896 H 181.666 -3.66374 0.128771 0
M  V30 1897 H 181.314 -4.52735 -2.1918 0
M  V30 1898 H 181.014 -5.79438 -0.975966 0
M  V30 1899 H 182.538 -5.80012 -1.90838 0
M  V30 1900 H 183.952 -5.72158 0.361702 0
M  V30 1901 H 182.349 -5.89286 1.13413 0
M  V30 1902 H 183.419 -4.56796 1.62683 0
M  V30 1903 N 184.763 -0.387143 -1.52771 0
M  V30 1904 C 185.693 0.440551 -2.29306 0
M  V30 1905 C 186.674 1.06535 -1.32606 0
M  V30 1906 O 187.859 1.07853 -1.61497 0
M  V30 1907 C 184.989 1.56919 -3.09829 0
M  V30 1908 C 183.943 1.07054 -4.14395 0
M  V30 1909 C 183.269 2.29109 -4.83129 0
M  V30 1910 C 184.569 0.140015 -5.22112 0
M  V30 1911 H 186.263 -0.198026 -2.98744 0
M  V30 1912 H 183.809 -0.09668 -1.43675 0
M  V30 1913 H 185.762 2.15503 -3.62128 0
M  V30 1914 H 184.486 2.23532 -2.3812 0
M  V30 1915 H 183.145 0.507247 -3.63074 0
M  V30 1916 H 182.793 2.94227 -4.0797 0
M  V30 1917 H 182.493 1.96406 -5.53804 0
M  V30 1918 H 184.017 2.88339 -5.38231 0
M  V30 1919 H 185.431 0.633978 -5.69784 0
M  V30 1920 H 183.828 -0.0971485 -6.00021 0
M  V30 1921 H 184.898 -0.811711 -4.78058 0
M  V30 1922 N 186.241 1.57166 -0.116904 0
M  V30 1923 C 187.471 1.99184 0.548586 0
M  V30 1924 C 187.879 0.995436 1.60897 0
M  V30 1925 O 187.222 -0.0201293 1.83689 0
M  V30 1926 C 187.284 3.37611 1.23526 0
M  V30 1927 C 186.948 4.55857 0.323077 0
M  V30 1928 C 187.945 5.18056 -0.437476 0
M  V30 1929 C 185.63 5.01751 0.234761 0
M  V30 1930 C 187.624 6.24536 -1.2741 0
M  V30 1931 C 185.311 6.08093 -0.605496 0
M  V30 1932 C 186.309 6.69352 -1.35856 0
M  V30 1933 O 185.997 7.7364 -2.18487 0
M  V30 1934 H 185.729 0.659148 0.149999 0
M  V30 1935 H 188.283 2.0443 -0.199428 0
M  V30 1936 H 186.513 3.29113 2.0303 0
M  V30 1937 H 188.202 3.63932 1.79745 0
M  V30 1938 H 188.968 4.83516 -0.379105 0
M  V30 1939 H 184.847 4.53817 0.810601 0
M  V30 1940 H 188.391 6.72281 -1.86237 0
M  V30 1941 H 184.288 6.42063 -0.665268 0
M  V30 1942 H 185.056 7.90727 -2.11406 0
M  V30 1943 N 187.719 -0.156864 1.56817 0
M  V30 1944 C 188.949 -0.885031 1.86684 0
M  V30 1945 C 189.357 -1.75696 0.701954 0
M  V30 1946 O 188.7 -1.80569 -0.337732 0
M  V30 1947 C 188.762 -1.80092 3.11138 0
M  V30 1948 C 188.426 -1.10714 4.43386 0
M  V30 1949 C 189.423 -0.465714 5.1781 0
M  V30 1950 C 187.108 -1.09959 4.90117 0
M  V30 1951 C 189.102 0.174002 6.37162 0
M  V30 1952 C 186.789 -0.456055 6.09396 0
M  V30 1953 C 187.787 0.179622 6.82764 0
M  V30 1954 O 187.475 0.812975 7.99779 0
M  V30 1955 H 187.207 -0.261813 0.623242 0
M  V30 1956 H 189.761 -0.157383 2.04796 0
M  V30 1957 H 187.991 -2.56926 2.89009 0
M  V30 1958 H 189.68 -2.40018 3.27332 0
M  V30 1959 H 190.446 -0.463427 4.82781 0
M  V30 1960 H 186.325 -1.58378 4.3294 0
M  V30 1961 H 189.869 0.670765 6.94368 0
M  V30 1962 H 185.766 -0.455975 6.43888 0
M  V30 1963 H 186.534 0.71366 8.15383 0
M  V30 1964 N 189.197 -1.51736 -0.425897 0
M  V30 1965 C 190.16 -1.73271 -1.50032 0
M  V30 1966 C 191.16 -0.602639 -1.4908 0
M  V30 1967 O 192.35 -0.87033 -1.509 0
M  V30 1968 C 189.482 -1.79969 -2.89523 0
M  V30 1969 H 190.675 -2.69172 -1.32237 0
M  V30 1970 H 188.228 -1.41899 -0.65532 0
M  V30 1971 H 188.963 -0.859241 -3.1271 0
M  V30 1972 H 188.748 -2.62109 -2.91619 0
M  V30 1973 H 190.238 -1.9843 -3.67444 0
M  V30 1974 N 190.675 0.682077 -1.42076 0
M  V30 1975 C 192.091 0.994324 -1.24841 0
M  V30 1976 C 192.291 2.0096 -0.147389 0
M  V30 1977 O 191.347 2.47822 0.483782 0
M  V30 1978 C 192.66 1.50607 -2.60265 0
M  V30 1979 C 194.208 1.62421 -2.6756 0
M  V30 1980 C 194.683 2.16994 -4.03333 0
M  V30 1981 N 196.174 2.24337 -4.0525 0
M  V30 1982 C 196.909 2.67621 -5.07116 0
M  V30 1983 N 196.405 3.1041 -6.19368 0
M  V30 1984 N 198.198 2.67305 -4.94474 0
M  V30 1985 H 190.349 0.00973908 -2.12398 0
M  V30 1986 H 192.612 0.0668593 -0.945639 0
M  V30 1987 H 192.318 0.834583 -3.41654 0
M  V30 1988 H 192.192 2.48602 -2.83684 0
M  V30 1989 H 194.579 2.28678 -1.86521 0
M  V30 1990 H 194.66 0.629352 -2.47937 0
M  V30 1991 H 194.304 1.51349 -4.84826 0
M  V30 1992 H 194.234 3.17258 -4.20304 0
M  V30 1993 H 196.725 1.94158 -3.24209 0
M  V30 1994 H 197.038 3.42103 -6.92954 0
M  V30 1995 H 195.383 3.08286 -6.22884 0
M  V30 1996 H 198.574 2.33233 -4.05857 0
M  V30 1997 H 198.747 3.00718 -5.73997 0
M  V30 1998 N 192.153 1.28127 0.917671 0
M  V30 1999 C 193.393 1.163 1.68088 0
M  V30 2000 C 193.757 -0.284515 1.8988 0
M  V30 2001 O 194.958 -0.525413 2.63615 0
M  V30 2002 C 193.229 1.93546 3.00457 0
M  V30 2003 S 194.788 1.98048 3.91564 0
M  V30 2004 H 191.606 0.415005 0.577315 0
M  V30 2005 H 194.208 1.62173 1.09179 0
M  V30 2006 H 192.912 2.97888 2.82295 0
M  V30 2007 H 192.443 1.48207 3.64415 0
M  V30 2008 H 194.458 1.08415 4.84211 0
M  V30 2009 N 193.631 -1.12557 1.10312 0
M  V30 2010 C 194.856 -1.88405 0.867085 0
M  V30 2011 C 195.281 -1.79038 -0.576817 0
M  V30 2012 O 194.639 -1.14439 -1.40618 0
M  V30 2013 C 194.687 -3.3563 1.31851 0
M  V30 2014 O 193.791 -4.09565 0.482734 0
M  V30 2015 H 193.132 -0.585455 0.313271 0
M  V30 2016 H 195.662 -1.42352 1.4696 0
M  V30 2017 H 195.672 -3.86469 1.3079 0
M  V30 2018 H 194.347 -3.41765 2.37001 0
M  V30 2019 H 192.924 -3.68695 0.558448 0
M  V30 2020 N 195.109 -0.891671 -1.2995 0
M  V30 2021 C 196.057 -0.353066 -2.29905 0
M  V30 2022 C 197.051 0.543509 -1.60444 0
M  V30 2023 O 198.257 0.4272 -1.74857 0
M  V30 2024 H 194.632 -0.095531 -0.745907 0
M  V30 2025 H 196.603 -1.20961 -2.72784 0
M  V30 2026 C 195.352 0.411475 -3.45257 0
M  V30 2027 H 194.675 -0.269182 -3.98893 0
M  V30 2028 H 196.115 0.753328 -4.17254 0
M  V30 2029 C 194.574 1.6111 -2.9588 0
M  V30 2030 O 195.104 2.71045 -2.96475 0
M  V30 2031 N 193.31 1.45054 -2.51809 0
M  V30 2032 H 192.857 0.556175 -2.51524 0
M  V30 2033 H 192.815 2.25453 -2.1913 0
M  V30 2034 N 196.587 1.43421 -0.653314 0
M  V30 2035 C 197.833 2.02111 -0.166992 0
M  V30 2036 C 198.166 1.51423 1.21592 0
M  V30 2037 O 197.441 0.707389 1.8118 0
M  V30 2038 C 197.724 3.5966 -0.177948 0
M  V30 2039 C 197.577 4.20579 -1.59478 0
M  V30 2040 C 198.896 4.37413 0.4856 0
M  V30 2041 H 196.015 0.734374 -0.0621557 0
M  V30 2042 H 198.657 1.70717 -0.834016 0
M  V30 2043 H 196.807 3.86537 0.390032 0
M  V30 2044 H 198.479 4.04732 -2.21336 0
M  V30 2045 H 196.722 3.77226 -2.14204 0
M  V30 2046 H 197.393 5.29665 -1.5543 0
M  V30 2047 H 199.869 4.161 0.00234528 0
M  V30 2048 H 198.745 5.47075 0.447207 0
M  V30 2049 H 199.006 4.13672 1.55974 0
M  V30 2050 N 198.065 0.39524 1.52563 0
M  V30 2051 C 199.293 -0.184943 2.06072 0
M  V30 2052 C 199.708 -1.40021 1.26647 0
M  V30 2053 O 199.065 -1.79767 0.314672 0
M  V30 2054 C 199.116 -0.549179 3.57304 0
M  V30 2055 O 198.837 0.617813 4.33722 0
M  V30 2056 C 200.338 -1.18459 4.2718 0
M  V30 2057 H 197.558 -0.0265025 0.670476 0
M  V30 2058 H 200.102 0.562184 1.96621 0
M  V30 2059 H 198.257 -1.2462 3.66809 0
M  V30 2060 H 198.671 0.317091 5.23541 0
M  V30 2061 H 200.145 -1.38976 5.34219 0
M  V30 2062 H 200.622 -2.15368 3.82771 0
M  V30 2063 H 201.228 -0.528163 4.22008 0
M  V30 2064 N 199.544 -1.57102 0.125237 0
M  V30 2065 C 200.793 -1.94582 -0.531095 0
M  V30 2066 C 201.106 -1.01126 -1.6743 0
M  V30 2067 O 202.312 -1.28097 -2.39381 0
M  V30 2068 C 200.768 -3.45839 -0.996164 0
M  V30 2069 C 200.376 -4.47842 0.118926 0
M  V30 2070 C 202.12 -3.92227 -1.62352 0
M  V30 2071 C 200.027 -5.90284 -0.363192 0
M  V30 2072 H 198.957 -0.726391 -0.20217 0
M  V30 2073 H 201.608 -1.82339 0.206092 0
M  V30 2074 H 199.99 -3.53338 -1.78796 0
M  V30 2075 H 201.164 -4.52018 0.895358 0
M  V30 2076 H 199.479 -4.11243 0.653324 0
M  V30 2077 H 202.076 -4.96069 -1.99548 0
M  V30 2078 H 202.419 -3.32552 -2.50429 0
M  V30 2079 H 202.952 -3.87554 -0.897019 0
M  V30 2080 H 199.691 -6.53728 0.481679 0
M  V30 2081 H 199.211 -5.89515 -1.10597 0
M  V30 2082 H 200.89 -6.41752 -0.822377 0
M  V30 2083 N 201.022 0.148545 -1.56898 0
M  V30 2084 C 202.271 0.85984 -1.82454 0
M  V30 2085 C 202.584 1.82406 -0.706229 0
M  V30 2086 O 203.79 2.57938 -0.847349 0
M  V30 2087 C 202.246 1.57967 -3.2338 0
M  V30 2088 C 201.854 0.65794 -4.43142 0
M  V30 2089 C 203.598 2.27784 -3.58211 0
M  V30 2090 C 201.505 1.3793 -5.75091 0
M  V30 2091 H 200.435 0.324834 -0.68044 0
M  V30 2092 H 203.086 0.112588 -1.83154 0
M  V30 2093 H 201.468 2.37249 -3.17063 0
M  V30 2094 H 202.642 -0.0995497 -4.60692 0
M  V30 2095 H 200.957 0.0682643 -4.16344 0
M  V30 2096 H 203.554 2.8239 -4.54048 0
M  V30 2097 H 203.897 3.04204 -2.84193 0
M  V30 2098 H 204.43 1.55421 -3.66182 0
M  V30 2099 H 201.169 0.656982 -6.52199 0
M  V30 2100 H 200.689 2.10954 -5.61479 0
M  V30 2101 H 202.368 1.92063 -6.17835 0
M  V30 2102 N 202.5 1.5196 0.417844 0
M  V30 2103 C 203.916 1.40569 0.755816 0
M  V30 2104 C 204.116 0.503316 1.95113 0
M  V30 2105 O 203.172 -0.0341925 2.52477 0
M  V30 2106 C 204.485 2.82947 1.01791 0
M  V30 2107 C 206.033 2.92231 1.12116 0
M  V30 2108 C 206.508 4.35559 1.41608 0
M  V30 2109 N 207.999 4.38753 1.48491 0
M  V30 2110 C 208.734 5.46705 1.7292 0
M  V30 2111 N 208.23 6.64788 1.95011 0
M  V30 2112 N 210.023 5.34209 1.74863 0
M  V30 2113 H 202.174 2.09168 -0.369098 0
M  V30 2114 H 204.437 0.942409 -0.102809 0
M  V30 2115 H 204.143 3.5106 0.212081 0
M  V30 2116 H 204.017 3.23462 1.94042 0
M  V30 2117 H 206.404 2.24304 1.9176 0
M  V30 2118 H 206.485 2.55185 0.177225 0
M  V30 2119 H 206.129 5.04042 0.624848 0
M  V30 2120 H 206.059 4.70133 2.37239 0
M  V30 2121 H 208.55 3.5363 1.33244 0
M  V30 2122 H 208.863 7.42845 2.13076 0
M  V30 2123 H 207.208 6.67869 1.92293 0
M  V30 2124 H 210.399 4.40937 1.57137 0
M  V30 2125 H 210.572 6.18415 1.93563 0
M  V30 2126 N 203.978 -0.674533 1.42435 0
M  V30 2127 C 205.227 -1.43034 1.42212 0
M  V30 2128 C 205.54 -1.95555 0.0420788 0
M  V30 2129 O 206.746 -2.71374 -0.0827558 0
M  V30 2130 C 205.202 -2.58748 2.50155 0
M  V30 2131 C 204.81 -2.12925 3.94166 0
M  V30 2132 C 206.554 -3.36257 2.59098 0
M  V30 2133 C 204.461 -3.25723 4.93618 0
M  V30 2134 H 203.391 -0.537345 0.528939 0
M  V30 2135 H 206.042 -0.73024 1.68344 0
M  V30 2136 H 204.424 -3.31128 2.17188 0
M  V30 2137 H 205.598 -1.47697 4.36488 0
M  V30 2138 H 203.913 -1.48354 3.89076 0
M  V30 2139 H 206.51 -4.20264 3.30578 0
M  V30 2140 H 206.853 -3.82866 1.63461 0
M  V30 2141 H 207.386 -2.70947 2.9126 0
M  V30 2142 H 204.125 -2.84105 5.90732 0
M  V30 2143 H 203.645 -3.89732 4.55926 0
M  V30 2144 H 205.324 -3.91186 5.15347 0
M  V30 2145 N 205.456 -1.28612 -0.910864 0
M  V30 2146 C 206.704 -1.15705 -1.65701 0
M  V30 2147 C 207.025 0.29416 -1.92769 0
M  V30 2148 O 206.295 1.20331 -1.54588 0
M  V30 2149 H 204.875 -0.425216 -0.614167 0
M  V30 2150 H 207.537 -1.61381 -1.0928 0
M  V30 2151 H 206.633 -1.6988 -2.61815 0
M  V30 2152 N 206.934 1.1197 -1.10907 0
M  V30 2153 C 208.162 1.87402 -0.876824 0
M  V30 2154 C 208.577 1.79894 0.573025 0
M  V30 2155 O 207.934 1.17629 1.39534 0
M  V30 2156 C 207.985 3.36428 -1.32282 0
M  V30 2157 O 207.706 3.43765 -2.71582 0
M  V30 2158 C 209.207 4.28783 -1.12518 0
M  V30 2159 H 206.427 0.592793 -0.314384 0
M  V30 2160 H 208.971 1.41649 -1.47499 0
M  V30 2161 H 207.126 3.79706 -0.768229 0
M  V30 2162 H 207.54 4.3652 -2.90776 0
M  V30 2163 H 209.014 5.31613 -1.48633 0
M  V30 2164 H 209.491 4.39153 -0.0642394 0
M  V30 2165 H 210.097 3.91291 -1.66648 0
M  V30 2166 N 208.412 0.89855 1.29475 0
M  V30 2167 C 209.637 0.538561 2.00285 0
M  V30 2168 C 210.062 -0.869135 1.66816 0
M  V30 2169 O 209.42 -1.57831 0.892145 0
M  V30 2170 C 209.468 0.736475 3.52999 0
M  V30 2171 O 208.572 -0.211537 4.11857 0
M  V30 2172 H 207.913 0.210563 0.62973 0
M  V30 2173 H 210.443 1.20982 1.64998 0
M  V30 2174 H 210.453 0.640685 4.02938 0
M  V30 2175 H 209.128 1.76276 3.76696 0
M  V30 2176 H 207.705 -0.0682991 3.72837 0
M  V30 2177 N 209.89 -1.43072 0.660911 0
M  V30 2178 C 211.138 -2.01323 0.177094 0
M  V30 2179 C 211.459 -1.5245 -1.2159 0
M  V30 2180 O 210.729 -0.740322 -1.81373 0
M  V30 2181 H 209.309 -0.744382 0.0624804 0
M  V30 2182 H 211.971 -1.75179 0.854305 0
M  V30 2183 H 211.067 -3.11649 0.167641 0
M  V30 2184 N 211.368 -0.403325 -1.52352 0
M  V30 2185 C 212.616 0.174003 -2.0135 0
M  V30 2186 C 212.937 1.46139 -1.29106 0
M  V30 2187 O 212.207 1.91448 -0.415253 0
M  V30 2188 H 210.787 0.0672911 -0.743963 0
M  V30 2189 H 213.449 -0.538235 -1.87321 0
M  V30 2190 H 212.545 0.374254 -3.09848 0
M  V30 2191 N 212.846 1.57033 -0.133567 0
M  V30 2192 C 214.095 1.94861 0.520768 0
M  V30 2193 C 214.408 1.02012 1.66892 0
M  V30 2194 O 215.614 1.29365 2.38699 0
M  V30 2195 C 214.07 3.46362 0.977809 0
M  V30 2196 C 213.678 4.47773 -0.142674 0
M  V30 2197 C 215.422 3.93083 1.60269 0
M  V30 2198 C 213.329 5.90468 0.331883 0
M  V30 2199 H 212.259 0.727453 0.198315 0
M  V30 2200 H 214.91 1.82227 -0.215759 0
M  V30 2201 H 213.292 3.54282 1.7692 0
M  V30 2202 H 214.466 4.51536 -0.919317 0
M  V30 2203 H 212.781 4.10891 -0.675124 0
M  V30 2204 H 215.378 4.97121 1.96914 0
M  V30 2205 H 215.721 3.33876 2.48662 0
M  V30 2206 H 216.254 3.88025 0.876453 0
M  V30 2207 H 212.993 6.53463 -0.516341 0
M  V30 2208 H 212.513 5.90094 1.07469 0
M  V30 2209 H 214.192 6.42179 0.788332 0
M  V30 2210 N 214.325 -0.140222 1.56975 0
M  V30 2211 C 215.573 -0.850005 1.83356 0
M  V30 2212 C 215.894 -1.81399 0.71551 0
M  V30 2213 O 215.164 -1.94136 -0.262294 0
M  V30 2214 H 213.744 -0.316886 0.676456 0
M  V30 2215 H 216.406 -0.132608 1.94448 0
M  V30 2216 H 215.502 -1.40814 2.78528 0
M  V30 2217 N 215.803 -1.52179 -0.40978 0
M  V30 2218 C 216.733 -1.78435 -1.5061 0
M  V30 2219 C 217.714 -0.635295 -1.57791 0
M  V30 2220 O 218.899 -0.880823 -1.73076 0
M  V30 2221 C 216.029 -1.93444 -2.88439 0
M  V30 2222 C 214.983 -3.09038 -2.96108 0
M  V30 2223 C 214.309 -3.09268 -4.36185 0
M  V30 2224 C 215.609 -4.48508 -2.67652 0
M  V30 2225 H 217.303 -2.70237 -1.28889 0
M  V30 2226 H 214.849 -1.30036 -0.618605 0
M  V30 2227 H 216.802 -2.10394 -3.65119 0
M  V30 2228 H 215.526 -0.983129 -3.11452 0
M  V30 2229 H 214.185 -2.91837 -2.21872 0
M  V30 2230 H 213.833 -2.11861 -4.56206 0
M  V30 2231 H 213.533 -3.86907 -4.42241 0
M  V30 2232 H 215.057 -3.28348 -5.14801 0
M  V30 2233 H 216.471 -4.65918 -3.34056 0
M  V30 2234 H 214.868 -5.28059 -2.85085 0
M  V30 2235 H 215.938 -4.56649 -1.63095 0
M  V30 2236 N 217.281 0.66697 -1.42791 0
M  V30 2237 C 218.191 1.80962 -1.49299 0
M  V30 2238 C 219.207 1.69775 -0.381108 0
M  V30 2239 O 220.383 1.91188 -0.633188 0
M  V30 2240 C 217.448 3.17156 -1.40045 0
M  V30 2241 C 216.509 3.40242 -2.6179 0
M  V30 2242 C 215.742 4.69939 -2.52969 0
M  V30 2243 O 215.965 5.48372 -1.56985 0
M  V30 2244 O 214.899 4.94441 -3.43237 0
M  V30 2245 H 218.725 1.78427 -2.45759 0
M  V30 2246 H 216.31 0.823713 -1.24641 0
M  V30 2247 H 218.192 3.98413 -1.37276 0
M  V30 2248 H 216.867 3.20312 -0.467138 0
M  V30 2249 H 215.774 2.58802 -2.70134 0
M  V30 2250 H 217.107 3.41923 -3.54047 0
M  V30 2251 N 218.759 1.29093 0.90403 0
M  V30 2252 C 220.17 1.15186 1.46932 0
M  V30 2253 C 220.521 -0.254587 1.94541 0
M  V30 2254 O 219.646 -1.14972 1.83332 0
M  V30 2255 C 220.241 2.08492 2.67051 0
M  V30 2256 C 218.8 1.98621 3.19729 0
M  V30 2257 C 217.947 1.9967 1.92425 0
M  V30 2258 H 220.898 1.41641 0.715789 0
M  V30 2259 H 220.919 1.65461 3.42641 0
M  V30 2260 H 220.431 3.10847 2.3237 0
M  V30 2261 H 218.532 0.993389 3.59114 0
M  V30 2262 H 218.645 2.86068 3.8432 0
M  V30 2263 H 217.009 1.44208 2.09943 0
M  V30 2264 H 217.792 3.03721 1.60026 0
M  V30 2265 N 220.237 -1.11381 1.11499 0
M  V30 2266 C 221.485 -1.8277 0.862524 0
M  V30 2267 C 221.806 -1.85097 -0.613534 0
M  V30 2268 O 221.076 -1.32198 -1.4457 0
M  V30 2269 H 219.656 -0.676823 0.316101 0
M  V30 2270 H 222.318 -1.34816 1.4075 0
M  V30 2271 H 221.414 -2.86614 1.23527 0
M  V30 2272 N 221.715 -0.905404 -1.28997 0
M  V30 2273 C 222.943 -0.549846 -1.9946 0
M  V30 2274 C 223.358 0.866834 -1.67724 0
M  V30 2275 O 222.715 1.57298 -0.925404 0
M  V30 2276 C 222.766 -0.739387 -3.53858 0
M  V30 2277 O 222.487 -2.10031 -3.84472 0
M  V30 2278 C 223.988 -0.389541 -4.41585 0
M  V30 2279 H 221.208 -0.210429 -0.637151 0
M  V30 2280 H 223.752 -1.21632 -1.64396 0
M  V30 2281 H 221.907 -0.120023 -3.87214 0
M  V30 2282 H 222.321 -2.13385 -4.79132 0
M  V30 2283 H 223.795 -0.572972 -5.49018 0
M  V30 2284 H 224.272 0.673756 -4.34001 0
M  V30 2285 H 224.878 -0.986089 -4.1371 0
M  V30 2286 N 223.193 1.4272 -0.668489 0
M  V30 2287 C 224.439 2.01923 -0.188419 0
M  V30 2288 C 224.772 1.52704 1.19979 0
M  V30 2289 O 224.047 0.726566 1.8042 0
M  V30 2290 C 224.33 3.59451 -0.216085 0
M  V30 2291 C 224.183 4.18864 -1.6393 0
M  V30 2292 C 225.502 4.37903 0.439179 0
M  V30 2293 H 222.621 0.733674 -0.0699412 0
M  V30 2294 H 225.263 1.69822 -0.852076 0
M  V30 2295 H 223.413 3.86929 0.349012 0
M  V30 2296 H 225.085 4.02362 -2.25616 0
M  V30 2297 H 223.328 3.74933 -2.18193 0
M  V30 2298 H 223.999 5.27987 -1.61039 0
M  V30 2299 H 226.475 4.16079 -0.0417878 0
M  V30 2300 H 225.351 5.47519 0.389157 0
M  V30 2301 H 225.612 4.15303 1.51577 0
M  V30 2302 N 224.671 0.411399 1.52136 0
M  V30 2303 C 225.917 -0.163888 2.02137 0
M  V30 2304 C 226.25 -1.44597 1.29636 0
M  V30 2305 O 225.525 -1.90272 0.403353 0
M  V30 2306 C 225.808 -0.40927 3.57767 0
M  V30 2307 C 225.661 0.889643 4.40914 0
M  V30 2308 C 226.98 -1.19042 4.23694 0
M  V30 2309 H 224.099 -0.0580896 0.734707 0
M  V30 2310 H 226.741 0.54531 1.82007 0
M  V30 2311 H 224.891 -1.0134 3.7505 0
M  V30 2312 H 226.563 1.52575 4.35337 0
M  V30 2313 H 224.806 1.50011 4.07037 0
M  V30 2314 H 225.477 0.672314 5.4789 0
M  V30 2315 H 227.953 -0.678942 4.10524 0
M  V30 2316 H 226.829 -1.33086 5.32522 0
M  V30 2317 H 227.09 -2.21166 3.82803 0
M  V30 2318 N 226.149 -1.5696 0.141893 0
M  V30 2319 C 227.398 -1.95135 -0.510427 0
M  V30 2320 C 227.711 -1.02896 -1.66348 0
M  V30 2321 O 228.917 -1.30629 -2.38009 0
M  V30 2322 C 227.373 -3.46876 -0.959427 0
M  V30 2323 C 226.981 -4.47691 0.166419 0
M  V30 2324 C 228.725 -3.93927 -1.58183 0
M  V30 2325 C 226.632 -5.90636 -0.300565 0
M  V30 2326 H 225.562 -0.728494 -0.194454 0
M  V30 2327 H 228.213 -1.8211 0.22542 0
M  V30 2328 H 226.595 -3.55215 -1.75038 0
M  V30 2329 H 227.769 -4.51043 0.94325 0
M  V30 2330 H 226.084 -4.10527 0.696905 0
M  V30 2331 H 228.681 -4.98158 -1.94275 0
M  V30 2332 H 229.024 -3.3519 -2.46888 0
M  V30 2333 H 229.557 -3.88484 -0.855863 0
M  V30 2334 H 226.296 -6.5318 0.550989 0
M  V30 2335 H 225.816 -5.90655 -1.04338 0
M  V30 2336 H 227.495 -6.42588 -0.754265 0
M  V30 2337 N 227.627 0.131896 -1.57047 0
M  V30 2338 C 228.855 0.856461 -1.88341 0
M  V30 2339 C 229.27 1.74042 -0.731757 0
M  V30 2340 O 228.627 1.80051 0.297945 0
M  V30 2341 C 228.678 1.70064 -3.18999 0
M  V30 2342 O 228.399 0.852278 -4.2973 0
M  V30 2343 C 229.9 2.53148 -3.63911 0
M  V30 2344 H 227.12 0.246885 -0.62393 0
M  V30 2345 H 229.664 0.120152 -2.04147 0
M  V30 2346 H 227.819 2.38984 -3.04902 0
M  V30 2347 H 228.233 1.43329 -5.04537 0
M  V30 2348 H 229.707 3.07931 -4.58129 0
M  V30 2349 H 230.184 3.29901 -2.89935 0
M  V30 2350 H 230.79 1.89492 -3.80753 0
M  V30 2351 N 229.106 1.52395 0.401703 0
M  V30 2352 C 230.016 1.7917 1.51444 0
M  V30 2353 C 231.032 0.677691 1.6026 0
M  V30 2354 O 232.208 0.963909 1.76835 0
M  V30 2355 C 229.273 1.94347 2.87107 0
M  V30 2356 C 228.334 3.18257 2.88116 0
M  V30 2357 C 227.567 3.32701 4.17308 0
M  V30 2358 O 227.79 2.52238 5.11598 0
M  V30 2359 O 226.724 4.25891 4.25324 0
M  V30 2360 H 230.55 2.73633 1.31752 0
M  V30 2361 H 228.135 1.3733 0.588296 0
M  V30 2362 H 230.017 2.06109 3.67555 0
M  V30 2363 H 228.692 1.03073 3.06851 0
M  V30 2364 H 227.599 3.11947 2.06494 0
M  V30 2365 H 228.932 4.09336 2.73322 0
M  V30 2366 N 230.584 -0.659388 1.43143 0
M  V30 2367 C 231.516 -1.7849 1.43784 0
M  V30 2368 C 232.529 -1.5932 0.334787 0
M  V30 2369 O 233.718 -1.68155 0.598842 0
M  V30 2370 C 230.818 -3.15828 1.22906 0
M  V30 2371 C 229.991 -3.61711 2.45934 0
M  V30 2372 C 229.05 -4.77831 2.20371 0
M  V30 2373 O 228.076 -4.87586 2.93681 0
M  V30 2374 N 229.278 -5.67611 1.21647 0
M  V30 2375 H 232.043 -1.7842 2.40803 0
M  V30 2376 H 229.604 -0.84302 1.3822 0
M  V30 2377 H 231.596 -3.91189 1.03697 0
M  V30 2378 H 230.166 -3.10707 0.343542 0
M  V30 2379 H 229.386 -2.76861 2.80609 0
M  V30 2380 H 230.674 -3.89112 3.27825 0
M  V30 2381 H 230.072 -5.62397 0.610449 0
M  V30 2382 H 228.629 -6.42719 1.08423 0
M  V30 2383 N 232.062 -1.29571 -0.897171 0
M  V30 2384 C 233.025 -1.14913 -1.98312 0
M  V30 2385 C 234.025 -0.0838629 -1.60581 0
M  V30 2386 O 235.215 -0.331006 -1.71026 0
M  V30 2387 C 232.347 -0.757835 -3.3237 0
M  V30 2388 H 233.54 -2.11377 -2.12743 0
M  V30 2389 H 231.093 -1.12793 -1.08201 0
M  V30 2390 H 231.828 0.206837 -3.2364 0
M  V30 2391 H 231.613 -1.52755 -3.61121 0
M  V30 2392 H 233.103 -0.678408 -4.12053 0
M  V30 2393 N 233.54 1.10788 -1.12088 0
M  V30 2394 C 234.786 1.82942 -0.875226 0
M  V30 2395 C 235.119 1.84779 0.597538 0
M  V30 2396 O 234.394 1.30578 1.44152 0
M  V30 2397 C 234.677 3.29789 -1.44606 0
M  V30 2398 C 234.53 3.36307 -2.98693 0
M  V30 2399 C 235.849 4.26064 -1.10261 0
M  V30 2400 H 232.968 0.664195 -0.319397 0
M  V30 2401 H 235.61 1.29867 -1.38689 0
M  V30 2402 H 233.76 3.75118 -1.01089 0
M  V30 2403 H 235.432 2.99487 -3.50864 0
M  V30 2404 H 233.675 2.76318 -3.34411 0
M  V30 2405 H 234.346 4.39694 -3.33726 0
M  V30 2406 H 236.822 3.88951 -1.4784 0
M  V30 2407 H 235.698 5.27183 -1.52869 0
M  V30 2408 H 235.959 4.42098 -0.0142953 0
M  V30 2409 N 235.018 0.912232 1.28515 0
M  V30 2410 C 236.295 0.463597 1.90027 0
M  V30 2411 C 236.675 -1.05753 1.82701 0
M  V30 2412 O 236.023 -1.90492 1.26194 0
M  V30 2413 C 236.233 0.992253 3.34597 0
M  V30 2414 C 237.581 1.04344 4.11579 0
M  V30 2415 O 238.605 0.94079 3.43551 0
M  V30 2416 O 237.464 1.1995 5.33174 0
M  V30 2417 H 234.558 0.146666 0.813891 0
M  V30 2418 H 237.104 1.00292 1.36893 0
M  V30 2419 H 235.876 2.03623 3.34146 0
M  V30 2420 H 235.499 0.433672 3.95228 0
M  V30 2421 N 236.496 -1.42363 0.676048 0
M  V30 2422 C 237.724 -2.05859 0.207268 0
M  V30 2423 C 238.139 -1.50796 -1.13605 0
M  V30 2424 O 237.496 -0.648265 -1.70598 0
M  V30 2425 C 237.547 -3.61248 0.134975 0
M  V30 2426 O 237.268 -4.1427 1.42521 0
M  V30 2427 C 238.769 -4.41859 -0.357151 0
M  V30 2428 H 235.989 -0.663431 0.100503 0
M  V30 2429 H 238.533 -1.82479 0.923136 0
M  V30 2430 H 236.688 -3.83735 -0.531588 0
M  V30 2431 H 237.102 -5.0815 1.29939 0
M  V30 2432 H 238.576 -5.50847 -0.356641 0
M  V30 2433 H 239.053 -4.16536 -1.39264 0
M  V30 2434 H 239.659 -4.24392 0.27772 0
M  V30 2435 N 237.974 -0.419461 -1.51915 0
M  V30 2436 C 239.214 0.152336 -2.03832 0
M  V30 2437 C 239.578 1.41501 -1.29775 0
M  V30 2438 O 240.779 2.06591 -1.7197 0
M  V30 2439 C 239.05 0.383812 -3.55333 0
M  V30 2440 S 240.609 0.921577 -4.29013 0
M  V30 2441 H 237.427 0.0402193 -0.709862 0
M  V30 2442 H 240.029 -0.574758 -1.8686 0
M  V30 2443 H 238.733 -0.541794 -4.06808 0
M  V30 2444 H 238.264 1.13849 -3.76566 0
M  V30 2445 H 240.279 2.20108 -4.4471 0
M  V30 2446 N 239.452 1.56882 -0.150215 0
M  V30 2447 C 240.699 1.96228 0.500093 0
M  V30 2448 C 241.027 1.03522 1.64661 0
M  V30 2449 O 240.282 0.0650683 1.95592 0
M  V30 2450 C 240.581 3.41801 1.04437 0
M  V30 2451 C 240.247 4.50897 0.0159671 0
M  V30 2452 C 238.909 4.8046 -0.266731 0
M  V30 2453 C 241.261 5.16703 -0.683192 0
M  V30 2454 C 238.589 5.73135 -1.25434 0
M  V30 2455 C 240.941 6.10441 -1.65964 0
M  V30 2456 C 239.605 6.38382 -1.95 0
M  V30 2457 H 238.875 0.718048 0.182997 0
M  V30 2458 H 241.522 1.90019 -0.237724 0
M  V30 2459 H 239.827 3.44857 1.85959 0
M  V30 2460 H 241.524 3.69573 1.55618 0
M  V30 2461 H 238.114 4.27891 0.246485 0
M  V30 2462 H 242.298 4.93993 -0.477983 0
M  V30 2463 H 237.554 5.93074 -1.48571 0
M  V30 2464 H 241.728 6.60507 -2.20689 0
M  V30 2465 H 239.355 7.09996 -2.71679 0
M  V30 2466 N 240.93 -0.123565 1.57115 0
M  V30 2467 C 241.877 -1.15177 2.00007 0
M  V30 2468 C 242.847 -1.41403 0.871454 0
M  V30 2469 O 244.032 -1.53346 1.13533 0
M  V30 2470 C 241.172 -2.47436 2.40561 0
M  V30 2471 C 240.285 -2.28184 3.66819 0
M  V30 2472 C 239.42 -3.53641 3.96373 0
M  V30 2473 C 238.459 -3.29528 5.15827 0
M  V30 2474 N 237.596 -4.47175 5.41275 0
M  V30 2475 H 242.436 -0.779008 2.87638 0
M  V30 2476 H 239.973 -0.373166 1.42288 0
M  V30 2477 H 241.931 -3.24584 2.62109 0
M  V30 2478 H 240.561 -2.82614 1.55978 0
M  V30 2479 H 239.613 -1.41976 3.52912 0
M  V30 2480 H 240.925 -2.0634 4.5412 0
M  V30 2481 H 240.079 -4.39209 4.18545 0
M  V30 2482 H 238.818 -3.78512 3.07538 0
M  V30 2483 H 237.823 -2.42349 4.93505 0
M  V30 2484 H 239.048 -3.06031 6.06236 0
M  V30 2485 H 236.994 -4.72175 4.55397 0
M  V30 2486 H 236.911 -4.28419 6.22891 0
M  V30 2487 H 238.179 -5.3389 5.67963 0
M  V30 2488 N 242.408 -1.52605 -0.393616 0
M  V30 2489 C 243.371 -1.76415 -1.46323 0
M  V30 2490 C 244.371 -0.634126 -1.47768 0
M  V30 2491 O 245.561 -0.902142 -1.4902 0
M  V30 2492 C 242.693 -1.8607 -2.85641 0
M  V30 2493 H 243.886 -2.71916 -1.26498 0
M  V30 2494 H 241.439 -1.43257 -0.625073 0
M  V30 2495 H 242.174 -0.925378 -3.10817 0
M  V30 2496 H 241.959 -2.68235 -2.85993 0
M  V30 2497 H 243.449 -2.06179 -3.63153 0
M  V30 2498 N 243.887 0.651787 -1.4349 0
M  V30 2499 C 244.797 1.79368 -1.5121 0
M  V30 2500 C 245.813 1.69361 -0.399093 0
M  V30 2501 O 246.989 1.90505 -0.653431 0
M  V30 2502 C 244.054 3.15653 -1.43401 0
M  V30 2503 C 243.115 3.37446 -2.65384 0
M  V30 2504 C 242.348 4.67229 -2.57939 0
M  V30 2505 O 242.571 5.46676 -1.62792 0
M  V30 2506 O 241.505 4.90773 -3.48462 0
M  V30 2507 H 245.331 1.7581 -2.47638 0
M  V30 2508 H 242.916 0.810447 -1.25507 0
M  V30 2509 H 244.798 3.96935 -1.41494 0
M  V30 2510 H 243.473 3.19798 -0.501085 0
M  V30 2511 H 242.38 2.55923 -2.72863 0
M  V30 2512 H 243.713 3.38148 -3.57654 0
M  V30 2513 N 245.365 1.30045 0.890287 0
M  V30 2514 C 246.612 1.18561 1.64163 0
M  V30 2515 C 246.94 -0.260852 1.92743 0
M  V30 2516 O 246.195 -1.20376 1.54299 0
M  V30 2517 C 246.494 1.95409 2.99249 0
M  V30 2518 C 246.16 3.45066 2.90242 0
M  V30 2519 C 244.822 3.85878 2.87492 0
M  V30 2520 C 247.174 4.4039 2.78758 0
M  V30 2521 C 244.502 5.20314 2.7109 0
M  V30 2522 C 246.854 5.74928 2.63894 0
M  V30 2523 C 245.518 6.14986 2.59516 0
M  V30 2524 H 244.788 0.433846 0.600715 0
M  V30 2525 H 247.435 1.61088 1.03552 0
M  V30 2526 H 245.74 1.45501 3.63781 0
M  V30 2527 H 247.437 1.8392 3.56334 0
M  V30 2528 H 244.027 3.12631 2.93189 0
M  V30 2529 H 248.211 4.09806 2.79952 0
M  V30 2530 H 243.467 5.50449 2.66112 0
M  V30 2531 H 247.641 6.48434 2.53981 0
M  V30 2532 H 245.268 7.19104 2.46565 0
M  V30 2533 N 246.843 -1.10192 1.12674 0
M  V30 2534 C 247.753 -2.20172 0.810026 0
M  V30 2535 C 248.769 -1.72821 -0.202188 0
M  V30 2536 O 249.945 -2.01369 -0.0351691 0
M  V30 2537 C 247.01 -3.45631 0.272007 0
M  V30 2538 C 246.071 -4.07704 1.34447 0
M  V30 2539 C 245.304 -5.27175 0.832029 0
M  V30 2540 O 245.527 -5.69425 -0.333284 0
M  V30 2541 O 244.461 -5.80168 1.60277 0
M  V30 2542 H 248.287 -2.49701 1.72867 0
M  V30 2543 H 245.872 -1.18977 0.903597 0
M  V30 2544 H 247.754 -4.21394 -0.0230219 0
M  V30 2545 H 246.429 -3.17723 -0.619164 0
M  V30 2546 H 245.336 -3.33614 1.6927 0
M  V30 2547 H 246.669 -4.3982 2.2095 0
M  V30 2548 N 248.321 -0.919034 -1.28029 0
M  V30 2549 C 249.253 -0.368762 -2.26214 0
M  V30 2550 C 250.266 0.495716 -1.55069 0
M  V30 2551 O 251.455 0.30974 -1.75792 0
M  V30 2552 C 248.555 0.491049 -3.35324 0
M  V30 2553 C 247.728 -0.352133 -4.3598 0
M  V30 2554 C 246.787 0.443622 -5.24327 0
M  V30 2555 O 245.813 -0.14566 -5.69014 0
M  V30 2556 N 247.015 1.74545 -5.53637 0
M  V30 2557 H 249.78 -1.21273 -2.74068 0
M  V30 2558 H 247.341 -0.785541 -1.41566 0
M  V30 2559 H 249.333 1.03026 -3.91366 0
M  V30 2560 H 247.903 1.23574 -2.87138 0
M  V30 2561 H 247.123 -1.07269 -3.79324 0
M  V30 2562 H 248.411 -0.928883 -5.00249 0
M  V30 2563 H 247.809 2.24666 -5.19174 0
M  V30 2564 H 246.366 2.23138 -6.12416 0
M  V30 2565 N 249.799 1.42003 -0.683588 0
M  V30 2566 C 251.048 2.00638 -0.206681 0
M  V30 2567 C 251.361 1.5472 1.19671 0
M  V30 2568 O 252.567 2.05833 1.77045 0
M  V30 2569 C 251.023 3.58487 -0.318632 0
M  V30 2570 C 250.631 4.1339 -1.72663 0
M  V30 2571 C 252.375 4.24384 0.0991141 0
M  V30 2572 C 250.282 5.63633 -1.79087 0
M  V30 2573 H 249.212 0.750408 -0.0735107 0
M  V30 2574 H 251.863 1.62624 -0.850048 0
M  V30 2575 H 250.245 3.94047 0.392781 0
M  V30 2576 H 251.419 3.89273 -2.46583 0
M  V30 2577 H 249.734 3.59976 -2.09299 0
M  V30 2578 H 252.331 5.34652 0.0713833 0
M  V30 2579 H 252.674 4.00505 1.13586 0
M  V30 2580 H 253.207 3.93816 -0.561599 0
M  V30 2581 H 249.946 5.92323 -2.80774 0
M  V30 2582 H 249.466 5.89714 -1.09535 0
M  V30 2583 H 251.145 6.28201 -1.5483 0
M  V30 2584 N 251.277 0.427512 1.51691 0
M  V30 2585 C 252.523 -0.142439 2.02299 0
M  V30 2586 C 252.856 -1.43214 1.31162 0
M  V30 2587 O 252.131 -1.89833 0.423511 0
M  V30 2588 C 252.414 -0.371301 3.58181 0
M  V30 2589 C 252.267 0.936358 4.39946 0
M  V30 2590 C 253.586 -1.14542 4.24933 0
M  V30 2591 H 250.705 -0.0502937 0.735282 0
M  V30 2592 H 253.347 0.564584 1.81418 0
M  V30 2593 H 251.497 -0.973559 3.76104 0
M  V30 2594 H 253.169 1.57184 4.33694 0
M  V30 2595 H 251.412 1.5432 4.05423 0
M  V30 2596 H 252.083 0.730388 5.47147 0
M  V30 2597 H 254.559 -0.635362 4.11221 0
M  V30 2598 H 253.435 -1.27431 5.33903 0
M  V30 2599 H 253.696 -2.17093 3.85127 0
M  V30 2600 N 252.755 -1.56801 0.158532 0
M  V30 2601 C 253.685 -2.20347 -0.772609 0
M  V30 2602 C 254.666 -1.15518 -1.24859 0
M  V30 2603 O 255.851 -1.43902 -1.30406 0
M  V30 2604 C 252.981 -2.83417 -2.00729 0
M  V30 2605 C 251.935 -3.94174 -1.66765 0
M  V30 2606 C 251.261 -4.44233 -2.97592 0
M  V30 2607 C 252.561 -5.14392 -0.905447 0
M  V30 2608 H 254.255 -2.98413 -0.242959 0
M  V30 2609 H 251.801 -1.43537 -0.115419 0
M  V30 2610 H 253.754 -3.26543 -2.6636 0
M  V30 2611 H 252.478 -2.02701 -2.56086 0
M  V30 2612 H 251.137 -3.51684 -1.03508 0
M  V30 2613 H 250.785 -3.60325 -3.50963 0
M  V30 2614 H 250.485 -5.18945 -2.75626 0
M  V30 2615 H 252.009 -4.90037 -3.64274 0
M  V30 2616 H 253.423 -5.5429 -1.46408 0
M  V30 2617 H 251.82 -5.9494 -0.7853 0
M  V30 2618 H 252.89 -4.84795 0.100668 0
M  V30 2619 N 254.233 0.115231 -1.57178 0
M  V30 2620 C 255.481 0.820727 -1.84685 0
M  V30 2621 C 255.802 1.80237 -0.744279 0
M  V30 2622 O 255.072 1.94529 0.231375 0
M  V30 2623 H 253.652 0.306084 -0.681411 0
M  V30 2624 H 256.314 0.101656 -1.94635 0
M  V30 2625 H 255.41 1.36366 -2.80733 0
M  V30 2626 N 255.711 1.52812 0.385517 0
M  V30 2627 C 256.658 1.77838 1.47113 0
M  V30 2628 C 257.628 0.621757 1.54024 0
M  V30 2629 O 258.813 0.861846 1.70226 0
M  V30 2630 C 255.953 1.95618 2.84302 0
M  V30 2631 C 255.066 3.23316 2.86515 0
M  V30 2632 C 254.201 3.31394 4.15152 0
M  V30 2633 C 253.24 4.53201 4.1143 0
M  V30 2634 N 252.377 4.58542 5.3168 0
M  V30 2635 H 257.217 2.70482 1.25073 0
M  V30 2636 H 254.754 1.34006 0.606692 0
M  V30 2637 H 256.712 2.03912 3.63972 0
M  V30 2638 H 255.342 1.06331 3.04784 0
M  V30 2639 H 254.394 3.24076 1.99195 0
M  V30 2640 H 255.706 4.13045 2.79634 0
M  V30 2641 H 254.86 3.3889 5.03228 0
M  V30 2642 H 253.599 2.39645 4.24761 0
M  V30 2643 H 252.604 4.45827 3.21742 0
M  V30 2644 H 253.829 5.46271 4.03442 0
M  V30 2645 H 251.775 3.69686 5.41912 0
M  V30 2646 H 251.692 5.42148 5.26889 0
M  V30 2647 H 252.96 4.70296 6.21644 0
M  V30 2648 N 257.189 -0.644168 1.43834 0
M  V30 2649 C 258.605 -0.960875 1.27434 0
M  V30 2650 C 258.805 -2.00499 0.200618 0
M  V30 2651 O 257.861 -2.49018 -0.417906 0
M  V30 2652 C 259.174 -1.43653 2.64167 0
M  V30 2653 C 260.722 -1.55271 2.71772 0
M  V30 2654 C 261.197 -2.06224 4.08944 0
M  V30 2655 N 262.688 -2.13513 4.11055 0
M  V30 2656 C 263.423 -2.54081 5.14033 0
M  V30 2657 N 262.919 -2.9388 6.27381 0
M  V30 2658 N 264.712 -2.54101 5.01387 0
M  V30 2659 H 256.863 0.0465779 2.12349 0
M  V30 2660 H 259.126 -0.0417638 0.94708 0
M  V30 2661 H 258.832 -0.743706 3.43747 0
M  V30 2662 H 258.706 -2.40993 2.90176 0
M  V30 2663 H 261.093 -2.23653 1.92519 0
M  V30 2664 H 261.174 -0.563395 2.49519 0
M  V30 2665 H 260.818 -1.38441 4.88668 0
M  V30 2666 H 260.748 -3.06003 4.28567 0
M  V30 2667 H 263.239 -1.85493 3.29242 0
M  V30 2668 H 263.552 -3.2361 7.01781 0
M  V30 2669 H 261.897 -2.91663 6.30839 0
M  V30 2670 H 265.088 -2.22391 4.11898 0
M  V30 2671 H 265.261 -2.85394 5.81768 0
M  V30 2672 N 258.668 -1.30515 -0.883378 0
M  V30 2673 C 259.914 -1.19607 -1.63774 0
M  V30 2674 C 260.247 0.248314 -1.92606 0
M  V30 2675 O 259.522 1.17742 -1.54813 0
M  V30 2676 C 259.805 -2.02669 -2.97653 0
M  V30 2677 C 259.658 -3.55335 -2.75784 0
M  V30 2678 C 260.977 -1.86573 -3.98596 0
M  V30 2679 H 258.096 -0.435856 -0.594305 0
M  V30 2680 H 260.738 -1.60165 -1.02212 0
M  V30 2681 H 258.888 -1.68208 -3.50197 0
M  V30 2682 H 260.56 -3.99863 -2.30016 0
M  V30 2683 H 258.803 -3.79438 -2.1026 0
M  V30 2684 H 259.474 -4.08745 -3.70988 0
M  V30 2685 H 261.95 -2.16703 -3.55217 0
M  V30 2686 H 260.826 -2.47014 -4.90179 0
M  V30 2687 H 261.087 -0.825321 -4.34328 0
M  V30 2688 N 260.146 1.09593 -1.13257 0
M  V30 2689 C 261.395 1.81105 -0.887917 0
M  V30 2690 C 261.708 1.86563 0.587672 0
M  V30 2691 O 262.914 2.54367 0.949204 0
M  V30 2692 C 261.37 3.25338 -1.53895 0
M  V30 2693 C 260.978 3.28151 -3.04994 0
M  V30 2694 C 262.722 4.01617 -1.37492 0
M  V30 2695 C 260.629 4.66897 -3.6299 0
M  V30 2696 H 259.559 0.678661 -0.328534 0
M  V30 2697 H 262.21 1.23183 -1.36008 0
M  V30 2698 H 260.592 3.8331 -0.994446 0
M  V30 2699 H 261.766 2.79953 -3.66009 0
M  V30 2700 H 260.081 2.65361 -3.20893 0
M  V30 2701 H 262.678 5.04119 -1.78235 0
M  V30 2702 H 263.021 4.15072 -0.31957 0
M  V30 2703 H 263.554 3.50082 -1.88912 0
M  V30 2704 H 260.293 4.58643 -4.68323 0
M  V30 2705 H 259.813 5.15426 -3.06752 0
M  V30 2706 H 261.492 5.3587 -3.62563 0
M  V30 2707 N 261.624 0.925811 1.2754 0
M  V30 2708 C 263.04 0.625767 1.46821 0
M  V30 2709 C 263.24 -0.825506 1.83814 0
M  V30 2710 O 262.296 -1.60356 1.95044 0
M  V30 2711 C 263.609 1.57402 2.56213 0
M  V30 2712 C 265.157 1.58204 2.70075 0
M  V30 2713 C 265.632 2.51721 3.82623 0
M  V30 2714 N 267.123 2.49917 3.89994 0
M  V30 2715 C 267.858 3.18968 4.76494 0
M  V30 2716 N 267.354 3.97391 5.67496 0
M  V30 2717 N 269.147 3.07996 4.70208 0
M  V30 2718 H 261.298 1.86409 1.01811 0
M  V30 2719 H 263.561 0.800213 0.508295 0
M  V30 2720 H 263.267 2.60925 2.35819 0
M  V30 2721 H 263.141 1.31428 3.53563 0
M  V30 2722 H 265.528 0.554124 2.89851 0
M  V30 2723 H 265.609 1.88226 1.73218 0
M  V30 2724 H 265.253 3.54622 3.63601 0
M  V30 2725 H 265.183 2.18996 4.78903 0
M  V30 2726 H 267.674 1.9296 3.24923 0
M  V30 2727 H 267.987 4.4707 6.30356 0
M  V30 2728 H 266.332 4.01495 5.67298 0
M  V30 2729 H 269.523 2.46223 3.9811 0
M  V30 2730 H 269.696 3.6208 5.37403 0
M  V30 2731 N 263.102 -1.41638 0.69111 0
M  V30 2732 C 264.049 -2.30789 0.0229705 0
M  V30 2733 C 265.019 -1.46863 -0.775911 0
M  V30 2734 O 266.204 -1.75661 -0.74485 0
M  V30 2735 C 263.344 -3.32868 -0.910666 0
M  V30 2736 C 262.457 -4.31875 -0.103874 0
M  V30 2737 C 261.592 -5.21024 -1.03475 0
M  V30 2738 C 260.631 -6.11702 -0.220598 0
M  V30 2739 N 259.768 -6.93349 -1.10504 0
M  V30 2740 H 264.608 -2.87366 0.788978 0
M  V30 2741 H 262.145 -1.41535 0.400794 0
M  V30 2742 H 264.103 -3.90596 -1.46597 0
M  V30 2743 H 262.733 -2.77851 -1.64312 0
M  V30 2744 H 261.785 -3.76131 0.568285 0
M  V30 2745 H 263.097 -4.96003 0.527504 0
M  V30 2746 H 262.251 -5.83565 -1.65943 0
M  V30 2747 H 260.99 -4.57112 -1.69999 0
M  V30 2748 H 259.995 -5.48215 0.417187 0
M  V30 2749 H 261.22 -6.77668 0.440784 0
M  V30 2750 H 259.166 -6.3205 -1.75638 0
M  V30 2751 H 259.083 -7.54146 -0.529125 0
M  V30 2752 H 260.351 -7.60362 -1.71667 0
M  V30 2753 N 264.58 -0.43555 -1.51462 0
M  V30 2754 C 265.808 0.130242 -2.0649 0
M  V30 2755 C 266.223 1.36614 -1.30315 0
M  V30 2756 O 265.58 1.78869 -0.362223 0
M  V30 2757 C 265.631 0.454253 -3.58635 0
M  V30 2758 O 265.352 -0.73259 -4.31931 0
M  V30 2759 C 266.853 1.07091 -4.3017 0
M  V30 2760 H 264.073 0.00871669 -0.670943 0
M  V30 2761 H 266.617 -0.614117 -1.95061 0
M  V30 2762 H 264.772 1.14851 -3.69984 0
M  V30 2763 H 265.186 -0.455787 -5.22516 0
M  V30 2764 H 266.66 1.24764 -5.37716 0
M  V30 2765 H 267.137 2.05144 -3.88346 0
M  V30 2766 H 267.743 0.416089 -4.2326 0
M  V30 2767 N 266.058 1.56714 -0.166846 0
M  V30 2768 C 267.335 1.88412 0.525373 0
M  V30 2769 C 267.715 1.07602 1.81618 0
M  V30 2770 O 267.063 0.168621 2.27877 0
M  V30 2771 C 267.273 3.40363 0.771613 0
M  V30 2772 C 268.621 4.10007 1.1036 0
M  V30 2773 O 269.645 3.45655 0.860304 0
M  V30 2774 O 268.504 5.2369 1.56239 0
M  V30 2775 H 265.598 0.781587 0.270278 0
M  V30 2776 H 268.144 1.68458 -0.204946 0
M  V30 2777 H 266.916 3.91046 -0.141093 0
M  V30 2778 H 266.539 3.65914 1.55541 0
M  V30 2779 N 267.536 -0.106894 1.57237 0
M  V30 2780 C 268.466 -1.13148 2.04254 0
M  V30 2781 C 269.447 -1.42476 0.929224 0
M  V30 2782 O 270.632 -1.52709 1.19973 0
M  V30 2783 C 267.762 -2.4545 2.45706 0
M  V30 2784 C 266.716 -2.30558 3.60592 0
M  V30 2785 C 266.042 -3.67931 3.87983 0
M  V30 2786 C 267.342 -1.75597 4.91897 0
M  V30 2787 H 269.036 -0.740374 2.90101 0
M  V30 2788 H 266.582 -0.354696 1.39563 0
M  V30 2789 H 268.535 -3.17389 2.77205 0
M  V30 2790 H 267.259 -2.86475 1.56843 0
M  V30 2791 H 265.918 -1.61067 3.29322 0
M  V30 2792 H 265.566 -4.06462 2.96306 0
M  V30 2793 H 265.266 -3.58817 4.65322 0
M  V30 2794 H 266.79 -4.41356 4.21945 0
M  V30 2795 H 268.204 -2.37364 5.21854 0
M  V30 2796 H 266.601 -1.77272 5.73319 0
M  V30 2797 H 267.671 -0.714451 4.79608 0
M  V30 2798 N 269.014 -1.53014 -0.377408 0
M  V30 2799 C 269.962 -1.7927 -1.48206 0
M  V30 2800 C 270.956 -0.661195 -1.55963 0
M  V30 2801 O 272.162 -0.843908 -1.58991 0
M  V30 2802 H 268.537 -0.567425 -0.493491 0
M  V30 2803 H 270.508 -2.71753 -1.2326 0
M  V30 2804 C 269.257 -1.98894 -2.85196 0
M  V30 2805 H 268.58 -2.85395 -2.79981 0
M  V30 2806 H 270.02 -2.21249 -3.61698 0
M  V30 2807 C 268.479 -0.764691 -3.28107 0
M  V30 2808 O 269.009 0.0523226 -4.01666 0
M  V30 2809 N 267.215 -0.591493 -2.84517 0
M  V30 2810 H 266.762 -1.25749 -2.24822 0
M  V30 2811 H 266.72 0.226253 -3.13585 0
M  V30 2812 N 270.492 0.636531 -1.44174 0
M  V30 2813 C 271.439 1.74875 -1.50624 0
M  V30 2814 C 272.409 1.62275 -0.35442 0
M  V30 2815 O 273.594 1.82276 -0.563908 0
M  V30 2816 C 270.734 3.13102 -1.45125 0
M  V30 2817 C 269.847 3.36717 -2.7064 0
M  V30 2818 C 268.982 4.64885 -2.57013 0
M  V30 2819 C 268.021 4.8166 -3.77717 0
M  V30 2820 N 267.158 6.01101 -3.62798 0
M  V30 2821 H 271.998 1.68697 -2.45653 0
M  V30 2822 H 269.535 0.823004 -1.21922 0
M  V30 2823 H 271.493 3.93034 -1.39929 0
M  V30 2824 H 270.123 3.18308 -0.536671 0
M  V30 2825 H 269.175 2.50763 -2.86046 0
M  V30 2826 H 270.487 3.44993 -3.60252 0
M  V30 2827 H 269.641 5.52969 -2.49619 0
M  V30 2828 H 268.38 4.58957 -1.64953 0
M  V30 2829 H 267.385 3.92007 -3.85501 0
M  V30 2830 H 268.61 4.89406 -4.70807 0
M  V30 2831 H 266.556 5.96273 -2.73486 0
M  V30 2832 H 266.473 6.10409 -4.46023 0
M  V30 2833 H 267.741 6.91761 -3.59286 0
M  V30 2834 N 271.97 1.30982 0.876444 0
M  V30 2835 C 272.917 1.18085 1.98304 0
M  V30 2836 C 273.887 0.0682263 1.6596 0
M  V30 2837 O 275.072 0.239937 1.89285 0
M  V30 2838 C 272.212 0.887475 3.33493 0
M  V30 2839 C 271.325 2.08281 3.78475 0
M  V30 2840 C 270.46 1.72678 5.0235 0
M  V30 2841 C 269.499 2.88657 5.39762 0
M  V30 2842 N 268.636 2.53292 6.54819 0
M  V30 2843 H 273.476 2.1275 2.08666 0
M  V30 2844 H 271.013 1.05839 1.02159 0
M  V30 2845 H 272.971 0.697961 4.1132 0
M  V30 2846 H 271.601 -0.022315 3.22792 0
M  V30 2847 H 270.653 2.3833 2.96484 0
M  V30 2848 H 271.965 2.95108 4.02135 0
M  V30 2849 H 271.119 1.50151 5.87826 0
M  V30 2850 H 269.858 0.830327 4.8058 0
M  V30 2851 H 268.863 3.1184 4.52809 0
M  V30 2852 H 270.088 3.79002 5.63502 0
M  V30 2853 H 268.034 1.66163 6.34607 0
M  V30 2854 H 267.951 3.3365 6.7839 0
M  V30 2855 H 269.219 2.34143 7.43503 0
M  V30 2856 N 273.449 -1.08991 1.13837 0
M  V30 2857 C 274.379 -2.17771 0.842507 0
M  V30 2858 C 275.36 -1.6892 -0.20001 0
M  V30 2859 O 276.545 -1.94113 -0.0579731 0
M  V30 2860 C 273.675 -3.4589 0.312644 0
M  V30 2861 C 272.629 -4.08099 1.28992 0
M  V30 2862 C 271.955 -5.31098 0.619623 0
M  V30 2863 C 273.255 -4.50077 2.65005 0
M  V30 2864 H 274.949 -2.42777 1.75213 0
M  V30 2865 H 272.495 -1.16682 0.843875 0
M  V30 2866 H 274.448 -4.21297 0.0933043 0
M  V30 2867 H 273.172 -3.20419 -0.632382 0
M  V30 2868 H 271.831 -3.34717 1.49533 0
M  V30 2869 H 271.479 -5.0191 -0.33102 0
M  V30 2870 H 271.179 -5.73674 1.27167 0
M  V30 2871 H 272.703 -6.09224 0.409669 0
M  V30 2872 H 274.117 -5.16688 2.48407 0
M  V30 2873 H 272.514 -5.03553 3.26427 0
M  V30 2874 H 273.584 -3.62257 3.22332 0
M  V30 2875 N 274.927 -0.932562 -1.27047 0
M  V30 2876 C 276.173 -0.576412 -1.94436 0
M  V30 2877 C 276.506 0.880891 -1.73072 0
M  V30 2878 O 275.781 1.62905 -1.06264 0
M  V30 2879 C 276.064 -0.909031 -3.48437 0
M  V30 2880 C 275.917 -2.42044 -3.79123 0
M  V30 2881 C 277.236 -0.418341 -4.38107 0
M  V30 2882 H 274.355 -0.210888 -0.706184 0
M  V30 2883 H 276.997 -1.16522 -1.50075 0
M  V30 2884 H 275.147 -0.407947 -3.86352 0
M  V30 2885 H 276.819 -2.99359 -3.50973 0
M  V30 2886 H 275.062 -2.86758 -3.25503 0
M  V30 2887 H 275.733 -2.6037 -4.86736 0
M  V30 2888 H 278.209 -0.847856 -4.0737 0
M  V30 2889 H 277.085 -0.679981 -5.44672 0
M  V30 2890 H 277.346 0.681642 -4.36814 0
M  V30 2891 N 276.405 1.4127 -0.698611 0
M  V30 2892 C 277.337 2.292 0.00399731 0
M  V30 2893 C 278.35 1.44944 0.741279 0
M  V30 2894 O 279.539 1.68416 0.591477 0
M  V30 2895 C 276.639 3.22875 1.02979 0
M  V30 2896 C 275.812 4.35904 0.36151 0
M  V30 2897 C 274.871 5.10134 1.29033 0
M  V30 2898 O 273.897 5.63809 0.781562 0
M  V30 2899 N 275.099 5.17885 2.6225 0
M  V30 2900 H 277.864 2.9014 -0.750921 0
M  V30 2901 H 275.425 1.52455 -0.544882 0
M  V30 2902 H 277.417 3.69404 1.65296 0
M  V30 2903 H 275.987 2.63221 1.68622 0
M  V30 2904 H 275.207 3.91719 -0.441584 0
M  V30 2905 H 276.495 5.08696 -0.103055 0
M  V30 2906 H 275.893 4.7573 3.061 0
M  V30 2907 H 274.45 5.6798 3.19754 0
M  V30 2908 N 277.883 0.443576 1.51229 0
M  V30 2909 C 278.793 -0.370721 2.31652 0
M  V30 2910 C 279.809 -1.02186 1.40833 0
M  V30 2911 O 280.985 -1.01586 1.73903 0
M  V30 2912 C 278.05 -1.45376 3.14749 0
M  V30 2913 C 277.111 -0.822099 4.21355 0
M  V30 2914 C 276.344 -1.85353 5.0048 0
M  V30 2915 O 276.567 -3.07656 4.80316 0
M  V30 2916 O 275.501 -1.4406 5.84406 0
M  V30 2917 H 279.327 0.286002 3.0235 0
M  V30 2918 H 276.912 0.20598 1.47973 0
M  V30 2919 H 278.794 -2.08173 3.66391 0
M  V30 2920 H 277.469 -2.09445 2.46809 0
M  V30 2921 H 276.376 -0.155909 3.73775 0
M  V30 2922 H 277.709 -0.224797 4.91686 0
M  V30 2923 N 279.361 -1.56624 0.175154 0
M  V30 2924 C 280.291 -2.21155 -0.749195 0
M  V30 2925 C 281.272 -1.16836 -1.23626 0
M  V30 2926 O 282.457 -1.45277 -1.28873 0
M  V30 2927 C 279.587 -2.8553 -1.97711 0
M  V30 2928 C 278.541 -3.95921 -1.62575 0
M  V30 2929 C 277.867 -4.47365 -2.92864 0
M  V30 2930 C 279.167 -5.15323 -0.850838 0
M  V30 2931 H 280.861 -2.98653 -0.211295 0
M  V30 2932 H 278.407 -1.43651 -0.100188 0
M  V30 2933 H 280.36 -3.2935 -2.62881 0
M  V30 2934 H 279.084 -2.05406 -2.53921 0
M  V30 2935 H 277.743 -3.52762 -0.997719 0
M  V30 2936 H 277.391 -3.64027 -3.47122 0
M  V30 2937 H 277.091 -5.21839 -2.70106 0
M  V30 2938 H 278.615 -4.93873 -3.59056 0
M  V30 2939 H 280.029 -5.55812 -1.40521 0
M  V30 2940 H 278.426 -5.95739 -0.722154 0
M  V30 2941 H 279.496 -4.84661 0.152082 0
M  V30 2942 N 280.839 0.0985539 -1.57292 0
M  V30 2943 C 281.769 1.12064 -2.04851 0
M  V30 2944 C 282.75 1.41981 -0.936767 0
M  V30 2945 O 283.935 1.52071 -1.20781 0
M  V30 2946 C 281.065 2.44144 -2.47004 0
M  V30 2947 C 280.019 2.28643 -3.6181 0
M  V30 2948 C 279.345 3.65869 -3.89929 0
M  V30 2949 C 280.645 1.72986 -4.92822 0
M  V30 2950 H 282.339 0.724979 -2.9049 0
M  V30 2951 H 279.885 0.34729 -1.39749 0
M  V30 2952 H 281.838 3.15914 -2.78884 0
M  V30 2953 H 280.562 2.85639 -1.5836 0
M  V30 2954 H 279.221 1.59318 -3.30172 0
M  V30 2955 H 278.869 4.04885 -2.98458 0
M  V30 2956 H 278.569 3.56344 -4.67218 0
M  V30 2957 H 280.093 4.39112 -4.2428 0
M  V30 2958 H 281.507 2.34593 -5.23105 0
M  V30 2959 H 279.904 1.74229 -5.74251 0
M  V30 2960 H 280.974 0.689007 -4.7998 0
M  V30 2961 N 282.317 1.53212 0.369288 0
M  V30 2962 C 283.247 1.82365 1.45826 0
M  V30 2963 C 284.228 0.676907 1.56051 0
M  V30 2964 O 285.413 0.926401 1.70679 0
M  V30 2965 C 282.543 2.01023 2.83208 0
M  V30 2966 C 281.497 3.1678 2.8781 0
M  V30 2967 C 280.823 3.20724 4.27832 0
M  V30 2968 C 282.123 4.55447 2.55667 0
M  V30 2969 H 283.817 2.73559 1.21678 0
M  V30 2970 H 281.363 1.3163 0.583911 0
M  V30 2971 H 283.316 2.20001 3.59413 0
M  V30 2972 H 282.04 1.06536 3.08736 0
M  V30 2973 H 280.699 2.97616 2.14056 0
M  V30 2974 H 280.347 2.23882 4.50429 0
M  V30 2975 H 280.047 3.98496 4.31827 0
M  V30 2976 H 281.571 3.41881 5.05915 0
M  V30 2977 H 282.985 4.74611 3.21586 0
M  V30 2978 H 281.382 5.35432 2.70984 0
M  V30 2979 H 282.452 4.60812 1.5093 0
M  V30 2980 N 283.795 -0.628877 1.44509 0
M  V30 2981 C 285.035 -1.39993 1.48934 0
M  V30 2982 C 285.399 -1.91627 0.119604 0
M  V30 2983 O 286.6 -2.68772 0.0385283 0
M  V30 2984 C 284.871 -2.53241 2.52198 0
M  V30 2985 S 286.43 -3.41383 2.75687 0
M  V30 2986 H 283.248 -0.477558 0.526744 0
M  V30 2987 H 285.85 -0.727804 1.81448 0
M  V30 2988 H 284.554 -2.13622 3.50419 0
M  V30 2989 H 284.085 -3.25278 2.21264 0
M  V30 2990 H 286.1 -4.50752 2.07453 0
M  V30 2991 N 285.273 -1.31445 -0.869486 0
M  V30 2992 C 286.498 -1.24256 -1.66058 0
M  V30 2993 C 286.923 0.188928 -1.87149 0
M  V30 2994 O 286.281 1.13522 -1.4136 0
M  V30 2995 C 286.329 -1.9924 -3.00559 0
M  V30 2996 O 285.433 -1.33007 -3.90362 0
M  V30 2997 H 284.774 -0.428973 -0.506831 0
M  V30 2998 H 287.304 -1.73521 -1.08404 0
M  V30 2999 H 287.314 -2.08854 -3.50491 0
M  V30 3000 H 285.989 -3.03342 -2.84528 0
M  V30 3001 H 284.566 -1.31848 -3.48813 0
M  V30 3002 N 286.751 1.08385 -1.14413 0
M  V30 3003 C 287.714 2.13486 -0.834048 0
M  V30 3004 C 288.714 1.59988 0.161418 0
M  V30 3005 O 289.904 1.74071 -0.0669575 0
M  V30 3006 C 287.036 3.4003 -0.243354 0
M  V30 3007 H 288.229 2.42425 -1.7655 0
M  V30 3008 H 285.782 1.24101 -0.950189 0
M  V30 3009 H 286.517 3.16726 0.696807 0
M  V30 3010 H 286.302 3.80157 -0.960367 0
M  V30 3011 H 287.792 4.17577 -0.0436242 0
M  V30 3012 N 288.23 0.939286 1.26551 0
M  V30 3013 C 289.14 0.453432 2.30176 0
M  V30 3014 C 290.156 -0.471649 1.67486 0
M  V30 3015 O 291.332 -0.35164 1.98306 0
M  V30 3016 C 288.397 -0.275326 3.45605 0
M  V30 3017 C 287.458 0.686084 4.23782 0
M  V30 3018 C 286.691 -0.00798994 5.33699 0
M  V30 3019 O 286.914 -1.22528 5.57085 0
M  V30 3020 O 285.848 0.669746 5.98162 0
M  V30 3021 H 289.674 1.31416 2.73795 0
M  V30 3022 H 287.259 0.705095 1.31715 0
M  V30 3023 H 289.141 -0.685911 4.1578 0
M  V30 3024 H 287.816 -1.11147 3.0402 0
M  V30 3025 H 286.723 1.14658 3.56096 0
M  V30 3026 H 288.056 1.48979 4.69112 0
M  V30 3027 N 289.708 -1.40897 0.706093 0
M  V30 3028 C 290.638 -2.33418 0.0620085 0
M  V30 3029 C 291.619 -1.52385 -0.755827 0
M  V30 3030 O 292.804 -1.80886 -0.706674 0
M  V30 3031 C 289.934 -3.36293 -0.867445 0
M  V30 3032 C 288.888 -4.27716 -0.155932 0
M  V30 3033 C 288.214 -5.2105 -1.20046 0
M  V30 3034 C 289.514 -5.12944 0.984149 0
M  V30 3035 H 291.208 -2.87527 0.83477 0
M  V30 3036 H 288.754 -1.38249 0.402875 0
M  V30 3037 H 290.707 -3.99949 -1.32735 0
M  V30 3038 H 289.431 -2.80556 -1.67199 0
M  V30 3039 H 288.09 -3.65498 0.284047 0
M  V30 3040 H 287.738 -4.61624 -1.99781 0
M  V30 3041 H 287.438 -5.83056 -0.729328 0
M  V30 3042 H 288.962 -5.87584 -1.66066 0
M  V30 3043 H 290.376 -5.70109 0.604048 0
M  V30 3044 H 288.773 -5.83945 1.38304 0
M  V30 3045 H 289.843 -4.49485 1.81911 0
M  V30 3046 N 291.186 -0.45159 -1.50991 0
M  V30 3047 C 292.411 0.110667 -2.07105 0
M  V30 3048 C 292.836 1.3446 -1.31538 0
M  V30 3049 O 292.194 1.77743 -0.357365 0
M  V30 3050 C 292.242 0.397238 -3.58405 0
M  V30 3051 O 291.346 1.48124 -3.84881 0
M  V30 3052 H 290.687 -0.00439271 -0.663985 0
M  V30 3053 H 293.217 -0.637026 -1.9443 0
M  V30 3054 H 293.227 0.64351 -4.02893 0
M  V30 3055 H 291.902 -0.504553 -4.12828 0
M  V30 3056 H 290.479 1.22381 -3.52246 0
M  V30 3057 N 292.664 1.56529 -0.183458 0
M  V30 3058 C 293.574 2.22144 0.754272 0
M  V30 3059 C 294.59 1.21684 1.24374 0
M  V30 3060 O 295.766 1.54385 1.29333 0
M  V30 3061 C 292.831 2.85884 1.96141 0
M  V30 3062 C 291.892 4.01579 1.51765 0
M  V30 3063 C 291.125 4.6227 2.66725 0
M  V30 3064 O 291.348 4.21865 3.83909 0
M  V30 3065 O 290.282 5.51936 2.40104 0
M  V30 3066 H 294.108 3.02861 0.225527 0
M  V30 3067 H 291.693 1.49331 0.0453032 0
M  V30 3068 H 293.575 3.26253 2.66715 0
M  V30 3069 H 292.25 2.08154 2.47899 0
M  V30 3070 H 291.157 3.65856 0.781049 0
M  V30 3071 H 292.49 4.80938 1.04686 0
M  V30 3072 N 294.142 -0.090211 1.57342 0
M  V30 3073 C 295.389 -0.792807 1.86335 0
M  V30 3074 C 295.717 -1.78494 0.772662 0
M  V30 3075 O 294.972 -1.94305 -0.233258 0
M  V30 3076 C 295.271 -1.55222 3.21933 0
M  V30 3077 C 294.937 -0.701765 4.45406 0
M  V30 3078 C 293.599 -0.467334 4.78925 0
M  V30 3079 C 295.951 -0.11086 5.21082 0
M  V30 3080 C 293.279 0.367785 5.85546 0
M  V30 3081 C 295.631 0.711609 6.28585 0
M  V30 3082 C 294.295 0.956086 6.60617 0
M  V30 3083 H 293.565 -0.290109 0.681849 0
M  V30 3084 H 296.212 -0.0541332 1.91423 0
M  V30 3085 H 294.517 -2.3626 3.12551 0
M  V30 3086 H 296.214 -2.10032 3.41595 0
M  V30 3087 H 292.804 -0.894598 4.1916 0
M  V30 3088 H 296.988 -0.279129 4.95514 0
M  V30 3089 H 292.244 0.566128 6.08773 0
M  V30 3090 H 296.418 1.17632 6.86393 0
M  V30 3091 H 294.045 1.60499 7.43064 0
M  V30 3092 N 295.62 -1.53406 -0.361157 0
M  V30 3093 C 296.848 -1.73717 -1.12383 0
M  V30 3094 C 297.263 -0.468161 -1.82904 0
M  V30 3095 O 296.62 0.559198 -1.73722 0
M  V30 3096 C 296.671 -2.90558 -2.15078 0
M  V30 3097 O 296.392 -4.12549 -1.47428 0
M  V30 3098 C 297.893 -3.22777 -3.03858 0
M  V30 3099 H 295.113 -0.580896 -0.335858 0
M  V30 3100 H 297.657 -2.00167 -0.418728 0
M  V30 3101 H 295.812 -2.66489 -2.8118 0
M  V30 3102 H 296.226 -4.78009 -2.15887 0
M  V30 3103 H 297.7 -4.07927 -3.71887 0
M  V30 3104 H 298.177 -2.38329 -3.68912 0
M  V30 3105 H 298.783 -3.48787 -2.43367 0
M  V30 3106 N 297.098 0.621204 -1.44841 0
M  V30 3107 C 298.326 1.40752 -1.51646 0
M  V30 3108 C 298.741 1.88246 -0.144549 0
M  V30 3109 O 298.098 1.61422 0.851416 0
M  V30 3110 C 298.149 2.62119 -2.4895 0
M  V30 3111 O 297.87 2.16602 -3.80808 0
M  V30 3112 C 299.371 3.55135 -2.65319 0
M  V30 3113 H 296.591 0.431325 -0.514004 0
M  V30 3114 H 299.135 0.758835 -1.899 0
M  V30 3115 H 297.29 3.23058 -2.13805 0
M  V30 3116 H 297.704 2.95358 -4.33433 0
M  V30 3117 H 299.178 4.36874 -3.37409 0
M  V30 3118 H 299.655 4.04592 -1.70886 0
M  V30 3119 H 300.261 3.00058 -3.01405 0
M  V30 3120 N 298.576 1.31904 0.862503 0
M  V30 3121 C 299.822 1.22197 1.61851 0
M  V30 3122 C 300.155 -0.217641 1.92977 0
M  V30 3123 O 299.43 -1.15264 1.56666 0
M  V30 3124 C 299.713 2.07378 2.94391 0
M  V30 3125 C 299.566 3.59678 2.70096 0
M  V30 3126 C 300.885 1.92891 3.95577 0
M  V30 3127 H 298.004 0.445255 0.587296 0
M  V30 3128 H 300.646 1.6177 0.99651 0
M  V30 3129 H 298.796 1.73758 3.47477 0
M  V30 3130 H 300.468 4.03472 2.23625 0
M  V30 3131 H 298.711 3.82735 2.04197 0
M  V30 3132 H 299.382 4.14595 3.64438 0
M  V30 3133 H 301.858 2.22327 3.51724 0
M  V30 3134 H 300.734 2.54781 4.86187 0
M  V30 3135 H 300.995 0.894315 4.3296 0
M  V30 3136 N 300.054 -1.07777 1.14986 0
M  V30 3137 C 301.3 -1.80557 0.923422 0
M  V30 3138 C 301.633 -1.86298 -0.548337 0
M  V30 3139 O 300.908 -1.34354 -1.40639 0
M  V30 3140 C 301.191 -3.25839 1.53299 0
M  V30 3141 C 301.044 -3.28269 3.07505 0
M  V30 3142 C 302.363 -4.22991 1.21518 0
M  V30 3143 H 299.482 -0.655493 0.336894 0
M  V30 3144 H 302.124 -1.26144 1.42083 0
M  V30 3145 H 300.274 -3.72306 1.10999 0
M  V30 3146 H 301.946 -2.90079 3.58681 0
M  V30 3147 H 300.189 -2.67355 3.4162 0
M  V30 3148 H 300.86 -4.30691 3.45266 0
M  V30 3149 H 303.336 -3.84894 1.581 0
M  V30 3150 H 302.212 -5.22945 1.66793 0
M  V30 3151 H 302.473 -4.41904 0.131505 0
M  V30 3152 N 301.532 -0.945985 -1.26051 0
M  V30 3153 C 302.78 -0.594941 -1.93145 0
M  V30 3154 C 303.101 0.86953 -1.7454 0
M  V30 3155 O 302.371 1.61838 -1.10387 0
M  V30 3156 H 300.951 -0.217044 -0.714773 0
M  V30 3157 H 303.613 -1.20235 -1.53393 0
M  V30 3158 H 302.709 -0.816835 -3.01221 0
M  V30 3159 N 303.011 1.40521 -0.713556 0
M  V30 3160 C 303.959 2.32549 -0.0485227 0
M  V30 3161 C 304.953 1.51931 0.74922 0
M  V30 3162 O 306.159 1.67745 0.652816 0
M  V30 3163 H 302.534 0.751994 0.00311138 0
M  V30 3164 H 304.505 2.86291 -0.841443 0
M  V30 3165 C 303.254 3.36879 0.860687 0
M  V30 3166 H 302.577 3.98978 0.256246 0
M  V30 3167 H 304.017 4.03772 1.294 0
M  V30 3168 C 302.476 2.72197 1.9852 0
M  V30 3169 O 303.006 2.5837 3.07584 0
M  V30 3170 N 301.212 2.30612 1.76823 0
M  V30 3171 H 300.759 2.42059 0.881217 0
M  V30 3172 H 300.717 1.87672 2.52243 0
M  V30 3173 N 304.489 0.459591 1.5075 0
M  V30 3174 C 305.717 -0.0973749 2.06671 0
M  V30 3175 C 306.132 -1.34524 1.32472 0
M  V30 3176 O 305.489 -1.7827 0.390634 0
M  V30 3177 C 305.54 -0.39714 3.59312 0
M  V30 3178 O 305.261 0.801214 4.30711 0
M  V30 3179 C 306.762 -1.00234 4.31819 0
M  V30 3180 H 303.982 0.00195854 0.670997 0
M  V30 3181 H 306.526 0.645072 1.94059 0
M  V30 3182 H 304.681 -1.08951 3.71764 0
M  V30 3183 H 305.095 0.538857 5.21725 0
M  V30 3184 H 306.569 -1.16193 5.39632 0
M  V30 3185 H 307.046 -1.98939 3.91561 0
M  V30 3186 H 307.652 -0.348699 4.23868 0
M  V30 3187 N 305.967 -1.56429 0.191757 0
M  V30 3188 C 306.9 -2.14829 -0.76967 0
M  V30 3189 C 307.878 -1.08405 -1.2119 0
M  V30 3190 O 309.062 -1.36498 -1.30002 0
M  V30 3191 C 306.189 -2.70446 -2.03903 0
M  V30 3192 C 305.235 -3.89428 -1.7392 0
M  V30 3193 S 306.068 -5.28048 -0.890265 0
M  V30 3194 C 307.224 -5.87085 -2.16984 0
M  V30 3195 H 307.457 -2.96042 -0.273204 0
M  V30 3196 H 304.99 -1.54383 -0.0231975 0
M  V30 3197 H 306.948 -3.03134 -2.76803 0
M  V30 3198 H 305.609 -1.89281 -2.50662 0
M  V30 3199 H 304.802 -4.26742 -2.68155 0
M  V30 3200 H 304.404 -3.57732 -1.09103 0
M  V30 3201 H 306.696 -6.01244 -3.12269 0
M  V30 3202 H 307.639 -6.83747 -1.84108 0
M  V30 3203 H 308.047 -5.15663 -2.29678 0
M  V30 3204 N 307.445 0.0818655 -1.57387 0
M  V30 3205 C 308.685 0.788375 -1.88584 0
M  V30 3206 C 309.049 1.75248 -0.784351 0
M  V30 3207 O 310.25 2.50334 -0.979105 0
M  V30 3208 C 308.521 1.48654 -3.25018 0
M  V30 3209 S 310.08 2.22951 -3.7794 0
M  V30 3210 H 306.898 0.262383 -0.660815 0
M  V30 3211 H 309.5 0.0448995 -1.95448 0
M  V30 3212 H 308.204 0.770919 -4.03094 0
M  V30 3213 H 307.735 2.26965 -3.21326 0
M  V30 3214 H 309.75 3.49309 -3.52417 0
M  V30 3215 N 308.923 1.53595 0.353017 0
M  V30 3216 C 310.151 1.74311 1.1146 0
M  V30 3217 C 310.566 0.477854 1.82653 0
M  V30 3218 O 309.923 -0.549977 1.74016 0
M  V30 3219 C 309.974 2.91694 2.13534 0
M  V30 3220 O 309.695 4.13325 1.45238 0
M  V30 3221 C 311.196 3.24384 3.02142 0
M  V30 3222 H 308.416 0.582669 0.332773 0
M  V30 3223 H 310.96 2.00386 0.408107 0
M  V30 3224 H 309.115 2.67977 2.79763 0
M  V30 3225 H 309.529 4.79148 2.13349 0
M  V30 3226 H 311.003 4.09893 3.69718 0
M  V30 3227 H 311.48 2.40282 3.67643 0
M  V30 3228 H 312.086 3.50073 2.41514 0
M  V30 3229 N 310.401 -0.613514 1.45168 0
M  V30 3230 C 311.331 -1.7354 1.56225 0
M  V30 3231 C 312.312 -1.64981 0.41414 0
M  V30 3232 O 313.497 -1.83472 0.636526 0
M  V30 3233 C 310.627 -3.12128 1.52295 0
M  V30 3234 C 309.581 -3.35491 2.65762 0
M  V30 3235 C 308.907 -4.74291 2.46885 0
M  V30 3236 C 310.207 -3.26325 4.0781 0
M  V30 3237 H 311.901 -1.64543 2.50132 0
M  V30 3238 H 309.447 -0.790185 1.20383 0
M  V30 3239 H 311.4 -3.90404 1.58628 0
M  V30 3240 H 310.124 -3.2195 0.549139 0
M  V30 3241 H 308.783 -2.59603 2.58847 0
M  V30 3242 H 308.431 -4.80839 1.47657 0
M  V30 3243 H 308.131 -4.9088 3.22972 0
M  V30 3244 H 309.655 -5.54775 2.55063 0
M  V30 3245 H 311.069 -3.94483 4.16 0
M  V30 3246 H 309.466 -3.54445 4.8424 0
M  V30 3247 H 310.536 -2.23855 4.30136 0
M  V30 3248 N 311.879 -1.3236 -0.855495 0
M  V30 3249 C 313.156 -1.13491 -1.59309 0
M  V30 3250 C 313.536 0.30503 -2.08885 0
M  V30 3251 O 312.884 1.30151 -1.87811 0
M  V30 3252 C 313.094 -2.16176 -2.73987 0
M  V30 3253 C 314.442 -2.49463 -3.43589 0
M  V30 3254 O 315.466 -2.14715 -2.84211 0
M  V30 3255 O 314.325 -3.09027 -4.50738 0
M  V30 3256 H 311.419 -0.437887 -0.701559 0
M  V30 3257 H 313.965 -1.43887 -0.899696 0
M  V30 3258 H 312.737 -3.1297 -2.34873 0
M  V30 3259 H 312.36 -1.86769 -3.51003 0
M  V30 3260 N 313.357 1.07166 -1.15556 0
M  V30 3261 C 314.604 1.79798 -0.931604 0
M  V30 3262 C 314.932 1.8682 0.54115 0
M  V30 3263 O 314.187 1.34942 1.41736 0
M  V30 3264 C 314.486 3.24707 -1.49332 0
M  V30 3265 C 314.152 3.37781 -2.98688 0
M  V30 3266 C 312.814 3.41057 -3.39461 0
M  V30 3267 C 315.166 3.40424 -3.94665 0
M  V30 3268 C 312.494 3.4458 -4.74849 0
M  V30 3269 C 314.846 3.45485 -5.29927 0
M  V30 3270 C 313.51 3.47039 -5.70193 0
M  V30 3271 H 312.78 0.657928 -0.340898 0
M  V30 3272 H 315.427 1.26091 -1.44129 0
M  V30 3273 H 313.732 3.81208 -0.904859 0
M  V30 3274 H 315.429 3.79486 -1.29582 0
M  V30 3275 H 312.019 3.35932 -2.66172 0
M  V30 3276 H 316.203 3.37113 -3.64237 0
M  V30 3277 H 311.459 3.44083 -5.05388 0
M  V30 3278 H 315.633 3.46476 -6.04092 0
M  V30 3279 H 313.26 3.49522 -6.75084 0
M  V30 3280 N 314.835 0.952656 1.25548 0
M  V30 3281 C 316.065 0.622592 1.96996 0
M  V30 3282 C 316.473 -0.809112 1.71026 0
M  V30 3283 O 315.816 -1.55258 0.981861 0
M  V30 3284 C 315.878 0.798946 3.5051 0
M  V30 3285 C 315.542 2.20744 4.00151 0
M  V30 3286 C 316.539 3.18394 4.11001 0
M  V30 3287 C 314.224 2.5311 4.33867 0
M  V30 3288 C 316.218 4.46504 4.54877 0
M  V30 3289 C 313.905 3.8145 4.7743 0
M  V30 3290 C 314.903 4.77959 4.87897 0
M  V30 3291 O 314.591 6.04012 5.30494 0
M  V30 3292 H 314.323 0.232503 0.634758 0
M  V30 3293 H 316.877 1.2789 1.60728 0
M  V30 3294 H 315.107 0.0854903 3.86605 0
M  V30 3295 H 316.796 0.47023 4.03167 0
M  V30 3296 H 317.562 2.94715 3.85186 0
M  V30 3297 H 313.441 1.78719 4.24948 0
M  V30 3298 H 316.985 5.21835 4.62962 0
M  V30 3299 H 312.882 4.04936 5.0269 0
M  V30 3300 H 313.65 6.0736 5.48685 0
M  V30 3301 N 316.313 -1.40141 0.720998 0
M  V30 3302 C 317.223 -2.34486 0.0731031 0
M  V30 3303 C 318.239 -1.57587 -0.737723 0
M  V30 3304 O 319.415 -1.89949 -0.669429 0
M  V30 3305 C 316.48 -3.36528 -0.833656 0
M  V30 3306 C 315.541 -4.29298 -0.0121673 0
M  V30 3307 C 314.774 -5.26466 -0.875742 0
M  V30 3308 O 314.997 -5.29745 -2.11485 0
M  V30 3309 O 313.931 -6.01092 -0.31185 0
M  V30 3310 H 317.757 -2.9152 0.851444 0
M  V30 3311 H 315.342 -1.41427 0.481527 0
M  V30 3312 H 317.224 -3.99093 -1.35289 0
M  V30 3313 H 315.899 -2.81899 -1.59105 0
M  V30 3314 H 314.806 -3.70001 0.552262 0
M  V30 3315 H 316.139 -4.87094 0.707129 0
M  V30 3316 N 317.792 -0.46758 -1.50504 0
M  V30 3317 C 319.04 0.0884469 -2.01906 0
M  V30 3318 C 319.361 1.40532 -1.35188 0
M  V30 3319 O 318.631 1.89515 -0.496079 0
M  V30 3320 H 317.211 0.0356765 -0.746148 0
M  V30 3321 H 319.873 -0.6172 -1.84869 0
M  V30 3322 H 318.969 0.2425 -3.11156 0
M  V30 3323 N 319.27 1.56325 -0.20005 0
M  V30 3324 C 320.202 2.16555 0.750771 0
M  V30 3325 C 321.215 1.12871 1.1732 0
M  V30 3326 O 322.404 1.39943 1.10807 0
M  V30 3327 C 319.504 2.71684 2.02586 0
M  V30 3328 C 318.677 4.00321 1.76244 0
M  V30 3329 C 317.736 4.40227 2.88248 0
M  V30 3330 O 316.762 5.07552 2.57642 0
M  V30 3331 N 317.964 4.04138 4.16717 0
M  V30 3332 H 320.729 2.98772 0.235685 0
M  V30 3333 H 318.29 1.6189 -0.0182594 0
M  V30 3334 H 320.282 2.95363 2.76664 0
M  V30 3335 H 318.852 1.93893 2.45202 0
M  V30 3336 H 318.072 3.84723 0.85919 0
M  V30 3337 H 319.36 4.84279 1.56048 0
M  V30 3338 H 318.758 3.49993 4.44434 0
M  V30 3339 H 317.315 4.32756 4.87407 0
M  V30 3340 N 320.748 -0.0735177 1.57428 0
M  V30 3341 C 321.996 -0.771472 1.86796 0
M  V30 3342 C 322.317 -1.78201 0.791804 0
M  V30 3343 O 321.587 -1.95074 -0.179718 0
M  V30 3344 H 320.167 -0.28791 0.689287 0
M  V30 3345 H 322.829 -0.0500161 1.94836 0
M  V30 3346 H 321.925 -1.28874 2.8425 0
M  V30 3347 N 322.226 -1.5378 -0.344866 0
M  V30 3348 C 323.642 -1.44015 -0.687888 0
M  V30 3349 C 323.842 -0.595834 -1.92489 0
M  V30 3350 O 322.898 -0.0863064 -2.52352 0
M  V30 3351 C 324.211 -2.87481 -0.881758 0
M  V30 3352 C 325.759 -2.97247 -0.980459 0
M  V30 3353 C 326.234 -4.41819 -1.20665 0
M  V30 3354 N 327.725 -4.45339 -1.27389 0
M  V30 3355 C 328.46 -5.54333 -1.46639 0
M  V30 3356 N 327.956 -6.73335 -1.63071 0
M  V30 3357 N 329.749 -5.41944 -1.49176 0
M  V30 3358 H 321.9 -2.07169 0.468475 0
M  V30 3359 H 324.163 -0.93643 0.147655 0
M  V30 3360 H 323.869 -3.51672 -0.0443444 0
M  V30 3361 H 323.743 -3.32352 -1.78388 0
M  V30 3362 H 326.13 -2.33197 -1.8084 0
M  V30 3363 H 326.211 -2.5574 -0.0552713 0
M  V30 3364 H 325.855 -5.06449 -0.383652 0
M  V30 3365 H 325.785 -4.80917 -2.14539 0
M  V30 3366 H 328.276 -3.59585 -1.1622 0
M  V30 3367 H 328.589 -7.52165 -1.77391 0
M  V30 3368 H 326.934 -6.76282 -1.60209 0
M  V30 3369 H 330.125 -4.47932 -1.3592 0
M  V30 3370 H 330.298 -6.26946 -1.63837 0
M  V30 3371 N 323.704 0.605807 -1.45491 0
M  V30 3372 C 324.634 1.72709 -1.57143 0
M  V30 3373 C 325.615 1.6476 -0.422884 0
M  V30 3374 O 326.8 1.83132 -0.646247 0
M  V30 3375 C 323.93 3.11316 -1.53948 0
M  V30 3376 C 322.884 3.34077 -2.67537 0
M  V30 3377 C 322.21 4.72975 -2.49397 0
M  V30 3378 C 323.51 3.24158 -4.09535 0
M  V30 3379 H 325.204 1.63214 -2.51001 0
M  V30 3380 H 322.75 0.78379 -1.208 0
M  V30 3381 H 324.703 3.89557 -1.60696 0
M  V30 3382 H 323.427 3.21655 -0.566205 0
M  V30 3383 H 322.086 2.58227 -2.6022 0
M  V30 3384 H 321.734 4.8005 -1.50205 0
M  V30 3385 H 321.434 4.8916 -3.25571 0
M  V30 3386 H 322.958 5.53414 -2.58002 0
M  V30 3387 H 324.372 3.92271 -4.18086 0
M  V30 3388 H 322.769 3.51872 -4.86113 0
M  V30 3389 H 323.839 2.2157 -4.31317 0
M  V30 3390 N 325.182 1.32811 0.848464 0
M  V30 3391 C 326.459 1.14334 1.58704 0
M  V30 3392 C 326.839 -0.293948 2.09043 0
M  V30 3393 O 326.187 -1.29153 1.88499 0
M  V30 3394 C 326.397 2.17626 2.72837 0
M  V30 3395 C 327.745 2.51282 3.42261 0
M  V30 3396 O 328.769 2.16219 2.83068 0
M  V30 3397 O 327.628 3.11413 4.49093 0
M  V30 3398 H 324.722 0.441601 0.699226 0
M  V30 3399 H 327.268 1.44362 0.892053 0
M  V30 3400 H 326.04 3.14211 2.3321 0
M  V30 3401 H 325.663 1.88628 3.50008 0
M  V30 3402 N 326.66 -1.06551 1.16123 0
M  V30 3403 C 327.908 -1.78947 0.939267 0
M  V30 3404 C 328.229 -1.87532 -0.534476 0
M  V30 3405 O 327.499 -1.38211 -1.38833 0
M  V30 3406 H 326.079 -0.662807 0.344523 0
M  V30 3407 H 328.741 -1.28725 1.46342 0
M  V30 3408 H 327.837 -2.81117 1.35572 0
M  V30 3409 N 328.138 -0.959301 -1.25041 0
M  V30 3410 C 329.101 -0.487677 -2.23952 0
M  V30 3411 C 330.101 0.41119 -1.55454 0
M  V30 3412 O 331.291 0.207825 -1.72956 0
M  V30 3413 C 328.423 0.294807 -3.39623 0
M  V30 3414 H 329.616 -1.36198 -2.67189 0
M  V30 3415 H 327.169 -0.743042 -1.37508 0
M  V30 3416 H 327.904 1.18658 -3.01813 0
M  V30 3417 H 327.689 -0.35012 -3.90534 0
M  V30 3418 H 329.179 0.614089 -4.1306 0
M  V30 3419 N 329.616 1.39756 -0.72842 0
M  V30 3420 C 330.546 2.33289 -0.0991354 0
M  V30 3421 C 331.527 1.53568 0.731489 0
M  V30 3422 O 332.712 1.81987 0.677807 0
M  V30 3423 C 329.842 3.3763 0.813834 0
M  V30 3424 C 328.796 4.2791 0.0878663 0
M  V30 3425 C 328.122 5.22894 1.11741 0
M  V30 3426 C 329.422 5.11314 -1.06563 0
M  V30 3427 H 331.116 2.86163 -0.880408 0
M  V30 3428 H 328.662 1.37591 -0.424819 0
M  V30 3429 H 330.615 4.0201 1.26355 0
M  V30 3430 H 329.339 2.83181 1.62715 0
M  V30 3431 H 327.998 3.65 -0.342159 0
M  V30 3432 H 327.646 4.64744 1.92412 0
M  V30 3433 H 327.346 5.84143 0.636477 0
M  V30 3434 H 328.87 5.90151 1.56697 0
M  V30 3435 H 330.284 5.69076 -0.694671 0
M  V30 3436 H 328.681 5.81671 -1.47577 0
M  V30 3437 H 329.751 4.46534 -1.89038 0
M  V30 3438 N 331.094 0.475555 1.50254 0
M  V30 3439 C 332.334 -0.0765802 2.04256 0
M  V30 3440 C 332.698 -1.36587 1.34937 0
M  V30 3441 O 333.899 -2.00066 1.79519 0
M  V30 3442 C 332.17 -0.251668 3.56513 0
M  V30 3443 S 333.729 -0.761716 4.32138 0
M  V30 3444 H 330.547 -0.0138456 0.710865 0
M  V30 3445 H 333.149 0.643714 1.84598 0
M  V30 3446 H 331.853 0.692404 4.04517 0
M  V30 3447 H 331.384 -0.997946 3.80532 0
M  V30 3448 H 333.399 -2.03451 4.52573 0
M  V30 3449 N 332.573 -1.56217 0.208337 0
M  V30 3450 C 333.798 -2.02782 -0.435222 0
M  V30 3451 C 334.223 -1.08738 -1.53485 0
M  V30 3452 O 333.581 -0.0731855 -1.81152 0
M  V30 3453 C 333.629 -3.47687 -0.956335 0
M  V30 3454 O 332.733 -3.56773 -2.06849 0
M  V30 3455 H 332.074 -0.656403 -0.100158 0
M  V30 3456 H 334.604 -2.02033 0.3231 0
M  V30 3457 H 334.614 -3.87745 -1.26955 0
M  V30 3458 H 333.289 -4.15624 -0.15143 0
M  V30 3459 H 331.866 -3.28597 -1.76292 0
M  V30 3460 N 334.051 0.0651679 -1.57465 0
M  V30 3461 C 335.281 0.774683 -1.91526 0
M  V30 3462 C 335.689 1.71305 -0.803196 0
M  V30 3463 O 335.032 1.82231 0.231881 0
M  V30 3464 C 335.094 1.61645 -3.21109 0
M  V30 3465 C 334.758 0.846753 -4.49087 0
M  V30 3466 C 335.755 0.163024 -5.19644 0
M  V30 3467 C 333.44 0.811966 -4.95694 0
M  V30 3468 C 335.434 -0.54519 -6.35064 0
M  V30 3469 C 333.121 0.0999836 -6.11018 0
M  V30 3470 C 334.119 -0.577388 -6.80555 0
M  V30 3471 O 333.807 -1.27789 -7.93678 0
M  V30 3472 H 333.539 0.225031 -0.637446 0
M  V30 3473 H 336.093 0.0377134 -2.05365 0
M  V30 3474 H 334.323 2.39638 -3.03497 0
M  V30 3475 H 336.012 2.20525 -3.40769 0
M  V30 3476 H 336.778 0.181163 -4.84662 0
M  V30 3477 H 332.657 1.32867 -4.41438 0
M  V30 3478 H 336.201 -1.07446 -6.89276 0
M  V30 3479 H 332.098 0.0797945 -6.45451 0
M  V30 3480 H 332.866 -1.18784 -8.09835 0
M  V30 3481 N 335.529 1.53961 0.336706 0
M  V30 3482 C 336.757 1.75483 1.09605 0
M  V30 3483 C 337.172 0.4972 1.82136 0
M  V30 3484 O 336.529 -0.53149 1.74589 0
M  V30 3485 C 336.58 2.93943 2.10428 0
M  V30 3486 O 336.301 4.14842 1.40846 0
M  V30 3487 C 337.802 3.27571 2.98684 0
M  V30 3488 H 335.022 0.586166 0.326574 0
M  V30 3489 H 337.566 2.00808 0.38683 0
M  V30 3490 H 335.721 2.70929 2.76905 0
M  V30 3491 H 336.135 4.81383 2.08255 0
M  V30 3492 H 337.609 4.13791 3.6535 0
M  V30 3493 H 338.086 2.44168 3.65074 0
M  V30 3494 H 338.692 3.52615 2.37787 0
M  V30 3495 N 337.007 -0.598083 1.45811 0
M  V30 3496 C 337.917 -1.73632 1.57763 0
M  V30 3497 C 338.933 -1.67763 0.461676 0
M  V30 3498 O 340.109 -1.87949 0.723685 0
M  V30 3499 C 337.174 -3.10114 1.55018 0
M  V30 3500 C 336.235 -3.27364 2.77726 0
M  V30 3501 C 335.468 -4.57334 2.75102 0
M  V30 3502 O 335.691 -5.40258 1.8297 0
M  V30 3503 O 334.625 -4.77502 3.66437 0
M  V30 3504 H 338.451 -1.66498 2.53992 0
M  V30 3505 H 336.036 -0.763308 1.28429 0
M  V30 3506 H 337.918 -3.9141 1.56129 0
M  V30 3507 H 336.593 -3.17718 0.619431 0
M  V30 3508 H 335.5 -2.45619 2.82174 0
M  V30 3509 H 336.833 -3.24641 3.69958 0
M  V30 3510 N 338.485 -1.33259 -0.841409 0
M  V30 3511 C 339.432 -1.23302 -1.95103 0
M  V30 3512 C 340.402 -0.112204 -1.65721 0
M  V30 3513 O 341.587 -0.290038 -1.88583 0
M  V30 3514 C 338.727 -0.975583 -3.31023 0
M  V30 3515 C 337.84 -2.18243 -3.72819 0
M  V30 3516 C 336.975 -1.85936 -4.97595 0
M  V30 3517 C 336.014 -3.02866 -5.3192 0
M  V30 3518 N 335.151 -2.70565 -6.47873 0
M  V30 3519 H 339.991 -2.18207 -2.02952 0
M  V30 3520 H 337.528 -1.0851 -0.993173 0
M  V30 3521 H 339.486 -0.80677 -4.09325 0
M  V30 3522 H 338.116 -0.0632755 -3.22738 0
M  V30 3523 H 337.168 -2.46107 -2.90061 0
M  V30 3524 H 338.48 -3.05666 -3.94169 0
M  V30 3525 H 337.634 -1.65684 -5.83638 0
M  V30 3526 H 336.373 -0.957452 -4.78209 0
M  V30 3527 H 335.378 -3.23736 -4.44382 0
M  V30 3528 H 336.603 -3.93809 -5.53255 0
M  V30 3529 H 334.549 -1.8293 -6.29978 0
M  V30 3530 H 334.466 -3.51519 -6.69306 0
M  V30 3531 H 335.734 -2.53774 -7.37034 0
M  V30 3532 N 339.963 1.05934 -1.16686 0
M  V30 3533 C 341.24 1.75643 -0.860747 0
M  V30 3534 C 341.62 2.01144 0.640641 0
M  V30 3535 O 340.968 1.64147 1.58959 0
M  V30 3536 C 341.178 3.05493 -1.68745 0
M  V30 3537 C 342.526 3.79581 -1.90271 0
M  V30 3538 O 343.55 3.15344 -1.65641 0
M  V30 3539 O 342.409 4.9499 -2.31618 0
M  V30 3540 H 339.503 0.763426 -0.317977 0
M  V30 3541 H 342.049 1.1217 -1.27342 0
M  V30 3542 H 340.821 2.8264 -2.70611 0
M  V30 3543 H 340.444 3.76702 -1.27206 0
M  V30 3544 N 341.441 0.965919 1.2453 0
M  V30 3545 C 342.388 0.49402 2.25451 0
M  V30 3546 C 343.358 -0.45948 1.59618 0
M  V30 3547 O 344.543 -0.370238 1.87173 0
M  V30 3548 C 341.683 -0.211359 3.44452 0
M  V30 3549 C 340.796 0.7807 4.24887 0
M  V30 3550 C 339.931 0.0516105 5.31175 0
M  V30 3551 C 338.97 1.03385 6.03306 0
M  V30 3552 N 338.107 0.334887 7.01301 0
M  V30 3553 H 342.947 1.35946 2.65184 0
M  V30 3554 H 340.484 0.681515 1.3036 0
M  V30 3555 H 342.442 -0.637 4.12308 0
M  V30 3556 H 341.072 -1.04077 3.05562 0
M  V30 3557 H 340.124 1.32479 3.56586 0
M  V30 3558 H 341.436 1.52978 4.74762 0
M  V30 3559 H 340.59 -0.432114 6.05159 0
M  V30 3560 H 339.329 -0.730179 4.82203 0
M  V30 3561 H 338.334 1.52847 5.28127 0
M  V30 3562 H 339.559 1.81606 6.54367 0
M  V30 3563 H 337.505 -0.427959 6.54603 0
M  V30 3564 H 337.422 1.02287 7.49048 0
M  V30 3565 H 338.69 -0.126928 7.79397 0
M  V30 3566 N 342.919 -1.39368 0.735821 0
M  V30 3567 C 343.851 -2.2913 0.0567723 0
M  V30 3568 C 344.864 -1.46859 -0.702589 0
M  V30 3569 O 346.053 -1.69925 -0.546616 0
M  V30 3570 C 343.153 -3.25492 -0.943823 0
M  V30 3571 C 342.326 -4.36709 -0.24581 0
M  V30 3572 C 341.385 -5.13376 -1.15463 0
M  V30 3573 O 340.411 -5.65683 -0.631803 0
M  V30 3574 N 341.613 -5.24656 -2.48427 0
M  V30 3575 H 344.378 -2.88047 0.827582 0
M  V30 3576 H 341.939 -1.50957 0.585112 0
M  V30 3577 H 343.931 -3.73657 -1.55443 0
M  V30 3578 H 342.501 -2.676 -1.61583 0
M  V30 3579 H 341.721 -3.9041 0.545286 0
M  V30 3580 H 343.009 -5.08244 0.237891 0
M  V30 3581 H 342.407 -4.83679 -2.93379 0
M  V30 3582 H 340.964 -5.76258 -3.04582 0
M  V30 3583 N 344.397 -0.483516 -1.5 0
M  V30 3584 C 345.36 0.292965 -2.2732 0
M  V30 3585 C 346.36 0.909499 -1.32608 0
M  V30 3586 O 347.55 0.776745 -1.55924 0
M  V30 3587 C 344.682 1.41854 -3.09984 0
M  V30 3588 H 345.875 -0.385289 -2.97415 0
M  V30 3589 H 343.428 -0.237942 -1.54478 0
M  V30 3590 H 344.163 2.13148 -2.44414 0
M  V30 3591 H 343.948 0.982114 -3.79601 0
M  V30 3592 H 345.438 1.96597 -3.68429 0
M  V30 3593 N 345.875 1.56104 -0.216619 0
M  V30 3594 C 347.105 2.02269 0.420802 0
M  V30 3595 C 347.513 1.09575 1.5424 0
M  V30 3596 O 346.856 0.0967308 1.83445 0
M  V30 3597 C 346.918 3.44784 1.01806 0
M  V30 3598 C 346.582 4.56988 0.0325154 0
M  V30 3599 C 347.579 5.14225 -0.766055 0
M  V30 3600 C 345.264 5.02228 -0.0848092 0
M  V30 3601 C 347.258 6.15169 -1.6687 0
M  V30 3602 C 344.945 6.03011 -0.990994 0
M  V30 3603 C 345.943 6.59357 -1.78149 0
M  V30 3604 O 345.631 7.58179 -2.67245 0
M  V30 3605 H 345.363 0.667353 0.107776 0
M  V30 3606 H 347.917 2.02747 -0.329034 0
M  V30 3607 H 346.147 3.41359 1.81689 0
M  V30 3608 H 347.836 3.74626 1.56237 0
M  V30 3609 H 348.602 4.80126 -0.685836 0
M  V30 3610 H 344.481 4.58054 0.520349 0
M  V30 3611 H 348.025 6.59076 -2.28615 0
M  V30 3612 H 343.922 6.36532 -1.07225 0
M  V30 3613 H 344.69 7.75682 -2.61265 0
M  V30 3614 N 347.353 -0.0568162 1.57498 0
M  V30 3615 C 348.283 -1.06593 2.0775 0
M  V30 3616 C 349.264 -1.39448 0.974082 0
M  V30 3617 O 350.449 -1.48815 1.24771 0
M  V30 3618 C 347.579 -2.37509 2.5339 0
M  V30 3619 C 346.533 -2.1897 3.67745 0
M  V30 3620 C 345.859 -3.55402 3.99492 0
M  V30 3621 C 347.159 -1.59859 4.97235 0
M  V30 3622 H 348.853 -0.647706 2.9231 0
M  V30 3623 H 346.399 -0.310116 1.40621 0
M  V30 3624 H 348.352 -3.08409 2.87162 0
M  V30 3625 H 347.076 -2.8134 1.65878 0
M  V30 3626 H 345.735 -1.50508 3.3428 0
M  V30 3627 H 345.383 -3.9683 3.09088 0
M  V30 3628 H 345.083 -3.43831 4.76502 0
M  V30 3629 H 346.607 -4.27708 4.35773 0
M  V30 3630 H 348.021 -2.20642 5.29141 0
M  V30 3631 H 346.418 -1.58942 5.78669 0
M  V30 3632 H 347.488 -0.561506 4.81638 0
M  V30 3633 N 348.832 -1.54138 -0.328536 0
M  V30 3634 C 349.742 -1.86192 -1.42723 0
M  V30 3635 C 350.758 -0.753382 -1.56844 0
M  V30 3636 O 351.934 -1.04718 -1.72035 0
M  V30 3637 C 348.999 -2.07824 -2.77507 0
M  V30 3638 C 348.06 -3.31641 -2.72603 0
M  V30 3639 C 347.293 -3.52232 -4.00959 0
M  V30 3640 O 347.516 -2.7636 -4.9898 0
M  V30 3641 O 346.45 -4.45699 -4.0452 0
M  V30 3642 H 350.276 -2.79608 -1.18547 0
M  V30 3643 H 347.861 -1.3998 -0.522104 0
M  V30 3644 H 349.743 -2.23411 -3.57303 0
M  V30 3645 H 348.418 -1.17596 -3.01584 0
M  V30 3646 H 347.325 -3.21444 -1.91376 0
M  V30 3647 H 348.658 -4.2191 -2.53481 0
M  V30 3648 N 350.31 0.590341 -1.46126 0
M  V30 3649 C 351.273 1.68194 -1.55703 0
M  V30 3650 C 352.273 1.54808 -0.434868 0
M  V30 3651 O 353.463 1.59564 -0.698928 0
M  V30 3652 C 350.595 3.07575 -1.47005 0
M  V30 3653 H 351.788 1.61064 -2.52979 0
M  V30 3654 H 349.341 0.807541 -1.33823 0
M  V30 3655 H 350.076 3.20268 -0.509785 0
M  V30 3656 H 349.861 3.187 -2.28414 0
M  V30 3657 H 351.351 3.87055 -1.56776 0
M  V30 3658 N 351.788 1.33704 0.83433 0
M  V30 3659 C 352.751 1.24244 1.92603 0
M  V30 3660 C 353.751 0.160383 1.59998 0
M  V30 3661 O 354.941 0.412228 1.69252 0
M  V30 3662 C 352.073 0.91555 3.28376 0
M  V30 3663 H 353.266 2.21287 2.02416 0
M  V30 3664 H 350.819 1.17827 1.02696 0
M  V30 3665 H 351.554 -0.0521886 3.24258 0
M  V30 3666 H 351.339 1.69811 3.53422 0
M  V30 3667 H 352.829 0.874231 4.08347 0
M  V30 3668 N 353.266 -1.05314 1.17247 0
M  V30 3669 C 354.496 -1.81707 0.983166 0
M  V30 3670 C 354.904 -1.83222 -0.471822 0
M  V30 3671 O 354.247 -1.25721 -1.3394 0
M  V30 3672 C 354.309 -3.29134 1.44606 0
M  V30 3673 C 353.973 -3.51304 2.92292 0
M  V30 3674 C 354.97 -3.4353 3.90235 0
M  V30 3675 C 352.655 -3.78306 3.30439 0
M  V30 3676 C 354.649 -3.62442 5.24323 0
M  V30 3677 C 352.336 -3.96866 4.64694 0
M  V30 3678 C 353.334 -3.88933 5.61445 0
M  V30 3679 O 353.022 -4.06976 6.93272 0
M  V30 3680 H 352.754 -0.579476 0.348114 0
M  V30 3681 H 355.308 -1.33705 1.55924 0
M  V30 3682 H 353.538 -3.78046 0.813537 0
M  V30 3683 H 355.227 -3.87049 1.22262 0
M  V30 3684 H 355.993 -3.22648 3.62109 0
M  V30 3685 H 351.872 -3.83585 2.55702 0
M  V30 3686 H 355.416 -3.56165 5.99827 0
M  V30 3687 H 351.313 -4.1724 4.92525 0
M  V30 3688 H 352.081 -4.24209 6.99992 0
M  V30 3689 N 354.744 -0.972509 -1.24016 0
M  V30 3690 C 355.707 -0.511403 -2.23422 0
M  V30 3691 C 356.707 0.394679 -1.55881 0
M  V30 3692 O 357.897 0.189469 -1.73167 0
M  V30 3693 C 355.029 0.258769 -3.39916 0
M  V30 3694 H 356.222 -1.39024 -2.6573 0
M  V30 3695 H 353.775 -0.757585 -1.36713 0
M  V30 3696 H 354.51 1.1545 -3.03054 0
M  V30 3697 H 354.295 -0.391522 -3.9014 0
M  V30 3698 H 355.785 0.570244 -4.13688 0
M  V30 3699 N 356.222 1.38976 -0.743202 0
M  V30 3700 C 357.185 2.28901 -0.117014 0
M  V30 3701 C 358.185 1.46698 0.658503 0
M  V30 3702 O 359.375 1.67274 0.486305 0
M  V30 3703 C 356.507 3.30309 0.84315 0
M  V30 3704 H 357.7 2.8578 -0.909373 0
M  V30 3705 H 355.253 1.47761 -0.509547 0
M  V30 3706 H 355.988 2.785 1.66157 0
M  V30 3707 H 355.773 3.91029 0.289594 0
M  V30 3708 H 357.263 3.97577 1.2776 0
M  V30 3709 N 357.7 0.491464 1.49741 0
M  V30 3710 C 358.948 -0.0563141 2.02022 0
M  V30 3711 C 359.269 -1.38363 1.37407 0
M  V30 3712 O 358.539 -1.88702 0.526166 0
M  V30 3713 H 357.119 -0.0238014 0.746621 0
M  V30 3714 H 359.781 0.646533 1.83864 0
M  V30 3715 H 358.877 -0.192967 3.11503 0
M  V30 3716 N 359.178 -1.55987 0.224894 0
M  V30 3717 C 360.424 -1.98684 -0.406502 0
M  V30 3718 C 360.757 -1.11248 -1.59177 0
M  V30 3719 O 360.032 -0.170909 -1.93748 0
M  V30 3720 C 360.315 -3.50218 -0.837808 0
M  V30 3721 C 360.168 -4.48426 0.351332 0
M  V30 3722 C 361.487 -4.06243 -1.69278 0
M  V30 3723 H 358.606 -0.722337 -0.146283 0
M  V30 3724 H 361.248 -1.87255 0.321799 0
M  V30 3725 H 359.398 -3.60089 -1.45837 0
M  V30 3726 H 361.07 -4.50562 0.989526 0
M  V30 3727 H 359.313 -4.22159 0.998207 0
M  V30 3728 H 359.984 -5.52 0.00655905 0
M  V30 3729 H 362.46 -3.99337 -1.16914 0
M  V30 3730 H 361.336 -5.12581 -1.96346 0
M  V30 3731 H 361.597 -3.53332 -2.65723 0
M  V30 3732 N 360.656 0.0484629 -1.57525 0
M  V30 3733 C 362.072 0.40375 -1.54409 0
M  V30 3734 C 362.272 1.77786 -0.948384 0
M  V30 3735 O 361.328 2.46189 -0.560983 0
M  V30 3736 C 362.641 0.323394 -2.98956 0
M  V30 3737 C 364.189 0.401892 -3.10409 0
M  V30 3738 C 364.664 0.351195 -4.56652 0
M  V30 3739 N 366.155 0.410576 -4.61377 0
M  V30 3740 C 366.89 0.393933 -5.72045 0
M  V30 3741 N 366.386 0.330724 -6.9201 0
M  V30 3742 N 368.179 0.442227 -5.60358 0
M  V30 3743 H 360.33 -0.851016 -1.94606 0
M  V30 3744 H 362.593 -0.321721 -0.89174 0
M  V30 3745 H 362.299 -0.62011 -3.4619 0
M  V30 3746 H 362.173 1.12463 -3.60044 0
M  V30 3747 H 364.56 1.33582 -2.63134 0
M  V30 3748 H 364.641 -0.428342 -2.52188 0
M  V30 3749 H 364.285 -0.578987 -5.04589 0
M  V30 3750 H 364.215 1.19928 -5.12762 0
M  V30 3751 H 366.706 0.462729 -3.75056 0
M  V30 3752 H 367.019 0.322592 -7.72126 0
M  V30 3753 H 365.364 0.29706 -6.94365 0
M  V30 3754 H 368.555 0.489464 -4.65534 0
M  V30 3755 H 368.728 0.425788 -6.466 0
M  V30 3756 N 362.134 1.5431 0.320358 0
M  V30 3757 C 363.082 1.84647 1.4145 0
M  V30 3758 C 364.076 0.718624 1.53402 0
M  V30 3759 O 365.282 0.902335 1.5575 0
M  V30 3760 H 361.657 0.585349 0.472091 0
M  V30 3761 H 363.628 2.7614 1.13089 0
M  V30 3762 C 362.377 2.09341 2.77617 0
M  V30 3763 H 361.7 2.9559 2.69196 0
M  V30 3764 H 363.14 2.3452 3.53237 0
M  V30 3765 C 361.599 0.885939 3.25043 0
M  V30 3766 O 362.129 0.0967891 4.01583 0
M  V30 3767 N 360.335 0.696682 2.82125 0
M  V30 3768 H 359.882 1.34006 2.2 0
M  V30 3769 H 359.84 -0.109712 3.14209 0
M  V30 3770 N 363.613 -0.582584 1.46437 0
M  V30 3771 C 364.862 -1.337 1.5102 0
M  V30 3772 C 365.175 -1.94891 0.166359 0
M  V30 3773 O 366.381 -2.71351 0.0899954 0
M  V30 3774 C 364.837 -2.42315 2.66104 0
M  V30 3775 C 364.445 -1.87427 4.06909 0
M  V30 3776 C 366.189 -3.19099 2.79958 0
M  V30 3777 C 364.096 -2.93672 5.13333 0
M  V30 3778 H 363.026 -0.502619 0.562041 0
M  V30 3779 H 365.677 -0.621701 1.72647 0
M  V30 3780 H 364.059 -3.16645 2.37807 0
M  V30 3781 H 365.233 -1.19639 4.44998 0
M  V30 3782 H 363.548 -1.2331 3.97723 0
M  V30 3783 H 366.145 -3.9839 3.56636 0
M  V30 3784 H 366.488 -3.71695 1.87479 0
M  V30 3785 H 367.021 -2.51875 3.07902 0
M  V30 3786 H 363.76 -2.45962 6.07604 0
M  V30 3787 H 363.28 -3.59948 4.79789 0
M  V30 3788 H 364.959 -3.5762 5.39182 0
M  V30 3789 N 365.091 -1.34144 -0.827227 0
M  V30 3790 C 366.001 -1.27428 -1.96975 0
M  V30 3791 C 367.017 -0.182728 -1.73038 0
M  V30 3792 O 368.193 -0.408426 -1.97215 0
M  V30 3793 C 365.258 -1.02526 -3.31194 0
M  V30 3794 C 364.319 -2.20796 -3.68168 0
M  V30 3795 C 363.552 -1.97073 -4.95982 0
M  V30 3796 O 363.775 -0.926822 -5.6282 0
M  V30 3797 O 362.709 -2.83912 -5.30733 0
M  V30 3798 H 366.535 -2.23537 -2.05584 0
M  V30 3799 H 364.12 -1.14307 -0.961989 0
M  V30 3800 H 366.002 -0.904026 -4.11589 0
M  V30 3801 H 364.677 -0.0945389 -3.23562 0
M  V30 3802 H 363.584 -2.38477 -2.88235 0
M  V30 3803 H 364.917 -3.12243 -3.8048 0
M  V30 3804 N 366.569 1.04691 -1.17803 0
M  V30 3805 C 367.502 2.12068 -0.842765 0
M  V30 3806 C 368.48 1.61455 0.192608 0
M  V30 3807 O 369.664 1.88359 0.072995 0
M  V30 3808 C 366.791 3.37715 -0.258063 0
M  V30 3809 C 365.837 4.07164 -1.26962 0
M  V30 3810 S 366.67 4.55047 -2.82299 0
M  V30 3811 C 367.826 5.83935 -2.25323 0
M  V30 3812 H 368.059 2.4018 -1.75217 0
M  V30 3813 H 365.592 1.17366 -1.00323 0
M  V30 3814 H 367.55 4.10435 0.0727935 0
M  V30 3815 H 366.211 3.0773 0.629357 0
M  V30 3816 H 365.404 4.9746 -0.809263 0
M  V30 3817 H 365.006 3.40533 -1.54639 0
M  V30 3818 H 367.298 6.57552 -1.63192 0
M  V30 3819 H 368.241 6.34725 -3.13894 0
M  V30 3820 H 368.649 5.3874 -1.68582 0
M  V30 3821 N 368.047 0.979072 1.23499 0
M  V30 3822 C 368.957 0.526431 2.28617 0
M  V30 3823 C 369.973 -0.418126 1.68901 0
M  V30 3824 O 371.149 -0.288372 1.99325 0
M  V30 3825 C 368.214 -0.165235 3.46306 0
M  V30 3826 C 367.275 0.82056 4.21385 0
M  V30 3827 C 366.508 0.161807 5.33455 0
M  V30 3828 O 366.731 -1.04742 5.60701 0
M  V30 3829 O 365.665 0.859708 5.95729 0
M  V30 3830 H 369.491 1.4006 2.69475 0
M  V30 3831 H 367.076 0.746643 1.29405 0
M  V30 3832 H 368.958 -0.553287 4.17752 0
M  V30 3833 H 367.633 -1.01419 3.07402 0
M  V30 3834 H 366.54 1.25929 3.52268 0
M  V30 3835 H 367.873 1.63828 4.64135 0
M  V30 3836 N 369.525 -1.3858 0.750561 0
M  V30 3837 C 370.75 -2.04997 0.314812 0
M  V30 3838 C 371.175 -1.56235 -1.04749 0
M  V30 3839 O 370.533 -0.712981 -1.66692 0
M  V30 3840 C 370.581 -3.58961 0.343415 0
M  V30 3841 O 369.685 -4.07025 -0.663628 0
M  V30 3842 H 369.026 -0.649081 0.139962 0
M  V30 3843 H 371.556 -1.77313 1.02084 0
M  V30 3844 H 371.566 -4.07542 0.193233 0
M  V30 3845 H 370.241 -3.93811 1.33738 0
M  V30 3846 H 368.818 -3.6982 -0.478307 0
M  V30 3847 N 371.003 -0.499398 -1.49478 0
M  V30 3848 C 372.228 0.044722 -2.07352 0
M  V30 3849 C 372.653 1.30207 -1.35749 0
M  V30 3850 O 372.011 1.76516 -0.413732 0
M  V30 3851 C 372.059 0.283013 -3.59488 0
M  V30 3852 O 371.163 1.35804 -3.89398 0
M  V30 3853 H 370.504 -0.0255147 -0.66351 0
M  V30 3854 H 373.034 -0.698561 -1.92305 0
M  V30 3855 H 373.044 0.515007 -4.04737 0
M  V30 3856 H 371.719 -0.635636 -4.11014 0
M  V30 3857 H 370.296 1.11113 -3.55961 0
M  V30 3858 N 372.481 1.55866 -0.233164 0
M  V30 3859 C 373.727 1.98897 0.395959 0
M  V30 3860 C 374.06 1.12091 1.58585 0
M  V30 3861 O 373.335 0.181182 1.93654 0
M  V30 3862 C 373.618 3.50658 0.819224 0
M  V30 3863 C 373.471 4.48233 -0.375109 0
M  V30 3864 C 374.79 4.07135 1.67121 0
M  V30 3865 H 371.909 0.723102 0.142451 0
M  V30 3866 H 374.551 1.87082 -0.331725 0
M  V30 3867 H 372.701 3.60857 1.43925 0
M  V30 3868 H 374.373 4.50031 -1.01341 0
M  V30 3869 H 372.616 4.21624 -1.02058 0
M  V30 3870 H 373.287 5.51988 -0.0358328 0
M  V30 3871 H 375.763 3.99952 1.14795 0
M  V30 3872 H 374.639 5.13615 1.93625 0
M  V30 3873 H 374.9 3.54736 2.63846 0
M  V30 3874 N 373.959 -0.0401083 1.57549 0
M  V30 3875 C 375.206 -0.733125 1.88763 0
M  V30 3876 C 375.534 -1.75946 0.829058 0
M  V30 3877 O 374.789 -1.94949 -0.171323 0
M  V30 3878 C 375.088 -1.44902 3.26708 0
M  V30 3879 C 374.754 -0.559707 4.47413 0
M  V30 3880 C 373.416 -0.314731 4.8017 0
M  V30 3881 C 375.768 0.0549743 5.21171 0
M  V30 3882 C 373.096 0.553886 5.8408 0
M  V30 3883 C 375.448 0.911229 6.26003 0
M  V30 3884 C 374.112 1.16577 6.57241 0
M  V30 3885 H 373.382 -0.268269 0.690733 0
M  V30 3886 H 376.029 0.00679408 1.91499 0
M  V30 3887 H 374.334 -2.26197 3.1991 0
M  V30 3888 H 376.031 -1.99058 3.48105 0
M  V30 3889 H 372.621 -0.760793 4.21794 0
M  V30 3890 H 376.805 -0.121344 4.96152 0
M  V30 3891 H 372.061 0.759518 6.06664 0
M  V30 3892 H 376.235 1.3941 6.82303 0
M  V30 3893 H 373.862 1.84058 7.37582 0
M  V30 3894 N 375.437 -1.54477 -0.31217 0
M  V30 3895 C 376.4 -1.83923 -1.36766 0
M  V30 3896 C 377.4 -0.711563 -1.44199 0
M  V30 3897 O 378.59 -0.979866 -1.44029 0
M  V30 3898 C 375.722 -2.0095 -2.75376 0
M  V30 3899 H 376.915 -2.78239 -1.11906 0
M  V30 3900 H 374.468 -1.46369 -0.548257 0
M  V30 3901 H 375.203 -1.08883 -3.05475 0
M  V30 3902 H 374.988 -2.83018 -2.71373 0
M  V30 3903 H 376.478 -2.2514 -3.51713 0
M  V30 3904 N 376.915 0.57481 -1.46744 0
M  V30 3905 C 377.878 1.66533 -1.57478 0
M  V30 3906 C 378.878 1.54338 -0.451263 0
M  V30 3907 O 380.068 1.58814 -0.715813 0
M  V30 3908 C 377.2 3.05999 -1.50259 0
M  V30 3909 H 378.393 1.58372 -2.54673 0
M  V30 3910 H 375.946 0.793301 -1.34672 0
M  V30 3911 H 376.681 3.19709 -0.543725 0
M  V30 3912 H 376.466 3.16259 -2.31781 0
M  V30 3913 H 377.956 3.8537 -1.60872 0
M  V30 3914 N 378.394 1.34581 0.820102 0
M  V30 3915 C 379.327 1.20735 1.93644 0
M  V30 3916 C 380.305 0.0983343 1.62302 0
M  V30 3917 O 381.489 0.263997 1.86642 0
M  V30 3918 C 378.616 0.856037 3.27704 0
M  V30 3919 C 377.662 1.97521 3.78005 0
M  V30 3920 S 378.495 3.58906 3.97425 0
M  V30 3921 C 379.651 3.25822 5.34407 0
M  V30 3922 H 379.884 2.15231 2.05093 0
M  V30 3923 H 377.417 1.1964 0.97599 0
M  V30 3924 H 379.375 0.660133 4.05157 0
M  V30 3925 H 378.036 -0.0706253 3.14021 0
M  V30 3926 H 377.229 1.68321 4.75062 0
M  V30 3927 H 376.831 2.12875 3.07507 0
M  V30 3928 H 379.123 2.77812 6.17922 0
M  V30 3929 H 380.066 4.22029 5.68592 0
M  V30 3930 H 380.474 2.61932 5.00052 0
M  V30 3931 N 379.872 -1.04064 1.18357 0
M  V30 3932 C 381.112 -1.78829 0.989921 0
M  V30 3933 C 381.476 -1.86106 -0.472095 0
M  V30 3934 O 382.677 -2.57076 -0.785187 0
M  V30 3935 C 380.948 -3.1823 1.6268 0
M  V30 3936 S 382.507 -4.09332 1.58091 0
M  V30 3937 H 379.325 -0.615754 0.355482 0
M  V30 3938 H 381.927 -1.24778 1.50501 0
M  V30 3939 H 380.631 -3.10543 2.68311 0
M  V30 3940 H 380.162 -3.77357 1.112 0
M  V30 3941 H 382.177 -4.92598 0.596817 0
M  V30 3942 N 381.35 -0.985608 -1.22978 0
M  V30 3943 C 382.575 -0.675254 -1.961 0
M  V30 3944 C 383 0.752154 -1.72407 0
M  V30 3945 O 382.358 1.5131 -0.998751 0
M  V30 3946 C 382.406 -0.977899 -3.47087 0
M  V30 3947 O 381.51 -0.072685 -4.12336 0
M  V30 3948 H 380.851 -0.253443 -0.613728 0
M  V30 3949 H 383.381 -1.32061 -1.56272 0
M  V30 3950 H 383.391 -0.916739 -3.97567 0
M  V30 3951 H 382.066 -2.01807 -3.63657 0
M  V30 3952 H 380.643 -0.188703 -3.72422 0
M  V30 3953 N 382.828 1.3818 -0.7579 0
M  V30 3954 C 383.791 2.28764 -0.141286 0
M  V30 3955 C 384.791 1.47388 0.642907 0
M  V30 3956 O 385.981 1.67781 0.468536 0
M  V30 3957 C 383.113 3.31184 0.808069 0
M  V30 3958 H 384.306 2.848 -0.939633 0
M  V30 3959 H 381.859 1.47212 -0.525191 0
M  V30 3960 H 382.594 2.80247 1.63193 0
M  V30 3961 H 382.379 3.91314 0.248104 0
M  V30 3962 H 383.869 3.98909 1.23536 0
M  V30 3963 N 384.306 0.507319 1.49211 0
M  V30 3964 C 385.546 -0.0332372 2.04373 0
M  V30 3965 C 385.91 -1.33694 1.37804 0
M  V30 3966 O 387.111 -1.96213 1.83722 0
M  V30 3967 C 385.382 -0.17599 3.56966 0
M  V30 3968 S 386.941 -0.669882 4.33657 0
M  V30 3969 H 383.759 0.00123603 0.710999 0
M  V30 3970 H 386.361 0.682725 1.83191 0
M  V30 3971 H 385.065 0.778053 4.02957 0
M  V30 3972 H 384.596 -0.917005 3.82563 0
M  V30 3973 H 386.611 -1.93806 4.56786 0
M  V30 3974 N 385.784 -1.5574 0.241426 0
M  V30 3975 C 387.032 -1.98417 -0.384075 0
M  V30 3976 C 387.353 -1.13078 -1.58866 0
M  V30 3977 O 386.623 -0.212312 -1.94746 0
M  V30 3978 H 385.203 -0.732813 -0.144894 0
M  V30 3979 H 387.865 -1.9193 0.338943 0
M  V30 3980 H 386.961 -3.04219 -0.696939 0
M  V30 3981 N 387.262 0.0317525 -1.57568 0
M  V30 3982 C 388.192 1.03274 -2.0942 0
M  V30 3983 C 389.173 1.3788 -0.996143 0
M  V30 3984 O 390.358 1.46811 -1.27122 0
M  V30 3985 C 387.488 2.33448 -2.57137 0
M  V30 3986 C 386.442 2.13091 -3.71182 0
M  V30 3987 C 385.768 3.49001 -4.05095 0
M  V30 3988 C 387.068 1.51928 -4.99715 0
M  V30 3989 H 388.762 0.60112 -2.93303 0
M  V30 3990 H 386.308 0.287705 -1.41097 0
M  V30 3991 H 388.261 3.03802 -2.92032 0
M  V30 3992 H 386.985 2.78665 -1.70333 0
M  V30 3993 H 385.644 1.45171 -3.36632 0
M  V30 3994 H 385.292 3.91862 -3.15362 0
M  V30 3995 H 384.992 3.36207 -4.81911 0
M  V30 3996 H 386.516 4.20721 -4.42522 0
M  V30 3997 H 387.93 2.12196 -5.32584 0
M  V30 3998 H 386.327 1.49716 -5.81124 0
M  V30 3999 H 387.397 0.484811 -4.8247 0
M  V30 4000 N 388.74 1.54641 0.303973 0
M  V30 4001 C 389.672 1.81754 1.39636 0
M  V30 4002 C 390.685 0.70035 1.46966 0
M  V30 4003 O 391.874 0.97778 1.49338 0
M  V30 4004 C 388.974 1.93785 2.7803 0
M  V30 4005 C 388.147 3.24156 2.93669 0
M  V30 4006 C 387.206 3.26641 4.12544 0
M  V30 4007 O 386.232 4.00187 4.04771 0
M  V30 4008 N 387.434 2.5182 5.23036 0
M  V30 4009 H 390.199 2.76031 1.16734 0
M  V30 4010 H 387.76 1.54178 0.494033 0
M  V30 4011 H 389.752 1.92852 3.55795 0
M  V30 4012 H 388.322 1.06515 2.93893 0
M  V30 4013 H 387.542 3.37887 2.03042 0
M  V30 4014 H 388.83 4.10195 3.01027 0
M  V30 4015 H 388.228 1.91692 5.32232 0
M  V30 4016 H 386.785 2.56644 5.99147 0
M  V30 4017 N 390.218 -0.567019 1.47046 0
M  V30 4018 C 391.181 -1.65696 1.58359 0
M  V30 4019 C 392.181 -1.54097 0.459441 0
M  V30 4020 O 393.371 -1.58432 0.724225 0
M  V30 4021 C 390.503 -3.05197 1.51879 0
M  V30 4022 H 391.696 -1.57019 2.5551 0
M  V30 4023 H 389.249 -0.786148 1.3509 0
M  V30 4024 H 389.984 -3.19417 0.560673 0
M  V30 4025 H 389.769 -3.15025 2.33455 0
M  V30 4026 H 391.259 -3.84511 1.62913 0
M  V30 4027 N 391.696 -1.35014 -0.812953 0
M  V30 4028 C 392.659 -1.27292 -1.90602 0
M  V30 4029 C 393.659 -0.185817 -1.59723 0
M  V30 4030 O 394.849 -0.439102 -1.68575 0
M  V30 4031 C 391.981 -0.967676 -3.26877 0
M  V30 4032 H 393.174 -2.24479 -1.9887 0
M  V30 4033 H 390.727 -1.19446 -1.00808 0
M  V30 4034 H 391.462 0.0005954 -3.243 0
M  V30 4035 H 391.247 -1.75412 -3.50675 0
M  V30 4036 H 392.737 -0.939085 -4.06904 0
M  V30 4037 N 393.175 1.03435 -1.18907 0
M  V30 4038 C 394.421 1.77005 -0.989798 0
M  V30 4039 C 394.754 1.88205 0.478816 0
M  V30 4040 O 394.029 1.39481 1.35556 0
M  V30 4041 C 394.312 3.19925 -1.65287 0
M  V30 4042 C 394.165 3.1663 -3.19477 0
M  V30 4043 C 395.484 4.18189 -1.37134 0
M  V30 4044 H 392.603 0.642538 -0.360991 0
M  V30 4045 H 395.245 1.20784 -1.46667 0
M  V30 4046 H 393.395 3.67929 -1.24741 0
M  V30 4047 H 395.067 2.76567 -3.692 0
M  V30 4048 H 393.31 2.54491 -3.51307 0
M  V30 4049 H 393.981 4.1758 -3.61013 0
M  V30 4050 H 396.457 3.78761 -1.72276 0
M  V30 4051 H 395.333 5.16394 -1.86087 0
M  V30 4052 H 395.594 4.41112 -0.295424 0
M  V30 4053 N 394.653 0.992116 1.22453 0
M  V30 4054 C 395.899 0.668523 1.91464 0
M  V30 4055 C 396.232 -0.797313 1.77078 0
M  V30 4056 O 395.507 -1.5765 1.13916 0
M  V30 4057 C 395.79 1.07424 3.43703 0
M  V30 4058 C 395.643 2.59857 3.67143 0
M  V30 4059 C 396.962 0.626891 4.35612 0
M  V30 4060 H 394.081 0.244341 0.695318 0
M  V30 4061 H 396.723 1.2355 1.44345 0
M  V30 4062 H 394.873 0.591816 3.83966 0
M  V30 4063 H 396.545 3.15764 3.3629 0
M  V30 4064 H 394.788 3.01961 3.11451 0
M  V30 4065 H 395.459 2.83296 4.73759 0
M  V30 4066 H 397.935 1.04125 4.02861 0
M  V30 4067 H 396.811 0.939076 5.40807 0
M  V30 4068 H 397.072 -0.472457 4.39568 0
M  V30 4069 N 396.131 -1.37776 0.765217 0
M  V30 4070 C 397.371 -2.01691 0.331669 0
M  V30 4071 C 397.735 -1.59432 -1.06983 0
M  V30 4072 O 398.936 -2.15761 -1.60314 0
M  V30 4073 C 397.207 -3.54385 0.463261 0
M  V30 4074 S 398.766 -4.38652 0.114011 0
M  V30 4075 H 395.584 -0.699387 0.127979 0
M  V30 4076 H 398.186 -1.68084 0.998396 0
M  V30 4077 H 396.89 -3.82629 1.48401 0
M  V30 4078 H 396.421 -3.92783 -0.220246 0
M  V30 4079 H 398.436 -4.84021 -1.09261 0
M  V30 4080 N 397.609 -0.515225 -1.4894 0
M  V30 4081 C 398.855 0.0242508 -2.02785 0
M  V30 4082 C 399.188 1.35323 -1.39289 0
M  V30 4083 O 398.463 1.87041 -0.533469 0
M  V30 4084 C 398.746 0.16184 -3.59736 0
M  V30 4085 C 398.599 -1.19127 -4.33738 0
M  V30 4086 C 399.918 0.895719 -4.30888 0
M  V30 4087 H 397.037 0.00733914 -0.736963 0
M  V30 4088 H 399.679 -0.669395 -1.77818 0
M  V30 4089 H 397.829 0.752624 -3.8114 0
M  V30 4090 H 399.501 -1.82202 -4.23792 0
M  V30 4091 H 397.744 -1.77695 -3.95736 0
M  V30 4092 H 398.415 -1.04815 -5.41957 0
M  V30 4093 H 400.891 0.394528 -4.14225 0
M  V30 4094 H 399.767 0.960859 -5.40425 0
M  V30 4095 H 400.028 1.9427 -3.97129 0
M  V30 4096 N 399.087 1.5561 -0.249682 0
M  V30 4097 C 400.315 2.03411 0.378352 0
M  V30 4098 C 400.73 1.12886 1.51335 0
M  V30 4099 O 400.087 0.143833 1.81932 0
M  V30 4100 C 400.138 3.50537 0.88351 0
M  V30 4101 O 399.859 4.37614 -0.20626 0
M  V30 4102 C 401.36 4.14113 1.58195 0
M  V30 4103 H 398.58 0.664994 0.08958 0
M  V30 4104 H 401.124 2.01044 -0.374357 0
M  V30 4105 H 399.279 3.5343 1.58639 0
M  V30 4106 H 399.693 5.24199 0.177782 0
M  V30 4107 H 401.167 5.18741 1.8871 0
M  V30 4108 H 401.644 3.60767 2.50487 0
M  V30 4109 H 402.25 4.15151 0.923573 0
M  V30 4110 N 400.565 -0.0233959 1.57583 0
M  V30 4111 C 401.495 -1.02162 2.09965 0
M  V30 4112 C 402.476 -1.3735 1.00344 0
M  V30 4113 O 403.661 -1.46135 1.27899 0
M  V30 4114 C 400.791 -2.32081 2.58371 0
M  V30 4115 C 399.745 -2.1112 3.72307 0
M  V30 4116 C 399.071 -3.46848 4.06941 0
M  V30 4117 C 400.371 -1.49276 5.00514 0
M  V30 4118 H 402.065 -0.585557 2.93618 0
M  V30 4119 H 399.611 -0.280218 1.41247 0
M  V30 4120 H 401.564 -3.02249 2.93639 0
M  V30 4121 H 400.288 -2.77758 1.71808 0
M  V30 4122 H 398.947 -1.43384 3.37397 0
M  V30 4123 H 398.595 -3.90184 3.17436 0
M  V30 4124 H 398.295 -3.33646 4.83688 0
M  V30 4125 H 399.819 -4.18369 4.44747 0
M  V30 4126 H 401.233 -2.09368 5.33702 0
M  V30 4127 H 399.63 -1.46632 5.8191 0
M  V30 4128 H 400.7 -0.459217 4.82721 0
M  V30 4129 N 402.043 -1.548 -0.295768 0
M  V30 4130 C 402.973 -1.89115 -1.36959 0
M  V30 4131 C 403.954 -0.75059 -1.52644 0
M  V30 4132 O 405.139 -1.00678 -1.66065 0
M  V30 4133 C 402.269 -2.14307 -2.73295 0
M  V30 4134 C 401.223 -3.30151 -2.72368 0
M  V30 4135 C 400.549 -3.40772 -4.12042 0
M  V30 4136 C 401.849 -4.67126 -2.33646 0
M  V30 4137 H 403.543 -2.79053 -1.08488 0
M  V30 4138 H 401.089 -1.34266 -0.520443 0
M  V30 4139 H 403.042 -2.36898 -3.48507 0
M  V30 4140 H 401.766 -1.21145 -3.03301 0
M  V30 4141 H 400.425 -3.0749 -1.99613 0
M  V30 4142 H 400.073 -2.45117 -4.39234 0
M  V30 4143 H 399.773 -4.18645 -4.12322 0
M  V30 4144 H 401.297 -3.6563 -4.89027 0
M  V30 4145 H 402.711 -4.89414 -2.98575 0
M  V30 4146 H 401.108 -5.47751 -2.45129 0
M  V30 4147 H 402.178 -4.67489 -1.28772 0
M  V30 4148 N 403.521 0.559213 -1.47345 0
M  V30 4149 C 404.469 1.68747 -1.60085 0
M  V30 4150 C 405.463 1.628 -0.46825 0
M  V30 4151 O 406.669 1.68009 -0.645977 0
M  V30 4152 H 403.044 0.558329 -0.503759 0
M  V30 4153 H 405.015 1.55138 -2.54902 0
M  V30 4154 C 403.764 3.07103 -1.63042 0
M  V30 4155 H 403.087 3.12361 -2.49541 0
M  V30 4156 H 404.527 3.85743 -1.76006 0
M  V30 4157 C 402.986 3.34935 -0.363357 0
M  V30 4158 O 403.516 3.98102 0.536416 0
M  V30 4159 N 401.722 2.89574 -0.244 0
M  V30 4160 H 401.269 2.38348 -0.977133 0
M  V30 4161 H 401.227 3.08566 0.602836 0
M  V30 4162 N 404.999 1.35443 0.805782 0
M  V30 4163 C 406.415 1.15499 1.10146 0
M  V30 4164 C 406.615 -0.0319975 2.01475 0
M  V30 4165 O 405.671 -0.70236 2.42535 0
M  V30 4166 C 406.984 2.45833 1.73166 0
M  V30 4167 C 408.532 2.52047 1.85583 0
M  V30 4168 C 409.007 3.82427 2.52019 0
M  V30 4169 N 410.498 3.83682 2.59504 0
M  V30 4170 C 411.233 4.81294 3.11679 0
M  V30 4171 N 410.729 5.89294 3.64287 0
M  V30 4172 N 412.522 4.6873 3.1024 0
M  V30 4173 H 404.673 2.11469 0.198678 0
M  V30 4174 H 406.936 0.93594 0.150731 0
M  V30 4175 H 406.642 3.32874 1.13526 0
M  V30 4176 H 406.516 2.6044 2.72857 0
M  V30 4177 H 408.903 1.65435 2.44367 0
M  V30 4178 H 408.984 2.41354 0.847455 0
M  V30 4179 H 408.628 4.69437 1.93885 0
M  V30 4180 H 408.558 3.90409 3.53395 0
M  V30 4181 H 411.049 3.05648 2.22234 0
M  V30 4182 H 411.362 6.59768 4.02401 0
M  V30 4183 H 409.707 5.92985 3.62483 0
M  V30 4184 H 412.898 3.83496 2.68419 0
M  V30 4185 H 413.071 5.44965 3.50596 0
M  V30 4186 N 406.477 -1.02803 1.19454 0
M  V30 4187 C 407.407 -2.12999 0.956758 0
M  V30 4188 C 408.388 -1.69743 -0.110188 0
M  V30 4189 O 409.573 -1.94148 0.0450038 0
M  V30 4190 C 406.703 -3.43746 0.495553 0
M  V30 4191 C 405.657 -4.00688 1.50443 0
M  V30 4192 C 404.983 -5.27067 0.900275 0
M  V30 4193 C 406.283 -4.35397 2.8849 0
M  V30 4194 H 407.977 -2.33148 1.87836 0
M  V30 4195 H 405.523 -1.12045 0.904539 0
M  V30 4196 H 407.476 -4.2021 0.316493 0
M  V30 4197 H 406.2 -3.23321 -0.461646 0
M  V30 4198 H 404.859 -3.2632 1.67065 0
M  V30 4199 H 404.507 -5.02959 -0.064503 0
M  V30 4200 H 404.207 -5.66127 1.57397 0
M  V30 4201 H 405.731 -6.06196 0.73203 0
M  V30 4202 H 407.145 -5.02795 2.75446 0
M  V30 4203 H 405.542 -4.85541 3.52661 0
M  V30 4204 H 406.612 -3.44662 3.41081 0
M  V30 4205 N 407.956 -0.998596 -1.21925 0
M  V30 4206 C 408.866 -0.562736 -2.27751 0
M  V30 4207 C 409.882 0.391203 -1.69545 0
M  V30 4208 O 411.058 0.256625 -1.99758 0
M  V30 4209 C 408.123 0.11012 -3.46525 0
M  V30 4210 C 407.184 -0.887495 -4.20026 0
M  V30 4211 C 406.417 -0.246654 -5.3313 0
M  V30 4212 O 406.64 0.958088 -5.62296 0
M  V30 4213 O 405.574 -0.954374 -5.94286 0
M  V30 4214 H 409.4 -1.44329 -2.67213 0
M  V30 4215 H 406.985 -0.767135 -1.28201 0
M  V30 4216 H 408.867 0.486756 -4.18579 0
M  V30 4217 H 407.542 0.965154 -3.08976 0
M  V30 4218 H 406.449 -1.31517 -3.5022 0
M  V30 4219 H 407.782 -1.71191 -4.6147 0
M  V30 4220 N 409.434 1.37368 -0.772513 0
M  V30 4221 C 410.682 1.99279 -0.336516 0
M  V30 4222 C 411.003 1.6163 1.09091 0
M  V30 4223 O 410.273 0.882109 1.74916 0
M  V30 4224 H 408.853 0.737063 -0.121435 0
M  V30 4225 H 411.515 1.67836 -0.990809 0
M  V30 4226 H 410.611 3.09332 -0.414763 0
M  V30 4227 N 410.912 0.523116 1.48665 0
M  V30 4228 C 412.189 -0.0775449 1.95446 0
M  V30 4229 C 412.569 -1.5197 1.4652 0
M  V30 4230 O 411.917 -2.17876 0.688657 0
M  V30 4231 C 412.127 0.0326135 3.48985 0
M  V30 4232 C 413.475 -0.130141 4.24401 0
M  V30 4233 O 414.499 -0.0415142 3.56176 0
M  V30 4234 O 413.358 -0.31491 5.45592 0
M  V30 4235 H 410.452 -0.0831012 0.822814 0
M  V30 4236 H 412.998 0.587227 1.59216 0
M  V30 4237 H 411.77 1.03748 3.77296 0
M  V30 4238 H 411.393 -0.671317 3.91892 0
M  V30 4239 N 412.39 -1.55475 0.257931 0
M  V30 4240 C 413.322 -2.19192 -0.669881 0
M  V30 4241 C 414.335 -1.17148 -1.1305 0
M  V30 4242 O 415.524 -1.43959 -1.05537 0
M  V30 4243 C 412.624 -2.79016 -1.92363 0
M  V30 4244 C 411.797 -4.06586 -1.61265 0
M  V30 4245 C 410.856 -4.50622 -2.7171 0
M  V30 4246 O 409.882 -5.16765 -2.38627 0
M  V30 4247 N 411.084 -4.19325 -4.01431 0
M  V30 4248 H 413.849 -2.99441 -0.124635 0
M  V30 4249 H 411.41 -1.6171 0.0783311 0
M  V30 4250 H 413.402 -3.05427 -2.65511 0
M  V30 4251 H 411.972 -2.0286 -2.37837 0
M  V30 4252 H 411.192 -3.87646 -0.715811 0
M  V30 4253 H 412.48 -4.89737 -1.37967 0
M  V30 4254 H 411.878 -3.66247 -4.31138 0
M  V30 4255 H 410.435 -4.50547 -4.7101 0
M  V30 4256 N 413.868 0.0150385 -1.57593 0
M  V30 4257 C 415.117 0.702115 -1.89085 0
M  V30 4258 C 415.43 1.75764 -0.858277 0
M  V30 4259 O 416.636 2.49829 -1.0629 0
M  V30 4260 C 415.092 1.29992 -3.35604 0
M  V30 4261 C 414.7 0.280007 -4.47124 0
M  V30 4262 C 416.444 1.96606 -3.76227 0
M  V30 4263 C 414.351 0.886949 -5.84711 0
M  V30 4264 H 413.281 0.265997 -0.705522 0
M  V30 4265 H 415.932 -0.0430408 -1.8345 0
M  V30 4266 H 414.314 2.09525 -3.36029 0
M  V30 4267 H 415.488 -0.489631 -4.58191 0
M  V30 4268 H 413.803 -0.284835 -4.15425 0
M  V30 4269 H 416.4 2.42893 -4.76347 0
M  V30 4270 H 416.743 2.79024 -3.08952 0
M  V30 4271 H 417.276 1.23828 -3.78036 0
M  V30 4272 H 414.015 0.101876 -6.55421 0
M  V30 4273 H 413.535 1.6261 -5.77337 0
M  V30 4274 H 415.214 1.39011 -6.3189 0
M  V30 4275 N 415.346 1.54954 0.287554 0
M  V30 4276 C 416.571 1.79209 1.04397 0
M  V30 4277 C 416.996 0.556431 1.79682 0
M  V30 4278 O 416.354 -0.493518 1.74454 0
M  V30 4279 C 416.402 3.00739 1.98969 0
M  V30 4280 O 415.506 2.74805 3.075 0
M  V30 4281 H 414.847 0.592755 0.299227 0
M  V30 4282 H 417.377 2.02068 0.320886 0
M  V30 4283 H 417.387 3.29077 2.4119 0
M  V30 4284 H 416.062 3.90329 1.43582 0
M  V30 4285 H 414.639 2.57523 2.69697 0
M  V30 4286 N 416.824 -0.551391 1.4764 0
M  V30 4287 C 418.049 -1.33837 1.58437 0
M  V30 4288 C 418.474 -1.866 0.237063 0
M  V30 4289 O 417.832 -1.6328 -0.787994 0
M  V30 4290 C 417.88 -2.48014 2.61766 0
M  V30 4291 O 416.984 -3.50419 2.1744 0
M  V30 4292 H 416.325 -0.397299 0.532024 0
M  V30 4293 H 418.855 -0.665759 1.93465 0
M  V30 4294 H 418.865 -2.94503 2.82369 0
M  V30 4295 H 417.54 -2.08969 3.5959 0
M  V30 4296 H 416.117 -3.10196 2.06961 0
M  V30 4297 N 418.302 -1.35869 -0.798587 0
M  V30 4298 C 419.713 -1.26498 -1.37314 0
M  V30 4299 C 420.064 0.0991899 -1.95949 0
M  V30 4300 O 419.189 1.0004 -1.91888 0
M  V30 4301 C 419.784 -2.29054 -2.49639 0
M  V30 4302 C 418.343 -2.234 -3.02935 0
M  V30 4303 C 417.49 -2.14329 -1.75949 0
M  V30 4304 H 420.441 -1.46881 -0.600971 0
M  V30 4305 H 420.462 -1.92166 -3.28409 0
M  V30 4306 H 419.974 -3.2833 -2.06933 0
M  V30 4307 H 418.075 -1.27562 -3.50084 0
M  V30 4308 H 418.188 -3.15703 -3.60372 0
M  V30 4309 H 416.552 -1.60435 -1.9782 0
M  V30 4310 H 417.335 -3.15477 -1.35384 0
M  V30 4311 N 419.78 1.02168 -1.19998 0
M  V30 4312 C 421.196 1.27969 -0.953737 0
M  V30 4313 C 421.396 1.98079 0.369703 0
M  V30 4314 O 420.452 2.27306 1.09947 0
M  V30 4315 C 421.765 2.11971 -2.13281 0
M  V30 4316 C 423.313 2.25255 -2.17323 0
M  V30 4317 C 423.788 3.12632 -3.34702 0
M  V30 4318 N 425.279 3.2022 -3.34684 0
M  V30 4319 C 426.014 3.88039 -4.22153 0
M  V30 4320 N 425.51 4.58027 -5.19791 0
M  V30 4321 N 427.303 3.84511 -4.10009 0
M  V30 4322 H 419.454 0.550794 -2.05134 0
M  V30 4323 H 421.717 0.305683 -0.897364 0
M  V30 4324 H 421.423 1.67785 -3.09097 0
M  V30 4325 H 421.297 3.12699 -2.10949 0
M  V30 4326 H 423.684 2.68667 -1.22073 0
M  V30 4327 H 423.765 1.24053 -2.23706 0
M  V30 4328 H 423.409 2.69926 -4.30235 0
M  V30 4329 H 423.339 4.13909 -3.25556 0
M  V30 4330 H 425.83 2.70382 -2.64012 0
M  V30 4331 H 426.143 5.07429 -5.82868 0
M  V30 4332 H 424.488 4.56869 -5.23733 0
M  V30 4333 H 427.679 3.28978 -3.33003 0
M  V30 4334 H 427.852 4.3709 -4.78389 0
M  V30 4335 N 421.258 1.00505 1.21394 0
M  V30 4336 C 422.206 0.558623 2.25792 0
M  V30 4337 C 423.2 -0.396848 1.64686 0
M  V30 4338 O 424.406 -0.268035 1.77993 0
M  V30 4339 H 420.781 0.1623 0.734277 0
M  V30 4340 H 422.752 1.4503 2.60785 0
M  V30 4341 C 421.501 -0.0989574 3.47559 0
M  V30 4342 H 420.824 0.627225 3.94849 0
M  V30 4343 H 422.264 -0.3746 4.22342 0
M  V30 4344 C 420.723 -1.33817 3.09184 0
M  V30 4345 O 421.253 -2.43252 3.19674 0
M  V30 4346 N 419.459 -1.21793 2.63846 0
M  V30 4347 H 419.006 -0.32746 2.5551 0
M  V30 4348 H 418.964 -2.04809 2.38539 0
M  V30 4349 N 422.737 -1.36956 0.779787 0
M  V30 4350 C 423.983 -1.99787 0.348281 0
M  V30 4351 C 424.316 -1.61756 -1.07465 0
M  V30 4352 O 423.591 -0.867639 -1.74075 0
M  V30 4353 C 423.874 -3.56597 0.50104 0
M  V30 4354 C 423.727 -4.04513 1.96697 0
M  V30 4355 C 425.046 -4.40008 -0.0898097 0
M  V30 4356 H 422.165 -0.725796 0.128022 0
M  V30 4357 H 424.807 -1.62514 0.984331 0
M  V30 4358 H 422.957 -3.88479 -0.0404347 0
M  V30 4359 H 424.629 -3.83161 2.56876 0
M  V30 4360 H 422.872 -3.56408 2.47297 0
M  V30 4361 H 423.543 -5.1352 2.02486 0
M  V30 4362 H 426.019 -4.14431 0.372293 0
M  V30 4363 H 424.895 -5.4888 0.0471605 0
M  V30 4364 H 425.156 -4.26035 -1.18096 0
M  V30 4365 N 424.215 -0.530993 -1.48385 0
M  V30 4366 C 425.145 0.219985 -2.32461 0
M  V30 4367 C 426.126 0.934111 -1.42156 0
M  V30 4368 O 427.311 0.919694 -1.71042 0
M  V30 4369 C 424.441 1.26674 -3.23375 0
M  V30 4370 C 423.395 0.67069 -4.22712 0
M  V30 4371 C 422.721 1.82017 -5.02766 0
M  V30 4372 C 424.021 -0.358268 -5.2107 0
M  V30 4373 H 425.715 -0.48187 -2.95497 0
M  V30 4374 H 423.261 -0.233182 -1.42099 0
M  V30 4375 H 425.214 1.80006 -3.81019 0
M  V30 4376 H 423.938 1.99818 -2.58341 0
M  V30 4377 H 422.597 0.158878 -3.66256 0
M  V30 4378 H 422.245 2.54002 -4.34157 0
M  V30 4379 H 421.945 1.42727 -5.70003 0
M  V30 4380 H 423.469 2.35725 -5.63264 0
M  V30 4381 H 424.883 0.0880081 -5.73232 0
M  V30 4382 H 423.28 -0.66861 -5.96364 0
M  V30 4383 H 424.35 -1.26367 -4.68145 0
M  V30 4384 N 425.693 1.55336 -0.266172 0
M  V30 4385 C 426.918 2.04258 0.359661 0
M  V30 4386 C 427.343 1.14359 1.49344 0
M  V30 4387 O 426.701 0.140369 1.80756 0
M  V30 4388 C 426.749 3.50997 0.826635 0
M  V30 4389 O 425.853 3.64204 1.93466 0
M  V30 4390 H 425.194 0.659668 0.075727 0
M  V30 4391 H 427.724 2.00694 -0.39786 0
M  V30 4392 H 427.734 3.9219 1.12477 0
M  V30 4393 H 426.409 4.159 -0.00293032 0
M  V30 4394 H 424.986 3.34913 1.63974 0
M  V30 4395 N 427.171 -0.0066808 1.57599 0
M  V30 4396 C 428.081 -1.01671 2.11424 0
M  V30 4397 C 429.097 -1.38143 1.05795 0
M  V30 4398 O 430.273 -1.47011 1.37658 0
M  V30 4399 C 427.338 -2.29192 2.60139 0
M  V30 4400 C 426.399 -1.99094 3.80342 0
M  V30 4401 C 425.632 -3.20535 4.26724 0
M  V30 4402 O 425.855 -4.3199 3.72479 0
M  V30 4403 O 424.789 -3.04924 5.18946 0
M  V30 4404 H 428.615 -0.589181 2.9793 0
M  V30 4405 H 426.2 -0.225091 1.47695 0
M  V30 4406 H 428.082 -3.0412 2.917 0
M  V30 4407 H 426.757 -2.71195 1.76733 0
M  V30 4408 H 425.664 -1.21663 3.53764 0
M  V30 4409 H 426.997 -1.61931 4.648 0
M  V30 4410 N 428.649 -1.55105 -0.279332 0
M  V30 4411 C 429.879 -1.7917 -1.02867 0
M  V30 4412 C 430.287 -0.56204 -1.80659 0
M  V30 4413 O 429.63 0.478266 -1.77365 0
M  V30 4414 C 429.692 -2.96061 -2.03932 0
M  V30 4415 C 429.356 -4.33341 -1.45137 0
M  V30 4416 C 430.353 -5.12565 -0.870266 0
M  V30 4417 C 428.038 -4.79987 -1.48048 0
M  V30 4418 C 430.032 -6.36565 -0.326097 0
M  V30 4419 C 427.719 -6.03944 -0.932443 0
M  V30 4420 C 428.717 -6.8207 -0.356247 0
M  V30 4421 O 428.405 -8.03691 0.183412 0
M  V30 4422 H 428.137 -0.600796 -0.309872 0
M  V30 4423 H 430.691 -2.02932 -0.317468 0
M  V30 4424 H 428.921 -2.67975 -2.78794 0
M  V30 4425 H 430.61 -3.07506 -2.64943 0
M  V30 4426 H 431.376 -4.77661 -0.840521 0
M  V30 4427 H 427.255 -4.1919 -1.91835 0
M  V30 4428 H 430.799 -6.97489 0.124286 0
M  V30 4429 H 426.696 -6.3833 -0.959407 0
M  V30 4430 H 427.464 -8.18468 0.0721681 0
M  V30 4431 N 430.127 0.543554 -1.4793 0
M  V30 4432 C 431.059 1.665 -1.57513 0
M  V30 4433 C 432.072 1.56156 -0.460333 0
M  V30 4434 O 433.261 1.62865 -0.730573 0
M  V30 4435 C 430.361 3.05063 -1.47614 0
M  V30 4436 C 429.534 3.41024 -2.739 0
M  V30 4437 C 428.593 4.58809 -2.57645 0
M  V30 4438 O 427.619 4.62707 -3.31498 0
M  V30 4439 N 428.821 5.56149 -1.66368 0
M  V30 4440 H 431.586 1.5872 -2.5422 0
M  V30 4441 H 429.147 0.730517 -1.44482 0
M  V30 4442 H 431.139 3.81712 -1.34455 0
M  V30 4443 H 429.709 3.06994 -0.589359 0
M  V30 4444 H 428.929 2.53687 -3.01723 0
M  V30 4445 H 430.217 3.61831 -3.57709 0
M  V30 4446 H 429.615 5.55767 -1.05543 0
M  V30 4447 H 428.172 6.32071 -1.59154 0
M  V30 4448 N 431.605 1.3629 0.791371 0
M  V30 4449 C 432.537 1.26321 1.91248 0
M  V30 4450 C 433.55 0.18313 1.61767 0
M  V30 4451 O 434.739 0.437682 1.73051 0
M  V30 4452 C 431.839 0.925901 3.26007 0
M  V30 4453 C 431.012 2.10746 3.83281 0
M  V30 4454 C 430.071 1.74352 4.96475 0
M  V30 4455 O 429.097 2.46416 5.13096 0
M  V30 4456 N 430.299 0.676058 5.7655 0
M  V30 4457 H 433.064 2.22915 2.00323 0
M  V30 4458 H 430.625 1.29659 0.969546 0
M  V30 4459 H 432.617 0.663636 3.99222 0
M  V30 4460 H 431.187 0.0491581 3.12561 0
M  V30 4461 H 430.407 2.53264 3.02077 0
M  V30 4462 H 431.695 2.8969 4.18279 0
M  V30 4463 H 431.093 0.0776467 5.65647 0
M  V30 4464 H 429.65 0.473612 6.50077 0
M  V30 4465 N 433.083 -1.0153 1.20538 0
M  V30 4466 C 434.499 -1.27461 0.96051 0
M  V30 4467 C 434.699 -1.98273 -0.359193 0
M  V30 4468 O 433.755 -2.27886 -1.0874 0
M  V30 4469 C 435.068 -2.10837 2.14402 0
M  V30 4470 C 436.616 -2.24099 2.18515 0
M  V30 4471 C 437.091 -3.10852 3.36355 0
M  V30 4472 N 438.582 -3.18441 3.36377 0
M  V30 4473 C 439.317 -3.85795 4.24205 0
M  V30 4474 N 438.813 -4.55264 5.22213 0
M  V30 4475 N 440.606 -3.82331 4.12043 0
M  V30 4476 H 432.757 -0.539907 2.05423 0
M  V30 4477 H 435.02 -0.30092 0.898972 0
M  V30 4478 H 434.726 -1.66144 3.09983 0
M  V30 4479 H 434.6 -3.11576 2.12604 0
M  V30 4480 H 436.987 -2.68016 1.23497 0
M  V30 4481 H 437.068 -1.22865 2.24361 0
M  V30 4482 H 436.712 -2.6764 4.31661 0
M  V30 4483 H 436.642 -4.12177 3.27746 0
M  V30 4484 H 439.133 -2.68978 2.65442 0
M  V30 4485 H 439.446 -5.04331 5.85551 0
M  V30 4486 H 437.791 -4.54085 5.26148 0
M  V30 4487 H 440.982 -3.27207 3.34743 0
M  V30 4488 H 441.155 -4.34547 4.807 0
M  V30 4489 N 434.561 -1.01147 -1.20859 0
M  V30 4490 C 435.972 -0.730205 -1.71828 0
M  V30 4491 C 436.323 0.751662 -1.8123 0
M  V30 4492 O 435.448 1.58686 -1.47132 0
M  V30 4493 C 436.043 -1.31885 -3.12077 0
M  V30 4494 C 434.602 -1.08656 -3.60376 0
M  V30 4495 C 433.749 -1.42769 -2.37723 0
M  V30 4496 H 436.7 -1.18158 -1.05945 0
M  V30 4497 H 436.721 -0.706793 -3.73878 0
M  V30 4498 H 436.233 -2.39737 -3.05201 0
M  V30 4499 H 434.334 -0.0254814 -3.72591 0
M  V30 4500 H 434.447 -1.76301 -4.45483 0
M  V30 4501 H 432.811 -0.846603 -2.40218 0
M  V30 4502 H 433.594 -2.51666 -2.33493 0
M  V30 4503 N 436.039 1.36541 -0.78704 0
M  V30 4504 C 436.971 2.28761 -0.141773 0
M  V30 4505 C 437.984 1.49365 0.647599 0
M  V30 4506 O 439.173 1.71836 0.483173 0
M  V30 4507 C 436.273 3.28771 0.822368 0
M  V30 4508 C 435.446 4.3732 0.0835594 0
M  V30 4509 C 434.505 5.17307 0.963296 0
M  V30 4510 O 433.531 5.67638 0.421419 0
M  V30 4511 N 434.733 5.33515 2.28784 0
M  V30 4512 H 437.498 2.84777 -0.933919 0
M  V30 4513 H 435.059 1.48682 -0.640735 0
M  V30 4514 H 437.051 3.79169 1.41468 0
M  V30 4515 H 435.621 2.73412 1.5154 0
M  V30 4516 H 434.841 3.88118 -0.689809 0
M  V30 4517 H 436.129 5.0701 -0.426358 0
M  V30 4518 H 435.527 4.94234 2.75226 0
M  V30 4519 H 434.084 5.87165 2.82985 0
M  V30 4520 N 437.518 0.538854 1.48102 0
M  V30 4521 C 438.934 0.19732 1.58376 0
M  V30 4522 C 439.134 -1.29971 1.5398 0
M  V30 4523 O 438.19 -2.07861 1.43352 0
M  V30 4524 C 439.503 0.807716 2.89649 0
M  V30 4525 C 441.051 0.77726 3.03196 0
M  V30 4526 C 441.526 1.36639 4.37143 0
M  V30 4527 N 443.017 1.32875 4.43732 0
M  V30 4528 C 443.752 1.7544 5.45901 0
M  V30 4529 N 443.248 2.25776 6.54979 0
M  V30 4530 N 445.041 1.66623 5.36836 0
M  V30 4531 H 437.192 1.5117 1.49202 0
M  V30 4532 H 439.455 0.629327 0.708979 0
M  V30 4533 H 439.161 1.85909 2.98548 0
M  V30 4534 H 439.035 0.289975 3.76084 0
M  V30 4535 H 441.422 -0.265374 2.93904 0
M  V30 4536 H 441.503 1.33256 2.18349 0
M  V30 4537 H 441.147 2.408 4.47189 0
M  V30 4538 H 441.077 0.786689 5.20691 0
M  V30 4539 H 443.568 0.96037 3.65493 0
M  V30 4540 H 443.881 2.56226 7.29087 0
M  V30 4541 H 442.226 2.29775 6.55918 0
M  V30 4542 H 445.417 1.27089 4.50517 0
M  V30 4543 H 445.59 2.00115 6.16326 0
M  V30 4544 N 438.996 -1.55193 0.274407 0
M  V30 4545 C 439.926 -2.25471 -0.607032 0
M  V30 4546 C 440.907 -1.24461 -1.15946 0
M  V30 4547 O 442.092 -1.53179 -1.19373 0
M  V30 4548 C 439.222 -2.97526 -1.79153 0
M  V30 4549 C 438.176 -4.05459 -1.37067 0
M  V30 4550 C 437.502 -4.65084 -2.6382 0
M  V30 4551 C 438.802 -5.19691 -0.521389 0
M  V30 4552 H 440.496 -2.99393 -0.0209343 0
M  V30 4553 H 438.042 -1.43997 -0.00862866 0
M  V30 4554 H 439.995 -3.45402 -2.41404 0
M  V30 4555 H 438.719 -2.21138 -2.40344 0
M  V30 4556 H 437.378 -3.58393 -0.771355 0
M  V30 4557 H 437.026 -3.85365 -3.23268 0
M  V30 4558 H 436.726 -5.37961 -2.36372 0
M  V30 4559 H 438.25 -5.15708 -3.26921 0
M  V30 4560 H 439.664 -5.63623 -1.04889 0
M  V30 4561 H 438.061 -5.99126 -0.341825 0
M  V30 4562 H 439.131 -4.82713 0.46 0
M  V30 4563 N 440.474 -0.00167713 -1.576 0
M  V30 4564 C 441.72 0.683832 -1.90923 0
M  V30 4565 C 442.053 1.7333 -0.875799 0
M  V30 4566 O 441.328 1.94215 0.10525 0
M  V30 4567 C 441.611 1.32543 -3.3482 0
M  V30 4568 C 441.464 0.287387 -4.48881 0
M  V30 4569 C 442.783 2.25114 -3.78169 0
M  V30 4570 H 439.902 0.247125 -0.694333 0
M  V30 4571 H 442.544 -0.0533149 -1.89925 0
M  V30 4572 H 440.694 1.95372 -3.35801 0
M  V30 4573 H 442.366 -0.341346 -4.60035 0
M  V30 4574 H 440.609 -0.39017 -4.32042 0
M  V30 4575 H 441.28 0.775393 -5.46527 0
M  V30 4576 H 443.756 1.723 -3.7875 0
M  V30 4577 H 442.632 2.66971 -4.79602 0
M  V30 4578 H 442.893 3.13092 -3.12131 0
M  V30 4579 N 441.952 1.55251 0.271103 0
M  V30 4580 C 443.177 1.80306 1.02491 0
M  V30 4581 C 443.602 0.575457 1.79081 0
M  V30 4582 O 442.96 -0.474987 1.74967 0
M  V30 4583 C 443.008 3.02832 1.95768 0
M  V30 4584 O 442.112 2.78051 3.04568 0
M  V30 4585 H 441.453 0.595896 0.292923 0
M  V30 4586 H 443.983 2.02397 0.299436 0
M  V30 4587 H 443.993 3.31616 2.37686 0
M  V30 4588 H 442.668 3.9183 1.39434 0
M  V30 4589 H 441.245 2.60369 2.66951 0
M  V30 4590 N 443.43 -0.535701 1.48216 0
M  V30 4591 C 444.66 -1.3148 1.59363 0
M  V30 4592 C 445.068 -1.8753 0.250844 0
M  V30 4593 O 444.411 -1.66821 -0.769174 0
M  V30 4594 C 444.473 -2.50731 2.57632 0
M  V30 4595 C 444.137 -2.15811 4.02833 0
M  V30 4596 C 445.134 -1.71822 4.90686 0
M  V30 4597 C 442.819 -2.26509 4.48329 0
M  V30 4598 C 444.813 -1.3899 6.22062 0
M  V30 4599 C 442.5 -1.93289 5.79726 0
M  V30 4600 C 443.498 -1.49599 6.66415 0
M  V30 4601 O 443.186 -1.16812 7.95368 0
M  V30 4602 H 442.918 -0.406315 0.540263 0
M  V30 4603 H 445.472 -0.653569 1.94725 0
M  V30 4604 H 443.702 -3.19817 2.1738 0
M  V30 4605 H 445.391 -3.12797 2.58675 0
M  V30 4606 H 446.157 -1.63031 4.56778 0
M  V30 4607 H 442.036 -2.59471 3.81045 0
M  V30 4608 H 445.58 -1.04816 6.89681 0
M  V30 4609 H 441.477 -2.01718 6.13172 0
M  V30 4610 H 442.245 -1.30259 8.08069 0
M  V30 4611 N 444.908 -1.36708 -0.784132 0
M  V30 4612 C 446.155 -1.31231 -1.54222 0
M  V30 4613 C 446.483 0.106864 -1.94206 0
M  V30 4614 O 445.738 1.07734 -1.63376 0
M  V30 4615 C 446.037 -2.18571 -2.82774 0
M  V30 4616 C 445.703 -3.67039 -2.61903 0
M  V30 4617 C 444.365 -4.07503 -2.55919 0
M  V30 4618 C 446.717 -4.61149 -2.4288 0
M  V30 4619 C 444.045 -5.40211 -2.28886 0
M  V30 4620 C 446.397 -5.94081 -2.17373 0
M  V30 4621 C 445.061 -6.33664 -2.09825 0
M  V30 4622 H 444.331 -0.48021 -0.56434 0
M  V30 4623 H 446.978 -1.68807 -0.904233 0
M  V30 4624 H 445.283 -1.73949 -3.51068 0
M  V30 4625 H 446.98 -2.11655 -3.40592 0
M  V30 4626 H 443.57 -3.34941 -2.67418 0
M  V30 4627 H 447.754 -4.30756 -2.46501 0
M  V30 4628 H 443.01 -5.69855 -2.21529 0
M  V30 4629 H 447.184 -6.66566 -2.01649 0
M  V30 4630 H 444.811 -7.36423 -1.88641 0
M  V30 4631 N 446.386 1.0089 -1.21074 0
M  V30 4632 C 447.635 1.74019 -1.01981 0
M  V30 4633 C 447.948 1.90408 0.447665 0
M  V30 4634 O 449.154 2.60707 0.757906 0
M  V30 4635 C 447.61 3.13026 -1.77603 0
M  V30 4636 C 447.218 3.04623 -3.28495 0
M  V30 4637 C 448.962 3.90312 -1.66904 0
M  V30 4638 C 446.869 4.38685 -3.96623 0
M  V30 4639 H 445.799 0.652422 -0.377971 0
M  V30 4640 H 448.45 1.12755 -1.44771 0
M  V30 4641 H 446.832 3.74878 -1.27604 0
M  V30 4642 H 448.006 2.52032 -3.85767 0
M  V30 4643 H 446.321 2.40827 -3.39693 0
M  V30 4644 H 448.918 4.8951 -2.15138 0
M  V30 4645 H 449.261 4.11558 -0.62658 0
M  V30 4646 H 449.794 3.35104 -2.14359 0
M  V30 4647 H 446.533 4.22641 -5.01054 0
M  V30 4648 H 446.053 4.91252 -3.4414 0
M  V30 4649 H 447.732 5.075 -4.01314 0
M  V30 4650 N 447.864 1.01787 1.20321 0
M  V30 4651 C 448.811 0.589197 2.23153 0
M  V30 4652 C 449.781 -0.391367 1.61423 0
M  V30 4653 O 450.966 -0.290518 1.88575 0
M  V30 4654 C 448.106 -0.0650747 3.45039 0
M  V30 4655 C 447.219 0.960207 4.21194 0
M  V30 4656 C 446.354 0.276854 5.30478 0
M  V30 4657 C 445.393 1.2888 5.98378 0
M  V30 4658 N 444.53 0.632031 6.99249 0
M  V30 4659 H 449.37 1.47071 2.59179 0
M  V30 4660 H 446.907 0.736192 1.27352 0
M  V30 4661 H 448.865 -0.461552 4.14639 0
M  V30 4662 H 447.495 -0.910233 3.09701 0
M  V30 4663 H 446.547 1.47484 3.50646 0
M  V30 4664 H 447.859 1.72977 4.67847 0
M  V30 4665 H 447.013 -0.175056 6.06447 0
M  V30 4666 H 445.752 -0.525004 4.84866 0
M  V30 4667 H 444.757 1.75109 5.21169 0
M  V30 4668 H 445.982 2.09196 6.46076 0
M  V30 4669 H 443.928 -0.149935 6.55829 0
M  V30 4670 H 443.845 1.33964 7.44036 0
M  V30 4671 H 445.113 0.203755 7.79234 0
M  V30 4672 N 449.342 -1.36122 0.79427 0
M  V30 4673 C 450.289 -2.29982 0.194101 0
M  V30 4674 C 451.259 -1.52214 -0.664833 0
M  V30 4675 O 452.444 -1.80702 -0.612498 0
M  V30 4676 C 449.584 -3.38706 -0.661244 0
M  V30 4677 C 448.697 -4.31456 0.216766 0
M  V30 4678 C 447.832 -5.27265 -0.645411 0
M  V30 4679 C 446.871 -6.11653 0.233756 0
M  V30 4680 N 446.008 -6.99636 -0.587682 0
M  V30 4681 H 450.848 -2.80722 0.999965 0
M  V30 4682 H 448.385 -1.38172 0.504677 0
M  V30 4683 H 450.343 -4.00394 -1.17219 0
M  V30 4684 H 448.973 -2.89274 -1.43249 0
M  V30 4685 H 448.025 -3.7088 0.845724 0
M  V30 4686 H 449.337 -4.90724 0.893973 0
M  V30 4687 H 448.491 -5.94266 -1.22198 0
M  V30 4688 H 447.23 -4.68463 -1.35623 0
M  V30 4689 H 446.235 -5.4361 0.82269 0
M  V30 4690 H 447.46 -6.72531 0.942247 0
M  V30 4691 H 445.406 -6.43337 -1.2827 0
M  V30 4692 H 445.323 -7.55993 0.0317402 0
M  V30 4693 H 446.591 -7.71001 -1.14792 0
M  V30 4694 N 450.82 -0.546701 -1.47814 0
M  V30 4695 C 451.767 0.206854 -2.29871 0
M  V30 4696 C 452.737 0.918235 -1.38411 0
M  V30 4697 O 453.922 0.915991 -1.67375 0
M  V30 4698 C 451.062 1.23746 -3.22151 0
M  V30 4699 C 450.175 0.533216 -4.28697 0
M  V30 4700 C 449.31 1.5482 -5.08138 0
M  V30 4701 C 448.349 0.828347 -6.06469 0
M  V30 4702 N 447.486 1.78966 -6.78908 0
M  V30 4703 H 452.326 -0.499037 -2.93792 0
M  V30 4704 H 449.863 -0.25793 -1.44821 0
M  V30 4705 H 451.821 1.84746 -3.74065 0
M  V30 4706 H 450.451 1.91151 -2.60117 0
M  V30 4707 H 449.503 -0.191089 -3.7992 0
M  V30 4708 H 450.815 -0.0311987 -4.9879 0
M  V30 4709 H 449.969 2.23202 -5.6415 0
M  V30 4710 H 448.708 2.14652 -4.37922 0
M  V30 4711 H 447.713 0.130539 -5.49645 0
M  V30 4712 H 448.938 0.235907 -6.7869 0
M  V30 4713 H 446.884 2.37675 -6.1143 0
M  V30 4714 H 446.801 1.27712 -7.45135 0
M  V30 4715 H 448.069 2.46496 -7.395 0
M  V30 4716 N 452.299 1.55045 -0.282633 0
M  V30 4717 C 453.229 2.2579 0.595066 0
M  V30 4718 C 454.21 1.25074 1.15284 0
M  V30 4719 O 455.395 1.5381 1.18559 0
M  V30 4720 C 452.525 2.98472 1.77572 0
M  V30 4721 C 451.479 4.0618 1.34914 0
M  V30 4722 C 450.805 4.66477 2.6135 0
M  V30 4723 C 452.105 5.1996 0.493821 0
M  V30 4724 H 453.799 2.994 0.00505653 0
M  V30 4725 H 451.345 1.44 0.000992001 0
M  V30 4726 H 453.298 3.46677 2.39568 0
M  V30 4727 H 452.022 2.2241 2.39168 0
M  V30 4728 H 450.681 3.58797 0.752338 0
M  V30 4729 H 450.329 3.87074 3.2122 0
M  V30 4730 H 450.029 5.39207 2.33516 0
M  V30 4731 H 451.553 5.17435 3.24181 0
M  V30 4732 H 452.967 5.64172 1.01898 0
M  V30 4733 H 451.364 5.99299 0.310047 0
M  V30 4734 H 452.434 4.82462 -0.485593 0
M  V30 4735 N 453.777 0.010035 1.57597 0
M  V30 4736 C 455.002 -0.687021 1.95691 0
M  V30 4737 C 455.427 -1.65952 0.885519 0
M  V30 4738 O 454.785 -1.80633 -0.15543 0
M  V30 4739 C 454.833 -1.3864 3.32884 0
M  V30 4740 O 453.937 -2.50115 3.27897 0
M  V30 4741 H 453.278 -0.181989 0.638573 0
M  V30 4742 H 455.808 0.0662122 2.04493 0
M  V30 4743 H 455.818 -1.74754 3.6868 0
M  V30 4744 H 454.493 -0.673411 4.10412 0
M  V30 4745 H 453.07 -2.16253 3.03791 0
M  V30 4746 N 455.255 -1.55392 -0.262866 0
M  V30 4747 C 456.202 -1.88966 -1.32516 0
M  V30 4748 C 457.172 -0.742187 -1.48596 0
M  V30 4749 O 458.357 -0.99439 -1.62839 0
M  V30 4750 C 455.497 -2.17592 -2.67858 0
M  V30 4751 C 454.61 -3.45061 -2.59917 0
M  V30 4752 C 453.745 -3.63336 -3.87505 0
M  V30 4753 C 452.784 -4.84462 -3.74116 0
M  V30 4754 N 451.921 -4.99342 -4.93561 0
M  V30 4755 H 456.761 -2.79566 -1.03184 0
M  V30 4756 H 454.298 -1.38404 -0.498285 0
M  V30 4757 H 456.256 -2.3219 -3.46617 0
M  V30 4758 H 454.886 -1.30215 -2.95371 0
M  V30 4759 H 453.938 -3.38881 -1.72812 0
M  V30 4760 H 455.25 -4.3396 -2.45926 0
M  V30 4761 H 454.404 -3.77807 -4.74707 0
M  V30 4762 H 453.143 -2.72641 -4.04374 0
M  V30 4763 H 452.148 -4.69985 -2.85297 0
M  V30 4764 H 453.373 -5.76603 -3.58757 0
M  V30 4765 H 451.319 -4.1158 -5.10821 0
M  V30 4766 H 451.236 -5.82303 -4.82141 0
M  V30 4767 H 452.504 -5.18208 -5.82306 0
M  V30 4768 N 456.733 0.527833 -1.48498 0
M  V30 4769 C 457.696 1.61439 -1.62696 0
M  V30 4770 C 458.696 1.52824 -0.500136 0
M  V30 4771 O 459.886 1.56456 -0.765976 0
M  V30 4772 C 457.018 3.01063 -1.59918 0
M  V30 4773 H 458.211 1.50189 -2.59583 0
M  V30 4774 H 455.764 0.750055 -1.37127 0
M  V30 4775 H 456.499 3.17818 -0.645163 0
M  V30 4776 H 456.284 3.08725 -2.41726 0
M  V30 4777 H 457.774 3.80057 -1.73051 0
M  V30 4778 O 458.25 1.46817 0.672841 0
M  V30 4779 H 458.941 1.41236 1.3256 0
M  V30 END ATOM
M  V30 BEGIN BOND
M  V30 END BOND
M  V30 END CTAB
M  END
$$$$
