drugbank_target|Q16873 Leukotriene C4 synthase (DB00143; DB00972)
 OpenBabel12092119483D

  0  0  0     0  0            999 V3000
M  V30 BEGIN CTAB
M  V30 COUNTS 2405 2437 0 0 0
M  V30 BEGIN ATOM
M  V30 1 H -0.908 1.98254 -0.117106 0
M  V30 2 N 0 1.576 0 0
M  V30 3 C 0.933 2.03868 1.02534 0
M  V30 4 C 1.911 0.928543 1.3348 0
M  V30 5 O 3.095 1.19667 1.45644 0
M  V30 6 C 0.222 2.43627 2.35294 0
M  V30 7 C -0.732 3.65373 2.2001 0
M  V30 8 S 0.101 5.13292 1.52614 0
M  V30 9 C 1.257 5.56322 2.86805 0
M  V30 10 H 1.49 2.90518 0.631377 0
M  V30 11 H -0.977 1.52953 0.210867 0
M  V30 12 H 0.981 2.67203 3.11629 0
M  V30 13 H -0.358 1.57376 2.7183 0
M  V30 14 H -1.165 3.90944 3.18086 0
M  V30 15 H -1.563 3.418 1.51819 0
M  V30 16 H 0.729 5.58782 3.83104 0
M  V30 17 H 1.672 6.56266 2.65933 0
M  V30 18 H 2.08 4.83886 2.90714 0
M  V30 19 N 1.4781 -0.272755 1.55222 0
M  V30 20 C 2.4251 -1.33716 1.88119 0
M  V30 21 C 3.3951 -1.49066 0.73271 0
M  V30 22 O 4.5801 -1.63469 0.984002 0
M  V30 23 C 1.7201 -2.69238 2.15882 0
M  V30 24 C 0.8331 -2.62108 3.43399 0
M  V30 25 C -0.0319 -3.89811 3.60861 0
M  V30 26 C -0.9929 -3.77193 4.8207 0
M  V30 27 N -1.8559 -4.9673 4.96189 0
M  V30 28 H 2.9841 -1.04962 2.78903 0
M  V30 29 H 0.5211 -0.507088 1.38083 0
M  V30 30 H 2.4791 -3.48089 2.29978 0
M  V30 31 H 1.1091 -2.96194 1.28331 0
M  V30 32 H 0.1611 -1.74967 3.37773 0
M  V30 33 H 1.4731 -2.48685 4.32386 0
M  V30 34 H 0.6271 -4.77103 3.74777 0
M  V30 35 H -0.6339 -4.06102 2.7006 0
M  V30 36 H -1.6289 -2.88284 4.68159 0
M  V30 37 H -0.4039 -3.62421 5.74307 0
M  V30 38 H -2.4579 -5.13431 4.08319 0
M  V30 39 H -2.5409 -4.85839 5.79221 0
M  V30 40 H -1.2729 -5.85594 5.1449 0
M  V30 41 N 2.9562 -1.48159 -0.537278 0
M  V30 42 C 4.2332 -1.46291 -1.29839 0
M  V30 43 C 4.6132 -0.170613 -2.10409 0
M  V30 44 O 3.9612 0.847746 -2.12192 0
M  V30 45 C 4.1712 -2.72055 -2.18603 0
M  V30 46 C 5.5192 -3.20087 -2.7898 0
M  V30 47 O 6.5432 -2.72921 -2.28894 0
M  V30 48 O 5.4022 -4.02138 -3.70064 0
M  V30 49 H 2.4962 -0.583906 -0.585647 0
M  V30 50 H 5.0422 -1.60384 -0.554534 0
M  V30 51 H 3.8142 -3.57628 -1.58801 0
M  V30 52 H 3.4372 -2.60646 -3.00249 0
M  V30 53 N 4.4343 0.785586 -1.36625 0
M  V30 54 C 5.3443 1.92964 -1.33425 0
M  V30 55 C 6.3603 1.72394 -0.235851 0
M  V30 56 O 7.5363 1.95866 -0.468878 0
M  V30 57 C 4.6013 3.27884 -1.12662 0
M  V30 58 C 3.6623 3.61204 -2.32013 0
M  V30 59 C 2.8953 4.89687 -2.12231 0
M  V30 60 O 3.1183 5.59704 -1.09945 0
M  V30 61 O 2.0523 5.21752 -3.00098 0
M  V30 62 H 5.8783 1.98613 -2.29753 0
M  V30 63 H 3.4633 0.926384 -1.17211 0
M  V30 64 H 5.3453 4.08614 -1.03016 0
M  V30 65 H 4.0203 3.23118 -0.193991 0
M  V30 66 H 2.9273 2.80765 -2.47228 0
M  V30 67 H 4.2603 3.70698 -3.23796 0
M  V30 68 N 5.9124 1.20967 1.01018 0
M  V30 69 C 7.1584 1.02526 1.74975 0
M  V30 70 C 7.4914 -0.4408 1.89131 0
M  V30 71 O 6.7664 -1.32718 1.42184 0
M  V30 72 C 7.0494 1.71699 3.1653 0
M  V30 73 C 6.9024 3.25791 3.10129 0
M  V30 74 C 8.2214 1.45531 4.15342 0
M  V30 75 H 5.3404 0.373863 0.635134 0
M  V30 76 H 7.9824 1.49071 1.17805 0
M  V30 77 H 6.1324 1.32128 3.65341 0
M  V30 78 H 7.8044 3.74697 2.69072 0
M  V30 79 H 6.0474 3.56363 2.47362 0
M  V30 80 H 6.7184 3.69353 4.10222 0
M  V30 81 H 9.1944 1.79872 3.75213 0
M  V30 82 H 8.0704 1.96453 5.1254 0
M  V30 83 H 8.3314 0.384237 4.40427 0
M  V30 84 N 7.3905 -1.2043 1.01659 0
M  V30 85 C 8.3535 -2.21433 0.591616 0
M  V30 86 C 9.3535 -1.57203 -0.338226 0
M  V30 87 O 10.5435 -1.73737 -0.126918 0
M  V30 88 C 7.6755 -3.40628 -0.136058 0
M  V30 89 H 8.8685 -2.60545 1.48514 0
M  V30 90 H 6.4215 -1.33893 0.806379 0
M  V30 91 H 7.1565 -3.07019 -1.04449 0
M  V30 92 H 6.9415 -3.88475 0.531917 0
M  V30 93 H 8.4315 -4.15475 -0.420735 0
M  V30 94 N 8.8686 -0.792821 -1.36206 0
M  V30 95 C 9.7986 -0.207853 -2.32573 0
M  V30 96 C 10.7796 0.659055 -1.56813 0
M  V30 97 O 11.9646 0.592176 -1.84951 0
M  V30 98 C 9.0946 0.655449 -3.41059 0
M  V30 99 C 8.0486 -0.111842 -4.27854 0
M  V30 100 C 7.3746 0.872274 -5.27537 0
M  V30 101 C 8.6746 -1.30299 -5.05786 0
M  V30 102 H 10.3686 -1.01294 -2.81744 0
M  V30 103 H 7.9146 -0.48854 -1.3546 0
M  V30 104 H 9.8676 1.07464 -4.07467 0
M  V30 105 H 8.5916 1.49328 -2.90463 0
M  V30 106 H 7.2506 -0.512053 -3.63006 0
M  V30 107 H 6.8986 1.70523 -4.73214 0
M  V30 108 H 6.5986 0.363291 -5.86476 0
M  V30 109 H 8.1226 1.28996 -5.96818 0
M  V30 110 H 9.5366 -0.959379 -5.65216 0
M  V30 111 H 7.9336 -1.7455 -5.74154 0
M  V30 112 H 9.0036 -2.09663 -4.37229 0
M  V30 113 N 10.3467 1.47872 -0.545128 0
M  V30 114 C 11.2767 2.32661 0.197793 0
M  V30 115 C 12.2577 1.43041 0.920504 0
M  V30 116 O 13.4427 1.71912 0.90333 0
M  V30 117 C 10.5727 3.24569 1.23582 0
M  V30 118 C 9.5267 4.23333 0.630323 0
M  V30 119 C 8.8527 5.0448 1.77211 0
M  V30 120 C 10.1527 5.20704 -0.407974 0
M  V30 121 H 11.8467 2.95024 -0.510045 0
M  V30 122 H 9.3927 1.4187 -0.246731 0
M  V30 123 H 11.3457 3.8272 1.76362 0
M  V30 124 H 10.0697 2.60236 1.97344 0
M  V30 125 H 8.7287 3.6639 0.123922 0
M  V30 126 H 8.3767 4.36561 2.49847 0
M  V30 127 H 8.0767 5.71339 1.37281 0
M  V30 128 H 9.6007 5.65487 2.3034 0
M  V30 129 H 11.0147 5.7329 0.033305 0
M  V30 130 H 9.4117 5.95699 -0.725486 0
M  V30 131 H 10.4817 4.66917 -1.30828 0
M  V30 132 N 11.8248 0.280983 1.55075 0
M  V30 133 C 12.7878 -0.590896 2.21452 0
M  V30 134 C 13.7878 -1.07682 1.19421 0
M  V30 135 O 14.9778 -0.97605 1.44288 0
M  V30 136 C 12.1098 -1.81587 2.88511 0
M  V30 137 H 13.3028 -0.0112554 2.99898 0
M  V30 138 H 10.8558 0.0316438 1.56268 0
M  V30 139 H 11.5908 -2.43587 2.14093 0
M  V30 140 H 11.3758 -1.4753 3.63287 0
M  V30 141 H 12.8658 -2.43575 3.39206 0
M  V30 142 N 13.3029 -1.57598 0.00835791 0
M  V30 143 C 14.2659 -2.07884 -0.965242 0
M  V30 144 C 15.2659 -0.989825 -1.26725 0
M  V30 145 O 16.4559 -1.25218 -1.21104 0
M  V30 146 C 13.5879 -2.52731 -2.28779 0
M  V30 147 H 14.7809 -2.95178 -0.530112 0
M  V30 148 H 12.3339 -1.54458 -0.239283 0
M  V30 149 H 13.0689 -1.68705 -2.76964 0
M  V30 150 H 12.8539 -3.32272 -2.08177 0
M  V30 151 H 14.3439 -2.91933 -2.98605 0
M  V30 152 N 14.781 0.264519 -1.55364 0
M  V30 153 C 16.027 0.99646 -1.76631 0
M  V30 154 C 16.36 1.85632 -0.570478 0
M  V30 155 O 15.635 1.89647 0.43175 0
M  V30 156 C 15.918 1.87187 -3.07625 0
M  V30 157 C 15.771 1.04138 -4.37579 0
M  V30 158 C 17.09 2.85749 -3.34717 0
M  V30 159 H 14.209 0.360841 -0.642622 0
M  V30 160 H 16.851 0.268218 -1.88097 0
M  V30 161 H 15.001 2.49279 -2.9798 0
M  V30 162 H 16.673 0.440517 -4.59192 0
M  V30 163 H 14.916 0.345115 -4.32425 0
M  V30 164 H 15.587 1.68729 -5.2558 0
M  V30 165 H 18.063 2.33793 -3.4421 0
M  V30 166 H 16.939 3.44136 -4.27623 0
M  V30 167 H 17.2 3.61311 -2.54768 0
M  V30 168 N 16.2591 1.48442 0.529413 0
M  V30 169 C 17.4871 1.60151 1.30994 0
M  V30 170 C 17.9021 0.261985 1.86973 0
M  V30 171 O 17.2591 -0.748805 1.66431 0
M  V30 172 C 17.3101 2.64854 2.46038 0
M  V30 173 O 17.0311 3.93608 1.92365 0
M  V30 174 C 18.5321 2.87007 3.37849 0
M  V30 175 H 15.7521 0.539971 0.398338 0
M  V30 176 H 18.2961 1.94273 0.638597 0
M  V30 177 H 16.4511 2.33589 3.09055 0
M  V30 178 H 16.8651 4.51055 2.67675 0
M  V30 179 H 18.3391 3.64068 4.14919 0
M  V30 180 H 18.8161 1.95852 3.93114 0
M  V30 181 H 19.4221 3.19579 2.80623 0
M  V30 182 N 17.7372 -0.778329 1.37039 0
M  V30 183 C 18.6672 -1.90546 1.34962 0
M  V30 184 C 19.6482 -1.68681 0.219274 0
M  V30 185 O 20.8332 -1.89634 0.418624 0
M  V30 186 C 17.9632 -3.27734 1.14925 0
M  V30 187 C 16.9172 -3.64147 2.24902 0
M  V30 188 C 16.2432 -4.99806 1.89996 0
M  V30 189 C 17.5432 -3.71579 3.67051 0
M  V30 190 H 19.2372 -1.92541 2.29277 0
M  V30 191 H 16.7832 -0.924948 1.10366 0
M  V30 192 H 18.7362 -4.06215 1.12104 0
M  V30 193 H 17.4602 -3.26154 0.170631 0
M  V30 194 H 16.1192 -2.8797 2.26868 0
M  V30 195 H 15.7672 -4.94759 0.906796 0
M  V30 196 H 15.4672 -5.25139 2.63634 0
M  V30 197 H 16.9912 -5.80694 1.88749 0
M  V30 198 H 18.4052 -4.40227 3.67251 0
M  V30 199 H 16.8022 -4.08405 4.39688 0
M  V30 200 H 17.8722 -2.72404 4.01154 0
M  V30 201 N 19.2153 -1.21501 -1.00376 0
M  V30 202 C 20.1453 -0.999478 -2.11028 0
M  V30 203 C 21.1263 0.0759671 -1.6993 0
M  V30 204 O 22.3113 -0.0841106 -1.94018 0
M  V30 205 C 19.4413 -0.564709 -3.42678 0
M  V30 206 C 18.3953 -1.58486 -3.97576 0
M  V30 207 C 17.7213 -1.00628 -5.25146 0
M  V30 208 C 19.0213 -2.97204 -4.29496 0
M  V30 209 H 20.7153 -1.92495 -2.29317 0
M  V30 210 H 18.2613 -0.92693 -1.102 0
M  V30 211 H 20.2143 -0.401091 -4.19487 0
M  V30 212 H 18.9383 0.396411 -3.24185 0
M  V30 213 H 17.5973 -1.73606 -3.22888 0
M  V30 214 H 17.2453 -0.0368439 -5.02987 0
M  V30 215 H 16.9453 -1.68771 -5.62841 0
M  V30 216 H 18.4693 -0.854015 -6.04598 0
M  V30 217 H 19.8833 -2.8552 -4.97143 0
M  V30 218 H 18.2803 -3.62372 -4.78338 0
M  V30 219 H 19.3503 -3.47956 -3.3772 0
M  V30 220 N 20.6934 1.19889 -1.02296 0
M  V30 221 C 21.9414 1.89046 -0.714558 0
M  V30 222 C 22.2624 1.79636 0.758681 0
M  V30 223 O 21.5324 1.20292 1.54618 0
M  V30 224 H 20.1124 0.699802 -0.261317 0
M  V30 225 H 22.7744 1.45574 -1.29592 0
M  V30 226 H 21.8704 2.95524 -1.0036 0
M  V30 227 N 22.1715 0.800033 1.35784 0
M  V30 228 C 23.4175 0.377901 1.99248 0
M  V30 229 C 23.7505 -1.05052 1.63333 0
M  V30 230 O 23.0255 -1.72768 0.893385 0
M  V30 231 C 23.3085 0.553922 3.55814 0
M  V30 232 C 23.1615 2.0268 4.01548 0
M  V30 233 C 24.4805 -0.0244802 4.40093 0
M  V30 234 H 21.5995 0.138782 0.723815 0
M  V30 235 H 24.2415 1.00835 1.61035 0
M  V30 236 H 22.3915 0.0172398 3.88496 0
M  V30 237 H 24.0635 2.62536 3.79305 0
M  V30 238 H 22.3065 2.5256 3.52698 0
M  V30 239 H 22.9775 2.10087 5.10458 0
M  V30 240 H 25.4535 0.433775 4.13833 0
M  V30 241 H 24.3295 0.128637 5.48749 0
M  V30 242 H 24.5905 -1.11758 4.27741 0
M  V30 243 N 23.6496 -1.47581 0.552962 0
M  V30 244 C 24.5796 -2.32762 -0.185451 0
M  V30 245 C 25.5606 -1.43527 -0.912905 0
M  V30 246 O 26.7456 -1.72388 -0.894201 0
M  V30 247 C 23.8756 -3.25219 -1.21859 0
M  V30 248 C 22.8296 -4.23661 -0.607864 0
M  V30 249 C 22.1556 -5.05413 -1.74533 0
M  V30 250 C 23.4556 -5.20481 0.435582 0
M  V30 251 H 25.1496 -2.94749 0.525684 0
M  V30 252 H 22.6956 -1.41738 0.254251 0
M  V30 253 H 24.6486 -3.8365 -1.7433 0
M  V30 254 H 23.3726 -2.61279 -1.95961 0
M  V30 255 H 22.0316 -3.66451 -0.104489 0
M  V30 256 H 21.6796 -4.3788 -2.47529 0
M  V30 257 H 21.3796 -5.72059 -1.34249 0
M  V30 258 H 22.9036 -5.66701 -2.27338 0
M  V30 259 H 24.3176 -5.733 -0.00290157 0
M  V30 260 H 22.7146 -5.95305 0.757067 0
M  V30 261 H 23.7846 -4.66217 1.33303 0
M  V30 262 N 25.1277 -0.289203 -1.54924 0
M  V30 263 C 26.0577 0.58549 -2.2604 0
M  V30 264 C 27.0387 1.14753 -1.25562 0
M  V30 265 O 28.2237 1.17906 -1.54311 0
M  V30 266 C 25.3537 1.76305 -2.99222 0
M  V30 267 C 24.3077 1.33191 -4.06748 0
M  V30 268 C 23.6337 2.5937 -4.6758 0
M  V30 269 C 24.9337 0.471775 -5.20165 0
M  V30 270 H 26.6277 -0.00763532 -2.99399 0
M  V30 271 H 24.1737 -0.00511229 -1.43999 0
M  V30 272 H 26.1267 2.38097 -3.47689 0
M  V30 273 H 24.8507 2.38223 -2.23422 0
M  V30 274 H 23.5097 0.737121 -3.59113 0
M  V30 275 H 23.1577 3.19576 -3.88433 0
M  V30 276 H 22.8577 2.31228 -5.40192 0
M  V30 277 H 24.3817 3.21985 -5.18804 0
M  V30 278 H 25.7957 0.995056 -5.64599 0
M  V30 279 H 24.1927 0.284639 -5.99425 0
M  V30 280 H 25.2627 -0.506041 -4.82252 0
M  V30 281 N 26.6058 1.57591 -0.0167156 0
M  V30 282 C 27.5378 2.06343 0.997753 0
M  V30 283 C 28.5508 0.984469 1.29661 0
M  V30 284 O 29.7398 1.26093 1.26344 0
M  V30 285 C 26.8398 2.46255 2.32834 0
M  V30 286 C 26.0128 3.77083 2.21646 0
M  V30 287 C 25.0718 4.0368 3.37534 0
M  V30 288 O 24.0978 4.7411 3.14973 0
M  V30 289 N 25.2998 3.52881 4.60929 0
M  V30 290 H 28.0648 2.93997 0.581875 0
M  V30 291 H 25.6258 1.61002 0.170316 0
M  V30 292 H 27.6178 2.61149 3.09166 0
M  V30 293 H 26.1878 1.64032 2.66106 0
M  V30 294 H 25.4078 3.72106 1.30119 0
M  V30 295 H 26.6958 4.62822 2.11361 0
M  V30 296 H 26.0938 2.95878 4.82154 0
M  V30 297 H 24.6508 3.73076 5.34469 0
M  V30 298 N 28.0839 -0.256276 1.55502 0
M  V30 299 C 29.0469 -1.30047 1.88734 0
M  V30 300 C 30.0469 -1.4154 0.763086 0
M  V30 301 O 31.2369 -1.40403 1.03115 0
M  V30 302 C 28.3689 -2.67953 2.10747 0
M  V30 303 H 29.5619 -1.01802 2.82093 0
M  V30 304 H 27.1149 -0.495134 1.4825 0
M  V30 305 H 27.8499 -3.01351 1.19825 0
M  V30 306 H 27.6349 -2.60993 2.92617 0
M  V30 307 H 29.1249 -3.43368 2.37673 0
M  V30 308 N 29.562 -1.4872 -0.521534 0
M  V30 309 C 30.792 -1.6061 -1.29954 0
M  V30 310 C 31.2 -0.268728 -1.87282 0
M  V30 311 O 30.543 0.753221 -1.67548 0
M  V30 312 C 30.605 -2.60013 -2.48261 0
M  V30 313 C 30.269 -4.04874 -2.11957 0
M  V30 314 C 31.266 -4.92304 -1.67132 0
M  V30 315 C 28.951 -4.5047 -2.22221 0
M  V30 316 C 30.945 -6.2336 -1.33047 0
M  V30 317 C 28.632 -5.81544 -1.87748 0
M  V30 318 C 29.63 -6.67812 -1.43234 0
M  V30 319 O 29.318 -7.96446 -1.09217 0
M  V30 320 H 29.05 -0.544116 -0.401141 0
M  V30 321 H 31.604 -1.95339 -0.634958 0
M  V30 322 H 29.834 -2.20422 -3.17728 0
M  V30 323 H 31.523 -2.61648 -3.10315 0
M  V30 324 H 32.289 -4.58312 -1.58665 0
M  V30 325 H 28.168 -3.83504 -2.55823 0
M  V30 326 H 31.712 -6.90649 -0.982299 0
M  V30 327 H 27.609 -6.15069 -1.95858 0
M  V30 328 H 28.377 -8.09275 -1.22542 0
M  V30 329 N 31.0401 0.771051 -1.3745 0
M  V30 330 C 32.2871 1.52963 -1.32697 0
M  V30 331 C 32.6151 1.94299 0.0883274 0
M  V30 332 O 31.8701 1.64397 1.0617 0
M  V30 333 C 32.1691 2.80676 -2.2126 0
M  V30 334 C 31.8351 2.58389 -3.69521 0
M  V30 335 C 30.4971 2.52019 -4.09927 0
M  V30 336 C 32.8491 2.38469 -4.63446 0
M  V30 337 C 30.1771 2.23721 -5.42371 0
M  V30 338 C 32.5291 2.11694 -5.96128 0
M  V30 339 C 31.1931 2.03769 -6.35637 0
M  V30 340 H 30.4631 0.559732 -0.485573 0
M  V30 341 H 33.1101 0.888083 -1.69662 0
M  V30 342 H 31.4151 3.49392 -1.77291 0
M  V30 343 H 33.1121 3.38557 -2.14895 0
M  V30 344 H 29.7021 2.6421 -3.37478 0
M  V30 345 H 33.8861 2.4238 -4.33089 0
M  V30 346 H 29.1421 2.16081 -5.71943 0
M  V30 347 H 33.3161 1.9528 -6.6846 0
M  V30 348 H 30.9431 1.81606 -7.38189 0
M  V30 349 N 32.5182 1.22032 0.997298 0
M  V30 350 C 33.7432 1.06921 1.77715 0
M  V30 351 C 34.1682 -0.376226 1.84299 0
M  V30 352 O 33.5262 -1.27165 1.29223 0
M  V30 353 C 33.5742 1.67996 3.19076 0
M  V30 354 O 32.6782 0.930653 4.01762 0
M  V30 355 H 32.0192 0.375814 0.547412 0
M  V30 356 H 34.5492 1.61737 1.25309 0
M  V30 357 H 34.5592 1.72538 3.69723 0
M  V30 358 H 33.2342 2.73182 3.13599 0
M  V30 359 H 31.8112 0.960917 3.60307 0
M  V30 360 N 33.9963 -1.19345 1.0293 0
M  V30 361 C 34.9263 -2.2481 0.631105 0
M  V30 362 C 35.9073 -1.66245 -0.360104 0
M  V30 363 O 37.0923 -1.92677 -0.242726 0
M  V30 364 C 34.2223 -3.47295 -0.0184607 0
M  V30 365 C 33.1763 -4.18536 0.895073 0
M  V30 366 C 32.5023 -5.34586 0.110592 0
M  V30 367 C 33.8023 -4.73287 2.209 0
M  V30 368 H 35.4963 -2.58372 1.51275 0
M  V30 369 H 33.0423 -1.24194 0.728818 0
M  V30 370 H 34.9953 -4.20268 -0.308675 0
M  V30 371 H 33.7193 -3.12933 -0.934907 0
M  V30 372 H 32.3783 -3.47446 1.16949 0
M  V30 373 H 32.0263 -4.96469 -0.807902 0
M  V30 374 H 31.7263 -5.83183 0.719087 0
M  V30 375 H 33.2503 -6.10355 -0.172871 0
M  V30 376 H 34.6643 -5.38013 1.98028 0
M  V30 377 H 33.0613 -5.32373 2.76946 0
M  V30 378 H 34.1313 -3.91331 2.86336 0
M  V30 379 N 35.4744 -0.807222 -1.35358 0
M  V30 380 C 36.4064 -0.175717 -2.28525 0
M  V30 381 C 37.4194 0.625354 -1.5031 0
M  V30 382 O 38.6084 0.457611 -1.72535 0
M  V30 383 C 35.7084 0.773471 -3.29956 0
M  V30 384 C 34.8814 0.0186296 -4.37396 0
M  V30 385 C 33.9404 0.886395 -5.18681 0
M  V30 386 O 32.9664 0.337106 -5.68201 0
M  V30 387 N 34.1684 2.20839 -5.36852 0
M  V30 388 H 36.9334 -0.976091 -2.83359 0
M  V30 389 H 34.4944 -0.662737 -1.47714 0
M  V30 390 H 36.4864 1.35824 -3.81227 0
M  V30 391 H 35.0564 1.47465 -2.75632 0
M  V30 392 H 34.2764 -0.747349 -3.87051 0
M  V30 393 H 35.5644 -0.501577 -5.06322 0
M  V30 394 H 34.9624 2.67858 -4.98265 0
M  V30 395 H 33.5194 2.74237 -5.91301 0
M  V30 396 N 36.9525 1.47285 -0.560781 0
M  V30 397 C 38.1985 2.02764 -0.0381184 0
M  V30 398 C 38.5315 1.43384 1.30976 0
M  V30 399 O 37.8065 0.590733 1.85312 0
M  V30 400 C 38.0895 3.60064 0.0511427 0
M  V30 401 C 37.9425 4.2987 -1.32408 0
M  V30 402 C 39.2615 4.33439 0.762795 0
M  V30 403 H 36.3805 0.736841 -0.0153264 0
M  V30 404 H 39.0225 1.75675 -0.723759 0
M  V30 405 H 37.1725 3.83274 0.635065 0
M  V30 406 H 38.8445 4.17989 -1.95148 0
M  V30 407 H 37.0875 3.90085 -1.8978 0
M  V30 408 H 37.7585 5.38478 -1.21431 0
M  V30 409 H 40.2345 4.15243 0.266965 0
M  V30 410 H 39.1105 5.43124 0.794221 0
M  V30 411 H 39.3715 4.02915 1.81966 0
M  V30 412 N 38.4306 0.297415 1.54768 0
M  V30 413 C 39.6796 -0.313669 1.99246 0
M  V30 414 C 39.9926 -1.55281 1.18942 0
M  V30 415 O 41.1986 -2.23825 1.5367 0
M  V30 416 C 39.6546 -0.609407 3.54703 0
M  V30 417 C 39.2626 0.611192 4.43811 0
M  V30 418 C 41.0066 -1.18188 4.07715 0
M  V30 419 C 38.9136 0.288805 5.90694 0
M  V30 420 H 37.8436 -0.120979 0.744231 0
M  V30 421 H 40.4946 0.40556 1.78962 0
M  V30 422 H 38.8766 -1.38813 3.70873 0
M  V30 423 H 40.0506 1.3875 4.39414 0
M  V30 424 H 38.3656 1.10205 4.01552 0
M  V30 425 H 40.9626 -1.43727 5.15021 0
M  V30 426 H 41.3056 -2.12299 3.58099 0
M  V30 427 H 41.8386 -0.464944 3.95074 0
M  V30 428 H 38.5776 1.19838 6.44453 0
M  V30 429 H 38.0976 -0.450305 5.98107 0
M  V30 430 H 39.7766 -0.110933 6.46905 0
M  V30 431 N 39.9087 -1.5758 0.0250728 0
M  V30 432 C 41.1337 -1.96337 -0.668317 0
M  V30 433 C 41.5587 -0.901314 -1.651 0
M  V30 434 O 40.9167 0.138187 -1.80773 0
M  V30 435 C 40.9647 -3.34191 -1.35457 0
M  V30 436 O 40.0687 -3.30269 -2.46974 0
M  V30 437 H 39.4097 -0.640281 -0.175887 0
M  V30 438 H 41.9397 -2.0442 0.0857224 0
M  V30 439 H 41.9497 -3.70331 -1.71228 0
M  V30 440 H 40.6247 -4.11036 -0.634218 0
M  V30 441 H 39.2017 -3.05841 -2.13344 0
M  V30 442 N 41.3868 0.248026 -1.55636 0
M  V30 443 C 42.3498 1.29044 -1.89421 0
M  V30 444 C 43.3498 1.41134 -0.770581 0
M  V30 445 O 44.5398 1.39854 -1.03858 0
M  V30 446 C 41.6718 2.66831 -2.12165 0
M  V30 447 H 42.8648 1.00305 -2.82629 0
M  V30 448 H 40.4178 0.487265 -1.48511 0
M  V30 449 H 41.1528 3.00711 -1.21422 0
M  V30 450 H 40.9378 2.59438 -2.93997 0
M  V30 451 H 42.4278 3.42103 -2.3949 0
M  V30 452 N 42.8649 1.48995 0.513639 0
M  V30 453 C 44.2809 1.35478 0.843682 0
M  V30 454 C 44.4809 0.378213 1.97919 0
M  V30 455 O 43.5369 -0.194689 2.51748 0
M  V30 456 C 44.8499 2.75901 1.1958 0
M  V30 457 C 46.3979 2.84509 1.30474 0
M  V30 458 C 46.8729 4.25671 1.69021 0
M  V30 459 N 48.3639 4.28422 1.76094 0
M  V30 460 C 49.0989 5.34601 2.07338 0
M  V30 461 N 48.5949 6.5104 2.36894 0
M  V30 462 N 50.3879 5.22007 2.08483 0
M  V30 463 H 42.5389 2.11092 -0.235328 0
M  V30 464 H 44.8019 0.947039 -0.0426669 0
M  V30 465 H 44.5079 3.49001 0.434913 0
M  V30 466 H 44.3819 3.10467 2.1422 0
M  V30 467 H 46.7689 2.11655 2.05637 0
M  V30 468 H 46.8499 2.53542 0.339155 0
M  V30 469 H 46.4939 4.99048 0.944135 0
M  V30 470 H 46.4239 4.54094 2.66658 0
M  V30 471 H 48.9149 3.44441 1.55464 0
M  V30 472 H 49.2279 7.2779 2.59887 0
M  V30 473 H 47.5729 6.54287 2.34378 0
M  V30 474 H 50.7639 4.30051 1.84861 0
M  V30 475 H 50.9369 6.04854 2.325 0
M  V30 476 N 44.343 -0.763751 1.37857 0
M  V30 477 C 45.759 -1.06542 1.18832 0
M  V30 478 C 45.959 -2.01478 0.0299722 0
M  V30 479 O 45.015 -2.4458 -0.627447 0
M  V30 480 C 46.328 -1.65525 2.51042 0
M  V30 481 C 47.876 -1.77745 2.57635 0
M  V30 482 C 48.351 -2.4014 3.89996 0
M  V30 483 N 49.842 -2.47582 3.91481 0
M  V30 484 C 50.577 -2.96732 4.9065 0
M  V30 485 N 50.073 -3.45993 6.00217 0
M  V30 486 N 51.866 -2.95679 4.78048 0
M  V30 487 H 44.017 -0.133556 2.1198 0
M  V30 488 H 46.28 -0.121879 0.940133 0
M  V30 489 H 45.986 -1.03236 3.36207 0
M  V30 490 H 45.86 -2.64719 2.68707 0
M  V30 491 H 48.247 -2.39164 1.72872 0
M  V30 492 H 48.328 -0.772836 2.43846 0
M  V30 493 H 47.972 -1.79358 4.75177 0
M  V30 494 H 47.902 -3.41223 4.01092 0
M  V30 495 H 50.393 -2.1273 3.12337 0
M  V30 496 H 50.706 -3.81922 6.7183 0
M  V30 497 H 49.051 -3.44077 6.03851 0
M  V30 498 H 52.242 -2.56499 3.91568 0
M  V30 499 H 52.415 -3.33672 5.55488 0
M  V30 500 N 45.8211 -1.22559 -0.990812 0
M  V30 501 C 46.7841 -0.998863 -2.0629 0
M  V30 502 C 47.7841 0.0354834 -1.60761 0
M  V30 503 O 48.9741 -0.203231 -1.7301 0
M  V30 504 C 46.1061 -0.509203 -3.37076 0
M  V30 505 H 47.2991 -1.95014 -2.27837 0
M  V30 506 H 44.8521 -1.04456 -1.16269 0
M  V30 507 H 45.5871 0.446335 -3.21214 0
M  V30 508 H 45.3721 -1.25547 -3.71457 0
M  V30 509 H 46.8621 -0.370888 -4.1595 0
M  V30 510 N 47.2992 1.18797 -1.03562 0
M  V30 511 C 48.5462 1.8865 -0.736023 0
M  V30 512 C 48.8742 1.80041 0.735889 0
M  V30 513 O 48.1292 1.19179 1.55225 0
M  V30 514 C 48.4282 3.38692 -1.14117 0
M  V30 515 C 48.0942 3.67504 -2.6125 0
M  V30 516 C 46.7562 3.75078 -3.01447 0
M  V30 517 C 49.1082 3.80293 -3.56408 0
M  V30 518 C 46.4362 3.92915 -4.35701 0
M  V30 519 C 48.7882 3.99645 -4.90374 0
M  V30 520 C 47.4522 4.05453 -5.30249 0
M  V30 521 H 46.7222 0.690321 -0.26933 0
M  V30 522 H 49.3692 1.40641 -1.29971 0
M  V30 523 H 47.6742 3.88645 -0.496202 0
M  V30 524 H 49.3712 3.91072 -0.886789 0
M  V30 525 H 45.9612 3.62223 -2.29113 0
M  V30 526 H 50.1452 3.73779 -3.26501 0
M  V30 527 H 45.4012 3.95653 -4.66121 0
M  V30 528 H 49.5752 4.08482 -5.64017 0
M  V30 529 H 47.2022 4.19027 -6.34288 0
M  V30 530 N 48.7773 0.814389 1.34928 0
M  V30 531 C 50.1933 0.499084 1.51596 0
M  V30 532 C 50.3933 -0.978319 1.76157 0
M  V30 533 O 49.4493 -1.76309 1.80752 0
M  V30 534 C 50.7623 1.35121 2.68631 0
M  V30 535 C 52.3103 1.34746 2.82511 0
M  V30 536 C 52.7853 2.18388 4.0258 0
M  V30 537 N 54.2763 2.15966 4.09772 0
M  V30 538 C 55.0113 2.77437 5.01813 0
M  V30 539 N 54.5073 3.47866 5.99134 0
M  V30 540 N 56.3003 2.67037 4.94619 0
M  V30 541 H 48.4513 1.7711 1.17243 0
M  V30 542 H 50.7143 0.754256 0.574284 0
M  V30 543 H 50.4203 2.40001 2.57085 0
M  V30 544 H 50.2943 1.00991 3.63429 0
M  V30 545 H 52.6813 0.30648 2.93504 0
M  V30 546 H 52.7623 1.72869 1.88547 0
M  V30 547 H 52.4063 3.2253 3.92347 0
M  V30 548 H 52.3363 1.77621 4.9574 0
M  V30 549 H 54.8273 1.64729 3.40107 0
M  V30 550 H 55.1403 3.92038 6.65977 0
M  V30 551 H 53.4853 3.51972 5.99284 0
M  V30 552 H 56.6763 2.11597 4.17546 0
M  V30 553 H 56.8493 3.15232 5.66156 0
M  V30 554 N 50.2554 -1.46986 0.568584 0
M  V30 555 C 51.5014 -2.02741 0.0488709 0
M  V30 556 C 51.8344 -1.44077 -1.30214 0
M  V30 557 O 51.1094 -0.600552 -1.84996 0
M  V30 558 C 51.3924 -3.60086 -0.032047 0
M  V30 559 C 51.2454 -4.29162 1.34686 0
M  V30 560 C 52.5644 -4.33838 -0.739798 0
M  V30 561 H 49.6834 -0.736749 0.0192338 0
M  V30 562 H 52.3254 -1.75289 0.733065 0
M  V30 563 H 50.4754 -3.83606 -0.61473 0
M  V30 564 H 52.1474 -4.16948 1.97362 0
M  V30 565 H 50.3904 -3.89073 1.91846 0
M  V30 566 H 51.0614 -5.37826 1.24285 0
M  V30 567 H 53.5374 -4.15378 -0.244939 0
M  V30 568 H 52.4134 -5.43537 -0.765406 0
M  V30 569 H 52.6744 -4.03875 -1.79827 0
M  V30 570 N 51.7335 -0.305618 -1.54608 0
M  V30 571 C 52.9585 0.307562 -2.05107 0
M  V30 572 C 53.3835 1.46385 -1.18123 0
M  V30 573 O 52.7415 1.8034 -0.186324 0
M  V30 574 C 52.7895 0.73704 -3.52987 0
M  V30 575 O 51.8935 1.84134 -3.6901 0
M  V30 576 H 51.2345 0.0589143 -0.661381 0
M  V30 577 H 53.7645 -0.448807 -1.99617 0
M  V30 578 H 53.7745 1.02459 -3.94925 0
M  V30 579 H 52.4495 -0.108773 -4.15758 0
M  V30 580 H 51.0265 1.55398 -3.38978 0
M  V30 581 N 53.2116 1.57565 -0.0334293 0
M  V30 582 C 54.6226 1.79746 0.504798 0
M  V30 583 C 54.9736 0.944091 1.71992 0
M  V30 584 O 54.0986 0.155694 2.15839 0
M  V30 585 C 54.6936 3.25997 0.922567 0
M  V30 586 C 53.2526 3.49159 1.40588 0
M  V30 587 C 52.3996 2.74785 0.372633 0
M  V30 588 H 55.3506 1.56565 -0.259436 0
M  V30 589 H 55.3716 3.35945 1.78666 0
M  V30 590 H 54.8836 3.88081 0.0379825 0
M  V30 591 H 52.9846 2.92332 2.31025 0
M  V30 592 H 53.0976 4.57873 1.41028 0
M  V30 593 H 51.4616 2.40391 0.841672 0
M  V30 594 H 52.2446 3.39587 -0.503559 0
M  V30 595 N 54.6897 -0.239769 1.55765 0
M  V30 596 C 56.1007 -0.808263 1.68297 0
M  V30 597 C 56.4517 -1.85736 0.632181 0
M  V30 598 O 55.5767 -2.15277 -0.220204 0
M  V30 599 C 56.1717 -1.47284 3.05111 0
M  V30 600 C 54.7307 -1.98895 3.19559 0
M  V30 601 C 53.8777 -0.842575 2.64189 0
M  V30 602 H 56.8287 -0.0154422 1.58692 0
M  V30 603 H 56.8497 -2.34111 2.99954 0
M  V30 604 H 56.3617 -0.709053 3.81568 0
M  V30 605 H 54.4627 -2.78132 2.47938 0
M  V30 606 H 54.5757 -2.18143 4.26556 0
M  V30 607 H 52.9397 -1.24501 2.22197 0
M  V30 608 H 53.7227 -0.0917552 3.43177 0
M  V30 609 N 56.1678 -1.49265 -0.50573 0
M  V30 610 C 57.0978 -1.68495 -1.61653 0
M  V30 611 C 58.0788 -0.53366 -1.61512 0
M  V30 612 O 59.2638 -0.76897 -1.78327 0
M  V30 613 C 56.3938 -1.74709 -3.00157 0
M  V30 614 C 55.3478 -2.89581 -3.15162 0
M  V30 615 C 54.6738 -2.80903 -4.5497 0
M  V30 616 C 55.9738 -4.30578 -2.95634 0
M  V30 617 H 57.6678 -2.61493 -1.45814 0
M  V30 618 H 55.2138 -1.25838 -0.70005 0
M  V30 619 H 57.1668 -1.86748 -3.77761 0
M  V30 620 H 55.8908 -0.783067 -3.17074 0
M  V30 621 H 54.5498 -2.77136 -2.39982 0
M  V30 622 H 54.1978 -1.82419 -4.68756 0
M  V30 623 H 53.8978 -3.57999 -4.65951 0
M  V30 624 H 55.4218 -2.94944 -5.34641 0
M  V30 625 H 56.8358 -4.4373 -3.63011 0
M  V30 626 H 55.2328 -5.0886 -3.18091 0
M  V30 627 H 56.3028 -4.45352 -1.91806 0
M  V30 628 N 57.6459 0.756429 -1.3826 0
M  V30 629 C 58.8739 1.54565 -1.3754 0
M  V30 630 C 59.2889 1.88767 0.0355331 0
M  V30 631 O 58.6459 1.52572 1.0014 0
M  V30 632 C 58.6969 2.84654 -2.22833 0
M  V30 633 O 58.4179 2.51912 -3.5843 0
M  V30 634 C 59.9189 3.78807 -2.30261 0
M  V30 635 H 57.1389 0.478353 -0.470553 0
M  V30 636 H 59.6829 0.936381 -1.81803 0
M  V30 637 H 57.8379 3.41965 -1.8204 0
M  V30 638 H 58.2519 3.35325 -4.03308 0
M  V30 639 H 59.7259 4.67045 -2.94233 0
M  V30 640 H 60.2029 4.19038 -1.31545 0
M  V30 641 H 60.8089 3.2742 -2.71433 0
M  V30 642 N 59.124 1.23083 0.984299 0
M  V30 643 C 60.352 1.08714 1.76037 0
M  V30 644 C 60.767 -0.361691 1.85303 0
M  V30 645 O 60.124 -1.25034 1.32939 0
M  V30 646 C 60.175 1.70206 3.18923 0
M  V30 647 O 59.896 3.09423 3.10144 0
M  V30 648 C 61.397 1.61227 4.12941 0
M  V30 649 H 58.617 0.380664 0.552572 0
M  V30 650 H 61.161 1.62853 1.23689 0
M  V30 651 H 59.316 1.20109 3.6831 0
M  V30 652 H 59.73 3.39188 4.00065 0
M  V30 653 H 61.204 2.08962 5.10919 0
M  V30 654 H 61.681 0.570375 4.35481 0
M  V30 655 H 62.287 2.10671 3.69456 0
M  V30 656 N 60.6021 -1.18246 1.0419 0
M  V30 657 C 61.8501 -1.87886 0.744543 0
M  V30 658 C 62.1711 -1.8082 -0.730006 0
M  V30 659 O 61.4411 -1.22736 -1.52685 0
M  V30 660 H 60.0211 -0.695556 0.272417 0
M  V30 661 H 62.6831 -1.43494 1.31892 0
M  V30 662 H 61.7791 -2.9389 1.05049 0
M  V30 663 N 62.0802 -0.821533 -1.34494 0
M  V30 664 C 63.4912 -0.467956 -1.8074 0
M  V30 665 C 63.8422 1.01151 -1.68116 0
M  V30 666 O 62.9672 1.78707 -1.22036 0
M  V30 667 C 63.5622 -0.842627 -3.28154 0
M  V30 668 C 62.1212 -0.541439 -3.72485 0
M  V30 669 C 61.2682 -1.06028 -2.56229 0
M  V30 670 H 64.2192 -1.01183 -1.22261 0
M  V30 671 H 64.2402 -0.145876 -3.8022 0
M  V30 672 H 63.7522 -1.91945 -3.37311 0
M  V30 673 H 61.8532 0.526034 -3.68868 0
M  V30 674 H 61.9662 -1.08453 -4.66663 0
M  V30 675 H 60.3302 -0.481892 -2.501 0
M  V30 676 H 61.1132 -2.14352 -2.68157 0
M  V30 677 N 63.5583 1.46682 -0.576371 0
M  V30 678 C 64.9693 1.86112 -0.148091 0
M  V30 679 C 65.3203 1.48073 1.2872 0
M  V30 680 O 64.4453 0.892656 1.97131 0
M  V30 681 C 65.0403 3.37786 -0.261982 0
M  V30 682 C 63.5993 3.76235 0.111384 0
M  V30 683 C 62.7463 2.70713 -0.60083 0
M  V30 684 H 65.6973 1.37927 -0.78497 0
M  V30 685 H 65.7183 3.77007 0.514364 0
M  V30 686 H 65.2303 3.6544 -1.30671 0
M  V30 687 H 63.3313 3.54198 1.15649 0
M  V30 688 H 63.4443 4.78391 -0.26052 0
M  V30 689 H 61.8083 2.54666 -0.0417783 0
M  V30 690 H 62.5913 3.01208 -1.64708 0
M  V30 691 N 65.0364 0.313813 1.54444 0
M  V30 692 C 65.9464 -0.565714 2.27677 0
M  V30 693 C 66.9624 -1.13754 1.31666 0
M  V30 694 O 68.1384 -1.15959 1.64668 0
M  V30 695 C 65.2034 -1.71528 3.01296 0
M  V30 696 C 64.2644 -1.17624 4.12872 0
M  V30 697 C 63.4974 -2.27102 4.8297 0
M  V30 698 O 63.7204 -3.47256 4.52514 0
M  V30 699 O 62.6544 -1.9307 5.70094 0
M  V30 700 H 66.4804 0.0287296 3.03686 0
M  V30 701 H 64.0654 0.0798312 1.49187 0
M  V30 702 H 65.9474 -2.38476 3.4743 0
M  V30 703 H 64.6224 -2.29608 2.2817 0
M  V30 704 H 63.5294 -0.472124 3.71109 0
M  V30 705 H 64.8624 -0.640695 4.88012 0
M  V30 706 N 66.5145 -1.57545 0.0417849 0
M  V30 707 C 67.7615 -1.92317 -0.634082 0
M  V30 708 C 68.0895 -0.919334 -1.71402 0
M  V30 709 O 67.3445 0.0698253 -1.95575 0
M  V30 710 C 67.6435 -3.33794 -1.27735 0
M  V30 711 C 67.3095 -4.49716 -0.326543 0
M  V30 712 C 65.9715 -4.81156 -0.0648814 0
M  V30 713 C 68.3235 -5.20182 0.325623 0
M  V30 714 C 65.6515 -5.80414 0.856539 0
M  V30 715 C 68.0035 -6.20424 1.23518 0
M  V30 716 C 66.6675 -6.50298 1.5056 0
M  V30 717 H 65.9375 -0.703736 -0.232027 0
M  V30 718 H 68.5845 -1.91205 0.106259 0
M  V30 719 H 66.8895 -3.31228 -2.09274 0
M  V30 720 H 68.5865 -3.57975 -1.80707 0
M  V30 721 H 65.1765 -4.25176 -0.540665 0
M  V30 722 H 69.3605 -4.96112 0.136546 0
M  V30 723 H 64.6165 -6.019 1.07363 0
M  V30 724 H 68.7905 -6.74141 1.74664 0
M  V30 725 H 66.4175 -7.27025 2.22123 0
M  V30 726 N 67.9926 0.231505 -1.5589 0
M  V30 727 C 68.9026 1.308 -1.94752 0
M  V30 728 C 69.9186 1.51826 -0.849989 0
M  V30 729 O 71.0946 1.6515 -1.15271 0
M  V30 730 C 68.1596 2.63968 -2.24771 0
M  V30 731 C 67.2206 2.51331 -3.48039 0
M  V30 732 C 66.4536 3.78148 -3.76616 0
M  V30 733 O 66.6766 4.80722 -3.07022 0
M  V30 734 O 65.6106 3.75857 -4.70123 0
M  V30 735 H 69.4366 1.0083 -2.86474 0
M  V30 736 H 67.0216 0.433547 -1.42971 0
M  V30 737 H 68.9036 3.42633 -2.45318 0
M  V30 738 H 67.5786 2.9364 -1.36225 0
M  V30 739 H 66.4856 1.709 -3.32782 0
M  V30 740 H 67.8186 2.26601 -4.36936 0
M  V30 741 N 69.4707 1.49531 0.497807 0
M  V30 742 C 70.8867 1.36365 0.829266 0
M  V30 743 C 71.0867 0.399184 1.97506 0
M  V30 744 O 70.1427 -0.167977 2.51941 0
M  V30 745 C 71.4557 2.77153 1.16647 0
M  V30 746 C 73.0037 2.85877 1.27449 0
M  V30 747 C 73.4787 4.2744 1.64497 0
M  V30 748 N 74.9697 4.30265 1.7154 0
M  V30 749 C 75.7047 5.3677 2.01656 0
M  V30 750 N 75.2007 6.53516 2.29976 0
M  V30 751 N 76.9937 5.24189 2.02934 0
M  V30 752 H 69.1447 2.10831 -0.257703 0
M  V30 753 H 71.4077 0.946534 -0.0527091 0
M  V30 754 H 71.1137 3.49442 0.397872 0
M  V30 755 H 70.9877 3.12722 2.10915 0
M  V30 756 H 73.3747 2.13824 2.0338 0
M  V30 757 H 73.4557 2.53887 0.312244 0
M  V30 758 H 73.0997 5.00021 0.891151 0
M  V30 759 H 73.0297 4.56896 2.61827 0
M  V30 760 H 75.5207 3.4607 1.51802 0
M  V30 761 H 75.8337 7.30506 2.52153 0
M  V30 762 H 74.1787 6.56737 2.27425 0
M  V30 763 H 77.3697 4.31988 1.80289 0
M  V30 764 H 77.5427 6.07286 2.26071 0
M  V30 765 N 70.9488 -0.749086 1.3866 0
M  V30 766 C 72.1948 -1.51056 1.35314 0
M  V30 767 C 72.5278 -1.94121 -0.0553751 0
M  V30 768 O 71.8028 -1.65763 -1.01749 0
M  V30 769 C 72.0858 -2.76003 2.31288 0
M  V30 770 C 71.9388 -2.39047 3.8102 0
M  V30 771 C 73.2578 -3.78046 2.2532 0
M  V30 772 H 70.3768 -0.547972 0.492844 0
M  V30 773 H 73.0188 -0.857628 1.69543 0
M  V30 774 H 71.1688 -3.31716 2.02229 0
M  V30 775 H 72.8408 -1.89074 4.20771 0
M  V30 776 H 71.0838 -1.71449 3.98482 0
M  V30 777 H 71.7548 -3.28462 4.4364 0
M  V30 778 H 74.2308 -3.31884 2.50983 0
M  V30 779 H 73.1068 -4.63159 2.94576 0
M  V30 780 H 73.3678 -4.23957 1.25352 0
M  V30 781 N 72.4269 -1.23603 -0.977757 0
M  V30 782 C 73.6569 -1.09487 -1.75203 0
M  V30 783 C 74.0649 0.356321 -1.85814 0
M  V30 784 O 73.4079 1.25816 -1.33851 0
M  V30 785 C 73.4699 -1.64905 -3.19447 0
M  V30 786 C 73.1339 -3.13688 -3.32338 0
M  V30 787 C 74.1309 -4.10953 -3.18455 0
M  V30 788 C 71.8159 -3.53449 -3.56902 0
M  V30 789 C 73.8099 -5.45962 -3.28944 0
M  V30 790 C 71.4969 -4.88602 -3.6703 0
M  V30 791 C 72.4949 -5.84668 -3.53062 0
M  V30 792 O 72.1829 -7.17365 -3.62826 0
M  V30 793 H 71.9149 -0.38367 -0.556573 0
M  V30 794 H 74.4689 -1.6398 -1.23693 0
M  V30 795 H 72.6989 -1.04835 -3.72218 0
M  V30 796 H 74.3879 -1.46226 -3.78646 0
M  V30 797 H 75.1539 -3.81577 -2.99372 0
M  V30 798 H 71.0329 -2.79188 -3.66844 0
M  V30 799 H 74.5769 -6.20925 -3.17958 0
M  V30 800 H 70.4739 -5.17653 -3.85623 0
M  V30 801 H 71.2419 -7.2515 -3.79605 0
M  V30 802 N 73.905 1.17692 -1.04816 0
M  V30 803 C 75.321 1.39863 -0.768794 0
M  V30 804 C 75.521 1.91118 0.638451 0
M  V30 805 O 74.577 2.10036 1.40146 0
M  V30 806 C 75.89 2.39274 -1.82122 0
M  V30 807 C 77.438 2.52987 -1.843 0
M  V30 808 C 77.913 3.55669 -2.88555 0
M  V30 809 N 79.404 3.63183 -2.87493 0
M  V30 810 C 80.139 4.42381 -3.64811 0
M  V30 811 N 79.635 5.25125 -4.51903 0
M  V30 812 N 81.428 4.37217 -3.53267 0
M  V30 813 H 73.579 0.82752 -1.95617 0
M  V30 814 H 75.842 0.426123 -0.846831 0
M  V30 815 H 75.548 2.08678 -2.83102 0
M  V30 816 H 75.422 3.38725 -1.65967 0
M  V30 817 H 77.809 2.82896 -0.839869 0
M  V30 818 H 77.89 1.53623 -2.04532 0
M  V30 819 H 77.534 3.26499 -3.89051 0
M  V30 820 H 77.464 4.54728 -2.65575 0
M  V30 821 H 79.955 3.04103 -2.24343 0
M  V30 822 H 80.268 5.82728 -5.07591 0
M  V30 823 H 78.613 5.24519 -4.55966 0
M  V30 824 H 81.804 3.71626 -2.84625 0
M  V30 825 H 81.977 4.98696 -4.13771 0
M  V30 826 N 75.3831 0.828654 1.34056 0
M  V30 827 C 76.3461 0.259927 2.27721 0
M  V30 828 C 77.3461 -0.565478 1.50529 0
M  V30 829 O 78.5361 -0.38075 1.69988 0
M  V30 830 C 75.6681 -0.634944 3.34935 0
M  V30 831 H 76.8611 1.0863 2.79534 0
M  V30 832 H 74.4141 0.600951 1.44285 0
M  V30 833 H 75.1491 -1.48416 2.88346 0
M  V30 834 H 74.9341 -0.0444999 3.92075 0
M  V30 835 H 76.4241 -1.02648 4.04788 0
M  V30 836 N 76.8612 -1.46375 0.584142 0
M  V30 837 C 77.7932 -2.28443 -0.186119 0
M  V30 838 C 78.8062 -1.38596 -0.854115 0
M  V30 839 O 79.9952 -1.63183 -0.723438 0
M  V30 840 C 77.0952 -3.13671 -1.28311 0
M  V30 841 C 76.2682 -4.31652 -0.706758 0
M  V30 842 C 75.3272 -4.98267 -1.69163 0
M  V30 843 O 74.3532 -5.55815 -1.22712 0
M  V30 844 N 75.5552 -4.95408 -3.02575 0
M  V30 845 H 78.3202 -2.9519 0.517986 0
M  V30 846 H 75.8812 -1.56303 0.42201 0
M  V30 847 H 77.8732 -3.55101 -1.94128 0
M  V30 848 H 76.4432 -2.48989 -1.89005 0
M  V30 849 H 75.6632 -3.93989 0.128908 0
M  V30 850 H 76.9512 -5.07906 -0.301506 0
M  V30 851 H 76.3492 -4.49902 -3.42936 0
M  V30 852 H 74.9062 -5.40774 -3.63877 0
M  V30 853 N 78.3393 -0.321999 -1.54275 0
M  V30 854 C 79.5853 0.281461 -2.00837 0
M  V30 855 C 79.9183 1.51909 -1.20985 0
M  V30 856 O 79.1933 1.923 -0.291733 0
M  V30 857 C 79.4763 0.617162 -3.54772 0
M  V30 858 C 79.3293 -0.631064 -4.45351 0
M  V30 859 C 80.6483 1.43542 -4.16033 0
M  V30 860 H 77.7673 0.100826 -0.730071 0
M  V30 861 H 80.4093 -0.438268 -1.84876 0
M  V30 862 H 78.5593 1.23034 -3.68504 0
M  V30 863 H 80.2313 -1.26934 -4.43492 0
M  V30 864 H 78.4743 -1.26025 -4.15091 0
M  V30 865 H 79.1453 -0.351735 -5.50878 0
M  V30 866 H 81.6213 0.917134 -4.05867 0
M  V30 867 H 80.4973 1.63907 -5.23856 0
M  V30 868 H 80.7583 2.43108 -3.69257 0
M  V30 869 N 79.8174 1.5752 -0.0501392 0
M  V30 870 C 80.7654 2.12651 0.942459 0
M  V30 871 C 81.7594 1.05807 1.32292 0
M  V30 872 O 82.9654 1.24217 1.3027 0
M  V30 873 H 79.3404 0.679673 0.321789 0
M  V30 874 H 81.3114 2.94951 0.452356 0
M  V30 875 C 80.0604 2.68565 2.20836 0
M  V30 876 H 79.3834 3.50439 1.92439 0
M  V30 877 H 80.8234 3.10761 2.8845 0
M  V30 878 C 79.2824 1.62291 2.95234 0
M  V30 879 O 79.8124 1.03508 3.88135 0
M  V30 880 N 78.0184 1.33836 2.57946 0
M  V30 881 H 77.5654 1.81826 1.82475 0
M  V30 882 H 77.5234 0.629595 3.08032 0
M  V30 883 N 81.2955 -0.223234 1.56011 0
M  V30 884 C 82.5355 -0.954962 1.8072 0
M  V30 885 C 82.8995 -1.81598 0.623384 0
M  V30 886 O 84.1005 -2.58132 0.749745 0
M  V30 887 C 82.3715 -1.77313 3.10314 0
M  V30 888 S 83.9305 -2.56073 3.56332 0
M  V30 889 H 80.7485 -0.320812 0.634508 0
M  V30 890 H 83.3505 -0.220686 1.9425 0
M  V30 891 H 82.0545 -1.13071 3.94516 0
M  V30 892 H 81.5855 -2.54974 2.99586 0
M  V30 893 H 83.6005 -3.79619 3.19536 0
M  V30 894 N 82.7736 -1.49793 -0.48987 0
M  V30 895 C 83.9986 -1.63836 -1.27172 0
M  V30 896 C 84.4236 -0.31402 -1.8546 0
M  V30 897 O 83.7816 0.719803 -1.66399 0
M  V30 898 C 83.8296 -2.71797 -2.36978 0
M  V30 899 O 82.9336 -2.31744 -3.41128 0
M  V30 900 H 82.2746 -0.547997 -0.37496 0
M  V30 901 H 84.8046 -1.96053 -0.585191 0
M  V30 902 H 84.8146 -2.94305 -2.82575 0
M  V30 903 H 83.4896 -3.67923 -1.93921 0
M  V30 904 H 82.0666 -2.1961 -3.01373 0
M  V30 905 N 84.2517 0.741722 -1.39055 0
M  V30 906 C 85.1617 1.88621 -1.39496 0
M  V30 907 C 86.1777 1.71557 -0.290578 0
M  V30 908 O 87.3537 1.94275 -0.530954 0
M  V30 909 C 84.4187 3.24134 -1.23037 0
M  V30 910 C 83.4797 3.5364 -2.43387 0
M  V30 911 C 82.7127 4.82687 -2.27703 0
M  V30 912 O 82.9357 5.55922 -1.27696 0
M  V30 913 O 81.8697 5.1194 -3.16545 0
M  V30 914 H 85.6957 1.91203 -2.35956 0
M  V30 915 H 83.2807 0.888625 -1.20099 0
M  V30 916 H 85.1627 4.0513 -1.15964 0
M  V30 917 H 83.8377 3.22337 -0.296691 0
M  V30 918 H 82.7447 2.72758 -2.56035 0
M  V30 919 H 84.0777 3.60209 -3.35425 0
M  V30 920 N 85.7298 1.2412 0.971189 0
M  V30 921 C 86.9598 1.10415 1.7462 0
M  V30 922 C 87.3678 -0.346462 1.86001 0
M  V30 923 O 86.7108 -1.25104 1.34517 0
M  V30 924 C 86.7728 1.66596 3.18568 0
M  V30 925 C 86.4368 3.15446 3.3067 0
M  V30 926 C 87.4338 4.12636 3.16271 0
M  V30 927 C 85.1188 3.55337 3.55022 0
M  V30 928 C 87.1128 5.47699 3.26044 0
M  V30 929 C 84.7998 4.90542 3.64434 0
M  V30 930 C 85.7978 5.86532 3.49956 0
M  V30 931 O 85.4858 7.19279 3.59017 0
M  V30 932 H 85.2178 0.386616 0.55453 0
M  V30 933 H 87.7718 1.64633 1.22821 0
M  V30 934 H 86.0018 1.06808 3.71657 0
M  V30 935 H 87.6908 1.48232 3.77865 0
M  V30 936 H 88.4568 3.8316 2.97344 0
M  V30 937 H 84.3358 2.8113 3.65359 0
M  V30 938 H 87.8798 6.22603 3.14661 0
M  V30 939 H 83.7768 5.19691 3.82873 0
M  V30 940 H 84.5448 7.27153 3.75754 0
M  V30 941 N 87.2079 -1.17134 1.05439 0
M  V30 942 C 88.4549 -1.87456 0.765942 0
M  V30 943 C 88.7829 -1.81189 -0.707153 0
M  V30 944 O 88.0379 -1.21633 -1.5331 0
M  V30 945 C 88.3369 -3.36833 1.19491 0
M  V30 946 C 88.0029 -3.63301 2.67063 0
M  V30 947 C 86.6649 -3.70234 3.07376 0
M  V30 948 C 89.0169 -3.74575 3.62413 0
M  V30 949 C 86.3449 -3.85933 4.41896 0
M  V30 950 C 88.6969 -3.91793 4.9667 0
M  V30 951 C 87.3609 -3.96966 5.36633 0
M  V30 952 H 86.6309 -0.685948 0.280278 0
M  V30 953 H 89.2779 -1.38556 1.32192 0
M  V30 954 H 87.5829 -3.87807 0.557969 0
M  V30 955 H 89.2799 -3.89611 0.948893 0
M  V30 956 H 85.8699 -3.58532 2.34846 0
M  V30 957 H 90.0539 -3.68537 3.32406 0
M  V30 958 H 85.3099 -3.88187 4.72357 0
M  V30 959 H 89.4839 -3.99458 5.70444 0
M  V30 960 H 87.1109 -4.08883 6.40874 0
M  V30 961 N 88.686 -0.835752 -1.33615 0
M  V30 962 C 90.097 -0.487099 -1.80234 0
M  V30 963 C 90.448 0.993627 -1.69179 0
M  V30 964 O 89.573 1.77403 -1.23924 0
M  V30 965 C 90.168 -0.877385 -3.27242 0
M  V30 966 C 88.727 -0.580915 -3.7189 0
M  V30 967 C 87.874 -1.0874 -2.5509 0
M  V30 968 H 90.825 -1.02474 -1.2118 0
M  V30 969 H 90.846 -0.186195 -3.80044 0
M  V30 970 H 90.358 -1.95512 -3.35256 0
M  V30 971 H 88.459 0.486881 -3.69405 0
M  V30 972 H 88.572 -1.13396 -4.65487 0
M  V30 973 H 86.936 -0.508392 -2.49575 0
M  V30 974 H 87.719 -2.17184 -2.65868 0
M  V30 975 N 90.1641 1.46063 -0.591896 0
M  V30 976 C 91.0941 2.33172 0.123673 0
M  V30 977 C 92.0751 1.45897 0.87453 0
M  V30 978 O 93.2601 1.74698 0.848181 0
M  V30 979 C 90.3901 3.28336 1.13194 0
M  V30 980 C 89.3441 4.25124 0.495324 0
M  V30 981 C 88.6701 5.09863 1.61071 0
M  V30 982 C 89.9701 5.19143 -0.573425 0
M  V30 983 H 91.6641 2.93252 -0.603646 0
M  V30 984 H 89.2101 1.41014 -0.291741 0
M  V30 985 H 91.1631 3.88137 1.64097 0
M  V30 986 H 89.8871 2.66383 1.88965 0
M  V30 987 H 88.5461 3.66599 0.00729452 0
M  V30 988 H 88.1941 4.44288 2.35832 0
M  V30 989 H 87.8941 5.75417 1.19035 0
M  V30 990 H 89.4181 5.72529 2.12233 0
M  V30 991 H 90.8321 5.73106 -0.1491 0
M  V30 992 H 89.2291 5.93089 -0.914636 0
M  V30 993 H 90.2991 4.62519 -1.45617 0
M  V30 994 N 91.6422 0.330177 1.54103 0
M  V30 995 C 92.8892 -0.270405 2.00686 0
M  V30 996 C 93.2172 -1.51621 1.21825 0
M  V30 997 O 92.4722 -1.93536 0.29025 0
M  V30 998 C 92.7712 -0.643134 3.51566 0
M  V30 999 C 92.4372 0.504251 4.48072 0
M  V30 1000 C 91.0992 0.819163 4.74176 0
M  V30 1001 C 93.4512 1.27465 5.05373 0
M  V30 1002 C 90.7792 1.90708 5.5484 0
M  V30 1003 C 93.1312 2.35271 5.87223 0
M  V30 1004 C 91.7952 2.67336 6.11627 0
M  V30 1005 H 91.0652 -0.0989482 0.734364 0
M  V30 1006 H 93.7122 0.455324 1.86008 0
M  V30 1007 H 92.0172 -1.44938 3.64006 0
M  V30 1008 H 93.7142 -1.11949 3.85056 0
M  V30 1009 H 90.3042 0.248733 4.27878 0
M  V30 1010 H 94.4882 1.04462 4.85182 0
M  V30 1011 H 89.7442 2.15991 5.71977 0
M  V30 1012 H 93.9182 2.95405 6.30641 0
M  V30 1013 H 91.5452 3.51763 6.73919 0
M  V30 1014 N 93.1203 -1.57491 0.0584922 0
M  V30 1015 C 94.0503 -2.14988 -0.911178 0
M  V30 1016 C 95.0313 -1.07343 -1.31952 0
M  V30 1017 O 96.2163 -1.35318 -1.39294 0
M  V30 1018 C 93.3463 -2.70078 -2.18347 0
M  V30 1019 C 92.3003 -3.82771 -1.91495 0
M  V30 1020 C 91.6263 -4.24408 -3.25241 0
M  V30 1021 C 92.9263 -5.07592 -1.23075 0
M  V30 1022 H 94.6203 -2.96263 -0.432246 0
M  V30 1023 H 92.1663 -1.42512 -0.206469 0
M  V30 1024 H 94.1193 -3.08943 -2.86587 0
M  V30 1025 H 92.8433 -1.86005 -2.68458 0
M  V30 1026 H 91.5023 -3.44389 -1.25664 0
M  V30 1027 H 91.1503 -3.37275 -3.73168 0
M  V30 1028 H 90.8503 -5.00366 -3.08071 0
M  V30 1029 H 92.3743 -4.65879 -3.94701 0
M  V30 1030 H 93.7883 -5.43857 -1.81362 0
M  V30 1031 H 92.1853 -5.88741 -1.16207 0
M  V30 1032 H 93.2553 -4.84454 -0.207847 0
M  V30 1033 N 94.5984 0.214957 -1.56127 0
M  V30 1034 C 95.5614 1.24997 -1.92116 0
M  V30 1035 C 96.5614 1.39467 -0.800344 0
M  V30 1036 O 97.7514 1.37619 -1.06802 0
M  V30 1037 C 94.8834 2.62271 -2.17777 0
M  V30 1038 H 96.0764 0.942875 -2.84693 0
M  V30 1039 H 93.6294 0.455654 -1.49511 0
M  V30 1040 H 94.3644 2.98068 -1.27773 0
M  V30 1041 H 94.1494 2.53143 -2.99434 0
M  V30 1042 H 95.6394 3.36946 -2.46693 0
M  V30 1043 N 96.0765 1.50051 0.48192 0
M  V30 1044 C 97.3045 1.64237 1.25832 0
M  V30 1045 C 97.7195 0.321336 1.86045 0
M  V30 1046 O 97.0765 -0.695478 1.68729 0
M  V30 1047 C 97.1275 2.72548 2.37487 0
M  V30 1048 O 96.8485 3.99529 1.79745 0
M  V30 1049 C 98.3495 2.9761 3.28547 0
M  V30 1050 H 95.5695 0.55237 0.380957 0
M  V30 1051 H 98.1135 1.96207 0.576467 0
M  V30 1052 H 96.2685 2.43303 3.01467 0
M  V30 1053 H 96.6825 4.59342 2.5319 0
M  V30 1054 H 98.1565 3.77084 4.03127 0
M  V30 1055 H 98.6335 2.0826 3.86684 0
M  V30 1056 H 99.2395 3.28345 2.70314 0
M  V30 1057 N 97.5546 -0.734337 1.39446 0
M  V30 1058 C 98.4846 -1.86155 1.40955 0
M  V30 1059 C 99.4656 -1.67898 0.272827 0
M  V30 1060 O 100.651 -1.88207 0.478743 0
M  V30 1061 C 97.7806 -3.23912 1.25294 0
M  V30 1062 C 96.7346 -3.56808 2.36373 0
M  V30 1063 C 96.0606 -4.93508 2.058 0
M  V30 1064 C 97.3606 -3.59713 3.78687 0
M  V30 1065 H 99.0546 -1.8515 2.35287 0
M  V30 1066 H 96.6006 -0.889367 1.13253 0
M  V30 1067 H 98.5536 -4.02443 1.2497 0
M  V30 1068 H 97.2776 -3.25446 0.274308 0
M  V30 1069 H 95.9366 -2.80606 2.35914 0
M  V30 1070 H 95.5846 -4.91623 1.06374 0
M  V30 1071 H 95.2846 -5.16486 2.80208 0
M  V30 1072 H 96.8086 -5.74396 2.07128 0
M  V30 1073 H 98.2226 -4.2832 3.81071 0
M  V30 1074 H 96.6196 -3.94209 4.52459 0
M  V30 1075 H 97.6896 -2.59504 4.09617 0
M  V30 1076 N 99.0327 -1.24633 -0.964593 0
M  V30 1077 C 100.279 -1.09957 -1.71117 0
M  V30 1078 C 100.634 0.357422 -1.89051 0
M  V30 1079 O 99.9267 1.26029 -1.44317 0
M  V30 1080 C 100.121 -1.7763 -3.10133 0
M  V30 1081 C 99.9497 -3.29759 -3.05759 0
M  V30 1082 C 98.7197 -3.98981 -3.10068 0
M  V30 1083 C 100.918 -4.26305 -2.87695 0
M  V30 1084 N 98.8997 -5.37966 -2.95747 0
M  V30 1085 C 100.271 -5.52308 -2.81702 0
M  V30 1086 C 102.326 -4.16842 -2.72299 0
M  V30 1087 C 101.029 -6.69931 -2.61887 0
M  V30 1088 C 103.055 -5.34147 -2.53853 0
M  V30 1089 C 102.417 -6.59084 -2.48572 0
M  V30 1090 H 98.5157 -0.457003 -0.634564 0
M  V30 1091 H 101.1 -1.57592 -1.14337 0
M  V30 1092 H 99.2707 -1.32504 -3.65099 0
M  V30 1093 H 101.003 -1.55786 -3.73514 0
M  V30 1094 H 97.7577 -3.50169 -3.18871 0
M  V30 1095 H 98.1817 -6.10877 -2.91818 0
M  V30 1096 H 102.824 -3.21007 -2.75163 0
M  V30 1097 H 100.542 -7.65886 -2.57767 0
M  V30 1098 H 104.128 -5.28678 -2.4288 0
M  V30 1099 H 103.008 -7.48324 -2.34481 0
M  V30 1100 N 100.511 1.16574 -1.06058 0
M  V30 1101 C 101.757 1.87324 -0.777022 0
M  V30 1102 C 102.09 1.81351 0.694645 0
M  V30 1103 O 101.365 1.22753 1.50871 0
M  V30 1104 C 101.648 3.36991 -1.26922 0
M  V30 1105 C 101.501 3.51667 -2.80447 0
M  V30 1106 C 102.82 4.3131 -0.87521 0
M  V30 1107 H 99.9388 0.680191 -0.28374 0
M  V30 1108 H 102.581 1.37036 -1.3161 0
M  V30 1109 H 100.731 3.79949 -0.81063 0
M  V30 1110 H 102.403 3.17664 -3.34495 0
M  V30 1111 H 100.646 2.93656 -3.19294 0
M  V30 1112 H 101.317 4.56766 -3.0995 0
M  V30 1113 H 103.793 3.9624 -1.27014 0
M  V30 1114 H 102.669 5.34545 -1.2471 0
M  V30 1115 H 102.93 4.41552 0.220071 0
M  V30 1116 N 101.989 0.842826 1.3317 0
M  V30 1117 C 102.952 0.284065 2.27433 0
M  V30 1118 C 103.952 -0.54948 1.5112 0
M  V30 1119 O 105.142 -0.362699 1.70382 0
M  V30 1120 C 102.274 -0.599384 3.35589 0
M  V30 1121 H 103.467 1.11589 2.78366 0
M  V30 1122 H 101.02 0.616221 1.4364 0
M  V30 1123 H 101.755 -1.45349 2.89904 0
M  V30 1124 H 101.54 -0.00291266 3.921 0
M  V30 1125 H 103.03 -0.983488 4.05854 0
M  V30 1126 N 103.467 -1.45747 0.599634 0
M  V30 1127 C 104.715 -2.01893 0.0915472 0
M  V30 1128 C 105.036 -1.47155 -1.27946 0
M  V30 1129 O 104.306 -0.66273 -1.84349 0
M  V30 1130 H 102.886 -0.746363 0.0308524 0
M  V30 1131 H 105.548 -1.78645 0.779237 0
M  V30 1132 H 104.644 -3.1208 0.0353086 0
M  V30 1133 N 104.945 -0.338344 -1.53925 0
M  V30 1134 C 106.194 0.260732 -2.00008 0
M  V30 1135 C 106.507 1.52073 -1.23017 0
M  V30 1136 O 107.713 2.19672 -1.5955 0
M  V30 1137 C 106.169 0.51515 -3.56194 0
M  V30 1138 C 105.777 -0.728645 -4.42035 0
M  V30 1139 C 107.521 1.07337 -4.10706 0
M  V30 1140 C 105.428 -0.445315 -5.89721 0
M  V30 1141 H 104.358 0.101205 -0.747177 0
M  V30 1142 H 107.009 -0.452866 -1.77824 0
M  V30 1143 H 105.391 1.28932 -3.74423 0
M  V30 1144 H 106.565 -1.50352 -4.35581 0
M  V30 1145 H 104.88 -1.20813 -3.98489 0
M  V30 1146 H 107.477 1.30022 -5.18651 0
M  V30 1147 H 107.82 2.0273 -3.63602 0
M  V30 1148 H 108.353 0.360034 -3.96167 0
M  V30 1149 H 105.092 -1.36883 -6.41049 0
M  V30 1150 H 104.612 0.291569 -5.99091 0
M  V30 1151 H 106.291 -0.0606218 -6.46972 0
M  V30 1152 N 106.423 1.57458 -0.0668435 0
M  V30 1153 C 107.67 1.93301 0.603406 0
M  V30 1154 C 107.998 0.946486 1.69917 0
M  V30 1155 O 107.253 -0.0387021 1.95662 0
M  V30 1156 C 107.552 3.35784 1.22409 0
M  V30 1157 C 107.218 4.50179 0.254955 0
M  V30 1158 C 105.88 4.81199 -0.0116746 0
M  V30 1159 C 108.232 5.19598 -0.408338 0
M  V30 1160 C 105.56 5.78978 -0.94877 0
M  V30 1161 C 107.912 6.18381 -1.33372 0
M  V30 1162 C 106.576 6.47821 -1.60887 0
M  V30 1163 H 105.846 0.707338 0.220802 0
M  V30 1164 H 108.493 1.91012 -0.136665 0
M  V30 1165 H 106.798 3.34515 2.03978 0
M  V30 1166 H 108.495 3.60804 1.74989 0
M  V30 1167 H 105.085 4.25983 0.472954 0
M  V30 1168 H 109.269 4.95832 -0.215456 0
M  V30 1169 H 104.525 6.00115 -1.16925 0
M  V30 1170 H 108.699 6.71277 -1.85367 0
M  V30 1171 H 106.326 7.23399 -2.33661 0
M  V30 1172 N 107.901 -0.206675 1.56239 0
M  V30 1173 C 109.148 -0.928842 1.79941 0
M  V30 1174 C 109.476 -1.83734 0.638131 0
M  V30 1175 O 108.731 -1.92039 -0.376746 0
M  V30 1176 C 109.03 -1.78675 3.09532 0
M  V30 1177 C 108.696 -1.03022 4.38973 0
M  V30 1178 C 107.358 -0.821302 4.74139 0
M  V30 1179 C 109.71 -0.497081 5.18824 0
M  V30 1180 C 107.038 -0.0675719 5.86661 0
M  V30 1181 C 109.39 0.24338 6.32132 0
M  V30 1182 C 108.054 0.463422 6.65889 0
M  V30 1183 H 107.324 -0.339887 0.658451 0
M  V30 1184 H 109.971 -0.195977 1.90495 0
M  V30 1185 H 108.276 -2.58794 2.94165 0
M  V30 1186 H 109.973 -2.34792 3.25075 0
M  V30 1187 H 106.563 -1.20306 4.11369 0
M  V30 1188 H 110.747 -0.645921 4.92079 0
M  V30 1189 H 106.003 0.112995 6.11296 0
M  V30 1190 H 110.177 0.66393 6.93228 0
M  V30 1191 H 107.804 1.04938 7.52922 0
M  V30 1192 N 109.379 -1.50304 -0.473955 0
M  V30 1193 C 110.329 -1.65347 -1.56985 0
M  V30 1194 C 111.313 -0.508176 -1.52664 0
M  V30 1195 O 112.505 -0.762446 -1.59737 0
M  V30 1196 C 109.634 -1.74832 -2.95447 0
M  V30 1197 C 108.72 -2.95028 -3.04662 0
M  V30 1198 N 109.111 -4.18747 -2.83698 0
M  V30 1199 C 107.409 -2.93527 -3.35795 0
M  V30 1200 C 108.11 -4.99687 -2.97805 0
M  V30 1201 N 107.086 -4.33585 -3.2788 0
M  V30 1202 H 110.888 -2.58698 -1.39472 0
M  V30 1203 H 108.402 -1.47449 -0.680629 0
M  V30 1204 H 110.399 -1.83712 -3.7424 0
M  V30 1205 H 109.059 -0.826376 -3.14008 0
M  V30 1206 H 110.07 -4.48291 -2.59337 0
M  V30 1207 H 106.747 -2.10821 -3.60362 0
M  V30 1208 H 108.137 -6.08057 -2.85861 0
M  V30 1209 N 110.857 0.726932 -1.39834 0
M  V30 1210 C 111.767 1.87131 -1.41489 0
M  V30 1211 C 112.783 1.71239 -0.308757 0
M  V30 1212 O 113.959 1.93701 -0.551529 0
M  V30 1213 C 111.024 3.22811 -1.26468 0
M  V30 1214 C 110.085 3.51039 -2.47124 0
M  V30 1215 C 109.318 4.80245 -2.3281 0
M  V30 1216 O 109.541 5.54537 -1.33585 0
M  V30 1217 O 108.475 5.08554 -3.21957 0
M  V30 1218 H 112.301 1.8869 -2.3797 0
M  V30 1219 H 109.886 0.875837 -1.21035 0
M  V30 1220 H 111.768 4.03877 -1.20255 0
M  V30 1221 H 110.443 3.22005 -0.330862 0
M  V30 1222 H 109.35 2.70027 -2.58914 0
M  V30 1223 H 110.683 3.56632 -3.39227 0
M  V30 1224 N 112.336 1.25143 0.95797 0
M  V30 1225 C 113.584 1.09476 1.69881 0
M  V30 1226 C 113.905 -0.365502 1.91544 0
M  V30 1227 O 113.175 -1.25985 1.50015 0
M  V30 1228 H 111.755 0.402128 0.629525 0
M  V30 1229 H 114.417 1.57214 1.15194 0
M  V30 1230 H 113.513 1.60046 2.6794 0
M  V30 1231 N 113.814 -1.1601 1.06675 0
M  V30 1232 C 114.777 -2.18724 0.685001 0
M  V30 1233 C 115.777 -1.58496 -0.271246 0
M  V30 1234 O 116.967 -1.74119 -0.0531156 0
M  V30 1235 C 114.099 -3.40899 0.00853648 0
M  V30 1236 H 115.292 -2.54011 1.59431 0
M  V30 1237 H 112.845 -1.30352 0.862441 0
M  V30 1238 H 113.58 -3.11173 -0.913337 0
M  V30 1239 H 113.365 -3.8587 0.696204 0
M  V30 1240 H 114.855 -4.16886 -0.24414 0
M  V30 1241 N 115.292 -0.849877 -1.32721 0
M  V30 1242 C 116.255 -0.296122 -2.27279 0
M  V30 1243 C 117.255 0.541458 -1.5141 0
M  V30 1244 O 118.445 0.353658 -1.70572 0
M  V30 1245 C 115.577 0.581579 -3.35902 0
M  V30 1246 H 116.77 -1.13064 -2.77771 0
M  V30 1247 H 114.323 -0.62383 -1.43311 0
M  V30 1248 H 115.058 1.43809 -2.9067 0
M  V30 1249 H 114.843 -0.0178814 -3.92096 0
M  V30 1250 H 116.333 0.961951 -4.0637 0
M  V30 1251 N 116.77 1.45427 -0.607355 0
M  V30 1252 C 117.733 2.28974 0.101693 0
M  V30 1253 C 118.733 1.39754 0.795329 0
M  V30 1254 O 119.923 1.61878 0.643527 0
M  V30 1255 C 117.055 3.20768 1.15414 0
M  V30 1256 H 118.248 2.93147 -0.632844 0
M  V30 1257 H 115.801 1.51945 -0.366391 0
M  V30 1258 H 116.536 2.61395 1.91945 0
M  V30 1259 H 116.321 3.86489 0.66098 0
M  V30 1260 H 117.811 3.83589 1.65073 0
M  V30 1261 N 118.248 0.346503 1.53744 0
M  V30 1262 C 119.178 -0.501193 2.28058 0
M  V30 1263 C 120.159 -1.10014 1.29734 0
M  V30 1264 O 121.344 -1.12097 1.58581 0
M  V30 1265 C 118.474 -1.65078 3.05559 0
M  V30 1266 C 117.428 -1.18003 4.11411 0
M  V30 1267 C 116.754 -2.41837 4.76884 0
M  V30 1268 C 118.054 -0.278394 5.21558 0
M  V30 1269 H 119.748 0.11875 2.99164 0
M  V30 1270 H 117.294 0.0585531 1.43881 0
M  V30 1271 H 119.247 -2.25028 3.56287 0
M  V30 1272 H 117.971 -2.29767 2.32109 0
M  V30 1273 H 116.63 -0.603331 3.61601 0
M  V30 1274 H 116.278 -3.0494 4.00026 0
M  V30 1275 H 115.978 -2.1102 5.48402 0
M  V30 1276 H 117.502 -3.02508 5.30397 0
M  V30 1277 H 118.916 -0.784823 5.67903 0
M  V30 1278 H 117.313 -0.0619707 6.00068 0
M  V30 1279 H 118.383 0.684677 4.80042 0
M  V30 1280 N 119.726 -1.57421 0.075193 0
M  V30 1281 C 120.966 -1.95495 -0.596757 0
M  V30 1282 C 121.33 -0.954886 -1.66571 0
M  V30 1283 O 122.531 -1.22341 -2.39345 0
M  V30 1284 C 120.802 -3.382 -1.15566 0
M  V30 1285 S 122.361 -3.98254 -1.84226 0
M  V30 1286 H 119.179 -0.683649 -0.195307 0
M  V30 1287 H 121.781 -1.94925 0.149859 0
M  V30 1288 H 120.485 -4.08766 -0.36588 0
M  V30 1289 H 120.016 -3.42321 -1.93856 0
M  V30 1290 H 122.031 -3.85435 -3.12497 0
M  V30 1291 N 121.204 0.198386 -1.56346 0
M  V30 1292 C 122.452 0.91747 -1.80075 0
M  V30 1293 C 122.773 1.83929 -0.647692 0
M  V30 1294 O 122.043 1.93029 0.334166 0
M  V30 1295 H 120.623 0.341774 -0.664228 0
M  V30 1296 H 123.285 0.204684 -1.93822 0
M  V30 1297 H 122.381 1.51055 -2.7311 0
M  V30 1298 N 122.682 1.50554 0.465978 0
M  V30 1299 C 123.612 1.72722 1.57128 0
M  V30 1300 C 124.593 0.576294 1.6004 0
M  V30 1301 O 125.778 0.81598 1.76225 0
M  V30 1302 C 122.908 1.82605 2.95419 0
M  V30 1303 C 121.862 2.97835 3.07373 0
M  V30 1304 C 121.188 2.92867 4.47363 0
M  V30 1305 C 122.488 4.38265 2.84114 0
M  V30 1306 H 124.182 2.65267 1.38829 0
M  V30 1307 H 121.728 1.2765 0.666441 0
M  V30 1308 H 123.681 1.96698 3.72677 0
M  V30 1309 H 122.405 0.866858 3.14886 0
M  V30 1310 H 121.064 2.83401 2.3255 0
M  V30 1311 H 120.712 1.94783 4.63755 0
M  V30 1312 H 120.412 3.70227 4.56296 0
M  V30 1313 H 121.936 3.09015 5.26633 0
M  V30 1314 H 123.35 4.53198 3.51118 0
M  V30 1315 H 121.747 5.17115 3.04487 0
M  V30 1316 H 122.817 4.50281 1.7993 0
M  V30 1317 N 124.16 -0.719506 1.40217 0
M  V30 1318 C 125.406 -1.48152 1.38488 0
M  V30 1319 C 125.739 -1.94195 -0.0141867 0
M  V30 1320 O 125.014 -1.67884 -0.982096 0
M  V30 1321 C 125.297 -2.71035 2.37091 0
M  V30 1322 C 125.15 -2.30912 3.86005 0
M  V30 1323 C 126.469 -3.73182 2.33288 0
M  V30 1324 H 123.588 -0.537395 0.504357 0
M  V30 1325 H 126.23 -0.821472 1.71324 0
M  V30 1326 H 124.38 -3.27352 2.0922 0
M  V30 1327 H 126.052 -1.80107 4.24687 0
M  V30 1328 H 124.295 -1.62958 4.02029 0
M  V30 1329 H 124.966 -3.18978 4.50508 0
M  V30 1330 H 127.442 -3.26485 2.57966 0
M  V30 1331 H 126.318 -4.56806 3.04334 0
M  V30 1332 H 126.579 -4.21202 1.34317 0
M  V30 1333 N 125.638 -1.25649 -0.95132 0
M  V30 1334 C 126.868 -1.13179 -1.72841 0
M  V30 1335 C 127.276 0.316827 -1.86528 0
M  V30 1336 O 126.619 1.22948 -1.3649 0
M  V30 1337 C 126.681 -1.71644 -3.15878 0
M  V30 1338 C 126.345 -3.20667 -3.25609 0
M  V30 1339 C 127.342 -4.17616 -3.09666 0
M  V30 1340 C 125.027 -3.6094 -3.49324 0
M  V30 1341 C 127.021 -5.52817 -3.17289 0
M  V30 1342 C 124.708 -4.96278 -3.56584 0
M  V30 1343 C 125.706 -5.92025 -3.40581 0
M  V30 1344 O 125.394 -7.24899 -3.47528 0
M  V30 1345 H 125.126 -0.395389 -0.54831 0
M  V30 1346 H 127.68 -1.66566 -1.20187 0
M  V30 1347 H 125.91 -1.12707 -3.69911 0
M  V30 1348 H 127.599 -1.54225 -3.75459 0
M  V30 1349 H 128.365 -3.87842 -2.91211 0
M  V30 1350 H 124.244 -2.86907 -3.6084 0
M  V30 1351 H 127.788 -6.2753 -3.04716 0
M  V30 1352 H 123.685 -5.25716 -3.74556 0
M  V30 1353 H 124.453 -7.33039 -3.64138 0
M  V30 1354 N 127.117 1.15442 -1.07289 0
M  V30 1355 C 128.047 2.22312 -0.714107 0
M  V30 1356 C 129.028 1.67467 0.298155 0
M  V30 1357 O 130.213 1.93445 0.171048 0
M  V30 1358 C 127.343 3.47124 -0.110448 0
M  V30 1359 C 126.297 4.14926 -1.04979 0
M  V30 1360 C 125.623 5.33807 -0.308924 0
M  V30 1361 C 126.923 4.64762 -2.38314 0
M  V30 1362 H 128.617 2.5258 -1.6076 0
M  V30 1363 H 126.163 1.21404 -0.77441 0
M  V30 1364 H 128.116 4.21124 0.152482 0
M  V30 1365 H 126.84 3.16187 0.81812 0
M  V30 1366 H 125.499 3.42866 -1.29764 0
M  V30 1367 H 125.147 4.99126 0.623084 0
M  V30 1368 H 124.847 5.80113 -0.935036 0
M  V30 1369 H 126.371 6.10576 -0.0537771 0
M  V30 1370 H 127.785 5.30292 -2.1786 0
M  V30 1371 H 126.182 5.21728 -2.96514 0
M  V30 1372 H 127.252 3.80434 -3.00663 0
M  V30 1373 N 128.595 0.856903 1.32268 0
M  V30 1374 C 129.842 0.461386 1.97174 0
M  V30 1375 C 130.17 -0.983491 1.67803 0
M  V30 1376 O 129.425 -1.70541 0.959903 0
M  V30 1377 C 129.724 0.649919 3.51441 0
M  V30 1378 C 129.39 2.0656 4.00804 0
M  V30 1379 C 128.052 2.45279 4.13995 0
M  V30 1380 C 130.404 2.98947 4.26943 0
M  V30 1381 C 127.732 3.75653 4.50668 0
M  V30 1382 C 130.084 4.28822 4.65075 0
M  V30 1383 C 128.748 4.67472 4.76472 0
M  V30 1384 H 128.018 0.168833 0.72151 0
M  V30 1385 H 130.665 1.08739 1.57633 0
M  V30 1386 H 128.97 -0.0593018 3.91755 0
M  V30 1387 H 130.667 0.32391 3.9969 0
M  V30 1388 H 127.257 1.75495 3.91024 0
M  V30 1389 H 131.441 2.70265 4.16258 0
M  V30 1390 H 126.697 4.05379 4.57688 0
M  V30 1391 H 130.871 5.0047 4.84255 0
M  V30 1392 H 128.498 5.68539 5.04646 0
M  V30 1393 N 130.073 -1.45103 0.615059 0
M  V30 1394 C 131.036 -2.29025 -0.0895485 0
M  V30 1395 C 132.036 -1.40174 -0.787906 0
M  V30 1396 O 133.226 -1.62217 -0.634933 0
M  V30 1397 C 130.358 -3.21376 -1.13711 0
M  V30 1398 H 131.551 -2.92807 0.648382 0
M  V30 1399 H 129.104 -1.51749 0.374444 0
M  V30 1400 H 129.839 -2.6241 -1.90556 0
M  V30 1401 H 129.624 -3.86834 -0.640475 0
M  V30 1402 H 131.114 -3.84459 -1.63036 0
M  V30 1403 N 131.551 -0.354651 -1.53558 0
M  V30 1404 C 132.967 -0.00315426 -1.596 0
M  V30 1405 C 133.167 1.47741 -1.37021 0
M  V30 1406 O 132.223 2.23759 -1.16996 0
M  V30 1407 C 133.536 -0.44929 -2.97325 0
M  V30 1408 C 135.084 -0.402578 -3.104 0
M  V30 1409 C 135.559 -0.824355 -4.5052 0
M  V30 1410 N 137.05 -0.778979 -4.56603 0
M  V30 1411 C 137.785 -1.07715 -5.63192 0
M  V30 1412 N 137.281 -1.44405 -6.77583 0
M  V30 1413 N 139.074 -1.00066 -5.53121 0
M  V30 1414 H 131.225 -1.31893 -1.66487 0
M  V30 1415 H 133.488 -0.538388 -0.780284 0
M  V30 1416 H 133.194 -1.48202 -3.1895 0
M  V30 1417 H 133.068 0.169772 -3.76818 0
M  V30 1418 H 135.455 0.621004 -2.88492 0
M  V30 1419 H 135.536 -1.05699 -2.32941 0
M  V30 1420 H 135.18 -1.846 -4.73165 0
M  V30 1421 H 135.11 -0.147304 -5.26394 0
M  V30 1422 H 137.601 -0.508528 -3.74463 0
M  V30 1423 H 137.914 -1.65612 -7.54846 0
M  V30 1424 H 136.259 -1.4826 -6.79002 0
M  V30 1425 H 139.45 -0.713293 -4.62633 0
M  V30 1426 H 139.623 -1.23638 -6.36096 0
M  V30 1427 N 133.029 1.57378 -0.0835403 0
M  V30 1428 C 133.959 2.1641 0.87686 0
M  V30 1429 C 134.94 1.09429 1.30228 0
M  V30 1430 O 136.125 1.37516 1.37124 0
M  V30 1431 C 133.255 2.73517 2.14022 0
M  V30 1432 C 132.209 3.85769 1.85381 0
M  V30 1433 C 131.535 4.29529 3.18448 0
M  V30 1434 C 132.835 5.09486 1.14984 0
M  V30 1435 H 134.529 2.96914 0.385059 0
M  V30 1436 H 132.075 1.42823 0.18377 0
M  V30 1437 H 134.028 3.13463 2.81636 0
M  V30 1438 H 132.752 1.90252 2.65465 0
M  V30 1439 H 131.411 3.46345 1.20169 0
M  V30 1440 H 131.059 3.43169 3.67755 0
M  V30 1441 H 130.759 5.05204 3.00071 0
M  V30 1442 H 132.283 4.72099 3.8724 0
M  V30 1443 H 133.697 5.46674 1.72687 0
M  V30 1444 H 132.094 5.90515 1.06826 0
M  V30 1445 H 133.164 4.84724 0.130749 0
M  V30 1446 N 134.507 -0.190092 1.56449 0
M  V30 1447 C 135.923 -0.54113 1.50146 0
M  V30 1448 C 136.123 -1.85603 0.784465 0
M  V30 1449 O 135.179 -2.5024 0.337051 0
M  V30 1450 C 136.492 -0.591241 2.9483 0
M  V30 1451 C 138.04 -0.679732 3.0553 0
M  V30 1452 C 138.515 -0.760908 4.51635 0
M  V30 1453 N 140.006 -0.824302 4.55806 0
M  V30 1454 C 140.741 -0.907365 5.66175 0
M  V30 1455 N 140.237 -0.952422 6.86222 0
M  V30 1456 N 142.03 -0.94494 5.541 0
M  V30 1457 H 134.181 0.67235 2.01478 0
M  V30 1458 H 136.444 0.240127 0.917084 0
M  V30 1459 H 136.15 0.305905 3.50367 0
M  V30 1460 H 136.024 -1.44422 3.48457 0
M  V30 1461 H 138.411 -1.56731 2.50039 0
M  V30 1462 H 138.492 0.199549 2.5502 0
M  V30 1463 H 138.136 0.122336 5.07753 0
M  V30 1464 H 138.066 -1.65606 4.99882 0
M  V30 1465 H 140.557 -0.798526 3.69367 0
M  V30 1466 H 140.87 -1.01645 7.66086 0
M  V30 1467 H 139.215 -0.921014 6.8887 0
M  V30 1468 H 142.406 -0.906612 4.59236 0
M  V30 1469 H 142.579 -1.00622 6.4014 0
M  V30 1470 N 135.985 -1.50799 -0.457987 0
M  V30 1471 C 137.215 -1.65977 -1.23025 0
M  V30 1472 C 137.623 -0.347918 -1.85974 0
M  V30 1473 O 136.966 0.68148 -1.70592 0
M  V30 1474 C 137.028 -2.70309 -2.3701 0
M  V30 1475 C 136.692 -4.135 -1.94594 0
M  V30 1476 C 137.689 -4.98949 -1.46101 0
M  V30 1477 C 135.374 -4.5949 -2.02915 0
M  V30 1478 C 137.368 -6.28442 -1.06489 0
M  V30 1479 C 135.055 -5.88984 -1.62914 0
M  V30 1480 C 136.053 -6.73286 -1.1478 0
M  V30 1481 O 135.741 -8.00362 -0.75339 0
M  V30 1482 H 135.473 -0.56064 -0.377702 0
M  V30 1483 H 138.027 -1.97857 -0.551537 0
M  V30 1484 H 136.257 -2.337 -3.08093 0
M  V30 1485 H 137.946 -2.74574 -2.98938 0
M  V30 1486 H 138.712 -4.6463 -1.39084 0
M  V30 1487 H 134.591 -3.94009 -2.39328 0
M  V30 1488 H 138.135 -6.94194 -0.688488 0
M  V30 1489 H 134.032 -6.22822 -1.69595 0
M  V30 1490 H 134.8 -8.13744 -0.88108 0
M  V30 1491 N 137.463 0.71206 -1.40597 0
M  V30 1492 C 138.71 1.47197 -1.39065 0
M  V30 1493 C 139.038 1.94499 0.00583891 0
M  V30 1494 O 138.293 1.68752 0.99102 0
M  V30 1495 C 138.592 2.71039 -2.32965 0
M  V30 1496 C 138.258 2.42484 -3.80148 0
M  V30 1497 C 136.92 2.34406 -4.20247 0
M  V30 1498 C 139.272 2.18598 -4.73143 0
M  V30 1499 C 136.6 2.00516 -5.51371 0
M  V30 1500 C 138.952 1.8622 -6.0457 0
M  V30 1501 C 137.616 1.76626 -6.43708 0
M  V30 1502 H 136.886 0.538634 -0.508876 0
M  V30 1503 H 139.533 0.815325 -1.73276 0
M  V30 1504 H 137.838 3.41558 -1.91951 0
M  V30 1505 H 139.535 3.29138 -2.29061 0
M  V30 1506 H 136.125 2.49659 -3.4838 0
M  V30 1507 H 140.309 2.23793 -4.42979 0
M  V30 1508 H 135.565 1.91628 -5.80593 0
M  V30 1509 H 139.739 1.66752 -6.76141 0
M  V30 1510 H 137.366 1.50133 -7.45228 0
M  V30 1511 N 138.941 1.26152 0.944643 0
M  V30 1512 C 139.873 1.03199 2.04652 0
M  V30 1513 C 140.886 -0.00642356 1.62799 0
M  V30 1514 O 142.075 0.233263 1.76969 0
M  V30 1515 C 139.175 0.540111 3.34568 0
M  V30 1516 C 138.348 1.64697 4.05208 0
M  V30 1517 C 137.407 1.15374 5.13396 0
M  V30 1518 O 136.433 1.85013 5.38293 0
M  V30 1519 N 137.635 0.00031529 5.805 0
M  V30 1520 H 140.4 1.9808 2.2491 0
M  V30 1521 H 137.961 1.17491 1.11389 0
M  V30 1522 H 139.953 0.194401 4.04233 0
M  V30 1523 H 138.523 -0.315021 3.11009 0
M  V30 1524 H 137.743 2.16379 3.29506 0
M  V30 1525 H 139.031 2.3903 4.49157 0
M  V30 1526 H 138.429 -0.581336 5.62705 0
M  V30 1527 H 136.986 -0.286346 6.51171 0
M  V30 1528 N 140.419 -1.14872 1.07899 0
M  V30 1529 C 141.667 -1.85422 0.803941 0
M  V30 1530 C 141.988 -1.83051 -0.67211 0
M  V30 1531 O 141.258 -1.27532 -1.48703 0
M  V30 1532 H 139.838 -0.686537 0.294408 0
M  V30 1533 H 142.5 -1.39226 1.3639 0
M  V30 1534 H 141.596 -2.90399 1.14346 0
M  V30 1535 N 141.898 -0.863906 -1.31812 0
M  V30 1536 C 143.128 -0.485406 -2.00817 0
M  V30 1537 C 143.536 0.925007 -1.65046 0
M  V30 1538 O 142.879 1.61653 -0.872574 0
M  V30 1539 C 142.941 -0.555589 -3.55181 0
M  V30 1540 C 142.605 -1.92654 -4.14407 0
M  V30 1541 C 143.602 -2.89324 -4.31958 0
M  V30 1542 C 141.287 -2.2262 -4.50273 0
M  V30 1543 C 143.281 -4.14108 -4.84555 0
M  V30 1544 C 140.968 -3.47654 -5.02573 0
M  V30 1545 C 141.966 -4.43214 -5.19664 0
M  V30 1546 O 141.654 -5.66033 -5.70843 0
M  V30 1547 H 141.386 -0.188224 -0.649267 0
M  V30 1548 H 143.94 -1.16514 -1.69156 0
M  V30 1549 H 142.17 0.181037 -3.86276 0
M  V30 1550 H 143.859 -0.19138 -4.05449 0
M  V30 1551 H 144.625 -2.6748 -4.04573 0
M  V30 1552 H 140.504 -1.4902 -4.3625 0
M  V30 1553 H 144.048 -4.88703 -4.9781 0
M  V30 1554 H 139.945 -3.69345 -5.29391 0
M  V30 1555 H 140.713 -5.6812 -5.89222 0
M  V30 1556 N 143.376 1.44774 -0.622745 0
M  V30 1557 C 144.339 2.29069 0.0774015 0
M  V30 1558 C 145.339 1.4059 0.780461 0
M  V30 1559 O 146.529 1.62551 0.626322 0
M  V30 1560 C 143.661 3.21974 1.12006 0
M  V30 1561 H 144.854 2.92459 -0.663901 0
M  V30 1562 H 142.407 1.51548 -0.382486 0
M  V30 1563 H 143.142 2.63417 1.89162 0
M  V30 1564 H 142.927 3.87168 0.619951 0
M  V30 1565 H 144.417 3.85318 1.60995 0
M  V30 1566 N 144.854 0.36279 1.53368 0
M  V30 1567 C 146.27 0.0116182 1.59596 0
M  V30 1568 C 146.47 -1.47012 1.37803 0
M  V30 1569 O 145.526 -2.23136 1.18181 0
M  V30 1570 C 146.839 0.465052 2.97082 0
M  V30 1571 C 148.387 0.419033 3.10182 0
M  V30 1572 C 148.862 0.848235 4.50077 0
M  V30 1573 N 150.353 0.803183 4.56183 0
M  V30 1574 C 151.088 1.107 5.62613 0
M  V30 1575 N 150.584 1.47996 6.76808 0
M  V30 1576 N 152.377 1.02998 5.52583 0
M  V30 1577 H 144.528 1.32775 1.65785 0
M  V30 1578 H 146.791 0.542518 0.777417 0
M  V30 1579 H 146.497 1.49892 3.18159 0
M  V30 1580 H 146.371 -0.149786 3.76902 0
M  V30 1581 H 148.758 -0.605696 2.88817 0
M  V30 1582 H 148.839 1.06933 2.32377 0
M  V30 1583 H 148.483 1.87107 4.7218 0
M  V30 1584 H 148.413 0.175218 5.26308 0
M  V30 1585 H 150.904 0.52838 3.74188 0
M  V30 1586 H 151.217 1.69613 7.53957 0
M  V30 1587 H 149.562 1.51859 6.78206 0
M  V30 1588 H 152.753 0.737817 4.62249 0
M  V30 1589 H 152.926 1.2701 6.35431 0
M  V30 1590 N 146.332 -1.57332 0.0918853 0
M  V30 1591 C 147.557 -1.98995 -0.584442 0
M  V30 1592 C 147.982 -0.970528 -1.61128 0
M  V30 1593 O 147.34 0.0613904 -1.81196 0
M  V30 1594 C 147.388 -3.39636 -1.21161 0
M  V30 1595 O 146.492 -3.40447 -2.32744 0
M  V30 1596 H 145.833 -0.647165 -0.148572 0
M  V30 1597 H 148.363 -2.03873 0.172347 0
M  V30 1598 H 148.373 -3.7726 -1.55367 0
M  V30 1599 H 147.048 -4.13356 -0.459313 0
M  V30 1600 H 145.625 -3.14614 -2.0018 0
M  V30 1601 N 147.81 0.181792 -1.56548 0
M  V30 1602 C 148.773 1.20894 -1.94724 0
M  V30 1603 C 149.773 1.37738 -0.829747 0
M  V30 1604 O 150.963 1.35323 -1.09697 0
M  V30 1605 C 148.095 2.57593 -2.23291 0
M  V30 1606 H 149.288 0.882275 -2.86629 0
M  V30 1607 H 146.841 0.423838 -1.50444 0
M  V30 1608 H 147.576 2.95291 -1.34067 0
M  V30 1609 H 147.361 2.46735 -3.04736 0
M  V30 1610 H 148.851 3.31637 -2.53785 0
M  V30 1611 N 149.288 1.51039 0.449983 0
M  V30 1612 C 150.22 1.67617 1.56324 0
M  V30 1613 C 151.233 0.557083 1.52972 0
M  V30 1614 O 152.422 0.830989 1.57977 0
M  V30 1615 C 149.522 1.66402 2.95235 0
M  V30 1616 C 148.695 2.9469 3.23229 0
M  V30 1617 C 147.754 2.85832 4.41799 0
M  V30 1618 O 146.78 3.59785 4.41071 0
M  V30 1619 N 147.982 2.00821 5.44657 0
M  V30 1620 H 150.747 2.63648 1.42512 0
M  V30 1621 H 148.308 1.48767 0.638737 0
M  V30 1622 H 150.3 1.58062 3.72557 0
M  V30 1623 H 148.87 0.780182 3.02708 0
M  V30 1624 H 148.09 3.16996 2.34323 0
M  V30 1625 H 149.378 3.79636 3.38754 0
M  V30 1626 H 148.776 1.40091 5.48079 0
M  V30 1627 H 147.333 1.98368 6.20881 0
M  V30 1628 N 150.766 -0.704594 1.40972 0
M  V30 1629 C 151.696 -1.83124 1.44872 0
M  V30 1630 C 152.677 -1.67281 0.30838 0
M  V30 1631 O 153.862 -1.87149 0.518556 0
M  V30 1632 C 150.992 -3.21181 1.32136 0
M  V30 1633 C 149.946 -3.51714 2.43888 0
M  V30 1634 C 149.272 -4.89032 2.16222 0
M  V30 1635 C 150.572 -3.516 3.86232 0
M  V30 1636 H 152.266 -1.80117 2.39161 0
M  V30 1637 H 149.812 -0.865145 1.15114 0
M  V30 1638 H 151.765 -3.99702 1.33479 0
M  V30 1639 H 150.489 -3.24791 0.343279 0
M  V30 1640 H 149.148 -2.75539 2.41813 0
M  V30 1641 H 148.796 -4.89256 1.16778 0
M  V30 1642 H 148.496 -5.10426 2.911 0
M  V30 1643 H 150.02 -5.69873 2.19265 0
M  V30 1644 H 151.434 -4.2014 3.9007 0
M  V30 1645 H 149.831 -3.84523 4.60719 0
M  V30 1646 H 150.901 -2.50757 4.15029 0
M  V30 1647 N 152.244 -1.26651 -0.937939 0
M  V30 1648 C 153.66 -1.03834 -1.21205 0
M  V30 1649 C 153.86 0.234502 -2.00131 0
M  V30 1650 O 152.916 0.942767 -2.3424 0
M  V30 1651 C 154.229 -2.27167 -1.97017 0
M  V30 1652 C 155.777 -2.32101 -2.09996 0
M  V30 1653 C 156.252 -3.55136 -2.8921 0
M  V30 1654 N 157.743 -3.55632 -2.96783 0
M  V30 1655 C 158.478 -4.475 -3.58512 0
M  V30 1656 N 157.974 -5.4966 -4.21717 0
M  V30 1657 N 159.767 -4.35145 -3.55816 0
M  V30 1658 H 151.918 -2.08398 -0.410391 0
M  V30 1659 H 154.181 -0.916031 -0.244114 0
M  V30 1660 H 153.887 -3.19765 -1.46434 0
M  V30 1661 H 153.761 -2.31672 -2.97671 0
M  V30 1662 H 156.148 -1.40015 -2.59769 0
M  V30 1663 H 156.229 -2.31605 -1.08594 0
M  V30 1664 H 155.873 -4.47553 -2.40123 0
M  V30 1665 H 155.803 -3.5288 -3.90875 0
M  V30 1666 H 158.294 -2.81743 -2.51852 0
M  V30 1667 H 158.607 -6.15943 -4.66727 0
M  V30 1668 H 156.952 -5.53514 -4.20294 0
M  V30 1669 H 160.143 -3.5455 -3.05634 0
M  V30 1670 H 160.316 -5.06934 -4.03636 0
M  V30 1671 N 153.722 1.14298 -1.08507 0
M  V30 1672 C 154.652 2.21542 -0.737646 0
M  V30 1673 C 155.633 1.67773 0.280377 0
M  V30 1674 O 156.818 1.93616 0.150521 0
M  V30 1675 C 153.948 3.46988 -0.147259 0
M  V30 1676 C 152.902 4.13789 -1.09374 0
M  V30 1677 C 152.228 5.33449 -0.365524 0
M  V30 1678 C 153.528 4.62208 -2.4323 0
M  V30 1679 H 155.222 2.5086 -1.6343 0
M  V30 1680 H 152.768 1.20576 -0.787243 0
M  V30 1681 H 154.721 4.21262 0.107808 0
M  V30 1682 H 153.445 3.17037 0.784538 0
M  V30 1683 H 152.104 3.4147 -1.33393 0
M  V30 1684 H 151.752 4.99759 0.57011 0
M  V30 1685 H 151.452 5.79088 -0.996512 0
M  V30 1686 H 152.976 6.10485 -0.118534 0
M  V30 1687 H 154.39 5.27952 -2.23472 0
M  V30 1688 H 152.787 5.18553 -3.02031 0
M  V30 1689 H 153.857 3.77224 -3.04681 0
M  V30 1690 N 155.201 0.870884 1.31352 0
M  V30 1691 C 156.164 0.332243 2.26779 0
M  V30 1692 C 157.164 -0.517302 1.52252 0
M  V30 1693 O 158.354 -0.326477 1.71113 0
M  V30 1694 C 155.486 -0.528066 3.36785 0
M  V30 1695 H 156.679 1.17469 2.75937 0
M  V30 1696 H 154.232 0.64655 1.423 0
M  V30 1697 H 154.967 -1.39167 2.92922 0
M  V30 1698 H 154.752 0.0802582 3.92018 0
M  V30 1699 H 156.242 -0.897179 4.07849 0
M  V30 1700 N 156.679 -1.44442 0.630414 0
M  V30 1701 C 158.09 -1.85434 0.217063 0
M  V30 1702 C 158.441 -1.52748 -1.23136 0
M  V30 1703 O 157.566 -0.965205 -1.93682 0
M  V30 1704 C 158.161 -3.36581 0.387168 0
M  V30 1705 C 156.72 -3.76389 0.0283297 0
M  V30 1706 C 155.867 -2.68296 0.700889 0
M  V30 1707 H 158.818 -1.34919 0.83562 0
M  V30 1708 H 158.839 -3.78657 -0.374086 0
M  V30 1709 H 158.351 -3.60339 1.44144 0
M  V30 1710 H 156.452 -3.58246 -1.02423 0
M  V30 1711 H 156.565 -4.77095 0.437892 0
M  V30 1712 H 154.929 -2.54335 0.136267 0
M  V30 1713 H 155.712 -2.94887 1.75774 0
M  V30 1714 N 158.157 -0.370918 -1.53173 0
M  V30 1715 C 159.087 0.464847 -2.28826 0
M  V30 1716 C 160.068 1.07936 -1.31468 0
M  V30 1717 O 161.253 1.0956 -1.60344 0
M  V30 1718 C 158.383 1.60196 -3.08147 0
M  V30 1719 C 157.337 1.11443 -4.13237 0
M  V30 1720 C 156.663 2.3422 -4.80672 0
M  V30 1721 C 157.963 0.195384 -5.21934 0
M  V30 1722 H 159.657 -0.166329 -2.98938 0
M  V30 1723 H 157.203 -0.0814359 -1.4377 0
M  V30 1724 H 159.156 2.19332 -3.59822 0
M  V30 1725 H 157.88 2.26045 -2.35735 0
M  V30 1726 H 156.539 0.545727 -3.62515 0
M  V30 1727 H 156.187 2.98537 -4.04827 0
M  V30 1728 H 155.887 2.02269 -5.51689 0
M  V30 1729 H 157.411 2.94032 -5.35143 0
M  V30 1730 H 158.825 0.694375 -5.69079 0
M  V30 1731 H 157.222 -0.0335027 -6.00091 0
M  V30 1732 H 158.292 -0.760961 -4.78892 0
M  V30 1733 N 159.635 1.57281 -0.100228 0
M  V30 1734 C 160.865 1.98591 0.569681 0
M  V30 1735 C 161.273 0.978315 1.61943 0
M  V30 1736 O 160.616 -0.0396108 1.83657 0
M  V30 1737 C 160.678 3.36282 1.271 0
M  V30 1738 C 160.342 4.55488 0.371409 0
M  V30 1739 C 161.339 5.18491 -0.382504 0
M  V30 1740 C 159.024 5.01474 0.287965 0
M  V30 1741 C 161.018 6.25852 -1.20779 0
M  V30 1742 C 158.705 6.08701 -0.540965 0
M  V30 1743 C 159.703 6.70755 -1.28749 0
M  V30 1744 O 159.391 7.75914 -2.10269 0
M  V30 1745 H 159.123 0.65752 0.156982 0
M  V30 1746 H 161.677 2.0463 -0.177734 0
M  V30 1747 H 159.907 3.26941 2.0651 0
M  V30 1748 H 161.596 3.62005 1.83595 0
M  V30 1749 H 162.362 4.83891 -0.3278 0
M  V30 1750 H 158.241 4.52932 0.858689 0
M  V30 1751 H 161.785 6.74218 -1.79096 0
M  V30 1752 H 157.682 6.42732 -0.597131 0
M  V30 1753 H 158.45 7.92925 -2.03007 0
M  V30 1754 N 161.113 -0.173488 1.56642 0
M  V30 1755 C 162.076 -1.19859 1.95362 0
M  V30 1756 C 163.076 -1.37296 0.83704 0
M  V30 1757 O 164.266 -1.34739 1.10413 0
M  V30 1758 C 161.398 -2.56405 2.24654 0
M  V30 1759 H 162.591 -0.867062 2.87092 0
M  V30 1760 H 160.144 -0.415853 1.50666 0
M  V30 1761 H 160.879 -2.94576 1.35631 0
M  V30 1762 H 160.664 -2.45115 3.06041 0
M  V30 1763 H 162.154 -3.30287 2.5554 0
M  V30 1764 N 162.591 -1.51276 -0.441967 0
M  V30 1765 C 163.816 -1.67799 -1.21895 0
M  V30 1766 C 164.241 -0.372864 -1.84367 0
M  V30 1767 O 163.599 0.666501 -1.68604 0
M  V30 1768 C 163.647 -2.79199 -2.28211 0
M  V30 1769 O 162.751 -2.42479 -3.33583 0
M  V30 1770 H 162.092 -0.559649 -0.357336 0
M  V30 1771 H 164.622 -1.97815 -0.522522 0
M  V30 1772 H 164.632 -3.03146 -2.73069 0
M  V30 1773 H 163.307 -3.73906 -1.82118 0
M  V30 1774 H 161.884 -2.29087 -2.94234 0
M  V30 1775 N 164.069 0.697108 -1.41344 0
M  V30 1776 C 165.032 1.79281 -1.42797 0
M  V30 1777 C 166.032 1.57607 -0.318837 0
M  V30 1778 O 167.222 1.64309 -0.578642 0
M  V30 1779 C 164.354 3.17632 -1.23785 0
M  V30 1780 H 165.547 1.79385 -2.40335 0
M  V30 1781 H 163.1 0.904582 -1.27464 0
M  V30 1782 H 163.835 3.23167 -0.270814 0
M  V30 1783 H 163.62 3.34765 -2.04144 0
M  V30 1784 H 165.11 3.97617 -1.27633 0
M  V30 1785 N 165.547 1.27147 0.931209 0
M  V30 1786 C 166.963 1.04475 1.20653 0
M  V30 1787 C 167.163 -0.223885 2.00252 0
M  V30 1788 O 166.219 -0.930332 2.34736 0
M  V30 1789 C 167.532 2.28209 1.95809 0
M  V30 1790 C 169.08 2.33211 2.08762 0
M  V30 1791 C 169.555 3.56665 2.87323 0
M  V30 1792 N 171.046 3.57201 2.94892 0
M  V30 1793 C 171.781 4.49395 3.56134 0
M  V30 1794 N 171.277 5.51889 4.18796 0
M  V30 1795 N 173.07 4.37026 3.53504 0
M  V30 1796 H 165.221 2.08612 0.399333 0
M  V30 1797 H 167.484 0.917312 0.239253 0
M  V30 1798 H 167.19 3.20538 1.44736 0
M  V30 1799 H 167.064 2.33247 2.96438 0
M  V30 1800 H 169.451 1.41391 2.59023 0
M  V30 1801 H 169.532 2.32178 1.07364 0
M  V30 1802 H 169.176 4.4882 2.37746 0
M  V30 1803 H 169.106 3.54948 3.88998 0
M  V30 1804 H 171.597 2.83074 2.50354 0
M  V30 1805 H 171.91 6.18409 4.63454 0
M  V30 1806 H 170.255 5.55735 4.17353 0
M  V30 1807 H 173.446 3.56166 3.03749 0
M  V30 1808 H 173.619 5.09067 4.00942 0
M  V30 1809 N 167.025 -1.13721 1.09112 0
M  V30 1810 C 167.988 -2.17222 0.731241 0
M  V30 1811 C 168.988 -1.59035 -0.237566 0
M  V30 1812 O 170.178 -1.74192 -0.0161704 0
M  V30 1813 C 167.31 -3.40804 0.0808443 0
M  V30 1814 H 168.503 -2.50573 1.64783 0
M  V30 1815 H 166.056 -1.28493 0.889897 0
M  V30 1816 H 166.791 -3.1304 -0.847127 0
M  V30 1817 H 166.576 -3.84306 0.777896 0
M  V30 1818 H 168.066 -4.1731 -0.155657 0
M  V30 1819 N 168.503 -0.877838 -1.30888 0
M  V30 1820 C 169.433 -0.35534 -2.3078 0
M  V30 1821 C 170.414 0.557994 -1.60687 0
M  V30 1822 O 171.599 0.473355 -1.88343 0
M  V30 1823 C 168.729 0.437221 -3.44537 0
M  V30 1824 C 167.683 -0.383715 -4.26276 0
M  V30 1825 C 167.009 0.535014 -5.32017 0
M  V30 1826 C 168.309 -1.62201 -4.96476 0
M  V30 1827 H 170.003 -1.19007 -2.74732 0
M  V30 1828 H 167.549 -0.573698 -1.32078 0
M  V30 1829 H 169.502 0.813334 -4.13477 0
M  V30 1830 H 168.226 1.30553 -2.99372 0
M  V30 1831 H 166.885 -0.741874 -3.59015 0
M  V30 1832 H 166.533 1.40083 -4.831 0
M  V30 1833 H 166.233 -0.0104211 -5.87599 0
M  V30 1834 H 167.757 0.907799 -6.03814 0
M  V30 1835 H 169.171 -1.31689 -5.5797 0
M  V30 1836 H 167.568 -2.10711 -5.61891 0
M  V30 1837 H 168.638 -2.37044 -4.23011 0
M  V30 1838 N 169.982 1.44106 -0.638065 0
M  V30 1839 C 171.228 2.02815 -0.15409 0
M  V30 1840 C 171.583 1.49342 1.21304 0
M  V30 1841 O 170.876 0.670699 1.79478 0
M  V30 1842 C 171.07 3.5729 -0.0887327 0
M  V30 1843 C 170.899 4.2575 -1.44799 0
M  V30 1844 C 169.669 4.62443 -2.03653 0
M  V30 1845 C 171.867 4.55746 -2.38327 0
M  V30 1846 N 169.849 5.15903 -3.32741 0
M  V30 1847 C 171.22 5.10364 -3.52036 0
M  V30 1848 C 173.275 4.37703 -2.3732 0
M  V30 1849 C 171.978 5.48837 -4.64941 0
M  V30 1850 C 174.004 4.77229 -3.49294 0
M  V30 1851 C 173.366 5.31966 -4.61726 0
M  V30 1852 H 169.465 0.775519 -0.100466 0
M  V30 1853 H 172.049 1.755 -0.843071 0
M  V30 1854 H 170.22 3.84201 0.569548 0
M  V30 1855 H 171.952 4.02671 0.404711 0
M  V30 1856 H 168.707 4.46987 -1.56523 0
M  V30 1857 H 169.131 5.47102 -3.98758 0
M  V30 1858 H 173.773 3.94671 -1.51641 0
M  V30 1859 H 171.491 5.9082 -5.51323 0
M  V30 1860 H 175.077 4.64976 -3.49698 0
M  V30 1861 H 173.957 5.61986 -5.46939 0
M  V30 1862 N 171.46 0.379036 1.52974 0
M  V30 1863 C 172.39 -0.452706 2.29069 0
M  V30 1864 C 173.371 -1.07237 1.32039 0
M  V30 1865 O 174.556 -1.08708 1.60923 0
M  V30 1866 C 171.686 -1.5856 3.08992 0
M  V30 1867 C 170.64 -1.0925 4.13822 0
M  V30 1868 C 169.966 -2.31668 4.81907 0
M  V30 1869 C 171.266 -0.167702 5.22031 0
M  V30 1870 H 172.96 0.182181 2.98845 0
M  V30 1871 H 170.506 0.0890592 1.43724 0
M  V30 1872 H 172.459 -2.1742 3.6098 0
M  V30 1873 H 171.183 -2.24792 2.36931 0
M  V30 1874 H 169.842 -0.526494 3.628 0
M  V30 1875 H 169.49 -2.96386 4.06404 0
M  V30 1876 H 169.19 -1.9934 5.52754 0
M  V30 1877 H 170.714 -2.91189 5.36695 0
M  V30 1878 H 172.128 -0.664186 5.6944 0
M  V30 1879 H 170.525 0.0653265 6.00064 0
M  V30 1880 H 171.595 0.786347 4.78482 0
M  V30 1881 N 172.938 -1.57226 0.108567 0
M  V30 1882 C 173.868 -2.17778 -0.84232 0
M  V30 1883 C 174.849 -1.11487 -1.2847 0
M  V30 1884 O 176.034 -1.39681 -1.34918 0
M  V30 1885 C 173.164 -2.76888 -2.09644 0
M  V30 1886 C 172.118 -3.88669 -1.79221 0
M  V30 1887 C 171.444 -4.34541 -3.11574 0
M  V30 1888 C 172.744 -5.11251 -1.06864 0
M  V30 1889 H 174.438 -2.97489 -0.337774 0
M  V30 1890 H 171.984 -1.43097 -0.161025 0
M  V30 1891 H 173.937 -3.17904 -2.76614 0
M  V30 1892 H 172.661 -1.94451 -2.62405 0
M  V30 1893 H 171.32 -3.48213 -1.14644 0
M  V30 1894 H 170.968 -3.48977 -3.62249 0
M  V30 1895 H 170.668 -5.09914 -2.91996 0
M  V30 1896 H 172.192 -4.782 -3.7968 0
M  V30 1897 H 173.606 -5.49352 -1.63968 0
M  V30 1898 H 172.003 -5.9214 -0.974178 0
M  V30 1899 H 173.073 -4.8487 -0.0536168 0
M  V30 1900 N 174.416 0.165178 -1.56732 0
M  V30 1901 C 175.662 0.882112 -1.82611 0
M  V30 1902 C 175.995 1.81628 -0.687378 0
M  V30 1903 O 175.27 1.92009 0.310267 0
M  V30 1904 C 175.553 1.67245 -3.18906 0
M  V30 1905 C 175.406 0.760987 -4.43316 0
M  V30 1906 C 176.725 2.63884 -3.52212 0
M  V30 1907 H 173.844 0.319242 -0.664269 0
M  V30 1908 H 176.486 0.148052 -1.89422 0
M  V30 1909 H 174.636 2.29824 -3.1323 0
M  V30 1910 H 176.308 0.147596 -4.61064 0
M  V30 1911 H 174.551 0.0694102 -4.33744 0
M  V30 1912 H 175.222 1.34962 -5.35247 0
M  V30 1913 H 177.698 2.11429 -3.58381 0
M  V30 1914 H 176.574 3.16245 -4.48643 0
M  V30 1915 H 176.835 3.44377 -2.77231 0
M  V30 1916 N 175.894 1.51508 0.433938 0
M  V30 1917 C 176.857 1.72473 1.50949 0
M  V30 1918 C 177.857 0.594725 1.49398 0
M  V30 1919 O 179.047 0.862315 1.5136 0
M  V30 1920 C 176.179 1.78431 2.90474 0
M  V30 1921 H 177.372 2.68467 1.33662 0
M  V30 1922 H 174.925 1.41549 0.662836 0
M  V30 1923 H 175.66 0.842645 3.13161 0
M  V30 1924 H 175.445 2.60558 2.93005 0
M  V30 1925 H 176.935 1.96479 3.68491 0
M  V30 1926 N 177.372 -0.689602 1.41712 0
M  V30 1927 C 178.302 -1.81577 1.46806 0
M  V30 1928 C 179.283 -1.66945 0.326105 0
M  V30 1929 O 180.468 -1.86588 0.538377 0
M  V30 1930 C 177.598 -3.19762 1.35535 0
M  V30 1931 C 176.552 -3.49107 2.47605 0
M  V30 1932 C 175.878 -4.86711 2.21397 0
M  V30 1933 C 177.178 -3.47483 3.89939 0
M  V30 1934 H 178.872 -1.7757 2.41058 0
M  V30 1935 H 176.418 -0.852887 1.16025 0
M  V30 1936 H 178.371 -3.98263 1.3771 0
M  V30 1937 H 177.095 -3.24409 0.377708 0
M  V30 1938 H 175.754 -2.72959 2.44722 0
M  V30 1939 H 175.402 -4.8799 1.21961 0
M  V30 1940 H 175.102 -5.0731 2.96497 0
M  V30 1941 H 176.626 -5.67515 2.25297 0
M  V30 1942 H 178.04 -4.1598 3.94505 0
M  V30 1943 H 176.437 -3.79615 4.64771 0
M  V30 1944 H 177.507 -2.46341 4.17665 0
M  V30 1945 N 178.85 -1.27639 -0.924453 0
M  V30 1946 C 179.813 -1.10681 -2.00705 0
M  V30 1947 C 180.813 -0.0497823 -1.60723 0
M  V30 1948 O 182.003 -0.294654 -1.7169 0
M  V30 1949 C 179.135 -0.687164 -3.33902 0
M  V30 1950 H 180.328 -2.06817 -2.17179 0
M  V30 1951 H 177.881 -1.10473 -1.10569 0
M  V30 1952 H 178.616 0.275439 -3.23128 0
M  V30 1953 H 178.401 -1.45061 -3.6428 0
M  V30 1954 H 179.891 -0.590853 -4.13399 0
M  V30 1955 N 180.328 1.1314 -1.09713 0
M  V30 1956 C 181.291 2.16831 -0.742751 0
M  V30 1957 C 182.291 1.59159 0.229129 0
M  V30 1958 O 183.481 1.74199 0.00693237 0
M  V30 1959 C 180.613 3.40756 -0.0989168 0
M  V30 1960 H 181.806 2.49695 -1.66109 0
M  V30 1961 H 179.359 1.2802 -0.896699 0
M  V30 1962 H 180.094 3.13485 0.830514 0
M  V30 1963 H 179.879 3.83888 -0.798265 0
M  V30 1964 H 181.369 4.17386 0.133524 0
M  V30 1965 N 181.806 0.884767 1.30421 0
M  V30 1966 C 182.736 0.367574 2.30589 0
M  V30 1967 C 183.717 -0.549464 1.60981 0
M  V30 1968 O 184.902 -0.46336 1.88591 0
M  V30 1969 C 182.032 -0.418944 3.44764 0
M  V30 1970 C 180.986 0.406316 4.26067 0
M  V30 1971 C 180.312 -0.506793 5.32293 0
M  V30 1972 C 181.612 1.64832 4.95608 0
M  V30 1973 H 183.306 1.20462 2.74097 0
M  V30 1974 H 180.852 0.580695 1.31772 0
M  V30 1975 H 182.805 -0.791395 4.13902 0
M  V30 1976 H 181.529 -1.28964 3.0006 0
M  V30 1977 H 180.188 0.760903 3.58617 0
M  V30 1978 H 179.836 -1.37519 4.83836 0
M  V30 1979 H 179.536 0.0415828 5.87585 0
M  V30 1980 H 181.06 -0.875764 6.04287 0
M  V30 1981 H 182.474 1.34646 5.57264 0
M  V30 1982 H 180.871 2.13688 5.60765 0
M  V30 1983 H 181.941 2.39284 4.21748 0
M  V30 1984 N 183.284 -1.43765 0.645699 0
M  V30 1985 C 184.532 -2.01499 0.155731 0
M  V30 1986 C 184.853 -1.51151 -1.232 0
M  V30 1987 O 184.123 -0.721044 -1.82148 0
M  V30 1988 H 182.703 -0.745003 0.0545817 0
M  V30 1989 H 185.365 -1.76075 0.835677 0
M  V30 1990 H 184.461 -3.1181 0.134577 0
M  V30 1991 N 184.763 -0.387143 -1.52771 0
M  V30 1992 C 185.693 0.440551 -2.29306 0
M  V30 1993 C 186.674 1.06535 -1.32606 0
M  V30 1994 O 187.859 1.07853 -1.61497 0
M  V30 1995 C 184.989 1.56919 -3.09829 0
M  V30 1996 C 183.943 1.07054 -4.14395 0
M  V30 1997 C 183.269 2.29109 -4.83129 0
M  V30 1998 C 184.569 0.140015 -5.22112 0
M  V30 1999 H 186.263 -0.198026 -2.98744 0
M  V30 2000 H 183.809 -0.09668 -1.43675 0
M  V30 2001 H 185.762 2.15503 -3.62128 0
M  V30 2002 H 184.486 2.23532 -2.3812 0
M  V30 2003 H 183.145 0.507247 -3.63074 0
M  V30 2004 H 182.793 2.94227 -4.0797 0
M  V30 2005 H 182.493 1.96406 -5.53804 0
M  V30 2006 H 184.017 2.88339 -5.38231 0
M  V30 2007 H 185.431 0.633978 -5.69784 0
M  V30 2008 H 183.828 -0.0971485 -6.00021 0
M  V30 2009 H 184.898 -0.811711 -4.78058 0
M  V30 2010 N 186.241 1.57166 -0.116904 0
M  V30 2011 C 187.171 2.18222 0.830759 0
M  V30 2012 C 188.152 1.12167 1.27877 0
M  V30 2013 O 189.337 1.40394 1.34176 0
M  V30 2014 C 186.467 2.77996 2.08172 0
M  V30 2015 C 185.421 3.89614 1.77157 0
M  V30 2016 C 184.747 4.36187 3.09265 0
M  V30 2017 C 186.047 5.1181 1.04151 0
M  V30 2018 H 187.741 2.97664 0.321992 0
M  V30 2019 H 185.287 1.4318 0.153434 0
M  V30 2020 H 187.24 3.19366 2.74924 0
M  V30 2021 H 185.964 1.9584 2.6137 0
M  V30 2022 H 184.623 3.48816 1.12796 0
M  V30 2023 H 184.271 3.50893 3.60393 0
M  V30 2024 H 183.971 5.11455 2.89288 0
M  V30 2025 H 185.495 4.80207 3.77139 0
M  V30 2026 H 186.909 5.50214 1.61052 0
M  V30 2027 H 185.306 5.92648 0.942762 0
M  V30 2028 H 186.376 4.84892 0.0279022 0
M  V30 2029 N 187.719 -0.156864 1.56817 0
M  V30 2030 C 188.682 -1.17781 1.96622 0
M  V30 2031 C 189.682 -1.36401 0.851555 0
M  V30 2032 O 190.872 -1.33561 1.11836 0
M  V30 2033 C 188.004 -2.54008 2.27361 0
M  V30 2034 H 189.197 -0.836564 2.87996 0
M  V30 2035 H 186.75 -0.39985 1.51099 0
M  V30 2036 H 187.485 -2.9312 1.38748 0
M  V30 2037 H 187.27 -2.41856 3.08623 0
M  V30 2038 H 188.76 -3.27558 2.59029 0
M  V30 2039 N 189.197 -1.51736 -0.425897 0
M  V30 2040 C 190.147 -1.70258 -1.51645 0
M  V30 2041 C 191.131 -0.556488 -1.5097 0
M  V30 2042 O 192.323 -0.812879 -1.5723 0
M  V30 2043 C 189.452 -1.84143 -2.89735 0
M  V30 2044 C 188.538 -3.04572 -2.95122 0
M  V30 2045 N 188.929 -4.2756 -2.70233 0
M  V30 2046 C 187.227 -3.04061 -3.26286 0
M  V30 2047 C 187.928 -5.08908 -2.81757 0
M  V30 2048 N 186.904 -4.43797 -3.13919 0
M  V30 2049 H 190.706 -2.63004 -1.31172 0
M  V30 2050 H 188.22 -1.4954 -0.633375 0
M  V30 2051 H 190.217 -1.95525 -3.68206 0
M  V30 2052 H 188.877 -0.925857 -3.1122 0
M  V30 2053 H 189.888 -4.56315 -2.44943 0
M  V30 2054 H 186.565 -2.22179 -3.53473 0
M  V30 2055 H 187.955 -6.16843 -2.66372 0
M  V30 2056 N 190.675 0.682077 -1.42076 0
M  V30 2057 C 191.922 1.44215 -1.42156 0
M  V30 2058 C 192.25 1.94468 -0.0354186 0
M  V30 2059 O 191.505 1.70816 0.955002 0
M  V30 2060 C 191.804 2.66036 -2.38662 0
M  V30 2061 C 191.47 2.34366 -3.85206 0
M  V30 2062 C 190.132 2.25439 -4.25124 0
M  V30 2063 C 192.484 2.08513 -4.77673 0
M  V30 2064 C 189.812 1.88775 -5.55501 0
M  V30 2065 C 192.164 1.73354 -6.08384 0
M  V30 2066 C 190.828 1.62933 -6.47309 0
M  V30 2067 H 190.098 0.527718 -0.520187 0
M  V30 2068 H 192.745 0.778387 -1.74967 0
M  V30 2069 H 191.05 3.3741 -1.99152 0
M  V30 2070 H 192.747 3.24205 -2.35991 0
M  V30 2071 H 189.337 2.42213 -3.53597 0
M  V30 2072 H 193.521 2.14346 -4.47626 0
M  V30 2073 H 188.777 1.7927 -5.84527 0
M  V30 2074 H 192.951 1.52373 -6.79526 0
M  V30 2075 H 190.578 1.34292 -7.48244 0
M  V30 2076 N 192.153 1.28127 0.917671 0
M  V30 2077 C 193.083 1.14248 2.03641 0
M  V30 2078 C 194.064 0.0412748 1.7005 0
M  V30 2079 O 195.249 0.217566 1.92977 0
M  V30 2080 C 192.379 0.799431 3.37974 0
M  V30 2081 C 191.333 1.85497 3.85713 0
M  V30 2082 C 190.659 1.36565 5.16966 0
M  V30 2083 C 191.959 3.26085 4.08002 0
M  V30 2084 H 193.653 2.07835 2.15511 0
M  V30 2085 H 191.199 1.00064 1.03553 0
M  V30 2086 H 193.152 0.689114 4.15727 0
M  V30 2087 H 191.876 -0.172145 3.26146 0
M  V30 2088 H 190.535 1.95437 3.10161 0
M  V30 2089 H 190.183 0.383253 5.01538 0
M  V30 2090 H 189.883 2.07143 5.49878 0
M  V30 2091 H 191.407 1.26848 5.97279 0
M  V30 2092 H 192.821 3.19089 4.76293 0
M  V30 2093 H 191.218 3.94462 4.52238 0
M  V30 2094 H 192.288 3.70394 3.12948 0
M  V30 2095 N 193.631 -1.12557 1.10312 0
M  V30 2096 C 195.042 -1.65574 0.862678 0
M  V30 2097 C 195.393 -1.86566 -0.607256 0
M  V30 2098 O 194.518 -1.59121 -1.46662 0
M  V30 2099 C 195.113 -3.00776 1.55947 0
M  V30 2100 C 193.672 -3.50748 1.36576 0
M  V30 2101 C 192.819 -2.25797 1.60968 0
M  V30 2102 H 195.77 -0.963552 1.26101 0
M  V30 2103 H 195.791 -3.67185 0.997753 0
M  V30 2104 H 195.303 -2.85465 2.62928 0
M  V30 2105 H 193.404 -3.71245 0.317531 0
M  V30 2106 H 193.517 -4.30289 2.10686 0
M  V30 2107 H 191.881 -2.32841 1.03234 0
M  V30 2108 H 192.664 -2.13043 2.69198 0
M  V30 2109 N 195.109 -0.891671 -1.2995 0
M  V30 2110 C 196.072 -0.36828 -2.26222 0
M  V30 2111 C 197.072 0.493014 -1.53056 0
M  V30 2112 O 198.262 0.299213 -1.71611 0
M  V30 2113 C 195.394 0.47442 -3.37583 0
M  V30 2114 H 196.587 -1.21844 -2.74033 0
M  V30 2115 H 194.14 -0.669107 -1.41254 0
M  V30 2116 H 194.875 1.34489 -2.95099 0
M  V30 2117 H 194.66 -0.142615 -3.91841 0
M  V30 2118 H 196.15 0.83218 -4.09224 0
M  V30 2119 N 196.587 1.43421 -0.653314 0
M  V30 2120 C 197.55 2.29182 0.0287951 0
M  V30 2121 C 198.55 1.42213 0.750465 0
M  V30 2122 O 199.74 1.63843 0.591701 0
M  V30 2123 C 196.872 3.24278 1.05151 0
M  V30 2124 H 198.065 2.90985 -0.725786 0
M  V30 2125 H 195.618 1.50702 -0.414545 0
M  V30 2126 H 196.353 2.6737 1.83532 0
M  V30 2127 H 196.138 3.88396 0.537687 0
M  V30 2128 H 197.628 3.88647 1.52786 0
M  V30 2129 N 198.065 0.39524 1.52563 0
M  V30 2130 C 198.995 -0.428384 2.29537 0
M  V30 2131 C 199.976 -1.05831 1.33169 0
M  V30 2132 O 201.161 -1.06995 1.62067 0
M  V30 2133 C 198.291 -1.55274 3.10656 0
M  V30 2134 C 197.245 -1.04855 4.14957 0
M  V30 2135 C 196.571 -2.26543 4.84337 0
M  V30 2136 C 197.871 -0.112324 5.22179 0
M  V30 2137 H 199.565 0.213867 2.98635 0
M  V30 2138 H 197.111 0.104298 1.43622 0
M  V30 2139 H 199.064 -2.1358 3.63265 0
M  V30 2140 H 197.788 -2.22266 2.39302 0
M  V30 2141 H 196.447 -0.487985 3.63338 0
M  V30 2142 H 196.095 -2.92059 4.09525 0
M  V30 2143 H 195.795 -1.93466 5.54837 0
M  V30 2144 H 197.319 -2.85481 5.39753 0
M  V30 2145 H 198.733 -0.603752 5.70112 0
M  V30 2146 H 197.13 0.128968 5.99961 0
M  V30 2147 H 198.2 0.837052 4.77621 0
M  V30 2148 N 199.544 -1.57102 0.125237 0
M  V30 2149 C 200.96 -1.57915 -0.231322 0
M  V30 2150 C 201.16 -1.13833 -1.66266 0
M  V30 2151 O 200.216 -0.828581 -2.38518 0
M  V30 2152 C 201.529 -3.00699 0.00766489 0
M  V30 2153 C 203.077 -3.12947 -0.0577483 0
M  V30 2154 C 203.552 -4.57742 0.153626 0
M  V30 2155 N 205.043 -4.63092 0.0998073 0
M  V30 2156 C 205.778 -5.72905 0.238174 0
M  V30 2157 N 205.274 -6.91445 0.433057 0
M  V30 2158 N 207.067 -5.6182 0.177308 0
M  V30 2159 H 199.218 -1.84055 1.06007 0
M  V30 2160 H 201.481 -0.850905 0.417929 0
M  V30 2161 H 201.187 -3.3726 0.997431 0
M  V30 2162 H 201.061 -3.70236 -0.721452 0
M  V30 2163 H 203.448 -2.7624 -1.03804 0
M  V30 2164 H 203.529 -2.4594 0.70335 0
M  V30 2165 H 203.173 -4.95149 1.13092 0
M  V30 2166 H 203.103 -5.22848 -0.627534 0
M  V30 2167 H 205.594 -3.77871 -0.047051 0
M  V30 2168 H 205.907 -7.70985 0.529332 0
M  V30 2169 H 204.252 -6.93415 0.469109 0
M  V30 2170 H 207.443 -4.68093 0.0259748 0
M  V30 2171 H 207.616 -6.47357 0.288582 0
M  V30 2172 N 201.022 0.148545 -1.56898 0
M  V30 2173 C 201.985 1.16736 -1.97244 0
M  V30 2174 C 202.985 1.35947 -0.858777 0
M  V30 2175 O 204.175 1.32966 -1.12542 0
M  V30 2176 C 201.307 2.52798 -2.28705 0
M  V30 2177 H 202.5 0.821279 -2.88435 0
M  V30 2178 H 200.053 0.391831 -1.51309 0
M  V30 2179 H 200.788 2.92381 -1.403 0
M  V30 2180 H 200.573 2.40216 -3.09901 0
M  V30 2181 H 202.063 3.26179 -2.60762 0
M  V30 2182 N 202.5 1.5196 0.417844 0
M  V30 2183 C 203.463 1.74065 1.49111 0
M  V30 2184 C 204.463 0.610537 1.48758 0
M  V30 2185 O 205.653 0.87832 1.50437 0
M  V30 2186 C 202.785 1.81502 2.88565 0
M  V30 2187 H 203.978 2.69869 1.30807 0
M  V30 2188 H 201.531 1.42244 0.647785 0
M  V30 2189 H 202.266 0.875813 3.1225 0
M  V30 2190 H 202.051 2.63651 2.90225 0
M  V30 2191 H 203.541 2.00376 3.66387 0
M  V30 2192 N 203.978 -0.674533 1.42435 0
M  V30 2193 C 204.908 -1.80009 1.48724 0
M  V30 2194 C 205.889 -1.6659 0.343793 0
M  V30 2195 O 207.074 -1.86007 0.558137 0
M  V30 2196 C 204.204 -3.18306 1.38919 0
M  V30 2197 C 203.158 -3.46461 2.51294 0
M  V30 2198 C 202.484 -4.84335 2.26547 0
M  V30 2199 C 203.784 -3.43328 3.93603 0
M  V30 2200 H 205.478 -1.75004 2.42928 0
M  V30 2201 H 203.024 -0.840533 1.16923 0
M  V30 2202 H 204.977 -3.9678 1.41927 0
M  V30 2203 H 203.701 -3.2399 0.412094 0
M  V30 2204 H 202.36 -2.70348 2.47604 0
M  V30 2205 H 202.008 -4.86669 1.2713 0
M  V30 2206 H 201.708 -5.04136 3.01861 0
M  V30 2207 H 203.232 -5.65094 2.31304 0
M  V30 2208 H 204.646 -4.11772 3.98894 0
M  V30 2209 H 203.043 -3.74664 4.68771 0
M  V30 2210 H 204.113 -2.41897 4.20255 0
M  V30 2211 N 205.456 -1.28612 -0.910864 0
M  V30 2212 C 206.386 -1.15326 -2.03032 0
M  V30 2213 C 207.367 -0.0502924 -1.70026 0
M  V30 2214 O 208.552 -0.227797 -1.92859 0
M  V30 2215 C 205.682 -0.817343 -3.37545 0
M  V30 2216 C 204.636 -1.8754 -3.84724 0
M  V30 2217 C 203.962 -1.39305 -5.16235 0
M  V30 2218 C 205.262 -3.28244 -4.06267 0
M  V30 2219 H 206.956 -2.08975 -2.14406 0
M  V30 2220 H 204.502 -1.00612 -1.03021 0
M  V30 2221 H 206.455 -0.711151 -4.15356 0
M  V30 2222 H 205.179 0.154846 -3.26233 0
M  V30 2223 H 203.838 -1.97079 -3.09121 0
M  V30 2224 H 203.486 -0.409846 -5.01328 0
M  V30 2225 H 203.186 -2.10057 -5.48771 0
M  V30 2226 H 204.71 -1.30014 -5.96598 0
M  V30 2227 H 206.124 -3.21611 -4.74594 0
M  V30 2228 H 204.521 -3.96855 -4.5014 0
M  V30 2229 H 205.591 -3.72048 -3.10979 0
M  V30 2230 N 206.934 1.1197 -1.10907 0
M  V30 2231 C 208.182 1.83225 -0.852819 0
M  V30 2232 C 208.503 1.84769 0.623341 0
M  V30 2233 O 207.773 1.3143 1.45269 0
M  V30 2234 H 206.353 0.67849 -0.312507 0
M  V30 2235 H 209.015 1.3556 -1.40033 0
M  V30 2236 H 208.111 2.87265 -1.22005 0
M  V30 2237 N 208.412 0.89855 1.29475 0
M  V30 2238 C 209.828 0.594483 1.48115 0
M  V30 2239 C 210.028 -0.86431 1.82022 0
M  V30 2240 O 209.084 -1.64457 1.91599 0
M  V30 2241 C 210.397 1.51932 2.59494 0
M  V30 2242 C 211.945 1.5244 2.7337 0
M  V30 2243 C 212.42 2.43548 3.87877 0
M  V30 2244 N 213.911 2.41589 3.95208 0
M  V30 2245 C 214.646 3.08789 4.83153 0
M  V30 2246 N 214.142 3.85265 5.75798 0
M  V30 2247 N 215.935 2.97952 4.76635 0
M  V30 2248 H 208.086 1.84207 1.05742 0
M  V30 2249 H 210.349 0.789251 0.525154 0
M  V30 2250 H 210.055 2.55865 2.41301 0
M  V30 2251 H 209.929 1.23899 3.56271 0
M  V30 2252 H 212.316 0.492518 2.90961 0
M  V30 2253 H 212.397 1.8451 1.77172 0
M  V30 2254 H 212.041 3.46829 3.71041 0
M  V30 2255 H 211.971 2.08788 4.83441 0
M  V30 2256 H 214.462 1.86025 3.28943 0
M  V30 2257 H 214.775 4.33598 6.39697 0
M  V30 2258 H 213.12 3.89371 5.75687 0
M  V30 2259 H 216.311 2.37723 4.03244 0
M  V30 2260 H 216.484 3.50599 5.44962 0
M  V30 2261 N 209.89 -1.43072 0.660911 0
M  V30 2262 C 210.82 -2.33497 -0.0122829 0
M  V30 2263 C 211.801 -1.49903 -0.803925 0
M  V30 2264 O 212.986 -1.78546 -0.763864 0
M  V30 2265 C 210.116 -3.33363 -0.973994 0
M  V30 2266 C 209.07 -4.27003 -0.291928 0
M  V30 2267 C 208.396 -5.16967 -1.36562 0
M  V30 2268 C 209.696 -5.15816 0.820462 0
M  V30 2269 H 211.39 -2.90038 0.742873 0
M  V30 2270 H 208.936 -1.39461 0.358688 0
M  V30 2271 H 210.889 -3.95524 -1.45392 0
M  V30 2272 H 209.613 -2.75095 -1.7604 0
M  V30 2273 H 208.272 -3.66217 0.167623 0
M  V30 2274 H 207.92 -4.55034 -2.14366 0
M  V30 2275 H 207.62 -5.80441 -0.914454 0
M  V30 2276 H 209.144 -5.82003 -1.84675 0
M  V30 2277 H 210.558 -5.71742 0.422366 0
M  V30 2278 H 208.955 -5.8805 1.19656 0
M  V30 2279 H 210.025 -4.55045 1.67518 0
M  V30 2280 N 211.368 -0.403325 -1.52352 0
M  V30 2281 C 212.784 -0.0539281 -1.59509 0
M  V30 2282 C 212.984 1.43307 -1.41652 0
M  V30 2283 O 212.04 2.19924 -1.24056 0
M  V30 2284 C 213.353 -0.543654 -2.95745 0
M  V30 2285 C 214.901 -0.501125 -3.08962 0
M  V30 2286 C 215.376 -0.967267 -4.47669 0
M  V30 2287 N 216.867 -0.923849 -4.53893 0
M  V30 2288 C 217.602 -1.25578 -5.5948 0
M  V30 2289 N 217.098 -1.65889 -6.72646 0
M  V30 2290 N 218.891 -1.17613 -5.49658 0
M  V30 2291 H 211.042 -1.37123 -1.62206 0
M  V30 2292 H 213.305 -0.56294 -0.76276 0
M  V30 2293 H 213.011 -1.58275 -3.14073 0
M  V30 2294 H 212.885 0.0498042 -3.77167 0
M  V30 2295 H 215.272 0.528909 -2.90321 0
M  V30 2296 H 215.353 -1.13056 -2.2946 0
M  V30 2297 H 214.997 -1.9956 -4.67053 0
M  V30 2298 H 214.927 -0.314698 -5.25659 0
M  V30 2299 H 217.418 -0.627403 -3.72655 0
M  V30 2300 H 217.731 -1.89543 -7.49195 0
M  V30 2301 H 216.076 -1.69787 -6.73942 0
M  V30 2302 H 219.267 -0.860115 -4.6013 0
M  V30 2303 H 219.44 -1.43812 -6.3184 0
M  V30 2304 N 212.846 1.57033 -0.133567 0
M  V30 2305 C 214.074 2.00044 0.528195 0
M  V30 2306 C 214.489 1.01349 1.59291 0
M  V30 2307 O 213.846 0.00848369 1.82498 0
M  V30 2308 C 213.897 3.43018 1.1411 0
M  V30 2309 O 213.618 4.37939 0.11892 0
M  V30 2310 C 215.119 4.01237 1.88477 0
M  V30 2311 H 212.339 0.656517 0.138661 0
M  V30 2312 H 214.883 2.03267 -0.224196 0
M  V30 2313 H 213.038 3.40688 1.84418 0
M  V30 2314 H 213.452 5.21436 0.56613 0
M  V30 2315 H 214.926 5.03314 2.26669 0
M  V30 2316 H 215.403 3.41193 2.76558 0
M  V30 2317 H 216.009 4.07156 1.22898 0
M  V30 2318 N 214.325 -0.140222 1.56975 0
M  V30 2319 C 215.255 -1.17456 2.01808 0
M  V30 2320 C 216.236 -1.44415 0.898794 0
M  V30 2321 O 217.421 -1.5522 1.16707 0
M  V30 2322 C 214.551 -2.50607 2.40444 0
M  V30 2323 C 213.505 -2.38155 3.55621 0
M  V30 2324 C 212.831 -3.76078 3.80091 0
M  V30 2325 C 214.131 -1.85991 4.88062 0
M  V30 2326 H 215.825 -0.801743 2.88466 0
M  V30 2327 H 213.371 -0.38422 1.38779 0
M  V30 2328 H 215.324 -3.23197 2.7041 0
M  V30 2329 H 214.048 -2.89737 1.50732 0
M  V30 2330 H 212.707 -1.68016 3.25832 0
M  V30 2331 H 212.355 -4.12656 2.87618 0
M  V30 2332 H 212.055 -3.68606 4.57606 0
M  V30 2333 H 213.579 -4.50206 4.12488 0
M  V30 2334 H 214.993 -2.4838 5.16701 0
M  V30 2335 H 213.39 -1.89393 5.6943 0
M  V30 2336 H 214.46 -0.816023 4.77984 0
M  V30 2337 N 215.803 -1.52179 -0.40978 0
M  V30 2338 C 216.733 -1.78435 -1.5061 0
M  V30 2339 C 217.714 -0.635295 -1.57791 0
M  V30 2340 O 218.899 -0.880823 -1.73076 0
M  V30 2341 C 216.029 -1.93444 -2.88439 0
M  V30 2342 C 214.983 -3.09038 -2.96108 0
M  V30 2343 C 214.309 -3.09268 -4.36185 0
M  V30 2344 C 215.609 -4.48508 -2.67652 0
M  V30 2345 H 217.303 -2.70237 -1.28889 0
M  V30 2346 H 214.849 -1.30036 -0.618605 0
M  V30 2347 H 216.802 -2.10394 -3.65119 0
M  V30 2348 H 215.526 -0.983129 -3.11452 0
M  V30 2349 H 214.185 -2.91837 -2.21872 0
M  V30 2350 H 213.833 -2.11861 -4.56206 0
M  V30 2351 H 213.533 -3.86907 -4.42241 0
M  V30 2352 H 215.057 -3.28348 -5.14801 0
M  V30 2353 H 216.471 -4.65918 -3.34056 0
M  V30 2354 H 214.868 -5.28059 -2.85085 0
M  V30 2355 H 215.938 -4.56649 -1.63095 0
M  V30 2356 N 217.281 0.66697 -1.42791 0
M  V30 2357 C 218.692 1.2478 -1.38877 0
M  V30 2358 C 219.043 1.96012 -0.0859426 0
M  V30 2359 O 218.168 2.00463 0.815081 0
M  V30 2360 C 218.763 2.26938 -2.51564 0
M  V30 2361 C 217.322 2.80529 -2.50959 0
M  V30 2362 C 216.469 1.54965 -2.29959 0
M  V30 2363 H 219.42 0.459853 -1.51892 0
M  V30 2364 H 219.441 3.08834 -2.22265 0
M  V30 2365 H 218.953 1.75065 -3.46372 0
M  V30 2366 H 217.054 3.36502 -1.59991 0
M  V30 2367 H 217.167 3.29012 -3.48265 0
M  V30 2368 H 215.531 1.81817 -1.78366 0
M  V30 2369 H 216.314 1.05047 -3.26833 0
M  V30 2370 N 218.759 1.29093 0.90403 0
M  V30 2371 C 220.005 1.17996 1.65676 0
M  V30 2372 C 220.36 -0.266816 1.90541 0
M  V30 2373 O 219.653 -1.19 1.50165 0
M  V30 2374 C 219.847 1.92224 3.01305 0
M  V30 2375 C 219.676 3.43972 2.89678 0
M  V30 2376 C 218.446 4.1332 2.90679 0
M  V30 2377 C 220.644 4.39546 2.67028 0
M  V30 2378 N 218.626 5.51463 2.69743 0
M  V30 2379 C 219.997 5.65119 2.5503 0
M  V30 2380 C 222.052 4.29359 2.52101 0
M  V30 2381 C 220.755 6.81663 2.29626 0
M  V30 2382 C 222.781 5.4565 2.28079 0
M  V30 2383 C 222.143 6.70193 2.16843 0
M  V30 2384 H 218.242 0.486759 0.612037 0
M  V30 2385 H 220.826 1.62868 1.06688 0
M  V30 2386 H 218.997 1.49773 3.58361 0
M  V30 2387 H 220.729 1.73429 3.65656 0
M  V30 2388 H 217.484 3.64984 3.01801 0
M  V30 2389 H 217.908 6.24105 2.6234 0
M  V30 2390 H 222.55 3.33769 2.59534 0
M  V30 2391 H 220.268 7.77313 2.20932 0
M  V30 2392 H 223.854 5.39664 2.1738 0
M  V30 2393 H 222.734 7.58659 1.98511 0
M  V30 2394 N 220.237 -1.11381 1.11499 0
M  V30 2395 C 221.2 -2.15622 0.777153 0
M  V30 2396 C 222.2 -1.59504 -0.203779 0
M  V30 2397 O 223.39 -1.74188 0.020782 0
M  V30 2398 C 220.522 -3.40556 0.153116 0
M  V30 2399 H 221.715 -2.47021 1.70061 0
M  V30 2400 H 219.268 -1.26577 0.916952 0
M  V30 2401 H 220.003 -3.14767 -0.780536 0
M  V30 2402 H 219.788 -3.8257 0.859238 0
M  V30 2403 H 221.278 -4.17546 -0.0671044 0
M  V30 2404 O 221.754 -1.0376 -1.23758 0
M  V30 2405 H 222.445 -0.707174 -1.8033 0
M  V30 END ATOM
M  V30 BEGIN BOND
M  V30 END BOND
M  V30 END CTAB
M  END
$$$$
