drugbank_target|Q18BX5 RNA polymerase sigma factor SigA (DB08874)
 OpenBabel12092120583D

  0  0  0     0  0            999 V3000
M  V30 BEGIN CTAB
M  V30 COUNTS 8434 8982 0 0 0
M  V30 BEGIN ATOM
M  V30 1 H -2.588 8.49073 -0.0679273 0
M  V30 2 O -1.492 9.37262 0.0843559 0
M  V30 3 P 0 8.791 0 0
M  V30 4 O 1.422 9.31096 0.027933 0
M  V30 5 O -0.36 7.77869 -1.04071 0
M  V30 6 O -0.323 8.09533 1.41463 0
M  V30 7 C -0.483 9.0349 2.53943 0
M  V30 8 C 0.057 8.35226 3.79016 0
M  V30 9 O -0.999 7.57992 4.15078 0
M  V30 10 C 1.275 7.45087 3.67298 0
M  V30 11 O 2.013 7.27796 4.85194 0
M  V30 12 C 0.606 6.17323 3.12027 0
M  V30 13 O 1.405 5.04231 3.47188 0
M  V30 14 C -0.731 6.19961 3.81809 0
M  V30 15 H -0.699 5.58218 4.73051 0
M  V30 16 H 0.484 6.21726 2.02589 0
M  V30 17 H 1.968 7.86112 2.9231 0
M  V30 18 H 0.274 9.11627 4.55076 0
M  V30 19 H 0.084 9.9573 2.34194 0
M  V30 20 H -1.546 9.2792 2.67832 0
M  V30 21 H 1.093 4.67702 4.28772 0
M  V30 22 P 2.95057 7.39546 4.75277 0
M  V30 23 O 4.37257 7.81777 5.05738 0
M  V30 24 O 2.59057 7.1065 3.32998 0
M  V30 25 O 2.62757 6.04542 5.56673 0
M  V30 26 C 2.46757 6.22772 7.02095 0
M  V30 27 C 3.00757 4.97725 7.70406 0
M  V30 28 O 1.95157 4.13256 7.58987 0
M  V30 29 C 4.22557 4.28231 7.11815 0
M  V30 30 O 4.96357 3.49945 8.01648 0
M  V30 31 C 3.55657 3.5063 5.96244 0
M  V30 32 O 4.35557 2.36482 5.64681 0
M  V30 33 C 2.21957 3.15122 6.56374 0
M  V30 34 H 2.25157 2.13853 6.99751 0
M  V30 35 H 3.43457 4.13501 5.06559 0
M  V30 36 H 4.91857 5.03285 6.70911 0
M  V30 37 H 3.22457 5.20877 8.75697 0
M  V30 38 H 3.03457 7.11046 7.35349 0
M  V30 39 H 1.40457 6.35815 7.26986 0
M  V30 40 H 4.04357 1.61644 6.13565 0
M  V30 41 P 5.90114 3.65191 7.99657 0
M  V30 42 O 7.32314 3.8425 8.48115 0
M  V30 43 O 5.54114 4.17805 6.64342 0
M  V30 44 O 5.57814 2.07613 7.95143 0
M  V30 45 C 5.41814 1.44328 9.27336 0
M  V30 46 C 5.95814 0.0220036 9.17197 0
M  V30 47 O 4.90214 -0.626867 8.61923 0
M  V30 48 C 7.17614 -0.24586 8.30336 0
M  V30 49 O 7.91414 -1.39011 8.63583 0
M  V30 50 C 6.50714 -0.273849 6.91158 0
M  V30 51 O 7.30614 -1.06348 6.02892 0
M  V30 52 C 5.17014 -0.897649 7.22545 0
M  V30 53 H 5.20214 -1.9841 7.04286 0
M  V30 54 H 6.38514 0.739928 6.497 0
M  V30 55 H 7.86914 0.60668 8.36503 0
M  V30 56 H 6.17514 -0.352479 10.1829 0
M  V30 57 H 5.98514 2.00611 10.0304 0
M  V30 58 H 4.35514 1.41843 9.55327 0
M  V30 59 H 6.99414 -1.95734 6.03555 0
M  V30 60 P 8.85171 -1.25109 8.70152 0
M  V30 61 O 10.2737 -1.35274 9.21221 0
M  V30 62 O 8.49171 -0.0769065 7.84762 0
M  V30 63 O 8.52871 -2.55232 7.81161 0
M  V30 64 C 8.36871 -3.79939 8.58154 0
M  V30 65 C 8.90871 -4.94023 7.72785 0
M  V30 66 O 7.85271 -5.18726 6.91205 0
M  V30 67 C 10.1267 -4.69597 6.85231 0
M  V30 68 O 10.8647 -5.83832 6.51337 0
M  V30 69 C 9.45771 -3.96706 5.66633 0
M  V30 70 O 10.2567 -4.15414 4.49689 0
M  V30 71 C 8.12071 -4.66153 5.59313 0
M  V30 72 H 8.15271 -5.47679 4.85214 0
M  V30 73 H 9.33571 -2.89008 5.86566 0
M  V30 74 H 10.8197 -4.0121 7.36511 0
M  V30 75 H 9.12571 -5.80182 8.37584 0
M  V30 76 H 8.93571 -3.73517 9.52265 0
M  V30 77 H 7.30571 -3.97163 8.80359 0
M  V30 78 H 9.94471 -4.90969 4.01921 0
M  V30 79 P 11.8023 -5.75688 6.64379 0
M  V30 80 O 13.2243 -6.11849 7.01846 0
M  V30 81 O 11.4423 -4.30744 6.56026 0
M  V30 82 O 11.4793 -6.37042 5.19165 0
M  V30 83 C 11.3193 -7.83578 5.16515 0
M  V30 84 C 11.8593 -8.33398 3.83019 0
M  V30 85 O 10.8033 -8.10074 3.01034 0
M  V30 86 C 13.0773 -7.65514 3.2257 0
M  V30 87 O 13.8153 -8.4329 2.32297 0
M  V30 88 C 12.4083 -6.40075 2.62207 0
M  V30 89 O 13.2073 -5.92589 1.53712 0
M  V30 90 C 11.0713 -6.9454 2.18503 0
M  V30 91 H 11.1033 -7.23063 1.12091 0
M  V30 92 H 12.2863 -5.6025 3.37201 0
M  V30 93 H 13.7703 -7.35707 4.02681 0
M  V30 94 H 12.0763 -9.40912 3.9095 0
M  V30 95 H 11.8863 -8.29056 5.99158 0
M  V30 96 H 10.2563 -8.10073 5.25882 0
M  V30 97 H 12.8953 -6.30324 0.726794 0
M  V30 98 P 14.7528 -8.4349 2.47671 0
M  V30 99 O 16.1748 -8.94167 2.5964 0
M  V30 100 O 14.3928 -7.1704 3.19006 0
M  V30 101 O 14.4298 -8.16596 0.923387 0
M  V30 102 C 14.2698 -9.38437 0.108857 0
M  V30 103 C 14.8098 -9.08175 -1.28353 0
M  V30 104 O 13.7538 -8.44229 -1.84713 0
M  V30 105 C 16.0278 -8.18386 -1.42505 0
M  V30 106 O 16.7659 -8.3501 -2.60497 0
M  V30 107 C 15.3588 -6.80225 -1.25468 0
M  V30 108 O 16.1578 -5.81621 -1.91066 0
M  V30 109 C 14.0218 -7.02416 -1.9168 0
M  V30 110 H 14.0538 -6.6888 -2.96621 0
M  V30 111 H 15.2368 -6.53617 -0.192223 0
M  V30 112 H 16.7208 -8.36622 -0.589963 0
M  V30 113 H 15.0268 -10.0291 -1.79807 0
M  V30 114 H 14.8368 -10.2138 0.558219 0
M  V30 115 H 13.2068 -9.6579 0.0444202 0
M  V30 116 H 15.8458 -5.69556 -2.79637 0
M  V30 117 P 17.7034 -8.4349 -2.47671 0
M  V30 118 O 19.1254 -8.92593 -2.65 0
M  V30 119 O 17.3434 -7.7568 -1.19296 0
M  V30 120 O 17.3804 -7.36886 -3.63805 0
M  V30 121 C 17.2204 -7.95349 -4.982 0
M  V30 122 C 17.7604 -6.94612 -5.98974 0
M  V30 123 O 16.7044 -6.10347 -6.11815 0
M  V30 124 C 18.9784 -6.11426 -5.62335 0
M  V30 125 O 19.7164 -5.6162 -6.70584 0
M  V30 126 C 18.3094 -5.04409 -4.73308 0
M  V30 127 O 19.1084 -3.85992 -4.75183 0
M  V30 128 C 16.9724 -4.8728 -5.41006 0
M  V30 129 H 17.0044 -4.02333 -6.11157 0
M  V30 130 H 18.1874 -5.39466 -3.69543 0
M  V30 131 H 19.6714 -6.71916 -5.01943 0
M  V30 132 H 17.9774 -7.4649 -6.93477 0
M  V30 133 H 17.7874 -8.89416 -5.05237 0
M  V30 134 H 16.1574 -8.14876 -5.18409 0
M  V30 135 H 18.7964 -3.27957 -5.4317 0
M  V30 136 P 20.654 -5.75688 -6.64379 0
M  V30 137 O 22.076 -6.07627 -7.05504 0
M  V30 138 O 20.294 -5.88047 -5.19722 0
M  V30 139 O 20.331 -4.2322 -7.04443 0
M  V30 140 C 20.171 -3.99743 -8.4911 0
M  V30 141 C 20.711 -2.60516 -8.79425 0
M  V30 142 O 19.655 -1.82684 -8.4467 0
M  V30 143 C 21.929 -2.10343 -8.03628 0
M  V30 144 O 22.667 -1.09919 -8.67766 0
M  V30 145 C 21.26 -1.68446 -6.70876 0
M  V30 146 O 22.059 -0.678137 -6.08433 0
M  V30 147 C 19.923 -1.17436 -7.18567 0
M  V30 148 H 19.955 -0.0804732 -7.31656 0
M  V30 149 H 21.138 -2.54037 -6.02537 0
M  V30 150 H 22.622 -2.93881 -7.85526 0
M  V30 151 H 20.928 -2.53065 -9.86973 0
M  V30 152 H 20.738 -4.75072 -9.05887 0
M  V30 153 H 19.108 -4.05244 -8.76668 0
M  V30 154 H 21.747 0.177647 -6.34251 0
M  V30 155 P 23.6046 -1.25109 -8.70152 0
M  V30 156 O 25.0266 -1.29744 -9.22016 0
M  V30 157 O 23.2446 -2.13714 -7.55141 0
M  V30 158 O 23.2816 0.248149 -8.21425 0
M  V30 159 C 23.1216 1.22779 -9.30434 0
M  V30 160 C 23.6616 2.56293 -8.80664 0
M  V30 161 O 22.6056 3.02979 -8.09349 0
M  V30 162 C 24.8796 2.57523 -7.89775 0
M  V30 163 O 25.6176 3.7668 -7.89438 0
M  V30 164 C 24.2106 2.20997 -6.55446 0
M  V30 165 O 25.0096 2.71895 -5.48509 0
M  V30 166 C 22.8736 2.89693 -6.67988 0
M  V30 167 H 22.9056 3.88793 -6.19859 0
M  V30 168 H 24.0886 1.12046 -6.44229 0
M  V30 169 H 25.5726 1.7746 -8.19711 0
M  V30 170 H 23.8786 3.20706 -9.67112 0
M  V30 171 H 23.6886 0.901032 -10.1892 0
M  V30 172 H 22.0586 1.33049 -9.56592 0
M  V30 173 H 24.6976 3.57847 -5.23962 0
M  V30 174 P 26.5551 3.65191 -7.99657 0
M  V30 175 O 27.9771 3.89332 -8.45794 0
M  V30 176 O 26.1951 2.28472 -7.50807 0
M  V30 177 O 26.2321 4.64972 -6.77611 0
M  V30 178 C 26.0721 6.06319 -7.16352 0
M  V30 179 C 26.6121 6.91731 -6.02299 0
M  V30 180 O 25.5561 6.92449 -5.17064 0
M  V30 181 C 27.8301 6.43627 -5.25174 0
M  V30 182 O 28.5681 7.43686 -4.60469 0
M  V30 183 C 27.1611 5.40275 -4.31916 0
M  V30 184 O 27.9601 5.25279 -3.14438 0
M  V30 185 C 25.8241 6.04847 -4.05327 0
M  V30 186 H 25.8561 6.62195 -3.11261 0
M  V30 187 H 27.0391 4.42556 -4.81383 0
M  V30 188 H 28.5231 5.92458 -5.93643 0
M  V30 189 H 26.8291 7.92655 -6.402 0
M  V30 190 H 26.6391 6.26671 -8.0846 0
M  V30 191 H 25.0091 6.29101 -7.32804 0
M  V30 192 H 27.6481 5.84315 -2.47318 0
M  V30 193 P 29.5057 7.39546 -4.75277 0
M  V30 194 O 30.9277 7.84798 -5.01039 0
M  V30 195 O 29.1457 5.9812 -5.08098 0
M  V30 196 O 29.1827 7.57503 -3.1866 0
M  V30 197 C 29.0227 8.97357 -2.74833 0
M  V30 198 C 29.5627 9.07548 -1.32709 0
M  V30 199 O 28.5067 8.62072 -0.606159 0
M  V30 200 C 30.7807 8.25383 -0.938334 0
M  V30 201 O 31.5187 8.74577 0.146954 0
M  V30 202 C 30.1117 6.8802 -0.712559 0
M  V30 203 O 30.9107 6.1189 0.194655 0
M  V30 204 C 28.7747 7.27966 -0.139777 0
M  V30 205 H 28.8067 7.25354 0.961601 0
M  V30 206 H 29.9897 6.32557 -1.65702 0
M  V30 207 H 31.4737 8.19355 -1.79097 0
M  V30 208 H 29.7797 10.1294 -1.10029 0
M  V30 209 H 29.5897 9.64276 -3.41316 0
M  V30 210 H 27.9597 9.25417 -2.76357 0
M  V30 211 H 30.5987 6.25267 1.07847 0
M  V30 212 P 32.4563 8.791 -9.96115e-15 0
M  V30 213 O 33.8783 9.31096 0.027933 0
M  V30 214 O 32.0963 7.77869 -1.04071 0
M  V30 215 O 32.1333 8.09533 1.41463 0
M  V30 216 C 31.9733 9.0349 2.53943 0
M  V30 217 C 32.5133 8.35226 3.79016 0
M  V30 218 O 31.4573 7.57992 4.15078 0
M  V30 219 C 33.7313 7.45087 3.67298 0
M  V30 220 O 34.4693 7.27796 4.85194 0
M  V30 221 C 33.0623 6.17323 3.12027 0
M  V30 222 O 33.8613 5.04231 3.47188 0
M  V30 223 C 31.7253 6.19961 3.81809 0
M  V30 224 H 31.7573 5.58218 4.73051 0
M  V30 225 H 32.9403 6.21726 2.02589 0
M  V30 226 H 34.4243 7.86112 2.9231 0
M  V30 227 H 32.7303 9.11627 4.55076 0
M  V30 228 H 32.5403 9.9573 2.34194 0
M  V30 229 H 30.9103 9.2792 2.67832 0
M  V30 230 H 33.5493 4.67702 4.28772 0
M  V30 231 P 35.4068 7.39546 4.75277 0
M  V30 232 O 36.8288 7.81777 5.05738 0
M  V30 233 O 35.0468 7.1065 3.32998 0
M  V30 234 O 35.0838 6.04542 5.56673 0
M  V30 235 C 34.9238 6.22772 7.02095 0
M  V30 236 C 35.4638 4.97725 7.70406 0
M  V30 237 O 34.4078 4.13256 7.58987 0
M  V30 238 C 36.6818 4.28231 7.11815 0
M  V30 239 O 37.4198 3.49945 8.01648 0
M  V30 240 C 36.0128 3.5063 5.96244 0
M  V30 241 O 36.8118 2.36482 5.64681 0
M  V30 242 C 34.6758 3.15122 6.56374 0
M  V30 243 H 34.7078 2.13853 6.99751 0
M  V30 244 H 35.8908 4.13501 5.06559 0
M  V30 245 H 37.3748 5.03285 6.70911 0
M  V30 246 H 35.6808 5.20877 8.75697 0
M  V30 247 H 35.4908 7.11046 7.35349 0
M  V30 248 H 33.8608 6.35815 7.26986 0
M  V30 249 H 36.4998 1.61644 6.13565 0
M  V30 250 P 38.3574 3.65191 7.99657 0
M  V30 251 O 39.7794 3.8425 8.48115 0
M  V30 252 O 37.9974 4.17805 6.64342 0
M  V30 253 O 38.0344 2.07613 7.95143 0
M  V30 254 C 37.8744 1.44328 9.27336 0
M  V30 255 C 38.4144 0.0220036 9.17197 0
M  V30 256 O 37.3584 -0.626867 8.61923 0
M  V30 257 C 39.6324 -0.24586 8.30336 0
M  V30 258 O 40.3704 -1.39011 8.63583 0
M  V30 259 C 38.9634 -0.273849 6.91158 0
M  V30 260 O 39.7624 -1.06348 6.02892 0
M  V30 261 C 37.6264 -0.897649 7.22545 0
M  V30 262 H 37.6584 -1.9841 7.04286 0
M  V30 263 H 38.8414 0.739928 6.497 0
M  V30 264 H 40.3254 0.60668 8.36503 0
M  V30 265 H 38.6314 -0.352479 10.1829 0
M  V30 266 H 38.4414 2.00611 10.0304 0
M  V30 267 H 36.8114 1.41843 9.55327 0
M  V30 268 H 39.4504 -1.95734 6.03555 0
M  V30 269 P 41.308 -1.25109 8.70152 0
M  V30 270 O 42.73 -1.35274 9.21221 0
M  V30 271 O 40.948 -0.0769065 7.84762 0
M  V30 272 O 40.985 -2.55232 7.81161 0
M  V30 273 C 40.825 -3.79939 8.58154 0
M  V30 274 C 41.365 -4.94023 7.72785 0
M  V30 275 O 40.309 -5.18726 6.91205 0
M  V30 276 C 42.583 -4.69597 6.85231 0
M  V30 277 O 43.321 -5.83832 6.51337 0
M  V30 278 C 41.914 -3.96706 5.66633 0
M  V30 279 O 42.713 -4.15414 4.49689 0
M  V30 280 C 40.577 -4.66153 5.59313 0
M  V30 281 H 40.609 -5.47679 4.85214 0
M  V30 282 H 41.792 -2.89008 5.86566 0
M  V30 283 H 43.276 -4.0121 7.36511 0
M  V30 284 H 41.582 -5.80182 8.37584 0
M  V30 285 H 41.392 -3.73517 9.52265 0
M  V30 286 H 39.762 -3.97163 8.80359 0
M  V30 287 H 42.401 -4.90969 4.01921 0
M  V30 288 P 44.2585 -5.75688 6.64379 0
M  V30 289 O 45.6805 -6.11849 7.01846 0
M  V30 290 O 43.8985 -4.30744 6.56026 0
M  V30 291 O 43.9355 -6.37042 5.19165 0
M  V30 292 C 43.7755 -7.83578 5.16515 0
M  V30 293 C 44.3155 -8.33398 3.83019 0
M  V30 294 O 43.2595 -8.10074 3.01034 0
M  V30 295 C 45.5335 -7.65514 3.2257 0
M  V30 296 O 46.2715 -8.4329 2.32297 0
M  V30 297 C 44.8645 -6.40075 2.62207 0
M  V30 298 O 45.6635 -5.92589 1.53712 0
M  V30 299 C 43.5275 -6.9454 2.18503 0
M  V30 300 H 43.5595 -7.23063 1.12091 0
M  V30 301 H 44.7425 -5.6025 3.37201 0
M  V30 302 H 46.2265 -7.35707 4.02681 0
M  V30 303 H 44.5325 -9.40912 3.9095 0
M  V30 304 H 44.3425 -8.29056 5.99158 0
M  V30 305 H 42.7125 -8.10073 5.25882 0
M  V30 306 H 45.3515 -6.30324 0.726794 0
M  V30 307 P 47.2091 -8.4349 2.47671 0
M  V30 308 O 48.6301 -8.94263 2.59668 0
M  V30 309 O 46.8491 -7.1704 3.19006 0
M  V30 310 O 46.8861 -8.16596 0.923387 0
M  V30 311 C 46.7251 -9.38537 0.108869 0
M  V30 312 C 47.2661 -9.08175 -1.28353 0
M  V30 313 O 46.2111 -8.44131 -1.84692 0
M  V30 314 C 48.4841 -8.18386 -1.42505 0
M  V30 315 O 49.2221 -8.3501 -2.60497 0
M  V30 316 C 47.8161 -6.80225 -1.25468 0
M  V30 317 O 48.6141 -5.81716 -1.90454 0
M  V30 318 C 46.4781 -7.02416 -1.9168 0
M  V30 319 N 45.4351 -6.31033 -1.20314 0
M  V30 320 C 45.6041 -5.98817 0.0994088 0
M  V30 321 N 44.5771 -5.35403 0.621694 0
M  V30 322 C 43.6921 -5.25212 -0.43376 0
M  V30 323 C 42.4251 -4.64602 -0.519722 0
M  V30 324 N 41.8261 -4.01457 0.519136 0
M  V30 325 N 41.8601 -4.7568 -1.76013 0
M  V30 326 C 42.4621 -5.3653 -2.83017 0
M  V30 327 N 43.6391 -5.93676 -2.79782 0
M  V30 328 C 44.2141 -5.84061 -1.56249 0
M  V30 329 H 46.5101 -6.68789 -2.9658 0
M  V30 330 H 47.6931 -6.53498 -0.198729 0
M  V30 331 H 49.1761 -8.36622 -0.589963 0
M  V30 332 H 47.4821 -10.0273 -1.8081 0
M  V30 333 H 47.2921 -10.2138 0.558219 0
M  V30 334 H 45.6621 -9.6579 0.0444202 0
M  V30 335 H 41.9261 -5.37113 -3.77321 0
M  V30 336 H 46.5041 -6.23209 0.660562 0
M  V30 337 H 40.8961 -3.58834 0.394862 0
M  V30 338 H 42.3001 -3.96059 1.43048 0
M  V30 339 H 48.3021 -5.69466 -2.79593 0
M  V30 340 P 50.1597 -8.4349 -2.47671 0
M  V30 341 O 51.5817 -8.92593 -2.65 0
M  V30 342 O 49.7997 -7.7568 -1.19296 0
M  V30 343 O 49.8367 -7.36886 -3.63805 0
M  V30 344 C 49.6767 -7.95349 -4.982 0
M  V30 345 C 50.2167 -6.94612 -5.98974 0
M  V30 346 O 49.1607 -6.10347 -6.11815 0
M  V30 347 C 51.4347 -6.11426 -5.62335 0
M  V30 348 O 52.1727 -5.6162 -6.70584 0
M  V30 349 C 50.7657 -5.04409 -4.73308 0
M  V30 350 O 51.5647 -3.85992 -4.75183 0
M  V30 351 C 49.4287 -4.8728 -5.41006 0
M  V30 352 H 49.4607 -4.02333 -6.11157 0
M  V30 353 H 50.6437 -5.39466 -3.69543 0
M  V30 354 H 52.1277 -6.71916 -5.01943 0
M  V30 355 H 50.4337 -7.4649 -6.93477 0
M  V30 356 H 50.2437 -8.89416 -5.05237 0
M  V30 357 H 48.6137 -8.14876 -5.18409 0
M  V30 358 H 51.2527 -3.27957 -5.4317 0
M  V30 359 P 53.1103 -5.75688 -6.64379 0
M  V30 360 O 54.5323 -6.07627 -7.05504 0
M  V30 361 O 52.7503 -5.88047 -5.19722 0
M  V30 362 O 52.7873 -4.2322 -7.04443 0
M  V30 363 C 52.6273 -3.99743 -8.4911 0
M  V30 364 C 53.1673 -2.60516 -8.79425 0
M  V30 365 O 52.1113 -1.82684 -8.4467 0
M  V30 366 C 54.3853 -2.10343 -8.03628 0
M  V30 367 O 55.1233 -1.09919 -8.67766 0
M  V30 368 C 53.7163 -1.68446 -6.70876 0
M  V30 369 O 54.5153 -0.678137 -6.08433 0
M  V30 370 C 52.3793 -1.17436 -7.18567 0
M  V30 371 H 52.4113 -0.0804732 -7.31656 0
M  V30 372 H 53.5943 -2.54037 -6.02537 0
M  V30 373 H 55.0783 -2.93881 -7.85526 0
M  V30 374 H 53.3843 -2.53065 -9.86973 0
M  V30 375 H 53.1943 -4.75072 -9.05887 0
M  V30 376 H 51.5643 -4.05244 -8.76668 0
M  V30 377 H 54.2033 0.177647 -6.34251 0
M  V30 378 P 56.0608 -1.25109 -8.70152 0
M  V30 379 O 57.4828 -1.29744 -9.22016 0
M  V30 380 O 55.7008 -2.13714 -7.55141 0
M  V30 381 O 55.7378 0.248149 -8.21425 0
M  V30 382 C 55.5778 1.22779 -9.30434 0
M  V30 383 C 56.1178 2.56293 -8.80664 0
M  V30 384 O 55.0618 3.02979 -8.09349 0
M  V30 385 C 57.3358 2.57523 -7.89775 0
M  V30 386 O 58.0738 3.7668 -7.89438 0
M  V30 387 C 56.6668 2.20997 -6.55446 0
M  V30 388 O 57.4658 2.71895 -5.48509 0
M  V30 389 C 55.3298 2.89693 -6.67988 0
M  V30 390 H 55.3618 3.88793 -6.19859 0
M  V30 391 H 56.5448 1.12046 -6.44229 0
M  V30 392 H 58.0288 1.7746 -8.19711 0
M  V30 393 H 56.3348 3.20706 -9.67112 0
M  V30 394 H 56.1448 0.901032 -10.1892 0
M  V30 395 H 54.5148 1.33049 -9.56592 0
M  V30 396 H 57.1538 3.57847 -5.23962 0
M  V30 397 P 59.0114 3.65191 -7.99657 0
M  V30 398 O 60.4334 3.89332 -8.45794 0
M  V30 399 O 58.6514 2.28472 -7.50807 0
M  V30 400 O 58.6884 4.64972 -6.77611 0
M  V30 401 C 58.5284 6.06319 -7.16352 0
M  V30 402 C 59.0684 6.91731 -6.02299 0
M  V30 403 O 58.0124 6.92449 -5.17064 0
M  V30 404 C 60.2864 6.43627 -5.25174 0
M  V30 405 O 61.0244 7.43686 -4.60469 0
M  V30 406 C 59.6174 5.40275 -4.31916 0
M  V30 407 O 60.4164 5.25279 -3.14438 0
M  V30 408 C 58.2804 6.04847 -4.05327 0
M  V30 409 H 58.3124 6.62195 -3.11261 0
M  V30 410 H 59.4954 4.42556 -4.81383 0
M  V30 411 H 60.9794 5.92458 -5.93643 0
M  V30 412 H 59.2854 7.92655 -6.402 0
M  V30 413 H 59.0954 6.26671 -8.0846 0
M  V30 414 H 57.4654 6.29101 -7.32804 0
M  V30 415 H 60.1044 5.84315 -2.47318 0
M  V30 416 P 61.962 7.39546 -4.75277 0
M  V30 417 O 63.384 7.84798 -5.01039 0
M  V30 418 O 61.602 5.9812 -5.08098 0
M  V30 419 O 61.639 7.57503 -3.1866 0
M  V30 420 C 61.479 8.97357 -2.74833 0
M  V30 421 C 62.019 9.07548 -1.32709 0
M  V30 422 O 60.963 8.62072 -0.606159 0
M  V30 423 C 63.237 8.25383 -0.938334 0
M  V30 424 O 63.975 8.74577 0.146954 0
M  V30 425 C 62.568 6.8802 -0.712559 0
M  V30 426 O 63.367 6.1189 0.194655 0
M  V30 427 C 61.231 7.27966 -0.139777 0
M  V30 428 H 61.263 7.25354 0.961601 0
M  V30 429 H 62.446 6.32557 -1.65702 0
M  V30 430 H 63.93 8.19355 -1.79097 0
M  V30 431 H 62.236 10.1294 -1.10029 0
M  V30 432 H 62.046 9.64276 -3.41316 0
M  V30 433 H 60.416 9.25417 -2.76357 0
M  V30 434 H 63.055 6.25267 1.07847 0
M  V30 435 P 64.9125 8.791 -3.55383e-14 0
M  V30 436 O 66.3345 9.31096 0.027933 0
M  V30 437 O 64.5525 7.77869 -1.04071 0
M  V30 438 O 64.5895 8.09533 1.41463 0
M  V30 439 C 64.4295 9.0349 2.53943 0
M  V30 440 C 64.9695 8.35226 3.79016 0
M  V30 441 O 63.9135 7.57992 4.15078 0
M  V30 442 C 66.1875 7.45087 3.67298 0
M  V30 443 O 66.9255 7.27796 4.85194 0
M  V30 444 C 65.5185 6.17323 3.12027 0
M  V30 445 O 66.3175 5.04231 3.47188 0
M  V30 446 C 64.1815 6.19961 3.81809 0
M  V30 447 H 64.2135 5.58218 4.73051 0
M  V30 448 H 65.3965 6.21726 2.02589 0
M  V30 449 H 66.8805 7.86112 2.9231 0
M  V30 450 H 65.1865 9.11627 4.55076 0
M  V30 451 H 64.9965 9.9573 2.34194 0
M  V30 452 H 63.3665 9.2792 2.67832 0
M  V30 453 H 66.0055 4.67702 4.28772 0
M  V30 454 P 67.8631 7.39546 4.75277 0
M  V30 455 O 69.2851 7.81945 5.05847 0
M  V30 456 O 67.5031 7.1065 3.32998 0
M  V30 457 O 67.5401 6.04542 5.56673 0
M  V30 458 C 67.3801 6.22772 7.02095 0
M  V30 459 C 67.9201 4.97671 7.70322 0
M  V30 460 O 66.8651 4.13256 7.58987 0
M  V30 461 C 69.1381 4.28231 7.11815 0
M  V30 462 O 69.8761 3.49945 8.01648 0
M  V30 463 C 68.4701 3.5063 5.96244 0
M  V30 464 O 69.2681 2.36443 5.64589 0
M  V30 465 C 67.1321 3.15122 6.56374 0
M  V30 466 N 66.0891 3.22311 5.55692 0
M  V30 467 C 66.1511 4.14382 4.59701 0
M  V30 468 N 65.1061 4.04476 3.76958 0
M  V30 469 C 64.3721 3.04892 4.26534 0
M  V30 470 C 63.0661 2.57447 3.88189 0
M  V30 471 O 62.3331 2.9785 2.96543 0
M  V30 472 N 62.6361 1.55228 4.65922 0
M  V30 473 C 63.3851 1.01152 5.73447 0
M  V30 474 N 62.7881 -0.0472117 6.37783 0
M  V30 475 N 64.5381 1.467 6.13813 0
M  V30 476 C 64.9951 2.4931 5.38487 0
M  V30 477 H 67.1641 2.13853 6.99751 0
M  V30 478 H 68.3471 4.13438 5.06482 0
M  V30 479 H 69.8321 5.02614 6.71414 0
M  V30 480 H 68.1371 5.20877 8.75697 0
M  V30 481 H 67.9471 7.11046 7.35349 0
M  V30 482 H 66.3161 6.35815 7.26986 0
M  V30 483 H 61.7401 1.15238 4.46468 0
M  V30 484 H 66.9471 4.88312 4.49647 0
M  V30 485 H 61.8771 -0.396382 6.05203 0
M  V30 486 H 63.2531 -0.484997 7.18465 0
M  V30 487 H 68.9571 1.61619 6.13468 0
M  V30 488 P 70.8137 3.65191 7.99657 0
M  V30 489 O 72.2357 3.8425 8.48115 0
M  V30 490 O 70.4537 4.17805 6.64342 0
M  V30 491 O 70.4907 2.07613 7.95143 0
M  V30 492 C 70.3307 1.44328 9.27336 0
M  V30 493 C 70.8707 0.0220036 9.17197 0
M  V30 494 O 69.8147 -0.626867 8.61923 0
M  V30 495 C 72.0887 -0.24586 8.30336 0
M  V30 496 O 72.8267 -1.39011 8.63583 0
M  V30 497 C 71.4197 -0.273849 6.91158 0
M  V30 498 O 72.2187 -1.06348 6.02892 0
M  V30 499 C 70.0827 -0.897649 7.22545 0
M  V30 500 H 70.1147 -1.9841 7.04286 0
M  V30 501 H 71.2977 0.739928 6.497 0
M  V30 502 H 72.7817 0.60668 8.36503 0
M  V30 503 H 71.0877 -0.352479 10.1829 0
M  V30 504 H 70.8977 2.00611 10.0304 0
M  V30 505 H 69.2677 1.41843 9.55327 0
M  V30 506 H 71.9067 -1.95734 6.03555 0
M  V30 507 P 73.7642 -1.25109 8.70152 0
M  V30 508 O 75.1862 -1.35274 9.21221 0
M  V30 509 O 73.4042 -0.0769065 7.84762 0
M  V30 510 O 73.4412 -2.55232 7.81161 0
M  V30 511 C 73.2812 -3.79939 8.58154 0
M  V30 512 C 73.8212 -4.94023 7.72785 0
M  V30 513 O 72.7652 -5.18726 6.91205 0
M  V30 514 C 75.0392 -4.69597 6.85231 0
M  V30 515 O 75.7772 -5.83832 6.51337 0
M  V30 516 C 74.3702 -3.96706 5.66633 0
M  V30 517 O 75.1692 -4.15414 4.49689 0
M  V30 518 C 73.0332 -4.66153 5.59313 0
M  V30 519 H 73.0652 -5.47679 4.85214 0
M  V30 520 H 74.2482 -2.89008 5.86566 0
M  V30 521 H 75.7322 -4.0121 7.36511 0
M  V30 522 H 74.0382 -5.80182 8.37584 0
M  V30 523 H 73.8482 -3.73517 9.52265 0
M  V30 524 H 72.2182 -3.97163 8.80359 0
M  V30 525 H 74.8572 -4.90969 4.01921 0
M  V30 526 P 76.7148 -5.75688 6.64379 0
M  V30 527 O 78.1368 -6.11849 7.01846 0
M  V30 528 O 76.3548 -4.30744 6.56026 0
M  V30 529 O 76.3918 -6.37042 5.19165 0
M  V30 530 C 76.2318 -7.83578 5.16515 0
M  V30 531 C 76.7718 -8.33398 3.83019 0
M  V30 532 O 75.7158 -8.10074 3.01034 0
M  V30 533 C 77.9898 -7.65514 3.2257 0
M  V30 534 O 78.7278 -8.4329 2.32297 0
M  V30 535 C 77.3208 -6.40075 2.62207 0
M  V30 536 O 78.1198 -5.92589 1.53712 0
M  V30 537 C 75.9838 -6.9454 2.18503 0
M  V30 538 H 76.0158 -7.23063 1.12091 0
M  V30 539 H 77.1988 -5.6025 3.37201 0
M  V30 540 H 78.6828 -7.35707 4.02681 0
M  V30 541 H 76.9888 -9.40912 3.9095 0
M  V30 542 H 76.7988 -8.29056 5.99158 0
M  V30 543 H 75.1688 -8.10073 5.25882 0
M  V30 544 H 77.8078 -6.30324 0.726794 0
M  V30 545 P 79.6654 -8.4349 2.47671 0
M  V30 546 O 81.0874 -8.94359 2.59696 0
M  V30 547 O 79.3054 -7.1704 3.19006 0
M  V30 548 O 79.3424 -8.16596 0.923387 0
M  V30 549 C 79.1824 -9.38437 0.108857 0
M  V30 550 C 79.7224 -9.08076 -1.28339 0
M  V30 551 O 78.6674 -8.44229 -1.84713 0
M  V30 552 C 80.9404 -8.18386 -1.42505 0
M  V30 553 O 81.6784 -8.3501 -2.60497 0
M  V30 554 C 80.2724 -6.80225 -1.25468 0
M  V30 555 O 81.0704 -5.81526 -1.91035 0
M  V30 556 C 78.9344 -7.02416 -1.9168 0
M  V30 557 N 77.8914 -6.31033 -1.20314 0
M  V30 558 C 77.9534 -6.18781 0.121293 0
M  V30 559 N 76.9084 -5.49762 0.588272 0
M  V30 560 C 76.1744 -5.22015 -0.488988 0
M  V30 561 C 74.8684 -4.61966 -0.596448 0
M  V30 562 O 74.1354 -4.19162 0.309059 0
M  V30 563 N 74.4384 -4.53773 -1.878 0
M  V30 564 C 75.1874 -4.99623 -2.99082 0
M  V30 565 N 74.5904 -4.78912 -4.21227 0
M  V30 566 N 76.3404 -5.59957 -2.91093 0
M  V30 567 C 76.7974 -5.70225 -1.64218 0
M  V30 568 H 78.9664 -6.6888 -2.96621 0
M  V30 569 H 80.1494 -6.53517 -0.192194 0
M  V30 570 H 81.6344 -8.36563 -0.598329 0
M  V30 571 H 79.9394 -10.0291 -1.79807 0
M  V30 572 H 79.7494 -10.2138 0.558219 0
M  V30 573 H 78.1184 -9.6579 0.0444202 0
M  V30 574 H 73.5424 -4.12883 -2.05283 0
M  V30 575 H 78.7494 -6.59596 0.745856 0
M  V30 576 H 73.6794 -4.31425 -4.2628 0
M  V30 577 H 75.0554 -5.11219 -5.07148 0
M  V30 578 H 80.7594 -5.69466 -2.79593 0
M  V30 579 P 82.616 -8.4349 -2.47671 0
M  V30 580 O 84.038 -8.92593 -2.65 0
M  V30 581 O 82.256 -7.7568 -1.19296 0
M  V30 582 O 82.293 -7.36886 -3.63805 0
M  V30 583 C 82.133 -7.95349 -4.982 0
M  V30 584 C 82.673 -6.94612 -5.98974 0
M  V30 585 O 81.617 -6.10347 -6.11815 0
M  V30 586 C 83.891 -6.11426 -5.62335 0
M  V30 587 O 84.629 -5.6162 -6.70584 0
M  V30 588 C 83.222 -5.04409 -4.73308 0
M  V30 589 O 84.021 -3.85992 -4.75183 0
M  V30 590 C 81.885 -4.8728 -5.41006 0
M  V30 591 H 81.917 -4.02333 -6.11157 0
M  V30 592 H 83.1 -5.39466 -3.69543 0
M  V30 593 H 84.584 -6.71916 -5.01943 0
M  V30 594 H 82.89 -7.4649 -6.93477 0
M  V30 595 H 82.7 -8.89416 -5.05237 0
M  V30 596 H 81.07 -8.14876 -5.18409 0
M  V30 597 H 83.709 -3.27957 -5.4317 0
M  V30 598 P 85.5665 -5.75688 -6.64379 0
M  V30 599 O 86.9885 -6.07627 -7.05504 0
M  V30 600 O 85.2065 -5.88047 -5.19722 0
M  V30 601 O 85.2435 -4.2322 -7.04443 0
M  V30 602 C 85.0835 -3.99743 -8.4911 0
M  V30 603 C 85.6235 -2.60516 -8.79425 0
M  V30 604 O 84.5675 -1.82684 -8.4467 0
M  V30 605 C 86.8415 -2.10343 -8.03628 0
M  V30 606 O 87.5795 -1.09919 -8.67766 0
M  V30 607 C 86.1725 -1.68446 -6.70876 0
M  V30 608 O 86.9715 -0.678137 -6.08433 0
M  V30 609 C 84.8355 -1.17436 -7.18567 0
M  V30 610 H 84.8675 -0.0804732 -7.31656 0
M  V30 611 H 86.0505 -2.54037 -6.02537 0
M  V30 612 H 87.5345 -2.93881 -7.85526 0
M  V30 613 H 85.8405 -2.53065 -9.86973 0
M  V30 614 H 85.6505 -4.75072 -9.05887 0
M  V30 615 H 84.0205 -4.05244 -8.76668 0
M  V30 616 H 86.6595 0.177647 -6.34251 0
M  V30 617 P 88.5171 -1.25109 -8.70152 0
M  V30 618 O 89.9391 -1.29744 -9.22016 0
M  V30 619 O 88.1571 -2.13714 -7.55141 0
M  V30 620 O 88.1941 0.248149 -8.21425 0
M  V30 621 C 88.0341 1.22779 -9.30434 0
M  V30 622 C 88.5741 2.56293 -8.80664 0
M  V30 623 O 87.5181 3.02979 -8.09349 0
M  V30 624 C 89.7921 2.57523 -7.89775 0
M  V30 625 O 90.5301 3.7668 -7.89438 0
M  V30 626 C 89.1231 2.20997 -6.55446 0
M  V30 627 O 89.9221 2.71895 -5.48509 0
M  V30 628 C 87.7861 2.89693 -6.67988 0
M  V30 629 H 87.8181 3.88793 -6.19859 0
M  V30 630 H 89.0011 1.12046 -6.44229 0
M  V30 631 H 90.4851 1.7746 -8.19711 0
M  V30 632 H 88.7911 3.20706 -9.67112 0
M  V30 633 H 88.6011 0.901032 -10.1892 0
M  V30 634 H 86.9711 1.33049 -9.56592 0
M  V30 635 H 89.6101 3.57847 -5.23962 0
M  V30 636 P 91.4677 3.65191 -7.99657 0
M  V30 637 O 92.8897 3.89332 -8.45794 0
M  V30 638 O 91.1077 2.28472 -7.50807 0
M  V30 639 O 91.1447 4.64972 -6.77611 0
M  V30 640 C 90.9847 6.06319 -7.16352 0
M  V30 641 C 91.5247 6.91731 -6.02299 0
M  V30 642 O 90.4687 6.92449 -5.17064 0
M  V30 643 C 92.7427 6.43627 -5.25174 0
M  V30 644 O 93.4807 7.43686 -4.60469 0
M  V30 645 C 92.0737 5.40275 -4.31916 0
M  V30 646 O 92.8727 5.25279 -3.14438 0
M  V30 647 C 90.7367 6.04847 -4.05327 0
M  V30 648 H 90.7687 6.62195 -3.11261 0
M  V30 649 H 91.9517 4.42556 -4.81383 0
M  V30 650 H 93.4357 5.92458 -5.93643 0
M  V30 651 H 91.7417 7.92655 -6.402 0
M  V30 652 H 91.5517 6.26671 -8.0846 0
M  V30 653 H 89.9217 6.29101 -7.32804 0
M  V30 654 H 92.5607 5.84315 -2.47318 0
M  V30 655 P 94.4182 7.39546 -4.75277 0
M  V30 656 O 95.8392 7.84882 -5.01092 0
M  V30 657 O 94.0582 5.9812 -5.08098 0
M  V30 658 O 94.0952 7.57503 -3.1866 0
M  V30 659 C 93.9342 8.97452 -2.74862 0
M  V30 660 C 94.4752 9.07548 -1.32709 0
M  V30 661 O 93.4202 8.61972 -0.606089 0
M  V30 662 C 95.6932 8.25383 -0.938334 0
M  V30 663 O 96.4312 8.74577 0.146954 0
M  V30 664 C 95.0252 6.8802 -0.712559 0
M  V30 665 O 95.8232 6.1181 0.188505 0
M  V30 666 C 93.6872 7.27966 -0.139777 0
M  V30 667 N 92.6442 6.39368 -0.623421 0
M  V30 668 C 92.8132 5.71761 -1.78245 0
M  V30 669 N 91.7862 4.962 -2.10491 0
M  V30 670 C 90.9012 5.16158 -1.0635 0
M  V30 671 C 89.6342 4.60425 -0.810266 0
M  V30 672 N 89.0352 3.7057 -1.62914 0
M  V30 673 N 89.0692 5.06 0.348685 0
M  V30 674 C 89.6712 5.94532 1.20395 0
M  V30 675 N 90.8482 6.48452 1.01191 0
M  V30 676 C 91.4232 6.04423 -0.146291 0
M  V30 677 H 93.7192 7.25255 0.961469 0
M  V30 678 H 94.9022 6.32625 -1.65044 0
M  V30 679 H 96.3852 8.19355 -1.79097 0
M  V30 680 H 94.6912 10.1305 -1.09016 0
M  V30 681 H 94.5012 9.64276 -3.41316 0
M  V30 682 H 92.8712 9.25417 -2.76357 0
M  V30 683 H 89.1352 6.21659 2.10714 0
M  V30 684 H 93.7132 5.79354 -2.38959 0
M  V30 685 H 88.1052 3.33174 -1.38982 0
M  V30 686 H 89.5092 3.39714 -2.48836 0
M  V30 687 H 95.5112 6.25169 1.0783 0
M  V30 688 P 97.3688 8.791 -6.89233e-14 0
M  V30 689 O 98.7908 9.31096 0.027933 0
M  V30 690 O 97.0088 7.77869 -1.04071 0
M  V30 691 O 97.0458 8.09533 1.41463 0
M  V30 692 C 96.8858 9.0349 2.53943 0
M  V30 693 C 97.4258 8.35226 3.79016 0
M  V30 694 O 96.3698 7.57992 4.15078 0
M  V30 695 C 98.6438 7.45087 3.67298 0
M  V30 696 O 99.3818 7.27796 4.85194 0
M  V30 697 C 97.9748 6.17323 3.12027 0
M  V30 698 O 98.7738 5.04231 3.47188 0
M  V30 699 C 96.6378 6.19961 3.81809 0
M  V30 700 H 96.6698 5.58218 4.73051 0
M  V30 701 H 97.8528 6.21726 2.02589 0
M  V30 702 H 99.3368 7.86112 2.9231 0
M  V30 703 H 97.6428 9.11627 4.55076 0
M  V30 704 H 97.4528 9.9573 2.34194 0
M  V30 705 H 95.8228 9.2792 2.67832 0
M  V30 706 H 98.4618 4.67702 4.28772 0
M  V30 707 P 100.319 7.39546 4.75277 0
M  V30 708 O 101.741 7.81777 5.05738 0
M  V30 709 O 99.9594 7.1065 3.32998 0
M  V30 710 O 99.9964 6.04542 5.56673 0
M  V30 711 C 99.8364 6.22772 7.02095 0
M  V30 712 C 100.376 4.97725 7.70406 0
M  V30 713 O 99.3204 4.13256 7.58987 0
M  V30 714 C 101.594 4.28231 7.11815 0
M  V30 715 O 102.332 3.49945 8.01648 0
M  V30 716 C 100.925 3.5063 5.96244 0
M  V30 717 O 101.724 2.36482 5.64681 0
M  V30 718 C 99.5884 3.15122 6.56374 0
M  V30 719 H 99.6204 2.13853 6.99751 0
M  V30 720 H 100.803 4.13501 5.06559 0
M  V30 721 H 102.287 5.03285 6.70911 0
M  V30 722 H 100.593 5.20877 8.75697 0
M  V30 723 H 100.403 7.11046 7.35349 0
M  V30 724 H 98.7734 6.35815 7.26986 0
M  V30 725 H 101.412 1.61644 6.13565 0
M  V30 726 P 103.27 3.65191 7.99657 0
M  V30 727 O 104.692 3.8425 8.48115 0
M  V30 728 O 102.91 4.17805 6.64342 0
M  V30 729 O 102.947 2.07613 7.95143 0
M  V30 730 C 102.787 1.44328 9.27336 0
M  V30 731 C 103.327 0.0220036 9.17197 0
M  V30 732 O 102.271 -0.626867 8.61923 0
M  V30 733 C 104.545 -0.24586 8.30336 0
M  V30 734 O 105.283 -1.39011 8.63583 0
M  V30 735 C 103.876 -0.273849 6.91158 0
M  V30 736 O 104.675 -1.06348 6.02892 0
M  V30 737 C 102.539 -0.897649 7.22545 0
M  V30 738 H 102.571 -1.9841 7.04286 0
M  V30 739 H 103.754 0.739928 6.497 0
M  V30 740 H 105.238 0.60668 8.36503 0
M  V30 741 H 103.544 -0.352479 10.1829 0
M  V30 742 H 103.354 2.00611 10.0304 0
M  V30 743 H 101.724 1.41843 9.55327 0
M  V30 744 H 104.363 -1.95734 6.03555 0
M  V30 745 P 106.221 -1.25109 8.70152 0
M  V30 746 O 107.643 -1.35274 9.21221 0
M  V30 747 O 105.861 -0.0769065 7.84762 0
M  V30 748 O 105.898 -2.55232 7.81161 0
M  V30 749 C 105.738 -3.79939 8.58154 0
M  V30 750 C 106.278 -4.94023 7.72785 0
M  V30 751 O 105.222 -5.18726 6.91205 0
M  V30 752 C 107.496 -4.69597 6.85231 0
M  V30 753 O 108.234 -5.83832 6.51337 0
M  V30 754 C 106.827 -3.96706 5.66633 0
M  V30 755 O 107.626 -4.15414 4.49689 0
M  V30 756 C 105.49 -4.66153 5.59313 0
M  V30 757 H 105.522 -5.47679 4.85214 0
M  V30 758 H 106.705 -2.89008 5.86566 0
M  V30 759 H 108.189 -4.0121 7.36511 0
M  V30 760 H 106.495 -5.80182 8.37584 0
M  V30 761 H 106.305 -3.73517 9.52265 0
M  V30 762 H 104.675 -3.97163 8.80359 0
M  V30 763 H 107.314 -4.90969 4.01921 0
M  V30 764 P 109.171 -5.75688 6.64379 0
M  V30 765 O 110.592 -6.11915 7.01921 0
M  V30 766 O 108.811 -4.30744 6.56026 0
M  V30 767 O 108.848 -6.37042 5.19165 0
M  V30 768 C 108.687 -7.83662 5.1657 0
M  V30 769 C 109.228 -8.33398 3.83019 0
M  V30 770 O 108.173 -8.0998 3.00999 0
M  V30 771 C 110.446 -7.65514 3.2257 0
M  V30 772 O 111.184 -8.4329 2.32297 0
M  V30 773 C 109.778 -6.40075 2.62207 0
M  V30 774 O 110.576 -5.92338 1.5428 0
M  V30 775 C 108.44 -6.9454 2.18503 0
M  V30 776 N 107.397 -5.95905 2.39948 0
M  V30 777 C 107.566 -4.98383 3.32108 0
M  V30 778 N 106.539 -4.16798 3.41761 0
M  V30 779 C 105.654 -4.65287 2.47461 0
M  V30 780 C 104.387 -4.18946 2.07461 0
M  V30 781 N 103.788 -3.09661 2.60717 0
M  V30 782 N 103.822 -4.95327 1.09101 0
M  V30 783 C 104.424 -6.04369 0.519812 0
M  V30 784 N 105.601 -6.50694 0.855982 0
M  V30 785 C 106.176 -5.75818 1.84322 0
M  V30 786 H 108.472 -7.22964 1.12076 0
M  V30 787 H 109.655 -5.60502 3.36589 0
M  V30 788 H 111.138 -7.35707 4.02681 0
M  V30 789 H 109.444 -9.41302 3.90009 0
M  V30 790 H 109.254 -8.29056 5.99158 0
M  V30 791 H 107.624 -8.10073 5.25882 0
M  V30 792 H 103.888 -6.55843 -0.270373 0
M  V30 793 H 108.466 -4.88564 3.92502 0
M  V30 794 H 102.858 -2.80523 2.27218 0
M  V30 795 H 104.262 -2.55848 3.34465 0
M  V30 796 H 110.264 -6.30224 0.72668 0
M  V30 797 P 112.122 -8.4349 2.47671 0
M  V30 798 O 113.544 -8.94167 2.5964 0
M  V30 799 O 111.762 -7.1704 3.19006 0
M  V30 800 O 111.799 -8.16596 0.923387 0
M  V30 801 C 111.639 -9.38437 0.108857 0
M  V30 802 C 112.179 -9.08175 -1.28353 0
M  V30 803 O 111.123 -8.44229 -1.84713 0
M  V30 804 C 113.397 -8.18386 -1.42505 0
M  V30 805 O 114.135 -8.3501 -2.60497 0
M  V30 806 C 112.728 -6.80225 -1.25468 0
M  V30 807 O 113.527 -5.81621 -1.91066 0
M  V30 808 C 111.391 -7.02416 -1.9168 0
M  V30 809 H 111.423 -6.6888 -2.96621 0
M  V30 810 H 112.606 -6.53617 -0.192223 0
M  V30 811 H 114.09 -8.36622 -0.589963 0
M  V30 812 H 112.396 -10.0291 -1.79807 0
M  V30 813 H 112.206 -10.2138 0.558219 0
M  V30 814 H 110.576 -9.6579 0.0444202 0
M  V30 815 H 113.215 -5.69556 -2.79637 0
M  V30 816 P 115.072 -8.4349 -2.47671 0
M  V30 817 O 116.494 -8.92593 -2.65 0
M  V30 818 O 114.712 -7.7568 -1.19296 0
M  V30 819 O 114.749 -7.36886 -3.63805 0
M  V30 820 C 114.589 -7.95349 -4.982 0
M  V30 821 C 115.129 -6.94612 -5.98974 0
M  V30 822 O 114.073 -6.10347 -6.11815 0
M  V30 823 C 116.347 -6.11426 -5.62335 0
M  V30 824 O 117.085 -5.6162 -6.70584 0
M  V30 825 C 115.678 -5.04409 -4.73308 0
M  V30 826 O 116.477 -3.85992 -4.75183 0
M  V30 827 C 114.341 -4.8728 -5.41006 0
M  V30 828 H 114.373 -4.02333 -6.11157 0
M  V30 829 H 115.556 -5.39466 -3.69543 0
M  V30 830 H 117.04 -6.71916 -5.01943 0
M  V30 831 H 115.346 -7.4649 -6.93477 0
M  V30 832 H 115.156 -8.89416 -5.05237 0
M  V30 833 H 113.526 -8.14876 -5.18409 0
M  V30 834 H 116.165 -3.27957 -5.4317 0
M  V30 835 P 118.023 -5.75688 -6.64379 0
M  V30 836 O 119.445 -6.07627 -7.05504 0
M  V30 837 O 117.663 -5.88047 -5.19722 0
M  V30 838 O 117.7 -4.2322 -7.04443 0
M  V30 839 C 117.54 -3.99743 -8.4911 0
M  V30 840 C 118.08 -2.60516 -8.79425 0
M  V30 841 O 117.024 -1.82684 -8.4467 0
M  V30 842 C 119.298 -2.10343 -8.03628 0
M  V30 843 O 120.036 -1.09919 -8.67766 0
M  V30 844 C 118.629 -1.68446 -6.70876 0
M  V30 845 O 119.428 -0.678137 -6.08433 0
M  V30 846 C 117.292 -1.17436 -7.18567 0
M  V30 847 H 117.324 -0.0804732 -7.31656 0
M  V30 848 H 118.507 -2.54037 -6.02537 0
M  V30 849 H 119.991 -2.93881 -7.85526 0
M  V30 850 H 118.297 -2.53065 -9.86973 0
M  V30 851 H 118.107 -4.75072 -9.05887 0
M  V30 852 H 116.477 -4.05244 -8.76668 0
M  V30 853 H 119.116 0.177647 -6.34251 0
M  V30 854 P 120.973 -1.25109 -8.70152 0
M  V30 855 O 122.395 -1.29744 -9.22016 0
M  V30 856 O 120.613 -2.13714 -7.55141 0
M  V30 857 O 120.65 0.248149 -8.21425 0
M  V30 858 C 120.49 1.22779 -9.30434 0
M  V30 859 C 121.03 2.56293 -8.80664 0
M  V30 860 O 119.974 3.02979 -8.09349 0
M  V30 861 C 122.248 2.57523 -7.89775 0
M  V30 862 O 122.986 3.7668 -7.89438 0
M  V30 863 C 121.579 2.20997 -6.55446 0
M  V30 864 O 122.378 2.71895 -5.48509 0
M  V30 865 C 120.242 2.89693 -6.67988 0
M  V30 866 H 120.274 3.88793 -6.19859 0
M  V30 867 H 121.457 1.12046 -6.44229 0
M  V30 868 H 122.941 1.7746 -8.19711 0
M  V30 869 H 121.247 3.20706 -9.67112 0
M  V30 870 H 121.057 0.901032 -10.1892 0
M  V30 871 H 119.427 1.33049 -9.56592 0
M  V30 872 H 122.066 3.57847 -5.23962 0
M  V30 873 P 123.924 3.65191 -7.99657 0
M  V30 874 O 125.346 3.89332 -8.45794 0
M  V30 875 O 123.564 2.28472 -7.50807 0
M  V30 876 O 123.601 4.64972 -6.77611 0
M  V30 877 C 123.441 6.06319 -7.16352 0
M  V30 878 C 123.981 6.91731 -6.02299 0
M  V30 879 O 122.925 6.92449 -5.17064 0
M  V30 880 C 125.199 6.43627 -5.25174 0
M  V30 881 O 125.937 7.43686 -4.60469 0
M  V30 882 C 124.53 5.40275 -4.31916 0
M  V30 883 O 125.329 5.25279 -3.14438 0
M  V30 884 C 123.193 6.04847 -4.05327 0
M  V30 885 H 123.225 6.62195 -3.11261 0
M  V30 886 H 124.408 4.42556 -4.81383 0
M  V30 887 H 125.892 5.92458 -5.93643 0
M  V30 888 H 124.198 7.92655 -6.402 0
M  V30 889 H 124.008 6.26671 -8.0846 0
M  V30 890 H 122.378 6.29101 -7.32804 0
M  V30 891 H 125.017 5.84315 -2.47318 0
M  V30 892 P 126.875 7.39546 -4.75277 0
M  V30 893 O 128.297 7.84798 -5.01039 0
M  V30 894 O 126.515 5.9812 -5.08098 0
M  V30 895 O 126.552 7.57503 -3.1866 0
M  V30 896 C 126.392 8.97357 -2.74833 0
M  V30 897 C 126.932 9.07548 -1.32709 0
M  V30 898 O 125.876 8.62072 -0.606159 0
M  V30 899 C 128.15 8.25383 -0.938334 0
M  V30 900 O 128.888 8.74577 0.146954 0
M  V30 901 C 127.481 6.8802 -0.712559 0
M  V30 902 O 128.28 6.1189 0.194655 0
M  V30 903 C 126.144 7.27966 -0.139777 0
M  V30 904 H 126.176 7.25354 0.961601 0
M  V30 905 H 127.359 6.32557 -1.65702 0
M  V30 906 H 128.843 8.19355 -1.79097 0
M  V30 907 H 127.149 10.1294 -1.10029 0
M  V30 908 H 126.959 9.64276 -3.41316 0
M  V30 909 H 125.329 9.25417 -2.76357 0
M  V30 910 H 127.968 6.25267 1.07847 0
M  V30 911 P 129.825 8.791 -1.02308e-13 0
M  V30 912 O 131.247 9.31096 0.027933 0
M  V30 913 O 129.465 7.77869 -1.04071 0
M  V30 914 O 129.502 8.09533 1.41463 0
M  V30 915 C 129.342 9.0349 2.53943 0
M  V30 916 C 129.882 8.35226 3.79016 0
M  V30 917 O 128.826 7.57992 4.15078 0
M  V30 918 C 131.1 7.45087 3.67298 0
M  V30 919 O 131.838 7.27796 4.85194 0
M  V30 920 C 130.431 6.17323 3.12027 0
M  V30 921 O 131.23 5.04231 3.47188 0
M  V30 922 C 129.094 6.19961 3.81809 0
M  V30 923 H 129.126 5.58218 4.73051 0
M  V30 924 H 130.309 6.21726 2.02589 0
M  V30 925 H 131.793 7.86112 2.9231 0
M  V30 926 H 130.099 9.11627 4.55076 0
M  V30 927 H 129.909 9.9573 2.34194 0
M  V30 928 H 128.279 9.2792 2.67832 0
M  V30 929 H 130.918 4.67702 4.28772 0
M  V30 930 P 132.776 7.39546 4.75277 0
M  V30 931 O 134.198 7.81777 5.05738 0
M  V30 932 O 132.416 7.1065 3.32998 0
M  V30 933 O 132.453 6.04542 5.56673 0
M  V30 934 C 132.293 6.22772 7.02095 0
M  V30 935 C 132.833 4.97725 7.70406 0
M  V30 936 O 131.777 4.13256 7.58987 0
M  V30 937 C 134.051 4.28231 7.11815 0
M  V30 938 O 134.789 3.49945 8.01648 0
M  V30 939 C 133.382 3.5063 5.96244 0
M  V30 940 O 134.181 2.36482 5.64681 0
M  V30 941 C 132.045 3.15122 6.56374 0
M  V30 942 H 132.077 2.13853 6.99751 0
M  V30 943 H 133.26 4.13501 5.06559 0
M  V30 944 H 134.744 5.03285 6.70911 0
M  V30 945 H 133.05 5.20877 8.75697 0
M  V30 946 H 132.86 7.11046 7.35349 0
M  V30 947 H 131.23 6.35815 7.26986 0
M  V30 948 H 133.869 1.61644 6.13565 0
M  V30 949 P 135.726 3.65191 7.99657 0
M  V30 950 O 137.148 3.8425 8.48115 0
M  V30 951 O 135.366 4.17805 6.64342 0
M  V30 952 O 135.403 2.07613 7.95143 0
M  V30 953 C 135.243 1.44328 9.27336 0
M  V30 954 C 135.783 0.0220036 9.17197 0
M  V30 955 O 134.727 -0.626867 8.61923 0
M  V30 956 C 137.001 -0.24586 8.30336 0
M  V30 957 O 137.739 -1.39011 8.63583 0
M  V30 958 C 136.332 -0.273849 6.91158 0
M  V30 959 O 137.131 -1.06348 6.02892 0
M  V30 960 C 134.995 -0.897649 7.22545 0
M  V30 961 H 135.027 -1.9841 7.04286 0
M  V30 962 H 136.21 0.739928 6.497 0
M  V30 963 H 137.694 0.60668 8.36503 0
M  V30 964 H 136 -0.352479 10.1829 0
M  V30 965 H 135.81 2.00611 10.0304 0
M  V30 966 H 134.18 1.41843 9.55327 0
M  V30 967 H 136.819 -1.95734 6.03555 0
M  V30 968 P 138.677 -1.25109 8.70152 0
M  V30 969 O 140.099 -1.35274 9.21221 0
M  V30 970 O 138.317 -0.0769065 7.84762 0
M  V30 971 O 138.354 -2.55232 7.81161 0
M  V30 972 C 138.194 -3.79939 8.58154 0
M  V30 973 C 138.734 -4.94023 7.72785 0
M  V30 974 O 137.678 -5.18726 6.91205 0
M  V30 975 C 139.952 -4.69597 6.85231 0
M  V30 976 O 140.69 -5.83832 6.51337 0
M  V30 977 C 139.283 -3.96706 5.66633 0
M  V30 978 O 140.082 -4.15414 4.49689 0
M  V30 979 C 137.946 -4.66153 5.59313 0
M  V30 980 H 137.978 -5.47679 4.85214 0
M  V30 981 H 139.161 -2.89008 5.86566 0
M  V30 982 H 140.645 -4.0121 7.36511 0
M  V30 983 H 138.951 -5.80182 8.37584 0
M  V30 984 H 138.761 -3.73517 9.52265 0
M  V30 985 H 137.131 -3.97163 8.80359 0
M  V30 986 H 139.77 -4.90969 4.01921 0
M  V30 987 P 141.627 -5.75688 6.64379 0
M  V30 988 O 143.049 -6.11849 7.01846 0
M  V30 989 O 141.267 -4.30744 6.56026 0
M  V30 990 O 141.304 -6.37042 5.19165 0
M  V30 991 C 141.144 -7.83578 5.16515 0
M  V30 992 C 141.684 -8.33398 3.83019 0
M  V30 993 O 140.628 -8.10074 3.01034 0
M  V30 994 C 142.902 -7.65514 3.2257 0
M  V30 995 O 143.64 -8.4329 2.32297 0
M  V30 996 C 142.233 -6.40075 2.62207 0
M  V30 997 O 143.032 -5.92589 1.53712 0
M  V30 998 C 140.896 -6.9454 2.18503 0
M  V30 999 H 140.928 -7.23063 1.12091 0
M  V30 1000 H 142.111 -5.6025 3.37201 0
M  V30 1001 H 143.595 -7.35707 4.02681 0
M  V30 1002 H 141.901 -9.40912 3.9095 0
M  V30 1003 H 141.711 -8.29056 5.99158 0
M  V30 1004 H 140.081 -8.10073 5.25882 0
M  V30 1005 H 142.72 -6.30324 0.726794 0
M  V30 1006 P 144.578 -8.4349 2.47671 0
M  V30 1007 O 146 -8.94167 2.5964 0
M  V30 1008 O 144.218 -7.1704 3.19006 0
M  V30 1009 O 144.255 -8.16596 0.923387 0
M  V30 1010 C 144.095 -9.38437 0.108857 0
M  V30 1011 C 144.635 -9.08175 -1.28353 0
M  V30 1012 O 143.579 -8.44229 -1.84713 0
M  V30 1013 C 145.853 -8.18386 -1.42505 0
M  V30 1014 O 146.591 -8.3501 -2.60497 0
M  V30 1015 C 145.184 -6.80225 -1.25468 0
M  V30 1016 O 145.983 -5.81621 -1.91066 0
M  V30 1017 C 143.847 -7.02416 -1.9168 0
M  V30 1018 H 143.879 -6.6888 -2.96621 0
M  V30 1019 H 145.062 -6.53617 -0.192223 0
M  V30 1020 H 146.546 -8.36622 -0.589963 0
M  V30 1021 H 144.852 -10.0291 -1.79807 0
M  V30 1022 H 144.662 -10.2138 0.558219 0
M  V30 1023 H 143.032 -9.6579 0.0444202 0
M  V30 1024 H 145.671 -5.69556 -2.79637 0
M  V30 1025 P 147.528 -8.4349 -2.47671 0
M  V30 1026 O 148.95 -8.92593 -2.65 0
M  V30 1027 O 147.168 -7.7568 -1.19296 0
M  V30 1028 O 147.205 -7.36886 -3.63805 0
M  V30 1029 C 147.045 -7.95349 -4.982 0
M  V30 1030 C 147.585 -6.94612 -5.98974 0
M  V30 1031 O 146.529 -6.10347 -6.11815 0
M  V30 1032 C 148.803 -6.11426 -5.62335 0
M  V30 1033 O 149.541 -5.6162 -6.70584 0
M  V30 1034 C 148.134 -5.04409 -4.73308 0
M  V30 1035 O 148.933 -3.85992 -4.75183 0
M  V30 1036 C 146.797 -4.8728 -5.41006 0
M  V30 1037 H 146.829 -4.02333 -6.11157 0
M  V30 1038 H 148.012 -5.39466 -3.69543 0
M  V30 1039 H 149.496 -6.71916 -5.01943 0
M  V30 1040 H 147.802 -7.4649 -6.93477 0
M  V30 1041 H 147.612 -8.89416 -5.05237 0
M  V30 1042 H 145.982 -8.14876 -5.18409 0
M  V30 1043 H 148.621 -3.27957 -5.4317 0
M  V30 1044 P 150.479 -5.75688 -6.64379 0
M  V30 1045 O 151.901 -6.07627 -7.05504 0
M  V30 1046 O 150.119 -5.88047 -5.19722 0
M  V30 1047 O 150.156 -4.2322 -7.04443 0
M  V30 1048 C 149.996 -3.99743 -8.4911 0
M  V30 1049 C 150.536 -2.60516 -8.79425 0
M  V30 1050 O 149.48 -1.82684 -8.4467 0
M  V30 1051 C 151.754 -2.10343 -8.03628 0
M  V30 1052 O 152.492 -1.09919 -8.67766 0
M  V30 1053 C 151.085 -1.68446 -6.70876 0
M  V30 1054 O 151.884 -0.678137 -6.08433 0
M  V30 1055 C 149.748 -1.17436 -7.18567 0
M  V30 1056 H 149.78 -0.0804732 -7.31656 0
M  V30 1057 H 150.963 -2.54037 -6.02537 0
M  V30 1058 H 152.447 -2.93881 -7.85526 0
M  V30 1059 H 150.753 -2.53065 -9.86973 0
M  V30 1060 H 150.563 -4.75072 -9.05887 0
M  V30 1061 H 148.933 -4.05244 -8.76668 0
M  V30 1062 H 151.572 0.177647 -6.34251 0
M  V30 1063 P 153.43 -1.25109 -8.70152 0
M  V30 1064 O 154.831 -1.3516 -9.26897 0
M  V30 1065 O 153.052 -2.18141 -7.59181 0
M  V30 1066 O 153.107 0.248118 -8.21325 0
M  V30 1067 C 152.947 1.22779 -9.30434 0
M  V30 1068 C 153.487 2.56265 -8.80568 0
M  V30 1069 O 152.431 3.02944 -8.09255 0
M  V30 1070 C 154.704 2.57523 -7.89775 0
M  V30 1071 O 155.443 3.7668 -7.89438 0
M  V30 1072 C 154.037 2.20997 -6.55446 0
M  V30 1073 O 154.835 2.71851 -5.48419 0
M  V30 1074 C 152.699 2.89693 -6.67988 0
M  V30 1075 N 151.656 2.08895 -6.07487 0
M  V30 1076 C 150.621 2.72974 -5.43836 0
M  V30 1077 O 150.66 3.97779 -5.34036 0
M  V30 1078 N 149.609 2.0005 -4.91983 0
M  V30 1079 C 149.657 0.66501 -5.00098 0
M  V30 1080 C 150.753 -0.0100979 -5.61099 0
M  V30 1081 C 151.719 0.74189 -6.14236 0
M  V30 1082 H 152.731 3.8874 -6.19774 0
M  V30 1083 H 153.914 1.12673 -6.44018 0
M  V30 1084 H 155.398 1.783 -8.19631 0
M  V30 1085 H 153.704 3.21673 -9.66791 0
M  V30 1086 H 153.513 0.901032 -10.1892 0
M  V30 1087 H 151.883 1.33036 -9.56493 0
M  V30 1088 H 150.801 -1.09591 -5.64358 0
M  V30 1089 H 152.565 0.260263 -6.6359 0
M  V30 1090 H 154.619 3.62759 -5.33442 0
M  V30 1091 P 156.38 3.65191 -7.99657 0
M  V30 1092 O 157.802 3.89332 -8.45794 0
M  V30 1093 O 156.02 2.28472 -7.50807 0
M  V30 1094 O 156.057 4.64972 -6.77611 0
M  V30 1095 C 155.897 6.06319 -7.16352 0
M  V30 1096 C 156.437 6.91731 -6.02299 0
M  V30 1097 O 155.381 6.92449 -5.17064 0
M  V30 1098 C 157.655 6.43627 -5.25174 0
M  V30 1099 O 158.393 7.43686 -4.60469 0
M  V30 1100 C 156.986 5.40275 -4.31916 0
M  V30 1101 O 157.785 5.25279 -3.14438 0
M  V30 1102 C 155.649 6.04847 -4.05327 0
M  V30 1103 H 155.681 6.62195 -3.11261 0
M  V30 1104 H 156.864 4.42556 -4.81383 0
M  V30 1105 H 158.348 5.92458 -5.93643 0
M  V30 1106 H 156.654 7.92655 -6.402 0
M  V30 1107 H 156.464 6.26671 -8.0846 0
M  V30 1108 H 154.834 6.29101 -7.32804 0
M  V30 1109 H 157.473 5.84315 -2.47318 0
M  V30 1110 P 159.331 7.39546 -4.75277 0
M  V30 1111 O 160.753 7.84798 -5.01039 0
M  V30 1112 O 158.971 5.9812 -5.08098 0
M  V30 1113 O 159.008 7.57503 -3.1866 0
M  V30 1114 C 158.848 8.97357 -2.74833 0
M  V30 1115 C 159.388 9.07548 -1.32709 0
M  V30 1116 O 158.332 8.62072 -0.606159 0
M  V30 1117 C 160.606 8.25383 -0.938334 0
M  V30 1118 O 161.344 8.74577 0.146954 0
M  V30 1119 C 159.937 6.8802 -0.712559 0
M  V30 1120 O 160.736 6.1189 0.194655 0
M  V30 1121 C 158.6 7.27966 -0.139777 0
M  V30 1122 H 158.632 7.25354 0.961601 0
M  V30 1123 H 159.815 6.32557 -1.65702 0
M  V30 1124 H 161.299 8.19355 -1.79097 0
M  V30 1125 H 159.605 10.1294 -1.10029 0
M  V30 1126 H 159.415 9.64276 -3.41316 0
M  V30 1127 H 157.785 9.25417 -2.76357 0
M  V30 1128 H 160.424 6.25267 1.07847 0
M  V30 1129 P 162.281 8.791 -1.35693e-13 0
M  V30 1130 O 163.703 9.31096 0.027933 0
M  V30 1131 O 161.921 7.77869 -1.04071 0
M  V30 1132 O 161.958 8.09533 1.41463 0
M  V30 1133 C 161.798 9.0349 2.53943 0
M  V30 1134 C 162.338 8.35226 3.79016 0
M  V30 1135 O 161.282 7.57992 4.15078 0
M  V30 1136 C 163.556 7.45087 3.67298 0
M  V30 1137 O 164.294 7.27796 4.85194 0
M  V30 1138 C 162.887 6.17323 3.12027 0
M  V30 1139 O 163.686 5.04231 3.47188 0
M  V30 1140 C 161.55 6.19961 3.81809 0
M  V30 1141 H 161.582 5.58218 4.73051 0
M  V30 1142 H 162.765 6.21726 2.02589 0
M  V30 1143 H 164.249 7.86112 2.9231 0
M  V30 1144 H 162.555 9.11627 4.55076 0
M  V30 1145 H 162.365 9.9573 2.34194 0
M  V30 1146 H 160.735 9.2792 2.67832 0
M  V30 1147 H 163.374 4.67702 4.28772 0
M  V30 1148 P 165.232 7.39546 4.75277 0
M  V30 1149 O 166.654 7.81945 5.05847 0
M  V30 1150 O 164.872 7.1065 3.32998 0
M  V30 1151 O 164.909 6.04542 5.56673 0
M  V30 1152 C 164.749 6.22772 7.02095 0
M  V30 1153 C 165.289 4.97671 7.70322 0
M  V30 1154 O 164.234 4.13256 7.58987 0
M  V30 1155 C 166.507 4.28231 7.11815 0
M  V30 1156 O 167.245 3.49945 8.01648 0
M  V30 1157 C 165.839 3.5063 5.96244 0
M  V30 1158 O 166.637 2.36443 5.64589 0
M  V30 1159 C 164.501 3.15122 6.56374 0
M  V30 1160 N 163.458 3.22311 5.55692 0
M  V30 1161 C 163.52 4.14382 4.59701 0
M  V30 1162 N 162.475 4.04476 3.76958 0
M  V30 1163 C 161.741 3.04892 4.26534 0
M  V30 1164 C 160.435 2.57447 3.88189 0
M  V30 1165 O 159.702 2.9785 2.96543 0
M  V30 1166 N 160.005 1.55228 4.65922 0
M  V30 1167 C 160.754 1.01152 5.73447 0
M  V30 1168 N 160.157 -0.0472117 6.37783 0
M  V30 1169 N 161.907 1.467 6.13813 0
M  V30 1170 C 162.364 2.4931 5.38487 0
M  V30 1171 H 164.533 2.13853 6.99751 0
M  V30 1172 H 165.716 4.13438 5.06482 0
M  V30 1173 H 167.201 5.02614 6.71414 0
M  V30 1174 H 165.506 5.20877 8.75697 0
M  V30 1175 H 165.316 7.11046 7.35349 0
M  V30 1176 H 163.685 6.35815 7.26986 0
M  V30 1177 H 159.109 1.15238 4.46468 0
M  V30 1178 H 164.316 4.88312 4.49647 0
M  V30 1179 H 159.246 -0.396382 6.05203 0
M  V30 1180 H 160.622 -0.484997 7.18465 0
M  V30 1181 H 166.326 1.61619 6.13468 0
M  V30 1182 P 168.182 3.65191 7.99657 0
M  V30 1183 O 169.604 3.8425 8.48115 0
M  V30 1184 O 167.822 4.17805 6.64342 0
M  V30 1185 O 167.859 2.07613 7.95143 0
M  V30 1186 C 167.699 1.44328 9.27336 0
M  V30 1187 C 168.239 0.0220036 9.17197 0
M  V30 1188 O 167.183 -0.626867 8.61923 0
M  V30 1189 C 169.457 -0.24586 8.30336 0
M  V30 1190 O 170.195 -1.39011 8.63583 0
M  V30 1191 C 168.788 -0.273849 6.91158 0
M  V30 1192 O 169.587 -1.06348 6.02892 0
M  V30 1193 C 167.451 -0.897649 7.22545 0
M  V30 1194 H 167.483 -1.9841 7.04286 0
M  V30 1195 H 168.666 0.739928 6.497 0
M  V30 1196 H 170.15 0.60668 8.36503 0
M  V30 1197 H 168.456 -0.352479 10.1829 0
M  V30 1198 H 168.266 2.00611 10.0304 0
M  V30 1199 H 166.636 1.41843 9.55327 0
M  V30 1200 H 169.275 -1.95734 6.03555 0
M  V30 1201 P 171.133 -1.25109 8.70152 0
M  V30 1202 O 172.555 -1.35274 9.21221 0
M  V30 1203 O 170.773 -0.0769065 7.84762 0
M  V30 1204 O 170.81 -2.55232 7.81161 0
M  V30 1205 C 170.65 -3.79939 8.58154 0
M  V30 1206 C 171.19 -4.94023 7.72785 0
M  V30 1207 O 170.134 -5.18726 6.91205 0
M  V30 1208 C 172.408 -4.69597 6.85231 0
M  V30 1209 O 173.146 -5.83832 6.51337 0
M  V30 1210 C 171.739 -3.96706 5.66633 0
M  V30 1211 O 172.538 -4.15414 4.49689 0
M  V30 1212 C 170.402 -4.66153 5.59313 0
M  V30 1213 H 170.434 -5.47679 4.85214 0
M  V30 1214 H 171.617 -2.89008 5.86566 0
M  V30 1215 H 173.101 -4.0121 7.36511 0
M  V30 1216 H 171.407 -5.80182 8.37584 0
M  V30 1217 H 171.217 -3.73517 9.52265 0
M  V30 1218 H 169.587 -3.97163 8.80359 0
M  V30 1219 H 172.226 -4.90969 4.01921 0
M  V30 1220 P 174.084 -5.75688 6.64379 0
M  V30 1221 O 175.506 -6.11981 7.01997 0
M  V30 1222 O 173.724 -4.30744 6.56026 0
M  V30 1223 O 173.761 -6.37042 5.19165 0
M  V30 1224 C 173.601 -7.83578 5.16515 0
M  V30 1225 C 174.141 -8.33307 3.82977 0
M  V30 1226 O 173.086 -8.10074 3.01034 0
M  V30 1227 C 175.359 -7.65514 3.2257 0
M  V30 1228 O 176.097 -8.4329 2.32297 0
M  V30 1229 C 174.691 -6.40075 2.62207 0
M  V30 1230 O 175.489 -5.92492 1.53687 0
M  V30 1231 C 173.353 -6.9454 2.18503 0
M  V30 1232 N 172.31 -5.95905 2.39948 0
M  V30 1233 C 172.372 -5.13994 3.44742 0
M  V30 1234 N 171.327 -4.30684 3.46712 0
M  V30 1235 C 170.593 -4.65583 2.41086 0
M  V30 1236 C 169.287 -4.20877 1.99581 0
M  V30 1237 O 168.554 -3.35913 2.52616 0
M  V30 1238 N 168.857 -4.83271 0.873406 0
M  V30 1239 C 169.606 -5.82006 0.185129 0
M  V30 1240 N 169.009 -6.30619 -0.95439 0
M  V30 1241 N 170.759 -6.28443 0.578524 0
M  V30 1242 C 171.216 -5.68486 1.70138 0
M  V30 1243 H 173.385 -7.23063 1.12091 0
M  V30 1244 H 174.568 -5.60165 3.3715 0
M  V30 1245 H 176.053 -7.3611 4.01946 0
M  V30 1246 H 174.358 -9.40912 3.9095 0
M  V30 1247 H 174.168 -8.29056 5.99158 0
M  V30 1248 H 172.537 -8.10073 5.25882 0
M  V30 1249 H 167.961 -4.58323 0.505262 0
M  V30 1250 H 173.168 -5.14564 4.1935 0
M  V30 1251 H 168.098 -5.93402 -1.25364 0
M  V30 1252 H 169.474 -7.0425 -1.50254 0
M  V30 1253 H 175.178 -6.30224 0.72668 0
M  V30 1254 P 177.034 -8.4349 2.47671 0
M  V30 1255 O 178.456 -8.94167 2.5964 0
M  V30 1256 O 176.674 -7.1704 3.19006 0
M  V30 1257 O 176.711 -8.16596 0.923387 0
M  V30 1258 C 176.551 -9.38437 0.108857 0
M  V30 1259 C 177.091 -9.08175 -1.28353 0
M  V30 1260 O 176.035 -8.44229 -1.84713 0
M  V30 1261 C 178.309 -8.18386 -1.42505 0
M  V30 1262 O 179.047 -8.3501 -2.60497 0
M  V30 1263 C 177.64 -6.80225 -1.25468 0
M  V30 1264 O 178.439 -5.81621 -1.91066 0
M  V30 1265 C 176.303 -7.02416 -1.9168 0
M  V30 1266 H 176.335 -6.6888 -2.96621 0
M  V30 1267 H 177.518 -6.53617 -0.192223 0
M  V30 1268 H 179.002 -8.36622 -0.589963 0
M  V30 1269 H 177.308 -10.0291 -1.79807 0
M  V30 1270 H 177.118 -10.2138 0.558219 0
M  V30 1271 H 175.488 -9.6579 0.0444202 0
M  V30 1272 H 178.127 -5.69556 -2.79637 0
M  V30 1273 P 179.985 -8.4349 -2.47671 0
M  V30 1274 O 181.407 -8.92593 -2.65 0
M  V30 1275 O 179.625 -7.7568 -1.19296 0
M  V30 1276 O 179.662 -7.36886 -3.63805 0
M  V30 1277 C 179.502 -7.95349 -4.982 0
M  V30 1278 C 180.042 -6.94612 -5.98974 0
M  V30 1279 O 178.986 -6.10347 -6.11815 0
M  V30 1280 C 181.26 -6.11426 -5.62335 0
M  V30 1281 O 181.998 -5.6162 -6.70584 0
M  V30 1282 C 180.591 -5.04409 -4.73308 0
M  V30 1283 O 181.39 -3.85992 -4.75183 0
M  V30 1284 C 179.254 -4.8728 -5.41006 0
M  V30 1285 H 179.286 -4.02333 -6.11157 0
M  V30 1286 H 180.469 -5.39466 -3.69543 0
M  V30 1287 H 181.953 -6.71916 -5.01943 0
M  V30 1288 H 180.259 -7.4649 -6.93477 0
M  V30 1289 H 180.069 -8.89416 -5.05237 0
M  V30 1290 H 178.439 -8.14876 -5.18409 0
M  V30 1291 H 181.078 -3.27957 -5.4317 0
M  V30 1292 P 182.935 -5.75688 -6.64379 0
M  V30 1293 O 184.357 -6.07627 -7.05504 0
M  V30 1294 O 182.575 -5.88047 -5.19722 0
M  V30 1295 O 182.612 -4.2322 -7.04443 0
M  V30 1296 C 182.452 -3.99743 -8.4911 0
M  V30 1297 C 182.992 -2.60516 -8.79425 0
M  V30 1298 O 181.936 -1.82684 -8.4467 0
M  V30 1299 C 184.21 -2.10343 -8.03628 0
M  V30 1300 O 184.948 -1.09919 -8.67766 0
M  V30 1301 C 183.541 -1.68446 -6.70876 0
M  V30 1302 O 184.34 -0.678137 -6.08433 0
M  V30 1303 C 182.204 -1.17436 -7.18567 0
M  V30 1304 H 182.236 -0.0804732 -7.31656 0
M  V30 1305 H 183.419 -2.54037 -6.02537 0
M  V30 1306 H 184.903 -2.93881 -7.85526 0
M  V30 1307 H 183.209 -2.53065 -9.86973 0
M  V30 1308 H 183.019 -4.75072 -9.05887 0
M  V30 1309 H 181.389 -4.05244 -8.76668 0
M  V30 1310 H 184.028 0.177647 -6.34251 0
M  V30 1311 P 185.886 -1.25109 -8.70152 0
M  V30 1312 O 187.308 -1.29744 -9.22016 0
M  V30 1313 O 185.526 -2.13714 -7.55141 0
M  V30 1314 O 185.563 0.248149 -8.21425 0
M  V30 1315 C 185.403 1.22779 -9.30434 0
M  V30 1316 C 185.943 2.56293 -8.80664 0
M  V30 1317 O 184.887 3.02979 -8.09349 0
M  V30 1318 C 187.161 2.57523 -7.89775 0
M  V30 1319 O 187.899 3.7668 -7.89438 0
M  V30 1320 C 186.492 2.20997 -6.55446 0
M  V30 1321 O 187.291 2.71895 -5.48509 0
M  V30 1322 C 185.155 2.89693 -6.67988 0
M  V30 1323 H 185.187 3.88793 -6.19859 0
M  V30 1324 H 186.37 1.12046 -6.44229 0
M  V30 1325 H 187.854 1.7746 -8.19711 0
M  V30 1326 H 186.16 3.20706 -9.67112 0
M  V30 1327 H 185.97 0.901032 -10.1892 0
M  V30 1328 H 184.34 1.33049 -9.56592 0
M  V30 1329 H 186.979 3.57847 -5.23962 0
M  V30 1330 P 188.836 3.65191 -7.99657 0
M  V30 1331 O 190.258 3.89332 -8.45794 0
M  V30 1332 O 188.476 2.28472 -7.50807 0
M  V30 1333 O 188.513 4.64972 -6.77611 0
M  V30 1334 C 188.353 6.06319 -7.16352 0
M  V30 1335 C 188.893 6.91731 -6.02299 0
M  V30 1336 O 187.837 6.92449 -5.17064 0
M  V30 1337 C 190.111 6.43627 -5.25174 0
M  V30 1338 O 190.849 7.43686 -4.60469 0
M  V30 1339 C 189.442 5.40275 -4.31916 0
M  V30 1340 O 190.241 5.25279 -3.14438 0
M  V30 1341 C 188.105 6.04847 -4.05327 0
M  V30 1342 H 188.137 6.62195 -3.11261 0
M  V30 1343 H 189.32 4.42556 -4.81383 0
M  V30 1344 H 190.804 5.92458 -5.93643 0
M  V30 1345 H 189.11 7.92655 -6.402 0
M  V30 1346 H 188.92 6.26671 -8.0846 0
M  V30 1347 H 187.29 6.29101 -7.32804 0
M  V30 1348 H 189.929 5.84315 -2.47318 0
M  V30 1349 P 191.787 7.39546 -4.75277 0
M  V30 1350 O 193.209 7.84798 -5.01039 0
M  V30 1351 O 191.427 5.9812 -5.08098 0
M  V30 1352 O 191.464 7.57503 -3.1866 0
M  V30 1353 C 191.304 8.97357 -2.74833 0
M  V30 1354 C 191.844 9.07548 -1.32709 0
M  V30 1355 O 190.788 8.62072 -0.606159 0
M  V30 1356 C 193.062 8.25383 -0.938334 0
M  V30 1357 O 193.8 8.74577 0.146954 0
M  V30 1358 C 192.393 6.8802 -0.712559 0
M  V30 1359 O 193.192 6.1189 0.194655 0
M  V30 1360 C 191.056 7.27966 -0.139777 0
M  V30 1361 H 191.088 7.25354 0.961601 0
M  V30 1362 H 192.271 6.32557 -1.65702 0
M  V30 1363 H 193.755 8.19355 -1.79097 0
M  V30 1364 H 192.061 10.1294 -1.10029 0
M  V30 1365 H 191.871 9.64276 -3.41316 0
M  V30 1366 H 190.241 9.25417 -2.76357 0
M  V30 1367 H 192.88 6.25267 1.07847 0
M  V30 1368 P 194.738 8.791 1.12009e-13 0
M  V30 1369 O 196.16 9.31096 0.027933 0
M  V30 1370 O 194.378 7.77869 -1.04071 0
M  V30 1371 O 194.415 8.09533 1.41463 0
M  V30 1372 C 194.255 9.0349 2.53943 0
M  V30 1373 C 194.795 8.35226 3.79016 0
M  V30 1374 O 193.739 7.57992 4.15078 0
M  V30 1375 C 196.013 7.45087 3.67298 0
M  V30 1376 O 196.751 7.27796 4.85194 0
M  V30 1377 C 195.344 6.17323 3.12027 0
M  V30 1378 O 196.143 5.04231 3.47188 0
M  V30 1379 C 194.007 6.19961 3.81809 0
M  V30 1380 H 194.039 5.58218 4.73051 0
M  V30 1381 H 195.222 6.21726 2.02589 0
M  V30 1382 H 196.706 7.86112 2.9231 0
M  V30 1383 H 195.012 9.11627 4.55076 0
M  V30 1384 H 194.822 9.9573 2.34194 0
M  V30 1385 H 193.192 9.2792 2.67832 0
M  V30 1386 H 195.831 4.67702 4.28772 0
M  V30 1387 P 197.688 7.39546 4.75277 0
M  V30 1388 O 199.11 7.81777 5.05738 0
M  V30 1389 O 197.328 7.1065 3.32998 0
M  V30 1390 O 197.365 6.04542 5.56673 0
M  V30 1391 C 197.205 6.22772 7.02095 0
M  V30 1392 C 197.745 4.97725 7.70406 0
M  V30 1393 O 196.689 4.13256 7.58987 0
M  V30 1394 C 198.963 4.28231 7.11815 0
M  V30 1395 O 199.701 3.49945 8.01648 0
M  V30 1396 C 198.294 3.5063 5.96244 0
M  V30 1397 O 199.093 2.36482 5.64681 0
M  V30 1398 C 196.957 3.15122 6.56374 0
M  V30 1399 H 196.989 2.13853 6.99751 0
M  V30 1400 H 198.172 4.13501 5.06559 0
M  V30 1401 H 199.656 5.03285 6.70911 0
M  V30 1402 H 197.962 5.20877 8.75697 0
M  V30 1403 H 197.772 7.11046 7.35349 0
M  V30 1404 H 196.142 6.35815 7.26986 0
M  V30 1405 H 198.781 1.61644 6.13565 0
M  V30 1406 P 200.639 3.65191 7.99657 0
M  V30 1407 O 202.04 3.90823 8.51272 0
M  V30 1408 O 200.261 4.23191 6.66972 0
M  V30 1409 O 200.316 2.07587 7.95046 0
M  V30 1410 C 200.156 1.44328 9.27336 0
M  V30 1411 C 200.696 0.0220012 9.17097 0
M  V30 1412 O 199.64 -0.626794 8.61824 0
M  V30 1413 C 201.913 -0.24586 8.30336 0
M  V30 1414 O 202.652 -1.39011 8.63583 0
M  V30 1415 C 201.246 -0.273849 6.91158 0
M  V30 1416 O 202.044 -1.06331 6.02794 0
M  V30 1417 C 199.908 -0.897649 7.22545 0
M  V30 1418 N 198.865 -0.292839 6.41732 0
M  V30 1419 C 197.83 -1.08701 5.98712 0
M  V30 1420 O 197.869 -2.31211 6.24471 0
M  V30 1421 N 196.818 -0.533391 5.28415 0
M  V30 1422 C 196.866 0.770866 4.98576 0
M  V30 1423 C 197.962 1.59049 5.38086 0
M  V30 1424 C 198.928 1.01866 6.10256 0
M  V30 1425 H 199.94 -1.98383 7.04189 0
M  V30 1426 H 201.123 0.733318 6.49674 0
M  V30 1427 H 202.607 0.598386 8.36663 0
M  V30 1428 H 200.913 -0.362662 10.1825 0
M  V30 1429 H 200.722 2.00611 10.0304 0
M  V30 1430 H 199.092 1.41828 9.55228 0
M  V30 1431 H 198.01 2.6415 5.10622 0
M  V30 1432 H 199.774 1.61983 6.44042 0
M  V30 1433 H 201.828 -1.97777 6.14035 0
M  V30 1434 P 203.589 -1.25109 8.70152 0
M  V30 1435 O 205.011 -1.35274 9.21221 0
M  V30 1436 O 203.229 -0.0769065 7.84762 0
M  V30 1437 O 203.266 -2.55232 7.81161 0
M  V30 1438 C 203.106 -3.79939 8.58154 0
M  V30 1439 C 203.646 -4.94023 7.72785 0
M  V30 1440 O 202.59 -5.18726 6.91205 0
M  V30 1441 C 204.864 -4.69597 6.85231 0
M  V30 1442 O 205.602 -5.83832 6.51337 0
M  V30 1443 C 204.195 -3.96706 5.66633 0
M  V30 1444 O 204.994 -4.15414 4.49689 0
M  V30 1445 C 202.858 -4.66153 5.59313 0
M  V30 1446 H 202.89 -5.47679 4.85214 0
M  V30 1447 H 204.073 -2.89008 5.86566 0
M  V30 1448 H 205.557 -4.0121 7.36511 0
M  V30 1449 H 203.863 -5.80182 8.37584 0
M  V30 1450 H 203.673 -3.73517 9.52265 0
M  V30 1451 H 202.043 -3.97163 8.80359 0
M  V30 1452 H 204.682 -4.90969 4.01921 0
M  V30 1453 P 206.54 -5.75688 6.64379 0
M  V30 1454 O 207.961 -6.11915 7.01921 0
M  V30 1455 O 206.18 -4.30744 6.56026 0
M  V30 1456 O 206.217 -6.37042 5.19165 0
M  V30 1457 C 206.056 -7.83662 5.1657 0
M  V30 1458 C 206.597 -8.33398 3.83019 0
M  V30 1459 O 205.542 -8.0998 3.00999 0
M  V30 1460 C 207.815 -7.65514 3.2257 0
M  V30 1461 O 208.553 -8.4329 2.32297 0
M  V30 1462 C 207.147 -6.40075 2.62207 0
M  V30 1463 O 207.945 -5.92338 1.5428 0
M  V30 1464 C 205.809 -6.9454 2.18503 0
M  V30 1465 N 204.766 -5.95905 2.39948 0
M  V30 1466 C 204.935 -4.98383 3.32108 0
M  V30 1467 N 203.908 -4.16798 3.41761 0
M  V30 1468 C 203.023 -4.65287 2.47461 0
M  V30 1469 C 201.756 -4.18946 2.07461 0
M  V30 1470 N 201.157 -3.09661 2.60717 0
M  V30 1471 N 201.191 -4.95327 1.09101 0
M  V30 1472 C 201.793 -6.04369 0.519812 0
M  V30 1473 N 202.97 -6.50694 0.855982 0
M  V30 1474 C 203.545 -5.75818 1.84322 0
M  V30 1475 H 205.841 -7.22964 1.12076 0
M  V30 1476 H 207.024 -5.60502 3.36589 0
M  V30 1477 H 208.507 -7.35707 4.02681 0
M  V30 1478 H 206.813 -9.41302 3.90009 0
M  V30 1479 H 206.623 -8.29056 5.99158 0
M  V30 1480 H 204.993 -8.10073 5.25882 0
M  V30 1481 H 201.257 -6.55843 -0.270373 0
M  V30 1482 H 205.835 -4.88564 3.92502 0
M  V30 1483 H 200.227 -2.80523 2.27218 0
M  V30 1484 H 201.631 -2.55848 3.34465 0
M  V30 1485 H 207.633 -6.30224 0.72668 0
M  V30 1486 P 209.49 -8.4349 2.47671 0
M  V30 1487 O 210.912 -8.94167 2.5964 0
M  V30 1488 O 209.13 -7.1704 3.19006 0
M  V30 1489 O 209.167 -8.16596 0.923387 0
M  V30 1490 C 209.007 -9.38437 0.108857 0
M  V30 1491 C 209.547 -9.08175 -1.28353 0
M  V30 1492 O 208.491 -8.44229 -1.84713 0
M  V30 1493 C 210.765 -8.18386 -1.42505 0
M  V30 1494 O 211.503 -8.3501 -2.60497 0
M  V30 1495 C 210.096 -6.80225 -1.25468 0
M  V30 1496 O 210.895 -5.81621 -1.91066 0
M  V30 1497 C 208.759 -7.02416 -1.9168 0
M  V30 1498 H 208.791 -6.6888 -2.96621 0
M  V30 1499 H 209.974 -6.53617 -0.192223 0
M  V30 1500 H 211.458 -8.36622 -0.589963 0
M  V30 1501 H 209.764 -10.0291 -1.79807 0
M  V30 1502 H 209.574 -10.2138 0.558219 0
M  V30 1503 H 207.944 -9.6579 0.0444202 0
M  V30 1504 H 210.583 -5.69556 -2.79637 0
M  V30 1505 P 212.441 -8.4349 -2.47671 0
M  V30 1506 O 213.863 -8.92593 -2.65 0
M  V30 1507 O 212.081 -7.7568 -1.19296 0
M  V30 1508 O 212.118 -7.36886 -3.63805 0
M  V30 1509 C 211.958 -7.95349 -4.982 0
M  V30 1510 C 212.498 -6.94612 -5.98974 0
M  V30 1511 O 211.442 -6.10347 -6.11815 0
M  V30 1512 C 213.716 -6.11426 -5.62335 0
M  V30 1513 O 214.454 -5.6162 -6.70584 0
M  V30 1514 C 213.047 -5.04409 -4.73308 0
M  V30 1515 O 213.846 -3.85992 -4.75183 0
M  V30 1516 C 211.71 -4.8728 -5.41006 0
M  V30 1517 H 211.742 -4.02333 -6.11157 0
M  V30 1518 H 212.925 -5.39466 -3.69543 0
M  V30 1519 H 214.409 -6.71916 -5.01943 0
M  V30 1520 H 212.715 -7.4649 -6.93477 0
M  V30 1521 H 212.525 -8.89416 -5.05237 0
M  V30 1522 H 210.895 -8.14876 -5.18409 0
M  V30 1523 H 213.534 -3.27957 -5.4317 0
M  V30 1524 P 215.392 -5.75688 -6.64379 0
M  V30 1525 O 216.814 -6.07627 -7.05504 0
M  V30 1526 O 215.032 -5.88047 -5.19722 0
M  V30 1527 O 215.069 -4.2322 -7.04443 0
M  V30 1528 C 214.909 -3.99743 -8.4911 0
M  V30 1529 C 215.449 -2.60516 -8.79425 0
M  V30 1530 O 214.393 -1.82684 -8.4467 0
M  V30 1531 C 216.667 -2.10343 -8.03628 0
M  V30 1532 O 217.405 -1.09919 -8.67766 0
M  V30 1533 C 215.998 -1.68446 -6.70876 0
M  V30 1534 O 216.797 -0.678137 -6.08433 0
M  V30 1535 C 214.661 -1.17436 -7.18567 0
M  V30 1536 H 214.693 -0.0804732 -7.31656 0
M  V30 1537 H 215.876 -2.54037 -6.02537 0
M  V30 1538 H 217.36 -2.93881 -7.85526 0
M  V30 1539 H 215.666 -2.53065 -9.86973 0
M  V30 1540 H 215.476 -4.75072 -9.05887 0
M  V30 1541 H 213.846 -4.05244 -8.76668 0
M  V30 1542 H 216.485 0.177647 -6.34251 0
M  V30 1543 P 218.342 -1.25109 -8.70152 0
M  V30 1544 O 219.764 -1.29744 -9.22016 0
M  V30 1545 O 217.982 -2.13714 -7.55141 0
M  V30 1546 O 218.019 0.248149 -8.21425 0
M  V30 1547 C 217.859 1.22779 -9.30434 0
M  V30 1548 C 218.399 2.56293 -8.80664 0
M  V30 1549 O 217.343 3.02979 -8.09349 0
M  V30 1550 C 219.617 2.57523 -7.89775 0
M  V30 1551 O 220.355 3.7668 -7.89438 0
M  V30 1552 C 218.948 2.20997 -6.55446 0
M  V30 1553 O 219.747 2.71895 -5.48509 0
M  V30 1554 C 217.611 2.89693 -6.67988 0
M  V30 1555 H 217.643 3.88793 -6.19859 0
M  V30 1556 H 218.826 1.12046 -6.44229 0
M  V30 1557 H 220.31 1.7746 -8.19711 0
M  V30 1558 H 218.616 3.20706 -9.67112 0
M  V30 1559 H 218.426 0.901032 -10.1892 0
M  V30 1560 H 216.796 1.33049 -9.56592 0
M  V30 1561 H 219.435 3.57847 -5.23962 0
M  V30 1562 P 221.293 3.65191 -7.99657 0
M  V30 1563 O 222.715 3.89332 -8.45794 0
M  V30 1564 O 220.933 2.28472 -7.50807 0
M  V30 1565 O 220.97 4.64972 -6.77611 0
M  V30 1566 C 220.81 6.06319 -7.16352 0
M  V30 1567 C 221.35 6.91731 -6.02299 0
M  V30 1568 O 220.294 6.92449 -5.17064 0
M  V30 1569 C 222.568 6.43627 -5.25174 0
M  V30 1570 O 223.306 7.43686 -4.60469 0
M  V30 1571 C 221.899 5.40275 -4.31916 0
M  V30 1572 O 222.698 5.25279 -3.14438 0
M  V30 1573 C 220.562 6.04847 -4.05327 0
M  V30 1574 H 220.594 6.62195 -3.11261 0
M  V30 1575 H 221.777 4.42556 -4.81383 0
M  V30 1576 H 223.261 5.92458 -5.93643 0
M  V30 1577 H 221.567 7.92655 -6.402 0
M  V30 1578 H 221.377 6.26671 -8.0846 0
M  V30 1579 H 219.747 6.29101 -7.32804 0
M  V30 1580 H 222.386 5.84315 -2.47318 0
M  V30 1581 P 224.243 7.39546 -4.75277 0
M  V30 1582 O 225.665 7.84798 -5.01039 0
M  V30 1583 O 223.883 5.9812 -5.08098 0
M  V30 1584 O 223.92 7.57503 -3.1866 0
M  V30 1585 C 223.76 8.97357 -2.74833 0
M  V30 1586 C 224.3 9.07548 -1.32709 0
M  V30 1587 O 223.244 8.62072 -0.606159 0
M  V30 1588 C 225.518 8.25383 -0.938334 0
M  V30 1589 O 226.256 8.74577 0.146954 0
M  V30 1590 C 224.849 6.8802 -0.712559 0
M  V30 1591 O 225.648 6.1189 0.194655 0
M  V30 1592 C 223.512 7.27966 -0.139777 0
M  V30 1593 H 223.544 7.25354 0.961601 0
M  V30 1594 H 224.727 6.32557 -1.65702 0
M  V30 1595 H 226.211 8.19355 -1.79097 0
M  V30 1596 H 224.517 10.1294 -1.10029 0
M  V30 1597 H 224.327 9.64276 -3.41316 0
M  V30 1598 H 222.697 9.25417 -2.76357 0
M  V30 1599 H 225.336 6.25267 1.07847 0
M  V30 1600 P 227.194 8.791 4.22174e-13 0
M  V30 1601 O 228.615 9.31196 0.027936 0
M  V30 1602 O 226.834 7.77869 -1.04071 0
M  V30 1603 O 226.871 8.09533 1.41463 0
M  V30 1604 C 226.71 9.03587 2.5397 0
M  V30 1605 C 227.251 8.35226 3.79016 0
M  V30 1606 O 226.196 7.57904 4.1503 0
M  V30 1607 C 228.469 7.45087 3.67298 0
M  V30 1608 O 229.207 7.27796 4.85194 0
M  V30 1609 C 227.801 6.17323 3.12027 0
M  V30 1610 O 228.599 5.04496 3.46627 0
M  V30 1611 C 226.463 6.19961 3.81809 0
M  V30 1612 N 225.42 5.71575 2.93223 0
M  V30 1613 C 225.589 5.77362 1.59168 0
M  V30 1614 N 224.562 5.3123 0.911893 0
M  V30 1615 C 223.677 4.91717 1.89588 0
M  V30 1616 C 222.41 4.3114 1.8076 0
M  V30 1617 N 221.811 3.99821 0.632928 0
M  V30 1618 N 221.845 4.06823 3.02898 0
M  V30 1619 C 222.447 4.35062 4.22711 0
M  V30 1620 N 223.624 4.90805 4.35707 0
M  V30 1621 C 224.199 5.16382 3.14469 0
M  V30 1622 H 226.495 5.58142 4.72986 0
M  V30 1623 H 227.678 6.21428 2.0318 0
M  V30 1624 H 229.161 7.86112 2.9231 0
M  V30 1625 H 227.467 9.11171 4.55987 0
M  V30 1626 H 227.277 9.9573 2.34194 0
M  V30 1627 H 225.647 9.2792 2.67832 0
M  V30 1628 H 221.911 4.09052 5.13359 0
M  V30 1629 H 226.489 6.16575 1.12198 0
M  V30 1630 H 220.881 3.55423 0.632085 0
M  V30 1631 H 222.285 4.20317 -0.256712 0
M  V30 1632 H 228.287 4.67628 4.28704 0
M  V30 1633 P 230.144 7.39546 4.75277 0
M  V30 1634 O 231.566 7.81777 5.05738 0
M  V30 1635 O 229.784 7.1065 3.32998 0
M  V30 1636 O 229.821 6.04542 5.56673 0
M  V30 1637 C 229.661 6.22772 7.02095 0
M  V30 1638 C 230.201 4.97725 7.70406 0
M  V30 1639 O 229.145 4.13256 7.58987 0
M  V30 1640 C 231.419 4.28231 7.11815 0
M  V30 1641 O 232.157 3.49945 8.01648 0
M  V30 1642 C 230.75 3.5063 5.96244 0
M  V30 1643 O 231.549 2.36482 5.64681 0
M  V30 1644 C 229.413 3.15122 6.56374 0
M  V30 1645 H 229.445 2.13853 6.99751 0
M  V30 1646 H 230.628 4.13501 5.06559 0
M  V30 1647 H 232.112 5.03285 6.70911 0
M  V30 1648 H 230.418 5.20877 8.75697 0
M  V30 1649 H 230.228 7.11046 7.35349 0
M  V30 1650 H 228.598 6.35815 7.26986 0
M  V30 1651 H 231.237 1.61644 6.13565 0
M  V30 1652 P 233.095 3.65191 7.99657 0
M  V30 1653 O 234.517 3.8425 8.48115 0
M  V30 1654 O 232.735 4.17805 6.64342 0
M  V30 1655 O 232.772 2.07613 7.95143 0
M  V30 1656 C 232.612 1.44328 9.27336 0
M  V30 1657 C 233.152 0.0220036 9.17197 0
M  V30 1658 O 232.096 -0.626867 8.61923 0
M  V30 1659 C 234.37 -0.24586 8.30336 0
M  V30 1660 O 235.108 -1.39011 8.63583 0
M  V30 1661 C 233.701 -0.273849 6.91158 0
M  V30 1662 O 234.5 -1.06348 6.02892 0
M  V30 1663 C 232.364 -0.897649 7.22545 0
M  V30 1664 H 232.396 -1.9841 7.04286 0
M  V30 1665 H 233.579 0.739928 6.497 0
M  V30 1666 H 235.063 0.60668 8.36503 0
M  V30 1667 H 233.369 -0.352479 10.1829 0
M  V30 1668 H 233.179 2.00611 10.0304 0
M  V30 1669 H 231.549 1.41843 9.55327 0
M  V30 1670 H 234.188 -1.95734 6.03555 0
M  V30 1671 P 236.046 -1.25109 8.70152 0
M  V30 1672 O 237.468 -1.35274 9.21221 0
M  V30 1673 O 235.686 -0.0769065 7.84762 0
M  V30 1674 O 235.723 -2.55232 7.81161 0
M  V30 1675 C 235.563 -3.79939 8.58154 0
M  V30 1676 C 236.103 -4.94023 7.72785 0
M  V30 1677 O 235.047 -5.18726 6.91205 0
M  V30 1678 C 237.321 -4.69597 6.85231 0
M  V30 1679 O 238.059 -5.83832 6.51337 0
M  V30 1680 C 236.652 -3.96706 5.66633 0
M  V30 1681 O 237.451 -4.15414 4.49689 0
M  V30 1682 C 235.315 -4.66153 5.59313 0
M  V30 1683 H 235.347 -5.47679 4.85214 0
M  V30 1684 H 236.53 -2.89008 5.86566 0
M  V30 1685 H 238.014 -4.0121 7.36511 0
M  V30 1686 H 236.32 -5.80182 8.37584 0
M  V30 1687 H 236.13 -3.73517 9.52265 0
M  V30 1688 H 234.5 -3.97163 8.80359 0
M  V30 1689 H 237.139 -4.90969 4.01921 0
M  V30 1690 P 238.996 -5.75688 6.64379 0
M  V30 1691 O 240.418 -6.11849 7.01846 0
M  V30 1692 O 238.636 -4.30744 6.56026 0
M  V30 1693 O 238.673 -6.37042 5.19165 0
M  V30 1694 C 238.513 -7.83578 5.16515 0
M  V30 1695 C 239.053 -8.33398 3.83019 0
M  V30 1696 O 237.997 -8.10074 3.01034 0
M  V30 1697 C 240.271 -7.65514 3.2257 0
M  V30 1698 O 241.009 -8.4329 2.32297 0
M  V30 1699 C 239.602 -6.40075 2.62207 0
M  V30 1700 O 240.401 -5.92589 1.53712 0
M  V30 1701 C 238.265 -6.9454 2.18503 0
M  V30 1702 H 238.297 -7.23063 1.12091 0
M  V30 1703 H 239.48 -5.6025 3.37201 0
M  V30 1704 H 240.964 -7.35707 4.02681 0
M  V30 1705 H 239.27 -9.40912 3.9095 0
M  V30 1706 H 239.08 -8.29056 5.99158 0
M  V30 1707 H 237.45 -8.10073 5.25882 0
M  V30 1708 H 240.089 -6.30324 0.726794 0
M  V30 1709 P 241.947 -8.4349 2.47671 0
M  V30 1710 O 243.369 -8.94167 2.5964 0
M  V30 1711 O 241.587 -7.1704 3.19006 0
M  V30 1712 O 241.624 -8.16596 0.923387 0
M  V30 1713 C 241.464 -9.38437 0.108857 0
M  V30 1714 C 242.004 -9.08175 -1.28353 0
M  V30 1715 O 240.948 -8.44229 -1.84713 0
M  V30 1716 C 243.222 -8.18386 -1.42505 0
M  V30 1717 O 243.96 -8.3501 -2.60497 0
M  V30 1718 C 242.553 -6.80225 -1.25468 0
M  V30 1719 O 243.352 -5.81621 -1.91066 0
M  V30 1720 C 241.216 -7.02416 -1.9168 0
M  V30 1721 H 241.248 -6.6888 -2.96621 0
M  V30 1722 H 242.431 -6.53617 -0.192223 0
M  V30 1723 H 243.915 -8.36622 -0.589963 0
M  V30 1724 H 242.221 -10.0291 -1.79807 0
M  V30 1725 H 242.031 -10.2138 0.558219 0
M  V30 1726 H 240.401 -9.6579 0.0444202 0
M  V30 1727 H 243.04 -5.69556 -2.79637 0
M  V30 1728 P 244.897 -8.4349 -2.47671 0
M  V30 1729 O 246.319 -8.92593 -2.65 0
M  V30 1730 O 244.537 -7.7568 -1.19296 0
M  V30 1731 O 244.574 -7.36886 -3.63805 0
M  V30 1732 C 244.414 -7.95349 -4.982 0
M  V30 1733 C 244.954 -6.94612 -5.98974 0
M  V30 1734 O 243.898 -6.10347 -6.11815 0
M  V30 1735 C 246.172 -6.11426 -5.62335 0
M  V30 1736 O 246.91 -5.6162 -6.70584 0
M  V30 1737 C 245.503 -5.04409 -4.73308 0
M  V30 1738 O 246.302 -3.85992 -4.75183 0
M  V30 1739 C 244.166 -4.8728 -5.41006 0
M  V30 1740 H 244.198 -4.02333 -6.11157 0
M  V30 1741 H 245.381 -5.39466 -3.69543 0
M  V30 1742 H 246.865 -6.71916 -5.01943 0
M  V30 1743 H 245.171 -7.4649 -6.93477 0
M  V30 1744 H 244.981 -8.89416 -5.05237 0
M  V30 1745 H 243.351 -8.14876 -5.18409 0
M  V30 1746 H 245.99 -3.27957 -5.4317 0
M  V30 1747 P 247.848 -5.75688 -6.64379 0
M  V30 1748 O 249.27 -6.07758 -7.05656 0
M  V30 1749 O 247.488 -5.88047 -5.19722 0
M  V30 1750 O 247.525 -4.2322 -7.04443 0
M  V30 1751 C 247.365 -3.99743 -8.4911 0
M  V30 1752 C 247.905 -2.60487 -8.79329 0
M  V30 1753 O 246.85 -1.82684 -8.4467 0
M  V30 1754 C 249.123 -2.10343 -8.03628 0
M  V30 1755 O 249.861 -1.09919 -8.67766 0
M  V30 1756 C 248.455 -1.68446 -6.70876 0
M  V30 1757 O 249.253 -0.678026 -6.08333 0
M  V30 1758 C 247.117 -1.17436 -7.18567 0
M  V30 1759 N 246.074 -1.52699 -6.23988 0
M  V30 1760 C 246.136 -2.68084 -5.57824 0
M  V30 1761 N 245.091 -2.8189 -4.75643 0
M  V30 1762 C 244.357 -1.72373 -4.95155 0
M  V30 1763 C 243.051 -1.37653 -4.44996 0
M  V30 1764 O 242.318 -2.02239 -3.68445 0
M  V30 1765 N 242.621 -0.17675 -4.90782 0
M  V30 1766 C 243.37 0.645036 -5.78716 0
M  V30 1767 N 242.773 1.84214 -6.10618 0
M  V30 1768 N 244.523 0.321732 -6.30279 0
M  V30 1769 C 244.98 -0.87502 -5.86913 0
M  V30 1770 H 247.149 -0.0804732 -7.31656 0
M  V30 1771 H 248.332 -2.53998 -6.02444 0
M  V30 1772 H 249.817 -2.93095 -7.8582 0
M  V30 1773 H 248.122 -2.53065 -9.86973 0
M  V30 1774 H 247.932 -4.75072 -9.05887 0
M  V30 1775 H 246.301 -4.05244 -8.76668 0
M  V30 1776 H 241.725 0.152143 -4.60849 0
M  V30 1777 H 246.932 -3.41852 -5.69006 0
M  V30 1778 H 241.862 2.08538 -5.69521 0
M  V30 1779 H 243.238 2.4895 -6.75698 0
M  V30 1780 H 248.942 0.177619 -6.34151 0
M  V30 1781 P 250.798 -1.25109 -8.70152 0
M  V30 1782 O 252.22 -1.29744 -9.22016 0
M  V30 1783 O 250.438 -2.13714 -7.55141 0
M  V30 1784 O 250.475 0.248149 -8.21425 0
M  V30 1785 C 250.315 1.22779 -9.30434 0
M  V30 1786 C 250.855 2.56293 -8.80664 0
M  V30 1787 O 249.799 3.02979 -8.09349 0
M  V30 1788 C 252.073 2.57523 -7.89775 0
M  V30 1789 O 252.811 3.7668 -7.89438 0
M  V30 1790 C 251.404 2.20997 -6.55446 0
M  V30 1791 O 252.203 2.71895 -5.48509 0
M  V30 1792 C 250.067 2.89693 -6.67988 0
M  V30 1793 H 250.099 3.88793 -6.19859 0
M  V30 1794 H 251.282 1.12046 -6.44229 0
M  V30 1795 H 252.766 1.7746 -8.19711 0
M  V30 1796 H 251.072 3.20706 -9.67112 0
M  V30 1797 H 250.882 0.901032 -10.1892 0
M  V30 1798 H 249.252 1.33049 -9.56592 0
M  V30 1799 H 251.891 3.57847 -5.23962 0
M  V30 1800 P 253.749 3.65191 -7.99657 0
M  V30 1801 O 255.171 3.89332 -8.45794 0
M  V30 1802 O 253.389 2.28472 -7.50807 0
M  V30 1803 O 253.426 4.64972 -6.77611 0
M  V30 1804 C 253.266 6.06319 -7.16352 0
M  V30 1805 C 253.806 6.91731 -6.02299 0
M  V30 1806 O 252.75 6.92449 -5.17064 0
M  V30 1807 C 255.024 6.43627 -5.25174 0
M  V30 1808 O 255.762 7.43686 -4.60469 0
M  V30 1809 C 254.355 5.40275 -4.31916 0
M  V30 1810 O 255.154 5.25279 -3.14438 0
M  V30 1811 C 253.018 6.04847 -4.05327 0
M  V30 1812 H 253.05 6.62195 -3.11261 0
M  V30 1813 H 254.233 4.42556 -4.81383 0
M  V30 1814 H 255.717 5.92458 -5.93643 0
M  V30 1815 H 254.023 7.92655 -6.402 0
M  V30 1816 H 253.833 6.26671 -8.0846 0
M  V30 1817 H 252.203 6.29101 -7.32804 0
M  V30 1818 H 254.842 5.84315 -2.47318 0
M  V30 1819 P 256.7 7.39546 -4.75277 0
M  V30 1820 O 258.122 7.84798 -5.01039 0
M  V30 1821 O 256.34 5.9812 -5.08098 0
M  V30 1822 O 256.377 7.57503 -3.1866 0
M  V30 1823 C 256.217 8.97357 -2.74833 0
M  V30 1824 C 256.757 9.07548 -1.32709 0
M  V30 1825 O 255.701 8.62072 -0.606159 0
M  V30 1826 C 257.975 8.25383 -0.938334 0
M  V30 1827 O 258.713 8.74577 0.146954 0
M  V30 1828 C 257.306 6.8802 -0.712559 0
M  V30 1829 O 258.105 6.1189 0.194655 0
M  V30 1830 C 255.969 7.27966 -0.139777 0
M  V30 1831 H 256.001 7.25354 0.961601 0
M  V30 1832 H 257.184 6.32557 -1.65702 0
M  V30 1833 H 258.668 8.19355 -1.79097 0
M  V30 1834 H 256.974 10.1294 -1.10029 0
M  V30 1835 H 256.784 9.64276 -3.41316 0
M  V30 1836 H 255.154 9.25417 -2.76357 0
M  V30 1837 H 257.793 6.25267 1.07847 0
M  V30 1838 P 259.65 8.791 7.3234e-13 0
M  V30 1839 O 261.072 9.31096 0.027933 0
M  V30 1840 O 259.29 7.77869 -1.04071 0
M  V30 1841 O 259.327 8.09533 1.41463 0
M  V30 1842 C 259.167 9.0349 2.53943 0
M  V30 1843 C 259.707 8.35226 3.79016 0
M  V30 1844 O 258.651 7.57992 4.15078 0
M  V30 1845 C 260.925 7.45087 3.67298 0
M  V30 1846 O 261.663 7.27796 4.85194 0
M  V30 1847 C 260.256 6.17323 3.12027 0
M  V30 1848 O 261.055 5.04231 3.47188 0
M  V30 1849 C 258.919 6.19961 3.81809 0
M  V30 1850 H 258.951 5.58218 4.73051 0
M  V30 1851 H 260.134 6.21726 2.02589 0
M  V30 1852 H 261.618 7.86112 2.9231 0
M  V30 1853 H 259.924 9.11627 4.55076 0
M  V30 1854 H 259.734 9.9573 2.34194 0
M  V30 1855 H 258.104 9.2792 2.67832 0
M  V30 1856 H 260.743 4.67702 4.28772 0
M  V30 1857 P 262.601 7.39546 4.75277 0
M  V30 1858 O 264.023 7.81777 5.05738 0
M  V30 1859 O 262.241 7.1065 3.32998 0
M  V30 1860 O 262.278 6.04542 5.56673 0
M  V30 1861 C 262.118 6.22772 7.02095 0
M  V30 1862 C 262.658 4.97725 7.70406 0
M  V30 1863 O 261.602 4.13256 7.58987 0
M  V30 1864 C 263.876 4.28231 7.11815 0
M  V30 1865 O 264.614 3.49945 8.01648 0
M  V30 1866 C 263.207 3.5063 5.96244 0
M  V30 1867 O 264.006 2.36482 5.64681 0
M  V30 1868 C 261.87 3.15122 6.56374 0
M  V30 1869 H 261.902 2.13853 6.99751 0
M  V30 1870 H 263.085 4.13501 5.06559 0
M  V30 1871 H 264.569 5.03285 6.70911 0
M  V30 1872 H 262.875 5.20877 8.75697 0
M  V30 1873 H 262.685 7.11046 7.35349 0
M  V30 1874 H 261.055 6.35815 7.26986 0
M  V30 1875 H 263.694 1.61644 6.13565 0
M  V30 1876 P 265.551 3.65191 7.99657 0
M  V30 1877 O 266.972 3.84292 8.48206 0
M  V30 1878 O 265.191 4.17805 6.64342 0
M  V30 1879 O 265.228 2.07613 7.95143 0
M  V30 1880 C 265.067 1.44344 9.27435 0
M  V30 1881 C 265.608 0.0220036 9.17197 0
M  V30 1882 O 264.553 -0.626794 8.61824 0
M  V30 1883 C 266.826 -0.24586 8.30336 0
M  V30 1884 O 267.564 -1.39011 8.63583 0
M  V30 1885 C 266.158 -0.273849 6.91158 0
M  V30 1886 O 266.956 -1.05728 6.029 0
M  V30 1887 C 264.82 -0.897649 7.22545 0
M  V30 1888 N 263.777 -0.292839 6.41732 0
M  V30 1889 C 263.946 0.950603 5.91308 0
M  V30 1890 N 262.919 1.37732 5.21105 0
M  V30 1891 C 262.034 0.318109 5.26039 0
M  V30 1892 C 260.767 0.146766 4.6727 0
M  V30 1893 N 260.168 1.08519 3.89983 0
M  V30 1894 N 260.202 -1.06525 4.95887 0
M  V30 1895 C 260.804 -2.0378 5.71347 0
M  V30 1896 N 261.981 -1.92445 6.27451 0
M  V30 1897 C 262.556 -0.715382 6.00353 0
M  V30 1898 H 264.852 -1.98383 7.04189 0
M  V30 1899 H 266.035 0.733318 6.49674 0
M  V30 1900 H 267.518 0.60668 8.36503 0
M  V30 1901 H 265.824 -0.362662 10.1825 0
M  V30 1902 H 265.634 2.00611 10.0304 0
M  V30 1903 H 264.004 1.41843 9.55327 0
M  V30 1904 H 260.268 -2.97041 5.85344 0
M  V30 1905 H 264.846 1.54076 6.07465 0
M  V30 1906 H 259.238 0.901517 3.49562 0
M  V30 1907 H 260.642 1.97957 3.71669 0
M  V30 1908 H 266.644 -1.95704 6.0346 0
M  V30 1909 P 268.502 -1.25109 8.70152 0
M  V30 1910 O 269.924 -1.35274 9.21221 0
M  V30 1911 O 268.142 -0.0769065 7.84762 0
M  V30 1912 O 268.179 -2.55232 7.81161 0
M  V30 1913 C 268.019 -3.79939 8.58154 0
M  V30 1914 C 268.559 -4.94023 7.72785 0
M  V30 1915 O 267.503 -5.18726 6.91205 0
M  V30 1916 C 269.777 -4.69597 6.85231 0
M  V30 1917 O 270.515 -5.83832 6.51337 0
M  V30 1918 C 269.108 -3.96706 5.66633 0
M  V30 1919 O 269.907 -4.15414 4.49689 0
M  V30 1920 C 267.771 -4.66153 5.59313 0
M  V30 1921 H 267.803 -5.47679 4.85214 0
M  V30 1922 H 268.986 -2.89008 5.86566 0
M  V30 1923 H 270.47 -4.0121 7.36511 0
M  V30 1924 H 268.776 -5.80182 8.37584 0
M  V30 1925 H 268.586 -3.73517 9.52265 0
M  V30 1926 H 266.956 -3.97163 8.80359 0
M  V30 1927 H 269.595 -4.90969 4.01921 0
M  V30 1928 P 271.452 -5.75688 6.64379 0
M  V30 1929 O 272.873 -6.11915 7.01921 0
M  V30 1930 O 271.092 -4.30744 6.56026 0
M  V30 1931 O 271.129 -6.37042 5.19165 0
M  V30 1932 C 270.968 -7.83662 5.1657 0
M  V30 1933 C 271.509 -8.33398 3.83019 0
M  V30 1934 O 270.454 -8.0998 3.00999 0
M  V30 1935 C 272.727 -7.65514 3.2257 0
M  V30 1936 O 273.465 -8.4329 2.32297 0
M  V30 1937 C 272.059 -6.40075 2.62207 0
M  V30 1938 O 272.857 -5.92338 1.5428 0
M  V30 1939 C 270.721 -6.9454 2.18503 0
M  V30 1940 N 269.678 -5.95905 2.39948 0
M  V30 1941 C 269.847 -4.98383 3.32108 0
M  V30 1942 N 268.82 -4.16798 3.41761 0
M  V30 1943 C 267.935 -4.65287 2.47461 0
M  V30 1944 C 266.668 -4.18946 2.07461 0
M  V30 1945 N 266.069 -3.09661 2.60717 0
M  V30 1946 N 266.103 -4.95327 1.09101 0
M  V30 1947 C 266.705 -6.04369 0.519812 0
M  V30 1948 N 267.882 -6.50694 0.855982 0
M  V30 1949 C 268.457 -5.75818 1.84322 0
M  V30 1950 H 270.753 -7.22964 1.12076 0
M  V30 1951 H 271.936 -5.60502 3.36589 0
M  V30 1952 H 273.419 -7.35707 4.02681 0
M  V30 1953 H 271.725 -9.41302 3.90009 0
M  V30 1954 H 271.535 -8.29056 5.99158 0
M  V30 1955 H 269.905 -8.10073 5.25882 0
M  V30 1956 H 266.169 -6.55843 -0.270373 0
M  V30 1957 H 270.747 -4.88564 3.92502 0
M  V30 1958 H 265.139 -2.80523 2.27218 0
M  V30 1959 H 266.543 -2.55848 3.34465 0
M  V30 1960 H 272.545 -6.30224 0.72668 0
M  V30 1961 P 274.403 -8.4349 2.47671 0
M  V30 1962 O 275.825 -8.94167 2.5964 0
M  V30 1963 O 274.043 -7.1704 3.19006 0
M  V30 1964 O 274.08 -8.16596 0.923387 0
M  V30 1965 C 273.92 -9.38437 0.108857 0
M  V30 1966 C 274.46 -9.08175 -1.28353 0
M  V30 1967 O 273.404 -8.44229 -1.84713 0
M  V30 1968 C 275.678 -8.18386 -1.42505 0
M  V30 1969 O 276.416 -8.3501 -2.60497 0
M  V30 1970 C 275.009 -6.80225 -1.25468 0
M  V30 1971 O 275.808 -5.81621 -1.91066 0
M  V30 1972 C 273.672 -7.02416 -1.9168 0
M  V30 1973 H 273.704 -6.6888 -2.96621 0
M  V30 1974 H 274.887 -6.53617 -0.192223 0
M  V30 1975 H 276.371 -8.36622 -0.589963 0
M  V30 1976 H 274.677 -10.0291 -1.79807 0
M  V30 1977 H 274.487 -10.2138 0.558219 0
M  V30 1978 H 272.857 -9.6579 0.0444202 0
M  V30 1979 H 275.496 -5.69556 -2.79637 0
M  V30 1980 P 277.354 -8.4349 -2.47671 0
M  V30 1981 O 278.776 -8.92593 -2.65 0
M  V30 1982 O 276.994 -7.7568 -1.19296 0
M  V30 1983 O 277.031 -7.36886 -3.63805 0
M  V30 1984 C 276.871 -7.95349 -4.982 0
M  V30 1985 C 277.411 -6.94612 -5.98974 0
M  V30 1986 O 276.355 -6.10347 -6.11815 0
M  V30 1987 C 278.629 -6.11426 -5.62335 0
M  V30 1988 O 279.367 -5.6162 -6.70584 0
M  V30 1989 C 277.96 -5.04409 -4.73308 0
M  V30 1990 O 278.759 -3.85992 -4.75183 0
M  V30 1991 C 276.623 -4.8728 -5.41006 0
M  V30 1992 H 276.655 -4.02333 -6.11157 0
M  V30 1993 H 277.838 -5.39466 -3.69543 0
M  V30 1994 H 279.322 -6.71916 -5.01943 0
M  V30 1995 H 277.628 -7.4649 -6.93477 0
M  V30 1996 H 277.438 -8.89416 -5.05237 0
M  V30 1997 H 275.808 -8.14876 -5.18409 0
M  V30 1998 H 278.447 -3.27957 -5.4317 0
M  V30 1999 P 280.304 -5.75688 -6.64379 0
M  V30 2000 O 281.726 -6.07627 -7.05504 0
M  V30 2001 O 279.944 -5.88047 -5.19722 0
M  V30 2002 O 279.981 -4.2322 -7.04443 0
M  V30 2003 C 279.821 -3.99743 -8.4911 0
M  V30 2004 C 280.361 -2.60516 -8.79425 0
M  V30 2005 O 279.305 -1.82684 -8.4467 0
M  V30 2006 C 281.579 -2.10343 -8.03628 0
M  V30 2007 O 282.317 -1.09919 -8.67766 0
M  V30 2008 C 280.91 -1.68446 -6.70876 0
M  V30 2009 O 281.709 -0.678137 -6.08433 0
M  V30 2010 C 279.573 -1.17436 -7.18567 0
M  V30 2011 H 279.605 -0.0804732 -7.31656 0
M  V30 2012 H 280.788 -2.54037 -6.02537 0
M  V30 2013 H 282.272 -2.93881 -7.85526 0
M  V30 2014 H 280.578 -2.53065 -9.86973 0
M  V30 2015 H 280.388 -4.75072 -9.05887 0
M  V30 2016 H 278.758 -4.05244 -8.76668 0
M  V30 2017 H 281.397 0.177647 -6.34251 0
M  V30 2018 P 283.255 -1.25109 -8.70152 0
M  V30 2019 O 284.677 -1.29744 -9.22016 0
M  V30 2020 O 282.895 -2.13714 -7.55141 0
M  V30 2021 O 282.932 0.248149 -8.21425 0
M  V30 2022 C 282.772 1.22779 -9.30434 0
M  V30 2023 C 283.312 2.56293 -8.80664 0
M  V30 2024 O 282.256 3.02979 -8.09349 0
M  V30 2025 C 284.53 2.57523 -7.89775 0
M  V30 2026 O 285.268 3.7668 -7.89438 0
M  V30 2027 C 283.861 2.20997 -6.55446 0
M  V30 2028 O 284.66 2.71895 -5.48509 0
M  V30 2029 C 282.524 2.89693 -6.67988 0
M  V30 2030 H 282.556 3.88793 -6.19859 0
M  V30 2031 H 283.739 1.12046 -6.44229 0
M  V30 2032 H 285.223 1.7746 -8.19711 0
M  V30 2033 H 283.529 3.20706 -9.67112 0
M  V30 2034 H 283.339 0.901032 -10.1892 0
M  V30 2035 H 281.709 1.33049 -9.56592 0
M  V30 2036 H 284.348 3.57847 -5.23962 0
M  V30 2037 P 286.205 3.65191 -7.99657 0
M  V30 2038 O 287.627 3.89332 -8.45794 0
M  V30 2039 O 285.845 2.28472 -7.50807 0
M  V30 2040 O 285.882 4.64972 -6.77611 0
M  V30 2041 C 285.722 6.06319 -7.16352 0
M  V30 2042 C 286.262 6.91731 -6.02299 0
M  V30 2043 O 285.206 6.92449 -5.17064 0
M  V30 2044 C 287.48 6.43627 -5.25174 0
M  V30 2045 O 288.218 7.43686 -4.60469 0
M  V30 2046 C 286.811 5.40275 -4.31916 0
M  V30 2047 O 287.61 5.25279 -3.14438 0
M  V30 2048 C 285.474 6.04847 -4.05327 0
M  V30 2049 H 285.506 6.62195 -3.11261 0
M  V30 2050 H 286.689 4.42556 -4.81383 0
M  V30 2051 H 288.173 5.92458 -5.93643 0
M  V30 2052 H 286.479 7.92655 -6.402 0
M  V30 2053 H 286.289 6.26671 -8.0846 0
M  V30 2054 H 284.659 6.29101 -7.32804 0
M  V30 2055 H 287.298 5.84315 -2.47318 0
M  V30 2056 P 289.156 7.39546 -4.75277 0
M  V30 2057 O 290.578 7.84798 -5.01039 0
M  V30 2058 O 288.796 5.9812 -5.08098 0
M  V30 2059 O 288.833 7.57503 -3.1866 0
M  V30 2060 C 288.673 8.97357 -2.74833 0
M  V30 2061 C 289.213 9.07548 -1.32709 0
M  V30 2062 O 288.157 8.62072 -0.606159 0
M  V30 2063 C 290.431 8.25383 -0.938334 0
M  V30 2064 O 291.169 8.74577 0.146954 0
M  V30 2065 C 289.762 6.8802 -0.712559 0
M  V30 2066 O 290.561 6.1189 0.194655 0
M  V30 2067 C 288.425 7.27966 -0.139777 0
M  V30 2068 H 288.457 7.25354 0.961601 0
M  V30 2069 H 289.64 6.32557 -1.65702 0
M  V30 2070 H 291.124 8.19355 -1.79097 0
M  V30 2071 H 289.43 10.1294 -1.10029 0
M  V30 2072 H 289.24 9.64276 -3.41316 0
M  V30 2073 H 287.61 9.25417 -2.76357 0
M  V30 2074 H 290.249 6.25267 1.07847 0
M  V30 2075 P 292.106 8.791 1.04251e-12 0
M  V30 2076 O 293.528 9.31096 0.027933 0
M  V30 2077 O 291.746 7.77869 -1.04071 0
M  V30 2078 O 291.783 8.09533 1.41463 0
M  V30 2079 C 291.623 9.0349 2.53943 0
M  V30 2080 C 292.163 8.35226 3.79016 0
M  V30 2081 O 291.107 7.57992 4.15078 0
M  V30 2082 C 293.381 7.45087 3.67298 0
M  V30 2083 O 294.119 7.27796 4.85194 0
M  V30 2084 C 292.712 6.17323 3.12027 0
M  V30 2085 O 293.511 5.04231 3.47188 0
M  V30 2086 C 291.375 6.19961 3.81809 0
M  V30 2087 H 291.407 5.58218 4.73051 0
M  V30 2088 H 292.59 6.21726 2.02589 0
M  V30 2089 H 294.074 7.86112 2.9231 0
M  V30 2090 H 292.38 9.11627 4.55076 0
M  V30 2091 H 292.19 9.9573 2.34194 0
M  V30 2092 H 290.56 9.2792 2.67832 0
M  V30 2093 H 293.199 4.67702 4.28772 0
M  V30 2094 P 295.057 7.39546 4.75277 0
M  V30 2095 O 296.478 7.81861 5.05793 0
M  V30 2096 O 294.697 7.1065 3.32998 0
M  V30 2097 O 294.734 6.04542 5.56673 0
M  V30 2098 C 294.573 6.22839 7.02169 0
M  V30 2099 C 295.114 4.97725 7.70406 0
M  V30 2100 O 294.059 4.13208 7.58899 0
M  V30 2101 C 296.332 4.28231 7.11815 0
M  V30 2102 O 297.07 3.49945 8.01648 0
M  V30 2103 C 295.664 3.5063 5.96244 0
M  V30 2104 O 296.462 2.37008 5.64352 0
M  V30 2105 C 294.326 3.15122 6.56374 0
M  V30 2106 N 293.283 3.22311 5.55692 0
M  V30 2107 C 293.452 3.99655 4.46046 0
M  V30 2108 N 292.425 3.97599 3.63918 0
M  V30 2109 C 291.54 3.11159 4.25334 0
M  V30 2110 C 290.273 2.64972 3.85157 0
M  V30 2111 N 289.674 3.02132 2.69405 0
M  V30 2112 N 289.708 1.78482 4.74759 0
M  V30 2113 C 290.31 1.37463 5.90819 0
M  V30 2114 N 291.487 1.7733 6.31889 0
M  V30 2115 C 292.062 2.64393 5.43725 0
M  V30 2116 H 294.358 2.13823 6.99656 0
M  V30 2117 H 295.541 4.12931 5.06895 0
M  V30 2118 H 297.024 5.03285 6.70911 0
M  V30 2119 H 295.33 5.20001 8.76217 0
M  V30 2120 H 295.14 7.11046 7.35349 0
M  V30 2121 H 293.51 6.35815 7.26986 0
M  V30 2122 H 289.774 0.66574 6.53015 0
M  V30 2123 H 294.352 4.58037 4.27732 0
M  V30 2124 H 288.744 2.64828 2.45331 0
M  V30 2125 H 290.148 3.67472 2.05644 0
M  V30 2126 H 296.15 1.61619 6.13468 0
M  V30 2127 P 298.008 3.65191 7.99657 0
M  V30 2128 O 299.43 3.8425 8.48115 0
M  V30 2129 O 297.648 4.17805 6.64342 0
M  V30 2130 O 297.685 2.07613 7.95143 0
M  V30 2131 C 297.525 1.44328 9.27336 0
M  V30 2132 C 298.065 0.0220036 9.17197 0
M  V30 2133 O 297.009 -0.626867 8.61923 0
M  V30 2134 C 299.283 -0.24586 8.30336 0
M  V30 2135 O 300.021 -1.39011 8.63583 0
M  V30 2136 C 298.614 -0.273849 6.91158 0
M  V30 2137 O 299.413 -1.06348 6.02892 0
M  V30 2138 C 297.277 -0.897649 7.22545 0
M  V30 2139 H 297.309 -1.9841 7.04286 0
M  V30 2140 H 298.492 0.739928 6.497 0
M  V30 2141 H 299.976 0.60668 8.36503 0
M  V30 2142 H 298.282 -0.352479 10.1829 0
M  V30 2143 H 298.092 2.00611 10.0304 0
M  V30 2144 H 296.462 1.41843 9.55327 0
M  V30 2145 H 299.101 -1.95734 6.03555 0
M  V30 2146 P 300.958 -1.25109 8.70152 0
M  V30 2147 O 302.38 -1.35274 9.21221 0
M  V30 2148 O 300.598 -0.0769065 7.84762 0
M  V30 2149 O 300.635 -2.55232 7.81161 0
M  V30 2150 C 300.475 -3.79939 8.58154 0
M  V30 2151 C 301.015 -4.94023 7.72785 0
M  V30 2152 O 299.959 -5.18726 6.91205 0
M  V30 2153 C 302.233 -4.69597 6.85231 0
M  V30 2154 O 302.971 -5.83832 6.51337 0
M  V30 2155 C 301.564 -3.96706 5.66633 0
M  V30 2156 O 302.363 -4.15414 4.49689 0
M  V30 2157 C 300.227 -4.66153 5.59313 0
M  V30 2158 H 300.259 -5.47679 4.85214 0
M  V30 2159 H 301.442 -2.89008 5.86566 0
M  V30 2160 H 302.926 -4.0121 7.36511 0
M  V30 2161 H 301.232 -5.80182 8.37584 0
M  V30 2162 H 301.042 -3.73517 9.52265 0
M  V30 2163 H 299.412 -3.97163 8.80359 0
M  V30 2164 H 302.051 -4.90969 4.01921 0
M  V30 2165 P 303.909 -5.75688 6.64379 0
M  V30 2166 O 305.331 -6.11849 7.01846 0
M  V30 2167 O 303.549 -4.30744 6.56026 0
M  V30 2168 O 303.586 -6.37042 5.19165 0
M  V30 2169 C 303.426 -7.83578 5.16515 0
M  V30 2170 C 303.966 -8.33398 3.83019 0
M  V30 2171 O 302.91 -8.10074 3.01034 0
M  V30 2172 C 305.184 -7.65514 3.2257 0
M  V30 2173 O 305.922 -8.4329 2.32297 0
M  V30 2174 C 304.515 -6.40075 2.62207 0
M  V30 2175 O 305.314 -5.92589 1.53712 0
M  V30 2176 C 303.178 -6.9454 2.18503 0
M  V30 2177 H 303.21 -7.23063 1.12091 0
M  V30 2178 H 304.393 -5.6025 3.37201 0
M  V30 2179 H 305.877 -7.35707 4.02681 0
M  V30 2180 H 304.183 -9.40912 3.9095 0
M  V30 2181 H 303.993 -8.29056 5.99158 0
M  V30 2182 H 302.363 -8.10073 5.25882 0
M  V30 2183 H 305.002 -6.30324 0.726794 0
M  V30 2184 P 306.859 -8.4349 2.47671 0
M  V30 2185 O 308.281 -8.94167 2.5964 0
M  V30 2186 O 306.499 -7.1704 3.19006 0
M  V30 2187 O 306.536 -8.16596 0.923387 0
M  V30 2188 C 306.376 -9.38437 0.108857 0
M  V30 2189 C 306.916 -9.08175 -1.28353 0
M  V30 2190 O 305.86 -8.44229 -1.84713 0
M  V30 2191 C 308.134 -8.18386 -1.42505 0
M  V30 2192 O 308.872 -8.3501 -2.60497 0
M  V30 2193 C 307.465 -6.80225 -1.25468 0
M  V30 2194 O 308.264 -5.81621 -1.91066 0
M  V30 2195 C 306.128 -7.02416 -1.9168 0
M  V30 2196 H 306.16 -6.6888 -2.96621 0
M  V30 2197 H 307.343 -6.53617 -0.192223 0
M  V30 2198 H 308.827 -8.36622 -0.589963 0
M  V30 2199 H 307.133 -10.0291 -1.79807 0
M  V30 2200 H 306.943 -10.2138 0.558219 0
M  V30 2201 H 305.313 -9.6579 0.0444202 0
M  V30 2202 H 307.952 -5.69556 -2.79637 0
M  V30 2203 P 309.81 -8.4349 -2.47671 0
M  V30 2204 O 311.232 -8.92593 -2.65 0
M  V30 2205 O 309.45 -7.7568 -1.19296 0
M  V30 2206 O 309.487 -7.36886 -3.63805 0
M  V30 2207 C 309.327 -7.95349 -4.982 0
M  V30 2208 C 309.867 -6.94612 -5.98974 0
M  V30 2209 O 308.811 -6.10347 -6.11815 0
M  V30 2210 C 311.085 -6.11426 -5.62335 0
M  V30 2211 O 311.823 -5.6162 -6.70584 0
M  V30 2212 C 310.416 -5.04409 -4.73308 0
M  V30 2213 O 311.215 -3.85992 -4.75183 0
M  V30 2214 C 309.079 -4.8728 -5.41006 0
M  V30 2215 H 309.111 -4.02333 -6.11157 0
M  V30 2216 H 310.294 -5.39466 -3.69543 0
M  V30 2217 H 311.778 -6.71916 -5.01943 0
M  V30 2218 H 310.084 -7.4649 -6.93477 0
M  V30 2219 H 309.894 -8.89416 -5.05237 0
M  V30 2220 H 308.264 -8.14876 -5.18409 0
M  V30 2221 H 310.903 -3.27957 -5.4317 0
M  V30 2222 P 312.76 -5.75688 -6.64379 0
M  V30 2223 O 314.182 -6.07627 -7.05504 0
M  V30 2224 O 312.4 -5.88047 -5.19722 0
M  V30 2225 O 312.437 -4.2322 -7.04443 0
M  V30 2226 C 312.277 -3.99743 -8.4911 0
M  V30 2227 C 312.817 -2.60516 -8.79425 0
M  V30 2228 O 311.761 -1.82684 -8.4467 0
M  V30 2229 C 314.035 -2.10343 -8.03628 0
M  V30 2230 O 314.773 -1.09919 -8.67766 0
M  V30 2231 C 313.366 -1.68446 -6.70876 0
M  V30 2232 O 314.165 -0.678137 -6.08433 0
M  V30 2233 C 312.029 -1.17436 -7.18567 0
M  V30 2234 H 312.061 -0.0804732 -7.31656 0
M  V30 2235 H 313.244 -2.54037 -6.02537 0
M  V30 2236 H 314.728 -2.93881 -7.85526 0
M  V30 2237 H 313.034 -2.53065 -9.86973 0
M  V30 2238 H 312.844 -4.75072 -9.05887 0
M  V30 2239 H 311.214 -4.05244 -8.76668 0
M  V30 2240 H 313.853 0.177647 -6.34251 0
M  V30 2241 P 315.711 -1.25109 -8.70152 0
M  V30 2242 O 317.133 -1.29744 -9.22016 0
M  V30 2243 O 315.351 -2.13714 -7.55141 0
M  V30 2244 O 315.388 0.248149 -8.21425 0
M  V30 2245 C 315.228 1.22779 -9.30434 0
M  V30 2246 C 315.768 2.56293 -8.80664 0
M  V30 2247 O 314.712 3.02979 -8.09349 0
M  V30 2248 C 316.986 2.57523 -7.89775 0
M  V30 2249 O 317.724 3.7668 -7.89438 0
M  V30 2250 C 316.317 2.20997 -6.55446 0
M  V30 2251 O 317.116 2.71895 -5.48509 0
M  V30 2252 C 314.98 2.89693 -6.67988 0
M  V30 2253 H 315.012 3.88793 -6.19859 0
M  V30 2254 H 316.195 1.12046 -6.44229 0
M  V30 2255 H 317.679 1.7746 -8.19711 0
M  V30 2256 H 315.985 3.20706 -9.67112 0
M  V30 2257 H 315.795 0.901032 -10.1892 0
M  V30 2258 H 314.165 1.33049 -9.56592 0
M  V30 2259 H 316.804 3.57847 -5.23962 0
M  V30 2260 P 318.662 3.65191 -7.99657 0
M  V30 2261 O 320.084 3.89332 -8.45794 0
M  V30 2262 O 318.302 2.28472 -7.50807 0
M  V30 2263 O 318.339 4.64972 -6.77611 0
M  V30 2264 C 318.179 6.06319 -7.16352 0
M  V30 2265 C 318.719 6.91731 -6.02299 0
M  V30 2266 O 317.663 6.92449 -5.17064 0
M  V30 2267 C 319.937 6.43627 -5.25174 0
M  V30 2268 O 320.675 7.43686 -4.60469 0
M  V30 2269 C 319.268 5.40275 -4.31916 0
M  V30 2270 O 320.067 5.25279 -3.14438 0
M  V30 2271 C 317.931 6.04847 -4.05327 0
M  V30 2272 H 317.963 6.62195 -3.11261 0
M  V30 2273 H 319.146 4.42556 -4.81383 0
M  V30 2274 H 320.63 5.92458 -5.93643 0
M  V30 2275 H 318.936 7.92655 -6.402 0
M  V30 2276 H 318.746 6.26671 -8.0846 0
M  V30 2277 H 317.116 6.29101 -7.32804 0
M  V30 2278 H 319.755 5.84315 -2.47318 0
M  V30 2279 P 321.612 7.39546 -4.75277 0
M  V30 2280 O 323.034 7.84798 -5.01039 0
M  V30 2281 O 321.252 5.9812 -5.08098 0
M  V30 2282 O 321.289 7.57503 -3.1866 0
M  V30 2283 C 321.129 8.97357 -2.74833 0
M  V30 2284 C 321.669 9.07548 -1.32709 0
M  V30 2285 O 320.613 8.62072 -0.606159 0
M  V30 2286 C 322.887 8.25383 -0.938334 0
M  V30 2287 O 323.625 8.74577 0.146954 0
M  V30 2288 C 322.218 6.8802 -0.712559 0
M  V30 2289 O 323.017 6.1189 0.194655 0
M  V30 2290 C 320.881 7.27966 -0.139777 0
M  V30 2291 H 320.913 7.25354 0.961601 0
M  V30 2292 H 322.096 6.32557 -1.65702 0
M  V30 2293 H 323.58 8.19355 -1.79097 0
M  V30 2294 H 321.886 10.1294 -1.10029 0
M  V30 2295 H 321.696 9.64276 -3.41316 0
M  V30 2296 H 320.066 9.25417 -2.76357 0
M  V30 2297 H 322.705 6.25267 1.07847 0
M  V30 2298 P 324.563 8.791 1.35267e-12 0
M  V30 2299 O 325.985 9.31096 0.027933 0
M  V30 2300 O 324.203 7.77869 -1.04071 0
M  V30 2301 O 324.24 8.09533 1.41463 0
M  V30 2302 C 324.08 9.0349 2.53943 0
M  V30 2303 C 324.62 8.35226 3.79016 0
M  V30 2304 O 323.564 7.57992 4.15078 0
M  V30 2305 C 325.838 7.45087 3.67298 0
M  V30 2306 O 326.576 7.27796 4.85194 0
M  V30 2307 C 325.169 6.17323 3.12027 0
M  V30 2308 O 325.968 5.04231 3.47188 0
M  V30 2309 C 323.832 6.19961 3.81809 0
M  V30 2310 H 323.864 5.58218 4.73051 0
M  V30 2311 H 325.047 6.21726 2.02589 0
M  V30 2312 H 326.531 7.86112 2.9231 0
M  V30 2313 H 324.837 9.11627 4.55076 0
M  V30 2314 H 324.647 9.9573 2.34194 0
M  V30 2315 H 323.017 9.2792 2.67832 0
M  V30 2316 H 325.656 4.67702 4.28772 0
M  V30 2317 P 327.513 7.39546 4.75277 0
M  V30 2318 O 328.935 7.81777 5.05738 0
M  V30 2319 O 327.153 7.1065 3.32998 0
M  V30 2320 O 327.19 6.04542 5.56673 0
M  V30 2321 C 327.03 6.22772 7.02095 0
M  V30 2322 C 327.57 4.97725 7.70406 0
M  V30 2323 O 326.514 4.13256 7.58987 0
M  V30 2324 C 328.788 4.28231 7.11815 0
M  V30 2325 O 329.526 3.49945 8.01648 0
M  V30 2326 C 328.119 3.5063 5.96244 0
M  V30 2327 O 328.918 2.36482 5.64681 0
M  V30 2328 C 326.782 3.15122 6.56374 0
M  V30 2329 H 326.814 2.13853 6.99751 0
M  V30 2330 H 327.997 4.13501 5.06559 0
M  V30 2331 H 329.481 5.03285 6.70911 0
M  V30 2332 H 327.787 5.20877 8.75697 0
M  V30 2333 H 327.597 7.11046 7.35349 0
M  V30 2334 H 325.967 6.35815 7.26986 0
M  V30 2335 H 328.606 1.61644 6.13565 0
M  V30 2336 P 330.464 3.65191 7.99657 0
M  V30 2337 O 331.886 3.8425 8.48115 0
M  V30 2338 O 330.104 4.17805 6.64342 0
M  V30 2339 O 330.141 2.07613 7.95143 0
M  V30 2340 C 329.981 1.44328 9.27336 0
M  V30 2341 C 330.521 0.0220036 9.17197 0
M  V30 2342 O 329.465 -0.626867 8.61923 0
M  V30 2343 C 331.739 -0.24586 8.30336 0
M  V30 2344 O 332.477 -1.39011 8.63583 0
M  V30 2345 C 331.07 -0.273849 6.91158 0
M  V30 2346 O 331.869 -1.06348 6.02892 0
M  V30 2347 C 329.733 -0.897649 7.22545 0
M  V30 2348 H 329.765 -1.9841 7.04286 0
M  V30 2349 H 330.948 0.739928 6.497 0
M  V30 2350 H 332.432 0.60668 8.36503 0
M  V30 2351 H 330.738 -0.352479 10.1829 0
M  V30 2352 H 330.548 2.00611 10.0304 0
M  V30 2353 H 328.918 1.41843 9.55327 0
M  V30 2354 H 331.557 -1.95734 6.03555 0
M  V30 2355 P 333.414 -1.25109 8.70152 0
M  V30 2356 O 334.836 -1.35303 9.21419 0
M  V30 2357 O 333.054 -0.0769065 7.84762 0
M  V30 2358 O 333.091 -2.55232 7.81161 0
M  V30 2359 C 332.931 -3.79939 8.58154 0
M  V30 2360 C 333.471 -4.93969 7.72701 0
M  V30 2361 O 332.416 -5.18726 6.91205 0
M  V30 2362 C 334.689 -4.69597 6.85231 0
M  V30 2363 O 335.427 -5.83832 6.51337 0
M  V30 2364 C 334.021 -3.96706 5.66633 0
M  V30 2365 O 334.819 -4.15346 4.49615 0
M  V30 2366 C 332.683 -4.66153 5.59313 0
M  V30 2367 N 331.64 -3.71582 5.24027 0
M  V30 2368 C 331.702 -2.46018 5.67902 0
M  V30 2369 N 330.657 -1.74868 5.24518 0
M  V30 2370 C 329.923 -2.61333 4.54528 0
M  V30 2371 C 328.617 -2.46162 3.95441 0
M  V30 2372 O 327.884 -1.46013 3.94122 0
M  V30 2373 N 328.187 -3.59334 3.34752 0
M  V30 2374 C 328.936 -4.79605 3.3023 0
M  V30 2375 N 328.339 -5.82109 2.6065 0
M  V30 2376 N 330.089 -4.97402 3.8843 0
M  V30 2377 C 330.546 -3.86258 4.50476 0
M  V30 2378 H 332.715 -5.47679 4.85214 0
M  V30 2379 H 333.898 -2.88964 5.86476 0
M  V30 2380 H 335.383 -4.01947 7.36109 0
M  V30 2381 H 333.688 -5.80182 8.37584 0
M  V30 2382 H 333.498 -3.73517 9.52265 0
M  V30 2383 H 331.867 -3.97163 8.80359 0
M  V30 2384 H 327.291 -3.5825 2.90294 0
M  V30 2385 H 332.498 -2.06161 6.30974 0
M  V30 2386 H 327.428 -5.66979 2.15354 0
M  V30 2387 H 328.804 -6.73686 2.54344 0
M  V30 2388 H 334.508 -4.90891 4.01857 0
M  V30 2389 P 336.365 -5.75688 6.64379 0
M  V30 2390 O 337.787 -6.11849 7.01846 0
M  V30 2391 O 336.005 -4.30744 6.56026 0
M  V30 2392 O 336.042 -6.37042 5.19165 0
M  V30 2393 C 335.882 -7.83578 5.16515 0
M  V30 2394 C 336.422 -8.33398 3.83019 0
M  V30 2395 O 335.366 -8.10074 3.01034 0
M  V30 2396 C 337.64 -7.65514 3.2257 0
M  V30 2397 O 338.378 -8.4329 2.32297 0
M  V30 2398 C 336.971 -6.40075 2.62207 0
M  V30 2399 O 337.77 -5.92589 1.53712 0
M  V30 2400 C 335.634 -6.9454 2.18503 0
M  V30 2401 H 335.666 -7.23063 1.12091 0
M  V30 2402 H 336.849 -5.6025 3.37201 0
M  V30 2403 H 338.333 -7.35707 4.02681 0
M  V30 2404 H 336.639 -9.40912 3.9095 0
M  V30 2405 H 336.449 -8.29056 5.99158 0
M  V30 2406 H 334.819 -8.10073 5.25882 0
M  V30 2407 H 337.458 -6.30324 0.726794 0
M  V30 2408 P 339.316 -8.4349 2.47671 0
M  V30 2409 O 340.738 -8.94167 2.5964 0
M  V30 2410 O 338.956 -7.1704 3.19006 0
M  V30 2411 O 338.993 -8.16596 0.923387 0
M  V30 2412 C 338.833 -9.38437 0.108857 0
M  V30 2413 C 339.373 -9.08175 -1.28353 0
M  V30 2414 O 338.317 -8.44229 -1.84713 0
M  V30 2415 C 340.591 -8.18386 -1.42505 0
M  V30 2416 O 341.329 -8.3501 -2.60497 0
M  V30 2417 C 339.922 -6.80225 -1.25468 0
M  V30 2418 O 340.721 -5.81621 -1.91066 0
M  V30 2419 C 338.585 -7.02416 -1.9168 0
M  V30 2420 H 338.617 -6.6888 -2.96621 0
M  V30 2421 H 339.8 -6.53617 -0.192223 0
M  V30 2422 H 341.284 -8.36622 -0.589963 0
M  V30 2423 H 339.59 -10.0291 -1.79807 0
M  V30 2424 H 339.4 -10.2138 0.558219 0
M  V30 2425 H 337.77 -9.6579 0.0444202 0
M  V30 2426 H 340.409 -5.69556 -2.79637 0
M  V30 2427 P 342.266 -8.4349 -2.47671 0
M  V30 2428 O 343.688 -8.92593 -2.65 0
M  V30 2429 O 341.906 -7.7568 -1.19296 0
M  V30 2430 O 341.943 -7.36886 -3.63805 0
M  V30 2431 C 341.783 -7.95349 -4.982 0
M  V30 2432 C 342.323 -6.94612 -5.98974 0
M  V30 2433 O 341.267 -6.10347 -6.11815 0
M  V30 2434 C 343.541 -6.11426 -5.62335 0
M  V30 2435 O 344.279 -5.6162 -6.70584 0
M  V30 2436 C 342.872 -5.04409 -4.73308 0
M  V30 2437 O 343.671 -3.85992 -4.75183 0
M  V30 2438 C 341.535 -4.8728 -5.41006 0
M  V30 2439 H 341.567 -4.02333 -6.11157 0
M  V30 2440 H 342.75 -5.39466 -3.69543 0
M  V30 2441 H 344.234 -6.71916 -5.01943 0
M  V30 2442 H 342.54 -7.4649 -6.93477 0
M  V30 2443 H 342.35 -8.89416 -5.05237 0
M  V30 2444 H 340.72 -8.14876 -5.18409 0
M  V30 2445 H 343.359 -3.27957 -5.4317 0
M  V30 2446 P 345.217 -5.75688 -6.64379 0
M  V30 2447 O 346.639 -6.07627 -7.05504 0
M  V30 2448 O 344.857 -5.88047 -5.19722 0
M  V30 2449 O 344.894 -4.2322 -7.04443 0
M  V30 2450 C 344.734 -3.99743 -8.4911 0
M  V30 2451 C 345.274 -2.60516 -8.79425 0
M  V30 2452 O 344.218 -1.82684 -8.4467 0
M  V30 2453 C 346.492 -2.10343 -8.03628 0
M  V30 2454 O 347.23 -1.09919 -8.67766 0
M  V30 2455 C 345.823 -1.68446 -6.70876 0
M  V30 2456 O 346.622 -0.678137 -6.08433 0
M  V30 2457 C 344.486 -1.17436 -7.18567 0
M  V30 2458 H 344.518 -0.0804732 -7.31656 0
M  V30 2459 H 345.701 -2.54037 -6.02537 0
M  V30 2460 H 347.185 -2.93881 -7.85526 0
M  V30 2461 H 345.491 -2.53065 -9.86973 0
M  V30 2462 H 345.301 -4.75072 -9.05887 0
M  V30 2463 H 343.671 -4.05244 -8.76668 0
M  V30 2464 H 346.31 0.177647 -6.34251 0
M  V30 2465 P 348.167 -1.25109 -8.70152 0
M  V30 2466 O 349.589 -1.29744 -9.22016 0
M  V30 2467 O 347.807 -2.13714 -7.55141 0
M  V30 2468 O 347.844 0.248149 -8.21425 0
M  V30 2469 C 347.684 1.22779 -9.30434 0
M  V30 2470 C 348.224 2.56293 -8.80664 0
M  V30 2471 O 347.168 3.02979 -8.09349 0
M  V30 2472 C 349.442 2.57523 -7.89775 0
M  V30 2473 O 350.18 3.7668 -7.89438 0
M  V30 2474 C 348.773 2.20997 -6.55446 0
M  V30 2475 O 349.572 2.71895 -5.48509 0
M  V30 2476 C 347.436 2.89693 -6.67988 0
M  V30 2477 H 347.468 3.88793 -6.19859 0
M  V30 2478 H 348.651 1.12046 -6.44229 0
M  V30 2479 H 350.135 1.7746 -8.19711 0
M  V30 2480 H 348.441 3.20706 -9.67112 0
M  V30 2481 H 348.251 0.901032 -10.1892 0
M  V30 2482 H 346.621 1.33049 -9.56592 0
M  V30 2483 H 349.26 3.57847 -5.23962 0
M  V30 2484 P 351.118 3.65191 -7.99657 0
M  V30 2485 O 352.54 3.89332 -8.45794 0
M  V30 2486 O 350.758 2.28472 -7.50807 0
M  V30 2487 O 350.795 4.64972 -6.77611 0
M  V30 2488 C 350.635 6.06319 -7.16352 0
M  V30 2489 C 351.175 6.91731 -6.02299 0
M  V30 2490 O 350.119 6.92449 -5.17064 0
M  V30 2491 C 352.393 6.43627 -5.25174 0
M  V30 2492 O 353.131 7.43686 -4.60469 0
M  V30 2493 C 351.724 5.40275 -4.31916 0
M  V30 2494 O 352.523 5.25279 -3.14438 0
M  V30 2495 C 350.387 6.04847 -4.05327 0
M  V30 2496 H 350.419 6.62195 -3.11261 0
M  V30 2497 H 351.602 4.42556 -4.81383 0
M  V30 2498 H 353.086 5.92458 -5.93643 0
M  V30 2499 H 351.392 7.92655 -6.402 0
M  V30 2500 H 351.202 6.26671 -8.0846 0
M  V30 2501 H 349.572 6.29101 -7.32804 0
M  V30 2502 H 352.211 5.84315 -2.47318 0
M  V30 2503 P 354.068 7.39546 -4.75277 0
M  V30 2504 O 355.49 7.84798 -5.01039 0
M  V30 2505 O 353.708 5.9812 -5.08098 0
M  V30 2506 O 353.745 7.57503 -3.1866 0
M  V30 2507 C 353.585 8.97357 -2.74833 0
M  V30 2508 C 354.125 9.07548 -1.32709 0
M  V30 2509 O 353.069 8.62072 -0.606159 0
M  V30 2510 C 355.343 8.25383 -0.938334 0
M  V30 2511 O 356.081 8.74577 0.146954 0
M  V30 2512 C 354.674 6.8802 -0.712559 0
M  V30 2513 O 355.473 6.1189 0.194655 0
M  V30 2514 C 353.337 7.27966 -0.139777 0
M  V30 2515 H 353.369 7.25354 0.961601 0
M  V30 2516 H 354.552 6.32557 -1.65702 0
M  V30 2517 H 356.036 8.19355 -1.79097 0
M  V30 2518 H 354.342 10.1294 -1.10029 0
M  V30 2519 H 354.152 9.64276 -3.41316 0
M  V30 2520 H 352.522 9.25417 -2.76357 0
M  V30 2521 H 355.161 6.25267 1.07847 0
M  V30 2522 P 357.019 8.791 1.66284e-12 0
M  V30 2523 O 358.44 9.31196 0.027936 0
M  V30 2524 O 356.659 7.77869 -1.04071 0
M  V30 2525 O 356.696 8.09533 1.41463 0
M  V30 2526 C 356.535 9.03587 2.5397 0
M  V30 2527 C 357.076 8.35226 3.79016 0
M  V30 2528 O 356.021 7.57904 4.1503 0
M  V30 2529 C 358.294 7.45087 3.67298 0
M  V30 2530 O 359.032 7.27796 4.85194 0
M  V30 2531 C 357.626 6.17323 3.12027 0
M  V30 2532 O 358.424 5.04496 3.46627 0
M  V30 2533 C 356.288 6.19961 3.81809 0
M  V30 2534 N 355.245 5.71575 2.93223 0
M  V30 2535 C 355.414 5.77362 1.59168 0
M  V30 2536 N 354.387 5.3123 0.911893 0
M  V30 2537 C 353.502 4.91717 1.89588 0
M  V30 2538 C 352.235 4.3114 1.8076 0
M  V30 2539 N 351.67 4.06823 3.02898 0
M  V30 2540 C 352.272 4.35062 4.22711 0
M  V30 2541 N 353.449 4.90805 4.35707 0
M  V30 2542 C 354.024 5.16382 3.14469 0
M  V30 2543 H 357.503 6.21428 2.0318 0
M  V30 2544 H 358.986 7.86112 2.9231 0
M  V30 2545 H 357.292 9.11171 4.55987 0
M  V30 2546 H 357.102 9.9573 2.34194 0
M  V30 2547 H 355.472 9.2792 2.67832 0
M  V30 2548 H 356.314 6.16575 1.12198 0
M  V30 2549 H 358.112 4.67628 4.28704 0
M  V30 2550 P 359.97 7.39546 4.75277 0
M  V30 2551 O 361.392 7.81777 5.05738 0
M  V30 2552 O 359.61 7.1065 3.32998 0
M  V30 2553 O 359.647 6.04542 5.56673 0
M  V30 2554 C 359.487 6.22772 7.02095 0
M  V30 2555 C 360.027 4.97725 7.70406 0
M  V30 2556 O 358.971 4.13256 7.58987 0
M  V30 2557 C 361.245 4.28231 7.11815 0
M  V30 2558 O 361.983 3.49945 8.01648 0
M  V30 2559 C 360.576 3.5063 5.96244 0
M  V30 2560 O 361.375 2.36482 5.64681 0
M  V30 2561 C 359.239 3.15122 6.56374 0
M  V30 2562 H 359.271 2.13853 6.99751 0
M  V30 2563 H 360.454 4.13501 5.06559 0
M  V30 2564 H 361.938 5.03285 6.70911 0
M  V30 2565 H 360.244 5.20877 8.75697 0
M  V30 2566 H 360.054 7.11046 7.35349 0
M  V30 2567 H 358.424 6.35815 7.26986 0
M  V30 2568 H 361.063 1.61644 6.13565 0
M  V30 2569 P 362.92 3.65191 7.99657 0
M  V30 2570 O 364.321 3.90823 8.51272 0
M  V30 2571 O 362.542 4.23191 6.66972 0
M  V30 2572 O 362.597 2.07587 7.95046 0
M  V30 2573 C 362.437 1.44328 9.27336 0
M  V30 2574 C 362.977 0.0220012 9.17097 0
M  V30 2575 O 361.921 -0.626794 8.61824 0
M  V30 2576 C 364.194 -0.24586 8.30336 0
M  V30 2577 O 364.933 -1.39011 8.63583 0
M  V30 2578 C 363.527 -0.273849 6.91158 0
M  V30 2579 O 364.325 -1.06331 6.02794 0
M  V30 2580 C 362.189 -0.897649 7.22545 0
M  V30 2581 N 361.146 -0.292839 6.41732 0
M  V30 2582 C 360.111 -1.08701 5.98712 0
M  V30 2583 O 360.15 -2.31211 6.24471 0
M  V30 2584 N 359.099 -0.533391 5.28415 0
M  V30 2585 C 359.147 0.770866 4.98576 0
M  V30 2586 C 360.243 1.59049 5.38086 0
M  V30 2587 C 361.209 1.01866 6.10256 0
M  V30 2588 H 362.221 -1.98383 7.04189 0
M  V30 2589 H 363.404 0.733318 6.49674 0
M  V30 2590 H 364.888 0.598386 8.36663 0
M  V30 2591 H 363.194 -0.362662 10.1825 0
M  V30 2592 H 363.003 2.00611 10.0304 0
M  V30 2593 H 361.373 1.41828 9.55228 0
M  V30 2594 H 360.291 2.6415 5.10622 0
M  V30 2595 H 362.055 1.61983 6.44042 0
M  V30 2596 H 364.109 -1.97777 6.14035 0
M  V30 2597 P 365.871 -1.25109 8.70152 0
M  V30 2598 O 367.293 -1.35274 9.21221 0
M  V30 2599 O 365.511 -0.0769065 7.84762 0
M  V30 2600 O 365.548 -2.55232 7.81161 0
M  V30 2601 C 365.388 -3.79939 8.58154 0
M  V30 2602 C 365.928 -4.94023 7.72785 0
M  V30 2603 O 364.872 -5.18726 6.91205 0
M  V30 2604 C 367.146 -4.69597 6.85231 0
M  V30 2605 O 367.884 -5.83832 6.51337 0
M  V30 2606 C 366.477 -3.96706 5.66633 0
M  V30 2607 O 367.276 -4.15414 4.49689 0
M  V30 2608 C 365.14 -4.66153 5.59313 0
M  V30 2609 H 365.172 -5.47679 4.85214 0
M  V30 2610 H 366.355 -2.89008 5.86566 0
M  V30 2611 H 367.839 -4.0121 7.36511 0
M  V30 2612 H 366.145 -5.80182 8.37584 0
M  V30 2613 H 365.955 -3.73517 9.52265 0
M  V30 2614 H 364.325 -3.97163 8.80359 0
M  V30 2615 H 366.964 -4.90969 4.01921 0
M  V30 2616 P 368.821 -5.75688 6.64379 0
M  V30 2617 O 370.243 -6.11849 7.01846 0
M  V30 2618 O 368.461 -4.30744 6.56026 0
M  V30 2619 O 368.498 -6.37042 5.19165 0
M  V30 2620 C 368.338 -7.83578 5.16515 0
M  V30 2621 C 368.878 -8.33398 3.83019 0
M  V30 2622 O 367.822 -8.10074 3.01034 0
M  V30 2623 C 370.096 -7.65514 3.2257 0
M  V30 2624 O 370.834 -8.4329 2.32297 0
M  V30 2625 C 369.427 -6.40075 2.62207 0
M  V30 2626 O 370.226 -5.92589 1.53712 0
M  V30 2627 C 368.09 -6.9454 2.18503 0
M  V30 2628 H 368.122 -7.23063 1.12091 0
M  V30 2629 H 369.305 -5.6025 3.37201 0
M  V30 2630 H 370.789 -7.35707 4.02681 0
M  V30 2631 H 369.095 -9.40912 3.9095 0
M  V30 2632 H 368.905 -8.29056 5.99158 0
M  V30 2633 H 367.275 -8.10073 5.25882 0
M  V30 2634 H 369.914 -6.30324 0.726794 0
M  V30 2635 P 371.772 -8.4349 2.47671 0
M  V30 2636 O 373.194 -8.94167 2.5964 0
M  V30 2637 O 371.412 -7.1704 3.19006 0
M  V30 2638 O 371.449 -8.16596 0.923387 0
M  V30 2639 C 371.289 -9.38437 0.108857 0
M  V30 2640 C 371.829 -9.08175 -1.28353 0
M  V30 2641 O 370.773 -8.44229 -1.84713 0
M  V30 2642 C 373.047 -8.18386 -1.42505 0
M  V30 2643 O 373.785 -8.3501 -2.60497 0
M  V30 2644 C 372.378 -6.80225 -1.25468 0
M  V30 2645 O 373.177 -5.81621 -1.91066 0
M  V30 2646 C 371.041 -7.02416 -1.9168 0
M  V30 2647 H 371.073 -6.6888 -2.96621 0
M  V30 2648 H 372.256 -6.53617 -0.192223 0
M  V30 2649 H 373.74 -8.36622 -0.589963 0
M  V30 2650 H 372.046 -10.0291 -1.79807 0
M  V30 2651 H 371.856 -10.2138 0.558219 0
M  V30 2652 H 370.226 -9.6579 0.0444202 0
M  V30 2653 H 372.865 -5.69556 -2.79637 0
M  V30 2654 P 374.722 -8.4349 -2.47671 0
M  V30 2655 O 376.144 -8.92593 -2.65 0
M  V30 2656 O 374.362 -7.7568 -1.19296 0
M  V30 2657 O 374.399 -7.36886 -3.63805 0
M  V30 2658 C 374.239 -7.95349 -4.982 0
M  V30 2659 C 374.779 -6.94612 -5.98974 0
M  V30 2660 O 373.723 -6.10347 -6.11815 0
M  V30 2661 C 375.997 -6.11426 -5.62335 0
M  V30 2662 O 376.735 -5.6162 -6.70584 0
M  V30 2663 C 375.328 -5.04409 -4.73308 0
M  V30 2664 O 376.127 -3.85992 -4.75183 0
M  V30 2665 C 373.991 -4.8728 -5.41006 0
M  V30 2666 H 374.023 -4.02333 -6.11157 0
M  V30 2667 H 375.206 -5.39466 -3.69543 0
M  V30 2668 H 376.69 -6.71916 -5.01943 0
M  V30 2669 H 374.996 -7.4649 -6.93477 0
M  V30 2670 H 374.806 -8.89416 -5.05237 0
M  V30 2671 H 373.176 -8.14876 -5.18409 0
M  V30 2672 H 375.815 -3.27957 -5.4317 0
M  V30 2673 P 377.673 -5.75688 -6.64379 0
M  V30 2674 O 379.095 -6.07758 -7.05656 0
M  V30 2675 O 377.313 -5.88047 -5.19722 0
M  V30 2676 O 377.35 -4.2322 -7.04443 0
M  V30 2677 C 377.19 -3.99743 -8.4911 0
M  V30 2678 C 377.73 -2.60487 -8.79329 0
M  V30 2679 O 376.675 -1.82684 -8.4467 0
M  V30 2680 C 378.948 -2.10343 -8.03628 0
M  V30 2681 O 379.686 -1.09919 -8.67766 0
M  V30 2682 C 378.28 -1.68446 -6.70876 0
M  V30 2683 O 379.078 -0.678026 -6.08333 0
M  V30 2684 C 376.942 -1.17436 -7.18567 0
M  V30 2685 N 375.899 -1.52699 -6.23988 0
M  V30 2686 C 375.961 -2.68084 -5.57824 0
M  V30 2687 N 374.916 -2.8189 -4.75643 0
M  V30 2688 C 374.182 -1.72373 -4.95155 0
M  V30 2689 C 372.876 -1.37653 -4.44996 0
M  V30 2690 O 372.143 -2.02239 -3.68445 0
M  V30 2691 N 372.446 -0.17675 -4.90782 0
M  V30 2692 C 373.195 0.645036 -5.78716 0
M  V30 2693 N 372.598 1.84214 -6.10618 0
M  V30 2694 N 374.348 0.321732 -6.30279 0
M  V30 2695 C 374.805 -0.87502 -5.86913 0
M  V30 2696 H 376.974 -0.0804732 -7.31656 0
M  V30 2697 H 378.157 -2.53998 -6.02444 0
M  V30 2698 H 379.642 -2.93095 -7.8582 0
M  V30 2699 H 377.947 -2.53065 -9.86973 0
M  V30 2700 H 377.757 -4.75072 -9.05887 0
M  V30 2701 H 376.126 -4.05244 -8.76668 0
M  V30 2702 H 371.55 0.152143 -4.60849 0
M  V30 2703 H 376.757 -3.41852 -5.69006 0
M  V30 2704 H 371.687 2.08538 -5.69521 0
M  V30 2705 H 373.063 2.4895 -6.75698 0
M  V30 2706 H 378.767 0.177619 -6.34151 0
M  V30 2707 P 380.624 -1.25109 -8.70152 0
M  V30 2708 O 382.046 -1.29744 -9.22016 0
M  V30 2709 O 380.264 -2.13714 -7.55141 0
M  V30 2710 O 380.301 0.248149 -8.21425 0
M  V30 2711 C 380.141 1.22779 -9.30434 0
M  V30 2712 C 380.681 2.56293 -8.80664 0
M  V30 2713 O 379.625 3.02979 -8.09349 0
M  V30 2714 C 381.899 2.57523 -7.89775 0
M  V30 2715 O 382.637 3.7668 -7.89438 0
M  V30 2716 C 381.23 2.20997 -6.55446 0
M  V30 2717 O 382.029 2.71895 -5.48509 0
M  V30 2718 C 379.893 2.89693 -6.67988 0
M  V30 2719 H 379.925 3.88793 -6.19859 0
M  V30 2720 H 381.108 1.12046 -6.44229 0
M  V30 2721 H 382.592 1.7746 -8.19711 0
M  V30 2722 H 380.898 3.20706 -9.67112 0
M  V30 2723 H 380.708 0.901032 -10.1892 0
M  V30 2724 H 379.078 1.33049 -9.56592 0
M  V30 2725 H 381.717 3.57847 -5.23962 0
M  V30 2726 P 383.574 3.65191 -7.99657 0
M  V30 2727 O 384.996 3.89332 -8.45794 0
M  V30 2728 O 383.214 2.28472 -7.50807 0
M  V30 2729 O 383.251 4.64972 -6.77611 0
M  V30 2730 C 383.091 6.06319 -7.16352 0
M  V30 2731 C 383.631 6.91731 -6.02299 0
M  V30 2732 O 382.575 6.92449 -5.17064 0
M  V30 2733 C 384.849 6.43627 -5.25174 0
M  V30 2734 O 385.587 7.43686 -4.60469 0
M  V30 2735 C 384.18 5.40275 -4.31916 0
M  V30 2736 O 384.979 5.25279 -3.14438 0
M  V30 2737 C 382.843 6.04847 -4.05327 0
M  V30 2738 H 382.875 6.62195 -3.11261 0
M  V30 2739 H 384.058 4.42556 -4.81383 0
M  V30 2740 H 385.542 5.92458 -5.93643 0
M  V30 2741 H 383.848 7.92655 -6.402 0
M  V30 2742 H 383.658 6.26671 -8.0846 0
M  V30 2743 H 382.028 6.29101 -7.32804 0
M  V30 2744 H 384.667 5.84315 -2.47318 0
M  V30 2745 P 386.525 7.39546 -4.75277 0
M  V30 2746 O 387.947 7.84798 -5.01039 0
M  V30 2747 O 386.165 5.9812 -5.08098 0
M  V30 2748 O 386.202 7.57503 -3.1866 0
M  V30 2749 C 386.042 8.97357 -2.74833 0
M  V30 2750 C 386.582 9.07548 -1.32709 0
M  V30 2751 O 385.526 8.62072 -0.606159 0
M  V30 2752 C 387.8 8.25383 -0.938334 0
M  V30 2753 O 388.538 8.74577 0.146954 0
M  V30 2754 C 387.131 6.8802 -0.712559 0
M  V30 2755 O 387.93 6.1189 0.194655 0
M  V30 2756 C 385.794 7.27966 -0.139777 0
M  V30 2757 H 385.826 7.25354 0.961601 0
M  V30 2758 H 387.009 6.32557 -1.65702 0
M  V30 2759 H 388.493 8.19355 -1.79097 0
M  V30 2760 H 386.799 10.1294 -1.10029 0
M  V30 2761 H 386.609 9.64276 -3.41316 0
M  V30 2762 H 384.979 9.25417 -2.76357 0
M  V30 2763 H 387.618 6.25267 1.07847 0
M  V30 2764 P 389.475 8.791 1.973e-12 0
M  V30 2765 O 390.897 9.31096 0.027933 0
M  V30 2766 O 389.115 7.77869 -1.04071 0
M  V30 2767 O 389.152 8.09533 1.41463 0
M  V30 2768 C 388.992 9.0349 2.53943 0
M  V30 2769 C 389.532 8.35226 3.79016 0
M  V30 2770 O 388.476 7.57992 4.15078 0
M  V30 2771 C 390.75 7.45087 3.67298 0
M  V30 2772 O 391.488 7.27796 4.85194 0
M  V30 2773 C 390.081 6.17323 3.12027 0
M  V30 2774 O 390.88 5.04231 3.47188 0
M  V30 2775 C 388.744 6.19961 3.81809 0
M  V30 2776 H 388.776 5.58218 4.73051 0
M  V30 2777 H 389.959 6.21726 2.02589 0
M  V30 2778 H 391.443 7.86112 2.9231 0
M  V30 2779 H 389.749 9.11627 4.55076 0
M  V30 2780 H 389.559 9.9573 2.34194 0
M  V30 2781 H 387.929 9.2792 2.67832 0
M  V30 2782 H 390.568 4.67702 4.28772 0
M  V30 2783 P 392.426 7.39546 4.75277 0
M  V30 2784 O 393.848 7.81777 5.05738 0
M  V30 2785 O 392.066 7.1065 3.32998 0
M  V30 2786 O 392.103 6.04542 5.56673 0
M  V30 2787 C 391.943 6.22772 7.02095 0
M  V30 2788 C 392.483 4.97725 7.70406 0
M  V30 2789 O 391.427 4.13256 7.58987 0
M  V30 2790 C 393.701 4.28231 7.11815 0
M  V30 2791 O 394.439 3.49945 8.01648 0
M  V30 2792 C 393.032 3.5063 5.96244 0
M  V30 2793 O 393.831 2.36482 5.64681 0
M  V30 2794 C 391.695 3.15122 6.56374 0
M  V30 2795 H 391.727 2.13853 6.99751 0
M  V30 2796 H 392.91 4.13501 5.06559 0
M  V30 2797 H 394.394 5.03285 6.70911 0
M  V30 2798 H 392.7 5.20877 8.75697 0
M  V30 2799 H 392.51 7.11046 7.35349 0
M  V30 2800 H 390.88 6.35815 7.26986 0
M  V30 2801 H 393.519 1.61644 6.13565 0
M  V30 2802 P 395.376 3.65191 7.99657 0
M  V30 2803 O 396.798 3.8425 8.48115 0
M  V30 2804 O 395.016 4.17805 6.64342 0
M  V30 2805 O 395.053 2.07613 7.95143 0
M  V30 2806 C 394.893 1.44328 9.27336 0
M  V30 2807 C 395.433 0.0220036 9.17197 0
M  V30 2808 O 394.377 -0.626867 8.61923 0
M  V30 2809 C 396.651 -0.24586 8.30336 0
M  V30 2810 O 397.389 -1.39011 8.63583 0
M  V30 2811 C 395.982 -0.273849 6.91158 0
M  V30 2812 O 396.781 -1.06348 6.02892 0
M  V30 2813 C 394.645 -0.897649 7.22545 0
M  V30 2814 H 394.677 -1.9841 7.04286 0
M  V30 2815 H 395.86 0.739928 6.497 0
M  V30 2816 H 397.344 0.60668 8.36503 0
M  V30 2817 H 395.65 -0.352479 10.1829 0
M  V30 2818 H 395.46 2.00611 10.0304 0
M  V30 2819 H 393.83 1.41843 9.55327 0
M  V30 2820 H 396.469 -1.95734 6.03555 0
M  V30 2821 P 398.327 -1.25109 8.70152 0
M  V30 2822 O 399.749 -1.35274 9.21221 0
M  V30 2823 O 397.967 -0.0769065 7.84762 0
M  V30 2824 O 398.004 -2.55232 7.81161 0
M  V30 2825 C 397.844 -3.79939 8.58154 0
M  V30 2826 C 398.384 -4.94023 7.72785 0
M  V30 2827 O 397.328 -5.18726 6.91205 0
M  V30 2828 C 399.602 -4.69597 6.85231 0
M  V30 2829 O 400.34 -5.83832 6.51337 0
M  V30 2830 C 398.933 -3.96706 5.66633 0
M  V30 2831 O 399.732 -4.15414 4.49689 0
M  V30 2832 C 397.596 -4.66153 5.59313 0
M  V30 2833 H 397.628 -5.47679 4.85214 0
M  V30 2834 H 398.811 -2.89008 5.86566 0
M  V30 2835 H 400.295 -4.0121 7.36511 0
M  V30 2836 H 398.601 -5.80182 8.37584 0
M  V30 2837 H 398.411 -3.73517 9.52265 0
M  V30 2838 H 396.781 -3.97163 8.80359 0
M  V30 2839 H 399.42 -4.90969 4.01921 0
M  V30 2840 P 401.278 -5.75688 6.64379 0
M  V30 2841 O 402.7 -6.11849 7.01846 0
M  V30 2842 O 400.918 -4.30744 6.56026 0
M  V30 2843 O 400.955 -6.37042 5.19165 0
M  V30 2844 C 400.795 -7.83578 5.16515 0
M  V30 2845 C 401.335 -8.33398 3.83019 0
M  V30 2846 O 400.279 -8.10074 3.01034 0
M  V30 2847 C 402.553 -7.65514 3.2257 0
M  V30 2848 O 403.291 -8.4329 2.32297 0
M  V30 2849 C 401.884 -6.40075 2.62207 0
M  V30 2850 O 402.683 -5.92589 1.53712 0
M  V30 2851 C 400.547 -6.9454 2.18503 0
M  V30 2852 H 400.579 -7.23063 1.12091 0
M  V30 2853 H 401.762 -5.6025 3.37201 0
M  V30 2854 H 403.246 -7.35707 4.02681 0
M  V30 2855 H 401.552 -9.40912 3.9095 0
M  V30 2856 H 401.362 -8.29056 5.99158 0
M  V30 2857 H 399.732 -8.10073 5.25882 0
M  V30 2858 H 402.371 -6.30324 0.726794 0
M  V30 2859 P 404.228 -8.4349 2.47671 0
M  V30 2860 O 405.65 -8.94167 2.5964 0
M  V30 2861 O 403.868 -7.1704 3.19006 0
M  V30 2862 O 403.905 -8.16596 0.923387 0
M  V30 2863 C 403.745 -9.38437 0.108857 0
M  V30 2864 C 404.285 -9.08175 -1.28353 0
M  V30 2865 O 403.229 -8.44229 -1.84713 0
M  V30 2866 C 405.503 -8.18386 -1.42505 0
M  V30 2867 O 406.241 -8.3501 -2.60497 0
M  V30 2868 C 404.834 -6.80225 -1.25468 0
M  V30 2869 O 405.633 -5.81621 -1.91066 0
M  V30 2870 C 403.497 -7.02416 -1.9168 0
M  V30 2871 H 403.529 -6.6888 -2.96621 0
M  V30 2872 H 404.712 -6.53617 -0.192223 0
M  V30 2873 H 406.196 -8.36622 -0.589963 0
M  V30 2874 H 404.502 -10.0291 -1.79807 0
M  V30 2875 H 404.312 -10.2138 0.558219 0
M  V30 2876 H 402.682 -9.6579 0.0444202 0
M  V30 2877 H 405.321 -5.69556 -2.79637 0
M  V30 2878 P 407.179 -8.4349 -2.47671 0
M  V30 2879 O 408.601 -8.92593 -2.65 0
M  V30 2880 O 406.819 -7.7568 -1.19296 0
M  V30 2881 O 406.856 -7.36886 -3.63805 0
M  V30 2882 C 406.696 -7.95349 -4.982 0
M  V30 2883 C 407.236 -6.94612 -5.98974 0
M  V30 2884 O 406.18 -6.10347 -6.11815 0
M  V30 2885 C 408.454 -6.11426 -5.62335 0
M  V30 2886 O 409.192 -5.6162 -6.70584 0
M  V30 2887 C 407.785 -5.04409 -4.73308 0
M  V30 2888 O 408.584 -3.85992 -4.75183 0
M  V30 2889 C 406.448 -4.8728 -5.41006 0
M  V30 2890 H 406.48 -4.02333 -6.11157 0
M  V30 2891 H 407.663 -5.39466 -3.69543 0
M  V30 2892 H 409.147 -6.71916 -5.01943 0
M  V30 2893 H 407.453 -7.4649 -6.93477 0
M  V30 2894 H 407.263 -8.89416 -5.05237 0
M  V30 2895 H 405.633 -8.14876 -5.18409 0
M  V30 2896 H 408.272 -3.27957 -5.4317 0
M  V30 2897 P 410.129 -5.75688 -6.64379 0
M  V30 2898 O 411.551 -6.07627 -7.05504 0
M  V30 2899 O 409.769 -5.88047 -5.19722 0
M  V30 2900 O 409.806 -4.2322 -7.04443 0
M  V30 2901 C 409.646 -3.99743 -8.4911 0
M  V30 2902 C 410.186 -2.60516 -8.79425 0
M  V30 2903 O 409.13 -1.82684 -8.4467 0
M  V30 2904 C 411.404 -2.10343 -8.03628 0
M  V30 2905 O 412.142 -1.09919 -8.67766 0
M  V30 2906 C 410.735 -1.68446 -6.70876 0
M  V30 2907 O 411.534 -0.678137 -6.08433 0
M  V30 2908 C 409.398 -1.17436 -7.18567 0
M  V30 2909 H 409.43 -0.0804732 -7.31656 0
M  V30 2910 H 410.613 -2.54037 -6.02537 0
M  V30 2911 H 412.097 -2.93881 -7.85526 0
M  V30 2912 H 410.403 -2.53065 -9.86973 0
M  V30 2913 H 410.213 -4.75072 -9.05887 0
M  V30 2914 H 408.583 -4.05244 -8.76668 0
M  V30 2915 H 411.222 0.177647 -6.34251 0
M  V30 2916 P 413.08 -1.25109 -8.70152 0
M  V30 2917 O 414.502 -1.29744 -9.22016 0
M  V30 2918 O 412.72 -2.13714 -7.55141 0
M  V30 2919 O 412.757 0.248149 -8.21425 0
M  V30 2920 C 412.597 1.22779 -9.30434 0
M  V30 2921 C 413.137 2.56293 -8.80664 0
M  V30 2922 O 412.081 3.02979 -8.09349 0
M  V30 2923 C 414.355 2.57523 -7.89775 0
M  V30 2924 O 415.093 3.7668 -7.89438 0
M  V30 2925 C 413.686 2.20997 -6.55446 0
M  V30 2926 O 414.485 2.71895 -5.48509 0
M  V30 2927 C 412.349 2.89693 -6.67988 0
M  V30 2928 H 412.381 3.88793 -6.19859 0
M  V30 2929 H 413.564 1.12046 -6.44229 0
M  V30 2930 H 415.048 1.7746 -8.19711 0
M  V30 2931 H 413.354 3.20706 -9.67112 0
M  V30 2932 H 413.164 0.901032 -10.1892 0
M  V30 2933 H 411.534 1.33049 -9.56592 0
M  V30 2934 H 414.173 3.57847 -5.23962 0
M  V30 2935 P 416.03 3.65191 -7.99657 0
M  V30 2936 O 417.452 3.89332 -8.45794 0
M  V30 2937 O 415.67 2.28472 -7.50807 0
M  V30 2938 O 415.707 4.64972 -6.77611 0
M  V30 2939 C 415.547 6.06319 -7.16352 0
M  V30 2940 C 416.087 6.91731 -6.02299 0
M  V30 2941 O 415.031 6.92449 -5.17064 0
M  V30 2942 C 417.305 6.43627 -5.25174 0
M  V30 2943 O 418.043 7.43686 -4.60469 0
M  V30 2944 C 416.636 5.40275 -4.31916 0
M  V30 2945 O 417.435 5.25279 -3.14438 0
M  V30 2946 C 415.299 6.04847 -4.05327 0
M  V30 2947 H 415.331 6.62195 -3.11261 0
M  V30 2948 H 416.514 4.42556 -4.81383 0
M  V30 2949 H 417.998 5.92458 -5.93643 0
M  V30 2950 H 416.304 7.92655 -6.402 0
M  V30 2951 H 416.114 6.26671 -8.0846 0
M  V30 2952 H 414.484 6.29101 -7.32804 0
M  V30 2953 H 417.123 5.84315 -2.47318 0
M  V30 2954 P 418.981 7.39546 -4.75277 0
M  V30 2955 O 420.402 7.84882 -5.01092 0
M  V30 2956 O 418.621 5.9812 -5.08098 0
M  V30 2957 O 418.658 7.57503 -3.1866 0
M  V30 2958 C 418.497 8.97452 -2.74862 0
M  V30 2959 C 419.038 9.07548 -1.32709 0
M  V30 2960 O 417.983 8.61972 -0.606089 0
M  V30 2961 C 420.256 8.25383 -0.938334 0
M  V30 2962 O 420.994 8.74577 0.146954 0
M  V30 2963 C 419.588 6.8802 -0.712559 0
M  V30 2964 O 420.386 6.1181 0.188505 0
M  V30 2965 C 418.25 7.27966 -0.139777 0
M  V30 2966 N 417.207 6.39368 -0.623421 0
M  V30 2967 C 417.376 5.71761 -1.78245 0
M  V30 2968 N 416.349 4.962 -2.10491 0
M  V30 2969 C 415.464 5.16158 -1.0635 0
M  V30 2970 C 414.197 4.60425 -0.810266 0
M  V30 2971 N 413.598 3.7057 -1.62914 0
M  V30 2972 N 413.632 5.06 0.348685 0
M  V30 2973 C 414.234 5.94532 1.20395 0
M  V30 2974 N 415.411 6.48452 1.01191 0
M  V30 2975 C 415.986 6.04423 -0.146291 0
M  V30 2976 H 418.282 7.25255 0.961469 0
M  V30 2977 H 419.465 6.32625 -1.65044 0
M  V30 2978 H 420.948 8.19355 -1.79097 0
M  V30 2979 H 419.254 10.1305 -1.09016 0
M  V30 2980 H 419.064 9.64276 -3.41316 0
M  V30 2981 H 417.434 9.25417 -2.76357 0
M  V30 2982 H 413.698 6.21659 2.10714 0
M  V30 2983 H 418.276 5.79354 -2.38959 0
M  V30 2984 H 412.668 3.33174 -1.38982 0
M  V30 2985 H 414.072 3.39714 -2.48836 0
M  V30 2986 H 420.074 6.25169 1.0783 0
M  V30 2987 P 421.932 8.791 2.28317e-12 0
M  V30 2988 O 423.353 9.31196 0.027936 0
M  V30 2989 O 421.572 7.77869 -1.04071 0
M  V30 2990 O 421.609 8.09533 1.41463 0
M  V30 2991 C 421.448 9.03587 2.5397 0
M  V30 2992 C 421.989 8.35226 3.79016 0
M  V30 2993 O 420.934 7.57904 4.1503 0
M  V30 2994 C 423.207 7.45087 3.67298 0
M  V30 2995 O 423.945 7.27796 4.85194 0
M  V30 2996 C 422.539 6.17323 3.12027 0
M  V30 2997 O 423.337 5.04496 3.46627 0
M  V30 2998 C 421.201 6.19961 3.81809 0
M  V30 2999 N 420.158 5.71575 2.93223 0
M  V30 3000 C 420.327 5.77362 1.59168 0
M  V30 3001 N 419.3 5.3123 0.911893 0
M  V30 3002 C 418.415 4.91717 1.89588 0
M  V30 3003 C 417.148 4.3114 1.8076 0
M  V30 3004 N 416.583 4.06823 3.02898 0
M  V30 3005 C 417.185 4.35062 4.22711 0
M  V30 3006 N 418.362 4.90805 4.35707 0
M  V30 3007 C 418.937 5.16382 3.14469 0
M  V30 3008 H 422.416 6.21428 2.0318 0
M  V30 3009 H 423.899 7.86112 2.9231 0
M  V30 3010 H 422.205 9.11171 4.55987 0
M  V30 3011 H 422.015 9.9573 2.34194 0
M  V30 3012 H 420.385 9.2792 2.67832 0
M  V30 3013 H 421.227 6.16575 1.12198 0
M  V30 3014 H 423.025 4.67628 4.28704 0
M  V30 3015 P 424.882 7.39546 4.75277 0
M  V30 3016 O 426.303 7.81861 5.05793 0
M  V30 3017 O 424.522 7.1065 3.32998 0
M  V30 3018 O 424.559 6.04542 5.56673 0
M  V30 3019 C 424.398 6.22839 7.02169 0
M  V30 3020 C 424.939 4.97725 7.70406 0
M  V30 3021 O 423.884 4.13208 7.58899 0
M  V30 3022 C 426.157 4.28231 7.11815 0
M  V30 3023 O 426.895 3.49945 8.01648 0
M  V30 3024 C 425.489 3.5063 5.96244 0
M  V30 3025 O 426.287 2.37008 5.64352 0
M  V30 3026 C 424.151 3.15122 6.56374 0
M  V30 3027 N 423.108 3.22311 5.55692 0
M  V30 3028 C 423.277 3.99655 4.46046 0
M  V30 3029 N 422.25 3.97599 3.63918 0
M  V30 3030 C 421.365 3.11159 4.25334 0
M  V30 3031 C 420.098 2.64972 3.85157 0
M  V30 3032 N 419.533 1.78482 4.74759 0
M  V30 3033 C 420.135 1.37463 5.90819 0
M  V30 3034 N 421.312 1.7733 6.31889 0
M  V30 3035 C 421.887 2.64393 5.43725 0
M  V30 3036 H 425.366 4.12931 5.06895 0
M  V30 3037 H 426.849 5.03285 6.70911 0
M  V30 3038 H 425.155 5.20001 8.76217 0
M  V30 3039 H 424.965 7.11046 7.35349 0
M  V30 3040 H 423.335 6.35815 7.26986 0
M  V30 3041 H 424.177 4.58037 4.27732 0
M  V30 3042 H 425.975 1.61619 6.13468 0
M  V30 3043 P 427.833 3.65191 7.99657 0
M  V30 3044 O 429.255 3.8425 8.48115 0
M  V30 3045 O 427.473 4.17805 6.64342 0
M  V30 3046 O 427.51 2.07613 7.95143 0
M  V30 3047 C 427.35 1.44328 9.27336 0
M  V30 3048 C 427.89 0.0220036 9.17197 0
M  V30 3049 O 426.834 -0.626867 8.61923 0
M  V30 3050 C 429.108 -0.24586 8.30336 0
M  V30 3051 O 429.846 -1.39011 8.63583 0
M  V30 3052 C 428.439 -0.273849 6.91158 0
M  V30 3053 O 429.238 -1.06348 6.02892 0
M  V30 3054 C 427.102 -0.897649 7.22545 0
M  V30 3055 H 427.134 -1.9841 7.04286 0
M  V30 3056 H 428.317 0.739928 6.497 0
M  V30 3057 H 429.801 0.60668 8.36503 0
M  V30 3058 H 428.107 -0.352479 10.1829 0
M  V30 3059 H 427.917 2.00611 10.0304 0
M  V30 3060 H 426.287 1.41843 9.55327 0
M  V30 3061 H 428.926 -1.95734 6.03555 0
M  V30 3062 P 430.783 -1.25109 8.70152 0
M  V30 3063 O 432.205 -1.35274 9.21221 0
M  V30 3064 O 430.423 -0.0769065 7.84762 0
M  V30 3065 O 430.46 -2.55232 7.81161 0
M  V30 3066 C 430.3 -3.79939 8.58154 0
M  V30 3067 C 430.84 -4.94023 7.72785 0
M  V30 3068 O 429.784 -5.18726 6.91205 0
M  V30 3069 C 432.058 -4.69597 6.85231 0
M  V30 3070 O 432.796 -5.83832 6.51337 0
M  V30 3071 C 431.389 -3.96706 5.66633 0
M  V30 3072 O 432.188 -4.15414 4.49689 0
M  V30 3073 C 430.052 -4.66153 5.59313 0
M  V30 3074 H 430.084 -5.47679 4.85214 0
M  V30 3075 H 431.267 -2.89008 5.86566 0
M  V30 3076 H 432.751 -4.0121 7.36511 0
M  V30 3077 H 431.057 -5.80182 8.37584 0
M  V30 3078 H 430.867 -3.73517 9.52265 0
M  V30 3079 H 429.237 -3.97163 8.80359 0
M  V30 3080 H 431.876 -4.90969 4.01921 0
M  V30 3081 P 433.734 -5.75688 6.64379 0
M  V30 3082 O 435.156 -6.11849 7.01846 0
M  V30 3083 O 433.374 -4.30744 6.56026 0
M  V30 3084 O 433.411 -6.37042 5.19165 0
M  V30 3085 C 433.251 -7.83578 5.16515 0
M  V30 3086 C 433.791 -8.33398 3.83019 0
M  V30 3087 O 432.735 -8.10074 3.01034 0
M  V30 3088 C 435.009 -7.65514 3.2257 0
M  V30 3089 O 435.747 -8.4329 2.32297 0
M  V30 3090 C 434.34 -6.40075 2.62207 0
M  V30 3091 O 435.139 -5.92589 1.53712 0
M  V30 3092 C 433.003 -6.9454 2.18503 0
M  V30 3093 H 433.035 -7.23063 1.12091 0
M  V30 3094 H 434.218 -5.6025 3.37201 0
M  V30 3095 H 435.702 -7.35707 4.02681 0
M  V30 3096 H 434.008 -9.40912 3.9095 0
M  V30 3097 H 433.818 -8.29056 5.99158 0
M  V30 3098 H 432.188 -8.10073 5.25882 0
M  V30 3099 H 434.827 -6.30324 0.726794 0
M  V30 3100 P 436.684 -8.4349 2.47671 0
M  V30 3101 O 438.106 -8.94359 2.59696 0
M  V30 3102 O 436.324 -7.1704 3.19006 0
M  V30 3103 O 436.361 -8.16596 0.923387 0
M  V30 3104 C 436.201 -9.38437 0.108857 0
M  V30 3105 C 436.741 -9.08076 -1.28339 0
M  V30 3106 O 435.686 -8.44229 -1.84713 0
M  V30 3107 C 437.959 -8.18386 -1.42505 0
M  V30 3108 O 438.697 -8.3501 -2.60497 0
M  V30 3109 C 437.291 -6.80225 -1.25468 0
M  V30 3110 O 438.089 -5.81526 -1.91035 0
M  V30 3111 C 435.953 -7.02416 -1.9168 0
M  V30 3112 N 434.91 -6.31033 -1.20314 0
M  V30 3113 C 434.972 -6.18781 0.121293 0
M  V30 3114 N 433.927 -5.49762 0.588272 0
M  V30 3115 C 433.193 -5.22015 -0.488988 0
M  V30 3116 C 431.887 -4.61966 -0.596448 0
M  V30 3117 O 431.154 -4.19162 0.309059 0
M  V30 3118 N 431.457 -4.53773 -1.878 0
M  V30 3119 C 432.206 -4.99623 -2.99082 0
M  V30 3120 N 431.609 -4.78912 -4.21227 0
M  V30 3121 N 433.359 -5.59957 -2.91093 0
M  V30 3122 C 433.816 -5.70225 -1.64218 0
M  V30 3123 H 435.985 -6.6888 -2.96621 0
M  V30 3124 H 437.168 -6.53517 -0.192194 0
M  V30 3125 H 438.653 -8.36563 -0.598329 0
M  V30 3126 H 436.958 -10.0291 -1.79807 0
M  V30 3127 H 436.768 -10.2138 0.558219 0
M  V30 3128 H 435.137 -9.6579 0.0444202 0
M  V30 3129 H 430.561 -4.12883 -2.05283 0
M  V30 3130 H 435.768 -6.59596 0.745856 0
M  V30 3131 H 430.698 -4.31425 -4.2628 0
M  V30 3132 H 432.074 -5.11219 -5.07148 0
M  V30 3133 H 437.778 -5.69466 -2.79593 0
M  V30 3134 P 439.635 -8.4349 -2.47671 0
M  V30 3135 O 441.057 -8.92593 -2.65 0
M  V30 3136 O 439.275 -7.7568 -1.19296 0
M  V30 3137 O 439.312 -7.36886 -3.63805 0
M  V30 3138 C 439.152 -7.95349 -4.982 0
M  V30 3139 C 439.692 -6.94612 -5.98974 0
M  V30 3140 O 438.636 -6.10347 -6.11815 0
M  V30 3141 C 440.91 -6.11426 -5.62335 0
M  V30 3142 O 441.648 -5.6162 -6.70584 0
M  V30 3143 C 440.241 -5.04409 -4.73308 0
M  V30 3144 O 441.04 -3.85992 -4.75183 0
M  V30 3145 C 438.904 -4.8728 -5.41006 0
M  V30 3146 H 438.936 -4.02333 -6.11157 0
M  V30 3147 H 440.119 -5.39466 -3.69543 0
M  V30 3148 H 441.603 -6.71916 -5.01943 0
M  V30 3149 H 439.909 -7.4649 -6.93477 0
M  V30 3150 H 439.719 -8.89416 -5.05237 0
M  V30 3151 H 438.089 -8.14876 -5.18409 0
M  V30 3152 H 440.728 -3.27957 -5.4317 0
M  V30 3153 P 442.586 -5.75688 -6.64379 0
M  V30 3154 O 444.008 -6.07627 -7.05504 0
M  V30 3155 O 442.226 -5.88047 -5.19722 0
M  V30 3156 O 442.263 -4.2322 -7.04443 0
M  V30 3157 C 442.103 -3.99743 -8.4911 0
M  V30 3158 C 442.643 -2.60516 -8.79425 0
M  V30 3159 O 441.587 -1.82684 -8.4467 0
M  V30 3160 C 443.861 -2.10343 -8.03628 0
M  V30 3161 O 444.599 -1.09919 -8.67766 0
M  V30 3162 C 443.192 -1.68446 -6.70876 0
M  V30 3163 O 443.991 -0.678137 -6.08433 0
M  V30 3164 C 441.855 -1.17436 -7.18567 0
M  V30 3165 H 441.887 -0.0804732 -7.31656 0
M  V30 3166 H 443.07 -2.54037 -6.02537 0
M  V30 3167 H 444.554 -2.93881 -7.85526 0
M  V30 3168 H 442.86 -2.53065 -9.86973 0
M  V30 3169 H 442.67 -4.75072 -9.05887 0
M  V30 3170 H 441.04 -4.05244 -8.76668 0
M  V30 3171 H 443.679 0.177647 -6.34251 0
M  V30 3172 P 445.536 -1.25109 -8.70152 0
M  V30 3173 O 446.958 -1.29744 -9.22016 0
M  V30 3174 O 445.176 -2.13714 -7.55141 0
M  V30 3175 O 445.213 0.248149 -8.21425 0
M  V30 3176 C 445.053 1.22779 -9.30434 0
M  V30 3177 C 445.593 2.56293 -8.80664 0
M  V30 3178 O 444.537 3.02979 -8.09349 0
M  V30 3179 C 446.811 2.57523 -7.89775 0
M  V30 3180 O 447.549 3.7668 -7.89438 0
M  V30 3181 C 446.142 2.20997 -6.55446 0
M  V30 3182 O 446.941 2.71895 -5.48509 0
M  V30 3183 C 444.805 2.89693 -6.67988 0
M  V30 3184 H 444.837 3.88793 -6.19859 0
M  V30 3185 H 446.02 1.12046 -6.44229 0
M  V30 3186 H 447.504 1.7746 -8.19711 0
M  V30 3187 H 445.81 3.20706 -9.67112 0
M  V30 3188 H 445.62 0.901032 -10.1892 0
M  V30 3189 H 443.99 1.33049 -9.56592 0
M  V30 3190 H 446.629 3.57847 -5.23962 0
M  V30 3191 P 448.487 3.65191 -7.99657 0
M  V30 3192 O 449.908 3.89374 -8.45885 0
M  V30 3193 O 448.127 2.28472 -7.50807 0
M  V30 3194 O 448.164 4.64972 -6.77611 0
M  V30 3195 C 448.003 6.06383 -7.16428 0
M  V30 3196 C 448.544 6.91731 -6.02299 0
M  V30 3197 O 447.489 6.92369 -5.17005 0
M  V30 3198 C 449.762 6.43627 -5.25174 0
M  V30 3199 O 450.5 7.43686 -4.60469 0
M  V30 3200 C 449.094 5.40275 -4.31916 0
M  V30 3201 O 449.892 5.24878 -3.14911 0
M  V30 3202 C 447.756 6.04847 -4.05327 0
M  V30 3203 N 446.713 5.04166 -3.98114 0
M  V30 3204 C 446.882 3.84629 -4.59066 0
M  V30 3205 N 445.855 3.0363 -4.45343 0
M  V30 3206 C 444.97 3.76722 -3.68523 0
M  V30 3207 C 443.703 3.43528 -3.17088 0
M  V30 3208 N 443.104 2.23665 -3.37397 0
M  V30 3209 N 443.138 4.44526 -2.44231 0
M  V30 3210 C 443.74 5.65243 -2.20146 0
M  V30 3211 N 444.917 6.00221 -2.65453 0
M  V30 3212 C 445.492 5.00564 -3.39083 0
M  V30 3213 H 447.788 6.62104 -3.11218 0
M  V30 3214 H 448.971 4.42969 -4.80867 0
M  V30 3215 H 450.454 5.92458 -5.93643 0
M  V30 3216 H 448.76 7.93295 -6.39407 0
M  V30 3217 H 448.57 6.26671 -8.0846 0
M  V30 3218 H 446.94 6.29101 -7.32804 0
M  V30 3219 H 443.204 6.36894 -1.5883 0
M  V30 3220 H 447.782 3.58193 -5.14248 0
M  V30 3221 H 442.174 2.05145 -2.97047 0
M  V30 3222 H 443.578 1.51255 -3.92998 0
M  V30 3223 H 449.58 5.84223 -2.47279 0
M  V30 3224 P 451.437 7.39546 -4.75277 0
M  V30 3225 O 452.859 7.84798 -5.01039 0
M  V30 3226 O 451.077 5.9812 -5.08098 0
M  V30 3227 O 451.114 7.57503 -3.1866 0
M  V30 3228 C 450.954 8.97357 -2.74833 0
M  V30 3229 C 451.494 9.07548 -1.32709 0
M  V30 3230 O 450.438 8.62072 -0.606159 0
M  V30 3231 C 452.712 8.25383 -0.938334 0
M  V30 3232 O 453.45 8.74577 0.146954 0
M  V30 3233 C 452.043 6.8802 -0.712559 0
M  V30 3234 O 452.842 6.1189 0.194655 0
M  V30 3235 C 450.706 7.27966 -0.139777 0
M  V30 3236 H 450.738 7.25354 0.961601 0
M  V30 3237 H 451.921 6.32557 -1.65702 0
M  V30 3238 H 453.405 8.19355 -1.79097 0
M  V30 3239 H 451.711 10.1294 -1.10029 0
M  V30 3240 H 451.521 9.64276 -3.41316 0
M  V30 3241 H 449.891 9.25417 -2.76357 0
M  V30 3242 H 452.53 6.25267 1.07847 0
M  V30 3243 P 454.388 8.791 2.59334e-12 0
M  V30 3244 O 455.81 9.31096 0.027933 0
M  V30 3245 O 454.028 7.77869 -1.04071 0
M  V30 3246 O 454.065 8.09533 1.41463 0
M  V30 3247 C 453.905 9.0349 2.53943 0
M  V30 3248 C 454.445 8.35226 3.79016 0
M  V30 3249 O 453.389 7.57992 4.15078 0
M  V30 3250 C 455.663 7.45087 3.67298 0
M  V30 3251 O 456.401 7.27796 4.85194 0
M  V30 3252 C 454.994 6.17323 3.12027 0
M  V30 3253 O 455.793 5.04231 3.47188 0
M  V30 3254 C 453.657 6.19961 3.81809 0
M  V30 3255 H 453.689 5.58218 4.73051 0
M  V30 3256 H 454.872 6.21726 2.02589 0
M  V30 3257 H 456.356 7.86112 2.9231 0
M  V30 3258 H 454.662 9.11627 4.55076 0
M  V30 3259 H 454.472 9.9573 2.34194 0
M  V30 3260 H 452.842 9.2792 2.67832 0
M  V30 3261 H 455.481 4.67702 4.28772 0
M  V30 3262 P 457.338 7.39546 4.75277 0
M  V30 3263 O 458.759 7.81861 5.05793 0
M  V30 3264 O 456.978 7.1065 3.32998 0
M  V30 3265 O 457.015 6.04542 5.56673 0
M  V30 3266 C 456.854 6.22839 7.02169 0
M  V30 3267 C 457.395 4.97725 7.70406 0
M  V30 3268 O 456.34 4.13208 7.58899 0
M  V30 3269 C 458.613 4.28231 7.11815 0
M  V30 3270 O 459.351 3.49945 8.01648 0
M  V30 3271 C 457.945 3.5063 5.96244 0
M  V30 3272 O 458.743 2.37008 5.64352 0
M  V30 3273 C 456.607 3.15122 6.56374 0
M  V30 3274 N 455.564 3.22311 5.55692 0
M  V30 3275 C 455.733 3.99655 4.46046 0
M  V30 3276 N 454.706 3.97599 3.63918 0
M  V30 3277 C 453.821 3.11159 4.25334 0
M  V30 3278 C 452.554 2.64972 3.85157 0
M  V30 3279 N 451.989 1.78482 4.74759 0
M  V30 3280 C 452.591 1.37463 5.90819 0
M  V30 3281 N 453.768 1.7733 6.31889 0
M  V30 3282 C 454.343 2.64393 5.43725 0
M  V30 3283 H 457.822 4.12931 5.06895 0
M  V30 3284 H 459.305 5.03285 6.70911 0
M  V30 3285 H 457.611 5.20001 8.76217 0
M  V30 3286 H 457.421 7.11046 7.35349 0
M  V30 3287 H 455.791 6.35815 7.26986 0
M  V30 3288 H 456.633 4.58037 4.27732 0
M  V30 3289 H 458.431 1.61619 6.13468 0
M  V30 3290 P 460.289 3.65191 7.99657 0
M  V30 3291 O 461.711 3.8425 8.48115 0
M  V30 3292 O 459.929 4.17805 6.64342 0
M  V30 3293 O 459.966 2.07613 7.95143 0
M  V30 3294 C 459.806 1.44328 9.27336 0
M  V30 3295 C 460.346 0.0220036 9.17197 0
M  V30 3296 O 459.29 -0.626867 8.61923 0
M  V30 3297 C 461.564 -0.24586 8.30336 0
M  V30 3298 O 462.302 -1.39011 8.63583 0
M  V30 3299 C 460.895 -0.273849 6.91158 0
M  V30 3300 O 461.694 -1.06348 6.02892 0
M  V30 3301 C 459.558 -0.897649 7.22545 0
M  V30 3302 H 459.59 -1.9841 7.04286 0
M  V30 3303 H 460.773 0.739928 6.497 0
M  V30 3304 H 462.257 0.60668 8.36503 0
M  V30 3305 H 460.563 -0.352479 10.1829 0
M  V30 3306 H 460.373 2.00611 10.0304 0
M  V30 3307 H 458.743 1.41843 9.55327 0
M  V30 3308 H 461.382 -1.95734 6.03555 0
M  V30 3309 P 463.239 -1.25109 8.70152 0
M  V30 3310 O 464.661 -1.35274 9.21221 0
M  V30 3311 O 462.879 -0.0769065 7.84762 0
M  V30 3312 O 462.916 -2.55232 7.81161 0
M  V30 3313 C 462.756 -3.79939 8.58154 0
M  V30 3314 C 463.296 -4.94023 7.72785 0
M  V30 3315 O 462.24 -5.18726 6.91205 0
M  V30 3316 C 464.514 -4.69597 6.85231 0
M  V30 3317 O 465.252 -5.83832 6.51337 0
M  V30 3318 C 463.845 -3.96706 5.66633 0
M  V30 3319 O 464.644 -4.15414 4.49689 0
M  V30 3320 C 462.508 -4.66153 5.59313 0
M  V30 3321 H 462.54 -5.47679 4.85214 0
M  V30 3322 H 463.723 -2.89008 5.86566 0
M  V30 3323 H 465.207 -4.0121 7.36511 0
M  V30 3324 H 463.513 -5.80182 8.37584 0
M  V30 3325 H 463.323 -3.73517 9.52265 0
M  V30 3326 H 461.693 -3.97163 8.80359 0
M  V30 3327 H 464.332 -4.90969 4.01921 0
M  V30 3328 P 466.19 -5.75688 6.64379 0
M  V30 3329 O 467.612 -6.11849 7.01846 0
M  V30 3330 O 465.83 -4.30744 6.56026 0
M  V30 3331 O 465.867 -6.37042 5.19165 0
M  V30 3332 C 465.707 -7.83578 5.16515 0
M  V30 3333 C 466.247 -8.33398 3.83019 0
M  V30 3334 O 465.191 -8.10074 3.01034 0
M  V30 3335 C 467.465 -7.65514 3.2257 0
M  V30 3336 O 468.203 -8.4329 2.32297 0
M  V30 3337 C 466.796 -6.40075 2.62207 0
M  V30 3338 O 467.595 -5.92589 1.53712 0
M  V30 3339 C 465.459 -6.9454 2.18503 0
M  V30 3340 H 465.491 -7.23063 1.12091 0
M  V30 3341 H 466.674 -5.6025 3.37201 0
M  V30 3342 H 468.158 -7.35707 4.02681 0
M  V30 3343 H 466.464 -9.40912 3.9095 0
M  V30 3344 H 466.274 -8.29056 5.99158 0
M  V30 3345 H 464.644 -8.10073 5.25882 0
M  V30 3346 H 467.283 -6.30324 0.726794 0
M  V30 3347 P 469.141 -8.4349 2.47671 0
M  V30 3348 O 470.562 -8.94263 2.59668 0
M  V30 3349 O 468.781 -7.1704 3.19006 0
M  V30 3350 O 468.818 -8.16596 0.923387 0
M  V30 3351 C 468.657 -9.38537 0.108869 0
M  V30 3352 C 469.198 -9.08175 -1.28353 0
M  V30 3353 O 468.143 -8.44131 -1.84692 0
M  V30 3354 C 470.416 -8.18386 -1.42505 0
M  V30 3355 O 471.154 -8.3501 -2.60497 0
M  V30 3356 C 469.748 -6.80225 -1.25468 0
M  V30 3357 O 470.546 -5.81716 -1.90454 0
M  V30 3358 C 468.41 -7.02416 -1.9168 0
M  V30 3359 N 467.367 -6.31033 -1.20314 0
M  V30 3360 C 467.536 -5.98817 0.0994088 0
M  V30 3361 N 466.509 -5.35403 0.621694 0
M  V30 3362 C 465.624 -5.25212 -0.43376 0
M  V30 3363 C 464.357 -4.64602 -0.519722 0
M  V30 3364 N 463.758 -4.01457 0.519136 0
M  V30 3365 N 463.792 -4.7568 -1.76013 0
M  V30 3366 C 464.394 -5.3653 -2.83017 0
M  V30 3367 N 465.571 -5.93676 -2.79782 0
M  V30 3368 C 466.146 -5.84061 -1.56249 0
M  V30 3369 H 468.442 -6.68789 -2.9658 0
M  V30 3370 H 469.625 -6.53498 -0.198729 0
M  V30 3371 H 471.108 -8.36622 -0.589963 0
M  V30 3372 H 469.414 -10.0273 -1.8081 0
M  V30 3373 H 469.224 -10.2138 0.558219 0
M  V30 3374 H 467.594 -9.6579 0.0444202 0
M  V30 3375 H 463.858 -5.37113 -3.77321 0
M  V30 3376 H 468.436 -6.23209 0.660562 0
M  V30 3377 H 462.828 -3.58834 0.394862 0
M  V30 3378 H 464.232 -3.96059 1.43048 0
M  V30 3379 H 470.234 -5.69466 -2.79593 0
M  V30 3380 P 472.091 -8.4349 -2.47671 0
M  V30 3381 O 473.513 -8.92593 -2.65 0
M  V30 3382 O 471.731 -7.7568 -1.19296 0
M  V30 3383 O 471.768 -7.36886 -3.63805 0
M  V30 3384 C 471.608 -7.95349 -4.982 0
M  V30 3385 C 472.148 -6.94612 -5.98974 0
M  V30 3386 O 471.092 -6.10347 -6.11815 0
M  V30 3387 C 473.366 -6.11426 -5.62335 0
M  V30 3388 O 474.104 -5.6162 -6.70584 0
M  V30 3389 C 472.697 -5.04409 -4.73308 0
M  V30 3390 O 473.496 -3.85992 -4.75183 0
M  V30 3391 C 471.36 -4.8728 -5.41006 0
M  V30 3392 H 471.392 -4.02333 -6.11157 0
M  V30 3393 H 472.575 -5.39466 -3.69543 0
M  V30 3394 H 474.059 -6.71916 -5.01943 0
M  V30 3395 H 472.365 -7.4649 -6.93477 0
M  V30 3396 H 472.175 -8.89416 -5.05237 0
M  V30 3397 H 470.545 -8.14876 -5.18409 0
M  V30 3398 H 473.184 -3.27957 -5.4317 0
M  V30 3399 P 475.042 -5.75688 -6.64379 0
M  V30 3400 O 476.464 -6.07627 -7.05504 0
M  V30 3401 O 474.682 -5.88047 -5.19722 0
M  V30 3402 O 474.719 -4.2322 -7.04443 0
M  V30 3403 C 474.559 -3.99743 -8.4911 0
M  V30 3404 C 475.099 -2.60516 -8.79425 0
M  V30 3405 O 474.043 -1.82684 -8.4467 0
M  V30 3406 C 476.317 -2.10343 -8.03628 0
M  V30 3407 O 477.055 -1.09919 -8.67766 0
M  V30 3408 C 475.648 -1.68446 -6.70876 0
M  V30 3409 O 476.447 -0.678137 -6.08433 0
M  V30 3410 C 474.311 -1.17436 -7.18567 0
M  V30 3411 H 474.343 -0.0804732 -7.31656 0
M  V30 3412 H 475.526 -2.54037 -6.02537 0
M  V30 3413 H 477.01 -2.93881 -7.85526 0
M  V30 3414 H 475.316 -2.53065 -9.86973 0
M  V30 3415 H 475.126 -4.75072 -9.05887 0
M  V30 3416 H 473.496 -4.05244 -8.76668 0
M  V30 3417 H 476.135 0.177647 -6.34251 0
M  V30 3418 P 477.992 -1.25109 -8.70152 0
M  V30 3419 O 479.413 -1.29758 -9.22115 0
M  V30 3420 O 477.632 -2.13714 -7.55141 0
M  V30 3421 O 477.669 0.248149 -8.21425 0
M  V30 3422 C 477.508 1.22792 -9.30533 0
M  V30 3423 C 478.049 2.56293 -8.80664 0
M  V30 3424 O 476.994 3.02944 -8.09255 0
M  V30 3425 C 479.267 2.57523 -7.89775 0
M  V30 3426 O 480.005 3.7668 -7.89438 0
M  V30 3427 C 478.599 2.20997 -6.55446 0
M  V30 3428 O 479.397 2.71302 -5.48691 0
M  V30 3429 C 477.261 2.89693 -6.67988 0
M  V30 3430 N 476.218 2.08895 -6.07487 0
M  V30 3431 C 476.387 0.753809 -5.94137 0
M  V30 3432 N 475.36 0.146592 -5.38801 0
M  V30 3433 C 474.475 1.1768 -5.13693 0
M  V30 3434 C 473.208 1.17563 -4.52477 0
M  V30 3435 N 472.643 2.41918 -4.45789 0
M  V30 3436 C 473.245 3.56493 -4.90792 0
M  V30 3437 N 474.422 3.61423 -5.47817 0
M  V30 3438 C 474.997 2.37779 -5.5588 0
M  V30 3439 H 478.476 1.12673 -6.44018 0
M  V30 3440 H 479.959 1.7746 -8.19711 0
M  V30 3441 H 478.265 3.21673 -9.66791 0
M  V30 3442 H 478.075 0.901032 -10.1892 0
M  V30 3443 H 476.445 1.33049 -9.56592 0
M  V30 3444 H 477.287 0.233081 -6.26266 0
M  V30 3445 H 479.085 3.5779 -5.23879 0
M  V30 3446 P 480.943 3.65191 -7.99657 0
M  V30 3447 O 482.365 3.89332 -8.45794 0
M  V30 3448 O 480.583 2.28472 -7.50807 0
M  V30 3449 O 480.62 4.64972 -6.77611 0
M  V30 3450 C 480.46 6.06319 -7.16352 0
M  V30 3451 C 481 6.91731 -6.02299 0
M  V30 3452 O 479.944 6.92449 -5.17064 0
M  V30 3453 C 482.218 6.43627 -5.25174 0
M  V30 3454 O 482.956 7.43686 -4.60469 0
M  V30 3455 C 481.549 5.40275 -4.31916 0
M  V30 3456 O 482.348 5.25279 -3.14438 0
M  V30 3457 C 480.212 6.04847 -4.05327 0
M  V30 3458 H 480.244 6.62195 -3.11261 0
M  V30 3459 H 481.427 4.42556 -4.81383 0
M  V30 3460 H 482.911 5.92458 -5.93643 0
M  V30 3461 H 481.217 7.92655 -6.402 0
M  V30 3462 H 481.027 6.26671 -8.0846 0
M  V30 3463 H 479.397 6.29101 -7.32804 0
M  V30 3464 H 482.036 5.84315 -2.47318 0
M  V30 3465 P 483.893 7.39546 -4.75277 0
M  V30 3466 O 485.315 7.84798 -5.01039 0
M  V30 3467 O 483.533 5.9812 -5.08098 0
M  V30 3468 O 483.57 7.57503 -3.1866 0
M  V30 3469 C 483.41 8.97357 -2.74833 0
M  V30 3470 C 483.95 9.07548 -1.32709 0
M  V30 3471 O 482.894 8.62072 -0.606159 0
M  V30 3472 C 485.168 8.25383 -0.938334 0
M  V30 3473 O 485.906 8.74577 0.146954 0
M  V30 3474 C 484.499 6.8802 -0.712559 0
M  V30 3475 O 485.298 6.1189 0.194655 0
M  V30 3476 C 483.162 7.27966 -0.139777 0
M  V30 3477 H 483.194 7.25354 0.961601 0
M  V30 3478 H 484.377 6.32557 -1.65702 0
M  V30 3479 H 485.861 8.19355 -1.79097 0
M  V30 3480 H 484.167 10.1294 -1.10029 0
M  V30 3481 H 483.977 9.64276 -3.41316 0
M  V30 3482 H 482.347 9.25417 -2.76357 0
M  V30 3483 H 484.986 6.25267 1.07847 0
M  V30 3484 P 486.844 8.791 2.9035e-12 0
M  V30 3485 O 488.266 9.31096 0.027933 0
M  V30 3486 O 486.484 7.77869 -1.04071 0
M  V30 3487 O 486.521 8.09533 1.41463 0
M  V30 3488 C 486.361 9.0349 2.53943 0
M  V30 3489 C 486.901 8.35226 3.79016 0
M  V30 3490 O 485.845 7.57992 4.15078 0
M  V30 3491 C 488.119 7.45087 3.67298 0
M  V30 3492 O 488.857 7.27796 4.85194 0
M  V30 3493 C 487.45 6.17323 3.12027 0
M  V30 3494 O 488.249 5.04231 3.47188 0
M  V30 3495 C 486.113 6.19961 3.81809 0
M  V30 3496 H 486.145 5.58218 4.73051 0
M  V30 3497 H 487.328 6.21726 2.02589 0
M  V30 3498 H 488.812 7.86112 2.9231 0
M  V30 3499 H 487.118 9.11627 4.55076 0
M  V30 3500 H 486.928 9.9573 2.34194 0
M  V30 3501 H 485.298 9.2792 2.67832 0
M  V30 3502 H 487.937 4.67702 4.28772 0
M  V30 3503 P 489.795 7.39546 4.75277 0
M  V30 3504 O 491.217 7.81777 5.05738 0
M  V30 3505 O 489.435 7.1065 3.32998 0
M  V30 3506 O 489.472 6.04542 5.56673 0
M  V30 3507 C 489.312 6.22772 7.02095 0
M  V30 3508 C 489.852 4.97725 7.70406 0
M  V30 3509 O 488.796 4.13256 7.58987 0
M  V30 3510 C 491.07 4.28231 7.11815 0
M  V30 3511 O 491.808 3.49945 8.01648 0
M  V30 3512 C 490.401 3.5063 5.96244 0
M  V30 3513 O 491.2 2.36482 5.64681 0
M  V30 3514 C 489.064 3.15122 6.56374 0
M  V30 3515 H 489.096 2.13853 6.99751 0
M  V30 3516 H 490.279 4.13501 5.06559 0
M  V30 3517 H 491.763 5.03285 6.70911 0
M  V30 3518 H 490.069 5.20877 8.75697 0
M  V30 3519 H 489.879 7.11046 7.35349 0
M  V30 3520 H 488.249 6.35815 7.26986 0
M  V30 3521 H 490.888 1.61644 6.13565 0
M  V30 3522 P 492.745 3.65191 7.99657 0
M  V30 3523 O 494.167 3.8425 8.48115 0
M  V30 3524 O 492.385 4.17805 6.64342 0
M  V30 3525 O 492.422 2.07613 7.95143 0
M  V30 3526 C 492.262 1.44328 9.27336 0
M  V30 3527 C 492.802 0.0220036 9.17197 0
M  V30 3528 O 491.746 -0.626867 8.61923 0
M  V30 3529 C 494.02 -0.24586 8.30336 0
M  V30 3530 O 494.758 -1.39011 8.63583 0
M  V30 3531 C 493.351 -0.273849 6.91158 0
M  V30 3532 O 494.15 -1.06348 6.02892 0
M  V30 3533 C 492.014 -0.897649 7.22545 0
M  V30 3534 H 492.046 -1.9841 7.04286 0
M  V30 3535 H 493.229 0.739928 6.497 0
M  V30 3536 H 494.713 0.60668 8.36503 0
M  V30 3537 H 493.019 -0.352479 10.1829 0
M  V30 3538 H 492.829 2.00611 10.0304 0
M  V30 3539 H 491.199 1.41843 9.55327 0
M  V30 3540 H 493.838 -1.95734 6.03555 0
M  V30 3541 P 495.696 -1.25109 8.70152 0
M  V30 3542 O 497.117 -1.35288 9.2132 0
M  V30 3543 O 495.336 -0.0769065 7.84762 0
M  V30 3544 O 495.373 -2.55232 7.81161 0
M  V30 3545 C 495.212 -3.79979 8.58246 0
M  V30 3546 C 495.753 -4.94023 7.72785 0
M  V30 3547 O 494.698 -5.18666 6.91125 0
M  V30 3548 C 496.971 -4.69597 6.85231 0
M  V30 3549 O 497.709 -5.83832 6.51337 0
M  V30 3550 C 496.303 -3.96706 5.66633 0
M  V30 3551 O 497.101 -4.14896 4.5003 0
M  V30 3552 C 494.965 -4.66153 5.59313 0
M  V30 3553 N 493.922 -3.71582 5.24027 0
M  V30 3554 C 494.091 -2.39715 5.48833 0
M  V30 3555 N 493.064 -1.65863 5.12845 0
M  V30 3556 C 492.179 -2.57637 4.5973 0
M  V30 3557 C 490.912 -2.40278 4.01027 0
M  V30 3558 N 490.313 -1.19549 3.86744 0
M  V30 3559 N 490.347 -3.57711 3.59575 0
M  V30 3560 C 490.949 -4.80324 3.70476 0
M  V30 3561 N 492.126 -5.01121 4.23801 0
M  V30 3562 C 492.701 -3.84757 4.66372 0
M  V30 3563 H 494.997 -5.47604 4.85148 0
M  V30 3564 H 496.18 -2.8955 5.86187 0
M  V30 3565 H 497.663 -4.0121 7.36511 0
M  V30 3566 H 495.969 -5.81019 8.37003 0
M  V30 3567 H 495.779 -3.73517 9.52265 0
M  V30 3568 H 494.149 -3.97163 8.80359 0
M  V30 3569 H 490.413 -5.66348 3.3183 0
M  V30 3570 H 494.991 -1.98804 5.94332 0
M  V30 3571 H 489.383 -1.13147 3.4281 0
M  V30 3572 H 490.787 -0.344074 4.19692 0
M  V30 3573 H 496.789 -4.90891 4.01857 0
M  V30 3574 P 498.646 -5.75688 6.64379 0
M  V30 3575 O 500.068 -6.11849 7.01846 0
M  V30 3576 O 498.286 -4.30744 6.56026 0
M  V30 3577 O 498.323 -6.37042 5.19165 0
M  V30 3578 C 498.163 -7.83578 5.16515 0
M  V30 3579 C 498.703 -8.33398 3.83019 0
M  V30 3580 O 497.647 -8.10074 3.01034 0
M  V30 3581 C 499.921 -7.65514 3.2257 0
M  V30 3582 O 500.659 -8.4329 2.32297 0
M  V30 3583 C 499.252 -6.40075 2.62207 0
M  V30 3584 O 500.051 -5.92589 1.53712 0
M  V30 3585 C 497.915 -6.9454 2.18503 0
M  V30 3586 H 497.947 -7.23063 1.12091 0
M  V30 3587 H 499.13 -5.6025 3.37201 0
M  V30 3588 H 500.614 -7.35707 4.02681 0
M  V30 3589 H 498.92 -9.40912 3.9095 0
M  V30 3590 H 498.73 -8.29056 5.99158 0
M  V30 3591 H 497.1 -8.10073 5.25882 0
M  V30 3592 H 499.739 -6.30324 0.726794 0
M  V30 3593 P 501.597 -8.4349 2.47671 0
M  V30 3594 O 503.018 -8.94263 2.59668 0
M  V30 3595 O 501.237 -7.1704 3.19006 0
M  V30 3596 O 501.274 -8.16596 0.923387 0
M  V30 3597 C 501.113 -9.38537 0.108869 0
M  V30 3598 C 501.654 -9.08175 -1.28353 0
M  V30 3599 O 500.599 -8.44131 -1.84692 0
M  V30 3600 C 502.872 -8.18386 -1.42505 0
M  V30 3601 O 503.61 -8.3501 -2.60497 0
M  V30 3602 C 502.204 -6.80225 -1.25468 0
M  V30 3603 O 503.002 -5.81716 -1.90454 0
M  V30 3604 C 500.866 -7.02416 -1.9168 0
M  V30 3605 N 499.823 -6.31033 -1.20314 0
M  V30 3606 C 499.992 -5.98817 0.0994088 0
M  V30 3607 N 498.965 -5.35403 0.621694 0
M  V30 3608 C 498.08 -5.25212 -0.43376 0
M  V30 3609 C 496.813 -4.64602 -0.519722 0
M  V30 3610 N 496.248 -4.7568 -1.76013 0
M  V30 3611 C 496.85 -5.3653 -2.83017 0
M  V30 3612 N 498.027 -5.93676 -2.79782 0
M  V30 3613 C 498.602 -5.84061 -1.56249 0
M  V30 3614 H 502.081 -6.53498 -0.198729 0
M  V30 3615 H 503.564 -8.36622 -0.589963 0
M  V30 3616 H 501.87 -10.0273 -1.8081 0
M  V30 3617 H 501.68 -10.2138 0.558219 0
M  V30 3618 H 500.05 -9.6579 0.0444202 0
M  V30 3619 H 500.892 -6.23209 0.660562 0
M  V30 3620 H 502.69 -5.69466 -2.79593 0
M  V30 3621 P 504.547 -8.4349 -2.47671 0
M  V30 3622 O 505.948 -8.99283 -2.62101 0
M  V30 3623 O 504.169 -7.81195 -1.16947 0
M  V30 3624 O 504.224 -7.36797 -3.63761 0
M  V30 3625 C 504.064 -7.95349 -4.982 0
M  V30 3626 C 504.604 -6.94537 -5.98908 0
M  V30 3627 O 503.548 -6.10277 -6.11744 0
M  V30 3628 C 505.821 -6.11426 -5.62335 0
M  V30 3629 O 506.56 -5.6162 -6.70584 0
M  V30 3630 C 505.154 -5.04409 -4.73308 0
M  V30 3631 O 505.952 -3.85929 -4.75106 0
M  V30 3632 C 503.816 -4.8728 -5.41006 0
M  V30 3633 N 502.773 -4.65812 -4.42377 0
M  V30 3634 C 501.738 -3.81293 -4.74224 0
M  V30 3635 O 501.777 -3.20533 -5.83679 0
M  V30 3636 N 500.726 -3.6442 -3.86349 0
M  V30 3637 C 500.774 -4.2728 -2.6824 0
M  V30 3638 C 501.87 -5.10813 -2.3217 0
M  V30 3639 C 502.836 -5.27909 -3.22647 0
M  V30 3640 H 503.848 -4.02278 -6.11074 0
M  V30 3641 H 505.031 -5.39013 -3.70026 0
M  V30 3642 H 506.515 -6.71494 -5.02675 0
M  V30 3643 H 504.821 -7.45796 -6.94223 0
M  V30 3644 H 504.63 -8.89416 -5.05237 0
M  V30 3645 H 503 -8.14791 -5.18355 0
M  V30 3646 H 501.918 -5.58884 -1.34755 0
M  V30 3647 H 503.682 -5.92811 -2.9934 0
M  V30 3648 H 505.736 -3.3454 -5.51577 0
M  V30 3649 P 507.498 -5.75688 -6.64379 0
M  V30 3650 O 508.92 -6.07627 -7.05504 0
M  V30 3651 O 507.138 -5.88047 -5.19722 0
M  V30 3652 O 507.175 -4.2322 -7.04443 0
M  V30 3653 C 507.015 -3.99743 -8.4911 0
M  V30 3654 C 507.555 -2.60516 -8.79425 0
M  V30 3655 O 506.499 -1.82684 -8.4467 0
M  V30 3656 C 508.773 -2.10343 -8.03628 0
M  V30 3657 O 509.511 -1.09919 -8.67766 0
M  V30 3658 C 508.104 -1.68446 -6.70876 0
M  V30 3659 O 508.903 -0.678137 -6.08433 0
M  V30 3660 C 506.767 -1.17436 -7.18567 0
M  V30 3661 H 506.799 -0.0804732 -7.31656 0
M  V30 3662 H 507.982 -2.54037 -6.02537 0
M  V30 3663 H 509.466 -2.93881 -7.85526 0
M  V30 3664 H 507.772 -2.53065 -9.86973 0
M  V30 3665 H 507.582 -4.75072 -9.05887 0
M  V30 3666 H 505.952 -4.05244 -8.76668 0
M  V30 3667 H 508.591 0.177647 -6.34251 0
M  V30 3668 P 510.449 -1.25109 -8.70152 0
M  V30 3669 O 511.871 -1.29772 -9.22214 0
M  V30 3670 O 510.089 -2.13714 -7.55141 0
M  V30 3671 O 510.126 0.248149 -8.21425 0
M  V30 3672 C 509.966 1.22779 -9.30434 0
M  V30 3673 C 510.506 2.56265 -8.80568 0
M  V30 3674 O 509.451 3.02979 -8.09349 0
M  V30 3675 C 511.724 2.57523 -7.89775 0
M  V30 3676 O 512.462 3.7668 -7.89438 0
M  V30 3677 C 511.056 2.20997 -6.55446 0
M  V30 3678 O 511.854 2.71851 -5.48419 0
M  V30 3679 C 509.718 2.89693 -6.67988 0
M  V30 3680 N 508.675 2.08895 -6.07487 0
M  V30 3681 C 508.737 0.760559 -6.14209 0
M  V30 3682 N 507.692 0.200108 -5.52538 0
M  V30 3683 C 506.958 1.22692 -5.09742 0
M  V30 3684 C 505.652 1.24782 -4.48775 0
M  V30 3685 O 504.919 0.290617 -4.19294 0
M  V30 3686 N 505.222 2.50468 -4.22428 0
M  V30 3687 C 505.971 3.67142 -4.51974 0
M  V30 3688 N 505.374 4.85096 -4.14091 0
M  V30 3689 N 507.124 3.67821 -5.12831 0
M  V30 3690 C 507.581 2.43698 -5.4105 0
M  V30 3691 H 509.75 3.88793 -6.19859 0
M  V30 3692 H 510.933 1.12029 -6.4413 0
M  V30 3693 H 512.418 1.78279 -8.19533 0
M  V30 3694 H 510.723 3.20706 -9.67112 0
M  V30 3695 H 510.533 0.901032 -10.1892 0
M  V30 3696 H 508.902 1.33049 -9.56592 0
M  V30 3697 H 504.326 2.61953 -3.79465 0
M  V30 3698 H 509.533 0.200439 -6.63497 0
M  V30 3699 H 504.463 4.8334 -3.66367 0
M  V30 3700 H 505.839 5.7474 -4.33841 0
M  V30 3701 H 511.543 3.5779 -5.23879 0
M  V30 3702 P 513.399 3.65191 -7.99657 0
M  V30 3703 O 514.82 3.89374 -8.45885 0
M  V30 3704 O 513.039 2.28472 -7.50807 0
M  V30 3705 O 513.076 4.64972 -6.77611 0
M  V30 3706 C 512.915 6.06383 -7.16428 0
M  V30 3707 C 513.456 6.91731 -6.02299 0
M  V30 3708 O 512.401 6.92369 -5.17005 0
M  V30 3709 C 514.674 6.43627 -5.25174 0
M  V30 3710 O 515.412 7.43686 -4.60469 0
M  V30 3711 C 514.006 5.40275 -4.31916 0
M  V30 3712 O 514.804 5.24878 -3.14911 0
M  V30 3713 C 512.668 6.04847 -4.05327 0
M  V30 3714 N 511.625 5.04166 -3.98114 0
M  V30 3715 C 511.794 3.84629 -4.59066 0
M  V30 3716 N 510.767 3.0363 -4.45343 0
M  V30 3717 C 509.882 3.76722 -3.68523 0
M  V30 3718 C 508.615 3.43528 -3.17088 0
M  V30 3719 N 508.05 4.44526 -2.44231 0
M  V30 3720 C 508.652 5.65243 -2.20146 0
M  V30 3721 N 509.829 6.00221 -2.65453 0
M  V30 3722 C 510.404 5.00564 -3.39083 0
M  V30 3723 H 513.883 4.42969 -4.80867 0
M  V30 3724 H 515.366 5.92458 -5.93643 0
M  V30 3725 H 513.672 7.93295 -6.39407 0
M  V30 3726 H 513.482 6.26671 -8.0846 0
M  V30 3727 H 511.852 6.29101 -7.32804 0
M  V30 3728 H 512.694 3.58193 -5.14248 0
M  V30 3729 H 514.492 5.84223 -2.47279 0
M  V30 3730 P 516.35 7.39546 -4.75277 0
M  V30 3731 O 517.772 7.84966 -5.01146 0
M  V30 3732 O 515.99 5.9812 -5.08098 0
M  V30 3733 O 516.027 7.57503 -3.1866 0
M  V30 3734 C 515.867 8.97357 -2.74833 0
M  V30 3735 C 516.407 9.0745 -1.32694 0
M  V30 3736 O 515.352 8.62072 -0.606159 0
M  V30 3737 C 517.625 8.25383 -0.938334 0
M  V30 3738 O 518.363 8.74577 0.146954 0
M  V30 3739 C 516.957 6.8802 -0.712559 0
M  V30 3740 O 517.755 6.11791 0.194623 0
M  V30 3741 C 515.619 7.27966 -0.139777 0
M  V30 3742 N 514.576 6.39368 -0.623421 0
M  V30 3743 C 514.638 5.90299 -1.85969 0
M  V30 3744 N 513.593 5.10919 -2.1133 0
M  V30 3745 C 512.859 5.14646 -1.0015 0
M  V30 3746 C 511.553 4.60057 -0.729219 0
M  V30 3747 O 510.82 3.93476 -1.47746 0
M  V30 3748 N 511.123 4.88302 0.523505 0
M  V30 3749 C 511.872 5.63646 1.46207 0
M  V30 3750 N 511.275 5.78186 2.69239 0
M  V30 3751 N 513.025 6.19285 1.21544 0
M  V30 3752 C 513.482 5.93392 -0.0308487 0
M  V30 3753 H 515.651 7.25354 0.961601 0
M  V30 3754 H 516.834 6.3246 -1.65676 0
M  V30 3755 H 518.319 8.19533 -1.78278 0
M  V30 3756 H 516.624 10.1294 -1.10029 0
M  V30 3757 H 516.434 9.64276 -3.41316 0
M  V30 3758 H 514.803 9.25417 -2.76357 0
M  V30 3759 H 510.227 4.53993 0.806451 0
M  V30 3760 H 515.434 6.11865 -2.57394 0
M  V30 3761 H 510.364 5.34046 2.87467 0
M  V30 3762 H 511.74 6.33391 3.42578 0
M  V30 3763 H 517.444 6.25169 1.0783 0
M  V30 3764 P 519.3 8.791 3.21367e-12 0
M  V30 3765 O 520.722 9.31096 0.027933 0
M  V30 3766 O 518.94 7.77869 -1.04071 0
M  V30 3767 O 518.977 8.09533 1.41463 0
M  V30 3768 C 518.817 9.0349 2.53943 0
M  V30 3769 C 519.357 8.35226 3.79016 0
M  V30 3770 O 518.301 7.57992 4.15078 0
M  V30 3771 C 520.575 7.45087 3.67298 0
M  V30 3772 O 521.313 7.27796 4.85194 0
M  V30 3773 C 519.906 6.17323 3.12027 0
M  V30 3774 O 520.705 5.04231 3.47188 0
M  V30 3775 C 518.569 6.19961 3.81809 0
M  V30 3776 H 518.601 5.58218 4.73051 0
M  V30 3777 H 519.784 6.21726 2.02589 0
M  V30 3778 H 521.268 7.86112 2.9231 0
M  V30 3779 H 519.574 9.11627 4.55076 0
M  V30 3780 H 519.384 9.9573 2.34194 0
M  V30 3781 H 517.754 9.2792 2.67832 0
M  V30 3782 H 520.393 4.67702 4.28772 0
M  V30 3783 P 522.251 7.39546 4.75277 0
M  V30 3784 O 523.673 7.81777 5.05738 0
M  V30 3785 O 521.891 7.1065 3.32998 0
M  V30 3786 O 521.928 6.04542 5.56673 0
M  V30 3787 C 521.768 6.22772 7.02095 0
M  V30 3788 C 522.308 4.97725 7.70406 0
M  V30 3789 O 521.252 4.13256 7.58987 0
M  V30 3790 C 523.526 4.28231 7.11815 0
M  V30 3791 O 524.264 3.49945 8.01648 0
M  V30 3792 C 522.857 3.5063 5.96244 0
M  V30 3793 O 523.656 2.36482 5.64681 0
M  V30 3794 C 521.52 3.15122 6.56374 0
M  V30 3795 H 521.552 2.13853 6.99751 0
M  V30 3796 H 522.735 4.13501 5.06559 0
M  V30 3797 H 524.219 5.03285 6.70911 0
M  V30 3798 H 522.525 5.20877 8.75697 0
M  V30 3799 H 522.335 7.11046 7.35349 0
M  V30 3800 H 520.705 6.35815 7.26986 0
M  V30 3801 H 523.344 1.61644 6.13565 0
M  V30 3802 P 525.201 3.65191 7.99657 0
M  V30 3803 O 526.623 3.8425 8.48115 0
M  V30 3804 O 524.841 4.17805 6.64342 0
M  V30 3805 O 524.878 2.07613 7.95143 0
M  V30 3806 C 524.718 1.44328 9.27336 0
M  V30 3807 C 525.258 0.0220036 9.17197 0
M  V30 3808 O 524.202 -0.626867 8.61923 0
M  V30 3809 C 526.476 -0.24586 8.30336 0
M  V30 3810 O 527.214 -1.39011 8.63583 0
M  V30 3811 C 525.807 -0.273849 6.91158 0
M  V30 3812 O 526.606 -1.06348 6.02892 0
M  V30 3813 C 524.47 -0.897649 7.22545 0
M  V30 3814 H 524.502 -1.9841 7.04286 0
M  V30 3815 H 525.685 0.739928 6.497 0
M  V30 3816 H 527.169 0.60668 8.36503 0
M  V30 3817 H 525.475 -0.352479 10.1829 0
M  V30 3818 H 525.285 2.00611 10.0304 0
M  V30 3819 H 523.655 1.41843 9.55327 0
M  V30 3820 H 526.294 -1.95734 6.03555 0
M  V30 3821 P 528.152 -1.25109 8.70152 0
M  V30 3822 O 529.574 -1.35274 9.21221 0
M  V30 3823 O 527.792 -0.0769065 7.84762 0
M  V30 3824 O 527.829 -2.55232 7.81161 0
M  V30 3825 C 527.669 -3.79939 8.58154 0
M  V30 3826 C 528.209 -4.94023 7.72785 0
M  V30 3827 O 527.153 -5.18726 6.91205 0
M  V30 3828 C 529.427 -4.69597 6.85231 0
M  V30 3829 O 530.165 -5.83832 6.51337 0
M  V30 3830 C 528.758 -3.96706 5.66633 0
M  V30 3831 O 529.557 -4.15414 4.49689 0
M  V30 3832 C 527.421 -4.66153 5.59313 0
M  V30 3833 H 527.453 -5.47679 4.85214 0
M  V30 3834 H 528.636 -2.89008 5.86566 0
M  V30 3835 H 530.12 -4.0121 7.36511 0
M  V30 3836 H 528.426 -5.80182 8.37584 0
M  V30 3837 H 528.236 -3.73517 9.52265 0
M  V30 3838 H 526.606 -3.97163 8.80359 0
M  V30 3839 H 529.245 -4.90969 4.01921 0
M  V30 3840 P 531.103 -5.75688 6.64379 0
M  V30 3841 O 532.525 -6.11849 7.01846 0
M  V30 3842 O 530.743 -4.30744 6.56026 0
M  V30 3843 O 530.78 -6.37042 5.19165 0
M  V30 3844 C 530.62 -7.83578 5.16515 0
M  V30 3845 C 531.16 -8.33398 3.83019 0
M  V30 3846 O 530.104 -8.10074 3.01034 0
M  V30 3847 C 532.378 -7.65514 3.2257 0
M  V30 3848 O 533.116 -8.4329 2.32297 0
M  V30 3849 C 531.709 -6.40075 2.62207 0
M  V30 3850 O 532.508 -5.92589 1.53712 0
M  V30 3851 C 530.372 -6.9454 2.18503 0
M  V30 3852 H 530.404 -7.23063 1.12091 0
M  V30 3853 H 531.587 -5.6025 3.37201 0
M  V30 3854 H 533.071 -7.35707 4.02681 0
M  V30 3855 H 531.377 -9.40912 3.9095 0
M  V30 3856 H 531.187 -8.29056 5.99158 0
M  V30 3857 H 529.557 -8.10073 5.25882 0
M  V30 3858 H 532.196 -6.30324 0.726794 0
M  V30 3859 P 534.053 -8.4349 2.47671 0
M  V30 3860 O 535.475 -8.94167 2.5964 0
M  V30 3861 O 533.693 -7.1704 3.19006 0
M  V30 3862 O 533.73 -8.16596 0.923387 0
M  V30 3863 C 533.57 -9.38437 0.108857 0
M  V30 3864 C 534.11 -9.08175 -1.28353 0
M  V30 3865 O 533.054 -8.44229 -1.84713 0
M  V30 3866 C 535.328 -8.18386 -1.42505 0
M  V30 3867 O 536.066 -8.3501 -2.60497 0
M  V30 3868 C 534.659 -6.80225 -1.25468 0
M  V30 3869 O 535.458 -5.81621 -1.91066 0
M  V30 3870 C 533.322 -7.02416 -1.9168 0
M  V30 3871 H 533.354 -6.6888 -2.96621 0
M  V30 3872 H 534.537 -6.53617 -0.192223 0
M  V30 3873 H 536.021 -8.36622 -0.589963 0
M  V30 3874 H 534.327 -10.0291 -1.79807 0
M  V30 3875 H 534.137 -10.2138 0.558219 0
M  V30 3876 H 532.507 -9.6579 0.0444202 0
M  V30 3877 H 535.146 -5.69556 -2.79637 0
M  V30 3878 P 537.004 -8.4349 -2.47671 0
M  V30 3879 O 538.426 -8.92593 -2.65 0
M  V30 3880 O 536.644 -7.7568 -1.19296 0
M  V30 3881 O 536.681 -7.36886 -3.63805 0
M  V30 3882 C 536.521 -7.95349 -4.982 0
M  V30 3883 C 537.061 -6.94612 -5.98974 0
M  V30 3884 O 536.005 -6.10347 -6.11815 0
M  V30 3885 C 538.279 -6.11426 -5.62335 0
M  V30 3886 O 539.017 -5.6162 -6.70584 0
M  V30 3887 C 537.61 -5.04409 -4.73308 0
M  V30 3888 O 538.409 -3.85992 -4.75183 0
M  V30 3889 C 536.273 -4.8728 -5.41006 0
M  V30 3890 H 536.305 -4.02333 -6.11157 0
M  V30 3891 H 537.488 -5.39466 -3.69543 0
M  V30 3892 H 538.972 -6.71916 -5.01943 0
M  V30 3893 H 537.278 -7.4649 -6.93477 0
M  V30 3894 H 537.088 -8.89416 -5.05237 0
M  V30 3895 H 535.458 -8.14876 -5.18409 0
M  V30 3896 H 538.097 -3.27957 -5.4317 0
M  V30 3897 P 539.954 -5.75688 -6.64379 0
M  V30 3898 O 541.376 -6.07627 -7.05504 0
M  V30 3899 O 539.594 -5.88047 -5.19722 0
M  V30 3900 O 539.631 -4.2322 -7.04443 0
M  V30 3901 C 539.471 -3.99743 -8.4911 0
M  V30 3902 C 540.011 -2.60516 -8.79425 0
M  V30 3903 O 538.955 -1.82684 -8.4467 0
M  V30 3904 C 541.229 -2.10343 -8.03628 0
M  V30 3905 O 541.967 -1.09919 -8.67766 0
M  V30 3906 C 540.56 -1.68446 -6.70876 0
M  V30 3907 O 541.359 -0.678137 -6.08433 0
M  V30 3908 C 539.223 -1.17436 -7.18567 0
M  V30 3909 H 539.255 -0.0804732 -7.31656 0
M  V30 3910 H 540.438 -2.54037 -6.02537 0
M  V30 3911 H 541.922 -2.93881 -7.85526 0
M  V30 3912 H 540.228 -2.53065 -9.86973 0
M  V30 3913 H 540.038 -4.75072 -9.05887 0
M  V30 3914 H 538.408 -4.05244 -8.76668 0
M  V30 3915 H 541.047 0.177647 -6.34251 0
M  V30 3916 P 542.905 -1.25109 -8.70152 0
M  V30 3917 O 544.327 -1.29744 -9.22016 0
M  V30 3918 O 542.545 -2.13714 -7.55141 0
M  V30 3919 O 542.582 0.248149 -8.21425 0
M  V30 3920 C 542.422 1.22779 -9.30434 0
M  V30 3921 C 542.962 2.56293 -8.80664 0
M  V30 3922 O 541.906 3.02979 -8.09349 0
M  V30 3923 C 544.18 2.57523 -7.89775 0
M  V30 3924 O 544.918 3.7668 -7.89438 0
M  V30 3925 C 543.511 2.20997 -6.55446 0
M  V30 3926 O 544.31 2.71895 -5.48509 0
M  V30 3927 C 542.174 2.89693 -6.67988 0
M  V30 3928 H 542.206 3.88793 -6.19859 0
M  V30 3929 H 543.389 1.12046 -6.44229 0
M  V30 3930 H 544.873 1.7746 -8.19711 0
M  V30 3931 H 543.179 3.20706 -9.67112 0
M  V30 3932 H 542.989 0.901032 -10.1892 0
M  V30 3933 H 541.359 1.33049 -9.56592 0
M  V30 3934 H 543.998 3.57847 -5.23962 0
M  V30 3935 P 545.855 3.65191 -7.99657 0
M  V30 3936 O 547.277 3.89416 -8.45976 0
M  V30 3937 O 545.495 2.28472 -7.50807 0
M  V30 3938 O 545.532 4.64972 -6.77611 0
M  V30 3939 C 545.372 6.06319 -7.16352 0
M  V30 3940 C 545.912 6.91655 -6.02234 0
M  V30 3941 O 544.857 6.92449 -5.17064 0
M  V30 3942 C 547.13 6.43627 -5.25174 0
M  V30 3943 O 547.868 7.43686 -4.60469 0
M  V30 3944 C 546.462 5.40275 -4.31916 0
M  V30 3945 O 547.26 5.25193 -3.14386 0
M  V30 3946 C 545.124 6.04847 -4.05327 0
M  V30 3947 N 544.081 5.04166 -3.98114 0
M  V30 3948 C 544.143 3.96049 -4.75587 0
M  V30 3949 N 543.098 3.15559 -4.54006 0
M  V30 3950 C 542.364 3.78802 -3.62491 0
M  V30 3951 C 541.058 3.476 -3.10071 0
M  V30 3952 O 540.325 2.51136 -3.37021 0
M  V30 3953 N 540.628 4.39088 -2.19956 0
M  V30 3954 C 541.377 5.53215 -1.81733 0
M  V30 3955 N 540.78 6.31963 -0.860928 0
M  V30 3956 N 542.53 5.86688 -2.32562 0
M  V30 3957 C 542.987 4.97525 -3.23407 0
M  V30 3958 H 545.156 6.62195 -3.11261 0
M  V30 3959 H 546.339 4.42488 -4.8131 0
M  V30 3960 H 547.824 5.93051 -5.9305 0
M  V30 3961 H 546.129 7.92655 -6.402 0
M  V30 3962 H 545.939 6.26671 -8.0846 0
M  V30 3963 H 544.308 6.29101 -7.32804 0
M  V30 3964 H 539.732 4.25523 -1.77604 0
M  V30 3965 H 544.939 3.75576 -5.47333 0
M  V30 3966 H 539.869 6.04684 -0.468946 0
M  V30 3967 H 541.245 7.18054 -0.542422 0
M  V30 3968 H 546.949 5.84223 -2.47279 0
M  V30 3969 P 548.806 7.39546 -4.75277 0
M  V30 3970 O 550.228 7.84798 -5.01039 0
M  V30 3971 O 548.446 5.9812 -5.08098 0
M  V30 3972 O 548.483 7.57503 -3.1866 0
M  V30 3973 C 548.323 8.97357 -2.74833 0
M  V30 3974 C 548.863 9.07548 -1.32709 0
M  V30 3975 O 547.807 8.62072 -0.606159 0
M  V30 3976 C 550.081 8.25383 -0.938334 0
M  V30 3977 O 550.819 8.74577 0.146954 0
M  V30 3978 C 549.412 6.8802 -0.712559 0
M  V30 3979 O 550.211 6.1189 0.194655 0
M  V30 3980 C 548.075 7.27966 -0.139777 0
M  V30 3981 H 548.107 7.25354 0.961601 0
M  V30 3982 H 549.29 6.32557 -1.65702 0
M  V30 3983 H 550.774 8.19355 -1.79097 0
M  V30 3984 H 549.08 10.1294 -1.10029 0
M  V30 3985 H 548.89 9.64276 -3.41316 0
M  V30 3986 H 547.26 9.25417 -2.76357 0
M  V30 3987 H 549.899 6.25267 1.07847 0
M  V30 3988 P 551.757 8.791 3.52383e-12 0
M  V30 3989 O 553.179 9.31096 0.027933 0
M  V30 3990 O 551.397 7.77869 -1.04071 0
M  V30 3991 O 551.434 8.09533 1.41463 0
M  V30 3992 C 551.274 9.0349 2.53943 0
M  V30 3993 C 551.814 8.35226 3.79016 0
M  V30 3994 O 550.758 7.57992 4.15078 0
M  V30 3995 C 553.032 7.45087 3.67298 0
M  V30 3996 O 553.77 7.27796 4.85194 0
M  V30 3997 C 552.363 6.17323 3.12027 0
M  V30 3998 O 553.162 5.04231 3.47188 0
M  V30 3999 C 551.026 6.19961 3.81809 0
M  V30 4000 H 551.058 5.58218 4.73051 0
M  V30 4001 H 552.241 6.21726 2.02589 0
M  V30 4002 H 553.725 7.86112 2.9231 0
M  V30 4003 H 552.031 9.11627 4.55076 0
M  V30 4004 H 551.841 9.9573 2.34194 0
M  V30 4005 H 550.211 9.2792 2.67832 0
M  V30 4006 H 552.85 4.67702 4.28772 0
M  V30 4007 P 554.707 7.39546 4.75277 0
M  V30 4008 O 556.129 7.81945 5.05847 0
M  V30 4009 O 554.347 7.1065 3.32998 0
M  V30 4010 O 554.384 6.04542 5.56673 0
M  V30 4011 C 554.224 6.22772 7.02095 0
M  V30 4012 C 554.764 4.97671 7.70322 0
M  V30 4013 O 553.709 4.13256 7.58987 0
M  V30 4014 C 555.982 4.28231 7.11815 0
M  V30 4015 O 556.72 3.49945 8.01648 0
M  V30 4016 C 555.314 3.5063 5.96244 0
M  V30 4017 O 556.112 2.36443 5.64589 0
M  V30 4018 C 553.976 3.15122 6.56374 0
M  V30 4019 N 552.933 3.22311 5.55692 0
M  V30 4020 C 552.995 4.14382 4.59701 0
M  V30 4021 N 551.95 4.04476 3.76958 0
M  V30 4022 C 551.216 3.04892 4.26534 0
M  V30 4023 C 549.91 2.57447 3.88189 0
M  V30 4024 O 549.177 2.9785 2.96543 0
M  V30 4025 N 549.48 1.55228 4.65922 0
M  V30 4026 C 550.229 1.01152 5.73447 0
M  V30 4027 N 549.632 -0.0472117 6.37783 0
M  V30 4028 N 551.382 1.467 6.13813 0
M  V30 4029 C 551.839 2.4931 5.38487 0
M  V30 4030 H 554.008 2.13853 6.99751 0
M  V30 4031 H 555.191 4.13438 5.06482 0
M  V30 4032 H 556.676 5.02614 6.71414 0
M  V30 4033 H 554.981 5.20877 8.75697 0
M  V30 4034 H 554.791 7.11046 7.35349 0
M  V30 4035 H 553.16 6.35815 7.26986 0
M  V30 4036 H 548.584 1.15238 4.46468 0
M  V30 4037 H 553.791 4.88312 4.49647 0
M  V30 4038 H 548.721 -0.396382 6.05203 0
M  V30 4039 H 550.097 -0.484997 7.18465 0
M  V30 4040 H 555.801 1.61619 6.13468 0
M  V30 4041 P 557.658 3.65191 7.99657 0
M  V30 4042 O 559.08 3.8425 8.48115 0
M  V30 4043 O 557.298 4.17805 6.64342 0
M  V30 4044 O 557.335 2.07613 7.95143 0
M  V30 4045 C 557.175 1.44328 9.27336 0
M  V30 4046 C 557.715 0.0220036 9.17197 0
M  V30 4047 O 556.659 -0.626867 8.61923 0
M  V30 4048 C 558.933 -0.24586 8.30336 0
M  V30 4049 O 559.671 -1.39011 8.63583 0
M  V30 4050 C 558.264 -0.273849 6.91158 0
M  V30 4051 O 559.063 -1.06348 6.02892 0
M  V30 4052 C 556.927 -0.897649 7.22545 0
M  V30 4053 H 556.959 -1.9841 7.04286 0
M  V30 4054 H 558.142 0.739928 6.497 0
M  V30 4055 H 559.626 0.60668 8.36503 0
M  V30 4056 H 557.932 -0.352479 10.1829 0
M  V30 4057 H 557.742 2.00611 10.0304 0
M  V30 4058 H 556.112 1.41843 9.55327 0
M  V30 4059 H 558.751 -1.95734 6.03555 0
M  V30 4060 P 560.608 -1.25109 8.70152 0
M  V30 4061 O 562.03 -1.35274 9.21221 0
M  V30 4062 O 560.248 -0.0769065 7.84762 0
M  V30 4063 O 560.285 -2.55232 7.81161 0
M  V30 4064 C 560.125 -3.79939 8.58154 0
M  V30 4065 C 560.665 -4.94023 7.72785 0
M  V30 4066 O 559.609 -5.18726 6.91205 0
M  V30 4067 C 561.883 -4.69597 6.85231 0
M  V30 4068 O 562.621 -5.83832 6.51337 0
M  V30 4069 C 561.214 -3.96706 5.66633 0
M  V30 4070 O 562.013 -4.15414 4.49689 0
M  V30 4071 C 559.877 -4.66153 5.59313 0
M  V30 4072 H 559.909 -5.47679 4.85214 0
M  V30 4073 H 561.092 -2.89008 5.86566 0
M  V30 4074 H 562.576 -4.0121 7.36511 0
M  V30 4075 H 560.882 -5.80182 8.37584 0
M  V30 4076 H 560.692 -3.73517 9.52265 0
M  V30 4077 H 559.062 -3.97163 8.80359 0
M  V30 4078 H 561.701 -4.90969 4.01921 0
M  V30 4079 P 563.559 -5.75688 6.64379 0
M  V30 4080 O 564.981 -6.11849 7.01846 0
M  V30 4081 O 563.199 -4.30744 6.56026 0
M  V30 4082 O 563.236 -6.37042 5.19165 0
M  V30 4083 C 563.076 -7.83578 5.16515 0
M  V30 4084 C 563.616 -8.33398 3.83019 0
M  V30 4085 O 562.56 -8.10074 3.01034 0
M  V30 4086 C 564.834 -7.65514 3.2257 0
M  V30 4087 O 565.572 -8.4329 2.32297 0
M  V30 4088 C 564.165 -6.40075 2.62207 0
M  V30 4089 O 564.964 -5.92589 1.53712 0
M  V30 4090 C 562.828 -6.9454 2.18503 0
M  V30 4091 H 562.86 -7.23063 1.12091 0
M  V30 4092 H 564.043 -5.6025 3.37201 0
M  V30 4093 H 565.527 -7.35707 4.02681 0
M  V30 4094 H 563.833 -9.40912 3.9095 0
M  V30 4095 H 563.643 -8.29056 5.99158 0
M  V30 4096 H 562.013 -8.10073 5.25882 0
M  V30 4097 H 564.652 -6.30324 0.726794 0
M  V30 4098 P 566.509 -8.4349 2.47671 0
M  V30 4099 O 567.93 -8.94263 2.59668 0
M  V30 4100 O 566.149 -7.1704 3.19006 0
M  V30 4101 O 566.186 -8.16596 0.923387 0
M  V30 4102 C 566.025 -9.38537 0.108869 0
M  V30 4103 C 566.566 -9.08175 -1.28353 0
M  V30 4104 O 565.511 -8.44131 -1.84692 0
M  V30 4105 C 567.784 -8.18386 -1.42505 0
M  V30 4106 O 568.522 -8.3501 -2.60497 0
M  V30 4107 C 567.116 -6.80225 -1.25468 0
M  V30 4108 O 567.914 -5.81716 -1.90454 0
M  V30 4109 C 565.778 -7.02416 -1.9168 0
M  V30 4110 N 564.735 -6.31033 -1.20314 0
M  V30 4111 C 564.904 -5.98817 0.0994088 0
M  V30 4112 N 563.877 -5.35403 0.621694 0
M  V30 4113 C 562.992 -5.25212 -0.43376 0
M  V30 4114 C 561.725 -4.64602 -0.519722 0
M  V30 4115 N 561.126 -4.01457 0.519136 0
M  V30 4116 N 561.16 -4.7568 -1.76013 0
M  V30 4117 C 561.762 -5.3653 -2.83017 0
M  V30 4118 N 562.939 -5.93676 -2.79782 0
M  V30 4119 C 563.514 -5.84061 -1.56249 0
M  V30 4120 H 565.81 -6.68789 -2.9658 0
M  V30 4121 H 566.993 -6.53498 -0.198729 0
M  V30 4122 H 568.476 -8.36622 -0.589963 0
M  V30 4123 H 566.782 -10.0273 -1.8081 0
M  V30 4124 H 566.592 -10.2138 0.558219 0
M  V30 4125 H 564.962 -9.6579 0.0444202 0
M  V30 4126 H 561.226 -5.37113 -3.77321 0
M  V30 4127 H 565.804 -6.23209 0.660562 0
M  V30 4128 H 560.196 -3.58834 0.394862 0
M  V30 4129 H 561.6 -3.96059 1.43048 0
M  V30 4130 H 567.602 -5.69466 -2.79593 0
M  V30 4131 P 569.46 -8.4349 -2.47671 0
M  V30 4132 O 570.882 -8.92593 -2.65 0
M  V30 4133 O 569.1 -7.7568 -1.19296 0
M  V30 4134 O 569.137 -7.36886 -3.63805 0
M  V30 4135 C 568.977 -7.95349 -4.982 0
M  V30 4136 C 569.517 -6.94612 -5.98974 0
M  V30 4137 O 568.461 -6.10347 -6.11815 0
M  V30 4138 C 570.735 -6.11426 -5.62335 0
M  V30 4139 O 571.473 -5.6162 -6.70584 0
M  V30 4140 C 570.066 -5.04409 -4.73308 0
M  V30 4141 O 570.865 -3.85992 -4.75183 0
M  V30 4142 C 568.729 -4.8728 -5.41006 0
M  V30 4143 H 568.761 -4.02333 -6.11157 0
M  V30 4144 H 569.944 -5.39466 -3.69543 0
M  V30 4145 H 571.428 -6.71916 -5.01943 0
M  V30 4146 H 569.734 -7.4649 -6.93477 0
M  V30 4147 H 569.544 -8.89416 -5.05237 0
M  V30 4148 H 567.914 -8.14876 -5.18409 0
M  V30 4149 H 570.553 -3.27957 -5.4317 0
M  V30 4150 P 572.411 -5.75688 -6.64379 0
M  V30 4151 O 573.833 -6.07627 -7.05504 0
M  V30 4152 O 572.051 -5.88047 -5.19722 0
M  V30 4153 O 572.088 -4.2322 -7.04443 0
M  V30 4154 C 571.928 -3.99743 -8.4911 0
M  V30 4155 C 572.468 -2.60516 -8.79425 0
M  V30 4156 O 571.412 -1.82684 -8.4467 0
M  V30 4157 C 573.686 -2.10343 -8.03628 0
M  V30 4158 O 574.424 -1.09919 -8.67766 0
M  V30 4159 C 573.017 -1.68446 -6.70876 0
M  V30 4160 O 573.816 -0.678137 -6.08433 0
M  V30 4161 C 571.68 -1.17436 -7.18567 0
M  V30 4162 H 571.712 -0.0804732 -7.31656 0
M  V30 4163 H 572.895 -2.54037 -6.02537 0
M  V30 4164 H 574.379 -2.93881 -7.85526 0
M  V30 4165 H 572.685 -2.53065 -9.86973 0
M  V30 4166 H 572.495 -4.75072 -9.05887 0
M  V30 4167 H 570.865 -4.05244 -8.76668 0
M  V30 4168 H 573.504 0.177647 -6.34251 0
M  V30 4169 P 575.361 -1.25109 -8.70152 0
M  V30 4170 O 576.783 -1.29744 -9.22016 0
M  V30 4171 O 575.001 -2.13714 -7.55141 0
M  V30 4172 O 575.038 0.248149 -8.21425 0
M  V30 4173 C 574.878 1.22779 -9.30434 0
M  V30 4174 C 575.418 2.56293 -8.80664 0
M  V30 4175 O 574.362 3.02979 -8.09349 0
M  V30 4176 C 576.636 2.57523 -7.89775 0
M  V30 4177 O 577.374 3.7668 -7.89438 0
M  V30 4178 C 575.967 2.20997 -6.55446 0
M  V30 4179 O 576.766 2.71895 -5.48509 0
M  V30 4180 C 574.63 2.89693 -6.67988 0
M  V30 4181 H 574.662 3.88793 -6.19859 0
M  V30 4182 H 575.845 1.12046 -6.44229 0
M  V30 4183 H 577.329 1.7746 -8.19711 0
M  V30 4184 H 575.635 3.20706 -9.67112 0
M  V30 4185 H 575.445 0.901032 -10.1892 0
M  V30 4186 H 573.815 1.33049 -9.56592 0
M  V30 4187 H 576.454 3.57847 -5.23962 0
M  V30 4188 P 578.312 3.65191 -7.99657 0
M  V30 4189 O 579.734 3.89332 -8.45794 0
M  V30 4190 O 577.952 2.28472 -7.50807 0
M  V30 4191 O 577.989 4.64972 -6.77611 0
M  V30 4192 C 577.829 6.06319 -7.16352 0
M  V30 4193 C 578.369 6.91731 -6.02299 0
M  V30 4194 O 577.313 6.92449 -5.17064 0
M  V30 4195 C 579.587 6.43627 -5.25174 0
M  V30 4196 O 580.325 7.43686 -4.60469 0
M  V30 4197 C 578.918 5.40275 -4.31916 0
M  V30 4198 O 579.717 5.25279 -3.14438 0
M  V30 4199 C 577.581 6.04847 -4.05327 0
M  V30 4200 H 577.613 6.62195 -3.11261 0
M  V30 4201 H 578.796 4.42556 -4.81383 0
M  V30 4202 H 580.28 5.92458 -5.93643 0
M  V30 4203 H 578.586 7.92655 -6.402 0
M  V30 4204 H 578.396 6.26671 -8.0846 0
M  V30 4205 H 576.766 6.29101 -7.32804 0
M  V30 4206 H 579.405 5.84315 -2.47318 0
M  V30 4207 P 581.262 7.39546 -4.75277 0
M  V30 4208 O 582.684 7.84798 -5.01039 0
M  V30 4209 O 580.902 5.9812 -5.08098 0
M  V30 4210 O 580.939 7.57503 -3.1866 0
M  V30 4211 C 580.779 8.97357 -2.74833 0
M  V30 4212 C 581.319 9.07548 -1.32709 0
M  V30 4213 O 580.263 8.62072 -0.606159 0
M  V30 4214 C 582.537 8.25383 -0.938334 0
M  V30 4215 O 583.275 8.74577 0.146954 0
M  V30 4216 C 581.868 6.8802 -0.712559 0
M  V30 4217 O 582.667 6.1189 0.194655 0
M  V30 4218 C 580.531 7.27966 -0.139777 0
M  V30 4219 H 580.563 7.25354 0.961601 0
M  V30 4220 H 581.746 6.32557 -1.65702 0
M  V30 4221 H 583.23 8.19355 -1.79097 0
M  V30 4222 H 581.536 10.1294 -1.10029 0
M  V30 4223 H 581.346 9.64276 -3.41316 0
M  V30 4224 H 579.716 9.25417 -2.76357 0
M  V30 4225 H 582.355 6.25267 1.07847 0
M  V30 4226 P 584.213 8.791 3.834e-12 0
M  V30 4227 O 585.614 9.36698 -0.018734 0
M  V30 4228 O 583.835 7.82499 -1.07878 0
M  V30 4229 O 583.89 8.09434 1.41446 0
M  V30 4230 C 583.73 9.0349 2.53943 0
M  V30 4231 C 584.27 8.35135 3.78975 0
M  V30 4232 O 583.214 7.57904 4.1503 0
M  V30 4233 C 585.487 7.45087 3.67298 0
M  V30 4234 O 586.226 7.27796 4.85194 0
M  V30 4235 C 584.82 6.17323 3.12027 0
M  V30 4236 O 585.618 5.04149 3.47132 0
M  V30 4237 C 583.482 6.19961 3.81809 0
M  V30 4238 N 582.439 5.71575 2.93223 0
M  V30 4239 C 581.404 4.99452 3.47592 0
M  V30 4240 O 581.443 4.7199 4.69732 0
M  V30 4241 N 580.392 4.58505 2.6803 0
M  V30 4242 C 580.44 4.85544 1.36995 0
M  V30 4243 C 581.536 5.55532 0.788532 0
M  V30 4244 C 582.502 5.97426 1.60849 0
M  V30 4245 H 583.514 5.58142 4.72986 0
M  V30 4246 H 584.697 6.21428 2.0318 0
M  V30 4247 H 586.181 7.85913 2.93131 0
M  V30 4248 H 584.487 9.11171 4.55987 0
M  V30 4249 H 584.296 9.9573 2.34194 0
M  V30 4250 H 582.666 9.27824 2.67805 0
M  V30 4251 H 581.584 5.7421 -0.281588 0
M  V30 4252 H 583.348 6.53132 1.202 0
M  V30 4253 H 585.402 4.76386 4.34983 0
M  V30 4254 P 587.163 7.39546 4.75277 0
M  V30 4255 O 588.585 7.81777 5.05738 0
M  V30 4256 O 586.803 7.1065 3.32998 0
M  V30 4257 O 586.84 6.04542 5.56673 0
M  V30 4258 C 586.68 6.22772 7.02095 0
M  V30 4259 C 587.22 4.97725 7.70406 0
M  V30 4260 O 586.164 4.13256 7.58987 0
M  V30 4261 C 588.438 4.28231 7.11815 0
M  V30 4262 O 589.176 3.49945 8.01648 0
M  V30 4263 C 587.769 3.5063 5.96244 0
M  V30 4264 O 588.568 2.36482 5.64681 0
M  V30 4265 C 586.432 3.15122 6.56374 0
M  V30 4266 H 586.464 2.13853 6.99751 0
M  V30 4267 H 587.647 4.13501 5.06559 0
M  V30 4268 H 589.131 5.03285 6.70911 0
M  V30 4269 H 587.437 5.20877 8.75697 0
M  V30 4270 H 587.247 7.11046 7.35349 0
M  V30 4271 H 585.617 6.35815 7.26986 0
M  V30 4272 H 588.256 1.61644 6.13565 0
M  V30 4273 P 590.114 3.65191 7.99657 0
M  V30 4274 O 591.536 3.8425 8.48115 0
M  V30 4275 O 589.754 4.17805 6.64342 0
M  V30 4276 O 589.791 2.07613 7.95143 0
M  V30 4277 C 589.631 1.44328 9.27336 0
M  V30 4278 C 590.171 0.0220036 9.17197 0
M  V30 4279 O 589.115 -0.626867 8.61923 0
M  V30 4280 C 591.389 -0.24586 8.30336 0
M  V30 4281 O 592.127 -1.39011 8.63583 0
M  V30 4282 C 590.72 -0.273849 6.91158 0
M  V30 4283 O 591.519 -1.06348 6.02892 0
M  V30 4284 C 589.383 -0.897649 7.22545 0
M  V30 4285 H 589.415 -1.9841 7.04286 0
M  V30 4286 H 590.598 0.739928 6.497 0
M  V30 4287 H 592.082 0.60668 8.36503 0
M  V30 4288 H 590.388 -0.352479 10.1829 0
M  V30 4289 H 590.198 2.00611 10.0304 0
M  V30 4290 H 588.568 1.41843 9.55327 0
M  V30 4291 H 591.207 -1.95734 6.03555 0
M  V30 4292 P 593.065 -1.25109 8.70152 0
M  V30 4293 O 594.487 -1.35303 9.21419 0
M  V30 4294 O 592.705 -0.0769065 7.84762 0
M  V30 4295 O 592.742 -2.55232 7.81161 0
M  V30 4296 C 592.582 -3.79939 8.58154 0
M  V30 4297 C 593.122 -4.93969 7.72701 0
M  V30 4298 O 592.067 -5.18726 6.91205 0
M  V30 4299 C 594.34 -4.69597 6.85231 0
M  V30 4300 O 595.078 -5.83832 6.51337 0
M  V30 4301 C 593.672 -3.96706 5.66633 0
M  V30 4302 O 594.47 -4.15346 4.49615 0
M  V30 4303 C 592.334 -4.66153 5.59313 0
M  V30 4304 N 591.291 -3.71582 5.24027 0
M  V30 4305 C 591.353 -2.46018 5.67902 0
M  V30 4306 N 590.308 -1.74868 5.24518 0
M  V30 4307 C 589.574 -2.61333 4.54528 0
M  V30 4308 C 588.268 -2.46162 3.95441 0
M  V30 4309 O 587.535 -1.46013 3.94122 0
M  V30 4310 N 587.838 -3.59334 3.34752 0
M  V30 4311 C 588.587 -4.79605 3.3023 0
M  V30 4312 N 587.99 -5.82109 2.6065 0
M  V30 4313 N 589.74 -4.97402 3.8843 0
M  V30 4314 C 590.197 -3.86258 4.50476 0
M  V30 4315 H 592.366 -5.47679 4.85214 0
M  V30 4316 H 593.549 -2.88964 5.86476 0
M  V30 4317 H 595.034 -4.01947 7.36109 0
M  V30 4318 H 593.339 -5.80182 8.37584 0
M  V30 4319 H 593.149 -3.73517 9.52265 0
M  V30 4320 H 591.518 -3.97163 8.80359 0
M  V30 4321 H 586.942 -3.5825 2.90294 0
M  V30 4322 H 592.149 -2.06161 6.30974 0
M  V30 4323 H 587.079 -5.66979 2.15354 0
M  V30 4324 H 588.455 -6.73686 2.54344 0
M  V30 4325 H 594.159 -4.90891 4.01857 0
M  V30 4326 P 596.015 -5.75688 6.64379 0
M  V30 4327 O 597.416 -6.11991 7.09136 0
M  V30 4328 O 595.637 -4.30899 6.62018 0
M  V30 4329 O 595.692 -6.36965 5.19102 0
M  V30 4330 C 595.532 -7.83578 5.16515 0
M  V30 4331 C 596.072 -8.33307 3.82977 0
M  V30 4332 O 595.016 -8.0998 3.00999 0
M  V30 4333 C 597.289 -7.65514 3.2257 0
M  V30 4334 O 598.028 -8.4329 2.32297 0
M  V30 4335 C 596.622 -6.40075 2.62207 0
M  V30 4336 O 597.42 -5.92492 1.53687 0
M  V30 4337 C 595.284 -6.9454 2.18503 0
M  V30 4338 N 594.241 -5.95905 2.39948 0
M  V30 4339 C 593.206 -5.89764 1.49837 0
M  V30 4340 O 593.245 -6.64088 0.490975 0
M  V30 4341 N 592.194 -5.02821 1.70992 0
M  V30 4342 C 592.242 -4.21498 2.77236 0
M  V30 4343 C 593.338 -4.23389 3.68205 0
M  V30 4344 C 594.304 -5.12792 3.46171 0
M  V30 4345 H 595.316 -7.22964 1.12076 0
M  V30 4346 H 596.499 -5.60502 3.36589 0
M  V30 4347 H 597.983 -7.36197 4.01993 0
M  V30 4348 H 596.289 -9.41302 3.90009 0
M  V30 4349 H 596.098 -8.29056 5.99158 0
M  V30 4350 H 594.468 -8.09989 5.25828 0
M  V30 4351 H 593.386 -3.54747 4.52399 0
M  V30 4352 H 595.15 -5.18551 4.1489 0
M  V30 4353 H 597.204 -6.40705 0.751752 0
M  V30 4354 P 598.966 -8.4349 2.47671 0
M  V30 4355 O 600.388 -8.94167 2.5964 0
M  V30 4356 O 598.606 -7.1704 3.19006 0
M  V30 4357 O 598.643 -8.16596 0.923387 0
M  V30 4358 C 598.483 -9.38437 0.108857 0
M  V30 4359 C 599.023 -9.08175 -1.28353 0
M  V30 4360 O 597.967 -8.44229 -1.84713 0
M  V30 4361 C 600.241 -8.18386 -1.42505 0
M  V30 4362 O 600.979 -8.3501 -2.60497 0
M  V30 4363 C 599.572 -6.80225 -1.25468 0
M  V30 4364 O 600.371 -5.81621 -1.91066 0
M  V30 4365 C 598.235 -7.02416 -1.9168 0
M  V30 4366 H 598.267 -6.6888 -2.96621 0
M  V30 4367 H 599.45 -6.53617 -0.192223 0
M  V30 4368 H 600.934 -8.36622 -0.589963 0
M  V30 4369 H 599.24 -10.0291 -1.79807 0
M  V30 4370 H 599.05 -10.2138 0.558219 0
M  V30 4371 H 597.42 -9.6579 0.0444202 0
M  V30 4372 H 600.059 -5.69556 -2.79637 0
M  V30 4373 P 601.916 -8.4349 -2.47671 0
M  V30 4374 O 603.338 -8.92593 -2.65 0
M  V30 4375 O 601.556 -7.7568 -1.19296 0
M  V30 4376 O 601.593 -7.36886 -3.63805 0
M  V30 4377 C 601.433 -7.95349 -4.982 0
M  V30 4378 C 601.973 -6.94612 -5.98974 0
M  V30 4379 O 600.917 -6.10347 -6.11815 0
M  V30 4380 C 603.191 -6.11426 -5.62335 0
M  V30 4381 O 603.929 -5.6162 -6.70584 0
M  V30 4382 C 602.522 -5.04409 -4.73308 0
M  V30 4383 O 603.321 -3.85992 -4.75183 0
M  V30 4384 C 601.185 -4.8728 -5.41006 0
M  V30 4385 H 601.217 -4.02333 -6.11157 0
M  V30 4386 H 602.4 -5.39466 -3.69543 0
M  V30 4387 H 603.884 -6.71916 -5.01943 0
M  V30 4388 H 602.19 -7.4649 -6.93477 0
M  V30 4389 H 602 -8.89416 -5.05237 0
M  V30 4390 H 600.37 -8.14876 -5.18409 0
M  V30 4391 H 603.009 -3.27957 -5.4317 0
M  V30 4392 P 604.867 -5.75688 -6.64379 0
M  V30 4393 O 606.289 -6.07627 -7.05504 0
M  V30 4394 O 604.507 -5.88047 -5.19722 0
M  V30 4395 O 604.544 -4.2322 -7.04443 0
M  V30 4396 C 604.384 -3.99743 -8.4911 0
M  V30 4397 C 604.924 -2.60516 -8.79425 0
M  V30 4398 O 603.868 -1.82684 -8.4467 0
M  V30 4399 C 606.142 -2.10343 -8.03628 0
M  V30 4400 O 606.88 -1.09919 -8.67766 0
M  V30 4401 C 605.473 -1.68446 -6.70876 0
M  V30 4402 O 606.272 -0.678137 -6.08433 0
M  V30 4403 C 604.136 -1.17436 -7.18567 0
M  V30 4404 H 604.168 -0.0804732 -7.31656 0
M  V30 4405 H 605.351 -2.54037 -6.02537 0
M  V30 4406 H 606.835 -2.93881 -7.85526 0
M  V30 4407 H 605.141 -2.53065 -9.86973 0
M  V30 4408 H 604.951 -4.75072 -9.05887 0
M  V30 4409 H 603.321 -4.05244 -8.76668 0
M  V30 4410 H 605.96 0.177647 -6.34251 0
M  V30 4411 P 607.817 -1.25109 -8.70152 0
M  V30 4412 O 609.239 -1.29744 -9.22016 0
M  V30 4413 O 607.457 -2.13714 -7.55141 0
M  V30 4414 O 607.494 0.248149 -8.21425 0
M  V30 4415 C 607.334 1.22779 -9.30434 0
M  V30 4416 C 607.874 2.56293 -8.80664 0
M  V30 4417 O 606.818 3.02979 -8.09349 0
M  V30 4418 C 609.092 2.57523 -7.89775 0
M  V30 4419 O 609.83 3.7668 -7.89438 0
M  V30 4420 C 608.423 2.20997 -6.55446 0
M  V30 4421 O 609.222 2.71895 -5.48509 0
M  V30 4422 C 607.086 2.89693 -6.67988 0
M  V30 4423 H 607.118 3.88793 -6.19859 0
M  V30 4424 H 608.301 1.12046 -6.44229 0
M  V30 4425 H 609.785 1.7746 -8.19711 0
M  V30 4426 H 608.091 3.20706 -9.67112 0
M  V30 4427 H 607.901 0.901032 -10.1892 0
M  V30 4428 H 606.271 1.33049 -9.56592 0
M  V30 4429 H 608.91 3.57847 -5.23962 0
M  V30 4430 P 610.768 3.65191 -7.99657 0
M  V30 4431 O 612.169 3.87414 -8.52829 0
M  V30 4432 O 610.39 2.26932 -7.566 0
M  V30 4433 O 610.445 4.64915 -6.77529 0
M  V30 4434 C 610.285 6.06319 -7.16352 0
M  V30 4435 C 610.825 6.91655 -6.02234 0
M  V30 4436 O 609.769 6.92369 -5.17005 0
M  V30 4437 C 612.042 6.43627 -5.25174 0
M  V30 4438 O 612.781 7.43686 -4.60469 0
M  V30 4439 C 611.375 5.40275 -4.31916 0
M  V30 4440 O 612.173 5.25193 -3.14386 0
M  V30 4441 C 610.037 6.04847 -4.05327 0
M  V30 4442 N 608.994 5.04166 -3.98114 0
M  V30 4443 C 607.959 5.2366 -3.09923 0
M  V30 4444 O 607.998 6.23355 -2.34204 0
M  V30 4445 N 606.947 4.34279 -3.05727 0
M  V30 4446 C 606.995 3.26317 -3.84756 0
M  V30 4447 C 608.091 3.02504 -4.72573 0
M  V30 4448 C 609.057 3.94493 -4.76618 0
M  V30 4449 H 610.069 6.62104 -3.11218 0
M  V30 4450 H 611.252 4.42969 -4.80867 0
M  V30 4451 H 612.736 5.93122 -5.93121 0
M  V30 4452 H 611.042 7.93295 -6.39407 0
M  V30 4453 H 610.851 6.26671 -8.0846 0
M  V30 4454 H 609.221 6.29036 -7.32728 0
M  V30 4455 H 608.139 2.12921 -5.34017 0
M  V30 4456 H 609.903 3.80658 -5.44176 0
M  V30 4457 H 611.957 5.93572 -2.52637 0
M  V30 4458 P 613.719 7.39546 -4.75277 0
M  V30 4459 O 615.14 7.84882 -5.01092 0
M  V30 4460 O 613.359 5.9812 -5.08098 0
M  V30 4461 O 613.396 7.57503 -3.1866 0
M  V30 4462 C 613.235 8.97452 -2.74862 0
M  V30 4463 C 613.776 9.07548 -1.32709 0
M  V30 4464 O 612.721 8.61972 -0.606089 0
M  V30 4465 C 614.994 8.25383 -0.938334 0
M  V30 4466 O 615.732 8.74577 0.146954 0
M  V30 4467 C 614.326 6.8802 -0.712559 0
M  V30 4468 O 615.124 6.1181 0.188505 0
M  V30 4469 C 612.988 7.27966 -0.139777 0
M  V30 4470 N 611.945 6.39368 -0.623421 0
M  V30 4471 C 612.114 5.71761 -1.78245 0
M  V30 4472 N 611.087 4.962 -2.10491 0
M  V30 4473 C 610.202 5.16158 -1.0635 0
M  V30 4474 C 608.935 4.60425 -0.810266 0
M  V30 4475 N 608.336 3.7057 -1.62914 0
M  V30 4476 N 608.37 5.06 0.348685 0
M  V30 4477 C 608.972 5.94532 1.20395 0
M  V30 4478 N 610.149 6.48452 1.01191 0
M  V30 4479 C 610.724 6.04423 -0.146291 0
M  V30 4480 H 613.02 7.25255 0.961469 0
M  V30 4481 H 614.203 6.32625 -1.65044 0
M  V30 4482 H 615.686 8.19355 -1.79097 0
M  V30 4483 H 613.992 10.1305 -1.09016 0
M  V30 4484 H 613.802 9.64276 -3.41316 0
M  V30 4485 H 612.172 9.25417 -2.76357 0
M  V30 4486 H 608.436 6.21659 2.10714 0
M  V30 4487 H 613.014 5.79354 -2.38959 0
M  V30 4488 H 607.406 3.33174 -1.38982 0
M  V30 4489 H 608.81 3.39714 -2.48836 0
M  V30 4490 H 614.812 6.25169 1.0783 0
M  V30 4491 P 616.669 8.791 4.14417e-12 0
M  V30 4492 O 618.091 9.31096 0.027933 0
M  V30 4493 O 616.309 7.77869 -1.04071 0
M  V30 4494 O 616.346 8.09533 1.41463 0
M  V30 4495 C 616.186 9.0349 2.53943 0
M  V30 4496 C 616.726 8.35226 3.79016 0
M  V30 4497 O 615.67 7.57992 4.15078 0
M  V30 4498 C 617.944 7.45087 3.67298 0
M  V30 4499 O 618.682 7.27796 4.85194 0
M  V30 4500 C 617.275 6.17323 3.12027 0
M  V30 4501 O 618.074 5.04231 3.47188 0
M  V30 4502 C 615.938 6.19961 3.81809 0
M  V30 4503 H 615.97 5.58218 4.73051 0
M  V30 4504 H 617.153 6.21726 2.02589 0
M  V30 4505 H 618.637 7.86112 2.9231 0
M  V30 4506 H 616.943 9.11627 4.55076 0
M  V30 4507 H 616.753 9.9573 2.34194 0
M  V30 4508 H 615.123 9.2792 2.67832 0
M  V30 4509 H 617.762 4.67702 4.28772 0
M  V30 4510 P 619.62 7.39546 4.75277 0
M  V30 4511 O 621.042 7.81777 5.05738 0
M  V30 4512 O 619.26 7.1065 3.32998 0
M  V30 4513 O 619.297 6.04542 5.56673 0
M  V30 4514 C 619.137 6.22772 7.02095 0
M  V30 4515 C 619.677 4.97725 7.70406 0
M  V30 4516 O 618.621 4.13256 7.58987 0
M  V30 4517 C 620.895 4.28231 7.11815 0
M  V30 4518 O 621.633 3.49945 8.01648 0
M  V30 4519 C 620.226 3.5063 5.96244 0
M  V30 4520 O 621.025 2.36482 5.64681 0
M  V30 4521 C 618.889 3.15122 6.56374 0
M  V30 4522 H 618.921 2.13853 6.99751 0
M  V30 4523 H 620.104 4.13501 5.06559 0
M  V30 4524 H 621.588 5.03285 6.70911 0
M  V30 4525 H 619.894 5.20877 8.75697 0
M  V30 4526 H 619.704 7.11046 7.35349 0
M  V30 4527 H 618.074 6.35815 7.26986 0
M  V30 4528 H 620.713 1.61644 6.13565 0
M  V30 4529 P 622.57 3.65191 7.99657 0
M  V30 4530 O 623.992 3.8425 8.48115 0
M  V30 4531 O 622.21 4.17805 6.64342 0
M  V30 4532 O 622.247 2.07613 7.95143 0
M  V30 4533 C 622.087 1.44328 9.27336 0
M  V30 4534 C 622.627 0.0220036 9.17197 0
M  V30 4535 O 621.571 -0.626867 8.61923 0
M  V30 4536 C 623.845 -0.24586 8.30336 0
M  V30 4537 O 624.583 -1.39011 8.63583 0
M  V30 4538 C 623.176 -0.273849 6.91158 0
M  V30 4539 O 623.975 -1.06348 6.02892 0
M  V30 4540 C 621.839 -0.897649 7.22545 0
M  V30 4541 H 621.871 -1.9841 7.04286 0
M  V30 4542 H 623.054 0.739928 6.497 0
M  V30 4543 H 624.538 0.60668 8.36503 0
M  V30 4544 H 622.844 -0.352479 10.1829 0
M  V30 4545 H 622.654 2.00611 10.0304 0
M  V30 4546 H 621.024 1.41843 9.55327 0
M  V30 4547 H 623.663 -1.95734 6.03555 0
M  V30 4548 P 625.521 -1.25109 8.70152 0
M  V30 4549 O 626.943 -1.35274 9.21221 0
M  V30 4550 O 625.161 -0.0769065 7.84762 0
M  V30 4551 O 625.198 -2.55232 7.81161 0
M  V30 4552 C 625.038 -3.79939 8.58154 0
M  V30 4553 C 625.578 -4.94023 7.72785 0
M  V30 4554 O 624.522 -5.18726 6.91205 0
M  V30 4555 C 626.796 -4.69597 6.85231 0
M  V30 4556 O 627.534 -5.83832 6.51337 0
M  V30 4557 C 626.127 -3.96706 5.66633 0
M  V30 4558 O 626.926 -4.15414 4.49689 0
M  V30 4559 C 624.79 -4.66153 5.59313 0
M  V30 4560 H 624.822 -5.47679 4.85214 0
M  V30 4561 H 626.005 -2.89008 5.86566 0
M  V30 4562 H 627.489 -4.0121 7.36511 0
M  V30 4563 H 625.795 -5.80182 8.37584 0
M  V30 4564 H 625.605 -3.73517 9.52265 0
M  V30 4565 H 623.975 -3.97163 8.80359 0
M  V30 4566 H 626.614 -4.90969 4.01921 0
M  V30 4567 P 628.471 -5.75688 6.64379 0
M  V30 4568 O 629.892 -6.11915 7.01921 0
M  V30 4569 O 628.111 -4.30744 6.56026 0
M  V30 4570 O 628.148 -6.37042 5.19165 0
M  V30 4571 C 627.987 -7.83662 5.1657 0
M  V30 4572 C 628.528 -8.33398 3.83019 0
M  V30 4573 O 627.473 -8.0998 3.00999 0
M  V30 4574 C 629.746 -7.65514 3.2257 0
M  V30 4575 O 630.484 -8.4329 2.32297 0
M  V30 4576 C 629.078 -6.40075 2.62207 0
M  V30 4577 O 629.876 -5.92338 1.5428 0
M  V30 4578 C 627.74 -6.9454 2.18503 0
M  V30 4579 N 626.697 -5.95905 2.39948 0
M  V30 4580 C 626.866 -4.98383 3.32108 0
M  V30 4581 N 625.839 -4.16798 3.41761 0
M  V30 4582 C 624.954 -4.65287 2.47461 0
M  V30 4583 C 623.687 -4.18946 2.07461 0
M  V30 4584 N 623.122 -4.95327 1.09101 0
M  V30 4585 C 623.724 -6.04369 0.519812 0
M  V30 4586 N 624.901 -6.50694 0.855982 0
M  V30 4587 C 625.476 -5.75818 1.84322 0
M  V30 4588 H 628.955 -5.60502 3.36589 0
M  V30 4589 H 630.438 -7.35707 4.02681 0
M  V30 4590 H 628.744 -9.41302 3.90009 0
M  V30 4591 H 628.554 -8.29056 5.99158 0
M  V30 4592 H 626.924 -8.10073 5.25882 0
M  V30 4593 H 627.766 -4.88564 3.92502 0
M  V30 4594 H 629.564 -6.30224 0.72668 0
M  V30 4595 P 631.422 -8.4349 2.47671 0
M  V30 4596 O 632.844 -8.94167 2.5964 0
M  V30 4597 O 631.062 -7.1704 3.19006 0
M  V30 4598 O 631.099 -8.16596 0.923387 0
M  V30 4599 C 630.939 -9.38437 0.108857 0
M  V30 4600 C 631.479 -9.08175 -1.28353 0
M  V30 4601 O 630.423 -8.44229 -1.84713 0
M  V30 4602 C 632.697 -8.18386 -1.42505 0
M  V30 4603 O 633.435 -8.3501 -2.60497 0
M  V30 4604 C 632.028 -6.80225 -1.25468 0
M  V30 4605 O 632.827 -5.81621 -1.91066 0
M  V30 4606 C 630.691 -7.02416 -1.9168 0
M  V30 4607 H 630.723 -6.6888 -2.96621 0
M  V30 4608 H 631.906 -6.53617 -0.192223 0
M  V30 4609 H 633.39 -8.36622 -0.589963 0
M  V30 4610 H 631.696 -10.0291 -1.79807 0
M  V30 4611 H 631.506 -10.2138 0.558219 0
M  V30 4612 H 629.876 -9.6579 0.0444202 0
M  V30 4613 H 632.515 -5.69556 -2.79637 0
M  V30 4614 P 634.373 -8.4349 -2.47671 0
M  V30 4615 O 635.794 -8.92689 -2.65029 0
M  V30 4616 O 634.013 -7.7568 -1.19296 0
M  V30 4617 O 634.05 -7.36886 -3.63805 0
M  V30 4618 C 633.889 -7.95433 -4.98253 0
M  V30 4619 C 634.43 -6.94612 -5.98974 0
M  V30 4620 O 633.375 -6.10277 -6.11744 0
M  V30 4621 C 635.648 -6.11426 -5.62335 0
M  V30 4622 O 636.386 -5.6162 -6.70584 0
M  V30 4623 C 634.98 -5.04409 -4.73308 0
M  V30 4624 O 635.778 -3.86404 -4.74719 0
M  V30 4625 C 633.642 -4.8728 -5.41006 0
M  V30 4626 N 632.599 -4.65812 -4.42377 0
M  V30 4627 C 632.768 -5.09132 -3.15382 0
M  V30 4628 N 631.741 -4.84021 -2.3716 0
M  V30 4629 C 630.856 -4.18386 -3.20441 0
M  V30 4630 C 629.589 -3.6275 -2.94905 0
M  V30 4631 N 628.99 -3.65794 -1.73372 0
M  V30 4632 N 629.024 -3.05008 -4.05243 0
M  V30 4633 C 629.626 -2.98348 -5.28159 0
M  V30 4634 N 630.803 -3.48171 -5.56333 0
M  V30 4635 C 631.378 -4.06869 -4.47212 0
M  V30 4636 H 633.674 -4.02278 -6.11074 0
M  V30 4637 H 634.857 -5.39013 -3.70026 0
M  V30 4638 H 636.34 -6.71916 -5.01943 0
M  V30 4639 H 634.646 -7.45796 -6.94223 0
M  V30 4640 H 634.456 -8.89416 -5.05237 0
M  V30 4641 H 632.826 -8.14876 -5.18409 0
M  V30 4642 H 629.09 -2.47853 -6.07807 0
M  V30 4643 H 633.668 -5.59989 -2.81362 0
M  V30 4644 H 628.06 -3.23218 -1.60782 0
M  V30 4645 H 629.464 -4.10523 -0.937856 0
M  V30 4646 H 635.466 -3.27906 -5.43085 0
M  V30 4647 P 637.323 -5.75688 -6.64379 0
M  V30 4648 O 638.745 -6.07627 -7.05504 0
M  V30 4649 O 636.963 -5.88047 -5.19722 0
M  V30 4650 O 637 -4.2322 -7.04443 0
M  V30 4651 C 636.84 -3.99743 -8.4911 0
M  V30 4652 C 637.38 -2.60516 -8.79425 0
M  V30 4653 O 636.324 -1.82684 -8.4467 0
M  V30 4654 C 638.598 -2.10343 -8.03628 0
M  V30 4655 O 639.336 -1.09919 -8.67766 0
M  V30 4656 C 637.929 -1.68446 -6.70876 0
M  V30 4657 O 638.728 -0.678137 -6.08433 0
M  V30 4658 C 636.592 -1.17436 -7.18567 0
M  V30 4659 H 636.624 -0.0804732 -7.31656 0
M  V30 4660 H 637.807 -2.54037 -6.02537 0
M  V30 4661 H 639.291 -2.93881 -7.85526 0
M  V30 4662 H 637.597 -2.53065 -9.86973 0
M  V30 4663 H 637.407 -4.75072 -9.05887 0
M  V30 4664 H 635.777 -4.05244 -8.76668 0
M  V30 4665 H 638.416 0.177647 -6.34251 0
M  V30 4666 P 640.274 -1.25109 -8.70152 0
M  V30 4667 O 641.696 -1.29744 -9.22016 0
M  V30 4668 O 639.914 -2.13714 -7.55141 0
M  V30 4669 O 639.951 0.248149 -8.21425 0
M  V30 4670 C 639.791 1.22779 -9.30434 0
M  V30 4671 C 640.331 2.56293 -8.80664 0
M  V30 4672 O 639.275 3.02979 -8.09349 0
M  V30 4673 C 641.549 2.57523 -7.89775 0
M  V30 4674 O 642.287 3.7668 -7.89438 0
M  V30 4675 C 640.88 2.20997 -6.55446 0
M  V30 4676 O 641.679 2.71895 -5.48509 0
M  V30 4677 C 639.543 2.89693 -6.67988 0
M  V30 4678 H 639.575 3.88793 -6.19859 0
M  V30 4679 H 640.758 1.12046 -6.44229 0
M  V30 4680 H 642.242 1.7746 -8.19711 0
M  V30 4681 H 640.548 3.20706 -9.67112 0
M  V30 4682 H 640.358 0.901032 -10.1892 0
M  V30 4683 H 638.728 1.33049 -9.56592 0
M  V30 4684 H 641.367 3.57847 -5.23962 0
M  V30 4685 P 643.224 3.65191 -7.99657 0
M  V30 4686 O 644.645 3.89374 -8.45885 0
M  V30 4687 O 642.864 2.28472 -7.50807 0
M  V30 4688 O 642.901 4.64972 -6.77611 0
M  V30 4689 C 642.74 6.06383 -7.16428 0
M  V30 4690 C 643.281 6.91731 -6.02299 0
M  V30 4691 O 642.226 6.92369 -5.17005 0
M  V30 4692 C 644.499 6.43627 -5.25174 0
M  V30 4693 O 645.237 7.43686 -4.60469 0
M  V30 4694 C 643.831 5.40275 -4.31916 0
M  V30 4695 O 644.629 5.24878 -3.14911 0
M  V30 4696 C 642.493 6.04847 -4.05327 0
M  V30 4697 N 641.45 5.04166 -3.98114 0
M  V30 4698 C 641.619 3.84629 -4.59066 0
M  V30 4699 N 640.592 3.0363 -4.45343 0
M  V30 4700 C 639.707 3.76722 -3.68523 0
M  V30 4701 C 638.44 3.43528 -3.17088 0
M  V30 4702 N 637.875 4.44526 -2.44231 0
M  V30 4703 C 638.477 5.65243 -2.20146 0
M  V30 4704 N 639.654 6.00221 -2.65453 0
M  V30 4705 C 640.229 5.00564 -3.39083 0
M  V30 4706 H 643.708 4.42969 -4.80867 0
M  V30 4707 H 645.191 5.92458 -5.93643 0
M  V30 4708 H 643.497 7.93295 -6.39407 0
M  V30 4709 H 643.307 6.26671 -8.0846 0
M  V30 4710 H 641.677 6.29101 -7.32804 0
M  V30 4711 H 642.519 3.58193 -5.14248 0
M  V30 4712 H 644.317 5.84223 -2.47279 0
M  V30 4713 P 646.175 7.39546 -4.75277 0
M  V30 4714 O 647.596 7.84882 -5.01092 0
M  V30 4715 O 645.815 5.9812 -5.08098 0
M  V30 4716 O 645.852 7.57503 -3.1866 0
M  V30 4717 C 645.691 8.97452 -2.74862 0
M  V30 4718 C 646.232 9.07548 -1.32709 0
M  V30 4719 O 645.177 8.61972 -0.606089 0
M  V30 4720 C 647.45 8.25383 -0.938334 0
M  V30 4721 O 648.188 8.74577 0.146954 0
M  V30 4722 C 646.782 6.8802 -0.712559 0
M  V30 4723 O 647.58 6.1181 0.188505 0
M  V30 4724 C 645.444 7.27966 -0.139777 0
M  V30 4725 N 644.401 6.39368 -0.623421 0
M  V30 4726 C 644.57 5.71761 -1.78245 0
M  V30 4727 N 643.543 4.962 -2.10491 0
M  V30 4728 C 642.658 5.16158 -1.0635 0
M  V30 4729 C 641.391 4.60425 -0.810266 0
M  V30 4730 N 640.792 3.7057 -1.62914 0
M  V30 4731 N 640.826 5.06 0.348685 0
M  V30 4732 C 641.428 5.94532 1.20395 0
M  V30 4733 N 642.605 6.48452 1.01191 0
M  V30 4734 C 643.18 6.04423 -0.146291 0
M  V30 4735 H 645.476 7.25255 0.961469 0
M  V30 4736 H 646.659 6.32625 -1.65044 0
M  V30 4737 H 648.142 8.19355 -1.79097 0
M  V30 4738 H 646.448 10.1305 -1.09016 0
M  V30 4739 H 646.258 9.64276 -3.41316 0
M  V30 4740 H 644.628 9.25417 -2.76357 0
M  V30 4741 H 640.892 6.21659 2.10714 0
M  V30 4742 H 645.47 5.79354 -2.38959 0
M  V30 4743 H 639.862 3.33174 -1.38982 0
M  V30 4744 H 641.266 3.39714 -2.48836 0
M  V30 4745 H 647.268 6.25169 1.0783 0
M  V30 4746 P 649.125 8.791 4.45433e-12 0
M  V30 4747 O 650.547 9.31096 0.027933 0
M  V30 4748 O 648.765 7.77869 -1.04071 0
M  V30 4749 O 648.802 8.09533 1.41463 0
M  V30 4750 C 648.642 9.0349 2.53943 0
M  V30 4751 C 649.182 8.35226 3.79016 0
M  V30 4752 O 648.126 7.57992 4.15078 0
M  V30 4753 C 650.4 7.45087 3.67298 0
M  V30 4754 O 651.138 7.27796 4.85194 0
M  V30 4755 C 649.731 6.17323 3.12027 0
M  V30 4756 O 650.53 5.04231 3.47188 0
M  V30 4757 C 648.394 6.19961 3.81809 0
M  V30 4758 H 648.426 5.58218 4.73051 0
M  V30 4759 H 649.609 6.21726 2.02589 0
M  V30 4760 H 651.093 7.86112 2.9231 0
M  V30 4761 H 649.399 9.11627 4.55076 0
M  V30 4762 H 649.209 9.9573 2.34194 0
M  V30 4763 H 647.579 9.2792 2.67832 0
M  V30 4764 H 650.218 4.67702 4.28772 0
M  V30 4765 P 652.076 7.39546 4.75277 0
M  V30 4766 O 653.497 7.81861 5.05793 0
M  V30 4767 O 651.716 7.1065 3.32998 0
M  V30 4768 O 651.753 6.04542 5.56673 0
M  V30 4769 C 651.592 6.22839 7.02169 0
M  V30 4770 C 652.133 4.97725 7.70406 0
M  V30 4771 O 651.078 4.13208 7.58899 0
M  V30 4772 C 653.351 4.28231 7.11815 0
M  V30 4773 O 654.089 3.49945 8.01648 0
M  V30 4774 C 652.683 3.5063 5.96244 0
M  V30 4775 O 653.481 2.37008 5.64352 0
M  V30 4776 C 651.345 3.15122 6.56374 0
M  V30 4777 N 650.302 3.22311 5.55692 0
M  V30 4778 C 650.471 3.99655 4.46046 0
M  V30 4779 N 649.444 3.97599 3.63918 0
M  V30 4780 C 648.559 3.11159 4.25334 0
M  V30 4781 C 647.292 2.64972 3.85157 0
M  V30 4782 N 646.693 3.02132 2.69405 0
M  V30 4783 N 646.727 1.78482 4.74759 0
M  V30 4784 C 647.329 1.37463 5.90819 0
M  V30 4785 N 648.506 1.7733 6.31889 0
M  V30 4786 C 649.081 2.64393 5.43725 0
M  V30 4787 H 651.377 2.13823 6.99656 0
M  V30 4788 H 652.56 4.12931 5.06895 0
M  V30 4789 H 654.043 5.03285 6.70911 0
M  V30 4790 H 652.349 5.20001 8.76217 0
M  V30 4791 H 652.159 7.11046 7.35349 0
M  V30 4792 H 650.529 6.35815 7.26986 0
M  V30 4793 H 646.793 0.66574 6.53015 0
M  V30 4794 H 651.371 4.58037 4.27732 0
M  V30 4795 H 645.763 2.64828 2.45331 0
M  V30 4796 H 647.167 3.67472 2.05644 0
M  V30 4797 H 653.169 1.61619 6.13468 0
M  V30 4798 P 655.027 3.65191 7.99657 0
M  V30 4799 O 656.449 3.8425 8.48115 0
M  V30 4800 O 654.667 4.17805 6.64342 0
M  V30 4801 O 654.704 2.07613 7.95143 0
M  V30 4802 C 654.544 1.44328 9.27336 0
M  V30 4803 C 655.084 0.0220036 9.17197 0
M  V30 4804 O 654.028 -0.626867 8.61923 0
M  V30 4805 C 656.302 -0.24586 8.30336 0
M  V30 4806 O 657.04 -1.39011 8.63583 0
M  V30 4807 C 655.633 -0.273849 6.91158 0
M  V30 4808 O 656.432 -1.06348 6.02892 0
M  V30 4809 C 654.296 -0.897649 7.22545 0
M  V30 4810 H 654.328 -1.9841 7.04286 0
M  V30 4811 H 655.511 0.739928 6.497 0
M  V30 4812 H 656.995 0.60668 8.36503 0
M  V30 4813 H 655.301 -0.352479 10.1829 0
M  V30 4814 H 655.111 2.00611 10.0304 0
M  V30 4815 H 653.481 1.41843 9.55327 0
M  V30 4816 H 656.12 -1.95734 6.03555 0
M  V30 4817 P 657.977 -1.25109 8.70152 0
M  V30 4818 O 659.399 -1.35274 9.21221 0
M  V30 4819 O 657.617 -0.0769065 7.84762 0
M  V30 4820 O 657.654 -2.55232 7.81161 0
M  V30 4821 C 657.494 -3.79939 8.58154 0
M  V30 4822 C 658.034 -4.94023 7.72785 0
M  V30 4823 O 656.978 -5.18726 6.91205 0
M  V30 4824 C 659.252 -4.69597 6.85231 0
M  V30 4825 O 659.99 -5.83832 6.51337 0
M  V30 4826 C 658.583 -3.96706 5.66633 0
M  V30 4827 O 659.382 -4.15414 4.49689 0
M  V30 4828 C 657.246 -4.66153 5.59313 0
M  V30 4829 H 657.278 -5.47679 4.85214 0
M  V30 4830 H 658.461 -2.89008 5.86566 0
M  V30 4831 H 659.945 -4.0121 7.36511 0
M  V30 4832 H 658.251 -5.80182 8.37584 0
M  V30 4833 H 658.061 -3.73517 9.52265 0
M  V30 4834 H 656.431 -3.97163 8.80359 0
M  V30 4835 H 659.07 -4.90969 4.01921 0
M  V30 4836 P 660.928 -5.75688 6.64379 0
M  V30 4837 O 662.349 -6.11915 7.01921 0
M  V30 4838 O 660.568 -4.30744 6.56026 0
M  V30 4839 O 660.605 -6.37042 5.19165 0
M  V30 4840 C 660.444 -7.83662 5.1657 0
M  V30 4841 C 660.985 -8.33398 3.83019 0
M  V30 4842 O 659.93 -8.0998 3.00999 0
M  V30 4843 C 662.203 -7.65514 3.2257 0
M  V30 4844 O 662.941 -8.4329 2.32297 0
M  V30 4845 C 661.535 -6.40075 2.62207 0
M  V30 4846 O 662.333 -5.92338 1.5428 0
M  V30 4847 C 660.197 -6.9454 2.18503 0
M  V30 4848 N 659.154 -5.95905 2.39948 0
M  V30 4849 C 659.323 -4.98383 3.32108 0
M  V30 4850 N 658.296 -4.16798 3.41761 0
M  V30 4851 C 657.411 -4.65287 2.47461 0
M  V30 4852 C 656.144 -4.18946 2.07461 0
M  V30 4853 N 655.545 -3.09661 2.60717 0
M  V30 4854 N 655.579 -4.95327 1.09101 0
M  V30 4855 C 656.181 -6.04369 0.519812 0
M  V30 4856 N 657.358 -6.50694 0.855982 0
M  V30 4857 C 657.933 -5.75818 1.84322 0
M  V30 4858 H 660.229 -7.22964 1.12076 0
M  V30 4859 H 661.412 -5.60502 3.36589 0
M  V30 4860 H 662.895 -7.35707 4.02681 0
M  V30 4861 H 661.201 -9.41302 3.90009 0
M  V30 4862 H 661.011 -8.29056 5.99158 0
M  V30 4863 H 659.381 -8.10073 5.25882 0
M  V30 4864 H 655.645 -6.55843 -0.270373 0
M  V30 4865 H 660.223 -4.88564 3.92502 0
M  V30 4866 H 654.615 -2.80523 2.27218 0
M  V30 4867 H 656.019 -2.55848 3.34465 0
M  V30 4868 H 662.021 -6.30224 0.72668 0
M  V30 4869 P 663.878 -8.4349 2.47671 0
M  V30 4870 O 665.299 -8.94263 2.59668 0
M  V30 4871 O 663.518 -7.1704 3.19006 0
M  V30 4872 O 663.555 -8.16596 0.923387 0
M  V30 4873 C 663.394 -9.38537 0.108869 0
M  V30 4874 C 663.935 -9.08175 -1.28353 0
M  V30 4875 O 662.88 -8.44131 -1.84692 0
M  V30 4876 C 665.153 -8.18386 -1.42505 0
M  V30 4877 O 665.891 -8.3501 -2.60497 0
M  V30 4878 C 664.485 -6.80225 -1.25468 0
M  V30 4879 O 665.283 -5.81716 -1.90454 0
M  V30 4880 C 663.147 -7.02416 -1.9168 0
M  V30 4881 N 662.104 -6.31033 -1.20314 0
M  V30 4882 C 662.273 -5.98817 0.0994088 0
M  V30 4883 N 661.246 -5.35403 0.621694 0
M  V30 4884 C 660.361 -5.25212 -0.43376 0
M  V30 4885 C 659.094 -4.64602 -0.519722 0
M  V30 4886 N 658.529 -4.7568 -1.76013 0
M  V30 4887 C 659.131 -5.3653 -2.83017 0
M  V30 4888 N 660.308 -5.93676 -2.79782 0
M  V30 4889 C 660.883 -5.84061 -1.56249 0
M  V30 4890 H 664.362 -6.53498 -0.198729 0
M  V30 4891 H 665.845 -8.36622 -0.589963 0
M  V30 4892 H 664.151 -10.0273 -1.8081 0
M  V30 4893 H 663.961 -10.2138 0.558219 0
M  V30 4894 H 662.331 -9.6579 0.0444202 0
M  V30 4895 H 663.173 -6.23209 0.660562 0
M  V30 4896 H 664.971 -5.69466 -2.79593 0
M  V30 4897 P 666.829 -8.4349 -2.47671 0
M  V30 4898 O 668.251 -8.92593 -2.65 0
M  V30 4899 O 666.469 -7.7568 -1.19296 0
M  V30 4900 O 666.506 -7.36886 -3.63805 0
M  V30 4901 C 666.346 -7.95349 -4.982 0
M  V30 4902 C 666.886 -6.94612 -5.98974 0
M  V30 4903 O 665.83 -6.10347 -6.11815 0
M  V30 4904 C 668.104 -6.11426 -5.62335 0
M  V30 4905 O 668.842 -5.6162 -6.70584 0
M  V30 4906 C 667.435 -5.04409 -4.73308 0
M  V30 4907 O 668.234 -3.85992 -4.75183 0
M  V30 4908 C 666.098 -4.8728 -5.41006 0
M  V30 4909 H 666.13 -4.02333 -6.11157 0
M  V30 4910 H 667.313 -5.39466 -3.69543 0
M  V30 4911 H 668.797 -6.71916 -5.01943 0
M  V30 4912 H 667.103 -7.4649 -6.93477 0
M  V30 4913 H 666.913 -8.89416 -5.05237 0
M  V30 4914 H 665.283 -8.14876 -5.18409 0
M  V30 4915 H 667.922 -3.27957 -5.4317 0
M  V30 4916 P 669.779 -5.75688 -6.64379 0
M  V30 4917 O 671.201 -6.07627 -7.05504 0
M  V30 4918 O 669.419 -5.88047 -5.19722 0
M  V30 4919 O 669.456 -4.2322 -7.04443 0
M  V30 4920 C 669.296 -3.99743 -8.4911 0
M  V30 4921 C 669.836 -2.60516 -8.79425 0
M  V30 4922 O 668.78 -1.82684 -8.4467 0
M  V30 4923 C 671.054 -2.10343 -8.03628 0
M  V30 4924 O 671.792 -1.09919 -8.67766 0
M  V30 4925 C 670.385 -1.68446 -6.70876 0
M  V30 4926 O 671.184 -0.678137 -6.08433 0
M  V30 4927 C 669.048 -1.17436 -7.18567 0
M  V30 4928 H 669.08 -0.0804732 -7.31656 0
M  V30 4929 H 670.263 -2.54037 -6.02537 0
M  V30 4930 H 671.747 -2.93881 -7.85526 0
M  V30 4931 H 670.053 -2.53065 -9.86973 0
M  V30 4932 H 669.863 -4.75072 -9.05887 0
M  V30 4933 H 668.233 -4.05244 -8.76668 0
M  V30 4934 H 670.872 0.177647 -6.34251 0
M  V30 4935 P 672.73 -1.25109 -8.70152 0
M  V30 4936 O 674.151 -1.29758 -9.22115 0
M  V30 4937 O 672.37 -2.13714 -7.55141 0
M  V30 4938 O 672.407 0.248149 -8.21425 0
M  V30 4939 C 672.246 1.22792 -9.30533 0
M  V30 4940 C 672.787 2.56293 -8.80664 0
M  V30 4941 O 671.732 3.02944 -8.09255 0
M  V30 4942 C 674.005 2.57523 -7.89775 0
M  V30 4943 O 674.743 3.7668 -7.89438 0
M  V30 4944 C 673.337 2.20997 -6.55446 0
M  V30 4945 O 674.135 2.71302 -5.48691 0
M  V30 4946 C 671.999 2.89693 -6.67988 0
M  V30 4947 N 670.956 2.08895 -6.07487 0
M  V30 4948 C 671.125 0.753809 -5.94137 0
M  V30 4949 N 670.098 0.146592 -5.38801 0
M  V30 4950 C 669.213 1.1768 -5.13693 0
M  V30 4951 C 667.946 1.17563 -4.52477 0
M  V30 4952 N 667.381 2.41918 -4.45789 0
M  V30 4953 C 667.983 3.56493 -4.90792 0
M  V30 4954 N 669.16 3.61423 -5.47817 0
M  V30 4955 C 669.735 2.37779 -5.5588 0
M  V30 4956 H 673.214 1.12673 -6.44018 0
M  V30 4957 H 674.697 1.7746 -8.19711 0
M  V30 4958 H 673.003 3.21673 -9.66791 0
M  V30 4959 H 672.813 0.901032 -10.1892 0
M  V30 4960 H 671.183 1.33049 -9.56592 0
M  V30 4961 H 672.025 0.233081 -6.26266 0
M  V30 4962 H 673.823 3.5779 -5.23879 0
M  V30 4963 P 675.681 3.65191 -7.99657 0
M  V30 4964 O 677.103 3.89332 -8.45794 0
M  V30 4965 O 675.321 2.28472 -7.50807 0
M  V30 4966 O 675.358 4.64972 -6.77611 0
M  V30 4967 C 675.198 6.06319 -7.16352 0
M  V30 4968 C 675.738 6.91731 -6.02299 0
M  V30 4969 O 674.682 6.92449 -5.17064 0
M  V30 4970 C 676.956 6.43627 -5.25174 0
M  V30 4971 O 677.694 7.43686 -4.60469 0
M  V30 4972 C 676.287 5.40275 -4.31916 0
M  V30 4973 O 677.086 5.25279 -3.14438 0
M  V30 4974 C 674.95 6.04847 -4.05327 0
M  V30 4975 H 674.982 6.62195 -3.11261 0
M  V30 4976 H 676.165 4.42556 -4.81383 0
M  V30 4977 H 677.649 5.92458 -5.93643 0
M  V30 4978 H 675.955 7.92655 -6.402 0
M  V30 4979 H 675.765 6.26671 -8.0846 0
M  V30 4980 H 674.135 6.29101 -7.32804 0
M  V30 4981 H 676.774 5.84315 -2.47318 0
M  V30 4982 P 678.631 7.39546 -4.75277 0
M  V30 4983 O 680.053 7.84798 -5.01039 0
M  V30 4984 O 678.271 5.9812 -5.08098 0
M  V30 4985 O 678.308 7.57503 -3.1866 0
M  V30 4986 C 678.148 8.97357 -2.74833 0
M  V30 4987 C 678.688 9.07548 -1.32709 0
M  V30 4988 O 677.632 8.62072 -0.606159 0
M  V30 4989 C 679.906 8.25383 -0.938334 0
M  V30 4990 O 680.644 8.74577 0.146954 0
M  V30 4991 C 679.237 6.8802 -0.712559 0
M  V30 4992 O 680.036 6.1189 0.194655 0
M  V30 4993 C 677.9 7.27966 -0.139777 0
M  V30 4994 H 677.932 7.25354 0.961601 0
M  V30 4995 H 679.115 6.32557 -1.65702 0
M  V30 4996 H 680.599 8.19355 -1.79097 0
M  V30 4997 H 678.905 10.1294 -1.10029 0
M  V30 4998 H 678.715 9.64276 -3.41316 0
M  V30 4999 H 677.085 9.25417 -2.76357 0
M  V30 5000 H 679.724 6.25267 1.07847 0
M  V30 5001 P 681.582 8.791 4.7645e-12 0
M  V30 5002 O 683.004 9.31096 0.027933 0
M  V30 5003 O 681.222 7.77869 -1.04071 0
M  V30 5004 O 681.259 8.09533 1.41463 0
M  V30 5005 C 681.099 9.0349 2.53943 0
M  V30 5006 C 681.639 8.35226 3.79016 0
M  V30 5007 O 680.583 7.57992 4.15078 0
M  V30 5008 C 682.857 7.45087 3.67298 0
M  V30 5009 O 683.595 7.27796 4.85194 0
M  V30 5010 C 682.188 6.17323 3.12027 0
M  V30 5011 O 682.987 5.04231 3.47188 0
M  V30 5012 C 680.851 6.19961 3.81809 0
M  V30 5013 H 680.883 5.58218 4.73051 0
M  V30 5014 H 682.066 6.21726 2.02589 0
M  V30 5015 H 683.55 7.86112 2.9231 0
M  V30 5016 H 681.856 9.11627 4.55076 0
M  V30 5017 H 681.666 9.9573 2.34194 0
M  V30 5018 H 680.036 9.2792 2.67832 0
M  V30 5019 H 682.675 4.67702 4.28772 0
M  V30 5020 P 684.532 7.39546 4.75277 0
M  V30 5021 O 685.954 7.81777 5.05738 0
M  V30 5022 O 684.172 7.1065 3.32998 0
M  V30 5023 O 684.209 6.04542 5.56673 0
M  V30 5024 C 684.049 6.22772 7.02095 0
M  V30 5025 C 684.589 4.97725 7.70406 0
M  V30 5026 O 683.533 4.13256 7.58987 0
M  V30 5027 C 685.807 4.28231 7.11815 0
M  V30 5028 O 686.545 3.49945 8.01648 0
M  V30 5029 C 685.138 3.5063 5.96244 0
M  V30 5030 O 685.937 2.36482 5.64681 0
M  V30 5031 C 683.801 3.15122 6.56374 0
M  V30 5032 H 683.833 2.13853 6.99751 0
M  V30 5033 H 685.016 4.13501 5.06559 0
M  V30 5034 H 686.5 5.03285 6.70911 0
M  V30 5035 H 684.806 5.20877 8.75697 0
M  V30 5036 H 684.616 7.11046 7.35349 0
M  V30 5037 H 682.986 6.35815 7.26986 0
M  V30 5038 H 685.625 1.61644 6.13565 0
M  V30 5039 P 687.483 3.65191 7.99657 0
M  V30 5040 O 688.905 3.8425 8.48115 0
M  V30 5041 O 687.123 4.17805 6.64342 0
M  V30 5042 O 687.16 2.07613 7.95143 0
M  V30 5043 C 687 1.44328 9.27336 0
M  V30 5044 C 687.54 0.0220036 9.17197 0
M  V30 5045 O 686.484 -0.626867 8.61923 0
M  V30 5046 C 688.758 -0.24586 8.30336 0
M  V30 5047 O 689.496 -1.39011 8.63583 0
M  V30 5048 C 688.089 -0.273849 6.91158 0
M  V30 5049 O 688.888 -1.06348 6.02892 0
M  V30 5050 C 686.752 -0.897649 7.22545 0
M  V30 5051 H 686.784 -1.9841 7.04286 0
M  V30 5052 H 687.967 0.739928 6.497 0
M  V30 5053 H 689.451 0.60668 8.36503 0
M  V30 5054 H 687.757 -0.352479 10.1829 0
M  V30 5055 H 687.567 2.00611 10.0304 0
M  V30 5056 H 685.937 1.41843 9.55327 0
M  V30 5057 H 688.576 -1.95734 6.03555 0
M  V30 5058 P 690.433 -1.25109 8.70152 0
M  V30 5059 O 691.855 -1.35274 9.21221 0
M  V30 5060 O 690.073 -0.0769065 7.84762 0
M  V30 5061 O 690.11 -2.55232 7.81161 0
M  V30 5062 C 689.95 -3.79939 8.58154 0
M  V30 5063 C 690.49 -4.94023 7.72785 0
M  V30 5064 O 689.434 -5.18726 6.91205 0
M  V30 5065 C 691.708 -4.69597 6.85231 0
M  V30 5066 O 692.446 -5.83832 6.51337 0
M  V30 5067 C 691.039 -3.96706 5.66633 0
M  V30 5068 O 691.838 -4.15414 4.49689 0
M  V30 5069 C 689.702 -4.66153 5.59313 0
M  V30 5070 H 689.734 -5.47679 4.85214 0
M  V30 5071 H 690.917 -2.89008 5.86566 0
M  V30 5072 H 692.401 -4.0121 7.36511 0
M  V30 5073 H 690.707 -5.80182 8.37584 0
M  V30 5074 H 690.517 -3.73517 9.52265 0
M  V30 5075 H 688.887 -3.97163 8.80359 0
M  V30 5076 H 691.526 -4.90969 4.01921 0
M  V30 5077 P 693.384 -5.75688 6.64379 0
M  V30 5078 O 694.806 -6.11849 7.01846 0
M  V30 5079 O 693.024 -4.30744 6.56026 0
M  V30 5080 O 693.061 -6.37042 5.19165 0
M  V30 5081 C 692.901 -7.83578 5.16515 0
M  V30 5082 C 693.441 -8.33398 3.83019 0
M  V30 5083 O 692.385 -8.10074 3.01034 0
M  V30 5084 C 694.659 -7.65514 3.2257 0
M  V30 5085 O 695.397 -8.4329 2.32297 0
M  V30 5086 C 693.99 -6.40075 2.62207 0
M  V30 5087 O 694.789 -5.92589 1.53712 0
M  V30 5088 C 692.653 -6.9454 2.18503 0
M  V30 5089 H 692.685 -7.23063 1.12091 0
M  V30 5090 H 693.868 -5.6025 3.37201 0
M  V30 5091 H 695.352 -7.35707 4.02681 0
M  V30 5092 H 693.658 -9.40912 3.9095 0
M  V30 5093 H 693.468 -8.29056 5.99158 0
M  V30 5094 H 691.838 -8.10073 5.25882 0
M  V30 5095 H 694.477 -6.30324 0.726794 0
M  V30 5096 P 696.335 -8.4349 2.47671 0
M  V30 5097 O 697.757 -8.94167 2.5964 0
M  V30 5098 O 695.975 -7.1704 3.19006 0
M  V30 5099 O 696.012 -8.16596 0.923387 0
M  V30 5100 C 695.852 -9.38437 0.108857 0
M  V30 5101 C 696.392 -9.08175 -1.28353 0
M  V30 5102 O 695.336 -8.44229 -1.84713 0
M  V30 5103 C 697.61 -8.18386 -1.42505 0
M  V30 5104 O 698.348 -8.3501 -2.60497 0
M  V30 5105 C 696.941 -6.80225 -1.25468 0
M  V30 5106 O 697.74 -5.81621 -1.91066 0
M  V30 5107 C 695.604 -7.02416 -1.9168 0
M  V30 5108 H 695.636 -6.6888 -2.96621 0
M  V30 5109 H 696.819 -6.53617 -0.192223 0
M  V30 5110 H 698.303 -8.36622 -0.589963 0
M  V30 5111 H 696.609 -10.0291 -1.79807 0
M  V30 5112 H 696.419 -10.2138 0.558219 0
M  V30 5113 H 694.789 -9.6579 0.0444202 0
M  V30 5114 H 697.428 -5.69556 -2.79637 0
M  V30 5115 P 699.285 -8.4349 -2.47671 0
M  V30 5116 O 700.707 -8.92593 -2.65 0
M  V30 5117 O 698.925 -7.7568 -1.19296 0
M  V30 5118 O 698.962 -7.36886 -3.63805 0
M  V30 5119 C 698.802 -7.95349 -4.982 0
M  V30 5120 C 699.342 -6.94612 -5.98974 0
M  V30 5121 O 698.286 -6.10347 -6.11815 0
M  V30 5122 C 700.56 -6.11426 -5.62335 0
M  V30 5123 O 701.298 -5.6162 -6.70584 0
M  V30 5124 C 699.891 -5.04409 -4.73308 0
M  V30 5125 O 700.69 -3.85992 -4.75183 0
M  V30 5126 C 698.554 -4.8728 -5.41006 0
M  V30 5127 H 698.586 -4.02333 -6.11157 0
M  V30 5128 H 699.769 -5.39466 -3.69543 0
M  V30 5129 H 701.253 -6.71916 -5.01943 0
M  V30 5130 H 699.559 -7.4649 -6.93477 0
M  V30 5131 H 699.369 -8.89416 -5.05237 0
M  V30 5132 H 697.739 -8.14876 -5.18409 0
M  V30 5133 H 700.378 -3.27957 -5.4317 0
M  V30 5134 P 702.236 -5.75688 -6.64379 0
M  V30 5135 O 703.658 -6.07627 -7.05504 0
M  V30 5136 O 701.876 -5.88047 -5.19722 0
M  V30 5137 O 701.913 -4.2322 -7.04443 0
M  V30 5138 C 701.753 -3.99743 -8.4911 0
M  V30 5139 C 702.293 -2.60516 -8.79425 0
M  V30 5140 O 701.237 -1.82684 -8.4467 0
M  V30 5141 C 703.511 -2.10343 -8.03628 0
M  V30 5142 O 704.249 -1.09919 -8.67766 0
M  V30 5143 C 702.842 -1.68446 -6.70876 0
M  V30 5144 O 703.641 -0.678137 -6.08433 0
M  V30 5145 C 701.505 -1.17436 -7.18567 0
M  V30 5146 H 701.537 -0.0804732 -7.31656 0
M  V30 5147 H 702.72 -2.54037 -6.02537 0
M  V30 5148 H 704.204 -2.93881 -7.85526 0
M  V30 5149 H 702.51 -2.53065 -9.86973 0
M  V30 5150 H 702.32 -4.75072 -9.05887 0
M  V30 5151 H 700.69 -4.05244 -8.76668 0
M  V30 5152 H 703.329 0.177647 -6.34251 0
M  V30 5153 P 705.186 -1.25109 -8.70152 0
M  V30 5154 O 706.608 -1.29744 -9.22016 0
M  V30 5155 O 704.826 -2.13714 -7.55141 0
M  V30 5156 O 704.863 0.248149 -8.21425 0
M  V30 5157 C 704.703 1.22779 -9.30434 0
M  V30 5158 C 705.243 2.56293 -8.80664 0
M  V30 5159 O 704.187 3.02979 -8.09349 0
M  V30 5160 C 706.461 2.57523 -7.89775 0
M  V30 5161 O 707.199 3.7668 -7.89438 0
M  V30 5162 C 705.792 2.20997 -6.55446 0
M  V30 5163 O 706.591 2.71895 -5.48509 0
M  V30 5164 C 704.455 2.89693 -6.67988 0
M  V30 5165 H 704.487 3.88793 -6.19859 0
M  V30 5166 H 705.67 1.12046 -6.44229 0
M  V30 5167 H 707.154 1.7746 -8.19711 0
M  V30 5168 H 705.46 3.20706 -9.67112 0
M  V30 5169 H 705.27 0.901032 -10.1892 0
M  V30 5170 H 703.64 1.33049 -9.56592 0
M  V30 5171 H 706.279 3.57847 -5.23962 0
M  V30 5172 P 708.137 3.65191 -7.99657 0
M  V30 5173 O 709.559 3.89332 -8.45794 0
M  V30 5174 O 707.777 2.28472 -7.50807 0
M  V30 5175 O 707.814 4.64972 -6.77611 0
M  V30 5176 C 707.654 6.06319 -7.16352 0
M  V30 5177 C 708.194 6.91731 -6.02299 0
M  V30 5178 O 707.138 6.92449 -5.17064 0
M  V30 5179 C 709.412 6.43627 -5.25174 0
M  V30 5180 O 710.15 7.43686 -4.60469 0
M  V30 5181 C 708.743 5.40275 -4.31916 0
M  V30 5182 O 709.542 5.25279 -3.14438 0
M  V30 5183 C 707.406 6.04847 -4.05327 0
M  V30 5184 H 707.438 6.62195 -3.11261 0
M  V30 5185 H 708.621 4.42556 -4.81383 0
M  V30 5186 H 710.105 5.92458 -5.93643 0
M  V30 5187 H 708.411 7.92655 -6.402 0
M  V30 5188 H 708.221 6.26671 -8.0846 0
M  V30 5189 H 706.591 6.29101 -7.32804 0
M  V30 5190 H 709.23 5.84315 -2.47318 0
M  V30 5191 P 711.087 7.39546 -4.75277 0
M  V30 5192 O 712.509 7.84798 -5.01039 0
M  V30 5193 O 710.727 5.9812 -5.08098 0
M  V30 5194 O 710.764 7.57503 -3.1866 0
M  V30 5195 C 710.604 8.97357 -2.74833 0
M  V30 5196 C 711.144 9.07548 -1.32709 0
M  V30 5197 O 710.088 8.62072 -0.606159 0
M  V30 5198 C 712.362 8.25383 -0.938334 0
M  V30 5199 O 713.1 8.74577 0.146954 0
M  V30 5200 C 711.693 6.8802 -0.712559 0
M  V30 5201 O 712.492 6.1189 0.194655 0
M  V30 5202 C 710.356 7.27966 -0.139777 0
M  V30 5203 H 710.388 7.25354 0.961601 0
M  V30 5204 H 711.571 6.32557 -1.65702 0
M  V30 5205 H 713.055 8.19355 -1.79097 0
M  V30 5206 H 711.361 10.1294 -1.10029 0
M  V30 5207 H 711.171 9.64276 -3.41316 0
M  V30 5208 H 709.541 9.25417 -2.76357 0
M  V30 5209 H 712.18 6.25267 1.07847 0
M  V30 5210 P 714.038 8.791 5.07466e-12 0
M  V30 5211 O 715.459 9.31196 0.027936 0
M  V30 5212 O 713.678 7.77869 -1.04071 0
M  V30 5213 O 713.715 8.09533 1.41463 0
M  V30 5214 C 713.554 9.03587 2.5397 0
M  V30 5215 C 714.095 8.35226 3.79016 0
M  V30 5216 O 713.04 7.57904 4.1503 0
M  V30 5217 C 715.313 7.45087 3.67298 0
M  V30 5218 O 716.051 7.27796 4.85194 0
M  V30 5219 C 714.645 6.17323 3.12027 0
M  V30 5220 O 715.443 5.04496 3.46627 0
M  V30 5221 C 713.307 6.19961 3.81809 0
M  V30 5222 N 712.264 5.71575 2.93223 0
M  V30 5223 C 712.433 5.77362 1.59168 0
M  V30 5224 N 711.406 5.3123 0.911893 0
M  V30 5225 C 710.521 4.91717 1.89588 0
M  V30 5226 C 709.254 4.3114 1.8076 0
M  V30 5227 N 708.689 4.06823 3.02898 0
M  V30 5228 C 709.291 4.35062 4.22711 0
M  V30 5229 N 710.468 4.90805 4.35707 0
M  V30 5230 C 711.043 5.16382 3.14469 0
M  V30 5231 H 714.522 6.21428 2.0318 0
M  V30 5232 H 716.005 7.86112 2.9231 0
M  V30 5233 H 714.311 9.11171 4.55987 0
M  V30 5234 H 714.121 9.9573 2.34194 0
M  V30 5235 H 712.491 9.2792 2.67832 0
M  V30 5236 H 713.333 6.16575 1.12198 0
M  V30 5237 H 715.131 4.67628 4.28704 0
M  V30 5238 P 716.989 7.39546 4.75277 0
M  V30 5239 O 718.411 7.81777 5.05738 0
M  V30 5240 O 716.629 7.1065 3.32998 0
M  V30 5241 O 716.666 6.04542 5.56673 0
M  V30 5242 C 716.506 6.22772 7.02095 0
M  V30 5243 C 717.046 4.97725 7.70406 0
M  V30 5244 O 715.99 4.13256 7.58987 0
M  V30 5245 C 718.264 4.28231 7.11815 0
M  V30 5246 O 719.002 3.49945 8.01648 0
M  V30 5247 C 717.595 3.5063 5.96244 0
M  V30 5248 O 718.394 2.36482 5.64681 0
M  V30 5249 C 716.258 3.15122 6.56374 0
M  V30 5250 H 716.29 2.13853 6.99751 0
M  V30 5251 H 717.473 4.13501 5.06559 0
M  V30 5252 H 718.957 5.03285 6.70911 0
M  V30 5253 H 717.263 5.20877 8.75697 0
M  V30 5254 H 717.073 7.11046 7.35349 0
M  V30 5255 H 715.443 6.35815 7.26986 0
M  V30 5256 H 718.082 1.61644 6.13565 0
M  V30 5257 P 719.939 3.65191 7.99657 0
M  V30 5258 O 721.361 3.8425 8.48115 0
M  V30 5259 O 719.579 4.17805 6.64342 0
M  V30 5260 O 719.616 2.07613 7.95143 0
M  V30 5261 C 719.456 1.44328 9.27336 0
M  V30 5262 C 719.996 0.0220036 9.17197 0
M  V30 5263 O 718.94 -0.626867 8.61923 0
M  V30 5264 C 721.214 -0.24586 8.30336 0
M  V30 5265 O 721.952 -1.39011 8.63583 0
M  V30 5266 C 720.545 -0.273849 6.91158 0
M  V30 5267 O 721.344 -1.06348 6.02892 0
M  V30 5268 C 719.208 -0.897649 7.22545 0
M  V30 5269 H 719.24 -1.9841 7.04286 0
M  V30 5270 H 720.423 0.739928 6.497 0
M  V30 5271 H 721.907 0.60668 8.36503 0
M  V30 5272 H 720.213 -0.352479 10.1829 0
M  V30 5273 H 720.023 2.00611 10.0304 0
M  V30 5274 H 718.393 1.41843 9.55327 0
M  V30 5275 H 721.032 -1.95734 6.03555 0
M  V30 5276 P 722.89 -1.25109 8.70152 0
M  V30 5277 O 724.311 -1.35288 9.2132 0
M  V30 5278 O 722.53 -0.0769065 7.84762 0
M  V30 5279 O 722.567 -2.55232 7.81161 0
M  V30 5280 C 722.406 -3.79979 8.58246 0
M  V30 5281 C 722.947 -4.94023 7.72785 0
M  V30 5282 O 721.892 -5.18666 6.91125 0
M  V30 5283 C 724.165 -4.69597 6.85231 0
M  V30 5284 O 724.903 -5.83832 6.51337 0
M  V30 5285 C 723.497 -3.96706 5.66633 0
M  V30 5286 O 724.295 -4.14896 4.5003 0
M  V30 5287 C 722.159 -4.66153 5.59313 0
M  V30 5288 N 721.116 -3.71582 5.24027 0
M  V30 5289 C 721.285 -2.39715 5.48833 0
M  V30 5290 N 720.258 -1.65863 5.12845 0
M  V30 5291 C 719.373 -2.57637 4.5973 0
M  V30 5292 C 718.106 -2.40278 4.01027 0
M  V30 5293 N 717.541 -3.57711 3.59575 0
M  V30 5294 C 718.143 -4.80324 3.70476 0
M  V30 5295 N 719.32 -5.01121 4.23801 0
M  V30 5296 C 719.895 -3.84757 4.66372 0
M  V30 5297 H 723.374 -2.8955 5.86187 0
M  V30 5298 H 724.857 -4.0121 7.36511 0
M  V30 5299 H 723.163 -5.81019 8.37003 0
M  V30 5300 H 722.973 -3.73517 9.52265 0
M  V30 5301 H 721.343 -3.97163 8.80359 0
M  V30 5302 H 722.185 -1.98804 5.94332 0
M  V30 5303 H 723.983 -4.90891 4.01857 0
M  V30 5304 P 725.84 -5.75688 6.64379 0
M  V30 5305 O 727.262 -6.11849 7.01846 0
M  V30 5306 O 725.48 -4.30744 6.56026 0
M  V30 5307 O 725.517 -6.37042 5.19165 0
M  V30 5308 C 725.357 -7.83578 5.16515 0
M  V30 5309 C 725.897 -8.33398 3.83019 0
M  V30 5310 O 724.841 -8.10074 3.01034 0
M  V30 5311 C 727.115 -7.65514 3.2257 0
M  V30 5312 O 727.853 -8.4329 2.32297 0
M  V30 5313 C 726.446 -6.40075 2.62207 0
M  V30 5314 O 727.245 -5.92589 1.53712 0
M  V30 5315 C 725.109 -6.9454 2.18503 0
M  V30 5316 H 725.141 -7.23063 1.12091 0
M  V30 5317 H 726.324 -5.6025 3.37201 0
M  V30 5318 H 727.808 -7.35707 4.02681 0
M  V30 5319 H 726.114 -9.40912 3.9095 0
M  V30 5320 H 725.924 -8.29056 5.99158 0
M  V30 5321 H 724.294 -8.10073 5.25882 0
M  V30 5322 H 726.933 -6.30324 0.726794 0
M  V30 5323 P 728.791 -8.4349 2.47671 0
M  V30 5324 O 730.213 -8.94167 2.5964 0
M  V30 5325 O 728.431 -7.1704 3.19006 0
M  V30 5326 O 728.468 -8.16596 0.923387 0
M  V30 5327 C 728.308 -9.38437 0.108857 0
M  V30 5328 C 728.848 -9.08175 -1.28353 0
M  V30 5329 O 727.792 -8.44229 -1.84713 0
M  V30 5330 C 730.066 -8.18386 -1.42505 0
M  V30 5331 O 730.804 -8.3501 -2.60497 0
M  V30 5332 C 729.397 -6.80225 -1.25468 0
M  V30 5333 O 730.196 -5.81621 -1.91066 0
M  V30 5334 C 728.06 -7.02416 -1.9168 0
M  V30 5335 H 728.092 -6.6888 -2.96621 0
M  V30 5336 H 729.275 -6.53617 -0.192223 0
M  V30 5337 H 730.759 -8.36622 -0.589963 0
M  V30 5338 H 729.065 -10.0291 -1.79807 0
M  V30 5339 H 728.875 -10.2138 0.558219 0
M  V30 5340 H 727.245 -9.6579 0.0444202 0
M  V30 5341 H 729.884 -5.69556 -2.79637 0
M  V30 5342 P 731.741 -8.4349 -2.47671 0
M  V30 5343 O 733.163 -8.92593 -2.65 0
M  V30 5344 O 731.381 -7.7568 -1.19296 0
M  V30 5345 O 731.418 -7.36886 -3.63805 0
M  V30 5346 C 731.258 -7.95349 -4.982 0
M  V30 5347 C 731.798 -6.94612 -5.98974 0
M  V30 5348 O 730.742 -6.10347 -6.11815 0
M  V30 5349 C 733.016 -6.11426 -5.62335 0
M  V30 5350 O 733.754 -5.6162 -6.70584 0
M  V30 5351 C 732.347 -5.04409 -4.73308 0
M  V30 5352 O 733.146 -3.85992 -4.75183 0
M  V30 5353 C 731.01 -4.8728 -5.41006 0
M  V30 5354 H 731.042 -4.02333 -6.11157 0
M  V30 5355 H 732.225 -5.39466 -3.69543 0
M  V30 5356 H 733.709 -6.71916 -5.01943 0
M  V30 5357 H 732.015 -7.4649 -6.93477 0
M  V30 5358 H 731.825 -8.89416 -5.05237 0
M  V30 5359 H 730.195 -8.14876 -5.18409 0
M  V30 5360 H 732.834 -3.27957 -5.4317 0
M  V30 5361 P 734.692 -5.75688 -6.64379 0
M  V30 5362 O 736.114 -6.07627 -7.05504 0
M  V30 5363 O 734.332 -5.88047 -5.19722 0
M  V30 5364 O 734.369 -4.2322 -7.04443 0
M  V30 5365 C 734.209 -3.99743 -8.4911 0
M  V30 5366 C 734.749 -2.60516 -8.79425 0
M  V30 5367 O 733.693 -1.82684 -8.4467 0
M  V30 5368 C 735.967 -2.10343 -8.03628 0
M  V30 5369 O 736.705 -1.09919 -8.67766 0
M  V30 5370 C 735.298 -1.68446 -6.70876 0
M  V30 5371 O 736.097 -0.678137 -6.08433 0
M  V30 5372 C 733.961 -1.17436 -7.18567 0
M  V30 5373 H 733.993 -0.0804732 -7.31656 0
M  V30 5374 H 735.176 -2.54037 -6.02537 0
M  V30 5375 H 736.66 -2.93881 -7.85526 0
M  V30 5376 H 734.966 -2.53065 -9.86973 0
M  V30 5377 H 734.776 -4.75072 -9.05887 0
M  V30 5378 H 733.146 -4.05244 -8.76668 0
M  V30 5379 H 735.785 0.177647 -6.34251 0
M  V30 5380 P 737.643 -1.25109 -8.70152 0
M  V30 5381 O 739.065 -1.29744 -9.22016 0
M  V30 5382 O 737.283 -2.13714 -7.55141 0
M  V30 5383 O 737.32 0.248149 -8.21425 0
M  V30 5384 C 737.16 1.22779 -9.30434 0
M  V30 5385 C 737.7 2.56293 -8.80664 0
M  V30 5386 O 736.644 3.02979 -8.09349 0
M  V30 5387 C 738.918 2.57523 -7.89775 0
M  V30 5388 O 739.656 3.7668 -7.89438 0
M  V30 5389 C 738.249 2.20997 -6.55446 0
M  V30 5390 O 739.048 2.71895 -5.48509 0
M  V30 5391 C 736.912 2.89693 -6.67988 0
M  V30 5392 H 736.944 3.88793 -6.19859 0
M  V30 5393 H 738.127 1.12046 -6.44229 0
M  V30 5394 H 739.611 1.7746 -8.19711 0
M  V30 5395 H 737.917 3.20706 -9.67112 0
M  V30 5396 H 737.726 0.901032 -10.1892 0
M  V30 5397 H 736.096 1.33049 -9.56592 0
M  V30 5398 H 738.736 3.57847 -5.23962 0
M  V30 5399 P 740.593 3.65191 -7.99657 0
M  V30 5400 O 742.015 3.89332 -8.45794 0
M  V30 5401 O 740.233 2.28472 -7.50807 0
M  V30 5402 O 740.27 4.64972 -6.77611 0
M  V30 5403 C 740.11 6.06319 -7.16352 0
M  V30 5404 C 740.65 6.91731 -6.02299 0
M  V30 5405 O 739.594 6.92449 -5.17064 0
M  V30 5406 C 741.868 6.43627 -5.25174 0
M  V30 5407 O 742.606 7.43686 -4.60469 0
M  V30 5408 C 741.199 5.40275 -4.31916 0
M  V30 5409 O 741.998 5.25279 -3.14438 0
M  V30 5410 C 739.862 6.04847 -4.05327 0
M  V30 5411 H 739.894 6.62195 -3.11261 0
M  V30 5412 H 741.077 4.42556 -4.81383 0
M  V30 5413 H 742.561 5.92458 -5.93643 0
M  V30 5414 H 740.867 7.92655 -6.402 0
M  V30 5415 H 740.677 6.26671 -8.0846 0
M  V30 5416 H 739.047 6.29101 -7.32804 0
M  V30 5417 H 741.686 5.84315 -2.47318 0
M  V30 5418 P 743.544 7.39546 -4.75277 0
M  V30 5419 O 744.966 7.84966 -5.01146 0
M  V30 5420 O 743.184 5.9812 -5.08098 0
M  V30 5421 O 743.221 7.57503 -3.1866 0
M  V30 5422 C 743.061 8.97357 -2.74833 0
M  V30 5423 C 743.601 9.0745 -1.32694 0
M  V30 5424 O 742.546 8.62072 -0.606159 0
M  V30 5425 C 744.819 8.25383 -0.938334 0
M  V30 5426 O 745.557 8.74577 0.146954 0
M  V30 5427 C 744.151 6.8802 -0.712559 0
M  V30 5428 O 744.949 6.11791 0.194623 0
M  V30 5429 C 742.813 7.27966 -0.139777 0
M  V30 5430 N 741.77 6.39368 -0.623421 0
M  V30 5431 C 741.832 5.90299 -1.85969 0
M  V30 5432 N 740.787 5.10919 -2.1133 0
M  V30 5433 C 740.053 5.14646 -1.0015 0
M  V30 5434 C 738.747 4.60057 -0.729219 0
M  V30 5435 O 738.014 3.93476 -1.47746 0
M  V30 5436 N 738.317 4.88302 0.523505 0
M  V30 5437 C 739.066 5.63646 1.46207 0
M  V30 5438 N 738.469 5.78186 2.69239 0
M  V30 5439 N 740.219 6.19285 1.21544 0
M  V30 5440 C 740.676 5.93392 -0.0308487 0
M  V30 5441 H 742.845 7.25354 0.961601 0
M  V30 5442 H 744.028 6.3246 -1.65676 0
M  V30 5443 H 745.513 8.19533 -1.78278 0
M  V30 5444 H 743.818 10.1294 -1.10029 0
M  V30 5445 H 743.628 9.64276 -3.41316 0
M  V30 5446 H 741.997 9.25417 -2.76357 0
M  V30 5447 H 737.421 4.53993 0.806451 0
M  V30 5448 H 742.628 6.11865 -2.57394 0
M  V30 5449 H 737.558 5.34046 2.87467 0
M  V30 5450 H 738.934 6.33391 3.42578 0
M  V30 5451 H 744.638 6.25169 1.0783 0
M  V30 5452 P 746.494 8.791 5.38483e-12 0
M  V30 5453 O 747.915 9.31196 0.027936 0
M  V30 5454 O 746.134 7.77869 -1.04071 0
M  V30 5455 O 746.171 8.09533 1.41463 0
M  V30 5456 C 746.01 9.03587 2.5397 0
M  V30 5457 C 746.551 8.35226 3.79016 0
M  V30 5458 O 745.496 7.57904 4.1503 0
M  V30 5459 C 747.769 7.45087 3.67298 0
M  V30 5460 O 748.507 7.27796 4.85194 0
M  V30 5461 C 747.101 6.17323 3.12027 0
M  V30 5462 O 747.899 5.04496 3.46627 0
M  V30 5463 C 745.763 6.19961 3.81809 0
M  V30 5464 N 744.72 5.71575 2.93223 0
M  V30 5465 C 744.889 5.77362 1.59168 0
M  V30 5466 N 743.862 5.3123 0.911893 0
M  V30 5467 C 742.977 4.91717 1.89588 0
M  V30 5468 C 741.71 4.3114 1.8076 0
M  V30 5469 N 741.145 4.06823 3.02898 0
M  V30 5470 C 741.747 4.35062 4.22711 0
M  V30 5471 N 742.924 4.90805 4.35707 0
M  V30 5472 C 743.499 5.16382 3.14469 0
M  V30 5473 H 746.978 6.21428 2.0318 0
M  V30 5474 H 748.461 7.86112 2.9231 0
M  V30 5475 H 746.767 9.11171 4.55987 0
M  V30 5476 H 746.577 9.9573 2.34194 0
M  V30 5477 H 744.947 9.2792 2.67832 0
M  V30 5478 H 745.789 6.16575 1.12198 0
M  V30 5479 H 747.587 4.67628 4.28704 0
M  V30 5480 P 749.445 7.39546 4.75277 0
M  V30 5481 O 750.867 7.81777 5.05738 0
M  V30 5482 O 749.085 7.1065 3.32998 0
M  V30 5483 O 749.122 6.04542 5.56673 0
M  V30 5484 C 748.962 6.22772 7.02095 0
M  V30 5485 C 749.502 4.97725 7.70406 0
M  V30 5486 O 748.446 4.13256 7.58987 0
M  V30 5487 C 750.72 4.28231 7.11815 0
M  V30 5488 O 751.458 3.49945 8.01648 0
M  V30 5489 C 750.051 3.5063 5.96244 0
M  V30 5490 O 750.85 2.36482 5.64681 0
M  V30 5491 C 748.714 3.15122 6.56374 0
M  V30 5492 H 748.746 2.13853 6.99751 0
M  V30 5493 H 749.929 4.13501 5.06559 0
M  V30 5494 H 751.413 5.03285 6.70911 0
M  V30 5495 H 749.719 5.20877 8.75697 0
M  V30 5496 H 749.529 7.11046 7.35349 0
M  V30 5497 H 747.899 6.35815 7.26986 0
M  V30 5498 H 750.538 1.61644 6.13565 0
M  V30 5499 P 752.395 3.65191 7.99657 0
M  V30 5500 O 753.817 3.8425 8.48115 0
M  V30 5501 O 752.035 4.17805 6.64342 0
M  V30 5502 O 752.072 2.07613 7.95143 0
M  V30 5503 C 751.912 1.44328 9.27336 0
M  V30 5504 C 752.452 0.0220036 9.17197 0
M  V30 5505 O 751.396 -0.626867 8.61923 0
M  V30 5506 C 753.67 -0.24586 8.30336 0
M  V30 5507 O 754.408 -1.39011 8.63583 0
M  V30 5508 C 753.001 -0.273849 6.91158 0
M  V30 5509 O 753.8 -1.06348 6.02892 0
M  V30 5510 C 751.664 -0.897649 7.22545 0
M  V30 5511 H 751.696 -1.9841 7.04286 0
M  V30 5512 H 752.879 0.739928 6.497 0
M  V30 5513 H 754.363 0.60668 8.36503 0
M  V30 5514 H 752.669 -0.352479 10.1829 0
M  V30 5515 H 752.479 2.00611 10.0304 0
M  V30 5516 H 750.849 1.41843 9.55327 0
M  V30 5517 H 753.488 -1.95734 6.03555 0
M  V30 5518 P 755.346 -1.25109 8.70152 0
M  V30 5519 O 756.768 -1.35274 9.21221 0
M  V30 5520 O 754.986 -0.0769065 7.84762 0
M  V30 5521 O 755.023 -2.55232 7.81161 0
M  V30 5522 C 754.863 -3.79939 8.58154 0
M  V30 5523 C 755.403 -4.94023 7.72785 0
M  V30 5524 O 754.347 -5.18726 6.91205 0
M  V30 5525 C 756.621 -4.69597 6.85231 0
M  V30 5526 O 757.359 -5.83832 6.51337 0
M  V30 5527 C 755.952 -3.96706 5.66633 0
M  V30 5528 O 756.751 -4.15414 4.49689 0
M  V30 5529 C 754.615 -4.66153 5.59313 0
M  V30 5530 H 754.647 -5.47679 4.85214 0
M  V30 5531 H 755.83 -2.89008 5.86566 0
M  V30 5532 H 757.314 -4.0121 7.36511 0
M  V30 5533 H 755.62 -5.80182 8.37584 0
M  V30 5534 H 755.43 -3.73517 9.52265 0
M  V30 5535 H 753.8 -3.97163 8.80359 0
M  V30 5536 H 756.439 -4.90969 4.01921 0
M  V30 5537 P 758.296 -5.75688 6.64379 0
M  V30 5538 O 759.718 -6.11849 7.01846 0
M  V30 5539 O 757.936 -4.30744 6.56026 0
M  V30 5540 O 757.973 -6.37042 5.19165 0
M  V30 5541 C 757.813 -7.83578 5.16515 0
M  V30 5542 C 758.353 -8.33398 3.83019 0
M  V30 5543 O 757.297 -8.10074 3.01034 0
M  V30 5544 C 759.571 -7.65514 3.2257 0
M  V30 5545 O 760.309 -8.4329 2.32297 0
M  V30 5546 C 758.902 -6.40075 2.62207 0
M  V30 5547 O 759.701 -5.92589 1.53712 0
M  V30 5548 C 757.565 -6.9454 2.18503 0
M  V30 5549 H 757.597 -7.23063 1.12091 0
M  V30 5550 H 758.78 -5.6025 3.37201 0
M  V30 5551 H 760.264 -7.35707 4.02681 0
M  V30 5552 H 758.57 -9.40912 3.9095 0
M  V30 5553 H 758.38 -8.29056 5.99158 0
M  V30 5554 H 756.75 -8.10073 5.25882 0
M  V30 5555 H 759.389 -6.30324 0.726794 0
M  V30 5556 P 761.247 -8.4349 2.47671 0
M  V30 5557 O 762.669 -8.94167 2.5964 0
M  V30 5558 O 760.887 -7.1704 3.19006 0
M  V30 5559 O 760.924 -8.16596 0.923387 0
M  V30 5560 C 760.764 -9.38437 0.108857 0
M  V30 5561 C 761.304 -9.08175 -1.28353 0
M  V30 5562 O 760.248 -8.44229 -1.84713 0
M  V30 5563 C 762.522 -8.18386 -1.42505 0
M  V30 5564 O 763.26 -8.3501 -2.60497 0
M  V30 5565 C 761.853 -6.80225 -1.25468 0
M  V30 5566 O 762.652 -5.81621 -1.91066 0
M  V30 5567 C 760.516 -7.02416 -1.9168 0
M  V30 5568 H 760.548 -6.6888 -2.96621 0
M  V30 5569 H 761.731 -6.53617 -0.192223 0
M  V30 5570 H 763.215 -8.36622 -0.589963 0
M  V30 5571 H 761.521 -10.0291 -1.79807 0
M  V30 5572 H 761.331 -10.2138 0.558219 0
M  V30 5573 H 759.701 -9.6579 0.0444202 0
M  V30 5574 H 762.34 -5.69556 -2.79637 0
M  V30 5575 P 764.198 -8.4349 -2.47671 0
M  V30 5576 O 765.62 -8.92593 -2.65 0
M  V30 5577 O 763.838 -7.7568 -1.19296 0
M  V30 5578 O 763.875 -7.36886 -3.63805 0
M  V30 5579 C 763.715 -7.95349 -4.982 0
M  V30 5580 C 764.255 -6.94612 -5.98974 0
M  V30 5581 O 763.199 -6.10347 -6.11815 0
M  V30 5582 C 765.473 -6.11426 -5.62335 0
M  V30 5583 O 766.211 -5.6162 -6.70584 0
M  V30 5584 C 764.804 -5.04409 -4.73308 0
M  V30 5585 O 765.603 -3.85992 -4.75183 0
M  V30 5586 C 763.467 -4.8728 -5.41006 0
M  V30 5587 H 763.499 -4.02333 -6.11157 0
M  V30 5588 H 764.682 -5.39466 -3.69543 0
M  V30 5589 H 766.166 -6.71916 -5.01943 0
M  V30 5590 H 764.472 -7.4649 -6.93477 0
M  V30 5591 H 764.282 -8.89416 -5.05237 0
M  V30 5592 H 762.652 -8.14876 -5.18409 0
M  V30 5593 H 765.291 -3.27957 -5.4317 0
M  V30 5594 P 767.148 -5.75688 -6.64379 0
M  V30 5595 O 768.57 -6.07627 -7.05504 0
M  V30 5596 O 766.788 -5.88047 -5.19722 0
M  V30 5597 O 766.825 -4.2322 -7.04443 0
M  V30 5598 C 766.665 -3.99743 -8.4911 0
M  V30 5599 C 767.205 -2.60516 -8.79425 0
M  V30 5600 O 766.149 -1.82684 -8.4467 0
M  V30 5601 C 768.423 -2.10343 -8.03628 0
M  V30 5602 O 769.161 -1.09919 -8.67766 0
M  V30 5603 C 767.754 -1.68446 -6.70876 0
M  V30 5604 O 768.553 -0.678137 -6.08433 0
M  V30 5605 C 766.417 -1.17436 -7.18567 0
M  V30 5606 H 766.449 -0.0804732 -7.31656 0
M  V30 5607 H 767.632 -2.54037 -6.02537 0
M  V30 5608 H 769.116 -2.93881 -7.85526 0
M  V30 5609 H 767.422 -2.53065 -9.86973 0
M  V30 5610 H 767.232 -4.75072 -9.05887 0
M  V30 5611 H 765.602 -4.05244 -8.76668 0
M  V30 5612 H 768.241 0.177647 -6.34251 0
M  V30 5613 P 770.099 -1.25109 -8.70152 0
M  V30 5614 O 771.52 -1.29758 -9.22115 0
M  V30 5615 O 769.739 -2.13714 -7.55141 0
M  V30 5616 O 769.776 0.248149 -8.21425 0
M  V30 5617 C 769.615 1.22792 -9.30533 0
M  V30 5618 C 770.156 2.56293 -8.80664 0
M  V30 5619 O 769.101 3.02944 -8.09255 0
M  V30 5620 C 771.374 2.57523 -7.89775 0
M  V30 5621 O 772.112 3.7668 -7.89438 0
M  V30 5622 C 770.706 2.20997 -6.55446 0
M  V30 5623 O 771.504 2.71302 -5.48691 0
M  V30 5624 C 769.368 2.89693 -6.67988 0
M  V30 5625 N 768.325 2.08895 -6.07487 0
M  V30 5626 C 768.494 0.753809 -5.94137 0
M  V30 5627 N 767.467 0.146592 -5.38801 0
M  V30 5628 C 766.582 1.1768 -5.13693 0
M  V30 5629 C 765.315 1.17563 -4.52477 0
M  V30 5630 N 764.716 0.057481 -4.04759 0
M  V30 5631 N 764.75 2.41918 -4.45789 0
M  V30 5632 C 765.352 3.56493 -4.90792 0
M  V30 5633 N 766.529 3.61423 -5.47817 0
M  V30 5634 C 767.104 2.37779 -5.5588 0
M  V30 5635 H 769.4 3.8874 -6.19774 0
M  V30 5636 H 770.583 1.12673 -6.44018 0
M  V30 5637 H 772.066 1.7746 -8.19711 0
M  V30 5638 H 770.372 3.21673 -9.66791 0
M  V30 5639 H 770.182 0.901032 -10.1892 0
M  V30 5640 H 768.552 1.33049 -9.56592 0
M  V30 5641 H 764.816 4.49919 -4.77947 0
M  V30 5642 H 769.394 0.233081 -6.26266 0
M  V30 5643 H 763.786 0.119831 -3.60801 0
M  V30 5644 H 765.19 -0.852272 -4.12385 0
M  V30 5645 H 771.192 3.5779 -5.23879 0
M  V30 5646 P 773.049 3.65191 -7.99657 0
M  V30 5647 O 774.471 3.89332 -8.45794 0
M  V30 5648 O 772.689 2.28472 -7.50807 0
M  V30 5649 O 772.726 4.64972 -6.77611 0
M  V30 5650 C 772.566 6.06319 -7.16352 0
M  V30 5651 C 773.106 6.91731 -6.02299 0
M  V30 5652 O 772.05 6.92449 -5.17064 0
M  V30 5653 C 774.324 6.43627 -5.25174 0
M  V30 5654 O 775.062 7.43686 -4.60469 0
M  V30 5655 C 773.655 5.40275 -4.31916 0
M  V30 5656 O 774.454 5.25279 -3.14438 0
M  V30 5657 C 772.318 6.04847 -4.05327 0
M  V30 5658 H 772.35 6.62195 -3.11261 0
M  V30 5659 H 773.533 4.42556 -4.81383 0
M  V30 5660 H 775.017 5.92458 -5.93643 0
M  V30 5661 H 773.323 7.92655 -6.402 0
M  V30 5662 H 773.133 6.26671 -8.0846 0
M  V30 5663 H 771.503 6.29101 -7.32804 0
M  V30 5664 H 774.142 5.84315 -2.47318 0
M  V30 5665 P 776 7.39546 -4.75277 0
M  V30 5666 O 777.422 7.84798 -5.01039 0
M  V30 5667 O 775.64 5.9812 -5.08098 0
M  V30 5668 O 775.677 7.57503 -3.1866 0
M  V30 5669 C 775.517 8.97357 -2.74833 0
M  V30 5670 C 776.057 9.07548 -1.32709 0
M  V30 5671 O 775.001 8.62072 -0.606159 0
M  V30 5672 C 777.275 8.25383 -0.938334 0
M  V30 5673 O 778.013 8.74577 0.146954 0
M  V30 5674 C 776.606 6.8802 -0.712559 0
M  V30 5675 O 777.405 6.1189 0.194655 0
M  V30 5676 C 775.269 7.27966 -0.139777 0
M  V30 5677 H 775.301 7.25354 0.961601 0
M  V30 5678 H 776.484 6.32557 -1.65702 0
M  V30 5679 H 777.968 8.19355 -1.79097 0
M  V30 5680 H 776.274 10.1294 -1.10029 0
M  V30 5681 H 776.084 9.64276 -3.41316 0
M  V30 5682 H 774.454 9.25417 -2.76357 0
M  V30 5683 H 777.093 6.25267 1.07847 0
M  V30 5684 P 778.95 8.791 5.69499e-12 0
M  V30 5685 O 780.372 9.31096 0.027933 0
M  V30 5686 O 778.59 7.77869 -1.04071 0
M  V30 5687 O 778.627 8.09533 1.41463 0
M  V30 5688 C 778.467 9.0349 2.53943 0
M  V30 5689 C 779.007 8.35226 3.79016 0
M  V30 5690 O 777.951 7.57992 4.15078 0
M  V30 5691 C 780.225 7.45087 3.67298 0
M  V30 5692 O 780.963 7.27796 4.85194 0
M  V30 5693 C 779.556 6.17323 3.12027 0
M  V30 5694 O 780.355 5.04231 3.47188 0
M  V30 5695 C 778.219 6.19961 3.81809 0
M  V30 5696 H 778.251 5.58218 4.73051 0
M  V30 5697 H 779.434 6.21726 2.02589 0
M  V30 5698 H 780.918 7.86112 2.9231 0
M  V30 5699 H 779.224 9.11627 4.55076 0
M  V30 5700 H 779.034 9.9573 2.34194 0
M  V30 5701 H 777.404 9.2792 2.67832 0
M  V30 5702 H 780.043 4.67702 4.28772 0
M  V30 5703 P 781.901 7.39546 4.75277 0
M  V30 5704 O 783.323 7.81777 5.05738 0
M  V30 5705 O 781.541 7.1065 3.32998 0
M  V30 5706 O 781.578 6.04542 5.56673 0
M  V30 5707 C 781.418 6.22772 7.02095 0
M  V30 5708 C 781.958 4.97725 7.70406 0
M  V30 5709 O 780.902 4.13256 7.58987 0
M  V30 5710 C 783.176 4.28231 7.11815 0
M  V30 5711 O 783.914 3.49945 8.01648 0
M  V30 5712 C 782.507 3.5063 5.96244 0
M  V30 5713 O 783.306 2.36482 5.64681 0
M  V30 5714 C 781.17 3.15122 6.56374 0
M  V30 5715 H 781.202 2.13853 6.99751 0
M  V30 5716 H 782.385 4.13501 5.06559 0
M  V30 5717 H 783.869 5.03285 6.70911 0
M  V30 5718 H 782.175 5.20877 8.75697 0
M  V30 5719 H 781.985 7.11046 7.35349 0
M  V30 5720 H 780.355 6.35815 7.26986 0
M  V30 5721 H 782.994 1.61644 6.13565 0
M  V30 5722 P 784.852 3.65191 7.99657 0
M  V30 5723 O 786.274 3.8425 8.48115 0
M  V30 5724 O 784.492 4.17805 6.64342 0
M  V30 5725 O 784.529 2.07613 7.95143 0
M  V30 5726 C 784.369 1.44328 9.27336 0
M  V30 5727 C 784.909 0.0220036 9.17197 0
M  V30 5728 O 783.853 -0.626867 8.61923 0
M  V30 5729 C 786.127 -0.24586 8.30336 0
M  V30 5730 O 786.865 -1.39011 8.63583 0
M  V30 5731 C 785.458 -0.273849 6.91158 0
M  V30 5732 O 786.257 -1.06348 6.02892 0
M  V30 5733 C 784.121 -0.897649 7.22545 0
M  V30 5734 H 784.153 -1.9841 7.04286 0
M  V30 5735 H 785.336 0.739928 6.497 0
M  V30 5736 H 786.82 0.60668 8.36503 0
M  V30 5737 H 785.126 -0.352479 10.1829 0
M  V30 5738 H 784.936 2.00611 10.0304 0
M  V30 5739 H 783.306 1.41843 9.55327 0
M  V30 5740 H 785.945 -1.95734 6.03555 0
M  V30 5741 P 787.802 -1.25109 8.70152 0
M  V30 5742 O 789.224 -1.35274 9.21221 0
M  V30 5743 O 787.442 -0.0769065 7.84762 0
M  V30 5744 O 787.479 -2.55232 7.81161 0
M  V30 5745 C 787.319 -3.79939 8.58154 0
M  V30 5746 C 787.859 -4.94023 7.72785 0
M  V30 5747 O 786.803 -5.18726 6.91205 0
M  V30 5748 C 789.077 -4.69597 6.85231 0
M  V30 5749 O 789.815 -5.83832 6.51337 0
M  V30 5750 C 788.408 -3.96706 5.66633 0
M  V30 5751 O 789.207 -4.15414 4.49689 0
M  V30 5752 C 787.071 -4.66153 5.59313 0
M  V30 5753 H 787.103 -5.47679 4.85214 0
M  V30 5754 H 788.286 -2.89008 5.86566 0
M  V30 5755 H 789.77 -4.0121 7.36511 0
M  V30 5756 H 788.076 -5.80182 8.37584 0
M  V30 5757 H 787.886 -3.73517 9.52265 0
M  V30 5758 H 786.256 -3.97163 8.80359 0
M  V30 5759 H 788.895 -4.90969 4.01921 0
M  V30 5760 P 790.753 -5.75688 6.64379 0
M  V30 5761 O 792.175 -6.11849 7.01846 0
M  V30 5762 O 790.393 -4.30744 6.56026 0
M  V30 5763 O 790.43 -6.37042 5.19165 0
M  V30 5764 C 790.27 -7.83578 5.16515 0
M  V30 5765 C 790.81 -8.33398 3.83019 0
M  V30 5766 O 789.754 -8.10074 3.01034 0
M  V30 5767 C 792.028 -7.65514 3.2257 0
M  V30 5768 O 792.766 -8.4329 2.32297 0
M  V30 5769 C 791.359 -6.40075 2.62207 0
M  V30 5770 O 792.158 -5.92589 1.53712 0
M  V30 5771 C 790.022 -6.9454 2.18503 0
M  V30 5772 H 790.054 -7.23063 1.12091 0
M  V30 5773 H 791.237 -5.6025 3.37201 0
M  V30 5774 H 792.721 -7.35707 4.02681 0
M  V30 5775 H 791.027 -9.40912 3.9095 0
M  V30 5776 H 790.837 -8.29056 5.99158 0
M  V30 5777 H 789.207 -8.10073 5.25882 0
M  V30 5778 H 791.846 -6.30324 0.726794 0
M  V30 5779 P 793.703 -8.4349 2.47671 0
M  V30 5780 O 795.125 -8.94167 2.5964 0
M  V30 5781 O 793.343 -7.1704 3.19006 0
M  V30 5782 O 793.38 -8.16596 0.923387 0
M  V30 5783 C 793.22 -9.38437 0.108857 0
M  V30 5784 C 793.76 -9.08175 -1.28353 0
M  V30 5785 O 792.704 -8.44229 -1.84713 0
M  V30 5786 C 794.978 -8.18386 -1.42505 0
M  V30 5787 O 795.716 -8.3501 -2.60497 0
M  V30 5788 C 794.309 -6.80225 -1.25468 0
M  V30 5789 O 795.108 -5.81621 -1.91066 0
M  V30 5790 C 792.972 -7.02416 -1.9168 0
M  V30 5791 H 793.004 -6.6888 -2.96621 0
M  V30 5792 H 794.187 -6.53617 -0.192223 0
M  V30 5793 H 795.671 -8.36622 -0.589963 0
M  V30 5794 H 793.977 -10.0291 -1.79807 0
M  V30 5795 H 793.787 -10.2138 0.558219 0
M  V30 5796 H 792.157 -9.6579 0.0444202 0
M  V30 5797 H 794.796 -5.69556 -2.79637 0
M  V30 5798 P 796.654 -8.4349 -2.47671 0
M  V30 5799 O 798.076 -8.92593 -2.65 0
M  V30 5800 O 796.294 -7.7568 -1.19296 0
M  V30 5801 O 796.331 -7.36886 -3.63805 0
M  V30 5802 C 796.171 -7.95349 -4.982 0
M  V30 5803 C 796.711 -6.94612 -5.98974 0
M  V30 5804 O 795.655 -6.10347 -6.11815 0
M  V30 5805 C 797.929 -6.11426 -5.62335 0
M  V30 5806 O 798.667 -5.6162 -6.70584 0
M  V30 5807 C 797.26 -5.04409 -4.73308 0
M  V30 5808 O 798.059 -3.85992 -4.75183 0
M  V30 5809 C 795.923 -4.8728 -5.41006 0
M  V30 5810 H 795.955 -4.02333 -6.11157 0
M  V30 5811 H 797.138 -5.39466 -3.69543 0
M  V30 5812 H 798.622 -6.71916 -5.01943 0
M  V30 5813 H 796.928 -7.4649 -6.93477 0
M  V30 5814 H 796.738 -8.89416 -5.05237 0
M  V30 5815 H 795.108 -8.14876 -5.18409 0
M  V30 5816 H 797.747 -3.27957 -5.4317 0
M  V30 5817 P 799.604 -5.75688 -6.64379 0
M  V30 5818 O 801.026 -6.07627 -7.05504 0
M  V30 5819 O 799.244 -5.88047 -5.19722 0
M  V30 5820 O 799.281 -4.2322 -7.04443 0
M  V30 5821 C 799.121 -3.99743 -8.4911 0
M  V30 5822 C 799.661 -2.60516 -8.79425 0
M  V30 5823 O 798.605 -1.82684 -8.4467 0
M  V30 5824 C 800.879 -2.10343 -8.03628 0
M  V30 5825 O 801.617 -1.09919 -8.67766 0
M  V30 5826 C 800.21 -1.68446 -6.70876 0
M  V30 5827 O 801.009 -0.678137 -6.08433 0
M  V30 5828 C 798.873 -1.17436 -7.18567 0
M  V30 5829 H 798.905 -0.0804732 -7.31656 0
M  V30 5830 H 800.088 -2.54037 -6.02537 0
M  V30 5831 H 801.572 -2.93881 -7.85526 0
M  V30 5832 H 799.878 -2.53065 -9.86973 0
M  V30 5833 H 799.688 -4.75072 -9.05887 0
M  V30 5834 H 798.058 -4.05244 -8.76668 0
M  V30 5835 H 800.697 0.177647 -6.34251 0
M  V30 5836 P 802.555 -1.25109 -8.70152 0
M  V30 5837 O 803.976 -1.29758 -9.22115 0
M  V30 5838 O 802.195 -2.13714 -7.55141 0
M  V30 5839 O 802.232 0.248149 -8.21425 0
M  V30 5840 C 802.071 1.22792 -9.30533 0
M  V30 5841 C 802.612 2.56293 -8.80664 0
M  V30 5842 O 801.557 3.02944 -8.09255 0
M  V30 5843 C 803.83 2.57523 -7.89775 0
M  V30 5844 O 804.568 3.7668 -7.89438 0
M  V30 5845 C 803.162 2.20997 -6.55446 0
M  V30 5846 O 803.96 2.71302 -5.48691 0
M  V30 5847 C 801.824 2.89693 -6.67988 0
M  V30 5848 N 800.781 2.08895 -6.07487 0
M  V30 5849 C 800.95 0.753809 -5.94137 0
M  V30 5850 N 799.923 0.146592 -5.38801 0
M  V30 5851 C 799.038 1.1768 -5.13693 0
M  V30 5852 C 797.771 1.17563 -4.52477 0
M  V30 5853 N 797.206 2.41918 -4.45789 0
M  V30 5854 C 797.808 3.56493 -4.90792 0
M  V30 5855 N 798.985 3.61423 -5.47817 0
M  V30 5856 C 799.56 2.37779 -5.5588 0
M  V30 5857 H 803.039 1.12673 -6.44018 0
M  V30 5858 H 804.522 1.7746 -8.19711 0
M  V30 5859 H 802.828 3.21673 -9.66791 0
M  V30 5860 H 802.638 0.901032 -10.1892 0
M  V30 5861 H 801.008 1.33049 -9.56592 0
M  V30 5862 H 801.85 0.233081 -6.26266 0
M  V30 5863 H 803.648 3.5779 -5.23879 0
M  V30 5864 P 805.506 3.65191 -7.99657 0
M  V30 5865 O 806.928 3.89332 -8.45794 0
M  V30 5866 O 805.146 2.28472 -7.50807 0
M  V30 5867 O 805.183 4.64972 -6.77611 0
M  V30 5868 C 805.023 6.06319 -7.16352 0
M  V30 5869 C 805.563 6.91731 -6.02299 0
M  V30 5870 O 804.507 6.92449 -5.17064 0
M  V30 5871 C 806.781 6.43627 -5.25174 0
M  V30 5872 O 807.519 7.43686 -4.60469 0
M  V30 5873 C 806.112 5.40275 -4.31916 0
M  V30 5874 O 806.911 5.25279 -3.14438 0
M  V30 5875 C 804.775 6.04847 -4.05327 0
M  V30 5876 H 804.807 6.62195 -3.11261 0
M  V30 5877 H 805.99 4.42556 -4.81383 0
M  V30 5878 H 807.474 5.92458 -5.93643 0
M  V30 5879 H 805.78 7.92655 -6.402 0
M  V30 5880 H 805.59 6.26671 -8.0846 0
M  V30 5881 H 803.96 6.29101 -7.32804 0
M  V30 5882 H 806.599 5.84315 -2.47318 0
M  V30 5883 P 808.456 7.39546 -4.75277 0
M  V30 5884 O 809.878 7.84798 -5.01039 0
M  V30 5885 O 808.096 5.9812 -5.08098 0
M  V30 5886 O 808.133 7.57503 -3.1866 0
M  V30 5887 C 807.973 8.97357 -2.74833 0
M  V30 5888 C 808.513 9.07548 -1.32709 0
M  V30 5889 O 807.457 8.62072 -0.606159 0
M  V30 5890 C 809.731 8.25383 -0.938334 0
M  V30 5891 O 810.469 8.74577 0.146954 0
M  V30 5892 C 809.062 6.8802 -0.712559 0
M  V30 5893 O 809.861 6.1189 0.194655 0
M  V30 5894 C 807.725 7.27966 -0.139777 0
M  V30 5895 H 807.757 7.25354 0.961601 0
M  V30 5896 H 808.94 6.32557 -1.65702 0
M  V30 5897 H 810.424 8.19355 -1.79097 0
M  V30 5898 H 808.73 10.1294 -1.10029 0
M  V30 5899 H 808.54 9.64276 -3.41316 0
M  V30 5900 H 806.91 9.25417 -2.76357 0
M  V30 5901 H 809.549 6.25267 1.07847 0
M  V30 5902 P 811.407 8.791 6.00516e-12 0
M  V30 5903 O 812.829 9.31096 0.027933 0
M  V30 5904 O 811.047 7.77869 -1.04071 0
M  V30 5905 O 811.084 8.09533 1.41463 0
M  V30 5906 C 810.924 9.0349 2.53943 0
M  V30 5907 C 811.464 8.35226 3.79016 0
M  V30 5908 O 810.408 7.57992 4.15078 0
M  V30 5909 C 812.682 7.45087 3.67298 0
M  V30 5910 O 813.42 7.27796 4.85194 0
M  V30 5911 C 812.013 6.17323 3.12027 0
M  V30 5912 O 812.812 5.04231 3.47188 0
M  V30 5913 C 810.676 6.19961 3.81809 0
M  V30 5914 H 810.708 5.58218 4.73051 0
M  V30 5915 H 811.891 6.21726 2.02589 0
M  V30 5916 H 813.375 7.86112 2.9231 0
M  V30 5917 H 811.681 9.11627 4.55076 0
M  V30 5918 H 811.491 9.9573 2.34194 0
M  V30 5919 H 809.861 9.2792 2.67832 0
M  V30 5920 H 812.5 4.67702 4.28772 0
M  V30 5921 P 814.357 7.39546 4.75277 0
M  V30 5922 O 815.779 7.81777 5.05738 0
M  V30 5923 O 813.997 7.1065 3.32998 0
M  V30 5924 O 814.034 6.04542 5.56673 0
M  V30 5925 C 813.874 6.22772 7.02095 0
M  V30 5926 C 814.414 4.97725 7.70406 0
M  V30 5927 O 813.358 4.13256 7.58987 0
M  V30 5928 C 815.632 4.28231 7.11815 0
M  V30 5929 O 816.37 3.49945 8.01648 0
M  V30 5930 C 814.963 3.5063 5.96244 0
M  V30 5931 O 815.762 2.36482 5.64681 0
M  V30 5932 C 813.626 3.15122 6.56374 0
M  V30 5933 H 813.658 2.13853 6.99751 0
M  V30 5934 H 814.841 4.13501 5.06559 0
M  V30 5935 H 816.325 5.03285 6.70911 0
M  V30 5936 H 814.631 5.20877 8.75697 0
M  V30 5937 H 814.441 7.11046 7.35349 0
M  V30 5938 H 812.811 6.35815 7.26986 0
M  V30 5939 H 815.45 1.61644 6.13565 0
M  V30 5940 P 817.308 3.65191 7.99657 0
M  V30 5941 O 818.73 3.8425 8.48115 0
M  V30 5942 O 816.948 4.17805 6.64342 0
M  V30 5943 O 816.985 2.07613 7.95143 0
M  V30 5944 C 816.825 1.44328 9.27336 0
M  V30 5945 C 817.365 0.0220036 9.17197 0
M  V30 5946 O 816.309 -0.626867 8.61923 0
M  V30 5947 C 818.583 -0.24586 8.30336 0
M  V30 5948 O 819.321 -1.39011 8.63583 0
M  V30 5949 C 817.914 -0.273849 6.91158 0
M  V30 5950 O 818.713 -1.06348 6.02892 0
M  V30 5951 C 816.577 -0.897649 7.22545 0
M  V30 5952 H 816.609 -1.9841 7.04286 0
M  V30 5953 H 817.792 0.739928 6.497 0
M  V30 5954 H 819.276 0.60668 8.36503 0
M  V30 5955 H 817.582 -0.352479 10.1829 0
M  V30 5956 H 817.392 2.00611 10.0304 0
M  V30 5957 H 815.762 1.41843 9.55327 0
M  V30 5958 H 818.401 -1.95734 6.03555 0
M  V30 5959 P 820.258 -1.25109 8.70152 0
M  V30 5960 O 821.679 -1.35288 9.2132 0
M  V30 5961 O 819.898 -0.0769065 7.84762 0
M  V30 5962 O 819.935 -2.55232 7.81161 0
M  V30 5963 C 819.774 -3.79979 8.58246 0
M  V30 5964 C 820.315 -4.94023 7.72785 0
M  V30 5965 O 819.26 -5.18666 6.91125 0
M  V30 5966 C 821.533 -4.69597 6.85231 0
M  V30 5967 O 822.271 -5.83832 6.51337 0
M  V30 5968 C 820.865 -3.96706 5.66633 0
M  V30 5969 O 821.663 -4.14896 4.5003 0
M  V30 5970 C 819.527 -4.66153 5.59313 0
M  V30 5971 N 818.484 -3.71582 5.24027 0
M  V30 5972 C 818.653 -2.39715 5.48833 0
M  V30 5973 N 817.626 -1.65863 5.12845 0
M  V30 5974 C 816.741 -2.57637 4.5973 0
M  V30 5975 C 815.474 -2.40278 4.01027 0
M  V30 5976 N 814.875 -1.19549 3.86744 0
M  V30 5977 N 814.909 -3.57711 3.59575 0
M  V30 5978 C 815.511 -4.80324 3.70476 0
M  V30 5979 N 816.688 -5.01121 4.23801 0
M  V30 5980 C 817.263 -3.84757 4.66372 0
M  V30 5981 H 819.559 -5.47604 4.85148 0
M  V30 5982 H 820.742 -2.8955 5.86187 0
M  V30 5983 H 822.225 -4.0121 7.36511 0
M  V30 5984 H 820.531 -5.81019 8.37003 0
M  V30 5985 H 820.341 -3.73517 9.52265 0
M  V30 5986 H 818.711 -3.97163 8.80359 0
M  V30 5987 H 814.975 -5.66348 3.3183 0
M  V30 5988 H 819.553 -1.98804 5.94332 0
M  V30 5989 H 813.945 -1.13147 3.4281 0
M  V30 5990 H 815.349 -0.344074 4.19692 0
M  V30 5991 H 821.351 -4.90891 4.01857 0
M  V30 5992 P 823.209 -5.75688 6.64379 0
M  V30 5993 O 824.631 -6.11849 7.01846 0
M  V30 5994 O 822.849 -4.30744 6.56026 0
M  V30 5995 O 822.886 -6.37042 5.19165 0
M  V30 5996 C 822.726 -7.83578 5.16515 0
M  V30 5997 C 823.266 -8.33398 3.83019 0
M  V30 5998 O 822.21 -8.10074 3.01034 0
M  V30 5999 C 824.484 -7.65514 3.2257 0
M  V30 6000 O 825.222 -8.4329 2.32297 0
M  V30 6001 C 823.815 -6.40075 2.62207 0
M  V30 6002 O 824.614 -5.92589 1.53712 0
M  V30 6003 C 822.478 -6.9454 2.18503 0
M  V30 6004 H 822.51 -7.23063 1.12091 0
M  V30 6005 H 823.693 -5.6025 3.37201 0
M  V30 6006 H 825.177 -7.35707 4.02681 0
M  V30 6007 H 823.483 -9.40912 3.9095 0
M  V30 6008 H 823.293 -8.29056 5.99158 0
M  V30 6009 H 821.663 -8.10073 5.25882 0
M  V30 6010 H 824.302 -6.30324 0.726794 0
M  V30 6011 P 826.16 -8.4349 2.47671 0
M  V30 6012 O 827.582 -8.94167 2.5964 0
M  V30 6013 O 825.8 -7.1704 3.19006 0
M  V30 6014 O 825.837 -8.16596 0.923387 0
M  V30 6015 C 825.677 -9.38437 0.108857 0
M  V30 6016 C 826.217 -9.08175 -1.28353 0
M  V30 6017 O 825.161 -8.44229 -1.84713 0
M  V30 6018 C 827.435 -8.18386 -1.42505 0
M  V30 6019 O 828.173 -8.3501 -2.60497 0
M  V30 6020 C 826.766 -6.80225 -1.25468 0
M  V30 6021 O 827.565 -5.81621 -1.91066 0
M  V30 6022 C 825.429 -7.02416 -1.9168 0
M  V30 6023 H 825.461 -6.6888 -2.96621 0
M  V30 6024 H 826.644 -6.53617 -0.192223 0
M  V30 6025 H 828.128 -8.36622 -0.589963 0
M  V30 6026 H 826.434 -10.0291 -1.79807 0
M  V30 6027 H 826.244 -10.2138 0.558219 0
M  V30 6028 H 824.614 -9.6579 0.0444202 0
M  V30 6029 H 827.253 -5.69556 -2.79637 0
M  V30 6030 P 829.11 -8.4349 -2.47671 0
M  V30 6031 O 830.532 -8.92593 -2.65 0
M  V30 6032 O 828.75 -7.7568 -1.19296 0
M  V30 6033 O 828.787 -7.36886 -3.63805 0
M  V30 6034 C 828.627 -7.95349 -4.982 0
M  V30 6035 C 829.167 -6.94612 -5.98974 0
M  V30 6036 O 828.111 -6.10347 -6.11815 0
M  V30 6037 C 830.385 -6.11426 -5.62335 0
M  V30 6038 O 831.123 -5.6162 -6.70584 0
M  V30 6039 C 829.716 -5.04409 -4.73308 0
M  V30 6040 O 830.515 -3.85992 -4.75183 0
M  V30 6041 C 828.379 -4.8728 -5.41006 0
M  V30 6042 H 828.411 -4.02333 -6.11157 0
M  V30 6043 H 829.594 -5.39466 -3.69543 0
M  V30 6044 H 831.078 -6.71916 -5.01943 0
M  V30 6045 H 829.384 -7.4649 -6.93477 0
M  V30 6046 H 829.194 -8.89416 -5.05237 0
M  V30 6047 H 827.564 -8.14876 -5.18409 0
M  V30 6048 H 830.203 -3.27957 -5.4317 0
M  V30 6049 P 832.061 -5.75688 -6.64379 0
M  V30 6050 O 833.483 -6.07627 -7.05504 0
M  V30 6051 O 831.701 -5.88047 -5.19722 0
M  V30 6052 O 831.738 -4.2322 -7.04443 0
M  V30 6053 C 831.578 -3.99743 -8.4911 0
M  V30 6054 C 832.118 -2.60516 -8.79425 0
M  V30 6055 O 831.062 -1.82684 -8.4467 0
M  V30 6056 C 833.336 -2.10343 -8.03628 0
M  V30 6057 O 834.074 -1.09919 -8.67766 0
M  V30 6058 C 832.667 -1.68446 -6.70876 0
M  V30 6059 O 833.466 -0.678137 -6.08433 0
M  V30 6060 C 831.33 -1.17436 -7.18567 0
M  V30 6061 H 831.362 -0.0804732 -7.31656 0
M  V30 6062 H 832.545 -2.54037 -6.02537 0
M  V30 6063 H 834.029 -2.93881 -7.85526 0
M  V30 6064 H 832.335 -2.53065 -9.86973 0
M  V30 6065 H 832.145 -4.75072 -9.05887 0
M  V30 6066 H 830.515 -4.05244 -8.76668 0
M  V30 6067 H 833.154 0.177647 -6.34251 0
M  V30 6068 P 835.011 -1.25109 -8.70152 0
M  V30 6069 O 836.433 -1.29744 -9.22016 0
M  V30 6070 O 834.651 -2.13714 -7.55141 0
M  V30 6071 O 834.688 0.248149 -8.21425 0
M  V30 6072 C 834.528 1.22779 -9.30434 0
M  V30 6073 C 835.068 2.56293 -8.80664 0
M  V30 6074 O 834.012 3.02979 -8.09349 0
M  V30 6075 C 836.286 2.57523 -7.89775 0
M  V30 6076 O 837.024 3.7668 -7.89438 0
M  V30 6077 C 835.617 2.20997 -6.55446 0
M  V30 6078 O 836.416 2.71895 -5.48509 0
M  V30 6079 C 834.28 2.89693 -6.67988 0
M  V30 6080 H 834.312 3.88793 -6.19859 0
M  V30 6081 H 835.495 1.12046 -6.44229 0
M  V30 6082 H 836.979 1.7746 -8.19711 0
M  V30 6083 H 835.285 3.20706 -9.67112 0
M  V30 6084 H 835.095 0.901032 -10.1892 0
M  V30 6085 H 833.465 1.33049 -9.56592 0
M  V30 6086 H 836.104 3.57847 -5.23962 0
M  V30 6087 P 837.962 3.65191 -7.99657 0
M  V30 6088 O 839.384 3.89332 -8.45794 0
M  V30 6089 O 837.602 2.28472 -7.50807 0
M  V30 6090 O 837.639 4.64972 -6.77611 0
M  V30 6091 C 837.479 6.06319 -7.16352 0
M  V30 6092 C 838.019 6.91731 -6.02299 0
M  V30 6093 O 836.963 6.92449 -5.17064 0
M  V30 6094 C 839.237 6.43627 -5.25174 0
M  V30 6095 O 839.975 7.43686 -4.60469 0
M  V30 6096 C 838.568 5.40275 -4.31916 0
M  V30 6097 O 839.367 5.25279 -3.14438 0
M  V30 6098 C 837.231 6.04847 -4.05327 0
M  V30 6099 H 837.263 6.62195 -3.11261 0
M  V30 6100 H 838.446 4.42556 -4.81383 0
M  V30 6101 H 839.93 5.92458 -5.93643 0
M  V30 6102 H 838.236 7.92655 -6.402 0
M  V30 6103 H 838.046 6.26671 -8.0846 0
M  V30 6104 H 836.416 6.29101 -7.32804 0
M  V30 6105 H 839.055 5.84315 -2.47318 0
M  V30 6106 P 840.912 7.39546 -4.75277 0
M  V30 6107 O 842.334 7.84798 -5.01039 0
M  V30 6108 O 840.552 5.9812 -5.08098 0
M  V30 6109 O 840.589 7.57503 -3.1866 0
M  V30 6110 C 840.429 8.97357 -2.74833 0
M  V30 6111 C 840.969 9.07548 -1.32709 0
M  V30 6112 O 839.913 8.62072 -0.606159 0
M  V30 6113 C 842.187 8.25383 -0.938334 0
M  V30 6114 O 842.925 8.74577 0.146954 0
M  V30 6115 C 841.518 6.8802 -0.712559 0
M  V30 6116 O 842.317 6.1189 0.194655 0
M  V30 6117 C 840.181 7.27966 -0.139777 0
M  V30 6118 H 840.213 7.25354 0.961601 0
M  V30 6119 H 841.396 6.32557 -1.65702 0
M  V30 6120 H 842.88 8.19355 -1.79097 0
M  V30 6121 H 841.186 10.1294 -1.10029 0
M  V30 6122 H 840.996 9.64276 -3.41316 0
M  V30 6123 H 839.366 9.25417 -2.76357 0
M  V30 6124 H 842.005 6.25267 1.07847 0
M  V30 6125 P 843.863 8.791 6.31533e-12 0
M  V30 6126 O 845.285 9.31096 0.027933 0
M  V30 6127 O 843.503 7.77869 -1.04071 0
M  V30 6128 O 843.54 8.09533 1.41463 0
M  V30 6129 C 843.38 9.0349 2.53943 0
M  V30 6130 C 843.92 8.35226 3.79016 0
M  V30 6131 O 842.864 7.57992 4.15078 0
M  V30 6132 C 845.138 7.45087 3.67298 0
M  V30 6133 O 845.876 7.27796 4.85194 0
M  V30 6134 C 844.469 6.17323 3.12027 0
M  V30 6135 O 845.268 5.04231 3.47188 0
M  V30 6136 C 843.132 6.19961 3.81809 0
M  V30 6137 H 843.164 5.58218 4.73051 0
M  V30 6138 H 844.347 6.21726 2.02589 0
M  V30 6139 H 845.831 7.86112 2.9231 0
M  V30 6140 H 844.137 9.11627 4.55076 0
M  V30 6141 H 843.947 9.9573 2.34194 0
M  V30 6142 H 842.317 9.2792 2.67832 0
M  V30 6143 H 844.956 4.67702 4.28772 0
M  V30 6144 P 846.814 7.39546 4.75277 0
M  V30 6145 O 848.236 7.81777 5.05738 0
M  V30 6146 O 846.454 7.1065 3.32998 0
M  V30 6147 O 846.491 6.04542 5.56673 0
M  V30 6148 C 846.331 6.22772 7.02095 0
M  V30 6149 C 846.871 4.97725 7.70406 0
M  V30 6150 O 845.815 4.13256 7.58987 0
M  V30 6151 C 848.089 4.28231 7.11815 0
M  V30 6152 O 848.827 3.49945 8.01648 0
M  V30 6153 C 847.42 3.5063 5.96244 0
M  V30 6154 O 848.219 2.36482 5.64681 0
M  V30 6155 C 846.083 3.15122 6.56374 0
M  V30 6156 H 846.115 2.13853 6.99751 0
M  V30 6157 H 847.298 4.13501 5.06559 0
M  V30 6158 H 848.782 5.03285 6.70911 0
M  V30 6159 H 847.088 5.20877 8.75697 0
M  V30 6160 H 846.898 7.11046 7.35349 0
M  V30 6161 H 845.268 6.35815 7.26986 0
M  V30 6162 H 847.907 1.61644 6.13565 0
M  V30 6163 P 849.764 3.65191 7.99657 0
M  V30 6164 O 851.186 3.8425 8.48115 0
M  V30 6165 O 849.404 4.17805 6.64342 0
M  V30 6166 O 849.441 2.07613 7.95143 0
M  V30 6167 C 849.281 1.44328 9.27336 0
M  V30 6168 C 849.821 0.0220036 9.17197 0
M  V30 6169 O 848.765 -0.626867 8.61923 0
M  V30 6170 C 851.039 -0.24586 8.30336 0
M  V30 6171 O 851.777 -1.39011 8.63583 0
M  V30 6172 C 850.37 -0.273849 6.91158 0
M  V30 6173 O 851.169 -1.06348 6.02892 0
M  V30 6174 C 849.033 -0.897649 7.22545 0
M  V30 6175 H 849.065 -1.9841 7.04286 0
M  V30 6176 H 850.248 0.739928 6.497 0
M  V30 6177 H 851.732 0.60668 8.36503 0
M  V30 6178 H 850.038 -0.352479 10.1829 0
M  V30 6179 H 849.848 2.00611 10.0304 0
M  V30 6180 H 848.218 1.41843 9.55327 0
M  V30 6181 H 850.857 -1.95734 6.03555 0
M  V30 6182 P 852.715 -1.25109 8.70152 0
M  V30 6183 O 854.137 -1.35303 9.21419 0
M  V30 6184 O 852.355 -0.0769065 7.84762 0
M  V30 6185 O 852.392 -2.55232 7.81161 0
M  V30 6186 C 852.232 -3.79939 8.58154 0
M  V30 6187 C 852.772 -4.93969 7.72701 0
M  V30 6188 O 851.717 -5.18726 6.91205 0
M  V30 6189 C 853.99 -4.69597 6.85231 0
M  V30 6190 O 854.728 -5.83832 6.51337 0
M  V30 6191 C 853.322 -3.96706 5.66633 0
M  V30 6192 O 854.12 -4.15346 4.49615 0
M  V30 6193 C 851.984 -4.66153 5.59313 0
M  V30 6194 N 850.941 -3.71582 5.24027 0
M  V30 6195 C 851.003 -2.46018 5.67902 0
M  V30 6196 N 849.958 -1.74868 5.24518 0
M  V30 6197 C 849.224 -2.61333 4.54528 0
M  V30 6198 C 847.918 -2.46162 3.95441 0
M  V30 6199 O 847.185 -1.46013 3.94122 0
M  V30 6200 N 847.488 -3.59334 3.34752 0
M  V30 6201 C 848.237 -4.79605 3.3023 0
M  V30 6202 N 847.64 -5.82109 2.6065 0
M  V30 6203 N 849.39 -4.97402 3.8843 0
M  V30 6204 C 849.847 -3.86258 4.50476 0
M  V30 6205 H 852.016 -5.47679 4.85214 0
M  V30 6206 H 853.199 -2.88964 5.86476 0
M  V30 6207 H 854.684 -4.01947 7.36109 0
M  V30 6208 H 852.989 -5.80182 8.37584 0
M  V30 6209 H 852.799 -3.73517 9.52265 0
M  V30 6210 H 851.168 -3.97163 8.80359 0
M  V30 6211 H 846.592 -3.5825 2.90294 0
M  V30 6212 H 851.799 -2.06161 6.30974 0
M  V30 6213 H 846.729 -5.66979 2.15354 0
M  V30 6214 H 848.105 -6.73686 2.54344 0
M  V30 6215 H 853.809 -4.90891 4.01857 0
M  V30 6216 P 855.665 -5.75688 6.64379 0
M  V30 6217 O 857.087 -6.11849 7.01846 0
M  V30 6218 O 855.305 -4.30744 6.56026 0
M  V30 6219 O 855.342 -6.37042 5.19165 0
M  V30 6220 C 855.182 -7.83578 5.16515 0
M  V30 6221 C 855.722 -8.33398 3.83019 0
M  V30 6222 O 854.666 -8.10074 3.01034 0
M  V30 6223 C 856.94 -7.65514 3.2257 0
M  V30 6224 O 857.678 -8.4329 2.32297 0
M  V30 6225 C 856.271 -6.40075 2.62207 0
M  V30 6226 O 857.07 -5.92589 1.53712 0
M  V30 6227 C 854.934 -6.9454 2.18503 0
M  V30 6228 H 854.966 -7.23063 1.12091 0
M  V30 6229 H 856.149 -5.6025 3.37201 0
M  V30 6230 H 857.633 -7.35707 4.02681 0
M  V30 6231 H 855.939 -9.40912 3.9095 0
M  V30 6232 H 855.749 -8.29056 5.99158 0
M  V30 6233 H 854.119 -8.10073 5.25882 0
M  V30 6234 H 856.758 -6.30324 0.726794 0
M  V30 6235 P 858.616 -8.4349 2.47671 0
M  V30 6236 O 860.038 -8.94167 2.5964 0
M  V30 6237 O 858.256 -7.1704 3.19006 0
M  V30 6238 O 858.293 -8.16596 0.923387 0
M  V30 6239 C 858.133 -9.38437 0.108857 0
M  V30 6240 C 858.673 -9.08175 -1.28353 0
M  V30 6241 O 857.617 -8.44229 -1.84713 0
M  V30 6242 C 859.891 -8.18386 -1.42505 0
M  V30 6243 O 860.629 -8.3501 -2.60497 0
M  V30 6244 C 859.222 -6.80225 -1.25468 0
M  V30 6245 O 860.021 -5.81621 -1.91066 0
M  V30 6246 C 857.885 -7.02416 -1.9168 0
M  V30 6247 H 857.917 -6.6888 -2.96621 0
M  V30 6248 H 859.1 -6.53617 -0.192223 0
M  V30 6249 H 860.584 -8.36622 -0.589963 0
M  V30 6250 H 858.89 -10.0291 -1.79807 0
M  V30 6251 H 858.7 -10.2138 0.558219 0
M  V30 6252 H 857.07 -9.6579 0.0444202 0
M  V30 6253 H 859.709 -5.69556 -2.79637 0
M  V30 6254 P 861.566 -8.4349 -2.47671 0
M  V30 6255 O 862.988 -8.92593 -2.65 0
M  V30 6256 O 861.206 -7.7568 -1.19296 0
M  V30 6257 O 861.243 -7.36886 -3.63805 0
M  V30 6258 C 861.083 -7.95349 -4.982 0
M  V30 6259 C 861.623 -6.94612 -5.98974 0
M  V30 6260 O 860.567 -6.10347 -6.11815 0
M  V30 6261 C 862.841 -6.11426 -5.62335 0
M  V30 6262 O 863.579 -5.6162 -6.70584 0
M  V30 6263 C 862.172 -5.04409 -4.73308 0
M  V30 6264 O 862.971 -3.85992 -4.75183 0
M  V30 6265 C 860.835 -4.8728 -5.41006 0
M  V30 6266 H 860.867 -4.02333 -6.11157 0
M  V30 6267 H 862.05 -5.39466 -3.69543 0
M  V30 6268 H 863.534 -6.71916 -5.01943 0
M  V30 6269 H 861.84 -7.4649 -6.93477 0
M  V30 6270 H 861.65 -8.89416 -5.05237 0
M  V30 6271 H 860.02 -8.14876 -5.18409 0
M  V30 6272 H 862.659 -3.27957 -5.4317 0
M  V30 6273 P 864.517 -5.75688 -6.64379 0
M  V30 6274 O 865.939 -6.07627 -7.05504 0
M  V30 6275 O 864.157 -5.88047 -5.19722 0
M  V30 6276 O 864.194 -4.2322 -7.04443 0
M  V30 6277 C 864.034 -3.99743 -8.4911 0
M  V30 6278 C 864.574 -2.60516 -8.79425 0
M  V30 6279 O 863.518 -1.82684 -8.4467 0
M  V30 6280 C 865.792 -2.10343 -8.03628 0
M  V30 6281 O 866.53 -1.09919 -8.67766 0
M  V30 6282 C 865.123 -1.68446 -6.70876 0
M  V30 6283 O 865.922 -0.678137 -6.08433 0
M  V30 6284 C 863.786 -1.17436 -7.18567 0
M  V30 6285 H 863.818 -0.0804732 -7.31656 0
M  V30 6286 H 865.001 -2.54037 -6.02537 0
M  V30 6287 H 866.485 -2.93881 -7.85526 0
M  V30 6288 H 864.791 -2.53065 -9.86973 0
M  V30 6289 H 864.601 -4.75072 -9.05887 0
M  V30 6290 H 862.971 -4.05244 -8.76668 0
M  V30 6291 H 865.61 0.177647 -6.34251 0
M  V30 6292 P 867.468 -1.25109 -8.70152 0
M  V30 6293 O 868.89 -1.29744 -9.22016 0
M  V30 6294 O 867.108 -2.13714 -7.55141 0
M  V30 6295 O 867.145 0.248149 -8.21425 0
M  V30 6296 C 866.985 1.22779 -9.30434 0
M  V30 6297 C 867.525 2.56293 -8.80664 0
M  V30 6298 O 866.469 3.02979 -8.09349 0
M  V30 6299 C 868.743 2.57523 -7.89775 0
M  V30 6300 O 869.481 3.7668 -7.89438 0
M  V30 6301 C 868.074 2.20997 -6.55446 0
M  V30 6302 O 868.873 2.71895 -5.48509 0
M  V30 6303 C 866.737 2.89693 -6.67988 0
M  V30 6304 H 866.769 3.88793 -6.19859 0
M  V30 6305 H 867.952 1.12046 -6.44229 0
M  V30 6306 H 869.436 1.7746 -8.19711 0
M  V30 6307 H 867.742 3.20706 -9.67112 0
M  V30 6308 H 867.552 0.901032 -10.1892 0
M  V30 6309 H 865.922 1.33049 -9.56592 0
M  V30 6310 H 868.561 3.57847 -5.23962 0
M  V30 6311 P 870.418 3.65191 -7.99657 0
M  V30 6312 O 871.84 3.89332 -8.45794 0
M  V30 6313 O 870.058 2.28472 -7.50807 0
M  V30 6314 O 870.095 4.64972 -6.77611 0
M  V30 6315 C 869.935 6.06319 -7.16352 0
M  V30 6316 C 870.475 6.91731 -6.02299 0
M  V30 6317 O 869.419 6.92449 -5.17064 0
M  V30 6318 C 871.693 6.43627 -5.25174 0
M  V30 6319 O 872.431 7.43686 -4.60469 0
M  V30 6320 C 871.024 5.40275 -4.31916 0
M  V30 6321 O 871.823 5.25279 -3.14438 0
M  V30 6322 C 869.687 6.04847 -4.05327 0
M  V30 6323 H 869.719 6.62195 -3.11261 0
M  V30 6324 H 870.902 4.42556 -4.81383 0
M  V30 6325 H 872.386 5.92458 -5.93643 0
M  V30 6326 H 870.692 7.92655 -6.402 0
M  V30 6327 H 870.502 6.26671 -8.0846 0
M  V30 6328 H 868.872 6.29101 -7.32804 0
M  V30 6329 H 871.511 5.84315 -2.47318 0
M  V30 6330 P 873.369 7.39546 -4.75277 0
M  V30 6331 O 874.791 7.84798 -5.01039 0
M  V30 6332 O 873.009 5.9812 -5.08098 0
M  V30 6333 O 873.046 7.57503 -3.1866 0
M  V30 6334 C 872.886 8.97357 -2.74833 0
M  V30 6335 C 873.426 9.07548 -1.32709 0
M  V30 6336 O 872.37 8.62072 -0.606159 0
M  V30 6337 C 874.644 8.25383 -0.938334 0
M  V30 6338 O 875.382 8.74577 0.146954 0
M  V30 6339 C 873.975 6.8802 -0.712559 0
M  V30 6340 O 874.774 6.1189 0.194655 0
M  V30 6341 C 872.638 7.27966 -0.139777 0
M  V30 6342 H 872.67 7.25354 0.961601 0
M  V30 6343 H 873.853 6.32557 -1.65702 0
M  V30 6344 H 875.337 8.19355 -1.79097 0
M  V30 6345 H 873.643 10.1294 -1.10029 0
M  V30 6346 H 873.453 9.64276 -3.41316 0
M  V30 6347 H 871.823 9.25417 -2.76357 0
M  V30 6348 H 874.462 6.25267 1.07847 0
M  V30 6349 P 876.319 8.791 6.62549e-12 0
M  V30 6350 O 877.741 9.31296 0.027939 0
M  V30 6351 O 875.959 7.77869 -1.04071 0
M  V30 6352 O 875.996 8.09533 1.41463 0
M  V30 6353 C 875.836 9.0349 2.53943 0
M  V30 6354 C 876.376 8.35135 3.78975 0
M  V30 6355 O 875.321 7.57992 4.15078 0
M  V30 6356 C 877.594 7.45087 3.67298 0
M  V30 6357 O 878.332 7.27796 4.85194 0
M  V30 6358 C 876.926 6.17323 3.12027 0
M  V30 6359 O 877.724 5.04149 3.47132 0
M  V30 6360 C 875.588 6.19961 3.81809 0
M  V30 6361 N 874.545 5.71575 2.93223 0
M  V30 6362 C 874.607 5.97133 1.62693 0
M  V30 6363 N 873.562 5.44066 0.984414 0
M  V30 6364 C 872.828 4.87093 1.93987 0
M  V30 6365 C 871.522 4.26449 1.8738 0
M  V30 6366 O 870.789 4.1089 0.884377 0
M  V30 6367 N 871.092 3.82483 3.08036 0
M  V30 6368 C 871.841 3.95124 4.27727 0
M  V30 6369 N 871.244 3.4084 5.39089 0
M  V30 6370 N 872.994 4.55264 4.3706 0
M  V30 6371 C 873.451 5.00861 3.18217 0
M  V30 6372 H 875.62 5.58218 4.73051 0
M  V30 6373 H 876.803 6.21631 2.02558 0
M  V30 6374 H 878.288 7.85819 2.93096 0
M  V30 6375 H 876.593 9.11627 4.55076 0
M  V30 6376 H 876.403 9.9573 2.34194 0
M  V30 6377 H 874.772 9.2792 2.67832 0
M  V30 6378 H 870.196 3.38323 3.1329 0
M  V30 6379 H 875.403 6.53891 1.14265 0
M  V30 6380 H 870.333 2.93852 5.30559 0
M  V30 6381 H 871.709 3.47631 6.30632 0
M  V30 6382 H 877.413 4.67628 4.28704 0
M  V30 6383 P 879.27 7.39546 4.75277 0
M  V30 6384 O 880.692 7.81777 5.05738 0
M  V30 6385 O 878.91 7.1065 3.32998 0
M  V30 6386 O 878.947 6.04542 5.56673 0
M  V30 6387 C 878.787 6.22772 7.02095 0
M  V30 6388 C 879.327 4.97725 7.70406 0
M  V30 6389 O 878.271 4.13256 7.58987 0
M  V30 6390 C 880.545 4.28231 7.11815 0
M  V30 6391 O 881.283 3.49945 8.01648 0
M  V30 6392 C 879.876 3.5063 5.96244 0
M  V30 6393 O 880.675 2.36482 5.64681 0
M  V30 6394 C 878.539 3.15122 6.56374 0
M  V30 6395 H 878.571 2.13853 6.99751 0
M  V30 6396 H 879.754 4.13501 5.06559 0
M  V30 6397 H 881.238 5.03285 6.70911 0
M  V30 6398 H 879.544 5.20877 8.75697 0
M  V30 6399 H 879.354 7.11046 7.35349 0
M  V30 6400 H 877.724 6.35815 7.26986 0
M  V30 6401 H 880.363 1.61644 6.13565 0
M  V30 6402 P 882.22 3.65191 7.99657 0
M  V30 6403 O 883.642 3.8425 8.48115 0
M  V30 6404 O 881.86 4.17805 6.64342 0
M  V30 6405 O 881.897 2.07613 7.95143 0
M  V30 6406 C 881.737 1.44328 9.27336 0
M  V30 6407 C 882.277 0.0220036 9.17197 0
M  V30 6408 O 881.221 -0.626867 8.61923 0
M  V30 6409 C 883.495 -0.24586 8.30336 0
M  V30 6410 O 884.233 -1.39011 8.63583 0
M  V30 6411 C 882.826 -0.273849 6.91158 0
M  V30 6412 O 883.625 -1.06348 6.02892 0
M  V30 6413 C 881.489 -0.897649 7.22545 0
M  V30 6414 H 881.521 -1.9841 7.04286 0
M  V30 6415 H 882.704 0.739928 6.497 0
M  V30 6416 H 884.188 0.60668 8.36503 0
M  V30 6417 H 882.494 -0.352479 10.1829 0
M  V30 6418 H 882.304 2.00611 10.0304 0
M  V30 6419 H 880.674 1.41843 9.55327 0
M  V30 6420 H 883.313 -1.95734 6.03555 0
M  V30 6421 P 885.171 -1.25109 8.70152 0
M  V30 6422 O 886.593 -1.35274 9.21221 0
M  V30 6423 O 884.811 -0.0769065 7.84762 0
M  V30 6424 O 884.848 -2.55232 7.81161 0
M  V30 6425 C 884.688 -3.79939 8.58154 0
M  V30 6426 C 885.228 -4.94023 7.72785 0
M  V30 6427 O 884.172 -5.18726 6.91205 0
M  V30 6428 C 886.446 -4.69597 6.85231 0
M  V30 6429 O 887.184 -5.83832 6.51337 0
M  V30 6430 C 885.777 -3.96706 5.66633 0
M  V30 6431 O 886.576 -4.15414 4.49689 0
M  V30 6432 C 884.44 -4.66153 5.59313 0
M  V30 6433 H 884.472 -5.47679 4.85214 0
M  V30 6434 H 885.655 -2.89008 5.86566 0
M  V30 6435 H 887.139 -4.0121 7.36511 0
M  V30 6436 H 885.445 -5.80182 8.37584 0
M  V30 6437 H 885.255 -3.73517 9.52265 0
M  V30 6438 H 883.625 -3.97163 8.80359 0
M  V30 6439 H 886.264 -4.90969 4.01921 0
M  V30 6440 P 888.122 -5.75688 6.64379 0
M  V30 6441 O 889.544 -6.11849 7.01846 0
M  V30 6442 O 887.762 -4.30744 6.56026 0
M  V30 6443 O 887.799 -6.37042 5.19165 0
M  V30 6444 C 887.639 -7.83578 5.16515 0
M  V30 6445 C 888.179 -8.33398 3.83019 0
M  V30 6446 O 887.123 -8.10074 3.01034 0
M  V30 6447 C 889.397 -7.65514 3.2257 0
M  V30 6448 O 890.135 -8.4329 2.32297 0
M  V30 6449 C 888.728 -6.40075 2.62207 0
M  V30 6450 O 889.527 -5.92589 1.53712 0
M  V30 6451 C 887.391 -6.9454 2.18503 0
M  V30 6452 H 887.423 -7.23063 1.12091 0
M  V30 6453 H 888.606 -5.6025 3.37201 0
M  V30 6454 H 890.09 -7.35707 4.02681 0
M  V30 6455 H 888.396 -9.40912 3.9095 0
M  V30 6456 H 888.206 -8.29056 5.99158 0
M  V30 6457 H 886.576 -8.10073 5.25882 0
M  V30 6458 H 889.215 -6.30324 0.726794 0
M  V30 6459 P 891.072 -8.4349 2.47671 0
M  V30 6460 O 892.494 -8.94167 2.5964 0
M  V30 6461 O 890.712 -7.1704 3.19006 0
M  V30 6462 O 890.749 -8.16596 0.923387 0
M  V30 6463 C 890.589 -9.38437 0.108857 0
M  V30 6464 C 891.129 -9.08175 -1.28353 0
M  V30 6465 O 890.073 -8.44229 -1.84713 0
M  V30 6466 C 892.347 -8.18386 -1.42505 0
M  V30 6467 O 893.085 -8.3501 -2.60497 0
M  V30 6468 C 891.678 -6.80225 -1.25468 0
M  V30 6469 O 892.477 -5.81621 -1.91066 0
M  V30 6470 C 890.341 -7.02416 -1.9168 0
M  V30 6471 H 890.373 -6.6888 -2.96621 0
M  V30 6472 H 891.556 -6.53617 -0.192223 0
M  V30 6473 H 893.04 -8.36622 -0.589963 0
M  V30 6474 H 891.346 -10.0291 -1.79807 0
M  V30 6475 H 891.156 -10.2138 0.558219 0
M  V30 6476 H 889.526 -9.6579 0.0444202 0
M  V30 6477 H 892.165 -5.69556 -2.79637 0
M  V30 6478 P 894.023 -8.4349 -2.47671 0
M  V30 6479 O 895.445 -8.92593 -2.65 0
M  V30 6480 O 893.663 -7.7568 -1.19296 0
M  V30 6481 O 893.7 -7.36886 -3.63805 0
M  V30 6482 C 893.54 -7.95349 -4.982 0
M  V30 6483 C 894.08 -6.94612 -5.98974 0
M  V30 6484 O 893.024 -6.10347 -6.11815 0
M  V30 6485 C 895.298 -6.11426 -5.62335 0
M  V30 6486 O 896.036 -5.6162 -6.70584 0
M  V30 6487 C 894.629 -5.04409 -4.73308 0
M  V30 6488 O 895.428 -3.85992 -4.75183 0
M  V30 6489 C 893.292 -4.8728 -5.41006 0
M  V30 6490 H 893.324 -4.02333 -6.11157 0
M  V30 6491 H 894.507 -5.39466 -3.69543 0
M  V30 6492 H 895.991 -6.71916 -5.01943 0
M  V30 6493 H 894.297 -7.4649 -6.93477 0
M  V30 6494 H 894.107 -8.89416 -5.05237 0
M  V30 6495 H 892.477 -8.14876 -5.18409 0
M  V30 6496 H 895.116 -3.27957 -5.4317 0
M  V30 6497 P 896.973 -5.75688 -6.64379 0
M  V30 6498 O 898.395 -6.07627 -7.05504 0
M  V30 6499 O 896.613 -5.88047 -5.19722 0
M  V30 6500 O 896.65 -4.2322 -7.04443 0
M  V30 6501 C 896.49 -3.99743 -8.4911 0
M  V30 6502 C 897.03 -2.60516 -8.79425 0
M  V30 6503 O 895.974 -1.82684 -8.4467 0
M  V30 6504 C 898.248 -2.10343 -8.03628 0
M  V30 6505 O 898.986 -1.09919 -8.67766 0
M  V30 6506 C 897.579 -1.68446 -6.70876 0
M  V30 6507 O 898.378 -0.678137 -6.08433 0
M  V30 6508 C 896.242 -1.17436 -7.18567 0
M  V30 6509 H 896.274 -0.0804732 -7.31656 0
M  V30 6510 H 897.457 -2.54037 -6.02537 0
M  V30 6511 H 898.941 -2.93881 -7.85526 0
M  V30 6512 H 897.247 -2.53065 -9.86973 0
M  V30 6513 H 897.057 -4.75072 -9.05887 0
M  V30 6514 H 895.427 -4.05244 -8.76668 0
M  V30 6515 H 898.066 0.177647 -6.34251 0
M  V30 6516 P 899.924 -1.25109 -8.70152 0
M  V30 6517 O 901.345 -1.29758 -9.22115 0
M  V30 6518 O 899.564 -2.13714 -7.55141 0
M  V30 6519 O 899.601 0.248149 -8.21425 0
M  V30 6520 C 899.44 1.22792 -9.30533 0
M  V30 6521 C 899.981 2.56293 -8.80664 0
M  V30 6522 O 898.926 3.02944 -8.09255 0
M  V30 6523 C 901.199 2.57523 -7.89775 0
M  V30 6524 O 901.937 3.7668 -7.89438 0
M  V30 6525 C 900.531 2.20997 -6.55446 0
M  V30 6526 O 901.329 2.71302 -5.48691 0
M  V30 6527 C 899.193 2.89693 -6.67988 0
M  V30 6528 N 898.15 2.08895 -6.07487 0
M  V30 6529 C 898.319 0.753809 -5.94137 0
M  V30 6530 N 897.292 0.146592 -5.38801 0
M  V30 6531 C 896.407 1.1768 -5.13693 0
M  V30 6532 C 895.14 1.17563 -4.52477 0
M  V30 6533 N 894.541 0.057481 -4.04759 0
M  V30 6534 N 894.575 2.41918 -4.45789 0
M  V30 6535 C 895.177 3.56493 -4.90792 0
M  V30 6536 N 896.354 3.61423 -5.47817 0
M  V30 6537 C 896.929 2.37779 -5.5588 0
M  V30 6538 H 899.225 3.8874 -6.19774 0
M  V30 6539 H 900.408 1.12673 -6.44018 0
M  V30 6540 H 901.891 1.7746 -8.19711 0
M  V30 6541 H 900.197 3.21673 -9.66791 0
M  V30 6542 H 900.007 0.901032 -10.1892 0
M  V30 6543 H 898.377 1.33049 -9.56592 0
M  V30 6544 H 894.641 4.49919 -4.77947 0
M  V30 6545 H 899.219 0.233081 -6.26266 0
M  V30 6546 H 893.611 0.119831 -3.60801 0
M  V30 6547 H 895.015 -0.852272 -4.12385 0
M  V30 6548 H 901.017 3.5779 -5.23879 0
M  V30 6549 P 902.874 3.65191 -7.99657 0
M  V30 6550 O 904.296 3.89332 -8.45794 0
M  V30 6551 O 902.514 2.28472 -7.50807 0
M  V30 6552 O 902.551 4.64972 -6.77611 0
M  V30 6553 C 902.391 6.06319 -7.16352 0
M  V30 6554 C 902.931 6.91731 -6.02299 0
M  V30 6555 O 901.875 6.92449 -5.17064 0
M  V30 6556 C 904.149 6.43627 -5.25174 0
M  V30 6557 O 904.887 7.43686 -4.60469 0
M  V30 6558 C 903.48 5.40275 -4.31916 0
M  V30 6559 O 904.279 5.25279 -3.14438 0
M  V30 6560 C 902.143 6.04847 -4.05327 0
M  V30 6561 H 902.175 6.62195 -3.11261 0
M  V30 6562 H 903.358 4.42556 -4.81383 0
M  V30 6563 H 904.842 5.92458 -5.93643 0
M  V30 6564 H 903.148 7.92655 -6.402 0
M  V30 6565 H 902.958 6.26671 -8.0846 0
M  V30 6566 H 901.328 6.29101 -7.32804 0
M  V30 6567 H 903.967 5.84315 -2.47318 0
M  V30 6568 P 905.825 7.39546 -4.75277 0
M  V30 6569 O 907.246 7.84882 -5.01092 0
M  V30 6570 O 905.465 5.9812 -5.08098 0
M  V30 6571 O 905.502 7.57503 -3.1866 0
M  V30 6572 C 905.341 8.97452 -2.74862 0
M  V30 6573 C 905.882 9.07548 -1.32709 0
M  V30 6574 O 904.827 8.61972 -0.606089 0
M  V30 6575 C 907.1 8.25383 -0.938334 0
M  V30 6576 O 907.838 8.74577 0.146954 0
M  V30 6577 C 906.432 6.8802 -0.712559 0
M  V30 6578 O 907.23 6.1181 0.188505 0
M  V30 6579 C 905.094 7.27966 -0.139777 0
M  V30 6580 N 904.051 6.39368 -0.623421 0
M  V30 6581 C 904.22 5.71761 -1.78245 0
M  V30 6582 N 903.193 4.962 -2.10491 0
M  V30 6583 C 902.308 5.16158 -1.0635 0
M  V30 6584 C 901.041 4.60425 -0.810266 0
M  V30 6585 N 900.442 3.7057 -1.62914 0
M  V30 6586 N 900.476 5.06 0.348685 0
M  V30 6587 C 901.078 5.94532 1.20395 0
M  V30 6588 N 902.255 6.48452 1.01191 0
M  V30 6589 C 902.83 6.04423 -0.146291 0
M  V30 6590 H 905.126 7.25255 0.961469 0
M  V30 6591 H 906.309 6.32625 -1.65044 0
M  V30 6592 H 907.792 8.19355 -1.79097 0
M  V30 6593 H 906.098 10.1305 -1.09016 0
M  V30 6594 H 905.908 9.64276 -3.41316 0
M  V30 6595 H 904.278 9.25417 -2.76357 0
M  V30 6596 H 900.542 6.21659 2.10714 0
M  V30 6597 H 905.12 5.79354 -2.38959 0
M  V30 6598 H 899.512 3.33174 -1.38982 0
M  V30 6599 H 900.916 3.39714 -2.48836 0
M  V30 6600 H 906.918 6.25169 1.0783 0
M  V30 6601 P 908.776 8.791 6.93566e-12 0
M  V30 6602 O 910.198 9.31096 0.027933 0
M  V30 6603 O 908.416 7.77869 -1.04071 0
M  V30 6604 O 908.453 8.09533 1.41463 0
M  V30 6605 C 908.293 9.0349 2.53943 0
M  V30 6606 C 908.833 8.35226 3.79016 0
M  V30 6607 O 907.777 7.57992 4.15078 0
M  V30 6608 C 910.051 7.45087 3.67298 0
M  V30 6609 O 910.789 7.27796 4.85194 0
M  V30 6610 C 909.382 6.17323 3.12027 0
M  V30 6611 O 910.181 5.04231 3.47188 0
M  V30 6612 C 908.045 6.19961 3.81809 0
M  V30 6613 H 908.077 5.58218 4.73051 0
M  V30 6614 H 909.26 6.21726 2.02589 0
M  V30 6615 H 910.744 7.86112 2.9231 0
M  V30 6616 H 909.05 9.11627 4.55076 0
M  V30 6617 H 908.86 9.9573 2.34194 0
M  V30 6618 H 907.23 9.2792 2.67832 0
M  V30 6619 H 909.869 4.67702 4.28772 0
M  V30 6620 P 911.726 7.39546 4.75277 0
M  V30 6621 O 913.147 7.81861 5.05793 0
M  V30 6622 O 911.366 7.1065 3.32998 0
M  V30 6623 O 911.403 6.04542 5.56673 0
M  V30 6624 C 911.242 6.22839 7.02169 0
M  V30 6625 C 911.783 4.97725 7.70406 0
M  V30 6626 O 910.728 4.13208 7.58899 0
M  V30 6627 C 913.001 4.28231 7.11815 0
M  V30 6628 O 913.739 3.49945 8.01648 0
M  V30 6629 C 912.333 3.5063 5.96244 0
M  V30 6630 O 913.131 2.37008 5.64352 0
M  V30 6631 C 910.995 3.15122 6.56374 0
M  V30 6632 N 909.952 3.22311 5.55692 0
M  V30 6633 C 910.121 3.99655 4.46046 0
M  V30 6634 N 909.094 3.97599 3.63918 0
M  V30 6635 C 908.209 3.11159 4.25334 0
M  V30 6636 C 906.942 2.64972 3.85157 0
M  V30 6637 N 906.343 3.02132 2.69405 0
M  V30 6638 N 906.377 1.78482 4.74759 0
M  V30 6639 C 906.979 1.37463 5.90819 0
M  V30 6640 N 908.156 1.7733 6.31889 0
M  V30 6641 C 908.731 2.64393 5.43725 0
M  V30 6642 H 911.027 2.13823 6.99656 0
M  V30 6643 H 912.21 4.12931 5.06895 0
M  V30 6644 H 913.693 5.03285 6.70911 0
M  V30 6645 H 911.999 5.20001 8.76217 0
M  V30 6646 H 911.809 7.11046 7.35349 0
M  V30 6647 H 910.179 6.35815 7.26986 0
M  V30 6648 H 906.443 0.66574 6.53015 0
M  V30 6649 H 911.021 4.58037 4.27732 0
M  V30 6650 H 905.413 2.64828 2.45331 0
M  V30 6651 H 906.817 3.67472 2.05644 0
M  V30 6652 H 912.819 1.61619 6.13468 0
M  V30 6653 P 914.677 3.65191 7.99657 0
M  V30 6654 O 916.099 3.8425 8.48115 0
M  V30 6655 O 914.317 4.17805 6.64342 0
M  V30 6656 O 914.354 2.07613 7.95143 0
M  V30 6657 C 914.194 1.44328 9.27336 0
M  V30 6658 C 914.734 0.0220036 9.17197 0
M  V30 6659 O 913.678 -0.626867 8.61923 0
M  V30 6660 C 915.952 -0.24586 8.30336 0
M  V30 6661 O 916.69 -1.39011 8.63583 0
M  V30 6662 C 915.283 -0.273849 6.91158 0
M  V30 6663 O 916.082 -1.06348 6.02892 0
M  V30 6664 C 913.946 -0.897649 7.22545 0
M  V30 6665 H 913.978 -1.9841 7.04286 0
M  V30 6666 H 915.161 0.739928 6.497 0
M  V30 6667 H 916.645 0.60668 8.36503 0
M  V30 6668 H 914.951 -0.352479 10.1829 0
M  V30 6669 H 914.761 2.00611 10.0304 0
M  V30 6670 H 913.131 1.41843 9.55327 0
M  V30 6671 H 915.77 -1.95734 6.03555 0
M  V30 6672 P 917.627 -1.25109 8.70152 0
M  V30 6673 O 919.048 -1.35288 9.2132 0
M  V30 6674 O 917.267 -0.0769065 7.84762 0
M  V30 6675 O 917.304 -2.55232 7.81161 0
M  V30 6676 C 917.143 -3.79979 8.58246 0
M  V30 6677 C 917.684 -4.94023 7.72785 0
M  V30 6678 O 916.629 -5.18666 6.91125 0
M  V30 6679 C 918.902 -4.69597 6.85231 0
M  V30 6680 O 919.64 -5.83832 6.51337 0
M  V30 6681 C 918.234 -3.96706 5.66633 0
M  V30 6682 O 919.032 -4.14896 4.5003 0
M  V30 6683 C 916.896 -4.66153 5.59313 0
M  V30 6684 N 915.853 -3.71582 5.24027 0
M  V30 6685 C 916.022 -2.39715 5.48833 0
M  V30 6686 N 914.995 -1.65863 5.12845 0
M  V30 6687 C 914.11 -2.57637 4.5973 0
M  V30 6688 C 912.843 -2.40278 4.01027 0
M  V30 6689 N 912.244 -1.19549 3.86744 0
M  V30 6690 N 912.278 -3.57711 3.59575 0
M  V30 6691 C 912.88 -4.80324 3.70476 0
M  V30 6692 N 914.057 -5.01121 4.23801 0
M  V30 6693 C 914.632 -3.84757 4.66372 0
M  V30 6694 H 916.928 -5.47604 4.85148 0
M  V30 6695 H 918.111 -2.8955 5.86187 0
M  V30 6696 H 919.594 -4.0121 7.36511 0
M  V30 6697 H 917.9 -5.81019 8.37003 0
M  V30 6698 H 917.71 -3.73517 9.52265 0
M  V30 6699 H 916.08 -3.97163 8.80359 0
M  V30 6700 H 912.344 -5.66348 3.3183 0
M  V30 6701 H 916.922 -1.98804 5.94332 0
M  V30 6702 H 911.314 -1.13147 3.4281 0
M  V30 6703 H 912.718 -0.344074 4.19692 0
M  V30 6704 H 918.72 -4.90891 4.01857 0
M  V30 6705 P 920.578 -5.75688 6.64379 0
M  V30 6706 O 921.999 -6.11915 7.01921 0
M  V30 6707 O 920.218 -4.30744 6.56026 0
M  V30 6708 O 920.255 -6.37042 5.19165 0
M  V30 6709 C 920.094 -7.83662 5.1657 0
M  V30 6710 C 920.635 -8.33398 3.83019 0
M  V30 6711 O 919.58 -8.0998 3.00999 0
M  V30 6712 C 921.853 -7.65514 3.2257 0
M  V30 6713 O 922.591 -8.4329 2.32297 0
M  V30 6714 C 921.185 -6.40075 2.62207 0
M  V30 6715 O 921.983 -5.92338 1.5428 0
M  V30 6716 C 919.847 -6.9454 2.18503 0
M  V30 6717 N 918.804 -5.95905 2.39948 0
M  V30 6718 C 918.973 -4.98383 3.32108 0
M  V30 6719 N 917.946 -4.16798 3.41761 0
M  V30 6720 C 917.061 -4.65287 2.47461 0
M  V30 6721 C 915.794 -4.18946 2.07461 0
M  V30 6722 N 915.195 -3.09661 2.60717 0
M  V30 6723 N 915.229 -4.95327 1.09101 0
M  V30 6724 C 915.831 -6.04369 0.519812 0
M  V30 6725 N 917.008 -6.50694 0.855982 0
M  V30 6726 C 917.583 -5.75818 1.84322 0
M  V30 6727 H 919.879 -7.22964 1.12076 0
M  V30 6728 H 921.062 -5.60502 3.36589 0
M  V30 6729 H 922.545 -7.35707 4.02681 0
M  V30 6730 H 920.851 -9.41302 3.90009 0
M  V30 6731 H 920.661 -8.29056 5.99158 0
M  V30 6732 H 919.031 -8.10073 5.25882 0
M  V30 6733 H 915.295 -6.55843 -0.270373 0
M  V30 6734 H 919.873 -4.88564 3.92502 0
M  V30 6735 H 914.265 -2.80523 2.27218 0
M  V30 6736 H 915.669 -2.55848 3.34465 0
M  V30 6737 H 921.671 -6.30224 0.72668 0
M  V30 6738 P 923.528 -8.4349 2.47671 0
M  V30 6739 O 924.949 -8.94263 2.59668 0
M  V30 6740 O 923.168 -7.1704 3.19006 0
M  V30 6741 O 923.205 -8.16596 0.923387 0
M  V30 6742 C 923.044 -9.38537 0.108869 0
M  V30 6743 C 923.585 -9.08175 -1.28353 0
M  V30 6744 O 922.53 -8.44131 -1.84692 0
M  V30 6745 C 924.803 -8.18386 -1.42505 0
M  V30 6746 O 925.541 -8.3501 -2.60497 0
M  V30 6747 C 924.135 -6.80225 -1.25468 0
M  V30 6748 O 924.933 -5.81716 -1.90454 0
M  V30 6749 C 922.797 -7.02416 -1.9168 0
M  V30 6750 N 921.754 -6.31033 -1.20314 0
M  V30 6751 C 921.923 -5.98817 0.0994088 0
M  V30 6752 N 920.896 -5.35403 0.621694 0
M  V30 6753 C 920.011 -5.25212 -0.43376 0
M  V30 6754 C 918.744 -4.64602 -0.519722 0
M  V30 6755 N 918.145 -4.01457 0.519136 0
M  V30 6756 N 918.179 -4.7568 -1.76013 0
M  V30 6757 C 918.781 -5.3653 -2.83017 0
M  V30 6758 N 919.958 -5.93676 -2.79782 0
M  V30 6759 C 920.533 -5.84061 -1.56249 0
M  V30 6760 H 922.829 -6.68789 -2.9658 0
M  V30 6761 H 924.012 -6.53498 -0.198729 0
M  V30 6762 H 925.495 -8.36622 -0.589963 0
M  V30 6763 H 923.801 -10.0273 -1.8081 0
M  V30 6764 H 923.611 -10.2138 0.558219 0
M  V30 6765 H 921.981 -9.6579 0.0444202 0
M  V30 6766 H 918.245 -5.37113 -3.77321 0
M  V30 6767 H 922.823 -6.23209 0.660562 0
M  V30 6768 H 917.215 -3.58834 0.394862 0
M  V30 6769 H 918.619 -3.96059 1.43048 0
M  V30 6770 H 924.621 -5.69466 -2.79593 0
M  V30 6771 P 926.479 -8.4349 -2.47671 0
M  V30 6772 O 927.88 -8.99283 -2.62101 0
M  V30 6773 O 926.101 -7.81195 -1.16947 0
M  V30 6774 O 926.156 -7.36797 -3.63761 0
M  V30 6775 C 925.996 -7.95349 -4.982 0
M  V30 6776 C 926.536 -6.94537 -5.98908 0
M  V30 6777 O 925.48 -6.10277 -6.11744 0
M  V30 6778 C 927.753 -6.11426 -5.62335 0
M  V30 6779 O 928.492 -5.6162 -6.70584 0
M  V30 6780 C 927.086 -5.04409 -4.73308 0
M  V30 6781 O 927.884 -3.85929 -4.75106 0
M  V30 6782 C 925.748 -4.8728 -5.41006 0
M  V30 6783 N 924.705 -4.65812 -4.42377 0
M  V30 6784 C 923.67 -3.81293 -4.74224 0
M  V30 6785 O 923.709 -3.20533 -5.83679 0
M  V30 6786 N 922.658 -3.6442 -3.86349 0
M  V30 6787 C 922.706 -4.2728 -2.6824 0
M  V30 6788 C 923.802 -5.10813 -2.3217 0
M  V30 6789 C 924.768 -5.27909 -3.22647 0
M  V30 6790 H 925.78 -4.02278 -6.11074 0
M  V30 6791 H 926.963 -5.39013 -3.70026 0
M  V30 6792 H 928.447 -6.71494 -5.02675 0
M  V30 6793 H 926.753 -7.45796 -6.94223 0
M  V30 6794 H 926.562 -8.89416 -5.05237 0
M  V30 6795 H 924.932 -8.14791 -5.18355 0
M  V30 6796 H 923.85 -5.58884 -1.34755 0
M  V30 6797 H 925.614 -5.92811 -2.9934 0
M  V30 6798 H 927.668 -3.3454 -5.51577 0
M  V30 6799 P 929.43 -5.75688 -6.64379 0
M  V30 6800 O 930.852 -6.07627 -7.05504 0
M  V30 6801 O 929.07 -5.88047 -5.19722 0
M  V30 6802 O 929.107 -4.2322 -7.04443 0
M  V30 6803 C 928.947 -3.99743 -8.4911 0
M  V30 6804 C 929.487 -2.60516 -8.79425 0
M  V30 6805 O 928.431 -1.82684 -8.4467 0
M  V30 6806 C 930.705 -2.10343 -8.03628 0
M  V30 6807 O 931.443 -1.09919 -8.67766 0
M  V30 6808 C 930.036 -1.68446 -6.70876 0
M  V30 6809 O 930.835 -0.678137 -6.08433 0
M  V30 6810 C 928.699 -1.17436 -7.18567 0
M  V30 6811 H 928.731 -0.0804732 -7.31656 0
M  V30 6812 H 929.914 -2.54037 -6.02537 0
M  V30 6813 H 931.398 -2.93881 -7.85526 0
M  V30 6814 H 929.704 -2.53065 -9.86973 0
M  V30 6815 H 929.514 -4.75072 -9.05887 0
M  V30 6816 H 927.884 -4.05244 -8.76668 0
M  V30 6817 H 930.523 0.177647 -6.34251 0
M  V30 6818 P 932.38 -1.25109 -8.70152 0
M  V30 6819 O 933.802 -1.29744 -9.22016 0
M  V30 6820 O 932.02 -2.13714 -7.55141 0
M  V30 6821 O 932.057 0.248149 -8.21425 0
M  V30 6822 C 931.897 1.22779 -9.30434 0
M  V30 6823 C 932.437 2.56293 -8.80664 0
M  V30 6824 O 931.381 3.02979 -8.09349 0
M  V30 6825 C 933.655 2.57523 -7.89775 0
M  V30 6826 O 934.393 3.7668 -7.89438 0
M  V30 6827 C 932.986 2.20997 -6.55446 0
M  V30 6828 O 933.785 2.71895 -5.48509 0
M  V30 6829 C 931.649 2.89693 -6.67988 0
M  V30 6830 H 931.681 3.88793 -6.19859 0
M  V30 6831 H 932.864 1.12046 -6.44229 0
M  V30 6832 H 934.348 1.7746 -8.19711 0
M  V30 6833 H 932.654 3.20706 -9.67112 0
M  V30 6834 H 932.464 0.901032 -10.1892 0
M  V30 6835 H 930.834 1.33049 -9.56592 0
M  V30 6836 H 933.473 3.57847 -5.23962 0
M  V30 6837 P 935.331 3.65191 -7.99657 0
M  V30 6838 O 936.753 3.89332 -8.45794 0
M  V30 6839 O 934.971 2.28472 -7.50807 0
M  V30 6840 O 935.008 4.64972 -6.77611 0
M  V30 6841 C 934.848 6.06319 -7.16352 0
M  V30 6842 C 935.388 6.91731 -6.02299 0
M  V30 6843 O 934.332 6.92449 -5.17064 0
M  V30 6844 C 936.606 6.43627 -5.25174 0
M  V30 6845 O 937.344 7.43686 -4.60469 0
M  V30 6846 C 935.937 5.40275 -4.31916 0
M  V30 6847 O 936.736 5.25279 -3.14438 0
M  V30 6848 C 934.6 6.04847 -4.05327 0
M  V30 6849 H 934.632 6.62195 -3.11261 0
M  V30 6850 H 935.815 4.42556 -4.81383 0
M  V30 6851 H 937.299 5.92458 -5.93643 0
M  V30 6852 H 935.605 7.92655 -6.402 0
M  V30 6853 H 935.415 6.26671 -8.0846 0
M  V30 6854 H 933.785 6.29101 -7.32804 0
M  V30 6855 H 936.424 5.84315 -2.47318 0
M  V30 6856 P 938.281 7.39546 -4.75277 0
M  V30 6857 O 939.703 7.84798 -5.01039 0
M  V30 6858 O 937.921 5.9812 -5.08098 0
M  V30 6859 O 937.958 7.57503 -3.1866 0
M  V30 6860 C 937.798 8.97357 -2.74833 0
M  V30 6861 C 938.338 9.07548 -1.32709 0
M  V30 6862 O 937.282 8.62072 -0.606159 0
M  V30 6863 C 939.556 8.25383 -0.938334 0
M  V30 6864 O 940.294 8.74577 0.146954 0
M  V30 6865 C 938.887 6.8802 -0.712559 0
M  V30 6866 O 939.686 6.1189 0.194655 0
M  V30 6867 C 937.55 7.27966 -0.139777 0
M  V30 6868 H 937.582 7.25354 0.961601 0
M  V30 6869 H 938.765 6.32557 -1.65702 0
M  V30 6870 H 940.249 8.19355 -1.79097 0
M  V30 6871 H 938.555 10.1294 -1.10029 0
M  V30 6872 H 938.365 9.64276 -3.41316 0
M  V30 6873 H 936.735 9.25417 -2.76357 0
M  V30 6874 H 939.374 6.25267 1.07847 0
M  V30 6875 P 941.232 8.791 7.24582e-12 0
M  V30 6876 O 942.654 9.31096 0.027933 0
M  V30 6877 O 940.872 7.77869 -1.04071 0
M  V30 6878 O 940.909 8.09533 1.41463 0
M  V30 6879 C 940.749 9.0349 2.53943 0
M  V30 6880 C 941.289 8.35226 3.79016 0
M  V30 6881 O 940.233 7.57992 4.15078 0
M  V30 6882 C 942.507 7.45087 3.67298 0
M  V30 6883 O 943.245 7.27796 4.85194 0
M  V30 6884 C 941.838 6.17323 3.12027 0
M  V30 6885 O 942.637 5.04231 3.47188 0
M  V30 6886 C 940.501 6.19961 3.81809 0
M  V30 6887 H 940.533 5.58218 4.73051 0
M  V30 6888 H 941.716 6.21726 2.02589 0
M  V30 6889 H 943.2 7.86112 2.9231 0
M  V30 6890 H 941.506 9.11627 4.55076 0
M  V30 6891 H 941.316 9.9573 2.34194 0
M  V30 6892 H 939.686 9.2792 2.67832 0
M  V30 6893 H 942.325 4.67702 4.28772 0
M  V30 6894 P 944.182 7.39546 4.75277 0
M  V30 6895 O 945.604 7.81777 5.05738 0
M  V30 6896 O 943.822 7.1065 3.32998 0
M  V30 6897 O 943.859 6.04542 5.56673 0
M  V30 6898 C 943.699 6.22772 7.02095 0
M  V30 6899 C 944.239 4.97725 7.70406 0
M  V30 6900 O 943.183 4.13256 7.58987 0
M  V30 6901 C 945.457 4.28231 7.11815 0
M  V30 6902 O 946.195 3.49945 8.01648 0
M  V30 6903 C 944.788 3.5063 5.96244 0
M  V30 6904 O 945.587 2.36482 5.64681 0
M  V30 6905 C 943.451 3.15122 6.56374 0
M  V30 6906 H 943.483 2.13853 6.99751 0
M  V30 6907 H 944.666 4.13501 5.06559 0
M  V30 6908 H 946.15 5.03285 6.70911 0
M  V30 6909 H 944.456 5.20877 8.75697 0
M  V30 6910 H 944.266 7.11046 7.35349 0
M  V30 6911 H 942.636 6.35815 7.26986 0
M  V30 6912 H 945.275 1.61644 6.13565 0
M  V30 6913 P 947.133 3.65191 7.99657 0
M  V30 6914 O 948.555 3.8425 8.48115 0
M  V30 6915 O 946.773 4.17805 6.64342 0
M  V30 6916 O 946.81 2.07613 7.95143 0
M  V30 6917 C 946.65 1.44328 9.27336 0
M  V30 6918 C 947.19 0.0220036 9.17197 0
M  V30 6919 O 946.134 -0.626867 8.61923 0
M  V30 6920 C 948.408 -0.24586 8.30336 0
M  V30 6921 O 949.146 -1.39011 8.63583 0
M  V30 6922 C 947.739 -0.273849 6.91158 0
M  V30 6923 O 948.538 -1.06348 6.02892 0
M  V30 6924 C 946.402 -0.897649 7.22545 0
M  V30 6925 H 946.434 -1.9841 7.04286 0
M  V30 6926 H 947.617 0.739928 6.497 0
M  V30 6927 H 949.101 0.60668 8.36503 0
M  V30 6928 H 947.407 -0.352479 10.1829 0
M  V30 6929 H 947.217 2.00611 10.0304 0
M  V30 6930 H 945.587 1.41843 9.55327 0
M  V30 6931 H 948.226 -1.95734 6.03555 0
M  V30 6932 P 950.084 -1.25109 8.70152 0
M  V30 6933 O 951.506 -1.35274 9.21221 0
M  V30 6934 O 949.724 -0.0769065 7.84762 0
M  V30 6935 O 949.761 -2.55232 7.81161 0
M  V30 6936 C 949.601 -3.79939 8.58154 0
M  V30 6937 C 950.141 -4.94023 7.72785 0
M  V30 6938 O 949.085 -5.18726 6.91205 0
M  V30 6939 C 951.359 -4.69597 6.85231 0
M  V30 6940 O 952.097 -5.83832 6.51337 0
M  V30 6941 C 950.69 -3.96706 5.66633 0
M  V30 6942 O 951.489 -4.15414 4.49689 0
M  V30 6943 C 949.353 -4.66153 5.59313 0
M  V30 6944 H 949.385 -5.47679 4.85214 0
M  V30 6945 H 950.568 -2.89008 5.86566 0
M  V30 6946 H 952.052 -4.0121 7.36511 0
M  V30 6947 H 950.358 -5.80182 8.37584 0
M  V30 6948 H 950.168 -3.73517 9.52265 0
M  V30 6949 H 948.538 -3.97163 8.80359 0
M  V30 6950 H 951.177 -4.90969 4.01921 0
M  V30 6951 P 953.034 -5.75688 6.64379 0
M  V30 6952 O 954.456 -6.11849 7.01846 0
M  V30 6953 O 952.674 -4.30744 6.56026 0
M  V30 6954 O 952.711 -6.37042 5.19165 0
M  V30 6955 C 952.551 -7.83578 5.16515 0
M  V30 6956 C 953.091 -8.33398 3.83019 0
M  V30 6957 O 952.035 -8.10074 3.01034 0
M  V30 6958 C 954.309 -7.65514 3.2257 0
M  V30 6959 O 955.047 -8.4329 2.32297 0
M  V30 6960 C 953.64 -6.40075 2.62207 0
M  V30 6961 O 954.439 -5.92589 1.53712 0
M  V30 6962 C 952.303 -6.9454 2.18503 0
M  V30 6963 H 952.335 -7.23063 1.12091 0
M  V30 6964 H 953.518 -5.6025 3.37201 0
M  V30 6965 H 955.002 -7.35707 4.02681 0
M  V30 6966 H 953.308 -9.40912 3.9095 0
M  V30 6967 H 953.118 -8.29056 5.99158 0
M  V30 6968 H 951.488 -8.10073 5.25882 0
M  V30 6969 H 954.127 -6.30324 0.726794 0
M  V30 6970 P 955.985 -8.4349 2.47671 0
M  V30 6971 O 957.407 -8.94167 2.5964 0
M  V30 6972 O 955.625 -7.1704 3.19006 0
M  V30 6973 O 955.662 -8.16596 0.923387 0
M  V30 6974 C 955.502 -9.38437 0.108857 0
M  V30 6975 C 956.042 -9.08175 -1.28353 0
M  V30 6976 O 954.986 -8.44229 -1.84713 0
M  V30 6977 C 957.26 -8.18386 -1.42505 0
M  V30 6978 O 957.998 -8.3501 -2.60497 0
M  V30 6979 C 956.591 -6.80225 -1.25468 0
M  V30 6980 O 957.39 -5.81621 -1.91066 0
M  V30 6981 C 955.254 -7.02416 -1.9168 0
M  V30 6982 H 955.286 -6.6888 -2.96621 0
M  V30 6983 H 956.469 -6.53617 -0.192223 0
M  V30 6984 H 957.953 -8.36622 -0.589963 0
M  V30 6985 H 956.259 -10.0291 -1.79807 0
M  V30 6986 H 956.069 -10.2138 0.558219 0
M  V30 6987 H 954.439 -9.6579 0.0444202 0
M  V30 6988 H 957.078 -5.69556 -2.79637 0
M  V30 6989 P 958.935 -8.4349 -2.47671 0
M  V30 6990 O 960.357 -8.92593 -2.65 0
M  V30 6991 O 958.575 -7.7568 -1.19296 0
M  V30 6992 O 958.612 -7.36886 -3.63805 0
M  V30 6993 C 958.452 -7.95349 -4.982 0
M  V30 6994 C 958.992 -6.94612 -5.98974 0
M  V30 6995 O 957.936 -6.10347 -6.11815 0
M  V30 6996 C 960.21 -6.11426 -5.62335 0
M  V30 6997 O 960.948 -5.6162 -6.70584 0
M  V30 6998 C 959.541 -5.04409 -4.73308 0
M  V30 6999 O 960.34 -3.85992 -4.75183 0
M  V30 7000 C 958.204 -4.8728 -5.41006 0
M  V30 7001 H 958.236 -4.02333 -6.11157 0
M  V30 7002 H 959.419 -5.39466 -3.69543 0
M  V30 7003 H 960.903 -6.71916 -5.01943 0
M  V30 7004 H 959.209 -7.4649 -6.93477 0
M  V30 7005 H 959.019 -8.89416 -5.05237 0
M  V30 7006 H 957.389 -8.14876 -5.18409 0
M  V30 7007 H 960.028 -3.27957 -5.4317 0
M  V30 7008 P 961.886 -5.75688 -6.64379 0
M  V30 7009 O 963.308 -6.07758 -7.05656 0
M  V30 7010 O 961.526 -5.88047 -5.19722 0
M  V30 7011 O 961.563 -4.2322 -7.04443 0
M  V30 7012 C 961.403 -3.99743 -8.4911 0
M  V30 7013 C 961.943 -2.60487 -8.79329 0
M  V30 7014 O 960.888 -1.82684 -8.4467 0
M  V30 7015 C 963.161 -2.10343 -8.03628 0
M  V30 7016 O 963.899 -1.09919 -8.67766 0
M  V30 7017 C 962.493 -1.68446 -6.70876 0
M  V30 7018 O 963.291 -0.678026 -6.08333 0
M  V30 7019 C 961.155 -1.17436 -7.18567 0
M  V30 7020 N 960.112 -1.52699 -6.23988 0
M  V30 7021 C 960.174 -2.68084 -5.57824 0
M  V30 7022 N 959.129 -2.8189 -4.75643 0
M  V30 7023 C 958.395 -1.72373 -4.95155 0
M  V30 7024 C 957.089 -1.37653 -4.44996 0
M  V30 7025 O 956.356 -2.02239 -3.68445 0
M  V30 7026 N 956.659 -0.17675 -4.90782 0
M  V30 7027 C 957.408 0.645036 -5.78716 0
M  V30 7028 N 956.811 1.84214 -6.10618 0
M  V30 7029 N 958.561 0.321732 -6.30279 0
M  V30 7030 C 959.018 -0.87502 -5.86913 0
M  V30 7031 H 961.187 -0.0804732 -7.31656 0
M  V30 7032 H 962.37 -2.53998 -6.02444 0
M  V30 7033 H 963.855 -2.93095 -7.8582 0
M  V30 7034 H 962.16 -2.53065 -9.86973 0
M  V30 7035 H 961.97 -4.75072 -9.05887 0
M  V30 7036 H 960.339 -4.05244 -8.76668 0
M  V30 7037 H 955.763 0.152143 -4.60849 0
M  V30 7038 H 960.97 -3.41852 -5.69006 0
M  V30 7039 H 955.9 2.08538 -5.69521 0
M  V30 7040 H 957.276 2.4895 -6.75698 0
M  V30 7041 H 962.98 0.177619 -6.34151 0
M  V30 7042 P 964.836 -1.25109 -8.70152 0
M  V30 7043 O 966.258 -1.29744 -9.22016 0
M  V30 7044 O 964.476 -2.13714 -7.55141 0
M  V30 7045 O 964.513 0.248149 -8.21425 0
M  V30 7046 C 964.353 1.22779 -9.30434 0
M  V30 7047 C 964.893 2.56293 -8.80664 0
M  V30 7048 O 963.837 3.02979 -8.09349 0
M  V30 7049 C 966.111 2.57523 -7.89775 0
M  V30 7050 O 966.849 3.7668 -7.89438 0
M  V30 7051 C 965.442 2.20997 -6.55446 0
M  V30 7052 O 966.241 2.71895 -5.48509 0
M  V30 7053 C 964.105 2.89693 -6.67988 0
M  V30 7054 H 964.137 3.88793 -6.19859 0
M  V30 7055 H 965.32 1.12046 -6.44229 0
M  V30 7056 H 966.804 1.7746 -8.19711 0
M  V30 7057 H 965.11 3.20706 -9.67112 0
M  V30 7058 H 964.92 0.901032 -10.1892 0
M  V30 7059 H 963.29 1.33049 -9.56592 0
M  V30 7060 H 965.929 3.57847 -5.23962 0
M  V30 7061 P 967.787 3.65191 -7.99657 0
M  V30 7062 O 969.209 3.89332 -8.45794 0
M  V30 7063 O 967.427 2.28472 -7.50807 0
M  V30 7064 O 967.464 4.64972 -6.77611 0
M  V30 7065 C 967.304 6.06319 -7.16352 0
M  V30 7066 C 967.844 6.91731 -6.02299 0
M  V30 7067 O 966.788 6.92449 -5.17064 0
M  V30 7068 C 969.062 6.43627 -5.25174 0
M  V30 7069 O 969.8 7.43686 -4.60469 0
M  V30 7070 C 968.393 5.40275 -4.31916 0
M  V30 7071 O 969.192 5.25279 -3.14438 0
M  V30 7072 C 967.056 6.04847 -4.05327 0
M  V30 7073 H 967.088 6.62195 -3.11261 0
M  V30 7074 H 968.271 4.42556 -4.81383 0
M  V30 7075 H 969.755 5.92458 -5.93643 0
M  V30 7076 H 968.061 7.92655 -6.402 0
M  V30 7077 H 967.871 6.26671 -8.0846 0
M  V30 7078 H 966.241 6.29101 -7.32804 0
M  V30 7079 H 968.88 5.84315 -2.47318 0
M  V30 7080 P 970.738 7.39546 -4.75277 0
M  V30 7081 O 972.16 7.84798 -5.01039 0
M  V30 7082 O 970.378 5.9812 -5.08098 0
M  V30 7083 O 970.415 7.57503 -3.1866 0
M  V30 7084 C 970.255 8.97357 -2.74833 0
M  V30 7085 C 970.795 9.07548 -1.32709 0
M  V30 7086 O 969.739 8.62072 -0.606159 0
M  V30 7087 C 972.013 8.25383 -0.938334 0
M  V30 7088 O 972.751 8.74577 0.146954 0
M  V30 7089 C 971.344 6.8802 -0.712559 0
M  V30 7090 O 972.143 6.1189 0.194655 0
M  V30 7091 C 970.007 7.27966 -0.139777 0
M  V30 7092 H 970.039 7.25354 0.961601 0
M  V30 7093 H 971.222 6.32557 -1.65702 0
M  V30 7094 H 972.706 8.19355 -1.79097 0
M  V30 7095 H 971.012 10.1294 -1.10029 0
M  V30 7096 H 970.822 9.64276 -3.41316 0
M  V30 7097 H 969.192 9.25417 -2.76357 0
M  V30 7098 H 971.831 6.25267 1.07847 0
M  V30 7099 P 973.688 8.791 7.55599e-12 0
M  V30 7100 O 975.11 9.31096 0.027933 0
M  V30 7101 O 973.328 7.77869 -1.04071 0
M  V30 7102 O 973.365 8.09533 1.41463 0
M  V30 7103 C 973.205 9.0349 2.53943 0
M  V30 7104 C 973.745 8.35226 3.79016 0
M  V30 7105 O 972.689 7.57992 4.15078 0
M  V30 7106 C 974.963 7.45087 3.67298 0
M  V30 7107 O 975.701 7.27796 4.85194 0
M  V30 7108 C 974.294 6.17323 3.12027 0
M  V30 7109 O 975.093 5.04231 3.47188 0
M  V30 7110 C 972.957 6.19961 3.81809 0
M  V30 7111 H 972.989 5.58218 4.73051 0
M  V30 7112 H 974.172 6.21726 2.02589 0
M  V30 7113 H 975.656 7.86112 2.9231 0
M  V30 7114 H 973.962 9.11627 4.55076 0
M  V30 7115 H 973.772 9.9573 2.34194 0
M  V30 7116 H 972.142 9.2792 2.67832 0
M  V30 7117 H 974.781 4.67702 4.28772 0
M  V30 7118 P 976.639 7.39546 4.75277 0
M  V30 7119 O 978.06 7.81861 5.05793 0
M  V30 7120 O 976.279 7.1065 3.32998 0
M  V30 7121 O 976.316 6.04542 5.56673 0
M  V30 7122 C 976.155 6.22839 7.02169 0
M  V30 7123 C 976.696 4.97725 7.70406 0
M  V30 7124 O 975.641 4.13208 7.58899 0
M  V30 7125 C 977.914 4.28231 7.11815 0
M  V30 7126 O 978.652 3.49945 8.01648 0
M  V30 7127 C 977.246 3.5063 5.96244 0
M  V30 7128 O 978.044 2.37008 5.64352 0
M  V30 7129 C 975.908 3.15122 6.56374 0
M  V30 7130 N 974.865 3.22311 5.55692 0
M  V30 7131 C 975.034 3.99655 4.46046 0
M  V30 7132 N 974.007 3.97599 3.63918 0
M  V30 7133 C 973.122 3.11159 4.25334 0
M  V30 7134 C 971.855 2.64972 3.85157 0
M  V30 7135 N 971.29 1.78482 4.74759 0
M  V30 7136 C 971.892 1.37463 5.90819 0
M  V30 7137 N 973.069 1.7733 6.31889 0
M  V30 7138 C 973.644 2.64393 5.43725 0
M  V30 7139 H 977.123 4.12931 5.06895 0
M  V30 7140 H 978.606 5.03285 6.70911 0
M  V30 7141 H 976.912 5.20001 8.76217 0
M  V30 7142 H 976.722 7.11046 7.35349 0
M  V30 7143 H 975.092 6.35815 7.26986 0
M  V30 7144 H 975.934 4.58037 4.27732 0
M  V30 7145 H 977.732 1.61619 6.13468 0
M  V30 7146 P 979.589 3.65191 7.99657 0
M  V30 7147 O 981.011 3.8425 8.48115 0
M  V30 7148 O 979.229 4.17805 6.64342 0
M  V30 7149 O 979.266 2.07613 7.95143 0
M  V30 7150 C 979.106 1.44328 9.27336 0
M  V30 7151 C 979.646 0.0220036 9.17197 0
M  V30 7152 O 978.59 -0.626867 8.61923 0
M  V30 7153 C 980.864 -0.24586 8.30336 0
M  V30 7154 O 981.602 -1.39011 8.63583 0
M  V30 7155 C 980.195 -0.273849 6.91158 0
M  V30 7156 O 980.994 -1.06348 6.02892 0
M  V30 7157 C 978.858 -0.897649 7.22545 0
M  V30 7158 H 978.89 -1.9841 7.04286 0
M  V30 7159 H 980.073 0.739928 6.497 0
M  V30 7160 H 981.557 0.60668 8.36503 0
M  V30 7161 H 979.863 -0.352479 10.1829 0
M  V30 7162 H 979.673 2.00611 10.0304 0
M  V30 7163 H 978.043 1.41843 9.55327 0
M  V30 7164 H 980.682 -1.95734 6.03555 0
M  V30 7165 P 982.54 -1.25109 8.70152 0
M  V30 7166 O 983.962 -1.35274 9.21221 0
M  V30 7167 O 982.18 -0.0769065 7.84762 0
M  V30 7168 O 982.217 -2.55232 7.81161 0
M  V30 7169 C 982.057 -3.79939 8.58154 0
M  V30 7170 C 982.597 -4.94023 7.72785 0
M  V30 7171 O 981.541 -5.18726 6.91205 0
M  V30 7172 C 983.815 -4.69597 6.85231 0
M  V30 7173 O 984.553 -5.83832 6.51337 0
M  V30 7174 C 983.146 -3.96706 5.66633 0
M  V30 7175 O 983.945 -4.15414 4.49689 0
M  V30 7176 C 981.809 -4.66153 5.59313 0
M  V30 7177 H 981.841 -5.47679 4.85214 0
M  V30 7178 H 983.024 -2.89008 5.86566 0
M  V30 7179 H 984.508 -4.0121 7.36511 0
M  V30 7180 H 982.814 -5.80182 8.37584 0
M  V30 7181 H 982.624 -3.73517 9.52265 0
M  V30 7182 H 980.994 -3.97163 8.80359 0
M  V30 7183 H 983.633 -4.90969 4.01921 0
M  V30 7184 P 985.49 -5.75688 6.64379 0
M  V30 7185 O 986.912 -6.11849 7.01846 0
M  V30 7186 O 985.13 -4.30744 6.56026 0
M  V30 7187 O 985.167 -6.37042 5.19165 0
M  V30 7188 C 985.007 -7.83578 5.16515 0
M  V30 7189 C 985.547 -8.33398 3.83019 0
M  V30 7190 O 984.491 -8.10074 3.01034 0
M  V30 7191 C 986.765 -7.65514 3.2257 0
M  V30 7192 O 987.503 -8.4329 2.32297 0
M  V30 7193 C 986.096 -6.40075 2.62207 0
M  V30 7194 O 986.895 -5.92589 1.53712 0
M  V30 7195 C 984.759 -6.9454 2.18503 0
M  V30 7196 H 984.791 -7.23063 1.12091 0
M  V30 7197 H 985.974 -5.6025 3.37201 0
M  V30 7198 H 987.458 -7.35707 4.02681 0
M  V30 7199 H 985.764 -9.40912 3.9095 0
M  V30 7200 H 985.574 -8.29056 5.99158 0
M  V30 7201 H 983.944 -8.10073 5.25882 0
M  V30 7202 H 986.583 -6.30324 0.726794 0
M  V30 7203 P 988.441 -8.4349 2.47671 0
M  V30 7204 O 989.863 -8.94167 2.5964 0
M  V30 7205 O 988.081 -7.1704 3.19006 0
M  V30 7206 O 988.118 -8.16596 0.923387 0
M  V30 7207 C 987.958 -9.38437 0.108857 0
M  V30 7208 C 988.498 -9.08175 -1.28353 0
M  V30 7209 O 987.442 -8.44229 -1.84713 0
M  V30 7210 C 989.716 -8.18386 -1.42505 0
M  V30 7211 O 990.454 -8.3501 -2.60497 0
M  V30 7212 C 989.047 -6.80225 -1.25468 0
M  V30 7213 O 989.846 -5.81621 -1.91066 0
M  V30 7214 C 987.71 -7.02416 -1.9168 0
M  V30 7215 H 987.742 -6.6888 -2.96621 0
M  V30 7216 H 988.925 -6.53617 -0.192223 0
M  V30 7217 H 990.409 -8.36622 -0.589963 0
M  V30 7218 H 988.715 -10.0291 -1.79807 0
M  V30 7219 H 988.525 -10.2138 0.558219 0
M  V30 7220 H 986.895 -9.6579 0.0444202 0
M  V30 7221 H 989.534 -5.69556 -2.79637 0
M  V30 7222 P 991.392 -8.4349 -2.47671 0
M  V30 7223 O 992.814 -8.92593 -2.65 0
M  V30 7224 O 991.032 -7.7568 -1.19296 0
M  V30 7225 O 991.069 -7.36886 -3.63805 0
M  V30 7226 C 990.909 -7.95349 -4.982 0
M  V30 7227 C 991.449 -6.94612 -5.98974 0
M  V30 7228 O 990.393 -6.10347 -6.11815 0
M  V30 7229 C 992.667 -6.11426 -5.62335 0
M  V30 7230 O 993.405 -5.6162 -6.70584 0
M  V30 7231 C 991.998 -5.04409 -4.73308 0
M  V30 7232 O 992.797 -3.85992 -4.75183 0
M  V30 7233 C 990.661 -4.8728 -5.41006 0
M  V30 7234 H 990.693 -4.02333 -6.11157 0
M  V30 7235 H 991.876 -5.39466 -3.69543 0
M  V30 7236 H 993.36 -6.71916 -5.01943 0
M  V30 7237 H 991.666 -7.4649 -6.93477 0
M  V30 7238 H 991.476 -8.89416 -5.05237 0
M  V30 7239 H 989.846 -8.14876 -5.18409 0
M  V30 7240 H 992.485 -3.27957 -5.4317 0
M  V30 7241 P 994.342 -5.75688 -6.64379 0
M  V30 7242 O 995.764 -6.07627 -7.05504 0
M  V30 7243 O 993.982 -5.88047 -5.19722 0
M  V30 7244 O 994.019 -4.2322 -7.04443 0
M  V30 7245 C 993.859 -3.99743 -8.4911 0
M  V30 7246 C 994.399 -2.60516 -8.79425 0
M  V30 7247 O 993.343 -1.82684 -8.4467 0
M  V30 7248 C 995.617 -2.10343 -8.03628 0
M  V30 7249 O 996.355 -1.09919 -8.67766 0
M  V30 7250 C 994.948 -1.68446 -6.70876 0
M  V30 7251 O 995.747 -0.678137 -6.08433 0
M  V30 7252 C 993.611 -1.17436 -7.18567 0
M  V30 7253 H 993.643 -0.0804732 -7.31656 0
M  V30 7254 H 994.826 -2.54037 -6.02537 0
M  V30 7255 H 996.31 -2.93881 -7.85526 0
M  V30 7256 H 994.616 -2.53065 -9.86973 0
M  V30 7257 H 994.426 -4.75072 -9.05887 0
M  V30 7258 H 992.796 -4.05244 -8.76668 0
M  V30 7259 H 995.435 0.177647 -6.34251 0
M  V30 7260 P 997.293 -1.25109 -8.70152 0
M  V30 7261 O 998.715 -1.29744 -9.22016 0
M  V30 7262 O 996.933 -2.13714 -7.55141 0
M  V30 7263 O 996.97 0.248149 -8.21425 0
M  V30 7264 C 996.81 1.22779 -9.30434 0
M  V30 7265 C 997.35 2.56293 -8.80664 0
M  V30 7266 O 996.294 3.02979 -8.09349 0
M  V30 7267 C 998.568 2.57523 -7.89775 0
M  V30 7268 O 999.306 3.7668 -7.89438 0
M  V30 7269 C 997.899 2.20997 -6.55446 0
M  V30 7270 O 998.698 2.71895 -5.48509 0
M  V30 7271 C 996.562 2.89693 -6.67988 0
M  V30 7272 H 996.594 3.88793 -6.19859 0
M  V30 7273 H 997.777 1.12046 -6.44229 0
M  V30 7274 H 999.261 1.7746 -8.19711 0
M  V30 7275 H 997.567 3.20706 -9.67112 0
M  V30 7276 H 997.377 0.901032 -10.1892 0
M  V30 7277 H 995.747 1.33049 -9.56592 0
M  V30 7278 H 998.386 3.57847 -5.23962 0
M  V30 7279 P 1000.24 3.65191 -7.99657 0
M  V30 7280 O 1001.66 3.89374 -8.45885 0
M  V30 7281 O 999.883 2.28472 -7.50807 0
M  V30 7282 O 999.92 4.64972 -6.77611 0
M  V30 7283 C 999.759 6.06383 -7.16428 0
M  V30 7284 C 1000.3 6.91731 -6.02299 0
M  V30 7285 O 999.245 6.92369 -5.17005 0
M  V30 7286 C 1001.52 6.43627 -5.25174 0
M  V30 7287 O 1002.26 7.43686 -4.60469 0
M  V30 7288 C 1000.85 5.40275 -4.31916 0
M  V30 7289 O 1001.65 5.24878 -3.14911 0
M  V30 7290 C 999.512 6.04847 -4.05327 0
M  V30 7291 N 998.469 5.04166 -3.98114 0
M  V30 7292 C 998.638 3.84629 -4.59066 0
M  V30 7293 N 997.611 3.0363 -4.45343 0
M  V30 7294 C 996.726 3.76722 -3.68523 0
M  V30 7295 C 995.459 3.43528 -3.17088 0
M  V30 7296 N 994.894 4.44526 -2.44231 0
M  V30 7297 C 995.496 5.65243 -2.20146 0
M  V30 7298 N 996.673 6.00221 -2.65453 0
M  V30 7299 C 997.248 5.00564 -3.39083 0
M  V30 7300 H 1000.73 4.42969 -4.80867 0
M  V30 7301 H 1002.21 5.92458 -5.93643 0
M  V30 7302 H 1000.52 7.93295 -6.39407 0
M  V30 7303 H 1000.33 6.26671 -8.0846 0
M  V30 7304 H 998.696 6.29101 -7.32804 0
M  V30 7305 H 999.538 3.58193 -5.14248 0
M  V30 7306 H 1001.34 5.84223 -2.47279 0
M  V30 7307 P 1003.19 7.39546 -4.75277 0
M  V30 7308 O 1004.62 7.84798 -5.01039 0
M  V30 7309 O 1002.83 5.9812 -5.08098 0
M  V30 7310 O 1002.87 7.57503 -3.1866 0
M  V30 7311 C 1002.71 8.97357 -2.74833 0
M  V30 7312 C 1003.25 9.07548 -1.32709 0
M  V30 7313 O 1002.19 8.62072 -0.606159 0
M  V30 7314 C 1004.47 8.25383 -0.938334 0
M  V30 7315 O 1005.21 8.74577 0.146954 0
M  V30 7316 C 1003.8 6.8802 -0.712559 0
M  V30 7317 O 1004.6 6.1189 0.194655 0
M  V30 7318 C 1002.46 7.27966 -0.139777 0
M  V30 7319 H 1002.49 7.25354 0.961601 0
M  V30 7320 H 1003.68 6.32557 -1.65702 0
M  V30 7321 H 1005.16 8.19355 -1.79097 0
M  V30 7322 H 1003.47 10.1294 -1.10029 0
M  V30 7323 H 1003.28 9.64276 -3.41316 0
M  V30 7324 H 1001.65 9.25417 -2.76357 0
M  V30 7325 H 1004.29 6.25267 1.07847 0
M  V30 7326 P 1006.14 8.791 7.86616e-12 0
M  V30 7327 O 1007.57 9.31296 0.027939 0
M  V30 7328 O 1005.78 7.77869 -1.04071 0
M  V30 7329 O 1005.82 8.09533 1.41463 0
M  V30 7330 C 1005.66 9.0349 2.53943 0
M  V30 7331 C 1006.2 8.35135 3.78975 0
M  V30 7332 O 1005.15 7.57992 4.15078 0
M  V30 7333 C 1007.42 7.45087 3.67298 0
M  V30 7334 O 1008.16 7.27796 4.85194 0
M  V30 7335 C 1006.75 6.17323 3.12027 0
M  V30 7336 O 1007.55 5.04149 3.47132 0
M  V30 7337 C 1005.41 6.19961 3.81809 0
M  V30 7338 N 1004.37 5.71575 2.93223 0
M  V30 7339 C 1004.43 5.97133 1.62693 0
M  V30 7340 N 1003.39 5.44066 0.984414 0
M  V30 7341 C 1002.65 4.87093 1.93987 0
M  V30 7342 C 1001.35 4.26449 1.8738 0
M  V30 7343 O 1000.61 4.1089 0.884377 0
M  V30 7344 N 1000.92 3.82483 3.08036 0
M  V30 7345 C 1001.67 3.95124 4.27727 0
M  V30 7346 N 1001.07 3.4084 5.39089 0
M  V30 7347 N 1002.82 4.55264 4.3706 0
M  V30 7348 C 1003.28 5.00861 3.18217 0
M  V30 7349 H 1005.45 5.58218 4.73051 0
M  V30 7350 H 1006.63 6.21631 2.02558 0
M  V30 7351 H 1008.11 7.85819 2.93096 0
M  V30 7352 H 1006.42 9.11627 4.55076 0
M  V30 7353 H 1006.23 9.9573 2.34194 0
M  V30 7354 H 1004.6 9.2792 2.67832 0
M  V30 7355 H 1000.02 3.38323 3.1329 0
M  V30 7356 H 1005.23 6.53891 1.14265 0
M  V30 7357 H 1000.16 2.93852 5.30559 0
M  V30 7358 H 1001.53 3.47631 6.30632 0
M  V30 7359 H 1007.24 4.67628 4.28704 0
M  V30 7360 P 1009.09 7.39546 4.75277 0
M  V30 7361 O 1010.52 7.81777 5.05738 0
M  V30 7362 O 1008.73 7.1065 3.32998 0
M  V30 7363 O 1008.77 6.04542 5.56673 0
M  V30 7364 C 1008.61 6.22772 7.02095 0
M  V30 7365 C 1009.15 4.97725 7.70406 0
M  V30 7366 O 1008.1 4.13256 7.58987 0
M  V30 7367 C 1010.37 4.28231 7.11815 0
M  V30 7368 O 1011.11 3.49945 8.01648 0
M  V30 7369 C 1009.7 3.5063 5.96244 0
M  V30 7370 O 1010.5 2.36482 5.64681 0
M  V30 7371 C 1008.36 3.15122 6.56374 0
M  V30 7372 H 1008.4 2.13853 6.99751 0
M  V30 7373 H 1009.58 4.13501 5.06559 0
M  V30 7374 H 1011.06 5.03285 6.70911 0
M  V30 7375 H 1009.37 5.20877 8.75697 0
M  V30 7376 H 1009.18 7.11046 7.35349 0
M  V30 7377 H 1007.55 6.35815 7.26986 0
M  V30 7378 H 1010.19 1.61644 6.13565 0
M  V30 7379 P 1012.05 3.65191 7.99657 0
M  V30 7380 O 1013.47 3.8425 8.48115 0
M  V30 7381 O 1011.69 4.17805 6.64342 0
M  V30 7382 O 1011.72 2.07613 7.95143 0
M  V30 7383 C 1011.56 1.44328 9.27336 0
M  V30 7384 C 1012.1 0.0220036 9.17197 0
M  V30 7385 O 1011.05 -0.626867 8.61923 0
M  V30 7386 C 1013.32 -0.24586 8.30336 0
M  V30 7387 O 1014.06 -1.39011 8.63583 0
M  V30 7388 C 1012.65 -0.273849 6.91158 0
M  V30 7389 O 1013.45 -1.06348 6.02892 0
M  V30 7390 C 1011.31 -0.897649 7.22545 0
M  V30 7391 H 1011.35 -1.9841 7.04286 0
M  V30 7392 H 1012.53 0.739928 6.497 0
M  V30 7393 H 1014.01 0.60668 8.36503 0
M  V30 7394 H 1012.32 -0.352479 10.1829 0
M  V30 7395 H 1012.13 2.00611 10.0304 0
M  V30 7396 H 1010.5 1.41843 9.55327 0
M  V30 7397 H 1013.14 -1.95734 6.03555 0
M  V30 7398 P 1015 -1.25109 8.70152 0
M  V30 7399 O 1016.42 -1.35274 9.21221 0
M  V30 7400 O 1014.64 -0.0769065 7.84762 0
M  V30 7401 O 1014.67 -2.55232 7.81161 0
M  V30 7402 C 1014.51 -3.79939 8.58154 0
M  V30 7403 C 1015.05 -4.94023 7.72785 0
M  V30 7404 O 1014 -5.18726 6.91205 0
M  V30 7405 C 1016.27 -4.69597 6.85231 0
M  V30 7406 O 1017.01 -5.83832 6.51337 0
M  V30 7407 C 1015.6 -3.96706 5.66633 0
M  V30 7408 O 1016.4 -4.15414 4.49689 0
M  V30 7409 C 1014.27 -4.66153 5.59313 0
M  V30 7410 H 1014.3 -5.47679 4.85214 0
M  V30 7411 H 1015.48 -2.89008 5.86566 0
M  V30 7412 H 1016.96 -4.0121 7.36511 0
M  V30 7413 H 1015.27 -5.80182 8.37584 0
M  V30 7414 H 1015.08 -3.73517 9.52265 0
M  V30 7415 H 1013.45 -3.97163 8.80359 0
M  V30 7416 H 1016.09 -4.90969 4.01921 0
M  V30 7417 P 1017.95 -5.75688 6.64379 0
M  V30 7418 O 1019.37 -6.11981 7.01997 0
M  V30 7419 O 1017.59 -4.30744 6.56026 0
M  V30 7420 O 1017.62 -6.37042 5.19165 0
M  V30 7421 C 1017.46 -7.83578 5.16515 0
M  V30 7422 C 1018 -8.33307 3.82977 0
M  V30 7423 O 1016.95 -8.10074 3.01034 0
M  V30 7424 C 1019.22 -7.65514 3.2257 0
M  V30 7425 O 1019.96 -8.4329 2.32297 0
M  V30 7426 C 1018.55 -6.40075 2.62207 0
M  V30 7427 O 1019.35 -5.92492 1.53687 0
M  V30 7428 C 1017.22 -6.9454 2.18503 0
M  V30 7429 N 1016.17 -5.95905 2.39948 0
M  V30 7430 C 1016.23 -5.13994 3.44742 0
M  V30 7431 N 1015.19 -4.30684 3.46712 0
M  V30 7432 C 1014.46 -4.65583 2.41086 0
M  V30 7433 C 1013.15 -4.20877 1.99581 0
M  V30 7434 O 1012.42 -3.35913 2.52616 0
M  V30 7435 N 1012.72 -4.83271 0.873406 0
M  V30 7436 C 1013.47 -5.82006 0.185129 0
M  V30 7437 N 1012.87 -6.30619 -0.95439 0
M  V30 7438 N 1014.62 -6.28443 0.578524 0
M  V30 7439 C 1015.08 -5.68486 1.70138 0
M  V30 7440 H 1017.25 -7.23063 1.12091 0
M  V30 7441 H 1018.43 -5.60165 3.3715 0
M  V30 7442 H 1019.92 -7.3611 4.01946 0
M  V30 7443 H 1018.22 -9.40912 3.9095 0
M  V30 7444 H 1018.03 -8.29056 5.99158 0
M  V30 7445 H 1016.4 -8.10073 5.25882 0
M  V30 7446 H 1011.82 -4.58323 0.505262 0
M  V30 7447 H 1017.03 -5.14564 4.1935 0
M  V30 7448 H 1011.96 -5.93402 -1.25364 0
M  V30 7449 H 1013.34 -7.0425 -1.50254 0
M  V30 7450 H 1019.04 -6.30224 0.72668 0
M  V30 7451 P 1020.9 -8.4349 2.47671 0
M  V30 7452 O 1022.32 -8.94263 2.59668 0
M  V30 7453 O 1020.54 -7.1704 3.19006 0
M  V30 7454 O 1020.57 -8.16596 0.923387 0
M  V30 7455 C 1020.41 -9.38537 0.108869 0
M  V30 7456 C 1020.95 -9.08175 -1.28353 0
M  V30 7457 O 1019.9 -8.44131 -1.84692 0
M  V30 7458 C 1022.17 -8.18386 -1.42505 0
M  V30 7459 O 1022.91 -8.3501 -2.60497 0
M  V30 7460 C 1021.5 -6.80225 -1.25468 0
M  V30 7461 O 1022.3 -5.81716 -1.90454 0
M  V30 7462 C 1020.17 -7.02416 -1.9168 0
M  V30 7463 N 1019.12 -6.31033 -1.20314 0
M  V30 7464 C 1019.29 -5.98817 0.0994088 0
M  V30 7465 N 1018.27 -5.35403 0.621694 0
M  V30 7466 C 1017.38 -5.25212 -0.43376 0
M  V30 7467 C 1016.11 -4.64602 -0.519722 0
M  V30 7468 N 1015.55 -4.7568 -1.76013 0
M  V30 7469 C 1016.15 -5.3653 -2.83017 0
M  V30 7470 N 1017.33 -5.93676 -2.79782 0
M  V30 7471 C 1017.9 -5.84061 -1.56249 0
M  V30 7472 H 1021.38 -6.53498 -0.198729 0
M  V30 7473 H 1022.86 -8.36622 -0.589963 0
M  V30 7474 H 1021.17 -10.0273 -1.8081 0
M  V30 7475 H 1020.98 -10.2138 0.558219 0
M  V30 7476 H 1019.35 -9.6579 0.0444202 0
M  V30 7477 H 1020.19 -6.23209 0.660562 0
M  V30 7478 H 1021.99 -5.69466 -2.79593 0
M  V30 7479 P 1023.85 -8.4349 -2.47671 0
M  V30 7480 O 1025.27 -8.92689 -2.65029 0
M  V30 7481 O 1023.49 -7.7568 -1.19296 0
M  V30 7482 O 1023.52 -7.36886 -3.63805 0
M  V30 7483 C 1023.36 -7.95433 -4.98253 0
M  V30 7484 C 1023.9 -6.94612 -5.98974 0
M  V30 7485 O 1022.85 -6.10277 -6.11744 0
M  V30 7486 C 1025.12 -6.11426 -5.62335 0
M  V30 7487 O 1025.86 -5.6162 -6.70584 0
M  V30 7488 C 1024.45 -5.04409 -4.73308 0
M  V30 7489 O 1025.25 -3.86404 -4.74719 0
M  V30 7490 C 1023.12 -4.8728 -5.41006 0
M  V30 7491 N 1022.07 -4.65812 -4.42377 0
M  V30 7492 C 1022.24 -5.09132 -3.15382 0
M  V30 7493 N 1021.22 -4.84021 -2.3716 0
M  V30 7494 C 1020.33 -4.18386 -3.20441 0
M  V30 7495 C 1019.06 -3.6275 -2.94905 0
M  V30 7496 N 1018.46 -3.65794 -1.73372 0
M  V30 7497 N 1018.5 -3.05008 -4.05243 0
M  V30 7498 C 1019.1 -2.98348 -5.28159 0
M  V30 7499 N 1020.28 -3.48171 -5.56333 0
M  V30 7500 C 1020.85 -4.06869 -4.47212 0
M  V30 7501 H 1023.15 -4.02278 -6.11074 0
M  V30 7502 H 1024.33 -5.39013 -3.70026 0
M  V30 7503 H 1025.81 -6.71916 -5.01943 0
M  V30 7504 H 1024.12 -7.45796 -6.94223 0
M  V30 7505 H 1023.93 -8.89416 -5.05237 0
M  V30 7506 H 1022.3 -8.14876 -5.18409 0
M  V30 7507 H 1018.56 -2.47853 -6.07807 0
M  V30 7508 H 1023.14 -5.59989 -2.81362 0
M  V30 7509 H 1017.53 -3.23218 -1.60782 0
M  V30 7510 H 1018.94 -4.10523 -0.937856 0
M  V30 7511 H 1024.94 -3.27906 -5.43085 0
M  V30 7512 P 1026.8 -5.75688 -6.64379 0
M  V30 7513 O 1028.22 -6.07692 -7.0558 0
M  V30 7514 O 1026.44 -5.88047 -5.19722 0
M  V30 7515 O 1026.48 -4.2322 -7.04443 0
M  V30 7516 C 1026.31 -3.99785 -8.49201 0
M  V30 7517 C 1026.86 -2.60516 -8.79425 0
M  V30 7518 O 1025.8 -1.82663 -8.44573 0
M  V30 7519 C 1028.07 -2.10343 -8.03628 0
M  V30 7520 O 1028.81 -1.09919 -8.67766 0
M  V30 7521 C 1027.41 -1.68446 -6.70876 0
M  V30 7522 O 1028.2 -0.684109 -6.08265 0
M  V30 7523 C 1026.07 -1.17436 -7.18567 0
M  V30 7524 N 1025.02 -1.52699 -6.23988 0
M  V30 7525 C 1025.19 -2.578 -5.40574 0
M  V30 7526 N 1024.17 -2.78966 -4.61193 0
M  V30 7527 C 1023.28 -1.78725 -4.95769 0
M  V30 7528 C 1022.01 -1.45727 -4.44207 0
M  V30 7529 N 1021.45 -0.374977 -5.05812 0
M  V30 7530 C 1022.05 0.345585 -6.05615 0
M  V30 7531 N 1023.23 0.0787651 -6.56253 0
M  V30 7532 C 1023.8 -1.00499 -5.96189 0
M  V30 7533 H 1027.28 -2.53396 -6.02698 0
M  V30 7534 H 1028.77 -2.93881 -7.85526 0
M  V30 7535 H 1027.07 -2.52078 -9.87225 0
M  V30 7536 H 1026.88 -4.75072 -9.05887 0
M  V30 7537 H 1025.25 -4.05244 -8.76668 0
M  V30 7538 H 1026.09 -3.18977 -5.3945 0
M  V30 7539 H 1027.89 0.177619 -6.34151 0
M  V30 7540 P 1029.75 -1.25109 -8.70152 0
M  V30 7541 O 1031.17 -1.29744 -9.22016 0
M  V30 7542 O 1029.39 -2.13714 -7.55141 0
M  V30 7543 O 1029.43 0.248149 -8.21425 0
M  V30 7544 C 1029.27 1.22779 -9.30434 0
M  V30 7545 C 1029.81 2.56293 -8.80664 0
M  V30 7546 O 1028.75 3.02979 -8.09349 0
M  V30 7547 C 1031.02 2.57523 -7.89775 0
M  V30 7548 O 1031.76 3.7668 -7.89438 0
M  V30 7549 C 1030.35 2.20997 -6.55446 0
M  V30 7550 O 1031.15 2.71895 -5.48509 0
M  V30 7551 C 1029.02 2.89693 -6.67988 0
M  V30 7552 H 1029.05 3.88793 -6.19859 0
M  V30 7553 H 1030.23 1.12046 -6.44229 0
M  V30 7554 H 1031.72 1.7746 -8.19711 0
M  V30 7555 H 1030.02 3.20706 -9.67112 0
M  V30 7556 H 1029.83 0.901032 -10.1892 0
M  V30 7557 H 1028.2 1.33049 -9.56592 0
M  V30 7558 H 1030.84 3.57847 -5.23962 0
M  V30 7559 P 1032.7 3.65191 -7.99657 0
M  V30 7560 O 1034.12 3.89332 -8.45794 0
M  V30 7561 O 1032.34 2.28472 -7.50807 0
M  V30 7562 O 1032.38 4.64972 -6.77611 0
M  V30 7563 C 1032.22 6.06319 -7.16352 0
M  V30 7564 C 1032.76 6.91731 -6.02299 0
M  V30 7565 O 1031.7 6.92449 -5.17064 0
M  V30 7566 C 1033.97 6.43627 -5.25174 0
M  V30 7567 O 1034.71 7.43686 -4.60469 0
M  V30 7568 C 1033.31 5.40275 -4.31916 0
M  V30 7569 O 1034.1 5.25279 -3.14438 0
M  V30 7570 C 1031.97 6.04847 -4.05327 0
M  V30 7571 H 1032 6.62195 -3.11261 0
M  V30 7572 H 1033.18 4.42556 -4.81383 0
M  V30 7573 H 1034.67 5.92458 -5.93643 0
M  V30 7574 H 1032.97 7.92655 -6.402 0
M  V30 7575 H 1032.78 6.26671 -8.0846 0
M  V30 7576 H 1031.15 6.29101 -7.32804 0
M  V30 7577 H 1033.79 5.84315 -2.47318 0
M  V30 7578 P 1035.65 7.39546 -4.75277 0
M  V30 7579 O 1037.07 7.84798 -5.01039 0
M  V30 7580 O 1035.29 5.9812 -5.08098 0
M  V30 7581 O 1035.33 7.57503 -3.1866 0
M  V30 7582 C 1035.17 8.97357 -2.74833 0
M  V30 7583 C 1035.71 9.07548 -1.32709 0
M  V30 7584 O 1034.65 8.62072 -0.606159 0
M  V30 7585 C 1036.93 8.25383 -0.938334 0
M  V30 7586 O 1037.66 8.74577 0.146954 0
M  V30 7587 C 1036.26 6.8802 -0.712559 0
M  V30 7588 O 1037.06 6.1189 0.194655 0
M  V30 7589 C 1034.92 7.27966 -0.139777 0
M  V30 7590 H 1034.95 7.25354 0.961601 0
M  V30 7591 H 1036.13 6.32557 -1.65702 0
M  V30 7592 H 1037.62 8.19355 -1.79097 0
M  V30 7593 H 1035.92 10.1294 -1.10029 0
M  V30 7594 H 1035.73 9.64276 -3.41316 0
M  V30 7595 H 1034.1 9.25417 -2.76357 0
M  V30 7596 H 1036.74 6.25267 1.07847 0
M  V30 7597 P 1038.6 8.791 8.17632e-12 0
M  V30 7598 O 1040.02 9.31096 0.027933 0
M  V30 7599 O 1038.24 7.77869 -1.04071 0
M  V30 7600 O 1038.28 8.09533 1.41463 0
M  V30 7601 C 1038.12 9.0349 2.53943 0
M  V30 7602 C 1038.66 8.35226 3.79016 0
M  V30 7603 O 1037.6 7.57992 4.15078 0
M  V30 7604 C 1039.88 7.45087 3.67298 0
M  V30 7605 O 1040.61 7.27796 4.85194 0
M  V30 7606 C 1039.21 6.17323 3.12027 0
M  V30 7607 O 1040.01 5.04231 3.47188 0
M  V30 7608 C 1037.87 6.19961 3.81809 0
M  V30 7609 H 1037.9 5.58218 4.73051 0
M  V30 7610 H 1039.08 6.21726 2.02589 0
M  V30 7611 H 1040.57 7.86112 2.9231 0
M  V30 7612 H 1038.87 9.11627 4.55076 0
M  V30 7613 H 1038.68 9.9573 2.34194 0
M  V30 7614 H 1037.05 9.2792 2.67832 0
M  V30 7615 H 1039.69 4.67702 4.28772 0
M  V30 7616 P 1041.55 7.39546 4.75277 0
M  V30 7617 O 1042.97 7.81777 5.05738 0
M  V30 7618 O 1041.19 7.1065 3.32998 0
M  V30 7619 O 1041.23 6.04542 5.56673 0
M  V30 7620 C 1041.07 6.22772 7.02095 0
M  V30 7621 C 1041.61 4.97725 7.70406 0
M  V30 7622 O 1040.55 4.13256 7.58987 0
M  V30 7623 C 1042.83 4.28231 7.11815 0
M  V30 7624 O 1043.56 3.49945 8.01648 0
M  V30 7625 C 1042.16 3.5063 5.96244 0
M  V30 7626 O 1042.96 2.36482 5.64681 0
M  V30 7627 C 1040.82 3.15122 6.56374 0
M  V30 7628 H 1040.85 2.13853 6.99751 0
M  V30 7629 H 1042.04 4.13501 5.06559 0
M  V30 7630 H 1043.52 5.03285 6.70911 0
M  V30 7631 H 1041.83 5.20877 8.75697 0
M  V30 7632 H 1041.64 7.11046 7.35349 0
M  V30 7633 H 1040.01 6.35815 7.26986 0
M  V30 7634 H 1042.64 1.61644 6.13565 0
M  V30 7635 P 1044.5 3.65191 7.99657 0
M  V30 7636 O 1045.92 3.84333 8.48297 0
M  V30 7637 O 1044.14 4.17805 6.64342 0
M  V30 7638 O 1044.18 2.07613 7.95143 0
M  V30 7639 C 1044.02 1.44328 9.27336 0
M  V30 7640 C 1044.56 0.0220012 9.17097 0
M  V30 7641 O 1043.5 -0.626867 8.61923 0
M  V30 7642 C 1045.78 -0.24586 8.30336 0
M  V30 7643 O 1046.51 -1.39011 8.63583 0
M  V30 7644 C 1045.11 -0.273849 6.91158 0
M  V30 7645 O 1045.91 -1.06331 6.02794 0
M  V30 7646 C 1043.77 -0.897649 7.22545 0
M  V30 7647 N 1042.73 -0.292839 6.41732 0
M  V30 7648 C 1042.79 1.00068 6.10757 0
M  V30 7649 N 1041.74 1.36468 5.35794 0
M  V30 7650 C 1041.01 0.258894 5.2366 0
M  V30 7651 C 1039.7 0.0670682 4.65752 0
M  V30 7652 O 1038.97 0.902443 4.10497 0
M  V30 7653 N 1039.27 -1.2131 4.75881 0
M  V30 7654 C 1040.02 -2.24934 5.37101 0
M  V30 7655 N 1039.43 -3.48783 5.33984 0
M  V30 7656 N 1041.18 -2.0844 5.95684 0
M  V30 7657 C 1041.63 -0.81395 5.87791 0
M  V30 7658 H 1043.8 -1.9841 7.04286 0
M  V30 7659 H 1044.99 0.739815 6.49601 0
M  V30 7660 H 1046.47 0.598315 8.36563 0
M  V30 7661 H 1044.78 -0.352479 10.1829 0
M  V30 7662 H 1044.59 2.00611 10.0304 0
M  V30 7663 H 1042.95 1.41843 9.55327 0
M  V30 7664 H 1038.38 -1.44434 4.37895 0
M  V30 7665 H 1043.59 1.67697 6.42268 0
M  V30 7666 H 1038.52 -3.60543 4.87699 0
M  V30 7667 H 1039.89 -4.29232 5.7819 0
M  V30 7668 H 1045.6 -1.95704 6.0346 0
M  V30 7669 P 1047.45 -1.25109 8.70152 0
M  V30 7670 O 1048.87 -1.35274 9.21221 0
M  V30 7671 O 1047.09 -0.0769065 7.84762 0
M  V30 7672 O 1047.13 -2.55232 7.81161 0
M  V30 7673 C 1046.97 -3.79939 8.58154 0
M  V30 7674 C 1047.51 -4.94023 7.72785 0
M  V30 7675 O 1046.45 -5.18726 6.91205 0
M  V30 7676 C 1048.73 -4.69597 6.85231 0
M  V30 7677 O 1049.47 -5.83832 6.51337 0
M  V30 7678 C 1048.06 -3.96706 5.66633 0
M  V30 7679 O 1048.86 -4.15414 4.49689 0
M  V30 7680 C 1046.72 -4.66153 5.59313 0
M  V30 7681 H 1046.75 -5.47679 4.85214 0
M  V30 7682 H 1047.94 -2.89008 5.86566 0
M  V30 7683 H 1049.42 -4.0121 7.36511 0
M  V30 7684 H 1047.73 -5.80182 8.37584 0
M  V30 7685 H 1047.54 -3.73517 9.52265 0
M  V30 7686 H 1045.91 -3.97163 8.80359 0
M  V30 7687 H 1048.55 -4.90969 4.01921 0
M  V30 7688 P 1050.4 -5.75688 6.64379 0
M  V30 7689 O 1051.82 -6.11849 7.01846 0
M  V30 7690 O 1050.04 -4.30744 6.56026 0
M  V30 7691 O 1050.08 -6.37042 5.19165 0
M  V30 7692 C 1049.92 -7.83578 5.16515 0
M  V30 7693 C 1050.46 -8.33398 3.83019 0
M  V30 7694 O 1049.4 -8.10074 3.01034 0
M  V30 7695 C 1051.68 -7.65514 3.2257 0
M  V30 7696 O 1052.42 -8.4329 2.32297 0
M  V30 7697 C 1051.01 -6.40075 2.62207 0
M  V30 7698 O 1051.81 -5.92589 1.53712 0
M  V30 7699 C 1049.67 -6.9454 2.18503 0
M  V30 7700 H 1049.7 -7.23063 1.12091 0
M  V30 7701 H 1050.89 -5.6025 3.37201 0
M  V30 7702 H 1052.37 -7.35707 4.02681 0
M  V30 7703 H 1050.68 -9.40912 3.9095 0
M  V30 7704 H 1050.49 -8.29056 5.99158 0
M  V30 7705 H 1048.86 -8.10073 5.25882 0
M  V30 7706 H 1051.5 -6.30324 0.726794 0
M  V30 7707 P 1053.35 -8.4349 2.47671 0
M  V30 7708 O 1054.78 -8.94167 2.5964 0
M  V30 7709 O 1052.99 -7.1704 3.19006 0
M  V30 7710 O 1053.03 -8.16596 0.923387 0
M  V30 7711 C 1052.87 -9.38437 0.108857 0
M  V30 7712 C 1053.41 -9.08175 -1.28353 0
M  V30 7713 O 1052.35 -8.44229 -1.84713 0
M  V30 7714 C 1054.63 -8.18386 -1.42505 0
M  V30 7715 O 1055.37 -8.3501 -2.60497 0
M  V30 7716 C 1053.96 -6.80225 -1.25468 0
M  V30 7717 O 1054.76 -5.81621 -1.91066 0
M  V30 7718 C 1052.62 -7.02416 -1.9168 0
M  V30 7719 H 1052.65 -6.6888 -2.96621 0
M  V30 7720 H 1053.84 -6.53617 -0.192223 0
M  V30 7721 H 1055.32 -8.36622 -0.589963 0
M  V30 7722 H 1053.63 -10.0291 -1.79807 0
M  V30 7723 H 1053.44 -10.2138 0.558219 0
M  V30 7724 H 1051.81 -9.6579 0.0444202 0
M  V30 7725 H 1054.45 -5.69556 -2.79637 0
M  V30 7726 P 1056.3 -8.4349 -2.47671 0
M  V30 7727 O 1057.73 -8.92593 -2.65 0
M  V30 7728 O 1055.94 -7.7568 -1.19296 0
M  V30 7729 O 1055.98 -7.36886 -3.63805 0
M  V30 7730 C 1055.82 -7.95349 -4.982 0
M  V30 7731 C 1056.36 -6.94612 -5.98974 0
M  V30 7732 O 1055.31 -6.10347 -6.11815 0
M  V30 7733 C 1057.58 -6.11426 -5.62335 0
M  V30 7734 O 1058.32 -5.6162 -6.70584 0
M  V30 7735 C 1056.91 -5.04409 -4.73308 0
M  V30 7736 O 1057.71 -3.85992 -4.75183 0
M  V30 7737 C 1055.57 -4.8728 -5.41006 0
M  V30 7738 H 1055.61 -4.02333 -6.11157 0
M  V30 7739 H 1056.79 -5.39466 -3.69543 0
M  V30 7740 H 1058.27 -6.71916 -5.01943 0
M  V30 7741 H 1056.58 -7.4649 -6.93477 0
M  V30 7742 H 1056.39 -8.89416 -5.05237 0
M  V30 7743 H 1054.76 -8.14876 -5.18409 0
M  V30 7744 H 1057.4 -3.27957 -5.4317 0
M  V30 7745 P 1059.25 -5.75688 -6.64379 0
M  V30 7746 O 1060.68 -6.07627 -7.05504 0
M  V30 7747 O 1058.89 -5.88047 -5.19722 0
M  V30 7748 O 1058.93 -4.2322 -7.04443 0
M  V30 7749 C 1058.77 -3.99743 -8.4911 0
M  V30 7750 C 1059.31 -2.60516 -8.79425 0
M  V30 7751 O 1058.26 -1.82684 -8.4467 0
M  V30 7752 C 1060.53 -2.10343 -8.03628 0
M  V30 7753 O 1061.27 -1.09919 -8.67766 0
M  V30 7754 C 1059.86 -1.68446 -6.70876 0
M  V30 7755 O 1060.66 -0.678137 -6.08433 0
M  V30 7756 C 1058.52 -1.17436 -7.18567 0
M  V30 7757 H 1058.56 -0.0804732 -7.31656 0
M  V30 7758 H 1059.74 -2.54037 -6.02537 0
M  V30 7759 H 1061.22 -2.93881 -7.85526 0
M  V30 7760 H 1059.53 -2.53065 -9.86973 0
M  V30 7761 H 1059.34 -4.75072 -9.05887 0
M  V30 7762 H 1057.71 -4.05244 -8.76668 0
M  V30 7763 H 1060.35 0.177647 -6.34251 0
M  V30 7764 P 1062.21 -1.25109 -8.70152 0
M  V30 7765 O 1063.63 -1.29744 -9.22016 0
M  V30 7766 O 1061.85 -2.13714 -7.55141 0
M  V30 7767 O 1061.88 0.248149 -8.21425 0
M  V30 7768 C 1061.72 1.22779 -9.30434 0
M  V30 7769 C 1062.26 2.56293 -8.80664 0
M  V30 7770 O 1061.21 3.02979 -8.09349 0
M  V30 7771 C 1063.48 2.57523 -7.89775 0
M  V30 7772 O 1064.22 3.7668 -7.89438 0
M  V30 7773 C 1062.81 2.20997 -6.55446 0
M  V30 7774 O 1063.61 2.71895 -5.48509 0
M  V30 7775 C 1061.47 2.89693 -6.67988 0
M  V30 7776 H 1061.51 3.88793 -6.19859 0
M  V30 7777 H 1062.69 1.12046 -6.44229 0
M  V30 7778 H 1064.17 1.7746 -8.19711 0
M  V30 7779 H 1062.48 3.20706 -9.67112 0
M  V30 7780 H 1062.29 0.901032 -10.1892 0
M  V30 7781 H 1060.66 1.33049 -9.56592 0
M  V30 7782 H 1063.3 3.57847 -5.23962 0
M  V30 7783 P 1065.16 3.65191 -7.99657 0
M  V30 7784 O 1066.58 3.89374 -8.45885 0
M  V30 7785 O 1064.8 2.28472 -7.50807 0
M  V30 7786 O 1064.83 4.64972 -6.77611 0
M  V30 7787 C 1064.67 6.06383 -7.16428 0
M  V30 7788 C 1065.21 6.91731 -6.02299 0
M  V30 7789 O 1064.16 6.92369 -5.17005 0
M  V30 7790 C 1066.43 6.43627 -5.25174 0
M  V30 7791 O 1067.17 7.43686 -4.60469 0
M  V30 7792 C 1065.76 5.40275 -4.31916 0
M  V30 7793 O 1066.56 5.24878 -3.14911 0
M  V30 7794 C 1064.42 6.04847 -4.05327 0
M  V30 7795 N 1063.38 5.04166 -3.98114 0
M  V30 7796 C 1063.55 3.84629 -4.59066 0
M  V30 7797 N 1062.52 3.0363 -4.45343 0
M  V30 7798 C 1061.64 3.76722 -3.68523 0
M  V30 7799 C 1060.37 3.43528 -3.17088 0
M  V30 7800 N 1059.81 4.44526 -2.44231 0
M  V30 7801 C 1060.41 5.65243 -2.20146 0
M  V30 7802 N 1061.59 6.00221 -2.65453 0
M  V30 7803 C 1062.16 5.00564 -3.39083 0
M  V30 7804 H 1065.64 4.42969 -4.80867 0
M  V30 7805 H 1067.12 5.92458 -5.93643 0
M  V30 7806 H 1065.43 7.93295 -6.39407 0
M  V30 7807 H 1065.24 6.26671 -8.0846 0
M  V30 7808 H 1063.61 6.29101 -7.32804 0
M  V30 7809 H 1064.45 3.58193 -5.14248 0
M  V30 7810 H 1066.25 5.84223 -2.47279 0
M  V30 7811 P 1068.11 7.39546 -4.75277 0
M  V30 7812 O 1069.53 7.84798 -5.01039 0
M  V30 7813 O 1067.75 5.9812 -5.08098 0
M  V30 7814 O 1067.78 7.57503 -3.1866 0
M  V30 7815 C 1067.62 8.97357 -2.74833 0
M  V30 7816 C 1068.16 9.07548 -1.32709 0
M  V30 7817 O 1067.11 8.62072 -0.606159 0
M  V30 7818 C 1069.38 8.25383 -0.938334 0
M  V30 7819 O 1070.12 8.74577 0.146954 0
M  V30 7820 C 1068.71 6.8802 -0.712559 0
M  V30 7821 O 1069.51 6.1189 0.194655 0
M  V30 7822 C 1067.38 7.27966 -0.139777 0
M  V30 7823 H 1067.41 7.25354 0.961601 0
M  V30 7824 H 1068.59 6.32557 -1.65702 0
M  V30 7825 H 1070.07 8.19355 -1.79097 0
M  V30 7826 H 1068.38 10.1294 -1.10029 0
M  V30 7827 H 1068.19 9.64276 -3.41316 0
M  V30 7828 H 1066.56 9.25417 -2.76357 0
M  V30 7829 H 1069.2 6.25267 1.07847 0
M  V30 7830 P 1071.06 8.791 8.48649e-12 0
M  V30 7831 O 1072.48 9.31196 0.027936 0
M  V30 7832 O 1070.7 7.77869 -1.04071 0
M  V30 7833 O 1070.73 8.09533 1.41463 0
M  V30 7834 C 1070.57 9.03587 2.5397 0
M  V30 7835 C 1071.11 8.35226 3.79016 0
M  V30 7836 O 1070.06 7.57904 4.1503 0
M  V30 7837 C 1072.33 7.45087 3.67298 0
M  V30 7838 O 1073.07 7.27796 4.85194 0
M  V30 7839 C 1071.66 6.17323 3.12027 0
M  V30 7840 O 1072.46 5.04496 3.46627 0
M  V30 7841 C 1070.33 6.19961 3.81809 0
M  V30 7842 N 1069.28 5.71575 2.93223 0
M  V30 7843 C 1069.45 5.77362 1.59168 0
M  V30 7844 N 1068.42 5.3123 0.911893 0
M  V30 7845 C 1067.54 4.91717 1.89588 0
M  V30 7846 C 1066.27 4.3114 1.8076 0
M  V30 7847 N 1065.71 4.06823 3.02898 0
M  V30 7848 C 1066.31 4.35062 4.22711 0
M  V30 7849 N 1067.49 4.90805 4.35707 0
M  V30 7850 C 1068.06 5.16382 3.14469 0
M  V30 7851 H 1071.54 6.21428 2.0318 0
M  V30 7852 H 1073.02 7.86112 2.9231 0
M  V30 7853 H 1071.33 9.11171 4.55987 0
M  V30 7854 H 1071.14 9.9573 2.34194 0
M  V30 7855 H 1069.51 9.2792 2.67832 0
M  V30 7856 H 1070.35 6.16575 1.12198 0
M  V30 7857 H 1072.15 4.67628 4.28704 0
M  V30 7858 P 1074.01 7.39546 4.75277 0
M  V30 7859 O 1075.43 7.81777 5.05738 0
M  V30 7860 O 1073.65 7.1065 3.32998 0
M  V30 7861 O 1073.68 6.04542 5.56673 0
M  V30 7862 C 1073.52 6.22772 7.02095 0
M  V30 7863 C 1074.06 4.97725 7.70406 0
M  V30 7864 O 1073.01 4.13256 7.58987 0
M  V30 7865 C 1075.28 4.28231 7.11815 0
M  V30 7866 O 1076.02 3.49945 8.01648 0
M  V30 7867 C 1074.61 3.5063 5.96244 0
M  V30 7868 O 1075.41 2.36482 5.64681 0
M  V30 7869 C 1073.28 3.15122 6.56374 0
M  V30 7870 H 1073.31 2.13853 6.99751 0
M  V30 7871 H 1074.49 4.13501 5.06559 0
M  V30 7872 H 1075.98 5.03285 6.70911 0
M  V30 7873 H 1074.28 5.20877 8.75697 0
M  V30 7874 H 1074.09 7.11046 7.35349 0
M  V30 7875 H 1072.46 6.35815 7.26986 0
M  V30 7876 H 1075.1 1.61644 6.13565 0
M  V30 7877 P 1076.96 3.65191 7.99657 0
M  V30 7878 O 1078.38 3.84292 8.48206 0
M  V30 7879 O 1076.6 4.17805 6.64342 0
M  V30 7880 O 1076.64 2.07613 7.95143 0
M  V30 7881 C 1076.47 1.44344 9.27435 0
M  V30 7882 C 1077.02 0.0220036 9.17197 0
M  V30 7883 O 1075.96 -0.626794 8.61824 0
M  V30 7884 C 1078.23 -0.24586 8.30336 0
M  V30 7885 O 1078.97 -1.39011 8.63583 0
M  V30 7886 C 1077.57 -0.273849 6.91158 0
M  V30 7887 O 1078.36 -1.05728 6.029 0
M  V30 7888 C 1076.23 -0.897649 7.22545 0
M  V30 7889 N 1075.18 -0.292839 6.41732 0
M  V30 7890 C 1075.35 0.950603 5.91308 0
M  V30 7891 N 1074.33 1.37732 5.21105 0
M  V30 7892 C 1073.44 0.318109 5.26039 0
M  V30 7893 C 1072.17 0.146766 4.6727 0
M  V30 7894 N 1071.61 -1.06525 4.95887 0
M  V30 7895 C 1072.21 -2.0378 5.71347 0
M  V30 7896 N 1073.39 -1.92445 6.27451 0
M  V30 7897 C 1073.96 -0.715382 6.00353 0
M  V30 7898 H 1077.44 0.733318 6.49674 0
M  V30 7899 H 1078.93 0.60668 8.36503 0
M  V30 7900 H 1077.23 -0.362662 10.1825 0
M  V30 7901 H 1077.04 2.00611 10.0304 0
M  V30 7902 H 1075.41 1.41843 9.55327 0
M  V30 7903 H 1076.25 1.54076 6.07465 0
M  V30 7904 H 1078.05 -1.95704 6.0346 0
M  V30 7905 P 1079.91 -1.25109 8.70152 0
M  V30 7906 O 1081.33 -1.35274 9.21221 0
M  V30 7907 O 1079.55 -0.0769065 7.84762 0
M  V30 7908 O 1079.59 -2.55232 7.81161 0
M  V30 7909 C 1079.43 -3.79939 8.58154 0
M  V30 7910 C 1079.97 -4.94023 7.72785 0
M  V30 7911 O 1078.91 -5.18726 6.91205 0
M  V30 7912 C 1081.18 -4.69597 6.85231 0
M  V30 7913 O 1081.92 -5.83832 6.51337 0
M  V30 7914 C 1080.51 -3.96706 5.66633 0
M  V30 7915 O 1081.31 -4.15414 4.49689 0
M  V30 7916 C 1079.18 -4.66153 5.59313 0
M  V30 7917 H 1079.21 -5.47679 4.85214 0
M  V30 7918 H 1080.39 -2.89008 5.86566 0
M  V30 7919 H 1081.88 -4.0121 7.36511 0
M  V30 7920 H 1080.18 -5.80182 8.37584 0
M  V30 7921 H 1079.99 -3.73517 9.52265 0
M  V30 7922 H 1078.36 -3.97163 8.80359 0
M  V30 7923 H 1081 -4.90969 4.01921 0
M  V30 7924 P 1082.86 -5.75688 6.64379 0
M  V30 7925 O 1084.28 -6.11849 7.01846 0
M  V30 7926 O 1082.5 -4.30744 6.56026 0
M  V30 7927 O 1082.54 -6.37042 5.19165 0
M  V30 7928 C 1082.38 -7.83578 5.16515 0
M  V30 7929 C 1082.92 -8.33398 3.83019 0
M  V30 7930 O 1081.86 -8.10074 3.01034 0
M  V30 7931 C 1084.13 -7.65514 3.2257 0
M  V30 7932 O 1084.87 -8.4329 2.32297 0
M  V30 7933 C 1083.47 -6.40075 2.62207 0
M  V30 7934 O 1084.26 -5.92589 1.53712 0
M  V30 7935 C 1082.13 -6.9454 2.18503 0
M  V30 7936 H 1082.16 -7.23063 1.12091 0
M  V30 7937 H 1083.34 -5.6025 3.37201 0
M  V30 7938 H 1084.83 -7.35707 4.02681 0
M  V30 7939 H 1083.13 -9.40912 3.9095 0
M  V30 7940 H 1082.94 -8.29056 5.99158 0
M  V30 7941 H 1081.31 -8.10073 5.25882 0
M  V30 7942 H 1083.95 -6.30324 0.726794 0
M  V30 7943 P 1085.81 -8.4349 2.47671 0
M  V30 7944 O 1087.23 -8.94167 2.5964 0
M  V30 7945 O 1085.45 -7.1704 3.19006 0
M  V30 7946 O 1085.49 -8.16596 0.923387 0
M  V30 7947 C 1085.33 -9.38437 0.108857 0
M  V30 7948 C 1085.87 -9.08175 -1.28353 0
M  V30 7949 O 1084.81 -8.44229 -1.84713 0
M  V30 7950 C 1087.08 -8.18386 -1.42505 0
M  V30 7951 O 1087.82 -8.3501 -2.60497 0
M  V30 7952 C 1086.42 -6.80225 -1.25468 0
M  V30 7953 O 1087.21 -5.81621 -1.91066 0
M  V30 7954 C 1085.08 -7.02416 -1.9168 0
M  V30 7955 H 1085.11 -6.6888 -2.96621 0
M  V30 7956 H 1086.29 -6.53617 -0.192223 0
M  V30 7957 H 1087.78 -8.36622 -0.589963 0
M  V30 7958 H 1086.08 -10.0291 -1.79807 0
M  V30 7959 H 1085.89 -10.2138 0.558219 0
M  V30 7960 H 1084.26 -9.6579 0.0444202 0
M  V30 7961 H 1086.9 -5.69556 -2.79637 0
M  V30 7962 P 1088.76 -8.4349 -2.47671 0
M  V30 7963 O 1090.18 -8.92689 -2.65029 0
M  V30 7964 O 1088.4 -7.7568 -1.19296 0
M  V30 7965 O 1088.44 -7.36886 -3.63805 0
M  V30 7966 C 1088.28 -7.95433 -4.98253 0
M  V30 7967 C 1088.82 -6.94612 -5.98974 0
M  V30 7968 O 1087.76 -6.10277 -6.11744 0
M  V30 7969 C 1090.04 -6.11426 -5.62335 0
M  V30 7970 O 1090.77 -5.6162 -6.70584 0
M  V30 7971 C 1089.37 -5.04409 -4.73308 0
M  V30 7972 O 1090.17 -3.86404 -4.74719 0
M  V30 7973 C 1088.03 -4.8728 -5.41006 0
M  V30 7974 N 1086.99 -4.65812 -4.42377 0
M  V30 7975 C 1087.16 -5.09132 -3.15382 0
M  V30 7976 N 1086.13 -4.84021 -2.3716 0
M  V30 7977 C 1085.24 -4.18386 -3.20441 0
M  V30 7978 C 1083.98 -3.6275 -2.94905 0
M  V30 7979 N 1083.38 -3.65794 -1.73372 0
M  V30 7980 N 1083.41 -3.05008 -4.05243 0
M  V30 7981 C 1084.01 -2.98348 -5.28159 0
M  V30 7982 N 1085.19 -3.48171 -5.56333 0
M  V30 7983 C 1085.77 -4.06869 -4.47212 0
M  V30 7984 H 1088.06 -4.02278 -6.11074 0
M  V30 7985 H 1089.24 -5.39013 -3.70026 0
M  V30 7986 H 1090.73 -6.71916 -5.01943 0
M  V30 7987 H 1089.03 -7.45796 -6.94223 0
M  V30 7988 H 1088.84 -8.89416 -5.05237 0
M  V30 7989 H 1087.21 -8.14876 -5.18409 0
M  V30 7990 H 1083.48 -2.47853 -6.07807 0
M  V30 7991 H 1088.06 -5.59989 -2.81362 0
M  V30 7992 H 1082.45 -3.23218 -1.60782 0
M  V30 7993 H 1083.85 -4.10523 -0.937856 0
M  V30 7994 H 1089.85 -3.27906 -5.43085 0
M  V30 7995 P 1091.71 -5.75688 -6.64379 0
M  V30 7996 O 1093.13 -6.07627 -7.05504 0
M  V30 7997 O 1091.35 -5.88047 -5.19722 0
M  V30 7998 O 1091.39 -4.2322 -7.04443 0
M  V30 7999 C 1091.23 -3.99743 -8.4911 0
M  V30 8000 C 1091.77 -2.60516 -8.79425 0
M  V30 8001 O 1090.71 -1.82684 -8.4467 0
M  V30 8002 C 1092.99 -2.10343 -8.03628 0
M  V30 8003 O 1093.72 -1.09919 -8.67766 0
M  V30 8004 C 1092.32 -1.68446 -6.70876 0
M  V30 8005 O 1093.12 -0.678137 -6.08433 0
M  V30 8006 C 1090.98 -1.17436 -7.18567 0
M  V30 8007 H 1091.01 -0.0804732 -7.31656 0
M  V30 8008 H 1092.19 -2.54037 -6.02537 0
M  V30 8009 H 1093.68 -2.93881 -7.85526 0
M  V30 8010 H 1091.98 -2.53065 -9.86973 0
M  V30 8011 H 1091.79 -4.75072 -9.05887 0
M  V30 8012 H 1090.16 -4.05244 -8.76668 0
M  V30 8013 H 1092.8 0.177647 -6.34251 0
M  V30 8014 P 1094.66 -1.25109 -8.70152 0
M  V30 8015 O 1096.08 -1.29758 -9.22115 0
M  V30 8016 O 1094.3 -2.13714 -7.55141 0
M  V30 8017 O 1094.34 0.248149 -8.21425 0
M  V30 8018 C 1094.18 1.22792 -9.30533 0
M  V30 8019 C 1094.72 2.56293 -8.80664 0
M  V30 8020 O 1093.66 3.02944 -8.09255 0
M  V30 8021 C 1095.94 2.57523 -7.89775 0
M  V30 8022 O 1096.67 3.7668 -7.89438 0
M  V30 8023 C 1095.27 2.20997 -6.55446 0
M  V30 8024 O 1096.07 2.71302 -5.48691 0
M  V30 8025 C 1093.93 2.89693 -6.67988 0
M  V30 8026 N 1092.89 2.08895 -6.07487 0
M  V30 8027 C 1093.06 0.753809 -5.94137 0
M  V30 8028 N 1092.03 0.146592 -5.38801 0
M  V30 8029 C 1091.14 1.1768 -5.13693 0
M  V30 8030 C 1089.88 1.17563 -4.52477 0
M  V30 8031 N 1089.28 0.057481 -4.04759 0
M  V30 8032 N 1089.31 2.41918 -4.45789 0
M  V30 8033 C 1089.91 3.56493 -4.90792 0
M  V30 8034 N 1091.09 3.61423 -5.47817 0
M  V30 8035 C 1091.67 2.37779 -5.5588 0
M  V30 8036 H 1093.96 3.8874 -6.19774 0
M  V30 8037 H 1095.15 1.12673 -6.44018 0
M  V30 8038 H 1096.63 1.7746 -8.19711 0
M  V30 8039 H 1094.93 3.21673 -9.66791 0
M  V30 8040 H 1094.74 0.901032 -10.1892 0
M  V30 8041 H 1093.11 1.33049 -9.56592 0
M  V30 8042 H 1089.38 4.49919 -4.77947 0
M  V30 8043 H 1093.96 0.233081 -6.26266 0
M  V30 8044 H 1088.35 0.119831 -3.60801 0
M  V30 8045 H 1089.75 -0.852272 -4.12385 0
M  V30 8046 H 1095.75 3.5779 -5.23879 0
M  V30 8047 P 1097.61 3.65191 -7.99657 0
M  V30 8048 O 1099.03 3.89332 -8.45794 0
M  V30 8049 O 1097.25 2.28472 -7.50807 0
M  V30 8050 O 1097.29 4.64972 -6.77611 0
M  V30 8051 C 1097.13 6.06319 -7.16352 0
M  V30 8052 C 1097.67 6.91731 -6.02299 0
M  V30 8053 O 1096.61 6.92449 -5.17064 0
M  V30 8054 C 1098.89 6.43627 -5.25174 0
M  V30 8055 O 1099.63 7.43686 -4.60469 0
M  V30 8056 C 1098.22 5.40275 -4.31916 0
M  V30 8057 O 1099.02 5.25279 -3.14438 0
M  V30 8058 C 1096.88 6.04847 -4.05327 0
M  V30 8059 H 1096.91 6.62195 -3.11261 0
M  V30 8060 H 1098.1 4.42556 -4.81383 0
M  V30 8061 H 1099.58 5.92458 -5.93643 0
M  V30 8062 H 1097.89 7.92655 -6.402 0
M  V30 8063 H 1097.7 6.26671 -8.0846 0
M  V30 8064 H 1096.07 6.29101 -7.32804 0
M  V30 8065 H 1098.71 5.84315 -2.47318 0
M  V30 8066 P 1100.56 7.39546 -4.75277 0
M  V30 8067 O 1101.98 7.84882 -5.01092 0
M  V30 8068 O 1100.2 5.9812 -5.08098 0
M  V30 8069 O 1100.24 7.57503 -3.1866 0
M  V30 8070 C 1100.08 8.97452 -2.74862 0
M  V30 8071 C 1100.62 9.07548 -1.32709 0
M  V30 8072 O 1099.56 8.61972 -0.606089 0
M  V30 8073 C 1101.84 8.25383 -0.938334 0
M  V30 8074 O 1102.58 8.74577 0.146954 0
M  V30 8075 C 1101.17 6.8802 -0.712559 0
M  V30 8076 O 1101.97 6.1181 0.188505 0
M  V30 8077 C 1099.83 7.27966 -0.139777 0
M  V30 8078 N 1098.79 6.39368 -0.623421 0
M  V30 8079 C 1098.96 5.71761 -1.78245 0
M  V30 8080 N 1097.93 4.962 -2.10491 0
M  V30 8081 C 1097.05 5.16158 -1.0635 0
M  V30 8082 C 1095.78 4.60425 -0.810266 0
M  V30 8083 N 1095.21 5.06 0.348685 0
M  V30 8084 C 1095.82 5.94532 1.20395 0
M  V30 8085 N 1096.99 6.48452 1.01191 0
M  V30 8086 C 1097.57 6.04423 -0.146291 0
M  V30 8087 H 1101.05 6.32625 -1.65044 0
M  V30 8088 H 1102.53 8.19355 -1.79097 0
M  V30 8089 H 1100.84 10.1305 -1.09016 0
M  V30 8090 H 1100.65 9.64276 -3.41316 0
M  V30 8091 H 1099.02 9.25417 -2.76357 0
M  V30 8092 H 1099.86 5.79354 -2.38959 0
M  V30 8093 H 1101.66 6.25169 1.0783 0
M  V30 8094 P 1103.51 8.791 8.79665e-12 0
M  V30 8095 O 1104.94 9.31096 0.027933 0
M  V30 8096 O 1103.15 7.77869 -1.04071 0
M  V30 8097 O 1103.19 8.09533 1.41463 0
M  V30 8098 C 1103.03 9.0349 2.53943 0
M  V30 8099 C 1103.57 8.35226 3.79016 0
M  V30 8100 O 1102.51 7.57992 4.15078 0
M  V30 8101 C 1104.79 7.45087 3.67298 0
M  V30 8102 O 1105.53 7.27796 4.85194 0
M  V30 8103 C 1104.12 6.17323 3.12027 0
M  V30 8104 O 1104.92 5.04231 3.47188 0
M  V30 8105 C 1102.78 6.19961 3.81809 0
M  V30 8106 H 1102.81 5.58218 4.73051 0
M  V30 8107 H 1104 6.21726 2.02589 0
M  V30 8108 H 1105.48 7.86112 2.9231 0
M  V30 8109 H 1103.79 9.11627 4.55076 0
M  V30 8110 H 1103.6 9.9573 2.34194 0
M  V30 8111 H 1101.97 9.2792 2.67832 0
M  V30 8112 H 1104.61 4.67702 4.28772 0
M  V30 8113 P 1106.46 7.39546 4.75277 0
M  V30 8114 O 1107.89 7.81777 5.05738 0
M  V30 8115 O 1106.1 7.1065 3.32998 0
M  V30 8116 O 1106.14 6.04542 5.56673 0
M  V30 8117 C 1105.98 6.22772 7.02095 0
M  V30 8118 C 1106.52 4.97725 7.70406 0
M  V30 8119 O 1105.46 4.13256 7.58987 0
M  V30 8120 C 1107.74 4.28231 7.11815 0
M  V30 8121 O 1108.48 3.49945 8.01648 0
M  V30 8122 C 1107.07 3.5063 5.96244 0
M  V30 8123 O 1107.87 2.36482 5.64681 0
M  V30 8124 C 1105.73 3.15122 6.56374 0
M  V30 8125 H 1105.76 2.13853 6.99751 0
M  V30 8126 H 1106.95 4.13501 5.06559 0
M  V30 8127 H 1108.43 5.03285 6.70911 0
M  V30 8128 H 1106.74 5.20877 8.75697 0
M  V30 8129 H 1106.55 7.11046 7.35349 0
M  V30 8130 H 1104.92 6.35815 7.26986 0
M  V30 8131 H 1107.56 1.61644 6.13565 0
M  V30 8132 P 1109.41 3.65191 7.99657 0
M  V30 8133 O 1110.84 3.84292 8.48206 0
M  V30 8134 O 1109.05 4.17805 6.64342 0
M  V30 8135 O 1109.09 2.07613 7.95143 0
M  V30 8136 C 1108.93 1.44344 9.27435 0
M  V30 8137 C 1109.47 0.0220036 9.17197 0
M  V30 8138 O 1108.42 -0.626794 8.61824 0
M  V30 8139 C 1110.69 -0.24586 8.30336 0
M  V30 8140 O 1111.43 -1.39011 8.63583 0
M  V30 8141 C 1110.02 -0.273849 6.91158 0
M  V30 8142 O 1110.82 -1.05728 6.029 0
M  V30 8143 C 1108.68 -0.897649 7.22545 0
M  V30 8144 N 1107.64 -0.292839 6.41732 0
M  V30 8145 C 1107.81 0.950603 5.91308 0
M  V30 8146 N 1106.78 1.37732 5.21105 0
M  V30 8147 C 1105.9 0.318109 5.26039 0
M  V30 8148 C 1104.63 0.146766 4.6727 0
M  V30 8149 N 1104.07 -1.06525 4.95887 0
M  V30 8150 C 1104.67 -2.0378 5.71347 0
M  V30 8151 N 1105.84 -1.92445 6.27451 0
M  V30 8152 C 1106.42 -0.715382 6.00353 0
M  V30 8153 H 1109.9 0.733318 6.49674 0
M  V30 8154 H 1111.38 0.60668 8.36503 0
M  V30 8155 H 1109.69 -0.362662 10.1825 0
M  V30 8156 H 1109.5 2.00611 10.0304 0
M  V30 8157 H 1107.87 1.41843 9.55327 0
M  V30 8158 H 1108.71 1.54076 6.07465 0
M  V30 8159 H 1110.51 -1.95704 6.0346 0
M  V30 8160 P 1112.36 -1.25109 8.70152 0
M  V30 8161 O 1113.79 -1.35274 9.21221 0
M  V30 8162 O 1112 -0.0769065 7.84762 0
M  V30 8163 O 1112.04 -2.55232 7.81161 0
M  V30 8164 C 1111.88 -3.79939 8.58154 0
M  V30 8165 C 1112.42 -4.94023 7.72785 0
M  V30 8166 O 1111.37 -5.18726 6.91205 0
M  V30 8167 C 1113.64 -4.69597 6.85231 0
M  V30 8168 O 1114.38 -5.83832 6.51337 0
M  V30 8169 C 1112.97 -3.96706 5.66633 0
M  V30 8170 O 1113.77 -4.15414 4.49689 0
M  V30 8171 C 1111.63 -4.66153 5.59313 0
M  V30 8172 H 1111.67 -5.47679 4.85214 0
M  V30 8173 H 1112.85 -2.89008 5.86566 0
M  V30 8174 H 1114.33 -4.0121 7.36511 0
M  V30 8175 H 1112.64 -5.80182 8.37584 0
M  V30 8176 H 1112.45 -3.73517 9.52265 0
M  V30 8177 H 1110.82 -3.97163 8.80359 0
M  V30 8178 H 1113.46 -4.90969 4.01921 0
M  V30 8179 P 1115.32 -5.75688 6.64379 0
M  V30 8180 O 1116.74 -6.11849 7.01846 0
M  V30 8181 O 1114.96 -4.30744 6.56026 0
M  V30 8182 O 1114.99 -6.37042 5.19165 0
M  V30 8183 C 1114.83 -7.83578 5.16515 0
M  V30 8184 C 1115.37 -8.33398 3.83019 0
M  V30 8185 O 1114.32 -8.10074 3.01034 0
M  V30 8186 C 1116.59 -7.65514 3.2257 0
M  V30 8187 O 1117.33 -8.4329 2.32297 0
M  V30 8188 C 1115.92 -6.40075 2.62207 0
M  V30 8189 O 1116.72 -5.92589 1.53712 0
M  V30 8190 C 1114.58 -6.9454 2.18503 0
M  V30 8191 H 1114.62 -7.23063 1.12091 0
M  V30 8192 H 1115.8 -5.6025 3.37201 0
M  V30 8193 H 1117.28 -7.35707 4.02681 0
M  V30 8194 H 1115.59 -9.40912 3.9095 0
M  V30 8195 H 1115.4 -8.29056 5.99158 0
M  V30 8196 H 1113.77 -8.10073 5.25882 0
M  V30 8197 H 1116.41 -6.30324 0.726794 0
M  V30 8198 P 1118.27 -8.4349 2.47671 0
M  V30 8199 O 1119.69 -8.94167 2.5964 0
M  V30 8200 O 1117.91 -7.1704 3.19006 0
M  V30 8201 O 1117.94 -8.16596 0.923387 0
M  V30 8202 C 1117.78 -9.38437 0.108857 0
M  V30 8203 C 1118.32 -9.08175 -1.28353 0
M  V30 8204 O 1117.27 -8.44229 -1.84713 0
M  V30 8205 C 1119.54 -8.18386 -1.42505 0
M  V30 8206 O 1120.28 -8.3501 -2.60497 0
M  V30 8207 C 1118.87 -6.80225 -1.25468 0
M  V30 8208 O 1119.67 -5.81621 -1.91066 0
M  V30 8209 C 1117.54 -7.02416 -1.9168 0
M  V30 8210 H 1117.57 -6.6888 -2.96621 0
M  V30 8211 H 1118.75 -6.53617 -0.192223 0
M  V30 8212 H 1120.23 -8.36622 -0.589963 0
M  V30 8213 H 1118.54 -10.0291 -1.79807 0
M  V30 8214 H 1118.35 -10.2138 0.558219 0
M  V30 8215 H 1116.72 -9.6579 0.0444202 0
M  V30 8216 H 1119.36 -5.69556 -2.79637 0
M  V30 8217 P 1121.22 -8.4349 -2.47671 0
M  V30 8218 O 1122.64 -8.92689 -2.65029 0
M  V30 8219 O 1120.86 -7.7568 -1.19296 0
M  V30 8220 O 1120.89 -7.36886 -3.63805 0
M  V30 8221 C 1120.73 -7.95433 -4.98253 0
M  V30 8222 C 1121.27 -6.94612 -5.98974 0
M  V30 8223 O 1120.22 -6.10277 -6.11744 0
M  V30 8224 C 1122.49 -6.11426 -5.62335 0
M  V30 8225 O 1123.23 -5.6162 -6.70584 0
M  V30 8226 C 1121.82 -5.04409 -4.73308 0
M  V30 8227 O 1122.62 -3.86404 -4.74719 0
M  V30 8228 C 1120.49 -4.8728 -5.41006 0
M  V30 8229 N 1119.44 -4.65812 -4.42377 0
M  V30 8230 C 1119.61 -5.09132 -3.15382 0
M  V30 8231 N 1118.58 -4.84021 -2.3716 0
M  V30 8232 C 1117.7 -4.18386 -3.20441 0
M  V30 8233 C 1116.43 -3.6275 -2.94905 0
M  V30 8234 N 1115.87 -3.05008 -4.05243 0
M  V30 8235 C 1116.47 -2.98348 -5.28159 0
M  V30 8236 N 1117.65 -3.48171 -5.56333 0
M  V30 8237 C 1118.22 -4.06869 -4.47212 0
M  V30 8238 H 1121.7 -5.39013 -3.70026 0
M  V30 8239 H 1123.18 -6.71916 -5.01943 0
M  V30 8240 H 1121.49 -7.45796 -6.94223 0
M  V30 8241 H 1121.3 -8.89416 -5.05237 0
M  V30 8242 H 1119.67 -8.14876 -5.18409 0
M  V30 8243 H 1120.51 -5.59989 -2.81362 0
M  V30 8244 H 1122.31 -3.27906 -5.43085 0
M  V30 8245 P 1124.17 -5.75688 -6.64379 0
M  V30 8246 O 1125.59 -6.07627 -7.05504 0
M  V30 8247 O 1123.81 -5.88047 -5.19722 0
M  V30 8248 O 1123.84 -4.2322 -7.04443 0
M  V30 8249 C 1123.68 -3.99743 -8.4911 0
M  V30 8250 C 1124.22 -2.60516 -8.79425 0
M  V30 8251 O 1123.17 -1.82684 -8.4467 0
M  V30 8252 C 1125.44 -2.10343 -8.03628 0
M  V30 8253 O 1126.18 -1.09919 -8.67766 0
M  V30 8254 C 1124.77 -1.68446 -6.70876 0
M  V30 8255 O 1125.57 -0.678137 -6.08433 0
M  V30 8256 C 1123.44 -1.17436 -7.18567 0
M  V30 8257 H 1123.47 -0.0804732 -7.31656 0
M  V30 8258 H 1124.65 -2.54037 -6.02537 0
M  V30 8259 H 1126.14 -2.93881 -7.85526 0
M  V30 8260 H 1124.44 -2.53065 -9.86973 0
M  V30 8261 H 1124.25 -4.75072 -9.05887 0
M  V30 8262 H 1122.62 -4.05244 -8.76668 0
M  V30 8263 H 1125.26 0.177647 -6.34251 0
M  V30 8264 P 1127.12 -1.25109 -8.70152 0
M  V30 8265 O 1128.54 -1.29744 -9.22016 0
M  V30 8266 O 1126.76 -2.13714 -7.55141 0
M  V30 8267 O 1126.79 0.248149 -8.21425 0
M  V30 8268 C 1126.63 1.22779 -9.30434 0
M  V30 8269 C 1127.17 2.56293 -8.80664 0
M  V30 8270 O 1126.12 3.02979 -8.09349 0
M  V30 8271 C 1128.39 2.57523 -7.89775 0
M  V30 8272 O 1129.13 3.7668 -7.89438 0
M  V30 8273 C 1127.72 2.20997 -6.55446 0
M  V30 8274 O 1128.52 2.71895 -5.48509 0
M  V30 8275 C 1126.39 2.89693 -6.67988 0
M  V30 8276 H 1126.42 3.88793 -6.19859 0
M  V30 8277 H 1127.6 1.12046 -6.44229 0
M  V30 8278 H 1129.09 1.7746 -8.19711 0
M  V30 8279 H 1127.39 3.20706 -9.67112 0
M  V30 8280 H 1127.2 0.901032 -10.1892 0
M  V30 8281 H 1125.57 1.33049 -9.56592 0
M  V30 8282 H 1128.21 3.57847 -5.23962 0
M  V30 8283 P 1130.07 3.65191 -7.99657 0
M  V30 8284 O 1131.49 3.89332 -8.45794 0
M  V30 8285 O 1129.71 2.28472 -7.50807 0
M  V30 8286 O 1129.75 4.64972 -6.77611 0
M  V30 8287 C 1129.59 6.06319 -7.16352 0
M  V30 8288 C 1130.13 6.91731 -6.02299 0
M  V30 8289 O 1129.07 6.92449 -5.17064 0
M  V30 8290 C 1131.34 6.43627 -5.25174 0
M  V30 8291 O 1132.08 7.43686 -4.60469 0
M  V30 8292 C 1130.67 5.40275 -4.31916 0
M  V30 8293 O 1131.47 5.25279 -3.14438 0
M  V30 8294 C 1129.34 6.04847 -4.05327 0
M  V30 8295 H 1129.37 6.62195 -3.11261 0
M  V30 8296 H 1130.55 4.42556 -4.81383 0
M  V30 8297 H 1132.04 5.92458 -5.93643 0
M  V30 8298 H 1130.34 7.92655 -6.402 0
M  V30 8299 H 1130.15 6.26671 -8.0846 0
M  V30 8300 H 1128.52 6.29101 -7.32804 0
M  V30 8301 H 1131.16 5.84315 -2.47318 0
M  V30 8302 P 1133.02 7.39546 -4.75277 0
M  V30 8303 O 1134.44 7.84798 -5.01039 0
M  V30 8304 O 1132.66 5.9812 -5.08098 0
M  V30 8305 O 1132.7 7.57503 -3.1866 0
M  V30 8306 C 1132.54 8.97357 -2.74833 0
M  V30 8307 C 1133.08 9.07548 -1.32709 0
M  V30 8308 O 1132.02 8.62072 -0.606159 0
M  V30 8309 C 1134.29 8.25383 -0.938334 0
M  V30 8310 O 1135.03 8.74577 0.146954 0
M  V30 8311 C 1133.62 6.8802 -0.712559 0
M  V30 8312 O 1134.42 6.1189 0.194655 0
M  V30 8313 C 1132.29 7.27966 -0.139777 0
M  V30 8314 H 1132.32 7.25354 0.961601 0
M  V30 8315 H 1133.5 6.32557 -1.65702 0
M  V30 8316 H 1134.99 8.19355 -1.79097 0
M  V30 8317 H 1133.29 10.1294 -1.10029 0
M  V30 8318 H 1133.1 9.64276 -3.41316 0
M  V30 8319 H 1131.47 9.25417 -2.76357 0
M  V30 8320 H 1134.11 6.25267 1.07847 0
M  V30 8321 P 1135.97 8.791 9.10682e-12 0
M  V30 8322 O 1137.39 9.31196 0.027936 0
M  V30 8323 O 1135.61 7.77869 -1.04071 0
M  V30 8324 O 1135.65 8.09533 1.41463 0
M  V30 8325 C 1135.49 9.03587 2.5397 0
M  V30 8326 C 1136.03 8.35226 3.79016 0
M  V30 8327 O 1134.97 7.57904 4.1503 0
M  V30 8328 C 1137.24 7.45087 3.67298 0
M  V30 8329 O 1137.98 7.27796 4.85194 0
M  V30 8330 C 1136.58 6.17323 3.12027 0
M  V30 8331 O 1137.37 5.04496 3.46627 0
M  V30 8332 C 1135.24 6.19961 3.81809 0
M  V30 8333 N 1134.2 5.71575 2.93223 0
M  V30 8334 C 1134.36 5.77362 1.59168 0
M  V30 8335 N 1133.34 5.3123 0.911893 0
M  V30 8336 C 1132.45 4.91717 1.89588 0
M  V30 8337 C 1131.19 4.3114 1.8076 0
M  V30 8338 N 1130.62 4.06823 3.02898 0
M  V30 8339 C 1131.22 4.35062 4.22711 0
M  V30 8340 N 1132.4 4.90805 4.35707 0
M  V30 8341 C 1132.97 5.16382 3.14469 0
M  V30 8342 H 1136.45 6.21428 2.0318 0
M  V30 8343 H 1137.94 7.86112 2.9231 0
M  V30 8344 H 1136.24 9.11171 4.55987 0
M  V30 8345 H 1136.05 9.9573 2.34194 0
M  V30 8346 H 1134.42 9.2792 2.67832 0
M  V30 8347 H 1135.26 6.16575 1.12198 0
M  V30 8348 H 1137.06 4.67628 4.28704 0
M  V30 8349 P 1138.92 7.39546 4.75277 0
M  V30 8350 O 1140.34 7.81777 5.05738 0
M  V30 8351 O 1138.56 7.1065 3.32998 0
M  V30 8352 O 1138.6 6.04542 5.56673 0
M  V30 8353 C 1138.44 6.22772 7.02095 0
M  V30 8354 C 1138.98 4.97725 7.70406 0
M  V30 8355 O 1137.92 4.13256 7.58987 0
M  V30 8356 C 1140.2 4.28231 7.11815 0
M  V30 8357 O 1140.93 3.49945 8.01648 0
M  V30 8358 C 1139.53 3.5063 5.96244 0
M  V30 8359 O 1140.33 2.36482 5.64681 0
M  V30 8360 C 1138.19 3.15122 6.56374 0
M  V30 8361 H 1138.22 2.13853 6.99751 0
M  V30 8362 H 1139.4 4.13501 5.06559 0
M  V30 8363 H 1140.89 5.03285 6.70911 0
M  V30 8364 H 1139.19 5.20877 8.75697 0
M  V30 8365 H 1139 7.11046 7.35349 0
M  V30 8366 H 1137.37 6.35815 7.26986 0
M  V30 8367 H 1140.01 1.61644 6.13565 0
M  V30 8368 P 1141.87 3.65191 7.99657 0
M  V30 8369 O 1143.27 3.90823 8.51272 0
M  V30 8370 O 1141.49 4.23191 6.66972 0
M  V30 8371 O 1141.55 2.07587 7.95046 0
M  V30 8372 C 1141.39 1.44328 9.27336 0
M  V30 8373 C 1141.93 0.0220012 9.17097 0
M  V30 8374 O 1140.87 -0.626794 8.61824 0
M  V30 8375 C 1143.14 -0.24586 8.30336 0
M  V30 8376 O 1143.88 -1.39011 8.63583 0
M  V30 8377 C 1142.48 -0.273849 6.91158 0
M  V30 8378 O 1143.28 -1.06331 6.02794 0
M  V30 8379 C 1141.14 -0.897649 7.22545 0
M  V30 8380 N 1140.1 -0.292839 6.41732 0
M  V30 8381 C 1139.06 -1.08701 5.98712 0
M  V30 8382 O 1139.1 -2.31211 6.24471 0
M  V30 8383 N 1138.05 -0.533391 5.28415 0
M  V30 8384 C 1138.1 0.770866 4.98576 0
M  V30 8385 C 1139.19 1.59049 5.38086 0
M  V30 8386 C 1140.16 1.01866 6.10256 0
M  V30 8387 H 1141.17 -1.98383 7.04189 0
M  V30 8388 H 1142.35 0.733318 6.49674 0
M  V30 8389 H 1143.84 0.598386 8.36663 0
M  V30 8390 H 1142.14 -0.362662 10.1825 0
M  V30 8391 H 1141.95 2.00611 10.0304 0
M  V30 8392 H 1140.32 1.41828 9.55228 0
M  V30 8393 H 1139.24 2.6415 5.10622 0
M  V30 8394 H 1141.01 1.61983 6.44042 0
M  V30 8395 H 1143.06 -1.97777 6.14035 0
M  V30 8396 P 1144.82 -1.25109 8.70152 0
M  V30 8397 O 1146.24 -1.35274 9.21221 0
M  V30 8398 O 1144.46 -0.0769065 7.84762 0
M  V30 8399 O 1144.5 -2.55232 7.81161 0
M  V30 8400 C 1144.34 -3.79939 8.58154 0
M  V30 8401 C 1144.88 -4.94023 7.72785 0
M  V30 8402 O 1143.82 -5.18726 6.91205 0
M  V30 8403 C 1146.1 -4.69597 6.85231 0
M  V30 8404 O 1146.83 -5.83832 6.51337 0
M  V30 8405 C 1145.43 -3.96706 5.66633 0
M  V30 8406 O 1146.23 -4.15414 4.49689 0
M  V30 8407 C 1144.09 -4.66153 5.59313 0
M  V30 8408 H 1144.12 -5.47679 4.85214 0
M  V30 8409 H 1145.31 -2.89008 5.86566 0
M  V30 8410 H 1146.79 -4.0121 7.36511 0
M  V30 8411 H 1145.1 -5.80182 8.37584 0
M  V30 8412 H 1144.91 -3.73517 9.52265 0
M  V30 8413 H 1143.28 -3.97163 8.80359 0
M  V30 8414 H 1145.91 -4.90969 4.01921 0
M  V30 8415 P 1147.77 -5.75688 6.64379 0
M  V30 8416 O 1149.19 -6.11849 7.01846 0
M  V30 8417 O 1147.41 -4.30744 6.56026 0
M  V30 8418 O 1147.45 -6.37042 5.19165 0
M  V30 8419 C 1147.29 -7.83578 5.16515 0
M  V30 8420 C 1147.83 -8.33398 3.83019 0
M  V30 8421 O 1146.77 -8.10074 3.01034 0
M  V30 8422 C 1149.05 -7.65514 3.2257 0
M  V30 8423 O 1149.78 -8.4329 2.32297 0
M  V30 8424 C 1148.38 -6.40075 2.62207 0
M  V30 8425 O 1149.18 -5.92589 1.53712 0
M  V30 8426 C 1147.04 -6.9454 2.18503 0
M  V30 8427 H 1147.07 -7.23063 1.12091 0
M  V30 8428 H 1148.26 -5.6025 3.37201 0
M  V30 8429 H 1149.74 -7.35707 4.02681 0
M  V30 8430 H 1148.05 -9.40912 3.9095 0
M  V30 8431 H 1147.86 -8.29056 5.99158 0
M  V30 8432 H 1146.23 -8.10073 5.25882 0
M  V30 8433 H 1148.86 -6.30324 0.726794 0
M  V30 8434 H 1151.42 -7.89832 2.35522 0
M  V30 END ATOM
M  V30 BEGIN BOND
M  V30 END BOND
M  V30 END CTAB
M  END
$$$$
