drugbank_target|Q23022 Acetylcholine receptor subunit alpha-type unc-38 (DB00848)
 OpenBabel12092121013D

  0  0  0     0  0            999 V3000
M  V30 BEGIN CTAB
M  V30 COUNTS 8461 8571 0 0 0
M  V30 BEGIN ATOM
M  V30 1 H -0.908 1.98254 -0.117106 0
M  V30 2 N 0 1.576 0 0
M  V30 3 C 0.933 2.03868 1.02534 0
M  V30 4 C 1.911 0.928543 1.3348 0
M  V30 5 O 3.095 1.19667 1.45644 0
M  V30 6 C 0.222 2.43627 2.35294 0
M  V30 7 C -0.732 3.65373 2.2001 0
M  V30 8 S 0.101 5.13292 1.52614 0
M  V30 9 C 1.257 5.56322 2.86805 0
M  V30 10 H 1.49 2.90518 0.631377 0
M  V30 11 H -0.977 1.52953 0.210867 0
M  V30 12 H 0.981 2.67203 3.11629 0
M  V30 13 H -0.358 1.57376 2.7183 0
M  V30 14 H -1.165 3.90944 3.18086 0
M  V30 15 H -1.563 3.418 1.51819 0
M  V30 16 H 0.729 5.58782 3.83104 0
M  V30 17 H 1.672 6.56266 2.65933 0
M  V30 18 H 2.08 4.83886 2.90714 0
M  V30 19 N 1.4781 -0.272755 1.55222 0
M  V30 20 C 2.8941 -0.619959 1.47067 0
M  V30 21 C 3.0941 -1.895 0.684978 0
M  V30 22 O 2.1501 -2.51675 0.203931 0
M  V30 23 C 3.4631 -0.746693 2.91282 0
M  V30 24 C 5.0111 -0.840731 3.01497 0
M  V30 25 C 5.4861 -0.99924 4.46967 0
M  V30 26 N 6.9771 -1.06476 4.50796 0
M  V30 27 C 7.7121 -1.20621 5.6057 0
M  V30 28 N 7.2081 -1.31483 6.80209 0
M  V30 29 N 9.0011 -1.23733 5.48312 0
M  V30 30 H 1.1521 0.564606 2.04758 0
M  V30 31 H 3.4151 0.191177 0.928523 0
M  V30 32 H 3.1211 0.119753 3.51496 0
M  V30 33 H 2.9951 -1.6269 3.40311 0
M  V30 34 H 5.3821 -1.69764 2.41379 0
M  V30 35 H 5.4631 0.0640874 2.5572 0
M  V30 36 H 5.1071 -0.146984 5.07687 0
M  V30 37 H 5.0371 -1.91871 4.90401 0
M  V30 38 H 7.5281 -0.993196 3.64615 0
M  V30 39 H 7.8411 -1.42111 7.59621 0
M  V30 40 H 6.1861 -1.28487 6.8302 0
M  V30 41 H 9.3771 -1.14877 4.53785 0
M  V30 42 H 9.5501 -1.34412 6.33906 0
M  V30 43 N 2.9562 -1.48159 -0.537278 0
M  V30 44 C 4.1812 -1.59707 -1.32319 0
M  V30 45 C 4.6062 -0.254859 -1.86365 0
M  V30 46 O 3.9642 0.772378 -1.64024 0
M  V30 47 C 4.0122 -2.6412 -2.45505 0
M  V30 48 O 3.1162 -2.20774 -3.48328 0
M  V30 49 H 2.4572 -0.535791 -0.392204 0
M  V30 50 H 4.9872 -1.94092 -0.647268 0
M  V30 51 H 4.9972 -2.85166 -2.91795 0
M  V30 52 H 3.6722 -3.61567 -2.05528 0
M  V30 53 H 2.2492 -2.09911 -3.08207 0
M  V30 54 N 4.4343 0.785586 -1.36625 0
M  V30 55 C 5.6813 1.54362 -1.31067 0
M  V30 56 C 6.0093 1.94195 0.10893 0
M  V30 57 O 5.2643 1.63262 1.07908 0
M  V30 58 C 5.5633 2.83007 -2.1827 0
M  V30 59 C 5.2293 2.62294 -3.6676 0
M  V30 60 C 3.8913 2.56353 -4.0723 0
M  V30 61 C 6.2433 2.43371 -4.6089 0
M  V30 62 C 3.5713 2.29461 -5.39967 0
M  V30 63 C 5.9233 2.18005 -5.93849 0
M  V30 64 C 4.5873 2.105 -6.3344 0
M  V30 65 H 3.8573 0.564851 -0.479609 0
M  V30 66 H 6.5043 0.906028 -1.68711 0
M  V30 67 H 4.8093 3.51253 -1.73576 0
M  V30 68 H 6.5063 3.40817 -2.11292 0
M  V30 69 H 3.0963 2.67774 -3.34656 0
M  V30 70 H 7.2803 2.46959 -4.30494 0
M  V30 71 H 2.5363 2.22135 -5.69619 0
M  V30 72 H 6.7103 2.02359 -6.66351 0
M  V30 73 H 4.3373 1.89425 -7.36222 0
M  V30 74 N 5.9124 1.20967 1.01018 0
M  V30 75 C 7.1584 1.0353 1.7508 0
M  V30 76 C 7.5134 -0.42734 1.87594 0
M  V30 77 O 6.8064 -1.31298 1.3954 0
M  V30 78 C 7.0004 1.65997 3.16512 0
M  V30 79 C 6.8294 3.18184 3.17788 0
M  V30 80 C 5.5994 3.87198 3.24662 0
M  V30 81 C 7.7974 4.15334 3.03319 0
M  V30 82 N 5.7794 5.26618 3.15509 0
M  V30 83 C 7.1504 5.41472 3.02007 0
M  V30 84 C 9.2054 4.06449 2.87583 0
M  V30 85 C 7.9084 6.5975 2.86571 0
M  V30 86 C 9.9344 5.24357 2.73503 0
M  V30 87 C 9.2964 6.49404 2.72862 0
M  V30 88 H 5.3954 0.433137 0.651089 0
M  V30 89 H 7.9794 1.5324 1.20107 0
M  V30 90 H 6.1504 1.18863 3.69765 0
M  V30 91 H 7.8824 1.41816 3.79039 0
M  V30 92 H 4.6374 3.38093 3.31648 0
M  V30 93 H 5.0614 5.99626 3.14289 0
M  V30 94 H 9.7034 3.10573 2.86887 0
M  V30 95 H 7.4214 7.55792 2.86015 0
M  V30 96 H 11.0074 5.19299 2.62334 0
M  V30 97 H 9.8874 7.39105 2.62093 0
M  V30 98 N 7.3905 -1.2043 1.01659 0
M  V30 99 C 8.3205 -2.25466 0.607226 0
M  V30 100 C 9.3015 -1.65853 -0.377716 0
M  V30 101 O 10.4865 -1.92409 -0.263149 0
M  V30 102 C 7.6165 -3.47256 -0.0552949 0
M  V30 103 C 6.5705 -4.19462 0.850632 0
M  V30 104 C 5.8965 -5.34673 0.0538859 0
M  V30 105 C 7.1965 -4.75603 2.15868 0
M  V30 106 H 8.8905 -2.59962 1.48526 0
M  V30 107 H 6.4365 -1.2496 0.715605 0
M  V30 108 H 8.3895 -4.19917 -0.353233 0
M  V30 109 H 7.1135 -3.11924 -0.968045 0
M  V30 110 H 5.7725 -3.48667 1.13257 0
M  V30 111 H 5.4205 -4.95585 -0.860514 0
M  V30 112 H 5.1205 -5.83913 0.657192 0
M  V30 113 H 6.6445 -6.10138 -0.237598 0
M  V30 114 H 8.0585 -5.40083 1.92311 0
M  V30 115 H 6.4555 -5.3528 2.71284 0
M  V30 116 H 7.5255 -3.94346 2.82169 0
M  V30 117 N 8.8686 -0.792821 -1.36206 0
M  V30 118 C 10.1156 -0.366786 -1.99151 0
M  V30 119 C 10.4436 1.06243 -1.62919 0
M  V30 120 O 9.6986 1.74927 -0.877442 0
M  V30 121 C 9.9976 -0.481501 -3.54142 0
M  V30 122 C 9.6636 -1.87202 -4.10203 0
M  V30 123 C 8.3256 -2.25248 -4.25226 0
M  V30 124 C 10.6776 -2.78237 -4.40719 0
M  V30 125 C 8.0056 -3.53723 -4.68078 0
M  V30 126 C 10.3576 -4.06144 -4.85005 0
M  V30 127 C 9.0216 -4.44207 -4.98234 0
M  V30 128 H 8.2916 -0.134217 -0.728743 0
M  V30 129 H 10.9386 -1.01094 -1.62641 0
M  V30 130 H 9.2436 0.246146 -3.91026 0
M  V30 131 H 10.9406 -0.132844 -4.0078 0
M  V30 132 H 7.5306 -1.56639 -3.98951 0
M  V30 133 H 11.7146 -2.50097 -4.28679 0
M  V30 134 H 6.9706 -3.8308 -4.76508 0
M  V30 135 H 11.1446 -4.76796 -5.07581 0
M  V30 136 H 8.7716 -5.43814 -5.31197 0
M  V30 137 N 10.3467 1.47872 -0.545128 0
M  V30 138 C 11.2767 2.32661 0.197793 0
M  V30 139 C 12.2577 1.43041 0.920504 0
M  V30 140 O 13.4427 1.71912 0.90333 0
M  V30 141 C 10.5727 3.24569 1.23582 0
M  V30 142 C 9.5267 4.23333 0.630323 0
M  V30 143 C 8.8527 5.0448 1.77211 0
M  V30 144 C 10.1527 5.20704 -0.407974 0
M  V30 145 H 11.8467 2.95024 -0.510045 0
M  V30 146 H 9.3927 1.4187 -0.246731 0
M  V30 147 H 11.3457 3.8272 1.76362 0
M  V30 148 H 10.0697 2.60236 1.97344 0
M  V30 149 H 8.7287 3.6639 0.123922 0
M  V30 150 H 8.3767 4.36561 2.49847 0
M  V30 151 H 8.0767 5.71339 1.37281 0
M  V30 152 H 9.6007 5.65487 2.3034 0
M  V30 153 H 11.0147 5.7329 0.033305 0
M  V30 154 H 9.4117 5.95699 -0.725486 0
M  V30 155 H 10.4817 4.66917 -1.30828 0
M  V30 156 N 11.8248 0.280983 1.55075 0
M  V30 157 C 12.7548 -0.597469 2.25727 0
M  V30 158 C 13.7358 -1.15417 1.24952 0
M  V30 159 O 14.9208 -1.18722 1.53684 0
M  V30 160 C 12.0508 -1.7789 2.98283 0
M  V30 161 C 11.0048 -1.35347 4.06036 0
M  V30 162 C 10.3308 -2.61846 4.66198 0
M  V30 163 C 11.6308 -0.499354 5.19907 0
M  V30 164 H 13.3248 -0.00824265 2.99399 0
M  V30 165 H 10.8708 -0.0025244 1.44 0
M  V30 166 H 12.8238 -2.39937 3.46422 0
M  V30 167 H 11.5478 -2.39405 2.22155 0
M  V30 168 H 10.2068 -0.756156 3.58717 0
M  V30 169 H 9.8548 -3.21632 3.86732 0
M  V30 170 H 9.5548 -2.3409 5.38958 0
M  V30 171 H 11.0788 -3.24732 5.1709 0
M  V30 172 H 12.4928 -1.02498 5.64063 0
M  V30 173 H 10.8898 -0.316424 5.99265 0
M  V30 174 H 11.9598 0.480459 4.82514 0
M  V30 175 N 13.3029 -1.57598 0.00835791 0
M  V30 176 C 14.2329 -2.1198 -0.979113 0
M  V30 177 C 15.2139 -1.03091 -1.35301 0
M  V30 178 O 16.3989 -1.30818 -1.43528 0
M  V30 179 C 13.5289 -2.62995 -2.26828 0
M  V30 180 C 12.4829 -3.76485 -2.03576 0
M  V30 181 C 11.8089 -4.13846 -3.38579 0
M  V30 182 C 13.1089 -5.0342 -1.39161 0
M  V30 183 H 14.8029 -2.94738 -0.526281 0
M  V30 184 H 12.3489 -1.41783 -0.251704 0
M  V30 185 H 14.3019 -2.99669 -2.96271 0
M  V30 186 H 13.0259 -1.7737 -2.7424 0
M  V30 187 H 11.6849 -3.40217 -1.36557 0
M  V30 188 H 11.3329 -3.25232 -3.83709 0
M  V30 189 H 11.0329 -4.90312 -3.23834 0
M  V30 190 H 12.5569 -4.53086 -4.09323 0
M  V30 191 H 13.9709 -5.37812 -1.98573 0
M  V30 192 H 12.3679 -5.84746 -1.34878 0
M  V30 193 H 13.4379 -4.83548 -0.361868 0
M  V30 194 N 14.781 0.264519 -1.55364 0
M  V30 195 C 15.711 1.33121 -1.91836 0
M  V30 196 C 16.692 1.51101 -0.781192 0
M  V30 197 O 17.877 1.64003 -1.04003 0
M  V30 198 C 15.007 2.68921 -2.19769 0
M  V30 199 C 13.961 2.65661 -3.35571 0
M  V30 200 C 13.287 4.05093 -3.49004 0
M  V30 201 C 14.587 2.24187 -4.71739 0
M  V30 202 H 16.281 1.02844 -2.81182 0
M  V30 203 H 13.827 0.493286 -1.35287 0
M  V30 204 H 15.78 3.43663 -2.43872 0
M  V30 205 H 14.504 3.00799 -1.27231 0
M  V30 206 H 13.163 1.93377 -3.1145 0
M  V30 207 H 12.811 4.34206 -2.53917 0
M  V30 208 H 12.511 4.03804 -4.26868 0
M  V30 209 H 14.035 4.81561 -3.75408 0
M  V30 210 H 15.449 2.88654 -4.9533 0
M  V30 211 H 13.846 2.34044 -5.52579 0
M  V30 212 H 14.916 1.19327 -4.69988 0
M  V30 213 N 16.2591 1.48442 0.529413 0
M  V30 214 C 17.1891 1.65902 1.64313 0
M  V30 215 C 18.1701 0.507897 1.6234 0
M  V30 216 O 19.3551 0.740503 1.79528 0
M  V30 217 C 16.4851 1.69911 3.02898 0
M  V30 218 C 15.4391 2.8453 3.19729 0
M  V30 219 C 14.7651 2.73629 4.59381 0
M  V30 220 C 16.0651 4.25821 3.02447 0
M  V30 221 H 17.7591 2.5914 1.49955 0
M  V30 222 H 15.3051 1.24709 0.719982 0
M  V30 223 H 17.2581 1.80715 3.80684 0
M  V30 224 H 15.9821 0.732524 3.18279 0
M  V30 225 H 14.6411 2.73283 2.44361 0
M  V30 226 H 14.2891 1.74938 4.71599 0
M  V30 227 H 13.9891 3.50541 4.71588 0
M  V30 228 H 15.5131 2.86401 5.39265 0
M  V30 229 H 16.9271 4.37898 3.70024 0
M  V30 230 H 15.3241 5.03735 3.26146 0
M  V30 231 H 16.3941 4.42244 1.98867 0
M  V30 232 N 17.7372 -0.778329 1.37039 0
M  V30 233 C 18.9842 -1.53665 1.31884 0
M  V30 234 C 19.3122 -1.9425 -0.0986303 0
M  V30 235 O 18.5672 -1.63832 -1.07041 0
M  V30 236 C 18.8662 -2.81845 2.19768 0
M  V30 237 C 18.5322 -2.60345 3.68146 0
M  V30 238 C 17.1942 -2.5419 4.08584 0
M  V30 239 C 19.5462 -2.40923 4.62175 0
M  V30 240 C 16.8742 -2.26594 5.41177 0
M  V30 241 C 19.2262 -2.14852 5.94997 0
M  V30 242 C 17.8902 -2.07137 6.34547 0
M  V30 243 H 17.1602 -0.562299 0.482598 0
M  V30 244 H 19.8072 -0.897069 1.69189 0
M  V30 245 H 18.1122 -3.50328 1.75436 0
M  V30 246 H 19.8092 -3.39692 2.13097 0
M  V30 247 H 16.3992 -2.65996 3.36072 0
M  V30 248 H 20.5832 -2.44673 4.31797 0
M  V30 249 H 15.8392 -2.19111 5.70789 0
M  V30 250 H 20.0132 -1.98822 6.67415 0
M  V30 251 H 17.6402 -1.85518 7.37216 0
M  V30 252 N 19.2153 -1.21501 -1.00376 0
M  V30 253 C 20.4553 -1.04444 -1.75701 0
M  V30 254 C 20.8193 0.414644 -1.87469 0
M  V30 255 O 22.0203 0.705763 -2.59369 0
M  V30 256 C 20.2913 -1.72389 -3.13077 0
M  V30 257 S 21.8503 -1.70604 -4.04277 0
M  V30 258 H 18.6683 -0.374249 -0.604532 0
M  V30 259 H 21.2703 -1.54267 -1.20091 0
M  V30 260 H 19.9743 -2.77734 -3.02146 0
M  V30 261 H 19.5053 -1.22751 -3.73759 0
M  V30 262 H 21.5203 -0.748012 -4.9053 0
M  V30 263 N 20.6934 1.19889 -1.02296 0
M  V30 264 C 21.9424 1.88743 -0.711257 0
M  V30 265 C 22.2554 1.80112 0.762817 0
M  V30 266 O 23.4614 2.44161 1.18733 0
M  V30 267 C 21.9174 3.38525 -1.22185 0
M  V30 268 C 21.5254 3.55727 -2.72328 0
M  V30 269 C 23.2694 4.12893 -0.985864 0
M  V30 270 C 21.1764 4.99369 -3.16835 0
M  V30 271 H 20.1064 0.706885 -0.262353 0
M  V30 272 H 22.7574 1.35586 -1.23648 0
M  V30 273 H 21.1394 3.91044 -0.624571 0
M  V30 274 H 22.3134 3.13564 -3.3766 0
M  V30 275 H 20.6284 2.94739 -2.9414 0
M  V30 276 H 23.2254 5.18813 -1.29374 0
M  V30 277 H 23.5684 4.16228 0.0775055 0
M  V30 278 H 24.1014 3.66494 -1.54684 0
M  V30 279 H 20.8404 5.01193 -4.22476 0
M  V30 280 H 20.3604 5.42317 -2.56228 0
M  V30 281 H 22.0394 5.67988 -3.09837 0
M  V30 282 N 22.1715 0.800033 1.35784 0
M  V30 283 C 23.3965 0.388511 2.03729 0
M  V30 284 C 23.8215 -0.990481 1.5991 0
M  V30 285 O 23.1795 -1.64013 0.772612 0
M  V30 286 C 23.2275 0.4726 3.5749 0
M  V30 287 O 22.3315 -0.51646 4.09153 0
M  V30 288 H 21.6725 0.163271 0.643614 0
M  V30 289 H 24.2025 1.0841 1.73518 0
M  V30 290 H 24.2125 0.34003 4.06581 0
M  V30 291 H 22.8875 1.47848 3.88734 0
M  V30 292 H 21.4645 -0.344673 3.71304 0
M  V30 293 N 23.6496 -1.47581 0.552962 0
M  V30 294 C 24.8966 -2.02482 0.0273243 0
M  V30 295 C 25.2246 -1.42776 -1.32081 0
M  V30 296 O 24.4796 -0.571393 -1.87173 0
M  V30 297 C 24.7786 -3.57199 -0.119728 0
M  V30 298 C 24.4446 -4.35804 1.15697 0
M  V30 299 C 23.1066 -4.57 1.50681 0
M  V30 300 C 25.4586 -4.81167 2.00319 0
M  V30 301 C 22.7866 -5.20807 2.70142 0
M  V30 302 C 25.1386 -5.46293 3.18978 0
M  V30 303 C 23.8026 -5.65722 3.54281 0
M  V30 304 H 23.0726 -0.740933 0.00999866 0
M  V30 305 H 25.7196 -1.77302 0.72362 0
M  V30 306 H 24.0246 -3.81348 -0.89896 0
M  V30 307 H 25.7216 -3.97324 -0.541718 0
M  V30 308 H 22.3116 -4.19582 0.874561 0
M  V30 309 H 26.4956 -4.64574 1.74599 0
M  V30 310 H 21.7516 -5.34045 2.97668 0
M  V30 311 H 25.9256 -5.80407 3.84838 0
M  V30 312 H 23.5526 -6.14936 4.46942 0
M  V30 313 N 25.1277 -0.289203 -1.54924 0
M  V30 314 C 26.3767 0.324231 -1.99077 0
M  V30 315 C 26.6897 1.5591 -1.18117 0
M  V30 316 O 27.8957 2.24637 -1.52481 0
M  V30 317 C 26.3517 0.628209 -3.54375 0
M  V30 318 C 25.9597 -0.587647 -4.44129 0
M  V30 319 C 27.7037 1.20349 -4.07083 0
M  V30 320 C 25.6107 -0.257475 -5.90839 0
M  V30 321 H 24.5407 0.124924 -0.743579 0
M  V30 322 H 27.1917 -0.396063 -1.79175 0
M  V30 323 H 25.5737 1.40778 -3.70132 0
M  V30 324 H 26.7477 -1.36418 -4.40144 0
M  V30 325 H 25.0627 -1.08074 -4.0213 0
M  V30 326 H 27.6597 1.46456 -5.14252 0
M  V30 327 H 28.0027 2.14195 -3.56968 0
M  V30 328 H 28.5357 0.485889 -3.94821 0
M  V30 329 H 25.2747 -1.16419 -6.45079 0
M  V30 330 H 24.7947 0.482018 -5.9786 0
M  V30 331 H 26.4737 0.145238 -6.46837 0
M  V30 332 N 26.6058 1.57591 -0.0167156 0
M  V30 333 C 27.5528 2.09462 0.969251 0
M  V30 334 C 28.5228 0.99381 1.33089 0
M  V30 335 O 29.7078 1.26726 1.42636 0
M  V30 336 C 26.8478 2.61622 2.25051 0
M  V30 337 C 25.9608 3.85666 1.94642 0
M  V30 338 C 25.0958 4.26266 3.16972 0
M  V30 339 C 24.1348 5.43101 2.82326 0
M  V30 340 N 23.2718 5.78915 3.97243 0
M  V30 341 H 28.1118 2.93428 0.519997 0
M  V30 342 H 25.6488 1.45044 0.245087 0
M  V30 343 H 27.6068 2.89949 2.99976 0
M  V30 344 H 26.2368 1.80505 2.67615 0
M  V30 345 H 25.2888 3.64145 1.10013 0
M  V30 346 H 26.6008 4.70678 1.65117 0
M  V30 347 H 25.7548 4.55963 4.00228 0
M  V30 348 H 24.4938 3.39996 3.49648 0
M  V30 349 H 23.4988 5.1311 1.97479 0
M  V30 350 H 24.7238 6.3106 2.50879 0
M  V30 351 H 22.6698 4.95602 4.29785 0
M  V30 352 H 22.5868 6.58539 3.71299 0
M  V30 353 H 23.8548 6.13212 4.81239 0
M  V30 354 N 28.0839 -0.256276 1.55502 0
M  V30 355 C 29.0139 -1.32102 1.92539 0
M  V30 356 C 29.9949 -1.50684 0.789194 0
M  V30 357 O 31.1799 -1.63449 1.04872 0
M  V30 358 C 28.3099 -2.67752 2.21192 0
M  V30 359 C 27.2639 -2.63878 3.36975 0
M  V30 360 C 26.5899 -4.03236 3.51147 0
M  V30 361 C 27.8899 -2.21682 4.72921 0
M  V30 362 H 29.5839 -1.01351 2.81724 0
M  V30 363 H 27.1299 -0.486105 1.35547 0
M  V30 364 H 29.0829 -3.42365 2.45691 0
M  V30 365 H 27.8069 -3.0012 1.28824 0
M  V30 366 H 26.4659 -1.91722 3.12471 0
M  V30 367 H 26.1139 -4.32854 2.56216 0
M  V30 368 H 25.8139 -4.01535 4.29003 0
M  V30 369 H 27.3379 -4.79563 3.77957 0
M  V30 370 H 28.7519 -2.86023 4.96854 0
M  V30 371 H 27.1489 -2.3111 5.53812 0
M  V30 372 H 28.2189 -1.16833 4.70615 0
M  V30 373 N 29.562 -1.4872 -0.521534 0
M  V30 374 C 30.79 -1.60843 -1.30142 0
M  V30 375 C 31.205 -0.271897 -1.86832 0
M  V30 376 O 30.562 0.739969 -1.66825 0
M  V30 377 C 30.613 -2.66155 -2.4463 0
M  V30 378 O 30.334 -3.94623 -1.90275 0
M  V30 379 C 31.835 -2.88795 -3.36322 0
M  V30 380 H 29.055 -0.542075 -0.395468 0
M  V30 381 H 31.599 -1.94609 -0.628285 0
M  V30 382 H 29.754 -2.35224 -3.07812 0
M  V30 383 H 30.168 -4.52468 -2.65279 0
M  V30 384 H 31.642 -3.66264 -4.12983 0
M  V30 385 H 32.119 -1.97934 -3.9207 0
M  V30 386 H 32.725 -3.21063 -2.78924 0
M  V30 387 N 31.0401 0.771051 -1.3745 0
M  V30 388 C 31.9501 1.91538 -1.35464 0
M  V30 389 C 32.9661 1.72134 -0.254123 0
M  V30 390 O 34.1421 1.95358 -0.489626 0
M  V30 391 C 31.2071 3.26671 -1.16134 0
M  V30 392 C 30.2681 3.58723 -2.35831 0
M  V30 393 C 29.5011 4.87409 -2.17413 0
M  V30 394 O 29.7241 5.58506 -1.15876 0
M  V30 395 O 28.6581 5.18539 -3.05615 0
M  V30 396 H 32.4841 1.96165 -2.31847 0
M  V30 397 H 30.0691 0.9139 -1.18187 0
M  V30 398 H 31.9511 4.07499 -1.07345 0
M  V30 399 H 30.6261 3.22894 -0.228251 0
M  V30 400 H 29.5331 2.78127 -2.50192 0
M  V30 401 H 30.8661 3.67243 -3.27709 0
M  V30 402 N 32.5182 1.22032 0.997298 0
M  V30 403 C 33.7662 1.04016 1.73278 0
M  V30 404 C 34.0872 -0.426255 1.90284 0
M  V30 405 O 33.3572 -1.30694 1.45931 0
M  V30 406 H 31.9372 0.381897 0.642 0
M  V30 407 H 34.5992 1.5347 1.20137 0
M  V30 408 H 33.6952 1.51441 2.72896 0
M  V30 409 N 33.9963 -1.19345 1.0293 0
M  V30 410 C 34.9443 -2.24621 0.604001 0
M  V30 411 C 35.9383 -1.65452 -0.363587 0
M  V30 412 O 37.1443 -1.78497 -0.23212 0
M  V30 413 H 33.5193 -0.730858 0.177061 0
M  V30 414 H 35.4903 -2.5781 1.50255 0
M  V30 415 C 34.2393 -3.47688 -0.0289127 0
M  V30 416 H 33.5623 -3.93505 0.706651 0
M  V30 417 H 35.0023 -4.23011 -0.289432 0
M  V30 418 C 33.4613 -3.11817 -1.2756 0
M  V30 419 O 33.9913 -3.2451 -2.36762 0
M  V30 420 N 32.1973 -2.66246 -1.16453 0
M  V30 421 H 31.7443 -2.56118 -0.275914 0
M  V30 422 H 31.7023 -2.42617 -1.99961 0
M  V30 423 N 35.4744 -0.807222 -1.35358 0
M  V30 424 C 36.3844 -0.219594 -2.3357 0
M  V30 425 C 37.4004 0.637734 -1.61892 0
M  V30 426 O 38.5764 0.549336 -1.93763 0
M  V30 427 C 35.6414 0.62158 -3.41083 0
M  V30 428 C 34.7024 -0.256315 -4.28534 0
M  V30 429 C 33.9354 0.544807 -5.30912 0
M  V30 430 O 34.1584 1.77944 -5.41934 0
M  V30 431 O 33.0924 -0.0646478 -6.01865 0
M  V30 432 H 36.9184 -1.03208 -2.85625 0
M  V30 433 H 34.5034 -0.569025 -1.38139 0
M  V30 434 H 36.3854 1.10067 -4.06772 0
M  V30 435 H 35.0604 1.41165 -2.91297 0
M  V30 436 H 33.9674 -0.782559 -3.65823 0
M  V30 437 H 35.3004 -1.01034 -4.81719 0
M  V30 438 N 36.9525 1.47285 -0.560781 0
M  V30 439 C 38.2295 1.9558 0.0277798 0
M  V30 440 C 38.6095 1.5034 1.48192 0
M  V30 441 O 37.9575 0.743882 2.16052 0
M  V30 442 C 38.1675 3.48789 -0.121418 0
M  V30 443 C 39.5155 4.24594 0.0220912 0
M  V30 444 O 40.5395 3.56166 -0.0491439 0
M  V30 445 O 39.3985 5.46217 0.175958 0
M  V30 446 H 36.4925 0.824663 0.0621342 0
M  V30 447 H 39.0385 1.5767 -0.627556 0
M  V30 448 H 37.8105 3.74533 -1.13316 0
M  V30 449 H 37.4335 3.93473 0.571366 0
M  V30 450 N 38.4306 0.297415 1.54768 0
M  V30 451 C 39.3936 -0.567375 2.22066 0
M  V30 452 C 40.3936 -1.06409 1.20556 0
M  V30 453 O 41.5836 -0.960691 1.45315 0
M  V30 454 C 38.7156 -1.78517 2.90421 0
M  V30 455 H 39.9086 0.0205534 2.99893 0
M  V30 456 H 37.4616 0.0482163 1.56226 0
M  V30 457 H 38.1966 -2.41303 2.16664 0
M  V30 458 H 37.9816 -1.43669 3.64831 0
M  V30 459 H 39.4716 -2.39964 3.41771 0
M  V30 460 N 39.9087 -1.5758 0.0250728 0
M  V30 461 C 40.8557 -2.09973 -0.958129 0
M  V30 462 C 41.8257 -1.00085 -1.3256 0
M  V30 463 O 43.0107 -1.27481 -1.41962 0
M  V30 464 C 40.1507 -2.62812 -2.2366 0
M  V30 465 C 39.2637 -3.86693 -1.92594 0
M  V30 466 C 38.3987 -4.27941 -3.14707 0
M  V30 467 C 37.4377 -5.44591 -2.79442 0
M  V30 468 N 36.5747 -5.81014 -3.94167 0
M  V30 469 H 41.4147 -2.937 -0.504428 0
M  V30 470 H 38.9517 -1.45172 -0.237392 0
M  V30 471 H 40.9097 -2.91536 -2.98434 0
M  V30 472 H 39.5397 -1.81922 -2.66654 0
M  V30 473 H 38.5917 -3.64723 -1.0808 0
M  V30 474 H 39.9037 -4.71547 -1.62619 0
M  V30 475 H 39.0577 -4.58079 -3.97804 0
M  V30 476 H 37.7967 -3.41845 -3.4784 0
M  V30 477 H 36.8017 -5.1415 -1.94755 0
M  V30 478 H 38.0267 -6.32382 -2.47528 0
M  V30 479 H 35.9727 -4.97874 -4.2715 0
M  V30 480 H 35.8897 -6.60498 -3.67801 0
M  V30 481 H 37.1577 -6.15756 -4.7798 0
M  V30 482 N 41.3868 0.248026 -1.55636 0
M  V30 483 C 42.8028 0.596483 -1.48035 0
M  V30 484 C 43.0028 1.88386 -0.715039 0
M  V30 485 O 42.0588 2.51319 -0.243944 0
M  V30 486 C 43.3718 0.700258 -2.92433 0
M  V30 487 C 44.9198 0.792659 -3.02797 0
M  V30 488 C 45.3948 0.928005 -4.485 0
M  V30 489 N 46.8858 0.992903 -4.52433 0
M  V30 490 C 47.6208 1.11687 -5.62418 0
M  V30 491 N 47.1168 1.20645 -6.82214 0
M  V30 492 N 48.9098 1.14994 -5.50212 0
M  V30 493 H 41.0608 -0.597109 -2.03834 0
M  V30 494 H 43.3238 -0.205925 -0.925364 0
M  V30 495 H 43.0298 -0.175658 -3.51261 0
M  V30 496 H 42.9038 1.57255 -3.42857 0
M  V30 497 H 45.2908 1.65903 -2.4405 0
M  V30 498 H 45.3718 -0.104762 -2.55585 0
M  V30 499 H 45.0158 0.0661971 -5.07857 0
M  V30 500 H 44.9458 1.84045 -4.93391 0
M  V30 501 H 47.4368 0.935064 -3.66149 0
M  V30 502 H 47.7498 1.30008 -7.61786 0
M  V30 503 H 46.0948 1.17605 -6.84977 0
M  V30 504 H 49.2858 1.07643 -4.55555 0
M  V30 505 H 49.4588 1.24311 -6.35965 0
M  V30 506 N 42.8649 1.48995 0.513639 0
M  V30 507 C 43.7949 1.67636 1.62544 0
M  V30 508 C 44.7759 0.525087 1.61793 0
M  V30 509 O 45.9609 0.759502 1.78732 0
M  V30 510 C 43.0909 1.73114 3.01079 0
M  V30 511 C 42.0449 2.87905 3.16693 0
M  V30 512 C 41.3709 2.78486 4.56453 0
M  V30 513 C 42.6709 4.29005 2.97913 0
M  V30 514 H 44.3649 2.60716 1.47198 0
M  V30 515 H 41.9109 1.25465 0.706714 0
M  V30 516 H 43.8639 1.84742 3.78746 0
M  V30 517 H 42.5879 0.766241 3.17484 0
M  V30 518 H 41.2469 2.75859 2.41448 0
M  V30 519 H 40.8949 1.7993 4.69717 0
M  V30 520 H 40.5949 3.55523 4.67843 0
M  V30 521 H 42.1189 2.92104 5.36197 0
M  V30 522 H 43.5329 4.41798 3.65359 0
M  V30 523 H 41.9299 5.07166 3.20785 0
M  V30 524 H 42.9999 4.44329 1.94165 0
M  V30 525 N 44.343 -0.763751 1.37857 0
M  V30 526 C 45.573 -1.55067 1.3652 0
M  V30 527 C 45.981 -1.89135 -0.0494227 0
M  V30 528 O 45.324 -1.52529 -1.02375 0
M  V30 529 C 45.386 -2.8838 2.14656 0
M  V30 530 C 45.05 -2.76905 3.63555 0
M  V30 531 C 46.047 -2.4739 4.57268 0
M  V30 532 C 43.732 -2.94676 4.06781 0
M  V30 533 C 45.726 -2.35786 5.92186 0
M  V30 534 C 43.413 -2.82692 5.41782 0
M  V30 535 C 44.411 -2.53289 6.34298 0
M  V30 536 O 44.099 -2.41345 7.66817 0
M  V30 537 H 43.831 -0.486776 0.469069 0
M  V30 538 H 46.385 -0.953812 1.81911 0
M  V30 539 H 44.615 -3.50217 1.63967 0
M  V30 540 H 46.304 -3.49828 2.05852 0
M  V30 541 H 47.07 -2.33339 4.2518 0
M  V30 542 H 42.949 -3.16563 3.35126 0
M  V30 543 H 46.493 -2.12757 6.64365 0
M  V30 544 H 42.39 -2.96314 5.7347 0
M  V30 545 H 43.158 -2.56634 7.77226 0
M  V30 546 N 45.8211 -1.22559 -0.990812 0
M  V30 547 C 47.0981 -0.959875 -1.70428 0
M  V30 548 C 47.4781 0.524455 -2.04481 0
M  V30 549 O 46.8261 1.49302 -1.72977 0
M  V30 550 C 47.0361 -1.85955 -2.95333 0
M  V30 551 C 48.3841 -2.11687 -3.68068 0
M  V30 552 O 49.4081 -1.8342 -3.05345 0
M  V30 553 O 48.2671 -2.59572 -4.80921 0
M  V30 554 H 45.3611 -0.361154 -0.743974 0
M  V30 555 H 47.9071 -1.33554 -1.04697 0
M  V30 556 H 46.6791 -2.86346 -2.66687 0
M  V30 557 H 46.3021 -1.4856 -3.68803 0
M  V30 558 N 47.2992 1.18797 -1.03562 0
M  V30 559 C 48.5762 1.84469 -0.650434 0
M  V30 560 C 48.9562 1.92319 0.870433 0
M  V30 561 O 48.3042 1.44528 1.76986 0
M  V30 562 C 48.5142 3.2306 -1.32036 0
M  V30 563 C 49.8622 3.9915 -1.44792 0
M  V30 564 O 50.8862 3.32481 -1.27806 0
M  V30 565 O 49.7452 5.18587 -1.72423 0
M  V30 566 H 46.8392 0.795251 -0.226946 0
M  V30 567 H 49.3852 1.26231 -1.13419 0
M  V30 568 H 48.1572 3.1222 -2.3587 0
M  V30 569 H 47.7802 3.88949 -0.8249 0
M  V30 570 N 48.7773 0.814389 1.34928 0
M  V30 571 C 49.7073 0.244827 2.32213 0
M  V30 572 C 50.6883 -0.634024 1.57842 0
M  V30 573 O 51.8733 -0.562676 1.8587 0
M  V30 574 C 49.0033 -0.601106 3.42058 0
M  V30 575 C 47.9573 0.179896 4.27622 0
M  V30 576 C 47.2833 -0.788237 5.28858 0
M  V30 577 C 48.5833 1.38329 5.03649 0
M  V30 578 H 50.2773 1.05763 2.80097 0
M  V30 579 H 47.8233 0.510029 1.34665 0
M  V30 580 H 49.7763 -1.00968 4.09125 0
M  V30 581 H 48.5003 -1.44688 2.92802 0
M  V30 582 H 47.1593 0.569739 3.62146 0
M  V30 583 H 46.8073 -1.62973 4.75866 0
M  V30 584 H 46.5073 -0.269942 5.8698 0
M  V30 585 H 48.0313 -1.19485 5.98795 0
M  V30 586 H 49.4453 1.04918 5.63618 0
M  V30 587 H 47.8423 1.83662 5.71304 0
M  V30 588 H 48.9123 2.16592 4.33839 0
M  V30 589 N 50.2554 -1.46986 0.568584 0
M  V30 590 C 51.1884 -2.27129 -0.220779 0
M  V30 591 C 52.1664 -1.34757 -0.909905 0
M  V30 592 O 53.3504 -1.64152 -0.926622 0
M  V30 593 C 50.4774 -3.12108 -1.31553 0
M  V30 594 C 49.5234 -4.20141 -0.733748 0
M  V30 595 S 50.3564 -5.33783 0.428479 0
M  V30 596 C 51.5124 -6.22327 -0.667811 0
M  V30 597 H 51.7454 -2.93731 0.459267 0
M  V30 598 H 49.2784 -1.5026 0.355154 0
M  V30 599 H 51.2364 -3.61636 -1.94241 0
M  V30 600 H 49.8974 -2.44847 -1.96746 0
M  V30 601 H 49.0904 -4.79373 -1.5562 0
M  V30 602 H 48.6924 -3.73553 -0.182812 0
M  V30 603 H 50.9844 -6.59364 -1.55708 0
M  V30 604 H 51.9274 -7.0801 -0.11258 0
M  V30 605 H 52.3354 -5.5618 -0.965601 0
M  V30 606 N 51.7335 -0.305618 -1.54608 0
M  V30 607 C 52.9795 0.302746 -2.00528 0
M  V30 608 C 53.3125 1.53184 -1.19367 0
M  V30 609 O 52.5875 1.92598 -0.271321 0
M  V30 610 C 52.8705 0.654756 -3.54097 0
M  V30 611 C 52.7235 -0.583793 -4.45995 0
M  V30 612 C 54.0425 1.47947 -4.14487 0
M  V30 613 H 51.1615 0.108564 -0.72896 0
M  V30 614 H 53.8035 -0.418634 -1.85331 0
M  V30 615 H 51.9535 1.26935 -3.67178 0
M  V30 616 H 53.6255 -1.22224 -4.44814 0
M  V30 617 H 51.8685 -1.21615 -4.16404 0
M  V30 618 H 52.5395 -0.293287 -5.5122 0
M  V30 619 H 55.0155 0.96013 -4.04871 0
M  V30 620 H 53.8915 1.69454 -5.22088 0
M  V30 621 H 54.1525 2.47011 -3.66658 0
M  V30 622 N 53.2116 1.57565 -0.0334293 0
M  V30 623 C 54.1596 2.1164 0.96496 0
M  V30 624 C 55.1536 1.04398 1.33407 0
M  V30 625 O 56.3596 1.22828 1.3158 0
M  V30 626 H 52.7346 0.676222 0.32898 0
M  V30 627 H 54.7056 2.94455 0.483614 0
M  V30 628 C 53.4546 2.66207 2.23672 0
M  V30 629 H 52.7776 3.48378 1.96145 0
M  V30 630 H 54.2176 3.07685 2.9173 0
M  V30 631 C 52.6766 1.59151 2.96939 0
M  V30 632 O 53.2066 0.993858 3.89211 0
M  V30 633 N 51.4126 1.31093 2.59351 0
M  V30 634 H 50.9596 1.7988 1.84393 0
M  V30 635 H 50.9176 0.596889 3.08682 0
M  V30 636 N 54.6897 -0.239769 1.55765 0
M  V30 637 C 55.9197 -0.982743 1.8173 0
M  V30 638 C 56.3277 -1.7917 0.607835 0
M  V30 639 O 55.6707 -1.78525 -0.432973 0
M  V30 640 C 55.7327 -1.96332 3.01155 0
M  V30 641 C 55.3967 -1.34062 4.36894 0
M  V30 642 C 56.3937 -0.739539 5.14613 0
M  V30 643 C 54.0787 -1.35784 4.83599 0
M  V30 644 C 56.0727 -0.163989 6.37189 0
M  V30 645 C 53.7597 -0.778441 6.06122 0
M  V30 646 C 54.7577 -0.182548 6.82756 0
M  V30 647 O 54.4457 0.387887 8.02964 0
M  V30 648 H 54.1777 -0.294481 0.608487 0
M  V30 649 H 56.7317 -0.26572 2.03674 0
M  V30 650 H 54.9617 -2.71884 2.74984 0
M  V30 651 H 56.6507 -2.57032 3.14149 0
M  V30 652 H 57.4167 -0.718687 4.79646 0
M  V30 653 H 53.2957 -1.81105 4.23936 0
M  V30 654 H 56.8397 0.301753 6.96947 0
M  V30 655 H 52.7367 -0.796645 6.40565 0
M  V30 656 H 53.5047 0.28044 8.18019 0
M  V30 657 N 56.1678 -1.49265 -0.50573 0
M  V30 658 C 57.1158 -1.66065 -1.62866 0
M  V30 659 C 58.1098 -0.526636 -1.61006 0
M  V30 660 O 59.3158 -0.706126 -1.65571 0
M  V30 661 H 55.6908 -0.52356 -0.539805 0
M  V30 662 H 57.6618 -2.60329 -1.45848 0
M  V30 663 C 56.4108 -1.74008 -3.01026 0
M  V30 664 H 55.7338 -2.6064 -3.03161 0
M  V30 665 H 57.1738 -1.89798 -3.79147 0
M  V30 666 C 55.6328 -0.483868 -3.33407 0
M  V30 667 O 56.1628 0.392548 -3.99777 0
M  V30 668 N 54.3688 -0.348236 -2.88506 0
M  V30 669 H 53.9158 -1.06242 -2.34671 0
M  V30 670 H 53.8738 0.491204 -3.10539 0
M  V30 671 N 57.6459 0.756429 -1.3826 0
M  V30 672 C 59.0619 1.0591 -1.19395 0
M  V30 673 C 59.2619 2.01459 -0.0406567 0
M  V30 674 O 58.3179 2.44909 0.614467 0
M  V30 675 C 59.6309 1.64191 -2.51916 0
M  V30 676 C 61.1789 1.76376 -2.58574 0
M  V30 677 C 61.6539 2.38069 -3.91264 0
M  V30 678 N 63.1449 2.45503 -3.92788 0
M  V30 679 C 63.8799 2.94126 -4.92217 0
M  V30 680 N 63.3759 3.42805 -6.02043 0
M  V30 681 N 65.1689 2.9314 -4.7961 0
M  V30 682 H 57.3199 0.122313 -2.12048 0
M  V30 683 H 59.5829 0.116892 -0.940766 0
M  V30 684 H 59.2889 1.01451 -3.3675 0
M  V30 685 H 59.1629 2.6329 -2.70108 0
M  V30 686 H 61.5499 2.38244 -1.74137 0
M  V30 687 H 61.6309 0.759894 -2.44252 0
M  V30 688 H 61.2749 1.76835 -4.76121 0
M  V30 689 H 61.2049 3.39091 -4.02895 0
M  V30 690 H 63.6959 2.1107 -3.13461 0
M  V30 691 H 64.0089 3.78354 -6.73846 0
M  V30 692 H 62.3539 3.4087 -6.05667 0
M  V30 693 H 65.5449 2.54419 -3.92923 0
M  V30 694 H 65.7179 3.30721 -5.5725 0
M  V30 695 N 59.124 1.23083 0.984299 0
M  V30 696 C 60.074 0.975749 2.06066 0
M  V30 697 C 61.058 -0.0768251 1.60716 0
M  V30 698 O 62.25 0.134805 1.76486 0
M  V30 699 C 59.379 0.564673 3.38624 0
M  V30 700 C 58.465 1.65244 3.90583 0
M  V30 701 N 58.856 2.88193 4.15666 0
M  V30 702 C 57.154 1.52612 4.19077 0
M  V30 703 C 57.855 3.58593 4.58024 0
M  V30 704 N 56.831 2.86093 4.62225 0
M  V30 705 H 60.633 1.90957 2.23411 0
M  V30 706 H 58.147 1.12963 1.16675 0
M  V30 707 H 60.144 0.36322 4.15315 0
M  V30 708 H 58.804 -0.362147 3.22674 0
M  V30 709 H 59.815 3.24537 4.03604 0
M  V30 710 H 56.492 0.666121 4.12152 0
M  V30 711 H 57.882 4.63974 4.85982 0
M  V30 712 N 60.6021 -1.18246 1.0419 0
M  V30 713 C 62.0181 -1.40269 0.761366 0
M  V30 714 C 62.2181 -1.90777 -0.648578 0
M  V30 715 O 61.2741 -2.0929 -1.41258 0
M  V30 716 C 62.5871 -2.40237 1.8085 0
M  V30 717 C 64.1351 -2.53961 1.82955 0
M  V30 718 C 64.6101 -3.57194 2.86664 0
M  V30 719 N 66.1011 -3.64702 2.85563 0
M  V30 720 C 66.8361 -4.44309 3.6246 0
M  V30 721 N 66.3321 -5.27514 4.49111 0
M  V30 722 N 68.1251 -4.39084 3.50944 0
M  V30 723 H 60.2761 -0.837882 1.95175 0
M  V30 724 H 62.5391 -0.430608 0.84456 0
M  V30 725 H 62.2451 -2.10176 2.81991 0
M  V30 726 H 62.1191 -3.39601 1.64168 0
M  V30 727 H 64.5061 -2.83338 0.824855 0
M  V30 728 H 64.5871 -1.54706 2.03715 0
M  V30 729 H 64.2311 -3.28558 3.87314 0
M  V30 730 H 64.1611 -4.5613 2.6316 0
M  V30 731 H 66.6521 -3.05289 2.22727 0
M  V30 732 H 66.9651 -5.85411 5.04493 0
M  V30 733 H 65.3101 -5.2693 4.53178 0
M  V30 734 H 68.5011 -3.7313 2.82651 0
M  V30 735 H 68.6741 -5.00883 4.11121 0
M  V30 736 N 62.0802 -0.821533 -1.34494 0
M  V30 737 C 63.4962 -0.507117 -1.51329 0
M  V30 738 C 63.6962 0.968964 -1.76673 0
M  V30 739 O 62.7522 1.75348 -1.81685 0
M  V30 740 C 64.0652 -1.36544 -2.67911 0
M  V30 741 C 65.6132 -1.36242 -2.81793 0
M  V30 742 C 66.0882 -2.2052 -4.01416 0
M  V30 743 N 67.5792 -2.18136 -4.08621 0
M  V30 744 C 68.3142 -2.80095 -5.00334 0
M  V30 745 N 67.8102 -3.51039 -5.9728 0
M  V30 746 N 69.6032 -2.69656 -4.93196 0
M  V30 747 H 61.7542 -1.77729 -1.16302 0
M  V30 748 H 64.0172 -0.757291 -0.570276 0
M  V30 749 H 63.7232 -2.41361 -2.55808 0
M  V30 750 H 63.5972 -1.02917 -3.62888 0
M  V30 751 H 65.9842 -0.322041 -2.93338 0
M  V30 752 H 66.0652 -1.73866 -1.87628 0
M  V30 753 H 65.7092 -3.24607 -3.90631 0
M  V30 754 H 65.6392 -1.80247 -4.94791 0
M  V30 755 H 68.1302 -1.6653 -3.39229 0
M  V30 756 H 68.4432 -3.95565 -6.63889 0
M  V30 757 H 66.7882 -3.55145 -5.97409 0
M  V30 758 H 69.9792 -2.13808 -4.16418 0
M  V30 759 H 70.1522 -3.1823 -5.64476 0
M  V30 760 N 63.5583 1.46682 -0.576371 0
M  V30 761 C 64.9693 1.86112 -0.148091 0
M  V30 762 C 65.3203 1.48073 1.2872 0
M  V30 763 O 64.4453 0.892656 1.97131 0
M  V30 764 C 65.0403 3.37786 -0.261982 0
M  V30 765 C 63.5993 3.76235 0.111384 0
M  V30 766 C 62.7463 2.70713 -0.60083 0
M  V30 767 H 65.6973 1.37927 -0.78497 0
M  V30 768 H 65.7183 3.77007 0.514364 0
M  V30 769 H 65.2303 3.6544 -1.30671 0
M  V30 770 H 63.3313 3.54198 1.15649 0
M  V30 771 H 63.4443 4.78391 -0.26052 0
M  V30 772 H 61.8083 2.54666 -0.0417783 0
M  V30 773 H 62.5913 3.01208 -1.64708 0
M  V30 774 N 65.0364 0.313813 1.54444 0
M  V30 775 C 66.2614 -0.296681 2.05267 0
M  V30 776 C 66.6864 -1.45757 1.18897 0
M  V30 777 O 66.0444 -1.80239 0.195886 0
M  V30 778 C 66.0924 -0.71831 3.53373 0
M  V30 779 O 65.1964 -1.82175 3.69981 0
M  V30 780 H 64.5374 -0.0554061 0.661684 0
M  V30 781 H 67.0674 0.459387 1.99376 0
M  V30 782 H 67.0774 -1.00364 3.95463 0
M  V30 783 H 65.7524 0.130821 4.15694 0
M  V30 784 H 64.3294 -1.53598 3.39797 0
M  V30 785 N 66.5145 -1.57545 0.0417849 0
M  V30 786 C 67.7425 -1.96624 -0.643928 0
M  V30 787 C 68.1575 -0.918897 -1.64929 0
M  V30 788 O 67.5145 0.0979323 -1.82237 0
M  V30 789 C 67.5655 -3.35781 -1.33914 0
M  V30 790 O 67.2865 -4.365 -0.374048 0
M  V30 791 C 68.7875 -3.89566 -2.1155 0
M  V30 792 H 66.0075 -0.647316 -0.176702 0
M  V30 793 H 68.5515 -2.04229 0.105304 0
M  V30 794 H 66.7065 -3.29357 -2.03968 0
M  V30 795 H 67.1205 -5.17248 -0.869179 0
M  V30 796 H 68.5945 -4.89242 -2.55628 0
M  V30 797 H 69.0715 -3.24488 -2.9598 0
M  V30 798 H 69.6775 -3.99298 -1.46427 0
M  V30 799 N 67.9926 0.231505 -1.5589 0
M  V30 800 C 69.2176 0.978689 -1.82856 0
M  V30 801 C 69.6426 1.77559 -0.620846 0
M  V30 802 O 69.0006 1.76119 0.430305 0
M  V30 803 C 69.0486 1.87997 -3.07716 0
M  V30 804 O 68.1526 2.97393 -2.85712 0
M  V30 805 H 67.4936 0.277663 -0.603158 0
M  V30 806 H 70.0236 0.24783 -2.03093 0
M  V30 807 H 70.0336 2.2917 -3.37558 0
M  V30 808 H 68.7086 1.29417 -3.95252 0
M  V30 809 H 67.2856 2.60238 -2.67078 0
M  V30 810 N 69.4707 1.49531 0.497807 0
M  V30 811 C 70.8817 1.52344 1.07927 0
M  V30 812 C 71.2327 0.311469 1.93712 0
M  V30 813 O 70.3577 -0.578405 2.08527 0
M  V30 814 C 70.9527 2.76062 1.96405 0
M  V30 815 C 69.5117 2.81643 2.49709 0
M  V30 816 C 68.6587 2.46299 1.27404 0
M  V30 817 H 71.6097 1.56182 0.281576 0
M  V30 818 H 71.6307 2.56405 2.81135 0
M  V30 819 H 71.1427 3.64254 1.33943 0
M  V30 820 H 69.2437 1.97739 3.15801 0
M  V30 821 H 69.3567 3.83891 2.86643 0
M  V30 822 H 67.7207 1.98148 1.60029 0
M  V30 823 H 68.5037 3.36769 0.66645 0
M  V30 824 N 70.9488 -0.749086 1.3866 0
M  V30 825 C 71.8968 -1.88428 1.36373 0
M  V30 826 C 72.8908 -1.67561 0.248929 0
M  V30 827 O 74.0968 -1.75074 0.41821 0
M  V30 828 H 70.4718 -0.620023 0.42553 0
M  V30 829 H 72.4428 -1.87473 2.32156 0
M  V30 830 C 71.1918 -3.25961 1.21014 0
M  V30 831 H 70.5148 -3.42607 2.06059 0
M  V30 832 H 71.9548 -4.05625 1.23469 0
M  V30 833 C 70.4138 -3.36799 -0.0825941 0
M  V30 834 O 70.9438 -3.87517 -1.05797 0
M  V30 835 N 69.1498 -2.90258 -0.140939 0
M  V30 836 H 68.6968 -2.49174 0.653477 0
M  V30 837 H 68.6548 -2.97889 -1.00545 0
M  V30 838 N 72.4269 -1.23603 -0.977757 0
M  V30 839 C 73.3739 -1.01954 -2.07061 0
M  V30 840 C 74.3439 0.0638697 -1.65977 0
M  V30 841 O 75.5289 -0.0887624 -1.90593 0
M  V30 842 C 72.6689 -0.619658 -3.39491 0
M  V30 843 C 71.7819 -1.77547 -3.93829 0
M  V30 844 C 70.9169 -1.32212 -5.14484 0
M  V30 845 C 69.9559 -2.44852 -5.60994 0
M  V30 846 N 69.0929 -2.00456 -6.72876 0
M  V30 847 H 73.9329 -1.95495 -2.24913 0
M  V30 848 H 71.4699 -0.973861 -1.10247 0
M  V30 849 H 73.4279 -0.368898 -4.15566 0
M  V30 850 H 72.0579 0.278752 -3.21594 0
M  V30 851 H 71.1099 -2.14016 -3.14486 0
M  V30 852 H 72.4219 -2.62219 -4.24314 0
M  V30 853 H 71.5759 -1.02965 -5.97899 0
M  V30 854 H 70.3149 -0.445808 -4.85658 0
M  V30 855 H 69.3199 -2.74871 -4.76157 0
M  V30 856 H 70.5449 -3.33024 -5.91837 0
M  V30 857 H 68.4909 -1.15208 -6.45804 0
M  V30 858 H 68.4079 -2.78687 -7.02759 0
M  V30 859 H 69.6759 -1.7432 -7.59758 0
M  V30 860 N 73.905 1.17692 -1.04816 0
M  V30 861 C 75.316 1.69501 -0.782698 0
M  V30 862 C 75.667 1.83456 0.695577 0
M  V30 863 O 74.792 1.51942 1.54086 0
M  V30 864 C 75.387 3.07874 -1.41419 0
M  V30 865 C 73.946 3.56864 -1.19686 0
M  V30 866 C 73.093 2.3322 -1.50012 0
M  V30 867 H 76.044 1.02262 -1.2136 0
M  V30 868 H 76.065 3.71528 -0.821428 0
M  V30 869 H 75.577 2.97685 -2.49009 0
M  V30 870 H 73.678 3.72337 -0.140043 0
M  V30 871 H 73.791 4.39851 -1.89916 0
M  V30 872 H 72.155 2.37501 -0.920071 0
M  V30 873 H 72.938 2.25644 -2.58727 0
M  V30 874 N 75.3831 0.828654 1.34056 0
M  V30 875 C 76.3131 0.269443 2.3194 0
M  V30 876 C 77.2941 -0.617247 1.58506 0
M  V30 877 O 78.4791 -0.542931 1.86456 0
M  V30 878 C 75.6091 -0.564793 3.42677 0
M  V30 879 C 74.5631 0.225241 4.27407 0
M  V30 880 C 73.8891 -0.7321 5.29664 0
M  V30 881 C 75.1891 1.43663 5.02154 0
M  V30 882 H 76.8831 1.08728 2.7896 0
M  V30 883 H 74.4291 0.524283 1.34117 0
M  V30 884 H 76.3821 -0.966233 4.10173 0
M  V30 885 H 75.1061 -1.41574 2.9432 0
M  V30 886 H 73.7651 0.608117 3.61521 0
M  V30 887 H 73.4131 -1.57916 4.77568 0
M  V30 888 H 73.1131 -0.20767 5.87233 0
M  V30 889 H 74.6371 -1.13128 6.00029 0
M  V30 890 H 76.0511 1.1089 5.62473 0
M  V30 891 H 74.4481 1.89711 5.69324 0
M  V30 892 H 75.5181 2.21181 4.31517 0
M  V30 893 N 76.8612 -1.46375 0.584142 0
M  V30 894 C 78.0892 -2.06761 0.0759296 0
M  V30 895 C 78.5042 -1.43266 -1.22965 0
M  V30 896 O 77.8612 -0.538458 -1.74376 0
M  V30 897 C 77.9122 -3.61375 -0.0950384 0
M  V30 898 O 77.6332 -4.22495 1.15887 0
M  V30 899 C 79.1342 -4.38693 -0.637434 0
M  V30 900 H 76.3542 -0.668479 0.0581075 0
M  V30 901 H 78.8982 -1.8798 0.805218 0
M  V30 902 H 77.0532 -3.79578 -0.774554 0
M  V30 903 H 77.4672 -5.15385 0.973598 0
M  V30 904 H 78.9412 -5.47464 -0.706237 0
M  V30 905 H 79.4182 -4.06836 -1.65472 0
M  V30 906 H 80.0242 -4.25299 0.00725967 0
M  V30 907 N 78.3393 -0.321999 -1.54275 0
M  V30 908 C 79.5883 0.281931 -1.9972 0
M  V30 909 C 79.9013 1.53369 -1.21397 0
M  V30 910 O 81.1073 2.21352 -1.57211 0
M  V30 911 C 79.5633 0.5529 -3.55628 0
M  V30 912 C 79.1713 -0.681721 -4.42783 0
M  V30 913 C 80.9153 1.11687 -4.09544 0
M  V30 914 C 78.8223 -0.382742 -5.9016 0
M  V30 915 H 77.7523 0.109124 -0.746062 0
M  V30 916 H 80.4033 -0.43398 -1.78294 0
M  V30 917 H 78.7853 1.32896 -3.73035 0
M  V30 918 H 79.9593 -1.45723 -4.37151 0
M  V30 919 H 78.2743 -1.1658 -3.99748 0
M  V30 920 H 80.8713 1.35515 -5.17242 0
M  V30 921 H 81.2143 2.06575 -3.61431 0
M  V30 922 H 81.7473 0.402032 -3.95763 0
M  V30 923 H 78.4863 -1.30076 -6.42464 0
M  V30 924 H 78.0063 0.355094 -5.98748 0
M  V30 925 H 79.6853 0.00800157 -6.47 0
M  V30 926 N 79.8174 1.5752 -0.0501392 0
M  V30 927 C 80.7644 2.1147 0.924603 0
M  V30 928 C 81.7344 1.02182 1.30951 0
M  V30 929 O 82.9194 1.29723 1.39916 0
M  V30 930 C 80.0594 2.66337 2.19451 0
M  V30 931 C 79.1724 3.89708 1.86418 0
M  V30 932 C 78.3074 4.32893 3.07859 0
M  V30 933 C 77.3464 5.48967 2.70742 0
M  V30 934 N 76.4834 5.87211 3.84874 0
M  V30 935 H 81.3234 2.94465 0.457639 0
M  V30 936 H 78.8604 1.45531 0.214266 0
M  V30 937 H 80.8184 2.96247 2.93758 0
M  V30 938 H 79.4484 1.86141 2.63726 0
M  V30 939 H 78.5004 3.66396 1.02264 0
M  V30 940 H 79.8124 4.74074 1.55096 0
M  V30 941 H 78.9664 4.6435 3.90466 0
M  V30 942 H 77.7054 3.47336 3.42358 0
M  V30 943 H 76.7104 5.17183 1.86551 0
M  V30 944 H 77.9354 6.3624 2.37436 0
M  V30 945 H 75.8814 5.04607 4.19175 0
M  V30 946 H 75.7984 6.66266 3.57247 0
M  V30 947 H 77.0664 6.23282 4.68123 0
M  V30 948 N 81.2955 -0.223234 1.56011 0
M  V30 949 C 82.2255 -1.27988 1.95298 0
M  V30 950 C 83.2065 -1.48976 0.820979 0
M  V30 951 O 84.3915 -1.61188 1.08315 0
M  V30 952 C 81.5215 -2.63 2.26822 0
M  V30 953 C 80.4755 -2.56671 3.42497 0
M  V30 954 C 79.8015 -3.95697 3.59622 0
M  V30 955 C 81.1015 -2.11601 4.77517 0
M  V30 956 H 82.7955 -0.953525 2.8381 0
M  V30 957 H 80.3415 -0.457244 1.36548 0
M  V30 958 H 82.2945 -3.37077 2.52898 0
M  V30 959 H 81.0185 -2.9732 1.35161 0
M  V30 960 H 79.6775 -1.85051 3.16467 0
M  V30 961 H 79.3255 -4.27322 2.6534 0
M  V30 962 H 79.0255 -3.92345 4.37424 0
M  V30 963 H 80.5495 -4.71438 3.88044 0
M  V30 964 H 81.9635 -2.7542 5.02809 0
M  V30 965 H 80.3605 -2.19311 5.5859 0
M  V30 966 H 81.4305 -1.06824 4.72987 0
M  V30 967 N 82.7736 -1.49793 -0.48987 0
M  V30 968 C 83.7206 -1.67281 -1.59014 0
M  V30 969 C 84.6906 -0.514177 -1.57941 0
M  V30 970 O 85.8756 -0.742533 -1.75759 0
M  V30 971 C 83.0156 -1.75569 -2.97102 0
M  V30 972 C 82.1286 -3.0281 -3.08107 0
M  V30 973 C 81.2636 -3.02008 -4.36995 0
M  V30 974 C 80.3026 -4.23782 -4.41673 0
M  V30 975 N 79.4396 -4.20826 -5.62005 0
M  V30 976 H 84.2796 -2.61224 -1.43409 0
M  V30 977 H 81.8166 -1.29508 -0.697565 0
M  V30 978 H 83.7746 -1.78354 -3.77155 0
M  V30 979 H 82.4046 -0.850827 -3.11385 0
M  V30 980 H 81.4566 -3.09584 -2.21047 0
M  V30 981 H 82.7686 -3.92801 -3.07423 0
M  V30 982 H 81.9226 -3.03418 -5.25378 0
M  V30 983 H 80.6616 -2.09815 -4.4026 0
M  V30 984 H 79.6666 -4.22604 -3.5169 0
M  V30 985 H 80.8916 -5.17181 -4.40115 0
M  V30 986 H 78.8376 -3.31476 -5.66091 0
M  V30 987 H 78.7546 -5.04564 -5.62984 0
M  V30 988 H 80.0226 -4.26355 -6.52565 0
M  V30 989 N 84.2517 0.741722 -1.39055 0
M  V30 990 C 85.1817 1.869 -1.39966 0
M  V30 991 C 86.1627 1.6804 -0.26392 0
M  V30 992 O 87.3477 1.88458 -0.468755 0
M  V30 993 C 84.4777 3.24572 -1.23574 0
M  V30 994 C 83.4317 3.58056 -2.34477 0
M  V30 995 C 82.7577 4.94593 -2.0318 0
M  V30 996 C 84.0577 3.61716 -3.76774 0
M  V30 997 H 85.7517 1.86395 -2.34302 0
M  V30 998 H 83.2977 0.895361 -1.1278 0
M  V30 999 H 85.2507 4.031 -1.22834 0
M  V30 1000 H 83.9747 3.25587 -0.257045 0
M  V30 1001 H 82.6337 2.81854 -2.34423 0
M  V30 1002 H 82.2817 4.92181 -1.03765 0
M  V30 1003 H 81.9817 5.17964 -2.77465 0
M  V30 1004 H 83.5057 5.75486 -2.04079 0
M  V30 1005 H 84.9197 4.30335 -3.78794 0
M  V30 1006 H 83.3167 3.96603 -4.50362 0
M  V30 1007 H 84.3867 2.61672 -4.08235 0
M  V30 1008 N 85.7298 1.2412 0.971189 0
M  V30 1009 C 87.1458 1.00584 1.23916 0
M  V30 1010 C 87.3458 -0.287481 1.99439 0
M  V30 1011 O 86.4018 -1.00454 2.31658 0
M  V30 1012 C 87.7148 2.21864 2.0297 0
M  V30 1013 C 89.2628 2.26452 2.16076 0
M  V30 1014 C 89.7378 3.47343 2.98524 0
M  V30 1015 N 91.2288 3.47639 3.06107 0
M  V30 1016 C 91.9638 4.37837 3.70251 0
M  V30 1017 N 91.4598 5.38286 4.36142 0
M  V30 1018 N 93.2528 4.25558 3.67228 0
M  V30 1019 H 85.4038 2.07236 0.465499 0
M  V30 1020 H 87.6668 0.909236 0.268315 0
M  V30 1021 H 87.3728 3.15771 1.54861 0
M  V30 1022 H 87.2468 2.23698 3.03709 0
M  V30 1023 H 89.6338 1.33078 2.6339 0
M  V30 1024 H 89.7148 2.28645 1.14696 0
M  V30 1025 H 89.3588 4.41029 2.51905 0
M  V30 1026 H 89.2888 3.42393 4.00093 0
M  V30 1027 H 91.7798 2.74966 2.59233 0
M  V30 1028 H 92.0928 6.03352 4.82894 0
M  V30 1029 H 90.4378 5.42176 4.34822 0
M  V30 1030 H 93.6288 3.46322 3.14927 0
M  V30 1031 H 93.8018 4.96054 4.16935 0
M  V30 1032 N 87.2079 -1.17134 1.05439 0
M  V30 1033 C 88.1379 -2.2342 0.678649 0
M  V30 1034 C 89.1189 -1.66971 -0.32476 0
M  V30 1035 O 90.3039 -1.93149 -0.201802 0
M  V30 1036 C 87.4339 -3.47256 0.0552099 0
M  V30 1037 C 86.3879 -4.16543 0.98365 0
M  V30 1038 C 85.7139 -5.34231 0.223961 0
M  V30 1039 C 87.0139 -4.68495 2.3089 0
M  V30 1040 H 88.7079 -2.55105 1.56722 0
M  V30 1041 H 86.2539 -1.2262 0.754998 0
M  V30 1042 H 88.2069 -4.20828 -0.21946 0
M  V30 1043 H 86.9309 -3.14846 -0.868319 0
M  V30 1044 H 85.5899 -3.44887 1.24293 0
M  V30 1045 H 85.2379 -4.98071 -0.702412 0
M  V30 1046 H 84.9379 -5.81527 0.842627 0
M  V30 1047 H 86.4619 -6.10585 -0.0433671 0
M  V30 1048 H 87.8759 -5.33691 2.09396 0
M  V30 1049 H 86.2729 -5.26379 2.88176 0
M  V30 1050 H 87.3429 -3.85169 2.94572 0
M  V30 1051 N 88.686 -0.835752 -1.33615 0
M  V30 1052 C 89.911 -0.442389 -2.02627 0
M  V30 1053 C 90.336 0.947735 -1.62479 0
M  V30 1054 O 89.694 1.61907 -0.815826 0
M  V30 1055 C 89.742 -0.567216 -3.56111 0
M  V30 1056 O 88.846 0.407799 -4.10379 0
M  V30 1057 H 88.187 -0.180278 -0.639059 0
M  V30 1058 H 90.717 -1.12972 -1.70583 0
M  V30 1059 H 90.727 -0.447708 -4.05536 0
M  V30 1060 H 89.402 -1.58103 -3.84677 0
M  V30 1061 H 87.979 0.246107 -3.72087 0
M  V30 1062 N 90.1641 1.46063 -0.591896 0
M  V30 1063 C 91.0961 2.28539 0.174001 0
M  V30 1064 C 92.1091 1.39047 0.846753 0
M  V30 1065 O 93.2981 1.63564 0.714774 0
M  V30 1066 C 90.3981 3.14347 1.26645 0
M  V30 1067 C 89.5711 4.32021 0.683856 0
M  V30 1068 C 88.6301 4.99157 1.66518 0
M  V30 1069 O 87.6561 5.56458 1.19763 0
M  V30 1070 N 88.8581 4.97005 2.99943 0
M  V30 1071 H 91.6231 2.94911 -0.533633 0
M  V30 1072 H 89.1841 1.56077 -0.430294 0
M  V30 1073 H 91.1761 3.56125 1.92242 0
M  V30 1074 H 89.7461 2.49988 1.87682 0
M  V30 1075 H 88.9661 3.93915 -0.1498 0
M  V30 1076 H 90.2541 5.08059 0.274567 0
M  V30 1077 H 89.6521 4.51714 3.40545 0
M  V30 1078 H 88.2091 5.42696 3.61004 0
M  V30 1079 N 91.6422 0.330177 1.54103 0
M  V30 1080 C 92.8912 -0.271336 1.99867 0
M  V30 1081 C 93.2042 -1.52723 1.22209 0
M  V30 1082 O 94.4102 -2.20515 1.58383 0
M  V30 1083 C 92.8662 -0.534032 3.55916 0
M  V30 1084 C 92.4742 0.705193 4.42415 0
M  V30 1085 C 94.2182 -1.09514 4.1013 0
M  V30 1086 C 92.1252 0.414035 5.89949 0
M  V30 1087 H 91.0552 -0.105166 0.74663 0
M  V30 1088 H 93.7062 0.443429 1.78062 0
M  V30 1089 H 92.0882 -1.30915 3.73734 0
M  V30 1090 H 93.2622 1.4804 4.36372 0
M  V30 1091 H 91.5772 1.18698 3.99124 0
M  V30 1092 H 94.1742 -1.3277 5.17954 0
M  V30 1093 H 94.5172 -2.04656 3.62521 0
M  V30 1094 H 95.0502 -0.381038 3.95971 0
M  V30 1095 H 91.7892 1.33481 6.41766 0
M  V30 1096 H 91.3092 -0.323336 5.98928 0
M  V30 1097 H 92.9882 0.0263105 6.46995 0
M  V30 1098 N 93.1203 -1.57491 0.0584922 0
M  V30 1099 C 94.3693 -1.92155 -0.613146 0
M  V30 1100 C 94.6823 -0.939334 -1.71569 0
M  V30 1101 O 95.8883 -1.17829 -2.44599 0
M  V30 1102 C 94.3443 -3.41303 -1.14195 0
M  V30 1103 C 93.9523 -4.47944 -0.0711265 0
M  V30 1104 C 95.6963 -3.84988 -1.78841 0
M  V30 1105 C 93.6033 -5.88212 -0.613225 0
M  V30 1106 H 92.5333 -0.717162 -0.232796 0
M  V30 1107 H 95.1843 -1.83049 0.12857 0
M  V30 1108 H 93.5663 -3.45437 -1.93621 0
M  V30 1109 H 94.7403 -4.55408 0.702836 0
M  V30 1110 H 93.0553 -4.13644 0.478313 0
M  V30 1111 H 95.6523 -4.87159 -2.20408 0
M  V30 1112 H 95.9953 -3.21632 -2.64308 0
M  V30 1113 H 96.5283 -3.83401 -1.06059 0
M  V30 1114 H 93.2673 -6.55183 0.203978 0
M  V30 1115 H 92.7873 -5.84294 -1.35501 0
M  V30 1116 H 94.4663 -6.37687 -1.09383 0
M  V30 1117 N 94.5984 0.214957 -1.56127 0
M  V30 1118 C 95.8754 0.963093 -1.70247 0
M  V30 1119 C 96.2554 2.02166 -0.60764 0
M  V30 1120 O 95.6034 2.25244 0.384385 0
M  V30 1121 C 95.8134 1.56756 -3.11815 0
M  V30 1122 C 97.1614 2.0573 -3.7143 0
M  V30 1123 O 98.1854 1.66637 -3.14818 0
M  V30 1124 O 97.0444 2.77603 -4.70743 0
M  V30 1125 H 94.1384 0.450321 -0.693643 0
M  V30 1126 H 96.6844 0.206219 -1.68442 0
M  V30 1127 H 95.4564 0.803533 -3.82961 0
M  V30 1128 H 95.0794 2.3898 -3.17765 0
M  V30 1129 N 96.0765 1.50051 0.48192 0
M  V30 1130 C 97.3225 1.60736 1.2366 0
M  V30 1131 C 97.6555 0.301786 1.91841 0
M  V30 1132 O 96.9305 -0.696025 1.8162 0
M  V30 1133 C 97.2135 2.78009 2.28874 0
M  V30 1134 C 97.0665 4.18416 1.65069 0
M  V30 1135 C 98.3855 2.90867 3.30279 0
M  V30 1136 H 95.5045 0.585031 0.448228 0
M  V30 1137 H 98.1465 1.82402 0.531946 0
M  V30 1138 H 96.2965 2.59667 2.88973 0
M  V30 1139 H 97.9685 4.48322 1.0865 0
M  V30 1140 H 96.2115 4.23177 0.954148 0
M  V30 1141 H 96.8825 4.96381 2.41474 0
M  V30 1142 H 99.3585 3.07623 2.80191 0
M  V30 1143 H 98.2345 3.74566 4.01238 0
M  V30 1144 H 98.4955 2.01021 3.93755 0
M  V30 1145 N 97.5546 -0.734337 1.39446 0
M  V30 1146 C 98.5046 -1.83949 1.34709 0
M  V30 1147 C 99.4886 -1.59279 0.227851 0
M  V30 1148 O 100.681 -1.70771 0.465438 0
M  V30 1149 C 97.8096 -3.21884 1.19356 0
M  V30 1150 C 96.8956 -3.52381 2.35984 0
M  V30 1151 N 97.2866 -3.53811 3.61457 0
M  V30 1152 C 95.5846 -3.82747 2.28956 0
M  V30 1153 C 96.2856 -3.82122 4.38586 0
M  V30 1154 N 95.2616 -3.9993 3.68181 0
M  V30 1155 H 99.0636 -1.83361 2.29687 0
M  V30 1156 H 96.5776 -0.932609 1.32952 0
M  V30 1157 H 98.5746 -4.00998 1.14046 0
M  V30 1158 H 97.2346 -3.23711 0.253295 0
M  V30 1159 H 98.2456 -3.35107 3.94872 0
M  V30 1160 H 94.9226 -3.92175 1.43194 0
M  V30 1161 H 96.3126 -3.89691 5.47349 0
M  V30 1162 N 99.0327 -1.24633 -0.964593 0
M  V30 1163 C 99.9427 -1.05859 -2.09359 0
M  V30 1164 C 100.959 0.00148855 -1.74 0
M  V30 1165 O 102.135 -0.197346 -2.00431 0
M  V30 1166 C 99.1997 -0.668879 -3.40187 0
M  V30 1167 C 98.2607 -1.80578 -3.89474 0
M  V30 1168 C 97.4937 -1.43457 -5.14058 0
M  V30 1169 O 97.7167 -0.325775 -5.69469 0
M  V30 1170 O 96.6507 -2.2613 -5.57807 0
M  V30 1171 H 100.477 -2.00516 -2.28094 0
M  V30 1172 H 98.0617 -1.03481 -1.0776 0
M  V30 1173 H 99.9437 -0.463211 -4.18846 0
M  V30 1174 H 98.6187 0.248536 -3.22744 0
M  V30 1175 H 97.5257 -2.06623 -3.11862 0
M  V30 1176 H 98.8587 -2.70208 -4.11398 0
M  V30 1177 N 100.511 1.16574 -1.06058 0
M  V30 1178 C 101.76 1.86385 -0.770944 0
M  V30 1179 C 102.073 1.82448 0.705129 0
M  V30 1180 O 103.279 2.47815 1.10905 0
M  V30 1181 C 101.735 3.34466 -1.32893 0
M  V30 1182 C 101.343 3.46883 -2.83507 0
M  V30 1183 C 103.087 4.09548 -1.11672 0
M  V30 1184 C 100.994 4.89036 -3.32562 0
M  V30 1185 H 99.9238 0.698181 -0.284709 0
M  V30 1186 H 102.575 1.31583 -1.27899 0
M  V30 1187 H 100.957 3.88859 -0.748662 0
M  V30 1188 H 102.131 3.02663 -3.47465 0
M  V30 1189 H 100.446 2.85232 -3.03368 0
M  V30 1190 H 103.043 5.14434 -1.45814 0
M  V30 1191 H 103.386 4.16264 -0.0549535 0
M  V30 1192 H 103.919 3.61387 -1.66265 0
M  V30 1193 H 100.658 4.87499 -4.38207 0
M  V30 1194 H 100.178 5.3389 -2.73351 0
M  V30 1195 H 101.857 5.57843 -3.2775 0
M  V30 1196 N 101.989 0.842826 1.3317 0
M  V30 1197 C 103.266 0.362216 1.92217 0
M  V30 1198 C 103.646 -1.15289 1.76838 0
M  V30 1199 O 102.994 -1.96914 1.15919 0
M  V30 1200 C 103.204 0.813495 3.39387 0
M  V30 1201 C 104.552 0.823804 4.16532 0
M  V30 1202 O 105.576 0.757358 3.48055 0
M  V30 1203 O 104.435 0.915193 5.38782 0
M  V30 1204 H 101.529 0.103317 0.820521 0
M  V30 1205 H 104.075 0.928942 1.42017 0
M  V30 1206 H 102.847 1.85624 3.4447 0
M  V30 1207 H 102.47 0.223561 3.96971 0
M  V30 1208 N 103.467 -1.45747 0.599634 0
M  V30 1209 C 104.399 -2.28628 -0.161879 0
M  V30 1210 C 105.412 -1.39494 -0.839367 0
M  V30 1211 O 106.601 -1.63941 -0.706089 0
M  V30 1212 C 103.701 -3.15014 -1.24976 0
M  V30 1213 C 102.874 -4.32378 -0.660935 0
M  V30 1214 C 101.933 -5.00033 -1.63869 0
M  V30 1215 O 100.959 -5.57085 -1.1681 0
M  V30 1216 N 102.161 -4.98589 -2.97303 0
M  V30 1217 H 104.926 -2.94624 0.549265 0
M  V30 1218 H 102.487 -1.55847 0.438565 0
M  V30 1219 H 104.479 -3.5714 -1.9035 0
M  V30 1220 H 103.049 -2.5098 -1.86354 0
M  V30 1221 H 102.269 -3.9383 0.170688 0
M  V30 1222 H 103.557 -5.08197 -0.247619 0
M  V30 1223 H 102.955 -4.53514 -3.38145 0
M  V30 1224 H 101.512 -5.44603 -3.58121 0
M  V30 1225 N 104.945 -0.338344 -1.53925 0
M  V30 1226 C 106.194 0.260732 -2.00008 0
M  V30 1227 C 106.507 1.52073 -1.23017 0
M  V30 1228 O 107.713 2.19672 -1.5955 0
M  V30 1229 C 106.169 0.51515 -3.56194 0
M  V30 1230 C 105.777 -0.728645 -4.42035 0
M  V30 1231 C 107.521 1.07337 -4.10706 0
M  V30 1232 C 105.428 -0.445315 -5.89721 0
M  V30 1233 H 104.358 0.101205 -0.747177 0
M  V30 1234 H 107.009 -0.452866 -1.77824 0
M  V30 1235 H 105.391 1.28932 -3.74423 0
M  V30 1236 H 106.565 -1.50352 -4.35581 0
M  V30 1237 H 104.88 -1.20813 -3.98489 0
M  V30 1238 H 107.477 1.30022 -5.18651 0
M  V30 1239 H 107.82 2.0273 -3.63602 0
M  V30 1240 H 108.353 0.360034 -3.96167 0
M  V30 1241 H 105.092 -1.36883 -6.41049 0
M  V30 1242 H 104.612 0.291569 -5.99091 0
M  V30 1243 H 106.291 -0.0606218 -6.46972 0
M  V30 1244 N 106.423 1.57458 -0.0668435 0
M  V30 1245 C 107.356 2.08033 0.93795 0
M  V30 1246 C 108.334 0.984321 1.29421 0
M  V30 1247 O 109.518 1.25736 1.40437 0
M  V30 1248 C 106.645 2.53388 2.24749 0
M  V30 1249 C 105.691 3.74376 2.04315 0
M  V30 1250 S 106.524 5.19303 1.30706 0
M  V30 1251 C 107.68 5.67986 2.62951 0
M  V30 1252 H 107.913 2.92935 0.50759 0
M  V30 1253 H 105.446 1.5371 0.145804 0
M  V30 1254 H 107.404 2.8018 3.00016 0
M  V30 1255 H 106.065 1.68763 2.64911 0
M  V30 1256 H 105.258 4.04083 3.01218 0
M  V30 1257 H 104.86 3.47931 1.37186 0
M  V30 1258 H 107.152 5.74528 3.5906 0
M  V30 1259 H 108.095 6.66955 2.3786 0
M  V30 1260 H 108.503 4.95781 2.69929 0
M  V30 1261 N 107.901 -0.206675 1.56239 0
M  V30 1262 C 109.129 -0.945345 1.8404 0
M  V30 1263 C 109.544 -1.77336 0.647885 0
M  V30 1264 O 108.901 -1.78425 -0.383511 0
M  V30 1265 C 108.952 -1.8509 3.10522 0
M  V30 1266 O 108.673 -1.05634 4.25174 0
M  V30 1267 C 110.174 -2.70222 3.51418 0
M  V30 1268 H 107.394 -0.276372 0.61144 0
M  V30 1269 H 109.938 -0.217417 2.03341 0
M  V30 1270 H 108.093 -2.53259 2.93153 0
M  V30 1271 H 108.507 -1.67238 4.97124 0
M  V30 1272 H 109.981 -3.29438 4.42916 0
M  V30 1273 H 110.458 -3.43358 2.73864 0
M  V30 1274 H 111.064 -2.07443 3.71278 0
M  V30 1275 N 109.379 -1.50304 -0.473955 0
M  V30 1276 C 110.619 -1.62786 -1.23612 0
M  V30 1277 C 110.983 -0.319786 -1.89318 0
M  V30 1278 O 112.184 -0.320012 -2.66888 0
M  V30 1279 C 110.455 -2.77351 -2.25414 0
M  V30 1280 S 112.014 -3.09948 -3.10608 0
M  V30 1281 H 108.832 -0.573895 -0.419721 0
M  V30 1282 H 111.434 -1.88076 -0.533623 0
M  V30 1283 H 110.138 -3.70879 -1.75719 0
M  V30 1284 H 109.669 -2.54137 -3.00296 0
M  V30 1285 H 111.684 -2.53553 -4.26527 0
M  V30 1286 N 110.857 0.726932 -1.39834 0
M  V30 1287 C 112.082 1.52121 -1.40976 0
M  V30 1288 C 112.507 1.88098 -0.00826029 0
M  V30 1289 O 111.865 1.52479 0.980807 0
M  V30 1290 C 111.913 2.78021 -2.29644 0
M  V30 1291 O 111.017 3.74272 -1.73188 0
M  V30 1292 H 110.358 0.45908 -0.479731 0
M  V30 1293 H 112.888 0.896207 -1.83927 0
M  V30 1294 H 112.898 3.26671 -2.44438 0
M  V30 1295 H 111.573 2.51169 -3.31492 0
M  V30 1296 H 110.15 3.33073 -1.6768 0
M  V30 1297 N 112.336 1.25143 0.95797 0
M  V30 1298 C 113.582 1.09855 1.70469 0
M  V30 1299 C 113.915 -0.360187 1.90831 0
M  V30 1300 O 113.19 -1.26568 1.47685 0
M  V30 1301 C 113.473 1.8497 3.08963 0
M  V30 1302 C 113.326 3.38652 2.96032 0
M  V30 1303 C 114.645 1.63016 4.08795 0
M  V30 1304 H 111.764 0.400465 0.618706 0
M  V30 1305 H 114.406 1.53933 1.11376 0
M  V30 1306 H 112.556 1.47505 3.59409 0
M  V30 1307 H 114.228 3.85772 2.52938 0
M  V30 1308 H 112.471 3.66534 2.32025 0
M  V30 1309 H 113.142 3.8642 3.94187 0
M  V30 1310 H 115.618 1.95625 3.67247 0
M  V30 1311 H 114.494 2.18015 5.03747 0
M  V30 1312 H 114.755 0.570692 4.38401 0
M  V30 1313 N 113.814 -1.1601 1.06675 0
M  V30 1314 C 115.06 -1.87145 0.796766 0
M  V30 1315 C 115.415 -1.8037 -0.669658 0
M  V30 1316 O 114.708 -1.21116 -1.48463 0
M  V30 1317 C 114.902 -3.35547 1.23057 0
M  V30 1318 C 114.731 -3.56769 2.73762 0
M  V30 1319 C 113.501 -3.72635 3.41279 0
M  V30 1320 C 115.699 -3.55166 3.7197 0
M  V30 1321 N 113.681 -3.81845 4.80695 0
M  V30 1322 C 115.052 -3.70406 4.97191 0
M  V30 1323 C 117.107 -3.384 3.65226 0
M  V30 1324 C 115.81 -3.70615 6.16471 0
M  V30 1325 C 117.836 -3.39904 4.83962 0
M  V30 1326 C 117.198 -3.55667 6.08013 0
M  V30 1327 H 113.297 -0.702267 0.344014 0
M  V30 1328 H 115.881 -1.39165 1.36166 0
M  V30 1329 H 114.052 -3.82159 0.693456 0
M  V30 1330 H 115.784 -3.94363 0.908844 0
M  V30 1331 H 112.539 -3.73121 2.91681 0
M  V30 1332 H 112.963 -3.90209 5.53232 0
M  V30 1333 H 117.605 -3.25138 2.70269 0
M  V30 1334 H 115.323 -3.82658 7.11757 0
M  V30 1335 H 118.909 -3.28169 4.80413 0
M  V30 1336 H 117.789 -3.56755 6.98352 0
M  V30 1337 N 115.292 -0.849877 -1.32721 0
M  V30 1338 C 116.222 -0.306308 -2.31482 0
M  V30 1339 C 117.203 0.591952 -1.59468 0
M  V30 1340 O 118.388 0.513199 -1.87296 0
M  V30 1341 C 115.518 0.510204 -3.43532 0
M  V30 1342 C 114.472 -0.293209 -4.26994 0
M  V30 1343 C 113.798 0.647743 -5.30762 0
M  V30 1344 C 115.098 -1.51634 -4.99804 0
M  V30 1345 H 116.792 -1.13153 -2.77195 0
M  V30 1346 H 114.338 -0.545553 -1.33266 0
M  V30 1347 H 116.291 0.900856 -4.11658 0
M  V30 1348 H 115.015 1.36874 -2.96535 0
M  V30 1349 H 113.674 -0.665555 -3.60508 0
M  V30 1350 H 113.322 1.50299 -4.8002 0
M  V30 1351 H 113.022 0.11422 -5.87489 0
M  V30 1352 H 114.546 1.03567 -6.01753 0
M  V30 1353 H 115.96 -1.19824 -5.60638 0
M  V30 1354 H 114.357 -1.98745 -5.66234 0
M  V30 1355 H 115.427 -2.28018 -4.27943 0
M  V30 1356 N 116.77 1.45427 -0.607355 0
M  V30 1357 C 117.717 2.3053 0.111625 0
M  V30 1358 C 118.687 1.4209 0.860216 0
M  V30 1359 O 119.872 1.71019 0.845998 0
M  V30 1360 C 117.012 3.26992 1.10319 0
M  V30 1361 C 116.125 4.30535 0.355493 0
M  V30 1362 C 115.26 5.14105 1.33676 0
M  V30 1363 C 114.299 6.09376 0.576862 0
M  V30 1364 N 113.436 6.85727 1.5074 0
M  V30 1365 H 118.276 2.91477 -0.620093 0
M  V30 1366 H 115.813 1.43631 -0.317594 0
M  V30 1367 H 117.771 3.81385 1.6912 0
M  V30 1368 H 116.401 2.67799 1.80232 0
M  V30 1369 H 115.453 3.78805 -0.348023 0
M  V30 1370 H 116.765 4.98235 -0.237423 0
M  V30 1371 H 115.919 5.72897 1.99684 0
M  V30 1372 H 114.658 4.46423 1.9636 0
M  V30 1373 H 113.663 5.49715 -0.0968519 0
M  V30 1374 H 114.888 6.79085 -0.0449341 0
M  V30 1375 H 112.834 6.20735 2.12189 0
M  V30 1376 H 112.751 7.49778 0.967913 0
M  V30 1377 H 114.019 7.4906 2.15706 0
M  V30 1378 N 118.248 0.346503 1.53744 0
M  V30 1379 C 119.18 -0.543316 2.22667 0
M  V30 1380 C 120.193 -1.06159 1.23427 0
M  V30 1381 O 121.382 -0.971235 1.49764 0
M  V30 1382 C 118.482 -1.76076 2.89569 0
M  V30 1383 C 117.655 -1.37727 4.15151 0
M  V30 1384 C 116.714 -2.45471 4.65436 0
M  V30 1385 O 115.74 -2.08655 5.29577 0
M  V30 1386 N 116.942 -3.7677 4.41616 0
M  V30 1387 H 119.707 0.0469703 2.99663 0
M  V30 1388 H 117.268 0.170766 1.60997 0
M  V30 1389 H 119.26 -2.47593 3.20125 0
M  V30 1390 H 117.83 -2.25835 2.16142 0
M  V30 1391 H 117.05 -0.492746 3.91108 0
M  V30 1392 H 118.338 -1.09708 4.96832 0
M  V30 1393 H 117.736 -4.09467 3.90325 0
M  V30 1394 H 116.293 -4.44448 4.7677 0
M  V30 1395 N 119.726 -1.57421 0.075193 0
M  V30 1396 C 120.954 -1.97946 -0.602076 0
M  V30 1397 C 121.369 -0.953674 -1.62943 0
M  V30 1398 O 120.726 0.0592551 -1.82404 0
M  V30 1399 C 120.777 -3.38546 -1.26762 0
M  V30 1400 O 120.498 -4.37195 -0.281376 0
M  V30 1401 C 121.999 -3.93966 -2.03239 0
M  V30 1402 H 119.219 -0.650918 -0.162931 0
M  V30 1403 H 121.763 -2.03959 0.148601 0
M  V30 1404 H 119.918 -3.33609 -1.96936 0
M  V30 1405 H 120.332 -5.18975 -0.759267 0
M  V30 1406 H 121.806 -4.94555 -2.45193 0
M  V30 1407 H 122.283 -3.30693 -2.8903 0
M  V30 1408 H 122.889 -4.02315 -1.37924 0
M  V30 1409 N 121.204 0.198386 -1.56346 0
M  V30 1410 C 122.45 0.916115 -1.81601 0
M  V30 1411 C 122.805 1.81025 -0.651744 0
M  V30 1412 O 122.098 1.88316 0.353229 0
M  V30 1413 C 122.292 1.77031 -3.10475 0
M  V30 1414 C 122.121 0.960365 -4.39326 0
M  V30 1415 C 120.891 0.646093 -5.01152 0
M  V30 1416 C 123.089 0.314628 -5.13337 0
M  V30 1417 N 121.071 -0.182828 -6.13628 0
M  V30 1418 C 122.442 -0.37664 -6.18855 0
M  V30 1419 C 124.497 0.230019 -4.97368 0
M  V30 1420 C 123.2 -1.14445 -7.10137 0
M  V30 1421 C 125.226 -0.524389 -5.89071 0
M  V30 1422 C 124.588 -1.20412 -6.94032 0
M  V30 1423 H 120.687 0.314732 -0.715868 0
M  V30 1424 H 123.271 0.185102 -1.93818 0
M  V30 1425 H 121.442 2.47295 -2.99499 0
M  V30 1426 H 123.174 2.42727 -3.2383 0
M  V30 1427 H 119.929 0.969724 -4.63566 0
M  V30 1428 H 120.353 -0.586802 -6.74452 0
M  V30 1429 H 124.995 0.741184 -4.16253 0
M  V30 1430 H 122.713 -1.66706 -7.90718 0
M  V30 1431 H 126.299 -0.591167 -5.78789 0
M  V30 1432 H 125.179 -1.77853 -7.63766 0
M  V30 1433 N 122.682 1.50554 0.465978 0
M  V30 1434 C 123.931 1.61038 1.21448 0
M  V30 1435 C 124.244 0.31865 1.92987 0
M  V30 1436 O 125.45 0.302469 2.6981 0
M  V30 1437 C 123.906 2.84283 2.20706 0
M  V30 1438 C 123.514 4.20352 1.54946 0
M  V30 1439 C 125.258 3.04115 2.96166 0
M  V30 1440 C 123.165 5.34778 2.5252 0
M  V30 1441 H 122.095 0.599718 0.457005 0
M  V30 1442 H 124.746 1.7699 0.484424 0
M  V30 1443 H 123.128 2.61901 2.97025 0
M  V30 1444 H 124.302 4.53008 0.843811 0
M  V30 1445 H 122.617 4.06167 0.917475 0
M  V30 1446 H 125.214 3.86774 3.69202 0
M  V30 1447 H 125.557 2.16045 3.55852 0
M  V30 1448 H 126.09 3.26702 2.26959 0
M  V30 1449 H 122.829 6.25018 1.97566 0
M  V30 1450 H 122.349 5.06534 3.21222 0
M  V30 1451 H 124.028 5.65561 3.14245 0
M  V30 1452 N 124.16 -0.719506 1.40217 0
M  V30 1453 C 125.437 -1.47221 1.28784 0
M  V30 1454 C 125.817 -2.10883 -0.0956067 0
M  V30 1455 O 125.165 -1.99833 -1.10811 0
M  V30 1456 C 125.375 -2.5111 2.42373 0
M  V30 1457 C 126.723 -3.17053 2.82423 0
M  V30 1458 O 127.747 -2.61429 2.41937 0
M  V30 1459 O 126.606 -4.17742 3.52355 0
M  V30 1460 H 123.7 -0.654491 0.50554 0
M  V30 1461 H 126.246 -0.752014 1.52128 0
M  V30 1462 H 125.018 -2.02556 3.34793 0
M  V30 1463 H 124.641 -3.3067 2.20778 0
M  V30 1464 N 125.638 -1.25649 -0.95132 0
M  V30 1465 C 127.054 -1.02542 -1.223 0
M  V30 1466 C 127.254 0.255715 -1.99871 0
M  V30 1467 O 126.31 0.967558 -2.33226 0
M  V30 1468 C 127.623 -2.25065 -1.99415 0
M  V30 1469 C 129.171 -2.29861 -2.12446 0
M  V30 1470 C 129.646 -3.52048 -2.92961 0
M  V30 1471 N 131.137 -3.52465 -3.00538 0
M  V30 1472 C 131.872 -4.43672 -3.63239 0
M  V30 1473 N 131.368 -5.45157 -4.27523 0
M  V30 1474 N 133.161 -4.31346 -3.60412 0
M  V30 1475 H 125.312 -2.07951 -0.432471 0
M  V30 1476 H 127.575 -0.91339 -0.253816 0
M  V30 1477 H 127.281 -3.18194 -1.49817 0
M  V30 1478 H 127.155 -2.28502 -3.00111 0
M  V30 1479 H 129.542 -1.37252 -2.61239 0
M  V30 1480 H 129.623 -2.3044 -1.11044 0
M  V30 1481 H 129.267 -4.44981 -2.44856 0
M  V30 1482 H 129.197 -3.48715 -3.94596 0
M  V30 1483 H 131.688 -2.79056 -2.54826 0
M  V30 1484 H 132.001 -6.10958 -4.73234 0
M  V30 1485 H 130.346 -5.49025 -4.26141 0
M  V30 1486 H 133.537 -3.51288 -3.09377 0
M  V30 1487 H 133.71 -5.02624 -4.0899 0
M  V30 1488 N 127.117 1.15442 -1.07289 0
M  V30 1489 C 128.064 2.20161 -0.692653 0
M  V30 1490 C 129.034 1.63073 0.31564 0
M  V30 1491 O 130.219 1.89725 0.202235 0
M  V30 1492 C 127.359 3.44967 -0.0959509 0
M  V30 1493 C 126.472 4.16256 -1.15564 0
M  V30 1494 C 125.607 5.28609 -0.524011 0
M  V30 1495 C 124.646 5.91715 -1.56653 0
M  V30 1496 N 123.783 6.9554 -0.957531 0
M  V30 1497 H 128.623 2.52037 -1.59002 0
M  V30 1498 H 126.16 1.2378 -0.794798 0
M  V30 1499 H 128.118 4.16341 0.267628 0
M  V30 1500 H 126.748 3.1361 0.764772 0
M  V30 1501 H 125.8 3.43385 -1.6368 0
M  V30 1502 H 127.112 4.59268 -1.94613 0
M  V30 1503 H 126.266 6.06604 -0.108032 0
M  V30 1504 H 125.005 4.86787 0.29825 0
M  V30 1505 H 124.01 5.12433 -1.9923 0
M  V30 1506 H 125.235 6.35614 -2.39107 0
M  V30 1507 H 123.181 6.55814 -0.156162 0
M  V30 1508 H 123.098 7.36977 -1.68526 0
M  V30 1509 H 124.366 7.77435 -0.567032 0
M  V30 1510 N 128.595 0.856903 1.32268 0
M  V30 1511 C 129.525 0.31858 2.31316 0
M  V30 1512 C 130.506 -0.583487 1.59779 0
M  V30 1513 O 131.691 -0.503259 1.87566 0
M  V30 1514 C 128.821 -0.491979 3.43798 0
M  V30 1515 C 127.775 0.315849 4.26833 0
M  V30 1516 C 127.101 -0.619586 5.31098 0
M  V30 1517 C 128.401 1.54282 4.98993 0
M  V30 1518 H 130.095 1.14621 2.76591 0
M  V30 1519 H 127.641 0.552613 1.32974 0
M  V30 1520 H 129.594 -0.879012 4.1213 0
M  V30 1521 H 128.318 -1.35299 2.97257 0
M  V30 1522 H 126.977 0.684664 3.6015 0
M  V30 1523 H 126.625 -1.47751 4.8081 0
M  V30 1524 H 126.325 -0.0830621 5.87541 0
M  V30 1525 H 127.849 -1.00375 6.02293 0
M  V30 1526 H 129.263 1.22796 5.59995 0
M  V30 1527 H 127.66 2.01745 5.65172 0
M  V30 1528 H 128.73 2.30285 4.26728 0
M  V30 1529 N 130.073 -1.45103 0.615059 0
M  V30 1530 C 131.298 -2.07064 0.117988 0
M  V30 1531 C 131.723 -1.4554 -1.19163 0
M  V30 1532 O 131.081 -0.550855 -1.72729 0
M  V30 1533 C 131.129 -3.606 -0.000288387 0
M  V30 1534 O 130.233 -3.98847 -1.04856 0
M  V30 1535 H 129.574 -0.659467 0.0774581 0
M  V30 1536 H 132.104 -1.86236 0.847186 0
M  V30 1537 H 132.114 -4.07529 -0.196091 0
M  V30 1538 H 130.789 -4.04765 0.955932 0
M  V30 1539 H 129.366 -3.63577 -0.828619 0
M  V30 1540 N 131.551 -0.354651 -1.53558 0
M  V30 1541 C 132.797 0.231422 -2.02079 0
M  V30 1542 C 133.152 1.47308 -1.23767 0
M  V30 1543 O 132.445 1.8891 -0.319947 0
M  V30 1544 C 132.639 0.587121 -3.52545 0
M  V30 1545 C 132.468 -0.618513 -4.45426 0
M  V30 1546 C 131.238 -1.12724 -4.92566 0
M  V30 1547 C 133.436 -1.48039 -4.92533 0
M  V30 1548 N 131.418 -2.29404 -5.69427 0
M  V30 1549 C 132.789 -2.49397 -5.67628 0
M  V30 1550 C 134.844 -1.50454 -4.74624 0
M  V30 1551 C 133.547 -3.53013 -6.26717 0
M  V30 1552 C 135.573 -2.52958 -5.34571 0
M  V30 1553 C 134.935 -3.5304 -6.09543 0
M  V30 1554 H 131.034 0.0476909 -0.780544 0
M  V30 1555 H 133.618 -0.496727 -1.88257 0
M  V30 1556 H 131.789 1.28436 -3.6655 0
M  V30 1557 H 133.521 1.15734 -3.87799 0
M  V30 1558 H 130.276 -0.693577 -4.68494 0
M  V30 1559 H 130.7 -2.88347 -6.12524 0
M  V30 1560 H 135.342 -0.744356 -4.16196 0
M  V30 1561 H 133.06 -4.2992 -6.84247 0
M  V30 1562 H 136.646 -2.55667 -5.22614 0
M  V30 1563 H 135.526 -4.31056 -6.55103 0
M  V30 1564 N 133.029 1.57378 -0.0835403 0
M  V30 1565 C 134.306 1.85363 0.624507 0
M  V30 1566 C 134.686 0.978239 1.87066 0
M  V30 1567 O 134.034 0.0475908 2.2845 0
M  V30 1568 C 134.244 3.35795 0.950947 0
M  V30 1569 C 135.592 4.03581 1.31939 0
M  V30 1570 O 136.616 3.40609 1.04232 0
M  V30 1571 O 135.475 5.14672 1.83779 0
M  V30 1572 H 132.569 0.766162 0.311329 0
M  V30 1573 H 135.115 1.69307 -0.115362 0
M  V30 1574 H 133.887 3.91244 0.0663899 0
M  V30 1575 H 133.51 3.57154 1.74719 0
M  V30 1576 N 134.507 -0.190092 1.56449 0
M  V30 1577 C 135.918 -0.754312 1.70784 0
M  V30 1578 C 136.269 -1.83631 0.690951 0
M  V30 1579 O 135.394 -2.15868 -0.151604 0
M  V30 1580 C 135.989 -1.37503 3.09642 0
M  V30 1581 C 134.548 -1.88628 3.25725 0
M  V30 1582 C 133.695 -0.758098 2.66736 0
M  V30 1583 H 136.646 0.0350524 1.58661 0
M  V30 1584 H 136.667 -2.2445 3.0725 0
M  V30 1585 H 136.179 -0.587302 3.83631 0
M  V30 1586 H 134.28 -2.70103 2.56661 0
M  V30 1587 H 134.393 -2.04462 4.3328 0
M  V30 1588 H 132.757 -1.17369 2.26046 0
M  V30 1589 H 133.54 0.0174705 3.43296 0
M  V30 1590 N 135.985 -1.50799 -0.457987 0
M  V30 1591 C 137.231 -1.62683 -1.21088 0
M  V30 1592 C 137.564 -0.332268 -1.91336 0
M  V30 1593 O 136.839 0.667043 -1.82704 0
M  V30 1594 C 137.122 -2.81615 -2.24422 0
M  V30 1595 C 136.975 -4.20989 -1.58392 0
M  V30 1596 C 138.294 -2.96085 -3.2561 0
M  V30 1597 H 135.413 -0.592087 -0.438864 0
M  V30 1598 H 138.055 -1.83225 -0.50286 0
M  V30 1599 H 136.205 -2.64231 -2.84806 0
M  V30 1600 H 137.877 -4.49994 -1.01504 0
M  V30 1601 H 136.12 -4.24641 -0.886704 0
M  V30 1602 H 136.791 -5.0016 -2.33547 0
M  V30 1603 H 139.267 -3.12042 -2.75262 0
M  V30 1604 H 138.143 -3.80902 -3.95228 0
M  V30 1605 H 138.404 -2.0726 -3.90507 0
M  V30 1606 N 137.463 0.71206 -1.40597 0
M  V30 1607 C 138.411 1.84746 -1.41321 0
M  V30 1608 C 139.405 1.66842 -0.293268 0
M  V30 1609 O 140.611 1.73904 -0.464481 0
M  V30 1610 H 136.986 0.608522 -0.441819 0
M  V30 1611 H 138.957 1.81252 -2.37045 0
M  V30 1612 C 137.706 3.22638 -1.29614 0
M  V30 1613 H 137.029 3.37023 -2.15071 0
M  V30 1614 H 138.469 4.02209 -1.3418 0
M  V30 1615 C 136.928 3.36899 -0.00673121 0
M  V30 1616 O 137.458 3.90186 0.954859 0
M  V30 1617 N 135.664 2.9053 0.0639327 0
M  V30 1618 H 135.211 2.47353 -0.719311 0
M  V30 1619 H 135.169 3.0045 0.926118 0
M  V30 1620 N 138.941 1.26152 0.944643 0
M  V30 1621 C 140.171 1.14094 1.72239 0
M  V30 1622 C 140.579 -0.306931 1.86694 0
M  V30 1623 O 139.922 -1.22222 1.3714 0
M  V30 1624 C 139.984 1.73316 3.14963 0
M  V30 1625 C 139.648 3.2239 3.23904 0
M  V30 1626 C 140.645 4.19252 3.07447 0
M  V30 1627 C 138.33 3.62788 3.47405 0
M  V30 1628 C 140.324 5.54491 3.14353 0
M  V30 1629 C 138.011 4.98162 3.53947 0
M  V30 1630 C 139.009 5.93823 3.37436 0
M  V30 1631 O 138.697 7.26732 3.43679 0
M  V30 1632 H 138.429 0.398292 0.546205 0
M  V30 1633 H 140.983 1.67201 1.19301 0
M  V30 1634 H 139.213 1.14667 3.69308 0
M  V30 1635 H 140.902 1.56214 3.74636 0
M  V30 1636 H 141.668 3.8938 2.8915 0
M  V30 1637 H 137.547 2.88816 3.59313 0
M  V30 1638 H 141.091 6.29137 3.01384 0
M  V30 1639 H 136.988 5.27695 3.71763 0
M  V30 1640 H 137.756 7.3496 3.60245 0
M  V30 1641 N 140.419 -1.14872 1.07899 0
M  V30 1642 C 141.667 -1.85422 0.803941 0
M  V30 1643 C 141.988 -1.83051 -0.67211 0
M  V30 1644 O 141.258 -1.27532 -1.48703 0
M  V30 1645 H 139.838 -0.686537 0.294408 0
M  V30 1646 H 142.5 -1.39226 1.3639 0
M  V30 1647 H 141.596 -2.90399 1.14346 0
M  V30 1648 N 141.898 -0.863906 -1.31812 0
M  V30 1649 C 143.146 -0.470904 -1.96537 0
M  V30 1650 C 143.467 0.978771 -1.68657 0
M  V30 1651 O 142.737 1.6853 -0.998717 0
M  V30 1652 H 141.317 -0.171148 -0.72713 0
M  V30 1653 H 143.979 -1.10236 -1.60729 0
M  V30 1654 H 143.075 -0.623616 -3.05806 0
M  V30 1655 N 143.376 1.44774 -0.622745 0
M  V30 1656 C 144.622 2.0242 -0.124083 0
M  V30 1657 C 144.955 1.4881 1.24777 0
M  V30 1658 O 144.23 0.668799 1.8264 0
M  V30 1659 C 144.513 3.59957 -0.101619 0
M  V30 1660 C 144.366 4.23867 -1.50521 0
M  V30 1661 C 145.685 4.36284 0.578272 0
M  V30 1662 H 142.804 0.735528 -0.0465645 0
M  V30 1663 H 145.446 1.72447 -0.797617 0
M  V30 1664 H 143.596 3.85623 0.471934 0
M  V30 1665 H 145.268 4.09336 -2.12701 0
M  V30 1666 H 143.511 3.81684 -2.06154 0
M  V30 1667 H 144.182 5.32843 -1.4416 0
M  V30 1668 H 146.658 4.16001 0.0906057 0
M  V30 1669 H 145.534 5.46004 0.563149 0
M  V30 1670 H 145.795 4.10271 1.64713 0
M  V30 1671 N 144.854 0.36279 1.53368 0
M  V30 1672 C 145.802 -0.500155 2.27159 0
M  V30 1673 C 146.796 -1.08575 1.3003 0
M  V30 1674 O 148.002 -1.02927 1.47668 0
M  V30 1675 H 144.377 -0.180009 0.730138 0
M  V30 1676 H 146.348 0.14401 2.98052 0
M  V30 1677 C 145.097 -1.62937 3.07159 0
M  V30 1678 H 144.42 -1.18806 3.8174 0
M  V30 1679 H 145.86 -2.20795 3.61975 0
M  V30 1680 C 144.319 -2.57007 2.17829 0
M  V30 1681 O 144.849 -3.59752 1.78721 0
M  V30 1682 N 143.055 -2.26131 1.82518 0
M  V30 1683 H 142.602 -1.42616 2.14519 0
M  V30 1684 H 142.56 -2.89327 1.23034 0
M  V30 1685 N 146.332 -1.57332 0.0918853 0
M  V30 1686 C 147.578 -1.94524 -0.573425 0
M  V30 1687 C 147.911 -0.973578 -1.68033 0
M  V30 1688 O 147.186 -0.00609226 -1.94499 0
M  V30 1689 C 147.469 -3.41858 -1.13161 0
M  V30 1690 C 147.322 -4.4979 -0.0299747 0
M  V30 1691 C 148.641 -3.90435 -2.03098 0
M  V30 1692 H 145.76 -0.70734 -0.206975 0
M  V30 1693 H 148.402 -1.89309 0.161942 0
M  V30 1694 H 146.552 -3.46433 -1.7583 0
M  V30 1695 H 148.224 -4.57327 0.604112 0
M  V30 1696 H 146.467 -4.291 0.636833 0
M  V30 1697 H 147.138 -5.50069 -0.461287 0
M  V30 1698 H 149.614 -3.87992 -1.50338 0
M  V30 1699 H 148.49 -4.94097 -2.39081 0
M  V30 1700 H 148.751 -3.29541 -2.94712 0
M  V30 1701 N 147.81 0.181792 -1.56548 0
M  V30 1702 C 148.74 1.22765 -1.98623 0
M  V30 1703 C 149.721 1.46747 -0.860189 0
M  V30 1704 O 150.906 1.58259 -1.12551 0
M  V30 1705 C 148.036 2.56894 -2.33715 0
M  V30 1706 C 146.99 2.475 -3.49182 0
M  V30 1707 C 146.316 3.86023 -3.69986 0
M  V30 1708 C 147.616 1.98866 -4.82959 0
M  V30 1709 H 149.31 0.877942 -2.86239 0
M  V30 1710 H 146.856 0.42088 -1.37712 0
M  V30 1711 H 148.809 3.30253 -2.61746 0
M  V30 1712 H 147.533 2.93632 -1.42997 0
M  V30 1713 H 146.192 1.76596 -3.21262 0
M  V30 1714 H 145.84 4.20136 -2.76576 0
M  V30 1715 H 145.54 3.80609 -4.47672 0
M  V30 1716 H 147.064 4.60984 -4.00407 0
M  V30 1717 H 148.478 2.61992 -5.09934 0
M  V30 1718 H 146.875 2.04424 -5.64208 0
M  V30 1719 H 147.945 0.942465 -4.75653 0
M  V30 1720 N 149.288 1.51039 0.449983 0
M  V30 1721 C 150.518 1.66627 1.22143 0
M  V30 1722 C 150.926 0.357776 1.85786 0
M  V30 1723 O 150.269 -0.672424 1.70951 0
M  V30 1724 C 150.331 2.71562 2.35573 0
M  V30 1725 C 149.995 4.14526 1.92399 0
M  V30 1726 C 150.992 4.99717 1.43453 0
M  V30 1727 C 148.677 4.60559 2.00475 0
M  V30 1728 C 150.671 6.28998 1.03155 0
M  V30 1729 C 148.358 5.8984 1.59788 0
M  V30 1730 C 149.356 6.73886 1.11208 0
M  V30 1731 O 149.044 8.0075 0.710935 0
M  V30 1732 H 148.776 0.562635 0.374724 0
M  V30 1733 H 151.33 1.98146 0.541036 0
M  V30 1734 H 149.56 2.3533 3.06849 0
M  V30 1735 H 151.249 2.76156 2.97478 0
M  V30 1736 H 152.015 4.65361 1.36618 0
M  V30 1737 H 147.894 3.95273 2.37235 0
M  V30 1738 H 151.438 6.9455 0.651663 0
M  V30 1739 H 147.335 6.23713 1.66289 0
M  V30 1740 H 148.103 8.142 0.837913 0
M  V30 1741 N 150.766 -0.704594 1.40972 0
M  V30 1742 C 152.012 -1.46675 1.40051 0
M  V30 1743 C 152.345 -1.94199 0.00641102 0
M  V30 1744 O 151.62 -1.68916 -0.964235 0
M  V30 1745 C 151.903 -2.68505 2.39952 0
M  V30 1746 C 151.756 -2.26805 3.88432 0
M  V30 1747 C 153.075 -3.70686 2.37233 0
M  V30 1748 H 150.194 -0.532015 0.510028 0
M  V30 1749 H 152.836 -0.803255 1.72185 0
M  V30 1750 H 150.986 -3.25114 2.1268 0
M  V30 1751 H 152.658 -1.75592 4.26574 0
M  V30 1752 H 150.901 -1.58685 4.03734 0
M  V30 1753 H 151.572 -3.14181 4.53866 0
M  V30 1754 H 154.048 -3.23731 2.61415 0
M  V30 1755 H 152.924 -4.53553 3.09162 0
M  V30 1756 H 153.185 -4.19754 1.38777 0
M  V30 1757 N 152.244 -1.26651 -0.937939 0
M  V30 1758 C 153.655 -1.1125 -1.49934 0
M  V30 1759 C 154.006 0.306077 -1.93798 0
M  V30 1760 O 153.131 1.19792 -1.80219 0
M  V30 1761 C 153.726 -2.01339 -2.72485 0
M  V30 1762 C 152.285 -1.90074 -3.24883 0
M  V30 1763 C 151.432 -1.94498 -1.97651 0
M  V30 1764 H 154.383 -1.39693 -0.753091 0
M  V30 1765 H 154.404 -1.56319 -3.46907 0
M  V30 1766 H 153.916 -3.04577 -2.40529 0
M  V30 1767 H 152.017 -0.897827 -3.61621 0
M  V30 1768 H 152.13 -2.75778 -3.9177 0
M  V30 1769 H 150.494 -1.38591 -2.13693 0
M  V30 1770 H 151.277 -2.99372 -1.68022 0
M  V30 1771 N 153.722 1.14298 -1.08507 0
M  V30 1772 C 154.952 1.88945 -0.835663 0
M  V30 1773 C 155.36 1.78894 0.615928 0
M  V30 1774 O 154.703 1.1468 1.43506 0
M  V30 1775 C 154.765 3.39585 -1.17994 0
M  V30 1776 C 154.429 3.7342 -2.63451 0
M  V30 1777 C 155.426 3.73454 -3.61702 0
M  V30 1778 C 153.111 4.03368 -2.99332 0
M  V30 1779 C 155.105 4.02961 -4.93864 0
M  V30 1780 C 152.792 4.32538 -4.31687 0
M  V30 1781 C 153.79 4.32318 -5.28763 0
M  V30 1782 O 153.478 4.6078 -6.58739 0
M  V30 1783 H 153.21 0.605307 -0.300965 0
M  V30 1784 H 155.764 1.45673 -1.44806 0
M  V30 1785 H 153.994 3.83315 -0.51055 0
M  V30 1786 H 155.683 3.9554 -0.911182 0
M  V30 1787 H 156.449 3.50403 -3.35325 0
M  V30 1788 H 152.328 4.02692 -2.24411 0
M  V30 1789 H 155.872 4.02704 -5.69627 0
M  V30 1790 H 151.769 4.55059 -4.57812 0
M  V30 1791 H 152.537 4.78492 -6.64069 0
M  V30 1792 N 155.201 0.870884 1.31352 0
M  V30 1793 C 156.111 0.330783 2.32256 0
M  V30 1794 C 157.127 -0.559767 1.6475 0
M  V30 1795 O 158.303 -0.456263 1.96164 0
M  V30 1796 C 155.368 -0.458137 3.4366 0
M  V30 1797 C 154.429 0.460482 4.26823 0
M  V30 1798 C 153.662 -0.290881 5.32907 0
M  V30 1799 O 153.885 -1.51885 5.49806 0
M  V30 1800 O 152.819 0.351732 6.00871 0
M  V30 1801 H 156.645 1.16718 2.80376 0
M  V30 1802 H 154.23 0.634285 1.35267 0
M  V30 1803 H 156.112 -0.905343 4.1156 0
M  V30 1804 H 154.787 -1.27106 2.97701 0
M  V30 1805 H 153.694 0.956207 3.61673 0
M  V30 1806 H 155.027 1.23903 4.7635 0
M  V30 1807 N 156.679 -1.44442 0.630414 0
M  V30 1808 C 157.612 -2.27862 -0.124247 0
M  V30 1809 C 158.59 -1.38495 -0.851931 0
M  V30 1810 O 159.774 -1.67935 -0.856166 0
M  V30 1811 C 156.901 -3.17407 -1.18197 0
M  V30 1812 C 155.947 -4.22875 -0.554892 0
M  V30 1813 S 156.78 -5.31485 0.654489 0
M  V30 1814 C 157.936 -6.246 -0.40326 0
M  V30 1815 H 158.169 -2.91519 0.583435 0
M  V30 1816 H 155.702 -1.48618 0.418565 0
M  V30 1817 H 157.66 -3.69549 -1.78728 0
M  V30 1818 H 156.321 -2.52971 -1.86184 0
M  V30 1819 H 155.514 -4.85542 -1.35148 0
M  V30 1820 H 155.116 -3.73992 -0.0242105 0
M  V30 1821 H 157.408 -6.65375 -1.27602 0
M  V30 1822 H 158.351 -7.07851 0.187813 0
M  V30 1823 H 158.759 -5.59775 -0.728837 0
M  V30 1824 N 158.157 -0.370918 -1.53173 0
M  V30 1825 C 159.406 0.218249 -2.00516 0
M  V30 1826 C 159.719 1.49429 -1.26215 0
M  V30 1827 O 160.925 2.16239 -1.64174 0
M  V30 1828 C 159.381 0.43948 -3.57207 0
M  V30 1829 C 158.989 -0.822244 -4.4039 0
M  V30 1830 C 160.733 0.986012 -4.1289 0
M  V30 1831 C 158.64 -0.570304 -5.88644 0
M  V30 1832 H 157.57 0.0853333 -0.749156 0
M  V30 1833 H 160.221 -0.490483 -1.76823 0
M  V30 1834 H 158.603 1.20961 -3.77074 0
M  V30 1835 H 159.777 -1.59557 -4.32294 0
M  V30 1836 H 158.092 -1.29238 -3.95836 0
M  V30 1837 H 160.689 1.18991 -5.21292 0
M  V30 1838 H 161.032 1.94972 -3.6782 0
M  V30 1839 H 161.565 0.27592 -3.96842 0
M  V30 1840 H 158.304 -1.50449 -6.38001 0
M  V30 1841 H 157.824 0.164427 -5.99575 0
M  V30 1842 H 159.503 -0.19784 -6.46697 0
M  V30 1843 N 159.635 1.57281 -0.100228 0
M  V30 1844 C 160.881 1.95626 0.556946 0
M  V30 1845 C 161.236 0.981655 1.65473 0
M  V30 1846 O 160.529 0.00849847 1.91598 0
M  V30 1847 C 160.723 3.38305 1.15259 0
M  V30 1848 C 160.552 4.49555 0.114035 0
M  V30 1849 C 159.322 5.0434 -0.311266 0
M  V30 1850 C 161.52 5.10051 -0.659768 0
M  V30 1851 N 159.502 5.99152 -1.33755 0
M  V30 1852 C 160.873 6.00628 -1.53774 0
M  V30 1853 C 162.928 4.92772 -0.712723 0
M  V30 1854 C 161.631 6.7578 -2.46403 0
M  V30 1855 C 163.657 5.6859 -1.62663 0
M  V30 1856 C 163.019 6.58838 -2.49222 0
M  V30 1857 H 159.118 0.7624 0.173982 0
M  V30 1858 H 161.702 1.93829 -0.183988 0
M  V30 1859 H 159.873 3.40786 1.86332 0
M  V30 1860 H 161.605 3.63817 1.77254 0
M  V30 1861 H 158.36 4.73537 0.0774812 0
M  V30 1862 H 158.784 6.5126 -1.84905 0
M  V30 1863 H 163.426 4.22761 -0.0576648 0
M  V30 1864 H 161.144 7.4505 -3.12931 0
M  V30 1865 H 164.73 5.57233 -1.67281 0
M  V30 1866 H 163.61 7.16479 -3.18791 0
M  V30 1867 N 161.113 -0.173488 1.56642 0
M  V30 1868 C 162.359 -0.891784 1.8214 0
M  V30 1869 C 162.692 -1.8199 0.677736 0
M  V30 1870 O 161.967 -1.91842 -0.320446 0
M  V30 1871 C 162.25 -1.68933 3.18015 0
M  V30 1872 C 162.103 -0.784487 4.42906 0
M  V30 1873 C 163.422 -2.65748 3.50808 0
M  V30 1874 H 160.541 -0.322761 0.662567 0
M  V30 1875 H 163.183 -0.158095 1.89341 0
M  V30 1876 H 161.333 -2.31482 3.12007 0
M  V30 1877 H 163.005 -0.172046 4.60979 0
M  V30 1878 H 161.248 -0.0924117 4.33702 0
M  V30 1879 H 161.919 -1.37799 5.34524 0
M  V30 1880 H 164.395 -2.13327 3.57255 0
M  V30 1881 H 163.271 -3.18619 4.4696 0
M  V30 1882 H 163.532 -3.45842 2.75401 0
M  V30 1883 N 162.591 -1.51276 -0.441967 0
M  V30 1884 C 164.002 -1.56244 -1.02199 0
M  V30 1885 C 164.353 -0.383149 -1.92422 0
M  V30 1886 O 163.478 0.500613 -2.1053 0
M  V30 1887 C 164.073 -2.83162 -1.86024 0
M  V30 1888 C 162.632 -2.90716 -2.39084 0
M  V30 1889 C 161.779 -2.50858 -1.18175 0
M  V30 1890 H 164.73 -1.5712 -0.223416 0
M  V30 1891 H 164.751 -2.66663 -2.71425 0
M  V30 1892 H 164.263 -3.68974 -1.20331 0
M  V30 1893 H 162.364 -2.09323 -3.08244 0
M  V30 1894 H 162.477 -3.94266 -2.72198 0
M  V30 1895 H 160.841 -2.03951 -1.52565 0
M  V30 1896 H 161.624 -3.3901 -0.541001 0
M  V30 1897 N 164.069 0.697108 -1.41344 0
M  V30 1898 C 165.346 1.45154 -1.31109 0
M  V30 1899 C 165.726 2.11009 0.0620449 0
M  V30 1900 O 165.074 2.01571 1.07618 0
M  V30 1901 C 165.284 2.47223 -2.46337 0
M  V30 1902 C 166.632 3.1252 -2.87431 0
M  V30 1903 O 167.656 2.57547 -2.46065 0
M  V30 1904 O 166.515 4.12083 -3.58957 0
M  V30 1905 H 163.609 0.646365 -0.515889 0
M  V30 1906 H 166.155 0.727716 -1.53305 0
M  V30 1907 H 164.927 1.97204 -3.37974 0
M  V30 1908 H 164.55 3.27116 -2.2601 0
M  V30 1909 N 165.547 1.27147 0.931209 0
M  V30 1910 C 166.796 1.12664 1.67302 0
M  V30 1911 C 167.109 -0.327718 1.92835 0
M  V30 1912 O 168.315 -0.593392 2.64936 0
M  V30 1913 C 166.771 1.9683 3.01307 0
M  V30 1914 C 166.379 3.46901 2.83485 0
M  V30 1915 C 168.123 1.90985 3.79111 0
M  V30 1916 C 166.03 4.23279 4.13024 0
M  V30 1917 H 164.96 0.41803 0.627509 0
M  V30 1918 H 167.611 1.51539 1.03481 0
M  V30 1919 H 165.993 1.50797 3.66164 0
M  V30 1920 H 167.167 4.00773 2.27415 0
M  V30 1921 H 165.482 3.54088 2.19113 0
M  V30 1922 H 168.079 2.45328 4.75098 0
M  V30 1923 H 168.422 0.882718 4.06834 0
M  V30 1924 H 168.955 2.34895 3.21044 0
M  V30 1925 H 165.694 5.26503 3.90481 0
M  V30 1926 H 165.214 3.74186 4.6877 0
M  V30 1927 H 166.893 4.32265 4.81411 0
M  V30 1928 N 167.025 -1.13721 1.09112 0
M  V30 1929 C 168.271 -1.85198 0.826414 0
M  V30 1930 C 168.604 -1.83129 -0.646319 0
M  V30 1931 O 167.879 -1.2671 -1.47563 0
M  V30 1932 C 168.162 -3.33507 1.35812 0
M  V30 1933 C 168.015 -3.44108 2.89672 0
M  V30 1934 C 169.334 -4.28838 0.989256 0
M  V30 1935 H 166.453 -0.67243 0.301675 0
M  V30 1936 H 169.095 -1.33499 1.35197 0
M  V30 1937 H 167.245 -3.77666 0.911082 0
M  V30 1938 H 168.917 -3.08684 3.428 0
M  V30 1939 H 167.16 -2.85087 3.26967 0
M  V30 1940 H 167.831 -4.48388 3.21951 0
M  V30 1941 H 170.307 -3.92734 1.37475 0
M  V30 1942 H 169.183 -5.31051 1.38838 0
M  V30 1943 H 169.444 -4.4198 -0.102924 0
M  V30 1944 N 168.503 -0.877838 -1.30888 0
M  V30 1945 C 169.433 -0.35534 -2.3078 0
M  V30 1946 C 170.414 0.557994 -1.60687 0
M  V30 1947 O 171.599 0.473355 -1.88343 0
M  V30 1948 C 168.729 0.437221 -3.44537 0
M  V30 1949 C 167.683 -0.383715 -4.26276 0
M  V30 1950 C 167.009 0.535014 -5.32017 0
M  V30 1951 C 168.309 -1.62201 -4.96476 0
M  V30 1952 H 170.003 -1.19007 -2.74732 0
M  V30 1953 H 167.549 -0.573698 -1.32078 0
M  V30 1954 H 169.502 0.813334 -4.13477 0
M  V30 1955 H 168.226 1.30553 -2.99372 0
M  V30 1956 H 166.885 -0.741874 -3.59015 0
M  V30 1957 H 166.533 1.40083 -4.831 0
M  V30 1958 H 166.233 -0.0104211 -5.87599 0
M  V30 1959 H 167.757 0.907799 -6.03814 0
M  V30 1960 H 169.171 -1.31689 -5.5797 0
M  V30 1961 H 167.568 -2.10711 -5.61891 0
M  V30 1962 H 168.638 -2.37044 -4.23011 0
M  V30 1963 N 169.982 1.44106 -0.638065 0
M  V30 1964 C 171.212 2.06037 -0.152394 0
M  V30 1965 C 171.62 1.47808 1.18108 0
M  V30 1966 O 170.963 0.598092 1.73691 0
M  V30 1967 C 171.025 3.59488 0.0293714 0
M  V30 1968 C 170.689 4.4022 -1.22702 0
M  V30 1969 C 171.686 4.73256 -2.15232 0
M  V30 1970 C 169.371 4.8048 -1.46437 0
M  V30 1971 C 171.365 5.45444 -3.29802 0
M  V30 1972 C 169.052 5.52417 -2.61303 0
M  V30 1973 C 170.05 5.84819 -3.52811 0
M  V30 1974 O 169.738 6.55289 -4.65673 0
M  V30 1975 H 169.47 0.671233 -0.0801401 0
M  V30 1976 H 172.024 1.85851 -0.874563 0
M  V30 1977 H 170.254 3.78191 0.806758 0
M  V30 1978 H 171.943 4.03164 0.470475 0
M  V30 1979 H 172.709 4.42684 -1.98131 0
M  V30 1980 H 168.588 4.54676 -0.760977 0
M  V30 1981 H 172.132 5.70653 -4.01249 0
M  V30 1982 H 168.029 5.82404 -2.78344 0
M  V30 1983 H 168.797 6.73762 -4.64744 0
M  V30 1984 N 171.46 0.379036 1.52974 0
M  V30 1985 C 172.408 -0.476033 2.27677 0
M  V30 1986 C 173.402 -1.0719 1.31174 0
M  V30 1987 O 174.608 -1.01355 1.48752 0
M  V30 1988 H 170.983 -0.172255 0.732006 0
M  V30 1989 H 172.954 0.175615 2.97883 0
M  V30 1990 C 171.703 -1.5967 3.0887 0
M  V30 1991 H 171.026 -1.1475 3.82978 0
M  V30 1992 H 172.466 -2.16943 3.64296 0
M  V30 1993 C 170.925 -2.54682 2.20542 0
M  V30 1994 O 171.455 -3.57836 1.82527 0
M  V30 1995 N 169.661 -2.24183 1.84907 0
M  V30 1996 H 169.208 -1.40333 2.1602 0
M  V30 1997 H 169.166 -2.88006 1.26096 0
M  V30 1998 N 172.938 -1.57226 0.108567 0
M  V30 1999 C 173.886 -2.16002 -0.862885 0
M  V30 2000 C 174.88 -1.10644 -1.28274 0
M  V30 2001 O 176.086 -1.28966 -1.2557 0
M  V30 2002 H 172.461 -0.691148 -0.296342 0
M  V30 2003 H 174.432 -2.96427 -0.342575 0
M  V30 2004 C 173.181 -2.76576 -2.10716 0
M  V30 2005 H 172.504 -3.5734 -1.793 0
M  V30 2006 H 173.944 -3.21253 -2.76717 0
M  V30 2007 C 172.403 -1.73137 -2.89007 0
M  V30 2008 O 172.933 -1.17842 -3.84026 0
M  V30 2009 N 171.139 -1.43317 -2.52801 0
M  V30 2010 H 170.686 -1.88473 -1.75601 0
M  V30 2011 H 170.644 -0.743485 -3.05483 0
M  V30 2012 N 174.416 0.165178 -1.56732 0
M  V30 2013 C 175.379 1.18822 -1.95995 0
M  V30 2014 C 176.379 1.3685 -0.84431 0
M  V30 2015 O 177.569 1.34152 -1.11126 0
M  V30 2016 C 174.701 2.5521 -2.26011 0
M  V30 2017 H 175.894 0.851825 -2.87548 0
M  V30 2018 H 173.447 0.407857 -1.50885 0
M  V30 2019 H 174.182 2.93852 -1.37191 0
M  V30 2020 H 173.967 2.43489 -3.07336 0
M  V30 2021 H 175.457 3.28927 -2.57288 0
M  V30 2022 N 175.894 1.51508 0.433938 0
M  V30 2023 C 177.171 1.54888 1.19453 0
M  V30 2024 C 177.551 0.315154 2.08734 0
M  V30 2025 O 176.899 -0.699558 2.17528 0
M  V30 2026 C 177.109 2.86467 1.99342 0
M  V30 2027 C 178.457 3.38545 2.56267 0
M  V30 2028 O 179.481 2.88041 2.0955 0
M  V30 2029 O 178.34 4.26675 3.41483 0
M  V30 2030 H 175.434 0.622863 0.544032 0
M  V30 2031 H 177.98 1.63823 0.442732 0
M  V30 2032 H 176.752 3.67718 1.33788 0
M  V30 2033 H 176.375 2.8071 2.8158 0
M  V30 2034 N 177.372 -0.689602 1.41712 0
M  V30 2035 C 178.597 -1.48329 1.44959 0
M  V30 2036 C 179.022 -1.8801 0.0581283 0
M  V30 2037 O 178.38 -1.55026 -0.940035 0
M  V30 2038 C 178.428 -2.71835 2.36935 0
M  V30 2039 O 177.532 -3.69549 1.8305 0
M  V30 2040 H 176.873 -0.446199 0.491734 0
M  V30 2041 H 179.403 -0.847127 1.86239 0
M  V30 2042 H 179.413 -3.20076 2.53013 0
M  V30 2043 H 178.088 -2.42291 3.38035 0
M  V30 2044 H 176.665 -3.2851 1.76452 0
M  V30 2045 N 178.85 -1.27639 -0.924453 0
M  V30 2046 C 179.798 -1.10485 -2.04685 0
M  V30 2047 C 180.792 -0.0270421 -1.69378 0
M  V30 2048 O 181.998 -0.185008 -1.79047 0
M  V30 2049 H 178.373 -0.340546 -0.670472 0
M  V30 2050 H 180.344 -2.05566 -2.16298 0
M  V30 2051 C 179.093 -0.772229 -3.39016 0
M  V30 2052 H 178.416 -1.59351 -3.66671 0
M  V30 2053 H 179.856 -0.692097 -4.18313 0
M  V30 2054 C 178.315 0.523554 -3.32807 0
M  V30 2055 O 178.845 1.55702 -3.70297 0
M  V30 2056 N 177.051 0.520363 -2.85903 0
M  V30 2057 H 176.598 -0.32107 -2.55591 0
M  V30 2058 H 176.556 1.38742 -2.82131 0
M  V30 2059 N 180.328 1.1314 -1.09713 0
M  V30 2060 C 181.558 1.88048 -0.855656 0
M  V30 2061 C 181.966 1.79537 0.596919 0
M  V30 2062 O 181.309 1.16196 1.42282 0
M  V30 2063 C 181.371 3.38314 -1.21589 0
M  V30 2064 C 181.035 3.70605 -2.67397 0
M  V30 2065 C 182.032 3.69596 -3.65643 0
M  V30 2066 C 179.717 4.0017 -3.03593 0
M  V30 2067 C 181.711 3.977 -4.9811 0
M  V30 2068 C 179.398 4.27935 -4.36251 0
M  V30 2069 C 180.396 4.26685 -5.33318 0
M  V30 2070 O 180.084 4.53767 -6.63589 0
M  V30 2071 H 179.816 0.60208 -0.307368 0
M  V30 2072 H 182.37 1.44128 -1.46343 0
M  V30 2073 H 180.6 3.82752 -0.551177 0
M  V30 2074 H 182.289 3.94552 -0.953083 0
M  V30 2075 H 183.055 3.46826 -3.39023 0
M  V30 2076 H 178.934 4.00289 -2.2867 0
M  V30 2077 H 182.478 3.9664 -5.73866 0
M  V30 2078 H 178.375 4.50178 -4.62613 0
M  V30 2079 H 179.143 4.71422 -6.69107 0
M  V30 2080 N 181.806 0.884767 1.30421 0
M  V30 2081 C 182.754 0.340869 2.30089 0
M  V30 2082 C 183.748 -0.55201 1.60154 0
M  V30 2083 O 184.954 -0.436467 1.74628 0
M  V30 2084 H 181.329 0.0915739 0.746404 0
M  V30 2085 H 183.3 1.19513 2.73421 0
M  V30 2086 C 182.049 -0.429779 3.45034 0
M  V30 2087 H 181.372 0.248024 3.9903 0
M  V30 2088 H 182.812 -0.775445 4.16849 0
M  V30 2089 C 181.271 -1.62677 2.95022 0
M  V30 2090 O 181.801 -2.72614 2.95033 0
M  V30 2091 N 180.007 -1.46387 2.51036 0
M  V30 2092 H 179.554 -0.569506 2.51226 0
M  V30 2093 H 179.512 -2.26612 2.17932 0
M  V30 2094 N 183.284 -1.43765 0.645699 0
M  V30 2095 C 184.533 -2.01116 0.153412 0
M  V30 2096 C 184.846 -1.51493 -1.23731 0
M  V30 2097 O 186.052 -2.01067 -1.8244 0
M  V30 2098 C 184.508 -3.59206 0.223473 0
M  V30 2099 C 184.116 -4.17823 1.61642 0
M  V30 2100 C 185.86 -4.23972 -0.211597 0
M  V30 2101 C 183.767 -5.68183 1.64081 0
M  V30 2102 H 182.697 -0.752093 0.0535891 0
M  V30 2103 H 185.348 -1.6482 0.806633 0
M  V30 2104 H 183.73 -3.92867 -0.497118 0
M  V30 2105 H 184.904 -3.95674 2.36176 0
M  V30 2106 H 183.219 -3.65399 1.99681 0
M  V30 2107 H 185.816 -5.34275 -0.213112 0
M  V30 2108 H 186.159 -3.97352 -1.24165 0
M  V30 2109 H 186.692 -3.95166 0.456988 0
M  V30 2110 H 183.431 -5.99559 2.64971 0
M  V30 2111 H 182.951 -5.9241 0.938611 0
M  V30 2112 H 184.63 -6.32085 1.3812 0
M  V30 2113 N 184.763 -0.387143 -1.52771 0
M  V30 2114 C 185.991 0.195869 -2.05971 0
M  V30 2115 C 186.406 1.40691 -1.25903 0
M  V30 2116 O 185.763 1.79931 -0.305134 0
M  V30 2117 C 185.814 0.56812 -3.57008 0
M  V30 2118 O 185.535 -0.594803 -4.34043 0
M  V30 2119 C 187.036 1.20723 -4.26545 0
M  V30 2120 H 184.256 0.0300578 -0.670326 0
M  V30 2121 H 186.8 -0.551749 -1.96916 0
M  V30 2122 H 184.955 1.26564 -3.66143 0
M  V30 2123 H 185.369 -0.289322 -5.23701 0
M  V30 2124 H 186.843 1.41807 -5.33474 0
M  V30 2125 H 187.32 2.17395 -3.81623 0
M  V30 2126 H 187.926 0.550535 -4.21722 0
M  V30 2127 N 186.241 1.57166 -0.116904 0
M  V30 2128 C 187.49 1.94298 0.541407 0
M  V30 2129 C 187.803 1.00236 1.67964 0
M  V30 2130 O 189.009 1.26826 2.40057 0
M  V30 2131 C 187.465 3.45306 1.01449 0
M  V30 2132 C 187.073 4.47899 -0.0951738 0
M  V30 2133 C 188.817 3.91361 1.6443 0
M  V30 2134 C 186.724 5.90083 0.394491 0
M  V30 2135 H 185.654 0.725308 0.206019 0
M  V30 2136 H 188.305 1.82446 -0.196419 0
M  V30 2137 H 186.687 3.52385 1.80667 0
M  V30 2138 H 187.861 4.52486 -0.871374 0
M  V30 2139 H 186.176 4.11583 -0.631505 0
M  V30 2140 H 188.773 4.95004 2.02176 0
M  V30 2141 H 189.116 3.3122 2.52189 0
M  V30 2142 H 189.649 3.87073 0.917559 0
M  V30 2143 H 186.388 6.53974 -0.447004 0
M  V30 2144 H 185.908 5.88921 1.13722 0
M  V30 2145 H 187.587 6.41307 0.856399 0
M  V30 2146 N 187.719 -0.156864 1.56817 0
M  V30 2147 C 188.944 -0.890331 1.87318 0
M  V30 2148 C 189.369 -1.74394 0.704855 0
M  V30 2149 O 188.727 -1.77972 -0.345786 0
M  V30 2150 C 188.775 -1.73102 3.16336 0
M  V30 2151 O 187.879 -2.83422 2.99576 0
M  V30 2152 H 187.22 -0.24857 0.615718 0
M  V30 2153 H 189.75 -0.150649 2.04045 0
M  V30 2154 H 189.76 -2.12803 3.48107 0
M  V30 2155 H 188.435 -1.10412 4.00976 0
M  V30 2156 H 187.012 -2.47199 2.7919 0
M  V30 2157 N 189.197 -1.51736 -0.425897 0
M  V30 2158 C 190.425 -1.68794 -1.1965 0
M  V30 2159 C 190.84 -0.390164 -1.84725 0
M  V30 2160 O 190.197 0.632376 -1.71194 0
M  V30 2161 C 190.248 -2.81174 -2.27208 0
M  V30 2162 O 189.969 -4.05925 -1.64793 0
M  V30 2163 C 191.47 -3.09599 -3.17275 0
M  V30 2164 H 188.69 -0.566128 -0.360194 0
M  V30 2165 H 191.234 -1.98211 -0.503249 0
M  V30 2166 H 189.389 -2.54324 -2.9223 0
M  V30 2167 H 189.803 -4.68423 -2.35967 0
M  V30 2168 H 191.277 -3.91786 -3.88854 0
M  V30 2169 H 191.754 -2.22468 -3.78688 0
M  V30 2170 H 192.36 -3.38151 -2.57941 0
M  V30 2171 N 190.675 0.682077 -1.42076 0
M  V30 2172 C 191.622 1.79578 -1.44984 0
M  V30 2173 C 192.592 1.6332 -0.302614 0
M  V30 2174 O 193.777 1.83978 -0.505633 0
M  V30 2175 C 190.917 3.1756 -1.35091 0
M  V30 2176 C 190.03 3.45156 -2.59791 0
M  V30 2177 C 189.165 4.72826 -2.42093 0
M  V30 2178 C 188.204 4.93433 -3.62202 0
M  V30 2179 N 187.341 6.12338 -3.43491 0
M  V30 2180 H 192.181 1.76427 -2.40161 0
M  V30 2181 H 189.718 0.861376 -1.19242 0
M  V30 2182 H 191.676 3.97287 -1.27354 0
M  V30 2183 H 190.306 3.19854 -0.435133 0
M  V30 2184 H 189.358 2.59736 -2.77923 0
M  V30 2185 H 190.67 3.5628 -3.49094 0
M  V30 2186 H 189.824 5.60631 -2.319 0
M  V30 2187 H 188.563 4.63973 -1.50268 0
M  V30 2188 H 187.568 4.04073 -3.72834 0
M  V30 2189 H 188.793 5.04136 -4.54998 0
M  V30 2190 H 186.739 6.04672 -2.54377 0
M  V30 2191 H 186.656 6.2429 -4.26377 0
M  V30 2192 H 187.924 7.02841 -3.37097 0
M  V30 2193 N 192.153 1.28127 0.917671 0
M  V30 2194 C 193.116 1.11744 2.00115 0
M  V30 2195 C 194.116 0.0583052 1.60694 0
M  V30 2196 O 195.306 0.303755 1.71531 0
M  V30 2197 C 192.438 0.704862 3.33533 0
M  V30 2198 H 193.631 2.07966 2.16079 0
M  V30 2199 H 191.184 1.11058 1.09981 0
M  V30 2200 H 191.919 -0.258299 3.2327 0
M  V30 2201 H 191.704 1.4699 3.63505 0
M  V30 2202 H 193.194 0.612768 4.1308 0
M  V30 2203 N 193.631 -1.12557 1.10312 0
M  V30 2204 C 194.859 -1.87864 0.866873 0
M  V30 2205 C 195.274 -1.79588 -0.582557 0
M  V30 2206 O 194.631 -1.16887 -1.40156 0
M  V30 2207 C 194.682 -3.37125 1.30496 0
M  V30 2208 O 194.403 -3.45201 2.69755 0
M  V30 2209 C 195.904 -4.29373 1.10243 0
M  V30 2210 H 193.124 -0.594452 0.311236 0
M  V30 2211 H 195.668 -1.42429 1.46745 0
M  V30 2212 H 193.823 -3.80109 0.748081 0
M  V30 2213 H 194.237 -4.38056 2.88457 0
M  V30 2214 H 195.711 -5.32394 1.45811 0
M  V30 2215 H 196.188 -4.39181 0.0409492 0
M  V30 2216 H 196.794 -3.92169 1.64571 0
M  V30 2217 N 195.109 -0.891671 -1.2995 0
M  V30 2218 C 196.039 -0.379797 -2.30391 0
M  V30 2219 C 197.02 0.540919 -1.6127 0
M  V30 2220 O 198.205 0.453352 -1.88834 0
M  V30 2221 C 195.335 0.400654 -3.44981 0
M  V30 2222 C 194.289 -0.428905 -4.25846 0
M  V30 2223 C 193.615 0.478557 -5.32554 0
M  V30 2224 C 194.915 -1.67458 -4.94727 0
M  V30 2225 H 196.609 -1.21914 -2.73454 0
M  V30 2226 H 194.155 -0.587675 -1.31462 0
M  V30 2227 H 196.108 0.769434 -4.14316 0
M  V30 2228 H 194.832 1.27371 -3.0074 0
M  V30 2229 H 193.491 -0.779911 -3.58208 0
M  V30 2230 H 193.139 1.34951 -4.84559 0
M  V30 2231 H 192.839 -0.0727433 -5.87555 0
M  V30 2232 H 194.363 0.843705 -6.04743 0
M  V30 2233 H 195.777 -1.376 -5.56542 0
M  V30 2234 H 194.174 -2.16659 -5.59624 0
M  V30 2235 H 195.244 -2.41518 -4.20473 0
M  V30 2236 N 196.587 1.43421 -0.653314 0
M  V30 2237 C 197.537 2.2792 0.060558 0
M  V30 2238 C 198.521 1.39906 0.794677 0
M  V30 2239 O 199.713 1.63536 0.677128 0
M  V30 2240 C 196.842 3.27603 1.0262 0
M  V30 2241 C 195.928 4.23104 0.290551 0
M  V30 2242 N 196.319 5.01031 -0.692967 0
M  V30 2243 C 194.617 4.42816 0.531984 0
M  V30 2244 C 195.318 5.70626 -1.12963 0
M  V30 2245 N 194.294 5.41617 -0.463867 0
M  V30 2246 H 198.096 2.85585 -0.694143 0
M  V30 2247 H 195.61 1.55126 -0.480602 0
M  V30 2248 H 197.607 3.86918 1.55242 0
M  V30 2249 H 196.267 2.71499 1.78096 0
M  V30 2250 H 197.278 5.0669 -1.07169 0
M  V30 2251 H 193.955 3.97782 1.26791 0
M  V30 2252 H 195.345 6.4318 -1.94343 0
M  V30 2253 N 198.065 0.39524 1.52563 0
M  V30 2254 C 199.295 -0.184675 2.05773 0
M  V30 2255 C 199.703 -1.40571 1.26635 0
M  V30 2256 O 199.046 -1.81105 0.30769 0
M  V30 2257 C 199.108 -0.613551 3.54226 0
M  V30 2258 C 198.772 0.49484 4.54313 0
M  V30 2259 C 199.769 1.3541 5.01956 0
M  V30 2260 C 197.454 0.663565 4.97898 0
M  V30 2261 C 199.448 2.36716 5.91814 0
M  V30 2262 C 197.135 1.67996 5.87555 0
M  V30 2263 C 198.133 2.53017 6.34406 0
M  V30 2264 O 197.821 3.52917 7.22291 0
M  V30 2265 H 197.553 -0.030077 0.675331 0
M  V30 2266 H 200.107 0.560708 1.97599 0
M  V30 2267 H 198.337 -1.411 3.60038 0
M  V30 2268 H 200.026 -1.11981 3.90148 0
M  V30 2269 H 200.792 1.23509 4.6901 0
M  V30 2270 H 196.671 0.0114913 4.60999 0
M  V30 2271 H 200.215 3.03113 6.28306 0
M  V30 2272 H 196.112 1.79933 6.19915 0
M  V30 2273 H 196.88 3.48996 7.40367 0
M  V30 2274 N 199.544 -1.57102 0.125237 0
M  V30 2275 C 200.772 -1.99761 -0.538797 0
M  V30 2276 C 201.187 -1.00503 -1.59827 0
M  V30 2277 O 200.544 0.00119474 -1.825 0
M  V30 2278 C 200.595 -3.42408 -1.15927 0
M  V30 2279 O 200.316 -4.37869 -0.142143 0
M  V30 2280 C 201.817 -4.00232 -1.90602 0
M  V30 2281 H 199.037 -0.655772 -0.14214 0
M  V30 2282 H 201.581 -2.03383 0.213413 0
M  V30 2283 H 199.736 -3.39706 -1.86223 0
M  V30 2284 H 200.15 -5.21128 -0.593775 0
M  V30 2285 H 201.624 -5.02105 -2.29335 0
M  V30 2286 H 202.101 -3.39721 -2.78363 0
M  V30 2287 H 202.707 -4.06499 -1.25055 0
M  V30 2288 N 201.022 0.148545 -1.56898 0
M  V30 2289 C 202.27 0.859717 -1.82902 0
M  V30 2290 C 202.591 1.81775 -0.70588 0
M  V30 2291 O 201.861 1.93994 0.272586 0
M  V30 2292 H 200.441 0.320469 -0.674766 0
M  V30 2293 H 203.103 0.142918 -1.94375 0
M  V30 2294 H 202.199 1.4229 -2.77777 0
M  V30 2295 N 202.5 1.5196 0.417844 0
M  V30 2296 C 203.41 1.77554 1.53336 0
M  V30 2297 C 204.426 0.660655 1.6097 0
M  V30 2298 O 205.602 0.945099 1.77848 0
M  V30 2299 C 202.667 1.91291 2.89152 0
M  V30 2300 C 201.728 3.15183 2.91475 0
M  V30 2301 C 200.961 3.28256 4.20813 0
M  V30 2302 O 201.184 2.46798 5.14244 0
M  V30 2303 O 200.118 4.21356 4.29817 0
M  V30 2304 H 203.944 2.7222 1.34647 0
M  V30 2305 H 201.529 1.36698 0.602828 0
M  V30 2306 H 203.411 2.02199 3.69721 0
M  V30 2307 H 202.086 0.998129 3.07927 0
M  V30 2308 H 200.993 3.09739 2.09791 0
M  V30 2309 H 202.326 4.06414 2.77648 0
M  V30 2310 N 203.978 -0.674533 1.42435 0
M  V30 2311 C 205.224 -1.43671 1.43131 0
M  V30 2312 C 205.557 -1.94142 0.0476021 0
M  V30 2313 O 204.832 -1.70924 -0.928188 0
M  V30 2314 C 205.115 -2.63355 2.45594 0
M  V30 2315 C 204.968 -2.18514 3.93156 0
M  V30 2316 C 206.287 -3.65571 2.45043 0
M  V30 2317 H 203.406 -0.521077 0.521198 0
M  V30 2318 H 206.048 -0.766551 1.7385 0
M  V30 2319 H 204.198 -3.2053 2.19528 0
M  V30 2320 H 205.87 -1.66504 4.30202 0
M  V30 2321 H 204.113 -1.50086 4.07009 0
M  V30 2322 H 204.784 -3.04484 4.60428 0
M  V30 2323 H 207.26 -3.18113 2.68223 0
M  V30 2324 H 206.136 -4.46893 3.18713 0
M  V30 2325 H 206.397 -4.16716 1.47649 0
M  V30 2326 N 205.456 -1.28612 -0.910864 0
M  V30 2327 C 206.684 -1.18792 -1.69399 0
M  V30 2328 C 207.099 0.253039 -1.87097 0
M  V30 2329 O 206.456 1.17071 -1.40003 0
M  V30 2330 C 206.507 -1.88511 -3.08457 0
M  V30 2331 O 206.228 -3.26979 -2.91576 0
M  V30 2332 C 207.729 -1.85029 -4.02839 0
M  V30 2333 H 204.949 -0.412233 -0.529438 0
M  V30 2334 H 207.493 -1.69788 -1.13984 0
M  V30 2335 H 205.648 -1.41379 -3.60681 0
M  V30 2336 H 206.062 -3.61936 -3.79608 0
M  V30 2337 H 207.536 -2.38395 -4.97867 0
M  V30 2338 H 208.013 -0.823303 -4.31414 0
M  V30 2339 H 208.619 -2.31853 -3.56545 0
M  V30 2340 N 206.934 1.1197 -1.10907 0
M  V30 2341 C 208.18 1.84059 -0.865674 0
M  V30 2342 C 208.535 1.82731 0.602254 0
M  V30 2343 O 207.828 1.26543 1.43866 0
M  V30 2344 C 208.022 3.30749 -1.35425 0
M  V30 2345 C 207.851 3.46363 -2.86815 0
M  V30 2346 C 206.621 3.59712 -3.54874 0
M  V30 2347 C 208.819 3.41116 -3.84895 0
M  V30 2348 N 206.801 3.63741 -4.94536 0
M  V30 2349 C 208.172 3.51698 -5.10596 0
M  V30 2350 C 210.227 3.24612 -3.77533 0
M  V30 2351 C 208.93 3.4748 -6.29802 0
M  V30 2352 C 210.956 3.21708 -4.96244 0
M  V30 2353 C 210.318 3.32856 -6.20795 0
M  V30 2354 H 206.417 0.689015 -0.369841 0
M  V30 2355 H 209.001 1.34016 -1.41237 0
M  V30 2356 H 207.172 3.79322 -0.834814 0
M  V30 2357 H 208.904 3.90718 -1.05458 0
M  V30 2358 H 205.659 3.62038 -3.05329 0
M  V30 2359 H 206.083 3.69408 -5.67333 0
M  V30 2360 H 210.725 3.14883 -2.8215 0
M  V30 2361 H 208.443 3.55978 -7.25469 0
M  V30 2362 H 212.029 3.10113 -4.92261 0
M  V30 2363 H 210.909 3.3059 -7.11112 0
M  V30 2364 N 208.412 0.89855 1.29475 0
M  V30 2365 C 209.322 0.379974 2.31502 0
M  V30 2366 C 210.338 -0.524695 1.659 0
M  V30 2367 O 211.514 -0.414551 1.97087 0
M  V30 2368 C 208.579 -0.385138 3.44554 0
M  V30 2369 C 207.64 0.550914 4.2575 0
M  V30 2370 C 206.873 -0.177778 5.33404 0
M  V30 2371 O 207.096 -1.40189 5.52904 0
M  V30 2372 O 206.03 0.479106 5.9999 0
M  V30 2373 H 209.856 1.22639 2.77837 0
M  V30 2374 H 207.441 0.662834 1.33891 0
M  V30 2375 H 209.323 -0.817841 4.13388 0
M  V30 2376 H 207.998 -1.20763 3.0033 0
M  V30 2377 H 206.905 1.03271 3.59564 0
M  V30 2378 H 208.238 1.33979 4.73614 0
M  V30 2379 N 209.89 -1.43072 0.660911 0
M  V30 2380 C 211.301 -1.84932 0.256348 0
M  V30 2381 C 211.652 -1.55325 -1.19868 0
M  V30 2382 O 210.777 -1.00607 -1.91591 0
M  V30 2383 C 211.372 -3.35684 0.458475 0
M  V30 2384 C 209.931 -3.76245 0.108161 0
M  V30 2385 C 209.078 -2.66749 0.757641 0
M  V30 2386 H 212.029 -1.33116 0.864051 0
M  V30 2387 H 212.05 -3.79365 -0.293683 0
M  V30 2388 H 211.562 -3.572 1.51755 0
M  V30 2389 H 209.663 -3.60338 -0.948014 0
M  V30 2390 H 209.776 -4.76058 0.538992 0
M  V30 2391 H 208.14 -2.53989 0.190185 0
M  V30 2392 H 208.923 -2.91092 1.81989 0
M  V30 2393 N 211.368 -0.403325 -1.52352 0
M  V30 2394 C 212.779 0.0675782 -1.86578 0
M  V30 2395 C 213.13 1.44941 -1.32236 0
M  V30 2396 O 212.255 2.06112 -0.659307 0
M  V30 2397 C 212.85 0.129404 -3.38553 0
M  V30 2398 C 211.409 0.544629 -3.72439 0
M  V30 2399 C 210.556 -0.284551 -2.75836 0
M  V30 2400 H 213.507 -0.620631 -1.46061 0
M  V30 2401 H 213.528 0.94581 -3.68558 0
M  V30 2402 H 213.04 -0.87645 -3.78074 0
M  V30 2403 H 211.141 1.55734 -3.38493 0
M  V30 2404 H 211.254 0.293046 -4.78203 0
M  V30 2405 H 209.618 0.252258 -2.53448 0
M  V30 2406 H 210.401 -1.28865 -3.18196 0
M  V30 2407 N 212.846 1.57033 -0.133567 0
M  V30 2408 C 213.809 2.14897 0.796995 0
M  V30 2409 C 214.809 1.0874 1.18458 0
M  V30 2410 O 215.999 1.34446 1.1077 0
M  V30 2411 C 213.131 2.70112 2.07973 0
M  V30 2412 H 214.324 2.98457 0.293873 0
M  V30 2413 H 211.877 1.55871 0.115787 0
M  V30 2414 H 212.612 1.9018 2.62682 0
M  V30 2415 H 212.397 3.47764 1.81115 0
M  V30 2416 H 213.887 3.14738 2.74462 0
M  V30 2417 N 214.325 -0.140222 1.56975 0
M  V30 2418 C 215.574 -0.850152 1.82908 0
M  V30 2419 C 215.887 -1.82028 0.715892 0
M  V30 2420 O 217.093 -2.57485 0.861016 0
M  V30 2421 C 215.549 -1.5625 3.24213 0
M  V30 2422 C 215.157 -0.63443 4.43485 0
M  V30 2423 C 216.901 -2.25881 3.59413 0
M  V30 2424 C 214.808 -1.34879 5.75814 0
M  V30 2425 H 213.738 -0.321221 0.682153 0
M  V30 2426 H 216.389 -0.102874 1.83211 0
M  V30 2427 H 214.771 -2.35565 3.18316 0
M  V30 2428 H 215.945 0.12398 4.60633 0
M  V30 2429 H 214.26 -0.0461836 4.16374 0
M  V30 2430 H 216.857 -2.79978 4.5554 0
M  V30 2431 H 217.2 -3.02693 2.85802 0
M  V30 2432 H 217.733 -1.53477 3.67001 0
M  V30 2433 H 214.472 -0.622385 6.52539 0
M  V30 2434 H 213.992 -2.07974 5.6259 0
M  V30 2435 H 215.671 -1.88784 6.18845 0
M  V30 2436 N 215.803 -1.52179 -0.40978 0
M  V30 2437 C 217.05 -1.66206 -1.15679 0
M  V30 2438 C 217.378 -0.391674 -1.90516 0
M  V30 2439 O 216.633 0.62533 -1.8544 0
M  V30 2440 C 216.932 -2.83428 -2.17723 0
M  V30 2441 C 216.598 -4.21672 -1.59699 0
M  V30 2442 C 215.26 -4.59274 -1.43599 0
M  V30 2443 C 217.612 -5.07825 -1.17317 0
M  V30 2444 C 214.94 -5.80709 -0.836328 0
M  V30 2445 C 217.292 -6.29864 -0.587691 0
M  V30 2446 C 215.956 -6.66216 -0.413818 0
M  V30 2447 H 215.226 -0.608192 -0.423301 0
M  V30 2448 H 217.873 -1.86279 -0.444097 0
M  V30 2449 H 216.178 -2.57687 -2.95135 0
M  V30 2450 H 217.875 -2.91477 -2.75394 0
M  V30 2451 H 214.465 -3.9204 -1.73213 0
M  V30 2452 H 218.649 -4.79359 -1.28565 0
M  V30 2453 H 213.905 -6.07498 -0.689626 0
M  V30 2454 H 218.079 -6.95948 -0.250894 0
M  V30 2455 H 215.706 -7.60182 0.0529471 0
M  V30 2456 N 217.281 0.66697 -1.42791 0
M  V30 2457 C 218.228 1.7803 -1.4688 0
M  V30 2458 C 219.198 1.6299 -0.319919 0
M  V30 2459 O 220.383 1.83432 -0.525118 0
M  V30 2460 C 217.523 3.1611 -1.38451 0
M  V30 2461 C 216.636 3.42381 -2.63437 0
M  V30 2462 C 215.771 4.70232 -2.47094 0
M  V30 2463 C 214.81 4.89564 -3.67415 0
M  V30 2464 N 213.947 6.08661 -3.49966 0
M  V30 2465 H 218.787 1.7387 -2.42019 0
M  V30 2466 H 216.324 0.84868 -1.20149 0
M  V30 2467 H 218.282 3.95914 -1.31561 0
M  V30 2468 H 216.912 3.19374 -0.469033 0
M  V30 2469 H 215.964 2.56774 -2.80662 0
M  V30 2470 H 217.276 3.52557 -3.52853 0
M  V30 2471 H 216.43 5.5814 -2.37834 0
M  V30 2472 H 215.169 4.62353 -1.5518 0
M  V30 2473 H 214.174 4.00096 -3.77099 0
M  V30 2474 H 215.399 4.99282 -4.6032 0
M  V30 2475 H 213.345 6.0194 -2.60776 0
M  V30 2476 H 213.262 6.19733 -4.32975 0
M  V30 2477 H 214.53 6.99226 -3.44532 0
M  V30 2478 N 218.759 1.29093 0.90403 0
M  V30 2479 C 219.984 1.19809 1.69294 0
M  V30 2480 C 220.409 -0.238481 1.86582 0
M  V30 2481 O 219.767 -1.1723 1.383 0
M  V30 2482 C 219.815 1.91202 3.05736 0
M  V30 2483 O 218.919 1.22611 3.93752 0
M  V30 2484 H 218.26 0.415385 0.518027 0
M  V30 2485 H 220.79 1.70586 1.12967 0
M  V30 2486 H 220.8 1.99487 3.55906 0
M  V30 2487 H 219.475 2.95692 2.92471 0
M  V30 2488 H 218.052 1.22554 3.52186 0
M  V30 2489 N 220.237 -1.11381 1.11499 0
M  V30 2490 C 221.17 -2.16621 0.71769 0
M  V30 2491 C 222.148 -1.60058 -0.286413 0
M  V30 2492 O 223.332 -1.87613 -0.182689 0
M  V30 2493 C 220.459 -3.38646 0.0607265 0
M  V30 2494 C 219.505 -4.13874 1.03008 0
M  V30 2495 S 220.338 -4.70731 2.55289 0
M  V30 2496 C 221.494 -5.96079 1.90895 0
M  V30 2497 H 221.727 -2.49987 1.60915 0
M  V30 2498 H 219.26 -1.23015 0.933092 0
M  V30 2499 H 221.218 -4.09313 -0.311965 0
M  V30 2500 H 219.879 -3.03537 -0.807702 0
M  V30 2501 H 219.072 -5.01333 0.517853 0
M  V30 2502 H 218.674 -3.4897 1.34522 0
M  V30 2503 H 220.966 -6.65948 1.24577 0
M  V30 2504 H 221.909 -6.51946 2.76354 0
M  V30 2505 H 222.317 -5.47652 1.36885 0
M  V30 2506 N 221.715 -0.905404 -1.28997 0
M  V30 2507 C 222.955 -0.541232 -1.97104 0
M  V30 2508 C 223.319 0.896841 -1.69767 0
M  V30 2509 O 224.52 1.36817 -2.31375 0
M  V30 2510 C 222.791 -0.832134 -3.47578 0
M  V30 2511 S 224.35 -0.573127 -4.35041 0
M  V30 2512 H 221.168 -0.200576 -0.682122 0
M  V30 2513 H 223.77 -1.16906 -1.56694 0
M  V30 2514 H 222.474 -1.87687 -3.64968 0
M  V30 2515 H 222.005 -0.192636 -3.92928 0
M  V30 2516 H 224.02 0.579297 -4.92807 0
M  V30 2517 N 223.193 1.4272 -0.668489 0
M  V30 2518 C 224.125 2.2914 0.052613 0
M  V30 2519 C 225.138 1.43339 0.771857 0
M  V30 2520 O 226.327 1.67123 0.627067 0
M  V30 2521 C 223.427 3.20618 1.09804 0
M  V30 2522 C 222.6 4.35039 0.45389 0
M  V30 2523 C 221.659 5.07282 1.39825 0
M  V30 2524 O 220.685 5.62024 0.900978 0
M  V30 2525 N 221.887 5.12206 2.73176 0
M  V30 2526 H 224.652 2.91668 -0.689209 0
M  V30 2527 H 222.213 1.53577 -0.512422 0
M  V30 2528 H 224.205 3.65815 1.73094 0
M  V30 2529 H 222.775 2.59585 1.74167 0
M  V30 2530 H 221.995 3.92567 -0.358396 0
M  V30 2531 H 223.283 5.088 0.00486972 0
M  V30 2532 H 222.681 4.6913 3.16122 0
M  V30 2533 H 221.238 5.61069 3.31729 0
M  V30 2534 N 224.671 0.411399 1.52136 0
M  V30 2535 C 225.92 -0.165009 2.01024 0
M  V30 2536 C 226.233 -1.4603 1.30133 0
M  V30 2537 O 227.439 -2.1181 1.69849 0
M  V30 2538 C 225.895 -0.344618 3.58246 0
M  V30 2539 C 225.503 0.938716 4.38055 0
M  V30 2540 C 227.247 -0.876195 4.15359 0
M  V30 2541 C 225.154 0.726172 5.86925 0
M  V30 2542 H 224.084 -0.0654407 0.751155 0
M  V30 2543 H 226.735 0.537192 1.75461 0
M  V30 2544 H 225.117 -1.10921 3.80148 0
M  V30 2545 H 226.291 1.70963 4.27912 0
M  V30 2546 H 224.606 1.39688 3.92271 0
M  V30 2547 H 227.203 -1.05128 5.24263 0
M  V30 2548 H 227.546 -1.85152 3.7286 0
M  V30 2549 H 228.079 -0.170607 3.97434 0
M  V30 2550 H 224.818 1.67312 6.33788 0
M  V30 2551 H 224.338 -0.00540283 5.998 0
M  V30 2552 H 226.017 0.369231 6.45946 0
M  V30 2553 N 226.149 -1.5696 0.141893 0
M  V30 2554 C 227.426 -1.87553 -0.555281 0
M  V30 2555 C 227.806 -1.04699 -1.83306 0
M  V30 2556 O 227.154 -0.132346 -2.28116 0
M  V30 2557 C 227.364 -3.39093 -0.825664 0
M  V30 2558 C 228.712 -4.08199 -1.16869 0
M  V30 2559 O 229.736 -3.44242 -0.915185 0
M  V30 2560 O 228.595 -5.21139 -1.6455 0
M  V30 2561 H 225.689 -0.777188 -0.282679 0
M  V30 2562 H 228.235 -1.68763 0.17812 0
M  V30 2563 H 227.007 -3.91221 0.0788633 0
M  V30 2564 H 226.63 -3.63393 -1.61343 0
M  V30 2565 N 227.627 0.131896 -1.57047 0
M  V30 2566 C 228.873 0.843179 -1.84441 0
M  V30 2567 C 229.206 1.80129 -0.725749 0
M  V30 2568 O 228.481 1.92624 0.269469 0
M  V30 2569 C 228.764 1.60442 -3.22382 0
M  V30 2570 C 228.617 0.666782 -4.4483 0
M  V30 2571 C 229.936 2.56354 -3.5773 0
M  V30 2572 H 227.055 0.305081 -0.670891 0
M  V30 2573 H 229.697 0.107839 -1.89694 0
M  V30 2574 H 227.847 2.23128 -3.18035 0
M  V30 2575 H 229.519 0.0497646 -4.61273 0
M  V30 2576 H 227.762 -0.022609 -4.33794 0
M  V30 2577 H 228.433 1.23579 -5.37989 0
M  V30 2578 H 230.909 2.0378 -3.62785 0
M  V30 2579 H 229.785 3.06657 -4.5525 0
M  V30 2580 H 230.046 3.38419 -2.84473 0
M  V30 2581 N 229.106 1.52395 0.401703 0
M  V30 2582 C 230.522 1.41363 0.740864 0
M  V30 2583 C 230.722 0.523982 1.94568 0
M  V30 2584 O 229.778 -0.00741204 2.52499 0
M  V30 2585 C 231.091 2.84011 0.987847 0
M  V30 2586 C 232.639 2.93404 1.09011 0
M  V30 2587 C 233.114 4.37036 1.3698 0
M  V30 2588 N 234.605 4.40304 1.43829 0
M  V30 2589 C 235.34 5.48508 1.67112 0
M  V30 2590 N 234.836 6.66819 1.87949 0
M  V30 2591 N 236.629 5.36034 1.69187 0
M  V30 2592 H 228.78 2.08765 -0.391262 0
M  V30 2593 H 231.043 0.941265 -0.112798 0
M  V30 2594 H 230.749 3.51265 0.174835 0
M  V30 2595 H 230.623 3.25502 1.906 0
M  V30 2596 H 233.01 2.26325 1.8937 0
M  V30 2597 H 233.091 2.55359 0.15015 0
M  V30 2598 H 232.735 5.04676 0.571353 0
M  V30 2599 H 232.665 4.72623 2.3224 0
M  V30 2600 H 235.156 3.55024 1.29486 0
M  V30 2601 H 235.469 7.45063 2.05185 0
M  V30 2602 H 233.814 6.6987 1.85199 0
M  V30 2603 H 237.005 4.42579 1.52451 0
M  V30 2604 H 237.178 6.20434 1.86993 0
M  V30 2605 N 230.584 -0.659388 1.43143 0
M  V30 2606 C 231.83 -1.41984 1.45644 0
M  V30 2607 C 232.185 -1.92245 0.0771718 0
M  V30 2608 O 231.478 -1.68976 -0.903205 0
M  V30 2609 C 231.672 -2.62206 2.42864 0
M  V30 2610 C 231.501 -2.23711 3.90107 0
M  V30 2611 C 230.271 -2.12332 4.58523 0
M  V30 2612 C 232.469 -1.84384 4.80112 0
M  V30 2613 N 230.451 -1.67102 5.9072 0
M  V30 2614 C 231.822 -1.5019 6.01534 0
M  V30 2615 C 233.877 -1.71512 4.67427 0
M  V30 2616 C 232.58 -1.04414 7.11681 0
M  V30 2617 C 234.606 -1.27142 5.77572 0
M  V30 2618 C 233.968 -0.938808 6.98116 0
M  V30 2619 H 230.067 -0.515448 0.588079 0
M  V30 2620 H 232.651 -0.759409 1.79279 0
M  V30 2621 H 230.822 -3.25917 2.11265 0
M  V30 2622 H 232.554 -3.28877 2.35843 0
M  V30 2623 H 229.309 -2.31893 4.12944 0
M  V30 2624 H 229.733 -1.46866 6.60878 0
M  V30 2625 H 234.375 -1.95868 3.74694 0
M  V30 2626 H 232.093 -0.788061 8.04248 0
M  V30 2627 H 235.679 -1.17681 5.69774 0
M  V30 2628 H 234.559 -0.6007 7.81896 0
M  V30 2629 N 232.062 -1.29571 -0.897171 0
M  V30 2630 C 233.309 -1.17689 -1.6479 0
M  V30 2631 C 233.637 0.27107 -1.92602 0
M  V30 2632 O 232.892 1.21193 -1.53658 0
M  V30 2633 C 233.191 -1.9382 -3.00281 0
M  V30 2634 C 232.857 -3.43522 -2.92068 0
M  V30 2635 C 231.519 -3.84348 -2.89535 0
M  V30 2636 C 233.871 -4.38906 -2.81089 0
M  V30 2637 C 231.199 -5.18869 -2.73846 0
M  V30 2638 C 233.551 -5.73521 -2.66939 0
M  V30 2639 C 232.215 -6.13601 -2.62774 0
M  V30 2640 H 231.485 -0.430654 -0.603008 0
M  V30 2641 H 234.132 -1.60536 -1.04404 0
M  V30 2642 H 232.437 -1.4357 -3.64547 0
M  V30 2643 H 234.134 -1.82028 -3.57305 0
M  V30 2644 H 230.724 -3.11072 -2.94842 0
M  V30 2645 H 234.908 -4.08315 -2.82121 0
M  V30 2646 H 230.164 -5.4903 -2.69027 0
M  V30 2647 H 234.338 -6.47078 -2.57416 0
M  V30 2648 H 231.965 -7.17786 -2.50375 0
M  V30 2649 N 233.54 1.10788 -1.12088 0
M  V30 2650 C 234.951 1.64181 -0.88891 0
M  V30 2651 C 235.302 1.87508 0.577498 0
M  V30 2652 O 234.427 1.61434 1.44112 0
M  V30 2653 C 235.022 2.98257 -1.60712 0
M  V30 2654 C 233.581 3.4853 -1.42139 0
M  V30 2655 C 232.728 2.23208 -1.6454 0
M  V30 2656 H 235.679 0.943368 -1.27618 0
M  V30 2657 H 235.7 3.65552 -1.05604 0
M  V30 2658 H 235.212 2.81246 -2.67436 0
M  V30 2659 H 233.313 3.70692 -0.376552 0
M  V30 2660 H 233.426 4.26882 -2.17505 0
M  V30 2661 H 231.79 2.31169 -1.06925 0
M  V30 2662 H 232.573 2.08733 -2.72554 0
M  V30 2663 N 235.018 0.912232 1.28515 0
M  V30 2664 C 236.265 0.544599 1.95039 0
M  V30 2665 C 236.593 -0.911435 1.71823 0
M  V30 2666 O 235.848 -1.66317 1.03137 0
M  V30 2667 C 236.147 0.798392 3.48368 0
M  V30 2668 C 235.813 2.23374 3.91682 0
M  V30 2669 C 234.475 2.62617 4.03219 0
M  V30 2670 C 236.827 3.16786 4.13879 0
M  V30 2671 C 234.155 3.94429 4.3433 0
M  V30 2672 C 236.507 4.48161 4.46469 0
M  V30 2673 C 235.171 4.8726 4.56217 0
M  V30 2674 H 234.441 0.199283 0.7137 0
M  V30 2675 H 237.088 1.15327 1.52879 0
M  V30 2676 H 235.393 0.106908 3.91654 0
M  V30 2677 H 237.09 0.493141 3.97956 0
M  V30 2678 H 233.68 1.91922 3.83228 0
M  V30 2679 H 237.864 2.87677 4.0442 0
M  V30 2680 H 233.12 4.24426 4.40082 0
M  V30 2681 H 237.294 5.20559 4.62592 0
M  V30 2682 H 234.921 5.89431 4.80078 0
M  V30 2683 N 236.496 -1.42363 0.676048 0
M  V30 2684 C 237.773 -1.95183 0.127726 0
M  V30 2685 C 238.153 -1.61641 -1.35777 0
M  V30 2686 O 237.501 -0.913216 -2.09458 0
M  V30 2687 C 237.711 -3.46721 0.398199 0
M  V30 2688 C 239.059 -4.23427 0.315383 0
M  V30 2689 O 240.083 -3.54649 0.332016 0
M  V30 2690 O 238.942 -5.45888 0.25865 0
M  V30 2691 H 236.036 -0.826992 0.00359427 0
M  V30 2692 H 238.582 -1.52184 0.750864 0
M  V30 2693 H 237.354 -3.64344 1.4272 0
M  V30 2694 H 236.977 -3.96769 -0.256885 0
M  V30 2695 N 237.974 -0.419461 -1.51915 0
M  V30 2696 C 238.884 0.407528 -2.31033 0
M  V30 2697 C 239.9 1.04413 -1.3919 0
M  V30 2698 O 241.076 1.0434 -1.72265 0
M  V30 2699 C 238.141 1.50365 -3.12396 0
M  V30 2700 C 237.202 0.889029 -4.19994 0
M  V30 2701 C 236.435 1.93291 -4.97468 0
M  V30 2702 O 236.658 3.15259 -4.75361 0
M  V30 2703 O 235.592 1.53339 -5.8204 0
M  V30 2704 H 239.418 -0.237865 -3.02767 0
M  V30 2705 H 237.003 -0.182413 -1.48282 0
M  V30 2706 H 238.885 2.13975 -3.63032 0
M  V30 2707 H 237.56 2.13345 -2.43445 0
M  V30 2708 H 236.467 0.215353 -3.7348 0
M  V30 2709 H 237.8 0.302991 -4.91267 0
M  V30 2710 N 239.452 1.56882 -0.150215 0
M  V30 2711 C 240.384 2.14057 0.819286 0
M  V30 2712 C 241.397 1.09082 1.20851 0
M  V30 2713 O 242.586 1.36347 1.15203 0
M  V30 2714 C 239.686 2.65102 2.11127 0
M  V30 2715 C 238.859 3.94511 1.88891 0
M  V30 2716 C 237.918 4.30834 3.02107 0
M  V30 2717 O 236.944 4.99099 2.73659 0
M  V30 2718 N 238.146 3.90676 4.29363 0
M  V30 2719 H 240.911 2.97871 0.330618 0
M  V30 2720 H 238.472 1.61866 0.0332538 0
M  V30 2721 H 240.464 2.86411 2.85921 0
M  V30 2722 H 239.034 1.85994 2.51247 0
M  V30 2723 H 238.254 3.81795 0.981152 0
M  V30 2724 H 239.542 4.7907 1.71376 0
M  V30 2725 H 238.94 3.35677 4.55343 0
M  V30 2726 H 237.497 4.1703 5.00928 0
M  V30 2727 N 240.93 -0.123565 1.57115 0
M  V30 2728 C 241.862 -1.17739 1.96648 0
M  V30 2729 C 242.875 -1.37906 0.865201 0
M  V30 2730 O 244.064 -1.37062 1.14351 0
M  V30 2731 C 241.164 -2.53821 2.24562 0
M  V30 2732 C 240.337 -2.54317 3.55867 0
M  V30 2733 C 239.396 -3.72112 3.72047 0
M  V30 2734 O 238.422 -3.55907 4.44206 0
M  V30 2735 N 239.624 -4.90498 3.10471 0
M  V30 2736 H 242.389 -0.841147 2.87654 0
M  V30 2737 H 239.95 -0.31289 1.58848 0
M  V30 2738 H 241.942 -3.31175 2.32606 0
M  V30 2739 H 240.512 -2.79645 1.39705 0
M  V30 2740 H 239.732 -1.62711 3.59053 0
M  V30 2741 H 241.02 -2.51701 4.42181 0
M  V30 2742 H 240.418 -5.06567 2.51806 0
M  V30 2743 H 238.975 -5.65544 3.24043 0
M  V30 2744 N 242.408 -1.52605 -0.393616 0
M  V30 2745 C 243.648 -1.6911 -1.1481 0
M  V30 2746 C 244.012 -0.41969 -1.87357 0
M  V30 2747 O 245.213 -0.461034 -2.64817 0
M  V30 2748 C 243.484 -2.88909 -2.10395 0
M  V30 2749 S 245.043 -3.25977 -2.93742 0
M  V30 2750 H 241.861 -0.595337 -0.38871 0
M  V30 2751 H 244.463 -1.90641 -0.433178 0
M  V30 2752 H 243.167 -3.79672 -1.55812 0
M  V30 2753 H 242.698 -2.69698 -2.86403 0
M  V30 2754 H 244.713 -2.75806 -4.12487 0
M  V30 2755 N 243.887 0.651787 -1.4349 0
M  V30 2756 C 244.837 1.75783 -1.45205 0
M  V30 2757 C 245.821 1.57679 -0.320328 0
M  V30 2758 O 247.013 1.67767 -0.564211 0
M  V30 2759 C 244.142 3.14377 -1.3792 0
M  V30 2760 C 243.228 3.38023 -2.56127 0
M  V30 2761 N 243.619 3.32135 -3.81471 0
M  V30 2762 C 241.917 3.68747 -2.50882 0
M  V30 2763 C 242.618 3.55902 -4.60118 0
M  V30 2764 N 241.594 3.77783 -3.90872 0
M  V30 2765 H 245.396 1.69657 -2.39987 0
M  V30 2766 H 242.91 0.853508 -1.38163 0
M  V30 2767 H 244.907 3.93666 -1.37231 0
M  V30 2768 H 243.567 3.21683 -0.441596 0
M  V30 2769 H 244.578 3.11515 -4.13738 0
M  V30 2770 H 241.255 3.8316 -1.65816 0
M  V30 2771 H 242.645 3.57116 -5.69138 0
M  V30 2772 N 245.365 1.30045 0.890287 0
M  V30 2773 C 246.295 1.18541 2.01172 0
M  V30 2774 C 247.276 0.0773356 1.69924 0
M  V30 2775 O 248.461 0.25845 1.92473 0
M  V30 2776 C 245.591 0.870941 3.36202 0
M  V30 2777 C 244.545 1.93637 3.81692 0
M  V30 2778 C 243.871 1.475 5.13953 0
M  V30 2779 C 245.171 3.34666 4.00994 0
M  V30 2780 H 246.865 2.12359 2.11054 0
M  V30 2781 H 244.411 1.02238 1.01407 0
M  V30 2782 H 246.364 0.777141 4.14172 0
M  V30 2783 H 245.088 -0.102926 3.26438 0
M  V30 2784 H 243.747 2.01972 3.05946 0
M  V30 2785 H 243.395 0.489551 5.00612 0
M  V30 2786 H 243.095 2.1876 5.4536 0
M  V30 2787 H 244.619 1.39489 5.94454 0
M  V30 2788 H 246.033 3.2912 4.69417 0
M  V30 2789 H 244.43 4.03966 4.43769 0
M  V30 2790 H 245.5 3.76949 3.05021 0
M  V30 2791 N 246.843 -1.10192 1.12674 0
M  V30 2792 C 247.79 -2.16606 0.796906 0
M  V30 2793 C 248.76 -1.64394 -0.237476 0
M  V30 2794 O 249.945 -1.90474 -0.111484 0
M  V30 2795 C 247.085 -3.44116 0.26043 0
M  V30 2796 C 246.198 -4.10268 1.35293 0
M  V30 2797 C 245.333 -5.25507 0.775621 0
M  V30 2798 C 244.372 -5.83567 1.84706 0
M  V30 2799 N 243.509 -6.90179 1.28829 0
M  V30 2800 H 248.349 -2.44163 1.70846 0
M  V30 2801 H 245.886 -1.19846 0.85295 0
M  V30 2802 H 247.844 -4.17143 -0.0686814 0
M  V30 2803 H 246.474 -3.16901 -0.614274 0
M  V30 2804 H 245.526 -3.35184 1.79877 0
M  V30 2805 H 246.838 -4.4946 2.16303 0
M  V30 2806 H 245.992 -6.05398 0.397327 0
M  V30 2807 H 244.731 -4.87656 -0.0656581 0
M  V30 2808 H 243.736 -5.02344 2.23452 0
M  V30 2809 H 244.961 -6.23482 2.69161 0
M  V30 2810 H 242.907 -6.54322 0.468881 0
M  V30 2811 H 242.824 -7.28097 2.03497 0
M  V30 2812 H 244.092 -7.73844 0.937311 0
M  V30 2813 N 248.321 -0.919034 -1.28029 0
M  V30 2814 C 249.568 -0.554934 -1.94748 0
M  V30 2815 C 249.896 0.90231 -1.72304 0
M  V30 2816 O 249.151 1.65767 -1.04018 0
M  V30 2817 C 249.45 -0.816855 -3.4794 0
M  V30 2818 C 249.116 -2.25448 -3.90492 0
M  V30 2819 C 247.778 -2.64752 -4.01821 0
M  V30 2820 C 250.13 -3.18977 -4.12193 0
M  V30 2821 C 247.458 -3.96727 -4.32232 0
M  V30 2822 C 249.81 -4.50523 -4.44086 0
M  V30 2823 C 248.474 -4.89673 -4.53626 0
M  V30 2824 H 247.744 -0.203065 -0.712633 0
M  V30 2825 H 250.391 -1.16136 -1.52265 0
M  V30 2826 H 248.696 -0.127677 -3.91592 0
M  V30 2827 H 250.393 -0.514238 -3.97689 0
M  V30 2828 H 246.983 -1.93952 -3.82205 0
M  V30 2829 H 251.167 -2.89817 -4.02889 0
M  V30 2830 H 246.423 -4.26754 -4.37825 0
M  V30 2831 H 250.597 -5.23005 -4.59825 0
M  V30 2832 H 248.224 -5.91969 -4.76946 0
M  V30 2833 N 249.799 1.42003 -0.683588 0
M  V30 2834 C 251.047 2.01015 -0.209101 0
M  V30 2835 C 251.368 1.54365 1.19149 0
M  V30 2836 O 250.638 0.769083 1.80172 0
M  V30 2837 H 249.218 0.743294 -0.074315 0
M  V30 2838 H 251.88 1.73798 -0.882066 0
M  V30 2839 H 250.976 3.11343 -0.2172 0
M  V30 2840 N 251.277 0.427512 1.51691 0
M  V30 2841 C 252.502 -0.143601 2.06902 0
M  V30 2842 C 252.927 -1.36536 1.29382 0
M  V30 2843 O 252.285 -1.78289 0.329043 0
M  V30 2844 C 252.333 -0.454207 3.57728 0
M  V30 2845 O 251.437 -1.54228 3.82475 0
M  V30 2846 H 250.778 -0.00617128 0.663971 0
M  V30 2847 H 253.308 0.606014 1.95419 0
M  V30 2848 H 253.318 -0.707525 4.01818 0
M  V30 2849 H 251.993 0.438812 4.13579 0
M  V30 2850 H 250.57 -1.2797 3.50254 0
M  V30 2851 N 252.755 -1.56801 0.158532 0
M  V30 2852 C 254.001 -1.97559 -0.483957 0
M  V30 2853 C 254.356 -1.04239 -1.61716 0
M  V30 2854 O 253.649 -0.079603 -1.91435 0
M  V30 2855 C 253.843 -3.4235 -1.02623 0
M  V30 2856 C 253.672 -4.49669 0.0528929 0
M  V30 2857 C 252.442 -5.02838 0.498234 0
M  V30 2858 C 254.64 -5.0725 0.848616 0
M  V30 2859 N 252.622 -5.93775 1.559 0
M  V30 2860 C 253.993 -5.94506 1.7596 0
M  V30 2861 C 256.048 -4.89788 0.895121 0
M  V30 2862 C 254.751 -6.66169 2.71314 0
M  V30 2863 C 256.777 -5.62161 1.83654 0
M  V30 2864 C 256.139 -6.49134 2.73503 0
M  V30 2865 H 252.238 -0.768332 -0.145566 0
M  V30 2866 H 254.822 -1.93012 0.255799 0
M  V30 2867 H 252.993 -3.47467 -1.73555 0
M  V30 2868 H 254.725 -3.70145 -1.63629 0
M  V30 2869 H 251.48 -4.73498 0.0983222 0
M  V30 2870 H 251.904 -6.43948 2.08949 0
M  V30 2871 H 256.546 -4.22255 0.21453 0
M  V30 2872 H 254.264 -7.32923 3.40367 0
M  V30 2873 H 257.85 -5.5064 1.87847 0
M  V30 2874 H 256.73 -7.04153 3.45163 0
M  V30 2875 N 254.233 0.115231 -1.57178 0
M  V30 2876 C 255.461 0.836437 -1.89239 0
M  V30 2877 C 255.876 1.73256 -0.750175 0
M  V30 2878 O 255.233 1.80357 0.278832 0
M  V30 2879 C 255.284 1.66671 -3.20785 0
M  V30 2880 O 255.005 0.806652 -4.3061 0
M  V30 2881 C 256.506 2.49274 -3.66575 0
M  V30 2882 H 253.726 0.240253 -0.626514 0
M  V30 2883 H 256.27 0.0984932 -2.04263 0
M  V30 2884 H 254.425 2.35737 -3.0742 0
M  V30 2885 H 254.839 1.37969 -5.06028 0
M  V30 2886 H 256.313 3.03055 -4.6137 0
M  V30 2887 H 256.79 3.26807 -2.93417 0
M  V30 2888 H 257.396 1.85443 -3.82741 0
M  V30 2889 N 255.711 1.52812 0.385517 0
M  V30 2890 C 256.958 1.68026 1.1302 0
M  V30 2891 C 257.286 0.421934 1.89868 0
M  V30 2892 O 256.541 -0.595749 1.86412 0
M  V30 2893 C 256.84 2.86856 2.13187 0
M  V30 2894 C 256.506 4.24159 1.5297 0
M  V30 2895 C 255.168 4.61501 1.36274 0
M  V30 2896 C 257.52 5.09627 1.09223 0
M  V30 2897 C 254.848 5.81966 0.743837 0
M  V30 2898 C 257.2 6.30719 0.487411 0
M  V30 2899 C 255.864 6.6679 0.307777 0
M  V30 2900 H 255.134 0.614849 0.413571 0
M  V30 2901 H 257.781 1.86962 0.414405 0
M  V30 2902 H 256.086 2.6235 2.90998 0
M  V30 2903 H 257.783 2.95821 2.70722 0
M  V30 2904 H 254.373 3.94746 1.66954 0
M  V30 2905 H 258.557 4.81343 1.20922 0
M  V30 2906 H 253.813 6.08519 0.592891 0
M  V30 2907 H 257.987 6.96259 0.140143 0
M  V30 2908 H 255.614 7.60001 -0.173879 0
M  V30 2909 N 257.189 -0.644168 1.43834 0
M  V30 2910 C 258.414 -1.43642 1.49605 0
M  V30 2911 C 258.839 -1.8773 0.117913 0
M  V30 2912 O 258.197 -1.57938 -0.890239 0
M  V30 2913 C 258.245 -2.6416 2.45463 0
M  V30 2914 O 257.349 -3.63538 1.94714 0
M  V30 2915 H 256.69 -0.430329 0.50568 0
M  V30 2916 H 259.22 -0.787448 1.8884 0
M  V30 2917 H 259.23 -3.11864 2.63068 0
M  V30 2918 H 257.905 -2.31414 3.45572 0
M  V30 2919 H 256.482 -3.2273 1.86814 0
M  V30 2920 N 258.668 -1.30515 -0.883378 0
M  V30 2921 C 259.578 -1.18959 -2.02203 0
M  V30 2922 C 260.594 -0.109172 -1.73657 0
M  V30 2923 O 261.77 -0.324413 -1.9877 0
M  V30 2924 C 258.835 -0.883871 -3.35244 0
M  V30 2925 C 257.896 -2.04982 -3.77201 0
M  V30 2926 C 257.129 -1.75859 -5.03894 0
M  V30 2927 O 257.352 -0.687276 -5.66244 0
M  V30 2928 O 256.286 -2.61146 -5.42297 0
M  V30 2929 H 260.112 -2.14616 -2.1488 0
M  V30 2930 H 257.697 -1.10124 -1.0096 0
M  V30 2931 H 259.579 -0.728644 -4.15053 0
M  V30 2932 H 258.254 0.0427798 -3.23672 0
M  V30 2933 H 257.161 -2.26038 -2.9809 0
M  V30 2934 H 258.494 -2.95825 -3.93381 0
M  V30 2935 N 260.146 1.09593 -1.13257 0
M  V30 2936 C 261.094 2.18271 -0.803783 0
M  V30 2937 C 262.088 1.68054 0.213148 0
M  V30 2938 O 263.294 1.79862 0.0704699 0
M  V30 2939 H 259.669 0.711949 -0.242143 0
M  V30 2940 H 261.64 2.43235 -1.72856 0
M  V30 2941 C 260.389 3.46536 -0.28424 0
M  V30 2942 H 259.712 3.85545 -1.05807 0
M  V30 2943 H 261.152 4.23899 -0.0925945 0
M  V30 2944 C 259.611 3.22036 0.989684 0
M  V30 2945 O 260.141 3.44509 2.06584 0
M  V30 2946 N 258.347 2.7565 0.920086 0
M  V30 2947 H 257.894 2.57562 0.0442019 0
M  V30 2948 H 257.852 2.59635 1.77306 0
M  V30 2949 N 261.624 0.925811 1.2754 0
M  V30 2950 C 262.554 0.440748 2.29303 0
M  V30 2951 C 263.535 -0.497971 1.62648 0
M  V30 2952 O 264.72 -0.403126 1.8997 0
M  V30 2953 C 261.85 -0.309048 3.45922 0
M  V30 2954 C 260.804 0.54166 4.24559 0
M  V30 2955 C 260.13 -0.337191 5.33636 0
M  V30 2956 C 261.43 1.80516 4.90114 0
M  V30 2957 H 263.124 1.29121 2.70126 0
M  V30 2958 H 260.67 0.622323 1.29858 0
M  V30 2959 H 262.623 -0.659315 4.1621 0
M  V30 2960 H 261.347 -1.19352 3.04011 0
M  V30 2961 H 260.006 0.874609 3.56014 0
M  V30 2962 H 259.654 -1.22056 4.87966 0
M  V30 2963 H 259.354 0.228497 5.87156 0
M  V30 2964 H 260.878 -0.683072 6.06767 0
M  V30 2965 H 262.292 1.52307 5.52698 0
M  V30 2966 H 260.689 2.3142 5.53683 0
M  V30 2967 H 261.759 2.52581 4.13921 0
M  V30 2968 N 263.102 -1.41638 0.69111 0
M  V30 2969 C 264.032 -2.3347 0.037248 0
M  V30 2970 C 265.013 -1.51575 -0.771947 0
M  V30 2971 O 266.198 -1.80126 -0.72582 0
M  V30 2972 C 263.328 -3.35354 -0.903064 0
M  V30 2973 C 262.282 -4.27526 -0.201288 0
M  V30 2974 C 261.608 -5.19747 -1.25565 0
M  V30 2975 C 262.908 -5.13959 0.929689 0
M  V30 2976 H 264.602 -2.88397 0.804227 0
M  V30 2977 H 262.148 -1.38669 0.388189 0
M  V30 2978 H 264.101 -3.98519 -1.36969 0
M  V30 2979 H 262.825 -2.78767 -1.70166 0
M  V30 2980 H 261.484 -3.65779 0.245265 0
M  V30 2981 H 261.132 -4.59479 -2.04666 0
M  V30 2982 H 260.832 -5.8225 -0.791128 0
M  V30 2983 H 262.356 -5.85789 -1.72288 0
M  V30 2984 H 263.77 -5.70718 0.543546 0
M  V30 2985 H 262.167 -5.85379 1.32103 0
M  V30 2986 H 263.237 -4.51389 1.77133 0
M  V30 2987 N 264.58 -0.43555 -1.51462 0
M  V30 2988 C 265.805 0.132627 -2.06976 0
M  V30 2989 C 266.23 1.35848 -1.30104 0
M  V30 2990 O 265.588 1.78112 -0.338493 0
M  V30 2991 C 265.636 0.43523 -3.57964 0
M  V30 2992 O 264.74 1.52198 -3.83288 0
M  V30 2993 H 264.081 0.00265 -0.663995 0
M  V30 2994 H 266.611 -0.616369 -1.95095 0
M  V30 2995 H 266.621 0.686206 -4.02188 0
M  V30 2996 H 265.296 -0.460739 -4.1334 0
M  V30 2997 H 263.873 1.2611 -3.50928 0
M  V30 2998 N 266.058 1.56714 -0.166846 0
M  V30 2999 C 267.304 1.97039 0.479962 0
M  V30 3000 C 267.637 1.05264 1.63197 0
M  V30 3001 O 266.912 0.0988833 1.94248 0
M  V30 3002 C 267.195 3.46867 0.967212 0
M  V30 3003 C 267.048 4.49421 -0.18466 0
M  V30 3004 C 268.367 3.9968 1.84238 0
M  V30 3005 H 265.486 0.71641 0.172992 0
M  V30 3006 H 268.128 1.8832 -0.252079 0
M  V30 3007 H 266.278 3.54428 1.59101 0
M  V30 3008 H 267.95 4.53924 -0.821621 0
M  V30 3009 H 266.193 4.25573 -0.840837 0
M  V30 3010 H 266.864 5.51644 0.198317 0
M  V30 3011 H 269.34 3.94723 1.31655 0
M  V30 3012 H 268.216 5.04941 2.15234 0
M  V30 3013 H 268.477 3.43226 2.78654 0
M  V30 3014 N 267.536 -0.106894 1.57237 0
M  V30 3015 C 268.446 -1.14911 2.0453 0
M  V30 3016 C 269.462 -1.44592 0.96795 0
M  V30 3017 O 270.638 -1.55468 1.2803 0
M  V30 3018 C 267.703 -2.45272 2.45036 0
M  V30 3019 C 266.764 -2.22879 3.66911 0
M  V30 3020 C 265.997 -3.47024 4.05475 0
M  V30 3021 O 266.22 -4.54804 3.44252 0
M  V30 3022 O 265.154 -3.3731 4.98504 0
M  V30 3023 H 268.98 -0.777461 2.9358 0
M  V30 3024 H 266.565 -0.318563 1.45964 0
M  V30 3025 H 268.447 -3.22055 2.71769 0
M  V30 3026 H 267.122 -2.81886 1.59129 0
M  V30 3027 H 266.029 -1.43915 3.45311 0
M  V30 3028 H 267.362 -1.91163 4.53561 0
M  V30 3029 N 269.014 -1.53014 -0.377408 0
M  V30 3030 C 269.944 -1.81589 -1.46791 0
M  V30 3031 C 270.925 -0.668622 -1.56408 0
M  V30 3032 O 272.11 -0.917337 -1.71168 0
M  V30 3033 C 269.24 -1.99519 -2.8427 0
M  V30 3034 C 268.194 -3.15249 -2.89486 0
M  V30 3035 C 267.52 -3.18451 -4.29527 0
M  V30 3036 C 268.82 -4.54084 -2.58079 0
M  V30 3037 H 270.514 -2.7291 -1.23127 0
M  V30 3038 H 268.06 -1.31319 -0.590883 0
M  V30 3039 H 270.013 -2.18092 -3.60575 0
M  V30 3040 H 268.737 -1.04897 -3.09296 0
M  V30 3041 H 267.396 -2.96477 -2.15631 0
M  V30 3042 H 267.044 -2.2149 -4.5161 0
M  V30 3043 H 266.744 -3.962 -4.33934 0
M  V30 3044 H 268.268 -3.39193 -5.07721 0
M  V30 3045 H 269.682 -4.72899 -3.24098 0
M  V30 3046 H 268.079 -5.33987 -2.7382 0
M  V30 3047 H 269.149 -4.60006 -1.53372 0
M  V30 3048 N 270.492 0.636531 -1.44174 0
M  V30 3049 C 271.44 1.76995 -1.50915 0
M  V30 3050 C 272.434 1.65053 -0.381295 0
M  V30 3051 O 273.64 1.71197 -0.55601 0
M  V30 3052 H 270.015 0.584247 -0.473455 0
M  V30 3053 H 271.986 1.68432 -2.4632 0
M  V30 3054 C 270.735 3.15314 -1.46534 0
M  V30 3055 H 270.058 3.25149 -2.32633 0
M  V30 3056 H 271.498 3.9453 -1.55312 0
M  V30 3057 C 269.957 3.3639 -0.185305 0
M  V30 3058 O 270.487 3.94699 0.746688 0
M  V30 3059 N 268.693 2.9046 -0.0901606 0
M  V30 3060 H 268.24 2.43193 -0.849416 0
M  V30 3061 H 268.198 3.04937 0.765553 0
M  V30 3062 N 271.97 1.30982 0.876444 0
M  V30 3063 C 272.88 1.2003 2.01569 0
M  V30 3064 C 273.896 0.11838 1.73597 0
M  V30 3065 O 275.072 0.33495 1.98595 0
M  V30 3066 C 272.137 0.901637 3.34771 0
M  V30 3067 C 271.198 2.06979 3.76109 0
M  V30 3068 C 270.431 1.78529 5.02954 0
M  V30 3069 O 270.654 0.717296 5.65872 0
M  V30 3070 O 269.588 2.64019 5.40905 0
M  V30 3071 H 273.414 2.15753 2.13739 0
M  V30 3072 H 270.999 1.10658 1.00375 0
M  V30 3073 H 272.881 0.750645 4.1466 0
M  V30 3074 H 271.556 -0.0256141 3.2369 0
M  V30 3075 H 270.463 2.27616 2.96887 0
M  V30 3076 H 271.796 2.97907 3.91807 0
M  V30 3077 N 273.449 -1.08991 1.13837 0
M  V30 3078 C 274.86 -1.62746 0.914917 0
M  V30 3079 C 275.211 -1.88403 -0.547594 0
M  V30 3080 O 274.336 -1.63706 -1.41525 0
M  V30 3081 C 274.931 -2.95662 1.65437 0
M  V30 3082 C 273.49 -3.46225 1.47666 0
M  V30 3083 C 272.637 -2.20562 1.6807 0
M  V30 3084 H 275.588 -0.922946 1.29102 0
M  V30 3085 H 275.609 -3.63825 1.11407 0
M  V30 3086 H 275.121 -2.76956 2.71877 0
M  V30 3087 H 273.222 -3.70046 0.435478 0
M  V30 3088 H 273.335 -4.23368 2.24268 0
M  V30 3089 H 271.699 -2.29439 1.10589 0
M  V30 3090 H 272.482 -2.0437 2.7584 0
M  V30 3091 N 274.927 -0.932562 -1.27047 0
M  V30 3092 C 276.152 -0.591474 -1.98787 0
M  V30 3093 C 276.577 0.824601 -1.69062 0
M  V30 3094 O 275.935 1.5541 -0.933677 0
M  V30 3095 C 275.983 -0.829808 -3.50922 0
M  V30 3096 O 275.087 0.102266 -4.12273 0
M  V30 3097 H 274.428 -0.227185 -0.623926 0
M  V30 3098 H 276.958 -1.25314 -1.61733 0
M  V30 3099 H 276.968 -0.747292 -4.01098 0
M  V30 3100 H 275.643 -1.86201 -3.7189 0
M  V30 3101 H 274.22 -0.0305761 -3.72887 0
M  V30 3102 N 276.405 1.4127 -0.698611 0
M  V30 3103 C 277.335 2.33447 -0.049629 0
M  V30 3104 C 278.316 1.51982 0.763898 0
M  V30 3105 O 279.501 1.80509 0.716257 0
M  V30 3106 C 276.631 3.35828 0.885267 0
M  V30 3107 C 275.585 4.27627 0.178613 0
M  V30 3108 C 274.911 5.20406 1.22807 0
M  V30 3109 C 276.211 5.13459 -0.956933 0
M  V30 3110 H 277.905 2.87966 -0.81951 0
M  V30 3111 H 275.451 1.38461 -0.395538 0
M  V30 3112 H 277.404 3.9924 1.34854 0
M  V30 3113 H 276.128 2.79666 1.68685 0
M  V30 3114 H 274.787 3.65643 -0.26466 0
M  V30 3115 H 274.435 4.60558 2.02226 0
M  V30 3116 H 274.135 5.82661 0.760239 0
M  V30 3117 H 275.659 5.86695 1.69179 0
M  V30 3118 H 277.073 5.70421 -0.573805 0
M  V30 3119 H 275.47 5.8467 -1.35205 0
M  V30 3120 H 276.54 4.50443 -1.79524 0
M  V30 3121 N 277.883 0.443576 1.51229 0
M  V30 3122 C 279.299 0.0962001 1.5931 0
M  V30 3123 C 279.499 -1.39501 1.45402 0
M  V30 3124 O 278.555 -2.16557 1.29843 0
M  V30 3125 C 279.868 0.621875 2.94199 0
M  V30 3126 C 281.416 0.582865 3.07525 0
M  V30 3127 C 281.891 1.08562 4.44948 0
M  V30 3128 N 283.382 1.04387 4.51284 0
M  V30 3129 C 284.117 1.40368 5.55954 0
M  V30 3130 N 283.613 1.83664 6.68011 0
M  V30 3131 N 285.406 1.32145 5.46346 0
M  V30 3132 H 277.557 1.41376 1.58514 0
M  V30 3133 H 279.82 0.582965 0.747567 0
M  V30 3134 H 279.526 1.66546 3.09767 0
M  V30 3135 H 279.4 0.0502125 3.77167 0
M  V30 3136 H 281.787 -0.451749 2.91622 0
M  V30 3137 H 281.868 1.191 2.26382 0
M  V30 3138 H 281.512 2.11873 4.61598 0
M  V30 3139 H 281.442 0.453956 5.2464 0
M  V30 3140 H 283.933 0.725986 3.70861 0
M  V30 3141 H 284.246 2.0934 7.43906 0
M  V30 3142 H 282.591 1.87596 6.69203 0
M  V30 3143 H 285.782 0.981808 4.57688 0
M  V30 3144 H 285.955 1.60514 6.27805 0
M  V30 3145 N 279.361 -1.56624 0.175154 0
M  V30 3146 C 280.591 -2.01082 -0.474283 0
M  V30 3147 C 280.999 -1.05447 -1.57091 0
M  V30 3148 O 280.342 -0.0480595 -1.83637 0
M  V30 3149 C 280.404 -3.41963 -1.10911 0
M  V30 3150 C 280.068 -4.56742 -0.153666 0
M  V30 3151 C 281.065 -5.16076 0.629448 0
M  V30 3152 C 278.75 -5.02277 -0.0483776 0
M  V30 3153 C 280.744 -6.19377 1.50501 0
M  V30 3154 C 278.431 -6.05427 0.830768 0
M  V30 3155 C 279.429 -6.63849 1.60605 0
M  V30 3156 O 279.117 -7.64998 2.47049 0
M  V30 3157 H 278.849 -0.664261 -0.125432 0
M  V30 3158 H 281.403 -2.03549 0.275163 0
M  V30 3159 H 279.633 -3.36422 -1.90676 0
M  V30 3160 H 281.322 -3.70352 -1.66114 0
M  V30 3161 H 282.088 -4.81776 0.558297 0
M  V30 3162 H 277.967 -4.56513 -0.641611 0
M  V30 3163 H 281.511 -6.64906 2.1106 0
M  V30 3164 H 277.408 -6.39151 0.903107 0
M  V30 3165 H 278.176 -7.82336 2.40607 0
M  V30 3166 N 280.839 0.0985539 -1.57292 0
M  V30 3167 C 281.749 1.13824 -2.05137 0
M  V30 3168 C 282.765 1.44076 -0.975604 0
M  V30 3169 O 283.941 1.54786 -1.28853 0
M  V30 3170 C 281.006 2.43969 -2.46333 0
M  V30 3171 C 280.067 2.2093 -3.68087 0
M  V30 3172 C 279.3 3.44869 -4.0731 0
M  V30 3173 O 279.523 4.52972 -3.46659 0
M  V30 3174 O 278.457 3.34661 -5.00285 0
M  V30 3175 H 282.283 0.761881 -2.93988 0
M  V30 3176 H 279.868 0.310818 -1.46131 0
M  V30 3177 H 281.75 3.20609 -2.73473 0
M  V30 3178 H 280.425 2.81038 -1.60621 0
M  V30 3179 H 279.332 1.42081 -3.46069 0
M  V30 3180 H 280.665 1.88755 -4.54568 0
M  V30 3181 N 282.317 1.53212 0.369288 0
M  V30 3182 C 283.227 1.82342 1.47609 0
M  V30 3183 C 284.243 0.711532 1.58787 0
M  V30 3184 O 285.419 1.0012 1.74751 0
M  V30 3185 C 282.484 2.00393 2.8292 0
M  V30 3186 C 281.545 3.24297 2.81301 0
M  V30 3187 C 280.778 3.41478 4.10157 0
M  V30 3188 O 281.001 2.63033 5.06132 0
M  V30 3189 O 279.935 4.34817 4.16194 0
M  V30 3190 H 283.761 2.76366 1.25918 0
M  V30 3191 H 281.346 1.38547 0.559034 0
M  V30 3192 H 283.228 2.13859 3.63101 0
M  V30 3193 H 281.903 1.09559 3.04596 0
M  V30 3194 H 280.81 3.16257 1.99831 0
M  V30 3195 H 282.143 4.15041 2.64578 0
M  V30 3196 N 283.795 -0.628877 1.44509 0
M  V30 3197 C 284.705 -1.7694 1.54044 0
M  V30 3198 C 285.721 -1.68705 0.425987 0
M  V30 3199 O 286.897 -1.89442 0.683656 0
M  V30 3200 C 283.962 -3.13332 1.48405 0
M  V30 3201 C 283.023 -3.33181 2.70719 0
M  V30 3202 C 282.256 -4.63067 2.6534 0
M  V30 3203 O 282.479 -5.44017 1.71469 0
M  V30 3204 O 281.413 -4.85167 3.56226 0
M  V30 3205 H 285.239 -1.71848 2.50403 0
M  V30 3206 H 282.824 -0.790378 1.26781 0
M  V30 3207 H 284.706 -3.94634 1.47791 0
M  V30 3208 H 283.381 -3.1896 0.551898 0
M  V30 3209 H 282.288 -2.51549 2.769 0
M  V30 3210 H 283.621 -3.32416 3.62988 0
M  V30 3211 N 285.273 -1.31445 -0.869486 0
M  V30 3212 C 286.522 -1.20517 -1.61736 0
M  V30 3213 C 286.835 0.235341 -1.94179 0
M  V30 3214 O 288.041 0.466312 -2.67465 0
M  V30 3215 C 286.497 -2.10982 -2.91573 0
M  V30 3216 C 286.105 -3.60032 -2.66611 0
M  V30 3217 C 287.849 -2.08856 -3.69567 0
M  V30 3218 C 285.756 -4.42503 -3.92358 0
M  V30 3219 H 284.686 -0.447493 -0.606849 0
M  V30 3220 H 287.337 -1.56303 -0.96133 0
M  V30 3221 H 285.719 -1.68095 -3.58553 0
M  V30 3222 H 286.893 -4.11167 -2.08035 0
M  V30 3223 H 285.208 -3.64139 -2.0197 0
M  V30 3224 H 287.805 -2.67716 -4.62852 0
M  V30 3225 H 288.148 -1.07582 -4.02159 0
M  V30 3226 H 288.681 -2.49945 -3.09471 0
M  V30 3227 H 285.42 -5.44533 -3.64916 0
M  V30 3228 H 284.94 -3.96125 -4.50383 0
M  V30 3229 H 286.619 -4.54741 -4.60238 0
M  V30 3230 N 286.751 1.08385 -1.14413 0
M  V30 3231 C 288.028 1.77429 -0.823297 0
M  V30 3232 C 288.408 1.9974 0.683163 0
M  V30 3233 O 287.756 1.60739 1.62405 0
M  V30 3234 C 287.966 3.09004 -1.62227 0
M  V30 3235 C 289.314 3.83532 -1.82177 0
M  V30 3236 O 290.338 3.18786 -1.58915 0
M  V30 3237 O 289.197 4.99792 -2.21067 0
M  V30 3238 H 286.291 0.769999 -0.301712 0
M  V30 3239 H 288.837 1.14846 -1.24934 0
M  V30 3240 H 287.609 2.88316 -2.64555 0
M  V30 3241 H 287.232 3.79316 -1.19187 0
M  V30 3242 N 288.23 0.939286 1.26551 0
M  V30 3243 C 289.14 0.453432 2.30176 0
M  V30 3244 C 290.156 -0.471649 1.67486 0
M  V30 3245 O 291.332 -0.35164 1.98306 0
M  V30 3246 C 288.397 -0.275326 3.45605 0
M  V30 3247 C 287.458 0.686084 4.23782 0
M  V30 3248 C 286.691 -0.00798994 5.33699 0
M  V30 3249 O 286.914 -1.22528 5.57085 0
M  V30 3250 O 285.848 0.669746 5.98162 0
M  V30 3251 H 289.674 1.31416 2.73795 0
M  V30 3252 H 287.259 0.705095 1.31715 0
M  V30 3253 H 289.141 -0.685911 4.1578 0
M  V30 3254 H 287.816 -1.11147 3.0402 0
M  V30 3255 H 286.723 1.14658 3.56096 0
M  V30 3256 H 288.056 1.48979 4.69112 0
M  V30 3257 N 289.708 -1.40897 0.706093 0
M  V30 3258 C 290.655 -2.30751 0.0474474 0
M  V30 3259 C 291.625 -1.47678 -0.76029 0
M  V30 3260 O 292.81 -1.76441 -0.726177 0
M  V30 3261 C 289.95 -3.33815 -0.875309 0
M  V30 3262 C 289.063 -4.31961 -0.0580623 0
M  V30 3263 C 288.198 -5.22093 -0.979425 0
M  V30 3264 C 287.237 -6.11902 -0.155706 0
M  V30 3265 N 286.374 -6.94482 -1.03144 0
M  V30 3266 H 291.214 -2.86513 0.819413 0
M  V30 3267 H 288.751 -1.41102 0.415783 0
M  V30 3268 H 290.709 -3.92129 -1.42446 0
M  V30 3269 H 289.339 -2.79579 -1.61356 0
M  V30 3270 H 288.391 -3.75507 0.608147 0
M  V30 3271 H 289.703 -4.95415 0.580082 0
M  V30 3272 H 288.857 -5.85292 -1.59744 0
M  V30 3273 H 287.596 -4.5889 -1.65141 0
M  V30 3274 H 286.601 -5.47742 0.475309 0
M  V30 3275 H 287.826 -6.77162 0.512635 0
M  V30 3276 H 285.772 -6.33877 -1.68924 0
M  V30 3277 H 285.689 -7.54665 -0.449108 0
M  V30 3278 H 286.957 -7.6214 -1.63593 0
M  V30 3279 N 291.186 -0.45159 -1.50991 0
M  V30 3280 C 292.434 0.109857 -2.01801 0
M  V30 3281 C 292.755 1.41958 -1.3369 0
M  V30 3282 O 292.025 1.9003 -0.475951 0
M  V30 3283 H 290.605 0.0435884 -0.745727 0
M  V30 3284 H 293.267 -0.597557 -1.85514 0
M  V30 3285 H 292.363 0.275489 -3.10882 0
M  V30 3286 N 292.664 1.56529 -0.183458 0
M  V30 3287 C 293.913 1.96419 0.458511 0
M  V30 3288 C 294.226 1.0727 1.63562 0
M  V30 3289 O 295.432 1.36893 2.34462 0
M  V30 3290 C 293.888 3.49298 0.867122 0
M  V30 3291 C 293.496 4.47092 -0.285057 0
M  V30 3292 C 295.24 3.97983 1.47683 0
M  V30 3293 C 293.147 5.91225 0.143862 0
M  V30 3294 H 292.077 0.733394 0.175071 0
M  V30 3295 H 294.728 1.81448 -0.273624 0
M  V30 3296 H 293.11 3.59731 1.65559 0
M  V30 3297 H 294.284 4.48383 -1.0625 0
M  V30 3298 H 292.599 4.08535 -0.805503 0
M  V30 3299 H 295.196 5.03134 1.80999 0
M  V30 3300 H 295.539 3.41618 2.37914 0
M  V30 3301 H 296.072 3.90617 0.752562 0
M  V30 3302 H 292.811 6.5149 -0.723974 0
M  V30 3303 H 292.331 5.93214 0.886413 0
M  V30 3304 H 294.01 6.44362 0.583628 0
M  V30 3305 N 294.142 -0.090211 1.57342 0
M  V30 3306 C 295.391 -0.791531 1.8552 0
M  V30 3307 C 295.704 -1.79659 0.773441 0
M  V30 3308 O 296.91 -2.54616 0.942497 0
M  V30 3309 C 295.366 -1.45856 3.2902 0
M  V30 3310 C 294.974 -0.493017 4.45279 0
M  V30 3311 C 296.718 -2.14332 3.66418 0
M  V30 3312 C 294.625 -1.16491 5.79814 0
M  V30 3313 H 293.555 -0.299356 0.692027 0
M  V30 3314 H 296.206 -0.0445343 1.83446 0
M  V30 3315 H 294.588 -2.25318 3.2565 0
M  V30 3316 H 295.762 0.270464 4.60006 0
M  V30 3317 H 294.077 0.0863061 4.16311 0
M  V30 3318 H 296.674 -2.65344 4.64216 0
M  V30 3319 H 297.017 -2.93447 2.95287 0
M  V30 3320 H 297.55 -1.41724 3.71698 0
M  V30 3321 H 294.289 -0.41447 6.54188 0
M  V30 3322 H 293.809 -1.8997 5.68921 0
M  V30 3323 H 295.488 -1.69001 6.24538 0
M  V30 3324 N 295.62 -1.53406 -0.361157 0
M  V30 3325 C 296.897 -1.60411 -1.11927 0
M  V30 3326 C 297.277 -0.414385 -2.06993 0
M  V30 3327 O 296.625 0.594976 -2.20618 0
M  V30 3328 C 296.835 -2.95652 -1.85448 0
M  V30 3329 C 298.183 -3.50386 -2.39823 0
M  V30 3330 O 299.207 -2.97711 -1.95568 0
M  V30 3331 O 298.066 -4.42482 -3.20737 0
M  V30 3332 H 295.16 -0.64811 -0.513695 0
M  V30 3333 H 297.706 -1.65749 -0.364065 0
M  V30 3334 H 296.478 -3.73682 -1.16091 0
M  V30 3335 H 296.101 -2.93825 -2.67866 0
M  V30 3336 N 297.098 0.621204 -1.44841 0
M  V30 3337 C 298.046 1.75385 -1.52784 0
M  V30 3338 C 299.04 1.64639 -0.398779 0
M  V30 3339 O 300.246 1.70598 -0.574137 0
M  V30 3340 H 296.621 0.579193 -0.479625 0
M  V30 3341 H 298.592 1.6581 -2.48092 0
M  V30 3342 C 297.341 3.13742 -1.4987 0
M  V30 3343 H 296.664 3.22663 -2.36069 0
M  V30 3344 H 298.104 3.92861 -1.59487 0
M  V30 3345 C 296.563 3.36175 -0.220973 0
M  V30 3346 O 297.093 3.95469 0.704782 0
M  V30 3347 N 295.299 2.90348 -0.120963 0
M  V30 3348 H 294.846 2.42278 -0.875162 0
M  V30 3349 H 294.804 3.05732 0.733168 0
M  V30 3350 N 298.576 1.31904 0.862503 0
M  V30 3351 C 299.822 1.22197 1.61851 0
M  V30 3352 C 300.155 -0.217641 1.92977 0
M  V30 3353 O 299.43 -1.15264 1.56666 0
M  V30 3354 C 299.713 2.07378 2.94391 0
M  V30 3355 C 299.566 3.59678 2.70096 0
M  V30 3356 C 300.885 1.92891 3.95577 0
M  V30 3357 H 298.004 0.445255 0.587296 0
M  V30 3358 H 300.646 1.6177 0.99651 0
M  V30 3359 H 298.796 1.73758 3.47477 0
M  V30 3360 H 300.468 4.03472 2.23625 0
M  V30 3361 H 298.711 3.82735 2.04197 0
M  V30 3362 H 299.382 4.14595 3.64438 0
M  V30 3363 H 301.858 2.22327 3.51724 0
M  V30 3364 H 300.734 2.54781 4.86187 0
M  V30 3365 H 300.995 0.894315 4.3296 0
M  V30 3366 N 300.054 -1.07777 1.14986 0
M  V30 3367 C 301.282 -1.84018 0.945773 0
M  V30 3368 C 301.697 -1.81897 -0.505863 0
M  V30 3369 O 301.054 -1.22726 -1.35072 0
M  V30 3370 C 301.105 -3.31287 1.44677 0
M  V30 3371 O 300.826 -3.33449 2.84154 0
M  V30 3372 C 302.327 -4.24311 1.28355 0
M  V30 3373 H 299.547 -0.580716 0.336169 0
M  V30 3374 H 302.091 -1.36077 1.52654 0
M  V30 3375 H 300.246 -3.76594 0.908625 0
M  V30 3376 H 300.66 -4.25427 3.06777 0
M  V30 3377 H 302.134 -5.2573 1.68261 0
M  V30 3378 H 302.611 -4.38612 0.227184 0
M  V30 3379 H 303.217 -3.84836 1.81056 0
M  V30 3380 N 301.532 -0.945985 -1.26051 0
M  V30 3381 C 302.778 -0.597002 -1.93814 0
M  V30 3382 C 303.111 0.862484 -1.73997 0
M  V30 3383 O 302.386 1.61769 -1.07986 0
M  V30 3384 C 302.669 -0.945937 -3.47454 0
M  V30 3385 C 302.522 -2.46052 -3.76535 0
M  V30 3386 C 303.841 -0.464785 -4.37639 0
M  V30 3387 H 300.96 -0.218366 -0.703907 0
M  V30 3388 H 303.602 -1.18107 -1.48831 0
M  V30 3389 H 301.752 -0.448902 -3.85898 0
M  V30 3390 H 303.424 -3.03065 -3.47778 0
M  V30 3391 H 301.667 -2.90194 -3.22444 0
M  V30 3392 H 302.338 -2.65517 -4.83947 0
M  V30 3393 H 304.814 -0.891016 -4.06448 0
M  V30 3394 H 303.69 -0.737712 -5.4392 0
M  V30 3395 H 303.951 0.635274 -4.37512 0
M  V30 3396 N 303.011 1.40521 -0.713556 0
M  V30 3397 C 303.974 2.29098 -0.0684347 0
M  V30 3398 C 304.974 1.45268 0.689472 0
M  V30 3399 O 306.164 1.66205 0.521677 0
M  V30 3400 C 303.296 3.28446 0.913024 0
M  V30 3401 H 304.489 2.87645 -0.84855 0
M  V30 3402 H 302.042 1.48809 -0.47809 0
M  V30 3403 H 302.777 2.74913 1.72027 0
M  V30 3404 H 302.562 3.90327 0.372472 0
M  V30 3405 H 304.052 3.94777 1.36165 0
M  V30 3406 N 304.489 0.459591 1.5075 0
M  V30 3407 C 305.399 -0.34613 2.32033 0
M  V30 3408 C 306.415 -1.00686 1.41909 0
M  V30 3409 O 307.591 -0.997361 1.7497 0
M  V30 3410 C 304.656 -1.42029 3.16273 0
M  V30 3411 C 303.717 -0.777362 4.22203 0
M  V30 3412 C 302.95 -1.80034 5.02418 0
M  V30 3413 O 303.173 -3.02544 4.83553 0
M  V30 3414 O 302.107 -1.37853 5.85901 0
M  V30 3415 H 305.933 0.318054 3.0203 0
M  V30 3416 H 303.518 0.221663 1.47746 0
M  V30 3417 H 305.4 -2.04275 3.68578 0
M  V30 3418 H 304.075 -2.06815 2.49016 0
M  V30 3419 H 302.982 -0.116256 3.73919 0
M  V30 3420 H 304.315 -0.172634 4.91897 0
M  V30 3421 N 305.967 -1.56429 0.191757 0
M  V30 3422 C 307.244 -1.89224 -0.495332 0
M  V30 3423 C 307.624 -1.10478 -1.79883 0
M  V30 3424 O 306.972 -0.204852 -2.2758 0
M  V30 3425 C 307.182 -3.41548 -0.717367 0
M  V30 3426 C 308.53 -4.11711 -1.03823 0
M  V30 3427 O 309.554 -3.4698 -0.805204 0
M  V30 3428 O 308.413 -5.2611 -1.47887 0
M  V30 3429 H 305.507 -0.785788 -0.25781 0
M  V30 3430 H 308.053 -1.68111 0.231721 0
M  V30 3431 H 306.825 -3.90772 0.203287 0
M  V30 3432 H 306.448 -3.68342 -1.497 0
M  V30 3433 N 307.445 0.0818655 -1.57387 0
M  V30 3434 C 308.693 0.781368 -1.86384 0
M  V30 3435 C 309.014 1.78618 -0.782342 0
M  V30 3436 O 308.284 1.94976 0.190061 0
M  V30 3437 H 306.864 0.291562 -0.687751 0
M  V30 3438 H 309.526 0.060348 -1.94807 0
M  V30 3439 H 308.622 1.3038 -2.83562 0
M  V30 3440 N 308.923 1.53595 0.353017 0
M  V30 3441 C 310.172 1.69603 1.09168 0
M  V30 3442 C 310.485 0.460925 1.90092 0
M  V30 3443 O 311.691 0.501774 2.66823 0
M  V30 3444 C 310.147 2.99872 1.9901 0
M  V30 3445 C 309.755 4.30687 1.23339 0
M  V30 3446 C 311.499 3.25246 2.72792 0
M  V30 3447 C 309.406 5.52036 2.12156 0
M  V30 3448 H 308.336 0.631966 0.411261 0
M  V30 3449 H 310.987 1.80096 0.351802 0
M  V30 3450 H 309.369 2.83212 2.7678 0
M  V30 3451 H 310.543 4.58019 0.505456 0
M  V30 3452 H 308.858 4.11853 0.613663 0
M  V30 3453 H 311.455 4.13095 3.39495 0
M  V30 3454 H 311.798 2.41846 3.38846 0
M  V30 3455 H 312.331 3.42638 2.021 0
M  V30 3456 H 309.07 6.37951 1.50659 0
M  V30 3457 H 308.59 5.28966 2.82764 0
M  V30 3458 H 310.269 5.87313 2.71427 0
M  V30 3459 N 310.401 -0.613514 1.45168 0
M  V30 3460 C 311.678 -1.37263 1.39349 0
M  V30 3461 C 312.058 -2.11012 0.0610848 0
M  V30 3462 O 311.406 -2.07502 -0.956825 0
M  V30 3463 C 311.616 -2.3244 2.60332 0
M  V30 3464 C 312.964 -2.9523 3.05163 0
M  V30 3465 O 313.988 -2.42762 2.60663 0
M  V30 3466 O 312.847 -3.90454 3.82372 0
M  V30 3467 H 309.941 -0.615188 0.552696 0
M  V30 3468 H 312.487 -0.637097 1.57287 0
M  V30 3469 H 311.259 -1.77164 3.48896 0
M  V30 3470 H 310.882 -3.13383 2.44698 0
M  V30 3471 N 311.879 -1.3236 -0.855495 0
M  V30 3472 C 312.809 -1.23833 -1.97958 0
M  V30 3473 C 313.79 -0.122361 -1.69659 0
M  V30 3474 O 314.975 -0.30939 -1.9172 0
M  V30 3475 C 312.105 -0.959772 -3.33775 0
M  V30 3476 C 311.059 -2.03689 -3.76424 0
M  V30 3477 C 310.385 -1.61075 -5.09862 0
M  V30 3478 C 311.685 -3.4518 -3.9198 0
M  V30 3479 H 313.379 -2.1788 -2.0535 0
M  V30 3480 H 310.925 -1.04891 -0.986605 0
M  V30 3481 H 312.878 -0.886678 -4.11966 0
M  V30 3482 H 311.602 0.0163404 -3.26596 0
M  V30 3483 H 310.261 -2.10012 -3.00484 0
M  V30 3484 H 309.909 -0.622107 -4.99138 0
M  V30 3485 H 309.609 -2.33143 -5.39368 0
M  V30 3486 H 311.133 -1.55201 -5.90546 0
M  V30 3487 H 312.547 -3.4145 -4.60526 0
M  V30 3488 H 310.944 -4.1559 -4.32903 0
M  V30 3489 H 312.014 -3.84903 -2.94919 0
M  V30 3490 N 313.357 1.07166 -1.15556 0
M  V30 3491 C 314.582 1.84053 -0.955988 0
M  V30 3492 C 315.007 1.81586 0.490739 0
M  V30 3493 O 314.365 1.21018 1.34997 0
M  V30 3494 C 314.413 3.28957 -1.47714 0
M  V30 3495 O 313.517 4.06795 -0.677593 0
M  V30 3496 H 312.858 0.569842 -0.340847 0
M  V30 3497 H 315.388 1.35178 -1.53584 0
M  V30 3498 H 315.398 3.79788 -1.4908 0
M  V30 3499 H 314.073 3.30068 -2.53037 0
M  V30 3500 H 312.65 3.6561 -0.733721 0
M  V30 3501 N 314.835 0.952656 1.25548 0
M  V30 3502 C 316.112 0.523818 1.88456 0
M  V30 3503 C 316.492 -0.998871 1.85973 0
M  V30 3504 O 315.84 -1.86381 1.3219 0
M  V30 3505 C 316.05 1.0982 3.31271 0
M  V30 3506 C 317.398 1.17385 4.08051 0
M  V30 3507 O 318.422 1.04961 3.40384 0
M  V30 3508 O 317.281 1.36852 5.29088 0
M  V30 3509 H 314.375 0.172485 0.808813 0
M  V30 3510 H 316.921 1.04596 1.33633 0
M  V30 3511 H 315.693 2.1415 3.27499 0
M  V30 3512 H 315.316 0.559191 3.93648 0
M  V30 3513 N 316.313 -1.40141 0.720998 0
M  V30 3514 C 317.543 -2.04798 0.27226 0
M  V30 3515 C 317.951 -1.54442 -1.09289 0
M  V30 3516 O 317.294 -0.698342 -1.69908 0
M  V30 3517 C 317.356 -3.59048 0.18027 0
M  V30 3518 C 317.02 -4.32317 1.48159 0
M  V30 3519 C 318.017 -4.59902 2.42458 0
M  V30 3520 C 315.702 -4.71125 1.74202 0
M  V30 3521 C 317.696 -5.25288 3.61042 0
M  V30 3522 C 315.383 -5.36242 2.93066 0
M  V30 3523 C 316.381 -5.63254 3.86308 0
M  V30 3524 O 316.069 -6.27024 5.03086 0
M  V30 3525 H 315.801 -0.665419 0.119139 0
M  V30 3526 H 318.355 -1.80436 0.981432 0
M  V30 3527 H 316.585 -3.82251 -0.58489 0
M  V30 3528 H 318.274 -4.05221 -0.234618 0
M  V30 3529 H 319.04 -4.30379 2.23604 0
M  V30 3530 H 314.919 -4.49466 1.02477 0
M  V30 3531 H 318.463 -5.46289 4.33837 0
M  V30 3532 H 314.36 -5.65185 3.11826 0
M  V30 3533 H 315.128 -6.4552 5.03235 0
M  V30 3534 N 317.792 -0.46758 -1.50504 0
M  V30 3535 C 319.022 0.086288 -2.0642 0
M  V30 3536 C 319.43 1.34369 -1.33197 0
M  V30 3537 O 318.773 1.79431 -0.393747 0
M  V30 3538 C 318.835 0.443846 -3.5675 0
M  V30 3539 C 318.499 -0.711035 -4.51435 0
M  V30 3540 C 319.496 -1.59205 -4.94924 0
M  V30 3541 C 317.181 -0.900363 -4.94165 0
M  V30 3542 C 319.175 -2.64683 -5.79846 0
M  V30 3543 C 316.862 -1.95837 -5.7887 0
M  V30 3544 C 317.86 -2.82997 -6.21612 0
M  V30 3545 O 317.548 -3.86977 -7.0463 0
M  V30 3546 H 317.28 -0.00217814 -0.675996 0
M  V30 3547 H 319.834 -0.654346 -1.94698 0
M  V30 3548 H 318.064 1.23762 -3.6636 0
M  V30 3549 H 319.753 0.932386 -3.95046 0
M  V30 3550 H 320.519 -1.45745 -4.62583 0
M  V30 3551 H 316.398 -0.231427 -4.60419 0
M  V30 3552 H 319.942 -3.32745 -6.13128 0
M  V30 3553 H 315.839 -2.09305 -6.10624 0
M  V30 3554 H 316.607 -3.83923 -7.22873 0
M  V30 3555 N 319.27 1.56325 -0.20005 0
M  V30 3556 C 320.681 1.8408 0.31167 0
M  V30 3557 C 321.032 1.12087 1.61031 0
M  V30 3558 O 320.157 0.38332 2.12978 0
M  V30 3559 C 320.752 3.33932 0.57226 0
M  V30 3560 C 319.311 3.6208 1.02834 0
M  V30 3561 C 318.458 2.77186 0.079634 0
M  V30 3562 H 321.409 1.52939 -0.423729 0
M  V30 3563 H 321.43 3.52971 1.42096 0
M  V30 3564 H 320.942 3.86303 -0.37308 0
M  V30 3565 H 319.043 3.15147 1.98778 0
M  V30 3566 H 319.156 4.7023 0.917624 0
M  V30 3567 H 317.52 2.47951 0.582448 0
M  V30 3568 H 318.303 3.32347 -0.860238 0
M  V30 3569 N 320.748 -0.0735177 1.57428 0
M  V30 3570 C 321.973 -0.789787 1.91774 0
M  V30 3571 C 322.398 -1.70413 0.796306 0
M  V30 3572 O 321.756 -1.79555 -0.250961 0
M  V30 3573 C 321.804 -1.5609 3.25067 0
M  V30 3574 O 320.908 -2.67144 3.14178 0
M  V30 3575 H 320.249 -0.215582 0.628029 0
M  V30 3576 H 322.779 -0.0422781 2.04556 0
M  V30 3577 H 322.789 -1.94052 3.58898 0
M  V30 3578 H 321.464 -0.890015 4.06265 0
M  V30 3579 H 320.041 -2.32052 2.91901 0
M  V30 3580 N 322.226 -1.5378 -0.344866 0
M  V30 3581 C 323.472 -1.71216 -1.08687 0
M  V30 3582 C 323.805 -0.473281 -1.88345 0
M  V30 3583 O 323.08 0.52968 -1.87149 0
M  V30 3584 C 323.363 -2.97486 -2.02914 0
M  V30 3585 C 323.216 -4.31579 -1.26727 0
M  V30 3586 C 324.535 -3.19422 -3.0275 0
M  V30 3587 H 321.654 -0.62301 -0.393735 0
M  V30 3588 H 324.296 -1.8645 -0.365563 0
M  V30 3589 H 322.446 -2.84629 -2.64421 0
M  V30 3590 H 324.118 -4.56284 -0.67845 0
M  V30 3591 H 322.361 -4.30049 -0.569273 0
M  V30 3592 H 323.032 -5.16106 -1.95803 0
M  V30 3593 H 325.508 -3.316 -2.51357 0
M  V30 3594 H 324.384 -4.09169 -3.65885 0
M  V30 3595 H 324.645 -2.35656 -3.74057 0
M  V30 3596 N 323.704 0.605807 -1.45491 0
M  V30 3597 C 324.614 1.74466 -1.56839 0
M  V30 3598 C 325.63 1.68006 -0.452772 0
M  V30 3599 O 326.806 1.8833 -0.713708 0
M  V30 3600 C 323.871 3.10931 -1.53371 0
M  V30 3601 C 322.932 3.28832 -2.75986 0
M  V30 3602 C 322.165 4.58787 -2.72673 0
M  V30 3603 O 322.388 5.4122 -1.80102 0
M  V30 3604 O 321.322 4.79438 -3.63899 0
M  V30 3605 H 325.148 1.67843 -2.53106 0
M  V30 3606 H 322.733 0.770108 -1.28022 0
M  V30 3607 H 324.615 3.92233 -1.54051 0
M  V30 3608 H 323.29 3.18042 -0.602572 0
M  V30 3609 H 322.197 2.47112 -2.80867 0
M  V30 3610 H 323.53 3.26599 -3.68231 0
M  V30 3611 N 325.182 1.32811 0.848464 0
M  V30 3612 C 326.428 1.24917 1.60522 0
M  V30 3613 C 326.783 -0.185761 1.91501 0
M  V30 3614 O 326.076 -1.12524 1.55077 0
M  V30 3615 C 326.27 2.04831 2.92881 0
M  V30 3616 C 326.099 3.55949 2.74828 0
M  V30 3617 C 324.869 4.25277 2.72887 0
M  V30 3618 C 327.067 4.50476 2.48145 0
M  V30 3619 N 325.049 5.62408 2.46111 0
M  V30 3620 C 326.42 5.75427 2.30832 0
M  V30 3621 C 328.475 4.39665 2.33664 0
M  V30 3622 C 327.178 6.90789 2.00508 0
M  V30 3623 C 329.204 5.54833 2.04731 0
M  V30 3624 C 328.566 6.78787 1.88223 0
M  V30 3625 H 324.665 0.512279 0.590842 0
M  V30 3626 H 327.249 1.67246 0.996839 0
M  V30 3627 H 325.42 1.64837 3.51686 0
M  V30 3628 H 327.152 1.88782 3.57971 0
M  V30 3629 H 323.907 3.77456 2.86049 0
M  V30 3630 H 324.331 6.3467 2.35634 0
M  V30 3631 H 328.973 3.44477 2.45144 0
M  V30 3632 H 326.691 7.85984 1.87765 0
M  V30 3633 H 330.277 5.48398 1.94295 0
M  V30 3634 H 329.157 7.66396 1.66155 0
M  V30 3635 N 326.66 -1.06551 1.16123 0
M  V30 3636 C 327.937 -1.76097 0.85142 0
M  V30 3637 C 328.317 -2.00802 -0.6513 0
M  V30 3638 O 327.665 -1.63302 -1.59827 0
M  V30 3639 C 327.875 -3.06384 1.67122 0
M  V30 3640 C 329.223 -3.80585 1.88255 0
M  V30 3641 O 330.247 -3.16218 1.63966 0
M  V30 3642 O 329.106 -4.96212 2.2899 0
M  V30 3643 H 326.2 -0.765102 0.313923 0
M  V30 3644 H 328.746 -1.12844 1.26745 0
M  V30 3645 H 327.518 -2.84071 2.69108 0
M  V30 3646 H 327.141 -3.77371 1.25206 0
M  V30 3647 N 328.138 -0.959301 -1.25041 0
M  V30 3648 C 329.387 -0.612254 -1.92183 0
M  V30 3649 C 329.7 0.855347 -1.75907 0
M  V30 3650 O 330.906 1.31256 -2.37664 0
M  V30 3651 C 329.362 -1.04435 -3.44414 0
M  V30 3652 C 328.97 -2.53482 -3.69393 0
M  V30 3653 C 330.714 -0.770055 -4.17457 0
M  V30 3654 C 328.621 -2.90468 -5.15153 0
M  V30 3655 H 327.551 -0.225279 -0.719559 0
M  V30 3656 H 330.202 -1.16438 -1.41825 0
M  V30 3657 H 328.584 -0.4206 -3.9376 0
M  V30 3658 H 329.758 -3.20916 -3.30681 0
M  V30 3659 H 328.073 -2.78432 -3.0962 0
M  V30 3660 H 330.67 -1.02249 -5.24832 0
M  V30 3661 H 331.013 0.293611 -4.15263 0
M  V30 3662 H 331.546 -1.35437 -3.74034 0
M  V30 3663 H 328.285 -3.95871 -5.22462 0
M  V30 3664 H 327.805 -2.27711 -5.54894 0
M  V30 3665 H 329.484 -2.79914 -5.83315 0
M  V30 3666 N 329.616 1.39756 -0.72842 0
M  V30 3667 C 330.549 2.28176 -0.0330172 0
M  V30 3668 C 331.527 1.44035 0.754501 0
M  V30 3669 O 332.711 1.73434 0.738445 0
M  V30 3670 C 329.838 3.24795 0.960504 0
M  V30 3671 C 328.884 4.25693 0.262264 0
M  V30 3672 S 329.717 5.25714 -1.01906 0
M  V30 3673 C 330.873 6.25894 -0.0279717 0
M  V30 3674 H 331.106 2.86807 -0.78287 0
M  V30 3675 H 328.639 1.45382 -0.519951 0
M  V30 3676 H 330.597 3.80983 1.52846 0
M  V30 3677 H 329.258 2.65196 1.68315 0
M  V30 3678 H 328.451 4.93699 1.01379 0
M  V30 3679 H 328.053 3.7327 -0.233482 0
M  V30 3680 H 330.345 6.72585 0.814621 0
M  V30 3681 H 331.288 7.04876 -0.67499 0
M  V30 3682 H 331.696 5.63466 0.341489 0
M  V30 3683 N 331.094 0.475555 1.50254 0
M  V30 3684 C 332.319 -0.0777042 2.07254 0
M  V30 3685 C 332.744 -1.3235 1.3366 0
M  V30 3686 O 332.102 -1.77152 0.385597 0
M  V30 3687 C 332.15 -0.340169 3.58992 0
M  V30 3688 O 331.254 -1.41982 3.87188 0
M  V30 3689 H 330.595 0.0149556 0.663832 0
M  V30 3690 H 333.125 0.667878 1.93392 0
M  V30 3691 H 333.135 -0.579332 4.03866 0
M  V30 3692 H 331.81 0.570167 4.11973 0
M  V30 3693 H 330.387 -1.16762 3.54148 0
M  V30 3694 N 332.573 -1.56217 0.208337 0
M  V30 3695 C 333.989 -1.58919 -0.14729 0
M  V30 3696 C 334.189 -1.22486 -1.59998 0
M  V30 3697 O 333.245 -0.953849 -2.3379 0
M  V30 3698 C 334.558 -3.00236 0.167048 0
M  V30 3699 C 336.106 -3.12813 0.108219 0
M  V30 3700 C 336.581 -4.56284 0.396049 0
M  V30 3701 N 338.072 -4.61912 0.345142 0
M  V30 3702 C 338.807 -5.70837 0.541523 0
M  V30 3703 N 338.303 -6.88178 0.798968 0
M  V30 3704 N 340.096 -5.60091 0.474867 0
M  V30 3705 H 332.247 -1.78177 1.15614 0
M  V30 3706 H 334.51 -0.827555 0.462446 0
M  V30 3707 H 334.216 -3.31499 1.1748 0
M  V30 3708 H 334.09 -3.7354 -0.524184 0
M  V30 3709 H 336.477 -2.81354 -0.890157 0
M  V30 3710 H 336.558 -2.41866 0.832729 0
M  V30 3711 H 336.202 -4.88458 1.3918 0
M  V30 3712 H 336.132 -5.25439 -0.349502 0
M  V30 3713 H 338.623 -3.77589 0.153316 0
M  V30 3714 H 338.936 -7.67095 0.93727 0
M  V30 3715 H 337.281 -6.89953 0.836013 0
M  V30 3716 H 340.472 -4.67297 0.274064 0
M  V30 3717 H 340.645 -6.44917 0.631326 0
M  V30 3718 N 334.051 0.0651679 -1.57465 0
M  V30 3719 C 335.297 0.764193 -1.87851 0
M  V30 3720 C 335.63 1.76889 -0.801495 0
M  V30 3721 O 334.905 1.93594 0.187528 0
M  V30 3722 C 335.188 1.46625 -3.28897 0
M  V30 3723 C 335.041 0.477515 -4.47258 0
M  V30 3724 C 336.36 2.4095 -3.68281 0
M  V30 3725 H 333.479 0.276351 -0.683227 0
M  V30 3726 H 336.121 0.0272868 -1.8998 0
M  V30 3727 H 334.271 2.09438 -3.27212 0
M  V30 3728 H 335.943 -0.145922 -4.61069 0
M  V30 3729 H 334.186 -0.206576 -4.33308 0
M  V30 3730 H 334.857 1.0065 -5.42746 0
M  V30 3731 H 337.333 1.88209 -3.71102 0
M  V30 3732 H 336.209 2.87072 -4.67847 0
M  V30 3733 H 336.47 3.26049 -2.98571 0
M  V30 3734 N 335.529 1.53961 0.336706 0
M  V30 3735 C 336.492 1.81724 1.39675 0
M  V30 3736 C 337.492 0.688532 1.45313 0
M  V30 3737 O 338.682 0.956829 1.45569 0
M  V30 3738 C 335.814 1.96543 2.78538 0
M  V30 3739 H 337.007 2.76424 1.16318 0
M  V30 3740 H 334.56 1.45478 0.571474 0
M  V30 3741 H 335.295 1.0401 3.07168 0
M  V30 3742 H 335.08 2.78665 2.75841 0
M  V30 3743 H 336.57 2.19516 3.5525 0
M  V30 3744 N 337.007 -0.598083 1.45811 0
M  V30 3745 C 337.954 -1.7082 1.55207 0
M  V30 3746 C 338.924 -1.61278 0.39732 0
M  V30 3747 O 340.109 -1.80717 0.612038 0
M  V30 3748 C 337.249 -3.09144 1.53376 0
M  V30 3749 C 336.362 -3.29423 2.79472 0
M  V30 3750 C 335.497 -4.57907 2.69248 0
M  V30 3751 C 334.536 -4.71476 3.90354 0
M  V30 3752 N 333.673 -5.9127 3.78608 0
M  V30 3753 H 338.513 -1.62125 2.50039 0
M  V30 3754 H 336.05 -0.790389 1.24062 0
M  V30 3755 H 338.008 -3.89186 1.50301 0
M  V30 3756 H 336.638 -3.16773 0.620876 0
M  V30 3757 H 335.69 -2.43091 2.92594 0
M  V30 3758 H 337.002 -3.3532 3.69272 0
M  V30 3759 H 336.156 -5.46157 2.64192 0
M  V30 3760 H 334.895 -4.54423 1.77063 0
M  V30 3761 H 333.9 -3.81648 3.95759 0
M  V30 3762 H 335.125 -4.76751 4.83617 0
M  V30 3763 H 333.071 -5.88813 2.89199 0
M  V30 3764 H 332.988 -5.98369 4.6205 0
M  V30 3765 H 334.256 -6.81992 3.77501 0
M  V30 3766 N 338.485 -1.33259 -0.841409 0
M  V30 3767 C 339.901 -1.12538 -1.13169 0
M  V30 3768 C 340.101 0.0854037 -2.01319 0
M  V30 3769 O 339.157 0.766417 -2.40587 0
M  V30 3770 C 340.47 -2.41156 -1.79623 0
M  V30 3771 C 342.018 -2.47038 -1.922 0
M  V30 3772 C 342.493 -3.7561 -2.6207 0
M  V30 3773 N 343.984 -3.76667 -2.69585 0
M  V30 3774 C 344.719 -4.72861 -3.2433 0
M  V30 3775 N 344.215 -5.79428 -3.79783 0
M  V30 3776 N 346.008 -4.6034 -3.22558 0
M  V30 3777 H 338.159 -2.10868 -0.254676 0
M  V30 3778 H 340.422 -0.931615 -0.175493 0
M  V30 3779 H 340.128 -3.29747 -1.22311 0
M  V30 3780 H 340.002 -2.53114 -2.79666 0
M  V30 3781 H 342.389 -1.58898 -2.48667 0
M  V30 3782 H 342.47 -2.39022 -0.911148 0
M  V30 3783 H 342.114 -4.64131 -2.06263 0
M  V30 3784 H 342.044 -3.80902 -3.63622 0
M  V30 3785 H 344.535 -2.99648 -2.30259 0
M  V30 3786 H 344.848 -6.48867 -4.19752 0
M  V30 3787 H 343.193 -5.83166 -3.78078 0
M  V30 3788 H 346.384 -3.76244 -2.78492 0
M  V30 3789 H 346.557 -5.35478 -3.64921 0
M  V30 3790 N 339.963 1.05934 -1.16686 0
M  V30 3791 C 341.379 1.30938 -0.912542 0
M  V30 3792 C 341.579 1.96803 0.432533 0
M  V30 3793 O 340.635 2.23693 1.17123 0
M  V30 3794 C 341.948 2.18649 -2.06429 0
M  V30 3795 C 343.496 2.32055 -2.10047 0
M  V30 3796 C 343.971 3.23122 -3.24586 0
M  V30 3797 N 345.462 3.30706 -3.24327 0
M  V30 3798 C 346.197 4.01273 -4.09594 0
M  V30 3799 N 345.693 4.74332 -5.04956 0
M  V30 3800 N 347.486 3.97361 -3.97569 0
M  V30 3801 H 339.637 0.615777 -2.03278 0
M  V30 3802 H 341.9 0.334077 -0.887185 0
M  V30 3803 H 341.606 1.77534 -3.03603 0
M  V30 3804 H 341.48 3.19252 -2.00894 0
M  V30 3805 H 343.867 2.72415 -1.13464 0
M  V30 3806 H 343.948 1.31107 -2.19647 0
M  V30 3807 H 343.592 2.83477 -4.2143 0
M  V30 3808 H 343.522 4.24057 -3.12223 0
M  V30 3809 H 346.013 2.78644 -2.55276 0
M  V30 3810 H 346.326 5.25716 -5.6643 0
M  V30 3811 H 344.671 4.733 -5.08933 0
M  V30 3812 H 347.862 3.39405 -3.22369 0
M  V30 3813 H 348.035 4.52089 -4.64241 0
M  V30 3814 N 341.441 0.965919 1.2453 0
M  V30 3815 C 342.404 0.499547 2.2369 0
M  V30 3816 C 343.404 -0.40294 1.5567 0
M  V30 3817 O 344.594 -0.19865 1.73064 0
M  V30 3818 C 341.726 -0.276792 3.39774 0
M  V30 3819 H 342.919 1.37613 2.66463 0
M  V30 3820 H 340.472 0.750324 1.37112 0
M  V30 3821 H 341.207 -1.17055 3.02438 0
M  V30 3822 H 340.992 0.370826 3.90343 0
M  V30 3823 H 342.482 -0.592175 4.1338 0
M  V30 3824 N 342.919 -1.39368 0.735821 0
M  V30 3825 C 343.866 -2.30599 0.0963825 0
M  V30 3826 C 344.836 -1.49257 -0.728794 0
M  V30 3827 O 346.021 -1.77941 -0.688588 0
M  V30 3828 C 343.161 -3.35596 -0.804305 0
M  V30 3829 C 342.274 -4.31987 0.0335761 0
M  V30 3830 C 341.409 -5.24053 -0.868461 0
M  V30 3831 C 340.448 -6.12095 -0.0258776 0
M  V30 3832 N 339.585 -6.96514 -0.883893 0
M  V30 3833 H 344.425 -2.8471 0.880002 0
M  V30 3834 H 341.962 -1.40188 0.445619 0
M  V30 3835 H 343.92 -3.95062 -1.34096 0
M  V30 3836 H 342.55 -2.82938 -1.55389 0
M  V30 3837 H 341.602 -3.74133 0.68766 0
M  V30 3838 H 342.914 -4.94074 0.685036 0
M  V30 3839 H 342.068 -5.88549 -1.47293 0
M  V30 3840 H 340.807 -4.62289 -1.5537 0
M  V30 3841 H 339.812 -5.4661 0.591386 0
M  V30 3842 H 341.037 -6.75923 0.656156 0
M  V30 3843 H 338.983 -6.37318 -1.55441 0
M  V30 3844 H 338.9 -7.55448 -0.288931 0
M  V30 3845 H 340.168 -7.65439 -1.4739 0
M  V30 3846 N 344.397 -0.483516 -1.5 0
M  V30 3847 C 345.345 0.318061 -2.30415 0
M  V30 3848 C 346.339 0.978988 -1.38247 0
M  V30 3849 O 347.545 0.908673 -1.55381 0
M  V30 3850 H 343.92 0.121419 -0.742133 0
M  V30 3851 H 345.891 -0.380403 -2.95965 0
M  V30 3852 C 344.64 1.38013 -3.19136 0
M  V30 3853 H 343.963 0.880952 -3.89973 0
M  V30 3854 H 345.403 1.91332 -3.78375 0
M  V30 3855 C 343.862 2.38884 -2.37563 0
M  V30 3856 O 344.392 3.44412 -2.06744 0
M  V30 3857 N 342.598 2.10912 -1.99911 0
M  V30 3858 H 342.145 1.25118 -2.25174 0
M  V30 3859 H 342.103 2.78635 -1.45636 0
M  V30 3860 N 345.875 1.56104 -0.216619 0
M  V30 3861 C 347.105 2.02269 0.420802 0
M  V30 3862 C 347.513 1.09575 1.5424 0
M  V30 3863 O 346.856 0.0967308 1.83445 0
M  V30 3864 C 346.918 3.44784 1.01806 0
M  V30 3865 C 346.582 4.56988 0.0325154 0
M  V30 3866 C 347.579 5.14225 -0.766055 0
M  V30 3867 C 345.264 5.02228 -0.0848092 0
M  V30 3868 C 347.258 6.15169 -1.6687 0
M  V30 3869 C 344.945 6.03011 -0.990994 0
M  V30 3870 C 345.943 6.59357 -1.78149 0
M  V30 3871 O 345.631 7.58179 -2.67245 0
M  V30 3872 H 345.363 0.667353 0.107776 0
M  V30 3873 H 347.917 2.02747 -0.329034 0
M  V30 3874 H 346.147 3.41359 1.81689 0
M  V30 3875 H 347.836 3.74626 1.56237 0
M  V30 3876 H 348.602 4.80126 -0.685836 0
M  V30 3877 H 344.481 4.58054 0.520349 0
M  V30 3878 H 348.025 6.59076 -2.28615 0
M  V30 3879 H 343.922 6.36532 -1.07225 0
M  V30 3880 H 344.69 7.75682 -2.61265 0
M  V30 3881 N 347.353 -0.0568162 1.57498 0
M  V30 3882 C 348.764 -0.606858 1.76562 0
M  V30 3883 C 349.115 -1.77114 0.844094 0
M  V30 3884 O 348.24 -2.16376 0.0318911 0
M  V30 3885 C 348.835 -1.10766 3.20182 0
M  V30 3886 C 347.394 -1.60344 3.40539 0
M  V30 3887 C 346.541 -0.529311 2.72201 0
M  V30 3888 H 349.492 0.169393 1.57793 0
M  V30 3889 H 349.513 -1.97602 3.25167 0
M  V30 3890 H 349.025 -0.26006 3.87228 0
M  V30 3891 H 347.126 -2.47379 2.78629 0
M  V30 3892 H 347.239 -1.67006 4.4905 0
M  V30 3893 H 345.603 -0.977893 2.35179 0
M  V30 3894 H 346.386 0.308352 3.41912 0
M  V30 3895 N 348.832 -1.54138 -0.328536 0
M  V30 3896 C 350.057 -1.76378 -1.09112 0
M  V30 3897 C 350.482 -0.508596 -1.81094 0
M  V30 3898 O 349.84 0.539598 -1.73084 0
M  V30 3899 C 349.888 -2.95358 -2.06872 0
M  V30 3900 O 348.992 -2.66556 -3.14677 0
M  V30 3901 H 348.333 -0.584614 -0.314838 0
M  V30 3902 H 350.863 -2.01146 -0.374348 0
M  V30 3903 H 350.873 -3.22566 -2.4983 0
M  V30 3904 H 349.548 -3.86385 -1.5388 0
M  V30 3905 H 348.125 -2.50282 -2.7643 0
M  V30 3906 N 350.31 0.590341 -1.46126 0
M  V30 3907 C 351.55 1.35995 -1.52593 0
M  V30 3908 C 351.914 1.91243 -0.170368 0
M  V30 3909 O 353.115 2.68576 -0.109775 0
M  V30 3910 C 351.386 2.46465 -2.58823 0
M  V30 3911 S 352.945 3.33953 -2.84641 0
M  V30 3912 H 349.763 0.463425 -0.53922 0
M  V30 3913 H 352.365 0.67944 -1.83314 0
M  V30 3914 H 351.069 2.04256 -3.5596 0
M  V30 3915 H 350.6 3.19297 -2.2981 0
M  V30 3916 H 352.615 4.45094 -2.19331 0
M  V30 3917 N 351.788 1.33704 0.83433 0
M  V30 3918 C 353.028 1.26754 1.60352 0
M  V30 3919 C 353.392 -0.163182 1.91305 0
M  V30 3920 O 354.593 -0.3567 2.66423 0
M  V30 3921 C 352.864 2.12262 2.8754 0
M  V30 3922 S 354.423 2.22549 3.78176 0
M  V30 3923 H 351.241 0.450879 0.549753 0
M  V30 3924 H 353.843 1.68788 0.986444 0
M  V30 3925 H 352.547 3.15238 2.62779 0
M  V30 3926 H 352.078 1.71082 3.54252 0
M  V30 3927 H 354.093 1.3899 4.76336 0
M  V30 3928 N 353.266 -1.05314 1.17247 0
M  V30 3929 C 354.677 -1.59753 0.96623 0
M  V30 3930 C 355.028 -1.9005 -0.487378 0
M  V30 3931 O 354.153 -1.68126 -1.36245 0
M  V30 3932 C 354.748 -2.90249 1.74759 0
M  V30 3933 C 353.307 -3.41352 1.58606 0
M  V30 3934 C 352.454 -2.15103 1.75002 0
M  V30 3935 H 355.405 -0.881406 1.31973 0
M  V30 3936 H 355.426 -3.60097 1.22925 0
M  V30 3937 H 354.938 -2.68166 2.8055 0
M  V30 3938 H 353.039 -3.68474 0.552985 0
M  V30 3939 H 353.152 -4.16019 2.37624 0
M  V30 3940 H 351.516 -2.25804 1.17833 0
M  V30 3941 H 352.299 -1.95491 2.82202 0
M  V30 3942 N 354.744 -0.972509 -1.24016 0
M  V30 3943 C 355.676 -0.464375 -2.24446 0
M  V30 3944 C 356.689 0.4295 -1.57032 0
M  V30 3945 O 357.878 0.234902 -1.76948 0
M  V30 3946 C 354.978 0.348385 -3.37105 0
M  V30 3947 C 354.151 -0.53673 -4.34094 0
M  V30 3948 C 353.21 0.220838 -5.25736 0
M  V30 3949 O 352.236 -0.386867 -5.67884 0
M  V30 3950 N 353.438 1.50907 -5.60542 0
M  V30 3951 H 356.203 -1.32788 -2.68677 0
M  V30 3952 H 353.764 -0.844877 -1.38107 0
M  V30 3953 H 355.756 0.863341 -3.95384 0
M  V30 3954 H 354.326 1.11285 -2.92121 0
M  V30 3955 H 353.546 -1.23261 -3.74433 0
M  V30 3956 H 354.834 -1.14022 -4.95859 0
M  V30 3957 H 354.232 2.02444 -5.28236 0
M  V30 3958 H 352.789 1.96962 -6.21329 0
M  V30 3959 N 356.222 1.38976 -0.743202 0
M  V30 3960 C 357.447 2.05161 -0.303936 0
M  V30 3961 C 357.872 1.55677 1.05576 0
M  V30 3962 O 357.23 0.704131 1.67068 0
M  V30 3963 C 357.278 3.59138 -0.324373 0
M  V30 3964 O 356.382 4.06668 0.685204 0
M  V30 3965 H 355.723 0.649815 -0.136518 0
M  V30 3966 H 358.253 1.77852 -1.01142 0
M  V30 3967 H 358.263 4.07639 -0.171618 0
M  V30 3968 H 356.938 3.94515 -1.31647 0
M  V30 3969 H 355.515 3.69561 0.497913 0
M  V30 3970 N 357.7 0.491464 1.49741 0
M  V30 3971 C 358.663 -0.280906 2.27472 0
M  V30 3972 C 359.663 -0.902454 1.33088 0
M  V30 3973 O 360.853 -0.768465 1.56334 0
M  V30 3974 C 357.985 -1.40209 3.10732 0
M  V30 3975 H 359.178 0.401056 2.97206 0
M  V30 3976 H 356.731 0.246131 1.5435 0
M  V30 3977 H 357.466 -2.11849 2.45541 0
M  V30 3978 H 357.251 -0.961969 3.80117 0
M  V30 3979 H 358.741 -1.9464 3.69466 0
M  V30 3980 N 359.178 -1.55987 0.224894 0
M  V30 3981 C 360.408 -2.02489 -0.41007 0
M  V30 3982 C 360.816 -1.10391 -1.53657 0
M  V30 3983 O 360.159 -0.106458 -1.83391 0
M  V30 3984 C 360.221 -3.45319 -0.999757 0
M  V30 3985 C 359.885 -4.56999 -0.00827976 0
M  V30 3986 C 360.882 -5.13812 0.793314 0
M  V30 3987 C 358.567 -5.02176 0.111442 0
M  V30 3988 C 360.561 -6.14276 1.7013 0
M  V30 3989 C 358.248 -6.02477 1.02296 0
M  V30 3990 C 359.246 -6.58403 1.81643 0
M  V30 3991 O 358.934 -7.56751 2.71262 0
M  V30 3992 H 358.666 -0.667915 -0.104235 0
M  V30 3993 H 361.22 -2.0257 0.339782 0
M  V30 3994 H 359.45 -3.42318 -1.79876 0
M  V30 3995 H 361.139 -3.7545 -1.54248 0
M  V30 3996 H 361.905 -4.79756 0.711288 0
M  V30 3997 H 357.784 -4.58323 -0.49605 0
M  V30 3998 H 361.328 -6.57854 2.32107 0
M  V30 3999 H 357.225 -6.35954 1.10599 0
M  V30 4000 H 357.993 -7.74286 2.65375 0
M  V30 4001 N 360.656 0.0484629 -1.57525 0
M  V30 4002 C 361.905 0.742065 -1.87553 0
M  V30 4003 C 362.218 1.77545 -0.820802 0
M  V30 4004 O 363.424 2.52027 -1.00967 0
M  V30 4005 C 361.88 1.37081 -3.32771 0
M  V30 4006 C 361.488 0.374786 -4.4643 0
M  V30 4007 C 363.232 2.04542 -3.71972 0
M  V30 4008 C 361.139 1.01077 -5.82698 0
M  V30 4009 H 360.069 0.280903 -0.699721 0
M  V30 4010 H 362.72 -0.00411877 -1.835 0
M  V30 4011 H 361.102 2.16605 -3.31509 0
M  V30 4012 H 362.276 -0.392331 -4.59127 0
M  V30 4013 H 360.591 -0.196653 -4.15935 0
M  V30 4014 H 363.188 2.52943 -4.71088 0
M  V30 4015 H 363.531 2.85515 -3.02964 0
M  V30 4016 H 364.064 1.31819 -3.75325 0
M  V30 4017 H 360.803 0.240878 -6.55057 0
M  V30 4018 H 360.323 1.74819 -5.73758 0
M  V30 4019 H 362.002 1.52383 -6.28799 0
M  V30 4020 N 362.134 1.5431 0.320358 0
M  V30 4021 C 363.411 1.63322 1.07635 0
M  V30 4022 C 363.791 0.46912 2.05821 0
M  V30 4023 O 363.139 -0.536274 2.22118 0
M  V30 4024 C 363.349 3.00465 1.77544 0
M  V30 4025 C 364.697 3.56621 2.30449 0
M  V30 4026 O 365.721 3.02791 1.87606 0
M  V30 4027 O 364.58 4.5083 3.08892 0
M  V30 4028 H 361.674 0.661502 0.496331 0
M  V30 4029 H 364.22 1.66656 0.319992 0
M  V30 4030 H 362.992 3.76629 1.06143 0
M  V30 4031 H 362.615 3.00824 2.59982 0
M  V30 4032 N 363.613 -0.582584 1.46437 0
M  V30 4033 C 364.859 -1.34278 1.51978 0
M  V30 4034 C 365.192 -1.93446 0.170973 0
M  V30 4035 O 364.467 -1.76481 -0.817608 0
M  V30 4036 C 364.75 -2.47203 2.61845 0
M  V30 4037 C 364.603 -1.93069 4.06257 0
M  V30 4038 C 365.922 -3.49247 2.67795 0
M  V30 4039 H 363.041 -0.486876 0.553282 0
M  V30 4040 H 365.683 -0.654437 1.78374 0
M  V30 4041 H 363.833 -3.0592 2.39469 0
M  V30 4042 H 365.505 -1.38808 4.3992 0
M  V30 4043 H 363.748 -1.23898 4.1573 0
M  V30 4044 H 364.419 -2.74586 4.7886 0
M  V30 4045 H 366.895 -3.00411 2.8791 0
M  V30 4046 H 365.771 -4.25719 3.46489 0
M  V30 4047 H 366.032 -4.06482 1.73852 0
M  V30 4048 N 365.091 -1.34144 -0.827227 0
M  V30 4049 C 366.319 -1.29325 -1.61501 0
M  V30 4050 C 366.734 0.13354 -1.88327 0
M  V30 4051 O 366.091 1.0793 -1.47164 0
M  V30 4052 C 366.142 -2.07746 -2.95844 0
M  V30 4053 O 365.863 -3.4486 -2.70191 0
M  V30 4054 C 367.364 -2.10273 -3.90256 0
M  V30 4055 H 364.584 -0.445069 -0.50215 0
M  V30 4056 H 367.128 -1.76693 -1.02955 0
M  V30 4057 H 365.283 -1.6403 -3.5096 0
M  V30 4058 H 365.697 -3.85345 -3.55822 0
M  V30 4059 H 367.171 -2.69575 -4.81698 0
M  V30 4060 H 367.648 -1.096 -4.25305 0
M  V30 4061 H 368.254 -2.54059 -3.41078 0
M  V30 4062 N 366.569 1.04691 -1.17803 0
M  V30 4063 C 367.799 1.81183 -0.992788 0
M  V30 4064 C 368.207 1.8347 0.462098 0
M  V30 4065 O 367.55 1.2643 1.33271 0
M  V30 4066 C 367.612 3.28363 -1.46349 0
M  V30 4067 C 367.276 3.49749 -2.94151 0
M  V30 4068 C 368.273 3.41456 -3.92051 0
M  V30 4069 C 365.958 3.76548 -3.32441 0
M  V30 4070 C 367.952 3.59656 -5.26238 0
M  V30 4071 C 365.639 3.94396 -4.66792 0
M  V30 4072 C 366.637 3.8595 -5.635 0
M  V30 4073 O 366.325 4.03294 -6.9542 0
M  V30 4074 H 366.057 0.577622 -0.351182 0
M  V30 4075 H 368.611 1.32876 -1.5663 0
M  V30 4076 H 366.841 3.77609 -0.833574 0
M  V30 4077 H 368.53 3.86395 -1.24313 0
M  V30 4078 H 369.296 3.20723 -3.63815 0
M  V30 4079 H 365.175 3.82224 -2.57732 0
M  V30 4080 H 368.719 3.52979 -6.01707 0
M  V30 4081 H 364.616 4.14622 -4.94731 0
M  V30 4082 H 365.384 4.2049 -7.02232 0
M  V30 4083 N 368.047 0.979072 1.23499 0
M  V30 4084 C 369.277 0.664237 1.95631 0
M  V30 4085 C 369.685 -0.772653 1.72704 0
M  V30 4086 O 369.028 -1.53141 1.01457 0
M  V30 4087 C 369.09 0.873115 3.48736 0
M  V30 4088 C 368.754 2.29182 3.95379 0
M  V30 4089 C 369.751 3.2704 4.04155 0
M  V30 4090 C 367.436 2.62256 4.28401 0
M  V30 4091 C 369.43 4.56052 4.45304 0
M  V30 4092 C 367.117 3.91491 4.69231 0
M  V30 4093 C 368.115 4.88201 4.77649 0
M  V30 4094 O 367.803 6.15129 5.17563 0
M  V30 4095 H 367.535 0.245915 0.629684 0
M  V30 4096 H 370.089 1.3127 1.57979 0
M  V30 4097 H 368.319 0.167476 3.86337 0
M  V30 4098 H 370.008 0.555642 4.02079 0
M  V30 4099 H 370.774 3.02819 3.78848 0
M  V30 4100 H 366.653 1.87692 4.21061 0
M  V30 4101 H 370.197 5.31538 4.51789 0
M  V30 4102 H 366.094 4.15508 4.93987 0
M  V30 4103 H 366.862 6.18862 5.35679 0
M  V30 4104 N 369.525 -1.3858 0.750561 0
M  V30 4105 C 370.455 -2.33102 0.136237 0
M  V30 4106 C 371.436 -1.54713 -0.706965 0
M  V30 4107 O 372.621 -1.83043 -0.648769 0
M  V30 4108 C 369.751 -3.38882 -0.760017 0
M  V30 4109 C 368.705 -4.27995 -0.0197785 0
M  V30 4110 C 368.031 -5.24605 -1.03408 0
M  V30 4111 C 369.331 -5.09554 1.14684 0
M  V30 4112 H 371.025 -2.84726 0.925822 0
M  V30 4113 H 368.571 -1.36898 0.446654 0
M  V30 4114 H 370.524 -4.0397 -1.19943 0
M  V30 4115 H 369.248 -2.85734 -1.58189 0
M  V30 4116 H 367.907 -3.64409 0.400184 0
M  V30 4117 H 367.555 -4.67746 -1.84994 0
M  V30 4118 H 367.255 -5.85081 -0.543464 0
M  V30 4119 H 368.779 -5.9257 -1.47288 0
M  V30 4120 H 370.193 -5.67899 0.785118 0
M  V30 4121 H 368.59 -5.7925 1.56812 0
M  V30 4122 H 369.66 -4.4347 1.96118 0
M  V30 4123 N 371.003 -0.499398 -1.49478 0
M  V30 4124 C 371.935 0.316575 -2.27003 0
M  V30 4125 C 372.948 0.932047 -1.33479 0
M  V30 4126 O 374.137 0.815658 -1.58774 0
M  V30 4127 C 371.237 1.46055 -3.05812 0
M  V30 4128 C 370.41 0.952679 -4.26899 0
M  V30 4129 C 369.469 1.97407 -4.87767 0
M  V30 4130 O 368.495 1.54326 -5.4788 0
M  V30 4131 N 369.697 3.30436 -4.77276 0
M  V30 4132 H 372.462 -0.348168 -2.97671 0
M  V30 4133 H 370.023 -0.33185 -1.58463 0
M  V30 4134 H 372.015 2.14135 -3.43407 0
M  V30 4135 H 370.585 2.02948 -2.37762 0
M  V30 4136 H 369.805 0.0968248 -3.94081 0
M  V30 4137 H 371.093 0.59174 -5.05347 0
M  V30 4138 H 370.491 3.68126 -4.29534 0
M  V30 4139 H 369.048 3.94235 -5.19059 0
M  V30 4140 N 372.481 1.55866 -0.233164 0
M  V30 4141 C 373.411 2.23783 0.666599 0
M  V30 4142 C 374.392 1.21343 1.19205 0
M  V30 4143 O 375.577 1.4996 1.23392 0
M  V30 4144 C 372.707 2.92671 1.86978 0
M  V30 4145 C 371.661 4.01682 1.47768 0
M  V30 4146 C 370.987 4.57926 2.76058 0
M  V30 4147 C 372.287 5.18126 0.658993 0
M  V30 4148 H 373.981 2.99232 0.100306 0
M  V30 4149 H 371.527 1.43924 0.046804 0
M  V30 4150 H 373.48 3.3888 2.50476 0
M  V30 4151 H 372.204 2.14688 2.46123 0
M  V30 4152 H 370.863 3.56222 0.866106 0
M  V30 4153 H 370.511 3.76659 3.33372 0
M  V30 4154 H 370.211 5.31505 2.50552 0
M  V30 4155 H 371.735 5.06859 3.40479 0
M  V30 4156 H 373.149 5.60644 1.19795 0
M  V30 4157 H 371.546 5.98009 0.500552 0
M  V30 4158 H 372.616 4.83763 -0.331856 0
M  V30 4159 N 373.959 -0.0401083 1.57549 0
M  V30 4160 C 375.375 -0.395556 1.54621 0
M  V30 4161 C 375.575 -1.77281 0.957799 0
M  V30 4162 O 374.631 -2.45888 0.574031 0
M  V30 4163 C 375.944 -0.307535 2.99123 0
M  V30 4164 C 377.492 -0.385425 3.10618 0
M  V30 4165 C 377.967 -0.326973 4.56831 0
M  V30 4166 N 379.458 -0.386102 4.61588 0
M  V30 4167 C 380.193 -0.363591 5.72246 0
M  V30 4168 N 379.689 -0.29402 6.92176 0
M  V30 4169 N 381.482 -0.412503 5.60584 0
M  V30 4170 H 373.633 0.861325 1.94152 0
M  V30 4171 H 375.896 0.326445 0.890021 0
M  V30 4172 H 375.602 0.638461 3.45856 0
M  V30 4173 H 375.476 -1.10552 3.60636 0
M  V30 4174 H 377.863 -1.32185 2.63839 0
M  V30 4175 H 377.944 0.44171 2.51957 0
M  V30 4176 H 377.588 0.605738 5.04275 0
M  V30 4177 H 377.518 -1.17207 5.13391 0
M  V30 4178 H 380.009 -0.442832 3.75296 0
M  V30 4179 H 380.322 -0.28164 7.72287 0
M  V30 4180 H 378.667 -0.260232 6.94513 0
M  V30 4181 H 381.858 -0.464769 4.65787 0
M  V30 4182 H 382.031 -0.391492 6.46816 0
M  V30 4183 N 375.437 -1.54477 -0.31217 0
M  V30 4184 C 376.853 -1.45442 -0.657185 0
M  V30 4185 C 377.053 -0.63653 -1.91182 0
M  V30 4186 O 376.109 -0.139815 -2.52113 0
M  V30 4187 C 377.422 -2.89287 -0.82058 0
M  V30 4188 C 378.97 -2.9926 -0.917188 0
M  V30 4189 C 379.445 -4.44279 -1.11267 0
M  V30 4190 N 380.936 -4.4794 -1.17914 0
M  V30 4191 C 381.671 -5.57318 -1.34848 0
M  V30 4192 N 381.167 -6.76642 -1.48752 0
M  V30 4193 N 382.96 -5.44986 -1.37647 0
M  V30 4194 H 375.111 -2.06129 0.512313 0
M  V30 4195 H 377.374 -0.933088 0.167485 0
M  V30 4196 H 377.08 -3.51687 0.0302604 0
M  V30 4197 H 376.954 -3.36061 -1.71298 0
M  V30 4198 H 379.341 -2.36981 -1.75852 0
M  V30 4199 H 379.422 -2.558 -0.00101257 0
M  V30 4200 H 379.066 -5.07149 -0.27614 0
M  V30 4201 H 378.996 -4.85359 -2.04289 0
M  V30 4202 H 381.487 -3.61969 -1.08567 0
M  V30 4203 H 381.8 -7.55758 -1.61397 0
M  V30 4204 H 380.145 -6.79529 -1.45828 0
M  V30 4205 H 383.336 -4.50715 -1.26388 0
M  V30 4206 H 383.509 -6.3028 -1.50501 0
M  V30 4207 N 376.915 0.57481 -1.46744 0
M  V30 4208 C 377.862 1.68329 -1.57905 0
M  V30 4209 C 378.832 1.60625 -0.422927 0
M  V30 4210 O 380.017 1.79721 -0.640711 0
M  V30 4211 C 377.157 3.06665 -1.58274 0
M  V30 4212 C 376.27 3.24935 -2.84678 0
M  V30 4213 C 375.405 4.53566 -2.76499 0
M  V30 4214 C 374.444 4.65207 -3.97806 0
M  V30 4215 N 373.581 5.85172 -3.87967 0
M  V30 4216 H 378.421 1.58127 -2.52587 0
M  V30 4217 H 375.958 0.770552 -1.25303 0
M  V30 4218 H 377.916 3.86745 -1.56473 0
M  V30 4219 H 376.546 3.15745 -0.671194 0
M  V30 4220 H 375.598 2.38405 -2.96424 0
M  V30 4221 H 376.91 3.29403 -3.7456 0
M  V30 4222 H 376.064 5.41885 -2.72848 0
M  V30 4223 H 374.803 4.51548 -1.8427 0
M  V30 4224 H 373.808 3.75304 -4.0178 0
M  V30 4225 H 375.033 4.68997 -4.9114 0
M  V30 4226 H 372.979 5.84137 -2.98529 0
M  V30 4227 H 372.896 5.90943 -4.71511 0
M  V30 4228 H 374.164 6.759 -3.88303 0
M  V30 4229 N 378.394 1.34581 0.820102 0
M  V30 4230 C 379.805 1.24298 1.39309 0
M  V30 4231 C 380.156 -0.130351 1.95767 0
M  V30 4232 O 379.281 -1.0308 1.90272 0
M  V30 4233 C 379.876 2.25054 2.53251 0
M  V30 4234 C 378.435 2.18552 3.0645 0
M  V30 4235 C 377.582 2.11503 1.79337 0
M  V30 4236 H 380.533 1.45906 0.624262 0
M  V30 4237 H 380.554 1.86917 3.31425 0
M  V30 4238 H 380.066 3.24996 2.1213 0
M  V30 4239 H 378.167 1.21976 3.52069 0
M  V30 4240 H 378.28 3.0993 3.65349 0
M  V30 4241 H 376.644 1.57268 2.00347 0
M  V30 4242 H 377.427 3.13284 1.40386 0
M  V30 4243 N 379.872 -1.04064 1.18357 0
M  V30 4244 C 380.802 -2.14001 0.934113 0
M  V30 4245 C 381.783 -1.69616 -0.128186 0
M  V30 4246 O 382.968 -1.94185 0.0244093 0
M  V30 4247 C 380.098 -3.44253 0.459066 0
M  V30 4248 C 379.052 -4.02261 1.46185 0
M  V30 4249 C 378.378 -5.27992 0.844322 0
M  V30 4250 C 379.678 -4.38432 2.83856 0
M  V30 4251 H 381.372 -2.35127 1.85352 0
M  V30 4252 H 378.918 -1.12998 0.892604 0
M  V30 4253 H 380.871 -4.20522 0.271907 0
M  V30 4254 H 379.595 -3.22813 -0.495912 0
M  V30 4255 H 378.254 -3.28074 1.63595 0
M  V30 4256 H 377.902 -5.02862 -0.117845 0
M  V30 4257 H 377.602 -5.67765 1.51384 0
M  V30 4258 H 379.126 -6.06938 0.667693 0
M  V30 4259 H 380.54 -5.05688 2.70098 0
M  V30 4260 H 378.937 -4.89254 3.47491 0
M  V30 4261 H 380.007 -3.4826 3.37406 0
M  V30 4262 N 381.35 -0.985608 -1.22978 0
M  V30 4263 C 382.597 -0.657386 -1.91532 0
M  V30 4264 C 382.925 0.809707 -1.76845 0
M  V30 4265 O 382.18 1.60021 -1.12658 0
M  V30 4266 C 382.479 -1.00014 -3.43121 0
M  V30 4267 C 382.145 -2.4583 -3.77993 0
M  V30 4268 C 380.807 -2.85679 -3.87222 0
M  V30 4269 C 383.159 -3.40378 -3.94705 0
M  V30 4270 C 380.487 -4.19081 -4.10595 0
M  V30 4271 C 382.839 -4.73429 -4.1958 0
M  V30 4272 C 381.503 -5.1303 -4.27032 0
M  V30 4273 H 380.773 -0.240555 -0.700867 0
M  V30 4274 H 383.42 -1.24044 -1.45895 0
M  V30 4275 H 381.725 -0.335072 -3.90365 0
M  V30 4276 H 383.422 -0.724322 -3.94404 0
M  V30 4277 H 380.012 -2.13939 -3.71387 0
M  V30 4278 H 384.196 -3.10766 -3.8696 0
M  V30 4279 H 379.452 -4.49362 -4.14589 0
M  V30 4280 H 383.626 -5.46644 -4.31455 0
M  V30 4281 H 381.253 -6.16418 -4.44896 0
M  V30 4282 N 382.828 1.3818 -0.7579 0
M  V30 4283 C 384.058 2.04004 -0.326463 0
M  V30 4284 C 384.466 1.57286 1.05156 0
M  V30 4285 O 383.809 0.743144 1.67997 0
M  V30 4286 C 383.871 3.58444 -0.275402 0
M  V30 4287 C 383.535 4.28237 -1.59569 0
M  V30 4288 C 384.532 4.53312 -2.54566 0
M  V30 4289 C 382.217 4.66341 -1.86631 0
M  V30 4290 C 384.211 5.15531 -3.74842 0
M  V30 4291 C 381.898 5.28283 -3.0718 0
M  V30 4292 C 382.896 5.52814 -4.01106 0
M  V30 4293 O 382.584 6.13465 -5.19534 0
M  V30 4294 H 382.316 0.662026 -0.136739 0
M  V30 4295 H 384.87 1.7777 -1.02893 0
M  V30 4296 H 383.1 3.83667 0.483337 0
M  V30 4297 H 384.789 4.05701 0.127099 0
M  V30 4298 H 385.555 4.24299 -2.34936 0
M  V30 4299 H 381.434 4.46591 -1.14358 0
M  V30 4300 H 384.978 5.34594 -4.48168 0
M  V30 4301 H 380.875 5.56719 -3.26702 0
M  V30 4302 H 381.643 6.31951 -5.20173 0
M  V30 4303 N 384.306 0.507319 1.49211 0
M  V30 4304 C 385.534 -0.0315749 2.06876 0
M  V30 4305 C 385.949 -1.30241 1.36685 0
M  V30 4306 O 385.306 -1.76937 0.447152 0
M  V30 4307 C 385.357 -0.282627 3.60393 0
M  V30 4308 O 385.078 0.937835 4.27944 0
M  V30 4309 C 386.579 -0.864453 4.3479 0
M  V30 4310 H 383.799 0.0233048 0.670595 0
M  V30 4311 H 386.343 0.706484 1.91909 0
M  V30 4312 H 384.498 -0.97068 3.75042 0
M  V30 4313 H 384.912 0.704567 5.19746 0
M  V30 4314 H 386.386 -0.989664 5.43056 0
M  V30 4315 H 386.863 -1.86382 3.97692 0
M  V30 4316 H 387.469 -0.213672 4.24763 0
M  V30 4317 N 385.784 -1.5574 0.241426 0
M  V30 4318 C 387.03 -1.99104 -0.385406 0
M  V30 4319 C 387.363 -1.1293 -1.57988 0
M  V30 4320 O 386.638 -0.191449 -1.93555 0
M  V30 4321 C 386.921 -3.51087 -0.800616 0
M  V30 4322 C 386.774 -4.48028 0.398874 0
M  V30 4323 C 388.093 -4.08015 -1.64959 0
M  V30 4324 H 385.212 -0.723848 -0.138614 0
M  V30 4325 H 387.854 -1.86903 0.341642 0
M  V30 4326 H 386.004 -3.61615 -1.4201 0
M  V30 4327 H 387.676 -4.49487 1.03726 0
M  V30 4328 H 385.919 -4.21077 1.04293 0
M  V30 4329 H 386.59 -5.51962 0.0651056 0
M  V30 4330 H 389.066 -4.00555 -1.12672 0
M  V30 4331 H 387.942 -5.14635 -1.90898 0
M  V30 4332 H 388.203 -3.56131 -2.61961 0
M  V30 4333 N 387.262 0.0317525 -1.57568 0
M  V30 4334 C 388.21 1.05165 -2.07468 0
M  V30 4335 C 389.204 1.3761 -0.98792 0
M  V30 4336 O 390.41 1.36546 -1.17282 0
M  V30 4337 H 386.785 0.35666 -0.66204 0
M  V30 4338 H 388.756 0.604958 -2.92203 0
M  V30 4339 C 387.505 2.34488 -2.56731 0
M  V30 4340 H 386.828 2.10383 -3.39969 0
M  V30 4341 H 388.268 3.04203 -2.95358 0
M  V30 4342 C 386.727 3.03266 -1.46736 0
M  V30 4343 O 387.257 3.92988 -0.832069 0
M  V30 4344 N 385.463 2.6455 -1.20256 0
M  V30 4345 H 385.01 1.91674 -1.72102 0
M  V30 4346 H 384.968 3.10886 -0.468737 0
M  V30 4347 N 388.74 1.54641 0.303973 0
M  V30 4348 C 389.67 1.88386 1.3796 0
M  V30 4349 C 390.651 0.742485 1.5304 0
M  V30 4350 O 391.836 0.997959 1.66597 0
M  V30 4351 C 388.966 2.12854 2.74427 0
M  V30 4352 C 387.92 3.28702 2.74115 0
M  V30 4353 C 387.246 3.38582 4.13844 0
M  V30 4354 C 388.546 4.65881 2.3612 0
M  V30 4355 H 390.24 2.78474 1.09966 0
M  V30 4356 H 387.786 1.33988 0.527556 0
M  V30 4357 H 389.739 2.35047 3.49758 0
M  V30 4358 H 388.463 1.19535 3.03939 0
M  V30 4359 H 387.122 3.06428 2.0124 0
M  V30 4360 H 386.77 2.42784 4.40528 0
M  V30 4361 H 386.47 4.16453 4.14537 0
M  V30 4362 H 387.994 3.63031 4.90959 0
M  V30 4363 H 389.408 4.87823 3.01167 0
M  V30 4364 H 387.805 5.46444 2.48031 0
M  V30 4365 H 388.875 4.66799 1.3125 0
M  V30 4366 N 390.218 -0.567019 1.47046 0
M  V30 4367 C 391.464 -1.32658 1.53394 0
M  V30 4368 C 391.797 -1.93254 0.19148 0
M  V30 4369 O 391.072 -1.77338 -0.798844 0
M  V30 4370 C 391.355 -2.44412 2.64452 0
M  V30 4371 C 391.208 -1.88749 4.08282 0
M  V30 4372 C 392.527 -3.46387 2.71485 0
M  V30 4373 H 389.646 -0.48098 0.558415 0
M  V30 4374 H 392.288 -0.635481 1.79058 0
M  V30 4375 H 390.438 -3.03363 2.427 0
M  V30 4376 H 392.11 -1.34134 4.41368 0
M  V30 4377 H 390.353 -1.19481 4.17021 0
M  V30 4378 H 391.024 -2.69491 4.81745 0
M  V30 4379 H 393.5 -2.9734 2.91081 0
M  V30 4380 H 392.376 -4.2202 3.50985 0
M  V30 4381 H 392.637 -4.04616 1.78153 0
M  V30 4382 N 391.696 -1.35014 -0.812953 0
M  V30 4383 C 392.943 -1.27931 -1.56971 0
M  V30 4384 C 393.271 0.148034 -1.93936 0
M  V30 4385 O 392.526 1.11175 -1.61054 0
M  V30 4386 C 392.825 -2.12524 -2.87347 0
M  V30 4387 C 392.491 -3.61401 -2.6963 0
M  V30 4388 C 391.153 -4.01983 -2.64506 0
M  V30 4389 C 393.505 -4.55894 -2.52607 0
M  V30 4390 C 390.833 -5.35235 -2.40293 0
M  V30 4391 C 393.185 -5.89336 -2.29925 0
M  V30 4392 C 391.849 -6.2907 -2.23219 0
M  V30 4393 H 391.119 -0.468131 -0.574399 0
M  V30 4394 H 393.766 -1.66851 -0.939836 0
M  V30 4395 H 392.071 -1.66463 -3.54679 0
M  V30 4396 H 393.768 -2.04383 -3.45005 0
M  V30 4397 H 390.358 -3.29193 -2.74463 0
M  V30 4398 H 394.542 -4.25431 -2.55583 0
M  V30 4399 H 389.798 -5.65028 -2.33566 0
M  V30 4400 H 393.972 -6.62139 -2.15743 0
M  V30 4401 H 391.599 -7.32256 -2.04219 0
M  V30 4402 N 393.175 1.03435 -1.18907 0
M  V30 4403 C 394.586 1.58195 -0.991523 0
M  V30 4404 C 394.937 1.90801 0.457081 0
M  V30 4405 O 394.062 1.70272 1.33553 0
M  V30 4406 C 394.657 2.87432 -1.79355 0
M  V30 4407 C 393.216 3.38785 -1.64017 0
M  V30 4408 C 392.363 2.12292 -1.78402 0
M  V30 4409 H 395.314 0.860299 -1.33359 0
M  V30 4410 H 395.335 3.58096 -1.28638 0
M  V30 4411 H 394.847 2.63669 -2.84781 0
M  V30 4412 H 392.948 3.67547 -0.611536 0
M  V30 4413 H 393.061 4.12186 -2.44212 0
M  V30 4414 H 391.425 2.23901 -1.2141 0
M  V30 4415 H 392.208 1.90977 -2.85277 0
M  V30 4416 N 394.653 0.992116 1.22453 0
M  V30 4417 C 395.893 0.675727 1.92907 0
M  V30 4418 C 396.257 -0.777762 1.75542 0
M  V30 4419 O 397.458 -1.20553 2.40251 0
M  V30 4420 C 395.729 1.0696 3.4102 0
M  V30 4421 S 397.288 0.871456 4.30059 0
M  V30 4422 H 394.106 0.247089 0.666684 0
M  V30 4423 H 396.708 1.27423 1.48269 0
M  V30 4424 H 395.412 2.12383 3.51172 0
M  V30 4425 H 394.943 0.462858 3.90668 0
M  V30 4426 H 396.958 -0.238436 4.95627 0
M  V30 4427 N 396.131 -1.37776 0.765217 0
M  V30 4428 C 397.377 -2.00145 0.327072 0
M  V30 4429 C 397.71 -1.60607 -1.09175 0
M  V30 4430 O 396.985 -0.849127 -1.74986 0
M  V30 4431 C 397.268 -3.57109 0.46319 0
M  V30 4432 C 397.121 -4.06576 1.92395 0
M  V30 4433 C 398.44 -4.39888 -0.136473 0
M  V30 4434 H 395.559 -0.727113 0.120316 0
M  V30 4435 H 398.201 -1.63549 0.967039 0
M  V30 4436 H 396.351 -3.88414 -0.0816358 0
M  V30 4437 H 398.023 -3.85864 2.52798 0
M  V30 4438 H 396.266 -3.59011 2.43503 0
M  V30 4439 H 396.937 -5.15639 1.97028 0
M  V30 4440 H 399.413 -4.14803 0.328317 0
M  V30 4441 H 398.289 -5.48899 -0.0110582 0
M  V30 4442 H 398.55 -4.24758 -1.22608 0
M  V30 4443 N 397.609 -0.515225 -1.4894 0
M  V30 4444 C 398.857 0.0241671 -2.02086 0
M  V30 4445 C 399.178 1.3616 -1.3959 0
M  V30 4446 O 398.448 1.87841 -0.556121 0
M  V30 4447 H 397.028 0.0119203 -0.746905 0
M  V30 4448 H 399.69 -0.675702 -1.82812 0
M  V30 4449 H 398.786 0.143385 -3.1177 0
M  V30 4450 N 399.087 1.5561 -0.249682 0
M  V30 4451 C 400.336 1.98187 0.37479 0
M  V30 4452 C 400.649 1.14111 1.58865 0
M  V30 4453 O 401.855 1.46714 2.28445 0
M  V30 4454 C 400.311 3.52661 0.718192 0
M  V30 4455 C 399.919 4.45481 -0.474428 0
M  V30 4456 C 401.663 4.03888 1.3067 0
M  V30 4457 C 399.57 5.91303 -0.107026 0
M  V30 4458 H 398.5 0.740159 0.143808 0
M  V30 4459 H 401.151 1.80125 -0.350336 0
M  V30 4460 H 399.533 3.66429 1.50152 0
M  V30 4461 H 400.707 4.43473 -1.25172 0
M  V30 4462 H 399.022 4.04751 -0.978052 0
M  V30 4463 H 401.619 5.10358 1.59496 0
M  V30 4464 H 401.962 3.51401 2.23211 0
M  V30 4465 H 402.495 3.93457 0.586211 0
M  V30 4466 H 399.234 6.47833 -0.999642 0
M  V30 4467 H 398.754 5.9644 0.634013 0
M  V30 4468 H 400.433 6.46258 0.309807 0
M  V30 4469 N 400.565 -0.0233959 1.57583 0
M  V30 4470 C 401.79 -0.728376 1.94189 0
M  V30 4471 C 402.215 -1.67793 0.850119 0
M  V30 4472 O 401.573 -1.80262 -0.19371 0
M  V30 4473 C 401.621 -1.45669 3.29868 0
M  V30 4474 O 400.725 -2.57013 3.22518 0
M  V30 4475 H 400.066 -0.195493 0.63457 0
M  V30 4476 H 402.596 0.0228214 2.04587 0
M  V30 4477 H 402.606 -1.82535 3.6489 0
M  V30 4478 H 401.281 -0.760314 4.08891 0
M  V30 4479 H 399.858 -2.22648 2.99136 0
M  V30 4480 N 402.043 -1.548 -0.295768 0
M  V30 4481 C 403.29 -1.74329 -1.03032 0
M  V30 4482 C 403.618 -0.531915 -1.87085 0
M  V30 4483 O 402.873 0.486052 -1.89568 0
M  V30 4484 C 403.172 -2.98797 -1.961 0
M  V30 4485 C 402.838 -4.32356 -1.2798 0
M  V30 4486 C 401.5 -4.68661 -1.09135 0
M  V30 4487 C 403.852 -5.15128 -0.793243 0
M  V30 4488 C 401.18 -5.85312 -0.403269 0
M  V30 4489 C 403.532 -6.32488 -0.118854 0
M  V30 4490 C 402.196 -6.6745 0.0815043 0
M  V30 4491 H 401.466 -0.637916 -0.37702 0
M  V30 4492 H 404.113 -1.8906 -0.304696 0
M  V30 4493 H 402.418 -2.78869 -2.75207 0
M  V30 4494 H 404.115 -3.11102 -2.53015 0
M  V30 4495 H 400.705 -4.03808 -1.43655 0
M  V30 4496 H 404.889 -4.87575 -0.92653 0
M  V30 4497 H 400.145 -6.1094 -0.237098 0
M  V30 4498 H 404.319 -6.95892 0.266035 0
M  V30 4499 H 401.946 -7.57695 0.616685 0
M  V30 4500 N 403.521 0.559213 -1.47345 0
M  V30 4501 C 404.451 1.67622 -1.62558 0
M  V30 4502 C 405.432 1.63331 -0.475087 0
M  V30 4503 O 406.617 1.80983 -0.704182 0
M  V30 4504 C 403.747 3.0626 -1.63774 0
M  V30 4505 C 402.701 3.25397 -2.7803 0
M  V30 4506 C 402.027 4.64801 -2.64318 0
M  V30 4507 C 403.327 3.10965 -4.19641 0
M  V30 4508 H 405.021 1.55146 -2.56067 0
M  V30 4509 H 402.567 0.744961 -1.23233 0
M  V30 4510 H 404.52 3.84247 -1.73008 0
M  V30 4511 H 403.244 3.1969 -0.66825 0
M  V30 4512 H 401.903 2.49817 -2.68304 0
M  V30 4513 H 401.551 4.75028 -1.65401 0
M  V30 4514 H 401.251 4.78555 -3.40968 0
M  V30 4515 H 402.775 5.44926 -2.75478 0
M  V30 4516 H 404.189 3.78772 -4.30354 0
M  V30 4517 H 402.586 3.36229 -4.97062 0
M  V30 4518 H 403.656 2.07736 -4.38148 0
M  V30 4519 N 404.999 1.35443 0.805782 0
M  V30 4520 C 406.227 1.31878 1.59423 0
M  V30 4521 C 406.642 -0.103562 1.88516 0
M  V30 4522 O 405.999 -1.05575 1.48863 0
M  V30 4523 C 406.05 2.12426 2.92502 0
M  V30 4524 O 405.771 3.49115 2.6467 0
M  V30 4525 C 407.272 2.16455 3.86862 0
M  V30 4526 H 404.492 0.453002 0.495005 0
M  V30 4527 H 407.036 1.78309 1.00131 0
M  V30 4528 H 405.191 1.69593 3.48306 0
M  V30 4529 H 405.605 3.90957 3.49647 0
M  V30 4530 H 407.079 2.77204 4.77349 0
M  V30 4531 H 407.556 1.16352 4.23508 0
M  V30 4532 H 408.162 2.59453 3.36993 0
M  V30 4533 N 406.477 -1.02803 1.19454 0
M  V30 4534 C 407.726 -1.7562 0.991996 0
M  V30 4535 C 408.039 -1.89672 -0.477901 0
M  V30 4536 O 409.245 -2.59468 -0.799287 0
M  V30 4537 C 407.701 -3.15812 1.72601 0
M  V30 4538 C 407.309 -3.0981 3.23607 0
M  V30 4539 C 409.053 -3.92918 1.60674 0
M  V30 4540 C 406.96 -4.44939 3.89594 0
M  V30 4541 H 405.89 -0.658352 0.367543 0
M  V30 4542 H 408.541 -1.15044 1.42959 0
M  V30 4543 H 406.923 -3.7686 1.21624 0
M  V30 4544 H 408.097 -2.58138 3.81709 0
M  V30 4545 H 406.412 -2.46201 3.35819 0
M  V30 4546 H 409.009 -4.9287 2.07323 0
M  V30 4547 H 409.352 -4.12502 0.561025 0
M  V30 4548 H 409.885 -3.38472 2.09001 0
M  V30 4549 H 406.624 -4.30559 4.94267 0
M  V30 4550 H 406.144 -4.96664 3.36281 0
M  V30 4551 H 407.823 -5.1382 3.93189 0
M  V30 4552 N 407.956 -0.998596 -1.21925 0
M  V30 4553 C 408.886 -0.573688 -2.26343 0
M  V30 4554 C 409.867 0.402296 -1.65274 0
M  V30 4555 O 411.052 0.291683 -1.91997 0
M  V30 4556 C 408.182 0.106839 -3.47136 0
M  V30 4557 C 407.136 -0.788269 -4.20678 0
M  V30 4558 C 406.462 0.0254927 -5.34694 0
M  V30 4559 C 407.762 -2.08784 -4.78755 0
M  V30 4560 H 409.456 -1.44651 -2.62138 0
M  V30 4561 H 407.002 -0.696975 -1.26009 0
M  V30 4562 H 408.955 0.415531 -4.19346 0
M  V30 4563 H 407.679 1.01424 -3.10452 0
M  V30 4564 H 406.338 -1.08069 -3.50309 0
M  V30 4565 H 405.986 0.933989 -4.94253 0
M  V30 4566 H 405.686 -0.570437 -5.84825 0
M  V30 4567 H 407.21 0.328147 -6.09718 0
M  V30 4568 H 408.624 -1.84272 -5.42878 0
M  V30 4569 H 407.021 -2.63307 -5.39249 0
M  V30 4570 H 408.091 -2.76284 -3.98491 0
M  V30 4571 N 409.434 1.37368 -0.772513 0
M  V30 4572 C 410.68 1.99969 -0.337681 0
M  V30 4573 C 411.013 1.61184 1.08321 0
M  V30 4574 O 410.288 0.858395 1.74533 0
M  V30 4575 C 410.571 3.56858 -0.482121 0
M  V30 4576 C 410.424 4.0555 -1.94549 0
M  V30 4577 C 411.743 4.39955 0.113143 0
M  V30 4578 H 408.862 0.726464 -0.124171 0
M  V30 4579 H 411.504 1.63034 -0.975699 0
M  V30 4580 H 409.654 3.88452 0.0610361 0
M  V30 4581 H 411.326 3.84518 -2.54841 0
M  V30 4582 H 409.569 3.57715 -2.45403 0
M  V30 4583 H 410.24 5.14587 -1.9976 0
M  V30 4584 H 412.716 4.14623 -0.35031 0
M  V30 4585 H 411.592 5.48897 -0.0180514 0
M  V30 4586 H 411.853 4.25403 1.20354 0
M  V30 4587 N 410.912 0.523116 1.48665 0
M  V30 4588 C 412.159 -0.0134763 2.02496 0
M  V30 4589 C 412.487 -1.3493 1.40086 0
M  V30 4590 O 411.742 -1.88286 0.533567 0
M  V30 4591 C 412.041 -0.191671 3.56886 0
M  V30 4592 C 411.707 1.06893 4.38046 0
M  V30 4593 C 410.369 1.41443 4.59943 0
M  V30 4594 C 412.721 1.90584 4.85106 0
M  V30 4595 C 410.049 2.59594 5.26144 0
M  V30 4596 C 412.401 3.07907 5.52609 0
M  V30 4597 C 411.065 3.42811 5.72745 0
M  V30 4598 H 410.335 -0.00493133 0.740984 0
M  V30 4599 H 412.982 0.687751 1.78724 0
M  V30 4600 H 411.287 -0.97561 3.79459 0
M  V30 4601 H 412.984 -0.621659 3.96152 0
M  V30 4602 H 409.574 0.789848 4.21259 0
M  V30 4603 H 413.758 1.65203 4.67997 0
M  V30 4604 H 409.014 2.86847 5.39934 0
M  V30 4605 H 413.188 3.73066 5.88043 0
M  V30 4606 H 410.815 4.34462 6.23816 0
M  V30 4607 N 412.39 -1.55475 0.257931 0
M  V30 4608 C 413.62 -2.03314 -0.367026 0
M  V30 4609 C 414.028 -1.13625 -1.51281 0
M  V30 4610 O 413.371 -0.145334 -1.83124 0
M  V30 4611 C 413.433 -3.47362 -0.926284 0
M  V30 4612 C 413.097 -4.56914 0.0886584 0
M  V30 4613 C 414.094 -5.12013 0.902123 0
M  V30 4614 C 411.779 -5.01827 0.217936 0
M  V30 4615 C 413.773 -6.10529 1.83122 0
M  V30 4616 C 411.46 -6.00172 1.15052 0
M  V30 4617 C 412.458 -6.54402 1.95568 0
M  V30 4618 O 412.146 -7.50827 2.87253 0
M  V30 4619 H 411.878 -0.669976 -0.0900443 0
M  V30 4620 H 414.432 -2.01804 0.382673 0
M  V30 4621 H 412.662 -3.46056 -1.72575 0
M  V30 4622 H 414.351 -3.78637 -1.46249 0
M  V30 4623 H 415.117 -4.78139 0.812891 0
M  V30 4624 H 410.996 -4.59272 -0.398721 0
M  V30 4625 H 414.54 -6.52783 2.46008 0
M  V30 4626 H 410.437 -6.33465 1.24064 0
M  V30 4627 H 411.205 -7.68483 2.81739 0
M  V30 4628 N 413.868 0.0150385 -1.57593 0
M  V30 4629 C 414.798 1.01047 -2.10503 0
M  V30 4630 C 415.779 1.36816 -1.01071 0
M  V30 4631 O 416.964 1.45455 -1.28672 0
M  V30 4632 C 414.094 2.30708 -2.59598 0
M  V30 4633 C 413.048 2.09142 -3.73421 0
M  V30 4634 C 412.374 3.44685 -4.08774 0
M  V30 4635 C 413.674 1.46619 -5.01298 0
M  V30 4636 H 415.368 0.569978 -2.93925 0
M  V30 4637 H 412.914 0.272724 -1.41394 0
M  V30 4638 H 414.867 3.00687 -2.95238 0
M  V30 4639 H 413.591 2.76843 -1.73279 0
M  V30 4640 H 412.25 1.41592 -3.38153 0
M  V30 4641 H 411.898 3.88495 -3.195 0
M  V30 4642 H 411.598 3.31077 -4.8545 0
M  V30 4643 H 413.122 4.16004 -4.4696 0
M  V30 4644 H 414.536 2.06535 -5.34805 0
M  V30 4645 H 412.933 1.43544 -5.82679 0
M  V30 4646 H 414.003 0.433611 -4.82957 0
M  V30 4647 N 415.346 1.54954 0.287554 0
M  V30 4648 C 416.757 1.65732 0.859634 0
M  V30 4649 C 417.108 0.574767 1.87592 0
M  V30 4650 O 416.233 -0.286299 2.14498 0
M  V30 4651 C 416.828 3.00438 1.56597 0
M  V30 4652 C 415.387 3.13292 2.08627 0
M  V30 4653 C 414.534 2.61473 0.923416 0
M  V30 4654 H 417.485 1.5857 0.0642338 0
M  V30 4655 H 417.506 2.92613 2.43224 0
M  V30 4656 H 417.018 3.79207 0.826053 0
M  V30 4657 H 415.119 2.39268 2.85625 0
M  V30 4658 H 415.232 4.19647 2.31157 0
M  V30 4659 H 413.596 2.18264 1.31275 0
M  V30 4660 H 414.379 3.42733 0.197241 0
M  V30 4661 N 416.824 -0.551391 1.4764 0
M  V30 4662 C 418.049 -1.33837 1.58437 0
M  V30 4663 C 418.474 -1.866 0.237063 0
M  V30 4664 O 417.832 -1.6328 -0.787994 0
M  V30 4665 C 417.88 -2.48014 2.61766 0
M  V30 4666 O 416.984 -3.50419 2.1744 0
M  V30 4667 H 416.325 -0.397299 0.532024 0
M  V30 4668 H 418.855 -0.665759 1.93465 0
M  V30 4669 H 418.865 -2.94503 2.82369 0
M  V30 4670 H 417.54 -2.08969 3.5959 0
M  V30 4671 H 416.117 -3.10196 2.06961 0
M  V30 4672 N 418.302 -1.35869 -0.798587 0
M  V30 4673 C 419.579 -1.20145 -1.54352 0
M  V30 4674 C 419.959 0.216161 -2.0999 0
M  V30 4675 O 419.307 1.22068 -1.93162 0
M  V30 4676 C 419.517 -2.27602 -2.64572 0
M  V30 4677 C 420.865 -2.63811 -3.32699 0
M  V30 4678 O 421.889 -2.26576 -2.74849 0
M  V30 4679 O 420.748 -3.27866 -4.37226 0
M  V30 4680 H 417.842 -0.467248 -0.682355 0
M  V30 4681 H 420.388 -1.47574 -0.837859 0
M  V30 4682 H 419.16 -3.2265 -2.21388 0
M  V30 4683 H 418.783 -2.01488 -3.42766 0
M  V30 4684 N 419.78 1.02168 -1.19998 0
M  V30 4685 C 421.005 1.79833 -1.03319 0
M  V30 4686 C 421.43 1.83504 0.413281 0
M  V30 4687 O 420.788 1.26635 1.29743 0
M  V30 4688 C 420.836 3.22396 -1.61533 0
M  V30 4689 O 419.94 4.03555 -0.849519 0
M  V30 4690 H 419.281 0.554872 -0.364709 0
M  V30 4691 H 421.811 1.28542 -1.59179 0
M  V30 4692 H 421.821 3.73124 -1.65054 0
M  V30 4693 H 420.496 3.19039 -2.66809 0
M  V30 4694 H 419.073 3.62169 -0.888129 0
M  V30 4695 N 421.258 1.00505 1.21394 0
M  V30 4696 C 422.506 0.686415 1.90086 0
M  V30 4697 C 422.827 -0.785264 1.7849 0
M  V30 4698 O 422.097 -1.56387 1.17983 0
M  V30 4699 H 420.677 0.2509 0.703604 0
M  V30 4700 H 423.339 1.27417 1.47482 0
M  V30 4701 H 422.435 0.959621 2.96981 0
M  V30 4702 N 422.737 -1.36956 0.779787 0
M  V30 4703 C 423.647 -2.33965 0.172491 0
M  V30 4704 C 424.663 -1.60574 -0.670222 0
M  V30 4705 O 425.839 -1.92617 -0.588263 0
M  V30 4706 C 422.904 -3.39761 -0.690173 0
M  V30 4707 C 421.965 -4.28964 0.169924 0
M  V30 4708 C 421.198 -5.29707 -0.651662 0
M  V30 4709 O 421.421 -5.38238 -1.88827 0
M  V30 4710 O 420.355 -6.01873 -0.0566264 0
M  V30 4711 H 424.181 -2.87647 0.974321 0
M  V30 4712 H 421.766 -1.39258 0.541078 0
M  V30 4713 H 423.648 -4.04471 -1.1824 0
M  V30 4714 H 422.323 -2.88394 -1.47006 0
M  V30 4715 H 421.23 -3.67326 0.708696 0
M  V30 4716 H 422.563 -4.83656 0.913085 0
M  V30 4717 N 424.215 -0.530993 -1.48385 0
M  V30 4718 C 425.162 0.231223 -2.29639 0
M  V30 4719 C 426.132 0.932864 -1.37429 0
M  V30 4720 O 427.317 0.933692 -1.66394 0
M  V30 4721 C 424.457 1.27155 -3.2082 0
M  V30 4722 C 423.57 0.578655 -4.28107 0
M  V30 4723 C 422.705 1.602 -5.06467 0
M  V30 4724 C 421.744 0.892625 -6.05556 0
M  V30 4725 N 420.881 1.86157 -6.76971 0
M  V30 4726 H 425.721 -0.467848 -2.94305 0
M  V30 4727 H 423.258 -0.242556 -1.45086 0
M  V30 4728 H 425.216 1.88703 -3.72085 0
M  V30 4729 H 423.846 1.939 -2.58075 0
M  V30 4730 H 422.898 -0.150782 -3.80101 0
M  V30 4731 H 424.21 0.0217065 -4.98795 0
M  V30 4732 H 423.364 2.29173 -5.61751 0
M  V30 4733 H 422.103 2.19285 -4.35621 0
M  V30 4734 H 421.108 0.188829 -5.49476 0
M  V30 4735 H 422.333 0.307878 -6.78402 0
M  V30 4736 H 420.279 2.44147 -6.08875 0
M  V30 4737 H 420.196 1.35608 -7.43738 0
M  V30 4738 H 421.464 2.54325 -7.36844 0
M  V30 4739 N 425.693 1.55336 -0.266172 0
M  V30 4740 C 426.939 1.99692 0.353681 0
M  V30 4741 C 427.272 1.1543 1.56172 0
M  V30 4742 O 426.547 0.222218 1.93226 0
M  V30 4743 C 426.83 3.52316 0.74466 0
M  V30 4744 C 426.683 4.47337 -0.470101 0
M  V30 4745 C 428.002 4.10588 1.58447 0
M  V30 4746 H 425.121 0.725961 0.12708 0
M  V30 4747 H 427.763 1.86336 -0.371333 0
M  V30 4748 H 425.913 3.63829 1.36239 0
M  V30 4749 H 427.585 4.4778 -1.10864 0
M  V30 4750 H 425.828 4.19364 -1.10978 0
M  V30 4751 H 426.499 5.51788 -0.15291 0
M  V30 4752 H 428.975 4.02297 1.06286 0
M  V30 4753 H 427.851 5.17607 1.82686 0
M  V30 4754 H 428.112 3.60253 2.56262 0
M  V30 4755 N 427.171 -0.0066808 1.57599 0
M  V30 4756 C 428.399 -0.704087 1.94551 0
M  V30 4757 C 428.814 -1.67677 0.867746 0
M  V30 4758 O 428.171 -1.8185 -0.153925 0
M  V30 4759 C 428.222 -1.44177 3.31505 0
M  V30 4760 O 427.943 -0.508097 4.35144 0
M  V30 4761 C 429.444 -2.23429 3.82876 0
M  V30 4762 H 426.664 -0.196523 0.641576 0
M  V30 4763 H 429.208 0.042453 2.04456 0
M  V30 4764 H 427.363 -2.13999 3.22929 0
M  V30 4765 H 427.777 -1.02782 5.14331 0
M  V30 4766 H 429.251 -2.70552 4.8115 0
M  V30 4767 H 429.728 -3.05818 3.15233 0
M  V30 4768 H 430.334 -1.58636 3.94607 0
M  V30 4769 N 428.649 -1.55105 -0.279332 0
M  V30 4770 C 429.579 -1.90557 -1.34945 0
M  V30 4771 C 430.56 -0.766738 -1.51839 0
M  V30 4772 O 431.745 -1.02434 -1.64988 0
M  V30 4773 C 428.875 -2.17193 -2.71006 0
M  V30 4774 C 427.829 -3.33021 -2.68851 0
M  V30 4775 C 427.155 -3.45123 -4.08405 0
M  V30 4776 C 428.455 -4.69578 -2.28678 0
M  V30 4777 H 430.149 -2.80188 -1.05522 0
M  V30 4778 H 427.695 -1.34811 -0.506173 0
M  V30 4779 H 429.648 -2.40581 -3.45975 0
M  V30 4780 H 428.372 -1.24355 -3.01999 0
M  V30 4781 H 427.031 -3.0959 -1.9634 0
M  V30 4782 H 426.679 -2.49762 -4.3661 0
M  V30 4783 H 426.379 -4.22995 -4.07859 0
M  V30 4784 H 427.903 -3.70796 -4.85121 0
M  V30 4785 H 429.317 -4.92553 -2.93368 0
M  V30 4786 H 427.714 -5.5032 -2.39306 0
M  V30 4787 H 428.784 -4.68828 -1.23807 0
M  V30 4788 N 430.127 0.543554 -1.4793 0
M  V30 4789 C 431.367 1.31072 -1.56843 0
M  V30 4790 C 431.731 1.90604 -0.231124 0
M  V30 4791 O 432.932 2.68091 -0.195165 0
M  V30 4792 C 431.203 2.38106 -2.66533 0
M  V30 4793 S 432.762 3.24729 -2.95122 0
M  V30 4794 H 429.58 0.446035 -0.553691 0
M  V30 4795 H 432.182 0.620777 -1.85382 0
M  V30 4796 H 430.886 1.92828 -3.62278 0
M  V30 4797 H 430.417 3.11824 -2.39852 0
M  V30 4798 H 432.432 4.37891 -2.3338 0
M  V30 4799 N 431.605 1.3629 0.791371 0
M  V30 4800 C 432.854 1.29742 1.54434 0
M  V30 4801 C 433.167 -0.121729 1.95221 0
M  V30 4802 O 434.373 -0.309579 2.69729 0
M  V30 4803 C 432.829 2.27623 2.78776 0
M  V30 4804 C 432.437 3.74963 2.45166 0
M  V30 4805 C 434.181 2.30047 3.56761 0
M  V30 4806 C 432.088 4.64626 3.65891 0
M  V30 4807 H 431.018 0.482113 0.579727 0
M  V30 4808 H 433.669 1.61642 0.868565 0
M  V30 4809 H 432.051 1.88714 3.48142 0
M  V30 4810 H 433.225 4.22596 1.83709 0
M  V30 4811 H 431.54 3.75295 1.80396 0
M  V30 4812 H 434.137 2.94247 4.46456 0
M  V30 4813 H 434.48 1.30846 3.95203 0
M  V30 4814 H 435.013 2.67563 2.94372 0
M  V30 4815 H 431.752 5.64883 3.32547 0
M  V30 4816 H 431.272 4.2171 4.26521 0
M  V30 4817 H 432.951 4.80801 4.32943 0
M  V30 4818 N 433.083 -1.0153 1.20538 0
M  V30 4819 C 434.308 -1.79283 1.04271 0
M  V30 4820 C 434.733 -1.8372 -0.403544 0
M  V30 4821 O 434.091 -1.27321 -1.2907 0
M  V30 4822 C 434.139 -3.21535 1.63241 0
M  V30 4823 O 433.243 -4.03099 0.870908 0
M  V30 4824 H 432.584 -0.55293 0.367647 0
M  V30 4825 H 435.114 -1.27696 1.59859 0
M  V30 4826 H 435.124 -3.72243 1.6703 0
M  V30 4827 H 433.799 -3.1762 2.68497 0
M  V30 4828 H 432.376 -3.61693 0.907323 0
M  V30 4829 N 434.561 -1.01147 -1.20859 0
M  V30 4830 C 435.81 -0.693214 -1.89413 0
M  V30 4831 C 436.123 0.779969 -1.79376 0
M  V30 4832 O 437.329 1.21057 -2.43017 0
M  V30 4833 C 435.785 -1.18949 -3.39675 0
M  V30 4834 C 435.393 -2.68921 -3.58309 0
M  V30 4835 C 437.137 -0.94642 -4.13815 0
M  V30 4836 C 435.044 -3.12056 -5.0237 0
M  V30 4837 H 433.974 -0.255595 -0.709357 0
M  V30 4838 H 436.625 -1.22349 -1.36759 0
M  V30 4839 H 435.007 -0.587228 -3.91622 0
M  V30 4840 H 436.181 -3.34652 -3.16772 0
M  V30 4841 H 434.496 -2.91314 -2.97532 0
M  V30 4842 H 437.093 -1.24417 -5.20023 0
M  V30 4843 H 437.436 0.117219 -4.16135 0
M  V30 4844 H 437.969 -1.5118 -3.67953 0
M  V30 4845 H 434.708 -4.17674 -5.05202 0
M  V30 4846 H 434.228 -2.51041 -5.44737 0
M  V30 4847 H 435.907 -3.04403 -5.70918 0
M  V30 4848 N 436.039 1.36541 -0.78704 0
M  V30 4849 C 436.969 2.32659 -0.197992 0
M  V30 4850 C 437.95 1.56533 0.665697 0
M  V30 4851 O 439.135 1.84698 0.60001 0
M  V30 4852 C 436.265 3.40778 0.669901 0
M  V30 4853 C 435.219 4.27897 -0.0937039 0
M  V30 4854 C 434.545 5.27163 0.894629 0
M  V30 4855 C 435.845 5.06334 -1.28154 0
M  V30 4856 H 437.539 2.82171 -1.00099 0
M  V30 4857 H 435.085 1.35665 -0.482793 0
M  V30 4858 H 437.038 4.07008 1.09191 0
M  V30 4859 H 435.762 2.89827 1.50558 0
M  V30 4860 H 434.421 3.6322 -0.49666 0
M  V30 4861 H 434.069 4.72486 1.72527 0
M  V30 4862 H 433.769 5.86317 0.388149 0
M  V30 4863 H 435.293 5.96266 1.31525 0
M  V30 4864 H 436.707 5.65617 -0.93541 0
M  V30 4865 H 435.104 5.74888 -1.72115 0
M  V30 4866 H 436.174 4.38114 -2.07807 0
M  V30 4867 N 437.518 0.538854 1.48102 0
M  V30 4868 C 438.764 0.00801365 2.02798 0
M  V30 4869 C 439.097 -1.3309 1.41424 0
M  V30 4870 O 438.372 -1.86169 0.563158 0
M  V30 4871 C 438.655 -0.104589 3.59948 0
M  V30 4872 C 438.508 1.26012 4.31788 0
M  V30 4873 C 439.827 -0.827055 4.32259 0
M  V30 4874 H 436.946 0.00438624 0.736987 0
M  V30 4875 H 439.588 0.6976 1.7673 0
M  V30 4876 H 437.738 -0.691893 3.82289 0
M  V30 4877 H 439.41 1.88922 4.2084 0
M  V30 4878 H 437.653 1.83968 3.92859 0
M  V30 4879 H 438.324 1.13424 5.40221 0
M  V30 4880 H 440.8 -0.328578 4.14801 0
M  V30 4881 H 439.676 -0.87476 5.41885 0
M  V30 4882 H 439.937 -1.87927 4.0017 0
M  V30 4883 N 438.996 -1.55193 0.274407 0
M  V30 4884 C 439.959 -2.212 -0.600279 0
M  V30 4885 C 440.959 -1.18963 -1.08187 0
M  V30 4886 O 442.149 -1.43873 -0.982158 0
M  V30 4887 C 439.281 -2.87739 -1.82809 0
M  V30 4888 H 440.474 -2.9989 -0.0239682 0
M  V30 4889 H 438.027 -1.5628 0.0250192 0
M  V30 4890 H 438.762 -2.13058 -2.44493 0
M  V30 4891 H 438.547 -3.62658 -1.49069 0
M  V30 4892 H 440.037 -3.38171 -2.45011 0
M  V30 4893 N 440.474 -0.00167713 -1.576 0
M  V30 4894 C 441.404 0.988091 -2.11563 0
M  V30 4895 C 442.385 1.35736 -1.02517 0
M  V30 4896 O 443.57 1.44082 -1.30208 0
M  V30 4897 C 440.7 2.27941 -2.62031 0
M  V30 4898 C 439.654 2.0517 -3.75619 0
M  V30 4899 C 438.98 3.4033 -4.12407 0
M  V30 4900 C 440.28 1.41294 -5.02825 0
M  V30 4901 H 441.974 0.538771 -2.94513 0
M  V30 4902 H 439.52 0.257712 -1.41675 0
M  V30 4903 H 441.473 2.97539 -2.9841 0
M  V30 4904 H 440.197 2.74989 -1.76205 0
M  V30 4905 H 438.856 1.37998 -3.39635 0
M  V30 4906 H 438.504 3.85085 -3.23603 0
M  V30 4907 H 438.204 3.25909 -4.88935 0
M  V30 4908 H 439.728 4.1124 -4.51347 0
M  V30 4909 H 441.142 2.00851 -5.36965 0
M  V30 4910 H 439.539 1.37356 -5.84169 0
M  V30 4911 H 440.609 0.382362 -4.8339 0
M  V30 4912 N 441.952 1.55251 0.271103 0
M  V30 4913 C 443.18 1.79974 1.02064 0
M  V30 4914 C 443.595 0.574003 1.79863 0
M  V30 4915 O 442.952 -0.456962 1.76686 0
M  V30 4916 C 443.003 3.02603 1.97772 0
M  V30 4917 O 442.724 4.20443 1.23124 0
M  V30 4918 C 444.225 3.39944 2.84522 0
M  V30 4919 H 441.445 0.599489 0.301419 0
M  V30 4920 H 443.989 2.02268 0.301313 0
M  V30 4921 H 442.144 2.8243 2.65165 0
M  V30 4922 H 442.558 4.89783 1.87651 0
M  V30 4923 H 444.032 4.28915 3.47471 0
M  V30 4924 H 444.509 2.59432 3.54389 0
M  V30 4925 H 445.115 3.62383 2.22618 0
M  V30 4926 N 443.43 -0.535701 1.48216 0
M  V30 4927 C 444.679 -1.28828 1.55197 0
M  V30 4928 C 444.992 -1.94263 0.228278 0
M  V30 4929 O 446.198 -2.70927 0.176278 0
M  V30 4930 C 444.654 -2.33727 2.73678 0
M  V30 4931 C 444.262 -1.74386 4.12666 0
M  V30 4932 C 446.006 -3.1003 2.89968 0
M  V30 4933 C 443.913 -2.77192 5.22416 0
M  V30 4934 H 442.843 -0.484484 0.577747 0
M  V30 4935 H 445.494 -0.56646 1.74538 0
M  V30 4936 H 443.876 -3.08919 2.4776 0
M  V30 4937 H 445.05 -1.05421 4.48579 0
M  V30 4938 H 443.365 -1.10595 4.01445 0
M  V30 4939 H 445.962 -3.86842 3.6913 0
M  V30 4940 H 446.305 -3.65542 1.9921 0
M  V30 4941 H 446.838 -2.41952 3.15759 0
M  V30 4942 H 443.577 -2.26507 6.15122 0
M  V30 4943 H 443.097 -3.44502 4.90998 0
M  V30 4944 H 444.776 -3.40285 5.50286 0
M  V30 4945 N 444.908 -1.36708 -0.784132 0
M  V30 4946 C 446.155 -1.31231 -1.54222 0
M  V30 4947 C 446.483 0.106864 -1.94206 0
M  V30 4948 O 445.738 1.07734 -1.63376 0
M  V30 4949 C 446.037 -2.18571 -2.82774 0
M  V30 4950 C 445.703 -3.67039 -2.61903 0
M  V30 4951 C 444.365 -4.07503 -2.55919 0
M  V30 4952 C 446.717 -4.61149 -2.4288 0
M  V30 4953 C 444.045 -5.40211 -2.28886 0
M  V30 4954 C 446.397 -5.94081 -2.17373 0
M  V30 4955 C 445.061 -6.33664 -2.09825 0
M  V30 4956 H 444.331 -0.48021 -0.56434 0
M  V30 4957 H 446.978 -1.68807 -0.904233 0
M  V30 4958 H 445.283 -1.73949 -3.51068 0
M  V30 4959 H 446.98 -2.11655 -3.40592 0
M  V30 4960 H 443.57 -3.34941 -2.67418 0
M  V30 4961 H 447.754 -4.30756 -2.46501 0
M  V30 4962 H 443.01 -5.69855 -2.21529 0
M  V30 4963 H 447.184 -6.66566 -2.01649 0
M  V30 4964 H 444.811 -7.36423 -1.88641 0
M  V30 4965 N 446.386 1.0089 -1.21074 0
M  V30 4966 C 447.633 1.74607 -1.0256 0
M  V30 4967 C 447.961 1.89426 0.44136 0
M  V30 4968 O 447.216 1.42266 1.34384 0
M  V30 4969 C 447.515 3.16335 -1.66334 0
M  V30 4970 C 447.181 3.21474 -3.16173 0
M  V30 4971 C 445.843 3.22583 -3.57062 0
M  V30 4972 C 448.195 3.19025 -4.12156 0
M  V30 4973 C 445.523 3.18925 -4.92446 0
M  V30 4974 C 447.875 3.16909 -5.47496 0
M  V30 4975 C 446.539 3.16326 -5.87787 0
M  V30 4976 H 445.809 0.638933 -0.375294 0
M  V30 4977 H 448.456 1.18274 -1.50611 0
M  V30 4978 H 446.761 3.75876 -1.10566 0
M  V30 4979 H 448.458 3.72083 -1.49516 0
M  V30 4980 H 445.048 3.2135 -2.83605 0
M  V30 4981 H 449.232 3.17332 -3.81595 0
M  V30 4982 H 444.488 3.16809 -5.22917 0
M  V30 4983 H 448.662 3.13968 -6.21609 0
M  V30 4984 H 446.289 3.13246 -6.92662 0
M  V30 4985 N 447.864 1.01787 1.20321 0
M  V30 4986 C 448.794 0.609625 2.25401 0
M  V30 4987 C 449.775 -0.375951 1.65893 0
M  V30 4988 O 450.96 -0.261101 1.92437 0
M  V30 4989 C 448.09 -0.0515995 3.47262 0
M  V30 4990 C 447.044 0.855095 4.19371 0
M  V30 4991 C 446.37 0.0595757 5.34667 0
M  V30 4992 C 447.67 2.16374 4.75373 0
M  V30 4993 H 449.364 1.48803 2.59804 0
M  V30 4994 H 446.91 0.716934 1.24884 0
M  V30 4995 H 448.863 -0.348764 4.19954 0
M  V30 4996 H 447.587 -0.964726 3.12027 0
M  V30 4997 H 446.246 1.13628 3.48546 0
M  V30 4998 H 445.894 -0.85524 4.95676 0
M  V30 4999 H 445.594 0.663406 5.83843 0
M  V30 5000 H 447.118 -0.231105 6.10162 0
M  V30 5001 H 448.532 1.92885 5.39878 0
M  V30 5002 H 446.929 2.71853 5.34991 0
M  V30 5003 H 447.999 2.82589 3.94045 0
M  V30 5004 N 449.342 -1.36122 0.79427 0
M  V30 5005 C 450.272 -2.32551 0.210328 0
M  V30 5006 C 451.253 -1.56884 -0.657386 0
M  V30 5007 O 452.438 -1.85014 -0.590207 0
M  V30 5008 C 449.568 -3.41128 -0.651819 0
M  V30 5009 C 448.522 -4.27842 0.116395 0
M  V30 5010 C 447.848 -5.2763 -0.86666 0
M  V30 5011 C 449.148 -5.05647 1.30837 0
M  V30 5012 H 450.842 -2.81636 1.01594 0
M  V30 5013 H 448.388 -1.35407 0.489981 0
M  V30 5014 H 450.341 -4.07581 -1.07031 0
M  V30 5015 H 449.065 -2.90622 -1.49019 0
M  V30 5016 H 447.724 -3.62952 0.515915 0
M  V30 5017 H 447.372 -4.73395 -1.70019 0
M  V30 5018 H 447.072 -5.86514 -0.35705 0
M  V30 5019 H 448.596 -5.96955 -1.28361 0
M  V30 5020 H 450.01 -5.65113 0.965393 0
M  V30 5021 H 448.407 -5.73967 1.75161 0
M  V30 5022 H 449.477 -4.37006 2.10128 0
M  V30 5023 N 450.82 -0.546701 -1.47814 0
M  V30 5024 C 451.75 0.195317 -2.32682 0
M  V30 5025 C 452.731 0.918981 -1.43139 0
M  V30 5026 O 453.916 0.901501 -1.72008 0
M  V30 5027 C 451.046 1.23237 -3.247 0
M  V30 5028 C 450 0.625818 -4.234 0
M  V30 5029 C 449.326 1.76674 -5.04669 0
M  V30 5030 C 450.626 -0.413515 -5.2066 0
M  V30 5031 H 452.32 -0.513184 -2.94969 0
M  V30 5032 H 449.866 -0.248241 -1.41844 0
M  V30 5033 H 451.819 1.75955 -3.82907 0
M  V30 5034 H 450.543 1.97067 -2.60446 0
M  V30 5035 H 449.202 0.120023 -3.66403 0
M  V30 5036 H 448.85 2.49383 -4.36826 0
M  V30 5037 H 448.55 1.36673 -5.71484 0
M  V30 5038 H 450.074 2.29738 -5.65732 0
M  V30 5039 H 451.488 0.0272042 -5.73294 0
M  V30 5040 H 449.885 -0.731825 -5.95621 0
M  V30 5041 H 450.955 -1.31325 -4.66778 0
M  V30 5042 N 452.299 1.55045 -0.282633 0
M  V30 5043 C 453.527 2.04168 0.33512 0
M  V30 5044 C 453.942 1.16071 1.48906 0
M  V30 5045 O 453.299 0.182391 1.81586 0
M  V30 5046 C 453.35 3.52332 0.808957 0
M  V30 5047 O 453.071 4.37078 -0.299038 0
M  V30 5048 C 454.572 4.17375 1.49375 0
M  V30 5049 H 451.792 0.666744 0.0754543 0
M  V30 5050 H 454.336 2.00205 -0.416918 0
M  V30 5051 H 452.491 3.56715 1.51106 0
M  V30 5052 H 452.905 5.24458 0.0665514 0
M  V30 5053 H 454.379 5.22627 1.77664 0
M  V30 5054 H 454.856 3.65999 2.42778 0
M  V30 5055 H 455.462 4.17016 0.835305 0
M  V30 5056 N 453.777 0.010035 1.57597 0
M  V30 5057 C 454.687 -0.994226 2.12491 0
M  V30 5058 C 455.703 -1.37013 1.07254 0
M  V30 5059 O 456.879 -1.45542 1.3921 0
M  V30 5060 C 453.944 -2.2642 2.62555 0
M  V30 5061 C 453.005 -1.95049 3.82432 0
M  V30 5062 C 452.238 -3.15991 4.30099 0
M  V30 5063 O 452.461 -4.28015 3.7704 0
M  V30 5064 O 451.395 -2.99403 5.22151 0
M  V30 5065 H 455.221 -0.557549 2.98538 0
M  V30 5066 H 452.806 -0.209413 1.47925 0
M  V30 5067 H 454.688 -3.01009 2.9491 0
M  V30 5068 H 453.363 -2.69306 1.796 0
M  V30 5069 H 452.27 -1.17904 3.55034 0
M  V30 5070 H 453.603 -1.56992 4.66491 0
M  V30 5071 N 455.255 -1.55392 -0.262866 0
M  V30 5072 C 456.504 -1.75679 -0.990943 0
M  V30 5073 C 456.817 -0.57097 -1.87081 0
M  V30 5074 O 458.023 -0.656486 -2.63444 0
M  V30 5075 C 456.479 -3.10964 -1.81188 0
M  V30 5076 C 456.087 -4.37146 -0.980188 0
M  V30 5077 C 457.831 -3.40597 -2.53365 0
M  V30 5078 C 455.738 -5.63466 -1.7961 0
M  V30 5079 H 454.668 -0.654868 -0.373716 0
M  V30 5080 H 457.319 -1.81841 -0.246203 0
M  V30 5081 H 455.701 -2.98867 -2.59797 0
M  V30 5082 H 456.875 -4.60187 -0.237558 0
M  V30 5083 H 455.19 -4.14731 -0.372497 0
M  V30 5084 H 457.787 -4.32186 -3.14833 0
M  V30 5085 H 458.13 -2.6119 -3.24169 0
M  V30 5086 H 458.663 -3.53838 -1.81779 0
M  V30 5087 H 455.402 -6.4565 -1.13209 0
M  V30 5088 H 454.922 -5.44552 -2.51443 0
M  V30 5089 H 456.601 -6.02139 -2.36723 0
M  V30 5090 N 456.733 0.527833 -1.48498 0
M  V30 5091 C 457.982 1.28003 -1.55878 0
M  V30 5092 C 458.295 1.9414 -0.238577 0
M  V30 5093 O 459.501 2.7083 -0.190643 0
M  V30 5094 C 457.957 2.32272 -2.74914 0
M  V30 5095 C 457.565 1.72196 -4.13585 0
M  V30 5096 C 459.309 3.08488 -2.91608 0
M  V30 5097 C 457.216 2.74417 -5.23879 0
M  V30 5098 H 456.146 0.481413 -0.580308 0
M  V30 5099 H 458.797 0.557195 -1.74836 0
M  V30 5100 H 457.179 3.07601 -2.49395 0
M  V30 5101 H 458.353 1.03041 -4.49132 0
M  V30 5102 H 456.668 1.08464 -4.02025 0
M  V30 5103 H 459.265 3.84879 -3.71177 0
M  V30 5104 H 459.608 3.64481 -2.01145 0
M  V30 5105 H 460.141 2.40274 -3.17038 0
M  V30 5106 H 456.88 2.23242 -6.16314 0
M  V30 5107 H 456.4 3.41893 -4.92818 0
M  V30 5108 H 458.079 3.37362 -5.52083 0
M  V30 5109 N 458.211 1.37122 0.776871 0
M  V30 5110 C 459.622 1.28667 1.35284 0
M  V30 5111 C 459.973 -0.0680035 1.96082 0
M  V30 5112 O 459.098 -0.969743 1.93455 0
M  V30 5113 C 459.693 2.32997 2.45963 0
M  V30 5114 C 458.252 2.28191 2.99342 0
M  V30 5115 C 457.399 2.17101 1.72517 0
M  V30 5116 H 460.35 1.47819 0.577527 0
M  V30 5117 H 460.371 1.97366 3.2531 0
M  V30 5118 H 459.883 3.3158 2.01684 0
M  V30 5119 H 457.984 1.33115 3.4801 0
M  V30 5120 H 458.097 3.21397 3.55304 0
M  V30 5121 H 456.461 1.63562 1.95242 0
M  V30 5122 H 457.244 3.17591 1.30348 0
M  V30 5123 N 459.689 -1.00246 1.21608 0
M  V30 5124 C 460.652 -2.07233 0.979133 0
M  V30 5125 C 461.652 -1.6072 -0.0508219 0
M  V30 5126 O 462.842 -1.73196 0.186712 0
M  V30 5127 C 459.974 -3.37546 0.477016 0
M  V30 5128 H 461.167 -2.29687 1.92831 0
M  V30 5129 H 458.72 -1.17261 1.03342 0
M  V30 5130 H 459.455 -3.20773 -0.476966 0
M  V30 5131 H 459.24 -3.72638 1.21997 0
M  V30 5132 H 460.73 -4.16285 0.331181 0
M  V30 5133 N 461.167 -1.02423 -1.1978 0
M  V30 5134 C 462.395 -0.737456 -1.93311 0
M  V30 5135 C 462.81 0.703023 -1.75223 0
M  V30 5136 O 462.167 1.47761 -1.07112 0
M  V30 5137 C 462.218 -1.0733 -3.45199 0
M  V30 5138 O 461.939 -2.4572 -3.62702 0
M  V30 5139 C 463.44 -0.80866 -4.35862 0
M  V30 5140 H 460.66 -0.2702 -0.614193 0
M  V30 5141 H 463.204 -1.36747 -1.52054 0
M  V30 5142 H 461.359 -0.488545 -3.84307 0
M  V30 5143 H 461.773 -2.58081 -4.56612 0
M  V30 5144 H 463.247 -1.09365 -5.41057 0
M  V30 5145 H 463.724 0.257025 -4.38447 0
M  V30 5146 H 464.33 -1.37592 -4.02428 0
M  V30 5147 N 462.645 1.35699 -0.801477 0
M  V30 5148 C 463.87 2.03687 -0.390678 0
M  V30 5149 C 464.295 1.60015 0.988778 0
M  V30 5150 O 463.653 0.774357 1.63931 0
M  V30 5151 C 463.701 3.57439 -0.476404 0
M  V30 5152 O 462.805 4.09208 0.512106 0
M  V30 5153 H 462.146 0.64344 -0.163956 0
M  V30 5154 H 464.676 1.73403 -1.08594 0
M  V30 5155 H 464.686 4.06544 -0.344357 0
M  V30 5156 H 463.361 3.88576 -1.48262 0
M  V30 5157 H 461.938 3.7134 0.340721 0
M  V30 5158 N 464.123 0.554532 1.47522 0
M  V30 5159 C 465.372 0.0273458 2.01681 0
M  V30 5160 C 465.685 -1.32962 1.43459 0
M  V30 5161 O 466.891 -1.94657 1.89265 0
M  V30 5162 C 465.347 -0.00159057 3.599 0
M  V30 5163 C 464.955 1.35197 4.27113 0
M  V30 5164 C 466.699 -0.476311 4.21819 0
M  V30 5165 C 464.606 1.28229 5.77331 0
M  V30 5166 H 463.536 0.00645269 0.753972 0
M  V30 5167 H 466.187 0.701985 1.69542 0
M  V30 5168 H 464.569 -0.741821 3.8899 0
M  V30 5169 H 465.743 2.1097 4.09668 0
M  V30 5170 H 464.058 1.76441 3.77171 0
M  V30 5171 H 466.655 -0.5468 5.31897 0
M  V30 5172 H 466.998 -1.4877 3.8881 0
M  V30 5173 H 467.531 0.20898 3.97251 0
M  V30 5174 H 464.27 2.26959 6.14955 0
M  V30 5175 H 463.79 0.566314 5.97121 0
M  V30 5176 H 465.469 0.983226 6.39485 0
M  V30 5177 N 465.601 -1.54893 0.290851 0
M  V30 5178 C 466.829 -2.04343 -0.324288 0
M  V30 5179 C 467.244 -1.16859 -1.48289 0
M  V30 5180 O 466.601 -0.192018 -1.81487 0
M  V30 5181 C 466.652 -3.52756 -0.79026 0
M  V30 5182 O 466.373 -4.36913 0.322213 0
M  V30 5183 C 467.874 -4.18161 -1.4716 0
M  V30 5184 H 465.094 -0.667135 -0.0719173 0
M  V30 5185 H 467.638 -1.99981 0.427529 0
M  V30 5186 H 465.793 -3.57511 -1.49213 0
M  V30 5187 H 466.207 -5.24486 -0.0387372 0
M  V30 5188 H 467.681 -5.23562 -1.7489 0
M  V30 5189 H 468.158 -3.67282 -2.40834 0
M  V30 5190 H 468.764 -4.17454 -0.813178 0
M  V30 5191 N 467.08 -0.0183926 -1.57589 0
M  V30 5192 C 468.01 0.965596 -2.12599 0
M  V30 5193 C 468.991 1.34641 -1.0395 0
M  V30 5194 O 470.176 1.42693 -1.31729 0
M  V30 5195 C 467.306 2.25149 -2.64434 0
M  V30 5196 C 466.26 2.01175 -3.77773 0
M  V30 5197 C 465.586 3.35937 -4.15994 0
M  V30 5198 C 466.886 1.35953 -5.04296 0
M  V30 5199 H 468.58 0.507504 -2.95067 0
M  V30 5200 H 466.126 0.242671 -1.41941 0
M  V30 5201 H 468.079 2.94357 -3.01549 0
M  V30 5202 H 466.803 2.73105 -1.79112 0
M  V30 5203 H 465.462 1.34388 -3.4108 0
M  V30 5204 H 465.11 3.81631 -3.27669 0
M  V30 5205 H 464.81 3.20705 -4.92364 0
M  V30 5206 H 466.334 4.0643 -4.55683 0
M  V30 5207 H 467.748 1.95144 -5.39065 0
M  V30 5208 H 466.145 1.31152 -5.85593 0
M  V30 5209 H 467.215 0.331071 -4.83768 0
M  V30 5210 N 468.558 1.5553 0.254621 0
M  V30 5211 C 469.969 1.67518 0.824286 0
M  V30 5212 C 470.32 0.614429 1.86331 0
M  V30 5213 O 469.445 -0.240736 2.15057 0
M  V30 5214 C 470.04 3.03692 1.50189 0
M  V30 5215 C 468.599 3.17646 2.01935 0
M  V30 5216 C 467.746 2.63373 0.867746 0
M  V30 5217 H 470.697 1.58671 0.0305843 0
M  V30 5218 H 470.718 2.97706 2.36962 0
M  V30 5219 H 470.23 3.80874 0.745431 0
M  V30 5220 H 468.331 2.45273 2.80485 0
M  V30 5221 H 468.444 4.24455 2.22204 0
M  V30 5222 H 466.808 2.20999 1.26616 0
M  V30 5223 H 467.591 3.43074 0.124498 0
M  V30 5224 N 470.036 -0.519951 1.48776 0
M  V30 5225 C 470.966 -1.63253 1.66945 0
M  V30 5226 C 471.947 -1.62014 0.518224 0
M  V30 5227 O 473.132 -1.79053 0.751919 0
M  V30 5228 C 470.262 -3.0181 1.71836 0
M  V30 5229 C 469.216 -3.17911 2.8656 0
M  V30 5230 C 468.542 -4.5763 2.76548 0
M  V30 5231 C 469.842 -2.99729 4.27738 0
M  V30 5232 H 471.536 -1.48302 2.6009 0
M  V30 5233 H 469.082 -0.712026 1.25165 0
M  V30 5234 H 471.035 -3.79525 1.83135 0
M  V30 5235 H 469.759 -3.17806 0.752775 0
M  V30 5236 H 468.418 -2.42616 2.74833 0
M  V30 5237 H 468.066 -4.70476 1.77937 0
M  V30 5238 H 467.766 -4.69346 3.53536 0
M  V30 5239 H 469.29 -5.37431 2.89828 0
M  V30 5240 H 470.704 -3.67228 4.40246 0
M  V30 5241 H 469.101 -3.22932 5.05801 0
M  V30 5242 H 470.171 -1.96047 4.43502 0
M  V30 5243 N 471.514 -1.37532 -0.769588 0
M  V30 5244 C 472.763 -1.32183 -1.5235 0
M  V30 5245 C 473.076 0.0906555 -1.9539 0
M  V30 5246 O 474.282 0.266628 -2.70188 0
M  V30 5247 C 472.738 -2.32029 -2.75119 0
M  V30 5248 C 472.346 -3.78816 -2.3917 0
M  V30 5249 C 474.09 -2.35694 -3.53056 0
M  V30 5250 C 471.997 -4.70388 -3.58453 0
M  V30 5251 H 470.927 -0.491275 -0.571984 0
M  V30 5252 H 473.578 -1.63004 -0.842739 0
M  V30 5253 H 471.96 -1.94229 -3.45096 0
M  V30 5254 H 473.134 -4.25466 -1.76962 0
M  V30 5255 H 471.449 -3.78117 -1.74402 0
M  V30 5256 H 474.046 -3.01312 -4.41718 0
M  V30 5257 H 474.389 -1.37117 -3.93071 0
M  V30 5258 H 474.922 -2.72212 -2.90078 0
M  V30 5259 H 471.661 -5.70102 -3.23518 0
M  V30 5260 H 471.181 -4.28442 -4.19758 0
M  V30 5261 H 472.86 -4.87628 -4.25239 0
M  V30 5262 N 472.992 0.995999 -1.22138 0
M  V30 5263 C 474.24 1.73167 -1.042 0
M  V30 5264 C 474.561 1.90329 0.42423 0
M  V30 5265 O 473.831 1.4607 1.30539 0
M  V30 5266 H 472.411 0.641593 -0.38258 0
M  V30 5267 H 475.073 1.19974 -1.53598 0
M  V30 5268 H 474.169 2.72734 -1.51731 0
M  V30 5269 N 474.47 1.03057 1.19235 0
M  V30 5270 C 475.417 0.612832 2.22515 0
M  V30 5271 C 476.387 -0.374224 1.61829 0
M  V30 5272 O 477.572 -0.270501 1.88873 0
M  V30 5273 C 474.712 -0.028475 3.45088 0
M  V30 5274 C 473.825 1.00483 4.20151 0
M  V30 5275 C 472.96 0.333102 5.30155 0
M  V30 5276 C 471.999 1.3522 5.96977 0
M  V30 5277 N 471.136 0.70616 6.9854 0
M  V30 5278 H 475.976 1.49812 2.57605 0
M  V30 5279 H 473.513 0.749658 1.26564 0
M  V30 5280 H 475.471 -0.417548 4.15105 0
M  V30 5281 H 474.101 -0.877334 3.10649 0
M  V30 5282 H 473.153 1.51194 3.49062 0
M  V30 5283 H 474.465 1.77929 4.65986 0
M  V30 5284 H 473.619 -0.110725 6.06599 0
M  V30 5285 H 472.358 -0.473547 4.85396 0
M  V30 5286 H 471.363 1.80627 5.19282 0
M  V30 5287 H 472.588 2.16037 6.4382 0
M  V30 5288 H 470.534 -0.0803667 6.55951 0
M  V30 5289 H 470.451 1.41848 7.42573 0
M  V30 5290 H 471.719 0.286391 7.78974 0
M  V30 5291 N 475.948 -1.35272 0.808662 0
M  V30 5292 C 477.178 -2.02652 0.401953 0
M  V30 5293 C 477.586 -1.6108 -0.992462 0
M  V30 5294 O 476.929 -0.804984 -1.65123 0
M  V30 5295 C 476.991 -3.57174 0.408246 0
M  V30 5296 C 476.655 -4.22019 1.75353 0
M  V30 5297 C 477.652 -4.43552 2.71215 0
M  V30 5298 C 475.337 -4.59093 2.03811 0
M  V30 5299 C 477.331 -5.01264 3.93717 0
M  V30 5300 C 475.018 -5.16519 3.26576 0
M  V30 5301 C 476.016 -5.37546 4.21347 0
M  V30 5302 O 475.704 -5.93761 5.41944 0
M  V30 5303 H 475.436 -0.656495 0.161216 0
M  V30 5304 H 477.99 -1.73829 1.0942 0
M  V30 5305 H 476.22 -3.85197 -0.340608 0
M  V30 5306 H 477.909 -4.05893 0.0235623 0
M  V30 5307 H 478.675 -4.15288 2.50522 0
M  V30 5308 H 474.554 -4.42039 1.30854 0
M  V30 5309 H 478.098 -5.17592 4.67701 0
M  V30 5310 H 473.995 -5.4421 3.47139 0
M  V30 5311 H 474.763 -6.1221 5.43269 0
M  V30 5312 N 477.426 -0.562348 -1.47226 0
M  V30 5313 C 478.356 0.170627 -2.32876 0
M  V30 5314 C 479.337 0.903748 -1.44106 0
M  V30 5315 O 480.522 0.883206 -1.72954 0
M  V30 5316 C 477.652 1.19786 -3.25989 0
M  V30 5317 C 476.606 0.580875 -4.2404 0
M  V30 5318 C 475.932 1.71311 -5.06514 0
M  V30 5319 C 477.232 -0.468714 -5.20193 0
M  V30 5320 H 478.926 -0.544441 -2.94408 0
M  V30 5321 H 476.472 -0.263271 -1.41573 0
M  V30 5322 H 478.425 1.71884 -3.84752 0
M  V30 5323 H 477.149 1.94294 -2.62521 0
M  V30 5324 H 475.808 0.0811538 -3.6651 0
M  V30 5325 H 475.456 2.44736 -4.39447 0
M  V30 5326 H 475.156 1.30604 -5.72902 0
M  V30 5327 H 476.68 2.23725 -5.68137 0
M  V30 5328 H 478.094 -0.0336028 -5.7329 0
M  V30 5329 H 476.491 -0.794957 -5.94811 0
M  V30 5330 H 477.561 -1.36269 -4.65359 0
M  V30 5331 N 478.904 1.54736 -0.299062 0
M  V30 5332 C 479.834 2.26409 0.571085 0
M  V30 5333 C 480.815 1.2629 1.13951 0
M  V30 5334 O 482 1.55059 1.16921 0
M  V30 5335 C 479.13 3.00338 1.74396 0
M  V30 5336 C 478.084 4.07588 1.30599 0
M  V30 5337 C 477.41 4.69222 2.56387 0
M  V30 5338 C 478.71 5.20455 0.438645 0
M  V30 5339 H 480.404 2.99388 -0.0266991 0
M  V30 5340 H 477.95 1.43993 -0.0142812 0
M  V30 5341 H 479.903 3.49198 2.35878 0
M  V30 5342 H 478.627 2.24934 2.36796 0
M  V30 5343 H 477.286 3.59575 0.71424 0
M  V30 5344 H 476.934 3.9046 3.17097 0
M  V30 5345 H 476.634 5.41653 2.27784 0
M  V30 5346 H 478.158 5.20844 3.18675 0
M  V30 5347 H 479.572 5.65221 0.959085 0
M  V30 5348 H 477.969 5.99594 0.246466 0
M  V30 5349 H 479.039 4.8192 -0.536738 0
M  V30 5350 N 480.382 0.0267497 1.57577 0
M  V30 5351 C 481.629 -0.652404 1.91703 0
M  V30 5352 C 481.957 -1.72271 0.902936 0
M  V30 5353 O 481.212 -1.955 -0.0884843 0
M  V30 5354 C 481.511 -1.30914 3.3256 0
M  V30 5355 C 481.177 -0.369441 4.49384 0
M  V30 5356 C 479.839 -0.110791 4.81072 0
M  V30 5357 C 482.191 0.275971 5.20469 0
M  V30 5358 C 479.519 0.801116 5.81205 0
M  V30 5359 C 481.871 1.17592 6.21575 0
M  V30 5360 C 480.535 1.44348 6.51705 0
M  V30 5361 H 479.805 -0.238732 0.70149 0
M  V30 5362 H 482.452 0.0880091 1.91298 0
M  V30 5363 H 480.757 -2.12425 3.29216 0
M  V30 5364 H 482.454 -1.84115 3.56234 0
M  V30 5365 H 479.044 -0.581211 4.24641 0
M  V30 5366 H 483.228 0.0892 4.9622 0
M  V30 5367 H 478.484 1.01614 6.02897 0
M  V30 5368 H 482.658 1.68223 6.75777 0
M  V30 5369 H 480.285 2.15176 7.29111 0
M  V30 5370 N 481.861 -1.55662 -0.24637 0
M  V30 5371 C 483.089 -1.81575 -0.991876 0
M  V30 5372 C 483.504 -0.602545 -1.78927 0
M  V30 5373 O 482.861 0.428795 -1.77391 0
M  V30 5374 C 482.912 -3.05711 -1.92933 0
M  V30 5375 O 482.633 -4.22348 -1.1642 0
M  V30 5376 C 484.134 -3.44428 -2.79078 0
M  V30 5377 H 481.354 -0.604209 -0.291844 0
M  V30 5378 H 483.898 -2.02722 -0.269095 0
M  V30 5379 H 482.053 -2.86612 -2.60638 0
M  V30 5380 H 482.467 -4.92706 -1.79835 0
M  V30 5381 H 483.941 -4.34388 -3.40603 0
M  V30 5382 H 484.418 -2.65037 -3.50217 0
M  V30 5383 H 485.024 -3.65879 -2.16824 0
M  V30 5384 N 483.339 0.512053 -1.4905 0
M  V30 5385 C 484.272 1.63209 -1.59493 0
M  V30 5386 C 485.25 1.56407 -0.444481 0
M  V30 5387 O 486.434 1.76623 -0.658535 0
M  V30 5388 C 483.561 3.01685 -1.53961 0
M  V30 5389 C 482.607 3.26786 -2.74068 0
M  V30 5390 S 483.44 3.11107 -4.35859 0
M  V30 5391 C 484.596 4.51997 -4.32954 0
M  V30 5392 H 484.829 1.54104 -2.54243 0
M  V30 5393 H 482.362 0.696382 -1.37804 0
M  V30 5394 H 484.32 3.81538 -1.51455 0
M  V30 5395 H 482.981 3.08215 -0.605178 0
M  V30 5396 H 482.174 4.27849 -2.66386 0
M  V30 5397 H 481.776 2.54635 -2.73928 0
M  V30 5398 H 484.068 5.43871 -4.03993 0
M  V30 5399 H 485.011 4.64731 -5.34257 0
M  V30 5400 H 485.419 4.32159 -3.63178 0
M  V30 5401 N 484.817 1.37938 0.762283 0
M  V30 5402 C 486.063 1.33866 1.52341 0
M  V30 5403 C 486.396 -0.0738961 1.94059 0
M  V30 5404 O 485.671 -1.03326 1.64785 0
M  V30 5405 C 485.954 2.28644 2.78197 0
M  V30 5406 C 485.807 3.78722 2.42672 0
M  V30 5407 C 487.126 2.21702 3.80179 0
M  V30 5408 H 484.245 0.487593 0.55265 0
M  V30 5409 H 486.887 1.68717 0.873767 0
M  V30 5410 H 485.037 1.99055 3.33631 0
M  V30 5411 H 486.709 4.18948 1.93081 0
M  V30 5412 H 484.952 3.96827 1.75244 0
M  V30 5413 H 485.623 4.40486 3.3268 0
M  V30 5414 H 488.099 2.47805 3.34263 0
M  V30 5415 H 486.975 2.90143 4.65949 0
M  V30 5416 H 487.236 1.21301 4.25133 0
M  V30 5417 N 486.295 -0.989507 1.22664 0
M  V30 5418 C 487.228 -2.07805 0.942985 0
M  V30 5419 C 488.206 -1.6219 -0.115356 0
M  V30 5420 O 489.39 -1.88492 0.0169565 0
M  V30 5421 C 486.517 -3.361 0.418898 0
M  V30 5422 C 485.563 -4.00643 1.46244 0
M  V30 5423 S 486.396 -4.41059 3.03689 0
M  V30 5424 C 487.552 -5.7252 2.52927 0
M  V30 5425 H 487.785 -2.31547 1.86476 0
M  V30 5426 H 485.318 -1.12446 1.05808 0
M  V30 5427 H 487.276 -4.10315 0.123114 0
M  V30 5428 H 485.937 -3.10383 -0.481818 0
M  V30 5429 H 485.13 -4.93033 1.04569 0
M  V30 5430 H 484.732 -3.32767 1.7071 0
M  V30 5431 H 487.024 -6.49017 1.94379 0
M  V30 5432 H 487.967 -6.19026 3.4382 0
M  V30 5433 H 488.375 -5.30083 1.94094 0
M  V30 5434 N 487.773 -1.03688 -1.18687 0
M  V30 5435 C 489.019 -0.739123 -1.88851 0
M  V30 5436 C 489.352 0.731042 -1.79915 0
M  V30 5437 O 488.627 1.53313 -1.19688 0
M  V30 5438 C 488.91 -1.20106 -3.3948 0
M  V30 5439 C 488.763 -2.73304 -3.57246 0
M  V30 5440 C 490.082 -0.788134 -4.32986 0
M  V30 5441 H 487.201 -0.269978 -0.68577 0
M  V30 5442 H 489.843 -1.28822 -1.3966 0
M  V30 5443 H 487.993 -0.733915 -3.81505 0
M  V30 5444 H 489.665 -3.28027 -3.24339 0
M  V30 5445 H 487.908 -3.13313 -3.00029 0
M  V30 5446 H 488.579 -3.00684 -4.62918 0
M  V30 5447 H 491.055 -1.19005 -3.98719 0
M  V30 5448 H 489.931 -1.13915 -5.36949 0
M  V30 5449 H 490.192 0.308988 -4.41019 0
M  V30 5450 N 489.251 1.34841 -0.815825 0
M  V30 5451 C 490.479 2.0273 -0.413294 0
M  V30 5452 C 490.894 1.61459 0.978599 0
M  V30 5453 O 490.251 0.816584 1.63212 0
M  V30 5454 C 490.302 3.58058 -0.497676 0
M  V30 5455 O 490.023 3.97832 -1.8347 0
M  V30 5456 C 491.524 4.4321 -0.0891339 0
M  V30 5457 H 488.744 0.649956 -0.166728 0
M  V30 5458 H 491.288 1.72267 -1.10201 0
M  V30 5459 H 489.443 3.87136 0.142886 0
M  V30 5460 H 489.857 4.92501 -1.80396 0
M  V30 5461 H 491.331 5.5164 -0.199274 0
M  V30 5462 H 491.808 4.28432 0.966571 0
M  V30 5463 H 492.414 4.19446 -0.703214 0
M  V30 5464 N 490.729 0.570148 1.46925 0
M  V30 5465 C 491.659 -0.158274 2.32963 0
M  V30 5466 C 492.64 -0.896093 1.44583 0
M  V30 5467 O 493.825 -0.874022 1.7342 0
M  V30 5468 C 490.955 -1.18055 3.26619 0
M  V30 5469 C 489.909 -0.558379 4.24342 0
M  V30 5470 C 489.235 -1.68623 5.07415 0
M  V30 5471 C 490.535 0.496295 5.19937 0
M  V30 5472 H 492.229 0.560046 2.94115 0
M  V30 5473 H 489.775 0.270775 1.41431 0
M  V30 5474 H 491.728 -1.69841 3.85658 0
M  V30 5475 H 490.452 -1.92899 2.63548 0
M  V30 5476 H 489.111 -0.0617157 3.66548 0
M  V30 5477 H 488.759 -2.42402 4.40738 0
M  V30 5478 H 488.459 -1.27564 5.73586 0
M  V30 5479 H 489.983 -2.20709 5.69315 0
M  V30 5480 H 491.397 0.0640052 5.73264 0
M  V30 5481 H 489.794 0.82649 5.94381 0
M  V30 5482 H 490.864 1.38735 4.6463 0
M  V30 5483 N 492.207 -1.54576 0.307264 0
M  V30 5484 C 493.432 -2.05139 -0.305379 0
M  V30 5485 C 493.857 -1.18278 -1.46259 0
M  V30 5486 O 493.215 -0.188243 -1.8032 0
M  V30 5487 C 493.263 -3.53066 -0.733283 0
M  V30 5488 O 492.367 -3.69206 -1.83741 0
M  V30 5489 H 491.708 -0.661444 -0.0582105 0
M  V30 5490 H 494.238 -1.99569 0.450931 0
M  V30 5491 H 494.248 -3.95034 -1.02039 0
M  V30 5492 H 492.923 -4.15746 0.113198 0
M  V30 5493 H 491.5 -3.39143 -1.55037 0
M  V30 5494 N 493.685 -0.035106 -1.57561 0
M  V30 5495 C 494.931 0.64318 -1.92331 0
M  V30 5496 C 495.264 1.71434 -0.912368 0
M  V30 5497 O 494.539 1.94395 0.0640303 0
M  V30 5498 C 494.822 1.25411 -3.37556 0
M  V30 5499 C 494.675 0.192109 -4.4939 0
M  V30 5500 C 495.994 2.17041 -3.82859 0
M  V30 5501 H 493.113 0.232341 -0.699419 0
M  V30 5502 H 495.755 -0.0935889 -1.89769 0
M  V30 5503 H 493.905 1.88205 -3.39869 0
M  V30 5504 H 495.577 -0.438849 -4.59208 0
M  V30 5505 H 493.82 -0.481725 -4.31117 0
M  V30 5506 H 494.491 0.659292 -5.48049 0
M  V30 5507 H 496.967 1.64228 -3.8232 0
M  V30 5508 H 495.843 2.56738 -4.85157 0
M  V30 5509 H 496.104 3.06401 -3.18702 0
M  V30 5510 N 495.163 1.55791 0.238111 0
M  V30 5511 C 496.409 1.78297 0.966337 0
M  V30 5512 C 496.742 0.601903 1.84637 0
M  V30 5513 O 496.017 -0.399499 1.90353 0
M  V30 5514 C 496.3 3.10758 1.81939 0
M  V30 5515 C 496.153 4.39283 0.966958 0
M  V30 5516 C 497.472 3.39519 2.80027 0
M  V30 5517 H 494.591 0.648654 0.349882 0
M  V30 5518 H 497.233 1.88525 0.236253 0
M  V30 5519 H 495.383 3.02168 2.44185 0
M  V30 5520 H 497.055 4.59873 0.362514 0
M  V30 5521 H 495.298 4.32948 0.271669 0
M  V30 5522 H 495.969 5.28368 1.59784 0
M  V30 5523 H 498.445 3.48128 2.27917 0
M  V30 5524 H 497.321 4.33402 3.36829 0
M  V30 5525 H 497.582 2.60864 3.56934 0
M  V30 5526 N 496.642 -0.504142 1.49319 0
M  V30 5527 C 497.888 -1.26033 1.58882 0
M  V30 5528 C 498.221 -1.92268 0.273274 0
M  V30 5529 O 497.496 -1.80567 -0.72291 0
M  V30 5530 C 497.779 -2.32976 2.7458 0
M  V30 5531 C 497.632 -1.71263 4.1592 0
M  V30 5532 C 498.951 -3.34561 2.85932 0
M  V30 5533 H 496.07 -0.456863 0.578312 0
M  V30 5534 H 498.712 -0.558965 1.81592 0
M  V30 5535 H 496.862 -2.92796 2.55348 0
M  V30 5536 H 498.534 -1.15294 4.4666 0
M  V30 5537 H 496.777 -1.01686 4.21714 0
M  V30 5538 H 497.448 -2.48816 4.92742 0
M  V30 5539 H 499.924 -2.84727 3.0343 0
M  V30 5540 H 498.8 -4.06754 3.68568 0
M  V30 5541 H 499.061 -3.96695 1.95154 0
M  V30 5542 N 498.12 -1.38341 -0.754957 0
M  V30 5543 C 499.348 -1.37704 -1.54419 0
M  V30 5544 C 499.763 0.0335243 -1.8877 0
M  V30 5545 O 499.12 0.999773 -1.52679 0
M  V30 5546 C 499.171 -2.23136 -2.84416 0
M  V30 5547 O 498.892 -3.58697 -2.51531 0
M  V30 5548 C 500.393 -2.30664 -3.78562 0
M  V30 5549 H 497.613 -0.471061 -0.477852 0
M  V30 5550 H 500.157 -1.81902 -0.934446 0
M  V30 5551 H 498.312 -1.82403 -3.41772 0
M  V30 5552 H 498.726 -4.03665 -3.34896 0
M  V30 5553 H 500.2 -2.9473 -4.66732 0
M  V30 5554 H 500.677 -1.3199 -4.18898 0
M  V30 5555 H 501.283 -2.71781 -3.27131 0
M  V30 5556 N 499.598 0.982988 -1.23187 0
M  V30 5557 C 500.844 1.72648 -1.06398 0
M  V30 5558 C 501.177 1.90066 0.398561 0
M  V30 5559 O 500.452 1.45105 1.29518 0
M  V30 5560 C 500.735 3.12627 -1.78707 0
M  V30 5561 C 500.588 3.02795 -3.32618 0
M  V30 5562 C 501.907 4.11997 -1.54747 0
M  V30 5563 H 499.026 0.626649 -0.387918 0
M  V30 5564 H 501.668 1.14455 -1.51658 0
M  V30 5565 H 499.818 3.62308 -1.40234 0
M  V30 5566 H 501.49 2.60659 -3.80598 0
M  V30 5567 H 499.733 2.39362 -3.61785 0
M  V30 5568 H 500.404 4.01893 -3.78399 0
M  V30 5569 H 502.88 3.71114 -1.88186 0
M  V30 5570 H 501.756 5.08037 -2.07821 0
M  V30 5571 H 502.017 4.39462 -0.482249 0
M  V30 5572 N 501.076 1.04316 1.18135 0
M  V30 5573 C 502.325 0.74319 1.87509 0
M  V30 5574 C 502.638 -0.732136 1.81381 0
M  V30 5575 O 503.844 -1.14572 2.46141 0
M  V30 5576 C 502.3 1.27913 3.36402 0
M  V30 5577 C 501.908 2.78326 3.51053 0
M  V30 5578 C 503.652 1.0558 4.11161 0
M  V30 5579 C 501.559 3.25266 4.93919 0
M  V30 5580 H 500.489 0.274313 0.702331 0
M  V30 5581 H 503.14 1.25931 1.33467 0
M  V30 5582 H 501.522 0.690853 3.89927 0
M  V30 5583 H 502.696 3.42933 3.07788 0
M  V30 5584 H 501.011 2.991 2.89704 0
M  V30 5585 H 503.608 1.38161 5.16542 0
M  V30 5586 H 503.951 -0.00684729 4.16299 0
M  V30 5587 H 504.484 1.60882 3.63816 0
M  V30 5588 H 501.223 4.30922 4.9395 0
M  V30 5589 H 500.743 2.65396 5.3789 0
M  V30 5590 H 502.422 3.19433 5.62647 0
M  V30 5591 N 502.554 -1.34406 0.822964 0
M  V30 5592 C 503.779 -2.0304 0.423034 0
M  V30 5593 C 504.204 -1.61568 -0.963196 0
M  V30 5594 O 503.562 -0.800339 -1.62678 0
M  V30 5595 C 503.61 -3.56636 0.53321 0
M  V30 5596 O 502.714 -4.09971 -0.446939 0
M  V30 5597 H 502.055 -0.64075 0.174171 0
M  V30 5598 H 504.585 -1.71653 1.11339 0
M  V30 5599 H 504.595 -4.05945 0.408991 0
M  V30 5600 H 503.27 -3.86168 1.54425 0
M  V30 5601 H 501.847 -3.71835 -0.281601 0
M  V30 5602 N 504.032 -0.577932 -1.46621 0
M  V30 5603 C 504.962 0.145917 -2.33044 0
M  V30 5604 C 505.943 0.888412 -1.45056 0
M  V30 5605 O 507.128 0.864812 -1.73881 0
M  V30 5606 C 504.258 1.16322 -3.27241 0
M  V30 5607 C 503.212 0.535868 -4.24632 0
M  V30 5608 C 502.538 1.65929 -5.08303 0
M  V30 5609 C 503.838 -0.523861 -5.19666 0
M  V30 5610 H 505.532 -0.575636 -2.93814 0
M  V30 5611 H 503.078 -0.278272 -1.41286 0
M  V30 5612 H 505.031 1.67793 -3.86553 0
M  V30 5613 H 503.755 1.91498 -2.64567 0
M  V30 5614 H 502.414 0.0422759 -3.66576 0
M  V30 5615 H 502.062 2.40061 -4.42018 0
M  V30 5616 H 501.762 1.2452 -5.74255 0
M  V30 5617 H 503.286 2.17686 -5.70478 0
M  V30 5618 H 504.7 -0.0944059 -5.73222 0
M  V30 5619 H 503.097 -0.858 -5.93935 0
M  V30 5620 H 504.167 -1.41197 -4.63887 0
M  V30 5621 N 505.51 1.54411 -0.315457 0
M  V30 5622 C 506.458 2.25514 0.569771 0
M  V30 5623 C 507.452 1.2663 1.12522 0
M  V30 5624 O 508.658 1.44434 1.07419 0
M  V30 5625 H 505.033 0.724257 0.202376 0
M  V30 5626 H 507.004 2.98354 -0.0522895 0
M  V30 5627 C 505.753 3.02004 1.72305 0
M  V30 5628 H 505.076 3.77906 1.30488 0
M  V30 5629 H 506.516 3.55014 2.31821 0
M  V30 5630 C 504.975 2.09822 2.63583 0
M  V30 5631 O 505.505 1.67574 3.65078 0
M  V30 5632 N 503.711 1.75478 2.31637 0
M  V30 5633 H 503.258 2.10032 1.49145 0
M  V30 5634 H 503.216 1.14079 2.92973 0
M  V30 5635 N 506.988 0.0434614 1.5754 0
M  V30 5636 C 507.918 -0.931651 2.14109 0
M  V30 5637 C 508.899 -1.32971 1.06079 0
M  V30 5638 O 510.084 -1.40579 1.33982 0
M  V30 5639 C 507.214 -2.20914 2.67982 0
M  V30 5640 C 506.168 -1.95139 3.80926 0
M  V30 5641 C 505.494 -3.29276 4.21285 0
M  V30 5642 C 506.794 -1.27913 5.06395 0
M  V30 5643 H 508.488 -0.460497 2.95837 0
M  V30 5644 H 506.034 -0.220058 1.42309 0
M  V30 5645 H 507.987 -2.89522 3.06194 0
M  V30 5646 H 506.711 -2.70221 1.83434 0
M  V30 5647 H 505.37 -1.28945 3.43175 0
M  V30 5648 H 505.018 -3.76369 3.33699 0
M  V30 5649 H 504.718 -3.12831 4.97404 0
M  V30 5650 H 506.242 -3.99129 4.62091 0
M  V30 5651 H 507.656 -1.86544 5.42102 0
M  V30 5652 H 506.053 -1.2182 5.87605 0
M  V30 5653 H 507.123 -0.254066 4.84234 0
M  V30 5654 N 508.466 -1.55915 -0.229846 0
M  V30 5655 C 509.416 -1.8813 -1.28807 0
M  V30 5656 C 510.4 -0.743621 -1.42685 0
M  V30 5657 O 511.592 -1.00588 -1.4564 0
M  V30 5658 C 508.721 -2.19431 -2.64017 0
M  V30 5659 C 507.807 -3.39569 -2.54074 0
M  V30 5660 N 508.198 -4.58404 -2.13774 0
M  V30 5661 C 506.496 -3.43019 -2.85051 0
M  V30 5662 C 507.197 -5.40557 -2.1488 0
M  V30 5663 N 506.173 -4.80054 -2.55047 0
M  V30 5664 H 509.975 -2.77527 -0.967261 0
M  V30 5665 H 507.489 -1.5637 -0.438433 0
M  V30 5666 H 509.486 -2.40681 -3.40409 0
M  V30 5667 H 508.146 -1.31341 -2.9695 0
M  V30 5668 H 509.157 -4.83716 -1.8504 0
M  V30 5669 H 505.834 -2.65249 -3.22411 0
M  V30 5670 H 507.224 -6.45666 -1.85918 0
M  V30 5671 N 509.944 0.496216 -1.49584 0
M  V30 5672 C 511.191 1.25003 -1.59312 0
M  V30 5673 C 511.519 1.92445 -0.28198 0
M  V30 5674 O 510.774 1.81557 0.730452 0
M  V30 5675 C 511.073 2.3359 -2.705 0
M  V30 5676 C 510.739 1.83574 -4.11839 0
M  V30 5677 C 509.401 1.69653 -4.50302 0
M  V30 5678 C 511.753 1.46193 -5.00277 0
M  V30 5679 C 509.081 1.16736 -5.74969 0
M  V30 5680 C 511.433 0.947265 -6.25468 0
M  V30 5681 C 510.097 0.794485 -6.62755 0
M  V30 5682 H 509.367 0.45742 -0.582965 0
M  V30 5683 H 512.014 0.549996 -1.83432 0
M  V30 5684 H 510.319 3.09401 -2.40371 0
M  V30 5685 H 512.016 2.91627 -2.75235 0
M  V30 5686 H 508.606 1.9537 -3.81482 0
M  V30 5687 H 512.79 1.55793 -4.71214 0
M  V30 5688 H 508.046 1.03623 -6.02555 0
M  V30 5689 H 512.22 0.648846 -6.93371 0
M  V30 5690 H 509.847 0.382271 -7.59238 0
M  V30 5691 N 511.423 1.38739 0.74761 0
M  V30 5692 C 512.839 1.20067 1.05148 0
M  V30 5693 C 513.039 0.0534835 2.01429 0
M  V30 5694 O 512.095 -0.59886 2.45296 0
M  V30 5695 C 513.408 2.52957 1.62584 0
M  V30 5696 C 514.956 2.59692 1.74726 0
M  V30 5697 C 515.431 3.92772 2.35573 0
M  V30 5698 N 516.922 3.94343 2.42997 0
M  V30 5699 C 517.657 4.9408 2.90985 0
M  V30 5700 N 517.153 6.04214 3.38965 0
M  V30 5701 N 518.946 4.81466 2.9008 0
M  V30 5702 H 511.097 2.12121 0.108808 0
M  V30 5703 H 513.36 0.941491 0.110899 0
M  V30 5704 H 513.066 3.37389 0.993051 0
M  V30 5705 H 512.94 2.71779 2.61565 0
M  V30 5706 H 515.327 1.75651 2.3713 0
M  V30 5707 H 515.408 2.44731 0.744326 0
M  V30 5708 H 515.052 4.77238 1.738 0
M  V30 5709 H 514.982 4.05046 3.36519 0
M  V30 5710 H 517.473 3.14799 2.0907 0
M  V30 5711 H 517.786 6.76241 3.74056 0
M  V30 5712 H 516.131 6.07825 3.37007 0
M  V30 5713 H 519.322 3.94535 2.51912 0
M  V30 5714 H 519.495 5.59344 3.27166 0
M  V30 5715 N 512.901 -0.976442 1.23707 0
M  V30 5716 C 514.129 -1.75341 1.09833 0
M  V30 5717 C 514.544 -1.8553 -0.349885 0
M  V30 5718 O 513.901 -1.33732 -1.24185 0
M  V30 5719 C 513.952 -3.17833 1.72233 0
M  V30 5720 O 513.673 -3.08167 3.11391 0
M  V30 5721 C 515.174 -4.11906 1.63853 0
M  V30 5722 H 512.394 -0.550137 0.384175 0
M  V30 5723 H 514.938 -1.2265 1.63638 0
M  V30 5724 H 513.093 -3.67538 1.22452 0
M  V30 5725 H 513.507 -3.97897 3.41729 0
M  V30 5726 H 514.981 -5.09579 2.12211 0
M  V30 5727 H 515.458 -4.35109 0.598092 0
M  V30 5728 H 516.064 -3.68107 2.13019 0
M  V30 5729 N 514.379 -1.04941 -1.1758 0
M  V30 5730 C 515.79 -0.784501 -1.69418 0
M  V30 5731 C 516.141 0.693625 -1.8353 0
M  V30 5732 O 515.266 1.53925 -1.52106 0
M  V30 5733 C 515.861 -1.41746 -3.07723 0
M  V30 5734 C 514.42 -1.20066 -3.56737 0
M  V30 5735 C 513.567 -1.5026 -2.33061 0
M  V30 5736 H 516.518 -1.21469 -1.02133 0
M  V30 5737 H 516.539 -0.825381 -3.7144 0
M  V30 5738 H 516.051 -2.49325 -2.9742 0
M  V30 5739 H 514.152 -0.144006 -3.72322 0
M  V30 5740 H 514.265 -1.90384 -4.39648 0
M  V30 5741 H 512.629 -0.922598 -2.37403 0
M  V30 5742 H 513.412 -2.58967 -2.25368 0
M  V30 5743 N 515.857 1.33968 -0.830081 0
M  V30 5744 C 517.085 2.0228 -0.434773 0
M  V30 5745 C 517.5 1.62487 0.961419 0
M  V30 5746 O 516.857 0.833849 1.62337 0
M  V30 5747 C 516.908 3.5751 -0.535625 0
M  V30 5748 O 516.629 3.95864 -1.87679 0
M  V30 5749 C 518.13 4.43091 -0.136137 0
M  V30 5750 H 515.35 0.648151 -0.173613 0
M  V30 5751 H 517.894 1.71089 -1.12022 0
M  V30 5752 H 516.049 3.87266 0.101817 0
M  V30 5753 H 516.463 4.9056 -1.85609 0
M  V30 5754 H 517.937 5.51398 -0.257772 0
M  V30 5755 H 518.414 4.29433 0.921076 0
M  V30 5756 H 519.02 4.18677 -0.747662 0
M  V30 5757 N 517.335 0.585699 1.46312 0
M  V30 5758 C 518.563 0.0781299 2.06752 0
M  V30 5759 C 518.978 -1.22812 1.43396 0
M  V30 5760 O 518.335 -1.74318 0.540314 0
M  V30 5761 C 518.386 -0.0911927 3.61385 0
M  V30 5762 O 518.107 1.16336 4.22371 0
M  V30 5763 C 519.608 -0.632765 4.38761 0
M  V30 5764 H 516.828 0.0588188 0.668417 0
M  V30 5765 H 519.372 0.807218 1.87894 0
M  V30 5766 H 517.527 -0.770514 3.7966 0
M  V30 5767 H 517.941 0.979082 5.15281 0
M  V30 5768 H 519.415 -0.70041 5.47538 0
M  V30 5769 H 519.892 -1.65039 4.07012 0
M  V30 5770 H 520.498 0.0117856 4.25298 0
M  V30 5771 N 518.813 -1.54241 0.323641 0
M  V30 5772 C 519.763 -2.21071 -0.557833 0
M  V30 5773 C 520.747 -1.19126 -1.08157 0
M  V30 5774 O 521.939 -1.44755 -1.01857 0
M  V30 5775 C 519.068 -2.97208 -1.71821 0
M  V30 5776 C 518.154 -4.06491 -1.20936 0
M  V30 5777 N 518.545 -5.04052 -0.420202 0
M  V30 5778 C 516.843 -4.20443 -1.48808 0
M  V30 5779 C 517.544 -5.81516 -0.146413 0
M  V30 5780 N 516.52 -5.38641 -0.732562 0
M  V30 5781 H 520.322 -2.93853 0.0523921 0
M  V30 5782 H 517.836 -1.61883 0.129502 0
M  V30 5783 H 519.833 -3.4357 -2.36146 0
M  V30 5784 H 518.493 -2.25947 -2.33191 0
M  V30 5785 H 519.504 -5.17862 -0.0630401 0
M  V30 5786 H 516.181 -3.60396 -2.10762 0
M  V30 5787 H 517.571 -6.70119 0.488895 0
M  V30 5788 N 520.291 -0.0518155 -1.57515 0
M  V30 5789 C 521.221 0.920283 -2.146 0
M  V30 5790 C 522.202 1.32406 -1.06783 0
M  V30 5791 O 523.387 1.39866 -1.34726 0
M  V30 5792 C 520.517 2.1949 -2.6915 0
M  V30 5793 C 519.471 1.93116 -3.81956 0
M  V30 5794 C 518.797 3.27037 -4.23026 0
M  V30 5795 C 520.097 1.25225 -5.07066 0
M  V30 5796 H 521.791 0.444801 -2.96077 0
M  V30 5797 H 519.337 0.212508 -1.42423 0
M  V30 5798 H 521.29 2.87894 -3.07725 0
M  V30 5799 H 520.014 2.69244 -1.84865 0
M  V30 5800 H 518.673 1.27123 -3.43854 0
M  V30 5801 H 518.321 3.74595 -3.3569 0
M  V30 5802 H 518.021 3.10189 -4.99056 0
M  V30 5803 H 519.545 3.96673 -4.64202 0
M  V30 5804 H 520.959 1.83666 -5.43083 0
M  V30 5805 H 519.356 1.18702 -5.88243 0
M  V30 5806 H 520.426 0.228382 -4.84362 0
M  V30 5807 N 521.769 1.56035 0.221574 0
M  V30 5808 C 522.702 1.87427 1.30178 0
M  V30 5809 C 523.68 0.731658 1.45209 0
M  V30 5810 O 524.864 0.980016 1.61022 0
M  V30 5811 C 521.991 2.08127 2.67209 0
M  V30 5812 C 521.037 3.30813 2.69194 0
M  V30 5813 S 521.87 4.86738 2.23263 0
M  V30 5814 C 523.026 5.10474 3.62171 0
M  V30 5815 H 523.259 2.78756 1.03355 0
M  V30 5816 H 520.792 1.48469 0.423813 0
M  V30 5817 H 522.75 2.20736 3.46101 0
M  V30 5818 H 521.411 1.17595 2.91256 0
M  V30 5819 H 520.604 3.42341 3.6989 0
M  V30 5820 H 520.206 3.1706 1.98366 0
M  V30 5821 H 522.498 4.9937 4.5786 0
M  V30 5822 H 523.441 6.12359 3.55558 0
M  V30 5823 H 523.849 4.38208 3.55857 0
M  V30 5824 N 523.247 -0.488276 1.49845 0
M  V30 5825 C 524.658 -1.06955 1.53028 0
M  V30 5826 C 525.009 -1.9351 0.323797 0
M  V30 5827 O 524.134 -2.08891 -0.565116 0
M  V30 5828 C 524.729 -1.94643 2.77307 0
M  V30 5829 C 523.288 -2.4791 2.83227 0
M  V30 5830 C 522.435 -1.25833 2.47106 0
M  V30 5831 H 525.386 -0.271626 1.56358 0
M  V30 5832 H 525.407 -2.79496 2.5819 0
M  V30 5833 H 524.919 -1.31621 3.65099 0
M  V30 5834 H 523.02 -3.14535 1.99745 0
M  V30 5835 H 523.133 -2.84193 3.85709 0
M  V30 5836 H 521.497 -1.58764 1.99163 0
M  V30 5837 H 522.28 -0.644993 3.37186 0
M  V30 5838 N 524.725 -1.39134 -0.740242 0
M  V30 5839 C 525.673 -1.3757 -1.87556 0
M  V30 5840 C 526.667 -0.259593 -1.67399 0
M  V30 5841 O 527.873 -0.429349 -1.74804 0
M  V30 5842 H 524.248 -0.42947 -0.6173 0
M  V30 5843 H 526.219 -2.33345 -1.85991 0
M  V30 5844 C 524.968 -1.23087 -3.25184 0
M  V30 5845 H 524.291 -2.08237 -3.41288 0
M  V30 5846 H 525.731 -1.26049 -4.0483 0
M  V30 5847 C 524.19 0.0611471 -3.36845 0
M  V30 5848 O 524.72 1.03328 -3.88183 0
M  V30 5849 N 522.926 0.122454 -2.90342 0
M  V30 5850 H 522.473 -0.669329 -2.48752 0
M  V30 5851 H 522.431 0.986463 -2.98523 0
M  V30 5852 N 526.204 0.969867 -1.24223 0
M  V30 5853 C 527.45 1.71582 -1.09231 0
M  V30 5854 C 527.805 1.88898 0.365432 0
M  V30 5855 O 527.098 1.43781 1.2664 0
M  V30 5856 C 527.292 3.10883 -1.76314 0
M  V30 5857 C 527.121 3.07155 -3.2846 0
M  V30 5858 C 525.891 3.11757 -3.97663 0
M  V30 5859 C 528.089 2.895 -4.25082 0
M  V30 5860 N 526.071 2.98025 -5.36707 0
M  V30 5861 C 527.442 2.84041 -5.51109 0
M  V30 5862 C 529.497 2.74064 -4.15684 0
M  V30 5863 C 528.2 2.64725 -6.68815 0
M  V30 5864 C 530.226 2.56115 -5.33066 0
M  V30 5865 C 529.588 2.51363 -6.58024 0
M  V30 5866 H 525.687 0.636496 -0.454309 0
M  V30 5867 H 528.271 1.15004 -1.57106 0
M  V30 5868 H 526.442 3.65657 -1.30955 0
M  V30 5869 H 528.174 3.74171 -1.54201 0
M  V30 5870 H 524.929 3.20352 -3.48814 0
M  V30 5871 H 525.353 2.94405 -6.09635 0
M  V30 5872 H 529.995 2.76521 -3.19837 0
M  V30 5873 H 527.713 2.61011 -7.64787 0
M  V30 5874 H 531.299 2.45119 -5.27644 0
M  V30 5875 H 530.179 2.37651 -7.47323 0
M  V30 5876 N 527.682 1.05563 1.17022 0
M  V30 5877 C 528.928 0.769074 1.87652 0
M  V30 5878 C 529.261 -0.702326 1.81055 0
M  V30 5879 O 528.536 -1.5139 1.22112 0
M  V30 5880 C 528.819 1.25492 3.37526 0
M  V30 5881 C 528.672 2.78953 3.52853 0
M  V30 5882 C 529.991 0.856919 4.31677 0
M  V30 5883 H 527.11 0.280854 0.681388 0
M  V30 5884 H 529.752 1.31027 1.37593 0
M  V30 5885 H 527.902 0.794516 3.80289 0
M  V30 5886 H 529.574 3.33146 3.19079 0
M  V30 5887 H 527.817 3.18046 2.95007 0
M  V30 5888 H 528.488 3.08011 4.58076 0
M  V30 5889 H 530.964 1.25334 3.96775 0
M  V30 5890 H 529.84 1.22443 5.35069 0
M  V30 5891 H 530.101 -0.238787 4.41455 0
M  V30 5892 N 529.16 -1.33526 0.837174 0
M  V30 5893 C 530.107 -2.29248 0.267169 0
M  V30 5894 C 531.077 -1.54252 -0.616071 0
M  V30 5895 O 532.262 -1.82559 -0.554699 0
M  V30 5896 C 529.402 -3.40638 -0.553152 0
M  V30 5897 C 528.515 -4.30548 0.353921 0
M  V30 5898 C 527.65 -5.29051 -0.477339 0
M  V30 5899 C 526.689 -6.106 0.42823 0
M  V30 5900 N 525.826 -7.01152 -0.364801 0
M  V30 5901 H 530.666 -2.77398 1.08877 0
M  V30 5902 H 528.203 -1.36496 0.54838 0
M  V30 5903 H 530.161 -4.03921 -1.04422 0
M  V30 5904 H 528.791 -2.93685 -1.33973 0
M  V30 5905 H 527.843 -3.68001 0.963289 0
M  V30 5906 H 529.155 -4.87631 1.04964 0
M  V30 5907 H 528.309 -5.97853 -1.0323 0
M  V30 5908 H 527.048 -4.72541 -1.2065 0
M  V30 5909 H 526.053 -5.40718 0.995219 0
M  V30 5910 H 527.278 -6.69193 1.15573 0
M  V30 5911 H 525.224 -6.47092 -1.07738 0
M  V30 5912 H 525.141 -7.5551 0.272238 0
M  V30 5913 H 526.409 -7.74263 -0.902054 0
M  V30 5914 N 530.638 -0.59345 -1.46 0
M  V30 5915 C 531.585 0.133618 -2.30413 0
M  V30 5916 C 532.555 0.873736 -1.41262 0
M  V30 5917 O 533.74 0.862279 -1.70204 0
M  V30 5918 C 530.88 1.13434 -3.25924 0
M  V30 5919 C 529.993 0.39656 -4.30176 0
M  V30 5920 C 529.128 1.38575 -5.12806 0
M  V30 5921 C 528.167 0.634984 -6.08797 0
M  V30 5922 N 527.304 1.57276 -6.84258 0
M  V30 5923 H 532.144 -0.592252 -2.92055 0
M  V30 5924 H 529.681 -0.303874 -1.43927 0
M  V30 5925 H 531.639 1.72752 -3.79753 0
M  V30 5926 H 530.269 1.82779 -2.66067 0
M  V30 5927 H 529.321 -0.311861 -3.79119 0
M  V30 5928 H 530.633 -0.189869 -4.98438 0
M  V30 5929 H 529.787 2.05141 -5.70966 0
M  V30 5930 H 528.526 2.00611 -4.44529 0
M  V30 5931 H 527.531 -0.0443925 -5.49782 0
M  V30 5932 H 528.756 0.0198678 -6.79097 0
M  V30 5933 H 526.702 2.18103 -6.18682 0
M  V30 5934 H 526.619 1.03941 -7.48821 0
M  V30 5935 H 527.887 2.22844 -7.46968 0
M  V30 5936 N 532.116 1.54067 -0.331816 0
M  V30 5937 C 533.362 2.01012 0.268667 0
M  V30 5938 C 533.695 1.2195 1.51136 0
M  V30 5939 O 532.97 0.303972 1.9211 0
M  V30 5940 C 533.253 3.55158 0.59456 0
M  V30 5941 C 533.106 4.4494 -0.659409 0
M  V30 5942 C 534.425 4.16939 1.4089 0
M  V30 5943 H 531.544 0.730698 0.0961756 0
M  V30 5944 H 534.186 1.84593 -0.450031 0
M  V30 5945 H 532.336 3.6928 1.20685 0
M  V30 5946 H 534.008 4.42675 -1.29756 0
M  V30 5947 H 532.251 4.1428 -1.28665 0
M  V30 5948 H 532.922 5.50643 -0.386804 0
M  V30 5949 H 535.398 4.06443 0.891272 0
M  V30 5950 H 534.274 5.24889 1.60569 0
M  V30 5951 H 534.535 3.70798 2.40752 0
M  V30 5952 N 533.594 0.0601682 1.57485 0
M  V30 5953 C 534.841 -0.611594 1.93043 0
M  V30 5954 C 535.169 -1.70317 0.939274 0
M  V30 5955 O 534.424 -1.95644 -0.046996 0
M  V30 5956 C 534.723 -1.23831 3.35262 0
M  V30 5957 C 534.389 -0.274037 4.50066 0
M  V30 5958 C 533.051 -0.00872394 4.81199 0
M  V30 5959 C 535.403 0.386308 5.19766 0
M  V30 5960 C 532.731 0.924218 5.79375 0
M  V30 5961 C 535.083 1.3075 6.1894 0
M  V30 5962 C 533.747 1.58139 6.48497 0
M  V30 5963 H 533.017 -0.223798 0.706396 0
M  V30 5964 H 535.664 0.128566 1.91068 0
M  V30 5965 H 533.969 -2.05394 3.33647 0
M  V30 5966 H 535.666 -1.76517 3.60059 0
M  V30 5967 H 532.256 -0.491008 4.25778 0
M  V30 5968 H 536.44 0.194436 4.95919 0
M  V30 5969 H 531.696 1.1438 6.00606 0
M  V30 5970 H 535.87 1.82519 6.72056 0
M  V30 5971 H 533.497 2.30593 7.24383 0
M  V30 5972 N 535.072 -1.5615 -0.213296 0
M  V30 5973 C 536.002 -1.96109 -1.26742 0
M  V30 5974 C 536.983 -0.830448 -1.48451 0
M  V30 5975 O 538.168 -1.09339 -1.60495 0
M  V30 5976 C 535.298 -2.28492 -2.61551 0
M  V30 5977 C 534.252 -3.44124 -2.54485 0
M  V30 5978 C 533.578 -3.62134 -3.93399 0
M  V30 5979 C 534.878 -4.78855 -2.08556 0
M  V30 5980 H 536.572 -2.84412 -0.935434 0
M  V30 5981 H 534.118 -1.36836 -0.44854 0
M  V30 5982 H 536.071 -2.55039 -3.3546 0
M  V30 5983 H 534.795 -1.37052 -2.96453 0
M  V30 5984 H 533.454 -3.17639 -1.83033 0
M  V30 5985 H 533.102 -2.68055 -4.25623 0
M  V30 5986 H 532.802 -4.39913 -3.89551 0
M  V30 5987 H 534.326 -3.91038 -4.68958 0
M  V30 5988 H 535.74 -5.04552 -2.72213 0
M  V30 5989 H 534.137 -5.59975 -2.1575 0
M  V30 5990 H 535.207 -4.73657 -1.03811 0
M  V30 5991 N 536.55 0.480323 -1.50102 0
M  V30 5992 C 537.497 1.57946 -1.6829 0
M  V30 5993 C 538.467 1.57611 -0.524223 0
M  V30 5994 O 539.652 1.75282 -0.753709 0
M  V30 5995 C 536.792 2.95978 -1.77457 0
M  V30 5996 C 535.905 3.06173 -3.04766 0
M  V30 5997 C 535.04 4.35063 -3.04784 0
M  V30 5998 C 534.079 4.38966 -4.26586 0
M  V30 5999 N 533.216 5.59314 -4.24396 0
M  V30 6000 H 538.056 1.41743 -2.62131 0
M  V30 6001 H 535.593 0.689304 -1.2995 0
M  V30 6002 H 537.551 3.76011 -1.80752 0
M  V30 6003 H 536.181 3.10837 -0.870637 0
M  V30 6004 H 535.233 2.19071 -3.10986 0
M  V30 6005 H 536.545 3.04916 -3.9475 0
M  V30 6006 H 535.699 5.23436 -3.06757 0
M  V30 6007 H 534.438 4.38915 -2.12614 0
M  V30 6008 H 533.443 3.48992 -4.24835 0
M  V30 6009 H 534.668 4.36813 -5.19972 0
M  V30 6010 H 532.614 5.63969 -3.35074 0
M  V30 6011 H 532.531 5.5976 -5.08138 0
M  V30 6012 H 533.799 6.49837 -4.30502 0
M  V30 6013 N 538.028 1.39524 0.732853 0
M  V30 6014 C 539.274 1.38072 1.49358 0
M  V30 6015 C 539.629 -0.0227943 1.92386 0
M  V30 6016 O 538.922 -0.98976 1.64056 0
M  V30 6017 C 539.116 2.28916 2.74468 0
M  V30 6018 C 538.945 3.7796 2.43673 0
M  V30 6019 C 537.715 4.46874 2.35863 0
M  V30 6020 C 539.913 4.69886 2.09074 0
M  V30 6021 N 537.895 5.81242 1.97561 0
M  V30 6022 C 539.266 5.9292 1.81234 0
M  V30 6023 C 541.321 4.57887 1.95561 0
M  V30 6024 C 540.024 7.05297 1.41242 0
M  V30 6025 C 542.05 5.70187 1.56972 0
M  V30 6026 C 541.412 6.92297 1.30018 0
M  V30 6027 H 537.511 0.56051 0.5453 0
M  V30 6028 H 540.095 1.75093 0.85151 0
M  V30 6029 H 538.266 1.9405 3.36451 0
M  V30 6030 H 539.998 2.18441 3.40684 0
M  V30 6031 H 536.753 4.00341 2.5303 0
M  V30 6032 H 537.177 6.52356 1.80997 0
M  V30 6033 H 541.819 3.64014 2.15067 0
M  V30 6034 H 539.537 7.99069 1.20476 0
M  V30 6035 H 543.123 5.62892 1.47119 0
M  V30 6036 H 542.003 7.7772 1.00605 0
M  V30 6037 N 539.506 -0.963266 1.24736 0
M  V30 6038 C 540.436 -2.07628 1.06832 0
M  V30 6039 C 541.417 -1.70088 -0.0200566 0
M  V30 6040 O 542.602 -1.93636 0.147854 0
M  V30 6041 C 539.732 -3.40636 0.677069 0
M  V30 6042 C 538.686 -3.9215 1.71471 0
M  V30 6043 C 538.012 -5.21553 1.1784 0
M  V30 6044 C 539.312 -4.19493 3.11164 0
M  V30 6045 H 541.006 -2.22864 1.9993 0
M  V30 6046 H 538.552 -1.07093 0.96266 0
M  V30 6047 H 540.505 -4.17941 0.538792 0
M  V30 6048 H 539.229 -3.25313 -0.289612 0
M  V30 6049 H 537.888 -3.17005 1.84128 0
M  V30 6050 H 537.536 -5.02593 0.202195 0
M  V30 6051 H 537.236 -5.56988 1.87185 0
M  V30 6052 H 538.76 -6.01463 1.05233 0
M  V30 6053 H 540.174 -4.87487 3.01711 0
M  V30 6054 H 538.571 -4.66165 3.77902 0
M  V30 6055 H 539.641 -3.26097 3.58871 0
M  V30 6056 N 540.985 -1.06182 -1.16461 0
M  V30 6057 C 542.396 -0.802426 -1.68576 0
M  V30 6058 C 542.747 0.67412 -1.84255 0
M  V30 6059 O 541.872 1.52303 -1.5373 0
M  V30 6060 C 542.467 -1.45002 -3.06202 0
M  V30 6061 C 541.026 -1.23843 -3.55443 0
M  V30 6062 C 540.173 -1.52724 -2.31454 0
M  V30 6063 H 543.124 -1.22545 -1.00839 0
M  V30 6064 H 543.145 -0.864731 -3.70544 0
M  V30 6065 H 542.657 -2.52466 -2.94759 0
M  V30 6066 H 540.758 -0.183487 -3.72148 0
M  V30 6067 H 540.871 -1.95036 -4.37604 0
M  V30 6068 H 539.235 -0.947726 -2.36411 0
M  V30 6069 H 540.018 -2.61343 -2.22609 0
M  V30 6070 N 542.463 1.3308 -0.844243 0
M  V30 6071 C 543.41 2.29104 -0.279323 0
M  V30 6072 C 544.38 1.54577 0.607882 0
M  V30 6073 O 545.565 1.8285 0.545009 0
M  V30 6074 C 542.705 3.40927 0.53508 0
M  V30 6075 C 541.818 4.30354 -0.376749 0
M  V30 6076 C 540.953 5.29297 0.449276 0
M  V30 6077 C 539.992 6.10365 -0.460606 0
M  V30 6078 N 539.129 7.01335 0.327612 0
M  V30 6079 H 543.969 2.76817 -1.10346 0
M  V30 6080 H 541.506 1.36203 -0.555611 0
M  V30 6081 H 543.464 4.04469 1.02278 0
M  V30 6082 H 542.094 2.94391 1.32414 0
M  V30 6083 H 541.146 3.67485 -0.982791 0
M  V30 6084 H 542.458 4.87067 -1.07549 0
M  V30 6085 H 541.612 5.98392 1.00058 0
M  V30 6086 H 540.351 4.73174 1.18143 0
M  V30 6087 H 539.356 5.40182 -1.02388 0
M  V30 6088 H 540.581 6.68571 -1.1912 0
M  V30 6089 H 538.527 6.47655 1.04305 0
M  V30 6090 H 538.444 7.55355 -0.3123 0
M  V30 6091 H 539.712 7.74731 0.86098 0
M  V30 6092 N 543.941 0.601185 1.45683 0
M  V30 6093 C 544.871 -0.108824 2.33246 0
M  V30 6094 C 545.852 -0.865223 1.46451 0
M  V30 6095 O 547.037 -0.83704 1.75235 0
M  V30 6096 C 544.167 -1.11101 3.2905 0
M  V30 6097 C 543.121 -0.468244 4.25431 0
M  V30 6098 C 542.447 -1.57822 5.10878 0
M  V30 6099 C 543.747 0.606469 5.18767 0
M  V30 6100 H 545.441 0.622306 2.92861 0
M  V30 6101 H 542.987 0.300714 1.40825 0
M  V30 6102 H 544.94 -1.61622 3.89174 0
M  V30 6103 H 543.664 -1.87265 2.67581 0
M  V30 6104 H 542.323 0.0160484 3.66596 0
M  V30 6105 H 541.971 -2.32998 4.45781 0
M  V30 6106 H 541.671 -1.15369 5.76163 0
M  V30 6107 H 543.195 -2.08583 5.73869 0
M  V30 6108 H 544.609 0.185589 5.73 0
M  V30 6109 H 543.006 0.952381 5.92494 0
M  V30 6110 H 544.076 1.48559 4.61582 0
M  V30 6111 N 545.419 -1.53889 0.339982 0
M  V30 6112 C 546.349 -2.27843 -0.510856 0
M  V30 6113 C 547.33 -1.29267 -1.10563 0
M  V30 6114 O 548.515 -1.58104 -1.12768 0
M  V30 6115 C 545.645 -3.04857 -1.66372 0
M  V30 6116 C 544.599 -4.10907 -1.19746 0
M  V30 6117 C 543.925 -4.75855 -2.43857 0
M  V30 6118 C 545.225 -5.21435 -0.300501 0
M  V30 6119 H 546.919 -2.99212 0.106067 0
M  V30 6120 H 544.465 -1.43904 0.0524533 0
M  V30 6121 H 546.418 -3.5533 -2.26537 0
M  V30 6122 H 545.142 -2.31133 -2.30749 0
M  V30 6123 H 543.801 -3.61342 -0.618654 0
M  V30 6124 H 543.449 -3.9873 -3.06633 0
M  V30 6125 H 543.149 -5.47502 -2.13343 0
M  V30 6126 H 544.673 -5.2911 -3.04754 0
M  V30 6127 H 546.087 -5.67565 -0.80889 0
M  V30 6128 H 544.484 -6.00036 -0.0874076 0
M  V30 6129 H 545.554 -4.80328 0.664321 0
M  V30 6130 N 546.897 -0.0685191 -1.57451 0
M  V30 6131 C 548.144 0.601348 -1.93365 0
M  V30 6132 C 548.472 1.69816 -0.948294 0
M  V30 6133 O 547.727 1.95666 0.0366199 0
M  V30 6134 C 548.026 1.22051 -3.35914 0
M  V30 6135 C 547.692 0.250165 -4.50205 0
M  V30 6136 C 546.354 -0.0167954 -4.81197 0
M  V30 6137 C 548.706 -0.413867 -5.19554 0
M  V30 6138 C 546.034 -0.95493 -5.78876 0
M  V30 6139 C 548.386 -1.3403 -6.18238 0
M  V30 6140 C 547.05 -1.61576 -6.47649 0
M  V30 6141 H 546.32 0.220049 -0.707573 0
M  V30 6142 H 548.967 -0.138697 -1.90997 0
M  V30 6143 H 547.272 2.03622 -3.34732 0
M  V30 6144 H 548.969 1.74605 -3.6099 0
M  V30 6145 H 545.559 0.468421 -4.26033 0
M  V30 6146 H 549.743 -0.220733 -4.95809 0
M  V30 6147 H 544.999 -1.17563 -5.99991 0
M  V30 6148 H 549.173 -1.86081 -6.71079 0
M  V30 6149 H 546.8 -2.34431 -7.2315 0
M  V30 6150 N 548.375 1.56261 0.205012 0
M  V30 6151 C 549.308 1.88797 1.28183 0
M  V30 6152 C 550.286 0.747018 1.44424 0
M  V30 6153 O 551.47 0.997039 1.59973 0
M  V30 6154 C 548.597 2.10949 2.64987 0
M  V30 6155 C 547.643 3.33649 2.6567 0
M  V30 6156 S 548.476 4.89078 2.18088 0
M  V30 6157 C 549.632 5.14286 3.56736 0
M  V30 6158 H 549.865 2.79837 1.00393 0
M  V30 6159 H 547.398 1.48911 0.408042 0
M  V30 6160 H 549.356 2.24395 3.4374 0
M  V30 6161 H 548.017 1.20678 2.89993 0
M  V30 6162 H 547.21 3.46245 3.66239 0
M  V30 6163 H 546.812 3.19146 1.94992 0
M  V30 6164 H 549.104 5.04198 4.52537 0
M  V30 6165 H 550.047 6.16096 3.49043 0
M  V30 6166 H 550.455 4.41957 3.51189 0
M  V30 6167 N 549.853 -0.472356 1.50355 0
M  V30 6168 C 551.269 -0.806001 1.37753 0
M  V30 6169 C 551.469 -1.968 0.432649 0
M  V30 6170 O 550.525 -2.52189 -0.12519 0
M  V30 6171 C 551.838 -1.11926 2.79093 0
M  V30 6172 C 553.386 -1.22579 2.87999 0
M  V30 6173 C 553.861 -1.57218 4.3017 0
M  V30 6174 N 555.352 -1.64212 4.33115 0
M  V30 6175 C 556.087 -1.92517 5.40116 0
M  V30 6176 N 555.583 -2.1885 6.57325 0
M  V30 6177 N 557.376 -1.94008 5.27558 0
M  V30 6178 H 549.527 0.293451 2.10363 0
M  V30 6179 H 551.79 0.0687672 0.945503 0
M  V30 6180 H 551.496 -0.338504 3.50067 0
M  V30 6181 H 551.37 -2.05577 3.16256 0
M  V30 6182 H 553.757 -1.99722 2.17245 0
M  V30 6183 H 553.838 -0.269107 2.54381 0
M  V30 6184 H 553.482 -0.806154 5.01461 0
M  V30 6185 H 553.412 -2.54034 4.61275 0
M  V30 6186 H 555.903 -1.45906 3.48597 0
M  V30 6187 H 556.216 -2.39718 7.3468 0
M  V30 6188 H 554.561 -2.16245 6.60502 0
M  V30 6189 H 557.752 -1.72931 4.34986 0
M  V30 6190 H 557.925 -2.15731 6.11035 0
M  V30 6191 N 551.331 -1.39911 -0.725443 0
M  V30 6192 C 552.747 -1.21725 -1.03224 0
M  V30 6193 C 552.947 -0.0855224 -2.01318 0
M  V30 6194 O 552.003 0.55976 -2.46217 0
M  V30 6195 C 553.316 -2.55511 -1.58539 0
M  V30 6196 C 554.864 -2.62439 -1.70572 0
M  V30 6197 C 555.339 -3.9647 -2.29294 0
M  V30 6198 N 556.83 -3.98159 -2.36692 0
M  V30 6199 C 557.565 -4.98647 -2.83088 0
M  V30 6200 N 557.061 -6.0953 -3.2931 0
M  V30 6201 N 558.854 -4.8602 -2.82384 0
M  V30 6202 H 551.005 -2.12267 -0.075048 0
M  V30 6203 H 553.268 -0.943136 -0.0959066 0
M  V30 6204 H 552.974 -3.38926 -0.939249 0
M  V30 6205 H 552.848 -2.75905 -2.57208 0
M  V30 6206 H 555.235 -1.79401 -2.34306 0
M  V30 6207 H 555.316 -2.45885 -0.705297 0
M  V30 6208 H 554.96 -4.79942 -1.66186 0
M  V30 6209 H 554.89 -4.10349 -3.30032 0
M  V30 6210 H 557.381 -3.18085 -2.04035 0
M  V30 6211 H 557.694 -6.82106 -3.6325 0
M  V30 6212 H 556.039 -6.1311 -3.27294 0
M  V30 6213 H 559.23 -3.98493 -2.45603 0
M  V30 6214 H 559.403 -5.64478 -3.18226 0
M  V30 6215 N 552.809 0.956637 -1.25245 0
M  V30 6216 C 554.22 1.51569 -1.09012 0
M  V30 6217 C 554.571 1.93322 0.334813 0
M  V30 6218 O 553.696 1.78421 1.22454 0
M  V30 6219 C 554.291 2.75444 -1.97271 0
M  V30 6220 C 552.85 3.27669 -1.8523 0
M  V30 6221 C 551.997 2.00517 -1.91542 0
M  V30 6222 H 554.948 0.773746 -1.3856 0
M  V30 6223 H 554.969 3.4919 -1.51151 0
M  V30 6224 H 554.481 2.45024 -3.00973 0
M  V30 6225 H 552.582 3.62914 -0.844045 0
M  V30 6226 H 552.695 3.9582 -2.69932 0
M  V30 6227 H 551.059 2.15727 -1.35404 0
M  V30 6228 H 551.842 1.72448 -2.96844 0
M  V30 6229 N 554.287 1.06798 1.15896 0
M  V30 6230 C 555.536 0.782796 1.8589 0
M  V30 6231 C 555.849 -0.693498 1.82893 0
M  V30 6232 O 557.055 -1.09325 2.48516 0
M  V30 6233 C 555.511 1.3502 3.33613 0
M  V30 6234 C 555.119 2.8571 3.45071 0
M  V30 6235 C 556.863 1.14278 4.08829 0
M  V30 6236 C 554.77 3.35669 4.86909 0
M  V30 6237 H 553.7 0.289149 0.696354 0
M  V30 6238 H 556.351 1.28734 1.30766 0
M  V30 6239 H 554.733 0.773407 3.88374 0
M  V30 6240 H 555.907 3.49385 3.00445 0
M  V30 6241 H 554.222 3.05178 2.83294 0
M  V30 6242 H 556.819 1.49087 5.13495 0
M  V30 6243 H 557.162 0.0814575 4.1622 0
M  V30 6244 H 557.695 1.68563 3.60321 0
M  V30 6245 H 554.434 4.41302 4.84698 0
M  V30 6246 H 553.954 2.76745 5.32139 0
M  V30 6247 H 555.633 3.31296 5.55745 0
M  V30 6248 N 555.766 -1.3263 0.851289 0
M  V30 6249 C 557.043 -1.91982 0.374448 0
M  V30 6250 C 557.423 -1.77568 -1.14161 0
M  V30 6251 O 556.771 -1.1717 -1.96172 0
M  V30 6252 C 556.981 -3.38862 0.835088 0
M  V30 6253 C 558.329 -4.15999 0.850309 0
M  V30 6254 O 559.353 -3.47566 0.779505 0
M  V30 6255 O 558.212 -5.38189 0.949481 0
M  V30 6256 H 555.306 -0.819846 0.10854 0
M  V30 6257 H 557.852 -1.41422 0.937966 0
M  V30 6258 H 556.624 -3.43281 1.87814 0
M  V30 6259 H 556.247 -3.96821 0.248833 0
M  V30 6260 N 557.244 -0.608902 -1.45362 0
M  V30 6261 C 558.521 -0.0365378 -1.95566 0
M  V30 6262 C 558.901 1.43169 -1.55131 0
M  V30 6263 O 558.249 2.1349 -0.814513 0
M  V30 6264 C 558.459 -0.236026 -3.48201 0
M  V30 6265 C 559.807 -0.117518 -4.24437 0
M  V30 6266 O 560.831 -0.166217 -3.55812 0
M  V30 6267 O 559.69 -0.00372127 -5.465 0
M  V30 6268 H 556.784 0.0349874 -0.82626 0
M  V30 6269 H 559.33 -0.679055 -1.55521 0
M  V30 6270 H 558.102 -1.25569 -3.70605 0
M  V30 6271 H 557.725 0.441691 -3.95139 0
M  V30 6272 N 558.722 1.53707 -0.348139 0
M  V30 6273 C 559.952 2.05108 0.247864 0
M  V30 6274 C 560.36 1.22252 1.44399 0
M  V30 6275 O 559.703 0.251853 1.81965 0
M  V30 6276 C 559.765 3.52171 0.722187 0
M  V30 6277 C 559.429 4.5562 -0.354902 0
M  V30 6278 C 560.426 5.05883 -1.19911 0
M  V30 6279 C 558.111 4.99703 -0.510145 0
M  V30 6280 C 560.105 5.98814 -2.18406 0
M  V30 6281 C 557.792 5.92443 -1.49848 0
M  V30 6282 C 558.79 6.41887 -2.33389 0
M  V30 6283 O 558.478 7.32802 -3.3054 0
M  V30 6284 H 558.21 0.674086 0.0508296 0
M  V30 6285 H 560.764 1.99229 -0.49968 0
M  V30 6286 H 558.994 3.55529 1.52105 0
M  V30 6287 H 560.683 3.8652 1.23925 0
M  V30 6288 H 561.449 4.72586 -1.09028 0
M  V30 6289 H 557.328 4.60816 0.130274 0
M  V30 6290 H 560.872 6.3733 -2.83649 0
M  V30 6291 H 556.769 6.25155 -1.60786 0
M  V30 6292 H 557.537 7.50749 -3.26064 0
M  V30 6293 N 560.2 0.0768682 1.57412 0
M  V30 6294 C 561.11 -0.903207 2.16516 0
M  V30 6295 C 562.126 -1.32341 1.12968 0
M  V30 6296 O 563.302 -1.39507 1.45258 0
M  V30 6297 C 560.367 -2.1508 2.71922 0
M  V30 6298 C 559.428 -1.78653 3.90361 0
M  V30 6299 C 558.661 -2.97465 4.43114 0
M  V30 6300 O 558.884 -4.11638 3.94854 0
M  V30 6301 O 557.818 -2.76987 5.3438 0
M  V30 6302 H 561.644 -0.430427 3.00634 0
M  V30 6303 H 559.229 -0.146485 1.4868 0
M  V30 6304 H 561.111 -2.8823 3.07411 0
M  V30 6305 H 559.786 -2.61446 1.9086 0
M  V30 6306 H 558.693 -1.0274 3.59716 0
M  V30 6307 H 560.026 -1.37066 4.7273 0
M  V30 6308 N 561.678 -1.56367 -0.196722 0
M  V30 6309 C 562.588 -1.97617 -1.2643 0
M  V30 6310 C 563.604 -0.883598 -1.49895 0
M  V30 6311 O 564.78 -1.18921 -1.62541 0
M  V30 6312 C 561.845 -2.30595 -2.58895 0
M  V30 6313 C 560.906 -3.53551 -2.43516 0
M  V30 6314 C 560.139 -3.84946 -3.69665 0
M  V30 6315 O 560.362 -3.17655 -4.73763 0
M  V30 6316 O 559.296 -4.78379 -3.65291 0
M  V30 6317 H 563.122 -2.88648 -0.944233 0
M  V30 6318 H 560.707 -1.43901 -0.401592 0
M  V30 6319 H 562.589 -2.52889 -3.37083 0
M  V30 6320 H 561.264 -1.42732 -2.90533 0
M  V30 6321 H 560.171 -3.36507 -1.63445 0
M  V30 6322 H 561.504 -4.41875 -2.16812 0
M  V30 6323 N 563.156 0.464375 -1.50603 0
M  V30 6324 C 564.103 1.56152 -1.69956 0
M  V30 6325 C 565.073 1.57046 -0.54091 0
M  V30 6326 O 566.258 1.74473 -0.772258 0
M  V30 6327 C 563.398 2.94079 -1.80586 0
M  V30 6328 C 562.511 3.02923 -3.07996 0
M  V30 6329 C 561.646 4.31806 -3.09382 0
M  V30 6330 C 560.685 4.34417 -4.31218 0
M  V30 6331 N 559.822 5.54782 -4.30304 0
M  V30 6332 H 564.662 1.38955 -2.6362 0
M  V30 6333 H 562.199 0.675482 -1.30674 0
M  V30 6334 H 564.157 3.74073 -1.8473 0
M  V30 6335 H 562.787 3.09896 -0.903556 0
M  V30 6336 H 561.839 2.1576 -3.13292 0
M  V30 6337 H 563.151 3.00712 -3.97962 0
M  V30 6338 H 562.305 5.20153 -3.12292 0
M  V30 6339 H 561.044 4.36636 -2.17257 0
M  V30 6340 H 560.049 3.44467 -4.28512 0
M  V30 6341 H 561.274 4.31273 -5.24576 0
M  V30 6342 H 559.22 5.60384 -3.41037 0
M  V30 6343 H 559.137 5.54339 -5.14047 0
M  V30 6344 H 560.405 6.45235 -4.3737 0
M  V30 6345 N 564.634 1.40294 0.718013 0
M  V30 6346 C 565.881 1.3844 1.47786 0
M  V30 6347 C 566.209 -0.0140838 1.94495 0
M  V30 6348 O 565.464 -0.998165 1.68331 0
M  V30 6349 C 565.763 2.31814 2.72024 0
M  V30 6350 C 565.429 3.79117 2.44093 0
M  V30 6351 C 564.091 4.19249 2.36185 0
M  V30 6352 C 566.443 4.72212 2.20602 0
M  V30 6353 C 563.771 5.50516 2.02851 0
M  V30 6354 C 566.123 6.03775 1.88781 0
M  V30 6355 C 564.787 6.42953 1.79354 0
M  V30 6356 H 564.057 0.506588 0.540786 0
M  V30 6357 H 566.704 1.72929 0.822663 0
M  V30 6358 H 565.009 1.90501 3.42369 0
M  V30 6359 H 566.706 2.27664 3.30106 0
M  V30 6360 H 563.296 3.47318 2.51133 0
M  V30 6361 H 567.48 4.42026 2.25669 0
M  V30 6362 H 562.736 5.79776 1.94088 0
M  V30 6363 H 566.91 6.75428 1.69617 0
M  V30 6364 H 564.537 7.44584 1.53291 0
M  V30 6365 N 566.112 -0.949982 1.2575 0
M  V30 6366 C 567.389 -1.6718 1.01539 0
M  V30 6367 C 567.769 -2.06095 -0.456942 0
M  V30 6368 O 567.117 -1.77792 -1.43534 0
M  V30 6369 C 567.327 -2.8906 1.95564 0
M  V30 6370 C 568.675 -3.60909 2.23673 0
M  V30 6371 O 569.699 -2.9915 1.9336 0
M  V30 6372 O 568.558 -4.72127 2.75243 0
M  V30 6373 H 565.652 -0.731697 0.385419 0
M  V30 6374 H 568.198 -1.00249 1.36924 0
M  V30 6375 H 566.97 -2.57128 2.94959 0
M  V30 6376 H 566.593 -3.63719 1.60605 0
M  V30 6377 N 567.59 -1.07411 -1.15328 0
M  V30 6378 C 568.867 -0.710732 -1.82231 0
M  V30 6379 C 569.247 0.806732 -1.95077 0
M  V30 6380 O 568.595 1.72139 -1.50268 0
M  V30 6381 C 568.805 -1.42586 -3.18544 0
M  V30 6382 C 570.153 -1.57836 -3.94174 0
M  V30 6383 O 571.177 -1.38669 -3.281 0
M  V30 6384 O 570.036 -1.8938 -5.12638 0
M  V30 6385 H 567.13 -0.25297 -0.78736 0
M  V30 6386 H 569.676 -1.17508 -1.22434 0
M  V30 6387 H 568.448 -2.46008 -3.04296 0
M  V30 6388 H 568.071 -0.952332 -3.86026 0
M  V30 6389 N 569.068 1.32177 -0.85831 0
M  V30 6390 C 570.015 2.28794 -0.303607 0
M  V30 6391 C 570.985 1.55213 0.591453 0
M  V30 6392 O 572.17 1.83418 0.525585 0
M  V30 6393 C 569.31 3.41475 0.49889 0
M  V30 6394 C 568.423 4.2993 -0.422373 0
M  V30 6395 C 567.558 5.29743 0.393111 0
M  V30 6396 C 566.597 6.09842 -0.525317 0
M  V30 6397 N 565.734 7.01643 0.253208 0
M  V30 6398 H 570.574 2.75631 -1.13276 0
M  V30 6399 H 568.111 1.35606 -0.570026 0
M  V30 6400 H 570.069 4.05531 0.979826 0
M  V30 6401 H 568.699 2.95779 1.29284 0
M  V30 6402 H 567.751 3.66422 -1.02171 0
M  V30 6403 H 569.063 4.85899 -1.12709 0
M  V30 6404 H 568.217 5.9942 0.937056 0
M  V30 6405 H 566.956 4.744 1.13117 0
M  V30 6406 H 565.961 5.39066 -1.08112 0
M  V30 6407 H 567.186 6.6727 -1.26205 0
M  V30 6408 H 565.132 6.48725 0.974295 0
M  V30 6409 H 565.049 7.54981 -0.392398 0
M  V30 6410 H 566.317 7.756 0.778761 0
M  V30 6411 N 570.547 0.616602 1.45037 0
M  V30 6412 C 571.494 -0.0969439 2.30596 0
M  V30 6413 C 572.464 -0.851151 1.42635 0
M  V30 6414 O 573.649 -0.835092 1.71554 0
M  V30 6415 C 570.789 -1.08234 3.27688 0
M  V30 6416 C 569.902 -0.328072 4.30752 0
M  V30 6417 C 569.037 -1.30399 5.14946 0
M  V30 6418 C 568.076 -0.538049 6.09731 0
M  V30 6419 N 567.213 -1.46371 6.86673 0
M  V30 6420 H 572.053 0.63864 2.91076 0
M  V30 6421 H 569.59 0.326733 1.43425 0
M  V30 6422 H 571.548 -1.66688 3.82454 0
M  V30 6423 H 570.178 -1.78523 2.68941 0
M  V30 6424 H 569.23 0.372136 3.78575 0
M  V30 6425 H 570.542 0.269142 4.98073 0
M  V30 6426 H 569.696 -1.96032 5.74157 0
M  V30 6427 H 568.435 -1.93514 4.47665 0
M  V30 6428 H 567.44 0.131852 5.49642 0
M  V30 6429 H 568.665 0.0881732 6.79043 0
M  V30 6430 H 566.611 -2.08233 6.22073 0
M  V30 6431 H 566.528 -0.920152 7.50379 0
M  V30 6432 H 567.796 -2.10932 7.50418 0
M  V30 6433 N 572.025 -1.5352 0.356285 0
M  V30 6434 C 572.972 -2.25439 -0.494569 0
M  V30 6435 C 573.942 -1.25752 -1.08516 0
M  V30 6436 O 575.127 -1.54513 -1.1194 0
M  V30 6437 C 572.267 -3.04011 -1.63313 0
M  V30 6438 C 571.38 -4.18574 -1.06862 0
M  V30 6439 C 570.515 -4.84607 -2.17552 0
M  V30 6440 C 569.554 -5.91218 -1.58518 0
M  V30 6441 N 568.691 -6.50979 -2.63003 0
M  V30 6442 H 573.531 -2.97737 0.125244 0
M  V30 6443 H 571.068 -1.46916 0.0735789 0
M  V30 6444 H 573.026 -3.47834 -2.30363 0
M  V30 6445 H 571.656 -2.33986 -2.22374 0
M  V30 6446 H 570.708 -3.79303 -0.288672 0
M  V30 6447 H 572.02 -4.95215 -0.596924 0
M  V30 6448 H 571.174 -5.31566 -2.92442 0
M  V30 6449 H 569.913 -4.07418 -2.6807 0
M  V30 6450 H 568.918 -5.4363 -0.821391 0
M  V30 6451 H 570.143 -6.70322 -1.08836 0
M  V30 6452 H 568.089 -5.76648 -3.12751 0
M  V30 6453 H 568.006 -7.23131 -2.20493 0
M  V30 6454 H 569.274 -7.02589 -3.37623 0
M  V30 6455 N 573.503 -0.0852151 -1.57369 0
M  V30 6456 C 574.914 0.445428 -1.81309 0
M  V30 6457 C 575.265 1.68795 -1.00013 0
M  V30 6458 O 574.39 2.15211 -0.226573 0
M  V30 6459 C 574.985 0.814887 -3.28854 0
M  V30 6460 C 573.544 1.29032 -3.53592 0
M  V30 6461 C 572.691 0.282089 -2.75861 0
M  V30 6462 H 575.642 -0.310771 -1.55627 0
M  V30 6463 H 575.663 1.67524 -3.41637 0
M  V30 6464 H 575.175 -0.0896309 -3.87996 0
M  V30 6465 H 573.276 2.21289 -2.9977 0
M  V30 6466 H 573.389 1.25898 -4.62262 0
M  V30 6467 H 571.753 0.762182 -2.43029 0
M  V30 6468 H 572.536 -0.614936 -3.37748 0
M  V30 6469 N 574.981 1.5647 0.188427 0
M  V30 6470 C 575.928 1.95073 1.23349 0
M  V30 6471 C 576.898 0.812238 1.44886 0
M  V30 6472 O 578.083 1.07095 1.57909 0
M  V30 6473 C 575.223 2.30124 2.57171 0
M  V30 6474 C 574.336 3.57069 2.43157 0
M  V30 6475 C 573.471 3.81411 3.69729 0
M  V30 6476 C 572.51 5.0176 3.50575 0
M  V30 6477 N 571.647 5.22321 4.69175 0
M  V30 6478 H 576.487 2.84171 0.89728 0
M  V30 6479 H 574.024 1.40623 0.431683 0
M  V30 6480 H 575.982 2.48463 3.35145 0
M  V30 6481 H 574.612 1.44159 2.88822 0
M  V30 6482 H 573.664 3.4674 1.56447 0
M  V30 6483 H 574.976 4.452 2.24942 0
M  V30 6484 H 574.13 4.00026 4.56141 0
M  V30 6485 H 572.869 2.91624 3.90905 0
M  V30 6486 H 571.874 4.83061 2.62549 0
M  V30 6487 H 573.099 5.93063 3.30837 0
M  V30 6488 H 571.045 4.35483 4.90602 0
M  V30 6489 H 570.962 6.04643 4.53809 0
M  V30 6490 H 572.23 5.45401 5.56919 0
M  V30 6491 N 576.459 -0.456382 1.50847 0
M  V30 6492 C 577.736 -1.21739 1.53098 0
M  V30 6493 C 578.116 -2.09179 0.284132 0
M  V30 6494 O 577.464 -2.16466 -0.731773 0
M  V30 6495 C 577.674 -2.03573 2.83477 0
M  V30 6496 C 579.022 -2.61264 3.34703 0
M  V30 6497 O 580.046 -2.13802 2.84898 0
M  V30 6498 O 578.905 -3.47779 4.21559 0
M  V30 6499 H 575.999 -0.553219 0.614718 0
M  V30 6500 H 578.545 -0.467003 1.63148 0
M  V30 6501 H 577.317 -1.39232 3.65691 0
M  V30 6502 H 576.94 -2.85716 2.76499 0
M  V30 6503 N 577.937 -1.40673 -0.710563 0
M  V30 6504 C 579.185 -1.38947 -1.46759 0
M  V30 6505 C 579.506 0.00572879 -1.94999 0
M  V30 6506 O 578.776 0.961358 -1.70689 0
M  V30 6507 H 577.356 -0.5114 -0.544499 0
M  V30 6508 H 580.018 -1.75773 -0.842012 0
M  V30 6509 H 579.114 -2.06745 -2.33801 0
M  V30 6510 N 579.415 0.9433 -1.26252 0
M  V30 6511 C 580.362 2.0417 -1.07625 0
M  V30 6512 C 581.332 1.6609 0.0180738 0
M  V30 6513 O 582.517 1.90276 -0.141289 0
M  V30 6514 C 579.657 3.37653 -0.713043 0
M  V30 6515 C 578.77 3.88783 -1.8834 0
M  V30 6516 C 577.905 5.10642 -1.4635 0
M  V30 6517 C 576.944 5.54028 -2.60229 0
M  V30 6518 N 576.081 6.67092 -2.18936 0
M  V30 6519 H 580.921 2.19436 -2.01623 0
M  V30 6520 H 578.458 1.07519 -1.00389 0
M  V30 6521 H 580.416 4.14391 -0.483358 0
M  V30 6522 H 579.046 3.22241 0.18996 0
M  V30 6523 H 578.098 3.08464 -2.22608 0
M  V30 6524 H 579.41 4.16922 -2.73821 0
M  V30 6525 H 578.564 5.94832 -1.19414 0
M  V30 6526 H 577.303 4.84244 -0.579568 0
M  V30 6527 H 576.308 4.68396 -2.87898 0
M  V30 6528 H 577.533 5.82429 -3.49219 0
M  V30 6529 H 575.479 6.42381 -1.32974 0
M  V30 6530 H 575.396 6.94806 -2.97961 0
M  V30 6531 H 576.664 7.54662 -1.95206 0
M  V30 6532 N 580.893 1.08022 1.14757 0
M  V30 6533 C 582.142 0.802468 1.8505 0
M  V30 6534 C 582.455 -0.674061 1.83619 0
M  V30 6535 O 583.661 -1.06683 2.49662 0
M  V30 6536 C 582.117 1.38551 3.32162 0
M  V30 6537 C 581.725 2.89354 3.42021 0
M  V30 6538 C 583.469 1.18608 4.07594 0
M  V30 6539 C 581.376 3.40815 4.83321 0
M  V30 6540 H 580.306 0.296518 0.693248 0
M  V30 6541 H 582.957 1.30114 1.29393 0
M  V30 6542 H 581.339 0.814556 3.87532 0
M  V30 6543 H 582.513 3.52552 2.96722 0
M  V30 6544 H 580.828 3.08165 2.80041 0
M  V30 6545 H 583.425 1.54525 5.11885 0
M  V30 6546 H 583.768 0.125599 4.1611 0
M  V30 6547 H 584.301 1.72375 3.58513 0
M  V30 6548 H 581.04 4.46418 4.79991 0
M  V30 6549 H 580.56 2.82374 5.29174 0
M  V30 6550 H 582.239 3.37171 5.522 0
M  V30 6551 N 582.371 -1.3172 0.865308 0
M  V30 6552 C 583.334 -2.26918 0.322627 0
M  V30 6553 C 584.334 -1.52031 -0.523751 0
M  V30 6554 O 585.524 -1.70973 -0.333727 0
M  V30 6555 C 582.656 -3.36558 -0.542338 0
M  V30 6556 H 583.849 -2.76432 1.16298 0
M  V30 6557 H 581.402 -1.42573 0.640512 0
M  V30 6558 H 582.137 -2.92329 -1.40407 0
M  V30 6559 H 581.922 -3.92048 0.0636395 0
M  V30 6560 H 583.412 -4.07465 -0.91446 0
M  V30 6561 N 583.85 -0.624285 -1.44708 0
M  V30 6562 C 584.779 0.0717025 -2.3339 0
M  V30 6563 C 585.76 0.841814 -1.47809 0
M  V30 6564 O 586.946 0.809056 -1.76544 0
M  V30 6565 C 584.076 1.05852 -3.30776 0
M  V30 6566 C 583.029 0.400503 -4.26122 0
M  V30 6567 C 582.356 1.49674 -5.13324 0
M  V30 6568 C 583.656 -0.688924 -5.17737 0
M  V30 6569 H 585.35 -0.668819 -2.91834 0
M  V30 6570 H 582.896 -0.32308 -1.40329 0
M  V30 6571 H 584.849 1.5541 -3.91696 0
M  V30 6572 H 583.572 1.82984 -2.70526 0
M  V30 6573 H 582.231 -0.0743687 -3.66525 0
M  V30 6574 H 581.88 2.25877 -4.49431 0
M  V30 6575 H 581.58 1.06188 -5.77926 0
M  V30 6576 H 583.104 1.99427 -5.77115 0
M  V30 6577 H 584.518 -0.276724 -5.72632 0
M  V30 6578 H 582.915 -1.04652 -5.90904 0
M  V30 6579 H 583.985 -1.55884 -4.5916 0
M  V30 6580 N 585.328 1.53329 -0.364422 0
M  V30 6581 C 586.553 2.06132 0.229033 0
M  V30 6582 C 586.978 1.23625 1.41769 0
M  V30 6583 O 586.336 0.255038 1.79497 0
M  V30 6584 C 586.384 3.55544 0.60174 0
M  V30 6585 O 585.488 3.75771 1.69912 0
M  V30 6586 H 584.829 0.663148 0.0336213 0
M  V30 6587 H 587.359 1.97758 -0.524689 0
M  V30 6588 H 587.369 3.98549 0.873073 0
M  V30 6589 H 586.044 4.15039 -0.267421 0
M  V30 6590 H 584.621 3.44663 1.42343 0
M  V30 6591 N 586.806 0.0935595 1.57322 0
M  V30 6592 C 588.052 -0.571355 1.94585 0
M  V30 6593 C 588.385 -1.67929 0.975366 0
M  V30 6594 O 587.66 -1.94498 0.00816206 0
M  V30 6595 C 587.943 -1.12797 3.41978 0
M  V30 6596 C 587.796 -0.0251881 4.49793 0
M  V30 6597 C 589.115 -2.02682 3.90651 0
M  V30 6598 H 586.234 -0.206223 0.70756 0
M  V30 6599 H 588.876 0.163956 1.89291 0
M  V30 6600 H 587.026 -1.75461 3.4662 0
M  V30 6601 H 588.698 0.608979 4.57263 0
M  V30 6602 H 586.941 0.641399 4.29032 0
M  V30 6603 H 587.612 -0.455433 5.50118 0
M  V30 6604 H 590.088 -1.49925 3.88152 0
M  V30 6605 H 588.964 -2.38555 4.94351 0
M  V30 6606 H 589.225 -2.94362 3.29854 0
M  V30 6607 N 588.284 -1.56567 -0.180126 0
M  V30 6608 C 589.234 -1.92132 -1.22756 0
M  V30 6609 C 590.218 -0.788639 -1.40247 0
M  V30 6610 O 591.41 -1.05171 -1.42366 0
M  V30 6611 C 588.539 -2.27719 -2.56902 0
M  V30 6612 C 587.625 -3.47481 -2.43142 0
M  V30 6613 N 588.016 -4.64973 -1.99082 0
M  V30 6614 C 586.314 -3.51914 -2.73994 0
M  V30 6615 C 587.015 -5.47119 -1.97574 0
M  V30 6616 N 585.991 -4.87925 -2.39645 0
M  V30 6617 H 589.793 -2.80464 -0.878478 0
M  V30 6618 H 587.307 -1.57686 -0.388463 0
M  V30 6619 H 589.304 -2.51389 -3.32579 0
M  V30 6620 H 587.964 -1.40722 -2.92621 0
M  V30 6621 H 588.975 -4.89358 -1.69557 0
M  V30 6622 H 585.652 -2.75372 -3.13809 0
M  V30 6623 H 587.042 -6.51254 -1.65282 0
M  V30 6624 N 589.762 0.448376 -1.51087 0
M  V30 6625 C 590.725 1.52588 -1.71025 0
M  V30 6626 C 591.725 1.49958 -0.580442 0
M  V30 6627 O 592.915 1.52176 -0.847833 0
M  V30 6628 C 590.047 2.92163 -1.75652 0
M  V30 6629 H 591.24 1.36218 -2.67179 0
M  V30 6630 H 588.793 0.676313 -1.4091 0
M  V30 6631 H 589.528 3.13951 -0.812724 0
M  V30 6632 H 589.313 2.95478 -2.57751 0
M  V30 6633 H 590.803 3.70349 -1.92953 0
M  V30 6634 N 591.24 1.41047 0.703093 0
M  V30 6635 C 592.19 1.38774 1.80903 0
M  V30 6636 C 593.174 0.263275 1.58731 0
M  V30 6637 O 594.366 0.503362 1.69692 0
M  V30 6638 C 591.495 1.26497 3.19145 0
M  V30 6639 C 590.581 2.43775 3.47037 0
M  V30 6640 N 590.972 3.69249 3.45672 0
M  V30 6641 C 589.27 2.37425 3.77552 0
M  V30 6642 C 589.971 4.46989 3.72258 0
M  V30 6643 N 588.947 3.76998 3.91629 0
M  V30 6644 H 592.749 2.33714 1.78199 0
M  V30 6645 H 590.263 1.34996 0.902762 0
M  V30 6646 H 592.26 1.2295 3.98358 0
M  V30 6647 H 590.92 0.32534 3.23066 0
M  V30 6648 H 591.931 4.02239 3.26228 0
M  V30 6649 H 588.608 1.51895 3.88888 0
M  V30 6650 H 589.998 5.55894 3.77402 0
M  V30 6651 N 592.718 -0.936591 1.26751 0
M  V30 6652 C 594.134 -1.21095 1.03963 0
M  V30 6653 C 594.334 -2.00156 -0.232372 0
M  V30 6654 O 593.39 -2.3434 -0.940274 0
M  V30 6655 C 594.703 -1.96775 2.27377 0
M  V30 6656 C 596.251 -2.09749 2.32324 0
M  V30 6657 C 596.726 -2.88832 3.55443 0
M  V30 6658 N 598.217 -2.96404 3.55948 0
M  V30 6659 C 598.952 -3.58036 4.47881 0
M  V30 6660 N 598.448 -4.21132 5.50109 0
M  V30 6661 N 600.241 -3.55353 4.35523 0
M  V30 6662 H 592.392 -0.408173 2.08441 0
M  V30 6663 H 594.655 -0.243139 0.91629 0
M  V30 6664 H 594.361 -1.46094 3.19921 0
M  V30 6665 H 594.235 -2.97424 2.31989 0
M  V30 6666 H 596.622 -2.5962 1.40291 0
M  V30 6667 H 596.703 -1.08347 2.31721 0
M  V30 6668 H 596.347 -2.39647 4.47808 0
M  V30 6669 H 596.277 -3.90499 3.53296 0
M  V30 6670 H 598.768 -2.51552 2.82011 0
M  V30 6671 H 599.081 -4.66071 6.16439 0
M  V30 6672 H 597.426 -4.19705 5.53961 0
M  V30 6673 H 600.617 -3.05256 3.54875 0
M  V30 6674 H 600.79 -4.03097 5.07363 0
M  V30 6675 N 594.196 -1.08629 -1.14182 0
M  V30 6676 C 595.442 -0.818556 -1.85546 0
M  V30 6677 C 595.775 0.654076 -1.82854 0
M  V30 6678 O 595.05 1.48099 -1.26083 0
M  V30 6679 C 595.333 -1.34397 -3.3408 0
M  V30 6680 C 595.186 -2.8821 -3.45333 0
M  V30 6681 C 596.505 -0.971069 -4.29253 0
M  V30 6682 H 593.624 -0.298821 -0.673702 0
M  V30 6683 H 596.266 -1.34629 -1.34071 0
M  V30 6684 H 594.416 -0.895064 -3.78049 0
M  V30 6685 H 596.088 -3.41488 -3.10134 0
M  V30 6686 H 594.331 -3.25756 -2.86471 0
M  V30 6687 H 595.002 -3.20047 -4.49749 0
M  V30 6688 H 597.478 -1.35809 -3.93313 0
M  V30 6689 H 596.354 -1.36586 -5.31635 0
M  V30 6690 H 596.615 0.121659 -4.41933 0
M  V30 6691 N 595.674 1.31259 -0.872281 0
M  V30 6692 C 596.899 2.0133 -0.498099 0
M  V30 6693 C 597.324 1.65031 0.902568 0
M  V30 6694 O 596.682 0.860164 1.59596 0
M  V30 6695 C 596.73 3.54411 -0.665205 0
M  V30 6696 O 595.834 4.11347 0.294473 0
M  V30 6697 H 595.175 0.633844 -0.197832 0
M  V30 6698 H 597.705 1.67402 -1.17633 0
M  V30 6699 H 597.715 4.04147 -0.559373 0
M  V30 6700 H 596.39 3.80171 -1.68651 0
M  V30 6701 H 594.967 3.72624 0.143403 0
M  V30 6702 N 597.152 0.631951 1.44375 0
M  V30 6703 C 598.1 -0.0846693 2.32446 0
M  V30 6704 C 599.094 -0.834957 1.47393 0
M  V30 6705 O 600.3 -0.747764 1.63733 0
M  V30 6706 H 596.675 -0.0461508 0.750583 0
M  V30 6707 H 598.646 0.67619 2.90638 0
M  V30 6708 C 597.395 -1.05211 3.314 0
M  V30 6709 H 596.718 -0.484203 3.96857 0
M  V30 6710 H 598.158 -1.523 3.95703 0
M  V30 6711 C 596.617 -2.13776 2.60387 0
M  V30 6712 O 597.147 -3.21869 2.4034 0
M  V30 6713 N 595.353 -1.89733 2.20113 0
M  V30 6714 H 594.9 -1.01833 2.36618 0
M  V30 6715 H 594.858 -2.62572 1.72926 0
M  V30 6716 N 598.631 -1.53133 0.372548 0
M  V30 6717 C 599.877 -2.01654 -0.215277 0
M  V30 6718 C 600.21 -1.25914 -1.47849 0
M  V30 6719 O 599.485 -0.3548 -1.91237 0
M  V30 6720 C 599.768 -3.56609 -0.500187 0
M  V30 6721 C 599.621 -4.43036 0.777145 0
M  V30 6722 C 600.94 -4.20528 -1.29786 0
M  V30 6723 H 598.059 -0.732991 -0.0767686 0
M  V30 6724 H 600.701 -1.83335 0.498814 0
M  V30 6725 H 598.851 -3.7235 -1.10852 0
M  V30 6726 H 600.523 -4.39079 1.41447 0
M  V30 6727 H 598.766 -4.10723 1.39604 0
M  V30 6728 H 599.437 -5.49424 0.532662 0
M  V30 6729 H 601.913 -4.08663 -0.783198 0
M  V30 6730 H 600.789 -5.28962 -1.46596 0
M  V30 6731 H 601.05 -3.77051 -2.30836 0
M  V30 6732 N 600.109 -0.101901 -1.5727 0
M  V30 6733 C 601.357 0.559091 -1.94213 0
M  V30 6734 C 601.678 1.68297 -0.984948 0
M  V30 6735 O 600.948 1.95863 -0.0381975 0
M  V30 6736 H 599.528 0.20952 -0.717015 0
M  V30 6737 H 602.19 -0.166831 -1.94185 0
M  V30 6738 H 601.286 0.96485 -2.96811 0
M  V30 6739 N 601.587 1.56661 0.17182 0
M  V30 6740 C 602.535 1.97289 1.23207 0
M  V30 6741 C 603.529 0.861566 1.45854 0
M  V30 6742 O 604.735 1.04668 1.4644 0
M  V30 6743 H 601.11 0.627681 0.41415 0
M  V30 6744 H 603.081 2.85662 0.862542 0
M  V30 6745 C 601.83 2.34849 2.564 0
M  V30 6746 H 601.153 3.19903 2.39797 0
M  V30 6747 H 602.593 2.67121 3.29276 0
M  V30 6748 C 601.052 1.19172 3.15119 0
M  V30 6749 O 601.582 0.479113 3.98833 0
M  V30 6750 N 599.788 0.962415 2.74201 0
M  V30 6751 H 599.335 1.54365 2.06226 0
M  V30 6752 H 599.293 0.190272 3.13824 0
M  V30 6753 N 603.065 -0.440357 1.51323 0
M  V30 6754 C 604.013 -1.55492 1.72988 0
M  V30 6755 C 605.007 -1.58564 0.596138 0
M  V30 6756 O 606.213 -1.62345 0.777443 0
M  V30 6757 H 602.588 -0.516532 0.546533 0
M  V30 6758 H 604.559 -1.34392 2.66423 0
M  V30 6759 C 603.308 -2.93176 1.86931 0
M  V30 6760 H 602.631 -2.91543 2.73574 0
M  V30 6761 H 604.071 -3.70537 2.06103 0
M  V30 6762 C 602.53 -3.30988 0.628365 0
M  V30 6763 O 603.06 -4.01106 -0.218367 0
M  V30 6764 N 601.266 -2.86719 0.473339 0
M  V30 6765 H 600.813 -2.2983 1.16345 0
M  V30 6766 H 600.771 -3.12381 -0.355727 0
M  V30 6767 N 604.543 -1.41418 -0.695603 0
M  V30 6768 C 605.792 -1.40073 -1.4513 0
M  V30 6769 C 606.105 -0.0130439 -1.95596 0
M  V30 6770 O 607.311 0.123032 -2.71221 0
M  V30 6771 C 605.767 -2.46286 -2.62433 0
M  V30 6772 C 605.375 -3.90962 -2.18753 0
M  V30 6773 C 607.119 -2.54077 -3.40066 0
M  V30 6774 C 605.026 -4.88728 -3.33015 0
M  V30 6775 H 603.956 -0.520903 -0.545138 0
M  V30 6776 H 606.607 -1.67242 -0.75515 0
M  V30 6777 H 604.989 -2.12248 -3.34315 0
M  V30 6778 H 606.163 -4.34248 -1.54161 0
M  V30 6779 H 604.478 -3.86831 -1.54114 0
M  V30 6780 H 607.075 -3.24303 -4.25125 0
M  V30 6781 H 607.418 -1.5776 -3.8525 0
M  V30 6782 H 607.951 -2.87206 -2.75241 0
M  V30 6783 H 604.69 -5.86449 -2.92844 0
M  V30 6784 H 604.21 -4.50091 -3.96457 0
M  V30 6785 H 605.889 -5.09483 -3.98793 0
M  V30 6786 N 606.021 0.929856 -1.27246 0
M  V30 6787 C 607.437 1.20542 -1.04603 0
M  V30 6788 C 607.637 2.00276 0.221754 0
M  V30 6789 O 606.693 2.34835 0.927833 0
M  V30 6790 C 608.006 1.95566 -2.28417 0
M  V30 6791 C 609.554 2.08513 -2.33433 0
M  V30 6792 C 610.029 2.86943 -3.5697 0
M  V30 6793 N 611.52 2.94512 -3.57515 0
M  V30 6794 C 612.255 3.55656 -4.49774 0
M  V30 6795 N 611.751 4.18209 -5.52334 0
M  V30 6796 N 613.544 3.53038 -4.37402 0
M  V30 6797 H 605.695 0.397113 -2.08655 0
M  V30 6798 H 607.958 0.238277 -0.917566 0
M  V30 6799 H 607.664 1.44395 -3.20691 0
M  V30 6800 H 607.538 2.9619 -2.33563 0
M  V30 6801 H 609.925 2.58872 -1.41666 0
M  V30 6802 H 610.006 1.07117 -2.32292 0
M  V30 6803 H 609.65 2.37268 -4.49072 0
M  V30 6804 H 609.58 3.8862 -3.55362 0
M  V30 6805 H 612.071 2.50053 -2.83341 0
M  V30 6806 H 612.384 4.62796 -6.18902 0
M  V30 6807 H 610.729 4.16761 -5.56179 0
M  V30 6808 H 613.92 3.0337 -3.56489 0
M  V30 6809 H 614.093 4.004 -5.09493 0
M  V30 6810 N 607.499 1.09233 1.13605 0
M  V30 6811 C 608.447 0.724572 2.21027 0
M  V30 6812 C 609.441 -0.273595 1.67176 0
M  V30 6813 O 610.647 -0.135266 1.79491 0
M  V30 6814 H 607.022 0.216319 0.720215 0
M  V30 6815 H 608.993 1.63975 2.49309 0
M  V30 6816 C 607.742 0.159126 3.47336 0
M  V30 6817 H 607.065 0.918387 3.89109 0
M  V30 6818 H 608.505 -0.0602851 4.23957 0
M  V30 6819 C 606.964 -1.10514 3.18258 0
M  V30 6820 O 607.494 -2.18869 3.36837 0
M  V30 6821 N 605.7 -1.01886 2.72154 0
M  V30 6822 H 605.247 -0.137027 2.57235 0
M  V30 6823 H 605.205 -1.8655 2.53074 0
M  V30 6824 N 608.977 -1.30795 0.87923 0
M  V30 6825 C 609.94 -2.26563 0.346676 0
M  V30 6826 C 610.94 -1.52578 -0.507597 0
M  V30 6827 O 612.13 -1.71318 -0.315575 0
M  V30 6828 C 609.262 -3.37115 -0.506611 0
M  V30 6829 H 610.455 -2.75183 1.19223 0
M  V30 6830 H 608.008 -1.41886 0.655598 0
M  V30 6831 H 608.743 -2.93802 -1.37299 0
M  V30 6832 H 608.528 -3.91959 0.105218 0
M  V30 6833 H 610.018 -4.08412 -0.871192 0
M  V30 6834 N 610.455 -0.639598 -1.44038 0
M  V30 6835 C 611.683 -0.154811 -2.0632 0
M  V30 6836 C 612.098 1.17406 -1.47856 0
M  V30 6837 O 611.455 1.72193 -0.604638 0
M  V30 6838 C 611.506 -0.0429958 -3.61474 0
M  V30 6839 O 611.227 -1.31932 -4.17763 0
M  V30 6840 C 612.728 0.469486 -4.40807 0
M  V30 6841 H 609.948 -0.0835862 -0.665773 0
M  V30 6842 H 612.492 -0.876397 -1.84769 0
M  V30 6843 H 610.647 0.629075 -3.82258 0
M  V30 6844 H 611.061 -1.16965 -5.11292 0
M  V30 6845 H 612.535 0.496712 -5.49761 0
M  V30 6846 H 613.012 1.49819 -4.12857 0
M  V30 6847 H 613.618 -0.169624 -4.24962 0
M  V30 6848 N 611.933 1.52934 -0.380664 0
M  V30 6849 C 613.182 2.00651 0.205477 0
M  V30 6850 C 613.495 1.27164 1.48623 0
M  V30 6851 O 614.701 1.65547 2.15189 0
M  V30 6852 C 613.157 3.57479 0.416726 0
M  V30 6853 C 612.765 4.39857 -0.850268 0
M  V30 6854 C 614.509 4.13509 0.959702 0
M  V30 6855 C 612.416 5.88269 -0.607773 0
M  V30 6856 H 611.346 0.749684 0.0805614 0
M  V30 6857 H 613.997 1.76508 -0.501732 0
M  V30 6858 H 612.379 3.77836 1.18557 0
M  V30 6859 H 613.553 4.31269 -1.62307 0
M  V30 6860 H 611.868 3.95005 -1.31756 0
M  V30 6861 H 614.465 5.22039 1.15669 0
M  V30 6862 H 614.808 3.69054 1.92626 0
M  V30 6863 H 615.341 3.9701 0.250645 0
M  V30 6864 H 612.08 6.3703 -1.54509 0
M  V30 6865 H 611.6 5.99667 0.126247 0
M  V30 6866 H 613.279 6.46558 -0.239014 0
M  V30 6867 N 613.412 0.11024 1.57214 0
M  V30 6868 C 614.689 -0.592956 1.86396 0
M  V30 6869 C 615.069 -1.85379 1.00985 0
M  V30 6870 O 614.417 -2.28337 0.0863592 0
M  V30 6871 C 614.627 -0.893816 3.3736 0
M  V30 6872 C 615.975 -1.25069 4.05762 0
M  V30 6873 O 616.999 -0.984356 3.42329 0
M  V30 6874 O 615.858 -1.75017 5.17718 0
M  V30 6875 H 612.952 -0.29828 0.771335 0
M  V30 6876 H 615.498 0.144083 1.69087 0
M  V30 6877 H 614.27 2.6031e-05 3.913 0
M  V30 6878 H 613.893 -1.68631 3.60068 0
M  V30 6879 N 614.89 -1.56749 -0.16351 0
M  V30 6880 C 616.167 -1.73321 -0.906599 0
M  V30 6881 C 616.547 -0.673779 -2.00059 0
M  V30 6882 O 615.895 0.310121 -2.26386 0
M  V30 6883 C 616.105 -3.168 -1.46419 0
M  V30 6884 C 617.453 -3.77993 -1.93407 0
M  V30 6885 O 618.477 -3.20127 -1.56196 0
M  V30 6886 O 617.336 -4.79615 -2.61976 0
M  V30 6887 H 614.43 -0.708073 -0.427272 0
M  V30 6888 H 616.976 -1.69029 -0.150727 0
M  V30 6889 H 615.748 -3.85396 -0.677189 0
M  V30 6890 H 615.371 -3.2545 -2.28403 0
M  V30 6891 N 616.368 0.432326 -1.51554 0
M  V30 6892 C 617.596 1.20364 -1.68286 0
M  V30 6893 C 618.011 1.84888 -0.38233 0
M  V30 6894 O 617.368 1.70924 0.639627 0
M  V30 6895 C 617.419 2.28398 -2.80208 0
M  V30 6896 O 617.14 1.66512 -4.05223 0
M  V30 6897 C 618.641 3.18584 -3.08251 0
M  V30 6898 H 615.861 0.36259 -0.564596 0
M  V30 6899 H 618.405 0.511647 -1.97996 0
M  V30 6900 H 616.56 2.93305 -2.53083 0
M  V30 6901 H 616.974 2.37951 -4.67418 0
M  V30 6902 H 618.448 3.90511 -3.90135 0
M  V30 6903 H 618.925 3.79628 -2.2086 0
M  V30 6904 H 619.531 2.59372 -3.37055 0
M  V30 6905 N 617.846 1.41785 0.688094 0
M  V30 6906 C 619.095 1.4084 1.44385 0
M  V30 6907 C 619.408 0.0234166 1.95586 0
M  V30 6908 O 620.614 -0.108647 2.71283 0
M  V30 6909 C 619.07 2.47675 2.61123 0
M  V30 6910 C 618.678 3.92116 2.16677 0
M  V30 6911 C 620.422 2.55877 3.38714 0
M  V30 6912 C 618.329 4.90487 3.30419 0
M  V30 6913 H 617.259 0.523787 0.542368 0
M  V30 6914 H 619.91 1.6764 0.74627 0
M  V30 6915 H 618.292 2.14018 3.33185 0
M  V30 6916 H 619.466 4.35059 1.51856 0
M  V30 6917 H 617.781 3.87642 1.5206 0
M  V30 6918 H 620.378 3.26553 4.234 0
M  V30 6919 H 620.721 1.59801 3.84408 0
M  V30 6920 H 621.254 2.88662 2.73714 0
M  V30 6921 H 617.993 5.87994 2.89729 0
M  V30 6922 H 617.513 4.52187 3.94065 0
M  V30 6923 H 619.192 5.11591 3.96085 0
M  V30 6924 N 619.324 -0.923095 1.27737 0
M  V30 6925 C 620.256 -2.02871 1.06658 0
M  V30 6926 C 621.269 -1.62786 0.0212095 0
M  V30 6927 O 622.458 -1.76548 0.263267 0
M  V30 6928 C 619.558 -3.33603 0.59682 0
M  V30 6929 C 618.731 -4.02354 1.71551 0
M  V30 6930 C 617.79 -5.11364 1.24071 0
M  V30 6931 O 616.816 -5.35075 1.94123 0
M  V30 6932 N 618.018 -5.80416 0.0988444 0
M  V30 6933 H 620.783 -2.21515 2.01869 0
M  V30 6934 H 618.344 -1.09378 1.19365 0
M  V30 6935 H 620.336 -4.03845 0.262984 0
M  V30 6936 H 618.906 -3.11499 -0.262187 0
M  V30 6937 H 618.126 -3.25786 2.2194 0
M  V30 6938 H 619.414 -4.45035 2.46619 0
M  V30 6939 H 618.812 -5.63611 -0.485743 0
M  V30 6940 H 617.369 -6.51563 -0.17578 0
M  V30 6941 N 620.802 -1.09834 -1.13024 0
M  V30 6942 C 621.749 -0.741522 -2.18564 0
M  V30 6943 C 622.719 0.279236 -1.63736 0
M  V30 6944 O 623.904 0.159923 -1.90129 0
M  V30 6945 C 621.044 -0.17277 -3.44667 0
M  V30 6946 C 620.157 -1.24808 -4.13578 0
M  V30 6947 C 619.292 -0.641631 -5.27311 0
M  V30 6948 C 618.331 -1.69795 -5.88078 0
M  V30 6949 N 617.468 -1.11223 -6.93234 0
M  V30 6950 H 622.308 -1.64576 -2.48432 0
M  V30 6951 H 619.845 -0.822174 -1.21978 0
M  V30 6952 H 621.803 0.17482 -4.16834 0
M  V30 6953 H 620.433 0.694725 -3.15235 0
M  V30 6954 H 619.485 -1.71288 -3.39653 0
M  V30 6955 H 620.797 -2.04795 -4.54819 0
M  V30 6956 H 619.951 -0.243128 -6.06213 0
M  V30 6957 H 618.69 0.189742 -4.87331 0
M  V30 6958 H 617.695 -2.10595 -5.07868 0
M  V30 6959 H 618.92 -2.53206 -6.3013 0
M  V30 6960 H 616.866 -0.302208 -6.55304 0
M  V30 6961 H 616.783 -1.84901 -7.3304 0
M  V30 6962 H 618.051 -0.740068 -7.75979 0
M  V30 6963 N 622.28 1.30327 -0.886154 0
M  V30 6964 C 623.213 2.26241 -0.298407 0
M  V30 6965 C 624.191 1.51839 0.581704 0
M  V30 6966 O 625.375 1.80851 0.531536 0
M  V30 6967 C 622.502 3.33768 0.575888 0
M  V30 6968 C 621.548 4.25852 -0.235057 0
M  V30 6969 S 622.381 5.10277 -1.62411 0
M  V30 6970 C 623.537 6.21313 -0.756368 0
M  V30 6971 H 623.77 2.75744 -1.11141 0
M  V30 6972 H 621.303 1.38341 -0.685651 0
M  V30 6973 H 623.261 3.96186 1.07458 0
M  V30 6974 H 621.922 2.82986 1.363 0
M  V30 6975 H 621.115 5.02143 0.432198 0
M  V30 6976 H 620.717 3.68015 -0.666409 0
M  V30 6977 H 623.009 6.77495 0.0261451 0
M  V30 6978 H 623.952 6.92226 -1.49093 0
M  V30 6979 H 624.36 5.63611 -0.316749 0
M  V30 6980 N 623.758 0.647228 1.43697 0
M  V30 6981 C 624.988 0.16551 2.05936 0
M  V30 6982 C 625.396 -1.17164 1.48557 0
M  V30 6983 O 624.739 -1.73307 0.60914 0
M  V30 6984 C 624.801 -0.00648082 3.59499 0
M  V30 6985 C 624.465 1.25503 4.39429 0
M  V30 6986 C 625.462 2.18241 4.71876 0
M  V30 6987 C 623.147 1.49494 4.79538 0
M  V30 6988 C 625.141 3.33268 5.43333 0
M  V30 6989 C 622.828 2.64815 5.50742 0
M  V30 6990 C 623.826 3.56528 5.82561 0
M  V30 6991 O 623.514 4.69836 6.52311 0
M  V30 6992 H 623.246 0.0844124 0.670709 0
M  V30 6993 H 625.8 0.88638 1.8529 0
M  V30 6994 H 624.03 -0.782661 3.78697 0
M  V30 6995 H 625.719 -0.444794 4.03456 0
M  V30 6996 H 626.485 2.00946 4.41413 0
M  V30 6997 H 622.364 0.789912 4.54182 0
M  V30 6998 H 625.908 4.04874 5.68087 0
M  V30 6999 H 621.805 2.82047 5.8062 0
M  V30 7000 H 622.573 4.69024 6.70789 0
M  V30 7001 N 625.236 -1.5273 0.388769 0
M  V30 7002 C 626.466 -2.05693 -0.193397 0
M  V30 7003 C 626.874 -1.26038 -1.41107 0
M  V30 7004 O 626.217 -0.30001 -1.81234 0
M  V30 7005 C 626.279 -3.53962 -0.628561 0
M  V30 7006 C 625.943 -4.54519 0.475576 0
M  V30 7007 C 626.94 -5.02526 1.33281 0
M  V30 7008 C 624.625 -4.98174 0.642453 0
M  V30 7009 C 626.619 -5.92812 2.34205 0
M  V30 7010 C 624.306 -5.88262 1.65503 0
M  V30 7011 C 625.304 -6.35473 2.50325 0
M  V30 7012 O 624.992 -7.23781 3.49852 0
M  V30 7013 H 624.724 -0.675197 -0.0329395 0
M  V30 7014 H 627.278 -1.97835 0.552326 0
M  V30 7015 H 625.508 -3.59437 -1.42625 0
M  V30 7016 H 627.197 -3.89669 -1.13633 0
M  V30 7017 H 627.963 -4.6953 1.21519 0
M  V30 7018 H 623.842 -4.60999 -0.00805093 0
M  V30 7019 H 627.386 -6.29585 3.00447 0
M  V30 7020 H 623.283 -6.20672 1.77304 0
M  V30 7021 H 624.051 -7.4184 3.45855 0
M  V30 7022 N 626.714 -0.118576 -1.57153 0
M  V30 7023 C 627.939 0.550582 -1.99958 0
M  V30 7024 C 628.364 1.59458 -0.997736 0
M  V30 7025 O 627.722 1.81274 0.0306269 0
M  V30 7026 C 627.77 1.15379 -3.41643 0
M  V30 7027 O 626.874 2.26932 -3.44348 0
M  V30 7028 H 626.215 0.137567 -0.649593 0
M  V30 7029 H 628.745 -0.206926 -2.03551 0
M  V30 7030 H 628.755 1.48942 -3.79843 0
M  V30 7031 H 627.43 0.389087 -4.14076 0
M  V30 7032 H 626.007 1.94812 -3.17967 0
M  V30 7033 N 628.193 1.56834 0.155195 0
M  V30 7034 C 629.604 1.72421 0.716082 0
M  V30 7035 C 629.955 0.731685 1.82046 0
M  V30 7036 O 629.08 -0.103481 2.16152 0
M  V30 7037 C 629.675 3.12629 1.30571 0
M  V30 7038 C 628.234 3.29846 1.81325 0
M  V30 7039 C 627.381 2.68359 0.698494 0
M  V30 7040 H 630.332 1.58544 -0.0703861 0
M  V30 7041 H 630.353 3.12174 2.1755 0
M  V30 7042 H 629.865 3.84844 0.501701 0
M  V30 7043 H 627.966 2.62614 2.64319 0
M  V30 7044 H 628.079 4.37727 1.9476 0
M  V30 7045 H 626.443 2.28604 1.12305 0
M  V30 7046 H 627.226 3.43171 -0.0939366 0
M  V30 7047 N 629.671 -0.424282 1.51781 0
M  V30 7048 C 631.082 -1.00368 1.57427 0
M  V30 7049 C 631.433 -1.91962 0.40558 0
M  V30 7050 O 630.558 -2.111 -0.47601 0
M  V30 7051 C 631.153 -1.82707 2.85313 0
M  V30 7052 C 629.712 -2.35675 2.93487 0
M  V30 7053 C 628.859 -1.1524 2.5222 0
M  V30 7054 H 631.81 -0.205064 1.5737 0
M  V30 7055 H 631.831 -2.68294 2.69812 0
M  V30 7056 H 631.343 -1.16017 3.70353 0
M  V30 7057 H 629.444 -3.05781 2.12906 0
M  V30 7058 H 629.557 -2.67578 3.97415 0
M  V30 7059 H 627.921 -1.50174 2.05718 0
M  V30 7060 H 628.704 -0.5014 3.39619 0
M  V30 7061 N 631.149 -1.42148 -0.680565 0
M  V30 7062 C 632.395 -1.42521 -1.44277 0
M  V30 7063 C 632.728 -0.0393718 -1.9416 0
M  V30 7064 O 632.003 0.935425 -1.70529 0
M  V30 7065 C 632.286 -2.44475 -2.64394 0
M  V30 7066 C 632.139 -3.92226 -2.20179 0
M  V30 7067 C 633.458 -2.43491 -3.66606 0
M  V30 7068 H 630.577 -0.518985 -0.523282 0
M  V30 7069 H 633.219 -1.73524 -0.773914 0
M  V30 7070 H 631.369 -2.18168 -3.21458 0
M  V30 7071 H 633.041 -4.29493 -1.68327 0
M  V30 7072 H 631.284 -4.0637 -1.5181 0
M  V30 7073 H 631.955 -4.59133 -3.06433 0
M  V30 7074 H 634.431 -2.66872 -3.19247 0
M  V30 7075 H 633.307 -3.16816 -4.4824 0
M  V30 7076 H 633.568 -1.45881 -4.17338 0
M  V30 7077 N 632.627 0.916307 -1.28225 0
M  V30 7078 C 633.873 1.66765 -1.154 0
M  V30 7079 C 634.206 1.91912 0.297251 0
M  V30 7080 O 633.481 1.51766 1.21644 0
M  V30 7081 C 633.764 3.02715 -1.95028 0
M  V30 7082 C 633.617 2.84738 -3.48201 0
M  V30 7083 C 634.936 4.03215 -1.76369 0
M  V30 7084 H 632.055 0.605205 -0.42059 0
M  V30 7085 H 634.697 1.06255 -1.57512 0
M  V30 7086 H 632.847 3.54365 -1.59242 0
M  V30 7087 H 634.519 2.40118 -3.9388 0
M  V30 7088 H 632.762 2.19848 -3.73964 0
M  V30 7089 H 633.433 3.8127 -3.99171 0
M  V30 7090 H 635.909 3.60617 -2.07593 0
M  V30 7091 H 634.785 4.96306 -2.34459 0
M  V30 7092 H 635.046 4.36288 -0.71452 0
M  V30 7093 N 634.105 1.10431 1.1244 0
M  V30 7094 C 635.052 0.753103 2.18167 0
M  V30 7095 C 636.022 -0.270549 1.63882 0
M  V30 7096 O 637.207 -0.149837 1.90211 0
M  V30 7097 C 634.347 0.191046 3.44571 0
M  V30 7098 C 633.46 1.26999 4.12911 0
M  V30 7099 C 632.595 0.669586 5.26963 0
M  V30 7100 C 631.634 1.72912 5.87169 0
M  V30 7101 N 630.771 1.14898 6.92635 0
M  V30 7102 H 635.611 1.65892 2.47556 0
M  V30 7103 H 633.148 0.828631 1.21541 0
M  V30 7104 H 635.106 -0.152712 4.1692 0
M  V30 7105 H 633.736 -0.677997 3.15599 0
M  V30 7106 H 632.788 1.73087 3.3874 0
M  V30 7107 H 634.1 2.07204 4.53727 0
M  V30 7108 H 633.254 0.275274 6.06075 0
M  V30 7109 H 631.993 -0.163895 4.87425 0
M  V30 7110 H 630.998 2.13286 5.06744 0
M  V30 7111 H 632.223 2.56544 6.28778 0
M  V30 7112 H 630.169 0.336956 6.55134 0
M  V30 7113 H 630.086 1.88786 7.32049 0
M  V30 7114 H 631.354 0.78121 7.75576 0
M  V30 7115 N 635.583 -1.29855 0.893053 0
M  V30 7116 C 636.546 -2.26183 0.370687 0
M  V30 7117 C 637.546 -1.53108 -0.491385 0
M  V30 7118 O 638.736 -1.71643 -0.297386 0
M  V30 7119 C 635.868 -3.37633 -0.470827 0
M  V30 7120 H 637.061 -2.73903 1.22135 0
M  V30 7121 H 634.614 -1.41183 0.67061 0
M  V30 7122 H 635.349 -2.95241 -1.34175 0
M  V30 7123 H 635.134 -3.91825 0.146784 0
M  V30 7124 H 636.624 -4.09313 -0.827825 0
M  V30 7125 N 637.061 -0.65484 -1.43351 0
M  V30 7126 C 638.308 -0.168892 -2.01794 0
M  V30 7127 C 638.636 1.2177 -1.51665 0
M  V30 7128 O 637.891 1.82717 -0.70092 0
M  V30 7129 C 638.19 -0.130424 -3.57162 0
M  V30 7130 C 637.856 -1.45898 -4.26643 0
M  V30 7131 C 636.518 -1.82279 -4.4534 0
M  V30 7132 C 638.87 -2.33485 -4.65976 0
M  V30 7133 C 636.198 -3.0591 -5.00635 0
M  V30 7134 C 638.55 -3.5641 -5.22642 0
M  V30 7135 C 637.214 -3.92985 -5.39555 0
M  V30 7136 H 636.484 -0.061802 -0.738418 0
M  V30 7137 H 639.131 -0.845869 -1.71806 0
M  V30 7138 H 637.436 0.630008 -3.86702 0
M  V30 7139 H 639.133 0.262465 -4.0014 0
M  V30 7140 H 635.723 -1.16591 -4.12437 0
M  V30 7141 H 639.907 -2.06668 -4.51223 0
M  V30 7142 H 635.163 -3.34295 -5.11915 0
M  V30 7143 H 639.337 -4.24495 -5.52066 0
M  V30 7144 H 636.964 -4.88862 -5.82167 0
M  V30 7145 N 638.539 1.52521 -0.396863 0
M  V30 7146 C 639.449 2.30403 0.44178 0
M  V30 7147 C 640.465 1.37625 1.06468 0
M  V30 7148 O 641.641 1.70697 1.06886 0
M  V30 7149 C 638.706 3.1013 1.54986 0
M  V30 7150 C 637.767 4.18628 0.951279 0
M  V30 7151 C 637 4.94543 2.00655 0
M  V30 7152 O 637.223 4.70629 3.22281 0
M  V30 7153 O 636.157 5.797 1.61962 0
M  V30 7154 H 639.983 3.03087 -0.192892 0
M  V30 7155 H 637.568 1.48537 -0.16038 0
M  V30 7156 H 639.45 3.59816 2.19341 0
M  V30 7157 H 638.125 2.40251 2.16935 0
M  V30 7158 H 637.032 3.73119 0.270773 0
M  V30 7159 H 638.365 4.90763 0.375887 0
M  V30 7160 N 640.017 0.126909 1.57088 0
M  V30 7161 C 640.965 -0.837618 2.16995 0
M  V30 7162 C 641.959 -1.26974 1.12133 0
M  V30 7163 O 643.165 -1.24056 1.30423 0
M  V30 7164 H 639.54 -0.288256 0.694559 0
M  V30 7165 H 641.511 -0.307957 2.96807 0
M  V30 7166 C 640.26 -2.07474 2.79016 0
M  V30 7167 H 639.583 -1.75117 3.59408 0
M  V30 7168 H 641.023 -2.72949 3.24461 0
M  V30 7169 C 639.482 -2.86967 1.76498 0
M  V30 7170 O 640.012 -3.82625 1.22316 0
M  V30 7171 N 638.218 -2.51111 1.46258 0
M  V30 7172 H 637.765 -1.73389 1.90509 0
M  V30 7173 H 637.723 -3.04594 0.779085 0
M  V30 7174 N 641.495 -1.56914 -0.146875 0
M  V30 7175 C 642.744 -1.82546 -0.857898 0
M  V30 7176 C 643.057 -0.708169 -1.8233 0
M  V30 7177 O 644.263 -0.850093 -2.57848 0
M  V30 7178 C 642.719 -3.23548 -1.57623 0
M  V30 7179 C 642.327 -4.43212 -0.653224 0
M  V30 7180 C 644.071 -3.58453 -2.27402 0
M  V30 7181 C 641.978 -5.75237 -1.37318 0
M  V30 7182 H 640.908 -0.680786 -0.32411 0
M  V30 7183 H 643.559 -1.83166 -0.110639 0
M  V30 7184 H 641.941 -3.17315 -2.36912 0
M  V30 7185 H 643.115 -4.60682 0.104452 0
M  V30 7186 H 641.43 -4.16351 -0.0638336 0
M  V30 7187 H 644.027 -4.54349 -2.81907 0
M  V30 7188 H 644.37 -2.84516 -3.03901 0
M  V30 7189 H 644.903 -3.66347 -1.55032 0
M  V30 7190 H 641.642 -6.52269 -0.650041 0
M  V30 7191 H 641.162 -5.61703 -2.10357 0
M  V30 7192 H 642.841 -6.18039 -1.91406 0
M  V30 7193 N 642.974 0.416227 -1.52004 0
M  V30 7194 C 644.214 1.17307 -1.67387 0
M  V30 7195 C 644.578 1.87959 -0.39183 0
M  V30 7196 O 645.779 2.65472 -0.421671 0
M  V30 7197 C 644.05 2.14661 -2.85754 0
M  V30 7198 S 645.609 2.98549 -3.21581 0
M  V30 7199 H 642.427 0.397505 -0.5895 0
M  V30 7200 H 645.029 0.461431 -1.89976 0
M  V30 7201 H 643.733 1.61431 -3.77317 0
M  V30 7202 H 643.264 2.90375 -2.65417 0
M  V30 7203 H 645.279 4.16536 -2.69652 0
M  V30 7204 N 644.452 1.42507 0.673017 0
M  V30 7205 C 645.699 1.43072 1.43306 0
M  V30 7206 C 646.027 0.0478004 1.94441 0
M  V30 7207 O 645.282 -0.944106 1.71421 0
M  V30 7208 C 645.581 2.40351 2.64511 0
M  V30 7209 C 645.247 3.8669 2.31908 0
M  V30 7210 C 643.909 4.26551 2.22728 0
M  V30 7211 C 646.261 4.78991 2.05467 0
M  V30 7212 C 643.589 5.56691 1.85234 0
M  V30 7213 C 645.941 6.09476 1.69477 0
M  V30 7214 C 644.605 6.48334 1.58808 0
M  V30 7215 H 643.875 0.523536 0.524395 0
M  V30 7216 H 646.522 1.75459 0.76723 0
M  V30 7217 H 644.827 2.01297 3.36135 0
M  V30 7218 H 646.524 2.38051 3.22696 0
M  V30 7219 H 643.114 3.55132 2.39956 0
M  V30 7220 H 647.298 4.48982 2.11492 0
M  V30 7221 H 642.554 5.85657 1.75545 0
M  V30 7222 H 646.728 6.80482 1.48043 0
M  V30 7223 H 644.355 7.49084 1.29525 0
M  V30 7224 N 645.93 -0.909495 1.28709 0
M  V30 7225 C 647.179 -1.65365 1.15487 0
M  V30 7226 C 647.492 -1.93364 -0.294941 0
M  V30 7227 O 648.698 -2.65905 -0.548338 0
M  V30 7228 C 647.154 -2.97923 2.01916 0
M  V30 7229 C 646.762 -2.77556 3.51663 0
M  V30 7230 C 648.506 -3.75814 1.97393 0
M  V30 7231 C 646.413 -4.0578 4.30229 0
M  V30 7232 H 645.343 -0.620323 0.42862 0
M  V30 7233 H 647.994 -1.00894 1.53273 0
M  V30 7234 H 646.376 -3.63552 1.5699 0
M  V30 7235 H 647.55 -2.2058 4.04575 0
M  V30 7236 H 645.865 -2.13072 3.57756 0
M  V30 7237 H 648.462 -4.70866 2.53357 0
M  V30 7238 H 648.805 -4.05277 0.951643 0
M  V30 7239 H 649.338 -3.1701 2.40311 0
M  V30 7240 H 646.077 -3.81488 5.33055 0
M  V30 7241 H 645.597 -4.62351 3.82089 0
M  V30 7242 H 647.276 -4.74004 4.40374 0
M  V30 7243 N 647.408 -1.11026 -1.11852 0
M  V30 7244 C 648.371 -0.768006 -2.1595 0
M  V30 7245 C 649.371 0.210538 -1.59416 0
M  V30 7246 O 650.561 -0.0133978 -1.74195 0
M  V30 7247 C 647.693 -0.138678 -3.40618 0
M  V30 7248 H 648.886 -1.69012 -2.4774 0
M  V30 7249 H 646.439 -0.911578 -1.26964 0
M  V30 7250 H 647.174 0.793872 -3.14433 0
M  V30 7251 H 646.959 -0.843012 -3.8293 0
M  V30 7252 H 648.449 0.0848039 -4.17514 0
M  V30 7253 N 648.886 1.2938 -0.899927 0
M  V30 7254 C 649.796 2.31462 -0.382437 0
M  V30 7255 C 650.812 1.65956 0.522929 0
M  V30 7256 O 651.988 1.97131 0.412454 0
M  V30 7257 C 649.053 3.44595 0.381472 0
M  V30 7258 C 648.114 4.25692 -0.555444 0
M  V30 7259 C 647.347 5.33422 0.172102 0
M  V30 7260 O 647.57 5.53053 1.396 0
M  V30 7261 O 646.504 5.99939 -0.485491 0
M  V30 7262 H 650.33 2.77706 -1.22934 0
M  V30 7263 H 647.915 1.33821 -0.664259 0
M  V30 7264 H 649.797 4.13474 0.813442 0
M  V30 7265 H 648.472 3.00458 1.20443 0
M  V30 7266 H 647.379 3.59453 -1.03653 0
M  V30 7267 H 648.712 4.73471 -1.34483 0
M  V30 7268 N 650.364 0.662433 1.43002 0
M  V30 7269 C 651.294 -0.00979809 2.33498 0
M  V30 7270 C 652.275 -0.802329 1.49989 0
M  V30 7271 O 653.46 -0.761964 1.78627 0
M  V30 7272 C 650.59 -0.970446 3.33466 0
M  V30 7273 C 649.544 -0.287383 4.27034 0
M  V30 7274 C 648.87 -1.36012 5.17112 0
M  V30 7275 C 650.17 0.82595 5.15728 0
M  V30 7276 H 651.864 0.745959 2.89958 0
M  V30 7277 H 649.41 0.360172 1.39423 0
M  V30 7278 H 651.363 -1.44971 3.95679 0
M  V30 7279 H 650.087 -1.75748 2.75282 0
M  V30 7280 H 648.746 0.17152 3.66199 0
M  V30 7281 H 648.394 -2.13882 4.55262 0
M  V30 7282 H 648.094 -0.908276 5.80538 0
M  V30 7283 H 649.618 -1.84056 5.82199 0
M  V30 7284 H 651.032 0.42845 5.71697 0
M  V30 7285 H 649.429 1.20282 5.87922 0
M  V30 7286 H 650.499 1.68003 4.54866 0
M  V30 7287 N 651.842 -1.52309 0.404946 0
M  V30 7288 C 652.772 -2.29805 -0.41376 0
M  V30 7289 C 653.753 -1.3384 -1.0498 0
M  V30 7290 O 654.938 -1.62745 -1.05961 0
M  V30 7291 C 652.068 -3.11639 -1.53292 0
M  V30 7292 C 651.022 -4.15616 -1.02211 0
M  V30 7293 C 650.348 -4.8577 -2.23455 0
M  V30 7294 C 651.648 -5.2224 -0.0790725 0
M  V30 7295 H 653.342 -2.98493 0.232878 0
M  V30 7296 H 650.888 -1.43552 0.113441 0
M  V30 7297 H 652.841 -3.64618 -2.11262 0
M  V30 7298 H 651.565 -2.40712 -2.20738 0
M  V30 7299 H 650.224 -3.63641 -0.46484 0
M  V30 7300 H 649.872 -4.11376 -2.89445 0
M  V30 7301 H 649.572 -5.56058 -1.89929 0
M  V30 7302 H 651.096 -5.4156 -2.82038 0
M  V30 7303 H 652.51 -5.70485 -0.567438 0
M  V30 7304 H 650.907 -5.99867 0.167167 0
M  V30 7305 H 651.977 -4.77078 0.867447 0
M  V30 7306 N 653.32 -0.135238 -1.57019 0
M  V30 7307 C 654.267 0.808908 -2.1616 0
M  V30 7308 C 655.237 1.25234 -1.09113 0
M  V30 7309 O 656.422 1.32697 -1.37099 0
M  V30 7310 C 653.562 2.04729 -2.77813 0
M  V30 7311 C 652.675 1.65074 -3.99218 0
M  V30 7312 C 651.81 2.84002 -4.48906 0
M  V30 7313 C 650.849 2.40663 -5.62803 0
M  V30 7314 N 649.986 3.5256 -6.07162 0
M  V30 7315 H 654.826 0.297751 -2.96509 0
M  V30 7316 H 652.363 0.135264 -1.46477 0
M  V30 7317 H 654.321 2.7731 -3.11697 0
M  V30 7318 H 652.951 2.53275 -2.00128 0
M  V30 7319 H 652.003 0.823029 -3.7139 0
M  V30 7320 H 653.315 1.29236 -4.81767 0
M  V30 7321 H 652.469 3.64788 -4.84783 0
M  V30 7322 H 651.208 3.23076 -3.65339 0
M  V30 7323 H 650.213 1.58314 -5.26514 0
M  V30 7324 H 651.438 2.02687 -6.48147 0
M  V30 7325 H 649.384 3.91278 -5.26534 0
M  V30 7326 H 649.301 3.20699 -6.84608 0
M  V30 7327 H 650.569 4.33738 -6.47682 0
M  V30 7328 N 654.798 1.5699 0.138552 0
M  V30 7329 C 655.745 1.98899 1.17081 0
M  V30 7330 C 656.715 0.857922 1.42228 0
M  V30 7331 O 657.9 1.12065 1.54422 0
M  V30 7332 C 655.04 2.38189 2.4972 0
M  V30 7333 C 654.153 3.64624 2.31674 0
M  V30 7334 C 653.288 3.9298 3.57407 0
M  V30 7335 C 652.327 5.1266 3.34435 0
M  V30 7336 N 651.464 5.36983 4.5232 0
M  V30 7337 H 656.304 2.86881 0.80642 0
M  V30 7338 H 653.841 1.41925 0.386727 0
M  V30 7339 H 655.799 2.59 3.2707 0
M  V30 7340 H 654.429 1.53275 2.84089 0
M  V30 7341 H 653.481 3.51542 1.45337 0
M  V30 7342 H 654.793 4.52131 2.10664 0
M  V30 7343 H 653.947 4.14335 4.43183 0
M  V30 7344 H 652.686 3.03912 3.8143 0
M  V30 7345 H 651.691 4.9117 2.47048 0
M  V30 7346 H 652.916 6.03288 3.11802 0
M  V30 7347 H 650.862 4.50871 4.76499 0
M  V30 7348 H 650.779 6.18775 4.34343 0
M  V30 7349 H 652.047 5.62842 5.39285 0
M  V30 7350 N 656.276 -0.40816 1.52223 0
M  V30 7351 C 657.223 -1.49737 1.75635 0
M  V30 7352 C 658.193 -1.5493 0.598824 0
M  V30 7353 O 659.378 -1.71487 0.83648 0
M  V30 7354 C 656.518 -2.87174 1.91376 0
M  V30 7355 C 655.631 -2.91283 3.19027 0
M  V30 7356 C 654.766 -4.20026 3.25195 0
M  V30 7357 C 653.805 -4.18113 4.47044 0
M  V30 7358 N 652.942 -5.38429 4.50598 0
M  V30 7359 H 657.782 -1.29075 2.68596 0
M  V30 7360 H 655.319 -0.626518 1.33091 0
M  V30 7361 H 657.277 -3.66959 1.98486 0
M  V30 7362 H 655.907 -3.06329 1.01795 0
M  V30 7363 H 654.959 -2.03984 3.21084 0
M  V30 7364 H 656.271 -2.85734 4.08849 0
M  V30 7365 H 655.425 -5.08204 3.31382 0
M  V30 7366 H 654.164 -4.28271 2.33313 0
M  V30 7367 H 653.169 -3.28325 4.41002 0
M  V30 7368 H 654.394 -4.11507 5.40221 0
M  V30 7369 H 652.34 -5.4734 3.616 0
M  V30 7370 H 652.257 -5.34879 5.34266 0
M  V30 7371 H 653.525 -6.28557 4.61016 0
M  V30 7372 N 657.755 -1.42862 -0.66545 0
M  V30 7373 C 659.032 -1.3431 -1.42197 0
M  V30 7374 C 659.412 0.0150265 -2.11095 0
M  V30 7375 O 658.76 1.03101 -2.03918 0
M  V30 7376 C 658.97 -2.51783 -2.41674 0
M  V30 7377 C 660.318 -2.94321 -3.0604 0
M  V30 7378 O 661.342 -2.51741 -2.52001 0
M  V30 7379 O 660.201 -3.68047 -4.03985 0
M  V30 7380 H 657.295 -0.530159 -0.634713 0
M  V30 7381 H 659.841 -1.54888 -0.693386 0
M  V30 7382 H 658.613 -3.42282 -1.89627 0
M  V30 7383 H 658.236 -2.33241 -3.22001 0
M  V30 7384 N 659.233 0.902656 -1.29189 0
M  V30 7385 C 660.649 1.18296 -1.07137 0
M  V30 7386 C 660.849 2.00701 0.179223 0
M  V30 7387 O 659.905 2.3675 0.877812 0
M  V30 7388 C 661.218 1.90677 -2.32514 0
M  V30 7389 C 662.766 2.03515 -2.37804 0
M  V30 7390 C 663.241 2.79307 -3.62976 0
M  V30 7391 N 664.732 2.86862 -3.63681 0
M  V30 7392 C 665.467 3.46035 -4.57217 0
M  V30 7393 N 664.963 4.06399 -5.61081 0
M  V30 7394 N 666.756 3.43681 -4.44792 0
M  V30 7395 H 658.907 0.352765 -2.0945 0
M  V30 7396 H 661.17 0.21876 -0.922414 0
M  V30 7397 H 660.876 1.3756 -3.23682 0
M  V30 7398 H 660.75 2.91169 -2.39793 0
M  V30 7399 H 663.137 2.55809 -1.47125 0
M  V30 7400 H 663.218 1.02166 -2.34512 0
M  V30 7401 H 662.862 2.2769 -4.54004 0
M  V30 7402 H 662.792 3.80995 -3.63525 0
M  V30 7403 H 665.283 2.43987 -2.88581 0
M  V30 7404 H 665.596 4.49564 -6.2858 0
M  V30 7405 H 663.941 4.0487 -5.64894 0
M  V30 7406 H 667.132 2.9574 -3.62843 0
M  V30 7407 H 667.305 3.89503 -5.17872 0
M  V30 7408 N 660.711 1.11618 1.11262 0
M  V30 7409 C 661.988 0.777876 1.79467 0
M  V30 7410 C 662.368 -0.733774 1.97937 0
M  V30 7411 O 661.716 -1.66443 1.56554 0
M  V30 7412 C 661.926 1.5431 3.13032 0
M  V30 7413 C 663.274 1.72357 3.88044 0
M  V30 7414 O 664.298 1.5075 3.22727 0
M  V30 7415 O 663.157 2.08276 5.05256 0
M  V30 7416 H 660.251 0.282018 0.777428 0
M  V30 7417 H 662.797 1.21971 1.17988 0
M  V30 7418 H 661.569 2.57132 2.94956 0
M  V30 7419 H 661.192 1.09495 3.82226 0
M  V30 7420 N 662.189 -1.289 0.906776 0
M  V30 7421 C 663.466 -1.90221 0.455537 0
M  V30 7422 C 663.846 -1.82251 -1.06527 0
M  V30 7423 O 663.194 -1.25385 -1.91026 0
M  V30 7424 C 663.404 -3.35015 0.97806 0
M  V30 7425 C 664.752 -4.12018 1.02598 0
M  V30 7426 O 665.776 -3.43947 0.926218 0
M  V30 7427 O 664.635 -5.33677 1.17689 0
M  V30 7428 H 661.729 -0.814505 0.143214 0
M  V30 7429 H 664.275 -1.37317 0.997104 0
M  V30 7430 H 663.047 -3.35006 2.02204 0
M  V30 7431 H 662.67 -3.95408 0.416914 0
M  V30 7432 N 663.667 -0.670007 -1.42649 0
M  V30 7433 C 664.614 0.0112928 -2.30797 0
M  V30 7434 C 665.584 0.797627 -1.45695 0
M  V30 7435 O 666.769 0.770845 -1.74535 0
M  V30 7436 C 663.909 0.95998 -3.31479 0
M  V30 7437 C 663.022 0.167975 -4.31673 0
M  V30 7438 C 662.157 1.11198 -5.19431 0
M  V30 7439 C 661.196 0.311381 -6.11307 0
M  V30 7440 N 660.333 1.20784 -6.91633 0
M  V30 7441 H 665.173 -0.746231 -2.88505 0
M  V30 7442 H 662.71 -0.379739 -1.42114 0
M  V30 7443 H 664.668 1.52379 -3.88377 0
M  V30 7444 H 663.298 1.68419 -2.75382 0
M  V30 7445 H 662.35 -0.512385 -3.76933 0
M  V30 7446 H 663.662 -0.453814 -4.96731 0
M  V30 7447 H 662.816 1.74587 -5.81037 0
M  V30 7448 H 661.555 1.76766 -4.54538 0
M  V30 7449 H 660.56 -0.335758 -5.48774 0
M  V30 7450 H 661.785 -0.340135 -6.78248 0
M  V30 7451 H 659.731 1.85001 -6.29373 0
M  V30 7452 H 659.648 0.64102 -7.53277 0
M  V30 7453 H 660.916 1.82936 -7.5773 0
M  V30 7454 N 665.145 1.52092 -0.413018 0
M  V30 7455 C 666.394 2.01041 0.16287 0
M  V30 7456 C 666.707 1.30288 1.45892 0
M  V30 7457 O 667.913 1.70075 2.11629 0
M  V30 7458 C 666.369 3.58283 0.340806 0
M  V30 7459 C 665.977 4.37955 -0.943377 0
M  V30 7460 C 667.721 4.15452 0.871774 0
M  V30 7461 C 665.628 5.86847 -0.732417 0
M  V30 7462 H 664.558 0.751224 0.0646414 0
M  V30 7463 H 667.209 1.75404 -0.539059 0
M  V30 7464 H 665.591 3.80266 1.10516 0
M  V30 7465 H 666.765 4.2773 -1.71418 0
M  V30 7466 H 665.08 3.92122 -1.40105 0
M  V30 7467 H 667.677 5.24375 1.0457 0
M  V30 7468 H 668.02 3.73057 1.84755 0
M  V30 7469 H 668.553 3.97452 0.166377 0
M  V30 7470 H 665.292 6.33609 -1.67986 0
M  V30 7471 H 664.812 5.998 -0.000980058 0
M  V30 7472 H 666.491 6.45906 -0.376105 0
M  V30 7473 N 666.623 0.143563 1.56945 0
M  V30 7474 C 667.9 -0.553285 1.87612 0
M  V30 7475 C 668.28 -1.83195 1.04894 0
M  V30 7476 O 667.628 -2.28102 0.134773 0
M  V30 7477 C 667.838 -0.822055 3.3918 0
M  V30 7478 C 669.186 -1.16435 4.08324 0
M  V30 7479 O 670.21 -0.911522 3.4434 0
M  V30 7480 O 669.069 -1.63996 5.21313 0
M  V30 7481 H 666.163 -0.281851 0.777489 0
M  V30 7482 H 668.709 0.179916 1.68744 0
M  V30 7483 H 667.481 0.0830265 3.91212 0
M  V30 7484 H 667.104 -1.60956 3.63564 0
M  V30 7485 N 668.101 -1.57061 -0.130224 0
M  V30 7486 C 669.011 -2.02802 -1.17934 0
M  V30 7487 C 670.027 -0.946378 -1.46013 0
M  V30 7488 O 671.203 -1.25708 -1.57351 0
M  V30 7489 C 668.268 -2.41368 -2.48882 0
M  V30 7490 C 667.329 -3.63561 -2.28301 0
M  V30 7491 C 666.562 -4.00279 -3.53005 0
M  V30 7492 O 666.785 -3.37463 -4.59864 0
M  V30 7493 O 665.719 -4.93441 -3.44673 0
M  V30 7494 H 669.545 -2.92394 -0.820958 0
M  V30 7495 H 667.13 -1.45475 -0.340197 0
M  V30 7496 H 669.012 -2.66958 -3.26054 0
M  V30 7497 H 667.687 -1.54926 -2.84217 0
M  V30 7498 H 666.594 -3.43136 -1.49025 0
M  V30 7499 H 667.927 -4.50673 -1.97875 0
M  V30 7500 N 669.579 0.400081 -1.52437 0
M  V30 7501 C 670.856 1.15973 -1.57511 0
M  V30 7502 C 671.236 2.0798 -0.361572 0
M  V30 7503 O 670.584 2.19032 0.650929 0
M  V30 7504 C 670.794 1.92912 -2.90837 0
M  V30 7505 C 672.142 2.48662 -3.44169 0
M  V30 7506 O 673.166 2.03081 -2.92637 0
M  V30 7507 O 672.025 3.31894 -4.34176 0
M  V30 7508 H 669.119 0.530023 -0.634827 0
M  V30 7509 H 671.665 0.40613 -1.64769 0
M  V30 7510 H 670.437 1.25564 -3.70607 0
M  V30 7511 H 670.06 2.75257 -2.86913 0
M  V30 7512 N 671.057 1.43213 0.657864 0
M  V30 7513 C 672.303 1.45795 1.41829 0
M  V30 7514 C 672.658 0.0792176 1.92237 0
M  V30 7515 O 671.951 -0.901406 1.69072 0
M  V30 7516 C 672.145 2.43143 2.61947 0
M  V30 7517 C 671.974 3.90345 2.23295 0
M  V30 7518 C 670.744 4.58749 2.11843 0
M  V30 7519 C 672.942 4.80308 1.83873 0
M  V30 7520 N 670.924 5.90898 1.66473 0
M  V30 7521 C 672.295 6.01693 1.49549 0
M  V30 7522 C 674.35 4.67609 1.71015 0
M  V30 7523 C 673.053 7.11792 1.03657 0
M  V30 7524 C 675.079 5.77707 1.26527 0
M  V30 7525 C 674.441 6.98215 0.931379 0
M  V30 7526 H 670.54 0.588628 0.514822 0
M  V30 7527 H 673.124 1.7936 0.7575 0
M  V30 7528 H 671.295 2.11612 3.25692 0
M  V30 7529 H 673.027 2.36193 3.28626 0
M  V30 7530 H 669.782 4.1319 2.31453 0
M  V30 7531 H 670.206 6.61034 1.46163 0
M  V30 7532 H 674.848 3.74902 1.95469 0
M  V30 7533 H 672.566 8.04332 0.779502 0
M  V30 7534 H 676.152 5.69899 1.17074 0
M  V30 7535 H 675.032 7.81959 0.592379 0
M  V30 7536 N 672.536 -0.895792 1.29666 0
M  V30 7537 C 673.483 -2.00035 1.15129 0
M  V30 7538 C 674.453 -1.66043 0.0435819 0
M  V30 7539 O 675.638 -1.89621 0.211811 0
M  V30 7540 C 672.778 -3.34774 0.83787 0
M  V30 7541 C 671.891 -3.81525 2.0264 0
M  V30 7542 C 671.026 -5.04858 1.65201 0
M  V30 7543 C 670.065 -5.43988 2.80612 0
M  V30 7544 N 669.202 -6.58507 2.43544 0
M  V30 7545 H 674.042 -2.11802 2.09628 0
M  V30 7546 H 671.579 -1.03719 1.04311 0
M  V30 7547 H 673.537 -4.12311 0.636824 0
M  V30 7548 H 672.167 -3.22724 -0.0702314 0
M  V30 7549 H 671.219 -2.9999 2.33903 0
M  V30 7550 H 672.531 -4.06472 2.89106 0
M  V30 7551 H 671.685 -5.8999 1.41408 0
M  V30 7552 H 670.424 -4.81759 0.758893 0
M  V30 7553 H 669.429 -4.57388 3.05083 0
M  V30 7554 H 670.654 -5.69066 3.70595 0
M  V30 7555 H 668.6 -6.37004 1.56724 0
M  V30 7556 H 668.517 -6.83269 3.23542 0
M  V30 7557 H 669.785 -7.46897 2.2308 0
M  V30 7558 N 674.014 -1.12206 -1.10668 0
M  V30 7559 C 675.244 -0.897332 -1.86095 0
M  V30 7560 C 675.652 0.556778 -1.80822 0
M  V30 7561 O 674.995 1.39658 -1.19337 0
M  V30 7562 C 675.057 -1.29095 -3.35522 0
M  V30 7563 C 674.721 -2.75586 -3.64556 0
M  V30 7564 C 675.718 -3.73785 -3.6136 0
M  V30 7565 C 673.403 -3.12432 -3.93309 0
M  V30 7566 C 675.397 -5.06845 -3.86506 0
M  V30 7567 C 673.084 -4.45675 -4.18111 0
M  V30 7568 C 674.082 -5.42691 -4.147 0
M  V30 7569 O 673.77 -6.73532 -4.38873 0
M  V30 7570 H 673.502 -0.320704 -0.595084 0
M  V30 7571 H 676.056 -1.49517 -1.40833 0
M  V30 7572 H 674.286 -0.636299 -3.81429 0
M  V30 7573 H 675.975 -1.04073 -3.92331 0
M  V30 7574 H 676.741 -3.46664 -3.39189 0
M  V30 7575 H 672.62 -2.3753 -3.95096 0
M  V30 7576 H 676.164 -5.82559 -3.83758 0
M  V30 7577 H 672.061 -4.72526 -4.39761 0
M  V30 7578 H 672.829 -6.79442 -4.564 0
M  V30 7579 N 675.492 1.28418 -0.913599 0
M  V30 7580 C 676.738 1.9527 -0.547484 0
M  V30 7581 C 677.071 1.71745 0.906486 0
M  V30 7582 O 676.346 1.03834 1.64465 0
M  V30 7583 C 676.629 3.49748 -0.857205 0
M  V30 7584 C 676.482 3.82675 -2.3639 0
M  V30 7585 C 677.801 4.3868 -0.353258 0
M  V30 7586 H 674.92 0.709236 -0.200381 0
M  V30 7587 H 677.562 1.51789 -1.14281 0
M  V30 7588 H 675.712 3.86915 -0.350548 0
M  V30 7589 H 677.384 3.55378 -2.94116 0
M  V30 7590 H 675.627 3.29724 -2.81894 0
M  V30 7591 H 676.298 4.90547 -2.53115 0
M  V30 7592 H 678.774 4.08584 -0.787288 0
M  V30 7593 H 677.65 5.45621 -0.599049 0
M  V30 7594 H 677.911 4.35753 0.746413 0
M  V30 7595 N 676.97 0.677563 1.42291 0
M  V30 7596 C 677.933 0.0101085 2.29198 0
M  V30 7597 C 678.933 -0.726219 1.43467 0
M  V30 7598 O 680.123 -0.563807 1.64824 0
M  V30 7599 C 677.255 -0.996316 3.26016 0
M  V30 7600 H 678.448 0.775071 2.89711 0
M  V30 7601 H 676.001 0.440065 1.49977 0
M  V30 7602 H 676.736 -1.78967 2.70446 0
M  V30 7603 H 676.521 -0.471687 3.89253 0
M  V30 7604 H 678.011 -1.46167 3.91184 0
M  V30 7605 N 678.448 -1.51871 0.421078 0
M  V30 7606 C 679.381 -2.23851 -0.443369 0
M  V30 7607 C 680.359 -1.25142 -1.03818 0
M  V30 7608 O 681.543 -1.5423 -1.08377 0
M  V30 7609 C 678.67 -2.97637 -1.61648 0
M  V30 7610 C 677.716 -4.10873 -1.14391 0
M  V30 7611 S 678.549 -5.35408 -0.0992403 0
M  V30 7612 C 679.705 -6.12726 -1.27739 0
M  V30 7613 H 679.938 -2.96826 0.167786 0
M  V30 7614 H 677.471 -1.53027 0.205461 0
M  V30 7615 H 679.429 -3.40751 -2.28909 0
M  V30 7616 H 678.09 -2.24282 -2.199 0
M  V30 7617 H 677.283 -4.61718 -2.02069 0
M  V30 7618 H 676.885 -3.69937 -0.549775 0
M  V30 7619 H 679.177 -6.40827 -2.19881 0
M  V30 7620 H 680.12 -7.03461 -0.809239 0
M  V30 7621 H 680.528 -5.43968 -1.5086 0
M  V30 7622 N 679.926 -0.151884 -1.56866 0
M  V30 7623 C 681.172 0.498742 -1.96572 0
M  V30 7624 C 681.505 1.64194 -1.03702 0
M  V30 7625 O 680.78 1.94334 -0.0803432 0
M  V30 7626 C 681.063 1.00027 -3.45929 0
M  V30 7627 C 680.916 -0.141767 -4.49577 0
M  V30 7628 C 682.235 1.88044 -3.97904 0
M  V30 7629 H 679.354 0.17982 -0.714726 0
M  V30 7630 H 681.996 -0.234097 -1.88552 0
M  V30 7631 H 680.146 1.62476 -3.52894 0
M  V30 7632 H 681.818 -0.778269 -4.54687 0
M  V30 7633 H 680.061 -0.80019 -4.26356 0
M  V30 7634 H 680.732 0.250947 -5.51429 0
M  V30 7635 H 683.208 1.35416 -3.93449 0
M  V30 7636 H 682.084 2.20043 -5.02864 0
M  V30 7637 H 682.345 2.81916 -3.40552 0
M  V30 7638 N 681.404 1.57128 0.121893 0
M  V30 7639 C 682.334 2.03165 1.15092 0
M  V30 7640 C 683.315 0.915587 1.43356 0
M  V30 7641 O 684.5 1.1851 1.53847 0
M  V30 7642 C 681.63 2.43352 2.47784 0
M  V30 7643 C 680.584 3.58376 2.33989 0
M  V30 7644 C 679.91 3.84454 3.71617 0
M  V30 7645 C 681.21 4.90199 1.80283 0
M  V30 7646 H 682.904 2.89382 0.768023 0
M  V30 7647 H 680.45 1.39218 0.367998 0
M  V30 7648 H 682.403 2.74163 3.20019 0
M  V30 7649 H 681.127 1.54103 2.87958 0
M  V30 7650 H 679.786 3.2777 1.64202 0
M  V30 7651 H 679.434 2.92414 4.09271 0
M  V30 7652 H 679.134 4.61877 3.6324 0
M  V30 7653 H 680.658 4.17714 4.45362 0
M  V30 7654 H 682.072 5.19565 2.42333 0
M  V30 7655 H 680.469 5.71601 1.82735 0
M  V30 7656 H 681.539 4.78904 0.760184 0
M  V30 7657 N 682.882 -0.391992 1.52647 0
M  V30 7658 C 684.159 -1.15136 1.58123 0
M  V30 7659 C 684.539 -2.07786 0.372597 0
M  V30 7660 O 683.887 -2.19374 -0.639304 0
M  V30 7661 C 684.097 -1.91367 2.91856 0
M  V30 7662 C 685.445 -2.46833 3.45483 0
M  V30 7663 O 686.469 -2.01527 2.9371 0
M  V30 7664 O 685.328 -3.29587 4.3593 0
M  V30 7665 H 682.422 -0.526649 0.637629 0
M  V30 7666 H 684.968 -0.397386 1.64982 0
M  V30 7667 H 683.74 -1.23597 3.71268 0
M  V30 7668 H 683.363 -2.73732 2.88369 0
M  V30 7669 N 684.36 -1.4356 -0.65026 0
M  V30 7670 C 685.776 -1.27025 -0.966269 0
M  V30 7671 C 685.976 -0.192117 -2.00582 0
M  V30 7672 O 685.032 0.428459 -2.48838 0
M  V30 7673 C 686.345 -2.63556 -1.44772 0
M  V30 7674 C 687.893 -2.71111 -1.56421 0
M  V30 7675 C 688.368 -4.08067 -2.07956 0
M  V30 7676 N 689.859 -4.10146 -2.15254 0
M  V30 7677 C 690.594 -5.12952 -2.56258 0
M  V30 7678 N 690.09 -6.26129 -2.96537 0
M  V30 7679 N 691.883 -5.00306 -2.56224 0
M  V30 7680 H 684.034 -2.12367 0.0375758 0
M  V30 7681 H 686.297 -0.946894 -0.0457782 0
M  V30 7682 H 686.003 -3.43429 -0.758271 0
M  V30 7683 H 685.877 -2.89152 -2.42221 0
M  V30 7684 H 688.264 -1.91569 -2.24467 0
M  V30 7685 H 688.345 -2.49277 -0.573967 0
M  V30 7686 H 687.989 -4.88077 -1.40511 0
M  V30 7687 H 687.919 -4.27266 -3.07817 0
M  V30 7688 H 690.41 -3.28453 -1.86887 0
M  V30 7689 H 690.723 -7.00403 -3.26582 0
M  V30 7690 H 689.068 -6.29597 -2.94334 0
M  V30 7691 H 692.259 -4.10952 -2.24135 0
M  V30 7692 H 692.432 -5.80553 -2.87857 0
M  V30 7693 N 685.838 0.888903 -1.30139 0
M  V30 7694 C 686.768 2.01046 -1.18755 0
M  V30 7695 C 687.749 1.69916 -0.0791438 0
M  V30 7696 O 688.934 1.92445 -0.260498 0
M  V30 7697 C 686.064 3.36109 -0.874518 0
M  V30 7698 C 685.018 3.81486 -1.94043 0
M  V30 7699 C 684.344 5.13796 -1.48047 0
M  V30 7700 C 685.644 4.00637 -3.35093 0
M  V30 7701 H 687.338 2.10828 -2.12584 0
M  V30 7702 H 684.884 1.01298 -1.02346 0
M  V30 7703 H 686.837 4.14089 -0.781548 0
M  V30 7704 H 685.561 3.26449 0.0994519 0
M  V30 7705 H 684.22 3.05731 -2.02297 0
M  V30 7706 H 683.868 5.0056 -0.494878 0
M  V30 7707 H 683.568 5.45127 -2.19341 0
M  V30 7708 H 685.092 5.94305 -1.40121 0
M  V30 7709 H 686.506 4.69067 -3.2962 0
M  V30 7710 H 684.903 4.43339 -4.04438 0
M  V30 7711 H 685.973 3.0462 -3.77273 0
M  V30 7712 N 687.317 1.12792 1.10072 0
M  V30 7713 C 688.564 0.885545 1.82111 0
M  V30 7714 C 688.892 -0.588519 1.85383 0
M  V30 7715 O 688.147 -1.45124 1.31292 0
M  V30 7716 C 688.446 1.4102 3.28403 0
M  V30 7717 C 688.112 2.89995 3.45273 0
M  V30 7718 C 686.774 3.30671 3.49585 0
M  V30 7719 C 689.126 3.85874 3.50358 0
M  V30 7720 C 686.454 4.65925 3.56553 0
M  V30 7721 C 688.806 5.20963 3.58859 0
M  V30 7722 C 687.47 5.61177 3.61437 0
M  V30 7723 H 686.74 0.324044 0.666391 0
M  V30 7724 H 689.387 1.40874 1.29718 0
M  V30 7725 H 687.692 0.807551 3.83387 0
M  V30 7726 H 689.389 1.19882 3.82661 0
M  V30 7727 H 685.979 2.57537 3.42597 0
M  V30 7728 H 690.163 3.5554 3.46273 0
M  V30 7729 H 685.419 4.96468 3.56833 0
M  V30 7730 H 689.593 5.95079 3.61738 0
M  V30 7731 H 687.22 6.6597 3.66589 0
M  V30 7732 N 688.795 -1.27931 0.920396 0
M  V30 7733 C 689.725 -2.29487 0.431024 0
M  V30 7734 C 690.706 -1.62435 -0.504861 0
M  V30 7735 O 691.891 -1.89797 -0.411176 0
M  V30 7736 C 689.021 -3.45788 -0.323709 0
M  V30 7737 C 687.975 -4.24784 0.523658 0
M  V30 7738 C 687.301 -5.33488 -0.359809 0
M  V30 7739 C 688.601 -4.90874 1.78437 0
M  V30 7740 H 690.295 -2.70671 1.27975 0
M  V30 7741 H 687.841 -1.30121 0.616813 0
M  V30 7742 H 689.794 -4.15927 -0.676952 0
M  V30 7743 H 688.518 -3.03502 -1.2064 0
M  V30 7744 H 687.177 -3.56382 0.85951 0
M  V30 7745 H 686.825 -4.87445 -1.24124 0
M  V30 7746 H 686.525 -5.87247 0.203605 0
M  V30 7747 H 688.049 -6.06472 -0.708787 0
M  V30 7748 H 689.463 -5.53339 1.49963 0
M  V30 7749 H 687.86 -5.54659 2.29071 0
M  V30 7750 H 688.93 -4.14988 2.50824 0
M  V30 7751 N 690.273 -0.685099 -1.4193 0
M  V30 7752 C 691.203 -0.0273506 -2.33484 0
M  V30 7753 C 692.184 0.778366 -1.51246 0
M  V30 7754 O 693.369 0.733449 -1.79817 0
M  V30 7755 C 690.499 0.917272 -3.34968 0
M  V30 7756 C 689.453 0.21941 -4.27437 0
M  V30 7757 C 688.779 1.27768 -5.1921 0
M  V30 7758 C 690.079 -0.907894 -5.14349 0
M  V30 7759 H 691.773 -0.791994 -2.88735 0
M  V30 7760 H 689.319 -0.382308 -1.38832 0
M  V30 7761 H 691.272 1.38657 -3.97935 0
M  V30 7762 H 689.996 1.71346 -2.78043 0
M  V30 7763 H 688.655 -0.229757 -3.65879 0
M  V30 7764 H 688.303 2.06612 -4.58607 0
M  V30 7765 H 688.003 0.815803 -5.81909 0
M  V30 7766 H 689.527 1.7477 -5.85054 0
M  V30 7767 H 690.941 -0.519348 -5.70943 0
M  V30 7768 H 689.338 -1.2962 -5.85934 0
M  V30 7769 H 690.408 -1.75218 -4.52136 0
M  V30 7770 N 691.751 1.51645 -0.429126 0
M  V30 7771 C 693 2.01203 0.141538 0
M  V30 7772 C 693.313 1.31828 1.44502 0
M  V30 7773 O 694.519 1.7231 2.09813 0
M  V30 7774 C 692.975 3.58624 0.302786 0
M  V30 7775 C 692.583 4.3693 -0.989775 0
M  V30 7776 C 694.327 4.16353 0.827661 0
M  V30 7777 C 692.234 5.86037 -0.794619 0
M  V30 7778 H 691.164 0.751867 0.05667 0
M  V30 7779 H 693.815 1.74822 -0.557633 0
M  V30 7780 H 692.197 3.81417 1.06476 0
M  V30 7781 H 693.371 4.25887 -1.75945 0
M  V30 7782 H 691.686 3.90614 -1.44256 0
M  V30 7783 H 694.283 5.25455 0.990026 0
M  V30 7784 H 694.626 3.74995 1.80787 0
M  V30 7785 H 695.159 3.97606 0.124213 0
M  V30 7786 H 691.898 6.31792 -1.74697 0
M  V30 7787 H 691.418 5.99765 -0.0645968 0
M  V30 7788 H 693.097 6.45471 -0.444591 0
M  V30 7789 N 693.229 0.160201 1.56784 0
M  V30 7790 C 694.476 -0.487588 1.96542 0
M  V30 7791 C 694.804 -1.63999 1.04569 0
M  V30 7792 O 694.059 -1.95546 0.0775211 0
M  V30 7793 C 694.358 -1.02259 3.42459 0
M  V30 7794 C 694.024 0.0127436 4.50898 0
M  V30 7795 C 692.686 0.297318 4.80281 0
M  V30 7796 C 695.038 0.716078 5.16257 0
M  V30 7797 C 692.366 1.29081 5.72324 0
M  V30 7798 C 694.718 1.69847 6.09372 0
M  V30 7799 C 693.382 1.99061 6.37127 0
M  V30 7800 H 692.652 -0.178421 0.719199 0
M  V30 7801 H 695.299 0.249818 1.89864 0
M  V30 7802 H 693.604 -1.8376 3.46034 0
M  V30 7803 H 695.301 -1.53261 3.70556 0
M  V30 7804 H 691.891 -0.219235 4.28039 0
M  V30 7805 H 696.075 0.509428 4.93679 0
M  V30 7806 H 691.331 1.52344 5.92116 0
M  V30 7807 H 695.505 2.2489 6.59088 0
M  V30 7808 H 693.132 2.76194 7.08252 0
M  V30 7809 N 694.707 -1.5719 -0.113559 0
M  V30 7810 C 695.932 -1.89702 -0.838336 0
M  V30 7811 C 696.357 -0.752679 -1.72384 0
M  V30 7812 O 695.715 0.296575 -1.78858 0
M  V30 7813 C 695.763 -3.20989 -1.64312 0
M  V30 7814 O 694.867 -3.07278 -2.75053 0
M  V30 7815 H 694.208 -0.622339 -0.231496 0
M  V30 7816 H 696.738 -2.04382 -0.0943228 0
M  V30 7817 H 696.748 -3.53843 -2.03123 0
M  V30 7818 H 695.423 -4.03869 -0.993119 0
M  V30 7819 H 694 -2.85901 -2.39406 0
M  V30 7820 N 696.185 0.383891 -1.52853 0
M  V30 7821 C 697.434 1.12563 -1.67369 0
M  V30 7822 C 697.747 1.90982 -0.422533 0
M  V30 7823 O 698.953 2.6778 -0.447914 0
M  V30 7824 C 697.409 2.05011 -2.95801 0
M  V30 7825 C 697.017 1.31991 -4.28115 0
M  V30 7826 C 698.761 2.79289 -3.19684 0
M  V30 7827 C 696.668 2.23235 -5.4765 0
M  V30 7828 H 695.598 0.42391 -0.623552 0
M  V30 7829 H 698.249 0.388016 -1.79351 0
M  V30 7830 H 696.631 2.82429 -2.77578 0
M  V30 7831 H 697.805 0.597633 -4.56908 0
M  V30 7832 H 696.12 0.696517 -4.10533 0
M  V30 7833 H 698.717 3.47749 -4.06171 0
M  V30 7834 H 699.06 3.43649 -2.3497 0
M  V30 7835 H 699.593 2.08962 -3.38496 0
M  V30 7836 H 696.332 1.63482 -6.34786 0
M  V30 7837 H 695.852 2.93364 -5.23161 0
M  V30 7838 H 697.531 2.83205 -5.81725 0
M  V30 7839 N 697.663 1.43903 0.642637 0
M  V30 7840 C 698.626 1.49538 1.73698 0
M  V30 7841 C 699.626 0.378776 1.56275 0
M  V30 7842 O 700.816 0.64095 1.6198 0
M  V30 7843 C 697.948 1.35821 3.12675 0
M  V30 7844 H 699.141 2.47008 1.70079 0
M  V30 7845 H 696.694 1.30824 0.85526 0
M  V30 7846 H 697.429 0.393994 3.21898 0
M  V30 7847 H 697.214 2.16776 3.26727 0
M  V30 7848 H 698.704 1.4272 3.92455 0
M  V30 7849 N 699.141 -0.881989 1.30609 0
M  V30 7850 C 700.381 -1.64817 1.20891 0
M  V30 7851 C 700.745 -1.90593 -0.232043 0
M  V30 7852 O 701.946 -2.64964 -0.452516 0
M  V30 7853 C 700.217 -2.95006 2.01758 0
M  V30 7854 S 701.776 -3.85953 2.08771 0
M  V30 7855 H 698.594 -0.565651 0.430767 0
M  V30 7856 H 701.196 -1.04665 1.65122 0
M  V30 7857 H 699.9 -2.73973 3.0556 0
M  V30 7858 H 699.431 -3.60189 1.582 0
M  V30 7859 H 701.446 -4.81037 1.21727 0
M  V30 7860 N 700.619 -1.13374 -1.09472 0
M  V30 7861 C 701.866 -0.89519 -1.81639 0
M  V30 7862 C 702.194 0.57868 -1.85692 0
M  V30 7863 O 701.449 1.44426 -1.32059 0
M  V30 7864 C 701.748 -1.42759 -3.2765 0
M  V30 7865 C 701.414 -2.91822 -3.43731 0
M  V30 7866 C 700.076 -3.32521 -3.47827 0
M  V30 7867 C 702.428 -3.87727 -3.48307 0
M  V30 7868 C 699.756 -4.6781 -3.54078 0
M  V30 7869 C 702.108 -5.22859 -3.56091 0
M  V30 7870 C 700.772 -5.63086 -3.58456 0
M  V30 7871 H 700.042 -0.327573 -0.664663 0
M  V30 7872 H 702.689 -1.4156 -1.28969 0
M  V30 7873 H 700.994 -0.827871 -3.82954 0
M  V30 7874 H 702.691 -1.2191 -3.8202 0
M  V30 7875 H 699.281 -2.5935 -3.41226 0
M  V30 7876 H 703.465 -3.57371 -3.44383 0
M  V30 7877 H 698.721 -4.98353 -3.54195 0
M  V30 7878 H 702.895 -5.96989 -3.58577 0
M  V30 7879 H 700.522 -6.67905 -3.63052 0
M  V30 7880 N 702.098 1.27442 -0.927168 0
M  V30 7881 C 703.344 1.94679 -0.568164 0
M  V30 7882 C 703.677 1.72697 0.888219 0
M  V30 7883 O 702.952 1.05573 1.63354 0
M  V30 7884 C 703.235 3.4882 -0.894253 0
M  V30 7885 C 703.088 3.80146 -2.40435 0
M  V30 7886 C 704.407 4.38281 -0.399766 0
M  V30 7887 H 701.526 0.707071 -0.207892 0
M  V30 7888 H 704.168 1.50568 -1.15885 0
M  V30 7889 H 702.318 3.86522 -0.391566 0
M  V30 7890 H 703.99 3.52238 -2.97869 0
M  V30 7891 H 702.233 3.26716 -2.85375 0
M  V30 7892 H 702.904 4.87835 -2.58304 0
M  V30 7893 H 705.38 4.07726 -0.83058 0
M  V30 7894 H 704.256 5.44955 -0.656885 0
M  V30 7895 H 704.517 4.36521 0.700153 0
M  V30 7896 N 703.576 0.692616 1.41565 0
M  V30 7897 C 704.824 0.221896 2.00878 0
M  V30 7898 C 705.145 -1.18164 1.5512 0
M  V30 7899 O 704.415 -1.79679 0.78054 0
M  V30 7900 H 702.995 0.0790463 0.742806 0
M  V30 7901 H 705.657 0.893115 1.73232 0
M  V30 7902 H 704.753 0.23702 3.11199 0
M  V30 7903 N 705.054 -1.51416 0.437162 0
M  V30 7904 C 706.282 -2.06503 -0.128045 0
M  V30 7905 C 706.697 -1.30461 -1.36475 0
M  V30 7906 O 706.054 -0.364127 -1.78831 0
M  V30 7907 C 706.105 -3.58683 -0.450437 0
M  V30 7908 O 705.826 -4.31853 0.737186 0
M  V30 7909 C 707.327 -4.30284 -1.06633 0
M  V30 7910 H 704.547 -0.670952 -0.00800269 0
M  V30 7911 H 707.091 -1.94996 0.616193 0
M  V30 7912 H 705.246 -3.70106 -1.14457 0
M  V30 7913 H 705.66 -5.22467 0.461347 0
M  V30 7914 H 707.134 -5.37848 -1.24191 0
M  V30 7915 H 707.611 -3.88564 -2.0473 0
M  V30 7916 H 708.217 -4.23304 -0.411585 0
M  V30 7917 N 706.532 -0.168513 -1.56696 0
M  V30 7918 C 707.778 0.477865 -1.9709 0
M  V30 7919 C 708.111 1.63084 -1.05438 0
M  V30 7920 O 707.386 1.94238 -0.10095 0
M  V30 7921 C 707.669 0.963521 -3.4697 0
M  V30 7922 C 707.522 -0.189443 -4.49401 0
M  V30 7923 C 708.841 1.83813 -3.99876 0
M  V30 7924 H 705.96 0.172229 -0.716593 0
M  V30 7925 H 708.602 -0.254083 -1.88293 0
M  V30 7926 H 706.752 1.58724 -3.54597 0
M  V30 7927 H 708.424 -0.826451 -4.53836 0
M  V30 7928 H 706.667 -0.845366 -4.25483 0
M  V30 7929 H 707.338 0.192446 -5.51664 0
M  V30 7930 H 709.814 1.31235 -3.94863 0
M  V30 7931 H 708.69 2.14697 -5.0517 0
M  V30 7932 H 708.951 2.78289 -3.43523 0
M  V30 7933 N 708.01 1.57248 0.105221 0
M  V30 7934 C 709.259 1.84756 0.809198 0
M  V30 7935 C 709.572 0.756262 1.80389 0
M  V30 7936 O 710.778 0.918158 2.55504 0
M  V30 7937 C 709.234 3.27613 1.48989 0
M  V30 7938 C 708.842 4.44788 0.535484 0
M  V30 7939 C 710.586 3.64356 2.17819 0
M  V30 7940 C 708.493 5.78676 1.22019 0
M  V30 7941 H 707.423 0.689139 0.305946 0
M  V30 7942 H 710.074 1.83395 0.0620371 0
M  V30 7943 H 708.456 3.23485 2.28415 0
M  V30 7944 H 709.63 4.60243 -0.226557 0
M  V30 7945 H 707.945 4.16374 -0.0465769 0
M  V30 7946 H 710.542 4.61663 2.69761 0
M  V30 7947 H 710.885 2.92474 2.96251 0
M  V30 7948 H 711.418 3.70328 1.45264 0
M  V30 7949 H 708.157 6.53763 0.476875 0
M  V30 7950 H 707.677 5.67083 1.9539 0
M  V30 7951 H 709.356 6.22897 1.74952 0
M  V30 7952 N 709.488 -0.375779 1.53054 0
M  V30 7953 C 710.737 -1.11674 1.67964 0
M  V30 7954 C 711.05 -1.90755 0.432655 0
M  V30 7955 O 712.256 -2.67538 0.462109 0
M  V30 7956 C 710.712 -2.0344 2.96884 0
M  V30 7957 C 710.32 -1.29719 4.28809 0
M  V30 7958 C 712.064 -2.7759 3.2116 0
M  V30 7959 C 709.971 -2.20327 5.48826 0
M  V30 7960 H 708.901 -0.420597 0.625791 0
M  V30 7961 H 711.552 -0.378499 1.79554 0
M  V30 7962 H 709.934 -2.80953 2.79072 0
M  V30 7963 H 711.108 -0.573394 4.57219 0
M  V30 7964 H 709.423 -0.674735 4.10897 0
M  V30 7965 H 712.02 -3.4559 4.0801 0
M  V30 7966 H 712.363 -3.42399 2.36789 0
M  V30 7967 H 712.896 -2.07164 3.396 0
M  V30 7968 H 709.635 -1.60113 6.35645 0
M  V30 7969 H 709.155 -2.90585 5.2471 0
M  V30 7970 H 710.834 -2.80116 5.83219 0
M  V30 7971 N 710.966 -1.44241 -0.634997 0
M  V30 7972 C 711.896 -1.53632 -1.7584 0
M  V30 7973 C 712.877 -0.389603 -1.65578 0
M  V30 7974 O 714.062 -0.609219 -1.84397 0
M  V30 7975 C 711.192 -1.47644 -3.14354 0
M  V30 7976 C 710.146 -2.60752 -3.394 0
M  V30 7977 C 709.472 -2.39817 -4.77904 0
M  V30 7978 C 710.772 -4.02921 -3.32343 0
M  V30 7979 H 712.466 -2.47662 -1.68238 0
M  V30 7980 H 710.012 -1.19197 -0.807969 0
M  V30 7981 H 711.965 -1.52815 -3.92716 0
M  V30 7982 H 710.689 -0.501284 -3.2273 0
M  V30 7983 H 709.348 -2.54965 -2.63417 0
M  V30 7984 H 708.996 -1.40502 -4.82978 0
M  V30 7985 H 708.696 -3.15649 -4.9562 0
M  V30 7986 H 710.22 -2.46799 -5.585 0
M  V30 7987 H 711.634 -4.10098 -4.00615 0
M  V30 7988 H 710.031 -4.78925 -3.61595 0
M  V30 7989 H 711.101 -4.26766 -2.30215 0
M  V30 7990 N 712.444 0.87505 -1.31075 0
M  V30 7991 C 713.374 1.99775 -1.20881 0
M  V30 7992 C 714.355 1.69822 -0.0971612 0
M  V30 7993 O 715.54 1.92158 -0.280895 0
M  V30 7994 C 712.67 3.35163 -0.910118 0
M  V30 7995 C 711.624 3.79406 -1.98078 0
M  V30 7996 C 710.95 5.12197 -1.53488 0
M  V30 7997 C 712.25 3.97061 -3.39323 0
M  V30 7998 H 713.944 2.08562 -2.14808 0
M  V30 7999 H 711.49 1.00207 -1.03415 0
M  V30 8000 H 713.443 4.13237 -0.825423 0
M  V30 8001 H 712.167 3.26536 0.064822 0
M  V30 8002 H 710.826 3.03568 -2.05528 0
M  V30 8003 H 710.474 5.00007 -0.547941 0
M  V30 8004 H 710.174 5.4277 -2.2511 0
M  V30 8005 H 711.698 5.92785 -1.46417 0
M  V30 8006 H 713.112 4.65545 -3.34576 0
M  V30 8007 H 711.509 4.39025 -4.09118 0
M  V30 8008 H 712.579 3.00601 -3.80483 0
M  V30 8009 N 713.922 1.13953 1.08869 0
M  V30 8010 C 715.338 0.878924 1.33218 0
M  V30 8011 C 715.538 -0.482478 1.95638 0
M  V30 8012 O 714.594 -1.22778 2.2064 0
M  V30 8013 C 715.907 2.00798 2.23832 0
M  V30 8014 C 717.455 2.04073 2.37325 0
M  V30 8015 C 717.93 3.16258 3.31278 0
M  V30 8016 N 719.421 3.15805 3.38853 0
M  V30 8017 C 720.156 3.99249 4.11567 0
M  V30 8018 N 719.652 4.92721 4.87029 0
M  V30 8019 N 721.445 3.87327 4.0735 0
M  V30 8020 H 713.596 2.01645 0.66731 0
M  V30 8021 H 715.859 0.878395 0.356547 0
M  V30 8022 H 715.565 2.98986 1.85203 0
M  V30 8023 H 715.439 1.92704 3.24261 0
M  V30 8024 H 717.826 1.06495 2.75214 0
M  V30 8025 H 717.907 2.16239 1.36654 0
M  V30 8026 H 717.551 4.14079 2.9411 0
M  V30 8027 H 717.481 3.0133 4.31866 0
M  V30 8028 H 719.972 2.48102 2.8505 0
M  V30 8029 H 720.285 5.52867 5.39961 0
M  V30 8030 H 718.63 4.96723 4.86098 0
M  V30 8031 H 721.821 3.13627 3.475 0
M  V30 8032 H 721.994 4.52585 4.63757 0
M  V30 8033 N 715.4 -1.26948 0.933913 0
M  V30 8034 C 716.363 -2.24889 0.442457 0
M  V30 8035 C 717.363 -1.54594 -0.442426 0
M  V30 8036 O 718.553 -1.72502 -0.242629 0
M  V30 8037 C 715.685 -3.3896 -0.363173 0
M  V30 8038 H 716.878 -2.69879 1.30787 0
M  V30 8039 H 714.431 -1.38978 0.715187 0
M  V30 8040 H 715.166 -2.99361 -1.24714 0
M  V30 8041 H 714.951 -3.9116 0.271366 0
M  V30 8042 H 716.441 -4.11739 -0.697186 0
M  V30 8043 N 716.879 -0.700114 -1.41195 0
M  V30 8044 C 718.29 -0.307249 -1.84154 0
M  V30 8045 C 718.641 1.15539 -1.58572 0
M  V30 8046 O 717.766 1.88744 -1.05852 0
M  V30 8047 C 718.361 -0.550872 -3.34292 0
M  V30 8048 C 716.92 -0.211877 -3.75803 0
M  V30 8049 C 716.067 -0.830915 -2.64558 0
M  V30 8050 H 719.018 -0.900431 -1.30683 0
M  V30 8051 H 719.039 0.188954 -3.80031 0
M  V30 8052 H 718.551 -1.61548 -3.5288 0
M  V30 8053 H 716.652 0.848283 -3.62815 0
M  V30 8054 H 716.765 -0.67007 -4.74391 0
M  V30 8055 H 715.129 -0.260155 -2.53368 0
M  V30 8056 H 715.912 -1.89948 -2.85963 0
M  V30 8057 N 718.357 1.51182 -0.445186 0
M  V30 8058 C 719.585 2.06568 0.117091 0
M  V30 8059 C 720 1.31182 1.35781 0
M  V30 8060 O 719.357 0.373605 1.78635 0
M  V30 8061 C 719.408 3.58917 0.431408 0
M  V30 8062 O 719.129 4.31456 -0.760078 0
M  V30 8063 C 720.63 4.30843 1.0435 0
M  V30 8064 H 717.85 0.670985 0.00444436 0
M  V30 8065 H 720.394 1.94666 -0.626525 0
M  V30 8066 H 718.549 3.70708 1.12493 0
M  V30 8067 H 718.963 5.22215 -0.489048 0
M  V30 8068 H 720.437 5.38499 1.21337 0
M  V30 8069 H 720.914 3.89644 2.02667 0
M  V30 8070 H 721.52 4.23516 0.38913 0
M  V30 8071 N 719.835 0.176821 1.56605 0
M  V30 8072 C 720.765 -0.746841 2.21234 0
M  V30 8073 C 721.746 -1.23502 1.16967 0
M  V30 8074 O 722.931 -1.28718 1.45414 0
M  V30 8075 C 720.061 -1.97407 2.8574 0
M  V30 8076 C 719.015 -1.62153 3.96094 0
M  V30 8077 C 718.341 -2.92387 4.47676 0
M  V30 8078 C 719.641 -0.845353 5.15413 0
M  V30 8079 H 721.335 -0.208116 2.98676 0
M  V30 8080 H 718.881 -0.0986594 1.43662 0
M  V30 8081 H 720.834 -2.62531 3.2963 0
M  V30 8082 H 719.558 -2.53703 2.05676 0
M  V30 8083 H 718.217 -0.993964 3.52868 0
M  V30 8084 H 717.865 -3.46734 3.64396 0
M  V30 8085 H 717.565 -2.69551 5.22127 0
M  V30 8086 H 719.089 -3.5853 4.94255 0
M  V30 8087 H 720.503 -1.39929 5.55961 0
M  V30 8088 H 718.9 -0.715814 5.95815 0
M  V30 8089 H 719.97 0.157239 4.84645 0
M  V30 8090 N 721.313 -1.57302 -0.09688 0
M  V30 8091 C 722.543 -1.89926 -0.813114 0
M  V30 8092 C 722.951 -0.76852 -1.72888 0
M  V30 8093 O 722.294 0.268549 -1.81726 0
M  V30 8094 C 722.356 -3.17787 -1.68082 0
M  V30 8095 C 722.02 -4.4729 -0.937061 0
M  V30 8096 C 723.017 -5.1921 -0.267687 0
M  V30 8097 C 720.702 -4.93957 -0.911671 0
M  V30 8098 C 722.696 -6.36034 0.417129 0
M  V30 8099 C 720.383 -6.10693 -0.223068 0
M  V30 8100 C 721.381 -6.8158 0.440155 0
M  V30 8101 O 721.069 -7.96092 1.11772 0
M  V30 8102 H 720.801 -0.632783 -0.237828 0
M  V30 8103 H 723.355 -2.05248 -0.0790818 0
M  V30 8104 H 721.585 -2.98607 -2.45705 0
M  V30 8105 H 723.274 -3.36257 -2.27346 0
M  V30 8106 H 724.04 -4.84198 -0.278774 0
M  V30 8107 H 719.919 -4.38671 -1.41734 0
M  V30 8108 H 723.463 -6.91301 0.93537 0
M  V30 8109 H 719.36 -6.45159 -0.209821 0
M  V30 8110 H 720.128 -8.12064 1.02443 0
M  V30 8111 N 722.791 0.367657 -1.53252 0
M  V30 8112 C 724.068 1.12606 -1.59935 0
M  V30 8113 C 724.448 2.07167 -0.405606 0
M  V30 8114 O 723.796 2.20364 0.604323 0
M  V30 8115 C 724.006 1.86699 -2.94863 0
M  V30 8116 C 725.354 2.41306 -3.49366 0
M  V30 8117 O 726.378 1.96828 -2.96879 0
M  V30 8118 O 725.237 3.2261 -4.41118 0
M  V30 8119 H 722.331 0.516438 -0.645926 0
M  V30 8120 H 724.877 0.371088 -1.65593 0
M  V30 8121 H 723.649 1.17674 -3.73187 0
M  V30 8122 H 723.272 2.6911 -2.92687 0
M  V30 8123 N 724.269 1.44576 0.627338 0
M  V30 8124 C 725.497 1.51048 1.41394 0
M  V30 8125 C 725.912 0.136568 1.88305 0
M  V30 8126 O 725.269 -0.858251 1.6106 0
M  V30 8127 C 725.32 2.47837 2.63172 0
M  V30 8128 O 725.041 3.79887 2.18215 0
M  V30 8129 C 726.542 2.63811 3.56257 0
M  V30 8130 H 723.762 0.512171 0.4335 0
M  V30 8131 H 726.306 1.89576 0.766878 0
M  V30 8132 H 724.461 2.12433 3.23961 0
M  V30 8133 H 724.875 4.32177 2.97192 0
M  V30 8134 H 726.349 3.35554 4.38301 0
M  V30 8135 H 726.826 1.69169 4.05313 0
M  V30 8136 H 727.432 3.0013 3.01333 0
M  V30 8137 N 725.747 -0.868086 1.31537 0
M  V30 8138 C 727.163 -1.15414 1.10235 0
M  V30 8139 C 727.363 -2.01106 -0.125947 0
M  V30 8140 O 726.419 -2.38994 -0.814734 0
M  V30 8141 C 727.732 -1.84445 2.37488 0
M  V30 8142 C 729.28 -1.97139 2.43116 0
M  V30 8143 C 729.755 -2.69585 3.70254 0
M  V30 8144 N 731.246 -2.77119 3.71159 0
M  V30 8145 C 731.981 -3.33791 4.6623 0
M  V30 8146 N 731.477 -3.9138 5.71659 0
M  V30 8147 N 733.27 -3.31767 4.53747 0
M  V30 8148 H 725.421 -0.297109 2.10312 0
M  V30 8149 H 727.684 -0.194227 0.92789 0
M  V30 8150 H 727.39 -1.2893 3.27215 0
M  V30 8151 H 727.264 -2.84709 2.47428 0
M  V30 8152 H 729.651 -2.51818 1.53856 0
M  V30 8153 H 729.732 -0.95912 2.37138 0
M  V30 8154 H 729.376 -2.15572 4.59881 0
M  V30 8155 H 729.306 -3.71223 3.73499 0
M  V30 8156 H 731.797 -2.3625 2.94948 0
M  V30 8157 H 732.11 -4.3274 6.40278 0
M  V30 8158 H 730.455 -3.8975 5.7543 0
M  V30 8159 H 733.646 -2.86016 3.70557 0
M  V30 8160 H 733.819 -3.75636 5.28017 0
M  V30 8161 N 727.225 -1.14528 -1.08264 0
M  V30 8162 C 728.157 -0.791325 -2.15106 0
M  V30 8163 C 729.17 0.192449 -1.61659 0
M  V30 8164 O 730.359 -0.0294704 -1.78476 0
M  V30 8165 C 727.459 -0.154183 -3.38549 0
M  V30 8166 C 726.632 -1.17305 -4.21377 0
M  V30 8167 C 725.691 -0.559401 -5.23218 0
M  V30 8168 O 724.717 -1.22277 -5.55911 0
M  V30 8169 N 725.919 0.663159 -5.767 0
M  V30 8170 H 728.684 -1.71076 -2.46075 0
M  V30 8171 H 726.245 -1.0399 -1.24087 0
M  V30 8172 H 728.237 0.268884 -4.03806 0
M  V30 8173 H 726.807 0.668418 -3.0537 0
M  V30 8174 H 726.027 -1.773 -3.52077 0
M  V30 8175 H 727.315 -1.86128 -4.73533 0
M  V30 8176 H 726.713 1.22066 -5.52373 0
M  V30 8177 H 725.27 1.02871 -6.43631 0
M  V30 8178 N 728.703 1.26451 -0.940633 0
M  V30 8179 C 730.114 1.75726 -0.630653 0
M  V30 8180 C 730.465 1.76631 0.854167 0
M  V30 8181 O 729.59 1.37807 1.66848 0
M  V30 8182 C 730.185 3.19114 -1.13805 0
M  V30 8183 C 728.744 3.66005 -0.878497 0
M  V30 8184 C 727.891 2.45505 -1.28928 0
M  V30 8185 H 730.842 1.12535 -1.119 0
M  V30 8186 H 730.863 3.77311 -0.491625 0
M  V30 8187 H 730.375 3.18424 -2.21874 0
M  V30 8188 H 728.476 3.72126 0.187833 0
M  V30 8189 H 728.589 4.54844 -1.50512 0
M  V30 8190 H 726.953 2.4467 -0.707713 0
M  V30 8191 H 727.736 2.47516 -2.37888 0
M  V30 8192 N 730.181 0.707592 1.40822 0
M  V30 8193 C 731.43 0.240705 2.00259 0
M  V30 8194 C 731.743 -1.17027 1.56729 0
M  V30 8195 O 732.949 -1.73526 2.08809 0
M  V30 8196 C 731.405 0.379432 3.57894 0
M  V30 8197 C 731.013 1.79654 4.104 0
M  V30 8198 C 732.757 -0.0270684 4.24491 0
M  V30 8199 C 730.664 1.88628 5.60512 0
M  V30 8200 H 729.594 0.0862369 0.749052 0
M  V30 8201 H 732.245 0.877528 1.61157 0
M  V30 8202 H 730.627 -0.325842 3.94657 0
M  V30 8203 H 731.801 2.53155 3.85032 0
M  V30 8204 H 730.116 2.15379 3.56372 0
M  V30 8205 H 732.713 0.0193743 5.34696 0
M  V30 8206 H 733.056 -1.06772 4.02375 0
M  V30 8207 H 733.589 0.628361 3.92806 0
M  V30 8208 H 730.328 2.90787 5.87472 0
M  V30 8209 H 729.848 1.19528 5.8777 0
M  V30 8210 H 731.527 1.6547 6.25483 0
M  V30 8211 N 731.66 -1.50943 0.453197 0
M  V30 8212 C 732.937 -1.94872 -0.168633 0
M  V30 8213 C 733.317 -1.39272 -1.5864 0
M  V30 8214 O 732.665 -0.586272 -2.20851 0
M  V30 8215 C 732.875 -3.48757 -0.130217 0
M  V30 8216 C 734.223 -4.23331 -0.327975 0
M  V30 8217 O 735.247 -3.55594 -0.207619 0
M  V30 8218 O 734.106 -5.43529 -0.569077 0
M  V30 8219 H 731.2 -0.818042 -0.121394 0
M  V30 8220 H 733.746 -1.61782 0.512316 0
M  V30 8221 H 732.518 -3.81725 0.860346 0
M  V30 8222 H 732.141 -3.88333 -0.853397 0
M  V30 8223 N 733.138 -0.185124 -1.56509 0
M  V30 8224 C 734.068 0.735098 -2.21627 0
M  V30 8225 C 735.049 1.2288 -1.1762 0
M  V30 8226 O 736.234 1.27945 -1.46095 0
M  V30 8227 C 733.364 1.95889 -2.86783 0
M  V30 8228 C 732.318 1.6005 -3.96948 0
M  V30 8229 C 731.644 2.90009 -4.4922 0
M  V30 8230 C 732.944 0.818008 -5.15855 0
M  V30 8231 H 734.638 0.192274 -2.98782 0
M  V30 8232 H 732.184 0.0910393 -1.43712 0
M  V30 8233 H 734.137 2.60779 -3.31017 0
M  V30 8234 H 732.861 2.52608 -2.07018 0
M  V30 8235 H 731.52 0.975237 -3.5339 0
M  V30 8236 H 731.168 3.44797 -3.6623 0
M  V30 8237 H 730.868 2.66778 -5.23549 0
M  V30 8238 H 732.392 3.55904 -4.9615 0
M  V30 8239 H 733.806 1.36979 -5.56695 0
M  V30 8240 H 732.203 0.684207 -5.96187 0
M  V30 8241 H 733.273 -0.182939 -4.84555 0
M  V30 8242 N 734.616 1.57351 0.0885366 0
M  V30 8243 C 735.548 1.99221 1.13329 0
M  V30 8244 C 736.561 0.895705 1.35945 0
M  V30 8245 O 737.75 1.17376 1.34481 0
M  V30 8246 C 734.85 2.3016 2.48756 0
M  V30 8247 C 734.023 3.61444 2.46327 0
M  V30 8248 C 733.082 3.80244 3.63732 0
M  V30 8249 O 732.108 4.52024 3.45924 0
M  V30 8250 N 733.31 3.2132 4.8346 0
M  V30 8251 H 736.075 2.89456 0.776862 0
M  V30 8252 H 733.636 1.59505 0.277428 0
M  V30 8253 H 735.628 2.39925 3.25911 0
M  V30 8254 H 734.198 1.459 2.76464 0
M  V30 8255 H 733.418 3.62588 1.54673 0
M  V30 8256 H 734.706 4.47678 2.41789 0
M  V30 8257 H 734.104 2.63028 5.00832 0
M  V30 8258 H 732.661 3.3656 5.58185 0
M  V30 8259 N 736.094 -0.359525 1.53444 0
M  V30 8260 C 737.324 -1.12036 1.73585 0
M  V30 8261 C 737.732 -1.83335 0.467438 0
M  V30 8262 O 737.075 -1.74641 -0.569753 0
M  V30 8263 C 737.137 -2.19036 2.85068 0
M  V30 8264 C 736.801 -1.67451 4.25217 0
M  V30 8265 C 737.798 -1.13534 5.07352 0
M  V30 8266 C 735.483 -1.72781 4.71648 0
M  V30 8267 C 737.477 -0.656321 6.34012 0
M  V30 8268 C 735.164 -1.2449 5.98285 0
M  V30 8269 C 736.162 -0.710068 6.79299 0
M  V30 8270 O 735.85 -0.234314 8.03558 0
M  V30 8271 H 735.582 -0.340662 0.583888 0
M  V30 8272 H 738.136 -0.422452 2.01009 0
M  V30 8273 H 736.366 -2.92338 2.53131 0
M  V30 8274 H 738.055 -2.80559 2.93328 0
M  V30 8275 H 738.821 -1.08751 4.7265 0
M  V30 8276 H 734.7 -2.13351 4.08659 0
M  V30 8277 H 738.244 -0.238193 6.97193 0
M  V30 8278 H 734.141 -1.28969 6.32485 0
M  V30 8279 H 734.909 -0.353084 8.17738 0
M  V30 8280 N 737.572 -1.44907 -0.619662 0
M  V30 8281 C 738.988 -1.29046 -0.939107 0
M  V30 8282 C 739.188 -0.23462 -2.00129 0
M  V30 8283 O 738.244 0.37558 -2.49691 0
M  V30 8284 C 739.557 -2.66567 -1.39149 0
M  V30 8285 C 741.105 -2.74368 -1.50635 0
M  V30 8286 C 741.58 -4.12386 -1.99253 0
M  V30 8287 N 743.071 -4.1462 -2.06506 0
M  V30 8288 C 743.806 -5.18272 -2.4532 0
M  V30 8289 N 743.302 -6.32278 -2.83189 0
M  V30 8290 N 745.095 -5.05628 -2.45554 0
M  V30 8291 H 737.246 -2.12239 0.0826135 0
M  V30 8292 H 739.509 -0.947652 -0.0256829 0
M  V30 8293 H 739.215 -3.4496 -0.685254 0
M  V30 8294 H 739.089 -2.94224 -2.36034 0
M  V30 8295 H 741.476 -1.96287 -2.20353 0
M  V30 8296 H 741.557 -2.50439 -0.520963 0
M  V30 8297 H 741.201 -4.90947 -1.30127 0
M  V30 8298 H 741.131 -4.33699 -2.98684 0
M  V30 8299 H 743.622 -3.32343 -1.79878 0
M  V30 8300 H 743.935 -7.07172 -3.11652 0
M  V30 8301 H 742.28 -6.35699 -2.80913 0
M  V30 8302 H 745.471 -4.15613 -2.15367 0
M  V30 8303 H 745.644 -5.86529 -2.75478 0
M  V30 8304 N 739.05 0.861098 -1.31996 0
M  V30 8305 C 740.461 1.43065 -1.19955 0
M  V30 8306 C 740.812 1.95273 0.190489 0
M  V30 8307 O 739.937 1.87012 1.08882 0
M  V30 8308 C 740.532 2.60052 -2.1716 0
M  V30 8309 C 739.091 3.13026 -2.09026 0
M  V30 8310 C 738.238 1.85756 -2.05888 0
M  V30 8311 H 741.189 0.668834 -1.43918 0
M  V30 8312 H 741.21 3.37016 -1.76637 0
M  V30 8313 H 740.722 2.22024 -3.18319 0
M  V30 8314 H 738.823 3.55653 -1.11092 0
M  V30 8315 H 738.936 3.74707 -2.98549 0
M  V30 8316 H 737.3 2.05088 -1.51033 0
M  V30 8317 H 738.083 1.49954 -3.08818 0
M  V30 8318 N 740.528 1.15101 1.07655 0
M  V30 8319 C 741.491 0.847625 2.12951 0
M  V30 8320 C 742.491 -0.151227 1.60087 0
M  V30 8321 O 743.681 0.0780399 1.74025 0
M  V30 8322 C 740.813 0.265 3.39868 0
M  V30 8323 H 742.006 1.7809 2.41296 0
M  V30 8324 H 739.559 0.958072 1.23494 0
M  V30 8325 H 740.294 -0.676625 3.17163 0
M  V30 8326 H 740.079 0.984554 3.79538 0
M  V30 8327 H 741.569 0.0702121 4.17541 0
M  V30 8328 N 742.006 -1.2595 0.947325 0
M  V30 8329 C 742.954 -2.28152 0.452687 0
M  V30 8330 C 743.948 -1.62655 -0.473239 0
M  V30 8331 O 745.154 -1.76549 -0.350774 0
M  V30 8332 H 741.529 -0.741049 0.12787 0
M  V30 8333 H 743.5 -2.67267 1.32707 0
M  V30 8334 C 742.249 -3.46719 -0.26098 0
M  V30 8335 H 741.572 -3.97345 0.442352 0
M  V30 8336 H 743.012 -4.20135 -0.571208 0
M  V30 8337 C 741.471 -3.02605 -1.48094 0
M  V30 8338 O 742.001 -3.07979 -2.57899 0
M  V30 8339 N 740.207 -2.57877 -1.33969 0
M  V30 8340 H 739.754 -2.53704 -0.446295 0
M  V30 8341 H 739.712 -2.28725 -2.15713 0
M  V30 8342 N 743.484 -0.715051 -1.40445 0
M  V30 8343 C 744.414 -0.0768699 -2.33373 0
M  V30 8344 C 745.395 0.746109 -1.52863 0
M  V30 8345 O 746.58 0.695142 -1.81332 0
M  V30 8346 C 743.71 0.846014 -3.36838 0
M  V30 8347 C 742.664 0.128694 -4.27806 0
M  V30 8348 C 741.99 1.16726 -5.21804 0
M  V30 8349 C 743.29 -1.01679 -5.12307 0
M  V30 8350 H 744.984 -0.853061 -2.8699 0
M  V30 8351 H 742.53 -0.41167 -1.3799 0
M  V30 8352 H 744.483 1.30185 -4.00786 0
M  V30 8353 H 743.207 1.6541 -2.81615 0
M  V30 8354 H 741.866 -0.307314 -3.6531 0
M  V30 8355 H 741.514 1.96838 -4.62887 0
M  V30 8356 H 741.214 0.692188 -5.83509 0
M  V30 8357 H 742.738 1.62321 -5.88629 0
M  V30 8358 H 744.152 -0.640337 -5.69713 0
M  V30 8359 H 742.549 -1.4202 -5.83053 0
M  V30 8360 H 743.619 -1.84769 -4.48317 0
M  V30 8361 N 744.962 1.50701 -0.461195 0
M  V30 8362 C 746.187 2.07171 0.0974773 0
M  V30 8363 C 746.612 1.32391 1.3362 0
M  V30 8364 O 745.97 0.368676 1.77512 0
M  V30 8365 C 746.018 3.58651 0.374409 0
M  V30 8366 O 745.122 3.85816 1.4567 0
M  V30 8367 H 744.463 0.663944 -0.00862047 0
M  V30 8368 H 746.993 1.94021 -0.649394 0
M  V30 8369 H 747.003 4.03295 0.617843 0
M  V30 8370 H 745.678 4.12498 -0.530829 0
M  V30 8371 H 744.255 3.53018 1.20136 0
M  V30 8372 N 746.441 0.193421 1.56409 0
M  V30 8373 C 747.404 -0.714371 2.17783 0
M  V30 8374 C 748.404 -1.1422 1.13183 0
M  V30 8375 O 749.594 -1.05557 1.38576 0
M  V30 8376 C 746.726 -1.97509 2.77855 0
M  V30 8377 H 747.919 -0.179714 2.99361 0
M  V30 8378 H 745.472 -0.0561944 1.56199 0
M  V30 8379 H 746.207 -2.5523 2.0007 0
M  V30 8380 H 745.992 -1.67706 3.54425 0
M  V30 8381 H 747.482 -2.62246 3.24987 0
M  V30 8382 N 747.919 -1.57396 -0.0801906 0
M  V30 8383 C 748.867 -2.04136 -1.11495 0
M  V30 8384 C 749.861 -0.945137 -1.40583 0
M  V30 8385 O 751.067 -1.13028 -1.40088 0
M  V30 8386 H 747.442 -0.65076 -0.37685 0
M  V30 8387 H 749.413 -2.90205 -0.694526 0
M  V30 8388 C 748.162 -2.49399 -2.42272 0
M  V30 8389 H 747.485 -3.33339 -2.20737 0
M  V30 8390 H 748.925 -2.85864 -3.13142 0
M  V30 8391 C 747.384 -1.37341 -3.07635 0
M  V30 8392 O 747.914 -0.710829 -3.95361 0
M  V30 8393 N 746.12 -1.12064 -2.68123 0
M  V30 8394 H 745.667 -1.66126 -1.96875 0
M  V30 8395 H 745.625 -0.372916 -3.12181 0
M  V30 8396 N 749.397 0.351382 -1.53633 0
M  V30 8397 C 750.808 0.927429 -1.62036 0
M  V30 8398 C 751.159 1.89809 -0.496706 0
M  V30 8399 O 750.284 2.1313 0.374749 0
M  V30 8400 C 750.879 1.68886 -2.93706 0
M  V30 8401 C 749.438 2.21404 -3.04397 0
M  V30 8402 C 748.585 1.03075 -2.57431 0
M  V30 8403 H 751.536 0.129748 -1.58169 0
M  V30 8404 H 751.557 2.55116 -2.82305 0
M  V30 8405 H 751.069 0.982149 -3.75467 0
M  V30 8406 H 749.17 2.95274 -2.27253 0
M  V30 8407 H 749.283 2.48312 -4.09729 0
M  V30 8408 H 747.647 1.40188 -2.12649 0
M  V30 8409 H 748.43 0.338793 -3.41624 0
M  V30 8410 N 750.875 1.45233 0.611969 0
M  V30 8411 C 752.124 1.48296 1.36716 0
M  V30 8412 C 752.437 0.12706 1.95187 0
M  V30 8413 O 753.643 0.0353066 2.71477 0
M  V30 8414 C 752.099 2.61168 2.47627 0
M  V30 8415 C 751.707 4.03051 1.95587 0
M  V30 8416 C 753.451 2.73472 3.24674 0
M  V30 8417 C 751.358 5.07312 3.03954 0
M  V30 8418 H 750.288 0.5518 0.513841 0
M  V30 8419 H 752.939 1.7136 0.656359 0
M  V30 8420 H 751.321 2.31379 3.21372 0
M  V30 8421 H 752.495 4.42497 1.2858 0
M  V30 8422 H 750.81 3.95158 1.31298 0
M  V30 8423 H 753.407 3.48537 4.05494 0
M  V30 8424 H 753.75 1.79953 3.75397 0
M  V30 8425 H 754.283 3.02765 2.58028 0
M  V30 8426 H 751.022 6.02525 2.58154 0
M  V30 8427 H 750.542 4.7244 3.69541 0
M  V30 8428 H 752.221 5.31867 3.6841 0
M  V30 8429 N 752.353 -0.854086 1.3245 0
M  V30 8430 C 753.578 -1.64597 1.26185 0
M  V30 8431 C 754.003 -1.87357 -0.167074 0
M  V30 8432 O 753.361 -1.42675 -1.11864 0
M  V30 8433 C 753.409 -2.98213 2.02734 0
M  V30 8434 O 752.513 -3.88784 1.37554 0
M  V30 8435 H 751.854 -0.50179 0.434859 0
M  V30 8436 H 754.384 -1.06372 1.74775 0
M  V30 8437 H 754.394 -3.4803 2.1293 0
M  V30 8438 H 753.069 -2.80969 3.06642 0
M  V30 8439 H 751.646 -3.4725 1.3591 0
M  V30 8440 N 753.831 -1.1567 -1.07043 0
M  V30 8441 C 755.078 -0.933517 -1.79699 0
M  V30 8442 C 755.406 0.539162 -1.86878 0
M  V30 8443 O 754.661 1.41592 -1.35093 0
M  V30 8444 C 754.96 -1.49677 -3.24548 0
M  V30 8445 C 754.626 -2.99047 -3.37463 0
M  V30 8446 C 753.288 -3.39824 -3.40695 0
M  V30 8447 C 755.64 -3.95027 -3.40004 0
M  V30 8448 C 752.968 -4.75215 -3.44075 0
M  V30 8449 C 755.32 -5.30295 -3.44921 0
M  V30 8450 C 753.984 -5.70562 -3.46432 0
M  V30 8451 H 753.254 -0.341598 -0.657565 0
M  V30 8452 H 755.901 -1.44263 -1.25938 0
M  V30 8453 H 754.206 -0.908915 -3.81111 0
M  V30 8454 H 755.903 -1.29986 -3.79348 0
M  V30 8455 H 752.493 -2.6653 -3.35648 0
M  V30 8456 H 756.677 -3.64596 -3.36725 0
M  V30 8457 H 751.933 -5.05754 -3.43545 0
M  V30 8458 H 756.107 -6.0446 -3.45833 0
M  V30 8459 H 753.734 -6.75456 -3.48803 0
M  V30 8460 O 755.348 1.19707 -1.08409 0
M  V30 8461 H 756.039 1.77498 -0.775504 0
M  V30 END ATOM
M  V30 BEGIN BOND
M  V30 END BOND
M  V30 END CTAB
M  END
$$$$
