drugbank_target|Q24940 Cathepsin L-like proteinase (DB12245)
 OpenBabel12092121193D

  0  0  0     0  0            999 V3000
M  V30 BEGIN CTAB
M  V30 COUNTS 5069 5131 0 0 0
M  V30 BEGIN ATOM
M  V30 1 H -0.908 1.98254 -0.117106 0
M  V30 2 N 0 1.576 0 0
M  V30 3 C 0.933 2.03868 1.02534 0
M  V30 4 C 1.911 0.928543 1.3348 0
M  V30 5 O 3.095 1.19667 1.45644 0
M  V30 6 C 0.222 2.43627 2.35294 0
M  V30 7 C -0.732 3.65373 2.2001 0
M  V30 8 S 0.101 5.13292 1.52614 0
M  V30 9 C 1.257 5.56322 2.86805 0
M  V30 10 H 1.49 2.90518 0.631377 0
M  V30 11 H -0.977 1.52953 0.210867 0
M  V30 12 H 0.981 2.67203 3.11629 0
M  V30 13 H -0.358 1.57376 2.7183 0
M  V30 14 H -1.165 3.90944 3.18086 0
M  V30 15 H -1.563 3.418 1.51819 0
M  V30 16 H 0.729 5.58782 3.83104 0
M  V30 17 H 1.672 6.56266 2.65933 0
M  V30 18 H 2.08 4.83886 2.90714 0
M  V30 19 N 1.4781 -0.272755 1.55222 0
M  V30 20 C 2.8941 -0.619959 1.47067 0
M  V30 21 C 3.0941 -1.895 0.684978 0
M  V30 22 O 2.1501 -2.51675 0.203931 0
M  V30 23 C 3.4631 -0.746693 2.91282 0
M  V30 24 C 5.0111 -0.840731 3.01497 0
M  V30 25 C 5.4861 -0.99924 4.46967 0
M  V30 26 N 6.9771 -1.06476 4.50796 0
M  V30 27 C 7.7121 -1.20621 5.6057 0
M  V30 28 N 7.2081 -1.31483 6.80209 0
M  V30 29 N 9.0011 -1.23733 5.48312 0
M  V30 30 H 1.1521 0.564606 2.04758 0
M  V30 31 H 3.4151 0.191177 0.928523 0
M  V30 32 H 3.1211 0.119753 3.51496 0
M  V30 33 H 2.9951 -1.6269 3.40311 0
M  V30 34 H 5.3821 -1.69764 2.41379 0
M  V30 35 H 5.4631 0.0640874 2.5572 0
M  V30 36 H 5.1071 -0.146984 5.07687 0
M  V30 37 H 5.0371 -1.91871 4.90401 0
M  V30 38 H 7.5281 -0.993196 3.64615 0
M  V30 39 H 7.8411 -1.42111 7.59621 0
M  V30 40 H 6.1861 -1.28487 6.8302 0
M  V30 41 H 9.3771 -1.14877 4.53785 0
M  V30 42 H 9.5501 -1.34412 6.33906 0
M  V30 43 N 2.9562 -1.48159 -0.537278 0
M  V30 44 C 3.8862 -1.65029 -1.6519 0
M  V30 45 C 4.8672 -0.499281 -1.62607 0
M  V30 46 O 6.0522 -0.730972 -1.79918 0
M  V30 47 C 3.1822 -1.68303 -3.03795 0
M  V30 48 C 2.1362 -2.8283 -3.21234 0
M  V30 49 C 1.4622 -2.71189 -4.60826 0
M  V30 50 C 2.7622 -4.24211 -3.04701 0
M  V30 51 H 4.4562 -2.58341 -1.51328 0
M  V30 52 H 2.0022 -1.24325 -0.726585 0
M  V30 53 H 3.9552 -1.78693 -3.81637 0
M  V30 54 H 2.6792 -0.715635 -3.18663 0
M  V30 55 H 1.3382 -2.71983 -2.45807 0
M  V30 56 H 0.9862 -1.72435 -4.7252 0
M  V30 57 H 0.6862 -3.48035 -4.7344 0
M  V30 58 H 2.2102 -2.83537 -5.40777 0
M  V30 59 H 3.6242 -4.3593 -3.72341 0
M  V30 60 H 2.0212 -5.01998 -3.28813 0
M  V30 61 H 3.0912 -4.41184 -2.01209 0
M  V30 62 N 4.4343 0.785586 -1.36625 0
M  V30 63 C 5.6813 1.54362 -1.31067 0
M  V30 64 C 6.0093 1.94195 0.10893 0
M  V30 65 O 5.2643 1.63262 1.07908 0
M  V30 66 C 5.5633 2.83007 -2.1827 0
M  V30 67 C 5.2293 2.62294 -3.6676 0
M  V30 68 C 3.8913 2.56353 -4.0723 0
M  V30 69 C 6.2433 2.43371 -4.6089 0
M  V30 70 C 3.5713 2.29461 -5.39967 0
M  V30 71 C 5.9233 2.18005 -5.93849 0
M  V30 72 C 4.5873 2.105 -6.3344 0
M  V30 73 H 3.8573 0.564851 -0.479609 0
M  V30 74 H 6.5043 0.906028 -1.68711 0
M  V30 75 H 4.8093 3.51253 -1.73576 0
M  V30 76 H 6.5063 3.40817 -2.11292 0
M  V30 77 H 3.0963 2.67774 -3.34656 0
M  V30 78 H 7.2803 2.46959 -4.30494 0
M  V30 79 H 2.5363 2.22135 -5.69619 0
M  V30 80 H 6.7103 2.02359 -6.66351 0
M  V30 81 H 4.3373 1.89425 -7.36222 0
M  V30 82 N 5.9124 1.20967 1.01018 0
M  V30 83 C 7.1614 1.01796 1.74128 0
M  V30 84 C 7.4744 -0.449691 1.90361 0
M  V30 85 O 8.6804 -0.76068 2.60626 0
M  V30 86 C 7.1364 1.7727 3.13215 0
M  V30 87 C 6.7444 3.28171 3.04972 0
M  V30 88 C 8.4884 1.66489 3.90489 0
M  V30 89 C 6.3954 3.96156 4.39107 0
M  V30 90 H 5.3254 0.377276 0.652824 0
M  V30 91 H 7.9764 1.44651 1.12909 0
M  V30 92 H 6.3584 1.27205 3.75013 0
M  V30 93 H 7.5324 3.85499 2.52443 0
M  V30 94 H 5.8474 3.39437 2.41188 0
M  V30 95 H 8.4444 2.14617 4.89738 0
M  V30 96 H 8.7874 0.6222 4.11624 0
M  V30 97 H 9.3204 2.14003 3.35332 0
M  V30 98 H 6.0594 5.00604 4.23174 0
M  V30 99 H 5.5794 3.43617 4.91617 0
M  V30 100 H 7.2584 4.00774 5.07926 0
M  V30 101 N 7.3905 -1.2043 1.01659 0
M  V30 102 C 8.3205 -2.25466 0.607226 0
M  V30 103 C 9.3015 -1.65853 -0.377716 0
M  V30 104 O 10.4865 -1.92409 -0.263149 0
M  V30 105 C 7.6165 -3.47256 -0.0552949 0
M  V30 106 C 6.5705 -4.19462 0.850632 0
M  V30 107 C 5.8965 -5.34673 0.0538859 0
M  V30 108 C 7.1965 -4.75603 2.15868 0
M  V30 109 H 8.8905 -2.59962 1.48526 0
M  V30 110 H 6.4365 -1.2496 0.715605 0
M  V30 111 H 8.3895 -4.19917 -0.353233 0
M  V30 112 H 7.1135 -3.11924 -0.968045 0
M  V30 113 H 5.7725 -3.48667 1.13257 0
M  V30 114 H 5.4205 -4.95585 -0.860514 0
M  V30 115 H 5.1205 -5.83913 0.657192 0
M  V30 116 H 6.6445 -6.10138 -0.237598 0
M  V30 117 H 8.0585 -5.40083 1.92311 0
M  V30 118 H 6.4555 -5.3528 2.71284 0
M  V30 119 H 7.5255 -3.94346 2.82169 0
M  V30 120 N 8.8686 -0.792821 -1.36206 0
M  V30 121 C 9.8316 -0.199459 -2.2833 0
M  V30 122 C 10.8316 0.605189 -1.48977 0
M  V30 123 O 12.0216 0.425685 -1.68919 0
M  V30 124 C 9.1536 0.723523 -3.33134 0
M  V30 125 H 10.3466 -1.01181 -2.82316 0
M  V30 126 H 7.8996 -0.562485 -1.45828 0
M  V30 127 H 8.6346 1.56008 -2.84309 0
M  V30 128 H 8.4196 0.148436 -3.91819 0
M  V30 129 H 9.9096 1.13344 -4.01924 0
M  V30 130 N 10.3467 1.47872 -0.545128 0
M  V30 131 C 11.5927 2.02793 -0.0166104 0
M  V30 132 C 11.9257 1.41987 1.32489 0
M  V30 133 O 11.2007 0.571045 1.85928 0
M  V30 134 C 11.4837 3.59989 0.0893294 0
M  V30 135 C 11.3367 4.3125 -1.27841 0
M  V30 136 C 12.6557 4.32606 0.808724 0
M  V30 137 H 9.7747 0.736962 -0.00751035 0
M  V30 138 H 12.4167 1.76433 -0.705085 0
M  V30 139 H 10.5667 3.82579 0.675681 0
M  V30 140 H 12.2387 4.20035 -1.90704 0
M  V30 141 H 10.4817 3.92076 -1.85632 0
M  V30 142 H 11.1527 5.39736 -1.15713 0
M  V30 143 H 13.6287 4.14936 0.310992 0
M  V30 144 H 12.5047 5.42251 0.851782 0
M  V30 145 H 12.7657 4.00963 1.86229 0
M  V30 146 N 11.8248 0.280983 1.55075 0
M  V30 147 C 12.7548 -0.597469 2.25727 0
M  V30 148 C 13.7358 -1.15417 1.24952 0
M  V30 149 O 14.9208 -1.18722 1.53684 0
M  V30 150 C 12.0508 -1.7789 2.98283 0
M  V30 151 C 11.0048 -1.35347 4.06036 0
M  V30 152 C 10.3308 -2.61846 4.66198 0
M  V30 153 C 11.6308 -0.499354 5.19907 0
M  V30 154 H 13.3248 -0.00824265 2.99399 0
M  V30 155 H 10.8708 -0.0025244 1.44 0
M  V30 156 H 12.8238 -2.39937 3.46422 0
M  V30 157 H 11.5478 -2.39405 2.22155 0
M  V30 158 H 10.2068 -0.756156 3.58717 0
M  V30 159 H 9.8548 -3.21632 3.86732 0
M  V30 160 H 9.5548 -2.3409 5.38958 0
M  V30 161 H 11.0788 -3.24732 5.1709 0
M  V30 162 H 12.4928 -1.02498 5.64063 0
M  V30 163 H 10.8898 -0.316424 5.99265 0
M  V30 164 H 11.9598 0.480459 4.82514 0
M  V30 165 N 13.3029 -1.57598 0.00835791 0
M  V30 166 C 14.5309 -1.95214 -0.68549 0
M  V30 167 C 14.9459 -0.883706 -1.66841 0
M  V30 168 O 14.3029 0.136565 -1.81988 0
M  V30 169 C 14.3539 -3.32865 -1.41007 0
M  V30 170 O 14.0749 -4.35609 -0.466552 0
M  V30 171 C 15.5759 -3.84991 -2.19765 0
M  V30 172 H 12.7959 -0.643422 -0.190392 0
M  V30 173 H 15.3399 -2.04406 0.0619607 0
M  V30 174 H 13.4949 -3.24956 -2.10908 0
M  V30 175 H 13.9089 -5.15288 -0.978699 0
M  V30 176 H 15.3829 -4.8371 -2.65948 0
M  V30 177 H 15.8599 -3.18137 -3.02796 0
M  V30 178 H 16.4659 -3.96103 -1.54864 0
M  V30 179 N 14.781 0.264519 -1.55364 0
M  V30 180 C 16.027 0.99646 -1.76631 0
M  V30 181 C 16.36 1.85632 -0.570478 0
M  V30 182 O 15.635 1.89647 0.43175 0
M  V30 183 C 15.918 1.87187 -3.07625 0
M  V30 184 C 15.771 1.04138 -4.37579 0
M  V30 185 C 17.09 2.85749 -3.34717 0
M  V30 186 H 14.209 0.360841 -0.642622 0
M  V30 187 H 16.851 0.268218 -1.88097 0
M  V30 188 H 15.001 2.49279 -2.9798 0
M  V30 189 H 16.673 0.440517 -4.59192 0
M  V30 190 H 14.916 0.345115 -4.32425 0
M  V30 191 H 15.587 1.68729 -5.2558 0
M  V30 192 H 18.063 2.33793 -3.4421 0
M  V30 193 H 16.939 3.44136 -4.27623 0
M  V30 194 H 17.2 3.61311 -2.54768 0
M  V30 195 N 16.2591 1.48442 0.529413 0
M  V30 196 C 17.5071 1.56179 1.28267 0
M  V30 197 C 17.8281 0.237721 1.93546 0
M  V30 198 O 17.0981 -0.740779 1.81354 0
M  V30 199 H 15.6781 0.575367 0.476405 0
M  V30 200 H 18.3401 1.84909 0.61602 0
M  V30 201 H 17.4361 2.34312 2.06165 0
M  V30 202 N 17.7372 -0.778329 1.37039 0
M  V30 203 C 18.9832 -1.53892 1.32079 0
M  V30 204 C 19.3162 -1.9396 -0.0965386 0
M  V30 205 O 18.5912 -1.63568 -1.05242 0
M  V30 206 C 18.8742 -2.80847 2.25382 0
M  V30 207 C 18.7272 -2.47076 3.75864 0
M  V30 208 C 20.0462 -3.82741 2.1725 0
M  V30 209 H 17.1652 -0.558303 0.48111 0
M  V30 210 H 19.8072 -0.893397 1.67685 0
M  V30 211 H 17.9572 -3.35931 1.95148 0
M  V30 212 H 19.6292 -1.97957 4.16666 0
M  V30 213 H 17.8722 -1.79863 3.94755 0
M  V30 214 H 18.5432 -3.37798 4.36574 0
M  V30 215 H 21.0192 -3.37133 2.43887 0
M  V30 216 H 19.8952 -4.69303 2.84686 0
M  V30 217 H 20.1562 -4.2652 1.16331 0
M  V30 218 N 19.2153 -1.21501 -1.00376 0
M  V30 219 C 20.1453 -0.999478 -2.11028 0
M  V30 220 C 21.1263 0.0759671 -1.6993 0
M  V30 221 O 22.3113 -0.0841106 -1.94018 0
M  V30 222 C 19.4413 -0.564709 -3.42678 0
M  V30 223 C 18.3953 -1.58486 -3.97576 0
M  V30 224 C 17.7213 -1.00628 -5.25146 0
M  V30 225 C 19.0213 -2.97204 -4.29496 0
M  V30 226 H 20.7153 -1.92495 -2.29317 0
M  V30 227 H 18.2613 -0.92693 -1.102 0
M  V30 228 H 20.2143 -0.401091 -4.19487 0
M  V30 229 H 18.9383 0.396411 -3.24185 0
M  V30 230 H 17.5973 -1.73606 -3.22888 0
M  V30 231 H 17.2453 -0.0368439 -5.02987 0
M  V30 232 H 16.9453 -1.68771 -5.62841 0
M  V30 233 H 18.4693 -0.854015 -6.04598 0
M  V30 234 H 19.8833 -2.8552 -4.97143 0
M  V30 235 H 18.2803 -3.62372 -4.78338 0
M  V30 236 H 19.3503 -3.47956 -3.3772 0
M  V30 237 N 20.6934 1.19889 -1.02296 0
M  V30 238 C 21.9414 1.89046 -0.714558 0
M  V30 239 C 22.2624 1.79636 0.758681 0
M  V30 240 O 21.5324 1.20292 1.54618 0
M  V30 241 H 20.1124 0.699802 -0.261317 0
M  V30 242 H 22.7744 1.45574 -1.29592 0
M  V30 243 H 21.8704 2.95524 -1.0036 0
M  V30 244 N 22.1715 0.800033 1.35784 0
M  V30 245 C 23.3965 0.388511 2.03729 0
M  V30 246 C 23.8215 -0.990481 1.5991 0
M  V30 247 O 23.1795 -1.64013 0.772612 0
M  V30 248 C 23.2275 0.4726 3.5749 0
M  V30 249 O 22.3315 -0.51646 4.09153 0
M  V30 250 H 21.6725 0.163271 0.643614 0
M  V30 251 H 24.2025 1.0841 1.73518 0
M  V30 252 H 24.2125 0.34003 4.06581 0
M  V30 253 H 22.8875 1.47848 3.88734 0
M  V30 254 H 21.4645 -0.344673 3.71304 0
M  V30 255 N 23.6496 -1.47581 0.552962 0
M  V30 256 C 24.5976 -2.31648 -0.21023 0
M  V30 257 C 25.5916 -1.42663 -0.913432 0
M  V30 258 O 26.7976 -1.5945 -0.835201 0
M  V30 259 H 23.1726 -0.746989 -0.0866676 0
M  V30 260 H 25.1436 -2.93869 0.518051 0
M  V30 261 C 23.8926 -3.25226 -1.22976 0
M  V30 262 H 23.2156 -3.93658 -0.698077 0
M  V30 263 H 24.6556 -3.86889 -1.73473 0
M  V30 264 C 23.1146 -2.48448 -2.27542 0
M  V30 265 O 23.6446 -2.22585 -3.34393 0
M  V30 266 N 21.8506 -2.09532 -2.01357 0
M  V30 267 H 21.3976 -2.30765 -1.14478 0
M  V30 268 H 21.3556 -1.58476 -2.71538 0
M  V30 269 N 25.1277 -0.289203 -1.54924 0
M  V30 270 C 26.4047 0.376032 -1.91951 0
M  V30 271 C 26.7847 1.72622 -1.21511 0
M  V30 272 O 26.1327 2.25853 -0.346767 0
M  V30 273 C 26.3427 0.502378 -3.45365 0
M  V30 274 C 27.6907 0.778741 -4.17398 0
M  V30 275 O 28.7147 0.586647 -3.51336 0
M  V30 276 O 27.5737 1.14698 -5.34328 0
M  V30 277 H 24.6677 0.208167 -0.800372 0
M  V30 278 H 27.2137 -0.336394 -1.66332 0
M  V30 279 H 25.9857 -0.447255 -3.88736 0
M  V30 280 H 25.6087 1.26373 -3.76982 0
M  V30 281 N 26.6058 1.57591 -0.0167156 0
M  V30 282 C 27.8828 1.82547 0.702564 0
M  V30 283 C 28.2628 0.898018 1.91047 0
M  V30 284 O 27.6108 -0.0493456 2.28447 0
M  V30 285 C 27.8208 3.31459 1.09251 0
M  V30 286 C 29.1688 3.97622 1.48937 0
M  V30 287 O 30.1928 3.35881 1.18584 0
M  V30 288 O 29.0518 5.06415 2.05442 0
M  V30 289 H 26.1458 0.752268 0.343544 0
M  V30 290 H 28.6918 1.69644 -0.0434495 0
M  V30 291 H 27.4638 3.9061 0.23227 0
M  V30 292 H 27.0868 3.49422 1.89709 0
M  V30 293 N 28.0839 -0.256276 1.55502 0
M  V30 294 C 29.0139 -1.32102 1.92539 0
M  V30 295 C 29.9949 -1.50684 0.789194 0
M  V30 296 O 31.1799 -1.63449 1.04872 0
M  V30 297 C 28.3099 -2.67752 2.21192 0
M  V30 298 C 27.2639 -2.63878 3.36975 0
M  V30 299 C 26.5899 -4.03236 3.51147 0
M  V30 300 C 27.8899 -2.21682 4.72921 0
M  V30 301 H 29.5839 -1.01351 2.81724 0
M  V30 302 H 27.1299 -0.486105 1.35547 0
M  V30 303 H 29.0829 -3.42365 2.45691 0
M  V30 304 H 27.8069 -3.0012 1.28824 0
M  V30 305 H 26.4659 -1.91722 3.12471 0
M  V30 306 H 26.1139 -4.32854 2.56216 0
M  V30 307 H 25.8139 -4.01535 4.29003 0
M  V30 308 H 27.3379 -4.79563 3.77957 0
M  V30 309 H 28.7519 -2.86023 4.96854 0
M  V30 310 H 27.1489 -2.3111 5.53812 0
M  V30 311 H 28.2189 -1.16833 4.70615 0
M  V30 312 N 29.562 -1.4872 -0.521534 0
M  V30 313 C 30.808 -1.58378 -1.27624 0
M  V30 314 C 31.163 -0.258028 -1.90662 0
M  V30 315 O 30.456 0.739917 -1.76736 0
M  V30 316 C 30.65 -2.66497 -2.38148 0
M  V30 317 C 30.479 -4.09456 -1.85945 0
M  V30 318 C 29.249 -4.76495 -1.68168 0
M  V30 319 C 31.447 -4.95353 -1.3831 0
M  V30 320 N 29.429 -6.0384 -1.1068 0
M  V30 321 C 30.8 -6.13012 -0.928238 0
M  V30 322 C 32.855 -4.81512 -1.26692 0
M  V30 323 C 31.558 -7.18354 -0.368701 0
M  V30 324 C 33.584 -5.86984 -0.721368 0
M  V30 325 C 32.946 -7.03857 -0.276623 0
M  V30 326 H 29.045 -0.634045 -0.457724 0
M  V30 327 H 31.629 -1.85639 -0.587049 0
M  V30 328 H 29.8 -2.41043 -3.04553 0
M  V30 329 H 31.532 -2.65791 -3.05184 0
M  V30 330 H 28.287 -4.32962 -1.91939 0
M  V30 331 H 28.711 -6.71778 -0.839217 0
M  V30 332 H 33.353 -3.91487 -1.5968 0
M  V30 333 H 31.071 -8.08096 -0.0265122 0
M  V30 334 H 34.657 -5.78329 -0.634531 0
M  V30 335 H 33.537 -7.84077 0.138947 0
M  V30 336 N 31.0401 0.771051 -1.3745 0
M  V30 337 C 31.9901 1.87456 -1.29785 0
M  V30 338 C 32.9741 1.59827 -0.185541 0
M  V30 339 O 34.1661 1.71945 -0.419997 0
M  V30 340 C 31.2951 3.24935 -1.1078 0
M  V30 341 C 30.3811 3.58514 -2.26558 0
M  V30 342 N 30.7721 3.6327 -3.5195 0
M  V30 343 C 29.0701 3.88683 -2.18727 0
M  V30 344 C 29.7711 3.93616 -4.283 0
M  V30 345 N 28.7471 4.09551 -3.57448 0
M  V30 346 H 32.5491 1.89386 -2.24745 0
M  V30 347 H 30.0631 0.967531 -1.30432 0
M  V30 348 H 32.0601 4.03881 -1.03374 0
M  V30 349 H 30.7201 3.24268 -0.16738 0
M  V30 350 H 31.7311 3.45458 -3.85848 0
M  V30 351 H 28.4081 3.95834 -1.32746 0
M  V30 352 H 29.7981 4.04066 -5.36824 0
M  V30 353 N 32.5182 1.22032 0.997298 0
M  V30 354 C 33.4502 0.944263 2.08845 0
M  V30 355 C 34.4632 -0.0754663 1.62625 0
M  V30 356 O 35.6522 0.157994 1.77799 0
M  V30 357 C 32.7522 0.397723 3.36558 0
M  V30 358 C 31.9252 1.47362 4.11829 0
M  V30 359 C 30.9842 0.934951 5.17827 0
M  V30 360 O 30.0102 1.62016 5.45655 0
M  V30 361 N 31.2122 -0.245895 5.79979 0
M  V30 362 H 33.9772 1.88363 2.33109 0
M  V30 363 H 31.5382 1.12661 1.16272 0
M  V30 364 H 33.5302 0.0227771 4.04694 0
M  V30 365 H 32.1002 -0.446646 3.09393 0
M  V30 366 H 31.3202 2.02208 3.38386 0
M  V30 367 H 32.6082 2.19764 4.58891 0
M  V30 368 H 32.0062 -0.819475 5.59733 0
M  V30 369 H 30.5632 -0.562272 6.4937 0
M  V30 370 N 33.9963 -1.19345 1.0293 0
M  V30 371 C 35.2423 -1.89585 0.736824 0
M  V30 372 C 35.5973 -1.78148 -0.726703 0
M  V30 373 O 34.8903 -1.16332 -1.52242 0
M  V30 374 C 35.0843 -3.39292 1.12319 0
M  V30 375 C 34.9133 -3.65298 2.62273 0
M  V30 376 C 33.6833 -3.83304 3.29251 0
M  V30 377 C 35.8813 -3.6682 3.60482 0
M  V30 378 N 33.8633 -3.96944 4.68304 0
M  V30 379 C 35.2343 -3.86037 4.85155 0
M  V30 380 C 37.2893 -3.49848 3.54275 0
M  V30 381 C 35.9923 -3.9004 6.04369 0
M  V30 382 C 38.0183 -3.55129 4.72903 0
M  V30 383 C 37.3803 -3.74831 5.9639 0
M  V30 384 H 33.4793 -0.712856 0.321497 0
M  V30 385 H 36.0633 -1.43427 1.31669 0
M  V30 386 H 34.2343 -3.84172 0.571524 0
M  V30 387 H 35.9663 -3.97055 0.78292 0
M  V30 388 H 32.7213 -3.82211 2.79663 0
M  V30 389 H 33.1453 -4.07613 5.40538 0
M  V30 390 H 37.7873 -3.33572 2.59788 0
M  V30 391 H 35.5053 -4.05108 6.99223 0
M  V30 392 H 39.0913 -3.43287 4.69729 0
M  V30 393 H 37.9713 -3.78792 6.86649 0
M  V30 394 N 35.4744 -0.807222 -1.35358 0
M  V30 395 C 36.4214 -0.216037 -2.29787 0
M  V30 396 C 37.3914 0.650278 -1.52842 0
M  V30 397 O 38.5764 0.595227 -1.81278 0
M  V30 398 C 35.7164 0.628893 -3.39321 0
M  V30 399 C 34.8294 -0.257927 -4.31229 0
M  V30 400 C 33.9644 0.595069 -5.27856 0
M  V30 401 C 33.0034 -0.292111 -6.11403 0
M  V30 402 N 32.1404 0.520895 -7.00165 0
M  V30 403 H 36.9804 -1.02671 -2.79755 0
M  V30 404 H 34.5174 -0.517839 -1.37684 0
M  V30 405 H 36.4754 1.13393 -4.01494 0
M  V30 406 H 35.1054 1.40482 -2.90628 0
M  V30 407 H 34.1574 -0.881076 -3.70056 0
M  V30 408 H 35.4694 -0.940759 -4.89848 0
M  V30 409 H 34.6234 1.16522 -5.95405 0
M  V30 410 H 33.3624 1.31146 -4.69736 0
M  V30 411 H 32.3674 -0.874525 -5.428 0
M  V30 412 H 33.5924 -1.00638 -6.71602 0
M  V30 413 H 31.5384 1.22125 -6.44532 0
M  V30 414 H 31.4554 -0.103877 -7.55929 0
M  V30 415 H 32.7234 1.0743 -7.72062 0
M  V30 416 N 36.9525 1.47285 -0.560781 0
M  V30 417 C 38.3685 1.58065 -0.22081 0
M  V30 418 C 38.5685 1.55892 1.27671 0
M  V30 419 O 37.6245 1.46422 2.0571 0
M  V30 420 C 38.9375 2.88418 -0.850625 0
M  V30 421 C 40.4855 3.02009 -0.822184 0
M  V30 422 C 40.9605 4.35066 -1.43113 0
M  V30 423 N 42.4515 4.41711 -1.39448 0
M  V30 424 C 43.1865 5.43237 -1.83525 0
M  V30 425 N 42.6825 6.51555 -2.35474 0
M  V30 426 N 44.4755 5.34304 -1.74574 0
M  V30 427 H 36.6265 1.46941 -1.53369 0
M  V30 428 H 38.8895 0.699558 -0.639783 0
M  V30 429 H 38.5955 2.95755 -1.9032 0
M  V30 430 H 38.4695 3.75612 -0.345773 0
M  V30 431 H 40.8565 2.94266 0.221714 0
M  V30 432 H 40.9375 2.16347 -1.36483 0
M  V30 433 H 40.5815 4.43565 -2.47412 0
M  V30 434 H 40.5115 5.19465 -0.863899 0
M  V30 435 H 43.0025 3.64027 -1.01452 0
M  V30 436 H 43.3155 7.25203 -2.67021 0
M  V30 437 H 41.6605 6.52435 -2.39487 0
M  V30 438 H 44.8515 4.48581 -1.33763 0
M  V30 439 H 45.0245 6.13288 -2.09242 0
M  V30 440 N 38.4306 0.297415 1.54768 0
M  V30 441 C 39.3636 -0.622188 2.19554 0
M  V30 442 C 40.3416 -1.13558 1.16376 0
M  V30 443 O 41.5256 -1.20444 1.45002 0
M  V30 444 C 38.6526 -1.8509 2.83653 0
M  V30 445 C 37.6986 -1.47106 4.00328 0
M  V30 446 S 38.5316 -0.53006 5.3287 0
M  V30 447 C 39.6876 -1.76665 6.0045 0
M  V30 448 H 39.9206 -0.0717806 2.97213 0
M  V30 449 H 37.4536 0.0815678 1.54184 0
M  V30 450 H 39.4116 -2.55605 3.21211 0
M  V30 451 H 38.0726 -2.37247 2.05846 0
M  V30 452 H 37.2656 -2.38594 4.43947 0
M  V30 453 H 36.8676 -0.845885 3.64309 0
M  V30 454 H 39.1596 -2.7077 6.21039 0
M  V30 455 H 40.1026 -1.37308 6.9466 0
M  V30 456 H 40.5106 -1.94174 5.30054 0
M  V30 457 N 39.9087 -1.5758 0.0250728 0
M  V30 458 C 41.1387 -1.95646 -0.663783 0
M  V30 459 C 41.5467 -0.899935 -1.66427 0
M  V30 460 O 40.8897 0.127191 -1.83259 0
M  V30 461 C 40.9517 -3.29835 -1.43 0
M  V30 462 C 40.6157 -4.53197 -0.588305 0
M  V30 463 C 41.6127 -5.19726 0.13469 0
M  V30 464 C 39.2977 -4.99529 -0.526897 0
M  V30 465 C 41.2917 -6.30902 0.90781 0
M  V30 466 C 38.9787 -6.10589 0.24993 0
M  V30 467 C 39.9767 -6.76134 0.965994 0
M  V30 468 O 39.6647 -7.85062 1.7301 0
M  V30 469 H 39.3967 -0.649282 -0.188174 0
M  V30 470 H 41.9507 -2.05245 0.0799006 0
M  V30 471 H 40.1807 -3.16716 -2.21873 0
M  V30 472 H 41.8697 -3.52833 -2.00658 0
M  V30 473 H 42.6357 -4.84904 0.0965562 0
M  V30 474 H 38.5147 -4.48319 -1.07381 0
M  V30 475 H 42.0587 -6.81995 1.46724 0
M  V30 476 H 37.9557 -6.44849 0.289795 0
M  V30 477 H 38.7237 -8.01708 1.64944 0
M  V30 478 N 41.3868 0.248026 -1.55636 0
M  V30 479 C 42.3348 1.32683 -1.91045 0
M  V30 480 C 43.3288 1.49883 -0.789401 0
M  V30 481 O 44.5348 1.51371 -0.974007 0
M  V30 482 H 40.9098 0.444272 -0.606734 0
M  V30 483 H 42.8808 1.00085 -2.81115 0
M  V30 484 C 41.6298 2.6755 -2.22064 0
M  V30 485 H 40.9528 2.55114 -3.07826 0
M  V30 486 H 42.3928 3.41912 -2.50743 0
M  V30 487 C 40.8518 3.20556 -1.0366 0
M  V30 488 O 41.3818 4.00695 -0.284016 0
M  V30 489 N 39.5878 2.78568 -0.82753 0
M  V30 490 H 39.1348 2.1351 -1.44123 0
M  V30 491 H 39.0928 3.14378 -0.0369803 0
M  V30 492 N 42.8649 1.48995 0.513639 0
M  V30 493 C 43.8119 1.6473 1.61656 0
M  V30 494 C 44.7819 0.488984 1.58739 0
M  V30 495 O 45.9669 0.714478 1.76918 0
M  V30 496 C 43.1069 1.7082 2.99858 0
M  V30 497 C 42.2199 2.9787 3.12885 0
M  V30 498 C 41.3549 2.95017 4.41744 0
M  V30 499 C 40.3939 4.16702 4.48359 0
M  V30 500 N 39.5309 4.11832 5.68629 0
M  V30 501 H 44.3709 2.58909 1.47547 0
M  V30 502 H 41.9079 1.28382 0.71808 0
M  V30 503 H 43.8659 1.72331 3.79944 0
M  V30 504 H 42.4959 0.801181 3.12699 0
M  V30 505 H 41.5479 3.06029 2.25944 0
M  V30 506 H 42.8599 3.8786 3.13633 0
M  V30 507 H 42.0139 2.95021 5.30139 0
M  V30 508 H 40.7529 2.02784 4.43542 0
M  V30 509 H 39.7579 4.16955 3.58369 0
M  V30 510 H 40.9829 5.10113 4.48287 0
M  V30 511 H 38.9289 3.22428 5.71293 0
M  V30 512 H 38.8459 4.95543 5.7094 0
M  V30 513 H 40.1139 4.1592 6.59266 0
M  V30 514 N 44.343 -0.763751 1.37857 0
M  V30 515 C 45.253 -1.90817 1.36478 0
M  V30 516 C 46.269 -1.71997 0.263248 0
M  V30 517 O 47.445 -1.95095 0.499979 0
M  V30 518 C 44.51 -3.2605 1.17864 0
M  V30 519 C 43.571 -3.57467 2.3773 0
M  V30 520 C 42.804 -4.86249 2.19995 0
M  V30 521 O 43.027 -5.57884 1.18836 0
M  V30 522 O 41.961 -5.16911 3.08361 0
M  V30 523 H 45.787 -1.94933 2.32884 0
M  V30 524 H 43.372 -0.907619 1.1867 0
M  V30 525 H 45.254 -4.06924 1.09504 0
M  V30 526 H 43.929 -3.22769 0.245372 0
M  V30 527 H 42.836 -2.76796 2.51664 0
M  V30 528 H 44.169 -3.655 3.29652 0
M  V30 529 N 45.8211 -1.22559 -0.990812 0
M  V30 530 C 47.0511 -1.07623 -1.76355 0
M  V30 531 C 47.4591 0.37601 -1.85426 0
M  V30 532 O 46.8021 1.27228 -1.32509 0
M  V30 533 C 46.8641 -1.61507 -3.21179 0
M  V30 534 C 46.5281 -3.10146 -3.35646 0
M  V30 535 C 47.5251 -4.07553 -3.22796 0
M  V30 536 C 45.2101 -3.49644 -3.60631 0
M  V30 537 C 47.2041 -5.42442 -3.34716 0
M  V30 538 C 44.8911 -4.84682 -3.72192 0
M  V30 539 C 45.8891 -5.8089 -3.59243 0
M  V30 540 O 45.5771 -7.13476 -3.70415 0
M  V30 541 H 45.3091 -0.377745 -0.560611 0
M  V30 542 H 47.8631 -1.62658 -1.25425 0
M  V30 543 H 46.0931 -1.00881 -3.73309 0
M  V30 544 H 47.7821 -1.42202 -3.80175 0
M  V30 545 H 48.5481 -3.78381 -3.03403 0
M  V30 546 H 44.4271 -2.75282 -3.69785 0
M  V30 547 H 47.9711 -6.17518 -3.24526 0
M  V30 548 H 43.8681 -5.13534 -3.91092 0
M  V30 549 H 44.6361 -7.21083 -3.87275 0
M  V30 550 N 47.2992 1.18797 -1.03562 0
M  V30 551 C 48.2472 2.24297 -0.615905 0
M  V30 552 C 49.2412 1.65643 0.354808 0
M  V30 553 O 50.4472 1.78618 0.22265 0
M  V30 554 H 46.8222 0.729909 -0.180934 0
M  V30 555 H 48.7932 2.5701 -1.5162 0
M  V30 556 C 47.5422 3.47698 0.0104735 0
M  V30 557 H 46.8652 3.93125 -0.727509 0
M  V30 558 H 48.3052 4.23159 0.266995 0
M  V30 559 C 46.7642 3.12489 1.25905 0
M  V30 560 O 47.2942 3.25761 2.35038 0
M  V30 561 N 45.5002 2.6686 1.15039 0
M  V30 562 H 45.0472 2.56261 0.262328 0
M  V30 563 H 45.0052 2.43674 1.98672 0
M  V30 564 N 48.7773 0.814389 1.34928 0
M  V30 565 C 50.0253 0.397636 1.9815 0
M  V30 566 C 50.3463 -1.04069 1.64908 0
M  V30 567 O 49.6163 -1.72121 0.93548 0
M  V30 568 H 48.1963 0.144043 0.732981 0
M  V30 569 H 50.8583 1.04195 1.6471 0
M  V30 570 H 49.9543 0.509688 3.0791 0
M  V30 571 N 50.2554 -1.46986 0.568584 0
M  V30 572 C 51.2184 -2.28624 -0.162366 0
M  V30 573 C 52.2184 -1.37596 -0.832103 0
M  V30 574 O 53.4084 -1.60115 -0.68622 0
M  V30 575 C 50.5404 -3.17596 -1.23878 0
M  V30 576 H 51.7334 -2.94722 0.554899 0
M  V30 577 H 49.2864 -1.52863 0.325976 0
M  V30 578 H 50.0214 -2.56214 -1.98808 0
M  V30 579 H 49.8064 -3.846 -0.763219 0
M  V30 580 H 51.2964 -3.79078 -1.75185 0
M  V30 581 N 51.7335 -0.305618 -1.54608 0
M  V30 582 C 53.0105 0.355652 -1.92339 0
M  V30 583 C 53.3905 1.71324 -1.23335 0
M  V30 584 O 52.7385 2.25473 -0.370702 0
M  V30 585 C 52.9485 0.46572 -3.45879 0
M  V30 586 C 54.2965 0.734426 -4.182 0
M  V30 587 O 55.3205 0.54935 -3.51938 0
M  V30 588 O 54.1795 1.09024 -5.35515 0
M  V30 589 H 51.2735 0.199666 -0.802535 0
M  V30 590 H 53.8195 -0.354017 -1.65966 0
M  V30 591 H 52.5915 -0.488461 -3.88239 0
M  V30 592 H 52.2145 1.22367 -3.78301 0
M  V30 593 N 53.2116 1.57565 -0.0334293 0
M  V30 594 C 54.4886 1.83282 0.683163 0
M  V30 595 C 54.8686 0.91823 1.90084 0
M  V30 596 O 54.2166 -0.025113 2.28486 0
M  V30 597 C 54.4266 3.32599 1.0573 0
M  V30 598 C 55.7746 3.99179 1.44711 0
M  V30 599 O 56.7986 3.3712 1.15015 0
M  V30 600 O 55.6576 5.08565 2.0006 0
M  V30 601 H 52.7516 0.755869 0.335546 0
M  V30 602 H 55.2976 1.69589 -0.0614402 0
M  V30 603 H 54.0696 3.90834 0.190828 0
M  V30 604 H 53.6926 3.51415 1.85993 0
M  V30 605 N 54.6897 -0.239769 1.55765 0
M  V30 606 C 55.6217 -1.32001 1.87372 0
M  V30 607 C 56.6347 -1.43944 0.760522 0
M  V30 608 O 57.8237 -1.45167 1.0387 0
M  V30 609 C 54.9237 -2.69779 2.05115 0
M  V30 610 C 54.0967 -2.80014 3.36022 0
M  V30 611 C 53.1557 -3.98684 3.4342 0
M  V30 612 O 52.1817 -3.87877 4.16582 0
M  V30 613 N 53.3837 -5.12176 2.73232 0
M  V30 614 H 56.1487 -1.0522 2.80622 0
M  V30 615 H 53.7097 -0.429857 1.56089 0
M  V30 616 H 55.7017 -3.47517 2.07399 0
M  V30 617 H 54.2717 -2.89237 1.18577 0
M  V30 618 H 53.4917 -1.88896 3.45994 0
M  V30 619 H 54.7797 -2.83808 4.22292 0
M  V30 620 H 54.1777 -5.2385 2.13536 0
M  V30 621 H 52.7347 -5.88022 2.81199 0
M  V30 622 N 56.1678 -1.49265 -0.50573 0
M  V30 623 C 57.1178 -1.6198 -1.60457 0
M  V30 624 C 58.1018 -0.47568 -1.53708 0
M  V30 625 O 59.2938 -0.728392 -1.61318 0
M  V30 626 C 56.4228 -1.68526 -2.99089 0
M  V30 627 C 55.5088 -2.885 -3.10852 0
M  V30 628 N 55.8998 -4.12635 -2.92517 0
M  V30 629 C 54.1978 -2.86338 -3.41945 0
M  V30 630 C 54.8988 -4.93258 -3.08337 0
M  V30 631 N 53.8748 -4.26533 -3.37003 0
M  V30 632 H 57.6768 -2.55681 -1.44928 0
M  V30 633 H 55.1908 -1.45972 -0.711752 0
M  V30 634 H 57.1878 -1.75732 -3.78053 0
M  V30 635 H 55.8478 -0.759584 -3.1569 0
M  V30 636 H 56.8588 -4.42689 -2.68787 0
M  V30 637 H 53.5358 -2.03129 -3.64753 0
M  V30 638 H 54.9258 -6.01856 -2.98695 0
M  V30 639 N 57.6459 0.756429 -1.3826 0
M  V30 640 C 59.0619 1.0591 -1.19395 0
M  V30 641 C 59.2619 2.01459 -0.0406567 0
M  V30 642 O 58.3179 2.44909 0.614467 0
M  V30 643 C 59.6309 1.64191 -2.51916 0
M  V30 644 C 61.1789 1.76376 -2.58574 0
M  V30 645 C 61.6539 2.38069 -3.91264 0
M  V30 646 N 63.1449 2.45503 -3.92788 0
M  V30 647 C 63.8799 2.94126 -4.92217 0
M  V30 648 N 63.3759 3.42805 -6.02043 0
M  V30 649 N 65.1689 2.9314 -4.7961 0
M  V30 650 H 57.3199 0.122313 -2.12048 0
M  V30 651 H 59.5829 0.116892 -0.940766 0
M  V30 652 H 59.2889 1.01451 -3.3675 0
M  V30 653 H 59.1629 2.6329 -2.70108 0
M  V30 654 H 61.5499 2.38244 -1.74137 0
M  V30 655 H 61.6309 0.759894 -2.44252 0
M  V30 656 H 61.2749 1.76835 -4.76121 0
M  V30 657 H 61.2049 3.39091 -4.02895 0
M  V30 658 H 63.6959 2.1107 -3.13461 0
M  V30 659 H 64.0089 3.78354 -6.73846 0
M  V30 660 H 62.3539 3.4087 -6.05667 0
M  V30 661 H 65.5449 2.54419 -3.92923 0
M  V30 662 H 65.7179 3.30721 -5.5725 0
M  V30 663 N 59.124 1.23083 0.984299 0
M  V30 664 C 60.54 0.992637 1.24975 0
M  V30 665 C 60.74 -0.308618 1.99123 0
M  V30 666 O 59.796 -1.02905 2.30579 0
M  V30 667 C 61.109 2.19698 2.05312 0
M  V30 668 C 62.657 2.24147 2.18465 0
M  V30 669 C 63.132 3.44157 3.02192 0
M  V30 670 N 64.623 3.44372 3.09777 0
M  V30 671 C 65.358 4.33886 3.74874 0
M  V30 672 N 64.854 5.3363 4.41827 0
M  V30 673 N 66.647 4.21639 3.71721 0
M  V30 674 H 58.798 2.06731 0.487453 0
M  V30 675 H 61.061 0.906339 0.277944 0
M  V30 676 H 60.767 3.1411 1.58201 0
M  V30 677 H 60.641 2.20465 3.06064 0
M  V30 678 H 63.028 1.30277 2.64786 0
M  V30 679 H 63.109 2.27415 1.17115 0
M  V30 680 H 62.753 4.38332 2.56568 0
M  V30 681 H 62.683 3.3813 4.03702 0
M  V30 682 H 65.174 2.72201 2.62135 0
M  V30 683 H 65.487 5.98196 4.89266 0
M  V30 684 H 63.832 5.37534 4.40548 0
M  V30 685 H 67.023 3.42962 3.18582 0
M  V30 686 H 67.196 4.91604 4.22173 0
M  V30 687 N 60.6021 -1.18246 1.0419 0
M  V30 688 C 61.5501 -2.23968 0.627792 0
M  V30 689 C 62.5441 -1.65828 -0.346019 0
M  V30 690 O 63.7501 -1.78733 -0.213175 0
M  V30 691 H 60.1251 -0.728939 0.184802 0
M  V30 692 H 62.0961 -2.56202 1.52981 0
M  V30 693 C 60.8451 -3.47699 0.00796591 0
M  V30 694 H 60.1681 -3.92734 0.748347 0
M  V30 695 H 61.6081 -4.23294 -0.24455 0
M  V30 696 C 60.0671 -3.13153 -1.24246 0
M  V30 697 O 60.5971 -3.27003 -2.33307 0
M  V30 698 N 58.8031 -2.67467 -1.13622 0
M  V30 699 H 58.3501 -2.56396 -0.248734 0
M  V30 700 H 58.3081 -2.44724 -1.97377 0
M  V30 701 N 62.0802 -0.821533 -1.34494 0
M  V30 702 C 63.3292 -0.405355 -1.97585 0
M  V30 703 C 63.6422 1.03677 -1.65863 0
M  V30 704 O 64.8482 1.55679 -2.22433 0
M  V30 705 C 63.3042 -0.673861 -3.53535 0
M  V30 706 C 62.9122 -2.12951 -3.94152 0
M  V30 707 C 64.6562 -0.32378 -4.23263 0
M  V30 708 C 62.5632 -2.34298 -5.43009 0
M  V30 709 H 61.4932 -0.147836 -0.739365 0
M  V30 710 H 64.1442 -1.00769 -1.53355 0
M  V30 711 H 62.5262 -0.00137554 -3.96 0
M  V30 712 H 63.7002 -2.84104 -3.62797 0
M  V30 713 H 62.0152 -2.44089 -3.37356 0
M  V30 714 H 64.6122 -0.461126 -5.32708 0
M  V30 715 H 64.9552 0.731586 -4.09821 0
M  V30 716 H 65.4882 -0.950786 -3.8627 0
M  V30 717 H 62.2272 -3.38335 -5.61435 0
M  V30 718 H 61.7472 -1.67687 -5.75883 0
M  V30 719 H 63.4262 -2.16588 -6.09671 0
M  V30 720 N 63.5583 1.46682 -0.576371 0
M  V30 721 C 64.8043 2.03287 -0.0679305 0
M  V30 722 C 65.1593 1.44063 1.27529 0
M  V30 723 O 64.4523 0.593973 1.82161 0
M  V30 724 C 64.6463 3.57345 0.062886 0
M  V30 725 C 64.4753 4.31509 -1.26611 0
M  V30 726 C 63.2453 4.70664 -1.83856 0
M  V30 727 C 65.4433 4.65444 -2.18783 0
M  V30 728 N 63.4253 5.29552 -3.10561 0
M  V30 729 C 64.7963 5.24835 -3.30072 0
M  V30 730 C 66.8513 4.47375 -2.18542 0
M  V30 731 C 65.5543 5.68063 -4.41244 0
M  V30 732 C 67.5803 4.91614 -3.28739 0
M  V30 733 C 66.9423 5.51071 -4.38748 0
M  V30 734 H 63.0413 0.779083 -0.0674836 0
M  V30 735 H 65.6253 1.78918 -0.767877 0
M  V30 736 H 63.7963 3.8144 0.731988 0
M  V30 737 H 65.5283 4.00592 0.575134 0
M  V30 738 H 62.2833 4.53224 -1.37424 0
M  V30 739 H 62.7073 5.63523 -3.75195 0
M  V30 740 H 67.3493 4.00747 -1.34765 0
M  V30 741 H 65.0673 6.13672 -5.25768 0
M  V30 742 H 68.6533 4.79389 -3.29662 0
M  V30 743 H 67.5333 5.84678 -5.22611 0
M  V30 744 N 65.0364 0.313813 1.54444 0
M  V30 745 C 65.9464 -0.565714 2.27677 0
M  V30 746 C 66.9624 -1.13754 1.31666 0
M  V30 747 O 68.1384 -1.15959 1.64668 0
M  V30 748 C 65.2034 -1.71528 3.01296 0
M  V30 749 C 64.2644 -1.17624 4.12872 0
M  V30 750 C 63.4974 -2.27102 4.8297 0
M  V30 751 O 63.7204 -3.47256 4.52514 0
M  V30 752 O 62.6544 -1.9307 5.70094 0
M  V30 753 H 66.4804 0.0287296 3.03686 0
M  V30 754 H 64.0654 0.0798312 1.49187 0
M  V30 755 H 65.9474 -2.38476 3.4743 0
M  V30 756 H 64.6224 -2.29608 2.2817 0
M  V30 757 H 63.5294 -0.472124 3.71109 0
M  V30 758 H 64.8624 -0.640695 4.88012 0
M  V30 759 N 66.5145 -1.57545 0.0417849 0
M  V30 760 C 67.4615 -2.10977 -0.935805 0
M  V30 761 C 68.4315 -1.01486 -1.31491 0
M  V30 762 O 69.6165 -1.2898 -1.40602 0
M  V30 763 C 66.7565 -2.65169 -2.2086 0
M  V30 764 C 65.8695 -3.88714 -1.88482 0
M  V30 765 C 65.0045 -4.31254 -3.1015 0
M  V30 766 C 64.0435 -5.47524 -2.7365 0
M  V30 767 N 63.1805 -5.85162 -3.87982 0
M  V30 768 H 68.0205 -2.94218 -0.473249 0
M  V30 769 H 65.5575 -1.45415 -0.221981 0
M  V30 770 H 67.5155 -2.94685 -2.95325 0
M  V30 771 H 66.1455 -1.8474 -2.64709 0
M  V30 772 H 65.1975 -3.65849 -1.04205 0
M  V30 773 H 66.5095 -4.73245 -1.57608 0
M  V30 774 H 65.6635 -4.62273 -3.92923 0
M  V30 775 H 64.4025 -3.45516 -3.44195 0
M  V30 776 H 63.4075 -5.16187 -1.89291 0
M  V30 777 H 64.6325 -6.34971 -2.40807 0
M  V30 778 H 62.5785 -5.02377 -4.21846 0
M  V30 779 H 62.4955 -6.64362 -3.60775 0
M  V30 780 H 63.7635 -6.20791 -4.71422 0
M  V30 781 N 67.9926 0.231505 -1.5589 0
M  V30 782 C 68.9406 1.30649 -1.92441 0
M  V30 783 C 69.9346 1.49037 -0.805254 0
M  V30 784 O 71.1406 1.50329 -0.990007 0
M  V30 785 H 67.5156 0.437812 -0.611412 0
M  V30 786 H 69.4866 0.970973 -2.82161 0
M  V30 787 C 68.2356 2.65179 -2.24889 0
M  V30 788 H 67.5586 2.51835 -3.10514 0
M  V30 789 H 68.9986 3.39234 -2.54355 0
M  V30 790 C 67.4576 3.19439 -1.07054 0
M  V30 791 O 67.9876 4.00371 -0.326499 0
M  V30 792 N 66.1936 2.77675 -0.85703 0
M  V30 793 H 65.7406 2.11969 -1.46379 0
M  V30 794 H 65.6986 3.14321 -0.0703223 0
M  V30 795 N 69.4707 1.49531 0.497807 0
M  V30 796 C 70.7167 1.59415 1.25358 0
M  V30 797 C 71.0497 0.281422 1.9215 0
M  V30 798 O 70.3247 -0.715249 1.80871 0
M  V30 799 C 70.6077 2.75566 2.3181 0
M  V30 800 C 70.4607 4.16642 1.69498 0
M  V30 801 C 71.7797 2.87347 3.33346 0
M  V30 802 H 68.8987 0.580244 0.454408 0
M  V30 803 H 71.5407 1.81827 0.551262 0
M  V30 804 H 69.6907 2.56587 2.91711 0
M  V30 805 H 71.3627 4.47145 1.13399 0
M  V30 806 H 69.6057 4.22141 0.998978 0
M  V30 807 H 70.2767 4.93792 2.46725 0
M  V30 808 H 72.7527 3.04634 2.83438 0
M  V30 809 H 71.6287 3.70289 4.05188 0
M  V30 810 H 71.8897 1.96834 3.95865 0
M  V30 811 N 70.9488 -0.749086 1.3866 0
M  V30 812 C 71.8958 -1.86291 1.36251 0
M  V30 813 C 72.8658 -1.64578 0.224347 0
M  V30 814 O 74.0508 -1.86181 0.417279 0
M  V30 815 C 71.1908 -3.23644 1.19786 0
M  V30 816 C 70.3038 -3.57158 2.43027 0
M  V30 817 C 69.4388 -4.83838 2.19258 0
M  V30 818 C 68.4778 -5.10152 3.38247 0
M  V30 819 N 67.6148 -6.28029 3.13884 0
M  V30 820 H 72.4548 -1.87685 2.3147 0
M  V30 821 H 69.9918 -0.917287 1.14997 0
M  V30 822 H 71.9498 -4.0291 1.08254 0
M  V30 823 H 70.5798 -3.21566 0.282031 0
M  V30 824 H 69.6318 -2.72701 2.65214 0
M  V30 825 H 70.9438 -3.7253 3.31697 0
M  V30 826 H 70.0978 -5.71057 2.04888 0
M  V30 827 H 68.8368 -4.70614 1.2796 0
M  V30 828 H 67.8418 -4.21401 3.53131 0
M  V30 829 H 69.0668 -5.25271 4.30427 0
M  V30 830 H 67.0128 -6.1612 2.25238 0
M  V30 831 H 66.9298 -6.43922 3.96106 0
M  V30 832 H 68.1978 -7.18124 3.03179 0
M  V30 833 N 72.4269 -1.23603 -0.977757 0
M  V30 834 C 73.3769 -0.986664 -2.05545 0
M  V30 835 C 74.3609 0.0683009 -1.60755 0
M  V30 836 O 75.5529 -0.144162 -1.76412 0
M  V30 837 C 72.6819 -0.582623 -3.3832 0
M  V30 838 C 71.7679 -1.67313 -3.89701 0
M  V30 839 N 72.1589 -2.90394 -4.14132 0
M  V30 840 C 70.4569 -1.54832 -4.18262 0
M  V30 841 C 71.1579 -3.61017 -4.56116 0
M  V30 842 N 70.1339 -2.8854 -4.60701 0
M  V30 843 H 73.9359 -1.92139 -2.22396 0
M  V30 844 H 71.4499 -1.1358 -1.16074 0
M  V30 845 H 73.4469 -0.38524 -4.15116 0
M  V30 846 H 72.1069 0.34503 -3.22862 0
M  V30 847 H 73.1179 -3.26673 -4.01877 0
M  V30 848 H 69.7949 -0.687969 -4.11793 0
M  V30 849 H 71.1849 -4.66544 -4.83514 0
M  V30 850 N 73.905 1.17692 -1.04816 0
M  V30 851 C 75.154 1.87192 -0.751132 0
M  V30 852 C 75.467 1.8169 0.724441 0
M  V30 853 O 76.673 2.46625 1.13527 0
M  V30 854 C 75.129 3.35857 -1.29338 0
M  V30 855 C 74.737 3.4987 -2.79812 0
M  V30 856 C 76.481 4.10709 -1.07322 0
M  V30 857 C 74.388 4.92536 -3.27356 0
M  V30 858 H 73.318 0.701162 -0.277288 0
M  V30 859 H 75.969 1.32932 -1.26496 0
M  V30 860 H 74.351 3.89631 -0.707376 0
M  V30 861 H 75.525 3.06332 -3.44235 0
M  V30 862 H 73.84 2.88433 -3.00325 0
M  V30 863 H 76.437 5.15952 -1.4035 0
M  V30 864 H 76.78 4.16299 -0.0108001 0
M  V30 865 H 77.313 3.6313 -1.62423 0
M  V30 866 H 74.052 4.92119 -4.33012 0
M  V30 867 H 73.572 5.3676 -2.67673 0
M  V30 868 H 75.251 5.61288 -3.21815 0
M  V30 869 N 75.3831 0.828654 1.34056 0
M  V30 870 C 76.3151 0.212052 2.28217 0
M  V30 871 C 77.3281 -0.601362 1.51286 0
M  V30 872 O 78.5171 -0.430104 1.73241 0
M  V30 873 C 75.6171 -0.72088 3.31144 0
M  V30 874 C 74.7901 0.0509587 4.3737 0
M  V30 875 C 73.8491 -0.803766 5.20025 0
M  V30 876 O 72.8751 -0.246667 5.68665 0
M  V30 877 N 74.0771 -2.1227 5.40298 0
M  V30 878 H 76.8421 1.02105 2.81771 0
M  V30 879 H 74.4031 0.686153 1.46641 0
M  V30 880 H 76.3951 -1.29742 3.8334 0
M  V30 881 H 74.9651 -1.43061 2.77943 0
M  V30 882 H 74.1851 0.808831 3.85813 0
M  V30 883 H 75.4731 0.582065 5.0546 0
M  V30 884 H 74.8711 -2.59898 5.02464 0
M  V30 885 H 73.4281 -2.64796 5.95589 0
M  V30 886 N 76.8612 -1.46375 0.584142 0
M  V30 887 C 77.7712 -2.34115 -0.150728 0
M  V30 888 C 78.7872 -1.49838 -0.884567 0
M  V30 889 O 79.9632 -1.82704 -0.847429 0
M  V30 890 C 77.0282 -3.2705 -1.15062 0
M  V30 891 C 76.0892 -4.27228 -0.421293 0
M  V30 892 C 75.3222 -5.15722 -1.37355 0
M  V30 893 O 75.5452 -5.07176 -2.61014 0
M  V30 894 O 74.4792 -5.95383 -0.883355 0
M  V30 895 H 78.3052 -2.98309 0.569708 0
M  V30 896 H 75.8902 -1.45373 0.344535 0
M  V30 897 H 77.7722 -3.84381 -1.72712 0
M  V30 898 H 76.4472 -2.65451 -1.8525 0
M  V30 899 H 75.3542 -3.7358 0.197085 0
M  V30 900 H 76.6872 -4.91616 0.239641 0
M  V30 901 N 78.3393 -0.321999 -1.54275 0
M  V30 902 C 79.2893 0.560185 -2.21011 0
M  V30 903 C 80.2733 1.08283 -1.19011 0
M  V30 904 O 81.4653 1.02011 -1.44647 0
M  V30 905 C 78.5943 1.72137 -2.97025 0
M  V30 906 C 77.6803 1.21369 -4.06363 0
M  V30 907 N 78.0713 0.425566 -5.04007 0
M  V30 908 C 76.3693 1.49255 -4.20284 0
M  V30 909 C 77.0703 0.152601 -5.815 0
M  V30 910 N 76.0463 0.738294 -5.38563 0
M  V30 911 H 79.8483 -0.049265 -2.93859 0
M  V30 912 H 77.3623 -0.127779 -1.61897 0
M  V30 913 H 79.3593 2.36512 -3.43319 0
M  V30 914 H 78.0193 2.33431 -2.25699 0
M  V30 915 H 79.0303 0.068551 -5.17855 0
M  V30 916 H 75.7073 2.11145 -3.60172 0
M  V30 917 H 77.0973 -0.481764 -6.70171 0
M  V30 918 N 79.8174 1.5752 -0.0501392 0
M  V30 919 C 80.7654 2.12651 0.942459 0
M  V30 920 C 81.7594 1.05807 1.32292 0
M  V30 921 O 82.9654 1.24217 1.3027 0
M  V30 922 H 79.3404 0.679673 0.321789 0
M  V30 923 H 81.3114 2.94951 0.452356 0
M  V30 924 C 80.0604 2.68565 2.20836 0
M  V30 925 H 79.3834 3.50439 1.92439 0
M  V30 926 H 80.8234 3.10761 2.8845 0
M  V30 927 C 79.2824 1.62291 2.95234 0
M  V30 928 O 79.8124 1.03508 3.88135 0
M  V30 929 N 78.0184 1.33836 2.57946 0
M  V30 930 H 77.5654 1.81826 1.82475 0
M  V30 931 H 77.5234 0.629595 3.08032 0
M  V30 932 N 81.2955 -0.223234 1.56011 0
M  V30 933 C 82.2255 -1.27988 1.95298 0
M  V30 934 C 83.2065 -1.48976 0.820979 0
M  V30 935 O 84.3915 -1.61188 1.08315 0
M  V30 936 C 81.5215 -2.63 2.26822 0
M  V30 937 C 80.4755 -2.56671 3.42497 0
M  V30 938 C 79.8015 -3.95697 3.59622 0
M  V30 939 C 81.1015 -2.11601 4.77517 0
M  V30 940 H 82.7955 -0.953525 2.8381 0
M  V30 941 H 80.3415 -0.457244 1.36548 0
M  V30 942 H 82.2945 -3.37077 2.52898 0
M  V30 943 H 81.0185 -2.9732 1.35161 0
M  V30 944 H 79.6775 -1.85051 3.16467 0
M  V30 945 H 79.3255 -4.27322 2.6534 0
M  V30 946 H 79.0255 -3.92345 4.37424 0
M  V30 947 H 80.5495 -4.71438 3.88044 0
M  V30 948 H 81.9635 -2.7542 5.02809 0
M  V30 949 H 80.3605 -2.19311 5.5859 0
M  V30 950 H 81.4305 -1.06824 4.72987 0
M  V30 951 N 82.7736 -1.49793 -0.48987 0
M  V30 952 C 84.1896 -1.36803 -0.822022 0
M  V30 953 C 84.3896 -0.409652 -1.97292 0
M  V30 954 O 83.4456 0.154614 -2.52026 0
M  V30 955 C 84.7586 -2.77768 -1.15175 0
M  V30 956 C 86.3066 -2.86549 -1.25931 0
M  V30 957 C 86.7816 -4.28306 -1.62228 0
M  V30 958 N 88.2726 -4.31169 -1.69256 0
M  V30 959 C 89.0076 -5.37832 -1.98807 0
M  V30 960 N 88.5036 -6.54726 -2.26507 0
M  V30 961 N 90.2966 -5.25258 -2.00152 0
M  V30 962 H 82.4476 -2.10691 0.268881 0
M  V30 963 H 84.7106 -0.946241 0.057728 0
M  V30 964 H 84.4166 -3.49648 -0.379335 0
M  V30 965 H 84.2906 -3.13836 -2.09253 0
M  V30 966 H 86.6776 -2.14899 -2.02243 0
M  V30 967 H 86.7586 -2.54049 -0.298776 0
M  V30 968 H 86.4026 -5.00486 -0.864622 0
M  V30 969 H 86.3326 -4.58279 -2.594 0
M  V30 970 H 88.8236 -3.4687 -1.49965 0
M  V30 971 H 89.1366 -7.31833 -2.48276 0
M  V30 972 H 87.4816 -6.57933 -2.23939 0
M  V30 973 H 90.6726 -4.32938 -1.77996 0
M  V30 974 H 90.8456 -6.08476 -2.22848 0
M  V30 975 N 84.2517 0.741722 -1.39055 0
M  V30 976 C 85.2017 1.84661 -1.33732 0
M  V30 977 C 86.1857 1.59397 -0.219401 0
M  V30 978 O 87.3777 1.71015 -0.456375 0
M  V30 979 C 84.5067 3.22512 -1.17647 0
M  V30 980 C 83.5927 3.53628 -2.34112 0
M  V30 981 N 83.9837 3.55723 -3.59576 0
M  V30 982 C 82.2817 3.83956 -2.26923 0
M  V30 983 C 82.9827 3.84443 -4.36553 0
M  V30 984 N 81.9587 4.01877 -3.66055 0
M  V30 985 H 85.7607 1.84576 -2.28711 0
M  V30 986 H 83.2747 0.939647 -1.32455 0
M  V30 987 H 85.2717 4.01597 -1.11917 0
M  V30 988 H 83.9317 3.2384 -0.236124 0
M  V30 989 H 84.9427 3.37196 -3.93089 0
M  V30 990 H 81.6197 3.92929 -1.41113 0
M  V30 991 H 83.0097 3.92588 -5.45274 0
M  V30 992 N 85.7298 1.2412 0.971189 0
M  V30 993 C 87.0068 0.986867 1.6888 0
M  V30 994 C 87.3868 -0.491857 2.0529 0
M  V30 995 O 86.7348 -1.46531 1.75331 0
M  V30 996 C 86.9448 1.9063 2.92338 0
M  V30 997 C 88.2928 2.17515 3.64654 0
M  V30 998 O 89.3168 1.88254 3.02388 0
M  V30 999 O 88.1758 2.6719 4.7673 0
M  V30 1000 H 85.2698 0.372944 0.738134 0
M  V30 1001 H 87.8158 1.35203 1.02559 0
M  V30 1002 H 86.5878 2.90552 2.62097 0
M  V30 1003 H 86.2108 1.54408 3.66393 0
M  V30 1004 N 87.2079 -1.17134 1.05439 0
M  V30 1005 C 88.1379 -2.2342 0.678649 0
M  V30 1006 C 89.1189 -1.66971 -0.32476 0
M  V30 1007 O 90.3039 -1.93149 -0.201802 0
M  V30 1008 C 87.4339 -3.47256 0.0552099 0
M  V30 1009 C 86.3879 -4.16543 0.98365 0
M  V30 1010 C 85.7139 -5.34231 0.223961 0
M  V30 1011 C 87.0139 -4.68495 2.3089 0
M  V30 1012 H 88.7079 -2.55105 1.56722 0
M  V30 1013 H 86.2539 -1.2262 0.754998 0
M  V30 1014 H 88.2069 -4.20828 -0.21946 0
M  V30 1015 H 86.9309 -3.14846 -0.868319 0
M  V30 1016 H 85.5899 -3.44887 1.24293 0
M  V30 1017 H 85.2379 -4.98071 -0.702412 0
M  V30 1018 H 84.9379 -5.81527 0.842627 0
M  V30 1019 H 86.4619 -6.10585 -0.0433671 0
M  V30 1020 H 87.8759 -5.33691 2.09396 0
M  V30 1021 H 86.2729 -5.26379 2.88176 0
M  V30 1022 H 87.3429 -3.85169 2.94572 0
M  V30 1023 N 88.686 -0.835752 -1.33615 0
M  V30 1024 C 89.934 -0.429109 -1.97492 0
M  V30 1025 C 90.255 1.01433 -1.66543 0
M  V30 1026 O 89.525 1.70611 -0.962744 0
M  V30 1027 H 88.105 -0.155686 -0.730596 0
M  V30 1028 H 90.767 -1.06802 -1.63031 0
M  V30 1029 H 89.863 -0.55861 -3.0706 0
M  V30 1030 N 90.1641 1.46063 -0.591896 0
M  V30 1031 C 91.0941 2.33172 0.123673 0
M  V30 1032 C 92.0751 1.45897 0.87453 0
M  V30 1033 O 93.2601 1.74698 0.848181 0
M  V30 1034 C 90.3901 3.28336 1.13194 0
M  V30 1035 C 89.3441 4.25124 0.495324 0
M  V30 1036 C 88.6701 5.09863 1.61071 0
M  V30 1037 C 89.9701 5.19143 -0.573425 0
M  V30 1038 H 91.6641 2.93252 -0.603646 0
M  V30 1039 H 89.2101 1.41014 -0.291741 0
M  V30 1040 H 91.1631 3.88137 1.64097 0
M  V30 1041 H 89.8871 2.66383 1.88965 0
M  V30 1042 H 88.5461 3.66599 0.00729452 0
M  V30 1043 H 88.1941 4.44288 2.35832 0
M  V30 1044 H 87.8941 5.75417 1.19035 0
M  V30 1045 H 89.4181 5.72529 2.12233 0
M  V30 1046 H 90.8321 5.73106 -0.1491 0
M  V30 1047 H 89.2291 5.93089 -0.914636 0
M  V30 1048 H 90.2991 4.62519 -1.45617 0
M  V30 1049 N 91.6422 0.330177 1.54103 0
M  V30 1050 C 92.8882 -0.270806 2.00984 0
M  V30 1051 C 93.2212 -1.51265 1.21789 0
M  V30 1052 O 92.4962 -1.92142 0.301927 0
M  V30 1053 C 92.7792 -0.598339 3.55094 0
M  V30 1054 C 92.6322 0.654674 4.4501 0
M  V30 1055 C 93.9512 -1.41334 4.16789 0
M  V30 1056 H 91.0702 -0.0969531 0.730595 0
M  V30 1057 H 93.7122 0.448066 1.84641 0
M  V30 1058 H 91.8622 -1.21078 3.69151 0
M  V30 1059 H 93.5342 1.29285 4.42813 0
M  V30 1060 H 91.7772 1.28224 4.14416 0
M  V30 1061 H 92.4482 0.380944 5.50684 0
M  V30 1062 H 94.9242 -0.895597 4.06347 0
M  V30 1063 H 93.8002 -1.61127 5.24718 0
M  V30 1064 H 94.0612 -2.41146 3.70541 0
M  V30 1065 N 93.1203 -1.57491 0.0584922 0
M  V30 1066 C 94.3483 -1.97296 -0.623037 0
M  V30 1067 C 94.7633 -0.936338 -1.63946 0
M  V30 1068 O 94.1203 0.0785981 -1.82331 0
M  V30 1069 C 94.1713 -3.37183 -1.30345 0
M  V30 1070 O 93.8923 -4.36872 -0.32773 0
M  V30 1071 C 95.3933 -3.91788 -2.07406 0
M  V30 1072 H 92.6133 -0.649153 -0.169826 0
M  V30 1073 H 95.1573 -2.04106 0.12696 0
M  V30 1074 H 93.3123 -3.31502 -2.00463 0
M  V30 1075 H 93.7263 -5.18141 -0.814269 0
M  V30 1076 H 95.2003 -4.91926 -2.50425 0
M  V30 1077 H 95.6773 -3.27609 -2.92521 0
M  V30 1078 H 96.2833 -4.00829 -1.42184 0
M  V30 1079 N 94.5984 0.214957 -1.56127 0
M  V30 1080 C 95.8284 0.953707 -1.8327 0
M  V30 1081 C 96.2364 1.78181 -0.636262 0
M  V30 1082 O 95.5794 1.79191 0.404516 0
M  V30 1083 C 95.6414 1.91516 -3.0424 0
M  V30 1084 C 95.3054 1.27094 -4.38972 0
M  V30 1085 C 96.3024 0.657575 -5.15725 0
M  V30 1086 C 93.9874 1.28073 -4.85698 0
M  V30 1087 C 95.9814 0.0625968 -6.37369 0
M  V30 1088 C 93.6684 0.681914 -6.07283 0
M  V30 1089 C 94.6664 0.0739046 -6.8296 0
M  V30 1090 O 94.3544 -0.515582 -8.02245 0
M  V30 1091 H 94.0864 0.284764 -0.613095 0
M  V30 1092 H 96.6404 0.233283 -2.04071 0
M  V30 1093 H 94.8704 2.67475 -2.79274 0
M  V30 1094 H 96.5594 2.52001 -3.18198 0
M  V30 1095 H 97.3254 0.642288 -4.80728 0
M  V30 1096 H 93.2044 1.74337 -4.26764 0
M  V30 1097 H 96.7484 -0.412593 -6.96379 0
M  V30 1098 H 92.6454 0.694636 -6.41752 0
M  V30 1099 H 93.4134 -0.410544 -8.1747 0
M  V30 1100 N 96.0765 1.50051 0.48192 0
M  V30 1101 C 97.3045 1.64237 1.25832 0
M  V30 1102 C 97.7195 0.321336 1.86045 0
M  V30 1103 O 97.0765 -0.695478 1.68729 0
M  V30 1104 C 97.1275 2.72548 2.37487 0
M  V30 1105 O 96.8485 3.99529 1.79745 0
M  V30 1106 C 98.3495 2.9761 3.28547 0
M  V30 1107 H 95.5695 0.55237 0.380957 0
M  V30 1108 H 98.1135 1.96207 0.576467 0
M  V30 1109 H 96.2685 2.43303 3.01467 0
M  V30 1110 H 96.6825 4.59342 2.5319 0
M  V30 1111 H 98.1565 3.77084 4.03127 0
M  V30 1112 H 98.6335 2.0826 3.86684 0
M  V30 1113 H 99.2395 3.28345 2.70314 0
M  V30 1114 N 97.5546 -0.734337 1.39446 0
M  V30 1115 C 98.4846 -1.86155 1.40955 0
M  V30 1116 C 99.4656 -1.67898 0.272827 0
M  V30 1117 O 100.651 -1.88207 0.478743 0
M  V30 1118 C 97.7806 -3.23912 1.25294 0
M  V30 1119 C 96.7346 -3.56808 2.36373 0
M  V30 1120 C 96.0606 -4.93508 2.058 0
M  V30 1121 C 97.3606 -3.59713 3.78687 0
M  V30 1122 H 99.0546 -1.8515 2.35287 0
M  V30 1123 H 96.6006 -0.889367 1.13253 0
M  V30 1124 H 98.5536 -4.02443 1.2497 0
M  V30 1125 H 97.2776 -3.25446 0.274308 0
M  V30 1126 H 95.9366 -2.80606 2.35914 0
M  V30 1127 H 95.5846 -4.91623 1.06374 0
M  V30 1128 H 95.2846 -5.16486 2.80208 0
M  V30 1129 H 96.8086 -5.74396 2.07128 0
M  V30 1130 H 98.2226 -4.2832 3.81071 0
M  V30 1131 H 96.6196 -3.94209 4.52459 0
M  V30 1132 H 97.6896 -2.59504 4.09617 0
M  V30 1133 N 99.0327 -1.24633 -0.964593 0
M  V30 1134 C 100.281 -1.08573 -1.70459 0
M  V30 1135 C 100.602 0.375655 -1.91347 0
M  V30 1136 O 99.8717 1.26779 -1.49345 0
M  V30 1137 H 98.4517 -0.398784 -0.631649 0
M  V30 1138 H 101.114 -1.56601 -1.16026 0
M  V30 1139 H 100.21 -1.58623 -2.68785 0
M  V30 1140 N 100.511 1.16574 -1.06058 0
M  V30 1141 C 101.441 2.23057 -0.690488 0
M  V30 1142 C 102.422 1.67141 0.315901 0
M  V30 1143 O 103.607 1.93253 0.191556 0
M  V30 1144 C 100.737 3.47222 -0.073625 0
M  V30 1145 C 99.6908 4.16016 -1.00573 0
M  V30 1146 C 99.0168 5.34104 -0.252289 0
M  V30 1147 C 100.317 4.67264 -2.33371 0
M  V30 1148 H 102.011 2.54271 -1.58072 0
M  V30 1149 H 99.5568 1.22218 -0.76149 0
M  V30 1150 H 101.51 4.20939 0.19714 0
M  V30 1151 H 100.234 3.15302 0.85161 0
M  V30 1152 H 98.8928 3.44223 -1.2612 0
M  V30 1153 H 98.5408 4.98437 0.675988 0
M  V30 1154 H 98.2408 5.81072 -0.873455 0
M  V30 1155 H 99.7648 6.10599 0.0109857 0
M  V30 1156 H 101.179 5.32573 -2.12223 0
M  V30 1157 H 99.5758 5.24843 -2.90963 0
M  V30 1158 H 100.646 3.83602 -2.96611 0
M  V30 1159 N 101.989 0.842826 1.3317 0
M  V30 1160 C 102.937 0.267495 2.31057 0
M  V30 1161 C 103.931 -0.602682 1.58316 0
M  V30 1162 O 105.137 -0.491803 1.73151 0
M  V30 1163 H 101.512 0.0677813 0.748939 0
M  V30 1164 H 103.483 1.10754 2.77085 0
M  V30 1165 C 102.232 -0.539331 3.43492 0
M  V30 1166 H 101.555 0.12095 3.99617 0
M  V30 1167 H 102.995 -0.90767 4.14171 0
M  V30 1168 C 101.454 -1.71981 2.89697 0
M  V30 1169 O 101.984 -2.81862 2.86211 0
M  V30 1170 N 100.19 -1.54299 2.46252 0
M  V30 1171 H 99.7369 -0.649143 2.49287 0
M  V30 1172 H 99.6949 -2.33431 2.10612 0
M  V30 1173 N 103.467 -1.45747 0.599634 0
M  V30 1174 C 104.399 -2.28628 -0.161879 0
M  V30 1175 C 105.412 -1.39494 -0.839367 0
M  V30 1176 O 106.601 -1.63941 -0.706089 0
M  V30 1177 C 103.701 -3.15014 -1.24976 0
M  V30 1178 C 102.874 -4.32378 -0.660935 0
M  V30 1179 C 101.933 -5.00033 -1.63869 0
M  V30 1180 O 100.959 -5.57085 -1.1681 0
M  V30 1181 N 102.161 -4.98589 -2.97303 0
M  V30 1182 H 104.926 -2.94624 0.549265 0
M  V30 1183 H 102.487 -1.55847 0.438565 0
M  V30 1184 H 104.479 -3.5714 -1.9035 0
M  V30 1185 H 103.049 -2.5098 -1.86354 0
M  V30 1186 H 102.269 -3.9383 0.170688 0
M  V30 1187 H 103.557 -5.08197 -0.247619 0
M  V30 1188 H 102.955 -4.53514 -3.38145 0
M  V30 1189 H 101.512 -5.44603 -3.58121 0
M  V30 1190 N 104.945 -0.338344 -1.53925 0
M  V30 1191 C 106.192 0.259758 -2.00827 0
M  V30 1192 C 106.52 1.50973 -1.22628 0
M  V30 1193 O 105.775 1.93379 -0.300509 0
M  V30 1194 C 106.074 0.62448 -3.51902 0
M  V30 1195 C 105.74 -0.528006 -4.47798 0
M  V30 1196 C 104.402 -0.844298 -4.73735 0
M  V30 1197 C 106.754 -1.30143 -5.0469 0
M  V30 1198 C 104.082 -1.93648 -5.53821 0
M  V30 1199 C 106.434 -2.38382 -5.85967 0
M  V30 1200 C 105.098 -2.70576 -6.10201 0
M  V30 1201 H 104.368 0.0950523 -0.734878 0
M  V30 1202 H 107.015 -0.465182 -1.85764 0
M  V30 1203 H 105.32 1.43006 -3.64769 0
M  V30 1204 H 107.017 1.09905 -3.85645 0
M  V30 1205 H 103.607 -0.271421 -4.2774 0
M  V30 1206 H 107.791 -1.07033 -4.84621 0
M  V30 1207 H 103.047 -2.19021 -5.70824 0
M  V30 1208 H 107.221 -2.98746 -6.29066 0
M  V30 1209 H 104.848 -3.55333 -6.72044 0
M  V30 1210 N 106.423 1.57458 -0.0668435 0
M  V30 1211 C 107.651 1.97624 0.612565 0
M  V30 1212 C 108.066 0.94502 1.63447 0
M  V30 1213 O 107.423 -0.0689276 1.8237 0
M  V30 1214 C 107.474 3.37869 1.28555 0
M  V30 1215 O 107.195 4.3704 0.304557 0
M  V30 1216 C 108.696 3.92882 2.05325 0
M  V30 1217 H 105.916 0.650045 0.166381 0
M  V30 1218 H 108.46 2.04035 -0.137782 0
M  V30 1219 H 106.615 3.3256 1.98702 0
M  V30 1220 H 107.029 5.18565 0.786779 0
M  V30 1221 H 108.503 4.93247 2.47812 0
M  V30 1222 H 108.98 3.29156 2.9078 0
M  V30 1223 H 109.586 4.01577 1.40056 0
M  V30 1224 N 107.901 -0.206675 1.56239 0
M  V30 1225 C 109.178 -0.954051 1.70755 0
M  V30 1226 C 109.558 -2.01841 0.618353 0
M  V30 1227 O 108.906 -2.25444 -0.372434 0
M  V30 1228 C 109.116 -1.551 3.12642 0
M  V30 1229 C 110.464 -2.03757 3.72516 0
M  V30 1230 O 111.488 -1.64965 3.15698 0
M  V30 1231 O 110.347 -2.75103 4.72208 0
M  V30 1232 H 107.441 -0.446636 0.696021 0
M  V30 1233 H 109.987 -0.197283 1.68549 0
M  V30 1234 H 108.759 -0.783212 3.83382 0
M  V30 1235 H 108.382 -2.37291 3.19028 0
M  V30 1236 N 109.379 -1.50304 -0.473955 0
M  V30 1237 C 110.312 -1.63595 -1.59097 0
M  V30 1238 C 111.29 -0.484142 -1.55225 0
M  V30 1239 O 112.474 -0.703271 -1.7489 0
M  V30 1240 C 109.601 -1.61589 -2.97669 0
M  V30 1241 C 108.647 -2.82295 -3.19705 0
M  V30 1242 S 109.48 -4.43635 -2.99913 0
M  V30 1243 C 110.636 -4.44317 -4.40832 0
M  V30 1244 H 110.869 -2.58082 -1.47583 0
M  V30 1245 H 108.402 -1.39531 -0.661087 0
M  V30 1246 H 110.36 -1.61116 -3.7756 0
M  V30 1247 H 109.021 -0.683421 -3.06575 0
M  V30 1248 H 108.214 -2.77188 -4.20931 0
M  V30 1249 H 107.816 -2.8032 -2.47582 0
M  V30 1250 H 110.108 -4.17703 -5.33414 0
M  V30 1251 H 111.051 -5.45911 -4.50984 0
M  V30 1252 H 111.459 -3.74059 -4.22777 0
M  V30 1253 N 110.857 0.726932 -1.39834 0
M  V30 1254 C 112.085 1.51613 -1.40787 0
M  V30 1255 C 112.5 1.88799 -0.00451505 0
M  V30 1256 O 111.857 1.54662 0.968809 0
M  V30 1257 C 111.908 2.79863 -2.28821 0
M  V30 1258 O 111.629 2.44253 -3.63692 0
M  V30 1259 C 113.13 3.73837 -2.38245 0
M  V30 1260 H 110.35 0.468264 -0.480593 0
M  V30 1261 H 112.894 0.897607 -1.83748 0
M  V30 1262 H 111.049 3.38027 -1.89252 0
M  V30 1263 H 111.463 3.26695 -4.1033 0
M  V30 1264 H 112.937 4.60699 -3.04073 0
M  V30 1265 H 113.414 4.16153 -1.40403 0
M  V30 1266 H 114.02 3.21589 -2.78317 0
M  V30 1267 N 112.336 1.25143 0.95797 0
M  V30 1268 C 113.583 1.09692 1.70217 0
M  V30 1269 C 113.911 -0.362654 1.91089 0
M  V30 1270 O 113.166 -1.28386 1.47701 0
M  V30 1271 C 113.465 1.79272 3.09187 0
M  V30 1272 C 113.131 3.29196 3.08125 0
M  V30 1273 C 111.793 3.70096 3.07543 0
M  V30 1274 C 114.145 4.24995 3.0171 0
M  V30 1275 C 111.473 5.05213 2.9829 0
M  V30 1276 C 113.825 5.60132 2.93999 0
M  V30 1277 C 112.489 6.00365 2.9175 0
M  V30 1278 H 111.759 0.401393 0.622868 0
M  V30 1279 H 114.406 1.55372 1.11945 0
M  V30 1280 H 112.711 1.26014 3.70982 0
M  V30 1281 H 114.408 1.64773 3.65583 0
M  V30 1282 H 110.998 2.96651 3.09348 0
M  V30 1283 H 115.182 3.9439 3.01281 0
M  V30 1284 H 110.438 5.35569 2.94916 0
M  V30 1285 H 114.612 6.3406 2.87996 0
M  V30 1286 H 112.239 7.05023 2.84336 0
M  V30 1287 N 113.814 -1.1601 1.06675 0
M  V30 1288 C 114.724 -2.24156 0.692179 0
M  V30 1289 C 115.74 -1.71507 -0.293513 0
M  V30 1290 O 116.916 -2.009 -0.141861 0
M  V30 1291 C 113.981 -3.46587 0.0884131 0
M  V30 1292 C 113.042 -4.14257 1.12646 0
M  V30 1293 C 112.275 -5.30844 0.551416 0
M  V30 1294 O 112.498 -5.66858 -0.634656 0
M  V30 1295 O 111.432 -5.87848 1.29298 0
M  V30 1296 H 115.258 -2.58513 1.59388 0
M  V30 1297 H 112.843 -1.23599 0.83926 0
M  V30 1298 H 114.725 -4.20679 -0.246361 0
M  V30 1299 H 113.4 -3.13994 -0.786712 0
M  V30 1300 H 112.307 -3.42118 1.51348 0
M  V30 1301 H 113.64 -4.50914 1.97325 0
M  V30 1302 N 115.292 -0.849877 -1.32721 0
M  V30 1303 C 116.202 -0.293791 -2.32753 0
M  V30 1304 C 117.218 0.585906 -1.63839 0
M  V30 1305 O 118.394 0.487413 -1.95413 0
M  V30 1306 C 115.459 0.512752 -3.42887 0
M  V30 1307 C 114.52 -0.39252 -4.27502 0
M  V30 1308 C 113.753 0.375625 -5.32377 0
M  V30 1309 O 113.976 1.60613 -5.4732 0
M  V30 1310 O 112.91 -0.256094 -6.01355 0
M  V30 1311 H 116.736 -1.12242 -2.82197 0
M  V30 1312 H 114.321 -0.612685 -1.36259 0
M  V30 1313 H 116.203 0.970704 -4.10067 0
M  V30 1314 H 114.878 1.31826 -2.95641 0
M  V30 1315 H 113.785 -0.898547 -3.63149 0
M  V30 1316 H 115.118 -1.16309 -4.7826 0
M  V30 1317 N 116.77 1.45427 -0.607355 0
M  V30 1318 C 118.017 2.02241 -0.102455 0
M  V30 1319 C 118.345 1.4758 1.26691 0
M  V30 1320 O 117.6 0.640468 1.84923 0
M  V30 1321 C 117.899 3.57398 -0.0129263 0
M  V30 1322 C 117.565 4.3121 -1.31792 0
M  V30 1323 C 116.227 4.51092 -1.67539 0
M  V30 1324 C 118.579 4.73401 -2.18039 0
M  V30 1325 C 115.907 5.10422 -2.89285 0
M  V30 1326 C 118.259 5.34078 -3.39034 0
M  V30 1327 C 116.923 5.52184 -3.75033 0
M  V30 1328 H 116.193 0.740051 -0.037491 0
M  V30 1329 H 118.84 1.74494 -0.788926 0
M  V30 1330 H 117.145 3.84421 0.756806 0
M  V30 1331 H 118.842 3.99061 0.393881 0
M  V30 1332 H 115.432 4.16047 -1.02968 0
M  V30 1333 H 119.616 4.57774 -1.91721 0
M  V30 1334 H 114.872 5.22629 -3.17283 0
M  V30 1335 H 119.046 5.65724 -4.06115 0
M  V30 1336 H 116.673 5.97925 -4.69457 0
M  V30 1337 N 118.248 0.346503 1.53744 0
M  V30 1338 C 119.195 -0.508914 2.25119 0
M  V30 1339 C 120.165 -1.09315 1.25058 0
M  V30 1340 O 121.35 -1.12921 1.53797 0
M  V30 1341 C 118.49 -1.65246 3.02965 0
M  V30 1342 C 117.603 -1.09525 4.17886 0
M  V30 1343 C 116.738 -2.20634 4.83212 0
M  V30 1344 C 115.777 -1.62279 5.90196 0
M  V30 1345 N 114.914 -2.67143 6.49291 0
M  V30 1346 H 119.754 0.106283 2.9781 0
M  V30 1347 H 117.291 0.0642227 1.4696 0
M  V30 1348 H 119.249 -2.32574 3.4636 0
M  V30 1349 H 117.879 -2.2386 2.32565 0
M  V30 1350 H 116.931 -0.312818 3.79112 0
M  V30 1351 H 118.243 -0.628444 4.94825 0
M  V30 1352 H 117.397 -2.95821 5.29693 0
M  V30 1353 H 116.136 -2.70659 4.05703 0
M  V30 1354 H 115.141 -0.855989 5.43096 0
M  V30 1355 H 116.366 -1.13102 6.69615 0
M  V30 1356 H 114.312 -3.16417 5.74645 0
M  V30 1357 H 114.229 -2.25093 7.21713 0
M  V30 1358 H 115.497 -3.4209 7.00425 0
M  V30 1359 N 119.726 -1.57421 0.075193 0
M  V30 1360 C 120.689 -2.11791 -0.876203 0
M  V30 1361 C 121.689 -1.04268 -1.22412 0
M  V30 1362 O 122.879 -1.30242 -1.15684 0
M  V30 1363 C 120.011 -2.62207 -2.17854 0
M  V30 1364 H 121.204 -2.9716 -0.40444 0
M  V30 1365 H 118.757 -1.55333 -0.173557 0
M  V30 1366 H 119.492 -1.803 -2.6956 0
M  V30 1367 H 119.277 -3.40802 -1.93897 0
M  V30 1368 H 120.767 -3.04335 -2.85955 0
M  V30 1369 N 121.204 0.198386 -1.56346 0
M  V30 1370 C 122.151 1.24589 -1.94284 0
M  V30 1371 C 123.121 1.454 -0.802997 0
M  V30 1372 O 124.306 1.58588 -1.06087 0
M  V30 1373 C 121.446 2.58631 -2.28482 0
M  V30 1374 C 120.559 2.45426 -3.55514 0
M  V30 1375 C 119.694 3.7215 -3.79049 0
M  V30 1376 C 118.733 3.53763 -4.99518 0
M  V30 1377 N 117.87 4.72491 -5.19323 0
M  V30 1378 H 122.71 0.915356 -2.83593 0
M  V30 1379 H 120.247 0.440629 -1.40346 0
M  V30 1380 H 122.205 3.3672 -2.46324 0
M  V30 1381 H 120.835 2.89734 -1.42317 0
M  V30 1382 H 119.887 1.58652 -3.45737 0
M  V30 1383 H 121.199 2.27772 -4.43758 0
M  V30 1384 H 120.353 4.58679 -3.97113 0
M  V30 1385 H 119.092 3.92754 -2.89129 0
M  V30 1386 H 118.097 2.65619 -4.8138 0
M  V30 1387 H 119.322 3.34607 -5.90944 0
M  V30 1388 H 117.268 4.93365 -4.3235 0
M  V30 1389 H 117.185 4.5765 -6.01741 0
M  V30 1390 H 118.453 5.6038 -5.41843 0
M  V30 1391 N 122.682 1.50554 0.465978 0
M  V30 1392 C 123.912 1.65323 1.23903 0
M  V30 1393 C 124.32 0.338051 1.86155 0
M  V30 1394 O 123.663 -0.690518 1.70228 0
M  V30 1395 C 123.725 2.69048 2.3844 0
M  V30 1396 C 123.389 4.12462 1.96784 0
M  V30 1397 C 124.386 4.98168 1.48745 0
M  V30 1398 C 122.071 4.58407 2.05349 0
M  V30 1399 C 124.065 6.27868 1.0982 0
M  V30 1400 C 121.752 5.88112 1.66035 0
M  V30 1401 C 122.75 6.72668 1.18349 0
M  V30 1402 O 122.438 7.99951 0.795825 0
M  V30 1403 H 122.17 0.558629 0.38067 0
M  V30 1404 H 124.724 1.97561 0.562022 0
M  V30 1405 H 122.954 2.32062 3.09328 0
M  V30 1406 H 124.643 2.72985 3.0039 0
M  V30 1407 H 125.409 4.63885 1.41546 0
M  V30 1408 H 121.288 3.92735 2.41414 0
M  V30 1409 H 124.832 6.93819 0.725293 0
M  V30 1410 H 120.729 6.21914 1.72895 0
M  V30 1411 H 121.497 8.13265 0.924222 0
M  V30 1412 N 124.16 -0.719506 1.40217 0
M  V30 1413 C 125.09 -1.8465 1.42922 0
M  V30 1414 C 126.071 -1.67599 0.29062 0
M  V30 1415 O 127.256 -1.87688 0.498677 0
M  V30 1416 C 124.386 -3.22565 1.28722 0
M  V30 1417 C 123.34 -3.54281 2.40144 0
M  V30 1418 C 122.666 -4.91298 2.11023 0
M  V30 1419 C 123.966 -3.55676 3.82481 0
M  V30 1420 H 125.66 -1.82644 2.37237 0
M  V30 1421 H 123.206 -0.877305 1.1419 0
M  V30 1422 H 125.159 -4.01095 1.29232 0
M  V30 1423 H 123.883 -3.25137 0.308811 0
M  V30 1424 H 122.542 -2.78088 2.38877 0
M  V30 1425 H 122.19 -4.90468 1.11582 0
M  V30 1426 H 121.89 -5.13485 2.8567 0
M  V30 1427 H 123.414 -5.72166 2.13209 0
M  V30 1428 H 124.828 -4.24254 3.85592 0
M  V30 1429 H 123.225 -3.89388 4.56614 0
M  V30 1430 H 124.295 -2.55144 4.12346 0
M  V30 1431 N 125.638 -1.25649 -0.95132 0
M  V30 1432 C 126.866 -1.13343 -1.73092 0
M  V30 1433 C 127.281 0.312434 -1.86197 0
M  V30 1434 O 126.638 1.21465 -1.36207 0
M  V30 1435 C 126.689 -1.78602 -3.14299 0
M  V30 1436 O 126.41 -3.17537 -3.01831 0
M  V30 1437 C 127.911 -1.72119 -4.08522 0
M  V30 1438 H 125.131 -0.395181 -0.542285 0
M  V30 1439 H 127.675 -1.66076 -1.19328 0
M  V30 1440 H 125.83 -1.29832 -3.64996 0
M  V30 1441 H 126.244 -3.49676 -3.90931 0
M  V30 1442 H 127.718 -2.22435 -5.052 0
M  V30 1443 H 128.195 -0.685635 -4.33815 0
M  V30 1444 H 128.801 -2.20393 -3.63741 0
M  V30 1445 N 127.117 1.15442 -1.07289 0
M  V30 1446 C 128.027 2.23786 -0.704057 0
M  V30 1447 C 129.043 1.7166 0.284413 0
M  V30 1448 O 130.219 2.00972 0.131205 0
M  V30 1449 C 127.284 3.46535 -0.106792 0
M  V30 1450 C 126.345 4.13654 -1.14842 0
M  V30 1451 C 125.578 5.30544 -0.57956 0
M  V30 1452 O 125.801 5.67187 0.604585 0
M  V30 1453 O 124.735 5.87154 -1.32414 0
M  V30 1454 H 128.561 2.57664 -1.60757 0
M  V30 1455 H 126.146 1.23152 -0.845803 0
M  V30 1456 H 128.028 4.20804 0.224048 0
M  V30 1457 H 126.703 3.14407 0.770049 0
M  V30 1458 H 125.61 3.4131 -1.5316 0
M  V30 1459 H 126.943 4.49861 -1.99714 0
M  V30 1460 N 128.595 0.856903 1.32268 0
M  V30 1461 C 129.528 0.247937 2.26849 0
M  V30 1462 C 130.506 -0.615382 1.50505 0
M  V30 1463 O 131.69 -0.571689 1.79622 0
M  V30 1464 C 128.817 -0.650093 3.32403 0
M  V30 1465 C 127.863 0.140138 4.2627 0
M  V30 1466 S 128.696 1.51004 5.13769 0
M  V30 1467 C 129.852 0.61778 6.22844 0
M  V30 1468 H 130.085 1.04971 2.78152 0
M  V30 1469 H 127.618 0.654665 1.39834 0
M  V30 1470 H 129.576 -1.16256 3.93694 0
M  V30 1471 H 128.237 -1.4257 2.7988 0
M  V30 1472 H 127.43 -0.543945 5.01056 0
M  V30 1473 H 127.032 0.584267 3.69408 0
M  V30 1474 H 129.324 -0.177053 6.77269 0
M  V30 1475 H 130.267 1.33636 6.95375 0
M  V30 1476 H 130.675 0.191124 5.64176 0
M  V30 1477 N 130.073 -1.45103 0.615059 0
M  V30 1478 C 131.298 -2.07064 0.117988 0
M  V30 1479 C 131.723 -1.4554 -1.19163 0
M  V30 1480 O 131.081 -0.550855 -1.72729 0
M  V30 1481 C 131.129 -3.606 -0.000288387 0
M  V30 1482 O 130.233 -3.98847 -1.04856 0
M  V30 1483 H 129.574 -0.659467 0.0774581 0
M  V30 1484 H 132.104 -1.86236 0.847186 0
M  V30 1485 H 132.114 -4.07529 -0.196091 0
M  V30 1486 H 130.789 -4.04765 0.955932 0
M  V30 1487 H 129.366 -3.63577 -0.828619 0
M  V30 1488 N 131.551 -0.354651 -1.53558 0
M  V30 1489 C 132.967 -0.00315426 -1.596 0
M  V30 1490 C 133.167 1.47741 -1.37021 0
M  V30 1491 O 132.223 2.23759 -1.16996 0
M  V30 1492 C 133.536 -0.44929 -2.97325 0
M  V30 1493 C 135.084 -0.402578 -3.104 0
M  V30 1494 C 135.559 -0.824355 -4.5052 0
M  V30 1495 N 137.05 -0.778979 -4.56603 0
M  V30 1496 C 137.785 -1.07715 -5.63192 0
M  V30 1497 N 137.281 -1.44405 -6.77583 0
M  V30 1498 N 139.074 -1.00066 -5.53121 0
M  V30 1499 H 131.225 -1.31893 -1.66487 0
M  V30 1500 H 133.488 -0.538388 -0.780284 0
M  V30 1501 H 133.194 -1.48202 -3.1895 0
M  V30 1502 H 133.068 0.169772 -3.76818 0
M  V30 1503 H 135.455 0.621004 -2.88492 0
M  V30 1504 H 135.536 -1.05699 -2.32941 0
M  V30 1505 H 135.18 -1.846 -4.73165 0
M  V30 1506 H 135.11 -0.147304 -5.26394 0
M  V30 1507 H 137.601 -0.508528 -3.74463 0
M  V30 1508 H 137.914 -1.65612 -7.54846 0
M  V30 1509 H 136.259 -1.4826 -6.79002 0
M  V30 1510 H 139.45 -0.713293 -4.62633 0
M  V30 1511 H 139.623 -1.23638 -6.36096 0
M  V30 1512 N 133.029 1.57378 -0.0835403 0
M  V30 1513 C 133.992 2.12252 0.864959 0
M  V30 1514 C 134.992 1.04916 1.21858 0
M  V30 1515 O 136.182 1.30853 1.14991 0
M  V30 1516 C 133.314 2.63358 2.16461 0
M  V30 1517 H 134.507 2.97371 0.388676 0
M  V30 1518 H 132.06 1.55423 0.165317 0
M  V30 1519 H 132.795 1.81727 2.686 0
M  V30 1520 H 132.58 3.41826 1.92087 0
M  V30 1521 H 134.07 3.05847 2.84337 0
M  V30 1522 N 134.507 -0.190092 1.56449 0
M  V30 1523 C 135.732 -0.929864 1.85387 0
M  V30 1524 C 136.157 -1.7585 0.667704 0
M  V30 1525 O 135.515 -1.77198 -0.383459 0
M  V30 1526 C 135.563 -1.79773 3.12593 0
M  V30 1527 O 134.667 -2.89713 2.93496 0
M  V30 1528 H 134.008 -0.261574 0.610307 0
M  V30 1529 H 136.538 -0.193896 2.03679 0
M  V30 1530 H 136.548 -2.20139 3.43515 0
M  V30 1531 H 135.223 -1.18892 3.98544 0
M  V30 1532 H 133.8 -2.53065 2.73884 0
M  V30 1533 N 135.985 -1.50799 -0.457987 0
M  V30 1534 C 137.262 -1.52968 -1.21902 0
M  V30 1535 C 137.642 -0.281906 -2.09209 0
M  V30 1536 O 136.99 0.734076 -2.16388 0
M  V30 1537 C 137.2 -2.8326 -2.03875 0
M  V30 1538 C 138.548 -3.34425 -2.6162 0
M  V30 1539 O 139.572 -2.8467 -2.14106 0
M  V30 1540 O 138.431 -4.21188 -3.48228 0
M  V30 1541 H 135.525 -0.614129 -0.553873 0
M  V30 1542 H 138.071 -1.63098 -0.468739 0
M  V30 1543 H 136.843 -3.65543 -1.39621 0
M  V30 1544 H 136.466 -2.76195 -2.8601 0
M  V30 1545 N 137.463 0.71206 -1.40597 0
M  V30 1546 C 138.712 1.46754 -1.38369 0
M  V30 1547 C 139.025 1.95598 0.0097839 0
M  V30 1548 O 140.231 2.71059 0.154677 0
M  V30 1549 C 138.687 2.65289 -2.43207 0
M  V30 1550 C 138.295 2.23301 -3.88382 0
M  V30 1551 C 140.039 3.43008 -2.50091 0
M  V30 1552 C 137.946 3.38696 -4.84808 0
M  V30 1553 H 136.876 0.55118 -0.514506 0
M  V30 1554 H 139.527 0.774616 -1.66349 0
M  V30 1555 H 137.909 3.36769 -2.08332 0
M  V30 1556 H 139.083 1.59218 -4.32419 0
M  V30 1557 H 137.398 1.58618 -3.85006 0
M  V30 1558 H 139.995 4.28881 -3.1932 0
M  V30 1559 H 140.338 3.87065 -1.53253 0
M  V30 1560 H 140.871 2.78574 -2.83974 0
M  V30 1561 H 137.61 2.99668 -5.82992 0
M  V30 1562 H 137.13 4.01683 -4.45433 0
M  V30 1563 H 138.809 4.04712 -5.04794 0
M  V30 1564 N 138.941 1.26152 0.944643 0
M  V30 1565 C 139.871 1.09902 2.06019 0
M  V30 1566 C 140.852 0.00519538 1.70099 0
M  V30 1567 O 142.037 0.176583 1.93396 0
M  V30 1568 C 139.167 0.727562 3.39594 0
M  V30 1569 C 138.121 1.77274 3.89561 0
M  V30 1570 C 137.447 1.25569 5.19747 0
M  V30 1571 C 138.747 3.17357 4.14827 0
M  V30 1572 H 140.441 2.03217 2.19871 0
M  V30 1573 H 137.987 0.978452 1.05652 0
M  V30 1574 H 139.94 0.600777 4.17095 0
M  V30 1575 H 138.664 -0.241287 3.25707 0
M  V30 1576 H 137.323 1.88814 3.14237 0
M  V30 1577 H 136.971 0.276783 5.02238 0
M  V30 1578 H 136.671 1.95433 5.54148 0
M  V30 1579 H 138.195 1.1415 5.99835 0
M  V30 1580 H 139.609 3.08914 4.82954 0
M  V30 1581 H 138.006 3.84781 4.60504 0
M  V30 1582 H 139.076 3.63673 3.20734 0
M  V30 1583 N 140.419 -1.14872 1.07899 0
M  V30 1584 C 141.644 -1.90202 0.826926 0
M  V30 1585 C 142.069 -1.77774 -0.614664 0
M  V30 1586 O 141.427 -1.11431 -1.43013 0
M  V30 1587 C 141.475 -3.38352 1.24702 0
M  V30 1588 O 140.579 -4.10497 0.39575 0
M  V30 1589 H 139.92 -0.591968 0.300782 0
M  V30 1590 H 142.45 -1.45437 1.43907 0
M  V30 1591 H 142.46 -3.89156 1.22563 0
M  V30 1592 H 141.135 -3.46715 2.29698 0
M  V30 1593 H 139.712 -3.69796 0.480117 0
M  V30 1594 N 141.898 -0.863906 -1.31812 0
M  V30 1595 C 142.848 -0.286898 -2.26188 0
M  V30 1596 C 143.832 0.572577 -1.50367 0
M  V30 1597 O 145.024 0.420447 -1.71934 0
M  V30 1598 C 142.153 0.515849 -3.39402 0
M  V30 1599 C 141.239 -0.356531 -4.22599 0
M  V30 1600 N 141.63 -1.44716 -4.84656 0
M  V30 1601 C 139.928 -0.147898 -4.45755 0
M  V30 1602 C 140.629 -1.98462 -5.46798 0
M  V30 1603 N 139.605 -1.28247 -5.28255 0
M  V30 1604 H 143.407 -1.12055 -2.717 0
M  V30 1605 H 140.921 -0.711012 -1.46008 0
M  V30 1606 H 142.918 0.945701 -4.06032 0
M  V30 1607 H 141.578 1.34718 -2.95434 0
M  V30 1608 H 142.589 -1.83008 -4.84488 0
M  V30 1609 H 139.266 0.647973 -4.12441 0
M  V30 1610 H 140.656 -2.89932 -6.06126 0
M  V30 1611 N 143.376 1.44774 -0.622745 0
M  V30 1612 C 144.624 2.01721 -0.123655 0
M  V30 1613 C 144.945 1.49172 1.25589 0
M  V30 1614 O 144.215 0.691974 1.83272 0
M  V30 1615 H 142.795 0.745777 -0.0427225 0
M  V30 1616 H 145.457 1.77382 -0.807559 0
M  V30 1617 H 144.553 3.11984 -0.0849534 0
M  V30 1618 N 144.854 0.36279 1.53368 0
M  V30 1619 C 146.1 -0.228113 2.01513 0
M  V30 1620 C 146.433 -1.48648 1.2497 0
M  V30 1621 O 145.708 -1.91459 0.342616 0
M  V30 1622 C 145.991 -0.522884 3.56284 0
M  V30 1623 C 145.844 0.74892 4.43521 0
M  V30 1624 C 147.163 -1.32461 4.19693 0
M  V30 1625 H 144.282 -0.0814343 0.732487 0
M  V30 1626 H 146.924 0.48713 1.83649 0
M  V30 1627 H 145.074 -1.1322 3.71636 0
M  V30 1628 H 146.746 1.38648 4.39971 0
M  V30 1629 H 144.989 1.36986 4.11603 0
M  V30 1630 H 145.66 0.497667 5.49752 0
M  V30 1631 H 148.136 -0.809203 4.08156 0
M  V30 1632 H 147.012 -1.49961 5.28018 0
M  V30 1633 H 147.273 -2.33232 3.75573 0
M  V30 1634 N 146.332 -1.57332 0.0918853 0
M  V30 1635 C 147.743 -1.81496 -0.437739 0
M  V30 1636 C 148.094 -1.00727 -1.6837 0
M  V30 1637 O 147.219 -0.235694 -2.15113 0
M  V30 1638 C 147.814 -3.29197 -0.800939 0
M  V30 1639 C 146.373 -3.54136 -1.27532 0
M  V30 1640 C 145.52 -2.75979 -0.270392 0
M  V30 1641 H 148.471 -1.55494 0.317366 0
M  V30 1642 H 148.492 -3.42344 -1.66074 0
M  V30 1643 H 148.004 -3.87955 0.106078 0
M  V30 1644 H 146.105 -3.00705 -2.20016 0
M  V30 1645 H 146.218 -4.62792 -1.23938 0
M  V30 1646 H 144.582 -2.43349 -0.751872 0
M  V30 1647 H 145.365 -3.37484 0.629248 0
M  V30 1648 N 147.81 0.181792 -1.56548 0
M  V30 1649 C 149.04 0.914618 -1.85252 0
M  V30 1650 C 149.448 1.76791 -0.673914 0
M  V30 1651 O 148.791 1.80009 0.366416 0
M  V30 1652 C 148.853 1.85019 -3.08234 0
M  V30 1653 C 148.517 1.17754 -4.41569 0
M  V30 1654 C 149.514 0.548035 -5.17003 0
M  V30 1655 C 147.199 1.17742 -4.88305 0
M  V30 1656 C 149.193 -0.0726128 -6.37359 0
M  V30 1657 C 146.88 0.552946 -6.08593 0
M  V30 1658 C 147.878 -0.070978 -6.82963 0
M  V30 1659 O 147.566 -0.685635 -8.00971 0
M  V30 1660 H 147.298 0.271695 -0.618998 0
M  V30 1661 H 149.852 0.189944 -2.0452 0
M  V30 1662 H 148.082 2.61491 -2.84885 0
M  V30 1663 H 149.771 2.45195 -3.23472 0
M  V30 1664 H 150.537 0.540174 -4.81982 0
M  V30 1665 H 146.416 1.65246 -4.30366 0
M  V30 1666 H 149.96 -0.560213 -6.95347 0
M  V30 1667 H 145.857 0.558354 -6.43081 0
M  V30 1668 H 146.625 -0.58385 -8.16415 0
M  V30 1669 N 149.288 1.51039 0.449983 0
M  V30 1670 C 150.198 1.74261 1.57067 0
M  V30 1671 C 151.214 0.626363 1.62335 0
M  V30 1672 O 152.39 0.907162 1.79812 0
M  V30 1673 C 149.455 1.85114 2.93144 0
M  V30 1674 C 148.516 3.0893 2.98095 0
M  V30 1675 C 147.749 3.19256 4.27681 0
M  V30 1676 O 147.972 2.35835 5.19363 0
M  V30 1677 O 146.906 4.12144 4.38658 0
M  V30 1678 H 150.732 2.69303 1.40391 0
M  V30 1679 H 148.317 1.35389 0.631688 0
M  V30 1680 H 150.199 1.94311 3.73926 0
M  V30 1681 H 148.874 0.932588 3.09975 0
M  V30 1682 H 147.781 3.0522 2.16314 0
M  V30 1683 H 149.114 4.00433 2.86206 0
M  V30 1684 N 150.766 -0.704594 1.40972 0
M  V30 1685 C 151.729 -1.80035 1.41845 0
M  V30 1686 C 152.729 -1.57774 0.310474 0
M  V30 1687 O 153.919 -1.64613 0.56992 0
M  V30 1688 C 151.051 -3.18284 1.22098 0
M  V30 1689 H 152.244 -1.80658 2.3938 0
M  V30 1690 H 149.797 -0.911329 1.26982 0
M  V30 1691 H 150.532 -3.23306 0.253672 0
M  V30 1692 H 150.317 -3.35843 2.02366 0
M  V30 1693 H 151.807 -3.98289 1.25522 0
M  V30 1694 N 152.244 -1.26651 -0.937939 0
M  V30 1695 C 153.192 -1.08308 -2.05845 0
M  V30 1696 C 154.186 -0.0090757 -1.69398 0
M  V30 1697 O 155.392 -0.166007 -1.79233 0
M  V30 1698 H 151.767 -0.333416 -0.674046 0
M  V30 1699 H 153.738 -2.03261 -2.18467 0
M  V30 1700 C 152.487 -0.736229 -3.39816 0
M  V30 1701 H 151.81 -1.55453 -3.6834 0
M  V30 1702 H 153.25 -0.64769 -4.19024 0
M  V30 1703 C 151.709 0.558824 -3.32233 0
M  V30 1704 O 152.239 1.59621 -3.68624 0
M  V30 1705 N 150.445 0.550657 -2.85335 0
M  V30 1706 H 149.992 -0.293943 -2.55917 0
M  V30 1707 H 149.95 1.41726 -2.80644 0
M  V30 1708 N 153.722 1.14298 -1.08507 0
M  V30 1709 C 154.67 2.21483 -0.710483 0
M  V30 1710 C 155.664 1.66998 0.284234 0
M  V30 1711 O 156.87 1.79401 0.146692 0
M  V30 1712 H 153.245 0.721578 -0.211729 0
M  V30 1713 H 155.216 2.50348 -1.62384 0
M  V30 1714 C 153.965 3.4743 -0.137007 0
M  V30 1715 H 153.288 3.89686 -0.893592 0
M  V30 1716 H 154.728 4.2391 0.0872789 0
M  V30 1717 C 153.187 3.17548 1.12538 0
M  V30 1718 O 153.717 3.35437 2.21009 0
M  V30 1719 N 151.923 2.71499 1.03617 0
M  V30 1720 H 151.47 2.57143 0.153403 0
M  V30 1721 H 151.428 2.51881 1.88158 0
M  V30 1722 N 155.201 0.870884 1.31352 0
M  V30 1723 C 156.617 0.562932 1.49343 0
M  V30 1724 C 156.817 -0.902725 1.80148 0
M  V30 1725 O 155.873 -1.68484 1.88067 0
M  V30 1726 C 157.186 1.46393 2.62659 0
M  V30 1727 C 158.734 1.46607 2.76542 0
M  V30 1728 C 159.209 2.35266 3.92955 0
M  V30 1729 N 160.7 2.33151 4.00243 0
M  V30 1730 C 161.435 2.98471 4.89594 0
M  V30 1731 N 160.931 3.72964 5.8384 0
M  V30 1732 N 162.724 2.87775 4.82848 0
M  V30 1733 H 154.875 1.81923 1.09626 0
M  V30 1734 H 157.138 0.777934 0.541777 0
M  V30 1735 H 156.844 2.50689 2.46674 0
M  V30 1736 H 156.718 1.16314 3.58819 0
M  V30 1737 H 159.105 0.43069 2.9194 0
M  V30 1738 H 159.186 1.8071 1.81046 0
M  V30 1739 H 158.83 3.38881 3.78315 0
M  V30 1740 H 158.76 1.98487 4.87761 0
M  V30 1741 H 161.251 1.79006 3.32814 0
M  V30 1742 H 161.564 4.19932 6.4875 0
M  V30 1743 H 159.909 3.77073 5.83816 0
M  V30 1744 H 163.1 2.29116 4.08195 0
M  V30 1745 H 163.273 3.38961 5.52277 0
M  V30 1746 N 156.679 -1.44442 0.630414 0
M  V30 1747 C 157.642 -2.29107 -0.0652523 0
M  V30 1748 C 158.642 -1.41002 -0.772995 0
M  V30 1749 O 159.832 -1.62881 -0.617692 0
M  V30 1750 C 156.964 -3.22564 -1.10296 0
M  V30 1751 H 158.157 -2.92103 0.679401 0
M  V30 1752 H 155.71 -1.51343 0.390517 0
M  V30 1753 H 156.445 -2.64416 -1.87762 0
M  V30 1754 H 156.23 -3.87491 -0.59941 0
M  V30 1755 H 157.72 -3.86167 -1.5895 0
M  V30 1756 N 158.157 -0.370918 -1.53173 0
M  V30 1757 C 159.403 0.217423 -2.01631 0
M  V30 1758 C 159.736 1.47983 -1.25756 0
M  V30 1759 O 159.011 1.91274 -0.352764 0
M  V30 1760 C 159.294 0.503982 -3.56556 0
M  V30 1761 C 159.147 -0.77243 -4.43118 0
M  V30 1762 C 160.466 1.30234 -4.20389 0
M  V30 1763 H 157.585 0.0775486 -0.732909 0
M  V30 1764 H 160.227 -0.496863 -1.83388 0
M  V30 1765 H 158.377 1.11248 -3.72231 0
M  V30 1766 H 160.049 -1.4098 -4.39229 0
M  V30 1767 H 158.292 -1.39167 -4.10871 0
M  V30 1768 H 158.963 -0.526815 -5.4948 0
M  V30 1769 H 161.439 0.787546 -4.08579 0
M  V30 1770 H 160.315 1.47158 -5.28806 0
M  V30 1771 H 160.576 2.31237 -3.76805 0
M  V30 1772 N 159.635 1.57281 -0.100228 0
M  V30 1773 C 161.046 1.81725 0.428107 0
M  V30 1774 C 161.397 1.01619 1.67833 0
M  V30 1775 O 160.522 0.247098 2.14985 0
M  V30 1776 C 161.117 3.29617 0.78347 0
M  V30 1777 C 159.676 3.54808 1.25653 0
M  V30 1778 C 158.823 2.76118 0.255752 0
M  V30 1779 H 161.774 1.55324 -0.325608 0
M  V30 1780 H 161.795 3.4322 1.64256 0
M  V30 1781 H 161.307 3.87893 -0.12665 0
M  V30 1782 H 159.408 3.01868 2.18418 0
M  V30 1783 H 159.521 4.63443 1.21482 0
M  V30 1784 H 157.885 2.43745 0.738956 0
M  V30 1785 H 158.668 3.37145 -0.647136 0
M  V30 1786 N 161.113 -0.173488 1.56642 0
M  V30 1787 C 162.39 -0.917617 1.7274 0
M  V30 1788 C 162.77 -2.00484 0.661027 0
M  V30 1789 O 162.118 -2.26184 -0.32453 0
M  V30 1790 C 162.328 -1.48433 3.15862 0
M  V30 1791 C 163.676 -1.95809 3.76754 0
M  V30 1792 O 164.7 -1.58231 3.19126 0
M  V30 1793 O 163.559 -2.65024 4.77938 0
M  V30 1794 H 160.653 -0.431772 0.705338 0
M  V30 1795 H 163.199 -0.161487 1.6893 0
M  V30 1796 H 161.971 -0.701715 3.84957 0
M  V30 1797 H 161.594 -2.30471 3.23989 0
M  V30 1798 N 162.591 -1.51276 -0.441967 0
M  V30 1799 C 163.538 -1.72256 -1.53612 0
M  V30 1800 C 164.508 -0.564164 -1.56225 0
M  V30 1801 O 165.693 -0.798074 -1.73307 0
M  V30 1802 C 162.833 -1.84932 -2.91366 0
M  V30 1803 C 161.946 -3.12459 -2.98317 0
M  V30 1804 C 161.081 -3.15758 -4.27166 0
M  V30 1805 C 160.12 -4.37619 -4.27967 0
M  V30 1806 N 159.257 -4.38493 -5.48333 0
M  V30 1807 H 164.097 -2.65654 -1.35026 0
M  V30 1808 H 161.634 -1.31662 -0.656009 0
M  V30 1809 H 163.592 -1.90263 -3.7129 0
M  V30 1810 H 162.222 -0.949461 -3.08521 0
M  V30 1811 H 161.274 -3.1646 -2.11086 0
M  V30 1812 H 162.586 -4.02382 -2.94771 0
M  V30 1813 H 161.74 -3.19979 -5.15459 0
M  V30 1814 H 160.479 -2.23715 -4.33362 0
M  V30 1815 H 159.484 -4.33579 -3.38067 0
M  V30 1816 H 160.709 -5.30921 -4.23438 0
M  V30 1817 H 158.655 -3.49318 -5.55259 0
M  V30 1818 H 158.572 -5.22219 -5.46647 0
M  V30 1819 H 159.84 -4.469 -6.38671 0
M  V30 1820 N 164.069 0.697108 -1.41344 0
M  V30 1821 C 165.318 1.45279 -1.39918 0
M  V30 1822 C 165.631 1.95597 -0.0109624 0
M  V30 1823 O 166.837 2.71208 0.125919 0
M  V30 1824 C 165.293 2.62695 -2.46007 0
M  V30 1825 C 164.901 2.19169 -3.90729 0
M  V30 1826 C 166.645 3.40336 -2.53715 0
M  V30 1827 C 164.552 3.33535 -4.88373 0
M  V30 1828 H 163.482 0.545692 -0.520323 0
M  V30 1829 H 166.133 0.756929 -1.67161 0
M  V30 1830 H 164.515 3.34541 -2.11892 0
M  V30 1831 H 165.689 1.54623 -4.34083 0
M  V30 1832 H 164.004 1.54525 -3.86666 0
M  V30 1833 H 166.601 4.2547 -3.2385 0
M  V30 1834 H 166.944 3.85418 -1.5735 0
M  V30 1835 H 167.477 2.75546 -2.86913 0
M  V30 1836 H 164.216 2.93468 -5.86137 0
M  V30 1837 H 163.736 3.96936 -4.49668 0
M  V30 1838 H 165.415 3.99335 -5.09059 0
M  V30 1839 N 165.547 1.27147 0.931209 0
M  V30 1840 C 166.824 1.0401 1.65654 0
M  V30 1841 C 167.204 -0.426297 2.06751 0
M  V30 1842 O 166.552 -1.40879 1.79904 0
M  V30 1843 C 166.762 1.99834 2.86125 0
M  V30 1844 C 168.11 2.29007 3.57549 0
M  V30 1845 O 169.134 1.97779 2.96246 0
M  V30 1846 O 167.993 2.82222 4.67989 0
M  V30 1847 H 165.087 0.396239 0.725895 0
M  V30 1848 H 167.633 1.38397 0.982056 0
M  V30 1849 H 166.405 2.98744 2.52721 0
M  V30 1850 H 166.028 1.65987 3.61295 0
M  V30 1851 N 167.025 -1.13721 1.09112 0
M  V30 1852 C 168.271 -1.85413 0.836283 0
M  V30 1853 C 168.626 -1.8175 -0.631249 0
M  V30 1854 O 167.919 -1.24238 -1.45861 0
M  V30 1855 C 168.113 -3.32861 1.30146 0
M  V30 1856 C 167.942 -3.50882 2.81268 0
M  V30 1857 C 166.712 -3.65312 3.49106 0
M  V30 1858 C 168.91 -3.47196 3.7942 0
M  V30 1859 N 166.892 -3.71563 4.88686 0
M  V30 1860 C 168.263 -3.59777 5.04936 0
M  V30 1861 C 170.318 -3.30577 3.72321 0
M  V30 1862 C 169.021 -3.57455 6.24194 0
M  V30 1863 C 171.047 -3.29562 4.91063 0
M  V30 1864 C 170.409 -3.42691 6.15421 0
M  V30 1865 H 166.508 -0.694812 0.358832 0
M  V30 1866 H 169.092 -1.36246 1.39087 0
M  V30 1867 H 167.263 -3.80602 0.774361 0
M  V30 1868 H 168.995 -3.92346 0.99229 0
M  V30 1869 H 165.75 -3.6685 2.9953 0
M  V30 1870 H 166.174 -3.78387 5.61384 0
M  V30 1871 H 170.816 -3.19332 2.77105 0
M  V30 1872 H 168.534 -3.67475 7.19714 0
M  V30 1873 H 172.12 -3.17905 4.87266 0
M  V30 1874 H 171 -3.41862 7.05762 0
M  V30 1875 N 168.503 -0.877838 -1.30888 0
M  V30 1876 C 169.919 -0.570844 -1.49042 0
M  V30 1877 C 170.119 0.893159 -1.80624 0
M  V30 1878 O 169.175 1.67485 -1.88958 0
M  V30 1879 C 170.488 -1.47784 -2.61878 0
M  V30 1880 C 172.036 -1.48071 -2.75761 0
M  V30 1881 C 172.511 -2.37347 -3.91702 0
M  V30 1882 N 174.002 -2.35271 -3.99001 0
M  V30 1883 C 174.737 -3.01063 -4.88004 0
M  V30 1884 N 174.233 -3.76055 -5.81854 0
M  V30 1885 N 176.026 -2.90332 -4.81315 0
M  V30 1886 H 168.177 -1.82502 -1.0866 0
M  V30 1887 H 170.44 -0.780797 -0.537644 0
M  V30 1888 H 170.146 -2.51993 -2.45341 0
M  V30 1889 H 170.02 -1.18215 -3.58197 0
M  V30 1890 H 172.407 -0.446166 -2.91708 0
M  V30 1891 H 172.488 -1.81668 -1.80085 0
M  V30 1892 H 172.132 -3.40883 -3.76512 0
M  V30 1893 H 172.062 -2.01071 -4.86701 0
M  V30 1894 H 174.553 -1.80768 -3.3186 0
M  V30 1895 H 174.866 -4.23366 -6.46514 0
M  V30 1896 H 173.211 -3.80163 -5.81808 0
M  V30 1897 H 176.402 -2.31278 -4.06974 0
M  V30 1898 H 176.575 -3.41885 -5.50471 0
M  V30 1899 N 169.982 1.44106 -0.638065 0
M  V30 1900 C 170.892 2.34513 0.0637334 0
M  V30 1901 C 171.908 1.53018 0.828346 0
M  V30 1902 O 173.084 1.85723 0.779036 0
M  V30 1903 C 170.149 3.31095 1.02844 0
M  V30 1904 C 169.21 4.28497 0.26244 0
M  V30 1905 C 168.443 5.20465 1.1812 0
M  V30 1906 O 168.666 5.16514 2.42011 0
M  V30 1907 O 167.6 5.98251 0.661774 0
M  V30 1908 H 171.426 2.95989 -0.68003 0
M  V30 1909 H 169.011 1.43994 -0.398252 0
M  V30 1910 H 170.893 3.90526 1.58327 0
M  V30 1911 H 169.568 2.72144 1.7527 0
M  V30 1912 H 168.475 3.72592 -0.335602 0
M  V30 1913 H 169.808 4.90388 -0.421936 0
M  V30 1914 N 171.46 0.379036 1.52974 0
M  V30 1915 C 172.685 -0.209353 2.06341 0
M  V30 1916 C 173.11 -1.40583 1.24972 0
M  V30 1917 O 172.468 -1.79246 0.272155 0
M  V30 1918 C 172.516 -0.567786 3.56102 0
M  V30 1919 O 171.62 -1.66318 3.77375 0
M  V30 1920 H 170.961 -0.0272919 0.663439 0
M  V30 1921 H 173.491 0.543536 1.97248 0
M  V30 1922 H 173.501 -0.835003 3.99364 0
M  V30 1923 H 172.176 0.307013 4.14765 0
M  V30 1924 H 170.753 -1.39048 3.46006 0
M  V30 1925 N 172.938 -1.57226 0.108567 0
M  V30 1926 C 174.186 -1.94448 -0.550853 0
M  V30 1927 C 174.507 -0.992074 -1.67878 0
M  V30 1928 O 173.777 -0.0465 -1.95845 0
M  V30 1929 H 172.357 -0.717897 -0.206479 0
M  V30 1930 H 175.019 -1.94112 0.175062 0
M  V30 1931 H 174.115 -2.97218 -0.952259 0
M  V30 1932 N 174.416 0.165178 -1.56732 0
M  V30 1933 C 175.646 0.894919 -1.86212 0
M  V30 1934 C 176.054 1.76066 -0.692627 0
M  V30 1935 O 175.397 1.80387 0.347303 0
M  V30 1936 C 175.459 1.8174 -3.10179 0
M  V30 1937 C 175.123 1.13064 -4.42793 0
M  V30 1938 C 176.12 0.493169 -5.17556 0
M  V30 1939 C 173.805 1.12556 -4.89527 0
M  V30 1940 C 175.799 -0.140209 -6.37246 0
M  V30 1941 C 173.486 0.488366 -6.09145 0
M  V30 1942 C 174.484 -0.143411 -6.82849 0
M  V30 1943 O 174.172 -0.77055 -8.00199 0
M  V30 1944 H 173.904 0.265114 -0.621844 0
M  V30 1945 H 176.458 0.168242 -2.0471 0
M  V30 1946 H 174.688 2.58455 -2.87642 0
M  V30 1947 H 176.377 2.4175 -3.26055 0
M  V30 1948 H 177.143 0.489023 -4.82528 0
M  V30 1949 H 173.022 1.60672 -4.32094 0
M  V30 1950 H 176.566 -0.633932 -6.94714 0
M  V30 1951 H 172.463 0.490116 -6.43637 0
M  V30 1952 H 173.231 -0.670408 -8.1575 0
M  V30 1953 N 175.894 1.51508 0.433938 0
M  V30 1954 C 177.14 1.64588 1.18484 0
M  V30 1955 C 177.473 0.362666 1.90784 0
M  V30 1956 O 176.748 -0.637892 1.83742 0
M  V30 1957 C 177.031 2.85149 2.19913 0
M  V30 1958 C 176.884 4.23456 1.51674 0
M  V30 1959 C 178.203 3.01227 3.20858 0
M  V30 1960 H 175.322 0.598994 0.429389 0
M  V30 1961 H 177.964 1.84002 0.473647 0
M  V30 1962 H 176.114 2.68729 2.80566 0
M  V30 1963 H 177.786 4.51552 0.943322 0
M  V30 1964 H 176.029 4.25998 0.819035 0
M  V30 1965 H 176.7 5.03812 2.2556 0
M  V30 1966 H 179.176 3.16382 2.70263 0
M  V30 1967 H 178.052 3.87141 3.89118 0
M  V30 1968 H 178.313 2.13447 3.8716 0
M  V30 1969 N 177.372 -0.689602 1.41712 0
M  V30 1970 C 178.6 -1.47827 1.44758 0
M  V30 1971 C 179.015 -1.88721 0.0545703 0
M  V30 1972 O 178.372 -1.57176 -0.927463 0
M  V30 1973 C 178.423 -2.73698 2.3616 0
M  V30 1974 O 178.144 -2.34524 3.7004 0
M  V30 1975 C 179.645 -3.67389 2.48072 0
M  V30 1976 H 176.865 -0.455357 0.49284 0
M  V30 1977 H 179.409 -0.848574 1.86063 0
M  V30 1978 H 177.564 -3.32891 1.98148 0
M  V30 1979 H 177.978 -3.15701 4.18847 0
M  V30 1980 H 179.452 -4.52475 3.16181 0
M  V30 1981 H 179.929 -4.12284 1.51388 0
M  V30 1982 H 180.535 -3.14097 2.86746 0
M  V30 1983 N 178.85 -1.27639 -0.924453 0
M  V30 1984 C 179.76 -1.12466 -2.05885 0
M  V30 1985 C 180.776 -0.053869 -1.73917 0
M  V30 1986 O 181.952 -0.261012 -1.99702 0
M  V30 1987 C 179.017 -0.776768 -3.37886 0
M  V30 1988 C 178.078 -1.92878 -3.83532 0
M  V30 1989 C 177.311 -1.59739 -5.09234 0
M  V30 1990 O 177.534 -0.506782 -5.68144 0
M  V30 1991 O 176.468 -2.43761 -5.50331 0
M  V30 1992 H 180.294 -2.07671 -2.21599 0
M  V30 1993 H 177.879 -1.06857 -1.04413 0
M  V30 1994 H 179.761 -0.596229 -4.17161 0
M  V30 1995 H 178.436 0.145732 -3.23372 0
M  V30 1996 H 177.343 -2.1644 -3.0513 0
M  V30 1997 H 178.676 -2.8316 -4.02593 0
M  V30 1998 N 180.328 1.1314 -1.09713 0
M  V30 1999 C 181.574 1.84757 -0.836224 0
M  V30 2000 C 181.907 1.8347 0.636598 0
M  V30 2001 O 181.182 1.27491 1.46889 0
M  V30 2002 C 181.465 3.32782 -1.37578 0
M  V30 2003 C 181.318 3.42567 -2.91493 0
M  V30 2004 C 182.637 4.28307 -1.01198 0
M  V30 2005 H 179.756 0.67082 -0.305236 0
M  V30 2006 H 182.398 1.3278 -1.35903 0
M  V30 2007 H 180.548 3.77177 -0.931097 0
M  V30 2008 H 182.22 3.06862 -3.44432 0
M  V30 2009 H 180.463 2.83349 -3.28475 0
M  V30 2010 H 181.134 4.46674 -3.24324 0
M  V30 2011 H 183.61 3.91999 -1.39556 0
M  V30 2012 H 182.486 5.30307 -1.41653 0
M  V30 2013 H 182.747 4.42029 0.0794833 0
M  V30 2014 N 181.806 0.884767 1.30421 0
M  V30 2015 C 182.753 0.349642 2.28136 0
M  V30 2016 C 183.723 -0.560061 1.56373 0
M  V30 2017 O 184.908 -0.488524 1.8444 0
M  V30 2018 C 182.048 -0.42999 3.42411 0
M  V30 2019 C 181.161 0.508907 4.28992 0
M  V30 2020 C 180.296 -0.286301 5.30428 0
M  V30 2021 C 179.335 0.648079 6.08659 0
M  V30 2022 N 178.472 -0.111792 7.02011 0
M  V30 2023 H 183.312 1.18807 2.73293 0
M  V30 2024 H 180.849 0.597231 1.3443 0
M  V30 2025 H 182.807 -0.897923 4.07423 0
M  V30 2026 H 181.437 -1.23299 2.98324 0
M  V30 2027 H 180.489 1.09533 3.64289 0
M  V30 2028 H 181.801 1.22475 4.8353 0
M  V30 2029 H 180.955 -0.816098 6.01186 0
M  V30 2030 H 179.694 -1.03536 4.76583 0
M  V30 2031 H 178.699 1.18951 5.36778 0
M  V30 2032 H 179.924 1.39623 6.64592 0
M  V30 2033 H 177.87 -0.843395 6.50556 0
M  V30 2034 H 177.787 0.544429 7.54037 0
M  V30 2035 H 179.055 -0.622339 7.77012 0
M  V30 2036 N 183.284 -1.43765 0.645699 0
M  V30 2037 C 184.561 -1.9541 0.0862963 0
M  V30 2038 C 184.941 -1.58725 -1.39175 0
M  V30 2039 O 184.289 -0.868581 -2.11348 0
M  V30 2040 C 184.499 -3.47488 0.324565 0
M  V30 2041 C 185.847 -4.24001 0.225497 0
M  V30 2042 O 186.871 -3.55274 0.256715 0
M  V30 2043 O 185.73 -5.46313 0.142801 0
M  V30 2044 H 182.824 -0.826882 -0.0139483 0
M  V30 2045 H 185.37 -1.53743 0.718415 0
M  V30 2046 H 184.142 -3.67289 1.3496 0
M  V30 2047 H 183.765 -3.96135 -0.340987 0
M  V30 2048 N 184.763 -0.387143 -1.52771 0
M  V30 2049 C 185.695 0.484089 -2.2403 0
M  V30 2050 C 186.708 1.02849 -1.26198 0
M  V30 2051 O 187.897 0.931186 -1.52286 0
M  V30 2052 C 184.997 1.68337 -2.94136 0
M  V30 2053 C 184.17 1.26672 -4.18656 0
M  V30 2054 C 183.229 2.33045 -4.7178 0
M  V30 2055 O 182.255 1.94541 -5.34923 0
M  V30 2056 N 183.457 3.64929 -4.5145 0
M  V30 2057 H 186.222 -0.126404 -2.99433 0
M  V30 2058 H 183.783 -0.213392 -1.60488 0
M  V30 2059 H 185.775 2.39019 -3.26577 0
M  V30 2060 H 184.345 2.20025 -2.22053 0
M  V30 2061 H 183.565 0.388878 -3.92277 0
M  V30 2062 H 184.853 0.964964 -4.99566 0
M  V30 2063 H 184.251 3.98974 -4.01044 0
M  V30 2064 H 182.808 4.31651 -4.88386 0
M  V30 2065 N 186.241 1.57166 -0.116904 0
M  V30 2066 C 187.489 1.94737 0.540533 0
M  V30 2067 C 187.81 1.00096 1.67349 0
M  V30 2068 O 187.08 0.0568854 1.95817 0
M  V30 2069 H 185.66 0.718981 0.202669 0
M  V30 2070 H 188.322 1.94017 -0.185353 0
M  V30 2071 H 187.418 2.97719 0.936483 0
M  V30 2072 N 187.719 -0.156864 1.56817 0
M  V30 2073 C 188.667 -1.21319 1.98455 0
M  V30 2074 C 189.661 -1.45025 0.875444 0
M  V30 2075 O 190.867 -1.45435 1.0606 0
M  V30 2076 H 187.242 -0.408142 0.631605 0
M  V30 2077 H 189.213 -0.835244 2.86472 0
M  V30 2078 C 187.962 -2.54148 2.37285 0
M  V30 2079 H 187.285 -2.36733 3.22176 0
M  V30 2080 H 188.725 -3.26712 2.70251 0
M  V30 2081 C 187.184 -3.13967 1.22173 0
M  V30 2082 O 187.714 -3.98357 0.517149 0
M  V30 2083 N 185.92 -2.7327 0.988536 0
M  V30 2084 H 185.467 -2.04744 1.56326 0
M  V30 2085 H 185.425 -3.13628 0.220209 0
M  V30 2086 N 189.197 -1.51736 -0.425897 0
M  V30 2087 C 190.437 -1.66636 -1.18371 0
M  V30 2088 C 190.801 -0.379854 -1.88205 0
M  V30 2089 O 192.002 -0.404758 -2.65735 0
M  V30 2090 C 190.273 -2.84382 -2.16476 0
M  V30 2091 S 191.832 -3.19673 -3.0059 0
M  V30 2092 H 188.65 -0.586957 -0.40125 0
M  V30 2093 H 191.252 -1.89679 -0.473518 0
M  V30 2094 H 189.956 -3.76281 -1.63831 0
M  V30 2095 H 189.487 -2.63562 -2.92059 0
M  V30 2096 H 191.502 -2.66994 -4.18245 0
M  V30 2097 N 190.675 0.682077 -1.42076 0
M  V30 2098 C 191.923 1.4393 -1.41876 0
M  V30 2099 C 192.244 1.94971 -0.0335599 0
M  V30 2100 O 191.514 1.72591 0.926773 0
M  V30 2101 H 190.094 0.534085 -0.522267 0
M  V30 2102 H 192.756 0.806427 -1.77434 0
M  V30 2103 H 191.852 2.29588 -2.11414 0
M  V30 2104 N 192.153 1.28127 0.917671 0
M  V30 2105 C 193.378 1.18007 1.70555 0
M  V30 2106 C 193.803 -0.258257 1.86319 0
M  V30 2107 O 193.161 -1.1869 1.37049 0
M  V30 2108 C 193.209 1.87948 3.07746 0
M  V30 2109 O 192.313 1.18427 3.9503 0
M  V30 2110 H 191.654 0.409867 0.522403 0
M  V30 2111 H 194.184 1.69379 1.1477 0
M  V30 2112 H 194.194 1.95701 3.58001 0
M  V30 2113 H 192.869 2.92573 2.95591 0
M  V30 2114 H 191.446 1.18811 3.53466 0
M  V30 2115 N 193.631 -1.12557 1.10312 0
M  V30 2116 C 194.871 -1.8568 0.854543 0
M  V30 2117 C 195.235 -1.82091 -0.608843 0
M  V30 2118 O 196.436 -2.50544 -0.973717 0
M  V30 2119 C 194.707 -3.2942 1.38626 0
M  V30 2120 S 196.266 -4.19931 1.27293 0
M  V30 2121 H 193.084 -0.640427 0.308827 0
M  V30 2122 H 195.686 -1.35599 1.40831 0
M  V30 2123 H 194.39 -3.2959 2.44537 0
M  V30 2124 H 193.921 -3.84566 0.82902 0
M  V30 2125 H 195.936 -4.95668 0.229776 0
M  V30 2126 N 195.109 -0.891671 -1.2995 0
M  V30 2127 C 196.355 -0.523649 -1.96544 0
M  V30 2128 C 196.71 0.918394 -1.69066 0
M  V30 2129 O 196.003 1.64122 -0.988659 0
M  V30 2130 C 196.197 -0.742868 -3.49594 0
M  V30 2131 C 196.026 -2.20467 -3.9195 0
M  V30 2132 C 194.796 -2.85055 -4.17219 0
M  V30 2133 C 196.994 -3.17912 -4.04273 0
M  V30 2134 N 194.976 -4.21762 -4.46083 0
M  V30 2135 C 196.347 -4.39712 -4.37097 0
M  V30 2136 C 198.402 -3.1361 -3.86721 0
M  V30 2137 C 197.105 -5.5776 -4.54199 0
M  V30 2138 C 199.131 -4.30936 -4.05028 0
M  V30 2139 C 198.493 -5.51504 -4.38204 0
M  V30 2140 H 194.592 -0.241072 -0.743914 0
M  V30 2141 H 197.176 -1.15081 -1.5705 0
M  V30 2142 H 195.347 -0.14515 -3.88129 0
M  V30 2143 H 197.079 -0.341081 -4.0326 0
M  V30 2144 H 193.834 -2.35889 -4.10674 0
M  V30 2145 H 194.258 -4.92382 -4.64638 0
M  V30 2146 H 198.9 -2.21489 -3.60142 0
M  V30 2147 H 196.618 -6.50379 -4.79618 0
M  V30 2148 H 200.204 -4.29085 -3.92909 0
M  V30 2149 H 199.084 -6.40778 -4.52077 0
M  V30 2150 N 196.587 1.43421 -0.653314 0
M  V30 2151 C 197.55 2.29182 0.0287951 0
M  V30 2152 C 198.55 1.42213 0.750465 0
M  V30 2153 O 199.74 1.63843 0.591701 0
M  V30 2154 C 196.872 3.24278 1.05151 0
M  V30 2155 H 198.065 2.90985 -0.725786 0
M  V30 2156 H 195.618 1.50702 -0.414545 0
M  V30 2157 H 196.353 2.6737 1.83532 0
M  V30 2158 H 196.138 3.88396 0.537687 0
M  V30 2159 H 197.628 3.88647 1.52786 0
M  V30 2160 N 198.065 0.39524 1.52563 0
M  V30 2161 C 199.312 -0.185044 2.01653 0
M  V30 2162 C 199.64 -1.46317 1.28146 0
M  V30 2163 O 198.895 -1.9213 0.372074 0
M  V30 2164 C 199.194 -0.493444 3.53977 0
M  V30 2165 C 198.86 0.69384 4.4553 0
M  V30 2166 C 197.522 1.01954 4.70275 0
M  V30 2167 C 199.874 1.48785 4.99512 0
M  V30 2168 C 197.202 2.14069 5.46252 0
M  V30 2169 C 199.554 2.59965 5.76716 0
M  V30 2170 C 198.218 2.93037 5.99738 0
M  V30 2171 H 197.488 -0.0677123 0.7379 0
M  V30 2172 H 200.135 0.533807 1.8391 0
M  V30 2173 H 198.44 -1.29369 3.69825 0
M  V30 2174 H 200.137 -0.955163 3.89458 0
M  V30 2175 H 196.727 0.429987 4.26438 0
M  V30 2176 H 200.911 1.24946 4.80315 0
M  V30 2177 H 196.167 2.40056 5.62302 0
M  V30 2178 H 200.341 3.21887 6.17545 0
M  V30 2179 H 197.968 3.8003 6.58393 0
M  V30 2180 N 199.544 -1.57102 0.125237 0
M  V30 2181 C 200.769 -2.0019 -0.542101 0
M  V30 2182 C 201.194 -1.00449 -1.59034 0
M  V30 2183 O 200.552 0.0229423 -1.81285 0
M  V30 2184 C 200.6 -3.42129 -1.13929 0
M  V30 2185 O 199.704 -3.45307 -2.2547 0
M  V30 2186 H 199.045 -0.650171 -0.134812 0
M  V30 2187 H 201.575 -2.03461 0.215553 0
M  V30 2188 H 201.585 -3.80471 -1.4733 0
M  V30 2189 H 200.26 -4.14237 -0.371531 0
M  V30 2190 H 198.837 -3.1879 -1.93462 0
M  V30 2191 N 201.022 0.148545 -1.56898 0
M  V30 2192 C 202.25 0.876389 -1.87422 0
M  V30 2193 C 202.665 1.74809 -0.713256 0
M  V30 2194 O 202.022 1.79725 0.317025 0
M  V30 2195 C 202.073 1.73438 -3.17178 0
M  V30 2196 O 201.794 0.897809 -4.28802 0
M  V30 2197 C 203.295 2.56993 -3.61205 0
M  V30 2198 H 200.515 0.253489 -0.621277 0
M  V30 2199 H 203.059 0.141798 -2.04008 0
M  V30 2200 H 201.214 2.42205 -3.0235 0
M  V30 2201 H 201.628 1.48672 -5.02988 0
M  V30 2202 H 203.102 3.12773 -4.54838 0
M  V30 2203 H 203.579 3.32958 -2.86419 0
M  V30 2204 H 204.185 1.9352 -3.78722 0
M  V30 2205 N 202.5 1.5196 0.417844 0
M  V30 2206 C 203.728 1.69426 1.18753 0
M  V30 2207 C 204.143 0.399955 1.84515 0
M  V30 2208 O 203.5 -0.623288 1.71527 0
M  V30 2209 C 203.551 2.82375 2.25714 0
M  V30 2210 O 203.272 4.06793 1.62638 0
M  V30 2211 C 204.773 3.11277 3.15628 0
M  V30 2212 H 201.993 0.568031 0.357186 0
M  V30 2213 H 204.537 1.98475 0.49273 0
M  V30 2214 H 202.692 2.5587 2.90877 0
M  V30 2215 H 203.106 4.69667 2.3348 0
M  V30 2216 H 204.58 3.93843 3.86771 0
M  V30 2217 H 205.057 2.24473 3.77503 0
M  V30 2218 H 205.663 3.39515 2.56144 0
M  V30 2219 N 203.978 -0.674533 1.42435 0
M  V30 2220 C 205.226 -1.43175 1.42637 0
M  V30 2221 C 205.547 -1.94951 0.0438992 0
M  V30 2222 O 204.817 -1.7308 -0.917607 0
M  V30 2223 H 203.397 -0.531307 0.525092 0
M  V30 2224 H 206.059 -0.797006 1.77859 0
M  V30 2225 H 205.155 -2.28463 2.12629 0
M  V30 2226 N 205.456 -1.28612 -0.910864 0
M  V30 2227 C 206.684 -1.18792 -1.69399 0
M  V30 2228 C 207.099 0.253039 -1.87097 0
M  V30 2229 O 206.456 1.17071 -1.40003 0
M  V30 2230 C 206.507 -1.88511 -3.08457 0
M  V30 2231 O 206.228 -3.26979 -2.91576 0
M  V30 2232 C 207.729 -1.85029 -4.02839 0
M  V30 2233 H 204.949 -0.412233 -0.529438 0
M  V30 2234 H 207.493 -1.69788 -1.13984 0
M  V30 2235 H 205.648 -1.41379 -3.60681 0
M  V30 2236 H 206.062 -3.61936 -3.79608 0
M  V30 2237 H 207.536 -2.38395 -4.97867 0
M  V30 2238 H 208.013 -0.823303 -4.31414 0
M  V30 2239 H 208.619 -2.31853 -3.56545 0
M  V30 2240 N 206.934 1.1197 -1.10907 0
M  V30 2241 C 207.867 2.16998 -0.706192 0
M  V30 2242 C 208.845 1.59903 0.294897 0
M  V30 2243 O 210.029 1.87513 0.192636 0
M  V30 2244 C 207.156 3.38673 -0.0427664 0
M  V30 2245 C 206.202 4.14414 -1.00811 0
M  V30 2246 S 207.035 4.72079 -2.52789 0
M  V30 2247 C 208.191 5.97083 -1.87731 0
M  V30 2248 H 208.424 2.50837 -1.59587 0
M  V30 2249 H 205.957 1.23508 -0.926555 0
M  V30 2250 H 207.915 4.09142 0.333668 0
M  V30 2251 H 206.576 3.03105 0.823788 0
M  V30 2252 H 205.769 5.016 -0.491259 0
M  V30 2253 H 205.371 3.49678 -1.3267 0
M  V30 2254 H 207.663 6.66599 -1.21044 0
M  V30 2255 H 208.606 6.53403 -2.72892 0
M  V30 2256 H 209.014 5.4837 -1.33979 0
M  V30 2257 N 208.412 0.89855 1.29475 0
M  V30 2258 C 209.322 0.379974 2.31502 0
M  V30 2259 C 210.338 -0.524695 1.659 0
M  V30 2260 O 211.514 -0.414551 1.97087 0
M  V30 2261 C 208.579 -0.385138 3.44554 0
M  V30 2262 C 207.64 0.550914 4.2575 0
M  V30 2263 C 206.873 -0.177778 5.33404 0
M  V30 2264 O 207.096 -1.40189 5.52904 0
M  V30 2265 O 206.03 0.479106 5.9999 0
M  V30 2266 H 209.856 1.22639 2.77837 0
M  V30 2267 H 207.441 0.662834 1.33891 0
M  V30 2268 H 209.323 -0.817841 4.13388 0
M  V30 2269 H 207.998 -1.20763 3.0033 0
M  V30 2270 H 206.905 1.03271 3.59564 0
M  V30 2271 H 208.238 1.33979 4.73614 0
M  V30 2272 N 209.89 -1.43072 0.660911 0
M  V30 2273 C 211.138 -2.01323 0.177094 0
M  V30 2274 C 211.459 -1.5245 -1.2159 0
M  V30 2275 O 210.729 -0.740322 -1.81373 0
M  V30 2276 H 209.309 -0.744382 0.0624804 0
M  V30 2277 H 211.971 -1.75179 0.854305 0
M  V30 2278 H 211.067 -3.11649 0.167641 0
M  V30 2279 N 211.368 -0.403325 -1.52352 0
M  V30 2280 C 212.3 0.4603 -2.2453 0
M  V30 2281 C 213.313 1.01505 -1.27282 0
M  V30 2282 O 214.502 0.914982 -1.53266 0
M  V30 2283 C 211.602 1.65208 -2.95905 0
M  V30 2284 C 210.775 1.22224 -4.19976 0
M  V30 2285 C 209.834 2.28028 -4.74226 0
M  V30 2286 O 208.86 1.88857 -5.36956 0
M  V30 2287 N 210.062 3.6012 -4.55295 0
M  V30 2288 H 212.827 -0.158156 -2.99282 0
M  V30 2289 H 210.388 -0.230402 -1.60252 0
M  V30 2290 H 212.38 2.35541 -3.29093 0
M  V30 2291 H 210.95 2.17658 -2.24374 0
M  V30 2292 H 210.17 0.34725 -3.92668 0
M  V30 2293 H 211.458 0.911924 -5.00561 0
M  V30 2294 H 210.856 3.94698 -4.05253 0
M  V30 2295 H 209.413 4.26447 -4.92936 0
M  V30 2296 N 212.846 1.57033 -0.133567 0
M  V30 2297 C 214.076 1.99754 0.527429 0
M  V30 2298 C 214.484 1.01245 1.59832 0
M  V30 2299 O 213.827 -0.000645496 1.837 0
M  V30 2300 C 213.889 3.38903 1.19939 0
M  V30 2301 C 213.553 4.56174 0.274709 0
M  V30 2302 C 214.55 5.17563 -0.492398 0
M  V30 2303 C 212.235 5.01972 0.18153 0
M  V30 2304 C 214.229 6.2315 -1.34027 0
M  V30 2305 C 211.916 6.07416 -0.669958 0
M  V30 2306 C 212.914 6.67874 -1.42947 0
M  V30 2307 O 212.602 7.71279 -2.2668 0
M  V30 2308 H 212.334 0.660702 0.142999 0
M  V30 2309 H 214.888 2.04207 -0.221099 0
M  V30 2310 H 213.118 3.31248 1.99528 0
M  V30 2311 H 214.807 3.65818 1.75875 0
M  V30 2312 H 215.573 4.83087 -0.430367 0
M  V30 2313 H 211.452 4.54652 0.762422 0
M  V30 2314 H 214.996 6.70268 -1.93357 0
M  V30 2315 H 210.893 6.41321 -0.73333 0
M  V30 2316 H 211.661 7.88441 -2.1978 0
M  V30 2317 N 214.325 -0.140222 1.56975 0
M  V30 2318 C 215.258 -1.20266 1.93936 0
M  V30 2319 C 216.236 -1.41212 0.806099 0
M  V30 2320 O 217.42 -1.55713 1.06234 0
M  V30 2321 C 214.547 -2.56037 2.21726 0
M  V30 2322 C 213.593 -2.51646 3.44349 0
M  V30 2323 S 214.426 -1.97678 4.97678 0
M  V30 2324 C 215.582 -3.35165 5.28597 0
M  V30 2325 H 215.815 -0.887358 2.83749 0
M  V30 2326 H 213.348 -0.346119 1.50471 0
M  V30 2327 H 215.306 -3.34167 2.38416 0
M  V30 2328 H 213.967 -2.84755 1.32566 0
M  V30 2329 H 213.16 -3.51608 3.61092 0
M  V30 2330 H 212.762 -1.81628 3.26936 0
M  V30 2331 H 215.054 -4.31302 5.2248 0
M  V30 2332 H 215.997 -3.23269 6.30002 0
M  V30 2333 H 216.405 -3.32614 4.56101 0
M  V30 2334 N 215.803 -1.52179 -0.40978 0
M  V30 2335 C 216.75 -1.75475 -1.49924 0
M  V30 2336 C 217.72 -0.597175 -1.54994 0
M  V30 2337 O 218.905 -0.834655 -1.71575 0
M  V30 2338 C 216.045 -1.9107 -2.87378 0
M  V30 2339 C 215.158 -3.18717 -2.91622 0
M  V30 2340 C 214.293 -3.24747 -4.20372 0
M  V30 2341 C 213.332 -4.46598 -4.18588 0
M  V30 2342 N 212.469 -4.50025 -5.38908 0
M  V30 2343 H 217.309 -2.68458 -1.29361 0
M  V30 2344 H 214.846 -1.33024 -0.627934 0
M  V30 2345 H 216.804 -1.98096 -3.6717 0
M  V30 2346 H 215.434 -1.01469 -3.06437 0
M  V30 2347 H 214.486 -3.20866 -2.04326 0
M  V30 2348 H 215.798 -4.08544 -2.86169 0
M  V30 2349 H 214.952 -3.30841 -5.08556 0
M  V30 2350 H 213.691 -2.32857 -4.28519 0
M  V30 2351 H 212.696 -4.40652 -3.28794 0
M  V30 2352 H 213.921 -5.39783 -4.12081 0
M  V30 2353 H 211.867 -3.61017 -5.47725 0
M  V30 2354 H 211.784 -5.33697 -5.35447 0
M  V30 2355 H 213.052 -4.60347 -6.29048 0
M  V30 2356 N 217.281 0.66697 -1.42791 0
M  V30 2357 C 218.229 1.80157 -1.47127 0
M  V30 2358 C 219.223 1.65825 -0.346199 0
M  V30 2359 O 220.429 1.72338 -0.519572 0
M  V30 2360 H 216.804 0.594158 -0.460956 0
M  V30 2361 H 218.775 1.73619 -2.42692 0
M  V30 2362 C 217.524 3.18351 -1.39813 0
M  V30 2363 H 216.847 3.3001 -2.25684 0
M  V30 2364 H 218.287 3.97736 -1.46908 0
M  V30 2365 C 216.746 3.36707 -0.11391 0
M  V30 2366 O 217.276 3.93027 0.830241 0
M  V30 2367 N 215.482 2.90586 -0.0285295 0
M  V30 2368 H 215.029 2.4494 -0.79764 0
M  V30 2369 H 214.987 3.03245 0.830063 0
M  V30 2370 N 218.759 1.29093 0.90403 0
M  V30 2371 C 219.669 1.15727 2.0407 0
M  V30 2372 C 220.685 0.0815308 1.73809 0
M  V30 2373 O 221.861 0.292749 1.99261 0
M  V30 2374 C 218.926 0.830424 3.36608 0
M  V30 2375 C 217.987 1.98955 3.80415 0
M  V30 2376 C 217.22 1.6782 5.06628 0
M  V30 2377 O 217.443 0.597105 5.67266 0
M  V30 2378 O 216.377 2.52486 5.46383 0
M  V30 2379 H 220.203 2.11171 2.18267 0
M  V30 2380 H 217.788 1.08504 1.027 0
M  V30 2381 H 219.67 0.662521 4.16159 0
M  V30 2382 H 218.345 -0.0942678 3.23563 0
M  V30 2383 H 217.252 2.21267 3.01648 0
M  V30 2384 H 218.585 2.89529 3.98037 0
M  V30 2385 N 220.237 -1.11381 1.11499 0
M  V30 2386 C 221.653 -1.35143 0.849031 0
M  V30 2387 C 221.853 -1.94515 -0.525938 0
M  V30 2388 O 220.909 -2.1785 -1.27662 0
M  V30 2389 C 222.222 -2.28249 1.95762 0
M  V30 2390 C 223.77 -2.41812 1.98736 0
M  V30 2391 C 224.245 -3.3824 3.088 0
M  V30 2392 N 225.736 -3.45803 3.08179 0
M  V30 2393 C 226.471 -4.20358 3.89982 0
M  V30 2394 N 225.967 -4.97884 4.8175 0
M  V30 2395 N 227.76 -4.15877 3.78157 0
M  V30 2396 H 219.911 -0.712062 2.00109 0
M  V30 2397 H 222.174 -0.376025 0.870235 0
M  V30 2398 H 221.88 -1.91817 2.94787 0
M  V30 2399 H 221.754 -3.28473 1.85433 0
M  V30 2400 H 224.141 -2.77518 1.00338 0
M  V30 2401 H 224.222 -1.41437 2.13141 0
M  V30 2402 H 223.866 -3.03261 4.07425 0
M  V30 2403 H 223.796 -4.38471 2.91635 0
M  V30 2404 H 226.287 -2.90506 2.41691 0
M  V30 2405 H 226.6 -5.52142 5.40702 0
M  V30 2406 H 224.945 -4.97043 4.85771 0
M  V30 2407 H 228.136 -3.544 3.05808 0
M  V30 2408 H 228.309 -4.73723 4.42143 0
M  V30 2409 N 221.715 -0.905404 -1.28997 0
M  V30 2410 C 222.943 -0.549846 -1.9946 0
M  V30 2411 C 223.358 0.866834 -1.67724 0
M  V30 2412 O 222.715 1.57298 -0.925404 0
M  V30 2413 C 222.766 -0.739387 -3.53858 0
M  V30 2414 O 222.487 -2.10031 -3.84472 0
M  V30 2415 C 223.988 -0.389541 -4.41585 0
M  V30 2416 H 221.208 -0.210429 -0.637151 0
M  V30 2417 H 223.752 -1.21632 -1.64396 0
M  V30 2418 H 221.907 -0.120023 -3.87214 0
M  V30 2419 H 222.321 -2.13385 -4.79132 0
M  V30 2420 H 223.795 -0.572972 -5.49018 0
M  V30 2421 H 224.272 0.673756 -4.34001 0
M  V30 2422 H 224.878 -0.986089 -4.1371 0
M  V30 2423 N 223.193 1.4272 -0.668489 0
M  V30 2424 C 224.418 2.06484 -0.194758 0
M  V30 2425 C 224.843 1.49862 1.13679 0
M  V30 2426 O 224.201 0.614582 1.70565 0
M  V30 2427 C 224.249 3.60353 -0.133546 0
M  V30 2428 O 223.353 4.02464 0.899806 0
M  V30 2429 H 222.694 0.656137 -0.10188 0
M  V30 2430 H 225.224 1.82964 -0.915722 0
M  V30 2431 H 225.234 4.07976 0.0447041 0
M  V30 2432 H 223.909 4.00938 -1.1055 0
M  V30 2433 H 222.486 3.66402 0.693109 0
M  V30 2434 N 224.671 0.411399 1.52136 0
M  V30 2435 C 225.92 -0.165009 2.01024 0
M  V30 2436 C 226.233 -1.4603 1.30133 0
M  V30 2437 O 227.439 -2.1181 1.69849 0
M  V30 2438 C 225.895 -0.344618 3.58246 0
M  V30 2439 C 225.503 0.938716 4.38055 0
M  V30 2440 C 227.247 -0.876195 4.15359 0
M  V30 2441 C 225.154 0.726172 5.86925 0
M  V30 2442 H 224.084 -0.0654407 0.751155 0
M  V30 2443 H 226.735 0.537192 1.75461 0
M  V30 2444 H 225.117 -1.10921 3.80148 0
M  V30 2445 H 226.291 1.70963 4.27912 0
M  V30 2446 H 224.606 1.39688 3.92271 0
M  V30 2447 H 227.203 -1.05128 5.24263 0
M  V30 2448 H 227.546 -1.85152 3.7286 0
M  V30 2449 H 228.079 -0.170607 3.97434 0
M  V30 2450 H 224.818 1.67312 6.33788 0
M  V30 2451 H 224.338 -0.00540283 5.998 0
M  V30 2452 H 226.017 0.369231 6.45946 0
M  V30 2453 N 226.149 -1.5696 0.141893 0
M  V30 2454 C 227.374 -2.00754 -0.520838 0
M  V30 2455 C 227.799 -1.0213 -1.57959 0
M  V30 2456 O 227.157 0.00371324 -1.813 0
M  V30 2457 C 227.205 -3.43318 -1.10294 0
M  V30 2458 O 226.309 -3.47679 -2.21795 0
M  V30 2459 H 225.65 -0.651564 -0.127908 0
M  V30 2460 H 228.18 -2.03221 0.23712 0
M  V30 2461 H 228.19 -3.82012 -1.43287 0
M  V30 2462 H 226.865 -4.14608 -0.327574 0
M  V30 2463 H 225.442 -3.20824 -1.9007 0
M  V30 2464 N 227.627 0.131896 -1.57047 0
M  V30 2465 C 228.874 0.841932 -1.84168 0
M  V30 2466 C 229.202 1.8048 -0.725066 0
M  V30 2467 O 228.457 1.93618 0.284692 0
M  V30 2468 C 228.756 1.63703 -3.17704 0
M  V30 2469 C 228.422 0.81961 -4.43388 0
M  V30 2470 C 227.084 0.594148 -4.77518 0
M  V30 2471 C 229.436 0.248977 -5.20605 0
M  V30 2472 C 226.764 -0.212409 -5.86315 0
M  V30 2473 C 229.116 -0.544701 -6.30251 0
M  V30 2474 C 227.78 -0.780599 -6.6292 0
M  V30 2475 H 227.05 0.308085 -0.673917 0
M  V30 2476 H 229.697 0.104867 -1.91213 0
M  V30 2477 H 228.002 2.44464 -3.06177 0
M  V30 2478 H 229.699 2.19015 -3.35907 0
M  V30 2479 H 226.289 1.00542 -4.16641 0
M  V30 2480 H 230.473 0.410408 -4.946 0
M  V30 2481 H 225.729 -0.404524 -6.1006 0
M  V30 2482 H 229.903 -0.993922 -6.89271 0
M  V30 2483 H 227.53 -1.40742 -7.47058 0
M  V30 2484 N 229.106 1.52395 0.401703 0
M  V30 2485 C 230.331 1.70972 1.17403 0
M  V30 2486 C 230.756 0.421615 1.83314 0
M  V30 2487 O 230.114 -0.621564 1.70312 0
M  V30 2488 C 230.162 2.85151 2.20728 0
M  V30 2489 O 229.266 2.51238 3.27037 0
M  V30 2490 H 228.607 0.568927 0.342372 0
M  V30 2491 H 231.137 1.99131 0.469891 0
M  V30 2492 H 231.147 3.10279 2.64936 0
M  V30 2493 H 229.822 3.78603 1.7214 0
M  V30 2494 H 228.399 2.36808 2.88057 0
M  V30 2495 N 230.584 -0.659388 1.43143 0
M  V30 2496 C 231.494 -1.80167 1.50256 0
M  V30 2497 C 232.51 -1.69571 0.390106 0
M  V30 2498 O 233.686 -1.90849 0.643319 0
M  V30 2499 C 230.751 -3.16409 1.41725 0
M  V30 2500 C 229.812 -3.38848 2.63591 0
M  V30 2501 C 229.045 -4.68591 2.55458 0
M  V30 2502 O 229.268 -5.47532 1.59891 0
M  V30 2503 O 228.202 -4.92614 3.45854 0
M  V30 2504 H 232.028 -1.77121 2.46702 0
M  V30 2505 H 229.613 -0.817092 1.25076 0
M  V30 2506 H 231.495 -3.9768 1.39387 0
M  V30 2507 H 230.17 -3.20059 0.484118 0
M  V30 2508 H 229.077 -2.57366 2.71502 0
M  V30 2509 H 230.41 -3.4004 3.55856 0
M  V30 2510 N 232.062 -1.29571 -0.897171 0
M  V30 2511 C 232.994 -1.10724 -2.00681 0
M  V30 2512 C 234.007 -0.0540026 -1.6271 0
M  V30 2513 O 235.196 -0.298783 -1.75982 0
M  V30 2514 C 232.296 -0.663912 -3.32333 0
M  V30 2515 C 231.469 -1.79622 -3.98816 0
M  V30 2516 C 230.528 -1.34349 -5.0876 0
M  V30 2517 O 229.554 -2.04864 -5.31055 0
M  V30 2518 N 230.756 -0.215764 -5.80099 0
M  V30 2519 H 233.521 -2.06291 -2.17403 0
M  V30 2520 H 231.082 -1.21544 -1.06951 0
M  V30 2521 H 233.074 -0.344295 -4.03233 0
M  V30 2522 H 231.644 0.199375 -3.11964 0
M  V30 2523 H 230.864 -2.28459 -3.21248 0
M  V30 2524 H 232.152 -2.55535 -4.39976 0
M  V30 2525 H 231.55 0.372091 -5.64475 0
M  V30 2526 H 230.107 0.0444707 -6.51785 0
M  V30 2527 N 233.54 1.10788 -1.12088 0
M  V30 2528 C 234.472 2.16816 -0.743213 0
M  V30 2529 C 235.485 1.6119 0.228412 0
M  V30 2530 O 236.674 1.78497 0.0102931 0
M  V30 2531 C 233.774 3.38809 -0.0787313 0
M  V30 2532 C 232.947 4.23885 -1.0789 0
M  V30 2533 C 232.006 5.24334 -0.442713 0
M  V30 2534 O 231.032 5.58497 -1.09864 0
M  V30 2535 N 232.234 5.75079 0.791457 0
M  V30 2536 H 234.999 2.49825 -1.65552 0
M  V30 2537 H 232.56 1.26373 -1.012 0
M  V30 2538 H 234.552 4.03107 0.358766 0
M  V30 2539 H 233.122 3.03805 0.736275 0
M  V30 2540 H 232.342 3.55939 -1.69414 0
M  V30 2541 H 233.63 4.77562 -1.75533 0
M  V30 2542 H 233.028 5.49517 1.3434 0
M  V30 2543 H 231.585 6.4118 1.17183 0
M  V30 2544 N 235.018 0.912232 1.28515 0
M  V30 2545 C 235.948 0.416403 2.29757 0
M  V30 2546 C 236.929 -0.515194 1.6211 0
M  V30 2547 O 238.114 -0.423253 1.89532 0
M  V30 2548 C 235.244 -0.34572 3.45575 0
M  V30 2549 C 234.198 0.496599 4.25109 0
M  V30 2550 C 233.524 -0.393771 5.33248 0
M  V30 2551 C 234.824 1.75307 4.92001 0
M  V30 2552 H 236.518 1.26249 2.7148 0
M  V30 2553 H 234.064 0.608515 1.30511 0
M  V30 2554 H 236.017 -0.703422 4.15488 0
M  V30 2555 H 234.741 -1.2257 3.02728 0
M  V30 2556 H 233.4 0.8368 3.56922 0
M  V30 2557 H 233.048 -1.27225 4.86644 0
M  V30 2558 H 232.748 0.166209 5.87365 0
M  V30 2559 H 234.272 -0.747389 6.06009 0
M  V30 2560 H 235.686 1.46437 5.54283 0
M  V30 2561 H 234.083 2.25534 5.56106 0
M  V30 2562 H 235.153 2.48176 4.16577 0
M  V30 2563 N 236.496 -1.42363 0.676048 0
M  V30 2564 C 237.742 -2.0182 0.199125 0
M  V30 2565 C 238.075 -1.53339 -1.19168 0
M  V30 2566 O 237.35 -0.736124 -1.80032 0
M  V30 2567 C 237.633 -3.59331 0.235144 0
M  V30 2568 C 237.486 -4.17989 1.66149 0
M  V30 2569 C 238.805 -4.3813 -0.41595 0
M  V30 2570 H 235.924 -0.733293 0.0738311 0
M  V30 2571 H 238.566 -1.69368 0.86107 0
M  V30 2572 H 236.716 -3.87109 -0.328487 0
M  V30 2573 H 238.388 -4.0116 2.27747 0
M  V30 2574 H 236.631 -3.7377 2.20178 0
M  V30 2575 H 237.302 -5.27126 1.63837 0
M  V30 2576 H 239.778 -4.16051 0.0638529 0
M  V30 2577 H 238.654 -5.47717 -0.360115 0
M  V30 2578 H 238.915 -4.16101 -1.49373 0
M  V30 2579 N 237.974 -0.419461 -1.51915 0
M  V30 2580 C 239.251 0.211999 -1.94448 0
M  V30 2581 C 239.631 1.61703 -1.35703 0
M  V30 2582 O 238.979 2.22102 -0.536931 0
M  V30 2583 C 239.189 0.207872 -3.4838 0
M  V30 2584 C 240.537 0.422192 -4.22496 0
M  V30 2585 O 241.561 0.286778 -3.55044 0
M  V30 2586 O 240.42 0.690009 -5.42126 0
M  V30 2587 H 237.514 0.139586 -0.815135 0
M  V30 2588 H 240.06 -0.476151 -1.62883 0
M  V30 2589 H 238.832 -0.775102 -3.83546 0
M  V30 2590 H 238.455 0.939688 -3.86336 0
M  V30 2591 N 239.452 1.56882 -0.150215 0
M  V30 2592 C 240.692 1.98119 0.502804 0
M  V30 2593 C 241.056 1.03327 1.61826 0
M  V30 2594 O 242.257 1.33621 2.33236 0
M  V30 2595 C 240.528 3.43329 0.992988 0
M  V30 2596 S 242.087 4.0659 1.65015 0
M  V30 2597 H 238.905 0.692189 0.162467 0
M  V30 2598 H 241.507 1.93988 -0.242689 0
M  V30 2599 H 240.211 4.10046 0.170436 0
M  V30 2600 H 239.742 3.5118 1.77303 0
M  V30 2601 H 241.757 3.99906 2.93752 0
M  V30 2602 N 240.93 -0.123565 1.57115 0
M  V30 2603 C 242.155 -0.850398 1.89164 0
M  V30 2604 C 242.58 -1.7286 0.741688 0
M  V30 2605 O 241.938 -1.78665 -0.307958 0
M  V30 2606 C 241.986 -1.66353 3.19936 0
M  V30 2607 O 241.09 -2.77004 3.0552 0
M  V30 2608 H 240.431 -0.235454 0.620852 0
M  V30 2609 H 242.961 -0.107335 2.04318 0
M  V30 2610 H 242.971 -2.05372 3.52543 0
M  V30 2611 H 241.646 -1.01881 4.03228 0
M  V30 2612 H 240.223 -2.41221 2.84371 0
M  V30 2613 N 242.408 -1.52605 -0.393616 0
M  V30 2614 C 243.656 -1.67093 -1.13685 0
M  V30 2615 C 243.977 -0.411011 -1.90619 0
M  V30 2616 O 243.247 0.574491 -1.87287 0
M  V30 2617 H 241.827 -0.615923 -0.422668 0
M  V30 2618 H 244.489 -1.89704 -0.447039 0
M  V30 2619 H 243.585 -2.51922 -1.84232 0
M  V30 2620 N 243.887 0.651787 -1.4349 0
M  V30 2621 C 245.298 1.233 -1.40193 0
M  V30 2622 C 245.649 1.9591 -0.106727 0
M  V30 2623 O 244.774 2.01316 0.793773 0
M  V30 2624 C 245.369 2.24257 -2.53957 0
M  V30 2625 C 243.928 2.77852 -2.5392 0
M  V30 2626 C 243.075 1.52517 -2.3159 0
M  V30 2627 H 246.026 0.443717 -1.52371 0
M  V30 2628 H 246.047 3.0646 -2.25528 0
M  V30 2629 H 245.559 1.71382 -3.4821 0
M  V30 2630 H 243.66 3.34786 -1.63551 0
M  V30 2631 H 243.773 3.25299 -3.51735 0
M  V30 2632 H 242.137 1.79915 -1.80285 0
M  V30 2633 H 242.92 1.01574 -3.27929 0
M  V30 2634 N 245.365 1.30045 0.890287 0
M  V30 2635 C 246.611 1.19747 1.64415 0
M  V30 2636 C 246.966 -0.246591 1.90813 0
M  V30 2637 O 246.259 -1.174 1.51419 0
M  V30 2638 C 246.453 1.95409 2.99249 0
M  V30 2639 C 246.282 3.47025 2.86013 0
M  V30 2640 C 245.052 4.1638 2.86279 0
M  V30 2641 C 247.25 4.42353 2.62351 0
M  V30 2642 N 245.232 5.54293 2.63879 0
M  V30 2643 C 246.603 5.67792 2.49022 0
M  V30 2644 C 248.658 4.32009 2.47533 0
M  V30 2645 C 247.361 6.8406 2.22383 0
M  V30 2646 C 249.387 5.48038 2.22279 0
M  V30 2647 C 248.749 6.72455 2.09722 0
M  V30 2648 H 244.848 0.493223 0.60684 0
M  V30 2649 H 247.432 1.6399 1.04954 0
M  V30 2650 H 245.603 1.53565 3.56752 0
M  V30 2651 H 247.335 1.77298 3.63796 0
M  V30 2652 H 244.09 3.68164 2.97913 0
M  V30 2653 H 244.514 6.26852 2.55706 0
M  V30 2654 H 249.156 3.36503 2.55979 0
M  V30 2655 H 246.874 7.79612 2.12675 0
M  V30 2656 H 250.46 5.41939 2.11643 0
M  V30 2657 H 249.34 7.60722 1.90453 0
M  V30 2658 N 246.843 -1.10192 1.12674 0
M  V30 2659 C 248.091 -1.81845 0.881861 0
M  V30 2660 C 248.412 -1.85737 -0.593867 0
M  V30 2661 O 247.682 -1.33724 -1.4316 0
M  V30 2662 H 246.262 -0.673432 0.323261 0
M  V30 2663 H 248.924 -1.33316 1.42172 0
M  V30 2664 H 248.02 -2.85288 1.2656 0
M  V30 2665 N 248.321 -0.919034 -1.28029 0
M  V30 2666 C 249.269 -0.401753 -2.29104 0
M  V30 2667 C 250.263 0.509354 -1.61561 0
M  V30 2668 O 251.469 0.390014 -1.75724 0
M  V30 2669 H 247.844 -0.111331 -0.743713 0
M  V30 2670 H 249.815 -1.2672 -2.70156 0
M  V30 2671 C 248.564 0.338148 -3.46052 0
M  V30 2672 H 247.887 -0.353732 -3.98232 0
M  V30 2673 H 249.327 0.664653 -4.18758 0
M  V30 2674 C 247.786 1.54798 -2.99231 0
M  V30 2675 O 248.316 2.64696 -3.02157 0
M  V30 2676 N 246.522 1.3968 -2.54829 0
M  V30 2677 H 246.069 0.502698 -2.52647 0
M  V30 2678 H 246.027 2.20755 -2.23863 0
M  V30 2679 N 249.799 1.42003 -0.683588 0
M  V30 2680 C 250.747 2.326 0.000815408 0
M  V30 2681 C 251.741 1.50308 0.781278 0
M  V30 2682 O 252.947 1.66322 0.688251 0
M  V30 2683 H 249.322 0.751758 0.0190616 0
M  V30 2684 H 251.293 2.88011 -0.780528 0
M  V30 2685 C 250.042 3.34978 0.93195 0
M  V30 2686 H 249.365 3.98345 0.340817 0
M  V30 2687 H 250.805 4.00936 1.37936 0
M  V30 2688 C 249.264 2.67925 2.04249 0
M  V30 2689 O 249.794 2.51788 3.12995 0
M  V30 2690 N 248 2.2681 1.81675 0
M  V30 2691 H 247.547 2.40135 0.932363 0
M  V30 2692 H 247.505 1.8228 2.56167 0
M  V30 2693 N 251.277 0.427512 1.51691 0
M  V30 2694 C 252.525 -0.141948 2.01601 0
M  V30 2695 C 252.846 -1.44067 1.31414 0
M  V30 2696 O 252.116 -1.90763 0.445658 0
M  V30 2697 H 250.696 -0.0554468 0.744939 0
M  V30 2698 H 253.358 0.567968 1.86441 0
M  V30 2699 H 252.454 -0.324913 3.10404 0
M  V30 2700 N 252.755 -1.56801 0.158532 0
M  V30 2701 C 253.995 -1.98383 -0.49229 0
M  V30 2702 C 254.359 -1.04184 -1.61275 0
M  V30 2703 O 255.56 -1.34856 -2.32524 0
M  V30 2704 C 253.831 -3.4385 -0.974766 0
M  V30 2705 S 255.39 -4.07459 -1.62857 0
M  V30 2706 H 252.208 -0.693041 -0.158794 0
M  V30 2707 H 254.81 -1.93856 0.252974 0
M  V30 2708 H 253.514 -4.10131 -0.148688 0
M  V30 2709 H 253.045 -3.52115 -1.75438 0
M  V30 2710 H 255.06 -4.01458 -2.91627 0
M  V30 2711 N 254.233 0.115231 -1.57178 0
M  V30 2712 C 255.458 0.840354 -1.89612 0
M  V30 2713 C 255.883 1.72464 -0.750845 0
M  V30 2714 O 255.241 1.78826 0.298478 0
M  V30 2715 C 255.289 1.64654 -3.20814 0
M  V30 2716 O 254.393 2.7538 -3.06985 0
M  V30 2717 H 253.734 0.232158 -0.622092 0
M  V30 2718 H 256.264 0.0964977 -2.04372 0
M  V30 2719 H 256.274 2.03499 -3.53627 0
M  V30 2720 H 254.949 0.997416 -4.03763 0
M  V30 2721 H 253.526 2.3971 -2.85646 0
M  V30 2722 N 255.711 1.52812 0.385517 0
M  V30 2723 C 256.959 1.67694 1.12797 0
M  V30 2724 C 257.28 0.421115 1.90399 0
M  V30 2725 O 256.55 -0.564551 1.87589 0
M  V30 2726 H 255.13 0.618155 0.419396 0
M  V30 2727 H 257.792 1.89938 0.436972 0
M  V30 2728 H 256.888 2.52896 1.82894 0
M  V30 2729 N 257.189 -0.644168 1.43834 0
M  V30 2730 C 258.437 -1.40117 1.45642 0
M  V30 2731 C 258.758 -1.94814 0.0852413 0
M  V30 2732 O 258.028 -1.74988 -0.880688 0
M  V30 2733 H 256.608 -0.52005 0.536243 0
M  V30 2734 H 259.27 -0.7591 1.7951 0
M  V30 2735 H 258.366 -2.23902 2.17427 0
M  V30 2736 N 258.668 -1.30515 -0.883378 0
M  V30 2737 C 259.598 -1.19607 -2.00541 0
M  V30 2738 C 260.579 -0.086346 -1.69881 0
M  V30 2739 O 261.764 -0.268654 -1.92333 0
M  V30 2740 C 258.894 -0.888758 -3.35736 0
M  V30 2741 C 257.848 -1.95659 -3.8066 0
M  V30 2742 C 257.174 -1.50224 -5.13164 0
M  V30 2743 C 258.474 -3.36788 -3.99213 0
M  V30 2744 H 260.168 -2.13476 -2.09925 0
M  V30 2745 H 257.714 -1.02775 -1.00863 0
M  V30 2746 H 259.667 -0.799094 -4.13754 0
M  V30 2747 H 258.391 0.0856125 -3.26488 0
M  V30 2748 H 257.05 -2.03591 -3.04871 0
M  V30 2749 H 256.698 -0.516092 -5.00345 0
M  V30 2750 H 256.398 -2.2165 -5.44192 0
M  V30 2751 H 257.922 -1.42639 -5.93706 0
M  V30 2752 H 259.336 -3.31605 -4.67665 0
M  V30 2753 H 257.733 -4.06314 -4.41621 0
M  V30 2754 H 258.803 -3.78561 -3.03017 0
M  V30 2755 N 260.146 1.09593 -1.13257 0
M  V30 2756 C 261.079 2.15451 -0.752061 0
M  V30 2757 C 262.057 1.60493 0.260913 0
M  V30 2758 O 263.241 1.8788 0.152819 0
M  V30 2759 C 260.368 3.38506 -0.114594 0
M  V30 2760 C 259.414 4.12183 -1.09579 0
M  V30 2761 S 260.247 4.6661 -2.62745 0
M  V30 2762 C 261.403 5.92966 -2.00354 0
M  V30 2763 H 261.636 2.47395 -1.64872 0
M  V30 2764 H 259.169 1.21515 -0.952545 0
M  V30 2765 H 261.127 4.09757 0.246808 0
M  V30 2766 H 259.788 3.04784 0.759309 0
M  V30 2767 H 258.981 5.00445 -0.597545 0
M  V30 2768 H 258.583 3.46785 -1.40057 0
M  V30 2769 H 260.875 6.63882 -1.35156 0
M  V30 2770 H 261.818 6.47467 -2.86691 0
M  V30 2771 H 262.226 5.45405 -1.4558 0
M  V30 2772 N 261.624 0.925811 1.2754 0
M  V30 2773 C 262.534 0.428993 2.30644 0
M  V30 2774 C 263.55 -0.489387 1.66976 0
M  V30 2775 O 264.726 -0.372653 1.97922 0
M  V30 2776 C 261.791 -0.311967 3.45294 0
M  V30 2777 C 260.852 0.641098 4.24486 0
M  V30 2778 C 260.085 -0.0645955 5.33661 0
M  V30 2779 O 260.308 -1.28429 5.55754 0
M  V30 2780 O 259.242 0.606265 5.98839 0
M  V30 2781 H 263.068 1.28504 2.75173 0
M  V30 2782 H 260.653 0.691086 1.32455 0
M  V30 2783 H 262.535 -0.729972 4.15029 0
M  V30 2784 H 261.21 -1.14365 3.02824 0
M  V30 2785 H 260.117 1.10874 3.57292 0
M  V30 2786 H 261.45 1.43995 4.70666 0
M  V30 2787 N 263.102 -1.41638 0.69111 0
M  V30 2788 C 264.05 -2.32597 0.0115199 0
M  V30 2789 C 265.044 -1.5072 -0.773296 0
M  V30 2790 O 266.25 -1.66685 -0.67942 0
M  V30 2791 H 262.625 -0.751849 -0.0150746 0
M  V30 2792 H 264.596 -2.87593 0.795791 0
M  V30 2793 C 263.345 -3.35467 -0.914172 0
M  V30 2794 H 262.668 -3.9852 -0.319687 0
M  V30 2795 H 264.108 -4.01662 -1.35808 0
M  V30 2796 C 262.567 -2.69004 -2.02826 0
M  V30 2797 O 263.097 -2.53444 -3.11655 0
M  V30 2798 N 261.303 -2.2777 -1.80469 0
M  V30 2799 H 260.85 -2.40626 -0.919615 0
M  V30 2800 H 260.808 -1.83635 -2.55197 0
M  V30 2801 N 264.58 -0.43555 -1.51462 0
M  V30 2802 C 265.543 0.365137 -2.26273 0
M  V30 2803 C 266.543 0.951227 -1.29647 0
M  V30 2804 O 267.733 0.825958 -1.53374 0
M  V30 2805 C 264.865 1.51645 -3.05314 0
M  V30 2806 H 266.058 -0.290474 -2.9849 0
M  V30 2807 H 263.611 -0.188676 -1.55157 0
M  V30 2808 H 264.346 2.20816 -2.3751 0
M  V30 2809 H 264.131 1.10238 -3.76284 0
M  V30 2810 H 265.621 2.08218 -3.61987 0
M  V30 2811 N 266.058 1.56714 -0.166846 0
M  V30 2812 C 267.288 2.00828 0.48494 0
M  V30 2813 C 267.696 1.04612 1.57648 0
M  V30 2814 O 267.039 0.0383201 1.8366 0
M  V30 2815 C 267.101 3.4137 1.12723 0
M  V30 2816 C 266.765 4.56654 0.177886 0
M  V30 2817 C 267.762 5.16402 -0.60207 0
M  V30 2818 C 265.447 5.02244 0.0750139 0
M  V30 2819 C 267.441 6.20167 -1.47215 0
M  V30 2820 C 265.128 6.05859 -0.798649 0
M  V30 2821 C 266.126 6.64691 -1.57082 0
M  V30 2822 O 265.814 7.66297 -2.42989 0
M  V30 2823 H 265.546 0.663587 0.128953 0
M  V30 2824 H 268.1 2.03692 -0.264365 0
M  V30 2825 H 266.33 3.35406 1.92457 0
M  V30 2826 H 268.019 3.69466 1.68076 0
M  V30 2827 H 268.785 4.82065 -0.53274 0
M  V30 2828 H 264.664 4.56167 0.665812 0
M  V30 2829 H 268.208 6.66016 -2.07531 0
M  V30 2830 H 264.105 6.39621 -0.869199 0
M  V30 2831 H 264.873 7.83601 -2.36455 0
M  V30 2832 N 267.536 -0.106894 1.57237 0
M  V30 2833 C 268.468 -1.15646 1.97885 0
M  V30 2834 C 269.481 -1.36981 0.879779 0
M  V30 2835 O 270.67 -1.35841 1.15799 0
M  V30 2836 C 267.77 -2.51425 2.27241 0
M  V30 2837 C 266.943 -2.50529 3.58545 0
M  V30 2838 C 266.002 -3.68145 3.75973 0
M  V30 2839 O 265.028 -3.51176 4.47956 0
M  V30 2840 N 266.23 -4.87177 3.15656 0
M  V30 2841 H 268.995 -0.81059 2.8853 0
M  V30 2842 H 266.556 -0.296024 1.59171 0
M  V30 2843 H 268.548 -3.28689 2.36105 0
M  V30 2844 H 267.118 -2.78147 1.42663 0
M  V30 2845 H 266.338 -1.58894 3.60758 0
M  V30 2846 H 267.626 -2.46997 4.44826 0
M  V30 2847 H 267.024 -5.03868 2.57165 0
M  V30 2848 H 265.581 -5.62075 3.30023 0
M  V30 2849 N 269.014 -1.53014 -0.377408 0
M  V30 2850 C 270.244 -1.72265 -1.14054 0
M  V30 2851 C 270.652 -0.44601 -1.83868 0
M  V30 2852 O 269.995 0.590095 -1.73964 0
M  V30 2853 C 270.057 -2.82492 -2.22348 0
M  V30 2854 C 269.721 -4.23233 -1.72402 0
M  V30 2855 C 270.718 -5.05992 -1.19448 0
M  V30 2856 C 268.403 -4.696 -1.78273 0
M  V30 2857 C 270.397 -6.33203 -0.730268 0
M  V30 2858 C 268.084 -5.96792 -1.31464 0
M  V30 2859 C 269.082 -6.78424 -0.789297 0
M  V30 2860 O 268.77 -8.0323 -0.328077 0
M  V30 2861 H 268.502 -0.579873 -0.347453 0
M  V30 2862 H 271.056 -2.00502 -0.445882 0
M  V30 2863 H 269.286 -2.49702 -2.95272 0
M  V30 2864 H 270.975 -2.90034 -2.83963 0
M  V30 2865 H 271.741 -4.71349 -1.14259 0
M  V30 2866 H 267.62 -4.06142 -2.18106 0
M  V30 2867 H 271.164 -6.96868 -0.319542 0
M  V30 2868 H 267.061 -6.30937 -1.36342 0
M  V30 2869 H 267.829 -8.1727 -0.448493 0
M  V30 2870 N 270.492 0.636531 -1.44174 0
M  V30 2871 C 271.422 1.76003 -1.53444 0
M  V30 2872 C 272.403 1.65619 -0.387841 0
M  V30 2873 O 273.588 1.84461 -0.607257 0
M  V30 2874 C 270.718 3.14511 -1.4731 0
M  V30 2875 C 269.672 3.39677 -2.60391 0
M  V30 2876 C 268.998 4.78159 -2.39308 0
M  V30 2877 C 270.298 3.32772 -4.02567 0
M  V30 2878 H 271.992 1.68501 -2.47483 0
M  V30 2879 H 269.538 0.809237 -1.19111 0
M  V30 2880 H 271.491 3.92878 -1.52397 0
M  V30 2881 H 270.215 3.22783 -0.49785 0
M  V30 2882 H 268.874 2.63688 -2.54684 0
M  V30 2883 H 268.522 4.83128 -1.39988 0
M  V30 2884 H 268.222 4.95956 -3.15122 0
M  V30 2885 H 269.746 5.58762 -2.46205 0
M  V30 2886 H 271.16 4.01051 -4.09672 0
M  V30 2887 H 269.557 3.62104 -4.7854 0
M  V30 2888 H 270.627 2.30669 -4.2652 0
M  V30 2889 N 271.97 1.30982 0.876444 0
M  V30 2890 C 272.917 1.18085 1.98304 0
M  V30 2891 C 273.887 0.0682263 1.6596 0
M  V30 2892 O 275.072 0.239937 1.89285 0
M  V30 2893 C 272.212 0.887475 3.33493 0
M  V30 2894 C 271.325 2.08281 3.78475 0
M  V30 2895 C 270.46 1.72678 5.0235 0
M  V30 2896 C 269.499 2.88657 5.39762 0
M  V30 2897 N 268.636 2.53292 6.54819 0
M  V30 2898 H 273.476 2.1275 2.08666 0
M  V30 2899 H 271.013 1.05839 1.02159 0
M  V30 2900 H 272.971 0.697961 4.1132 0
M  V30 2901 H 271.601 -0.022315 3.22792 0
M  V30 2902 H 270.653 2.3833 2.96484 0
M  V30 2903 H 271.965 2.95108 4.02135 0
M  V30 2904 H 271.119 1.50151 5.87826 0
M  V30 2905 H 269.858 0.830327 4.8058 0
M  V30 2906 H 268.863 3.1184 4.52809 0
M  V30 2907 H 270.088 3.79002 5.63502 0
M  V30 2908 H 268.034 1.66163 6.34607 0
M  V30 2909 H 267.951 3.3365 6.7839 0
M  V30 2910 H 269.219 2.34143 7.43503 0
M  V30 2911 N 273.449 -1.08991 1.13837 0
M  V30 2912 C 274.381 -2.15606 0.777612 0
M  V30 2913 C 275.394 -1.61533 -0.202739 0
M  V30 2914 O 276.583 -1.78491 0.0181055 0
M  V30 2915 C 273.683 -3.3864 0.132623 0
M  V30 2916 C 272.856 -4.22115 1.1462 0
M  V30 2917 C 271.915 -5.23564 0.526074 0
M  V30 2918 O 270.941 -5.56678 1.18735 0
M  V30 2919 N 272.143 -5.76266 -0.699866 0
M  V30 2920 H 274.908 -2.47159 1.69506 0
M  V30 2921 H 272.469 -1.24747 1.03198 0
M  V30 2922 H 274.461 -4.03626 -0.29459 0
M  V30 2923 H 273.031 -3.04938 -0.687849 0
M  V30 2924 H 272.251 -3.53199 1.75055 0
M  V30 2925 H 273.539 -4.74709 1.83109 0
M  V30 2926 H 272.937 -5.51585 -1.25581 0
M  V30 2927 H 271.494 -6.42963 -1.06968 0
M  V30 2928 N 274.927 -0.932562 -1.27047 0
M  V30 2929 C 276.174 -0.575559 -1.94148 0
M  V30 2930 C 276.502 0.883984 -1.73251 0
M  V30 2931 O 275.757 1.64655 -1.0577 0
M  V30 2932 C 276.056 -0.853713 -3.47054 0
M  V30 2933 C 275.722 -2.29577 -3.88079 0
M  V30 2934 C 274.384 -2.68999 -3.9899 0
M  V30 2935 C 276.736 -3.23331 -4.08787 0
M  V30 2936 C 274.064 -4.01289 -4.28 0
M  V30 2937 C 276.416 -4.55207 -4.39282 0
M  V30 2938 C 275.08 -4.94457 -4.48407 0
M  V30 2939 H 274.35 -0.210612 -0.710439 0
M  V30 2940 H 276.997 -1.17744 -1.51025 0
M  V30 2941 H 275.302 -0.169204 -3.91434 0
M  V30 2942 H 276.999 -0.55639 -3.97121 0
M  V30 2943 H 273.589 -1.97994 -3.80127 0
M  V30 2944 H 277.773 -2.94074 -3.99793 0
M  V30 2945 H 273.029 -4.31374 -4.33275 0
M  V30 2946 H 277.203 -5.27852 -4.54252 0
M  V30 2947 H 274.83 -5.96994 -4.7064 0
M  V30 2948 N 276.405 1.4127 -0.698611 0
M  V30 2949 C 277.653 2.00782 -0.230409 0
M  V30 2950 C 277.974 1.5562 1.17505 0
M  V30 2951 O 277.244 0.78815 1.79346 0
M  V30 2952 H 275.824 0.742464 -0.0821944 0
M  V30 2953 H 278.486 1.72852 -0.90045 0
M  V30 2954 H 277.582 3.11095 -0.25021 0
M  V30 2955 N 277.883 0.443576 1.51229 0
M  V30 2956 C 278.813 -0.355142 2.30783 0
M  V30 2957 C 279.794 -1.0154 1.36468 0
M  V30 2958 O 280.979 -1.01785 1.65389 0
M  V30 2959 C 278.109 -1.45312 3.15439 0
M  V30 2960 C 277.063 -0.916002 4.18083 0
M  V30 2961 C 276.389 -2.1102 4.91299 0
M  V30 2962 C 277.689 0.0538602 5.22272 0
M  V30 2963 H 279.383 0.308767 2.97804 0
M  V30 2964 H 276.929 0.149937 1.43217 0
M  V30 2965 H 278.882 -2.01914 3.69876 0
M  V30 2966 H 277.606 -2.14541 2.46252 0
M  V30 2967 H 276.265 -0.372145 3.64706 0
M  V30 2968 H 275.913 -2.78882 4.18609 0
M  V30 2969 H 275.613 -1.75717 5.60712 0
M  V30 2970 H 277.137 -2.68164 5.48562 0
M  V30 2971 H 278.551 -0.422069 5.71744 0
M  V30 2972 H 276.948 0.319776 5.99247 0
M  V30 2973 H 278.018 0.98858 4.74716 0
M  V30 2974 N 279.361 -1.56624 0.175154 0
M  V30 2975 C 280.271 -2.21741 -0.766042 0
M  V30 2976 C 281.287 -1.21023 -1.25018 0
M  V30 2977 O 282.463 -1.53697 -1.3015 0
M  V30 2978 C 279.528 -2.84839 -1.97655 0
M  V30 2979 C 278.589 -4.00769 -1.53892 0
M  V30 2980 C 277.822 -4.60849 -2.69173 0
M  V30 2981 O 278.045 -4.19823 -3.86141 0
M  V30 2982 O 276.979 -5.50655 -2.43028 0
M  V30 2983 H 280.805 -3.02738 -0.241585 0
M  V30 2984 H 278.39 -1.49305 -0.053222 0
M  V30 2985 H 280.272 -3.24834 -2.68442 0
M  V30 2986 H 278.947 -2.06836 -2.48999 0
M  V30 2987 H 277.854 -3.65436 -0.80044 0
M  V30 2988 H 279.187 -4.80376 -1.07236 0
M  V30 2989 N 280.839 0.0985539 -1.57292 0
M  V30 2990 C 282.067 0.816318 -1.90115 0
M  V30 2991 C 282.482 1.72451 -0.768509 0
M  V30 2992 O 281.839 1.80643 0.259687 0
M  V30 2993 C 281.89 1.63259 -3.22535 0
M  V30 2994 O 281.611 0.760934 -4.31441 0
M  V30 2995 C 283.112 2.45372 -3.69199 0
M  V30 2996 H 280.332 0.233595 -0.629027 0
M  V30 2997 H 282.876 0.0768229 -2.04356 0
M  V30 2998 H 281.031 2.32463 -3.09903 0
M  V30 2999 H 281.445 1.32595 -5.07463 0
M  V30 3000 H 282.919 2.98144 -4.64558 0
M  V30 3001 H 283.396 3.23677 -2.96867 0
M  V30 3002 H 284.002 1.81373 -3.84687 0
M  V30 3003 N 282.317 1.53212 0.369288 0
M  V30 3004 C 283.227 1.82342 1.47609 0
M  V30 3005 C 284.243 0.711532 1.58787 0
M  V30 3006 O 285.419 1.0012 1.74751 0
M  V30 3007 C 282.484 2.00393 2.8292 0
M  V30 3008 C 281.545 3.24297 2.81301 0
M  V30 3009 C 280.778 3.41478 4.10157 0
M  V30 3010 O 281.001 2.63033 5.06132 0
M  V30 3011 O 279.935 4.34817 4.16194 0
M  V30 3012 H 283.761 2.76366 1.25918 0
M  V30 3013 H 281.346 1.38547 0.559034 0
M  V30 3014 H 283.228 2.13859 3.63101 0
M  V30 3015 H 281.903 1.09559 3.04596 0
M  V30 3016 H 280.81 3.16257 1.99831 0
M  V30 3017 H 282.143 4.15041 2.64578 0
M  V30 3018 N 283.795 -0.628877 1.44509 0
M  V30 3019 C 285.02 -1.42048 1.5112 0
M  V30 3020 C 285.445 -1.87594 0.137818 0
M  V30 3021 O 284.803 -1.58873 -0.873437 0
M  V30 3022 C 284.851 -2.61541 2.48251 0
M  V30 3023 O 283.955 -3.61453 1.98559 0
M  V30 3024 H 283.296 -0.424942 0.510216 0
M  V30 3025 H 285.826 -0.767374 1.89664 0
M  V30 3026 H 285.836 -3.09057 2.66361 0
M  V30 3027 H 284.511 -2.27736 3.48007 0
M  V30 3028 H 283.088 -3.20731 1.90227 0
M  V30 3029 N 285.273 -1.31445 -0.869486 0
M  V30 3030 C 286.498 -1.24256 -1.66058 0
M  V30 3031 C 286.923 0.188928 -1.87149 0
M  V30 3032 O 286.281 1.13522 -1.4136 0
M  V30 3033 C 286.329 -1.9924 -3.00559 0
M  V30 3034 O 285.433 -1.33007 -3.90362 0
M  V30 3035 H 284.774 -0.428973 -0.506831 0
M  V30 3036 H 287.304 -1.73521 -1.08404 0
M  V30 3037 H 287.314 -2.08854 -3.50491 0
M  V30 3038 H 285.989 -3.03342 -2.84528 0
M  V30 3039 H 284.566 -1.31848 -3.48813 0
M  V30 3040 N 286.751 1.08385 -1.14413 0
M  V30 3041 C 287.981 1.8425 -0.934644 0
M  V30 3042 C 288.389 1.81907 0.520234 0
M  V30 3043 O 287.732 1.22126 1.37226 0
M  V30 3044 C 287.794 3.32853 -1.35828 0
M  V30 3045 C 287.458 3.5893 -2.82875 0
M  V30 3046 C 288.455 3.53756 -3.80989 0
M  V30 3047 C 286.14 3.86934 -3.20293 0
M  V30 3048 C 288.134 3.76216 -5.14529 0
M  V30 3049 C 285.821 4.09047 -4.54008 0
M  V30 3050 C 286.819 4.03682 -5.50936 0
M  V30 3051 O 286.507 4.25214 -6.82238 0
M  V30 3052 H 286.239 0.588502 -0.332628 0
M  V30 3053 H 288.793 1.37792 -1.52324 0
M  V30 3054 H 287.023 3.8007 -0.713019 0
M  V30 3055 H 288.712 3.90154 -1.11957 0
M  V30 3056 H 289.478 3.32135 -3.53428 0
M  V30 3057 H 285.357 3.9023 -2.45442 0
M  V30 3058 H 288.901 3.71943 -5.90173 0
M  V30 3059 H 284.798 4.30151 -4.8129 0
M  V30 3060 H 285.566 4.42619 -6.88499 0
M  V30 3061 N 288.23 0.939286 1.26551 0
M  V30 3062 C 289.641 0.628782 1.75793 0
M  V30 3063 C 289.992 -0.856046 1.7654 0
M  V30 3064 O 289.117 -1.66994 1.3763 0
M  V30 3065 C 289.712 1.13465 3.19235 0
M  V30 3066 C 288.271 0.874601 3.66098 0
M  V30 3067 C 287.418 1.28667 2.45642 0
M  V30 3068 H 290.369 1.1178 1.12654 0
M  V30 3069 H 290.39 0.487609 3.77363 0
M  V30 3070 H 289.902 2.21535 3.1866 0
M  V30 3071 H 288.003 -0.191793 3.72106 0
M  V30 3072 H 288.116 1.50028 4.55004 0
M  V30 3073 H 286.48 0.705109 2.44745 0
M  V30 3074 H 287.263 2.37625 2.47769 0
M  V30 3075 N 289.708 -1.40897 0.706093 0
M  V30 3076 C 290.938 -2.05075 0.250523 0
M  V30 3077 C 291.346 -1.53275 -1.10921 0
M  V30 3078 O 290.689 -0.680281 -1.7064 0
M  V30 3079 C 290.751 -3.59219 0.142178 0
M  V30 3080 C 290.415 -4.33864 1.43566 0
M  V30 3081 C 291.412 -4.62448 2.37566 0
M  V30 3082 C 289.097 -4.72946 1.69195 0
M  V30 3083 C 291.091 -5.29088 3.5545 0
M  V30 3084 C 288.778 -5.3932 2.87362 0
M  V30 3085 C 289.776 -5.6732 3.80312 0
M  V30 3086 O 289.464 -6.32325 4.96408 0
M  V30 3087 H 289.196 -0.666645 0.112074 0
M  V30 3088 H 291.75 -1.81467 0.962239 0
M  V30 3089 H 289.98 -3.81609 -0.6254 0
M  V30 3090 H 291.669 -4.0495 -0.277584 0
M  V30 3091 H 292.435 -4.32727 2.19027 0
M  V30 3092 H 288.314 -4.50527 0.977042 0
M  V30 3093 H 291.858 -5.50859 4.28018 0
M  V30 3094 H 287.755 -5.68461 3.05814 0
M  V30 3095 H 288.523 -6.50821 4.9636 0
M  V30 3096 N 291.186 -0.45159 -1.50991 0
M  V30 3097 C 292.414 0.108334 -2.06616 0
M  V30 3098 C 292.829 1.35224 -1.31757 0
M  V30 3099 O 292.186 1.78475 -0.381174 0
M  V30 3100 C 292.237 0.41619 -3.59096 0
M  V30 3101 O 291.958 -0.778361 -4.3113 0
M  V30 3102 C 293.459 1.02523 -4.31282 0
M  V30 3103 H 290.679 0.00159995 -0.670998 0
M  V30 3104 H 293.223 -0.634771 -1.94399 0
M  V30 3105 H 291.378 1.10921 -3.71181 0
M  V30 3106 H 291.792 -0.511181 -5.22003 0
M  V30 3107 H 293.266 1.19053 -5.39009 0
M  V30 3108 H 293.743 2.01013 -3.905 0
M  V30 3109 H 294.349 0.371173 -4.23677 0
M  V30 3110 N 292.664 1.56529 -0.183458 0
M  V30 3111 C 293.627 2.17324 0.728223 0
M  V30 3112 C 294.627 1.12453 1.14939 0
M  V30 3113 O 295.817 1.37902 1.06437 0
M  V30 3114 C 292.949 2.76591 1.99274 0
M  V30 3115 H 294.142 2.99241 0.198772 0
M  V30 3116 H 291.695 1.5616 0.0661391 0
M  V30 3117 H 292.43 1.98441 2.56499 0
M  V30 3118 H 292.215 3.5335 1.69959 0
M  V30 3119 H 293.705 3.23311 2.6431 0
M  V30 3120 N 294.142 -0.090211 1.57342 0
M  V30 3121 C 295.388 -0.793982 1.86611 0
M  V30 3122 C 295.721 -1.78142 0.773252 0
M  V30 3123 O 294.996 -1.93271 -0.218304 0
M  V30 3124 C 295.279 -1.51839 3.26523 0
M  V30 3125 C 295.132 -0.548609 4.46442 0
M  V30 3126 C 296.451 -2.46779 3.64401 0
M  V30 3127 H 293.57 -0.287186 0.678744 0
M  V30 3128 H 296.212 -0.0575076 1.89913 0
M  V30 3129 H 294.362 -2.14617 3.23839 0
M  V30 3130 H 296.034 0.0725513 4.61243 0
M  V30 3131 H 294.277 0.137614 4.33582 0
M  V30 3132 H 294.948 -1.09271 5.41076 0
M  V30 3133 H 297.424 -1.94089 3.68061 0
M  V30 3134 H 296.3 -2.94479 4.63221 0
M  V30 3135 H 296.561 -3.30758 2.93346 0
M  V30 3136 N 295.62 -1.53406 -0.361157 0
M  V30 3137 C 296.53 -1.83122 -1.4664 0
M  V30 3138 C 297.546 -0.719943 -1.58407 0
M  V30 3139 O 298.722 -1.01046 -1.74218 0
M  V30 3140 C 295.787 -2.01891 -2.81853 0
M  V30 3141 C 294.848 -3.25784 -2.79577 0
M  V30 3142 C 294.081 -3.43648 -4.0834 0
M  V30 3143 O 294.304 -2.65714 -5.0473 0
M  V30 3144 O 293.238 -4.37018 -4.13883 0
M  V30 3145 H 297.064 -2.7703 -1.24451 0
M  V30 3146 H 294.649 -1.38841 -0.551678 0
M  V30 3147 H 296.531 -2.15782 -3.61962 0
M  V30 3148 H 295.206 -1.11173 -3.0401 0
M  V30 3149 H 294.113 -3.17312 -1.98151 0
M  V30 3150 H 295.446 -4.16439 -2.62373 0
M  V30 3151 N 297.098 0.621204 -1.44841 0
M  V30 3152 C 298.346 1.37783 -1.47852 0
M  V30 3153 C 298.667 1.94653 -0.116224 0
M  V30 3154 O 297.937 1.76367 0.852737 0
M  V30 3155 H 296.517 0.511453 -0.544449 0
M  V30 3156 H 299.179 0.730446 -1.80694 0
M  V30 3157 H 298.275 2.20414 -2.20961 0
M  V30 3158 N 298.576 1.31904 0.862503 0
M  V30 3159 C 299.508 1.16005 1.97675 0
M  V30 3160 C 300.521 0.0971234 1.6251 0
M  V30 3161 O 301.71 0.345337 1.75128 0
M  V30 3162 C 298.81 0.751791 3.30456 0
M  V30 3163 C 297.983 1.90133 3.93914 0
M  V30 3164 C 297.042 1.4779 5.05019 0
M  V30 3165 O 296.068 2.18872 5.25437 0
M  V30 3166 N 297.27 0.369491 5.79323 0
M  V30 3167 H 300.035 2.11982 2.11857 0
M  V30 3168 H 297.596 1.24337 1.03691 0
M  V30 3169 H 299.588 0.451084 4.02178 0
M  V30 3170 H 298.158 -0.116593 3.12382 0
M  V30 3171 H 297.378 2.36896 3.15078 0
M  V30 3172 H 298.666 2.67111 4.33047 0
M  V30 3173 H 298.064 -0.222299 5.65263 0
M  V30 3174 H 296.621 0.128354 6.51674 0
M  V30 3175 N 300.054 -1.07777 1.14986 0
M  V30 3176 C 301.294 -1.81888 0.932527 0
M  V30 3177 C 301.658 -1.84509 -0.531064 0
M  V30 3178 O 302.859 -2.54448 -0.866577 0
M  V30 3179 C 301.13 -3.23244 1.52473 0
M  V30 3180 S 302.689 -4.14154 1.44989 0
M  V30 3181 H 299.507 -0.626752 0.335712 0
M  V30 3182 H 302.109 -1.29503 1.46455 0
M  V30 3183 H 300.813 -3.18922 2.58296 0
M  V30 3184 H 300.344 -3.80704 0.991381 0
M  V30 3185 H 302.359 -4.94247 0.439799 0
M  V30 3186 N 301.532 -0.945985 -1.26051 0
M  V30 3187 C 302.948 -0.649045 -1.45807 0
M  V30 3188 C 303.148 0.796158 -1.85104 0
M  V30 3189 O 302.204 1.57233 -1.97571 0
M  V30 3190 C 303.517 -1.61458 -2.53677 0
M  V30 3191 C 305.065 -1.62481 -2.67524 0
M  V30 3192 C 305.54 -2.57776 -3.7857 0
M  V30 3193 N 307.031 -2.5609 -3.85969 0
M  V30 3194 C 307.766 -3.26508 -4.7136 0
M  V30 3195 N 307.262 -4.0637 -5.61102 0
M  V30 3196 N 309.055 -3.15437 -4.65248 0
M  V30 3197 H 301.206 -1.88005 -0.988328 0
M  V30 3198 H 303.469 -0.808198 -0.4955 0
M  V30 3199 H 303.175 -2.64644 -2.31638 0
M  V30 3200 H 303.049 -1.37036 -3.51427 0
M  V30 3201 H 305.436 -0.600167 -2.88933 0
M  V30 3202 H 305.517 -1.90958 -1.70202 0
M  V30 3203 H 305.161 -3.60361 -3.57913 0
M  V30 3204 H 305.091 -2.26587 -4.75359 0
M  V30 3205 H 307.582 -1.98105 -3.21812 0
M  V30 3206 H 307.895 -4.57042 -6.23164 0
M  V30 3207 H 306.24 -4.10469 -5.60839 0
M  V30 3208 H 309.431 -2.52525 -3.94143 0
M  V30 3209 H 309.604 -3.70584 -5.31575 0
M  V30 3210 N 303.011 1.40521 -0.713556 0
M  V30 3211 C 304.241 2.0494 -0.261395 0
M  V30 3212 C 304.649 1.53861 1.10107 0
M  V30 3213 O 303.992 0.689321 1.70276 0
M  V30 3214 C 304.054 3.59138 -0.161227 0
M  V30 3215 C 303.718 4.33096 -1.45865 0
M  V30 3216 C 304.715 4.61182 -2.40016 0
M  V30 3217 C 302.4 4.72043 -1.71701 0
M  V30 3218 C 304.394 5.27196 -3.58251 0
M  V30 3219 C 302.081 5.37789 -2.90218 0
M  V30 3220 C 303.079 5.65295 -3.83315 0
M  V30 3221 O 302.767 6.29683 -4.99754 0
M  V30 3222 H 302.499 0.666041 -0.115608 0
M  V30 3223 H 305.053 1.80954 -0.971849 0
M  V30 3224 H 303.283 3.81936 0.605153 0
M  V30 3225 H 304.972 4.05091 0.256105 0
M  V30 3226 H 305.738 4.31559 -2.21318 0
M  V30 3227 H 301.617 4.50003 -1.00092 0
M  V30 3228 H 305.161 5.48582 -4.30934 0
M  V30 3229 H 301.058 5.66831 -3.08825 0
M  V30 3230 H 301.826 6.4818 -4.99805 0
M  V30 3231 N 304.489 0.459591 1.5075 0
M  V30 3232 C 305.437 -0.354678 2.2988 0
M  V30 3233 C 306.431 -1.00086 1.36672 0
M  V30 3234 O 307.637 -0.933277 1.53915 0
M  V30 3235 H 304.012 -0.13321 0.740107 0
M  V30 3236 H 305.983 0.333269 2.96533 0
M  V30 3237 C 304.732 -1.43073 3.169 0
M  V30 3238 H 304.055 -0.942882 3.88523 0
M  V30 3239 H 305.495 -1.97328 3.75284 0
M  V30 3240 C 303.954 -2.42633 2.33732 0
M  V30 3241 O 304.484 -3.47658 2.01238 0
M  V30 3242 N 302.69 -2.14066 1.9653 0
M  V30 3243 H 302.237 -1.28685 2.23155 0
M  V30 3244 H 302.195 -2.80917 1.41185 0
M  V30 3245 N 305.967 -1.56429 0.191757 0
M  V30 3246 C 306.914 -2.18936 -0.730454 0
M  V30 3247 C 307.884 -1.13557 -1.21219 0
M  V30 3248 O 309.069 -1.41794 -1.27668 0
M  V30 3249 C 306.209 -2.85013 -1.9458 0
M  V30 3250 C 305.322 -4.04909 -1.50574 0
M  V30 3251 C 304.457 -4.58853 -2.67634 0
M  V30 3252 C 303.496 -5.71114 -2.20217 0
M  V30 3253 N 302.633 -6.19478 -3.30442 0
M  V30 3254 H 307.473 -2.97389 -0.190664 0
M  V30 3255 H 305.01 -1.46869 -0.0823694 0
M  V30 3256 H 306.968 -3.21492 -2.65893 0
M  V30 3257 H 305.598 -2.09129 -2.45896 0
M  V30 3258 H 304.65 -3.74115 -0.688605 0
M  V30 3259 H 305.962 -4.86113 -1.11784 0
M  V30 3260 H 305.116 -4.97619 -3.47074 0
M  V30 3261 H 303.855 -3.76749 -3.09696 0
M  V30 3262 H 302.86 -5.31879 -1.3923 0
M  V30 3263 H 304.085 -6.55033 -1.79189 0
M  V30 3264 H 302.031 -5.40297 -3.72041 0
M  V30 3265 H 301.948 -6.95725 -2.9581 0
M  V30 3266 H 303.216 -6.62898 -4.10106 0
M  V30 3267 N 307.445 0.0818655 -1.57387 0
M  V30 3268 C 308.377 1.12484 -1.997 0
M  V30 3269 C 309.39 1.35564 -0.90146 0
M  V30 3270 O 310.579 1.33982 -1.17945 0
M  V30 3271 C 307.679 2.47778 -2.31213 0
M  V30 3272 C 306.852 2.44793 -3.62485 0
M  V30 3273 C 305.911 3.62117 -3.81782 0
M  V30 3274 O 304.937 3.44005 -4.53486 0
M  V30 3275 N 306.139 4.82094 -3.23367 0
M  V30 3276 H 308.904 0.764585 -2.89783 0
M  V30 3277 H 306.465 0.270664 -1.59621 0
M  V30 3278 H 308.457 3.24891 -2.41304 0
M  V30 3279 H 307.027 2.75843 -1.4707 0
M  V30 3280 H 306.247 1.53134 -3.6324 0
M  V30 3281 H 307.535 2.39889 -4.48699 0
M  V30 3282 H 306.933 4.99713 -2.65148 0
M  V30 3283 H 305.49 5.56753 -3.38923 0
M  V30 3284 N 308.923 1.53595 0.353017 0
M  V30 3285 C 309.853 1.83902 1.43883 0
M  V30 3286 C 310.834 0.693421 1.55324 0
M  V30 3287 O 312.019 0.944452 1.69687 0
M  V30 3288 C 309.149 2.04016 2.8106 0
M  V30 3289 C 308.103 3.19814 2.84434 0
M  V30 3290 C 307.429 3.25244 4.24406 0
M  V30 3291 C 308.729 4.58133 2.50822 0
M  V30 3292 H 310.423 2.74835 1.1877 0
M  V30 3293 H 307.969 1.32242 0.569917 0
M  V30 3294 H 309.922 2.238 3.57059 0
M  V30 3295 H 308.646 1.09804 3.07588 0
M  V30 3296 H 307.305 2.9987 2.10887 0
M  V30 3297 H 306.953 2.28646 4.48029 0
M  V30 3298 H 306.653 4.03054 4.27576 0
M  V30 3299 H 308.177 3.47228 5.0226 0
M  V30 3300 H 309.591 4.77995 3.16534 0
M  V30 3301 H 307.988 5.38276 2.6529 0
M  V30 3302 H 309.058 4.62387 1.46034 0
M  V30 3303 N 310.401 -0.613514 1.45168 0
M  V30 3304 C 311.649 -1.36997 1.48581 0
M  V30 3305 C 311.97 -1.94589 0.126545 0
M  V30 3306 O 311.24 -1.76816 -0.843372 0
M  V30 3307 H 309.82 -0.508558 0.547154 0
M  V30 3308 H 312.482 -0.720853 1.81079 0
M  V30 3309 H 311.578 -2.1924 2.22127 0
M  V30 3310 N 311.879 -1.3236 -0.855495 0
M  V30 3311 C 313.125 -1.23054 -1.612 0
M  V30 3312 C 313.458 0.207404 -1.93089 0
M  V30 3313 O 312.733 1.14432 -1.57275 0
M  V30 3314 C 313.016 -2.08937 -2.93287 0
M  V30 3315 C 312.869 -3.61105 -2.68185 0
M  V30 3316 C 314.188 -1.94986 -3.94549 0
M  V30 3317 H 311.307 -0.448364 -0.584926 0
M  V30 3318 H 313.949 -1.62297 -0.987917 0
M  V30 3319 H 312.099 -1.75599 -3.46551 0
M  V30 3320 H 313.771 -4.04652 -2.21483 0
M  V30 3321 H 312.014 -3.83813 -2.02164 0
M  V30 3322 H 312.685 -4.16522 -3.62234 0
M  V30 3323 H 315.161 -2.24189 -3.5054 0
M  V30 3324 H 314.037 -2.57356 -4.84829 0
M  V30 3325 H 314.298 -0.917263 -4.3248 0
M  V30 3326 N 313.357 1.07166 -1.15556 0
M  V30 3327 C 314.32 2.12589 -0.856644 0
M  V30 3328 C 315.32 1.6015 0.14444 0
M  V30 3329 O 316.51 1.7399 -0.0854163 0
M  V30 3330 C 313.642 3.39753 -0.279405 0
M  V30 3331 H 314.835 2.40539 -1.79112 0
M  V30 3332 H 312.388 1.23086 -0.963298 0
M  V30 3333 H 313.123 3.17447 0.663174 0
M  V30 3334 H 312.908 3.79117 -1.00063 0
M  V30 3335 H 314.398 4.17507 -0.0879113 0
M  V30 3336 N 314.835 0.952656 1.25548 0
M  V30 3337 C 315.782 0.47008 2.25962 0
M  V30 3338 C 316.752 -0.476384 1.59122 0
M  V30 3339 O 317.937 -0.39007 1.8677 0
M  V30 3340 C 315.077 -0.247881 3.44209 0
M  V30 3341 C 314.19 0.735591 4.25691 0
M  V30 3342 C 313.325 -0.0047306 5.312 0
M  V30 3343 C 312.364 0.969805 6.04368 0
M  V30 3344 N 311.501 0.260486 7.01617 0
M  V30 3345 H 316.341 1.33126 2.66611 0
M  V30 3346 H 313.878 0.66765 1.31076 0
M  V30 3347 H 315.836 -0.680695 4.1161 0
M  V30 3348 H 314.466 -1.07312 3.0444 0
M  V30 3349 H 313.518 1.28689 3.57971 0
M  V30 3350 H 314.83 1.47934 4.76358 0
M  V30 3351 H 313.984 -0.496275 6.04667 0
M  V30 3352 H 312.723 -0.781282 4.81401 0
M  V30 3353 H 311.728 1.47237 5.29718 0
M  V30 3354 H 312.953 1.74655 6.56256 0
M  V30 3355 H 310.899 -0.497364 6.54112 0
M  V30 3356 H 310.816 0.943362 7.50091 0
M  V30 3357 H 312.084 -0.209587 7.79218 0
M  V30 3358 N 316.313 -1.40141 0.720998 0
M  V30 3359 C 317.559 -2.01084 0.263231 0
M  V30 3360 C 317.892 -1.57052 -1.14229 0
M  V30 3361 O 317.167 -0.793027 -1.77599 0
M  V30 3362 C 317.45 -3.58401 0.349344 0
M  V30 3363 C 317.303 -4.12491 1.79363 0
M  V30 3364 C 318.622 -4.39231 -0.276351 0
M  V30 3365 H 315.741 -0.730572 0.0971228 0
M  V30 3366 H 318.383 -1.66543 0.914518 0
M  V30 3367 H 316.533 -3.87958 -0.205165 0
M  V30 3368 H 318.205 -3.93711 2.40394 0
M  V30 3369 H 316.448 -3.66576 2.31958 0
M  V30 3370 H 317.119 -5.21646 1.80524 0
M  V30 3371 H 319.595 -4.15637 0.196184 0
M  V30 3372 H 318.471 -5.48586 -0.185681 0
M  V30 3373 H 318.732 -4.20643 -1.36059 0
M  V30 3374 N 317.792 -0.46758 -1.50504 0
M  V30 3375 C 319.02 0.0864133 -2.06719 0
M  V30 3376 C 319.435 1.33819 -1.33184 0
M  V30 3377 O 318.792 1.78061 -0.400083 0
M  V30 3378 C 318.843 0.378079 -3.59517 0
M  V30 3379 O 318.564 -0.824044 -4.3028 0
M  V30 3380 C 320.065 0.979426 -4.32345 0
M  V30 3381 H 317.285 -0.00551697 -0.670977 0
M  V30 3382 H 319.829 -0.655354 -1.93715 0
M  V30 3383 H 317.984 1.06977 -3.72337 0
M  V30 3384 H 318.398 -0.566518 -5.21432 0
M  V30 3385 H 319.872 1.1333 -5.40241 0
M  V30 3386 H 320.349 1.9686 -3.9261 0
M  V30 3387 H 320.955 0.326216 -4.24047 0
M  V30 3388 N 319.27 1.56325 -0.20005 0
M  V30 3389 C 320.518 1.97329 0.436547 0
M  V30 3390 C 320.839 1.08826 1.61808 0
M  V30 3391 O 320.109 0.160604 1.95241 0
M  V30 3392 H 318.689 0.728714 0.164272 0
M  V30 3393 H 321.351 1.92761 -0.287937 0
M  V30 3394 H 320.447 3.02264 0.777353 0
M  V30 3395 N 320.748 -0.0735177 1.57428 0
M  V30 3396 C 321.978 -0.78483 1.91112 0
M  V30 3397 C 322.386 -1.71729 0.7941 0
M  V30 3398 O 321.729 -1.82105 -0.241542 0
M  V30 3399 C 321.791 -1.63346 3.20247 0
M  V30 3400 C 321.455 -0.870557 4.48632 0
M  V30 3401 C 322.452 -0.19058 5.19551 0
M  V30 3402 C 320.137 -0.838242 4.95256 0
M  V30 3403 C 322.131 0.511503 6.35344 0
M  V30 3404 C 319.818 -0.132386 6.10957 0
M  V30 3405 C 320.816 0.541288 6.80852 0
M  V30 3406 O 320.504 1.23578 7.94345 0
M  V30 3407 H 320.236 -0.228408 0.636244 0
M  V30 3408 H 322.79 -0.0486039 2.05342 0
M  V30 3409 H 321.02 -2.41245 3.02222 0
M  V30 3410 H 322.709 -2.22329 3.39595 0
M  V30 3411 H 323.475 -0.206864 4.84559 0
M  V30 3412 H 319.354 -1.35206 4.40727 0
M  V30 3413 H 322.898 1.03789 6.89836 0
M  V30 3414 H 318.795 -0.114023 6.45399 0
M  V30 3415 H 319.563 1.14487 8.10454 0
M  V30 3416 N 322.226 -1.5378 -0.344866 0
M  V30 3417 C 323.456 -1.74646 -1.10374 0
M  V30 3418 C 323.864 -0.48491 -1.8288 0
M  V30 3419 O 323.207 0.553062 -1.75177 0
M  V30 3420 C 323.269 -2.87145 -2.16306 0
M  V30 3421 C 322.933 -4.26795 -1.63386 0
M  V30 3422 C 323.93 -5.08412 -1.08688 0
M  V30 3423 C 321.615 -4.73276 -1.68272 0
M  V30 3424 C 323.609 -6.34609 -0.595792 0
M  V30 3425 C 321.296 -5.99446 -1.18776 0
M  V30 3426 C 322.294 -6.79946 -0.645215 0
M  V30 3427 O 321.982 -8.03745 -0.157626 0
M  V30 3428 H 321.714 -0.587112 -0.335075 0
M  V30 3429 H 324.268 -2.01403 -0.403252 0
M  V30 3430 H 322.498 -2.55909 -2.89909 0
M  V30 3431 H 324.187 -2.95992 -2.77747 0
M  V30 3432 H 324.953 -4.73666 -1.04236 0
M  V30 3433 H 320.832 -4.10677 -2.09442 0
M  V30 3434 H 324.376 -6.97389 -0.171654 0
M  V30 3435 H 320.273 -6.33687 -1.22928 0
M  V30 3436 H 321.041 -8.18038 -0.275037 0
M  V30 3437 N 323.704 0.605807 -1.45491 0
M  V30 3438 C 324.932 1.39136 -1.5313 0
M  V30 3439 C 325.347 1.88082 -0.164507 0
M  V30 3440 O 324.704 1.62316 0.834247 0
M  V30 3441 C 324.755 2.59463 -2.51716 0
M  V30 3442 O 324.476 2.12551 -3.83084 0
M  V30 3443 C 325.977 3.52301 -2.6907 0
M  V30 3444 H 323.197 0.425849 -0.51855 0
M  V30 3445 H 325.741 0.73865 -1.90694 0
M  V30 3446 H 323.896 3.20772 -2.17219 0
M  V30 3447 H 324.31 2.90744 -4.36541 0
M  V30 3448 H 325.784 4.33271 -3.42024 0
M  V30 3449 H 326.261 4.02757 -1.75167 0
M  V30 3450 H 326.867 2.96845 -3.04571 0
M  V30 3451 N 325.182 1.32811 0.848464 0
M  V30 3452 C 326.428 1.23907 1.60546 0
M  V30 3453 C 326.761 -0.197161 1.93197 0
M  V30 3454 O 326.036 -1.13596 1.5788 0
M  V30 3455 C 326.319 2.10489 2.92175 0
M  V30 3456 C 326.172 3.62522 2.66266 0
M  V30 3457 C 327.491 1.97075 3.93509 0
M  V30 3458 H 324.61 0.451459 0.58254 0
M  V30 3459 H 327.252 1.62818 0.979296 0
M  V30 3460 H 325.402 1.77434 3.45614 0
M  V30 3461 H 327.074 4.05821 2.19334 0
M  V30 3462 H 325.317 3.84879 2.00126 0
M  V30 3463 H 325.988 4.18437 3.6002 0
M  V30 3464 H 328.464 2.26045 3.49346 0
M  V30 3465 H 327.34 2.59923 4.83457 0
M  V30 3466 H 327.601 0.940186 4.31987 0
M  V30 3467 N 326.66 -1.06551 1.16123 0
M  V30 3468 C 327.61 -2.12209 0.833736 0
M  V30 3469 C 328.594 -1.59825 -0.185656 0
M  V30 3470 O 329.786 -1.76994 0.0147906 0
M  V30 3471 C 326.915 -3.41674 0.333697 0
M  V30 3472 C 326.001 -4.00892 1.38372 0
M  V30 3473 N 326.392 -4.34256 2.59337 0
M  V30 3474 C 324.69 -4.28463 1.23836 0
M  V30 3475 C 325.391 -4.81291 3.26701 0
M  V30 3476 N 324.367 -4.80565 2.54083 0
M  V30 3477 H 328.169 -2.35849 1.75364 0
M  V30 3478 H 325.683 -1.24068 1.04789 0
M  V30 3479 H 327.68 -4.16822 0.0806918 0
M  V30 3480 H 326.34 -3.19475 -0.58017 0
M  V30 3481 H 327.351 -4.24687 2.96415 0
M  V30 3482 H 324.028 -4.15721 0.38504 0
M  V30 3483 H 325.418 -5.16332 4.29943 0
M  V30 3484 N 328.138 -0.959301 -1.25041 0
M  V30 3485 C 329.363 -0.633507 -1.97488 0
M  V30 3486 C 329.788 0.788555 -1.70773 0
M  V30 3487 O 329.146 1.53394 -0.966431 0
M  V30 3488 C 329.194 -0.904057 -3.49083 0
M  V30 3489 O 328.298 0.0147939 -4.12397 0
M  V30 3490 H 327.639 -0.240368 -0.618966 0
M  V30 3491 H 330.169 -1.28717 -1.59038 0
M  V30 3492 H 330.179 -0.832203 -3.99423 0
M  V30 3493 H 328.854 -1.94048 -3.67856 0
M  V30 3494 H 327.431 -0.109664 -3.72739 0
M  V30 3495 N 329.616 1.39756 -0.72842 0
M  V30 3496 C 330.864 2.00248 -0.272946 0
M  V30 3497 C 331.185 1.58077 1.14178 0
M  V30 3498 O 330.455 0.826014 1.77634 0
M  V30 3499 H 329.035 0.740554 -0.0979247 0
M  V30 3500 H 331.697 1.70903 -0.936912 0
M  V30 3501 H 330.793 3.10495 -0.316142 0
M  V30 3502 N 331.094 0.475555 1.50254 0
M  V30 3503 C 332.319 -0.0777042 2.07254 0
M  V30 3504 C 332.744 -1.3235 1.3366 0
M  V30 3505 O 332.102 -1.77152 0.385597 0
M  V30 3506 C 332.15 -0.340169 3.58992 0
M  V30 3507 O 331.254 -1.41982 3.87188 0
M  V30 3508 H 330.595 0.0149556 0.663832 0
M  V30 3509 H 333.125 0.667878 1.93392 0
M  V30 3510 H 333.135 -0.579332 4.03866 0
M  V30 3511 H 331.81 0.570167 4.11973 0
M  V30 3512 H 330.387 -1.16762 3.54148 0
M  V30 3513 N 332.573 -1.56217 0.208337 0
M  V30 3514 C 333.483 -2.23316 -0.718836 0
M  V30 3515 C 334.499 -1.23648 -1.22422 0
M  V30 3516 O 335.675 -1.56423 -1.26861 0
M  V30 3517 C 332.74 -2.88968 -1.91568 0
M  V30 3518 C 331.801 -4.03943 -1.45357 0
M  V30 3519 C 331.034 -4.66455 -2.59337 0
M  V30 3520 O 331.257 -4.27919 -3.77149 0
M  V30 3521 O 330.191 -5.55686 -2.31293 0
M  V30 3522 H 334.017 -3.03182 -0.177315 0
M  V30 3523 H 331.602 -1.49384 -0.0215402 0
M  V30 3524 H 333.484 -3.30455 -2.61491 0
M  V30 3525 H 332.159 -2.12071 -2.44556 0
M  V30 3526 H 331.066 -3.67052 -0.722746 0
M  V30 3527 H 332.399 -4.82543 -0.970219 0
M  V30 3528 N 334.051 0.0651679 -1.57465 0
M  V30 3529 C 335.297 0.764193 -1.87851 0
M  V30 3530 C 335.63 1.76889 -0.801495 0
M  V30 3531 O 334.905 1.93594 0.187528 0
M  V30 3532 C 335.188 1.46625 -3.28897 0
M  V30 3533 C 335.041 0.477515 -4.47258 0
M  V30 3534 C 336.36 2.4095 -3.68281 0
M  V30 3535 H 333.479 0.276351 -0.683227 0
M  V30 3536 H 336.121 0.0272868 -1.8998 0
M  V30 3537 H 334.271 2.09438 -3.27212 0
M  V30 3538 H 335.943 -0.145922 -4.61069 0
M  V30 3539 H 334.186 -0.206576 -4.33308 0
M  V30 3540 H 334.857 1.0065 -5.42746 0
M  V30 3541 H 337.333 1.88209 -3.71102 0
M  V30 3542 H 336.209 2.87072 -4.67847 0
M  V30 3543 H 336.47 3.26049 -2.98571 0
M  V30 3544 N 335.529 1.53961 0.336706 0
M  V30 3545 C 336.439 1.85432 1.43708 0
M  V30 3546 C 337.455 0.745053 1.57242 0
M  V30 3547 O 338.631 1.03804 1.72588 0
M  V30 3548 C 335.696 2.06349 2.78605 0
M  V30 3549 C 334.757 3.30191 2.74358 0
M  V30 3550 C 333.99 3.50101 4.02822 0
M  V30 3551 O 334.213 2.7371 5.00439 0
M  V30 3552 O 333.147 4.43547 4.06878 0
M  V30 3553 H 336.973 2.78975 1.20028 0
M  V30 3554 H 334.558 1.39701 0.52952 0
M  V30 3555 H 336.44 2.21513 3.58483 0
M  V30 3556 H 335.115 1.15995 3.02203 0
M  V30 3557 H 334.022 3.20425 1.93078 0
M  V30 3558 H 335.355 4.2056 2.55715 0
M  V30 3559 N 337.007 -0.598083 1.45811 0
M  V30 3560 C 337.937 -1.71873 1.58057 0
M  V30 3561 C 338.918 -1.64533 0.431615 0
M  V30 3562 O 340.103 -1.82787 0.65595 0
M  V30 3563 C 337.233 -3.10495 1.55597 0
M  V30 3564 C 336.187 -3.32654 2.69305 0
M  V30 3565 C 335.513 -4.71646 2.51902 0
M  V30 3566 C 336.813 -3.21981 4.11248 0
M  V30 3567 H 338.507 -1.61881 2.51863 0
M  V30 3568 H 336.053 -0.777372 1.21214 0
M  V30 3569 H 338.006 -3.88699 1.6276 0
M  V30 3570 H 336.73 -3.2135 0.583255 0
M  V30 3571 H 335.389 -2.56843 2.61586 0
M  V30 3572 H 335.037 -4.79246 1.52748 0
M  V30 3573 H 334.737 -4.87426 3.2816 0
M  V30 3574 H 336.261 -5.52038 2.60933 0
M  V30 3575 H 337.675 -3.90049 4.20161 0
M  V30 3576 H 336.072 -3.49289 4.87972 0
M  V30 3577 H 337.142 -2.1928 4.32486 0
M  V30 3578 N 338.485 -1.33259 -0.841409 0
M  V30 3579 C 339.432 -1.23302 -1.95103 0
M  V30 3580 C 340.402 -0.112204 -1.65721 0
M  V30 3581 O 341.587 -0.290038 -1.88583 0
M  V30 3582 C 338.727 -0.975583 -3.31023 0
M  V30 3583 C 337.84 -2.18243 -3.72819 0
M  V30 3584 C 336.975 -1.85936 -4.97595 0
M  V30 3585 C 336.014 -3.02866 -5.3192 0
M  V30 3586 N 335.151 -2.70565 -6.47873 0
M  V30 3587 H 339.991 -2.18207 -2.02952 0
M  V30 3588 H 337.528 -1.0851 -0.993173 0
M  V30 3589 H 339.486 -0.80677 -4.09325 0
M  V30 3590 H 338.116 -0.0632755 -3.22738 0
M  V30 3591 H 337.168 -2.46107 -2.90061 0
M  V30 3592 H 338.48 -3.05666 -3.94169 0
M  V30 3593 H 337.634 -1.65684 -5.83638 0
M  V30 3594 H 336.373 -0.957452 -4.78209 0
M  V30 3595 H 335.378 -3.23736 -4.44382 0
M  V30 3596 H 336.603 -3.93809 -5.53255 0
M  V30 3597 H 334.549 -1.8293 -6.29978 0
M  V30 3598 H 334.466 -3.51519 -6.69306 0
M  V30 3599 H 335.734 -2.53774 -7.37034 0
M  V30 3600 N 339.963 1.05934 -1.16686 0
M  V30 3601 C 340.911 2.15603 -0.872817 0
M  V30 3602 C 341.905 1.68647 0.159576 0
M  V30 3603 O 343.111 1.79995 0.0132125 0
M  V30 3604 H 339.486 0.703885 -0.264671 0
M  V30 3605 H 341.457 2.37613 -1.80507 0
M  V30 3606 C 340.206 3.45457 -0.394344 0
M  V30 3607 H 339.529 3.81984 -1.18019 0
M  V30 3608 H 340.969 4.2339 -0.227408 0
M  V30 3609 C 339.428 3.25021 0.88673 0
M  V30 3610 O 339.958 3.50906 1.95519 0
M  V30 3611 N 338.164 2.78437 0.831925 0
M  V30 3612 H 337.711 2.57572 -0.0377619 0
M  V30 3613 H 337.669 2.65144 1.68956 0
M  V30 3614 N 341.441 0.965919 1.2453 0
M  V30 3615 C 342.371 0.513476 2.27784 0
M  V30 3616 C 343.352 -0.445974 1.6415 0
M  V30 3617 O 344.537 -0.342485 1.91156 0
M  V30 3618 C 341.667 -0.198839 3.4673 0
M  V30 3619 C 340.621 0.676456 4.2262 0
M  V30 3620 C 339.947 -0.167248 5.34438 0
M  V30 3621 C 341.247 1.96017 4.84123 0
M  V30 3622 H 342.941 1.3765 2.65881 0
M  V30 3623 H 340.487 0.663321 1.27813 0
M  V30 3624 H 342.44 -0.526567 4.18097 0
M  V30 3625 H 341.164 -1.0962 3.07654 0
M  V30 3626 H 339.823 0.98743 3.53052 0
M  V30 3627 H 339.471 -1.0647 4.91603 0
M  V30 3628 H 339.171 0.415181 5.86131 0
M  V30 3629 H 340.695 -0.489688 6.08633 0
M  V30 3630 H 342.109 1.69814 5.47573 0
M  V30 3631 H 340.506 2.48918 5.4604 0
M  V30 3632 H 341.576 2.65622 4.05676 0
M  V30 3633 N 342.919 -1.39368 0.735821 0
M  V30 3634 C 344.165 -2.00794 0.284544 0
M  V30 3635 C 344.498 -1.58255 -1.12557 0
M  V30 3636 O 343.773 -0.811819 -1.76748 0
M  V30 3637 C 344.056 -3.58011 0.387337 0
M  V30 3638 C 343.909 -4.10566 1.83728 0
M  V30 3639 C 345.228 -4.395 -0.22975 0
M  V30 3640 H 342.347 -0.729501 0.104866 0
M  V30 3641 H 344.989 -1.65564 0.93213 0
M  V30 3642 H 343.139 -3.88154 -0.164006 0
M  V30 3643 H 344.811 -3.91139 2.44556 0
M  V30 3644 H 343.054 -3.64095 2.35833 0
M  V30 3645 H 343.725 -5.19702 1.86047 0
M  V30 3646 H 346.201 -4.15406 0.240257 0
M  V30 3647 H 345.077 -5.48752 -0.127485 0
M  V30 3648 H 345.338 -4.22062 -1.3159 0
M  V30 3649 N 344.397 -0.483516 -1.5 0
M  V30 3650 C 345.645 0.067027 -2.01989 0
M  V30 3651 C 345.966 1.3909 -1.36671 0
M  V30 3652 O 345.236 1.88978 -0.516152 0
M  V30 3653 H 343.816 0.0277606 -0.746484 0
M  V30 3654 H 346.478 -0.636773 -1.84204 0
M  V30 3655 H 345.574 0.209484 -3.11396 0
M  V30 3656 N 345.875 1.56104 -0.216619 0
M  V30 3657 C 346.838 2.18819 0.681962 0
M  V30 3658 C 347.838 1.14866 1.12528 0
M  V30 3659 O 349.028 1.40128 1.03488 0
M  V30 3660 C 346.16 2.80756 1.93362 0
M  V30 3661 H 347.353 2.99595 0.135254 0
M  V30 3662 H 344.906 1.56265 0.0330003 0
M  V30 3663 H 345.641 2.03837 2.52232 0
M  V30 3664 H 345.426 3.56876 1.62426 0
M  V30 3665 H 346.916 3.28844 2.57393 0
M  V30 3666 N 347.353 -0.0568162 1.57498 0
M  V30 3667 C 348.769 -0.411933 1.54192 0
M  V30 3668 C 348.969 -1.78287 0.938942 0
M  V30 3669 O 348.025 -2.46483 0.547919 0
M  V30 3670 C 349.338 -0.339244 2.9878 0
M  V30 3671 C 350.886 -0.418348 3.10192 0
M  V30 3672 C 351.361 -0.375407 4.56459 0
M  V30 3673 N 352.852 -0.435038 4.61153 0
M  V30 3674 C 353.587 -0.424265 5.71828 0
M  V30 3675 N 353.083 -0.367418 6.91825 0
M  V30 3676 N 354.876 -0.471938 5.60115 0
M  V30 3677 H 347.027 0.840684 1.95055 0
M  V30 3678 H 349.29 0.316987 0.893433 0
M  V30 3679 H 348.996 0.601742 3.46514 0
M  V30 3680 H 348.87 -1.14371 3.59443 0
M  V30 3681 H 351.257 -1.34976 2.62422 0
M  V30 3682 H 351.338 0.414962 2.52412 0
M  V30 3683 H 350.982 0.552219 5.04889 0
M  V30 3684 H 350.912 -1.22645 5.12119 0
M  V30 3685 H 353.403 -0.482612 3.74806 0
M  V30 3686 H 353.716 -0.363535 7.71944 0
M  V30 3687 H 352.061 -0.333879 6.94198 0
M  V30 3688 H 355.252 -0.514145 4.65268 0
M  V30 3689 H 355.425 -0.460073 6.46365 0
M  V30 3690 N 348.832 -1.54138 -0.328536 0
M  V30 3691 C 350.248 -1.44736 -0.672574 0
M  V30 3692 C 350.448 -0.616217 -1.91846 0
M  V30 3693 O 349.504 -0.113067 -2.52247 0
M  V30 3694 C 350.817 -2.884 -0.851217 0
M  V30 3695 C 352.365 -2.98271 -0.948877 0
M  V30 3696 C 352.84 -4.43074 -1.15973 0
M  V30 3697 N 354.331 -4.46665 -1.22658 0
M  V30 3698 C 355.066 -5.55857 -1.40751 0
M  V30 3699 N 354.562 -6.75026 -1.5592 0
M  V30 3700 N 356.355 -5.43495 -1.4342 0
M  V30 3701 H 348.506 -2.06661 0.490421 0
M  V30 3702 H 350.769 -0.934812 0.157579 0
M  V30 3703 H 350.475 -3.51699 -0.00704236 0
M  V30 3704 H 350.349 -3.34225 -1.74853 0
M  V30 3705 H 352.736 -2.35102 -1.78356 0
M  V30 3706 H 352.817 -2.55785 -0.0281435 0
M  V30 3707 H 352.461 -5.06827 -0.329915 0
M  V30 3708 H 352.391 -4.83165 -2.09426 0
M  V30 3709 H 354.882 -3.60797 -1.124 0
M  V30 3710 H 355.195 -7.54004 -1.69404 0
M  V30 3711 H 353.54 -6.77944 -1.53027 0
M  V30 3712 H 356.731 -4.49349 -1.31162 0
M  V30 3713 H 356.904 -6.28649 -1.57178 0
M  V30 3714 N 350.31 0.590341 -1.46126 0
M  V30 3715 C 351.721 1.17243 -1.45296 0
M  V30 3716 C 352.072 1.95281 -0.189723 0
M  V30 3717 O 351.197 2.04502 0.707674 0
M  V30 3718 C 351.792 2.13284 -2.6324 0
M  V30 3719 C 350.351 2.66832 -2.65476 0
M  V30 3720 C 349.498 1.42557 -2.3785 0
M  V30 3721 H 352.449 0.378692 -1.54116 0
M  V30 3722 H 352.47 2.96619 -2.38323 0
M  V30 3723 H 351.982 1.56459 -3.55165 0
M  V30 3724 H 350.083 3.27548 -1.77603 0
M  V30 3725 H 350.196 3.10088 -3.65215 0
M  V30 3726 H 348.56 1.72107 -1.87753 0
M  V30 3727 H 349.343 0.875741 -3.31942 0
M  V30 3728 N 351.788 1.33704 0.83433 0
M  V30 3729 C 352.751 1.24244 1.92603 0
M  V30 3730 C 353.751 0.160383 1.59998 0
M  V30 3731 O 354.941 0.412228 1.69252 0
M  V30 3732 C 352.073 0.91555 3.28376 0
M  V30 3733 H 353.266 2.21287 2.02416 0
M  V30 3734 H 350.819 1.17827 1.02696 0
M  V30 3735 H 351.554 -0.0521886 3.24258 0
M  V30 3736 H 351.339 1.69811 3.53422 0
M  V30 3737 H 352.829 0.874231 4.08347 0
M  V30 3738 N 353.266 -1.05314 1.17247 0
M  V30 3739 C 354.229 -2.112 0.890357 0
M  V30 3740 C 355.229 -1.60359 -0.118943 0
M  V30 3741 O 356.419 -1.73833 0.113086 0
M  V30 3742 C 353.551 -3.39266 0.333422 0
M  V30 3743 H 354.744 -2.37659 1.82916 0
M  V30 3744 H 352.297 -1.21538 0.982758 0
M  V30 3745 H 353.032 -3.18462 -0.612587 0
M  V30 3746 H 352.817 -3.77477 1.06082 0
M  V30 3747 H 354.307 -4.17315 0.154322 0
M  V30 3748 N 354.744 -0.972509 -1.24016 0
M  V30 3749 C 355.99 -0.637978 -1.92504 0
M  V30 3750 C 356.323 0.825383 -1.75787 0
M  V30 3751 O 355.598 1.59442 -1.11393 0
M  V30 3752 C 355.881 -1.01942 -3.45369 0
M  V30 3753 C 355.734 -2.53983 -3.71231 0
M  V30 3754 C 357.053 -0.55751 -4.36555 0
M  V30 3755 H 354.172 -0.233248 -0.699117 0
M  V30 3756 H 356.814 -1.21238 -1.46292 0
M  V30 3757 H 354.964 -0.530656 -3.84859 0
M  V30 3758 H 356.636 -3.10374 -3.41271 0
M  V30 3759 H 354.879 -2.96968 -3.16216 0
M  V30 3760 H 355.55 -2.75723 -4.78206 0
M  V30 3761 H 358.026 -0.977029 -4.04467 0
M  V30 3762 H 356.902 -0.85292 -5.42233 0
M  V30 3763 H 357.163 0.542328 -4.38761 0
M  V30 3764 N 356.222 1.38976 -0.743202 0
M  V30 3765 C 357.185 2.28901 -0.117014 0
M  V30 3766 C 358.185 1.46698 0.658503 0
M  V30 3767 O 359.375 1.67274 0.486305 0
M  V30 3768 C 356.507 3.30309 0.84315 0
M  V30 3769 H 357.7 2.8578 -0.909373 0
M  V30 3770 H 355.253 1.47761 -0.509547 0
M  V30 3771 H 355.988 2.785 1.66157 0
M  V30 3772 H 355.773 3.91029 0.289594 0
M  V30 3773 H 357.263 3.97577 1.2776 0
M  V30 3774 N 357.7 0.491464 1.49741 0
M  V30 3775 C 358.946 -0.0565092 2.02721 0
M  V30 3776 C 359.279 -1.37522 1.37118 0
M  V30 3777 O 358.554 -1.87866 0.503645 0
M  V30 3778 C 358.837 -0.219051 3.59433 0
M  V30 3779 C 358.69 1.12211 4.35579 0
M  V30 3780 C 360.009 -0.964157 4.29409 0
M  V30 3781 H 357.128 -0.0190627 0.736753 0
M  V30 3782 H 359.77 0.641021 1.7886 0
M  V30 3783 H 357.92 -0.813165 3.79895 0
M  V30 3784 H 359.592 1.75437 4.26637 0
M  V30 3785 H 357.835 1.71377 3.98513 0
M  V30 3786 H 358.506 0.961794 5.43556 0
M  V30 3787 H 360.982 -0.460378 4.13545 0
M  V30 3788 H 359.858 -1.04671 5.38828 0
M  V30 3789 H 360.119 -2.00563 3.93988 0
M  V30 3790 N 359.178 -1.55987 0.224894 0
M  V30 3791 C 360.455 -1.90232 -0.455083 0
M  V30 3792 C 360.835 -1.14269 -1.77499 0
M  V30 3793 O 360.183 -0.253079 -2.27094 0
M  V30 3794 C 360.393 -3.42993 -0.644758 0
M  V30 3795 C 361.741 -4.13821 -0.950669 0
M  V30 3796 O 362.765 -3.4861 -0.731423 0
M  V30 3797 O 361.624 -5.29128 -1.36695 0
M  V30 3798 H 358.718 -0.79108 -0.241084 0
M  V30 3799 H 361.264 -1.67581 0.267327 0
M  V30 3800 H 360.036 -3.90252 0.28613 0
M  V30 3801 H 359.659 -3.71434 -1.41853 0
M  V30 3802 N 360.656 0.0484629 -1.57525 0
M  V30 3803 C 361.902 0.744226 -1.88651 0
M  V30 3804 C 362.235 1.76029 -0.820212 0
M  V30 3805 O 361.51 1.93782 0.166985 0
M  V30 3806 C 361.793 1.43128 -3.30434 0
M  V30 3807 C 361.646 0.43005 -4.47739 0
M  V30 3808 C 362.965 2.37031 -3.70816 0
M  V30 3809 H 360.084 0.269089 -0.68612 0
M  V30 3810 H 362.726 0.00713532 -1.89999 0
M  V30 3811 H 360.876 2.05956 -3.29415 0
M  V30 3812 H 362.548 -0.194816 -4.60888 0
M  V30 3813 H 360.791 -0.252522 -4.33064 0
M  V30 3814 H 361.462 0.948874 -5.43783 0
M  V30 3815 H 363.938 1.84263 -3.73077 0
M  V30 3816 H 362.814 2.82094 -4.70865 0
M  V30 3817 H 363.075 3.22864 -3.02012 0
M  V30 3818 N 362.134 1.5431 0.320358 0
M  V30 3819 C 363.044 1.86946 1.41734 0
M  V30 3820 C 364.06 0.761689 1.56443 0
M  V30 3821 O 365.236 1.05629 1.71477 0
M  V30 3822 C 362.301 2.09293 2.76401 0
M  V30 3823 C 361.362 3.33082 2.70841 0
M  V30 3824 C 360.595 3.54353 3.99086 0
M  V30 3825 O 360.818 2.79002 4.97508 0
M  V30 3826 O 359.752 4.47838 4.0215 0
M  V30 3827 H 363.578 2.80232 1.17062 0
M  V30 3828 H 361.163 1.40255 0.514673 0
M  V30 3829 H 363.045 2.25303 3.56113 0
M  V30 3830 H 361.72 1.19194 3.00956 0
M  V30 3831 H 360.627 3.22454 1.89668 0
M  V30 3832 H 361.96 4.23249 2.5124 0
M  V30 3833 N 363.613 -0.582584 1.46437 0
M  V30 3834 C 364.838 -1.37168 1.55563 0
M  V30 3835 C 365.263 -1.87061 0.19743 0
M  V30 3836 O 364.621 -1.61572 -0.822451 0
M  V30 3837 C 364.669 -2.53511 2.56446 0
M  V30 3838 O 363.773 -3.54953 2.09958 0
M  V30 3839 H 363.114 -0.408494 0.523477 0
M  V30 3840 H 365.644 -0.706646 1.9201 0
M  V30 3841 H 365.654 -3.00426 2.76058 0
M  V30 3842 H 364.329 -2.16549 3.55076 0
M  V30 3843 H 362.906 -3.14516 2.00334 0
M  V30 3844 N 365.091 -1.34144 -0.827227 0
M  V30 3845 C 366.368 -1.16844 -1.56865 0
M  V30 3846 C 366.748 0.260654 -2.09485 0
M  V30 3847 O 366.096 1.26138 -1.9053 0
M  V30 3848 C 366.306 -2.21939 -2.6934 0
M  V30 3849 C 367.654 -2.56695 -3.3822 0
M  V30 3850 O 368.678 -2.20695 -2.79593 0
M  V30 3851 O 367.537 -3.18518 -4.44082 0
M  V30 3852 H 364.631 -0.452669 -0.692112 0
M  V30 3853 H 367.177 -1.45763 -0.868973 0
M  V30 3854 H 365.949 -3.17882 -2.28182 0
M  V30 3855 H 365.572 -1.94172 -3.46962 0
M  V30 3856 N 366.569 1.04691 -1.17803 0
M  V30 3857 C 367.816 1.77782 -0.969532 0
M  V30 3858 C 368.144 1.87926 0.501401 0
M  V30 3859 O 367.399 1.37918 1.38842 0
M  V30 3860 C 367.698 3.21467 -1.56186 0
M  V30 3861 C 367.364 3.3137 -3.05786 0
M  V30 3862 C 366.026 3.3378 -3.46619 0
M  V30 3863 C 368.378 3.31976 -4.01797 0
M  V30 3864 C 365.706 3.34431 -4.82051 0
M  V30 3865 C 368.058 3.34167 -5.37136 0
M  V30 3866 C 366.722 3.34866 -5.77426 0
M  V30 3867 H 365.992 0.650549 -0.354777 0
M  V30 3868 H 368.639 1.23006 -1.46772 0
M  V30 3869 H 366.944 3.79203 -0.985515 0
M  V30 3870 H 368.641 3.76652 -1.37602 0
M  V30 3871 H 365.231 3.3021 -2.73238 0
M  V30 3872 H 369.415 3.29311 -3.71306 0
M  V30 3873 H 364.671 3.33285 -5.12573 0
M  V30 3874 H 368.845 3.33585 -6.11305 0
M  V30 3875 H 366.472 3.35124 -6.82346 0
M  V30 3876 N 368.047 0.979072 1.23499 0
M  V30 3877 C 368.98 0.463027 2.23453 0
M  V30 3878 C 369.958 -0.469128 1.55685 0
M  V30 3879 O 371.142 -0.397882 1.84253 0
M  V30 3880 C 368.269 -0.330308 3.37086 0
M  V30 3881 C 367.315 0.545795 4.22993 0
M  V30 3882 S 368.148 1.99285 4.97037 0
M  V30 3883 C 369.304 1.20862 6.1412 0
M  V30 3884 H 369.537 1.31005 2.6688 0
M  V30 3885 H 367.07 0.784965 1.32957 0
M  V30 3886 H 369.028 -0.782027 4.02982 0
M  V30 3887 H 367.689 -1.15244 2.92194 0
M  V30 3888 H 366.882 -0.0638928 5.03959 0
M  V30 3889 H 366.484 0.933705 3.62157 0
M  V30 3890 H 368.776 0.469284 6.75873 0
M  V30 3891 H 369.719 1.99307 6.79472 0
M  V30 3892 H 370.127 0.727992 5.59786 0
M  V30 3893 N 369.525 -1.3858 0.750561 0
M  V30 3894 C 370.458 -2.28095 0.0693139 0
M  V30 3895 C 371.436 -1.45217 -0.731491 0
M  V30 3896 O 372.62 -1.74587 -0.71076 0
M  V30 3897 C 369.747 -3.26282 -0.90871 0
M  V30 3898 C 368.793 -4.26056 -0.194507 0
M  V30 3899 S 369.626 -5.24026 1.10257 0
M  V30 3900 C 370.782 -6.2577 0.127542 0
M  V30 3901 H 371.015 -2.85526 0.8284 0
M  V30 3902 H 368.548 -1.44536 0.543014 0
M  V30 3903 H 370.506 -3.83367 -1.46766 0
M  V30 3904 H 369.167 -2.6784 -1.64075 0
M  V30 3905 H 368.36 -4.95249 -0.93512 0
M  V30 3906 H 367.962 -3.72852 0.292837 0
M  V30 3907 H 370.254 -6.73796 -0.707516 0
M  V30 3908 H 371.197 -7.03712 0.787044 0
M  V30 3909 H 371.605 -5.63938 -0.251803 0
M  V30 3910 N 371.003 -0.499398 -1.49478 0
M  V30 3911 C 372.233 0.0424839 -2.06556 0
M  V30 3912 C 372.641 1.31514 -1.36018 0
M  V30 3913 O 371.984 1.78555 -0.431718 0
M  V30 3914 C 372.046 0.368074 -3.57611 0
M  V30 3915 C 371.71 -0.806631 -4.49825 0
M  V30 3916 C 372.707 -1.69667 -4.91436 0
M  V30 3917 C 370.392 -1.00498 -4.92144 0
M  V30 3918 C 372.386 -2.76923 -5.74101 0
M  V30 3919 C 370.073 -2.08072 -5.74586 0
M  V30 3920 C 371.071 -2.96119 -6.15469 0
M  V30 3921 O 370.759 -4.01836 -6.96264 0
M  V30 3922 H 370.491 -0.0165165 -0.675798 0
M  V30 3923 H 373.045 -0.695497 -1.93267 0
M  V30 3924 H 371.275 1.15963 -3.68903 0
M  V30 3925 H 372.964 0.848381 -3.96935 0
M  V30 3926 H 373.73 -1.55524 -4.59388 0
M  V30 3927 H 369.609 -0.329036 -4.59824 0
M  V30 3928 H 373.153 -3.45676 -6.05932 0
M  V30 3929 H 369.05 -2.22211 -6.06047 0
M  V30 3930 H 369.818 -3.9917 -7.14567 0
M  V30 3931 N 372.481 1.55866 -0.233164 0
M  V30 3932 C 373.897 1.59133 0.121988 0
M  V30 3933 C 374.097 1.25016 1.58029 0
M  V30 3934 O 373.153 0.990922 2.32243 0
M  V30 3935 C 374.466 2.99932 -0.214792 0
M  V30 3936 C 376.014 3.12601 -0.157971 0
M  V30 3937 C 376.489 4.55597 -0.46859 0
M  V30 3938 N 377.98 4.61305 -0.418585 0
M  V30 3939 C 378.715 5.69903 -0.63227 0
M  V30 3940 N 378.211 6.86819 -0.90835 0
M  V30 3941 N 380.004 5.59264 -0.563913 0
M  V30 3942 H 372.155 1.76315 -1.18434 0
M  V30 3943 H 374.418 0.820093 -0.475553 0
M  V30 3944 H 374.124 3.29588 -1.22739 0
M  V30 3945 H 373.998 3.74327 0.464691 0
M  V30 3946 H 376.385 2.82735 0.845283 0
M  V30 3947 H 376.466 2.40511 -0.871102 0
M  V30 3948 H 376.11 4.86182 -1.46934 0
M  V30 3949 H 376.04 5.25928 0.265865 0
M  V30 3950 H 378.531 3.77297 -0.213368 0
M  V30 3951 H 378.844 7.65507 -1.05919 0
M  V30 3952 H 377.189 6.88536 -0.945673 0
M  V30 3953 H 380.38 4.66802 -0.348372 0
M  V30 3954 H 380.553 6.43831 -0.733847 0
M  V30 3955 N 373.959 -0.0401083 1.57549 0
M  V30 3956 C 375.184 -0.748931 1.93406 0
M  V30 3957 C 375.609 -1.68686 0.832274 0
M  V30 3958 O 374.967 -1.80047 -0.212818 0
M  V30 3959 C 375.015 -1.4916 3.28304 0
M  V30 3960 O 374.119 -2.6042 3.19774 0
M  V30 3961 H 373.46 -0.202212 0.63246 0
M  V30 3962 H 375.99 0.00112086 2.046 0
M  V30 3963 H 376 -1.86395 3.62934 0
M  V30 3964 H 374.675 -0.80364 4.08062 0
M  V30 3965 H 373.252 -2.25808 2.96758 0
M  V30 3966 N 375.437 -1.54477 -0.31217 0
M  V30 3967 C 376.685 -1.72884 -1.04668 0
M  V30 3968 C 377.006 -0.511477 -1.88173 0
M  V30 3969 O 376.276 0.474407 -1.90069 0
M  V30 3970 H 374.856 -0.637461 -0.389425 0
M  V30 3971 H 377.518 -1.91807 -0.345852 0
M  V30 3972 H 376.614 -2.61334 -1.70619 0
M  V30 3973 N 376.915 0.57481 -1.46744 0
M  V30 3974 C 378.164 1.32898 -1.51727 0
M  V30 3975 C 378.477 1.948 -0.176692 0
M  V30 3976 O 379.683 2.71299 -0.104385 0
M  V30 3977 C 378.139 2.40901 -2.67385 0
M  V30 3978 C 377.747 1.85266 -4.07898 0
M  V30 3979 C 379.491 3.17609 -2.81646 0
M  V30 3980 C 377.398 2.90945 -5.14883 0
M  V30 3981 H 376.328 0.499631 -0.564699 0
M  V30 3982 H 378.979 0.612536 -1.72975 0
M  V30 3983 H 377.361 3.15379 -2.39483 0
M  V30 3984 H 378.535 1.17278 -4.45626 0
M  V30 3985 H 376.85 1.21199 -3.98371 0
M  V30 3986 H 379.447 3.96493 -3.58744 0
M  V30 3987 H 379.79 3.70696 -1.89448 0
M  V30 3988 H 380.323 2.50239 -3.09233 0
M  V30 3989 H 377.062 2.42736 -6.089 0
M  V30 3990 H 376.582 3.57398 -4.81691 0
M  V30 3991 H 378.261 3.54755 -5.41071 0
M  V30 3992 N 378.394 1.34581 0.820102 0
M  V30 3993 C 379.624 1.29991 1.6058 0
M  V30 3994 C 380.032 -0.127588 1.88769 0
M  V30 3995 O 379.375 -1.08595 1.48165 0
M  V30 3996 C 379.437 2.02548 2.9701 0
M  V30 3997 C 379.101 3.51794 2.91701 0
M  V30 3998 C 380.098 4.46647 2.66087 0
M  V30 3999 C 377.783 3.94249 3.11245 0
M  V30 4000 C 379.777 5.81929 2.60071 0
M  V30 4001 C 377.464 5.2963 3.04853 0
M  V30 4002 C 378.462 6.23282 2.793 0
M  V30 4003 O 378.15 7.56181 2.72847 0
M  V30 4004 H 377.882 0.448539 0.505756 0
M  V30 4005 H 380.436 1.77811 1.02822 0
M  V30 4006 H 378.666 1.49345 3.56697 0
M  V30 4007 H 380.355 1.91211 3.58041 0
M  V30 4008 H 381.121 4.15168 2.5072 0
M  V30 4009 H 377 3.21749 3.30149 0
M  V30 4010 H 380.544 6.54999 2.40046 0
M  V30 4011 H 376.441 5.60727 3.19774 0
M  V30 4012 H 377.209 7.6595 2.88553 0
M  V30 4013 N 379.872 -1.04064 1.18357 0
M  V30 4014 C 380.804 -2.12114 0.868358 0
M  V30 4015 C 381.817 -1.62247 -0.134045 0
M  V30 4016 O 383.006 -1.78253 0.0937933 0
M  V30 4017 C 380.106 -3.37773 0.276132 0
M  V30 4018 C 379.279 -4.16874 1.3242 0
M  V30 4019 C 378.338 -5.20861 0.747662 0
M  V30 4020 O 377.364 -5.51141 1.42239 0
M  V30 4021 N 378.566 -5.78715 -0.454823 0
M  V30 4022 H 381.331 -2.39748 1.79836 0
M  V30 4023 H 378.892 -1.20258 1.08396 0
M  V30 4024 H 380.884 -4.04513 -0.123133 0
M  V30 4025 H 379.454 -3.07581 -0.557895 0
M  V30 4026 H 378.674 -3.45456 1.89878 0
M  V30 4027 H 379.962 -4.66516 2.03078 0
M  V30 4028 H 379.36 -5.56415 -1.02073 0
M  V30 4029 H 377.917 -6.46921 -0.79601 0
M  V30 4030 N 381.35 -0.985608 -1.22978 0
M  V30 4031 C 382.575 -0.675254 -1.961 0
M  V30 4032 C 383 0.752154 -1.72407 0
M  V30 4033 O 382.358 1.5131 -0.998751 0
M  V30 4034 C 382.406 -0.977899 -3.47087 0
M  V30 4035 O 381.51 -0.072685 -4.12336 0
M  V30 4036 H 380.851 -0.253443 -0.613728 0
M  V30 4037 H 383.381 -1.32061 -1.56272 0
M  V30 4038 H 383.391 -0.916739 -3.97567 0
M  V30 4039 H 382.066 -2.01807 -3.63657 0
M  V30 4040 H 380.643 -0.188703 -3.72422 0
M  V30 4041 N 382.828 1.3818 -0.7579 0
M  V30 4042 C 383.76 2.2901 -0.0932177 0
M  V30 4043 C 384.773 1.47958 0.679136 0
M  V30 4044 O 385.962 1.70773 0.519514 0
M  V30 4045 C 383.062 3.26953 0.89192 0
M  V30 4046 C 382.235 4.37045 0.176303 0
M  V30 4047 C 381.294 5.15148 1.07281 0
M  V30 4048 O 380.32 5.66616 0.541728 0
M  V30 4049 N 381.522 5.28542 2.40049 0
M  V30 4050 H 384.287 2.86694 -0.873303 0
M  V30 4051 H 381.848 1.50007 -0.609054 0
M  V30 4052 H 383.84 3.76083 1.49479 0
M  V30 4053 H 382.41 2.70136 1.57306 0
M  V30 4054 H 381.63 3.89493 -0.607328 0
M  V30 4055 H 382.918 5.07801 -0.318718 0
M  V30 4056 H 382.316 4.88285 2.85647 0
M  V30 4057 H 380.873 5.8103 2.95376 0
M  V30 4058 N 384.306 0.507319 1.49211 0
M  V30 4059 C 385.534 -0.0315749 2.06876 0
M  V30 4060 C 385.949 -1.30241 1.36685 0
M  V30 4061 O 385.306 -1.76937 0.447152 0
M  V30 4062 C 385.357 -0.282627 3.60393 0
M  V30 4063 O 385.078 0.937835 4.27944 0
M  V30 4064 C 386.579 -0.864453 4.3479 0
M  V30 4065 H 383.799 0.0233048 0.670595 0
M  V30 4066 H 386.343 0.706484 1.91909 0
M  V30 4067 H 384.498 -0.97068 3.75042 0
M  V30 4068 H 384.912 0.704567 5.19746 0
M  V30 4069 H 386.386 -0.989664 5.43056 0
M  V30 4070 H 386.863 -1.86382 3.97692 0
M  V30 4071 H 387.469 -0.213672 4.24763 0
M  V30 4072 N 385.784 -1.5574 0.241426 0
M  V30 4073 C 387.024 -2.00714 -0.38644 0
M  V30 4074 C 387.388 -1.12586 -1.55526 0
M  V30 4075 O 388.589 -1.46992 -2.25048 0
M  V30 4076 C 386.86 -3.48534 -0.791128 0
M  V30 4077 S 388.419 -4.15519 -1.41029 0
M  V30 4078 H 385.237 -0.700484 -0.121834 0
M  V30 4079 H 387.839 -1.92243 0.355377 0
M  V30 4080 H 386.543 -4.10342 0.0689225 0
M  V30 4081 H 386.074 -3.6092 -1.56526 0
M  V30 4082 H 388.089 -4.16352 -2.69936 0
M  V30 4083 N 387.262 0.0317525 -1.57568 0
M  V30 4084 C 388.487 0.738664 -1.938 0
M  V30 4085 C 388.912 1.68242 -0.841208 0
M  V30 4086 O 388.27 1.80157 0.203267 0
M  V30 4087 C 388.318 1.47417 -3.29091 0
M  V30 4088 O 387.422 2.5872 -3.2115 0
M  V30 4089 H 386.763 0.198856 -0.633524 0
M  V30 4090 H 389.293 -0.0119713 -2.04596 0
M  V30 4091 H 389.303 1.84468 -3.63917 0
M  V30 4092 H 387.978 0.781988 -4.08482 0
M  V30 4093 H 386.555 2.24231 -2.97951 0
M  V30 4094 N 388.74 1.54641 0.303973 0
M  V30 4095 C 390.151 1.64811 0.877163 0
M  V30 4096 C 390.502 0.554838 1.88191 0
M  V30 4097 O 389.627 -0.309033 2.14182 0
M  V30 4098 C 390.222 2.9876 1.59775 0
M  V30 4099 C 388.781 3.11061 2.11938 0
M  V30 4100 C 387.928 2.60479 0.951097 0
M  V30 4101 H 390.879 1.58493 0.0810486 0
M  V30 4102 H 390.9 2.90017 2.46314 0
M  V30 4103 H 390.412 3.7831 0.866226 0
M  V30 4104 H 388.513 2.36225 2.88146 0
M  V30 4105 H 388.626 4.17171 2.35595 0
M  V30 4106 H 386.99 2.16859 1.33583 0
M  V30 4107 H 387.773 3.42504 0.233581 0
M  V30 4108 N 390.218 -0.567019 1.47046 0
M  V30 4109 C 391.148 -1.68482 1.61667 0
M  V30 4110 C 392.129 -1.6358 0.466418 0
M  V30 4111 O 393.314 -1.81354 0.694574 0
M  V30 4112 C 390.444 -3.07124 1.62148 0
M  V30 4113 C 389.398 -3.26867 2.76301 0
M  V30 4114 C 388.724 -4.66196 2.61849 0
M  V30 4115 C 390.024 -3.13186 4.17986 0
M  V30 4116 H 391.718 -1.56502 2.5524 0
M  V30 4117 H 389.264 -0.751486 1.22836 0
M  V30 4118 H 391.217 -3.8516 1.70968 0
M  V30 4119 H 389.941 -3.2004 0.651287 0
M  V30 4120 H 388.6 -2.51237 2.66975 0
M  V30 4121 H 388.248 -4.75898 1.62879 0
M  V30 4122 H 387.948 -4.80356 3.38425 0
M  V30 4123 H 389.472 -5.46379 2.72584 0
M  V30 4124 H 390.886 -3.81049 4.2834 0
M  V30 4125 H 389.283 -3.3886 4.95272 0
M  V30 4126 H 390.353 -2.10057 4.3704 0
M  V30 4127 N 391.696 -1.35014 -0.812953 0
M  V30 4128 C 393.112 -1.14914 -1.10757 0
M  V30 4129 C 393.312 0.0426818 -2.01455 0
M  V30 4130 O 392.368 0.715212 -2.42159 0
M  V30 4131 C 393.681 -2.44911 -1.74468 0
M  V30 4132 C 395.229 -2.5106 -1.86917 0
M  V30 4133 C 395.704 -3.81085 -2.54044 0
M  V30 4134 N 397.195 -3.82301 -2.61535 0
M  V30 4135 C 397.93 -4.79634 -3.14227 0
M  V30 4136 N 397.426 -5.87353 -3.67407 0
M  V30 4137 N 399.219 -4.67078 -3.12721 0
M  V30 4138 H 391.37 -2.1136 -0.20989 0
M  V30 4139 H 393.633 -0.935128 -0.155692 0
M  V30 4140 H 393.339 -3.32267 -1.15289 0
M  V30 4141 H 393.213 -2.58989 -2.74234 0
M  V30 4142 H 395.6 -1.64137 -2.45241 0
M  V30 4143 H 395.681 -2.40901 -0.860242 0
M  V30 4144 H 395.325 -4.68402 -1.96372 0
M  V30 4145 H 395.255 -3.88529 -3.55461 0
M  V30 4146 H 397.746 -3.04465 -2.23851 0
M  V30 4147 H 398.059 -6.57624 -4.05894 0
M  V30 4148 H 396.404 -5.91054 -3.65623 0
M  V30 4149 H 399.595 -3.82067 -2.70449 0
M  V30 4150 H 399.768 -5.43098 -3.53481 0
M  V30 4151 N 393.175 1.03435 -1.18907 0
M  V30 4152 C 394.421 1.77005 -0.989798 0
M  V30 4153 C 394.754 1.88205 0.478816 0
M  V30 4154 O 394.029 1.39481 1.35556 0
M  V30 4155 C 394.312 3.19925 -1.65287 0
M  V30 4156 C 394.165 3.1663 -3.19477 0
M  V30 4157 C 395.484 4.18189 -1.37134 0
M  V30 4158 H 392.603 0.642538 -0.360991 0
M  V30 4159 H 395.245 1.20784 -1.46667 0
M  V30 4160 H 393.395 3.67929 -1.24741 0
M  V30 4161 H 395.067 2.76567 -3.692 0
M  V30 4162 H 393.31 2.54491 -3.51307 0
M  V30 4163 H 393.981 4.1758 -3.61013 0
M  V30 4164 H 396.457 3.78761 -1.72276 0
M  V30 4165 H 395.333 5.16394 -1.86087 0
M  V30 4166 H 395.594 4.41112 -0.295424 0
M  V30 4167 N 394.653 0.992116 1.22453 0
M  V30 4168 C 395.601 0.534644 2.26372 0
M  V30 4169 C 396.595 -0.414293 1.64256 0
M  V30 4170 O 397.801 -0.286899 1.77699 0
M  V30 4171 H 394.176 0.154502 0.735957 0
M  V30 4172 H 396.147 1.42256 2.62309 0
M  V30 4173 C 394.896 -0.135815 3.47435 0
M  V30 4174 H 394.219 0.585311 3.95492 0
M  V30 4175 H 395.659 -0.419374 4.21921 0
M  V30 4176 C 394.118 -1.37089 3.07747 0
M  V30 4177 O 394.648 -2.46629 3.17076 0
M  V30 4178 N 392.854 -1.24585 2.62539 0
M  V30 4179 H 392.401 -0.354542 2.55149 0
M  V30 4180 H 392.359 -2.07327 2.36353 0
M  V30 4181 N 396.131 -1.37776 0.765217 0
M  V30 4182 C 397.081 -2.2768 0.12075 0
M  V30 4183 C 398.065 -1.45778 -0.680988 0
M  V30 4184 O 399.257 -1.684 -0.545033 0
M  V30 4185 C 396.386 -3.34722 -0.762626 0
M  V30 4186 C 395.472 -4.24074 0.0465881 0
M  V30 4187 N 395.863 -4.93939 1.08892 0
M  V30 4188 C 394.161 -4.45643 -0.178418 0
M  V30 4189 C 394.862 -5.59845 1.57951 0
M  V30 4190 N 393.838 -5.36218 0.892797 0
M  V30 4191 H 397.64 -2.79166 0.918889 0
M  V30 4192 H 395.154 -1.50816 0.602353 0
M  V30 4193 H 397.151 -3.98031 -1.24005 0
M  V30 4194 H 395.811 -2.84793 -1.55959 0
M  V30 4195 H 396.822 -4.96572 1.47095 0
M  V30 4196 H 393.499 -4.06599 -0.9478 0
M  V30 4197 H 394.889 -6.25703 2.44838 0
M  V30 4198 N 397.609 -0.515225 -1.4894 0
M  V30 4199 C 398.572 0.244681 -2.2789 0
M  V30 4200 C 399.572 0.881166 -1.34507 0
M  V30 4201 O 400.762 0.743497 -1.57537 0
M  V30 4202 C 397.894 1.35247 -3.12923 0
M  V30 4203 H 399.087 -0.448289 -2.96531 0
M  V30 4204 H 396.64 -0.270656 -1.53939 0
M  V30 4205 H 397.375 2.07916 -2.48881 0
M  V30 4206 H 397.16 0.901374 -3.81599 0
M  V30 4207 H 398.65 1.88737 -3.72516 0
M  V30 4208 N 399.087 1.5561 -0.249682 0
M  V30 4209 C 400.333 1.99306 0.374841 0
M  V30 4210 C 400.666 1.13767 1.57387 0
M  V30 4211 O 399.941 0.201711 1.93451 0
M  V30 4212 C 400.224 3.51507 0.781986 0
M  V30 4213 C 400.077 4.4781 -0.422629 0
M  V30 4214 C 401.396 4.08884 1.62793 0
M  V30 4215 H 398.515 0.724572 0.134773 0
M  V30 4216 H 401.157 1.86719 -0.351549 0
M  V30 4217 H 399.307 3.62363 1.4009 0
M  V30 4218 H 400.979 4.48931 -1.06108 0
M  V30 4219 H 399.222 4.20518 -1.06524 0
M  V30 4220 H 399.893 5.51919 -0.0943766 0
M  V30 4221 H 402.369 4.01147 1.10547 0
M  V30 4222 H 401.245 5.1564 1.88166 0
M  V30 4223 H 401.506 3.57515 2.60068 0
M  V30 4224 N 400.565 -0.0233959 1.57583 0
M  V30 4225 C 401.495 -1.02162 2.09965 0
M  V30 4226 C 402.476 -1.3735 1.00344 0
M  V30 4227 O 403.661 -1.46135 1.27899 0
M  V30 4228 C 400.791 -2.32081 2.58371 0
M  V30 4229 C 399.745 -2.1112 3.72307 0
M  V30 4230 C 399.071 -3.46848 4.06941 0
M  V30 4231 C 400.371 -1.49276 5.00514 0
M  V30 4232 H 402.065 -0.585557 2.93618 0
M  V30 4233 H 399.611 -0.280218 1.41247 0
M  V30 4234 H 401.564 -3.02249 2.93639 0
M  V30 4235 H 400.288 -2.77758 1.71808 0
M  V30 4236 H 398.947 -1.43384 3.37397 0
M  V30 4237 H 398.595 -3.90184 3.17436 0
M  V30 4238 H 398.295 -3.33646 4.83688 0
M  V30 4239 H 399.819 -4.18369 4.44747 0
M  V30 4240 H 401.233 -2.09368 5.33702 0
M  V30 4241 H 399.63 -1.46632 5.8191 0
M  V30 4242 H 400.7 -0.459217 4.82721 0
M  V30 4243 N 402.043 -1.548 -0.295768 0
M  V30 4244 C 403.006 -1.85363 -1.34808 0
M  V30 4245 C 404.006 -0.726817 -1.43436 0
M  V30 4246 O 405.196 -0.995088 -1.42981 0
M  V30 4247 C 402.328 -2.03859 -2.73229 0
M  V30 4248 H 403.521 -2.7941 -1.08949 0
M  V30 4249 H 401.074 -1.46942 -0.532702 0
M  V30 4250 H 401.809 -1.12117 -3.04303 0
M  V30 4251 H 401.594 -2.8588 -2.68356 0
M  V30 4252 H 403.084 -2.28857 -3.49305 0
M  V30 4253 N 403.521 0.559213 -1.47345 0
M  V30 4254 C 404.767 1.31843 -1.54095 0
M  V30 4255 C 405.1 1.93149 -0.201726 0
M  V30 4256 O 404.375 1.77759 0.789428 0
M  V30 4257 C 404.658 2.43006 -2.65744 0
M  V30 4258 C 404.511 1.86581 -4.09277 0
M  V30 4259 C 405.83 3.44943 -2.73318 0
M  V30 4260 H 402.949 0.478012 -0.560957 0
M  V30 4261 H 405.591 0.625977 -1.79392 0
M  V30 4262 H 403.741 3.02072 -2.44305 0
M  V30 4263 H 405.413 1.31792 -4.42073 0
M  V30 4264 H 403.656 1.17268 -4.17649 0
M  V30 4265 H 404.327 2.66933 -4.83168 0
M  V30 4266 H 406.803 2.95793 -2.92653 0
M  V30 4267 H 405.679 4.20153 -3.53218 0
M  V30 4268 H 405.94 4.03665 -1.80296 0
M  V30 4269 N 404.999 1.35443 0.805782 0
M  V30 4270 C 406.247 1.28507 1.55982 0
M  V30 4271 C 406.568 -0.140046 1.94496 0
M  V30 4272 O 405.838 -1.07666 1.63661 0
M  V30 4273 H 404.418 0.472676 0.578434 0
M  V30 4274 H 407.08 1.69555 0.961098 0
M  V30 4275 H 406.176 1.90148 2.47488 0
M  V30 4276 N 406.477 -1.02803 1.19454 0
M  V30 4277 C 407.707 -1.79581 1.02149 0
M  V30 4278 C 408.115 -1.84182 -0.432851 0
M  V30 4279 O 407.458 -1.28534 -1.31243 0
M  V30 4280 C 407.52 -3.25993 1.51554 0
M  V30 4281 C 407.184 -3.45025 2.99678 0
M  V30 4282 C 408.181 -3.35175 3.97434 0
M  V30 4283 C 405.866 -3.71212 3.38389 0
M  V30 4284 C 407.86 -3.51238 5.31893 0
M  V30 4285 C 405.547 -3.8692 4.73008 0
M  V30 4286 C 406.545 -3.76936 5.69569 0
M  V30 4287 O 406.233 -3.92179 7.01748 0
M  V30 4288 H 405.965 -0.571962 0.360327 0
M  V30 4289 H 408.519 -1.30367 1.58725 0
M  V30 4290 H 406.749 -3.76235 0.893543 0
M  V30 4291 H 408.438 -3.84368 1.30444 0
M  V30 4292 H 409.204 -3.14895 3.68872 0
M  V30 4293 H 405.083 -3.78075 2.6378 0
M  V30 4294 H 408.627 -3.43362 6.07247 0
M  V30 4295 H 404.524 -4.06699 5.01265 0
M  V30 4296 H 405.292 -4.09265 7.08833 0
M  V30 4297 N 407.956 -0.998596 -1.21925 0
M  V30 4298 C 409.204 -0.676325 -1.90448 0
M  V30 4299 C 409.525 0.794719 -1.78071 0
M  V30 4300 O 408.795 1.5701 -1.17152 0
M  V30 4301 H 407.375 -0.247165 -0.704925 0
M  V30 4302 H 410.037 -1.26633 -1.48156 0
M  V30 4303 H 409.133 -0.943858 -2.97486 0
M  V30 4304 N 409.434 1.37368 -0.772513 0
M  V30 4305 C 410.662 2.03942 -0.348588 0
M  V30 4306 C 411.077 1.58264 1.02947 0
M  V30 4307 O 410.434 0.764246 1.65727 0
M  V30 4308 C 410.485 3.5946 -0.38351 0
M  V30 4309 O 410.206 4.03468 -1.70721 0
M  V30 4310 C 411.707 4.4327 0.0519152 0
M  V30 4311 H 408.927 0.654931 -0.145966 0
M  V30 4312 H 411.471 1.75686 -1.04665 0
M  V30 4313 H 409.626 3.86486 0.265978 0
M  V30 4314 H 410.04 4.97991 -1.64636 0
M  V30 4315 H 411.514 5.51995 -0.0236733 0
M  V30 4316 H 411.991 4.2514 1.10238 0
M  V30 4317 H 412.597 4.21471 -0.569415 0
M  V30 4318 N 410.912 0.523116 1.48665 0
M  V30 4319 C 411.844 -0.280421 2.27478 0
M  V30 4320 C 412.857 -0.910694 1.34945 0
M  V30 4321 O 414.046 -0.790295 1.60052 0
M  V30 4322 C 411.146 -1.41171 3.08097 0
M  V30 4323 C 410.319 -0.884642 4.28361 0
M  V30 4324 C 409.378 -1.89622 4.90846 0
M  V30 4325 O 408.404 -1.4559 5.50265 0
M  V30 4326 N 409.606 -3.22801 4.82472 0
M  V30 4327 H 412.371 0.395481 2.97079 0
M  V30 4328 H 409.932 0.357018 1.57915 0
M  V30 4329 H 411.924 -2.08645 3.4677 0
M  V30 4330 H 410.494 -1.99139 2.40961 0
M  V30 4331 H 409.714 -0.0341177 3.94185 0
M  V30 4332 H 411.002 -0.511268 5.06225 0
M  V30 4333 H 410.4 -3.61246 4.35336 0
M  V30 4334 H 408.957 -3.85927 5.25265 0
M  V30 4335 N 412.39 -1.55475 0.257931 0
M  V30 4336 C 413.638 -1.98813 -0.363009 0
M  V30 4337 C 413.959 -1.14757 -1.57657 0
M  V30 4338 O 413.229 -0.232956 -1.9451 0
M  V30 4339 H 411.809 -0.734308 -0.137113 0
M  V30 4340 H 414.471 -1.9156 0.359281 0
M  V30 4341 H 413.567 -3.04941 -0.664634 0
M  V30 4342 N 413.868 0.0150385 -1.57593 0
M  V30 4343 C 415.116 0.701613 -1.8953 0
M  V30 4344 C 415.437 1.75139 -0.857396 0
M  V30 4345 O 414.707 1.95607 0.107194 0
M  V30 4346 H 413.287 0.26213 -0.699498 0
M  V30 4347 H 415.949 -0.0223304 -1.94887 0
M  V30 4348 H 415.045 1.18236 -2.88837 0
M  V30 4349 N 415.346 1.54954 0.287554 0
M  V30 4350 C 416.574 1.78881 1.03967 0
M  V30 4351 C 416.989 0.554894 1.80462 0
M  V30 4352 O 416.346 -0.475676 1.76192 0
M  V30 4353 C 416.397 3.00488 2.0097 0
M  V30 4354 O 416.118 4.19113 1.27577 0
M  V30 4355 C 417.619 3.36907 2.88112 0
M  V30 4356 H 414.839 0.596259 0.307761 0
M  V30 4357 H 417.383 2.01937 0.322749 0
M  V30 4358 H 415.538 2.79601 2.68145 0
M  V30 4359 H 415.952 4.87765 1.92835 0
M  V30 4360 H 417.426 4.25205 3.52001 0
M  V30 4361 H 417.903 2.55659 3.57121 0
M  V30 4362 H 418.509 3.60001 2.26449 0
M  V30 4363 N 416.824 -0.551391 1.4764 0
M  V30 4364 C 418.101 -1.31229 1.45046 0
M  V30 4365 C 418.481 -2.10563 0.150527 0
M  V30 4366 O 417.829 -2.11374 -0.867956 0
M  V30 4367 C 418.039 -2.21189 2.69956 0
M  V30 4368 C 419.387 -2.82021 3.1741 0
M  V30 4369 O 420.411 -2.31488 2.70724 0
M  V30 4370 O 419.27 -3.73885 3.98588 0
M  V30 4371 H 416.364 -0.591193 0.578291 0
M  V30 4372 H 418.91 -0.569813 1.59847 0
M  V30 4373 H 417.682 -1.62207 3.56096 0
M  V30 4374 H 417.305 -3.02722 2.57769 0
M  V30 4375 N 418.302 -1.35869 -0.798587 0
M  V30 4376 C 419.532 -1.32529 -1.58491 0
M  V30 4377 C 419.94 0.0975405 -1.88948 0
M  V30 4378 O 419.283 1.06224 -1.49874 0
M  V30 4379 C 419.345 -2.07247 -2.9375 0
M  V30 4380 C 419.009 -3.56391 -2.86068 0
M  V30 4381 C 420.006 -4.50824 -2.58947 0
M  V30 4382 C 417.691 -3.9915 -3.04933 0
M  V30 4383 C 419.685 -5.85993 -2.5078 0
M  V30 4384 C 417.372 -5.34413 -2.96389 0
M  V30 4385 C 418.37 -6.27646 -2.69349 0
M  V30 4386 O 418.058 -7.60426 -2.60782 0
M  V30 4387 H 417.79 -0.456529 -0.498556 0
M  V30 4388 H 420.344 -1.79425 -0.999799 0
M  V30 4389 H 418.574 -1.55001 -3.54276 0
M  V30 4390 H 420.263 -1.96883 -3.54954 0
M  V30 4391 H 421.029 -4.19104 -2.44084 0
M  V30 4392 H 416.908 -3.26961 -3.24989 0
M  V30 4393 H 420.452 -6.58735 -2.29595 0
M  V30 4394 H 416.349 -5.65743 -3.10813 0
M  V30 4395 H 417.117 -7.70444 -2.76331 0
M  V30 4396 N 419.78 1.02168 -1.19998 0
M  V30 4397 C 421.026 1.7606 -1.01855 0
M  V30 4398 C 421.381 1.87178 0.445222 0
M  V30 4399 O 420.674 1.3828 1.32624 0
M  V30 4400 C 420.868 3.18081 -1.62969 0
M  V30 4401 C 420.697 3.20809 -3.15137 0
M  V30 4402 C 419.467 3.28342 -3.84083 0
M  V30 4403 C 421.665 3.07268 -4.1242 0
M  V30 4404 N 419.647 3.2052 -5.23584 0
M  V30 4405 C 421.018 3.0716 -5.38566 0
M  V30 4406 C 423.073 2.91448 -4.03686 0
M  V30 4407 C 421.776 2.92853 -6.56985 0
M  V30 4408 C 423.802 2.78494 -5.21723 0
M  V30 4409 C 423.164 2.79046 -6.46771 0
M  V30 4410 H 419.263 0.655192 -0.426905 0
M  V30 4411 H 421.847 1.21564 -1.52087 0
M  V30 4412 H 420.018 3.70882 -1.15329 0
M  V30 4413 H 421.75 3.80375 -1.38192 0
M  V30 4414 H 418.505 3.34859 -3.34913 0
M  V30 4415 H 418.929 3.19997 -5.96599 0
M  V30 4416 H 423.571 2.89838 -3.07821 0
M  V30 4417 H 421.289 2.93213 -7.53028 0
M  V30 4418 H 424.875 2.67278 -5.16773 0
M  V30 4419 H 423.755 2.69134 -7.36571 0
M  V30 4420 N 421.258 1.00505 1.21394 0
M  V30 4421 C 422.507 0.683159 1.89778 0
M  V30 4422 C 422.82 -0.789471 1.7896 0
M  V30 4423 O 424.026 -1.22344 2.42372 0
M  V30 4424 C 422.482 1.17146 3.40301 0
M  V30 4425 C 422.09 2.67017 3.5973 0
M  V30 4426 C 423.834 0.924461 4.14311 0
M  V30 4427 C 421.741 3.09387 5.04017 0
M  V30 4428 H 420.671 0.25183 0.710702 0
M  V30 4429 H 423.322 1.21622 1.37406 0
M  V30 4430 H 421.704 0.566451 3.91928 0
M  V30 4431 H 422.878 3.32968 3.18542 0
M  V30 4432 H 421.193 2.89732 2.99073 0
M  V30 4433 H 423.79 1.21658 5.20676 0
M  V30 4434 H 424.133 -0.139286 4.16067 0
M  V30 4435 H 424.666 1.49226 3.6875 0
M  V30 4436 H 421.405 4.14989 5.07409 0
M  V30 4437 H 420.925 2.48149 5.46061 0
M  V30 4438 H 422.604 3.01371 5.72525 0
M  V30 4439 N 422.737 -1.36956 0.779787 0
M  V30 4440 C 423.983 -1.99787 0.348281 0
M  V30 4441 C 424.316 -1.61756 -1.07465 0
M  V30 4442 O 423.591 -0.867639 -1.74075 0
M  V30 4443 C 423.874 -3.56597 0.50104 0
M  V30 4444 C 423.727 -4.04513 1.96697 0
M  V30 4445 C 425.046 -4.40008 -0.0898097 0
M  V30 4446 H 422.165 -0.725796 0.128022 0
M  V30 4447 H 424.807 -1.62514 0.984331 0
M  V30 4448 H 422.957 -3.88479 -0.0404347 0
M  V30 4449 H 424.629 -3.83161 2.56876 0
M  V30 4450 H 422.872 -3.56408 2.47297 0
M  V30 4451 H 423.543 -5.1352 2.02486 0
M  V30 4452 H 426.019 -4.14431 0.372293 0
M  V30 4453 H 424.895 -5.4888 0.0471605 0
M  V30 4454 H 425.156 -4.26035 -1.18096 0
M  V30 4455 N 424.215 -0.530993 -1.48385 0
M  V30 4456 C 425.162 0.231223 -2.29639 0
M  V30 4457 C 426.132 0.932864 -1.37429 0
M  V30 4458 O 427.317 0.933692 -1.66394 0
M  V30 4459 C 424.457 1.27155 -3.2082 0
M  V30 4460 C 423.57 0.578655 -4.28107 0
M  V30 4461 C 422.705 1.602 -5.06467 0
M  V30 4462 C 421.744 0.892625 -6.05556 0
M  V30 4463 N 420.881 1.86157 -6.76971 0
M  V30 4464 H 425.721 -0.467848 -2.94305 0
M  V30 4465 H 423.258 -0.242556 -1.45086 0
M  V30 4466 H 425.216 1.88703 -3.72085 0
M  V30 4467 H 423.846 1.939 -2.58075 0
M  V30 4468 H 422.898 -0.150782 -3.80101 0
M  V30 4469 H 424.21 0.0217065 -4.98795 0
M  V30 4470 H 423.364 2.29173 -5.61751 0
M  V30 4471 H 422.103 2.19285 -4.35621 0
M  V30 4472 H 421.108 0.188829 -5.49476 0
M  V30 4473 H 422.333 0.307878 -6.78402 0
M  V30 4474 H 420.279 2.44147 -6.08875 0
M  V30 4475 H 420.196 1.35608 -7.43738 0
M  V30 4476 H 421.464 2.54325 -7.36844 0
M  V30 4477 N 425.693 1.55336 -0.266172 0
M  V30 4478 C 426.641 2.23587 0.641228 0
M  V30 4479 C 427.635 1.22986 1.16494 0
M  V30 4480 O 428.841 1.40943 1.1196 0
M  V30 4481 H 425.216 0.717452 0.225315 0
M  V30 4482 H 427.187 2.9837 0.0426561 0
M  V30 4483 C 425.936 2.96369 1.81826 0
M  V30 4484 H 425.259 3.73563 1.42445 0
M  V30 4485 H 426.699 3.47459 2.42998 0
M  V30 4486 C 425.158 2.0133 2.70125 0
M  V30 4487 O 425.688 1.55875 3.70224 0
M  V30 4488 N 423.894 1.6802 2.37102 0
M  V30 4489 H 423.441 2.05181 1.55751 0
M  V30 4490 H 423.399 1.047 2.96454 0
M  V30 4491 N 427.171 -0.0066808 1.57599 0
M  V30 4492 C 428.396 -0.707738 1.94951 0
M  V30 4493 C 428.821 -1.66882 0.867868 0
M  V30 4494 O 428.179 -1.80457 -0.17458 0
M  V30 4495 C 428.227 -1.42162 3.31394 0
M  V30 4496 O 427.331 -2.53578 3.25226 0
M  V30 4497 H 426.672 -0.188752 0.636607 0
M  V30 4498 H 429.202 0.0445193 2.04552 0
M  V30 4499 H 429.212 -1.78655 3.66806 0
M  V30 4500 H 427.887 -0.716903 4.09675 0
M  V30 4501 H 426.464 -2.19463 3.01481 0
M  V30 4502 N 428.649 -1.55105 -0.279332 0
M  V30 4503 C 429.895 -1.76597 -1.00921 0
M  V30 4504 C 430.25 -0.556831 -1.84166 0
M  V30 4505 O 429.543 0.450573 -1.86227 0
M  V30 4506 C 429.737 -3.0086 -1.92919 0
M  V30 4507 C 429.566 -4.33744 -1.18728 0
M  V30 4508 C 428.336 -4.9712 -0.905545 0
M  V30 4509 C 430.534 -5.11009 -0.580857 0
M  V30 4510 N 428.516 -6.13749 -0.136169 0
M  V30 4511 C 429.887 -6.19976 0.0546661 0
M  V30 4512 C 431.942 -4.95502 -0.488067 0
M  V30 4513 C 430.645 -7.15123 0.774028 0
M  V30 4514 C 432.671 -5.90999 0.217688 0
M  V30 4515 C 432.033 -6.9935 0.841975 0
M  V30 4516 H 428.132 -0.698553 -0.351493 0
M  V30 4517 H 430.716 -1.92595 -0.285531 0
M  V30 4518 H 428.887 -2.86249 -2.62519 0
M  V30 4519 H 430.619 -3.10784 -2.59221 0
M  V30 4520 H 427.374 -4.57903 -1.20921 0
M  V30 4521 H 427.798 -6.7659 0.235665 0
M  V30 4522 H 432.44 -4.11841 -0.956406 0
M  V30 4523 H 430.158 -7.9831 1.25407 0
M  V30 4524 H 433.744 -5.81078 0.289717 0
M  V30 4525 H 432.624 -7.71973 1.37939 0
M  V30 4526 N 430.127 0.543554 -1.4793 0
M  V30 4527 C 431.375 1.29752 -1.54948 0
M  V30 4528 C 431.696 1.93764 -0.219242 0
M  V30 4529 O 430.966 1.80639 0.75805 0
M  V30 4530 H 429.546 0.481874 -0.570795 0
M  V30 4531 H 432.208 0.633636 -1.84312 0
M  V30 4532 H 431.304 2.08392 -2.32334 0
M  V30 4533 N 431.605 1.3629 0.791371 0
M  V30 4534 C 432.833 1.33562 1.58016 0
M  V30 4535 C 433.248 -0.0835616 1.88615 0
M  V30 4536 O 432.605 -1.0399 1.49974 0
M  V30 4537 C 432.656 2.15517 2.90232 0
M  V30 4538 O 432.377 3.51902 2.60953 0
M  V30 4539 C 433.878 2.20546 3.84544 0
M  V30 4540 H 431.098 0.458226 0.490173 0
M  V30 4541 H 433.642 1.79361 0.982345 0
M  V30 4542 H 431.797 1.73278 3.46487 0
M  V30 4543 H 432.211 3.94644 3.4548 0
M  V30 4544 H 433.685 2.82252 4.74382 0
M  V30 4545 H 434.162 1.20838 4.2225 0
M  V30 4546 H 434.768 2.63013 3.34222 0
M  V30 4547 N 433.083 -1.0153 1.20538 0
M  V30 4548 C 434.313 -1.78487 1.04048 0
M  V30 4549 C 434.721 -1.84631 -0.413292 0
M  V30 4550 O 434.064 -1.29919 -1.29872 0
M  V30 4551 C 434.126 -3.24367 1.55003 0
M  V30 4552 C 433.79 -3.41827 3.0332 0
M  V30 4553 C 434.787 -3.30941 4.00966 0
M  V30 4554 C 432.472 -3.67602 3.42307 0
M  V30 4555 C 434.466 -3.45577 5.35589 0
M  V30 4556 C 432.153 -3.81881 4.77085 0
M  V30 4557 C 433.151 -3.70874 5.73534 0
M  V30 4558 O 432.839 -3.84714 7.05868 0
M  V30 4559 H 432.571 -0.568108 0.366373 0
M  V30 4560 H 435.125 -1.28677 1.60098 0
M  V30 4561 H 433.355 -3.75266 0.933397 0
M  V30 4562 H 435.044 -3.82963 1.34514 0
M  V30 4563 H 435.81 -3.10964 3.72191 0
M  V30 4564 H 431.689 -3.75256 2.67776 0
M  V30 4565 H 435.233 -3.36902 6.10854 0
M  V30 4566 H 431.13 -4.01359 5.0555 0
M  V30 4567 H 431.898 -4.01724 7.13134 0
M  V30 4568 N 434.561 -1.01147 -1.20859 0
M  V30 4569 C 435.807 -0.708598 -1.90658 0
M  V30 4570 C 436.162 0.753069 -1.7705 0
M  V30 4571 O 435.455 1.53952 -1.14059 0
M  V30 4572 C 435.649 -1.0727 -3.40922 0
M  V30 4573 C 435.478 -2.56821 -3.69152 0
M  V30 4574 C 434.248 -3.23524 -3.8815 0
M  V30 4575 C 436.446 -3.54997 -3.72131 0
M  V30 4576 N 434.428 -4.62359 -4.03853 0
M  V30 4577 C 435.799 -4.79371 -3.93196 0
M  V30 4578 C 437.854 -3.49042 -3.55069 0
M  V30 4579 C 436.557 -5.98512 -3.98969 0
M  V30 4580 C 438.583 -4.67579 -3.6211 0
M  V30 4581 C 437.945 -5.9076 -3.83643 0
M  V30 4582 H 434.044 -0.31088 -0.71755 0
M  V30 4583 H 436.628 -1.29526 -1.45366 0
M  V30 4584 H 434.799 -0.51443 -3.84978 0
M  V30 4585 H 436.531 -0.723891 -3.98173 0
M  V30 4586 H 433.286 -2.73958 -3.86321 0
M  V30 4587 H 433.71 -5.34427 -4.15592 0
M  V30 4588 H 438.352 -2.54808 -3.37391 0
M  V30 4589 H 436.07 -6.93132 -4.15444 0
M  V30 4590 H 439.656 -4.64581 -3.50222 0
M  V30 4591 H 438.536 -6.8095 -3.88944 0
M  V30 4592 N 436.039 1.36541 -0.78704 0
M  V30 4593 C 437.287 1.98911 -0.357633 0
M  V30 4594 C 437.608 1.62778 1.07371 0
M  V30 4595 O 436.878 0.900612 1.73971 0
M  V30 4596 H 435.458 0.735734 -0.129246 0
M  V30 4597 H 438.12 1.66776 -1.00855 0
M  V30 4598 H 437.216 3.08874 -0.447549 0
M  V30 4599 N 437.518 0.538854 1.48102 0
M  V30 4600 C 438.428 -0.222648 2.33541 0
M  V30 4601 C 439.444 -0.930225 1.47047 0
M  V30 4602 O 440.62 -0.903211 1.80011 0
M  V30 4603 C 437.685 -1.25064 3.23357 0
M  V30 4604 C 436.746 -0.552469 4.2573 0
M  V30 4605 C 435.979 -1.53149 5.11254 0
M  V30 4606 O 436.202 -2.76487 4.9891 0
M  V30 4607 O 435.136 -1.06602 5.92385 0
M  V30 4608 H 438.962 0.477707 2.99919 0
M  V30 4609 H 436.547 0.299669 1.46364 0
M  V30 4610 H 438.429 -1.8445 3.78888 0
M  V30 4611 H 437.104 -1.93325 2.59629 0
M  V30 4612 H 436.011 0.082114 3.7401 0
M  V30 4613 H 437.344 0.0883526 4.92121 0
M  V30 4614 N 438.996 -1.55193 0.274407 0
M  V30 4615 C 440.412 -1.59401 -0.0797543 0
M  V30 4616 C 440.612 -1.29162 -1.54659 0
M  V30 4617 O 439.668 -1.05215 -2.29534 0
M  V30 4618 C 440.981 -2.99257 0.294238 0
M  V30 4619 C 442.529 -3.12072 0.240796 0
M  V30 4620 C 443.004 -4.54194 0.589218 0
M  V30 4621 N 444.495 -4.60033 0.540744 0
M  V30 4622 C 445.23 -5.68027 0.783147 0
M  V30 4623 N 444.726 -6.8417 1.09013 0
M  V30 4624 N 446.519 -5.57572 0.711993 0
M  V30 4625 H 438.67 -1.73113 1.23067 0
M  V30 4626 H 440.933 -0.807197 0.497129 0
M  V30 4627 H 440.639 -3.26217 1.31435 0
M  V30 4628 H 440.513 -3.75427 -0.365281 0
M  V30 4629 H 442.9 -2.84877 -0.770024 0
M  V30 4630 H 442.981 -2.38117 0.934563 0
M  V30 4631 H 442.625 -4.82115 1.59772 0
M  V30 4632 H 442.555 -5.26448 -0.126331 0
M  V30 4633 H 445.046 -3.76599 0.313327 0
M  V30 4634 H 445.359 -7.6243 1.26178 0
M  V30 4635 H 443.704 -6.85787 1.12789 0
M  V30 4636 H 446.895 -4.65714 0.472014 0
M  V30 4637 H 447.068 -6.41659 0.90429 0
M  V30 4638 N 440.474 -0.00167713 -1.576 0
M  V30 4639 C 441.722 0.681471 -1.90264 0
M  V30 4640 C 442.043 1.7422 -0.875924 0
M  V30 4641 O 441.313 1.95709 0.0864412 0
M  V30 4642 H 439.893 0.254696 -0.702239 0
M  V30 4643 H 442.555 -0.0429996 -1.94853 0
M  V30 4644 H 441.651 1.15166 -2.90075 0
M  V30 4645 N 441.952 1.55251 0.271103 0
M  V30 4646 C 443.182 1.79713 1.01916 0
M  V30 4647 C 443.59 0.571613 1.80359 0
M  V30 4648 O 442.933 -0.468853 1.77616 0
M  V30 4649 C 442.995 2.97138 2.02359 0
M  V30 4650 C 442.659 4.34104 1.42837 0
M  V30 4651 C 443.656 5.13019 0.843071 0
M  V30 4652 C 441.341 4.80765 1.455 0
M  V30 4653 C 443.335 6.36729 0.292333 0
M  V30 4654 C 441.022 6.0443 0.900402 0
M  V30 4655 C 442.02 6.8225 0.32007 0
M  V30 4656 O 441.708 8.03582 -0.226031 0
M  V30 4657 H 441.44 0.602431 0.306681 0
M  V30 4658 H 443.994 2.03097 0.306701 0
M  V30 4659 H 442.224 2.6945 2.77369 0
M  V30 4660 H 443.913 3.08907 2.63309 0
M  V30 4661 H 444.679 4.781 0.815178 0
M  V30 4662 H 440.558 4.20202 1.89609 0
M  V30 4663 H 444.102 6.97414 -0.161274 0
M  V30 4664 H 439.999 6.3883 0.925541 0
M  V30 4665 H 440.767 8.18418 -0.115572 0
M  V30 4666 N 443.43 -0.535701 1.48216 0
M  V30 4667 C 444.679 -1.28828 1.55197 0
M  V30 4668 C 444.992 -1.94263 0.228278 0
M  V30 4669 O 446.198 -2.70927 0.176278 0
M  V30 4670 C 444.654 -2.33727 2.73678 0
M  V30 4671 C 444.262 -1.74386 4.12666 0
M  V30 4672 C 446.006 -3.1003 2.89968 0
M  V30 4673 C 443.913 -2.77192 5.22416 0
M  V30 4674 H 442.843 -0.484484 0.577747 0
M  V30 4675 H 445.494 -0.56646 1.74538 0
M  V30 4676 H 443.876 -3.08919 2.4776 0
M  V30 4677 H 445.05 -1.05421 4.48579 0
M  V30 4678 H 443.365 -1.10595 4.01445 0
M  V30 4679 H 445.962 -3.86842 3.6913 0
M  V30 4680 H 446.305 -3.65542 1.9921 0
M  V30 4681 H 446.838 -2.41952 3.15759 0
M  V30 4682 H 443.577 -2.26507 6.15122 0
M  V30 4683 H 443.097 -3.44502 4.90998 0
M  V30 4684 H 444.776 -3.40285 5.50286 0
M  V30 4685 N 444.908 -1.36708 -0.784132 0
M  V30 4686 C 446.324 -1.17237 -1.08294 0
M  V30 4687 C 446.524 -5.93947e-05 -2.015 0
M  V30 4688 O 445.58 0.663686 -2.43622 0
M  V30 4689 C 446.893 -2.48557 -1.69233 0
M  V30 4690 C 448.441 -2.54968 -1.8155 0
M  V30 4691 C 448.916 -3.86388 -2.45904 0
M  V30 4692 N 450.407 -3.87762 -2.53367 0
M  V30 4693 C 451.142 -4.86191 -3.03983 0
M  V30 4694 N 450.638 -5.95015 -3.54866 0
M  V30 4695 N 452.431 -4.73606 -3.02743 0
M  V30 4696 H 444.582 -2.11758 -0.16501 0
M  V30 4697 H 446.845 -0.93822 -0.135822 0
M  V30 4698 H 446.551 -3.34638 -1.08215 0
M  V30 4699 H 446.425 -2.64748 -2.68679 0
M  V30 4700 H 448.812 -1.69302 -2.41704 0
M  V30 4701 H 448.893 -2.42672 -0.80895 0
M  V30 4702 H 448.537 -4.72462 -1.86392 0
M  V30 4703 H 448.467 -3.95982 -3.4714 0
M  V30 4704 H 450.958 -3.09145 -2.17343 0
M  V30 4705 H 451.271 -6.66086 -3.91854 0
M  V30 4706 H 449.616 -5.98676 -3.53003 0
M  V30 4707 H 452.807 -3.87717 -2.62284 0
M  V30 4708 H 452.98 -5.50473 -3.41881 0
M  V30 4709 N 446.386 1.0089 -1.21074 0
M  V30 4710 C 447.319 2.09279 -0.909806 0
M  V30 4711 C 448.297 1.61986 0.141145 0
M  V30 4712 O 449.481 1.88495 0.0130332 0
M  V30 4713 C 446.608 3.36723 -0.365374 0
M  V30 4714 C 445.654 4.02919 -1.39852 0
M  V30 4715 S 446.487 4.45835 -2.96633 0
M  V30 4716 C 447.643 5.76471 -2.43786 0
M  V30 4717 H 447.876 2.34484 -1.82769 0
M  V30 4718 H 445.409 1.14115 -1.04006 0
M  V30 4719 H 447.367 4.10459 -0.0578203 0
M  V30 4720 H 446.028 3.09577 0.531136 0
M  V30 4721 H 445.221 4.94634 -0.967117 0
M  V30 4722 H 444.823 3.35441 -1.65395 0
M  V30 4723 H 447.115 6.52027 -1.84029 0
M  V30 4724 H 448.058 6.24418 -3.33928 0
M  V30 4725 H 448.466 5.33104 -1.85636 0
M  V30 4726 N 447.864 1.01787 1.20321 0
M  V30 4727 C 448.827 0.593972 2.2137 0
M  V30 4728 C 449.827 -0.336553 1.57239 0
M  V30 4729 O 451.017 -0.125069 1.7375 0
M  V30 4730 C 448.149 -0.132433 3.40643 0
M  V30 4731 H 449.342 1.48791 2.60387 0
M  V30 4732 H 446.895 0.807803 1.33807 0
M  V30 4733 H 447.63 -1.04123 3.0713 0
M  V30 4734 H 447.415 0.53605 3.88418 0
M  V30 4735 H 448.905 -0.416314 4.1552 0
M  V30 4736 N 449.342 -1.36122 0.79427 0
M  V30 4737 C 450.758 -1.5232 0.476525 0
M  V30 4738 C 450.958 -1.74685 -1.00436 0
M  V30 4739 O 450.014 -1.78115 -1.78973 0
M  V30 4740 C 451.327 -2.70607 1.31119 0
M  V30 4741 C 452.875 -2.8448 1.30537 0
M  V30 4742 C 453.35 -4.05778 2.12387 0
M  V30 4743 N 454.841 -4.12933 2.09859 0
M  V30 4744 C 455.576 -5.05876 2.69957 0
M  V30 4745 N 455.072 -6.04232 3.38934 0
M  V30 4746 N 456.865 -4.98528 2.59665 0
M  V30 4747 H 449.016 -1.1986 1.75349 0
M  V30 4748 H 451.279 -0.585418 0.745647 0
M  V30 4749 H 450.985 -2.60619 2.36158 0
M  V30 4750 H 450.859 -3.64888 0.955843 0
M  V30 4751 H 453.246 -2.93927 0.262876 0
M  V30 4752 H 453.327 -1.91093 1.70051 0
M  V30 4753 H 452.971 -3.97092 3.1667 0
M  V30 4754 H 452.901 -4.98323 1.70242 0
M  V30 4755 H 455.392 -3.42515 1.59662 0
M  V30 4756 H 455.705 -6.71724 3.82109 0
M  V30 4757 H 454.05 -6.04443 3.43036 0
M  V30 4758 H 457.241 -4.20641 2.05375 0
M  V30 4759 H 457.414 -5.70773 3.06793 0
M  V30 4760 N 450.82 -0.546701 -1.47814 0
M  V30 4761 C 451.768 0.220048 -2.31557 0
M  V30 4762 C 452.762 0.919472 -1.42275 0
M  V30 4763 O 453.968 0.841953 -1.59095 0
M  V30 4764 H 450.343 0.0898334 -0.746615 0
M  V30 4765 H 452.314 -0.505589 -2.94086 0
M  V30 4766 C 451.063 1.24353 -3.24702 0
M  V30 4767 H 450.386 0.714758 -3.93359 0
M  V30 4768 H 451.826 1.75112 -3.8615 0
M  V30 4769 C 450.285 2.28593 -2.47481 0
M  V30 4770 O 450.815 3.35334 -2.21165 0
M  V30 4771 N 449.021 2.02244 -2.08676 0
M  V30 4772 H 448.568 1.15455 -2.30278 0
M  V30 4773 H 448.526 2.72207 -1.57323 0
M  V30 4774 N 452.299 1.55045 -0.282633 0
M  V30 4775 C 453.715 1.59441 0.0712997 0
M  V30 4776 C 453.915 1.2998 1.53972 0
M  V30 4777 O 452.971 1.06431 2.28973 0
M  V30 4778 C 454.284 2.99097 -0.310104 0
M  V30 4779 C 455.832 3.1194 -0.257343 0
M  V30 4780 C 456.307 4.53875 -0.613297 0
M  V30 4781 N 457.798 4.5974 -0.565134 0
M  V30 4782 C 458.533 5.67603 -0.81326 0
M  V30 4783 N 458.029 6.83582 -1.1264 0
M  V30 4784 N 459.822 5.57187 -0.741553 0
M  V30 4785 H 451.973 1.72458 -1.23984 0
M  V30 4786 H 454.236 0.804549 -0.501403 0
M  V30 4787 H 453.942 3.25516 -1.33163 0
M  V30 4788 H 453.816 3.75616 0.345366 0
M  V30 4789 H 456.203 2.85281 0.754905 0
M  V30 4790 H 456.284 2.37618 -0.947178 0
M  V30 4791 H 455.928 4.81261 -1.62327 0
M  V30 4792 H 455.858 5.26508 0.09841 0
M  V30 4793 H 458.349 3.76427 -0.333294 0
M  V30 4794 H 458.662 7.6175 -1.30219 0
M  V30 4795 H 457.007 6.85179 -1.16425 0
M  V30 4796 H 460.198 4.65457 -0.496705 0
M  V30 4797 H 460.371 6.41171 -0.938306 0
M  V30 4798 N 453.777 0.010035 1.57597 0
M  V30 4799 C 455.025 -0.671371 1.90623 0
M  V30 4800 C 455.346 -1.73753 0.885151 0
M  V30 4801 O 454.616 -1.95752 -0.0760611 0
M  V30 4802 H 453.196 -0.250968 0.703579 0
M  V30 4803 H 455.858 0.0533325 1.94827 0
M  V30 4804 H 454.954 -1.13626 2.90681 0
M  V30 4805 N 455.255 -1.55392 -0.262866 0
M  V30 4806 C 456.203 -1.8977 -1.345 0
M  V30 4807 C 457.197 -0.775063 -1.50629 0
M  V30 4808 O 458.403 -0.959519 -1.52293 0
M  V30 4809 H 454.778 -0.602467 -0.450041 0
M  V30 4810 H 456.749 -2.80147 -1.02762 0
M  V30 4811 C 455.498 -2.19501 -2.69657 0
M  V30 4812 H 454.821 -3.05378 -2.5804 0
M  V30 4813 H 456.261 -2.47469 -3.44289 0
M  V30 4814 C 454.72 -1.00597 -3.21531 0
M  V30 4815 O 455.25 -0.245768 -4.00947 0
M  V30 4816 N 453.456 -0.800911 -2.79345 0
M  V30 4817 H 453.003 -1.42079 -2.14875 0
M  V30 4818 H 452.961 -0.00697996 -3.14399 0
M  V30 4819 N 456.733 0.527833 -1.48498 0
M  V30 4820 C 457.666 1.64892 -1.57753 0
M  V30 4821 C 458.644 1.5687 -0.427867 0
M  V30 4822 O 459.828 1.77311 -0.639764 0
M  V30 4823 C 456.955 3.03301 -1.50752 0
M  V30 4824 C 456.001 3.29675 -2.70586 0
M  V30 4825 S 456.834 3.15712 -4.32535 0
M  V30 4826 C 457.99 4.56564 -4.28136 0
M  V30 4827 H 458.223 1.56792 -2.52594 0
M  V30 4828 H 455.756 0.710959 -1.37057 0
M  V30 4829 H 457.714 3.83123 -1.474 0
M  V30 4830 H 456.375 3.08839 -0.572454 0
M  V30 4831 H 455.568 4.3065 -2.61833 0
M  V30 4832 H 455.17 2.57526 -2.71212 0
M  V30 4833 H 457.462 5.48126 -3.98201 0
M  V30 4834 H 458.405 4.70371 -5.29298 0
M  V30 4835 H 458.813 4.35987 -3.58574 0
M  V30 4836 N 458.211 1.37122 0.776871 0
M  V30 4837 C 459.451 1.33441 1.54831 0
M  V30 4838 C 459.815 -0.0818963 1.91825 0
M  V30 4839 O 461.016 -0.24338 2.67696 0
M  V30 4840 C 459.287 2.24267 2.78279 0
M  V30 4841 S 460.846 2.38389 3.68397 0
M  V30 4842 H 457.664 0.473791 0.530135 0
M  V30 4843 H 460.266 1.7282 0.913968 0
M  V30 4844 H 458.97 3.261 2.49173 0
M  V30 4845 H 458.501 1.85953 3.46677 0
M  V30 4846 H 460.516 1.59068 4.70013 0
M  V30 4847 N 459.689 -1.00246 1.21608 0
M  V30 4848 C 460.937 -1.73717 1.0328 0
M  V30 4849 C 461.258 -1.90102 -0.434318 0
M  V30 4850 O 460.528 -1.45376 -1.31311 0
M  V30 4851 H 459.108 -0.643613 0.379172 0
M  V30 4852 H 461.77 -1.20787 1.52959 0
M  V30 4853 H 460.866 -2.73535 1.50283 0
M  V30 4854 N 461.167 -1.02423 -1.1978 0
M  V30 4855 C 462.416 -0.713265 -1.88667 0
M  V30 4856 C 462.729 0.7609 -1.80193 0
M  V30 4857 O 463.935 1.18473 -2.44288 0
M  V30 4858 C 462.391 -1.22545 -3.38394 0
M  V30 4859 C 461.999 -2.72706 -3.55437 0
M  V30 4860 C 463.743 -0.990257 -4.12788 0
M  V30 4861 C 461.65 -3.17367 -4.99031 0
M  V30 4862 H 460.58 -0.263105 -0.706606 0
M  V30 4863 H 463.231 -1.23792 -1.35454 0
M  V30 4864 H 461.613 -0.628732 -3.90977 0
M  V30 4865 H 462.787 -3.37993 -3.13205 0
M  V30 4866 H 461.102 -2.94453 -2.94425 0
M  V30 4867 H 463.699 -1.29926 -5.18675 0
M  V30 4868 H 464.042 0.0730761 -4.16236 0
M  V30 4869 H 464.575 -1.55074 -3.66329 0
M  V30 4870 H 461.314 -4.23009 -5.00743 0
M  V30 4871 H 460.834 -2.56805 -5.42044 0
M  V30 4872 H 462.513 -3.10441 -5.67658 0
M  V30 4873 N 462.645 1.35699 -0.801477 0
M  V30 4874 C 463.608 2.28199 -0.213994 0
M  V30 4875 C 464.608 1.49359 0.595691 0
M  V30 4876 O 465.798 1.69186 0.414921 0
M  V30 4877 C 462.93 3.33587 0.702297 0
M  V30 4878 H 464.123 2.81666 -1.02976 0
M  V30 4879 H 461.676 1.45467 -0.571759 0
M  V30 4880 H 462.411 2.85297 1.54195 0
M  V30 4881 H 462.196 3.91906 0.123484 0
M  V30 4882 H 463.686 4.02638 1.10783 0
M  V30 4883 N 464.123 0.554532 1.47522 0
M  V30 4884 C 465.348 0.0322661 2.07375 0
M  V30 4885 C 465.773 -1.25079 1.40488 0
M  V30 4886 O 465.131 -1.74859 0.47896 0
M  V30 4887 C 465.179 -0.149397 3.6029 0
M  V30 4888 O 464.283 -1.21259 3.9417 0
M  V30 4889 H 463.624 0.0501228 0.662106 0
M  V30 4890 H 466.154 0.769452 1.8958 0
M  V30 4891 H 466.164 -0.364437 4.06369 0
M  V30 4892 H 464.839 0.787743 4.08372 0
M  V30 4893 H 463.416 -0.97825 3.5984 0
M  V30 4894 N 465.601 -1.54893 0.290851 0
M  V30 4895 C 466.531 -2.26103 -0.583084 0
M  V30 4896 C 467.512 -1.25684 -1.14619 0
M  V30 4897 O 468.697 -1.54436 -1.17741 0
M  V30 4898 C 465.827 -2.99409 -1.75987 0
M  V30 4899 C 464.781 -4.0689 -1.32758 0
M  V30 4900 C 464.107 -4.67856 -2.58872 0
M  V30 4901 C 465.407 -5.20215 -0.46624 0
M  V30 4902 H 467.101 -2.99398 0.0108214 0
M  V30 4903 H 464.647 -1.43998 0.00664468 0
M  V30 4904 H 466.6 -3.47943 -2.37727 0
M  V30 4905 H 465.324 -2.23675 -2.37985 0
M  V30 4906 H 463.983 -3.59191 -0.733299 0
M  V30 4907 H 463.631 -3.88772 -3.19163 0
M  V30 4908 H 463.331 -5.40438 -2.30653 0
M  V30 4909 H 464.855 -5.19147 -3.21433 0
M  V30 4910 H 466.269 -5.64704 -0.989047 0
M  V30 4911 H 464.666 -5.99455 -0.27826 0
M  V30 4912 H 465.736 -4.82198 0.511173 0
M  V30 4913 N 467.08 -0.0183926 -1.57589 0
M  V30 4914 C 468.043 0.951986 -2.08494 0
M  V30 4915 C 469.043 1.26092 -0.997874 0
M  V30 4916 O 470.233 1.20304 -1.25987 0
M  V30 4917 C 467.365 2.27165 -2.54182 0
M  V30 4918 H 468.558 0.511307 -2.95509 0
M  V30 4919 H 466.111 0.229444 -1.54607 0
M  V30 4920 H 466.846 2.75884 -1.70465 0
M  V30 4921 H 466.631 2.06057 -3.33591 0
M  V30 4922 H 468.121 2.9674 -2.93828 0
M  V30 4923 N 468.558 1.5553 0.254621 0
M  V30 4924 C 469.783 1.81383 1.00573 0
M  V30 4925 C 470.208 0.594419 1.78461 0
M  V30 4926 O 469.566 -0.456403 1.75461 0
M  V30 4927 C 469.614 3.04892 1.92545 0
M  V30 4928 O 468.718 2.81266 3.01601 0
M  V30 4929 H 468.059 0.598969 0.286587 0
M  V30 4930 H 470.589 2.02703 0.277952 0
M  V30 4931 H 470.599 3.34119 2.34155 0
M  V30 4932 H 469.274 3.93287 1.3527 0
M  V30 4933 H 467.851 2.63185 2.64174 0
M  V30 4934 N 470.036 -0.519951 1.48776 0
M  V30 4935 C 470.966 -1.63253 1.66945 0
M  V30 4936 C 471.947 -1.62014 0.518224 0
M  V30 4937 O 473.132 -1.79053 0.751919 0
M  V30 4938 C 470.262 -3.0181 1.71836 0
M  V30 4939 C 469.216 -3.17911 2.8656 0
M  V30 4940 C 468.542 -4.5763 2.76548 0
M  V30 4941 C 469.842 -2.99729 4.27738 0
M  V30 4942 H 471.536 -1.48302 2.6009 0
M  V30 4943 H 469.082 -0.712026 1.25165 0
M  V30 4944 H 471.035 -3.79525 1.83135 0
M  V30 4945 H 469.759 -3.17806 0.752775 0
M  V30 4946 H 468.418 -2.42616 2.74833 0
M  V30 4947 H 468.066 -4.70476 1.77937 0
M  V30 4948 H 467.766 -4.69346 3.53536 0
M  V30 4949 H 469.29 -5.37431 2.89828 0
M  V30 4950 H 470.704 -3.67228 4.40246 0
M  V30 4951 H 469.101 -3.22932 5.05801 0
M  V30 4952 H 470.171 -1.96047 4.43502 0
M  V30 4953 N 471.514 -1.37532 -0.769588 0
M  V30 4954 C 472.925 -1.29382 -1.346 0
M  V30 4955 C 473.276 0.0576039 -1.96115 0
M  V30 4956 O 472.401 0.95947 -1.93967 0
M  V30 4957 C 472.996 -2.34298 -2.44724 0
M  V30 4958 C 471.555 -2.29776 -2.98128 0
M  V30 4959 C 470.702 -2.18013 -1.71364 0
M  V30 4960 H 473.653 -1.48123 -0.56968 0
M  V30 4961 H 473.674 -1.99089 -3.24259 0
M  V30 4962 H 473.186 -3.32645 -1.99922 0
M  V30 4963 H 471.287 -1.34959 -3.47299 0
M  V30 4964 H 471.4 -3.23276 -3.53595 0
M  V30 4965 H 469.764 -1.64595 -1.94372 0
M  V30 4966 H 470.547 -3.18278 -1.28662 0
M  V30 4967 N 472.992 0.995999 -1.22138 0
M  V30 4968 C 473.925 2.08302 -0.931952 0
M  V30 4969 C 474.903 1.62127 0.123956 0
M  V30 4970 O 476.087 1.88499 -0.00696004 0
M  V30 4971 C 473.214 3.36317 -0.401068 0
M  V30 4972 C 472.26 4.01413 -1.44117 0
M  V30 4973 S 473.093 4.42664 -3.01345 0
M  V30 4974 C 474.249 5.73853 -2.49887 0
M  V30 4975 H 474.482 2.32532 -1.85246 0
M  V30 4976 H 472.015 1.13005 -1.0521 0
M  V30 4977 H 473.973 4.10375 -0.101352 0
M  V30 4978 H 472.634 3.10123 0.498272 0
M  V30 4979 H 471.827 4.9358 -1.01952 0
M  V30 4980 H 471.429 3.33668 -1.68943 0
M  V30 4981 H 473.721 6.50039 -1.90934 0
M  V30 4982 H 474.664 6.20841 -3.40532 0
M  V30 4983 H 475.072 5.31105 -1.9128 0
M  V30 4984 N 474.47 1.03057 1.19235 0
M  V30 4985 C 475.716 0.729098 1.89241 0
M  V30 4986 C 476.049 -0.740573 1.79525 0
M  V30 4987 O 475.324 -1.53946 1.18874 0
M  V30 4988 C 475.607 1.18304 3.40112 0
M  V30 4989 C 475.46 2.71406 3.5869 0
M  V30 4990 C 476.779 0.765161 4.33397 0
M  V30 4991 H 473.898 0.266338 0.687192 0
M  V30 4992 H 476.54 1.28079 1.40341 0
M  V30 4993 H 474.69 0.713672 3.81889 0
M  V30 4994 H 476.362 3.26303 3.26074 0
M  V30 4995 H 474.605 3.11717 3.01687 0
M  V30 4996 H 475.276 2.98225 4.64506 0
M  V30 4997 H 477.752 1.16889 3.99345 0
M  V30 4998 H 476.628 1.11065 5.37546 0
M  V30 4999 H 476.889 -0.332372 4.40849 0
M  V30 5000 N 475.948 -1.35272 0.808662 0
M  V30 5001 C 476.911 -2.28082 0.226093 0
M  V30 5002 C 477.911 -1.49673 -0.587762 0
M  V30 5003 O 479.101 -1.69404 -0.405943 0
M  V30 5004 C 476.233 -3.33955 -0.684596 0
M  V30 5005 H 477.426 -2.81116 1.04469 0
M  V30 5006 H 474.979 -1.45162 0.579466 0
M  V30 5007 H 475.714 -2.86111 -1.5268 0
M  V30 5008 H 475.499 -3.91965 -0.102699 0
M  V30 5009 H 476.989 -4.03219 -1.08646 0
M  V30 5010 N 477.426 -0.562348 -1.47226 0
M  V30 5011 C 478.842 -0.222492 -1.58042 0
M  V30 5012 C 479.042 1.27505 -1.56028 0
M  V30 5013 O 478.098 2.05555 -1.46641 0
M  V30 5014 C 479.411 -0.853694 -2.88327 0
M  V30 5015 C 480.959 -0.825397 -3.01921 0
M  V30 5016 C 481.434 -1.43576 -4.34914 0
M  V30 5017 N 482.925 -1.39918 -4.41562 0
M  V30 5018 C 483.66 -1.84103 -5.43041 0
M  V30 5019 N 483.156 -2.36167 -6.51304 0
M  V30 5020 N 484.949 -1.75142 -5.34118 0
M  V30 5021 H 477.1 -1.53525 -1.46778 0
M  V30 5022 H 479.363 -0.640527 -0.698877 0
M  V30 5023 H 479.069 -1.90635 -2.95552 0
M  V30 5024 H 478.943 -0.34977 -3.75575 0
M  V30 5025 H 481.33 0.218583 -2.94289 0
M  V30 5026 H 481.411 -1.36713 -2.16202 0
M  V30 5027 H 481.055 -2.47884 -4.43301 0
M  V30 5028 H 480.985 -0.869427 -5.19373 0
M  V30 5029 H 483.476 -1.0184 -3.63919 0
M  V30 5030 H 483.789 -2.67793 -7.24919 0
M  V30 5031 H 482.134 -2.40181 -6.52179 0
M  V30 5032 H 485.325 -1.34241 -4.48439 0
M  V30 5033 H 485.498 -2.09895 -6.13065 0
M  V30 5034 N 478.904 1.54736 -0.299062 0
M  V30 5035 C 480.151 2.00101 0.310784 0
M  V30 5036 C 480.479 1.18746 1.54045 0
M  V30 5037 O 479.734 0.251198 1.94081 0
M  V30 5038 C 480.033 3.50199 0.713835 0
M  V30 5039 C 479.699 4.48997 -0.413873 0
M  V30 5040 C 478.361 4.7573 -0.723462 0
M  V30 5041 C 480.713 5.07839 -1.17257 0
M  V30 5042 C 478.041 5.5857 -1.79491 0
M  V30 5043 C 480.393 5.91844 -2.23392 0
M  V30 5044 C 479.057 6.16889 -2.54959 0
M  V30 5045 H 478.327 0.732221 0.113724 0
M  V30 5046 H 480.974 1.86888 -0.417756 0
M  V30 5047 H 479.279 3.61012 1.52243 0
M  V30 5048 H 480.976 3.82723 1.19684 0
M  V30 5049 H 477.566 4.28292 -0.162476 0
M  V30 5050 H 481.75 4.87188 -0.946651 0
M  V30 5051 H 477.006 5.76213 -2.04423 0
M  V30 5052 H 481.18 6.36465 -2.8264 0
M  V30 5053 H 478.807 6.80869 -3.38114 0
M  V30 5054 N 480.382 0.0267497 1.57577 0
M  V30 5055 C 481.793 -0.512413 1.79531 0
M  V30 5056 C 482.144 -1.72391 0.936791 0
M  V30 5057 O 481.269 -2.15903 0.146543 0
M  V30 5058 C 481.864 -0.936378 3.25603 0
M  V30 5059 C 480.423 -1.42067 3.4856 0
M  V30 5060 C 479.57 -0.384278 2.74624 0
M  V30 5061 H 482.521 0.252797 1.56674 0
M  V30 5062 H 482.542 -1.80088 3.35184 0
M  V30 5063 H 482.054 -0.0544332 3.88062 0
M  V30 5064 H 480.155 -2.32262 2.9135 0
M  V30 5065 H 480.268 -1.42968 4.57271 0
M  V30 5066 H 478.632 -0.851855 2.40032 0
M  V30 5067 H 479.415 0.489159 3.39797 0
M  V30 5068 O 481.899 -1.6109 -0.114939 0
M  V30 5069 H 482.59 -1.78767 -0.745784 0
M  V30 END ATOM
M  V30 BEGIN BOND
M  V30 END BOND
M  V30 END CTAB
M  END
$$$$
