drugbank_target|Q25634 Glutamate-gated chloride channel (DB11431)
 OpenBabel12092121193D

  0  0  0     0  0            999 V3000
M  V30 BEGIN CTAB
M  V30 COUNTS 5782 5852 0 0 0
M  V30 BEGIN ATOM
M  V30 1 H -0.908 1.98254 -0.117106 0
M  V30 2 N 0 1.576 0 0
M  V30 3 C 0.933 2.03868 1.02534 0
M  V30 4 C 1.911 0.928543 1.3348 0
M  V30 5 O 3.095 1.19667 1.45644 0
M  V30 6 C 0.222 2.43627 2.35294 0
M  V30 7 C -0.732 3.65373 2.2001 0
M  V30 8 S 0.101 5.13292 1.52614 0
M  V30 9 C 1.257 5.56322 2.86805 0
M  V30 10 H 1.49 2.90518 0.631377 0
M  V30 11 H -0.977 1.52953 0.210867 0
M  V30 12 H 0.981 2.67203 3.11629 0
M  V30 13 H -0.358 1.57376 2.7183 0
M  V30 14 H -1.165 3.90944 3.18086 0
M  V30 15 H -1.563 3.418 1.51819 0
M  V30 16 H 0.729 5.58782 3.83104 0
M  V30 17 H 1.672 6.56266 2.65933 0
M  V30 18 H 2.08 4.83886 2.90714 0
M  V30 19 N 1.4781 -0.272755 1.55222 0
M  V30 20 C 2.4261 -1.35705 1.88909 0
M  V30 21 C 3.4201 -1.5112 0.765456 0
M  V30 22 O 4.6261 -1.52901 0.949802 0
M  V30 23 H 1.0011 -0.453868 0.59959 0
M  V30 24 H 2.9721 -1.04544 2.79487 0
M  V30 25 C 1.7211 -2.71049 2.17779 0
M  V30 26 H 1.0441 -2.59979 3.03728 0
M  V30 27 H 2.4841 -3.45858 2.45272 0
M  V30 28 C 0.9431 -3.22165 0.985473 0
M  V30 29 O 1.4731 -4.01096 0.220233 0
M  V30 30 N -0.3209 -2.7985 0.783108 0
M  V30 31 H -0.7739 -2.15775 1.40708 0
M  V30 32 H -0.8159 -3.14397 -0.0130392 0
M  V30 33 N 2.9562 -1.48159 -0.537278 0
M  V30 34 C 4.1812 -1.59707 -1.32319 0
M  V30 35 C 4.6062 -0.254859 -1.86365 0
M  V30 36 O 3.9642 0.772378 -1.64024 0
M  V30 37 C 4.0122 -2.6412 -2.45505 0
M  V30 38 O 3.1162 -2.20774 -3.48328 0
M  V30 39 H 2.4572 -0.535791 -0.392204 0
M  V30 40 H 4.9872 -1.94092 -0.647268 0
M  V30 41 H 4.9972 -2.85166 -2.91795 0
M  V30 42 H 3.6722 -3.61567 -2.05528 0
M  V30 43 H 2.2492 -2.09911 -3.08207 0
M  V30 44 N 4.4343 0.785586 -1.36625 0
M  V30 45 C 5.6813 1.54362 -1.31067 0
M  V30 46 C 6.0093 1.94195 0.10893 0
M  V30 47 O 5.2643 1.63262 1.07908 0
M  V30 48 C 5.5633 2.83007 -2.1827 0
M  V30 49 C 5.2293 2.62294 -3.6676 0
M  V30 50 C 3.8913 2.56353 -4.0723 0
M  V30 51 C 6.2433 2.43371 -4.6089 0
M  V30 52 C 3.5713 2.29461 -5.39967 0
M  V30 53 C 5.9233 2.18005 -5.93849 0
M  V30 54 C 4.5873 2.105 -6.3344 0
M  V30 55 H 3.8573 0.564851 -0.479609 0
M  V30 56 H 6.5043 0.906028 -1.68711 0
M  V30 57 H 4.8093 3.51253 -1.73576 0
M  V30 58 H 6.5063 3.40817 -2.11292 0
M  V30 59 H 3.0963 2.67774 -3.34656 0
M  V30 60 H 7.2803 2.46959 -4.30494 0
M  V30 61 H 2.5363 2.22135 -5.69619 0
M  V30 62 H 6.7103 2.02359 -6.66351 0
M  V30 63 H 4.3373 1.89425 -7.36222 0
M  V30 64 N 5.9124 1.20967 1.01018 0
M  V30 65 C 7.3234 1.02319 1.56165 0
M  V30 66 C 7.6744 -0.418546 1.91684 0
M  V30 67 O 6.7994 -1.30096 1.72928 0
M  V30 68 C 7.3944 1.85109 2.8376 0
M  V30 69 C 5.9534 1.70809 3.35412 0
M  V30 70 C 5.1004 1.82643 2.08655 0
M  V30 71 H 8.0514 1.35065 0.833255 0
M  V30 72 H 8.0724 1.35827 3.55431 0
M  V30 73 H 7.5844 2.90035 2.57878 0
M  V30 74 H 5.6854 0.685464 3.66241 0
M  V30 75 H 5.7984 2.52467 4.07182 0
M  V30 76 H 4.1624 1.25896 2.21409 0
M  V30 77 H 4.9454 2.89066 1.85191 0
M  V30 78 N 7.3905 -1.2043 1.01659 0
M  V30 79 C 8.6395 -1.89118 0.701237 0
M  V30 80 C 8.9525 -1.79705 -0.772358 0
M  V30 81 O 10.1585 -2.43528 -1.20026 0
M  V30 82 C 8.6145 -3.39168 1.20388 0
M  V30 83 C 8.2225 -3.57166 2.70438 0
M  V30 84 C 9.9665 -4.1341 0.963953 0
M  V30 85 C 7.8735 -5.01042 3.14183 0
M  V30 86 H 6.8035 -0.708267 0.2586 0
M  V30 87 H 9.4545 -1.36239 1.22927 0
M  V30 88 H 7.8365 -3.91369 0.603824 0
M  V30 89 H 9.0105 -3.15351 3.35992 0
M  V30 90 H 7.3255 -2.96294 2.92572 0
M  V30 91 H 9.9225 -5.19491 1.26621 0
M  V30 92 H 10.2655 -4.16181 -0.099578 0
M  V30 93 H 10.7985 -3.67309 1.52738 0
M  V30 94 H 7.5375 -5.03426 4.19812 0
M  V30 95 H 7.0575 -5.43668 2.53348 0
M  V30 96 H 8.7365 -5.69623 3.0682 0
M  V30 97 N 8.8686 -0.792821 -1.36206 0
M  V30 98 C 10.1146 -0.36733 -1.99446 0
M  V30 99 C 10.4476 1.05917 -1.62774 0
M  V30 100 O 9.7226 1.7324 -0.88421 0
M  V30 101 C 10.0056 -0.535044 -3.56103 0
M  V30 102 C 9.8586 -2.00548 -4.02617 0
M  V30 103 C 11.1776 0.0478191 -4.40074 0
M  V30 104 H 8.2966 -0.134941 -0.724541 0
M  V30 105 H 10.9386 -0.999794 -1.61568 0
M  V30 106 H 9.0886 0.00336329 -3.885 0
M  V30 107 H 10.7606 -2.60521 -3.80692 0
M  V30 108 H 9.0036 -2.50686 -3.54032 0
M  V30 109 H 9.6746 -2.07377 -5.11565 0
M  V30 110 H 12.1506 -0.411822 -4.14057 0
M  V30 111 H 11.0266 -0.0995336 -5.4881 0
M  V30 112 H 11.2876 1.14025 -4.27142 0
M  V30 113 N 10.3467 1.47872 -0.545128 0
M  V30 114 C 11.5867 2.04391 -0.0187854 0
M  V30 115 C 11.9507 1.41162 1.30144 0
M  V30 116 O 13.1517 1.88656 1.91474 0
M  V30 117 C 11.4227 3.57299 0.0850867 0
M  V30 118 S 12.9817 4.35221 0.559302 0
M  V30 119 H 9.7997 0.710737 -0.0193301 0
M  V30 120 H 12.4017 1.81395 -0.729125 0
M  V30 121 H 11.1057 4.00847 -0.880351 0
M  V30 122 H 10.6367 3.84773 0.819348 0
M  V30 123 H 12.6517 4.61571 1.82118 0
M  V30 124 N 11.8248 0.280983 1.55075 0
M  V30 125 C 13.0708 -0.327573 2.00745 0
M  V30 126 C 13.4258 -1.53045 1.16598 0
M  V30 127 O 12.7188 -1.90221 0.229451 0
M  V30 128 C 12.9128 -0.754656 3.49342 0
M  V30 129 C 12.7418 0.40529 4.4787 0
M  V30 130 C 11.5118 0.890947 4.97383 0
M  V30 131 C 13.7098 1.24371 4.99035 0
M  V30 132 N 11.6918 2.01975 5.79724 0
M  V30 133 C 13.0628 2.22031 5.7888 0
M  V30 134 C 15.1178 1.27638 4.81262 0
M  V30 135 C 13.8208 3.22709 6.42846 0
M  V30 136 C 15.8468 2.27164 5.46031 0
M  V30 137 C 15.2088 3.23556 6.25692 0
M  V30 138 H 11.3078 -0.0848774 0.77738 0
M  V30 139 H 13.8918 0.406342 1.90413 0
M  V30 140 H 12.0628 -1.45778 3.60005 0
M  V30 141 H 13.7948 -1.34105 3.81835 0
M  V30 142 H 10.5498 0.469262 4.71269 0
M  V30 143 H 10.9738 2.58794 6.25584 0
M  V30 144 H 15.6158 0.544936 4.19274 0
M  V30 145 H 13.3338 3.96784 7.0398 0
M  V30 146 H 16.9198 2.30441 5.34217 0
M  V30 147 H 15.7998 3.99309 6.74924 0
M  V30 148 N 13.3029 -1.57598 0.00835791 0
M  V30 149 C 14.2509 -2.10078 -0.998508 0
M  V30 150 C 15.2449 -1.02262 -1.35051 0
M  V30 151 O 16.4509 -1.20719 -1.33518 0
M  V30 152 H 12.8259 -0.670903 -0.339696 0
M  V30 153 H 14.7969 -2.93648 -0.530398 0
M  V30 154 C 13.5459 -2.62615 -2.27879 0
M  V30 155 H 12.8689 -3.45213 -2.01662 0
M  V30 156 H 14.3089 -3.03004 -2.96588 0
M  V30 157 C 12.7679 -1.54407 -2.99433 0
M  V30 158 O 13.2979 -0.931812 -3.90743 0
M  V30 159 N 11.5039 -1.2695 -2.61404 0
M  V30 160 H 11.0509 -1.76924 -1.87232 0
M  V30 161 H 11.0089 -0.547704 -3.09593 0
M  V30 162 N 14.781 0.264519 -1.55364 0
M  V30 163 C 15.711 1.33121 -1.91836 0
M  V30 164 C 16.692 1.51101 -0.781192 0
M  V30 165 O 17.877 1.64003 -1.04003 0
M  V30 166 C 15.007 2.68921 -2.19769 0
M  V30 167 C 13.961 2.65661 -3.35571 0
M  V30 168 C 13.287 4.05093 -3.49004 0
M  V30 169 C 14.587 2.24187 -4.71739 0
M  V30 170 H 16.281 1.02844 -2.81182 0
M  V30 171 H 13.827 0.493286 -1.35287 0
M  V30 172 H 15.78 3.43663 -2.43872 0
M  V30 173 H 14.504 3.00799 -1.27231 0
M  V30 174 H 13.163 1.93377 -3.1145 0
M  V30 175 H 12.811 4.34206 -2.53917 0
M  V30 176 H 12.511 4.03804 -4.26868 0
M  V30 177 H 14.035 4.81561 -3.75408 0
M  V30 178 H 15.449 2.88654 -4.9533 0
M  V30 179 H 13.846 2.34044 -5.52579 0
M  V30 180 H 14.916 1.19327 -4.69988 0
M  V30 181 N 16.2591 1.48442 0.529413 0
M  V30 182 C 17.2221 1.62524 1.61612 0
M  V30 183 C 18.2221 0.498509 1.52877 0
M  V30 184 O 19.4121 0.76431 1.56537 0
M  V30 185 C 16.5441 1.59597 3.01233 0
M  V30 186 H 17.7371 2.59423 1.50465 0
M  V30 187 H 15.2901 1.37047 0.751514 0
M  V30 188 H 16.0251 0.641781 3.17886 0
M  V30 189 H 15.8101 2.41397 3.08982 0
M  V30 190 H 17.3001 1.72646 3.80241 0
M  V30 191 N 17.7372 -0.778329 1.37039 0
M  V30 192 C 18.9842 -1.53665 1.31884 0
M  V30 193 C 19.3122 -1.9425 -0.0986303 0
M  V30 194 O 18.5672 -1.63832 -1.07041 0
M  V30 195 C 18.8662 -2.81845 2.19768 0
M  V30 196 C 18.5322 -2.60345 3.68146 0
M  V30 197 C 17.1942 -2.5419 4.08584 0
M  V30 198 C 19.5462 -2.40923 4.62175 0
M  V30 199 C 16.8742 -2.26594 5.41177 0
M  V30 200 C 19.2262 -2.14852 5.94997 0
M  V30 201 C 17.8902 -2.07137 6.34547 0
M  V30 202 H 17.1602 -0.562299 0.482598 0
M  V30 203 H 19.8072 -0.897069 1.69189 0
M  V30 204 H 18.1122 -3.50328 1.75436 0
M  V30 205 H 19.8092 -3.39692 2.13097 0
M  V30 206 H 16.3992 -2.65996 3.36072 0
M  V30 207 H 20.5832 -2.44673 4.31797 0
M  V30 208 H 15.8392 -2.19111 5.70789 0
M  V30 209 H 20.0132 -1.98822 6.67415 0
M  V30 210 H 17.6402 -1.85518 7.37216 0
M  V30 211 N 19.2153 -1.21501 -1.00376 0
M  V30 212 C 20.1453 -0.999478 -2.11028 0
M  V30 213 C 21.1263 0.0759671 -1.6993 0
M  V30 214 O 22.3113 -0.0841106 -1.94018 0
M  V30 215 C 19.4413 -0.564709 -3.42678 0
M  V30 216 C 18.3953 -1.58486 -3.97576 0
M  V30 217 C 17.7213 -1.00628 -5.25146 0
M  V30 218 C 19.0213 -2.97204 -4.29496 0
M  V30 219 H 20.7153 -1.92495 -2.29317 0
M  V30 220 H 18.2613 -0.92693 -1.102 0
M  V30 221 H 20.2143 -0.401091 -4.19487 0
M  V30 222 H 18.9383 0.396411 -3.24185 0
M  V30 223 H 17.5973 -1.73606 -3.22888 0
M  V30 224 H 17.2453 -0.0368439 -5.02987 0
M  V30 225 H 16.9453 -1.68771 -5.62841 0
M  V30 226 H 18.4693 -0.854015 -6.04598 0
M  V30 227 H 19.8833 -2.8552 -4.97143 0
M  V30 228 H 18.2803 -3.62372 -4.78338 0
M  V30 229 H 19.3503 -3.47956 -3.3772 0
M  V30 230 N 20.6934 1.19889 -1.02296 0
M  V30 231 C 21.9424 1.88743 -0.711257 0
M  V30 232 C 22.2554 1.80112 0.762817 0
M  V30 233 O 23.4614 2.44161 1.18733 0
M  V30 234 C 21.9174 3.38525 -1.22185 0
M  V30 235 C 21.5254 3.55727 -2.72328 0
M  V30 236 C 23.2694 4.12893 -0.985864 0
M  V30 237 C 21.1764 4.99369 -3.16835 0
M  V30 238 H 20.1064 0.706885 -0.262353 0
M  V30 239 H 22.7574 1.35586 -1.23648 0
M  V30 240 H 21.1394 3.91044 -0.624571 0
M  V30 241 H 22.3134 3.13564 -3.3766 0
M  V30 242 H 20.6284 2.94739 -2.9414 0
M  V30 243 H 23.2254 5.18813 -1.29374 0
M  V30 244 H 23.5684 4.16228 0.0775055 0
M  V30 245 H 24.1014 3.66494 -1.54684 0
M  V30 246 H 20.8404 5.01193 -4.22476 0
M  V30 247 H 20.3604 5.42317 -2.56228 0
M  V30 248 H 22.0394 5.67988 -3.09837 0
M  V30 249 N 22.1715 0.800033 1.35784 0
M  V30 250 C 23.1015 0.220184 2.3246 0
M  V30 251 C 24.0825 -0.65073 1.57161 0
M  V30 252 O 25.2675 -0.582359 1.85263 0
M  V30 253 C 22.3975 -0.637353 3.41402 0
M  V30 254 C 21.3515 0.134531 4.27789 0
M  V30 255 C 20.6775 -0.844285 5.27992 0
M  V30 256 C 21.9775 1.32979 5.05088 0
M  V30 257 H 23.6715 1.02787 2.81203 0
M  V30 258 H 21.2175 0.495717 1.35199 0
M  V30 259 H 23.1705 -1.05302 4.08031 0
M  V30 260 H 21.8945 -1.47785 2.91251 0
M  V30 261 H 20.5535 0.531296 3.6273 0
M  V30 262 H 20.2015 -1.68011 4.74111 0
M  V30 263 H 19.9015 -0.332184 5.8666 0
M  V30 264 H 21.4255 -1.2583 5.97494 0
M  V30 265 H 22.8395 0.98934 5.64699 0
M  V30 266 H 21.2365 1.77593 5.7322 0
M  V30 267 H 22.3065 2.11978 4.36111 0
M  V30 268 N 23.6496 -1.47581 0.552962 0
M  V30 269 C 24.8956 -2.02782 0.0273648 0
M  V30 270 C 25.2286 -1.42687 -1.31734 0
M  V30 271 O 24.5036 -0.580897 -1.85623 0
M  V30 272 C 24.7866 -3.60031 -0.0702371 0
M  V30 273 C 24.6396 -4.30566 1.30126 0
M  V30 274 C 25.9586 -4.33028 -0.785771 0
M  V30 275 H 23.0776 -0.736912 0.0114185 0
M  V30 276 H 25.7196 -1.76056 0.714432 0
M  V30 277 H 23.8696 -3.82932 -0.655382 0
M  V30 278 H 25.5416 -4.19018 1.92929 0
M  V30 279 H 23.7846 -3.91086 1.87709 0
M  V30 280 H 24.4556 -5.39114 1.18573 0
M  V30 281 H 26.9316 -4.15095 -0.288982 0
M  V30 282 H 25.8076 -5.42695 -0.823013 0
M  V30 283 H 26.0686 -4.01945 -1.841 0
M  V30 284 N 25.1277 -0.289203 -1.54924 0
M  V30 285 C 26.3737 0.323998 -2.00195 0
M  V30 286 C 26.7067 1.54441 -1.17735 0
M  V30 287 O 25.9817 1.92875 -0.250878 0
M  V30 288 C 26.2647 0.692276 -3.53383 0
M  V30 289 C 26.1177 -0.536457 -4.46589 0
M  V30 290 C 27.4367 1.52335 -4.12895 0
M  V30 291 H 24.5557 0.116289 -0.727768 0
M  V30 292 H 27.1977 -0.398954 -1.85764 0
M  V30 293 H 25.3477 1.30822 -3.65811 0
M  V30 294 H 27.0197 -1.17499 -4.46085 0
M  V30 295 H 25.2627 -1.17192 -4.1767 0
M  V30 296 H 25.9337 -0.234806 -5.515 0
M  V30 297 H 28.4097 1.00302 -4.0383 0
M  V30 298 H 27.2857 1.74982 -5.20262 0
M  V30 299 H 27.5467 2.50886 -3.64018 0
M  V30 300 N 26.6058 1.57591 -0.0167156 0
M  V30 301 C 27.5688 2.08393 0.954204 0
M  V30 302 C 28.5688 0.996531 1.26198 0
M  V30 303 O 29.7588 1.25858 1.20438 0
M  V30 304 C 26.8908 2.5394 2.27436 0
M  V30 305 H 28.0838 2.95455 0.514451 0
M  V30 306 H 25.6368 1.54582 0.231089 0
M  V30 307 H 26.3718 1.70171 2.76066 0
M  V30 308 H 26.1568 3.33371 2.06412 0
M  V30 309 H 27.6468 2.93512 2.97053 0
M  V30 310 N 28.0839 -0.256276 1.55502 0
M  V30 311 C 29.0309 -1.31714 1.89526 0
M  V30 312 C 30.0009 -1.4828 0.748479 0
M  V30 313 O 31.1859 -1.62416 1.00128 0
M  V30 314 C 28.3259 -2.66933 2.18725 0
M  V30 315 C 27.4389 -2.58452 3.4616 0
M  V30 316 C 26.5739 -3.85961 3.64976 0
M  V30 317 C 25.6129 -3.72059 4.86044 0
M  V30 318 N 24.7499 -4.9144 5.01429 0
M  V30 319 H 29.5899 -1.01998 2.80001 0
M  V30 320 H 27.1269 -0.492413 1.38613 0
M  V30 321 H 29.0849 -3.4563 2.33657 0
M  V30 322 H 27.7149 -2.94816 1.31466 0
M  V30 323 H 26.7669 -1.71374 3.3961 0
M  V30 324 H 28.0789 -2.44085 4.34999 0
M  V30 325 H 27.2329 -4.73101 3.79816 0
M  V30 326 H 25.9719 -4.03215 2.74353 0
M  V30 327 H 24.9769 -2.83302 4.7119 0
M  V30 328 H 26.2019 -3.56309 5.78118 0
M  V30 329 H 24.1479 -5.09072 4.13741 0
M  V30 330 H 24.0649 -4.79668 5.84341 0
M  V30 331 H 25.3329 -5.80104 5.20672 0
M  V30 332 N 29.562 -1.4872 -0.521534 0
M  V30 333 C 30.509 -1.63871 -1.62527 0
M  V30 334 C 31.479 -0.480559 -1.58996 0
M  V30 335 O 32.664 -0.705085 -1.77294 0
M  V30 336 C 29.804 -1.69227 -3.00759 0
M  V30 337 C 28.917 -2.96207 -3.14461 0
M  V30 338 C 28.052 -2.92671 -4.43303 0
M  V30 339 C 27.091 -4.14318 -4.50563 0
M  V30 340 N 26.228 -4.0881 -5.70805 0
M  V30 341 H 31.068 -2.58123 -1.48918 0
M  V30 342 H 28.605 -1.28 -0.724878 0
M  V30 343 H 30.563 -1.70314 -3.80853 0
M  V30 344 H 29.193 -0.784586 -3.1312 0
M  V30 345 H 28.245 -3.04826 -2.27564 0
M  V30 346 H 29.557 -3.86192 -3.15686 0
M  V30 347 H 28.711 -2.92206 -5.31696 0
M  V30 348 H 27.45 -2.00429 -4.44612 0
M  V30 349 H 26.455 -4.15049 -3.60575 0
M  V30 350 H 27.68 -5.07729 -4.50986 0
M  V30 351 H 25.626 -3.19394 -5.72995 0
M  V30 352 H 25.543 -4.92509 -5.7356 0
M  V30 353 H 26.811 -4.12418 -6.61462 0
M  V30 354 N 31.0401 0.771051 -1.3745 0
M  V30 355 C 31.9871 1.88435 -1.3327 0
M  V30 356 C 32.9571 1.64914 -0.198136 0
M  V30 357 O 34.1421 1.86821 -0.387606 0
M  V30 358 C 31.2821 3.25509 -1.14622 0
M  V30 359 C 30.3951 3.60979 -2.37314 0
M  V30 360 C 29.5301 4.87265 -2.11533 0
M  V30 361 C 28.5691 5.15469 -3.30088 0
M  V30 362 N 27.7061 6.32944 -3.03853 0
M  V30 363 H 32.5461 1.91344 -2.28455 0
M  V30 364 H 30.0831 0.935466 -1.13523 0
M  V30 365 H 32.0411 4.04582 -1.01831 0
M  V30 366 H 30.6711 3.21974 -0.230837 0
M  V30 367 H 29.7231 2.76885 -2.60842 0
M  V30 368 H 31.0351 3.77759 -3.25729 0
M  V30 369 H 30.1891 5.74244 -1.95777 0
M  V30 370 H 28.9281 4.7259 -1.20457 0
M  V30 371 H 27.9331 4.26966 -3.46382 0
M  V30 372 H 29.1581 5.32052 -4.22016 0
M  V30 373 H 27.1041 6.19625 -2.15407 0
M  V30 374 H 27.0211 6.50143 -3.85812 0
M  V30 375 H 28.2891 7.22857 -2.91716 0
M  V30 376 N 32.5182 1.22032 0.997298 0
M  V30 377 C 33.4482 1.01065 2.10495 0
M  V30 378 C 34.4292 -0.0669542 1.69968 0
M  V30 379 O 35.6142 0.0943987 1.9397 0
M  V30 380 C 32.7442 0.582874 3.42374 0
M  V30 381 C 31.6982 1.60592 3.96729 0
M  V30 382 C 31.0242 1.03412 5.24605 0
M  V30 383 C 32.3242 2.99478 4.27914 0
M  V30 384 H 34.0182 1.93708 2.28292 0
M  V30 385 H 31.5642 0.932761 1.09707 0
M  V30 386 H 33.5172 0.423332 4.19268 0
M  V30 387 H 32.2412 -0.379213 3.24391 0
M  V30 388 H 30.9002 1.75316 3.21963 0
M  V30 389 H 30.5482 0.063518 5.0296 0
M  V30 390 H 30.2482 1.71754 5.61938 0
M  V30 391 H 31.7722 0.886066 6.04137 0
M  V30 392 H 33.1862 2.88153 4.95622 0
M  V30 393 H 31.5832 3.64903 4.76409 0
M  V30 394 H 32.6532 3.49742 3.3587 0
M  V30 395 N 33.9963 -1.19345 1.0293 0
M  V30 396 C 34.9433 -2.2258 0.610464 0
M  V30 397 C 35.9133 -1.6179 -0.375946 0
M  V30 398 O 37.0983 -1.88844 -0.272511 0
M  V30 399 C 34.2383 -3.45085 -0.0321473 0
M  V30 400 C 33.3513 -4.20258 1.00035 0
M  V30 401 C 32.4863 -5.3019 0.32746 0
M  V30 402 C 31.5253 -5.97121 1.34584 0
M  V30 403 N 30.6623 -6.98615 0.698726 0
M  V30 404 H 35.5023 -2.57764 1.49538 0
M  V30 405 H 33.0393 -1.26644 0.748311 0
M  V30 406 H 34.9973 -4.15061 -0.421966 0
M  V30 407 H 33.6273 -3.10555 -0.88064 0
M  V30 408 H 32.6793 -3.49223 1.50823 0
M  V30 409 H 33.9913 -4.66175 1.77433 0
M  V30 410 H 33.1453 -6.06587 -0.11718 0
M  V30 411 H 31.8843 -4.85345 -0.478713 0
M  V30 412 H 30.8893 -5.19474 1.80074 0
M  V30 413 H 32.1143 -6.4405 2.15352 0
M  V30 414 H 30.0603 -6.55942 -0.0873471 0
M  V30 415 H 29.9773 -7.42724 1.41058 0
M  V30 416 H 31.2453 -7.79004 0.278102 0
M  V30 417 N 35.4744 -0.807222 -1.35358 0
M  V30 418 C 36.3844 -0.219594 -2.3357 0
M  V30 419 C 37.4004 0.637734 -1.61892 0
M  V30 420 O 38.5764 0.549336 -1.93763 0
M  V30 421 C 35.6414 0.62158 -3.41083 0
M  V30 422 C 34.7024 -0.256315 -4.28534 0
M  V30 423 C 33.9354 0.544807 -5.30912 0
M  V30 424 O 34.1584 1.77944 -5.41934 0
M  V30 425 O 33.0924 -0.0646478 -6.01865 0
M  V30 426 H 36.9184 -1.03208 -2.85625 0
M  V30 427 H 34.5034 -0.569025 -1.38139 0
M  V30 428 H 36.3854 1.10067 -4.06772 0
M  V30 429 H 35.0604 1.41165 -2.91297 0
M  V30 430 H 33.9674 -0.782559 -3.65823 0
M  V30 431 H 35.3004 -1.01034 -4.81719 0
M  V30 432 N 36.9525 1.47285 -0.560781 0
M  V30 433 C 37.8845 2.28118 0.222438 0
M  V30 434 C 38.8975 1.37219 0.876056 0
M  V30 435 O 40.0865 1.62011 0.749307 0
M  V30 436 C 37.1865 3.1159 1.33285 0
M  V30 437 C 36.3595 4.30473 0.77534 0
M  V30 438 C 35.4185 4.95513 1.77069 0
M  V30 439 O 34.4445 5.53792 1.31539 0
M  V30 440 N 35.6465 4.90531 3.10418 0
M  V30 441 H 38.4115 2.95976 -0.470958 0
M  V30 442 H 35.9725 1.56955 -0.39709 0
M  V30 443 H 37.9645 3.51967 1.99752 0
M  V30 444 H 36.5345 2.45951 1.92943 0
M  V30 445 H 35.7545 3.94144 -0.0662113 0
M  V30 446 H 37.0425 5.07362 0.382272 0
M  V30 447 H 36.4405 4.44389 3.5005 0
M  V30 448 H 34.9975 5.34917 3.72434 0
M  V30 449 N 38.4306 0.297415 1.54768 0
M  V30 450 C 39.3406 -0.58983 2.27064 0
M  V30 451 C 40.3566 -1.15144 1.30453 0
M  V30 452 O 41.5326 -1.17699 1.63428 0
M  V30 453 C 38.5976 -1.74714 2.9946 0
M  V30 454 C 37.6586 -1.21997 4.11601 0
M  V30 455 C 36.8916 -2.32212 4.80535 0
M  V30 456 O 37.1146 -3.52036 4.48806 0
M  V30 457 O 36.0486 -1.99106 5.68014 0
M  V30 458 H 39.8746 -0.00348199 3.037 0
M  V30 459 H 37.4596 0.0640035 1.49263 0
M  V30 460 H 39.3416 -2.42147 3.44881 0
M  V30 461 H 38.0166 -2.32016 2.25722 0
M  V30 462 H 36.9236 -0.511458 3.70587 0
M  V30 463 H 38.2566 -0.692419 4.87305 0
M  V30 464 N 39.9087 -1.5758 0.0250728 0
M  V30 465 C 41.1577 -1.90811 -0.653767 0
M  V30 466 C 41.4707 -0.90273 -1.73523 0
M  V30 467 O 42.6767 -1.12614 -2.47043 0
M  V30 468 C 41.1327 -3.38804 -1.21409 0
M  V30 469 C 40.7407 -4.47692 -0.166126 0
M  V30 470 C 42.4847 -3.81108 -1.86967 0
M  V30 471 C 40.3917 -5.86779 -0.737856 0
M  V30 472 H 39.3217 -0.712063 -0.247956 0
M  V30 473 H 41.9727 -1.83281 0.0897137 0
M  V30 474 H 40.3547 -3.41252 -2.00905 0
M  V30 475 H 41.5287 -4.56797 0.606079 0
M  V30 476 H 39.8437 -4.14565 0.390466 0
M  V30 477 H 42.4407 -4.82375 -2.30692 0
M  V30 478 H 42.7837 -3.15953 -2.71071 0
M  V30 479 H 43.3167 -3.81065 -1.14167 0
M  V30 480 H 40.0557 -6.55468 0.0649577 0
M  V30 481 H 39.5757 -5.81288 -1.47864 0
M  V30 482 H 41.2547 -6.35223 -1.22884 0
M  V30 483 N 41.3868 0.248026 -1.55636 0
M  V30 484 C 42.6358 0.974134 -1.76617 0
M  V30 485 C 42.9488 1.86528 -0.588796 0
M  V30 486 O 44.1548 2.62805 -0.681594 0
M  V30 487 C 42.6108 1.78213 -3.12679 0
M  V30 488 C 42.2188 0.93843 -4.38061 0
M  V30 489 C 43.9628 2.50104 -3.42999 0
M  V30 490 C 41.8698 1.74225 -5.65155 0
M  V30 491 H 40.7998 0.36745 -0.658405 0
M  V30 492 H 43.4508 0.22884 -1.82067 0
M  V30 493 H 41.8328 2.56933 -3.01333 0
M  V30 494 H 43.0068 0.193635 -4.60393 0
M  V30 495 H 41.3218 0.332905 -4.15067 0
M  V30 496 H 43.9188 3.10694 -4.3517 0
M  V30 497 H 44.2618 3.21662 -2.64271 0
M  V30 498 H 44.7948 1.78395 -3.55556 0
M  V30 499 H 41.5338 1.07043 -6.46701 0
M  V30 500 H 41.0538 2.46235 -5.46926 0
M  V30 501 H 42.7328 2.30967 -6.0437 0
M  V30 502 N 42.8649 1.48995 0.513639 0
M  V30 503 C 43.7969 1.60836 1.63293 0
M  V30 504 C 44.8099 0.491701 1.55197 0
M  V30 505 O 45.9989 0.763238 1.6136 0
M  V30 506 C 43.0989 1.53731 3.02027 0
M  V30 507 C 42.2719 2.80715 3.35437 0
M  V30 508 C 41.3309 2.66837 4.53525 0
M  V30 509 O 40.3569 3.40753 4.55934 0
M  V30 510 N 41.5589 1.77539 5.52684 0
M  V30 511 H 44.3239 2.57366 1.53566 0
M  V30 512 H 41.8849 1.45925 0.701259 0
M  V30 513 H 43.8769 1.42118 3.78926 0
M  V30 514 H 42.4469 0.651092 3.05744 0
M  V30 515 H 41.6669 3.06772 2.47557 0
M  V30 516 H 42.9549 3.64927 3.54551 0
M  V30 517 H 42.3529 1.16719 5.53528 0
M  V30 518 H 40.9099 1.71856 6.28736 0
M  V30 519 N 44.343 -0.763751 1.37857 0
M  V30 520 C 45.759 -1.06542 1.18832 0
M  V30 521 C 45.959 -2.01478 0.0299722 0
M  V30 522 O 45.015 -2.4458 -0.627447 0
M  V30 523 C 46.328 -1.65525 2.51042 0
M  V30 524 C 47.876 -1.77745 2.57635 0
M  V30 525 C 48.351 -2.4014 3.89996 0
M  V30 526 N 49.842 -2.47582 3.91481 0
M  V30 527 C 50.577 -2.96732 4.9065 0
M  V30 528 N 50.073 -3.45993 6.00217 0
M  V30 529 N 51.866 -2.95679 4.78048 0
M  V30 530 H 44.017 -0.133556 2.1198 0
M  V30 531 H 46.28 -0.121879 0.940133 0
M  V30 532 H 45.986 -1.03236 3.36207 0
M  V30 533 H 45.86 -2.64719 2.68707 0
M  V30 534 H 48.247 -2.39164 1.72872 0
M  V30 535 H 48.328 -0.772836 2.43846 0
M  V30 536 H 47.972 -1.79358 4.75177 0
M  V30 537 H 47.902 -3.41223 4.01092 0
M  V30 538 H 50.393 -2.1273 3.12337 0
M  V30 539 H 50.706 -3.81922 6.7183 0
M  V30 540 H 49.051 -3.44077 6.03851 0
M  V30 541 H 52.242 -2.56499 3.91568 0
M  V30 542 H 52.415 -3.33672 5.55488 0
M  V30 543 N 45.8211 -1.22559 -0.990812 0
M  V30 544 C 47.0491 -1.07779 -1.76611 0
M  V30 545 C 47.4641 0.371513 -1.85109 0
M  V30 546 O 46.8211 1.25737 -1.32274 0
M  V30 547 C 46.8721 -1.68512 -3.19822 0
M  V30 548 O 46.5931 -3.07774 -3.1178 0
M  V30 549 C 48.0941 -1.59035 -4.13791 0
M  V30 550 H 45.3141 -0.377729 -0.554583 0
M  V30 551 H 47.8581 -1.62195 -1.24551 0
M  V30 552 H 46.0131 -1.18154 -3.68942 0
M  V30 553 H 46.4271 -3.37062 -4.01858 0
M  V30 554 H 47.9011 -2.0625 -5.1202 0
M  V30 555 H 48.3781 -0.547273 -4.35777 0
M  V30 556 H 48.9841 -2.08709 -3.70568 0
M  V30 557 N 47.2992 1.18797 -1.03562 0
M  V30 558 C 48.2292 2.24472 -0.643019 0
M  V30 559 C 49.2102 1.66433 0.351283 0
M  V30 560 O 50.3952 1.92803 0.232505 0
M  V30 561 C 47.5252 3.473 4.24935e-05 0
M  V30 562 C 46.4792 4.18055 -0.917257 0
M  V30 563 C 45.8052 5.34519 -0.138941 0
M  V30 564 C 47.1052 4.72109 -2.23407 0
M  V30 565 H 48.7992 2.57566 -1.52643 0
M  V30 566 H 46.3452 1.23806 -0.735394 0
M  V30 567 H 48.2982 4.20426 0.286383 0
M  V30 568 H 47.0222 3.13424 0.918299 0
M  V30 569 H 45.6812 3.46821 -1.1879 0
M  V30 570 H 45.3292 4.96891 0.781562 0
M  V30 571 H 45.0292 5.82794 -0.750005 0
M  V30 572 H 46.5532 6.10438 0.1405 0
M  V30 573 H 47.9672 5.36955 -2.00879 0
M  V30 574 H 46.3642 5.30897 -2.79765 0
M  V30 575 H 47.4342 3.89807 -2.88407 0
M  V30 576 N 48.7773 0.814389 1.34928 0
M  V30 577 C 49.7243 0.22822 2.29669 0
M  V30 578 C 50.6943 -0.642164 1.53184 0
M  V30 579 O 51.8793 -0.585605 1.81591 0
M  V30 580 C 49.0193 -0.61089 3.3965 0
M  V30 581 C 48.1323 0.280792 4.31086 0
M  V30 582 C 47.2673 -0.567067 5.28165 0
M  V30 583 C 46.3063 0.324531 6.11239 0
M  V30 584 N 45.4433 -0.483756 7.00431 0
M  V30 585 H 50.2833 1.04153 2.79206 0
M  V30 586 H 47.8203 0.525133 1.37407 0
M  V30 587 H 49.7783 -1.11263 4.0209 0
M  V30 588 H 48.4083 -1.38939 2.91369 0
M  V30 589 H 47.4603 0.900688 3.69583 0
M  V30 590 H 48.7723 0.966723 4.89342 0
M  V30 591 H 47.9263 -1.13363 5.96015 0
M  V30 592 H 46.6653 -1.28654 4.70425 0
M  V30 593 H 45.6703 0.903298 5.42329 0
M  V30 594 H 46.8953 1.04198 6.71059 0
M  V30 595 H 44.8413 -1.18706 6.45171 0
M  V30 596 H 44.7583 0.143965 7.55863 0
M  V30 597 H 46.0263 -1.03334 7.7262 0
M  V30 598 N 50.2554 -1.46986 0.568584 0
M  V30 599 C 51.5324 -1.95592 -0.0174074 0
M  V30 600 C 51.9124 -1.51124 -1.47393 0
M  V30 601 O 51.2604 -0.755329 -2.15655 0
M  V30 602 C 51.4704 -3.48719 0.139913 0
M  V30 603 C 52.8184 -4.246 0.000426376 0
M  V30 604 O 53.8424 -3.56135 0.0680316 0
M  V30 605 O 52.7014 -5.46302 -0.146988 0
M  V30 606 H 49.7954 -0.82498 -0.0577599 0
M  V30 607 H 52.3414 -1.57335 0.635909 0
M  V30 608 H 51.1134 -3.73927 1.15301 0
M  V30 609 H 50.7364 -3.93771 -0.550491 0
M  V30 610 N 51.7335 -0.305618 -1.54608 0
M  V30 611 C 52.9635 0.304333 -2.04346 0
M  V30 612 C 53.3715 1.47715 -1.18224 0
M  V30 613 O 52.7145 1.82591 -0.201577 0
M  V30 614 C 52.7765 0.819031 -3.50046 0
M  V30 615 C 52.4405 -0.22912 -4.56425 0
M  V30 616 C 53.4375 -1.05914 -5.08997 0
M  V30 617 C 51.1225 -0.372148 -5.0092 0
M  V30 618 C 53.1165 -2.01809 -6.04609 0
M  V30 619 C 50.8035 -1.33454 -5.9635 0
M  V30 620 C 51.8015 -2.15599 -6.48079 0
M  V30 621 O 51.4895 -3.10205 -7.41639 0
M  V30 622 H 51.2215 0.0693996 -0.672428 0
M  V30 623 H 53.7755 -0.444548 -2.00532 0
M  V30 624 H 52.0055 1.61852 -3.51199 0
M  V30 625 H 53.6945 1.34537 -3.82955 0
M  V30 626 H 54.4605 -0.959538 -4.75413 0
M  V30 627 H 50.3395 0.257304 -4.60281 0
M  V30 628 H 53.8835 -2.65966 -6.44909 0
M  V30 629 H 49.7805 -1.43485 -6.29351 0
M  V30 630 H 50.5485 -3.05237 -7.59455 0
M  V30 631 N 53.2116 1.57565 -0.0334293 0
M  V30 632 C 54.4886 1.83282 0.683163 0
M  V30 633 C 54.8686 0.91823 1.90084 0
M  V30 634 O 54.2166 -0.025113 2.28486 0
M  V30 635 C 54.4266 3.32599 1.0573 0
M  V30 636 C 55.7746 3.99179 1.44711 0
M  V30 637 O 56.7986 3.3712 1.15015 0
M  V30 638 O 55.6576 5.08565 2.0006 0
M  V30 639 H 52.7516 0.755869 0.335546 0
M  V30 640 H 55.2976 1.69589 -0.0614402 0
M  V30 641 H 54.0696 3.90834 0.190828 0
M  V30 642 H 53.6926 3.51415 1.85993 0
M  V30 643 N 54.6897 -0.239769 1.55765 0
M  V30 644 C 55.9357 -0.963942 1.79108 0
M  V30 645 C 56.2907 -1.82689 0.60352 0
M  V30 646 O 55.5837 -1.87313 -0.403033 0
M  V30 647 C 55.7777 -1.852 3.05672 0
M  V30 648 C 55.6067 -1.07651 4.36625 0
M  V30 649 C 54.3767 -0.778738 4.99263 0
M  V30 650 C 56.5747 -0.45062 5.12322 0
M  V30 651 N 54.5567 0.0200708 6.13897 0
M  V30 652 C 55.9277 0.212429 6.19636 0
M  V30 653 C 57.9827 -0.361806 4.96584 0
M  V30 654 C 56.6857 0.955772 7.12922 0
M  V30 655 C 58.7117 0.368023 5.90254 0
M  V30 656 C 58.0737 1.01968 6.96981 0
M  V30 657 H 54.1727 -0.333601 0.707272 0
M  V30 658 H 56.7567 -0.236425 1.93259 0
M  V30 659 H 54.9277 -2.55149 2.92837 0
M  V30 660 H 56.6597 -2.51228 3.1728 0
M  V30 661 H 53.4147 -1.09229 4.60832 0
M  V30 662 H 53.8387 0.407777 6.75771 0
M  V30 663 H 58.4807 -0.851286 4.14141 0
M  V30 664 H 56.1987 1.45683 7.9486 0
M  V30 665 H 59.7847 0.437504 5.80153 0
M  V30 666 H 58.6647 1.5754 7.68213 0
M  V30 667 N 56.1678 -1.49265 -0.50573 0
M  V30 668 C 57.5838 -1.35923 -0.836486 0
M  V30 669 C 57.7838 -0.388704 -1.97715 0
M  V30 670 O 56.8398 0.181336 -2.51848 0
M  V30 671 C 58.1528 -2.76531 -1.18115 0
M  V30 672 C 59.7008 -2.85197 -1.28964 0
M  V30 673 C 60.1758 -4.26561 -1.66761 0
M  V30 674 N 61.6668 -4.2935 -1.73819 0
M  V30 675 C 62.4018 -5.35693 -2.045 0
M  V30 676 N 61.8978 -6.52287 -2.33438 0
M  V30 677 N 63.6908 -5.23105 -2.05711 0
M  V30 678 H 55.8418 -2.10965 0.246519 0
M  V30 679 H 58.1048 -0.9468 0.0476887 0
M  V30 680 H 57.8108 -3.49226 -0.416398 0
M  V30 681 H 57.6848 -3.11599 -2.1257 0
M  V30 682 H 60.0718 -2.12742 -2.04511 0
M  V30 683 H 60.1528 -2.53718 -0.325704 0
M  V30 684 H 59.7968 -4.99541 -0.917656 0
M  V30 685 H 59.7268 -4.55502 -2.64246 0
M  V30 686 H 62.2178 -3.4526 -1.53635 0
M  V30 687 H 62.5308 -7.29158 -2.56024 0
M  V30 688 H 60.8758 -6.55521 -2.30905 0
M  V30 689 H 64.0668 -4.31026 -1.82577 0
M  V30 690 H 64.2398 -6.06078 -2.29289 0
M  V30 691 N 57.6459 0.756429 -1.3826 0
M  V30 692 C 58.8919 1.51772 -1.34511 0
M  V30 693 C 59.2249 1.94089 0.0656691 0
M  V30 694 O 58.4999 1.65221 1.02626 0
M  V30 695 C 58.7829 2.77226 -2.29821 0
M  V30 696 C 58.6359 2.41065 -3.79747 0
M  V30 697 C 59.9549 3.79236 -2.23312 0
M  V30 698 H 57.0739 0.550578 -0.489931 0
M  V30 699 H 59.7159 0.866607 -1.69086 0
M  V30 700 H 57.8659 3.32784 -2.00467 0
M  V30 701 H 59.5379 1.91303 -4.19763 0
M  V30 702 H 57.7809 1.7356 -3.97567 0
M  V30 703 H 58.4519 3.3081 -4.41892 0
M  V30 704 H 60.9279 3.3321 -2.49219 0
M  V30 705 H 59.8039 4.64714 -2.92116 0
M  V30 706 H 60.0649 4.24615 -1.23102 0
M  V30 707 N 59.124 1.23083 0.984299 0
M  V30 708 C 60.54 0.992637 1.24975 0
M  V30 709 C 60.74 -0.308618 1.99123 0
M  V30 710 O 59.796 -1.02905 2.30579 0
M  V30 711 C 61.109 2.19698 2.05312 0
M  V30 712 C 62.657 2.24147 2.18465 0
M  V30 713 C 63.132 3.44157 3.02192 0
M  V30 714 N 64.623 3.44372 3.09777 0
M  V30 715 C 65.358 4.33886 3.74874 0
M  V30 716 N 64.854 5.3363 4.41827 0
M  V30 717 N 66.647 4.21639 3.71721 0
M  V30 718 H 58.798 2.06731 0.487453 0
M  V30 719 H 61.061 0.906339 0.277944 0
M  V30 720 H 60.767 3.1411 1.58201 0
M  V30 721 H 60.641 2.20465 3.06064 0
M  V30 722 H 63.028 1.30277 2.64786 0
M  V30 723 H 63.109 2.27415 1.17115 0
M  V30 724 H 62.753 4.38332 2.56568 0
M  V30 725 H 62.683 3.3813 4.03702 0
M  V30 726 H 65.174 2.72201 2.62135 0
M  V30 727 H 65.487 5.98196 4.89266 0
M  V30 728 H 63.832 5.37534 4.40548 0
M  V30 729 H 67.023 3.42962 3.18582 0
M  V30 730 H 67.196 4.91604 4.22173 0
M  V30 731 N 60.6021 -1.18246 1.0419 0
M  V30 732 C 62.0131 -1.69914 0.773698 0
M  V30 733 C 62.3641 -1.83085 -0.705297 0
M  V30 734 O 61.4891 -1.51123 -1.5489 0
M  V30 735 C 62.0841 -3.08619 1.39784 0
M  V30 736 C 60.6431 -3.57494 1.17792 0
M  V30 737 C 59.7901 -2.34013 1.48773 0
M  V30 738 H 62.7411 -1.02904 1.20816 0
M  V30 739 H 62.7621 -3.71958 0.801714 0
M  V30 740 H 62.2741 -2.99001 2.47426 0
M  V30 741 H 60.3751 -3.72406 0.120295 0
M  V30 742 H 60.4881 -4.40852 1.87581 0
M  V30 743 H 58.8521 -2.37986 0.907463 0
M  V30 744 H 59.6351 -2.27013 2.57527 0
M  V30 745 N 62.0802 -0.821533 -1.34494 0
M  V30 746 C 63.4962 -0.507117 -1.51329 0
M  V30 747 C 63.6962 0.968964 -1.76673 0
M  V30 748 O 62.7522 1.75348 -1.81685 0
M  V30 749 C 64.0652 -1.36544 -2.67911 0
M  V30 750 C 65.6132 -1.36242 -2.81793 0
M  V30 751 C 66.0882 -2.2052 -4.01416 0
M  V30 752 N 67.5792 -2.18136 -4.08621 0
M  V30 753 C 68.3142 -2.80095 -5.00334 0
M  V30 754 N 67.8102 -3.51039 -5.9728 0
M  V30 755 N 69.6032 -2.69656 -4.93196 0
M  V30 756 H 61.7542 -1.77729 -1.16302 0
M  V30 757 H 64.0172 -0.757291 -0.570276 0
M  V30 758 H 63.7232 -2.41361 -2.55808 0
M  V30 759 H 63.5972 -1.02917 -3.62888 0
M  V30 760 H 65.9842 -0.322041 -2.93338 0
M  V30 761 H 66.0652 -1.73866 -1.87628 0
M  V30 762 H 65.7092 -3.24607 -3.90631 0
M  V30 763 H 65.6392 -1.80247 -4.94791 0
M  V30 764 H 68.1302 -1.6653 -3.39229 0
M  V30 765 H 68.4432 -3.95565 -6.63889 0
M  V30 766 H 66.7882 -3.55145 -5.97409 0
M  V30 767 H 69.9792 -2.13808 -4.16418 0
M  V30 768 H 70.1522 -3.1823 -5.64476 0
M  V30 769 N 63.5583 1.46682 -0.576371 0
M  V30 770 C 64.8063 2.02013 -0.0594163 0
M  V30 771 C 65.1273 1.45101 1.30271 0
M  V30 772 O 64.3973 0.633317 1.8538 0
M  V30 773 H 62.9773 0.746759 -0.0189745 0
M  V30 774 H 65.6393 1.79862 -0.750717 0
M  V30 775 H 64.7353 3.12097 0.014345 0
M  V30 776 N 65.0364 0.313813 1.54444 0
M  V30 777 C 65.9844 -0.572171 2.25453 0
M  V30 778 C 66.9784 -1.12657 1.2651 0
M  V30 779 O 68.1844 -1.07573 1.44319 0
M  V30 780 H 64.5594 -0.203146 0.724041 0
M  V30 781 H 66.5304 0.0491145 2.9836 0
M  V30 782 C 65.2794 -1.72626 3.0182 0
M  V30 783 H 64.6024 -1.30891 3.77767 0
M  V30 784 H 66.0424 -2.32199 3.54767 0
M  V30 785 C 64.5014 -2.63806 2.09542 0
M  V30 786 O 65.0314 -3.65256 1.67185 0
M  V30 787 N 63.2374 -2.31824 1.75232 0
M  V30 788 H 62.7844 -1.49368 2.09873 0
M  V30 789 H 62.7424 -2.93095 1.13767 0
M  V30 790 N 66.5145 -1.57545 0.0417849 0
M  V30 791 C 67.4625 -2.12148 -0.953723 0
M  V30 792 C 68.4565 -1.05104 -1.32852 0
M  V30 793 O 69.6625 -1.23524 -1.30927 0
M  V30 794 H 66.0375 -0.677957 -0.325389 0
M  V30 795 H 68.0085 -2.94707 -0.467991 0
M  V30 796 C 66.7575 -2.6739 -2.22257 0
M  V30 797 H 66.0805 -3.49413 -1.94295 0
M  V30 798 H 67.5205 -3.09227 -2.90094 0
M  V30 799 C 65.9795 -1.60723 -2.96091 0
M  V30 800 O 66.5095 -1.01449 -3.88679 0
M  V30 801 N 64.7155 -1.32466 -2.58652 0
M  V30 802 H 64.2625 -1.80856 -1.83437 0
M  V30 803 H 64.2205 -0.61325 -3.08361 0
M  V30 804 N 67.9926 0.231505 -1.5589 0
M  V30 805 C 68.9226 1.29022 -1.94617 0
M  V30 806 C 69.9036 1.4941 -0.813067 0
M  V30 807 O 71.0886 1.6176 -1.07459 0
M  V30 808 C 68.2186 2.64199 -2.25424 0
M  V30 809 C 67.1726 2.58484 -3.41131 0
M  V30 810 C 66.4986 3.97599 -3.57518 0
M  V30 811 C 67.7986 2.1413 -4.76388 0
M  V30 812 H 69.4926 0.968563 -2.83301 0
M  V30 813 H 67.0386 0.464479 -1.36303 0
M  V30 814 H 68.9916 3.38413 -2.51107 0
M  V30 815 H 67.7156 2.98032 -1.33583 0
M  V30 816 H 66.3746 1.86727 -3.15481 0
M  V30 817 H 66.0226 4.28723 -2.6307 0
M  V30 818 H 65.7226 3.94659 -4.35337 0
M  V30 819 H 67.2466 4.7349 -3.85538 0
M  V30 820 H 68.6606 2.78083 -5.01341 0
M  V30 821 H 67.0576 2.2227 -5.57419 0
M  V30 822 H 68.1276 1.09331 -4.72414 0
M  V30 823 N 69.4707 1.49531 0.497807 0
M  V30 824 C 70.6957 1.63159 1.28039 0
M  V30 825 C 71.1207 0.30418 1.85624 0
M  V30 826 O 70.4787 -0.728618 1.66015 0
M  V30 827 C 70.5267 2.70537 2.38416 0
M  V30 828 O 69.6307 2.29931 3.42353 0
M  V30 829 H 68.9717 0.546001 0.377861 0
M  V30 830 H 71.5017 1.9574 0.59558 0
M  V30 831 H 71.5117 2.92802 2.84132 0
M  V30 832 H 70.1867 3.6689 1.95869 0
M  V30 833 H 68.7637 2.18009 3.02533 0
M  V30 834 N 70.9488 -0.749086 1.3866 0
M  V30 835 C 72.1948 -1.50959 1.36319 0
M  V30 836 C 72.5498 -1.92347 -0.0452451 0
M  V30 837 O 71.8428 -1.6289 -1.00884 0
M  V30 838 C 72.0368 -2.7712 2.25697 0
M  V30 839 C 71.8658 -2.48067 3.7509 0
M  V30 840 C 70.6358 -2.41062 4.44091 0
M  V30 841 C 72.8338 -2.14544 4.67414 0
M  V30 842 N 70.8158 -2.04331 5.78897 0
M  V30 843 C 72.1868 -1.88141 5.90765 0
M  V30 844 C 74.2418 -2.00892 4.55573 0
M  V30 845 C 72.9448 -1.49463 7.036 0
M  V30 846 C 74.9708 -1.63616 5.68317 0
M  V30 847 C 74.3328 -1.38088 6.90732 0
M  V30 848 H 70.4318 -0.551804 0.554108 0
M  V30 849 H 73.0158 -0.871886 1.74087 0
M  V30 850 H 71.1868 -3.38693 1.9011 0
M  V30 851 H 72.9188 -3.4321 2.1445 0
M  V30 852 H 69.6738 -2.57685 3.9736 0
M  V30 853 H 70.0978 -1.88598 6.502 0
M  V30 854 H 74.7398 -2.19301 3.61479 0
M  V30 855 H 72.4578 -1.29794 7.97608 0
M  V30 856 H 76.0438 -1.53678 5.61137 0
M  V30 857 H 74.9238 -1.09674 7.76493 0
M  V30 858 N 72.4269 -1.23603 -0.977757 0
M  V30 859 C 73.8379 -1.06424 -1.53398 0
M  V30 860 C 74.1889 0.367578 -1.92726 0
M  V30 861 O 73.3139 1.25465 -1.76316 0
M  V30 862 C 73.9089 -1.92568 -2.78753 0
M  V30 863 C 72.4679 -1.79642 -3.30765 0
M  V30 864 C 71.6149 -1.88111 -2.03739 0
M  V30 865 H 74.5659 -1.37227 -0.797152 0
M  V30 866 H 74.5869 -1.45203 -3.51705 0
M  V30 867 H 74.0989 -2.96771 -2.50098 0
M  V30 868 H 72.1999 -0.782325 -3.64294 0
M  V30 869 H 72.3129 -2.63174 -4.00345 0
M  V30 870 H 70.6769 -1.31723 -2.17994 0
M  V30 871 H 71.4599 -2.93875 -1.77461 0
M  V30 872 N 73.905 1.17692 -1.04816 0
M  V30 873 C 75.182 1.83768 -0.669963 0
M  V30 874 C 75.562 1.93232 0.849986 0
M  V30 875 O 74.91 1.46397 1.75443 0
M  V30 876 C 75.12 3.21641 -1.35455 0
M  V30 877 C 76.468 3.97592 -1.49017 0
M  V30 878 O 77.492 3.31107 -1.31326 0
M  V30 879 O 76.351 5.16729 -1.77914 0
M  V30 880 H 73.445 0.792799 -0.235368 0
M  V30 881 H 75.991 1.25021 -1.14751 0
M  V30 882 H 74.763 3.097 -2.39168 0
M  V30 883 H 74.386 3.88052 -0.866107 0
M  V30 884 N 75.3831 0.828654 1.34056 0
M  V30 885 C 76.6111 0.43262 2.02326 0
M  V30 886 C 77.0261 -0.963147 1.62385 0
M  V30 887 O 76.3831 -1.62425 0.832121 0
M  V30 888 C 76.4341 0.53182 3.57567 0
M  V30 889 O 76.1551 1.87258 3.96063 0
M  V30 890 C 77.6561 0.131422 4.43105 0
M  V30 891 H 74.8761 0.172923 0.648335 0
M  V30 892 H 77.4201 1.1184 1.71208 0
M  V30 893 H 75.5751 -0.105938 3.87255 0
M  V30 894 H 75.9891 1.85087 4.90758 0
M  V30 895 H 77.4631 0.251904 5.51425 0
M  V30 896 H 77.9401 -0.925645 4.29335 0
M  V30 897 H 78.5461 0.743207 4.18756 0
M  V30 898 N 76.8612 -1.46375 0.584142 0
M  V30 899 C 78.1092 -2.01978 0.0701287 0
M  V30 900 C 78.4302 -1.4579 -1.295 0
M  V30 901 O 77.7002 -0.64314 -1.85042 0
M  V30 902 H 76.2802 -0.746648 0.0229345 0
M  V30 903 H 78.9422 -1.79461 0.760245 0
M  V30 904 H 78.0382 -3.121 0.0022064 0
M  V30 905 N 78.3393 -0.321999 -1.54275 0
M  V30 906 C 79.5873 0.280489 -2.00144 0
M  V30 907 C 79.9083 1.52777 -1.21178 0
M  V30 908 O 79.1783 1.9338 -0.313187 0
M  V30 909 H 77.7583 0.106632 -0.73935 0
M  V30 910 H 80.4203 -0.438184 -1.8991 0
M  V30 911 H 79.5163 0.537972 -3.07428 0
M  V30 912 N 79.8174 1.5752 -0.0501392 0
M  V30 913 C 81.2284 1.80271 0.485705 0
M  V30 914 C 81.5794 0.96228 1.70981 0
M  V30 915 O 80.7044 0.178578 2.15662 0
M  V30 916 C 81.2994 3.26957 0.887938 0
M  V30 917 C 79.8584 3.5063 1.36877 0
M  V30 918 C 79.0054 2.75165 0.343468 0
M  V30 919 H 81.9564 1.56281 -0.276028 0
M  V30 920 H 81.9774 3.37821 1.75093 0
M  V30 921 H 81.4894 3.881 -0.0031809 0
M  V30 922 H 79.5904 2.94766 2.27911 0
M  V30 923 H 79.7034 4.59343 1.36164 0
M  V30 924 H 78.0674 2.4127 0.816128 0
M  V30 925 H 78.8504 3.39034 -0.539548 0
M  V30 926 N 81.2955 -0.223234 1.56011 0
M  V30 927 C 82.5415 -0.949279 1.79211 0
M  V30 928 C 82.8745 -1.84054 0.619494 0
M  V30 929 O 82.1495 -1.90726 -0.381317 0
M  V30 930 C 82.4325 -1.78965 3.12479 0
M  V30 931 C 82.2855 -0.924997 4.40186 0
M  V30 932 C 83.6045 -2.76774 3.42175 0
M  V30 933 H 80.7235 -0.343676 0.651963 0
M  V30 934 H 83.3655 -0.218253 1.88742 0
M  V30 935 H 81.5155 -2.41291 3.04485 0
M  V30 936 H 83.1875 -0.318615 4.60198 0
M  V30 937 H 81.4305 -0.230344 4.33188 0
M  V30 938 H 82.1015 -1.54735 5.29869 0
M  V30 939 H 84.5775 -2.24584 3.50287 0
M  V30 940 H 83.4535 -3.32678 4.36597 0
M  V30 941 H 83.7145 -3.54429 2.64258 0
M  V30 942 N 82.7736 -1.49793 -0.48987 0
M  V30 943 C 83.7036 -1.70201 -1.59856 0
M  V30 944 C 84.6846 -0.55076 -1.60937 0
M  V30 945 O 85.8696 -0.787841 -1.77501 0
M  V30 946 C 82.9996 -1.77882 -2.98287 0
M  V30 947 C 81.9536 -2.92907 -3.12073 0
M  V30 948 C 81.2796 -2.85712 -4.51965 0
M  V30 949 C 82.5796 -4.3369 -2.91051 0
M  V30 950 H 84.2736 -2.63025 -1.43032 0
M  V30 951 H 81.8196 -1.26574 -0.686664 0
M  V30 952 H 83.7726 -1.90744 -3.75759 0
M  V30 953 H 82.4966 -0.816653 -3.16225 0
M  V30 954 H 81.1556 -2.79665 -2.37029 0
M  V30 955 H 80.8036 -1.8738 -4.66795 0
M  V30 956 H 80.5036 -3.62921 -4.62128 0
M  V30 957 H 82.0276 -3.00598 -5.31482 0
M  V30 958 H 83.4416 -4.47555 -3.58284 0
M  V30 959 H 81.8386 -5.12205 -3.12675 0
M  V30 960 H 82.9086 -4.47362 -1.87071 0
M  V30 961 N 84.2517 0.741722 -1.39055 0
M  V30 962 C 85.4977 1.50336 -1.36113 0
M  V30 963 C 85.8307 1.94148 0.0450796 0
M  V30 964 O 85.1057 1.66301 1.00868 0
M  V30 965 C 85.3887 2.74773 -2.32749 0
M  V30 966 C 85.2417 2.37023 -3.82283 0
M  V30 967 C 86.5607 3.76846 -2.27322 0
M  V30 968 H 83.6797 0.545351 -0.495743 0
M  V30 969 H 86.3217 0.848624 -1.69995 0
M  V30 970 H 84.4717 3.30639 -2.03986 0
M  V30 971 H 86.1437 1.8684 -4.21768 0
M  V30 972 H 84.3867 1.69334 -3.99385 0
M  V30 973 H 85.0577 3.26104 -4.45376 0
M  V30 974 H 87.5337 3.30548 -2.5274 0
M  V30 975 H 86.4097 4.6159 -2.97028 0
M  V30 976 H 86.6707 4.23286 -1.27599 0
M  V30 977 N 85.7298 1.2412 0.971189 0
M  V30 978 C 86.9548 1.10667 1.75407 0
M  V30 979 C 87.3798 -0.337048 1.85056 0
M  V30 980 O 86.7378 -1.24396 1.31892 0
M  V30 981 C 86.7858 1.74726 3.15441 0
M  V30 982 O 85.8898 1.01566 3.99697 0
M  V30 983 H 85.2308 0.387341 0.539317 0
M  V30 984 H 87.7608 1.64358 1.2185 0
M  V30 985 H 87.7708 1.80341 3.6598 0
M  V30 986 H 86.4458 2.79773 3.07734 0
M  V30 987 H 85.0228 1.03713 3.58187 0
M  V30 988 N 87.2079 -1.17134 1.05439 0
M  V30 989 C 88.4539 -1.87733 0.767077 0
M  V30 990 C 88.7869 -1.8098 -0.704253 0
M  V30 991 O 88.0619 -1.21951 -1.5152 0
M  V30 992 C 88.3449 -3.37659 1.25133 0
M  V30 993 C 88.1979 -3.53149 2.78578 0
M  V30 994 C 89.5169 -4.31768 0.852324 0
M  V30 995 H 86.6359 -0.681687 0.280129 0
M  V30 996 H 89.2779 -1.37732 1.30881 0
M  V30 997 H 87.4279 -3.80373 0.790469 0
M  V30 998 H 89.0999 -3.19434 3.32806 0
M  V30 999 H 87.3429 -2.95345 3.17732 0
M  V30 1000 H 88.0139 -4.58403 3.07523 0
M  V30 1001 H 90.4899 -3.96909 1.24911 0
M  V30 1002 H 89.3659 -5.35199 1.21873 0
M  V30 1003 H 89.6269 -4.41429 -0.243485 0
M  V30 1004 N 88.686 -0.835752 -1.33615 0
M  V30 1005 C 89.634 -0.255238 -2.31195 0
M  V30 1006 C 90.628 0.61107 -1.57995 0
M  V30 1007 O 91.834 0.500979 -1.72888 0
M  V30 1008 H 88.209 -0.0638085 -0.749288 0
M  V30 1009 H 90.18 -1.09283 -2.77669 0
M  V30 1010 C 88.929 0.55754 -3.43201 0
M  V30 1011 H 88.252 -0.0997553 -3.99676 0
M  V30 1012 H 89.692 0.929622 -4.13683 0
M  V30 1013 C 88.151 1.73515 -2.88781 0
M  V30 1014 O 88.681 2.83376 -2.84712 0
M  V30 1015 N 86.887 1.55603 -2.4543 0
M  V30 1016 H 86.434 0.662354 -2.48939 0
M  V30 1017 H 86.392 2.34545 -2.09371 0
M  V30 1018 N 90.1641 1.46063 -0.591896 0
M  V30 1019 C 91.4131 2.01547 -0.0786637 0
M  V30 1020 C 91.7261 1.46796 1.29268 0
M  V30 1021 O 92.9321 1.94157 1.89777 0
M  V30 1022 C 91.3881 3.59787 -0.0900024 0
M  V30 1023 C 90.9961 4.23534 -1.46023 0
M  V30 1024 C 92.7401 4.22895 0.368806 0
M  V30 1025 C 90.6471 5.73881 -1.4288 0
M  V30 1026 H 89.5771 0.753564 -0.0256388 0
M  V30 1027 H 92.2281 1.677 -0.744905 0
M  V30 1028 H 90.6101 3.90752 0.642586 0
M  V30 1029 H 91.7841 4.04167 -2.21328 0
M  V30 1030 H 90.0991 3.72558 -1.85982 0
M  V30 1031 H 92.6961 5.33116 0.411258 0
M  V30 1032 H 93.0391 3.9247 1.38827 0
M  V30 1033 H 93.5721 3.9659 -0.31001 0
M  V30 1034 H 90.3111 6.0898 -2.42536 0
M  V30 1035 H 89.8311 5.95486 -0.718095 0
M  V30 1036 H 91.5101 6.36776 -1.14565 0
M  V30 1037 N 91.6422 0.330177 1.54103 0
M  V30 1038 C 92.8722 -0.271784 2.04805 0
M  V30 1039 C 93.2802 -1.45816 1.20559 0
M  V30 1040 O 92.6232 -1.82247 0.2306 0
M  V30 1041 C 92.6852 -0.763238 3.51305 0
M  V30 1042 C 92.3492 0.301705 4.56003 0
M  V30 1043 C 93.3462 1.13999 5.07248 0
M  V30 1044 C 91.0312 0.451793 5.00264 0
M  V30 1045 C 93.0252 2.11402 6.01322 0
M  V30 1046 C 90.7122 1.42924 5.94151 0
M  V30 1047 C 91.7102 2.25882 6.44567 0
M  V30 1048 O 91.3982 3.21965 7.3661 0
M  V30 1049 H 91.1302 -0.058693 0.673447 0
M  V30 1050 H 93.6842 0.476395 1.99799 0
M  V30 1051 H 91.9142 -1.56244 3.5373 0
M  V30 1052 H 93.6032 -1.28427 3.85047 0
M  V30 1053 H 94.3692 1.03505 4.73827 0
M  V30 1054 H 90.2482 -0.184044 4.60632 0
M  V30 1055 H 93.7922 2.76192 6.40596 0
M  V30 1056 H 89.6892 1.53479 6.26988 0
M  V30 1057 H 90.4572 3.17281 7.54503 0
M  V30 1058 N 93.1203 -1.57491 0.0584922 0
M  V30 1059 C 94.0503 -2.14988 -0.911178 0
M  V30 1060 C 95.0313 -1.07343 -1.31952 0
M  V30 1061 O 96.2163 -1.35318 -1.39294 0
M  V30 1062 C 93.3463 -2.70078 -2.18347 0
M  V30 1063 C 92.3003 -3.82771 -1.91495 0
M  V30 1064 C 91.6263 -4.24408 -3.25241 0
M  V30 1065 C 92.9263 -5.07592 -1.23075 0
M  V30 1066 H 94.6203 -2.96263 -0.432246 0
M  V30 1067 H 92.1663 -1.42512 -0.206469 0
M  V30 1068 H 94.1193 -3.08943 -2.86587 0
M  V30 1069 H 92.8433 -1.86005 -2.68458 0
M  V30 1070 H 91.5023 -3.44389 -1.25664 0
M  V30 1071 H 91.1503 -3.37275 -3.73168 0
M  V30 1072 H 90.8503 -5.00366 -3.08071 0
M  V30 1073 H 92.3743 -4.65879 -3.94701 0
M  V30 1074 H 93.7883 -5.43857 -1.81362 0
M  V30 1075 H 92.1853 -5.88741 -1.16207 0
M  V30 1076 H 93.2553 -4.84454 -0.207847 0
M  V30 1077 N 94.5984 0.214957 -1.56127 0
M  V30 1078 C 96.0144 0.564948 -1.49267 0
M  V30 1079 C 96.2144 1.86827 -0.754838 0
M  V30 1080 O 95.2704 2.50745 -0.297198 0
M  V30 1081 C 96.5834 0.638071 -2.93852 0
M  V30 1082 C 98.1314 0.728253 -3.0441 0
M  V30 1083 C 98.6064 0.832663 -4.50367 0
M  V30 1084 N 100.097 0.896712 -4.54437 0
M  V30 1085 C 100.832 0.997324 -5.6466 0
M  V30 1086 N 100.328 1.06147 -6.8462 0
M  V30 1087 N 102.121 1.03297 -5.52527 0
M  V30 1088 H 94.2724 -0.640211 -2.02522 0
M  V30 1089 H 96.5354 -0.225507 -0.920788 0
M  V30 1090 H 96.2414 -0.250126 -3.50809 0
M  V30 1091 H 96.1154 1.49947 -3.46115 0
M  V30 1092 H 98.5024 1.60689 -2.47514 0
M  V30 1093 H 98.5834 -0.158952 -2.55306 0
M  V30 1094 H 98.2274 -0.0415417 -5.07883 0
M  V30 1095 H 98.1574 1.73538 -4.97184 0
M  V30 1096 H 100.648 0.857188 -3.6805 0
M  V30 1097 H 100.961 1.1382 -7.64372 0
M  V30 1098 H 99.3064 1.03049 -6.87318 0
M  V30 1099 H 102.497 0.979558 -4.57736 0
M  V30 1100 H 102.67 1.10793 -6.38458 0
M  V30 1101 N 96.0765 1.50051 0.48192 0
M  V30 1102 C 97.3015 1.64508 1.26301 0
M  V30 1103 C 97.7265 0.323851 1.85291 0
M  V30 1104 O 97.0845 -0.710969 1.66778 0
M  V30 1105 C 97.1325 2.7305 2.35533 0
M  V30 1106 O 96.2365 2.3355 3.39895 0
M  V30 1107 H 95.5775 0.549978 0.372048 0
M  V30 1108 H 98.1075 1.9636 0.574786 0
M  V30 1109 H 98.1175 2.95799 2.8101 0
M  V30 1110 H 96.7925 3.68946 1.91967 0
M  V30 1111 H 95.3695 2.21205 3.00204 0
M  V30 1112 N 97.5546 -0.734337 1.39446 0
M  V30 1113 C 98.8036 -1.48937 1.36017 0
M  V30 1114 C 99.1166 -1.95557 -0.0409005 0
M  V30 1115 O 100.323 -2.70779 -0.19778 0
M  V30 1116 C 98.7786 -2.69125 2.38955 0
M  V30 1117 C 98.3866 -2.29452 3.8478 0
M  V30 1118 C 100.131 -3.46944 2.44603 0
M  V30 1119 C 98.0376 -3.46366 4.79358 0
M  V30 1120 H 96.9676 -0.559296 0.505672 0
M  V30 1121 H 99.6186 -0.800983 1.65095 0
M  V30 1122 H 98.0006 -3.40041 2.02948 0
M  V30 1123 H 99.1746 -1.66077 4.29831 0
M  V30 1124 H 97.4896 -1.64723 3.82433 0
M  V30 1125 H 100.087 -4.33907 3.12456 0
M  V30 1126 H 100.43 -3.89454 1.47076 0
M  V30 1127 H 100.963 -2.83056 2.79507 0
M  V30 1128 H 97.7016 -3.08905 5.78151 0
M  V30 1129 H 97.2216 -4.08719 4.38986 0
M  V30 1130 H 98.9006 -4.12691 4.98292 0
M  V30 1131 N 99.0327 -1.24633 -0.964593 0
M  V30 1132 C 100.258 -1.11596 -1.74818 0
M  V30 1133 C 100.683 0.32723 -1.85232 0
M  V30 1134 O 100.041 1.23695 -1.32549 0
M  V30 1135 C 100.089 -1.76397 -3.1451 0
M  V30 1136 O 99.1927 -1.03685 -3.99153 0
M  V30 1137 H 98.5337 -0.390196 -0.537255 0
M  V30 1138 H 101.064 -1.65002 -1.20977 0
M  V30 1139 H 101.074 -1.8228 -3.65018 0
M  V30 1140 H 99.7487 -2.81401 -3.06246 0
M  V30 1141 H 98.3257 -1.05611 -3.57632 0
M  V30 1142 N 100.511 1.16574 -1.06058 0
M  V30 1143 C 101.458 2.20883 -0.669263 0
M  V30 1144 C 102.428 1.62729 0.332918 0
M  V30 1145 O 103.613 1.895 0.222346 0
M  V30 1146 C 100.753 3.45049 -0.0593572 0
M  V30 1147 C 99.8658 4.17458 -1.11143 0
M  V30 1148 C 99.0008 5.29135 -0.467916 0
M  V30 1149 C 98.0398 5.93343 -1.50369 0
M  V30 1150 N 97.1768 6.96516 -0.883706 0
M  V30 1151 H 102.017 2.53709 -1.5632 0
M  V30 1152 H 99.5538 1.24616 -0.781625 0
M  V30 1153 H 101.512 4.16033 0.311771 0
M  V30 1154 H 100.142 3.12781 0.797992 0
M  V30 1155 H 99.1938 3.45101 -1.60029 0
M  V30 1156 H 100.506 4.61307 -1.89731 0
M  V30 1157 H 99.6598 6.06684 -0.0436871 0
M  V30 1158 H 98.3988 4.86443 0.349864 0
M  V30 1159 H 97.4038 5.14517 -1.93784 0
M  V30 1160 H 98.6288 6.38114 -2.32352 0
M  V30 1161 H 96.5748 6.55943 -0.086595 0
M  V30 1162 H 96.4918 7.38723 -1.607 0
M  V30 1163 H 97.7598 7.77993 -0.484543 0
M  V30 1164 N 101.989 0.842826 1.3317 0
M  V30 1165 C 103.238 0.436738 1.96915 0
M  V30 1166 C 103.551 -1.01025 1.67491 0
M  V30 1167 O 104.757 -1.5212 2.24881 0
M  V30 1168 C 103.213 0.730021 3.52418 0
M  V30 1169 C 102.821 2.19195 3.90714 0
M  V30 1170 C 104.565 0.391076 4.22695 0
M  V30 1171 C 102.472 2.42907 5.39212 0
M  V30 1172 H 101.402 0.15958 0.736919 0
M  V30 1173 H 104.053 1.03196 1.51733 0
M  V30 1174 H 102.435 0.0643755 3.95948 0
M  V30 1175 H 103.609 2.8984 3.58231 0
M  V30 1176 H 101.924 2.49425 3.33431 0
M  V30 1177 H 104.521 0.545817 5.31907 0
M  V30 1178 H 104.864 -0.666294 4.10933 0
M  V30 1179 H 105.397 1.01212 3.84709 0
M  V30 1180 H 102.136 3.47224 5.55982 0
M  V30 1181 H 101.656 1.76827 5.73142 0
M  V30 1182 H 103.335 2.2626 6.06148 0
M  V30 1183 N 103.467 -1.45747 0.599634 0
M  V30 1184 C 104.744 -1.95585 0.0240846 0
M  V30 1185 C 105.124 -1.54217 -1.44154 0
M  V30 1186 O 104.472 -0.800903 -2.14004 0
M  V30 1187 C 104.682 -3.48344 0.21385 0
M  V30 1188 C 106.03 -4.24504 0.0904902 0
M  V30 1189 O 107.054 -3.55911 0.143558 0
M  V30 1190 O 105.913 -5.46491 -0.0310766 0
M  V30 1191 H 103.007 -0.82602 -0.0402478 0
M  V30 1192 H 105.553 -1.55951 0.669139 0
M  V30 1193 H 104.325 -3.71397 1.23206 0
M  V30 1194 H 103.948 -3.9485 -0.466842 0
M  V30 1195 N 104.945 -0.338344 -1.53925 0
M  V30 1196 C 106.222 0.314774 -1.93051 0
M  V30 1197 C 106.602 1.68669 -1.26941 0
M  V30 1198 O 105.95 2.24636 -0.418445 0
M  V30 1199 C 106.16 0.392249 -3.46789 0
M  V30 1200 C 107.508 0.645554 -4.19664 0
M  V30 1201 O 108.532 0.474575 -3.53024 0
M  V30 1202 O 107.391 0.976408 -5.37707 0
M  V30 1203 H 104.485 0.182598 -0.80659 0
M  V30 1204 H 107.031 -0.389141 -1.65178 0
M  V30 1205 H 105.803 -0.570702 -3.87116 0
M  V30 1206 H 105.426 1.14316 -3.80812 0
M  V30 1207 N 106.423 1.57458 -0.0668435 0
M  V30 1208 C 107.669 1.93587 0.6043 0
M  V30 1209 C 108.002 0.946722 1.69561 0
M  V30 1210 O 107.277 -0.0248516 1.94484 0
M  V30 1211 C 107.56 3.40014 1.18585 0
M  V30 1212 C 107.413 4.49685 0.101529 0
M  V30 1213 C 108.732 3.87154 2.09284 0
M  V30 1214 H 105.851 0.703958 0.218202 0
M  V30 1215 H 108.493 1.89542 -0.131804 0
M  V30 1216 H 106.643 3.43592 1.81319 0
M  V30 1217 H 108.315 4.5823 -0.531279 0
M  V30 1218 H 106.558 4.30059 -0.568487 0
M  V30 1219 H 107.229 5.49266 0.54874 0
M  V30 1220 H 109.705 3.85551 1.56491 0
M  V30 1221 H 108.581 4.90231 2.46911 0
M  V30 1222 H 108.842 3.2481 2.99918 0
M  V30 1223 N 107.901 -0.206675 1.56239 0
M  V30 1224 C 108.849 -1.27571 1.94495 0
M  V30 1225 C 109.843 -1.47737 0.828862 0
M  V30 1226 O 111.049 -1.48735 1.0138 0
M  V30 1227 H 107.424 -0.428029 0.6183 0
M  V30 1228 H 109.395 -0.925961 2.8367 0
M  V30 1229 C 108.144 -2.61568 2.29079 0
M  V30 1230 H 107.467 -2.46863 3.14482 0
M  V30 1231 H 108.907 -3.35144 2.5972 0
M  V30 1232 C 107.366 -3.17695 1.12123 0
M  V30 1233 O 107.896 -3.99801 0.390153 0
M  V30 1234 N 106.102 -2.76276 0.901097 0
M  V30 1235 H 105.649 -2.09613 1.49733 0
M  V30 1236 H 105.607 -3.1417 0.120319 0
M  V30 1237 N 109.379 -1.50304 -0.473955 0
M  V30 1238 C 110.312 -1.63595 -1.59097 0
M  V30 1239 C 111.29 -0.484142 -1.55225 0
M  V30 1240 O 112.474 -0.703271 -1.7489 0
M  V30 1241 C 109.601 -1.61589 -2.97669 0
M  V30 1242 C 108.647 -2.82295 -3.19705 0
M  V30 1243 S 109.48 -4.43635 -2.99913 0
M  V30 1244 C 110.636 -4.44317 -4.40832 0
M  V30 1245 H 110.869 -2.58082 -1.47583 0
M  V30 1246 H 108.402 -1.39531 -0.661087 0
M  V30 1247 H 110.36 -1.61116 -3.7756 0
M  V30 1248 H 109.021 -0.683421 -3.06575 0
M  V30 1249 H 108.214 -2.77188 -4.20931 0
M  V30 1250 H 107.816 -2.8032 -2.47582 0
M  V30 1251 H 110.108 -4.17703 -5.33414 0
M  V30 1252 H 111.051 -5.45911 -4.50984 0
M  V30 1253 H 111.459 -3.74059 -4.22777 0
M  V30 1254 N 110.857 0.726932 -1.39834 0
M  V30 1255 C 111.767 1.87131 -1.41489 0
M  V30 1256 C 112.783 1.71239 -0.308757 0
M  V30 1257 O 113.959 1.93701 -0.551529 0
M  V30 1258 C 111.024 3.22811 -1.26468 0
M  V30 1259 C 110.085 3.51039 -2.47124 0
M  V30 1260 C 109.318 4.80245 -2.3281 0
M  V30 1261 O 109.541 5.54537 -1.33585 0
M  V30 1262 O 108.475 5.08554 -3.21957 0
M  V30 1263 H 112.301 1.8869 -2.3797 0
M  V30 1264 H 109.886 0.875837 -1.21035 0
M  V30 1265 H 111.768 4.03877 -1.20255 0
M  V30 1266 H 110.443 3.22005 -0.330862 0
M  V30 1267 H 109.35 2.70027 -2.58914 0
M  V30 1268 H 110.683 3.56632 -3.39227 0
M  V30 1269 N 112.336 1.25143 0.95797 0
M  V30 1270 C 113.566 1.12261 1.73439 0
M  V30 1271 C 113.974 -0.326715 1.86358 0
M  V30 1272 O 113.317 -1.2367 1.35836 0
M  V30 1273 C 113.379 1.69966 3.16784 0
M  V30 1274 C 113.043 3.18936 3.27305 0
M  V30 1275 C 114.04 4.15968 3.11877 0
M  V30 1276 C 111.725 3.59083 3.51234 0
M  V30 1277 C 113.719 5.51126 3.20217 0
M  V30 1278 C 111.406 4.9438 3.5921 0
M  V30 1279 C 112.404 5.90211 3.43716 0
M  V30 1280 O 112.092 7.23046 3.51368 0
M  V30 1281 H 111.824 0.392476 0.550399 0
M  V30 1282 H 114.378 1.65927 1.21068 0
M  V30 1283 H 112.608 1.10744 3.70503 0
M  V30 1284 H 114.297 1.52232 3.76272 0
M  V30 1285 H 115.063 3.86292 2.93264 0
M  V30 1286 H 110.942 2.84989 3.62356 0
M  V30 1287 H 114.486 6.25905 3.0804 0
M  V30 1288 H 110.383 5.23723 3.77339 0
M  V30 1289 H 111.151 7.31097 3.6802 0
M  V30 1290 N 113.814 -1.1601 1.06675 0
M  V30 1291 C 115.039 -1.91068 0.806706 0
M  V30 1292 C 115.464 -1.77112 -0.633485 0
M  V30 1293 O 114.822 -1.09908 -1.44187 0
M  V30 1294 C 114.87 -3.39655 1.21106 0
M  V30 1295 O 113.974 -4.10893 0.352189 0
M  V30 1296 H 113.315 -0.595125 0.294486 0
M  V30 1297 H 115.845 -1.46955 1.42356 0
M  V30 1298 H 115.855 -3.90434 1.18428 0
M  V30 1299 H 114.53 -3.49132 2.26008 0
M  V30 1300 H 113.107 -3.70285 0.440868 0
M  V30 1301 N 115.292 -0.849877 -1.32721 0
M  V30 1302 C 116.255 -0.296122 -2.27279 0
M  V30 1303 C 117.255 0.541458 -1.5141 0
M  V30 1304 O 118.445 0.353658 -1.70572 0
M  V30 1305 C 115.577 0.581579 -3.35902 0
M  V30 1306 H 116.77 -1.13064 -2.77771 0
M  V30 1307 H 114.323 -0.62383 -1.43311 0
M  V30 1308 H 115.058 1.43809 -2.9067 0
M  V30 1309 H 114.843 -0.0178814 -3.92096 0
M  V30 1310 H 116.333 0.961951 -4.0637 0
M  V30 1311 N 116.77 1.45427 -0.607355 0
M  V30 1312 C 117.702 2.2871 0.149752 0
M  V30 1313 C 118.715 1.39937 0.831958 0
M  V30 1314 O 119.904 1.64313 0.697385 0
M  V30 1315 C 117.004 3.15673 1.23304 0
M  V30 1316 C 116.177 4.32722 0.637996 0
M  V30 1317 C 115.236 5.00895 1.61215 0
M  V30 1318 O 114.262 5.57697 1.13854 0
M  V30 1319 N 115.464 5.00159 2.94655 0
M  V30 1320 H 118.229 2.94328 -0.564882 0
M  V30 1321 H 115.79 1.55612 -0.446823 0
M  V30 1322 H 117.782 3.58144 1.88454 0
M  V30 1323 H 116.352 2.51965 1.8502 0
M  V30 1324 H 115.572 3.93734 -0.191572 0
M  V30 1325 H 116.86 5.08321 0.220665 0
M  V30 1326 H 116.258 4.553 3.35735 0
M  V30 1327 H 114.815 5.46495 3.55228 0
M  V30 1328 N 118.248 0.346503 1.53744 0
M  V30 1329 C 119.495 -0.249104 2.00962 0
M  V30 1330 C 119.823 -1.5032 1.23426 0
M  V30 1331 O 119.078 -1.93217 0.310761 0
M  V30 1332 C 119.377 -0.605809 3.52228 0
M  V30 1333 C 119.043 0.551747 4.47512 0
M  V30 1334 C 117.705 0.86941 4.73281 0
M  V30 1335 C 120.057 1.32818 5.03993 0
M  V30 1336 C 117.385 1.96582 5.52786 0
M  V30 1337 C 119.737 2.41486 5.84694 0
M  V30 1338 C 118.401 2.73808 6.08757 0
M  V30 1339 H 117.671 -0.0911538 0.735372 0
M  V30 1340 H 120.318 0.475027 1.85515 0
M  V30 1341 H 118.623 -1.4107 3.65522 0
M  V30 1342 H 120.32 -1.07858 3.86222 0
M  V30 1343 H 116.91 0.294102 4.2759 0
M  V30 1344 H 121.094 1.09602 4.84047 0
M  V30 1345 H 116.35 2.22045 5.69654 0
M  V30 1346 H 120.524 3.02078 6.27473 0
M  V30 1347 H 118.151 3.58892 6.7015 0
M  V30 1348 N 119.726 -1.57421 0.075193 0
M  V30 1349 C 120.954 -1.97946 -0.602076 0
M  V30 1350 C 121.369 -0.953674 -1.62943 0
M  V30 1351 O 120.726 0.0592551 -1.82404 0
M  V30 1352 C 120.777 -3.38546 -1.26762 0
M  V30 1353 O 120.498 -4.37195 -0.281376 0
M  V30 1354 C 121.999 -3.93966 -2.03239 0
M  V30 1355 H 119.219 -0.650918 -0.162931 0
M  V30 1356 H 121.763 -2.03959 0.148601 0
M  V30 1357 H 119.918 -3.33609 -1.96936 0
M  V30 1358 H 120.332 -5.18975 -0.759267 0
M  V30 1359 H 121.806 -4.94555 -2.45193 0
M  V30 1360 H 122.283 -3.30693 -2.8903 0
M  V30 1361 H 122.889 -4.02315 -1.37924 0
M  V30 1362 N 121.204 0.198386 -1.56346 0
M  V30 1363 C 122.451 0.919286 -1.80431 0
M  V30 1364 C 122.779 1.83393 -0.647866 0
M  V30 1365 O 122.034 1.92236 0.366556 0
M  V30 1366 C 122.333 1.77031 -3.10475 0
M  V30 1367 C 121.999 1.00693 -4.39513 0
M  V30 1368 C 120.661 0.796145 -4.74568 0
M  V30 1369 C 123.013 0.469559 -5.19081 0
M  V30 1370 C 120.341 0.0364588 -5.86689 0
M  V30 1371 C 122.693 -0.2769 -6.31994 0
M  V30 1372 C 121.357 -0.49873 -6.65634 0
M  V30 1373 H 120.627 0.336391 -0.660244 0
M  V30 1374 H 123.274 0.185872 -1.90596 0
M  V30 1375 H 121.579 2.5723 -2.95533 0
M  V30 1376 H 123.276 2.33065 -3.26315 0
M  V30 1377 H 119.866 1.18122 -4.12001 0
M  V30 1378 H 124.05 0.619816 -4.92414 0
M  V30 1379 H 119.306 -0.145412 -6.11227 0
M  V30 1380 H 123.48 -0.700684 -6.92866 0
M  V30 1381 H 121.107 -1.0893 -7.52355 0
M  V30 1382 N 122.682 1.50554 0.465978 0
M  V30 1383 C 124.098 1.38093 0.800154 0
M  V30 1384 C 124.298 0.440988 1.96615 0
M  V30 1385 O 123.354 -0.114499 2.5224 0
M  V30 1386 C 124.667 2.79565 1.10742 0
M  V30 1387 C 126.215 2.88516 1.21357 0
M  V30 1388 C 126.69 4.30833 1.55393 0
M  V30 1389 N 128.181 4.33807 1.62375 0
M  V30 1390 C 128.916 5.40927 1.90225 0
M  V30 1391 N 128.412 6.58247 2.16062 0
M  V30 1392 N 130.205 5.28376 1.9177 0
M  V30 1393 H 122.356 2.10237 -0.302366 0
M  V30 1394 H 124.619 0.945203 -0.0727746 0
M  V30 1395 H 124.325 3.50208 0.323661 0
M  V30 1396 H 124.199 3.17125 2.04234 0
M  V30 1397 H 126.586 2.1809 1.98799 0
M  V30 1398 H 126.667 2.54492 0.258321 0
M  V30 1399 H 126.311 5.01799 0.784889 0
M  V30 1400 H 126.241 4.62347 2.52076 0
M  V30 1401 H 128.732 3.49212 1.44427 0
M  V30 1402 H 129.045 7.3569 2.36601 0
M  V30 1403 H 127.39 6.61413 2.13444 0
M  V30 1404 H 130.581 4.35715 1.71085 0
M  V30 1405 H 130.754 6.11944 2.13139 0
M  V30 1406 N 124.16 -0.719506 1.40217 0
M  V30 1407 C 125.07 -1.86378 1.42479 0
M  V30 1408 C 126.086 -1.71073 0.317834 0
M  V30 1409 O 127.262 -1.93406 0.561794 0
M  V30 1410 C 124.327 -3.22136 1.28178 0
M  V30 1411 C 123.388 -3.49723 2.48982 0
M  V30 1412 C 122.621 -4.79004 2.35353 0
M  V30 1413 O 122.844 -5.53821 1.36524 0
M  V30 1414 O 121.778 -5.06839 3.2465 0
M  V30 1415 H 125.604 -1.87425 2.38968 0
M  V30 1416 H 123.189 -0.869405 1.21498 0
M  V30 1417 H 125.071 -4.03234 1.22395 0
M  V30 1418 H 123.746 -3.21825 0.347934 0
M  V30 1419 H 122.653 -2.6865 2.60342 0
M  V30 1420 H 123.986 -3.54828 3.41113 0
M  V30 1421 N 125.638 -1.25649 -0.95132 0
M  V30 1422 C 126.548 -1.08073 -2.08224 0
M  V30 1423 C 127.564 -0.0169666 -1.73992 0
M  V30 1424 O 128.74 -0.218593 -2.0021 0
M  V30 1425 C 125.805 -0.704922 -3.39458 0
M  V30 1426 C 124.866 -1.84699 -3.87537 0
M  V30 1427 C 124.099 -1.48902 -5.12508 0
M  V30 1428 O 124.322 -0.386156 -5.69091 0
M  V30 1429 O 123.256 -2.32033 -5.55378 0
M  V30 1430 H 127.082 -2.02924 -2.25954 0
M  V30 1431 H 124.667 -1.04618 -1.06656 0
M  V30 1432 H 126.549 -0.507609 -4.18332 0
M  V30 1433 H 125.224 0.214291 -3.2299 0
M  V30 1434 H 124.131 -2.09919 -3.09653 0
M  V30 1435 H 125.464 -2.74557 -4.08509 0
M  V30 1436 N 127.117 1.15442 -1.07289 0
M  V30 1437 C 128.363 1.8672 -0.806679 0
M  V30 1438 C 128.718 1.80723 0.660084 0
M  V30 1439 O 128.011 1.21902 1.47819 0
M  V30 1440 C 128.205 3.3489 -1.24834 0
M  V30 1441 C 128.034 3.55313 -2.7565 0
M  V30 1442 C 126.804 3.7082 -3.4325 0
M  V30 1443 C 129.002 3.53188 -3.73848 0
M  V30 1444 N 126.984 3.7929 -4.82713 0
M  V30 1445 C 128.355 3.67765 -4.99149 0
M  V30 1446 C 130.41 3.36459 -3.67015 0
M  V30 1447 C 129.113 3.6734 -6.18428 0
M  V30 1448 C 131.139 3.37333 -4.85758 0
M  V30 1449 C 130.501 3.52438 -6.09891 0
M  V30 1450 H 126.6 0.700433 -0.347733 0
M  V30 1451 H 129.184 1.38441 -1.36902 0
M  V30 1452 H 127.355 3.81786 -0.713713 0
M  V30 1453 H 129.087 3.93875 -0.929745 0
M  V30 1454 H 125.842 3.71568 -2.93656 0
M  V30 1455 H 126.266 3.8727 -5.55294 0
M  V30 1456 H 130.908 3.237 -2.71989 0
M  V30 1457 H 128.626 3.78878 -7.13777 0
M  V30 1458 H 132.212 3.25617 -4.82146 0
M  V30 1459 H 131.092 3.53047 -7.00234 0
M  V30 1460 N 128.595 0.856903 1.32268 0
M  V30 1461 C 129.543 0.291987 2.3076 0
M  V30 1462 C 130.537 -0.585857 1.58947 0
M  V30 1463 O 131.743 -0.47341 1.73663 0
M  V30 1464 H 128.118 0.075721 0.748178 0
M  V30 1465 H 130.089 1.13687 2.75895 0
M  V30 1466 C 128.838 -0.502869 3.44044 0
M  V30 1467 H 128.161 0.163328 3.99466 0
M  V30 1468 H 129.601 -0.863691 4.1511 0
M  V30 1469 C 128.06 -1.68898 2.91505 0
M  V30 1470 O 128.59 -2.78811 2.89184 0
M  V30 1471 N 126.796 -1.51679 2.47875 0
M  V30 1472 H 126.343 -0.622666 2.49961 0
M  V30 1473 H 126.301 -2.31184 2.13076 0
M  V30 1474 N 130.073 -1.45103 0.615059 0
M  V30 1475 C 131.35 -1.95549 0.0448276 0
M  V30 1476 C 131.73 -1.55737 -1.4251 0
M  V30 1477 O 131.078 -0.823556 -2.13143 0
M  V30 1478 C 131.288 -3.48098 0.250785 0
M  V30 1479 C 132.636 -4.24384 0.135509 0
M  V30 1480 O 133.66 -3.55738 0.181299 0
M  V30 1481 O 132.519 -5.46493 0.0268878 0
M  V30 1482 H 129.613 -0.8264 -0.0314845 0
M  V30 1483 H 132.159 -1.55232 0.685642 0
M  V30 1484 H 130.931 -3.7007 1.27139 0
M  V30 1485 H 130.554 -3.95323 -0.424937 0
M  V30 1486 N 131.551 -0.354651 -1.53558 0
M  V30 1487 C 132.514 0.484566 -2.24019 0
M  V30 1488 C 133.514 1.01861 -1.24422 0
M  V30 1489 O 134.704 0.906097 -1.4878 0
M  V30 1490 C 131.836 1.67615 -2.96847 0
M  V30 1491 H 133.029 -0.131843 -2.9961 0
M  V30 1492 H 130.582 -0.106165 -1.55939 0
M  V30 1493 H 131.317 2.33095 -2.25471 0
M  V30 1494 H 131.102 1.30029 -3.69912 0
M  V30 1495 H 132.592 2.27114 -3.50441 0
M  V30 1496 N 133.029 1.57378 -0.0835403 0
M  V30 1497 C 134.445 1.57246 0.273109 0
M  V30 1498 C 134.645 1.09385 1.69225 0
M  V30 1499 O 133.701 0.765051 2.40631 0
M  V30 1500 C 135.014 3.00614 0.0720628 0
M  V30 1501 C 136.562 3.12684 0.1407 0
M  V30 1502 C 137.037 4.57989 -0.0322094 0
M  V30 1503 N 138.528 4.63194 0.0230085 0
M  V30 1504 C 139.263 5.73335 -0.0861941 0
M  V30 1505 N 138.759 6.9235 -0.24958 0
M  V30 1506 N 140.552 5.62093 -0.0282886 0
M  V30 1507 H 132.703 1.86801 -1.0109 0
M  V30 1508 H 134.966 0.861687 -0.395222 0
M  V30 1509 H 134.672 3.39786 -0.907662 0
M  V30 1510 H 134.546 3.68193 0.81936 0
M  V30 1511 H 136.933 2.73391 1.11092 0
M  V30 1512 H 137.014 2.47719 -0.637896 0
M  V30 1513 H 136.658 4.97973 -0.999247 0
M  V30 1514 H 136.588 5.21 0.765937 0
M  V30 1515 H 139.079 3.77613 0.14722 0
M  V30 1516 H 139.392 7.72117 -0.324733 0
M  V30 1517 H 137.737 6.94415 -0.285097 0
M  V30 1518 H 140.928 4.67997 0.0981408 0
M  V30 1519 H 141.101 6.47895 -0.116845 0
M  V30 1520 N 134.507 -0.190092 1.56449 0
M  V30 1521 C 135.437 -1.23816 1.97969 0
M  V30 1522 C 136.418 -1.47201 0.852395 0
M  V30 1523 O 137.603 -1.58854 1.1171 0
M  V30 1524 C 134.733 -2.5813 2.3235 0
M  V30 1525 C 133.687 -2.49348 3.47864 0
M  V30 1526 C 133.013 -3.8798 3.67934 0
M  V30 1527 C 134.313 -2.01424 4.81898 0
M  V30 1528 H 136.007 -0.89311 2.85769 0
M  V30 1529 H 133.553 -0.428177 1.37487 0
M  V30 1530 H 135.506 -3.31637 2.59991 0
M  V30 1531 H 134.23 -2.94386 1.41438 0
M  V30 1532 H 132.889 -1.78297 3.20321 0
M  V30 1533 H 132.537 -4.21597 2.74344 0
M  V30 1534 H 132.237 -3.82978 4.45648 0
M  V30 1535 H 133.761 -4.63101 3.97957 0
M  V30 1536 H 135.175 -2.64693 5.08538 0
M  V30 1537 H 133.572 -2.07413 5.63116 0
M  V30 1538 H 134.642 -0.967677 4.75146 0
M  V30 1539 N 135.985 -1.50799 -0.457987 0
M  V30 1540 C 137.233 -1.62121 -1.2067 0
M  V30 1541 C 137.554 -0.329793 -1.92191 0
M  V30 1542 O 136.824 0.653409 -1.84682 0
M  V30 1543 H 135.404 -0.597441 -0.448411 0
M  V30 1544 H 138.066 -1.87637 -0.527096 0
M  V30 1545 H 137.162 -2.43882 -1.94751 0
M  V30 1546 N 137.463 0.71206 -1.40597 0
M  V30 1547 C 138.693 1.49894 -1.42181 0
M  V30 1548 C 139.101 1.89189 -0.0208078 0
M  V30 1549 O 138.444 1.56223 0.966436 0
M  V30 1550 C 138.506 2.80215 -2.25211 0
M  V30 1551 C 138.17 2.63221 -3.73582 0
M  V30 1552 C 139.167 2.30249 -4.66135 0
M  V30 1553 C 136.852 2.79376 -4.17438 0
M  V30 1554 C 138.846 2.13645 -6.00529 0
M  V30 1555 C 136.533 2.6239 -5.51901 0
M  V30 1556 C 137.531 2.29573 -6.43262 0
M  V30 1557 O 137.219 2.12719 -7.75246 0
M  V30 1558 H 136.951 0.469031 -0.486812 0
M  V30 1559 H 139.505 0.88564 -1.85326 0
M  V30 1560 H 137.735 3.4389 -1.76852 0
M  V30 1561 H 139.424 3.41947 -2.18694 0
M  V30 1562 H 140.19 2.17398 -4.33547 0
M  V30 1563 H 136.069 3.03906 -3.46644 0
M  V30 1564 H 139.613 1.87953 -6.71803 0
M  V30 1565 H 135.51 2.74826 -5.84073 0
M  V30 1566 H 136.278 2.27611 -7.86216 0
M  V30 1567 N 138.941 1.26152 0.944643 0
M  V30 1568 C 139.851 1.09176 2.07648 0
M  V30 1569 C 140.867 0.0261935 1.7398 0
M  V30 1570 O 142.043 0.229208 2.00091 0
M  V30 1571 C 139.108 0.722915 3.39079 0
M  V30 1572 C 138.169 1.86752 3.86552 0
M  V30 1573 C 137.402 1.51617 5.11711 0
M  V30 1574 O 137.625 0.416331 5.68879 0
M  V30 1575 O 136.559 2.34975 5.54139 0
M  V30 1576 H 140.385 2.0412 2.24875 0
M  V30 1577 H 137.97 1.05182 1.061 0
M  V30 1578 H 139.852 0.529787 4.18056 0
M  V30 1579 H 138.527 -0.197159 3.23099 0
M  V30 1580 H 137.434 2.11558 3.08535 0
M  V30 1581 H 138.767 2.76719 4.07047 0
M  V30 1582 N 140.419 -1.14872 1.07899 0
M  V30 1583 C 141.835 -1.37776 0.805606 0
M  V30 1584 C 142.035 -1.92743 -0.587555 0
M  V30 1585 O 141.091 -2.13678 -1.34528 0
M  V30 1586 C 142.404 -2.34361 1.88402 0
M  V30 1587 C 143.952 -2.48012 1.90942 0
M  V30 1588 C 144.427 -3.47893 2.97883 0
M  V30 1589 N 145.918 -3.55433 2.97021 0
M  V30 1590 C 146.653 -4.32553 3.76412 0
M  V30 1591 N 146.149 -5.12959 4.65666 0
M  V30 1592 N 147.942 -4.27697 3.64735 0
M  V30 1593 H 140.093 -0.775365 1.97742 0
M  V30 1594 H 142.356 -0.403521 0.857831 0
M  V30 1595 H 142.062 -2.01098 2.88535 0
M  V30 1596 H 141.936 -3.34206 1.74889 0
M  V30 1597 H 144.323 -2.8057 0.914579 0
M  V30 1598 H 144.404 -1.48147 2.08534 0
M  V30 1599 H 144.048 -3.16069 3.97571 0
M  V30 1600 H 143.978 -4.47527 2.77538 0
M  V30 1601 H 146.469 -2.98048 2.32326 0
M  V30 1602 H 146.782 -5.69065 5.22862 0
M  V30 1603 H 145.127 -5.12245 4.69712 0
M  V30 1604 H 148.318 -3.63949 2.94378 0
M  V30 1605 H 148.491 -4.8755 4.26848 0
M  V30 1606 N 141.898 -0.863906 -1.31812 0
M  V30 1607 C 142.828 -0.330843 -2.31144 0
M  V30 1608 C 143.809 0.575005 -1.60087 0
M  V30 1609 O 144.994 0.493304 -1.8783 0
M  V30 1610 C 142.124 0.47374 -3.44054 0
M  V30 1611 C 141.078 -0.338481 -4.26659 0
M  V30 1612 C 140.404 0.591412 -5.31419 0
M  V30 1613 C 141.704 -1.56926 -4.98168 0
M  V30 1614 H 143.398 -1.16086 -2.75979 0
M  V30 1615 H 140.944 -0.559657 -1.32679 0
M  V30 1616 H 142.897 0.857143 -4.12591 0
M  V30 1617 H 141.621 1.33721 -2.9797 0
M  V30 1618 H 140.28 -0.703754 -3.59782 0
M  V30 1619 H 139.928 1.45199 -4.81587 0
M  V30 1620 H 139.628 0.0519022 -5.87577 0
M  V30 1621 H 141.152 0.97179 -6.02817 0
M  V30 1622 H 142.566 -1.25764 -5.59336 0
M  V30 1623 H 140.963 -2.04739 -5.64094 0
M  V30 1624 H 142.033 -2.32544 -4.25501 0
M  V30 1625 N 143.376 1.44774 -0.622745 0
M  V30 1626 C 144.339 2.29069 0.0774015 0
M  V30 1627 C 145.339 1.4059 0.780461 0
M  V30 1628 O 146.529 1.62551 0.626322 0
M  V30 1629 C 143.661 3.21974 1.12006 0
M  V30 1630 H 144.854 2.92459 -0.663901 0
M  V30 1631 H 142.407 1.51548 -0.382486 0
M  V30 1632 H 143.142 2.63417 1.89162 0
M  V30 1633 H 142.927 3.87168 0.619951 0
M  V30 1634 H 144.417 3.85318 1.60995 0
M  V30 1635 N 144.854 0.36279 1.53368 0
M  V30 1636 C 146.131 -0.284021 1.93527 0
M  V30 1637 C 146.511 -1.66628 1.29608 0
M  V30 1638 O 145.859 -2.23942 0.45413 0
M  V30 1639 C 146.069 -0.337028 3.47369 0
M  V30 1640 C 147.417 -0.578708 4.20638 0
M  V30 1641 O 148.441 -0.418352 3.53735 0
M  V30 1642 O 147.3 -0.89074 5.39192 0
M  V30 1643 H 144.394 -0.169743 0.809393 0
M  V30 1644 H 146.94 0.41537 1.64538 0
M  V30 1645 H 145.712 0.632217 3.86159 0
M  V30 1646 H 145.335 -1.08243 3.82582 0
M  V30 1647 N 146.332 -1.57332 0.0918853 0
M  V30 1648 C 147.242 -2.17368 -0.882505 0
M  V30 1649 C 148.258 -1.14226 -1.31257 0
M  V30 1650 O 149.434 -1.46582 -1.38115 0
M  V30 1651 C 146.499 -2.73962 -2.12476 0
M  V30 1652 C 145.56 -3.92048 -1.7492 0
M  V30 1653 C 144.793 -4.45933 -2.93223 0
M  V30 1654 O 145.016 -3.98764 -4.07852 0
M  V30 1655 O 143.95 -5.36999 -2.71875 0
M  V30 1656 H 147.776 -3.01031 -0.40172 0
M  V30 1657 H 145.361 -1.48813 -0.132291 0
M  V30 1658 H 147.243 -3.10147 -2.85283 0
M  V30 1659 H 145.918 -1.93347 -2.59613 0
M  V30 1660 H 144.825 -3.6068 -0.993025 0
M  V30 1661 H 146.158 -4.74017 -1.32548 0
M  V30 1662 N 147.81 0.181792 -1.56548 0
M  V30 1663 C 148.758 1.24461 -1.965 0
M  V30 1664 C 149.752 1.464 -0.852261 0
M  V30 1665 O 150.958 1.47103 -1.03733 0
M  V30 1666 H 147.333 0.418138 -0.625031 0
M  V30 1667 H 149.304 0.880714 -2.85107 0
M  V30 1668 C 148.053 2.57891 -2.33212 0
M  V30 1669 H 147.376 2.41829 -3.18369 0
M  V30 1670 H 148.816 3.3097 -2.65019 0
M  V30 1671 C 147.275 3.15871 -1.17163 0
M  V30 1672 O 147.805 3.9913 -0.453708 0
M  V30 1673 N 146.011 2.74808 -0.944936 0
M  V30 1674 H 145.558 2.07205 -1.53049 0
M  V30 1675 H 145.516 3.13939 -0.170286 0
M  V30 1676 N 149.288 1.51039 0.449983 0
M  V30 1677 C 150.516 1.66869 1.2232 0
M  V30 1678 C 150.931 0.360727 1.85322 0
M  V30 1679 O 150.288 -0.659531 1.70166 0
M  V30 1680 C 150.339 2.77524 2.31652 0
M  V30 1681 O 150.06 4.03252 1.7123 0
M  V30 1682 C 151.561 3.04512 3.2216 0
M  V30 1683 H 148.781 0.560326 0.369155 0
M  V30 1684 H 151.325 1.97385 0.534719 0
M  V30 1685 H 149.48 2.49642 2.96239 0
M  V30 1686 H 149.894 4.64609 2.43389 0
M  V30 1687 H 151.368 3.85551 3.95038 0
M  V30 1688 H 151.845 2.16415 3.8218 0
M  V30 1689 H 152.451 3.34005 2.63288 0
M  V30 1690 N 150.766 -0.704594 1.40972 0
M  V30 1691 C 151.698 -1.82974 1.38033 0
M  V30 1692 C 152.711 -1.60305 0.283931 0
M  V30 1693 O 153.9 -1.69975 0.545042 0
M  V30 1694 C 151 -3.19578 1.12795 0
M  V30 1695 C 150.173 -3.69352 2.34302 0
M  V30 1696 C 149.232 -4.84601 2.05058 0
M  V30 1697 O 148.258 -4.96682 2.7802 0
M  V30 1698 N 149.46 -5.71194 1.03528 0
M  V30 1699 H 152.225 -1.85991 2.35005 0
M  V30 1700 H 149.786 -0.886567 1.35468 0
M  V30 1701 H 151.778 -3.9429 0.911987 0
M  V30 1702 H 150.348 -3.11642 0.24452 0
M  V30 1703 H 149.568 -2.85649 2.71659 0
M  V30 1704 H 150.856 -3.99345 3.1528 0
M  V30 1705 H 150.254 -5.64054 0.431217 0
M  V30 1706 H 148.811 -6.45843 0.879205 0
M  V30 1707 N 152.244 -1.26651 -0.937939 0
M  V30 1708 C 153.49 -1.12553 -1.687 0
M  V30 1709 C 153.823 0.329782 -1.91379 0
M  V30 1710 O 153.098 1.24202 -1.4968 0
M  V30 1711 C 153.381 -1.89862 -3.05981 0
M  V30 1712 C 153.234 -3.43318 -2.90607 0
M  V30 1713 C 154.553 -1.69499 -4.0615 0
M  V30 1714 H 151.672 -0.410257 -0.612257 0
M  V30 1715 H 154.314 -1.55685 -1.08913 0
M  V30 1716 H 152.464 -1.53204 -3.57017 0
M  V30 1717 H 154.136 -3.89747 -2.46769 0
M  V30 1718 H 152.379 -3.70179 -2.26164 0
M  V30 1719 H 153.05 -3.92642 -3.8799 0
M  V30 1720 H 155.526 -2.01442 -3.64088 0
M  V30 1721 H 154.402 -2.26002 -5.00214 0
M  V30 1722 H 154.663 -0.640365 -4.37438 0
M  V30 1723 N 153.722 1.14298 -1.08507 0
M  V30 1724 C 155.133 1.66926 -0.836227 0
M  V30 1725 C 155.484 1.85576 0.63686 0
M  V30 1726 O 154.609 1.56767 1.49175 0
M  V30 1727 C 155.204 3.03219 -1.51142 0
M  V30 1728 C 153.763 3.52876 -1.30979 0
M  V30 1729 C 152.91 2.2833 -1.57356 0
M  V30 1730 H 155.861 0.983491 -1.24552 0
M  V30 1731 H 155.882 3.68726 -0.939211 0
M  V30 1732 H 155.394 2.89612 -2.58353 0
M  V30 1733 H 153.495 3.71703 -0.258429 0
M  V30 1734 H 153.608 4.33586 -2.03814 0
M  V30 1735 H 151.972 2.34454 -0.995164 0
M  V30 1736 H 152.755 2.17298 -2.65775 0
M  V30 1737 N 155.201 0.870884 1.31352 0
M  V30 1738 C 156.612 0.534714 1.78879 0
M  V30 1739 C 156.963 -0.948423 1.71754 0
M  V30 1740 O 156.088 -1.74055 1.28584 0
M  V30 1741 C 156.683 0.963839 3.24801 0
M  V30 1742 C 155.242 0.679311 3.70219 0
M  V30 1743 C 154.389 1.15465 2.52117 0
M  V30 1744 H 157.34 1.05651 1.18421 0
M  V30 1745 H 157.361 0.286892 3.79417 0
M  V30 1746 H 156.873 2.04332 3.29955 0
M  V30 1747 H 154.974 -0.388769 3.70566 0
M  V30 1748 H 155.087 1.25698 4.62317 0
M  V30 1749 H 153.451 0.574383 2.48139 0
M  V30 1750 H 154.234 2.24157 2.60016 0
M  V30 1751 N 156.679 -1.44442 0.630414 0
M  V30 1752 C 157.926 -2.02052 0.134617 0
M  V30 1753 C 158.254 -1.49576 -1.24327 0
M  V30 1754 O 157.509 -0.669806 -1.83881 0
M  V30 1755 C 157.808 -3.57332 0.0697835 0
M  V30 1756 C 157.474 -4.29058 1.38635 0
M  V30 1757 C 156.136 -4.4837 1.74694 0
M  V30 1758 C 158.488 -4.69872 2.25543 0
M  V30 1759 C 155.816 -5.05756 2.97369 0
M  V30 1760 C 158.168 -5.28616 3.47487 0
M  V30 1761 C 156.832 -5.46147 3.8377 0
M  V30 1762 H 156.102 -0.739361 0.0492598 0
M  V30 1763 H 158.749 -1.73217 0.816586 0
M  V30 1764 H 157.054 -3.85577 -0.695553 0
M  V30 1765 H 158.751 -3.99637 -0.330344 0
M  V30 1766 H 155.341 -4.14357 1.09574 0
M  V30 1767 H 159.525 -4.54666 1.98979 0
M  V30 1768 H 154.781 -5.17515 3.25558 0
M  V30 1769 H 158.955 -5.59192 4.15063 0
M  V30 1770 H 156.582 -5.9038 4.7891 0
M  V30 1771 N 158.157 -0.370918 -1.53173 0
M  V30 1772 C 159.403 0.217423 -2.01631 0
M  V30 1773 C 159.736 1.47983 -1.25756 0
M  V30 1774 O 159.011 1.91274 -0.352764 0
M  V30 1775 C 159.294 0.503982 -3.56556 0
M  V30 1776 C 159.147 -0.77243 -4.43118 0
M  V30 1777 C 160.466 1.30234 -4.20389 0
M  V30 1778 H 157.585 0.0775486 -0.732909 0
M  V30 1779 H 160.227 -0.496863 -1.83388 0
M  V30 1780 H 158.377 1.11248 -3.72231 0
M  V30 1781 H 160.049 -1.4098 -4.39229 0
M  V30 1782 H 158.292 -1.39167 -4.10871 0
M  V30 1783 H 158.963 -0.526815 -5.4948 0
M  V30 1784 H 161.439 0.787546 -4.08579 0
M  V30 1785 H 160.315 1.47158 -5.28806 0
M  V30 1786 H 160.576 2.31237 -3.76805 0
M  V30 1787 N 159.635 1.57281 -0.100228 0
M  V30 1788 C 160.881 1.94826 0.563101 0
M  V30 1789 C 161.214 0.982475 1.67514 0
M  V30 1790 O 160.489 0.0164069 1.94493 0
M  V30 1791 C 160.772 3.42453 1.11346 0
M  V30 1792 C 160.625 4.498 0.00612081 0
M  V30 1793 C 161.944 3.91506 2.01024 0
M  V30 1794 H 159.063 0.708428 0.203221 0
M  V30 1795 H 161.705 1.8922 -0.171979 0
M  V30 1796 H 159.855 3.47361 1.7399 0
M  V30 1797 H 161.527 4.57 -0.628357 0
M  V30 1798 H 159.77 4.28756 -0.659581 0
M  V30 1799 H 160.441 5.50306 0.432109 0
M  V30 1800 H 162.917 3.88784 1.48278 0
M  V30 1801 H 161.793 4.95358 2.36457 0
M  V30 1802 H 162.054 3.31099 2.92961 0
M  V30 1803 N 161.113 -0.173488 1.56642 0
M  V30 1804 C 162.043 -1.2171 1.99271 0
M  V30 1805 C 163.024 -1.46289 0.867959 0
M  V30 1806 O 164.209 -1.5766 1.13388 0
M  V30 1807 C 161.339 -2.55651 2.35074 0
M  V30 1808 C 160.293 -2.45645 3.50489 0
M  V30 1809 C 159.619 -3.84056 3.72028 0
M  V30 1810 C 160.919 -1.96302 4.84007 0
M  V30 1811 H 162.613 -0.86275 2.867 0
M  V30 1812 H 160.159 -0.413571 1.37933 0
M  V30 1813 H 162.112 -3.2886 2.63494 0
M  V30 1814 H 160.836 -2.92869 1.44552 0
M  V30 1815 H 159.495 -1.7489 3.22194 0
M  V30 1816 H 159.143 -4.18664 2.788 0
M  V30 1817 H 158.843 -3.7823 4.49684 0
M  V30 1818 H 160.367 -4.58854 4.02846 0
M  V30 1819 H 161.781 -2.59284 5.11317 0
M  V30 1820 H 160.178 -2.01429 5.65284 0
M  V30 1821 H 161.248 -0.917226 4.76146 0
M  V30 1822 N 162.591 -1.51276 -0.441967 0
M  V30 1823 C 163.554 -1.7167 -1.51862 0
M  V30 1824 C 164.554 -0.586793 -1.49711 0
M  V30 1825 O 165.744 -0.854276 -1.51815 0
M  V30 1826 C 162.876 -1.76889 -2.91416 0
M  V30 1827 H 164.069 -2.67754 -1.35084 0
M  V30 1828 H 161.622 -1.41196 -0.670333 0
M  V30 1829 H 162.357 -0.826026 -3.13604 0
M  V30 1830 H 162.142 -2.59001 -2.94382 0
M  V30 1831 H 163.632 -1.94522 -3.69528 0
M  V30 1832 N 164.069 0.697108 -1.41344 0
M  V30 1833 C 165.032 1.79281 -1.42797 0
M  V30 1834 C 166.032 1.57607 -0.318837 0
M  V30 1835 O 167.222 1.64309 -0.578642 0
M  V30 1836 C 164.354 3.17632 -1.23785 0
M  V30 1837 H 165.547 1.79385 -2.40335 0
M  V30 1838 H 163.1 0.904582 -1.27464 0
M  V30 1839 H 163.835 3.23167 -0.270814 0
M  V30 1840 H 163.62 3.34765 -2.04144 0
M  V30 1841 H 165.11 3.97617 -1.27633 0
M  V30 1842 N 165.547 1.27147 0.931209 0
M  V30 1843 C 166.772 1.16191 1.71797 0
M  V30 1844 C 167.197 -0.278004 1.86034 0
M  V30 1845 O 166.555 -1.20137 1.35782 0
M  V30 1846 C 166.603 1.84673 3.09723 0
M  V30 1847 O 165.707 1.14231 3.96264 0
M  V30 1848 H 165.048 0.404303 0.526721 0
M  V30 1849 H 167.578 1.68152 1.1656 0
M  V30 1850 H 167.588 1.91893 3.60057 0
M  V30 1851 H 166.263 2.89421 2.98677 0
M  V30 1852 H 164.84 1.15056 3.54706 0
M  V30 1853 N 167.025 -1.13721 1.09112 0
M  V30 1854 C 167.935 -2.22638 0.73957 0
M  V30 1855 C 168.951 -1.72091 -0.257068 0
M  V30 1856 O 170.127 -2.01155 -0.0992154 0
M  V30 1857 C 167.192 -3.46322 0.16191 0
M  V30 1858 C 166.253 -4.11775 1.21408 0
M  V30 1859 C 165.486 -5.29555 0.663891 0
M  V30 1860 O 165.709 -5.68077 -0.514274 0
M  V30 1861 O 164.643 -5.84973 1.41738 0
M  V30 1862 H 168.469 -2.55074 1.64836 0
M  V30 1863 H 166.054 -1.21791 0.865289 0
M  V30 1864 H 167.936 -4.21107 -0.157073 0
M  V30 1865 H 166.611 -3.15593 -0.719932 0
M  V30 1866 H 165.518 -3.3883 1.58571 0
M  V30 1867 H 166.851 -4.46627 2.06845 0
M  V30 1868 N 168.503 -0.877838 -1.30888 0
M  V30 1869 C 169.435 -0.296607 -2.27273 0
M  V30 1870 C 170.448 0.544799 -1.53414 0
M  V30 1871 O 171.637 0.365511 -1.74718 0
M  V30 1872 C 168.737 0.597481 -3.33592 0
M  V30 1873 C 167.91 -0.213251 -4.3688 0
M  V30 1874 C 166.969 0.610208 -5.2265 0
M  V30 1875 O 165.995 0.035441 -5.69189 0
M  V30 1876 N 167.197 1.92071 -5.47804 0
M  V30 1877 H 169.962 -1.12492 -2.77787 0
M  V30 1878 H 167.523 -0.740105 -1.43993 0
M  V30 1879 H 169.515 1.15425 -3.87891 0
M  V30 1880 H 168.085 1.32647 -2.83061 0
M  V30 1881 H 167.305 -0.951466 -3.82545 0
M  V30 1882 H 168.593 -0.769262 -5.02951 0
M  V30 1883 H 167.991 2.4107 -5.11763 0
M  V30 1884 H 166.548 2.42508 -6.05007 0
M  V30 1885 N 169.982 1.44106 -0.638065 0
M  V30 1886 C 171.393 1.85316 -0.226894 0
M  V30 1887 C 171.744 1.53399 1.22324 0
M  V30 1888 O 170.869 0.975463 1.93167 0
M  V30 1889 C 171.464 3.3637 -0.405013 0
M  V30 1890 C 170.023 3.76369 -0.0482902 0
M  V30 1891 C 169.17 2.67921 -0.715108 0
M  V30 1892 H 172.121 1.34474 -0.842764 0
M  V30 1893 H 172.142 3.7885 0.354 0
M  V30 1894 H 171.654 3.59569 -1.46053 0
M  V30 1895 H 169.755 3.58784 1.00522 0
M  V30 1896 H 169.868 4.76856 -0.463187 0
M  V30 1897 H 168.232 2.54259 -0.149753 0
M  V30 1898 H 169.015 2.93951 -1.77335 0
M  V30 1899 N 171.46 0.379036 1.52974 0
M  V30 1900 C 172.737 -0.263479 1.93817 0
M  V30 1901 C 173.117 -1.65244 1.31368 0
M  V30 1902 O 172.465 -2.23448 0.477856 0
M  V30 1903 C 172.675 -0.300166 3.47707 0
M  V30 1904 C 174.023 -0.534061 4.21228 0
M  V30 1905 O 175.047 -0.38081 3.54159 0
M  V30 1906 O 173.906 -0.833501 5.40106 0
M  V30 1907 H 171 -0.161149 0.811147 0
M  V30 1908 H 173.546 0.432798 1.64088 0
M  V30 1909 H 172.318 0.673138 3.85467 0
M  V30 1910 H 171.941 -1.04179 3.83709 0
M  V30 1911 N 172.938 -1.57226 0.108567 0
M  V30 1912 C 173.868 -2.17778 -0.84232 0
M  V30 1913 C 174.849 -1.11487 -1.2847 0
M  V30 1914 O 176.034 -1.39681 -1.34918 0
M  V30 1915 C 173.164 -2.76888 -2.09644 0
M  V30 1916 C 172.118 -3.88669 -1.79221 0
M  V30 1917 C 171.444 -4.34541 -3.11574 0
M  V30 1918 C 172.744 -5.11251 -1.06864 0
M  V30 1919 H 174.438 -2.97489 -0.337774 0
M  V30 1920 H 171.984 -1.43097 -0.161025 0
M  V30 1921 H 173.937 -3.17904 -2.76614 0
M  V30 1922 H 172.661 -1.94451 -2.62405 0
M  V30 1923 H 171.32 -3.48213 -1.14644 0
M  V30 1924 H 170.968 -3.48977 -3.62249 0
M  V30 1925 H 170.668 -5.09914 -2.91996 0
M  V30 1926 H 172.192 -4.782 -3.7968 0
M  V30 1927 H 173.606 -5.49352 -1.63968 0
M  V30 1928 H 172.003 -5.9214 -0.974178 0
M  V30 1929 H 173.073 -4.8487 -0.0536168 0
M  V30 1930 N 174.416 0.165178 -1.56732 0
M  V30 1931 C 175.644 0.896218 -1.86482 0
M  V30 1932 C 176.059 1.75555 -0.694675 0
M  V30 1933 O 175.416 1.79379 0.33607 0
M  V30 1934 C 175.467 1.76792 -3.1532 0
M  V30 1935 O 175.188 0.943239 -4.27825 0
M  V30 1936 C 176.689 2.6081 -3.58459 0
M  V30 1937 H 173.909 0.260064 -0.618553 0
M  V30 1938 H 176.453 0.163428 -2.03846 0
M  V30 1939 H 174.608 2.45398 -2.99764 0
M  V30 1940 H 175.022 1.53998 -5.01383 0
M  V30 1941 H 176.496 3.17579 -4.51495 0
M  V30 1942 H 176.973 3.35977 -2.82872 0
M  V30 1943 H 177.579 1.97526 -3.76648 0
M  V30 1944 N 175.894 1.51508 0.433938 0
M  V30 1945 C 176.826 1.69266 1.54537 0
M  V30 1946 C 177.839 0.573276 1.52373 0
M  V30 1947 O 179.028 0.847698 1.57087 0
M  V30 1948 C 176.128 1.69524 2.93453 0
M  V30 1949 C 175.301 2.98101 3.20085 0
M  V30 1950 C 174.36 2.90502 4.38742 0
M  V30 1951 O 173.386 3.64442 4.3723 0
M  V30 1952 N 174.588 2.06586 5.42496 0
M  V30 1953 H 177.353 2.65145 1.39708 0
M  V30 1954 H 174.914 1.49437 0.622922 0
M  V30 1955 H 176.906 1.62004 3.70859 0
M  V30 1956 H 175.476 0.812245 3.01863 0
M  V30 1957 H 174.696 3.19464 2.30947 0
M  V30 1958 H 175.984 3.83207 3.34708 0
M  V30 1959 H 175.382 1.45896 5.46563 0
M  V30 1960 H 173.939 2.04943 6.18742 0
M  V30 1961 N 177.372 -0.689602 1.41712 0
M  V30 1962 C 178.304 -1.815 1.39966 0
M  V30 1963 C 179.317 -1.59995 0.300917 0
M  V30 1964 O 180.506 -1.69387 0.563039 0
M  V30 1965 C 177.606 -3.18364 1.16179 0
M  V30 1966 C 176.779 -3.66847 2.38206 0
M  V30 1967 C 175.838 -4.82398 2.10186 0
M  V30 1968 O 174.864 -4.93706 2.83272 0
M  V30 1969 N 176.066 -5.70064 1.0958 0
M  V30 1970 H 178.831 -1.83488 2.36965 0
M  V30 1971 H 176.392 -0.872149 1.36401 0
M  V30 1972 H 178.384 -3.93301 0.953756 0
M  V30 1973 H 176.954 -3.11365 0.27756 0
M  V30 1974 H 176.174 -2.82751 2.74673 0
M  V30 1975 H 177.462 -3.95978 3.19498 0
M  V30 1976 H 176.86 -5.63565 0.491019 0
M  V30 1977 H 175.417 -6.44874 0.947656 0
M  V30 1978 N 178.85 -1.27639 -0.924453 0
M  V30 1979 C 180.099 -1.13549 -1.66702 0
M  V30 1980 C 180.412 0.317487 -1.93006 0
M  V30 1981 O 181.618 0.579333 -2.65247 0
M  V30 1982 C 180.074 -1.98426 -3.00259 0
M  V30 1983 C 179.682 -3.484 -2.81641 0
M  V30 1984 C 181.426 -1.92993 -3.78092 0
M  V30 1985 C 179.333 -4.25464 -4.10773 0
M  V30 1986 H 178.263 -0.421351 -0.625283 0
M  V30 1987 H 180.914 -1.52085 -1.02676 0
M  V30 1988 H 179.296 -1.52736 -3.6536 0
M  V30 1989 H 180.47 -4.01973 -2.25287 0
M  V30 1990 H 178.785 -3.55245 -2.17232 0
M  V30 1991 H 181.382 -2.47844 -4.7379 0
M  V30 1992 H 181.725 -0.904281 -4.0636 0
M  V30 1993 H 182.258 -2.36595 -3.19793 0
M  V30 1994 H 178.997 -5.28566 -3.87683 0
M  V30 1995 H 178.517 -3.76667 -4.66779 0
M  V30 1996 H 180.196 -4.34812 -4.79111 0
M  V30 1997 N 180.328 1.1314 -1.09713 0
M  V30 1998 C 181.574 1.84967 -0.846104 0
M  V30 1999 C 181.929 1.82082 0.621601 0
M  V30 2000 O 181.222 1.2501 1.452 0
M  V30 2001 C 181.416 3.32167 -1.3191 0
M  V30 2002 C 181.245 3.49386 -2.83125 0
M  V30 2003 C 180.015 3.63456 -3.51038 0
M  V30 2004 C 182.213 3.45179 -3.81256 0
M  V30 2005 N 180.195 3.68966 -4.9065 0
M  V30 2006 C 181.566 3.57094 -5.06837 0
M  V30 2007 C 183.621 3.28598 -3.74069 0
M  V30 2008 C 182.324 3.5414 -6.26081 0
M  V30 2009 C 184.35 3.26953 -4.92804 0
M  V30 2010 C 183.712 3.39422 -6.17229 0
M  V30 2011 H 179.811 0.692899 -0.362512 0
M  V30 2012 H 182.395 1.35506 -1.39808 0
M  V30 2013 H 180.566 3.80186 -0.794535 0
M  V30 2014 H 182.298 3.91815 -1.01308 0
M  V30 2015 H 179.053 3.65256 -3.01471 0
M  V30 2016 H 179.477 3.75404 -5.63383 0
M  V30 2017 H 184.119 3.17858 -2.78794 0
M  V30 2018 H 181.837 3.63653 -7.21653 0
M  V30 2019 H 185.423 3.15316 -4.88945 0
M  V30 2020 H 184.303 3.38114 -7.07565 0
M  V30 2021 N 181.806 0.884767 1.30421 0
M  V30 2022 C 182.739 0.295999 2.26272 0
M  V30 2023 C 183.717 -0.58332 1.51777 0
M  V30 2024 O 184.901 -0.53346 1.80794 0
M  V30 2025 C 182.028 -0.57944 3.33707 0
M  V30 2026 C 181.074 0.230525 4.25877 0
M  V30 2027 S 181.907 1.61867 5.1045 0
M  V30 2028 C 183.063 0.749756 6.21393 0
M  V30 2029 H 183.296 1.10848 2.75862 0
M  V30 2030 H 180.829 0.684178 1.38414 0
M  V30 2031 H 182.787 -1.07879 3.96071 0
M  V30 2032 H 181.448 -1.36601 2.82841 0
M  V30 2033 H 180.641 -0.437542 5.02097 0
M  V30 2034 H 180.243 0.662493 3.68086 0
M  V30 2035 H 182.535 -0.0333547 6.77492 0
M  V30 2036 H 183.478 1.48356 6.92384 0
M  V30 2037 H 183.886 0.310751 5.63644 0
M  V30 2038 N 183.284 -1.43765 0.645699 0
M  V30 2039 C 184.695 -1.85193 0.236719 0
M  V30 2040 C 185.046 -1.54045 -1.21509 0
M  V30 2041 O 184.171 -0.985694 -1.92647 0
M  V30 2042 C 184.766 -3.36151 0.422845 0
M  V30 2043 C 183.325 -3.76338 0.0682492 0
M  V30 2044 C 182.472 -2.67538 0.729306 0
M  V30 2045 H 185.423 -1.34025 0.849883 0
M  V30 2046 H 185.444 -3.79032 -0.333904 0
M  V30 2047 H 184.956 -3.5879 1.47958 0
M  V30 2048 H 183.057 -3.59312 -0.986179 0
M  V30 2049 H 183.17 -4.76603 0.488469 0
M  V30 2050 H 181.534 -2.54176 0.163235 0
M  V30 2051 H 182.317 -2.93006 1.78892 0
M  V30 2052 N 184.763 -0.387143 -1.52771 0
M  V30 2053 C 186.04 0.253197 -1.93954 0
M  V30 2054 C 186.42 1.64545 -1.32243 0
M  V30 2055 O 185.768 2.23191 -0.489699 0
M  V30 2056 C 185.978 0.281722 -3.47861 0
M  V30 2057 C 187.326 0.511715 -4.21505 0
M  V30 2058 O 188.35 0.362023 -3.54356 0
M  V30 2059 O 187.209 0.804847 -5.40541 0
M  V30 2060 H 184.303 0.156845 -0.811991 0
M  V30 2061 H 186.849 -0.441494 -1.63856 0
M  V30 2062 H 185.621 -0.693571 -3.85104 0
M  V30 2063 H 185.244 1.02142 -3.84256 0
M  V30 2064 N 186.241 1.57166 -0.116904 0
M  V30 2065 C 187.469 1.99473 0.549383 0
M  V30 2066 C 187.884 0.996541 1.60357 0
M  V30 2067 O 187.241 -0.0108731 1.82497 0
M  V30 2068 C 187.292 3.41788 1.17741 0
M  V30 2069 O 187.013 4.37788 0.165362 0
M  V30 2070 C 188.514 3.99216 1.92722 0
M  V30 2071 H 185.734 0.655009 0.145616 0
M  V30 2072 H 188.278 2.03494 -0.202625 0
M  V30 2073 H 186.433 3.38713 1.88021 0
M  V30 2074 H 186.847 5.20806 0.621403 0
M  V30 2075 H 188.321 5.00882 2.31995 0
M  V30 2076 H 188.798 3.3824 2.80161 0
M  V30 2077 H 189.404 4.0583 1.27209 0
M  V30 2078 N 187.719 -0.156864 1.56817 0
M  V30 2079 C 188.966 -0.871125 1.82805 0
M  V30 2080 C 189.294 -1.81611 0.696262 0
M  V30 2081 O 188.549 -1.93141 -0.315459 0
M  V30 2082 C 188.848 -1.68737 3.1506 0
M  V30 2083 C 188.514 -0.890045 4.42028 0
M  V30 2084 C 187.176 -0.670042 4.76512 0
M  V30 2085 C 189.528 -0.331769 5.20143 0
M  V30 2086 C 186.856 0.119104 5.86579 0
M  V30 2087 C 189.208 0.444365 6.31037 0
M  V30 2088 C 187.872 0.675035 6.64078 0
M  V30 2089 H 187.142 -0.318767 0.668931 0
M  V30 2090 H 189.789 -0.135274 1.91022 0
M  V30 2091 H 188.094 -2.49304 3.0225 0
M  V30 2092 H 189.791 -2.24331 3.3238 0
M  V30 2093 H 186.381 -1.07157 4.14988 0
M  V30 2094 H 190.565 -0.489043 4.93885 0
M  V30 2095 H 185.821 0.307417 6.10627 0
M  V30 2096 H 189.995 0.884139 6.90765 0
M  V30 2097 H 187.622 1.28839 7.49203 0
M  V30 2098 N 189.197 -1.51736 -0.425897 0
M  V30 2099 C 190.444 -1.6497 -1.17436 0
M  V30 2100 C 190.772 -0.371445 -1.9092 0
M  V30 2101 O 190.027 0.644963 -1.84767 0
M  V30 2102 C 190.326 -2.81103 -2.20717 0
M  V30 2103 C 189.992 -4.19954 -1.64162 0
M  V30 2104 C 188.654 -4.57725 -1.48462 0
M  V30 2105 C 191.006 -5.06552 -1.22696 0
M  V30 2106 C 188.334 -5.79789 -0.897873 0
M  V30 2107 C 190.686 -6.29205 -0.654464 0
M  V30 2108 C 189.35 -6.6574 -0.484456 0
M  V30 2109 H 188.62 -0.603668 -0.429727 0
M  V30 2110 H 191.267 -1.85798 -0.463829 0
M  V30 2111 H 189.572 -2.54542 -2.97852 0
M  V30 2112 H 191.269 -2.8854 -2.78471 0
M  V30 2113 H 187.859 -3.90181 -1.77361 0
M  V30 2114 H 192.043 -4.77968 -1.33642 0
M  V30 2115 H 187.299 -6.06733 -0.75402 0
M  V30 2116 H 191.473 -6.95643 -0.324694 0
M  V30 2117 H 189.1 -7.60195 -0.0276833 0
M  V30 2118 N 190.675 0.682077 -1.42076 0
M  V30 2119 C 191.607 1.80755 -1.40926 0
M  V30 2120 C 192.62 1.59833 -0.309398 0
M  V30 2121 O 193.809 1.69087 -0.572014 0
M  V30 2122 C 190.909 3.17744 -1.17865 0
M  V30 2123 C 190.082 3.65578 -2.40149 0
M  V30 2124 C 189.141 4.81277 -2.12742 0
M  V30 2125 O 188.167 4.92197 -2.85887 0
M  V30 2126 N 189.369 5.69474 -1.12602 0
M  V30 2127 H 192.134 1.82229 -2.37935 0
M  V30 2128 H 189.695 0.864903 -1.36861 0
M  V30 2129 H 191.687 3.9279 -0.9746 0
M  V30 2130 H 190.257 3.11214 -0.294068 0
M  V30 2131 H 189.477 2.81291 -2.76169 0
M  V30 2132 H 190.765 3.94278 -3.21593 0
M  V30 2133 H 190.163 5.63297 -0.520899 0
M  V30 2134 H 188.72 6.44363 -0.981842 0
M  V30 2135 N 192.153 1.28127 0.917671 0
M  V30 2136 C 193.101 1.11569 2.04096 0
M  V30 2137 C 194.095 0.0360242 1.69362 0
M  V30 2138 O 195.301 0.194501 1.78946 0
M  V30 2139 H 191.676 0.344097 0.668656 0
M  V30 2140 H 193.647 2.06711 2.15205 0
M  V30 2141 C 192.396 0.790197 3.38602 0
M  V30 2142 H 191.719 1.61293 3.6582 0
M  V30 2143 H 193.159 0.714271 4.1794 0
M  V30 2144 C 191.618 -0.505897 3.3308 0
M  V30 2145 O 192.148 -1.53736 3.71117 0
M  V30 2146 N 190.354 -0.505193 2.86175 0
M  V30 2147 H 189.901 0.334621 2.55417 0
M  V30 2148 H 189.859 -1.37243 2.82863 0
M  V30 2149 N 193.631 -1.12557 1.10312 0
M  V30 2150 C 194.541 -2.21841 0.763142 0
M  V30 2151 C 195.557 -1.72354 -0.238801 0
M  V30 2152 O 196.733 -2.01249 -0.0778746 0
M  V30 2153 C 193.798 -3.46131 0.198632 0
M  V30 2154 C 192.859 -4.10464 1.25769 0
M  V30 2155 C 192.092 -5.28821 0.72002 0
M  V30 2156 O 192.315 -5.6859 -0.453993 0
M  V30 2157 O 191.249 -5.83437 1.47935 0
M  V30 2158 H 195.075 -2.53312 1.67532 0
M  V30 2159 H 192.66 -1.20867 0.878157 0
M  V30 2160 H 194.542 -4.2125 -0.112401 0
M  V30 2161 H 193.217 -3.16338 -0.686419 0
M  V30 2162 H 192.124 -3.3713 1.62156 0
M  V30 2163 H 193.457 -4.44408 2.11571 0
M  V30 2164 N 195.109 -0.891671 -1.2995 0
M  V30 2165 C 196.056 -0.361736 -2.27948 0
M  V30 2166 C 197.026 0.551761 -1.56668 0
M  V30 2167 O 198.211 0.478736 -1.84696 0
M  V30 2168 C 195.351 0.411825 -3.42634 0
M  V30 2169 C 194.464 -0.531651 -4.28716 0
M  V30 2170 C 193.599 0.258167 -5.30572 0
M  V30 2171 C 192.638 -0.680349 -6.08307 0
M  V30 2172 N 191.775 0.0745613 -7.0206 0
M  V30 2173 H 196.615 -1.20254 -2.72659 0
M  V30 2174 H 194.152 -0.604352 -1.34112 0
M  V30 2175 H 196.11 0.876304 -4.07893 0
M  V30 2176 H 194.74 1.21715 -2.98974 0
M  V30 2177 H 193.792 -1.11463 -3.63703 0
M  V30 2178 H 195.104 -1.25038 -4.82874 0
M  V30 2179 H 194.258 0.784204 -6.0161 0
M  V30 2180 H 192.997 1.01008 -4.77126 0
M  V30 2181 H 192.002 -1.21796 -5.3614 0
M  V30 2182 H 193.227 -1.43145 -6.63842 0
M  V30 2183 H 191.173 0.808883 -6.50994 0
M  V30 2184 H 191.09 -0.584409 -7.53738 0
M  V30 2185 H 192.358 0.581123 -7.77331 0
M  V30 2186 N 196.587 1.43421 -0.653314 0
M  V30 2187 C 197.497 2.34568 0.0388565 0
M  V30 2188 C 198.513 1.53888 0.81207 0
M  V30 2189 O 199.689 1.86539 0.759294 0
M  V30 2190 C 196.754 3.32167 0.993269 0
M  V30 2191 C 195.815 4.28751 0.216977 0
M  V30 2192 C 195.048 5.21688 1.12593 0
M  V30 2193 O 195.271 5.19052 2.36519 0
M  V30 2194 O 194.205 5.98919 0.598284 0
M  V30 2195 H 198.031 2.95251 -0.711386 0
M  V30 2196 H 195.616 1.43564 -0.413502 0
M  V30 2197 H 197.498 3.92183 1.54176 0
M  V30 2198 H 196.173 2.73987 1.72374 0
M  V30 2199 H 195.08 3.72215 -0.375101 0
M  V30 2200 H 196.413 4.89913 -0.473924 0
M  V30 2201 N 198.065 0.39524 1.52563 0
M  V30 2202 C 199.028 -0.425001 2.25225 0
M  V30 2203 C 200.028 -0.985266 1.27079 0
M  V30 2204 O 201.218 -0.866332 1.5113 0
M  V30 2205 C 198.35 -1.59686 3.01186 0
M  V30 2206 H 199.543 0.211233 2.99155 0
M  V30 2207 H 197.096 0.147472 1.55603 0
M  V30 2208 H 197.831 -2.27035 2.31572 0
M  V30 2209 H 197.616 -1.20176 3.73229 0
M  V30 2210 H 199.106 -2.17743 3.5634 0
M  V30 2211 N 199.544 -1.57102 0.125237 0
M  V30 2212 C 200.96 -1.57915 -0.231322 0
M  V30 2213 C 201.16 -1.13833 -1.66266 0
M  V30 2214 O 200.216 -0.828581 -2.38518 0
M  V30 2215 C 201.529 -3.00699 0.00766489 0
M  V30 2216 C 203.077 -3.12947 -0.0577483 0
M  V30 2217 C 203.552 -4.57742 0.153626 0
M  V30 2218 N 205.043 -4.63092 0.0998073 0
M  V30 2219 C 205.778 -5.72905 0.238174 0
M  V30 2220 N 205.274 -6.91445 0.433057 0
M  V30 2221 N 207.067 -5.6182 0.177308 0
M  V30 2222 H 199.218 -1.84055 1.06007 0
M  V30 2223 H 201.481 -0.850905 0.417929 0
M  V30 2224 H 201.187 -3.3726 0.997431 0
M  V30 2225 H 201.061 -3.70236 -0.721452 0
M  V30 2226 H 203.448 -2.7624 -1.03804 0
M  V30 2227 H 203.529 -2.4594 0.70335 0
M  V30 2228 H 203.173 -4.95149 1.13092 0
M  V30 2229 H 203.103 -5.22848 -0.627534 0
M  V30 2230 H 205.594 -3.77871 -0.047051 0
M  V30 2231 H 205.907 -7.70985 0.529332 0
M  V30 2232 H 204.252 -6.93415 0.469109 0
M  V30 2233 H 207.443 -4.68093 0.0259748 0
M  V30 2234 H 207.616 -6.47357 0.288582 0
M  V30 2235 N 201.022 0.148545 -1.56898 0
M  V30 2236 C 202.438 0.501131 -1.51528 0
M  V30 2237 C 202.638 1.83458 -0.833399 0
M  V30 2238 O 201.694 2.49259 -0.40328 0
M  V30 2239 C 203.007 0.512864 -2.96294 0
M  V30 2240 C 204.555 0.598487 -3.07225 0
M  V30 2241 C 205.03 0.640897 -4.53494 0
M  V30 2242 N 206.521 0.703163 -4.57832 0
M  V30 2243 C 207.256 0.756935 -5.68382 0
M  V30 2244 N 206.752 0.770147 -6.88506 0
M  V30 2245 N 208.545 0.797698 -5.56411 0
M  V30 2246 H 200.696 -0.725532 -1.99624 0
M  V30 2247 H 202.959 -0.264358 -0.910395 0
M  V30 2248 H 202.665 -0.398691 -3.49433 0
M  V30 2249 H 202.539 1.35133 -3.52163 0
M  V30 2250 H 204.926 1.50046 -2.54106 0
M  V30 2251 H 205.007 -0.267093 -2.54402 0
M  V30 2252 H 204.651 -0.256915 -5.0725 0
M  V30 2253 H 204.581 1.52295 -5.04097 0
M  V30 2254 H 207.072 0.700314 -3.71354 0
M  V30 2255 H 207.385 0.812983 -7.68512 0
M  V30 2256 H 205.73 0.738049 -6.9107 0
M  V30 2257 H 208.921 0.784535 -4.61479 0
M  V30 2258 H 209.094 0.83614 -6.42583 0
M  V30 2259 N 202.5 1.5196 0.417844 0
M  V30 2260 C 203.45 1.7106 1.5074 0
M  V30 2261 C 204.434 0.564487 1.50673 0
M  V30 2262 O 205.626 0.821206 1.56797 0
M  V30 2263 C 202.755 1.85677 2.88754 0
M  V30 2264 C 201.841 3.06133 2.93502 0
M  V30 2265 N 202.232 4.28987 2.67962 0
M  V30 2266 C 200.53 3.05787 3.24669 0
M  V30 2267 C 201.231 5.10395 2.79055 0
M  V30 2268 N 200.207 4.45455 3.11561 0
M  V30 2269 H 204.009 2.63696 1.29775 0
M  V30 2270 H 201.523 1.49873 0.625436 0
M  V30 2271 H 203.52 1.97475 3.67164 0
M  V30 2272 H 202.18 0.942348 3.10725 0
M  V30 2273 H 203.191 4.57607 2.4252 0
M  V30 2274 H 199.868 2.2405 3.52289 0
M  V30 2275 H 201.258 6.18247 2.63097 0
M  V30 2276 N 203.978 -0.674533 1.42435 0
M  V30 2277 C 204.908 -1.80009 1.48724 0
M  V30 2278 C 205.889 -1.6659 0.343793 0
M  V30 2279 O 207.074 -1.86007 0.558137 0
M  V30 2280 C 204.204 -3.18306 1.38919 0
M  V30 2281 C 203.158 -3.46461 2.51294 0
M  V30 2282 C 202.484 -4.84335 2.26547 0
M  V30 2283 C 203.784 -3.43328 3.93603 0
M  V30 2284 H 205.478 -1.75004 2.42928 0
M  V30 2285 H 203.024 -0.840533 1.16923 0
M  V30 2286 H 204.977 -3.9678 1.41927 0
M  V30 2287 H 203.701 -3.2399 0.412094 0
M  V30 2288 H 202.36 -2.70348 2.47604 0
M  V30 2289 H 202.008 -4.86669 1.2713 0
M  V30 2290 H 201.708 -5.04136 3.01861 0
M  V30 2291 H 203.232 -5.65094 2.31304 0
M  V30 2292 H 204.646 -4.11772 3.98894 0
M  V30 2293 H 203.043 -3.74664 4.68771 0
M  V30 2294 H 204.113 -2.41897 4.20255 0
M  V30 2295 N 205.456 -1.28612 -0.910864 0
M  V30 2296 C 206.705 -1.15311 -1.65488 0
M  V30 2297 C 207.018 0.296999 -1.93332 0
M  V30 2298 O 208.224 0.551168 -2.65847 0
M  V30 2299 C 206.68 -2.01599 -2.98137 0
M  V30 2300 C 206.288 -3.51367 -2.7793 0
M  V30 2301 C 208.032 -1.96993 -3.76024 0
M  V30 2302 C 205.939 -4.29797 -4.06237 0
M  V30 2303 H 204.869 -0.42796 -0.620779 0
M  V30 2304 H 207.52 -1.53166 -1.01057 0
M  V30 2305 H 205.902 -1.56603 -3.63719 0
M  V30 2306 H 207.076 -4.0434 -2.21011 0
M  V30 2307 H 205.391 -3.57529 -2.13452 0
M  V30 2308 H 207.988 -2.52856 -4.71135 0
M  V30 2309 H 208.331 -0.94733 -4.05378 0
M  V30 2310 H 208.864 -2.39973 -3.17266 0
M  V30 2311 H 205.603 -5.32648 -3.82055 0
M  V30 2312 H 205.123 -3.81596 -4.62757 0
M  V30 2313 H 206.802 -4.39869 -4.74473 0
M  V30 2314 N 206.934 1.1197 -1.10907 0
M  V30 2315 C 208.211 1.79959 -0.766432 0
M  V30 2316 C 208.591 1.97466 0.746363 0
M  V30 2317 O 207.939 1.55491 1.67436 0
M  V30 2318 C 208.149 3.14009 -1.52314 0
M  V30 2319 C 209.497 3.89134 -1.69883 0
M  V30 2320 O 210.521 3.2368 -1.48692 0
M  V30 2321 O 209.38 5.06572 -2.05054 0
M  V30 2322 H 206.474 0.779208 -0.277062 0
M  V30 2323 H 209.02 1.18762 -1.21217 0
M  V30 2324 H 207.792 2.96587 -2.55249 0
M  V30 2325 H 207.415 3.82915 -1.07059 0
M  V30 2326 N 208.412 0.89855 1.29475 0
M  V30 2327 C 209.359 0.373819 2.27753 0
M  V30 2328 C 210.329 -0.543444 1.56958 0
M  V30 2329 O 211.514 -0.468934 1.84948 0
M  V30 2330 C 208.654 -0.393648 3.42848 0
M  V30 2331 C 207.767 0.554379 4.28428 0
M  V30 2332 C 206.902 -0.230026 5.30702 0
M  V30 2333 C 205.941 0.712599 6.07938 0
M  V30 2334 N 205.078 -0.0373283 7.0209 0
M  V30 2335 H 209.918 1.21699 2.72017 0
M  V30 2336 H 207.455 0.611456 1.33789 0
M  V30 2337 H 209.413 -0.85466 4.08352 0
M  V30 2338 H 208.043 -1.20128 2.99615 0
M  V30 2339 H 207.095 1.13391 3.63107 0
M  V30 2340 H 208.407 1.27597 4.82204 0
M  V30 2341 H 207.561 -0.752288 6.02018 0
M  V30 2342 H 206.3 -0.984758 4.77654 0
M  V30 2343 H 205.305 1.24637 5.35486 0
M  V30 2344 H 206.53 1.46664 6.63074 0
M  V30 2345 H 204.476 -0.774348 6.51414 0
M  V30 2346 H 204.393 0.624374 7.53417 0
M  V30 2347 H 205.661 -0.539891 7.77628 0
M  V30 2348 N 209.89 -1.43072 0.660911 0
M  V30 2349 C 211.301 -1.84932 0.256348 0
M  V30 2350 C 211.652 -1.55325 -1.19868 0
M  V30 2351 O 210.777 -1.00607 -1.91591 0
M  V30 2352 C 211.372 -3.35684 0.458475 0
M  V30 2353 C 209.931 -3.76245 0.108161 0
M  V30 2354 C 209.078 -2.66749 0.757641 0
M  V30 2355 H 212.029 -1.33116 0.864051 0
M  V30 2356 H 212.05 -3.79365 -0.293683 0
M  V30 2357 H 211.562 -3.572 1.51755 0
M  V30 2358 H 209.663 -3.60338 -0.948014 0
M  V30 2359 H 209.776 -4.76058 0.538992 0
M  V30 2360 H 208.14 -2.53989 0.190185 0
M  V30 2361 H 208.923 -2.91092 1.81989 0
M  V30 2362 N 211.368 -0.403325 -1.52352 0
M  V30 2363 C 212.316 0.439752 -2.28405 0
M  V30 2364 C 213.31 1.05089 -1.32863 0
M  V30 2365 O 214.516 0.989759 -1.50345 0
M  V30 2366 H 210.891 0.160587 -0.734653 0
M  V30 2367 H 212.862 -0.222983 -2.97566 0
M  V30 2368 C 211.611 1.54736 -3.11371 0
M  V30 2369 H 210.934 1.08643 -3.84755 0
M  V30 2370 H 212.374 2.1112 -3.67701 0
M  V30 2371 C 210.833 2.51141 -2.24566 0
M  V30 2372 O 211.363 3.54887 -1.88196 0
M  V30 2373 N 209.569 2.21213 -1.8845 0
M  V30 2374 H 209.116 1.36878 -2.18225 0
M  V30 2375 H 209.074 2.85963 -1.30662 0
M  V30 2376 N 212.846 1.57033 -0.133567 0
M  V30 2377 C 214.092 1.95976 0.521649 0
M  V30 2378 C 214.425 1.01779 1.65393 0
M  V30 2379 O 213.7 0.0576581 1.94415 0
M  V30 2380 C 213.983 3.44738 1.04057 0
M  V30 2381 C 213.836 4.49711 -0.0892897 0
M  V30 2382 C 215.155 3.95682 1.92675 0
M  V30 2383 H 212.274 0.712579 0.188149 0
M  V30 2384 H 214.916 1.88813 -0.212076 0
M  V30 2385 H 213.066 3.50973 1.66583 0
M  V30 2386 H 214.738 4.55565 -0.725152 0
M  V30 2387 H 212.981 4.27261 -0.750378 0
M  V30 2388 H 213.652 5.51099 0.315284 0
M  V30 2389 H 216.128 3.91841 1.39998 0
M  V30 2390 H 215.004 5.00262 2.25897 0
M  V30 2391 H 215.265 3.37239 2.85872 0
M  V30 2392 N 214.325 -0.140222 1.56975 0
M  V30 2393 C 215.255 -1.17456 2.01808 0
M  V30 2394 C 216.236 -1.44415 0.898794 0
M  V30 2395 O 217.421 -1.5522 1.16707 0
M  V30 2396 C 214.551 -2.50607 2.40444 0
M  V30 2397 C 213.505 -2.38155 3.55621 0
M  V30 2398 C 212.831 -3.76078 3.80091 0
M  V30 2399 C 214.131 -1.85991 4.88062 0
M  V30 2400 H 215.825 -0.801743 2.88466 0
M  V30 2401 H 213.371 -0.38422 1.38779 0
M  V30 2402 H 215.324 -3.23197 2.7041 0
M  V30 2403 H 214.048 -2.89737 1.50732 0
M  V30 2404 H 212.707 -1.68016 3.25832 0
M  V30 2405 H 212.355 -4.12656 2.87618 0
M  V30 2406 H 212.055 -3.68606 4.57606 0
M  V30 2407 H 213.579 -4.50206 4.12488 0
M  V30 2408 H 214.993 -2.4838 5.16701 0
M  V30 2409 H 213.39 -1.89393 5.6943 0
M  V30 2410 H 214.46 -0.816023 4.77984 0
M  V30 2411 N 215.803 -1.52179 -0.40978 0
M  V30 2412 C 217.052 -1.65434 -1.15388 0
M  V30 2413 C 217.365 -0.390056 -1.91671 0
M  V30 2414 O 218.571 -0.402399 -2.68501 0
M  V30 2415 C 217.027 -2.92279 -2.10003 0
M  V30 2416 C 216.635 -4.25813 -1.39239 0
M  V30 2417 C 218.379 -3.14897 -2.84675 0
M  V30 2418 C 216.286 -5.43782 -2.32498 0
M  V30 2419 H 215.216 -0.616267 -0.434432 0
M  V30 2420 H 217.867 -1.78666 -0.418401 0
M  V30 2421 H 216.249 -2.72744 -2.871 0
M  V30 2422 H 217.423 -4.55828 -0.675099 0
M  V30 2423 H 215.738 -4.09292 -0.766097 0
M  V30 2424 H 218.335 -4.0021 -3.54593 0
M  V30 2425 H 218.678 -2.29103 -3.47588 0
M  V30 2426 H 219.211 -3.34901 -2.14677 0
M  V30 2427 H 215.95 -6.3192 -1.74233 0
M  V30 2428 H 215.47 -5.18106 -3.02201 0
M  V30 2429 H 217.149 -5.76834 -2.93038 0
M  V30 2430 N 217.281 0.66697 -1.42791 0
M  V30 2431 C 218.697 0.981027 -1.25889 0
M  V30 2432 C 218.897 2.00793 -0.168695 0
M  V30 2433 O 217.953 2.48321 0.45747 0
M  V30 2434 C 219.266 1.47838 -2.61848 0
M  V30 2435 C 220.814 1.59575 -2.69267 0
M  V30 2436 C 221.289 2.12704 -4.05612 0
M  V30 2437 N 222.78 2.20026 -4.07606 0
M  V30 2438 C 223.515 2.62227 -5.09926 0
M  V30 2439 N 223.011 3.03824 -6.22626 0
M  V30 2440 N 224.804 2.62045 -4.97281 0
M  V30 2441 H 216.955 -0.0127891 -2.12396 0
M  V30 2442 H 219.218 0.0568258 -0.946295 0
M  V30 2443 H 218.924 0.798299 -3.4252 0
M  V30 2444 H 218.798 2.45579 -2.86305 0
M  V30 2445 H 221.185 2.26687 -1.88936 0
M  V30 2446 H 221.266 0.60302 -2.48591 0
M  V30 2447 H 220.91 1.46198 -4.86404 0
M  V30 2448 H 220.84 3.12782 -4.23645 0
M  V30 2449 H 223.331 1.90708 -3.2625 0
M  V30 2450 H 223.644 3.34734 -6.96544 0
M  V30 2451 H 221.989 3.01662 -6.26119 0
M  V30 2452 H 225.18 2.28916 -4.08308 0
M  V30 2453 H 225.353 2.94613 -5.77154 0
M  V30 2454 N 218.759 1.29093 0.90403 0
M  V30 2455 C 220.008 1.16187 1.64874 0
M  V30 2456 C 220.321 -0.286742 1.93487 0
M  V30 2457 O 221.527 -0.537062 2.66135 0
M  V30 2458 C 219.983 2.03177 2.97064 0
M  V30 2459 C 219.591 3.52836 2.76062 0
M  V30 2460 C 221.335 1.98984 3.74974 0
M  V30 2461 C 219.242 4.31945 4.03952 0
M  V30 2462 H 218.172 0.431246 0.618501 0
M  V30 2463 H 220.823 1.53699 1.00243 0
M  V30 2464 H 219.205 1.5853 3.62883 0
M  V30 2465 H 220.379 4.05507 2.18863 0
M  V30 2466 H 218.694 3.58656 2.11553 0
M  V30 2467 H 221.291 2.55351 4.69787 0
M  V30 2468 H 221.634 0.968815 4.0487 0
M  V30 2469 H 222.167 2.41652 3.15989 0
M  V30 2470 H 218.906 5.34667 3.79225 0
M  V30 2471 H 218.426 3.84045 4.60727 0
M  V30 2472 H 220.105 4.42379 4.72133 0
M  V30 2473 N 220.237 -1.11381 1.11499 0
M  V30 2474 C 221.187 -2.15555 0.74298 0
M  V30 2475 C 222.171 -1.58894 -0.253276 0
M  V30 2476 O 223.363 -1.76897 -0.0602918 0
M  V30 2477 C 220.492 -3.42782 0.188481 0
M  V30 2478 C 219.578 -4.064 1.21244 0
M  V30 2479 N 219.969 -4.44864 2.40685 0
M  V30 2480 C 218.267 -4.3333 1.05552 0
M  V30 2481 C 218.968 -4.94715 3.05994 0
M  V30 2482 N 217.944 -4.90909 2.33472 0
M  V30 2483 H 221.746 -2.43074 1.65203 0
M  V30 2484 H 219.26 -1.28401 0.994329 0
M  V30 2485 H 221.257 -4.16789 -0.0961693 0
M  V30 2486 H 219.917 -3.16727 -0.715149 0
M  V30 2487 H 220.928 -4.36876 2.78136 0
M  V30 2488 H 217.605 -4.1698 0.208372 0
M  V30 2489 H 218.995 -5.34103 4.07656 0
M  V30 2490 N 221.715 -0.905404 -1.28997 0
M  V30 2491 C 223.126 -0.581953 -1.77398 0
M  V30 2492 C 223.477 0.902552 -1.74208 0
M  V30 2493 O 222.602 1.70584 -1.33154 0
M  V30 2494 C 223.197 -1.04961 -3.22131 0
M  V30 2495 C 221.756 -0.777229 -3.68288 0
M  V30 2496 C 220.903 -1.22109 -2.48967 0
M  V30 2497 H 223.854 -1.08754 -1.15578 0
M  V30 2498 H 223.875 -0.387387 -3.78523 0
M  V30 2499 H 223.387 -2.13008 -3.24421 0
M  V30 2500 H 221.488 0.290383 -3.71467 0
M  V30 2501 H 221.601 -1.37911 -4.58822 0
M  V30 2502 H 219.965 -0.639971 -2.46529 0
M  V30 2503 H 220.748 -2.30972 -2.53982 0
M  V30 2504 N 223.193 1.4272 -0.668489 0
M  V30 2505 C 224.47 1.95248 -0.117373 0
M  V30 2506 C 224.85 1.60919 1.36632 0
M  V30 2507 O 224.198 0.902095 2.09939 0
M  V30 2508 C 224.408 3.46927 -0.379806 0
M  V30 2509 C 225.756 4.23588 -0.292923 0
M  V30 2510 O 226.78 3.5482 -0.313204 0
M  V30 2511 O 225.639 5.46017 -0.229697 0
M  V30 2512 H 222.733 0.827 0.00079152 0
M  V30 2513 H 225.279 1.52581 -0.742783 0
M  V30 2514 H 224.051 3.65096 -1.40786 0
M  V30 2515 H 223.674 3.96627 0.277923 0
M  V30 2516 N 224.671 0.411399 1.52136 0
M  V30 2517 C 225.919 -0.163322 2.01439 0
M  V30 2518 C 226.24 -1.45453 1.29879 0
M  V30 2519 O 225.51 -1.91225 0.4254 0
M  V30 2520 H 224.09 -0.0633447 0.744309 0
M  V30 2521 H 226.752 0.548161 1.87033 0
M  V30 2522 H 225.848 -0.357817 3.10042 0
M  V30 2523 N 226.149 -1.5696 0.141893 0
M  V30 2524 C 227.081 -2.13619 -0.830627 0
M  V30 2525 C 228.094 -1.08439 -1.21428 0
M  V30 2526 O 229.283 -1.35734 -1.15925 0
M  V30 2527 C 226.383 -2.63978 -2.12529 0
M  V30 2528 C 225.556 -3.93504 -1.9098 0
M  V30 2529 C 224.615 -4.29225 -3.04388 0
M  V30 2530 O 223.641 -4.97641 -2.76302 0
M  V30 2531 N 224.843 -3.88393 -4.31429 0
M  V30 2532 H 227.608 -2.97691 -0.34641 0
M  V30 2533 H 225.169 -1.61846 -0.0418375 0
M  V30 2534 H 227.161 -2.84891 -2.87436 0
M  V30 2535 H 225.731 -1.84659 -2.52229 0
M  V30 2536 H 224.951 -3.81269 -1.00139 0
M  V30 2537 H 226.239 -4.78154 -1.73914 0
M  V30 2538 H 225.637 -3.33257 -4.57117 0
M  V30 2539 H 224.194 -4.14368 -5.03133 0
M  V30 2540 N 227.627 0.131896 -1.57047 0
M  V30 2541 C 228.876 0.84044 -1.83356 0
M  V30 2542 C 229.189 1.81646 -0.725535 0
M  V30 2543 O 230.395 2.57025 -0.874659 0
M  V30 2544 C 228.851 1.54528 -3.25037 0
M  V30 2545 C 228.459 0.610902 -4.43815 0
M  V30 2546 C 230.203 2.23972 -3.60606 0
M  V30 2547 C 228.11 1.31823 -5.76521 0
M  V30 2548 H 227.04 0.317599 -0.683847 0
M  V30 2549 H 229.691 0.0931561 -1.83263 0
M  V30 2550 H 228.073 2.33873 -3.19561 0
M  V30 2551 H 229.247 -0.148407 -4.60561 0
M  V30 2552 H 227.562 0.0241016 -4.16393 0
M  V30 2553 H 230.159 2.77558 -4.57018 0
M  V30 2554 H 230.502 3.01173 -2.87403 0
M  V30 2555 H 231.035 1.51529 -3.6781 0
M  V30 2556 H 227.774 0.587771 -6.52859 0
M  V30 2557 H 227.294 2.04987 -5.63685 0
M  V30 2558 H 228.973 1.855 -6.19838 0
M  V30 2559 N 229.106 1.52395 0.401703 0
M  V30 2560 C 230.036 1.79231 1.49661 0
M  V30 2561 C 231.017 0.643654 1.57452 0
M  V30 2562 O 232.202 0.889989 1.72606 0
M  V30 2563 C 229.332 1.94971 2.87409 0
M  V30 2564 C 228.286 3.10604 2.94465 0
M  V30 2565 C 227.612 3.11577 4.34538 0
M  V30 2566 C 228.912 4.49921 2.6527 0
M  V30 2567 H 230.606 2.70917 1.27454 0
M  V30 2568 H 228.152 1.30362 0.6117 0
M  V30 2569 H 230.105 2.12328 3.63999 0
M  V30 2570 H 228.829 0.999632 3.10926 0
M  V30 2571 H 227.488 2.93009 2.20321 0
M  V30 2572 H 227.136 2.14277 4.55076 0
M  V30 2573 H 226.836 3.89247 4.40183 0
M  V30 2574 H 228.36 3.31073 5.13053 0
M  V30 2575 H 229.774 4.67683 3.31581 0
M  V30 2576 H 228.171 5.29564 2.82281 0
M  V30 2577 H 229.241 4.57507 1.60671 0
M  V30 2578 N 230.584 -0.659388 1.43143 0
M  V30 2579 C 231.814 -1.44513 1.47646 0
M  V30 2580 C 232.222 -1.88981 0.0910095 0
M  V30 2581 O 231.565 -1.59702 -0.907789 0
M  V30 2582 C 231.627 -2.71663 2.35456 0
M  V30 2583 C 231.291 -2.49175 3.83094 0
M  V30 2584 C 232.288 -2.1279 4.74359 0
M  V30 2585 C 229.973 -2.63691 4.27519 0
M  V30 2586 C 231.967 -1.9121 6.08044 0
M  V30 2587 C 229.654 -2.41726 5.61259 0
M  V30 2588 C 230.652 -2.0554 6.51339 0
M  V30 2589 O 230.34 -1.838 7.82606 0
M  V30 2590 H 230.072 -0.45064 0.503884 0
M  V30 2591 H 232.626 -0.816248 1.88485 0
M  V30 2592 H 230.856 -3.37089 1.89493 0
M  V30 2593 H 232.545 -3.33595 2.31235 0
M  V30 2594 H 233.311 -2.01157 4.41317 0
M  V30 2595 H 229.19 -2.90832 3.57684 0
M  V30 2596 H 232.734 -1.62889 6.78316 0
M  V30 2597 H 228.631 -2.52959 5.9387 0
M  V30 2598 H 229.399 -1.98275 7.94122 0
M  V30 2599 N 232.062 -1.29571 -0.897171 0
M  V30 2600 C 233.287 -1.20705 -1.68656 0
M  V30 2601 C 233.712 0.228582 -1.86706 0
M  V30 2602 O 233.07 1.16494 -1.3892 0
M  V30 2603 C 233.118 -1.9282 -3.04717 0
M  V30 2604 O 232.222 -1.24697 -3.93096 0
M  V30 2605 H 231.563 -0.418126 -0.515816 0
M  V30 2606 H 234.093 -1.71183 -1.12061 0
M  V30 2607 H 234.103 -2.01372 -3.54843 0
M  V30 2608 H 232.778 -2.97239 -2.90899 0
M  V30 2609 H 231.355 -1.2442 -3.51531 0
M  V30 2610 N 233.54 1.10788 -1.12088 0
M  V30 2611 C 234.786 1.82942 -0.875226 0
M  V30 2612 C 235.119 1.84779 0.597538 0
M  V30 2613 O 234.394 1.30578 1.44152 0
M  V30 2614 C 234.677 3.29789 -1.44606 0
M  V30 2615 C 234.53 3.36307 -2.98693 0
M  V30 2616 C 235.849 4.26064 -1.10261 0
M  V30 2617 H 232.968 0.664195 -0.319397 0
M  V30 2618 H 235.61 1.29867 -1.38689 0
M  V30 2619 H 233.76 3.75118 -1.01089 0
M  V30 2620 H 235.432 2.99487 -3.50864 0
M  V30 2621 H 233.675 2.76318 -3.34411 0
M  V30 2622 H 234.346 4.39694 -3.33726 0
M  V30 2623 H 236.822 3.88951 -1.4784 0
M  V30 2624 H 235.698 5.27183 -1.52869 0
M  V30 2625 H 235.959 4.42098 -0.0142953 0
M  V30 2626 N 235.018 0.912232 1.28515 0
M  V30 2627 C 236.434 0.610159 1.47476 0
M  V30 2628 C 236.634 -0.844955 1.82928 0
M  V30 2629 O 235.69 -1.62416 1.93332 0
M  V30 2630 C 237.003 1.54675 2.57868 0
M  V30 2631 C 238.551 1.55331 2.71738 0
M  V30 2632 C 239.026 2.47649 3.85272 0
M  V30 2633 N 240.517 2.45767 3.92623 0
M  V30 2634 C 241.252 3.13896 4.79851 0
M  V30 2635 N 240.748 3.9135 5.71679 0
M  V30 2636 N 242.541 3.02991 4.73448 0
M  V30 2637 H 234.692 1.85318 1.03783 0
M  V30 2638 H 236.955 0.794777 0.516753 0
M  V30 2639 H 236.661 2.5841 2.38574 0
M  V30 2640 H 236.535 1.27671 3.54937 0
M  V30 2641 H 238.922 0.52335 2.90422 0
M  V30 2642 H 239.003 1.86378 1.75205 0
M  V30 2643 H 238.647 3.50745 3.67342 0
M  V30 2644 H 238.577 2.13904 4.81199 0
M  V30 2645 H 241.068 1.89503 3.26951 0
M  V30 2646 H 241.381 4.40359 6.35062 0
M  V30 2647 H 239.726 3.95455 5.71524 0
M  V30 2648 H 242.917 2.41987 4.007 0
M  V30 2649 H 243.09 3.5636 5.41213 0
M  V30 2650 N 236.496 -1.42363 0.676048 0
M  V30 2651 C 237.426 -2.33497 0.0124832 0
M  V30 2652 C 238.407 -1.50748 -0.787981 0
M  V30 2653 O 239.592 -1.79346 -0.744884 0
M  V30 2654 C 236.722 -3.34377 -0.938582 0
M  V30 2655 C 235.676 -4.27289 -0.246622 0
M  V30 2656 C 235.002 -5.18386 -1.31071 0
M  V30 2657 C 236.302 -5.14916 0.875125 0
M  V30 2658 H 237.996 -2.89233 0.773593 0
M  V30 2659 H 235.542 -1.39073 0.37346 0
M  V30 2660 H 237.495 -3.97044 -1.41188 0
M  V30 2661 H 236.219 -2.76947 -1.73113 0
M  V30 2662 H 234.878 -3.66018 0.206456 0
M  V30 2663 H 234.526 -4.57282 -2.09528 0
M  V30 2664 H 234.226 -5.81378 -0.852839 0
M  V30 2665 H 235.75 -5.83929 -1.78492 0
M  V30 2666 H 237.164 -5.71262 0.482983 0
M  V30 2667 H 235.561 -5.86747 1.25887 0
M  V30 2668 H 236.631 -4.53242 1.72335 0
M  V30 2669 N 237.974 -0.419461 -1.51915 0
M  V30 2670 C 239.199 0.154572 -2.06823 0
M  V30 2671 C 239.624 1.3722 -1.28656 0
M  V30 2672 O 238.982 1.78461 -0.319583 0
M  V30 2673 C 239.03 0.473172 -3.57482 0
M  V30 2674 O 238.134 1.56255 -3.81652 0
M  V30 2675 H 237.475 0.0096924 -0.663929 0
M  V30 2676 H 240.005 -0.595642 -1.95738 0
M  V30 2677 H 240.015 0.728825 -4.01438 0
M  V30 2678 H 238.69 -0.416873 -4.13805 0
M  V30 2679 H 237.267 1.29825 -3.49571 0
M  V30 2680 N 239.452 1.56882 -0.150215 0
M  V30 2681 C 240.382 2.19935 0.784284 0
M  V30 2682 C 241.363 1.14854 1.25469 0
M  V30 2683 O 242.548 1.43209 1.31168 0
M  V30 2684 C 239.678 2.82349 2.02229 0
M  V30 2685 C 238.632 3.93285 1.68853 0
M  V30 2686 C 237.958 4.42649 2.99944 0
M  V30 2687 C 239.258 5.13904 0.932714 0
M  V30 2688 H 240.952 2.9828 0.258781 0
M  V30 2689 H 238.498 1.43473 0.123029 0
M  V30 2690 H 240.451 3.25126 2.68088 0
M  V30 2691 H 239.175 2.0134 2.57157 0
M  V30 2692 H 237.834 3.5113 1.05371 0
M  V30 2693 H 237.482 3.58458 3.52869 0
M  V30 2694 H 237.182 5.17476 2.78374 0
M  V30 2695 H 238.706 4.88099 3.66868 0
M  V30 2696 H 240.12 5.53506 1.49345 0
M  V30 2697 H 238.517 5.94515 0.81684 0
M  V30 2698 H 239.587 4.84842 -0.0749568 0
M  V30 2699 N 240.93 -0.123565 1.57115 0
M  V30 2700 C 242.176 -0.833386 1.84885 0
M  V30 2701 C 242.509 -1.79742 0.735292 0
M  V30 2702 O 241.784 -1.92764 -0.25925 0
M  V30 2703 C 242.067 -1.5873 3.23228 0
M  V30 2704 C 241.92 -0.643183 4.45178 0
M  V30 2705 C 243.239 -2.54453 3.59085 0
M  V30 2706 H 240.358 -0.301518 0.6725 0
M  V30 2707 H 243 -0.097778 1.89748 0
M  V30 2708 H 241.15 -2.21438 3.19214 0
M  V30 2709 H 242.822 -0.0253015 4.61293 0
M  V30 2710 H 241.065 0.0456139 4.33776 0
M  V30 2711 H 241.736 -1.20724 5.38637 0
M  V30 2712 H 244.212 -2.01853 3.63861 0
M  V30 2713 H 243.088 -3.04238 4.5687 0
M  V30 2714 H 243.349 -3.36906 2.86264 0
M  V30 2715 N 242.408 -1.52605 -0.393616 0
M  V30 2716 C 243.338 -1.80022 -1.48709 0
M  V30 2717 C 244.319 -0.651995 -1.57108 0
M  V30 2718 O 245.504 -0.89913 -1.72132 0
M  V30 2719 C 242.634 -1.96492 -2.86371 0
M  V30 2720 C 241.588 -3.12161 -2.92813 0
M  V30 2721 C 240.914 -3.13877 -4.3288 0
M  V30 2722 C 242.214 -4.51322 -2.6288 0
M  V30 2723 H 243.908 -2.71589 -1.26015 0
M  V30 2724 H 241.454 -1.30684 -0.604778 0
M  V30 2725 H 243.407 -2.14255 -3.62867 0
M  V30 2726 H 242.131 -1.01611 -3.10391 0
M  V30 2727 H 240.79 -2.94173 -2.18764 0
M  V30 2728 H 240.438 -2.16687 -4.53933 0
M  V30 2729 H 240.138 -3.91576 -4.38112 0
M  V30 2730 H 241.662 -3.33789 -5.1129 0
M  V30 2731 H 243.076 -4.69435 -3.29096 0
M  V30 2732 H 241.473 -5.31053 -2.79468 0
M  V30 2733 H 242.543 -4.58353 -1.58242 0
M  V30 2734 N 243.887 0.651787 -1.4349 0
M  V30 2735 C 245.112 1.44434 -1.48841 0
M  V30 2736 C 245.537 1.8779 -0.107955 0
M  V30 2737 O 244.895 1.57464 0.898602 0
M  V30 2738 C 244.943 2.65458 -2.44059 0
M  V30 2739 O 244.047 3.64566 -1.92784 0
M  V30 2740 H 243.388 0.433005 -0.503391 0
M  V30 2741 H 245.918 0.797451 -1.88419 0
M  V30 2742 H 245.928 3.13255 -2.6141 0
M  V30 2743 H 244.603 2.33244 -3.4434 0
M  V30 2744 H 243.18 3.23716 -1.851 0
M  V30 2745 N 245.365 1.30045 0.890287 0
M  V30 2746 C 246.605 1.19839 1.65584 0
M  V30 2747 C 246.969 -0.244175 1.90441 0
M  V30 2748 O 248.17 -0.469378 2.6467 0
M  V30 2749 C 246.441 1.99876 2.96284 0
M  V30 2750 S 248 2.06309 3.87275 0
M  V30 2751 H 244.818 0.427157 0.568382 0
M  V30 2752 H 247.42 1.64453 1.05715 0
M  V30 2753 H 246.124 3.03809 2.75913 0
M  V30 2754 H 245.655 1.55903 3.61189 0
M  V30 2755 H 247.67 1.18661 4.81803 0
M  V30 2756 N 246.843 -1.10192 1.12674 0
M  V30 2757 C 248.254 -1.63707 0.897604 0
M  V30 2758 C 248.605 -1.87812 -0.567546 0
M  V30 2759 O 247.73 -1.62196 -1.43253 0
M  V30 2760 C 248.325 -2.974 1.62292 0
M  V30 2761 C 246.884 -3.47772 1.43986 0
M  V30 2762 C 246.031 -2.22332 1.65722 0
M  V30 2763 H 248.982 -0.936587 1.28116 0
M  V30 2764 H 249.003 -3.64986 1.07541 0
M  V30 2765 H 248.515 -2.79824 2.68924 0
M  V30 2766 H 246.616 -3.70487 0.396206 0
M  V30 2767 H 246.729 -4.25723 2.19765 0
M  V30 2768 H 245.093 -2.30599 1.08149 0
M  V30 2769 H 245.876 -2.07285 2.73657 0
M  V30 2770 N 248.321 -0.919034 -1.28029 0
M  V30 2771 C 249.254 -0.355887 -2.25408 0
M  V30 2772 C 250.232 0.542874 -1.5327 0
M  V30 2773 O 251.416 0.485338 -1.82145 0
M  V30 2774 C 248.543 0.490759 -3.35126 0
M  V30 2775 C 247.589 -0.343358 -4.25116 0
M  V30 2776 S 248.422 -1.75344 -5.05979 0
M  V30 2777 C 249.578 -0.914244 -6.19187 0
M  V30 2778 H 249.811 -1.18123 -2.72826 0
M  V30 2779 H 247.344 -0.720636 -1.36551 0
M  V30 2780 H 249.302 0.973404 -3.98792 0
M  V30 2781 H 247.963 1.29054 -2.86363 0
M  V30 2782 H 247.156 0.304266 -5.03081 0
M  V30 2783 H 246.758 -0.759851 -3.662 0
M  V30 2784 H 249.05 -0.146282 -6.77342 0
M  V30 2785 H 249.993 -1.66661 -6.88208 0
M  V30 2786 H 250.401 -0.460082 -5.62622 0
M  V30 2787 N 249.799 1.42003 -0.683588 0
M  V30 2788 C 251.024 2.06265 -0.216647 0
M  V30 2789 C 251.449 1.51059 1.12083 0
M  V30 2790 O 250.807 0.632638 1.69904 0
M  V30 2791 C 250.855 3.60191 -0.171759 0
M  V30 2792 O 249.959 4.03396 0.857069 0
M  V30 2793 H 249.3 0.65502 -0.108834 0
M  V30 2794 H 251.83 1.81982 -0.935077 0
M  V30 2795 H 251.84 4.08 0.0014303 0
M  V30 2796 H 250.515 3.99743 -1.14796 0
M  V30 2797 H 249.092 3.67117 0.654208 0
M  V30 2798 N 251.277 0.427512 1.51691 0
M  V30 2799 C 252.207 -0.3796 2.30394 0
M  V30 2800 C 253.188 -1.02982 1.35384 0
M  V30 2801 O 254.373 -1.03534 1.643 0
M  V30 2802 C 251.503 -1.48649 3.1388 0
M  V30 2803 C 250.457 -0.960294 4.17088 0
M  V30 2804 C 249.783 -2.16219 4.89033 0
M  V30 2805 C 251.083 -0.00153679 5.223 0
M  V30 2806 H 252.777 0.277164 2.98114 0
M  V30 2807 H 250.323 0.134739 1.43368 0
M  V30 2808 H 252.276 -2.05826 3.67714 0
M  V30 2809 H 251 -2.1714 2.43962 0
M  V30 2810 H 249.659 -0.410806 3.64291 0
M  V30 2811 H 249.307 -2.83307 4.15628 0
M  V30 2812 H 249.007 -1.81654 5.58816 0
M  V30 2813 H 250.531 -2.73968 5.45687 0
M  V30 2814 H 251.945 -0.482687 5.71264 0
M  V30 2815 H 250.342 0.256199 5.99553 0
M  V30 2816 H 251.412 0.938174 4.75738 0
M  V30 2817 N 252.755 -1.56801 0.158532 0
M  V30 2818 C 253.665 -2.20916 -0.789518 0
M  V30 2819 C 254.681 -1.1969 -1.26294 0
M  V30 2820 O 255.857 -1.52308 -1.31773 0
M  V30 2821 C 252.922 -2.82727 -2.00665 0
M  V30 2822 C 251.983 -3.99114 -1.58134 0
M  V30 2823 C 251.216 -4.57968 -2.74045 0
M  V30 2824 O 251.439 -4.15704 -3.90572 0
M  V30 2825 O 250.373 -5.48047 -2.48855 0
M  V30 2826 H 254.199 -3.02464 -0.273681 0
M  V30 2827 H 251.784 -1.4924 -0.0690548 0
M  V30 2828 H 253.666 -3.21968 -2.71872 0
M  V30 2829 H 252.341 -2.04184 -2.51179 0
M  V30 2830 H 251.248 -3.64567 -0.839155 0
M  V30 2831 H 252.581 -4.79212 -1.12325 0
M  V30 2832 N 254.233 0.115231 -1.57178 0
M  V30 2833 C 255.463 0.835224 -1.88964 0
M  V30 2834 C 255.871 1.73774 -0.74829 0
M  V30 2835 O 255.214 1.81401 0.289739 0
M  V30 2836 C 255.276 1.7178 -3.15804 0
M  V30 2837 C 254.94 0.989198 -4.46166 0
M  V30 2838 C 255.937 0.328263 -5.18863 0
M  V30 2839 C 253.622 0.969256 -4.9286 0
M  V30 2840 C 255.616 -0.342873 -6.36477 0
M  V30 2841 C 253.303 0.294324 -6.10391 0
M  V30 2842 C 254.301 -0.360582 -6.82048 0
M  V30 2843 O 253.989 -1.02474 -7.97342 0
M  V30 2844 H 253.721 0.245197 -0.629964 0
M  V30 2845 H 256.275 0.10303 -2.05141 0
M  V30 2846 H 254.505 2.49173 -2.95719 0
M  V30 2847 H 256.194 2.31255 -3.33581 0
M  V30 2848 H 256.96 0.335263 -4.8384 0
M  V30 2849 H 252.839 1.46844 -4.36987 0
M  V30 2850 H 256.383 -0.854629 -6.92345 0
M  V30 2851 H 252.28 0.285099 -6.4487 0
M  V30 2852 H 253.048 -0.929594 -8.13204 0
M  V30 2853 N 255.711 1.52812 0.385517 0
M  V30 2854 C 256.941 1.71658 1.14966 0
M  V30 2855 C 257.349 0.436253 1.84102 0
M  V30 2856 O 256.692 -0.599313 1.73649 0
M  V30 2857 C 256.754 2.81309 2.23843 0
M  V30 2858 C 256.418 4.22313 1.74644 0
M  V30 2859 C 257.415 5.05352 1.22129 0
M  V30 2860 C 255.1 4.68648 1.80761 0
M  V30 2861 C 257.094 6.32807 0.763838 0
M  V30 2862 C 254.781 5.96086 1.34627 0
M  V30 2863 C 255.779 6.77996 0.825264 0
M  V30 2864 O 255.467 8.03045 0.370669 0
M  V30 2865 H 255.199 0.578022 0.350523 0
M  V30 2866 H 257.753 2.00263 0.456509 0
M  V30 2867 H 255.983 2.48133 2.96592 0
M  V30 2868 H 257.672 2.88524 2.85497 0
M  V30 2869 H 258.438 4.70736 1.16758 0
M  V30 2870 H 254.317 4.04979 2.20256 0
M  V30 2871 H 257.861 6.96689 0.356494 0
M  V30 2872 H 253.758 6.30205 1.39686 0
M  V30 2873 H 254.526 8.17021 0.491829 0
M  V30 2874 N 257.189 -0.644168 1.43834 0
M  V30 2875 C 258.6 -1.22554 1.40845 0
M  V30 2876 C 258.951 -1.9585 0.117115 0
M  V30 2877 O 258.076 -2.01734 -0.783086 0
M  V30 2878 C 258.671 -2.22907 2.55143 0
M  V30 2879 C 257.23 -2.76501 2.5539 0
M  V30 2880 C 256.377 -1.51287 2.32396 0
M  V30 2881 H 259.328 -0.43563 1.52604 0
M  V30 2882 H 259.349 -3.05259 2.2715 0
M  V30 2883 H 258.861 -1.69533 3.49114 0
M  V30 2884 H 256.962 -3.33914 1.65324 0
M  V30 2885 H 257.075 -3.23429 3.53455 0
M  V30 2886 H 255.439 -1.78957 1.81236 0
M  V30 2887 H 256.222 -0.998336 3.28463 0
M  V30 2888 N 258.668 -1.30515 -0.883378 0
M  V30 2889 C 259.598 -1.19607 -2.00541 0
M  V30 2890 C 260.579 -0.086346 -1.69881 0
M  V30 2891 O 261.764 -0.268654 -1.92333 0
M  V30 2892 C 258.894 -0.888758 -3.35736 0
M  V30 2893 C 257.848 -1.95659 -3.8066 0
M  V30 2894 C 257.174 -1.50224 -5.13164 0
M  V30 2895 C 258.474 -3.36788 -3.99213 0
M  V30 2896 H 260.168 -2.13476 -2.09925 0
M  V30 2897 H 257.714 -1.02775 -1.00863 0
M  V30 2898 H 259.667 -0.799094 -4.13754 0
M  V30 2899 H 258.391 0.0856125 -3.26488 0
M  V30 2900 H 257.05 -2.03591 -3.04871 0
M  V30 2901 H 256.698 -0.516092 -5.00345 0
M  V30 2902 H 256.398 -2.2165 -5.44192 0
M  V30 2903 H 257.922 -1.42639 -5.93706 0
M  V30 2904 H 259.336 -3.31605 -4.67665 0
M  V30 2905 H 257.733 -4.06314 -4.41621 0
M  V30 2906 H 258.803 -3.78561 -3.03017 0
M  V30 2907 N 260.146 1.09593 -1.13257 0
M  V30 2908 C 261.423 1.78293 -0.804432 0
M  V30 2909 C 261.803 1.99004 0.70431 0
M  V30 2910 O 261.151 1.59007 1.641 0
M  V30 2911 C 261.361 3.10707 -1.5894 0
M  V30 2912 C 262.709 3.85443 -1.78099 0
M  V30 2913 O 263.733 3.20454 -1.55525 0
M  V30 2914 O 262.592 5.02108 -2.15753 0
M  V30 2915 H 259.686 0.773156 -0.293528 0
M  V30 2916 H 262.232 1.16164 -1.23709 0
M  V30 2917 H 261.004 2.91106 -2.61482 0
M  V30 2918 H 260.627 3.80558 -1.15157 0
M  V30 2919 N 261.624 0.925811 1.2754 0
M  V30 2920 C 263.04 0.625767 1.46821 0
M  V30 2921 C 263.24 -0.825506 1.83814 0
M  V30 2922 O 262.296 -1.60356 1.95044 0
M  V30 2923 C 263.609 1.57402 2.56213 0
M  V30 2924 C 265.157 1.58204 2.70075 0
M  V30 2925 C 265.632 2.51721 3.82623 0
M  V30 2926 N 267.123 2.49917 3.89994 0
M  V30 2927 C 267.858 3.18968 4.76494 0
M  V30 2928 N 267.354 3.97391 5.67496 0
M  V30 2929 N 269.147 3.07996 4.70208 0
M  V30 2930 H 261.298 1.86409 1.01811 0
M  V30 2931 H 263.561 0.800213 0.508295 0
M  V30 2932 H 263.267 2.60925 2.35819 0
M  V30 2933 H 263.141 1.31428 3.53563 0
M  V30 2934 H 265.528 0.554124 2.89851 0
M  V30 2935 H 265.609 1.88226 1.73218 0
M  V30 2936 H 265.253 3.54622 3.63601 0
M  V30 2937 H 265.183 2.18996 4.78903 0
M  V30 2938 H 267.674 1.9296 3.24923 0
M  V30 2939 H 267.987 4.4707 6.30356 0
M  V30 2940 H 266.332 4.01495 5.67298 0
M  V30 2941 H 269.523 2.46223 3.9811 0
M  V30 2942 H 269.696 3.6208 5.37403 0
M  V30 2943 N 263.102 -1.41638 0.69111 0
M  V30 2944 C 264.034 -2.29194 -0.0161523 0
M  V30 2945 C 265.047 -1.44549 -0.748955 0
M  V30 2946 O 266.236 -1.681 -0.6004 0
M  V30 2947 C 263.336 -3.22325 -1.0469 0
M  V30 2948 C 262.509 -4.35706 -0.384621 0
M  V30 2949 C 261.568 -5.09443 -1.31737 0
M  V30 2950 O 260.594 -5.63386 -0.811451 0
M  V30 2951 N 261.796 -5.16487 -2.64993 0
M  V30 2952 H 264.561 -2.90534 0.735523 0
M  V30 2953 H 262.122 -1.52742 0.53679 0
M  V30 2954 H 264.114 -3.68522 -1.67252 0
M  V30 2955 H 262.684 -2.62323 -1.70015 0
M  V30 2956 H 261.904 -3.91948 0.420804 0
M  V30 2957 H 263.192 -5.08743 0.0760765 0
M  V30 2958 H 262.59 -4.741 -3.08619 0
M  V30 2959 H 261.147 -5.66276 -3.22761 0
M  V30 2960 N 264.58 -0.43555 -1.51462 0
M  V30 2961 C 265.808 0.130242 -2.0649 0
M  V30 2962 C 266.223 1.36614 -1.30315 0
M  V30 2963 O 265.58 1.78869 -0.362223 0
M  V30 2964 C 265.631 0.454253 -3.58635 0
M  V30 2965 O 265.352 -0.73259 -4.31931 0
M  V30 2966 C 266.853 1.07091 -4.3017 0
M  V30 2967 H 264.073 0.00871669 -0.670943 0
M  V30 2968 H 266.617 -0.614117 -1.95061 0
M  V30 2969 H 264.772 1.14851 -3.69984 0
M  V30 2970 H 265.186 -0.455787 -5.22516 0
M  V30 2971 H 266.66 1.24764 -5.37716 0
M  V30 2972 H 267.137 2.05144 -3.88346 0
M  V30 2973 H 267.743 0.416089 -4.2326 0
M  V30 2974 N 266.058 1.56714 -0.166846 0
M  V30 2975 C 267.298 1.98641 0.481763 0
M  V30 2976 C 267.662 1.05038 1.6072 0
M  V30 2977 O 268.863 1.36087 2.31805 0
M  V30 2978 C 267.134 3.44362 0.956517 0
M  V30 2979 S 268.693 4.08317 1.60694 0
M  V30 2980 H 265.511 0.693873 0.155116 0
M  V30 2981 H 268.113 1.93719 -0.263251 0
M  V30 2982 H 266.817 4.10204 0.126936 0
M  V30 2983 H 266.348 3.53041 1.73568 0
M  V30 2984 H 268.363 4.02999 2.89494 0
M  V30 2985 N 267.536 -0.106894 1.57237 0
M  V30 2986 C 268.466 -1.13148 2.04254 0
M  V30 2987 C 269.447 -1.42476 0.929224 0
M  V30 2988 O 270.632 -1.52709 1.19973 0
M  V30 2989 C 267.762 -2.4545 2.45706 0
M  V30 2990 C 266.716 -2.30558 3.60592 0
M  V30 2991 C 266.042 -3.67931 3.87983 0
M  V30 2992 C 267.342 -1.75597 4.91897 0
M  V30 2993 H 269.036 -0.740374 2.90101 0
M  V30 2994 H 266.582 -0.354696 1.39563 0
M  V30 2995 H 268.535 -3.17389 2.77205 0
M  V30 2996 H 267.259 -2.86475 1.56843 0
M  V30 2997 H 265.918 -1.61067 3.29322 0
M  V30 2998 H 265.566 -4.06462 2.96306 0
M  V30 2999 H 265.266 -3.58817 4.65322 0
M  V30 3000 H 266.79 -4.41356 4.21945 0
M  V30 3001 H 268.204 -2.37364 5.21854 0
M  V30 3002 H 266.601 -1.77272 5.73319 0
M  V30 3003 H 267.671 -0.714451 4.79608 0
M  V30 3004 N 269.014 -1.53014 -0.377408 0
M  V30 3005 C 270.263 -1.67845 -1.11853 0
M  V30 3006 C 270.576 -0.430625 -1.90801 0
M  V30 3007 O 271.782 -0.459261 -2.67587 0
M  V30 3008 C 270.238 -2.96668 -2.03756 0
M  V30 3009 C 269.846 -4.28671 -1.30175 0
M  V30 3010 C 271.59 -3.20865 -2.77932 0
M  V30 3011 C 269.497 -5.48591 -2.20911 0
M  V30 3012 H 268.427 -0.625343 -0.421263 0
M  V30 3013 H 271.078 -1.79514 -0.380409 0
M  V30 3014 H 269.46 -2.78773 -2.8125 0
M  V30 3015 H 270.634 -4.57157 -0.578259 0
M  V30 3016 H 268.949 -4.10825 -0.679108 0
M  V30 3017 H 271.546 -4.07642 -3.46024 0
M  V30 3018 H 271.889 -2.36424 -3.4265 0
M  V30 3019 H 272.422 -3.39379 -2.07525 0
M  V30 3020 H 269.161 -6.35474 -1.6079 0
M  V30 3021 H 268.681 -5.244 -2.91144 0
M  V30 3022 H 270.36 -5.8292 -2.80736 0
M  V30 3023 N 270.492 0.636531 -1.44174 0
M  V30 3024 C 271.769 1.39463 -1.37148 0
M  V30 3025 C 272.149 2.11082 -0.027507 0
M  V30 3026 O 271.497 2.05954 0.989716 0
M  V30 3027 C 271.707 2.36552 -2.56601 0
M  V30 3028 C 273.055 3.00048 -3.00427 0
M  V30 3029 O 274.079 2.46878 -2.56767 0
M  V30 3030 O 272.938 3.96488 -3.76111 0
M  V30 3031 H 270.032 0.623903 -0.542839 0
M  V30 3032 H 272.578 0.662039 -1.56253 0
M  V30 3033 H 271.35 1.82692 -3.46034 0
M  V30 3034 H 270.973 3.17236 -2.39681 0
M  V30 3035 N 271.97 1.30982 0.876444 0
M  V30 3036 C 272.9 1.20668 1.99903 0
M  V30 3037 C 273.881 0.095354 1.69833 0
M  V30 3038 O 275.066 0.27885 1.92188 0
M  V30 3039 C 272.196 0.90655 3.3526 0
M  V30 3040 C 271.15 1.97675 3.79617 0
M  V30 3041 C 270.476 1.52943 5.1236 0
M  V30 3042 C 271.776 3.389 3.97422 0
M  V30 3043 H 273.47 2.14586 2.0879 0
M  V30 3044 H 271.016 1.03308 1.00317 0
M  V30 3045 H 272.969 0.821025 4.13324 0
M  V30 3046 H 271.693 -0.0682969 3.26529 0
M  V30 3047 H 270.352 2.05205 3.03787 0
M  V30 3048 H 270 0.54262 5.00065 0
M  V30 3049 H 269.7 2.24532 5.43009 0
M  V30 3050 H 271.224 1.45786 5.92941 0
M  V30 3051 H 272.638 3.34081 4.659 0
M  V30 3052 H 271.035 4.0865 4.3946 0
M  V30 3053 H 272.105 3.80163 3.01006 0
M  V30 3054 N 273.449 -1.08991 1.13837 0
M  V30 3055 C 274.412 -2.13925 0.822715 0
M  V30 3056 C 275.412 -1.599 -0.1699 0
M  V30 3057 O 276.602 -1.74104 0.0577251 0
M  V30 3058 C 273.734 -3.40155 0.225318 0
M  V30 3059 H 274.927 -2.43358 1.75262 0
M  V30 3060 H 272.48 -1.24603 0.943594 0
M  V30 3061 H 273.215 -3.16352 -0.713594 0
M  V30 3062 H 273 -3.80661 0.940193 0
M  V30 3063 H 274.49 -4.17594 0.0214784 0
M  V30 3064 N 274.927 -0.932562 -1.27047 0
M  V30 3065 C 276.152 -0.591474 -1.98787 0
M  V30 3066 C 276.577 0.824601 -1.69062 0
M  V30 3067 O 275.935 1.5541 -0.933677 0
M  V30 3068 C 275.983 -0.829808 -3.50922 0
M  V30 3069 O 275.087 0.102266 -4.12273 0
M  V30 3070 H 274.428 -0.227185 -0.623926 0
M  V30 3071 H 276.958 -1.25314 -1.61733 0
M  V30 3072 H 276.968 -0.747292 -4.01098 0
M  V30 3073 H 275.643 -1.86201 -3.7189 0
M  V30 3074 H 274.22 -0.0305761 -3.72887 0
M  V30 3075 N 276.405 1.4127 -0.698611 0
M  V30 3076 C 277.635 2.05205 -0.239644 0
M  V30 3077 C 278.043 1.52684 1.11733 0
M  V30 3078 O 277.386 0.671222 1.70998 0
M  V30 3079 C 277.448 3.59289 -0.123126 0
M  V30 3080 C 277.112 4.34619 -1.41263 0
M  V30 3081 C 278.109 4.63701 -2.35111 0
M  V30 3082 C 275.794 4.73837 -1.66684 0
M  V30 3083 C 277.788 5.30966 -3.52639 0
M  V30 3084 C 275.475 5.40837 -2.84498 0
M  V30 3085 C 276.473 5.69329 -3.77298 0
M  V30 3086 O 276.161 6.34949 -4.93047 0
M  V30 3087 H 275.893 0.66723 -0.108537 0
M  V30 3088 H 278.447 1.81974 -0.952602 0
M  V30 3089 H 276.677 3.81272 0.645628 0
M  V30 3090 H 278.366 4.04797 0.299056 0
M  V30 3091 H 279.132 4.33882 -2.16729 0
M  V30 3092 H 275.011 4.51039 -0.953135 0
M  V30 3093 H 278.555 5.53121 -4.25091 0
M  V30 3094 H 274.452 5.70075 -3.02795 0
M  V30 3095 H 275.22 6.53445 -4.92902 0
M  V30 3096 N 277.883 0.443576 1.51229 0
M  V30 3097 C 278.846 -0.353132 2.26463 0
M  V30 3098 C 279.846 -0.944338 1.3015 0
M  V30 3099 O 281.036 -0.817813 1.5381 0
M  V30 3100 C 278.168 -1.50023 3.06114 0
M  V30 3101 H 279.361 0.3063 2.98332 0
M  V30 3102 H 276.914 0.196902 1.55055 0
M  V30 3103 H 277.649 -2.19553 2.38677 0
M  V30 3104 H 277.434 -1.08241 3.76864 0
M  V30 3105 H 278.924 -2.06296 3.63087 0
M  V30 3106 N 279.361 -1.56624 0.175154 0
M  V30 3107 C 280.591 -2.01082 -0.474283 0
M  V30 3108 C 280.999 -1.05447 -1.57091 0
M  V30 3109 O 280.342 -0.0480595 -1.83637 0
M  V30 3110 C 280.404 -3.41963 -1.10911 0
M  V30 3111 C 280.068 -4.56742 -0.153666 0
M  V30 3112 C 281.065 -5.16076 0.629448 0
M  V30 3113 C 278.75 -5.02277 -0.0483776 0
M  V30 3114 C 280.744 -6.19377 1.50501 0
M  V30 3115 C 278.431 -6.05427 0.830768 0
M  V30 3116 C 279.429 -6.63849 1.60605 0
M  V30 3117 O 279.117 -7.64998 2.47049 0
M  V30 3118 H 278.849 -0.664261 -0.125432 0
M  V30 3119 H 281.403 -2.03549 0.275163 0
M  V30 3120 H 279.633 -3.36422 -1.90676 0
M  V30 3121 H 281.322 -3.70352 -1.66114 0
M  V30 3122 H 282.088 -4.81776 0.558297 0
M  V30 3123 H 277.967 -4.56513 -0.641611 0
M  V30 3124 H 281.511 -6.64906 2.1106 0
M  V30 3125 H 277.408 -6.39151 0.903107 0
M  V30 3126 H 278.176 -7.82336 2.40607 0
M  V30 3127 N 280.839 0.0985539 -1.57292 0
M  V30 3128 C 282.067 0.816318 -1.90115 0
M  V30 3129 C 282.482 1.72451 -0.768509 0
M  V30 3130 O 281.839 1.80643 0.259687 0
M  V30 3131 C 281.89 1.63259 -3.22535 0
M  V30 3132 O 281.611 0.760934 -4.31441 0
M  V30 3133 C 283.112 2.45372 -3.69199 0
M  V30 3134 H 280.332 0.233595 -0.629027 0
M  V30 3135 H 282.876 0.0768229 -2.04356 0
M  V30 3136 H 281.031 2.32463 -3.09903 0
M  V30 3137 H 281.445 1.32595 -5.07463 0
M  V30 3138 H 282.919 2.98144 -4.64558 0
M  V30 3139 H 283.396 3.23677 -2.96867 0
M  V30 3140 H 284.002 1.81373 -3.84687 0
M  V30 3141 N 282.317 1.53212 0.369288 0
M  V30 3142 C 283.545 1.73119 1.13303 0
M  V30 3143 C 283.96 0.458455 1.83149 0
M  V30 3144 O 283.317 -0.568403 1.73423 0
M  V30 3145 C 283.368 2.89413 2.16616 0
M  V30 3146 O 283.089 4.11761 1.49614 0
M  V30 3147 C 284.59 3.21161 3.05566 0
M  V30 3148 H 281.81 0.579107 0.338934 0
M  V30 3149 H 284.354 1.99942 0.429338 0
M  V30 3150 H 282.509 2.64994 2.82589 0
M  V30 3151 H 282.923 4.76858 2.18419 0
M  V30 3152 H 284.397 4.05949 3.74045 0
M  V30 3153 H 284.874 2.36369 3.70171 0
M  V30 3154 H 285.48 3.47492 2.45213 0
M  V30 3155 N 283.795 -0.628877 1.44509 0
M  V30 3156 C 285.072 -1.38733 1.37886 0
M  V30 3157 C 285.452 -2.11065 0.0387008 0
M  V30 3158 O 284.8 -2.06476 -0.97878 0
M  V30 3159 C 285.01 -2.35188 2.57852 0
M  V30 3160 C 286.358 -2.9845 3.02014 0
M  V30 3161 O 287.382 -2.45513 2.58073 0
M  V30 3162 O 286.241 -3.94487 3.78209 0
M  V30 3163 H 283.335 -0.621015 0.54614 0
M  V30 3164 H 285.881 -0.653744 1.56602 0
M  V30 3165 H 284.653 -1.80855 3.46998 0
M  V30 3166 H 284.276 -3.1596 2.4136 0
M  V30 3167 N 285.273 -1.31445 -0.869486 0
M  V30 3168 C 286.55 -1.11795 -1.60503 0
M  V30 3169 C 286.93 0.327168 -2.08549 0
M  V30 3170 O 286.278 1.32135 -1.8642 0
M  V30 3171 C 286.488 -2.13258 -2.76265 0
M  V30 3172 C 287.836 -2.45805 -3.46215 0
M  V30 3173 O 288.86 -2.11688 -2.86473 0
M  V30 3174 O 287.719 -3.04228 -4.5399 0
M  V30 3175 H 284.813 -0.430421 -0.706163 0
M  V30 3176 H 287.359 -1.42925 -0.914907 0
M  V30 3177 H 286.131 -3.10461 -2.3818 0
M  V30 3178 H 285.754 -1.83035 -3.52964 0
M  V30 3179 N 286.751 1.08385 -1.14413 0
M  V30 3180 C 288 1.80153 -0.907076 0
M  V30 3181 C 288.313 1.87176 0.567851 0
M  V30 3182 O 289.519 2.55359 0.922172 0
M  V30 3183 C 287.975 3.23687 -1.57336 0
M  V30 3184 C 287.583 3.24897 -3.08457 0
M  V30 3185 C 289.327 4.00136 -1.41744 0
M  V30 3186 C 287.234 4.6302 -3.67921 0
M  V30 3187 H 286.164 0.675139 -0.335714 0
M  V30 3188 H 288.815 1.21733 -1.37307 0
M  V30 3189 H 287.197 3.82234 -1.03505 0
M  V30 3190 H 288.371 2.76055 -3.68958 0
M  V30 3191 H 286.686 2.61943 -3.2369 0
M  V30 3192 H 289.283 5.02201 -1.83572 0
M  V30 3193 H 289.626 4.14709 -0.363576 0
M  V30 3194 H 290.159 3.48058 -1.92614 0
M  V30 3195 H 286.898 4.5365 -4.73161 0
M  V30 3196 H 286.418 5.12143 -3.12201 0
M  V30 3197 H 288.097 5.31994 -3.68227 0
M  V30 3198 N 288.23 0.939286 1.26551 0
M  V30 3199 C 289.177 0.446088 2.26448 0
M  V30 3200 C 290.147 -0.493234 1.58608 0
M  V30 3201 O 291.332 -0.409857 1.86346 0
M  V30 3202 C 288.472 -0.284375 3.43926 0
M  V30 3203 C 287.585 0.690399 4.26448 0
M  V30 3204 C 286.72 -0.0610712 5.31165 0
M  V30 3205 C 285.759 0.905649 6.05363 0
M  V30 3206 N 284.896 0.186055 7.01853 0
M  V30 3207 H 289.736 1.30291 2.68008 0
M  V30 3208 H 287.273 0.65371 1.31776 0
M  V30 3209 H 289.231 -0.724313 4.10864 0
M  V30 3210 H 287.861 -1.10535 3.03285 0
M  V30 3211 H 286.913 1.24885 3.59316 0
M  V30 3212 H 288.225 1.42873 4.779 0
M  V30 3213 H 287.379 -0.56038 6.04106 0
M  V30 3214 H 286.118 -0.832297 4.80546 0
M  V30 3215 H 285.123 1.4161 5.3125 0
M  V30 3216 H 286.348 1.67685 6.58072 0
M  V30 3217 H 284.294 -0.566714 6.53548 0
M  V30 3218 H 284.211 0.863752 7.51049 0
M  V30 3219 H 285.479 -0.292221 7.78952 0
M  V30 3220 N 289.708 -1.40897 0.706093 0
M  V30 3221 C 290.938 -2.05075 0.250523 0
M  V30 3222 C 291.346 -1.53275 -1.10921 0
M  V30 3223 O 290.689 -0.680281 -1.7064 0
M  V30 3224 C 290.751 -3.59219 0.142178 0
M  V30 3225 C 290.415 -4.33864 1.43566 0
M  V30 3226 C 291.412 -4.62448 2.37566 0
M  V30 3227 C 289.097 -4.72946 1.69195 0
M  V30 3228 C 291.091 -5.29088 3.5545 0
M  V30 3229 C 288.778 -5.3932 2.87362 0
M  V30 3230 C 289.776 -5.6732 3.80312 0
M  V30 3231 O 289.464 -6.32325 4.96408 0
M  V30 3232 H 289.196 -0.666645 0.112074 0
M  V30 3233 H 291.75 -1.81467 0.962239 0
M  V30 3234 H 289.98 -3.81609 -0.6254 0
M  V30 3235 H 291.669 -4.0495 -0.277584 0
M  V30 3236 H 292.435 -4.32727 2.19027 0
M  V30 3237 H 288.314 -4.50527 0.977042 0
M  V30 3238 H 291.858 -5.50859 4.28018 0
M  V30 3239 H 287.755 -5.68461 3.05814 0
M  V30 3240 H 288.523 -6.50821 4.9636 0
M  V30 3241 N 291.186 -0.45159 -1.50991 0
M  V30 3242 C 292.096 0.358431 -2.31846 0
M  V30 3243 C 293.112 1.01438 -1.41373 0
M  V30 3244 O 294.288 1.00663 -1.74439 0
M  V30 3245 C 291.353 1.43704 -3.15515 0
M  V30 3246 C 290.414 0.799742 -4.21785 0
M  V30 3247 C 289.647 1.82696 -5.01456 0
M  V30 3248 O 289.87 3.05105 -4.81941 0
M  V30 3249 O 288.804 1.40958 -5.85162 0
M  V30 3250 H 292.63 -0.302032 -3.02194 0
M  V30 3251 H 290.215 -0.213825 -1.47862 0
M  V30 3252 H 292.097 2.06227 -3.67489 0
M  V30 3253 H 290.772 2.08133 -2.47916 0
M  V30 3254 H 289.679 0.136084 -3.73852 0
M  V30 3255 H 291.012 0.198718 -4.91799 0
M  V30 3256 N 292.664 1.56529 -0.183458 0
M  V30 3257 C 293.91 1.98304 0.452466 0
M  V30 3258 C 294.265 1.06799 1.60037 0
M  V30 3259 O 293.558 0.110049 1.91284 0
M  V30 3260 C 293.752 3.43939 0.971637 0
M  V30 3261 C 293.581 4.49528 -0.124425 0
M  V30 3262 C 292.351 5.01981 -0.578168 0
M  V30 3263 C 294.549 5.05836 -0.929207 0
M  V30 3264 N 292.531 5.91219 -1.65327 0
M  V30 3265 C 293.902 5.91632 -1.85396 0
M  V30 3266 C 295.957 4.88302 -0.972929 0
M  V30 3267 C 294.66 6.61768 -2.81878 0
M  V30 3268 C 296.686 5.59168 -1.92574 0
M  V30 3269 C 296.048 6.44701 -2.83795 0
M  V30 3270 H 292.147 0.770551 0.133324 0
M  V30 3271 H 294.731 1.92581 -0.286473 0
M  V30 3272 H 292.902 3.50184 1.68006 0
M  V30 3273 H 294.634 3.72702 1.5772 0
M  V30 3274 H 291.389 4.73282 -0.173639 0
M  V30 3275 H 291.813 6.40543 -2.19167 0
M  V30 3276 H 296.455 4.21861 -0.28168 0
M  V30 3277 H 294.173 7.27415 -3.51984 0
M  V30 3278 H 297.759 5.47582 -1.96583 0
M  V30 3279 H 296.639 6.98573 -3.56322 0
M  V30 3280 N 294.142 -0.090211 1.57342 0
M  V30 3281 C 295.089 -1.10909 2.02405 0
M  V30 3282 C 296.059 -1.39523 0.901252 0
M  V30 3283 O 297.244 -1.50903 1.1676 0
M  V30 3284 C 294.384 -2.42277 2.45755 0
M  V30 3285 C 293.497 -2.20352 3.71576 0
M  V30 3286 C 292.632 -3.45154 4.03785 0
M  V30 3287 C 291.671 -3.18512 5.22701 0
M  V30 3288 N 290.808 -4.35593 5.50639 0
M  V30 3289 H 295.648 -0.71782 2.89225 0
M  V30 3290 H 293.185 -0.342901 1.43048 0
M  V30 3291 H 295.143 -3.18951 2.68935 0
M  V30 3292 H 293.773 -2.79242 1.61938 0
M  V30 3293 H 292.825 -1.34458 3.55844 0
M  V30 3294 H 294.137 -1.96661 4.58395 0
M  V30 3295 H 293.291 -4.30233 4.27767 0
M  V30 3296 H 292.03 -3.71904 3.15498 0
M  V30 3297 H 291.035 -2.31827 4.98534 0
M  V30 3298 H 292.26 -2.93103 6.12591 0
M  V30 3299 H 290.206 -4.6241 4.6531 0
M  V30 3300 H 290.123 -4.1511 6.31838 0
M  V30 3301 H 291.391 -5.21723 5.7916 0
M  V30 3302 N 295.62 -1.53406 -0.361157 0
M  V30 3303 C 296.866 -1.70054 -1.10496 0
M  V30 3304 C 297.199 -0.453278 -1.88836 0
M  V30 3305 O 296.474 0.5495 -1.86576 0
M  V30 3306 C 296.757 -2.95317 -2.06058 0
M  V30 3307 C 296.61 -4.3021 -1.31298 0
M  V30 3308 C 297.929 -3.16193 -3.06121 0
M  V30 3309 H 295.048 -0.618799 -0.400321 0
M  V30 3310 H 297.69 -1.86052 -0.385318 0
M  V30 3311 H 295.84 -2.81809 -2.67425 0
M  V30 3312 H 297.512 -4.55538 -0.726807 0
M  V30 3313 H 295.755 -4.29421 -0.614853 0
M  V30 3314 H 296.426 -5.14 -2.01265 0
M  V30 3315 H 298.902 -3.28916 -2.5486 0
M  V30 3316 H 297.778 -4.05266 -3.70204 0
M  V30 3317 H 298.039 -2.31676 -3.76535 0
M  V30 3318 N 297.098 0.621204 -1.44841 0
M  V30 3319 C 298.045 1.73267 -1.5247 0
M  V30 3320 C 299.015 1.6189 -0.371611 0
M  V30 3321 O 300.2 1.81668 -0.58321 0
M  V30 3322 C 297.34 3.11545 -1.48438 0
M  V30 3323 C 296.453 3.33827 -2.74196 0
M  V30 3324 C 295.588 4.62133 -2.61929 0
M  V30 3325 C 294.627 4.77627 -3.82804 0
M  V30 3326 N 293.764 5.97219 -3.69153 0
M  V30 3327 H 298.604 1.66082 -2.47428 0
M  V30 3328 H 296.141 0.810026 -1.22788 0
M  V30 3329 H 298.099 3.91528 -1.4409 0
M  V30 3330 H 296.729 3.1772 -0.570402 0
M  V30 3331 H 295.781 2.47715 -2.88689 0
M  V30 3332 H 297.093 3.41153 -3.6389 0
M  V30 3333 H 296.247 5.50291 -2.5547 0
M  V30 3334 H 294.986 4.57182 -1.69811 0
M  V30 3335 H 293.991 3.87896 -3.89637 0
M  V30 3336 H 295.216 4.84385 -4.75971 0
M  V30 3337 H 293.162 5.93339 -2.79794 0
M  V30 3338 H 293.079 6.05644 -4.52472 0
M  V30 3339 H 294.347 6.87912 -3.66603 0
M  V30 3340 N 298.576 1.31904 0.862503 0
M  V30 3341 C 299.524 1.20125 1.9918 0
M  V30 3342 C 300.518 0.107824 1.69056 0
M  V30 3343 O 301.724 0.270223 1.7796 0
M  V30 3344 H 298.099 0.372148 0.65346 0
M  V30 3345 H 300.07 2.15652 2.06244 0
M  V30 3346 C 298.819 0.933099 3.34946 0
M  V30 3347 H 298.142 1.76664 3.5865 0
M  V30 3348 H 299.582 0.890892 4.14535 0
M  V30 3349 C 298.041 -0.364172 3.34926 0
M  V30 3350 O 298.571 -1.37858 3.77304 0
M  V30 3351 N 296.777 -0.383362 2.8806 0
M  V30 3352 H 296.324 0.442651 2.53768 0
M  V30 3353 H 296.282 -1.25123 2.8843 0
M  V30 3354 N 300.054 -1.07777 1.14986 0
M  V30 3355 C 301.465 -1.61766 0.932127 0
M  V30 3356 C 301.816 -1.88974 -0.527581 0
M  V30 3357 O 300.941 -1.65198 -1.39781 0
M  V30 3358 C 301.536 -2.93891 1.68563 0
M  V30 3359 C 300.095 -3.44639 1.5133 0
M  V30 3360 C 299.242 -2.18767 1.704 0
M  V30 3361 H 302.193 -0.909201 1.30074 0
M  V30 3362 H 302.214 -3.62623 1.15259 0
M  V30 3363 H 301.726 -2.74057 2.74799 0
M  V30 3364 H 299.827 -3.69564 0.474702 0
M  V30 3365 H 299.94 -4.20966 2.28746 0
M  V30 3366 H 298.304 -2.28253 1.13016 0
M  V30 3367 H 299.087 -2.01433 2.77992 0
M  V30 3368 N 301.532 -0.945985 -1.26051 0
M  V30 3369 C 302.781 -0.591836 -1.92822 0
M  V30 3370 C 303.094 0.873956 -1.7499 0
M  V30 3371 O 304.3 1.33769 -2.36259 0
M  V30 3372 C 302.756 -1.00776 -3.45503 0
M  V30 3373 C 302.364 -2.4955 -3.7206 0
M  V30 3374 C 304.108 -0.725735 -4.1825 0
M  V30 3375 C 302.015 -2.84988 -5.18205 0
M  V30 3376 H 300.945 -0.217635 -0.721908 0
M  V30 3377 H 303.596 -1.14927 -1.43052 0
M  V30 3378 H 301.978 -0.378812 -3.94184 0
M  V30 3379 H 303.152 -3.1739 -3.34066 0
M  V30 3380 H 301.467 -2.75133 -3.12555 0
M  V30 3381 H 304.064 -0.966771 -5.25887 0
M  V30 3382 H 304.407 0.337639 -4.14929 0
M  V30 3383 H 304.94 -1.31463 -3.7545 0
M  V30 3384 H 301.679 -3.90307 -5.26631 0
M  V30 3385 H 301.199 -2.21813 -5.57278 0
M  V30 3386 H 302.878 -2.73712 -5.86252 0
M  V30 3387 N 303.011 1.40521 -0.713556 0
M  V30 3388 C 303.943 2.29191 -0.0203126 0
M  V30 3389 C 304.956 1.45723 0.725864 0
M  V30 3390 O 306.145 1.69033 0.573581 0
M  V30 3391 C 303.245 3.2395 0.995486 0
M  V30 3392 C 302.418 4.36262 0.315256 0
M  V30 3393 C 301.477 5.11474 1.23616 0
M  V30 3394 O 300.503 5.64606 0.721719 0
M  V30 3395 N 301.705 5.20638 2.56743 0
M  V30 3396 H 304.47 2.89327 -0.781652 0
M  V30 3397 H 302.031 1.51869 -0.561022 0
M  V30 3398 H 304.023 3.71137 1.61368 0
M  V30 3399 H 302.593 2.64995 1.6582 0
M  V30 3400 H 301.813 3.91228 -0.483106 0
M  V30 3401 H 303.101 5.08558 -0.157004 0
M  V30 3402 H 302.499 4.7895 3.01037 0
M  V30 3403 H 301.056 5.71339 3.13712 0
M  V30 3404 N 304.489 0.459591 1.5075 0
M  V30 3405 C 305.421 -0.37665 2.26084 0
M  V30 3406 C 306.434 -0.967109 1.30961 0
M  V30 3407 O 307.623 -0.857468 1.56556 0
M  V30 3408 C 304.723 -1.54112 3.01832 0
M  V30 3409 C 303.896 -1.06553 4.24223 0
M  V30 3410 C 302.955 -2.1027 4.82362 0
M  V30 3411 O 301.981 -1.68798 5.43595 0
M  V30 3412 N 303.183 -3.42974 4.68347 0
M  V30 3413 H 305.948 0.269124 2.98489 0
M  V30 3414 H 303.509 0.28972 1.59287 0
M  V30 3415 H 305.501 -2.23165 3.37608 0
M  V30 3416 H 304.071 -2.0918 2.32298 0
M  V30 3417 H 303.291 -0.201274 3.93686 0
M  V30 3418 H 304.579 -0.725516 5.03601 0
M  V30 3419 H 303.977 -3.79385 4.19623 0
M  V30 3420 H 302.534 -4.07858 5.08424 0
M  V30 3421 N 305.967 -1.56429 0.191757 0
M  V30 3422 C 306.914 -2.18936 -0.730454 0
M  V30 3423 C 307.884 -1.13557 -1.21219 0
M  V30 3424 O 309.069 -1.41794 -1.27668 0
M  V30 3425 C 306.209 -2.85013 -1.9458 0
M  V30 3426 C 305.322 -4.04909 -1.50574 0
M  V30 3427 C 304.457 -4.58853 -2.67634 0
M  V30 3428 C 303.496 -5.71114 -2.20217 0
M  V30 3429 N 302.633 -6.19478 -3.30442 0
M  V30 3430 H 307.473 -2.97389 -0.190664 0
M  V30 3431 H 305.01 -1.46869 -0.0823694 0
M  V30 3432 H 306.968 -3.21492 -2.65893 0
M  V30 3433 H 305.598 -2.09129 -2.45896 0
M  V30 3434 H 304.65 -3.74115 -0.688605 0
M  V30 3435 H 305.962 -4.86113 -1.11784 0
M  V30 3436 H 305.116 -4.97619 -3.47074 0
M  V30 3437 H 303.855 -3.76749 -3.09696 0
M  V30 3438 H 302.86 -5.31879 -1.3923 0
M  V30 3439 H 304.085 -6.55033 -1.79189 0
M  V30 3440 H 302.031 -5.40297 -3.72041 0
M  V30 3441 H 301.948 -6.95725 -2.9581 0
M  V30 3442 H 303.216 -6.62898 -4.10106 0
M  V30 3443 N 307.445 0.0818655 -1.57387 0
M  V30 3444 C 308.355 1.11642 -2.06333 0
M  V30 3445 C 309.371 1.43033 -0.99083 0
M  V30 3446 O 310.547 1.53411 -1.30488 0
M  V30 3447 C 307.612 2.41342 -2.48907 0
M  V30 3448 C 306.673 2.17014 -3.7041 0
M  V30 3449 C 305.906 3.4053 -4.10944 0
M  V30 3450 O 306.129 4.4927 -3.51444 0
M  V30 3451 O 305.063 3.29336 -5.03807 0
M  V30 3452 H 308.889 0.730657 -2.9478 0
M  V30 3453 H 306.474 0.295301 -1.46452 0
M  V30 3454 H 308.356 3.17691 -2.76858 0
M  V30 3455 H 307.031 2.79319 -1.63593 0
M  V30 3456 H 305.938 1.38403 -3.47556 0
M  V30 3457 H 307.271 1.83923 -4.56545 0
M  V30 3458 N 308.923 1.53595 0.353017 0
M  V30 3459 C 310.171 1.70049 1.09215 0
M  V30 3460 C 310.492 0.461406 1.89463 0
M  V30 3461 O 309.762 -0.524633 1.88744 0
M  V30 3462 H 308.342 0.626912 0.40619 0
M  V30 3463 H 311.004 1.90822 0.396585 0
M  V30 3464 H 310.1 2.56718 1.77488 0
M  V30 3465 N 310.401 -0.613514 1.45168 0
M  V30 3466 C 311.331 -1.7354 1.56225 0
M  V30 3467 C 312.312 -1.64981 0.41414 0
M  V30 3468 O 313.497 -1.83472 0.636526 0
M  V30 3469 C 310.627 -3.12128 1.52295 0
M  V30 3470 C 309.581 -3.35491 2.65762 0
M  V30 3471 C 308.907 -4.74291 2.46885 0
M  V30 3472 C 310.207 -3.26325 4.0781 0
M  V30 3473 H 311.901 -1.64543 2.50132 0
M  V30 3474 H 309.447 -0.790185 1.20383 0
M  V30 3475 H 311.4 -3.90404 1.58628 0
M  V30 3476 H 310.124 -3.2195 0.549139 0
M  V30 3477 H 308.783 -2.59603 2.58847 0
M  V30 3478 H 308.431 -4.80839 1.47657 0
M  V30 3479 H 308.131 -4.9088 3.22972 0
M  V30 3480 H 309.655 -5.54775 2.55063 0
M  V30 3481 H 311.069 -3.94483 4.16 0
M  V30 3482 H 309.466 -3.54445 4.8424 0
M  V30 3483 H 310.536 -2.23855 4.30136 0
M  V30 3484 N 311.879 -1.3236 -0.855495 0
M  V30 3485 C 313.295 -1.11332 -1.14356 0
M  V30 3486 C 313.495 0.106751 -2.01217 0
M  V30 3487 O 312.551 0.791891 -2.39761 0
M  V30 3488 C 313.864 -2.39237 -1.82171 0
M  V30 3489 C 315.412 -2.44986 -1.9481 0
M  V30 3490 C 315.887 -3.7281 -2.66039 0
M  V30 3491 N 317.378 -3.73787 -2.73565 0
M  V30 3492 C 318.113 -4.69394 -3.29327 0
M  V30 3493 N 317.609 -5.75367 -3.85907 0
M  V30 3494 N 319.402 -4.56893 -3.27423 0
M  V30 3495 H 311.553 -2.10586 -0.277027 0
M  V30 3496 H 313.816 -0.929701 -0.185364 0
M  V30 3497 H 313.522 -3.28431 -1.25802 0
M  V30 3498 H 313.396 -2.50134 -2.82335 0
M  V30 3499 H 315.783 -1.56252 -2.50338 0
M  V30 3500 H 315.864 -2.38043 -0.936448 0
M  V30 3501 H 315.508 -4.61918 -2.11174 0
M  V30 3502 H 315.438 -3.77024 -3.67642 0
M  V30 3503 H 317.929 -2.97189 -2.33424 0
M  V30 3504 H 318.242 -6.44378 -4.26611 0
M  V30 3505 H 316.587 -5.79123 -3.84242 0
M  V30 3506 H 319.778 -3.73269 -2.82467 0
M  V30 3507 H 319.951 -5.31577 -3.7058 0
M  V30 3508 N 313.357 1.07166 -1.15556 0
M  V30 3509 C 314.289 2.14341 -0.811815 0
M  V30 3510 C 315.302 1.61835 0.177015 0
M  V30 3511 O 316.491 1.78439 -0.0464996 0
M  V30 3512 C 313.591 3.38387 -0.186481 0
M  V30 3513 C 312.764 4.20238 -1.21321 0
M  V30 3514 C 311.823 5.2266 -0.609302 0
M  V30 3515 O 310.849 5.54719 -1.27576 0
M  V30 3516 N 312.051 5.77306 0.608099 0
M  V30 3517 H 314.816 2.44431 -1.73417 0
M  V30 3518 H 312.377 1.23089 -1.0517 0
M  V30 3519 H 314.369 4.04044 0.230339 0
M  V30 3520 H 312.939 3.05994 0.639249 0
M  V30 3521 H 312.159 3.50369 -1.80652 0
M  V30 3522 H 313.447 4.71736 -1.90638 0
M  V30 3523 H 312.845 5.53513 1.1679 0
M  V30 3524 H 311.402 6.44583 0.96725 0
M  V30 3525 N 314.835 0.952656 1.25548 0
M  V30 3526 C 316.06 0.623025 1.97821 0
M  V30 3527 C 316.485 -0.7976 1.70352 0
M  V30 3528 O 315.843 -1.53905 0.958283 0
M  V30 3529 C 315.891 0.885532 3.49558 0
M  V30 3530 O 314.995 -0.0366641 4.12384 0
M  V30 3531 H 314.336 0.237082 0.620232 0
M  V30 3532 H 316.866 1.27871 1.59719 0
M  V30 3533 H 316.876 0.811009 3.99858 0
M  V30 3534 H 315.551 1.92094 3.6888 0
M  V30 3535 H 314.128 0.0898954 3.72792 0
M  V30 3536 N 316.313 -1.40141 0.720998 0
M  V30 3537 C 317.243 -2.33339 0.0867621 0
M  V30 3538 C 318.224 -1.53178 -0.739622 0
M  V30 3539 O 319.409 -1.81625 -0.687449 0
M  V30 3540 C 316.539 -3.37194 -0.831728 0
M  V30 3541 C 315.493 -4.27857 -0.110558 0
M  V30 3542 C 314.819 -5.22294 -1.14513 0
M  V30 3543 C 316.119 -5.11872 1.0385 0
M  V30 3544 H 317.813 -2.86626 0.865219 0
M  V30 3545 H 315.359 -1.37814 0.417516 0
M  V30 3546 H 317.312 -4.01335 -1.28485 0
M  V30 3547 H 316.036 -2.82314 -1.64214 0
M  V30 3548 H 314.695 -3.65176 0.322797 0
M  V30 3549 H 314.343 -4.63717 -1.94874 0
M  V30 3550 H 314.043 -5.83797 -0.667446 0
M  V30 3551 H 315.567 -5.89312 -1.59824 0
M  V30 3552 H 316.981 -5.69436 0.664482 0
M  V30 3553 H 315.378 -5.82445 1.4449 0
M  V30 3554 H 316.448 -4.4753 1.86668 0
M  V30 3555 N 317.792 -0.46758 -1.50504 0
M  V30 3556 C 319.203 -0.0116166 -1.86696 0
M  V30 3557 C 319.554 1.39202 -1.38265 0
M  V30 3558 O 318.679 2.0313 -0.746132 0
M  V30 3559 C 319.274 -0.0143044 -3.38797 0
M  V30 3560 C 317.833 0.386175 -3.74414 0
M  V30 3561 C 316.98 -0.401287 -2.74381 0
M  V30 3562 H 319.931 -0.682022 -1.43297 0
M  V30 3563 H 319.952 0.788641 -3.72237 0
M  V30 3564 H 319.464 -1.03602 -3.74016 0
M  V30 3565 H 317.565 1.41237 -3.44794 0
M  V30 3566 H 317.678 0.0899596 -4.79016 0
M  V30 3567 H 316.042 0.144536 -2.5429 0
M  V30 3568 H 316.825 -1.42244 -3.12444 0
M  V30 3569 N 319.27 1.56325 -0.20005 0
M  V30 3570 C 320.495 2.02548 0.44597 0
M  V30 3571 C 320.92 1.07922 1.5406 0
M  V30 3572 O 320.278 0.0635775 1.81188 0
M  V30 3573 C 320.326 3.47175 0.974761 0
M  V30 3574 O 319.43 3.55671 2.08739 0
M  V30 3575 H 318.771 0.655862 0.103638 0
M  V30 3576 H 321.301 2.02201 -0.312381 0
M  V30 3577 H 321.311 3.87067 1.2901 0
M  V30 3578 H 319.986 4.15538 0.17347 0
M  V30 3579 H 318.563 3.27657 1.78032 0
M  V30 3580 N 320.748 -0.0735177 1.57428 0
M  V30 3581 C 321.995 -0.772999 1.87166 0
M  V30 3582 C 322.323 -1.77665 0.791551 0
M  V30 3583 O 321.578 -1.94541 -0.212636 0
M  V30 3584 C 321.877 -1.51799 3.23561 0
M  V30 3585 C 321.543 -0.654484 4.46125 0
M  V30 3586 C 320.205 -0.416511 4.79394 0
M  V30 3587 C 322.557 -0.0555862 5.2117 0
M  V30 3588 C 319.885 0.429869 5.85123 0
M  V30 3589 C 322.237 0.778239 6.27795 0
M  V30 3590 C 320.901 1.0261 6.59566 0
M  V30 3591 H 320.171 -0.282861 0.684888 0
M  V30 3592 H 322.818 -0.0338272 1.9147 0
M  V30 3593 H 321.123 -2.32932 3.1504 0
M  V30 3594 H 322.82 -2.06397 3.43804 0
M  V30 3595 H 319.41 -0.850091 4.20085 0
M  V30 3596 H 323.594 -0.226558 4.95783 0
M  V30 3597 H 318.85 0.630665 6.08139 0
M  V30 3598 H 323.024 1.24906 6.85107 0
M  V30 3599 H 320.651 1.68371 7.4132 0
M  V30 3600 N 322.226 -1.5378 -0.344866 0
M  V30 3601 C 323.136 -1.84667 -1.4469 0
M  V30 3602 C 324.152 -0.736704 -1.57635 0
M  V30 3603 O 325.328 -1.02888 -1.73136 0
M  V30 3604 C 322.393 -2.04869 -2.79696 0
M  V30 3605 C 321.454 -3.28731 -2.76106 0
M  V30 3606 C 320.687 -3.4796 -4.04673 0
M  V30 3607 O 320.91 -2.71052 -5.01883 0
M  V30 3608 O 319.844 -4.41383 -4.09224 0
M  V30 3609 H 323.67 -2.78334 -1.21506 0
M  V30 3610 H 321.255 -1.39418 -0.536921 0
M  V30 3611 H 323.137 -2.19609 -3.59652 0
M  V30 3612 H 321.812 -1.14391 -3.02814 0
M  V30 3613 H 320.719 -3.19396 -1.94774 0
M  V30 3614 H 322.052 -4.19198 -2.57941 0
M  V30 3615 N 323.704 0.605807 -1.45491 0
M  V30 3616 C 324.634 1.72709 -1.57143 0
M  V30 3617 C 325.615 1.6476 -0.422884 0
M  V30 3618 O 326.8 1.83132 -0.646247 0
M  V30 3619 C 323.93 3.11316 -1.53948 0
M  V30 3620 C 322.884 3.34077 -2.67537 0
M  V30 3621 C 322.21 4.72975 -2.49397 0
M  V30 3622 C 323.51 3.24158 -4.09535 0
M  V30 3623 H 325.204 1.63214 -2.51001 0
M  V30 3624 H 322.75 0.78379 -1.208 0
M  V30 3625 H 324.703 3.89557 -1.60696 0
M  V30 3626 H 323.427 3.21655 -0.566205 0
M  V30 3627 H 322.086 2.58227 -2.6022 0
M  V30 3628 H 321.734 4.8005 -1.50205 0
M  V30 3629 H 321.434 4.8916 -3.25571 0
M  V30 3630 H 322.958 5.53414 -2.58002 0
M  V30 3631 H 324.372 3.92271 -4.18086 0
M  V30 3632 H 322.769 3.51872 -4.86113 0
M  V30 3633 H 323.839 2.2157 -4.31317 0
M  V30 3634 N 325.182 1.32811 0.848464 0
M  V30 3635 C 326.114 1.18095 1.96433 0
M  V30 3636 C 327.127 0.114354 1.62398 0
M  V30 3637 O 328.316 0.363892 1.74751 0
M  V30 3638 C 325.416 0.786798 3.2964 0
M  V30 3639 C 324.589 1.943 3.91875 0
M  V30 3640 C 323.648 1.53138 5.03423 0
M  V30 3641 O 322.674 2.24432 5.23086 0
M  V30 3642 N 323.876 0.430915 5.78898 0
M  V30 3643 H 326.641 2.14218 2.09597 0
M  V30 3644 H 324.202 1.2543 1.02367 0
M  V30 3645 H 326.194 0.493715 4.01677 0
M  V30 3646 H 324.764 -0.0834541 3.12489 0
M  V30 3647 H 323.984 2.40224 3.12547 0
M  V30 3648 H 325.272 2.71689 4.30189 0
M  V30 3649 H 324.67 -0.162333 5.65467 0
M  V30 3650 H 323.227 0.197466 6.51501 0
M  V30 3651 N 326.66 -1.06551 1.16123 0
M  V30 3652 C 327.937 -1.76097 0.85142 0
M  V30 3653 C 328.317 -2.00802 -0.6513 0
M  V30 3654 O 327.665 -1.63302 -1.59827 0
M  V30 3655 C 327.875 -3.06384 1.67122 0
M  V30 3656 C 329.223 -3.80585 1.88255 0
M  V30 3657 O 330.247 -3.16218 1.63966 0
M  V30 3658 O 329.106 -4.96212 2.2899 0
M  V30 3659 H 326.2 -0.765102 0.313923 0
M  V30 3660 H 328.746 -1.12844 1.26745 0
M  V30 3661 H 327.518 -2.84071 2.69108 0
M  V30 3662 H 327.141 -3.77371 1.25206 0
M  V30 3663 N 328.138 -0.959301 -1.25041 0
M  V30 3664 C 329.384 -0.617525 -1.9317 0
M  V30 3665 C 329.717 0.843981 -1.74902 0
M  V30 3666 O 328.992 1.60615 -1.09696 0
M  V30 3667 C 329.275 -0.982736 -3.46431 0
M  V30 3668 C 329.128 -2.50032 -3.73904 0
M  V30 3669 C 330.447 -0.511176 -4.37121 0
M  V30 3670 H 327.566 -0.22582 -0.701552 0
M  V30 3671 H 330.208 -1.19679 -1.4757 0
M  V30 3672 H 328.358 -0.489806 -3.854 0
M  V30 3673 H 330.03 -3.06737 -3.44544 0
M  V30 3674 H 328.273 -2.93598 -3.19348 0
M  V30 3675 H 328.944 -2.70635 -4.81103 0
M  V30 3676 H 331.42 -0.934075 -4.0548 0
M  V30 3677 H 330.296 -0.795361 -5.43107 0
M  V30 3678 H 330.557 0.588834 -4.38161 0
M  V30 3679 N 329.616 1.39756 -0.72842 0
M  V30 3680 C 330.546 2.33289 -0.0991354 0
M  V30 3681 C 331.527 1.53568 0.731489 0
M  V30 3682 O 332.712 1.81987 0.677807 0
M  V30 3683 C 329.842 3.3763 0.813834 0
M  V30 3684 C 328.796 4.2791 0.0878663 0
M  V30 3685 C 328.122 5.22894 1.11741 0
M  V30 3686 C 329.422 5.11314 -1.06563 0
M  V30 3687 H 331.116 2.86163 -0.880408 0
M  V30 3688 H 328.662 1.37591 -0.424819 0
M  V30 3689 H 330.615 4.0201 1.26355 0
M  V30 3690 H 329.339 2.83181 1.62715 0
M  V30 3691 H 327.998 3.65 -0.342159 0
M  V30 3692 H 327.646 4.64744 1.92412 0
M  V30 3693 H 327.346 5.84143 0.636477 0
M  V30 3694 H 328.87 5.90151 1.56697 0
M  V30 3695 H 330.284 5.69076 -0.694671 0
M  V30 3696 H 328.681 5.81671 -1.47577 0
M  V30 3697 H 329.751 4.46534 -1.89038 0
M  V30 3698 N 331.094 0.475555 1.50254 0
M  V30 3699 C 332.322 -0.0754493 2.06762 0
M  V30 3700 C 332.737 -1.33111 1.33891 0
M  V30 3701 O 332.094 -1.77846 0.40952 0
M  V30 3702 C 332.145 -0.359008 3.59713 0
M  V30 3703 O 331.866 0.846851 4.29837 0
M  V30 3704 C 333.367 -0.956484 4.32858 0
M  V30 3705 H 330.587 0.00907525 0.670939 0
M  V30 3706 H 333.131 0.665618 1.93364 0
M  V30 3707 H 331.286 -1.05001 3.72899 0
M  V30 3708 H 331.7 0.594162 5.21124 0
M  V30 3709 H 333.174 -1.10463 5.40834 0
M  V30 3710 H 333.651 -1.94775 3.93649 0
M  V30 3711 H 334.257 -0.303723 4.24214 0
M  V30 3712 N 332.573 -1.56217 0.208337 0
M  V30 3713 C 333.483 -2.23316 -0.718836 0
M  V30 3714 C 334.499 -1.23648 -1.22422 0
M  V30 3715 O 335.675 -1.56423 -1.26861 0
M  V30 3716 C 332.74 -2.88968 -1.91568 0
M  V30 3717 C 331.801 -4.03943 -1.45357 0
M  V30 3718 C 331.034 -4.66455 -2.59337 0
M  V30 3719 O 331.257 -4.27919 -3.77149 0
M  V30 3720 O 330.191 -5.55686 -2.31293 0
M  V30 3721 H 334.017 -3.03182 -0.177315 0
M  V30 3722 H 331.602 -1.49384 -0.0215402 0
M  V30 3723 H 333.484 -3.30455 -2.61491 0
M  V30 3724 H 332.159 -2.12071 -2.44556 0
M  V30 3725 H 331.066 -3.67052 -0.722746 0
M  V30 3726 H 332.399 -4.82543 -0.970219 0
M  V30 3727 N 334.051 0.0651679 -1.57465 0
M  V30 3728 C 335.281 0.774683 -1.91526 0
M  V30 3729 C 335.689 1.71305 -0.803196 0
M  V30 3730 O 335.032 1.82231 0.231881 0
M  V30 3731 C 335.094 1.61645 -3.21109 0
M  V30 3732 C 334.758 0.846753 -4.49087 0
M  V30 3733 C 335.755 0.163024 -5.19644 0
M  V30 3734 C 333.44 0.811966 -4.95694 0
M  V30 3735 C 335.434 -0.54519 -6.35064 0
M  V30 3736 C 333.121 0.0999836 -6.11018 0
M  V30 3737 C 334.119 -0.577388 -6.80555 0
M  V30 3738 O 333.807 -1.27789 -7.93678 0
M  V30 3739 H 333.539 0.225031 -0.637446 0
M  V30 3740 H 336.093 0.0377134 -2.05365 0
M  V30 3741 H 334.323 2.39638 -3.03497 0
M  V30 3742 H 336.012 2.20525 -3.40769 0
M  V30 3743 H 336.778 0.181163 -4.84662 0
M  V30 3744 H 332.657 1.32867 -4.41438 0
M  V30 3745 H 336.201 -1.07446 -6.89276 0
M  V30 3746 H 332.098 0.0797945 -6.45451 0
M  V30 3747 H 332.866 -1.18784 -8.09835 0
M  V30 3748 N 335.529 1.53961 0.336706 0
M  V30 3749 C 336.769 1.73254 1.08454 0
M  V30 3750 C 337.133 0.488937 1.8567 0
M  V30 3751 O 338.334 0.559001 2.62923 0
M  V30 3752 C 336.605 2.96519 1.99528 0
M  V30 3753 S 338.164 3.36655 2.81441 0
M  V30 3754 H 334.982 0.609353 0.366347 0
M  V30 3755 H 337.584 1.92117 0.362124 0
M  V30 3756 H 336.288 3.85193 1.41614 0
M  V30 3757 H 335.819 2.80142 2.76196 0
M  V30 3758 H 337.834 2.90925 4.01967 0
M  V30 3759 N 337.007 -0.598083 1.45811 0
M  V30 3760 C 338.235 -1.38322 1.53866 0
M  V30 3761 C 338.65 -1.87992 0.174479 0
M  V30 3762 O 338.007 -1.62756 -0.825627 0
M  V30 3763 C 338.058 -2.58125 2.53089 0
M  V30 3764 O 337.779 -2.10516 3.84206 0
M  V30 3765 C 339.28 -3.50869 2.70935 0
M  V30 3766 H 336.5 -0.423093 0.520801 0
M  V30 3767 H 339.044 -0.728527 1.91083 0
M  V30 3768 H 337.199 -3.19615 2.18917 0
M  V30 3769 H 337.613 -2.88425 4.38077 0
M  V30 3770 H 339.087 -4.31451 3.44317 0
M  V30 3771 H 339.564 -4.01822 1.77301 0
M  V30 3772 H 340.17 -2.95225 3.06141 0
M  V30 3773 N 338.485 -1.33259 -0.841409 0
M  V30 3774 C 339.71 -1.2775 -1.63385 0
M  V30 3775 C 340.135 0.149188 -1.87507 0
M  V30 3776 O 339.493 1.10498 -1.43736 0
M  V30 3777 C 339.541 -2.05571 -2.96265 0
M  V30 3778 O 338.645 -1.41257 -3.87453 0
M  V30 3779 H 337.986 -0.439627 -0.497618 0
M  V30 3780 H 340.516 -1.75782 -1.04699 0
M  V30 3781 H 340.526 -2.16241 -3.45982 0
M  V30 3782 H 339.201 -3.09309 -2.7803 0
M  V30 3783 H 337.778 -1.39217 -3.45938 0
M  V30 3784 N 339.963 1.05934 -1.16686 0
M  V30 3785 C 340.91 2.13499 -0.876748 0
M  V30 3786 C 341.88 1.65162 0.176299 0
M  V30 3787 O 343.065 1.90757 0.0407143 0
M  V30 3788 C 340.205 3.42912 -0.387967 0
M  V30 3789 C 339.318 4.04964 -1.50426 0
M  V30 3790 C 338.453 5.22266 -0.970125 0
M  V30 3791 C 337.492 5.76309 -2.06238 0
M  V30 3792 N 336.629 6.84922 -1.54356 0
M  V30 3793 H 341.469 2.37654 -1.7979 0
M  V30 3794 H 339.006 1.16598 -0.896843 0
M  V30 3795 H 340.964 4.17111 -0.086186 0
M  V30 3796 H 339.594 3.18963 0.496235 0
M  V30 3797 H 338.646 3.28277 -1.92193 0
M  V30 3798 H 339.958 4.41122 -2.32836 0
M  V30 3799 H 339.112 6.03506 -0.621743 0
M  V30 3800 H 337.851 4.87564 -0.115377 0
M  V30 3801 H 336.856 4.93704 -2.41942 0
M  V30 3802 H 338.081 6.13062 -2.92115 0
M  V30 3803 H 336.027 6.52131 -0.711406 0
M  V30 3804 H 335.944 7.20043 -2.30379 0
M  V30 3805 H 337.212 7.69832 -1.22387 0
M  V30 3806 N 341.441 0.965919 1.2453 0
M  V30 3807 C 342.669 0.644385 1.96609 0
M  V30 3808 C 343.084 -0.785823 1.71669 0
M  V30 3809 O 342.441 -1.52703 0.999399 0
M  V30 3810 C 342.492 0.907375 3.49927 0
M  V30 3811 O 342.213 2.28136 3.74013 0
M  V30 3812 C 343.714 0.599784 4.39224 0
M  V30 3813 H 340.934 0.240588 0.626385 0
M  V30 3814 H 343.478 1.29337 1.58405 0
M  V30 3815 H 341.633 0.304631 3.862 0
M  V30 3816 H 342.047 2.36002 4.68405 0
M  V30 3817 H 343.521 0.834263 5.45659 0
M  V30 3818 H 343.998 -0.465921 4.36722 0
M  V30 3819 H 344.604 1.18235 4.08535 0
M  V30 3820 N 342.919 -1.39368 0.735821 0
M  V30 3821 C 343.867 -2.32443 0.0855131 0
M  V30 3822 C 344.861 -1.53104 -0.724954 0
M  V30 3823 O 346.067 -1.68762 -0.626047 0
M  V30 3824 H 342.442 -0.751948 0.00885257 0
M  V30 3825 H 344.413 -2.84916 0.886883 0
M  V30 3826 C 343.162 -3.38206 -0.806983 0
M  V30 3827 H 342.485 -3.99335 -0.19274 0
M  V30 3828 H 343.925 -4.05779 -1.2296 0
M  V30 3829 C 342.384 -2.75321 -1.94165 0
M  V30 3830 O 342.914 -2.63231 -3.03435 0
M  V30 3831 N 341.12 -2.33396 -1.73132 0
M  V30 3832 H 340.667 -2.4343 -0.842596 0
M  V30 3833 H 340.625 -1.91661 -2.49225 0
M  V30 3834 N 344.397 -0.483516 -1.5 0
M  V30 3835 C 345.625 0.0644831 -2.06799 0
M  V30 3836 C 346.04 1.32399 -1.34596 0
M  V30 3837 O 345.397 1.77626 -0.418946 0
M  V30 3838 C 345.448 0.339927 -3.59898 0
M  V30 3839 O 345.169 -0.869635 -4.29382 0
M  V30 3840 C 346.67 0.933515 -4.33359 0
M  V30 3841 H 343.89 -0.0126333 -0.670881 0
M  V30 3842 H 346.434 -0.675864 -1.93009 0
M  V30 3843 H 344.589 1.03022 -3.7345 0
M  V30 3844 H 345.003 -0.62179 -5.20801 0
M  V30 3845 H 346.477 1.07593 -5.41413 0
M  V30 3846 H 346.954 1.92685 -3.94676 0
M  V30 3847 H 347.56 0.281221 -4.24369 0
M  V30 3848 N 345.875 1.56104 -0.216619 0
M  V30 3849 C 347.123 1.97781 0.415593 0
M  V30 3850 C 347.444 1.10536 1.60645 0
M  V30 3851 O 346.714 0.181303 1.95059 0
M  V30 3852 H 345.294 0.730415 0.156534 0
M  V30 3853 H 347.956 1.92445 -0.308366 0
M  V30 3854 H 347.052 3.03072 0.74525 0
M  V30 3855 N 347.353 -0.0568162 1.57498 0
M  V30 3856 C 348.263 -1.08346 2.08083 0
M  V30 3857 C 349.279 -1.41439 1.01346 0
M  V30 3858 O 350.455 -1.51316 1.32912 0
M  V30 3859 C 347.52 -2.37352 2.52715 0
M  V30 3860 C 346.581 -2.11093 3.73816 0
M  V30 3861 C 345.814 -3.33949 4.1631 0
M  V30 3862 O 346.037 -4.43622 3.58547 0
M  V30 3863 O 344.971 -3.21279 5.08983 0
M  V30 3864 H 348.797 -0.683667 2.95905 0
M  V30 3865 H 346.382 -0.271965 1.46904 0
M  V30 3866 H 348.264 -3.13246 2.81877 0
M  V30 3867 H 346.939 -2.76681 1.68016 0
M  V30 3868 H 345.846 -1.32856 3.49714 0
M  V30 3869 H 347.179 -1.76637 4.59413 0
M  V30 3870 N 348.832 -1.54138 -0.328536 0
M  V30 3871 C 350.062 -1.75807 -1.08516 0
M  V30 3872 C 350.47 -0.50428 -1.82356 0
M  V30 3873 O 349.813 0.534451 -1.75754 0
M  V30 3874 C 349.875 -2.89423 -2.13248 0
M  V30 3875 C 349.539 -4.28504 -1.5885 0
M  V30 3876 C 350.536 -5.09536 -1.03289 0
M  V30 3877 C 348.221 -4.75034 -1.63243 0
M  V30 3878 C 350.215 -6.35206 -0.52845 0
M  V30 3879 C 347.902 -6.00672 -1.12411 0
M  V30 3880 C 348.9 -6.80592 -0.573062 0
M  V30 3881 O 348.588 -8.03867 -0.0723692 0
M  V30 3882 H 348.32 -0.590633 -0.328829 0
M  V30 3883 H 350.874 -2.01819 -0.381868 0
M  V30 3884 H 349.104 -2.5897 -2.87178 0
M  V30 3885 H 350.793 -2.98921 -2.74592 0
M  V30 3886 H 351.559 -4.74745 -0.99206 0
M  V30 3887 H 347.438 -4.12875 -2.05074 0
M  V30 3888 H 350.982 -6.97532 -0.0976774 0
M  V30 3889 H 346.879 -6.34955 -1.162 0
M  V30 3890 H 347.647 -8.18283 -0.188258 0
M  V30 3891 N 350.31 0.590341 -1.46126 0
M  V30 3892 C 351.535 1.37991 -1.54833 0
M  V30 3893 C 351.96 1.87163 -0.187506 0
M  V30 3894 O 351.318 1.61133 0.831008 0
M  V30 3895 C 351.366 2.54867 -2.55098 0
M  V30 3896 O 350.47 3.56061 -2.08073 0
M  V30 3897 H 349.811 0.411265 -0.521303 0
M  V30 3898 H 352.341 0.716819 -1.91632 0
M  V30 3899 H 352.351 3.01886 -2.74461 0
M  V30 3900 H 351.026 2.18429 -3.53923 0
M  V30 3901 H 349.603 3.15574 -1.98664 0
M  V30 3902 N 351.788 1.33704 0.83433 0
M  V30 3903 C 353.028 1.26754 1.60352 0
M  V30 3904 C 353.392 -0.163182 1.91305 0
M  V30 3905 O 354.593 -0.3567 2.66423 0
M  V30 3906 C 352.864 2.12262 2.8754 0
M  V30 3907 S 354.423 2.22549 3.78176 0
M  V30 3908 H 351.241 0.450879 0.549753 0
M  V30 3909 H 353.843 1.68788 0.986444 0
M  V30 3910 H 352.547 3.15238 2.62779 0
M  V30 3911 H 352.078 1.71082 3.54252 0
M  V30 3912 H 354.093 1.3899 4.76336 0
M  V30 3913 N 353.266 -1.05314 1.17247 0
M  V30 3914 C 354.229 -2.112 0.890357 0
M  V30 3915 C 355.229 -1.60359 -0.118943 0
M  V30 3916 O 356.419 -1.73833 0.113086 0
M  V30 3917 C 353.551 -3.39266 0.333422 0
M  V30 3918 H 354.744 -2.37659 1.82916 0
M  V30 3919 H 352.297 -1.21538 0.982758 0
M  V30 3920 H 353.032 -3.18462 -0.612587 0
M  V30 3921 H 352.817 -3.77477 1.06082 0
M  V30 3922 H 354.307 -4.17315 0.154322 0
M  V30 3923 N 354.744 -0.972509 -1.24016 0
M  V30 3924 C 356.16 -0.679827 -1.44397 0
M  V30 3925 C 356.36 0.756716 -1.86751 0
M  V30 3926 O 355.416 1.53007 -2.00861 0
M  V30 3927 C 356.729 -1.66803 -2.50195 0
M  V30 3928 C 358.277 -1.68119 -2.64017 0
M  V30 3929 C 358.752 -2.65748 -3.73017 0
M  V30 3930 N 360.243 -2.64219 -3.8045 0
M  V30 3931 C 360.978 -3.36433 -4.64328 0
M  V30 3932 N 360.474 -4.1818 -5.52356 0
M  V30 3933 N 362.267 -3.25235 -4.58453 0
M  V30 3934 H 354.418 -1.90059 -0.948228 0
M  V30 3935 H 356.681 -0.818527 -0.478245 0
M  V30 3936 H 356.387 -2.69498 -2.25973 0
M  V30 3937 H 356.261 -1.4446 -3.48441 0
M  V30 3938 H 358.648 -0.661319 -2.87594 0
M  V30 3939 H 358.729 -1.94525 -1.66113 0
M  V30 3940 H 358.373 -3.67872 -3.50189 0
M  V30 3941 H 358.303 -2.36619 -4.70446 0
M  V30 3942 H 360.794 -2.04887 -3.17537 0
M  V30 3943 H 361.107 -4.70157 -6.13329 0
M  V30 3944 H 359.452 -4.22273 -5.52006 0
M  V30 3945 H 362.643 -2.60829 -3.88698 0
M  V30 3946 H 362.816 -3.81776 -5.23594 0
M  V30 3947 N 356.222 1.38976 -0.743202 0
M  V30 3948 C 357.468 2.0064 -0.295189 0
M  V30 3949 C 357.801 1.5885 1.11716 0
M  V30 3950 O 357.076 0.821181 1.76315 0
M  V30 3951 C 357.359 3.578 -0.406318 0
M  V30 3952 C 357.212 4.09586 -1.85903 0
M  V30 3953 C 358.531 4.39616 0.206439 0
M  V30 3954 H 355.65 0.728935 -0.108733 0
M  V30 3955 H 358.292 1.65067 -0.940897 0
M  V30 3956 H 356.442 3.88235 0.143419 0
M  V30 3957 H 358.114 3.89837 -2.46627 0
M  V30 3958 H 356.357 3.6284 -2.3776 0
M  V30 3959 H 357.028 5.18708 -1.888 0
M  V30 3960 H 359.504 4.15273 -0.262283 0
M  V30 3961 H 358.38 5.48812 0.0983819 0
M  V30 3962 H 358.641 4.22754 1.2935 0
M  V30 3963 N 357.7 0.491464 1.49741 0
M  V30 3964 C 358.63 -0.28154 2.31796 0
M  V30 3965 C 359.611 -0.971473 1.3963 0
M  V30 3966 O 360.796 -0.964719 1.68543 0
M  V30 3967 C 357.926 -1.35203 3.19902 0
M  V30 3968 C 356.88 -0.782529 4.20786 0
M  V30 3969 C 356.206 -1.95283 4.97764 0
M  V30 3970 C 357.506 0.21999 5.21837 0
M  V30 3971 H 359.2 0.403355 2.96671 0
M  V30 3972 H 356.746 0.195425 1.42668 0
M  V30 3973 H 358.699 -1.90045 3.76113 0
M  V30 3974 H 357.423 -2.06598 2.52953 0
M  V30 3975 H 356.082 -0.255928 3.65706 0
M  V30 3976 H 355.73 -2.65423 4.2727 0
M  V30 3977 H 355.43 -1.57789 5.66018 0
M  V30 3978 H 356.954 -2.50577 5.56816 0
M  V30 3979 H 358.368 -0.23996 5.72798 0
M  V30 3980 H 356.765 0.51026 5.97927 0
M  V30 3981 H 357.835 1.13911 4.7133 0
M  V30 3982 N 359.178 -1.55987 0.224894 0
M  V30 3983 C 360.108 -2.23426 -0.678457 0
M  V30 3984 C 361.089 -1.20709 -1.19847 0
M  V30 3985 O 362.274 -1.49304 -1.24186 0
M  V30 3986 C 359.404 -2.91676 -1.88527 0
M  V30 3987 C 358.358 -4.00893 -1.49896 0
M  V30 3988 C 357.684 -4.56455 -2.78483 0
M  V30 3989 C 358.984 -5.17769 -0.686461 0
M  V30 3990 H 360.678 -2.99175 -0.116173 0
M  V30 3991 H 358.224 -1.43897 -0.054436 0
M  V30 3992 H 360.177 -3.37547 -2.5227 0
M  V30 3993 H 358.901 -2.1338 -2.47258 0
M  V30 3994 H 357.56 -3.55758 -0.884985 0
M  V30 3995 H 357.208 -3.74886 -3.35365 0
M  V30 3996 H 356.908 -5.30169 -2.53368 0
M  V30 3997 H 358.432 -5.05047 -3.43162 0
M  V30 3998 H 359.846 -5.60001 -1.22767 0
M  V30 3999 H 358.243 -5.97735 -0.532259 0
M  V30 4000 H 359.313 -4.83932 0.306196 0
M  V30 4001 N 360.656 0.0484629 -1.57525 0
M  V30 4002 C 361.586 1.0549 -2.08313 0
M  V30 4003 C 362.567 1.38929 -0.981463 0
M  V30 4004 O 363.752 1.48151 -1.25558 0
M  V30 4005 C 360.882 2.36162 -2.54646 0
M  V30 4006 C 359.836 2.17016 -3.68901 0
M  V30 4007 C 359.162 3.53278 -4.01371 0
M  V30 4008 C 360.462 1.57219 -4.98076 0
M  V30 4009 H 362.156 0.632195 -2.92649 0
M  V30 4010 H 359.702 0.302654 -1.40784 0
M  V30 4011 H 361.655 3.06882 -2.88793 0
M  V30 4012 H 360.379 2.80456 -1.67368 0
M  V30 4013 H 359.038 1.48733 -3.35073 0
M  V30 4014 H 358.686 3.95185 -3.11188 0
M  V30 4015 H 358.386 3.41299 -4.78318 0
M  V30 4016 H 359.91 4.25391 -4.38035 0
M  V30 4017 H 361.324 2.17832 -5.30304 0
M  V30 4018 H 359.721 1.55871 -5.79503 0
M  V30 4019 H 360.791 0.535956 -4.81929 0
M  V30 4020 N 362.134 1.5431 0.320358 0
M  V30 4021 C 363.064 1.86912 1.3995 0
M  V30 4022 C 364.045 0.726211 1.53819 0
M  V30 4023 O 365.23 0.980233 1.67646 0
M  V30 4024 C 362.36 2.09932 2.7667 0
M  V30 4025 C 361.314 3.25776 2.77586 0
M  V30 4026 C 360.64 3.34173 4.17412 0
M  V30 4027 C 361.94 4.6335 2.41048 0
M  V30 4028 H 363.634 2.77292 1.12914 0
M  V30 4029 H 361.18 1.33421 0.541738 0
M  V30 4030 H 363.133 2.31324 3.52232 0
M  V30 4031 H 361.857 1.16304 3.0519 0
M  V30 4032 H 360.516 3.04276 2.04479 0
M  V30 4033 H 360.164 2.38098 4.43078 0
M  V30 4034 H 359.864 4.12033 4.18931 0
M  V30 4035 H 361.388 3.57803 4.94782 0
M  V30 4036 H 362.802 4.84602 3.06324 0
M  V30 4037 H 361.199 5.43782 2.53813 0
M  V30 4038 H 362.269 4.65381 1.36193 0
M  V30 4039 N 363.613 -0.582584 1.46437 0
M  V30 4040 C 365.029 -0.905962 1.31394 0
M  V30 4041 C 365.229 -1.99468 0.285476 0
M  V30 4042 O 364.285 -2.50566 -0.311914 0
M  V30 4043 C 365.598 -1.3232 2.70022 0
M  V30 4044 C 367.146 -1.43604 2.78113 0
M  V30 4045 C 367.621 -1.88694 4.17323 0
M  V30 4046 N 369.112 -1.95887 4.19741 0
M  V30 4047 C 369.847 -2.32051 5.24347 0
M  V30 4048 N 369.343 -2.67006 6.39281 0
M  V30 4049 N 371.136 -2.32606 5.11713 0
M  V30 4050 H 363.287 0.1366 2.1196 0
M  V30 4051 H 365.55 -0.00155736 0.947999 0
M  V30 4052 H 365.256 -0.597242 3.46592 0
M  V30 4053 H 365.13 -2.28469 3.00136 0
M  V30 4054 H 367.517 -2.15286 2.01832 0
M  V30 4055 H 367.598 -0.457059 2.51684 0
M  V30 4056 H 367.242 -1.1759 4.941 0
M  V30 4057 H 367.172 -2.8755 4.4116 0
M  V30 4058 H 369.663 -1.71362 3.36814 0
M  V30 4059 H 369.976 -2.93554 7.14875 0
M  V30 4060 H 368.321 -2.64644 6.42642 0
M  V30 4061 H 371.512 -2.04721 4.2096 0
M  V30 4062 H 371.685 -2.60462 5.93349 0
M  V30 4063 N 365.091 -1.34144 -0.827227 0
M  V30 4064 C 366.507 -1.13732 -1.11969 0
M  V30 4065 C 366.707 0.0640463 -2.01398 0
M  V30 4066 O 365.763 0.740856 -2.41387 0
M  V30 4067 C 367.076 -2.43047 -1.77055 0
M  V30 4068 C 368.624 -2.49063 -1.89569 0
M  V30 4069 C 369.099 -3.78369 -2.58072 0
M  V30 4070 N 370.59 -3.79505 -2.65575 0
M  V30 4071 C 371.325 -4.76274 -3.19297 0
M  V30 4072 N 370.821 -5.83424 -3.73616 0
M  V30 4073 N 372.614 -4.63735 -3.17658 0
M  V30 4074 H 364.765 -2.11126 -0.232296 0
M  V30 4075 H 367.028 -0.933424 -0.165602 0
M  V30 4076 H 366.734 -3.31025 -1.18807 0
M  V30 4077 H 366.608 -2.56066 -2.76966 0
M  V30 4078 H 368.995 -1.61527 -2.46968 0
M  V30 4079 H 369.076 -2.39975 -0.885745 0
M  V30 4080 H 368.72 -4.66293 -2.01329 0
M  V30 4081 H 368.65 -3.84737 -3.59562 0
M  V30 4082 H 371.141 -3.02074 -2.27068 0
M  V30 4083 H 371.454 -6.53282 -4.12846 0
M  V30 4084 H 369.799 -5.87143 -3.71871 0
M  V30 4085 H 372.99 -3.79177 -2.74486 0
M  V30 4086 H 373.163 -5.39318 -3.59221 0
M  V30 4087 N 366.569 1.04691 -1.17803 0
M  V30 4088 C 367.479 2.16057 -0.914151 0
M  V30 4089 C 368.495 1.73589 0.119503 0
M  V30 4090 O 369.671 2.01308 -0.0609468 0
M  V30 4091 C 366.736 3.4394 -0.436603 0
M  V30 4092 C 365.797 4.00825 -1.53746 0
M  V30 4093 C 365.03 5.22604 -1.0826 0
M  V30 4094 O 365.253 5.70367 0.0612244 0
M  V30 4095 O 364.187 5.7186 -1.87775 0
M  V30 4096 H 368.013 2.41169 -1.84584 0
M  V30 4097 H 365.598 1.1453 -0.959334 0
M  V30 4098 H 367.48 4.21024 -0.178057 0
M  V30 4099 H 366.155 3.20316 0.466869 0
M  V30 4100 H 365.062 3.25158 -1.84995 0
M  V30 4101 H 366.395 4.28778 -2.41683 0
M  V30 4102 N 368.047 0.979072 1.23499 0
M  V30 4103 C 369.277 0.664237 1.95631 0
M  V30 4104 C 369.685 -0.772653 1.72704 0
M  V30 4105 O 369.028 -1.53141 1.01457 0
M  V30 4106 C 369.09 0.873115 3.48736 0
M  V30 4107 C 368.754 2.29182 3.95379 0
M  V30 4108 C 369.751 3.2704 4.04155 0
M  V30 4109 C 367.436 2.62256 4.28401 0
M  V30 4110 C 369.43 4.56052 4.45304 0
M  V30 4111 C 367.117 3.91491 4.69231 0
M  V30 4112 C 368.115 4.88201 4.77649 0
M  V30 4113 O 367.803 6.15129 5.17563 0
M  V30 4114 H 367.535 0.245915 0.629684 0
M  V30 4115 H 370.089 1.3127 1.57979 0
M  V30 4116 H 368.319 0.167476 3.86337 0
M  V30 4117 H 370.008 0.555642 4.02079 0
M  V30 4118 H 370.774 3.02819 3.78848 0
M  V30 4119 H 366.653 1.87692 4.21061 0
M  V30 4120 H 370.197 5.31538 4.51789 0
M  V30 4121 H 366.094 4.15508 4.93987 0
M  V30 4122 H 366.862 6.18862 5.35679 0
M  V30 4123 N 369.525 -1.3858 0.750561 0
M  V30 4124 C 370.941 -1.53759 0.427824 0
M  V30 4125 C 371.141 -1.71401 -1.05943 0
M  V30 4126 O 370.197 -1.72331 -1.84549 0
M  V30 4127 C 371.51 -2.74642 1.22443 0
M  V30 4128 C 373.058 -2.88489 1.2142 0
M  V30 4129 C 373.533 -4.12329 1.9937 0
M  V30 4130 N 375.024 -4.194 1.96616 0
M  V30 4131 C 375.759 -5.14209 2.53727 0
M  V30 4132 N 375.255 -6.14709 3.19539 0
M  V30 4133 N 377.048 -5.06537 2.43673 0
M  V30 4134 H 369.199 -1.25377 1.71447 0
M  V30 4135 H 371.462 -0.608844 0.726645 0
M  V30 4136 H 371.168 -2.68 2.27747 0
M  V30 4137 H 371.042 -3.67745 0.839273 0
M  V30 4138 H 373.429 -2.94614 0.169232 0
M  V30 4139 H 373.51 -1.96406 1.63885 0
M  V30 4140 H 373.154 -4.06966 3.03877 0
M  V30 4141 H 373.084 -5.03486 1.54302 0
M  V30 4142 H 375.575 -3.47421 1.48684 0
M  V30 4143 H 375.888 -6.8354 3.60545 0
M  V30 4144 H 374.233 -6.1505 3.23633 0
M  V30 4145 H 377.424 -4.26962 1.91889 0
M  V30 4146 H 377.597 -5.80245 2.88479 0
M  V30 4147 N 371.003 -0.499398 -1.49478 0
M  V30 4148 C 372.25 0.0456899 -2.02448 0
M  V30 4149 C 372.578 1.37142 -1.37921 0
M  V30 4150 O 371.833 1.89111 -0.503544 0
M  V30 4151 C 372.132 0.248424 -3.56536 0
M  V30 4152 C 371.798 -0.999107 -4.39692 0
M  V30 4153 C 370.46 -1.34108 -4.62135 0
M  V30 4154 C 372.812 -1.82842 -4.88076 0
M  V30 4155 C 370.14 -2.51191 -5.30208 0
M  V30 4156 C 372.492 -2.99076 -5.57437 0
M  V30 4157 C 371.156 -3.33655 -5.78127 0
M  V30 4158 H 370.426 0.0167191 -0.740811 0
M  V30 4159 H 373.073 -0.65923 -1.79795 0
M  V30 4160 H 371.378 1.03586 -3.77859 0
M  V30 4161 H 373.075 0.684605 -3.95113 0
M  V30 4162 H 369.665 -0.722729 -4.22463 0
M  V30 4163 H 373.849 -1.57737 -4.70566 0
M  V30 4164 H 369.105 -2.78221 -5.44429 0
M  V30 4165 H 373.279 -3.63664 -5.93904 0
M  V30 4166 H 370.906 -4.24483 -6.30649 0
M  V30 4167 N 372.481 1.55866 -0.233164 0
M  V30 4168 C 373.706 2.03449 0.402906 0
M  V30 4169 C 374.131 1.11166 1.51736 0
M  V30 4170 O 373.489 0.101996 1.81013 0
M  V30 4171 C 373.537 3.49165 0.9009 0
M  V30 4172 O 372.641 3.60019 2.01147 0
M  V30 4173 H 371.982 0.657913 0.0897025 0
M  V30 4174 H 374.512 2.01493 -0.355201 0
M  V30 4175 H 374.522 3.89716 1.2077 0
M  V30 4176 H 373.197 4.15813 0.0852889 0
M  V30 4177 H 371.774 3.3136 1.71042 0
M  V30 4178 N 373.959 -0.0401083 1.57549 0
M  V30 4179 C 375.189 -0.744115 1.92734 0
M  V30 4180 C 375.597 -1.70005 0.830348 0
M  V30 4181 O 374.94 -1.82576 -0.20286 0
M  V30 4182 C 375.002 -1.56516 3.2364 0
M  V30 4183 C 374.666 -0.7752 4.50377 0
M  V30 4184 C 375.663 -0.0803326 5.19838 0
M  V30 4185 C 373.348 -0.733002 4.96923 0
M  V30 4186 C 375.342 0.646154 6.34116 0
M  V30 4187 C 373.029 -0.00276321 6.111 0
M  V30 4188 C 374.027 0.685585 6.7955 0
M  V30 4189 O 373.715 1.40399 7.91545 0
M  V30 4190 H 373.447 -0.214861 0.640945 0
M  V30 4191 H 376.001 -0.00503675 2.05399 0
M  V30 4192 H 374.231 -2.3478 3.07271 0
M  V30 4193 H 375.92 -2.15076 3.44234 0
M  V30 4194 H 376.686 -0.104035 4.84888 0
M  V30 4195 H 372.565 -1.25827 4.43496 0
M  V30 4196 H 376.109 1.18398 6.87479 0
M  V30 4197 H 372.006 0.0229012 6.45496 0
M  V30 4198 H 372.774 1.31653 8.07843 0
M  V30 4199 N 375.437 -1.54477 -0.31217 0
M  V30 4200 C 376.667 -1.76948 -1.06645 0
M  V30 4201 C 377.075 -0.523593 -1.81811 0
M  V30 4202 O 376.418 0.51578 -1.76311 0
M  V30 4203 C 376.48 -2.91668 -2.10166 0
M  V30 4204 C 376.144 -4.30165 -1.54296 0
M  V30 4205 C 377.141 -5.10603 -0.978793 0
M  V30 4206 C 374.826 -4.76738 -1.58196 0
M  V30 4207 C 376.82 -6.3573 -0.461048 0
M  V30 4208 C 374.507 -6.01831 -1.06034 0
M  V30 4209 C 375.505 -6.81161 -0.500844 0
M  V30 4210 O 375.193 -8.03899 0.0128958 0
M  V30 4211 H 374.925 -0.594088 -0.322546 0
M  V30 4212 H 377.479 -2.02213 -0.360441 0
M  V30 4213 H 375.709 -2.62001 -2.84416 0
M  V30 4214 H 377.398 -3.01817 -2.71406 0
M  V30 4215 H 378.164 -4.75771 -0.941651 0
M  V30 4216 H 374.043 -4.15027 -2.00683 0
M  V30 4217 H 377.587 -6.97596 -0.0236894 0
M  V30 4218 H 373.484 -6.36152 -1.09459 0
M  V30 4219 H 374.252 -8.18437 -0.101457 0
M  V30 4220 N 376.915 0.57481 -1.46744 0
M  V30 4221 C 377.845 1.69337 -1.60771 0
M  V30 4222 C 378.826 1.63825 -0.457736 0
M  V30 4223 O 380.011 1.8172 -0.684947 0
M  V30 4224 C 377.141 3.0798 -1.60517 0
M  V30 4225 C 376.095 3.28327 -2.74564 0
M  V30 4226 C 375.421 4.67578 -2.59373 0
M  V30 4227 C 376.721 3.15398 -4.16319 0
M  V30 4228 H 378.415 1.57853 -2.54407 0
M  V30 4229 H 375.961 0.75799 -1.22436 0
M  V30 4230 H 377.914 3.86061 -1.68923 0
M  V30 4231 H 376.638 3.20381 -0.634305 0
M  V30 4232 H 375.297 2.52649 -2.65639 0
M  V30 4233 H 374.945 4.76755 -1.60353 0
M  V30 4234 H 374.645 4.82144 -3.35873 0
M  V30 4235 H 376.169 5.47817 -2.69682 0
M  V30 4236 H 377.583 3.83315 -4.26313 0
M  V30 4237 H 375.98 3.41482 -4.93468 0
M  V30 4238 H 377.05 2.12372 -4.3592 0
M  V30 4239 N 378.394 1.34581 0.820102 0
M  V30 4240 C 379.643 1.26437 1.57151 0
M  V30 4241 C 379.956 -0.163111 1.94919 0
M  V30 4242 O 381.162 -0.366722 2.69012 0
M  V30 4243 C 379.618 2.21658 2.83541 0
M  V30 4244 C 379.226 3.69679 2.53065 0
M  V30 4245 C 380.97 2.22428 3.61561 0
M  V30 4246 C 378.877 4.56761 3.75664 0
M  V30 4247 H 377.807 0.469707 0.589823 0
M  V30 4248 H 380.458 1.59763 0.902656 0
M  V30 4249 H 378.84 1.81287 3.52067 0
M  V30 4250 H 380.014 4.18605 1.92631 0
M  V30 4251 H 378.329 3.71384 1.88316 0
M  V30 4252 H 380.926 2.8471 4.52597 0
M  V30 4253 H 381.269 1.22434 3.97889 0
M  V30 4254 H 381.802 2.61259 2.99981 0
M  V30 4255 H 378.541 5.57702 3.44454 0
M  V30 4256 H 378.061 4.12568 4.35371 0
M  V30 4257 H 379.74 4.71509 4.43044 0
M  V30 4258 N 379.872 -1.04064 1.18357 0
M  V30 4259 C 380.804 -2.12114 0.868358 0
M  V30 4260 C 381.817 -1.62247 -0.134045 0
M  V30 4261 O 383.006 -1.78253 0.0937933 0
M  V30 4262 C 380.106 -3.37773 0.276132 0
M  V30 4263 C 379.279 -4.16874 1.3242 0
M  V30 4264 C 378.338 -5.20861 0.747662 0
M  V30 4265 O 377.364 -5.51141 1.42239 0
M  V30 4266 N 378.566 -5.78715 -0.454823 0
M  V30 4267 H 381.331 -2.39748 1.79836 0
M  V30 4268 H 378.892 -1.20258 1.08396 0
M  V30 4269 H 380.884 -4.04513 -0.123133 0
M  V30 4270 H 379.454 -3.07581 -0.557895 0
M  V30 4271 H 378.674 -3.45456 1.89878 0
M  V30 4272 H 379.962 -4.66516 2.03078 0
M  V30 4273 H 379.36 -5.56415 -1.02073 0
M  V30 4274 H 377.917 -6.46921 -0.79601 0
M  V30 4275 N 381.35 -0.985608 -1.22978 0
M  V30 4276 C 382.28 -0.549649 -2.26939 0
M  V30 4277 C 383.261 0.419803 -1.64838 0
M  V30 4278 O 384.446 0.31203 -1.91677 0
M  V30 4279 C 381.576 0.143652 -3.47003 0
M  V30 4280 C 380.53 -0.743606 -4.21491 0
M  V30 4281 C 379.856 0.0822027 -5.34637 0
M  V30 4282 C 381.156 -2.03694 -4.80943 0
M  V30 4283 H 382.85 -1.41862 -2.63658 0
M  V30 4284 H 380.396 -0.683571 -1.26741 0
M  V30 4285 H 382.349 0.459985 -4.18882 0
M  V30 4286 H 381.073 1.04711 -3.09359 0
M  V30 4287 H 379.732 -1.04347 -3.51436 0
M  V30 4288 H 379.38 0.986359 -4.93234 0
M  V30 4289 H 379.08 -0.508377 -5.85397 0
M  V30 4290 H 380.604 0.392797 -6.09335 0
M  V30 4291 H 382.018 -1.78504 -5.44802 0
M  V30 4292 H 380.415 -2.57573 -5.42011 0
M  V30 4293 H 381.485 -2.72042 -4.01399 0
M  V30 4294 N 382.828 1.3818 -0.7579 0
M  V30 4295 C 384.058 2.04004 -0.326463 0
M  V30 4296 C 384.466 1.57286 1.05156 0
M  V30 4297 O 383.809 0.743144 1.67997 0
M  V30 4298 C 383.871 3.58444 -0.275402 0
M  V30 4299 C 383.535 4.28237 -1.59569 0
M  V30 4300 C 384.532 4.53312 -2.54566 0
M  V30 4301 C 382.217 4.66341 -1.86631 0
M  V30 4302 C 384.211 5.15531 -3.74842 0
M  V30 4303 C 381.898 5.28283 -3.0718 0
M  V30 4304 C 382.896 5.52814 -4.01106 0
M  V30 4305 O 382.584 6.13465 -5.19534 0
M  V30 4306 H 382.316 0.662026 -0.136739 0
M  V30 4307 H 384.87 1.7777 -1.02893 0
M  V30 4308 H 383.1 3.83667 0.483337 0
M  V30 4309 H 384.789 4.05701 0.127099 0
M  V30 4310 H 385.555 4.24299 -2.34936 0
M  V30 4311 H 381.434 4.46591 -1.14358 0
M  V30 4312 H 384.978 5.34594 -4.48168 0
M  V30 4313 H 380.875 5.56719 -3.26702 0
M  V30 4314 H 381.643 6.31951 -5.20173 0
M  V30 4315 N 384.306 0.507319 1.49211 0
M  V30 4316 C 385.555 -0.0368315 2.01666 0
M  V30 4317 C 385.868 -1.37459 1.39156 0
M  V30 4318 O 387.074 -2.00579 1.82976 0
M  V30 4319 C 385.53 -0.116089 3.59713 0
M  V30 4320 C 385.138 1.2154 4.31198 0
M  V30 4321 C 386.882 -0.610268 4.2009 0
M  V30 4322 C 384.789 1.09796 5.81119 0
M  V30 4323 H 383.719 -0.0175376 0.753796 0
M  V30 4324 H 386.37 0.647691 1.71689 0
M  V30 4325 H 384.752 -0.8652 3.86433 0
M  V30 4326 H 385.926 1.9783 4.16173 0
M  V30 4327 H 384.241 1.64352 3.82593 0
M  V30 4328 H 386.838 -0.715742 5.29888 0
M  V30 4329 H 387.181 -1.61064 3.8388 0
M  V30 4330 H 387.714 0.0824916 3.97714 0
M  V30 4331 H 384.453 2.0728 6.21864 0
M  V30 4332 H 383.973 0.376058 5.9862 0
M  V30 4333 H 385.652 0.779281 6.4229 0
M  V30 4334 N 385.784 -1.5574 0.241426 0
M  V30 4335 C 387.195 -1.84842 -0.262755 0
M  V30 4336 C 387.546 -1.16317 -1.58003 0
M  V30 4337 O 386.671 -0.439653 -2.11887 0
M  V30 4338 C 387.266 -3.35332 -0.483523 0
M  V30 4339 C 385.825 -3.6468 -0.931977 0
M  V30 4340 C 384.972 -2.77299 -0.0061151 0
M  V30 4341 H 387.923 -1.51761 0.464129 0
M  V30 4342 H 387.944 -3.56615 -1.32688 0
M  V30 4343 H 387.456 -3.85178 0.47537 0
M  V30 4344 H 385.557 -3.20307 -1.90353 0
M  V30 4345 H 385.67 -4.72498 -0.792628 0
M  V30 4346 H 384.034 -2.49408 -0.516503 0
M  V30 4347 H 384.817 -3.2995 0.948052 0
M  V30 4348 N 387.262 0.0317525 -1.57568 0
M  V30 4349 C 388.502 0.727979 -1.90997 0
M  V30 4350 C 388.866 1.72664 -0.839708 0
M  V30 4351 O 390.067 2.47092 -1.05825 0
M  V30 4352 C 388.338 1.38239 -3.29583 0
M  V30 4353 S 389.897 2.10814 -3.84841 0
M  V30 4354 H 386.715 0.241226 -0.668828 0
M  V30 4355 H 389.317 -0.0173037 -1.95492 0
M  V30 4356 H 388.021 0.642288 -4.05343 0
M  V30 4357 H 387.552 2.16628 -3.28384 0
M  V30 4358 H 389.567 3.3792 -3.63352 0
M  V30 4359 N 388.74 1.54641 0.303973 0
M  V30 4360 C 389.989 1.7299 1.03717 0
M  V30 4361 C 390.302 0.521168 1.88529 0
M  V30 4362 O 391.508 0.586408 2.65092 0
M  V30 4363 C 389.964 3.06051 1.89369 0
M  V30 4364 C 389.572 4.34393 1.09574 0
M  V30 4365 C 391.316 3.3376 2.62306 0
M  V30 4366 C 389.223 5.58506 1.94486 0
M  V30 4367 H 388.153 0.64473 0.390947 0
M  V30 4368 H 390.804 1.81124 0.294328 0
M  V30 4369 H 389.186 2.91874 2.67629 0
M  V30 4370 H 390.36 4.59396 0.359485 0
M  V30 4371 H 388.675 4.13597 0.482324 0
M  V30 4372 H 391.272 4.23687 3.26181 0
M  V30 4373 H 391.615 2.52503 3.3098 0
M  V30 4374 H 392.148 3.48894 1.91097 0
M  V30 4375 H 388.887 6.42422 1.30287 0
M  V30 4376 H 388.407 5.37694 2.65792 0
M  V30 4377 H 390.086 5.95651 2.52605 0
M  V30 4378 N 390.218 -0.567019 1.47046 0
M  V30 4379 C 391.151 -1.69016 1.53326 0
M  V30 4380 C 392.129 -1.57949 0.386126 0
M  V30 4381 O 393.313 -1.78945 0.592529 0
M  V30 4382 C 390.44 -3.07191 1.42658 0
M  V30 4383 C 389.486 -3.36733 2.6175 0
M  V30 4384 S 390.319 -3.27069 4.24012 0
M  V30 4385 C 391.475 -4.67755 4.1588 0
M  V30 4386 H 391.708 -1.63434 2.48348 0
M  V30 4387 H 389.241 -0.747048 1.35124 0
M  V30 4388 H 391.199 -3.86897 1.37191 0
M  V30 4389 H 389.86 -3.10249 0.490369 0
M  V30 4390 H 389.053 -4.37441 2.50323 0
M  V30 4391 H 388.655 -2.64627 2.64289 0
M  V30 4392 H 390.947 -5.58491 3.83529 0
M  V30 4393 H 391.89 -4.84239 5.16641 0
M  V30 4394 H 392.298 -4.45341 3.46889 0
M  V30 4395 N 391.696 -1.35014 -0.812953 0
M  V30 4396 C 392.626 -1.30069 -1.93919 0
M  V30 4397 C 393.607 -0.176275 -1.69184 0
M  V30 4398 O 394.792 -0.370227 -1.90638 0
M  V30 4399 C 391.922 -1.06547 -3.30552 0
M  V30 4400 C 390.876 -2.15561 -3.69753 0
M  V30 4401 C 390.202 -1.77214 -5.04479 0
M  V30 4402 C 391.502 -3.57476 -3.808 0
M  V30 4403 H 393.196 -2.24303 -1.98314 0
M  V30 4404 H 390.742 -1.07977 -0.952736 0
M  V30 4405 H 392.695 -1.01729 -4.08937 0
M  V30 4406 H 391.419 -0.0875719 -3.26483 0
M  V30 4407 H 390.078 -2.19466 -2.9365 0
M  V30 4408 H 389.726 -0.780589 -4.96906 0
M  V30 4409 H 389.426 -2.50184 -5.31678 0
M  V30 4410 H 390.95 -1.7391 -5.8531 0
M  V30 4411 H 392.364 -3.55929 -4.4943 0
M  V30 4412 H 390.761 -4.29152 -4.19462 0
M  V30 4413 H 391.831 -3.94091 -2.82525 0
M  V30 4414 N 393.175 1.03435 -1.18907 0
M  V30 4415 C 394.421 1.77005 -0.989798 0
M  V30 4416 C 394.754 1.88205 0.478816 0
M  V30 4417 O 394.029 1.39481 1.35556 0
M  V30 4418 C 394.312 3.19925 -1.65287 0
M  V30 4419 C 394.165 3.1663 -3.19477 0
M  V30 4420 C 395.484 4.18189 -1.37134 0
M  V30 4421 H 392.603 0.642538 -0.360991 0
M  V30 4422 H 395.245 1.20784 -1.46667 0
M  V30 4423 H 393.395 3.67929 -1.24741 0
M  V30 4424 H 395.067 2.76567 -3.692 0
M  V30 4425 H 393.31 2.54491 -3.51307 0
M  V30 4426 H 393.981 4.1758 -3.61013 0
M  V30 4427 H 396.457 3.78761 -1.72276 0
M  V30 4428 H 395.333 5.16394 -1.86087 0
M  V30 4429 H 395.594 4.41112 -0.295424 0
M  V30 4430 N 394.653 0.992116 1.22453 0
M  V30 4431 C 395.899 0.668523 1.91464 0
M  V30 4432 C 396.232 -0.797313 1.77078 0
M  V30 4433 O 395.507 -1.5765 1.13916 0
M  V30 4434 C 395.79 1.07424 3.43703 0
M  V30 4435 C 395.643 2.59857 3.67143 0
M  V30 4436 C 396.962 0.626891 4.35612 0
M  V30 4437 H 394.081 0.244341 0.695318 0
M  V30 4438 H 396.723 1.2355 1.44345 0
M  V30 4439 H 394.873 0.591816 3.83966 0
M  V30 4440 H 396.545 3.15764 3.3629 0
M  V30 4441 H 394.788 3.01961 3.11451 0
M  V30 4442 H 395.459 2.83296 4.73759 0
M  V30 4443 H 397.935 1.04125 4.02861 0
M  V30 4444 H 396.811 0.939076 5.40807 0
M  V30 4445 H 397.072 -0.472457 4.39568 0
M  V30 4446 N 396.131 -1.37776 0.765217 0
M  V30 4447 C 397.377 -2.00145 0.327072 0
M  V30 4448 C 397.71 -1.60607 -1.09175 0
M  V30 4449 O 396.985 -0.849127 -1.74986 0
M  V30 4450 C 397.268 -3.57109 0.46319 0
M  V30 4451 C 397.121 -4.06576 1.92395 0
M  V30 4452 C 398.44 -4.39888 -0.136473 0
M  V30 4453 H 395.559 -0.727113 0.120316 0
M  V30 4454 H 398.201 -1.63549 0.967039 0
M  V30 4455 H 396.351 -3.88414 -0.0816358 0
M  V30 4456 H 398.023 -3.85864 2.52798 0
M  V30 4457 H 396.266 -3.59011 2.43503 0
M  V30 4458 H 396.937 -5.15639 1.97028 0
M  V30 4459 H 399.413 -4.14803 0.328317 0
M  V30 4460 H 398.289 -5.48899 -0.0110582 0
M  V30 4461 H 398.55 -4.24758 -1.22608 0
M  V30 4462 N 397.609 -0.515225 -1.4894 0
M  V30 4463 C 398.834 0.022727 -2.07388 0
M  V30 4464 C 399.259 1.2876 -1.37122 0
M  V30 4465 O 398.617 1.76067 -0.432431 0
M  V30 4466 C 398.665 0.244869 -3.59768 0
M  V30 4467 O 397.769 1.31667 -3.90817 0
M  V30 4468 H 397.11 -0.0325506 -0.663202 0
M  V30 4469 H 399.64 -0.718918 -1.91553 0
M  V30 4470 H 399.65 0.47205 -4.0526 0
M  V30 4471 H 398.325 -0.679194 -4.10317 0
M  V30 4472 H 396.902 1.07331 -3.5712 0
M  V30 4473 N 399.087 1.5561 -0.249682 0
M  V30 4474 C 400.333 2.00044 0.367952 0
M  V30 4475 C 400.688 1.1349 1.55363 0
M  V30 4476 O 399.981 0.191079 1.90645 0
M  V30 4477 C 400.175 3.4775 0.824887 0
M  V30 4478 C 400.004 4.48596 -0.314973 0
M  V30 4479 C 398.774 4.99077 -0.790555 0
M  V30 4480 C 400.972 5.0144 -1.14291 0
M  V30 4481 N 398.954 5.83675 -1.90254 0
M  V30 4482 C 400.325 5.83236 -2.10322 0
M  V30 4483 C 402.38 4.83736 -1.17916 0
M  V30 4484 C 401.083 6.49217 -3.09692 0
M  V30 4485 C 403.109 5.50497 -2.16117 0
M  V30 4486 C 402.471 6.32084 -3.10884 0
M  V30 4487 H 398.57 0.775512 0.100522 0
M  V30 4488 H 401.154 1.91193 -0.367896 0
M  V30 4489 H 399.325 3.56994 1.53002 0
M  V30 4490 H 401.057 3.79056 1.4177 0
M  V30 4491 H 397.812 4.72119 -0.374218 0
M  V30 4492 H 398.236 6.30671 -2.46137 0
M  V30 4493 H 402.878 4.20286 -0.460352 0
M  V30 4494 H 400.596 7.11832 -3.8252 0
M  V30 4495 H 404.182 5.38752 -2.19631 0
M  V30 4496 H 403.062 6.82832 -3.8563 0
M  V30 4497 N 400.565 -0.0233959 1.57583 0
M  V30 4498 C 401.811 -0.714119 1.89811 0
M  V30 4499 C 402.144 -1.74702 0.848113 0
M  V30 4500 O 401.419 -1.94023 -0.136135 0
M  V30 4501 C 401.702 -1.37853 3.32669 0
M  V30 4502 C 401.555 -0.358764 4.48367 0
M  V30 4503 C 402.874 -2.31101 3.7454 0
M  V30 4504 H 399.993 -0.25814 0.690314 0
M  V30 4505 H 402.635 0.0230927 1.89986 0
M  V30 4506 H 400.785 -2.00689 3.3265 0
M  V30 4507 H 402.457 0.268115 4.6052 0
M  V30 4508 H 400.7 0.321387 4.32608 0
M  V30 4509 H 401.371 -0.862242 5.45224 0
M  V30 4510 H 403.847 -1.78304 3.75961 0
M  V30 4511 H 402.723 -2.74567 4.75294 0
M  V30 4512 H 402.984 -3.18018 3.0711 0
M  V30 4513 N 402.043 -1.548 -0.295768 0
M  V30 4514 C 403.268 -1.78653 -1.05346 0
M  V30 4515 C 403.693 -0.546894 -1.79974 0
M  V30 4516 O 403.051 0.502763 -1.7419 0
M  V30 4517 C 403.099 -2.99679 -2.00561 0
M  V30 4518 O 402.203 -2.7317 -3.08953 0
M  V30 4519 H 401.544 -0.59116 -0.302367 0
M  V30 4520 H 404.074 -2.01895 -0.331598 0
M  V30 4521 H 404.084 -3.27793 -2.42932 0
M  V30 4522 H 402.759 -3.89562 -1.4565 0
M  V30 4523 H 401.336 -2.56089 -2.71059 0
M  V30 4524 N 403.521 0.559213 -1.47345 0
M  V30 4525 C 404.768 1.31648 -1.53867 0
M  V30 4526 C 405.096 1.93468 -0.200104 0
M  V30 4527 O 404.351 1.78295 0.806799 0
M  V30 4528 C 404.65 2.44853 -2.6035 0
M  V30 4529 C 404.316 2.00876 -4.03683 0
M  V30 4530 C 402.978 1.88599 -4.42701 0
M  V30 4531 C 405.33 1.67279 -4.93626 0
M  V30 4532 C 402.658 1.41017 -5.69501 0
M  V30 4533 C 405.01 1.21169 -6.20887 0
M  V30 4534 C 403.674 1.07487 -6.58789 0
M  V30 4535 H 402.944 0.481734 -0.56304 0
M  V30 4536 H 405.591 0.627301 -1.80934 0
M  V30 4537 H 403.896 3.19318 -2.27032 0
M  V30 4538 H 405.593 3.03039 -2.62619 0
M  V30 4539 H 402.183 2.11374 -3.72853 0
M  V30 4540 H 406.367 1.75638 -4.64182 0
M  V30 4541 H 401.623 1.29086 -5.97618 0
M  V30 4542 H 405.797 0.942345 -6.89995 0
M  V30 4543 H 403.424 0.703946 -7.56934 0
M  V30 4544 N 404.999 1.35443 0.805782 0
M  V30 4545 C 406.245 1.2996 1.56467 0
M  V30 4546 C 406.6 -0.124742 1.91995 0
M  V30 4547 O 405.893 -1.07533 1.58579 0
M  V30 4548 C 406.087 2.14045 2.86216 0
M  V30 4549 C 405.916 3.64512 2.63365 0
M  V30 4550 C 404.686 4.33744 2.59219 0
M  V30 4551 C 406.884 4.58142 2.33688 0
M  V30 4552 N 404.866 5.69953 2.28094 0
M  V30 4553 C 406.237 5.8248 2.12408 0
M  V30 4554 C 408.292 4.46877 2.19558 0
M  V30 4555 C 406.995 6.96818 1.78429 0
M  V30 4556 C 409.021 5.61065 1.86976 0
M  V30 4557 C 408.383 6.84431 1.66532 0
M  V30 4558 H 404.482 0.530817 0.574245 0
M  V30 4559 H 407.066 1.70333 0.943126 0
M  V30 4560 H 405.237 1.75942 3.46264 0
M  V30 4561 H 406.969 2.00075 3.51784 0
M  V30 4562 H 403.724 3.86365 2.73896 0
M  V30 4563 H 404.148 6.41845 2.15323 0
M  V30 4564 H 408.79 3.52102 2.34061 0
M  V30 4565 H 406.508 7.91559 1.62664 0
M  V30 4566 H 410.094 5.54302 1.7675 0
M  V30 4567 H 408.974 7.71294 1.41688 0
M  V30 4568 N 406.477 -1.02803 1.19454 0
M  V30 4569 C 407.407 -2.12999 0.956758 0
M  V30 4570 C 408.388 -1.69743 -0.110188 0
M  V30 4571 O 409.573 -1.94148 0.0450038 0
M  V30 4572 C 406.703 -3.43746 0.495553 0
M  V30 4573 C 405.657 -4.00688 1.50443 0
M  V30 4574 C 404.983 -5.27067 0.900275 0
M  V30 4575 C 406.283 -4.35397 2.8849 0
M  V30 4576 H 407.977 -2.33148 1.87836 0
M  V30 4577 H 405.523 -1.12045 0.904539 0
M  V30 4578 H 407.476 -4.2021 0.316493 0
M  V30 4579 H 406.2 -3.23321 -0.461646 0
M  V30 4580 H 404.859 -3.2632 1.67065 0
M  V30 4581 H 404.507 -5.02959 -0.064503 0
M  V30 4582 H 404.207 -5.66127 1.57397 0
M  V30 4583 H 405.731 -6.06196 0.73203 0
M  V30 4584 H 407.145 -5.02795 2.75446 0
M  V30 4585 H 405.542 -4.85541 3.52661 0
M  V30 4586 H 406.612 -3.44662 3.41081 0
M  V30 4587 N 407.956 -0.998596 -1.21925 0
M  V30 4588 C 409.233 -0.593401 -1.86382 0
M  V30 4589 C 409.613 0.92916 -1.89552 0
M  V30 4590 O 408.961 1.81347 -1.39017 0
M  V30 4591 C 409.171 -1.22039 -3.26967 0
M  V30 4592 C 410.519 -1.32449 -4.03413 0
M  V30 4593 O 411.543 -1.17522 -3.36254 0
M  V30 4594 O 410.402 -1.56395 -5.23644 0
M  V30 4595 H 407.496 -0.202385 -0.801854 0
M  V30 4596 H 410.042 -1.09484 -1.29659 0
M  V30 4597 H 408.814 -2.26158 -3.19325 0
M  V30 4598 H 408.437 -0.704906 -3.91301 0
M  V30 4599 N 409.434 1.37368 -0.772513 0
M  V30 4600 C 410.381 2.30262 -0.157488 0
M  V30 4601 C 411.351 1.51137 0.688965 0
M  V30 4602 O 412.536 1.79704 0.641168 0
M  V30 4603 C 409.676 3.37611 0.715045 0
M  V30 4604 C 408.789 4.31746 -0.148098 0
M  V30 4605 C 407.924 5.26171 0.729213 0
M  V30 4606 C 406.963 6.11948 -0.136418 0
M  V30 4607 N 406.1 6.98613 0.698914 0
M  V30 4608 H 410.94 2.82277 -0.955179 0
M  V30 4609 H 408.477 1.38957 -0.482631 0
M  V30 4610 H 410.435 3.98479 1.23575 0
M  V30 4611 H 409.065 2.86959 1.47833 0
M  V30 4612 H 408.117 3.72178 -0.786613 0
M  V30 4613 H 409.429 4.92084 -0.81579 0
M  V30 4614 H 408.583 5.92247 1.31637 0
M  V30 4615 H 407.322 4.66246 1.43059 0
M  V30 4616 H 406.327 5.4485 -0.736102 0
M  V30 4617 H 407.552 6.73945 -0.835134 0
M  V30 4618 H 405.498 6.41215 1.38489 0
M  V30 4619 H 405.415 7.55948 0.0885358 0
M  V30 4620 H 406.683 7.69077 1.27044 0
M  V30 4621 N 410.912 0.523116 1.48665 0
M  V30 4622 C 412.189 -0.0775449 1.95446 0
M  V30 4623 C 412.569 -1.5197 1.4652 0
M  V30 4624 O 411.917 -2.17876 0.688657 0
M  V30 4625 C 412.127 0.0326135 3.48985 0
M  V30 4626 C 413.475 -0.130141 4.24401 0
M  V30 4627 O 414.499 -0.0415142 3.56176 0
M  V30 4628 O 413.358 -0.31491 5.45592 0
M  V30 4629 H 410.452 -0.0831012 0.822814 0
M  V30 4630 H 412.998 0.587227 1.59216 0
M  V30 4631 H 411.77 1.03748 3.77296 0
M  V30 4632 H 411.393 -0.671317 3.91892 0
M  V30 4633 N 412.39 -1.55475 0.257931 0
M  V30 4634 C 413.353 -2.20551 -0.623706 0
M  V30 4635 C 414.353 -1.17809 -1.09443 0
M  V30 4636 O 415.543 -1.42823 -0.997362 0
M  V30 4637 C 412.675 -2.85784 -1.8585 0
M  V30 4638 H 413.868 -2.99848 -0.0557743 0
M  V30 4639 H 411.421 -1.56298 0.0084422 0
M  V30 4640 H 412.156 -2.10453 -2.46739 0
M  V30 4641 H 411.941 -3.61057 -1.52907 0
M  V30 4642 H 413.431 -3.35553 -2.48584 0
M  V30 4643 N 413.868 0.0150385 -1.57593 0
M  V30 4644 C 415.114 0.704043 -1.90187 0
M  V30 4645 C 415.447 1.74249 -0.857366 0
M  V30 4646 O 414.722 1.94092 0.125843 0
M  V30 4647 C 415.005 1.36087 -3.33395 0
M  V30 4648 C 414.858 0.334981 -4.48551 0
M  V30 4649 C 416.177 2.29112 -3.7576 0
M  V30 4650 H 413.296 0.254475 -0.691673 0
M  V30 4651 H 415.938 -0.0331678 -1.89971 0
M  V30 4652 H 414.088 1.98922 -3.3371 0
M  V30 4653 H 415.76 -0.292534 -4.60372 0
M  V30 4654 H 414.003 -0.344325 -4.32431 0
M  V30 4655 H 414.674 0.833316 -5.45674 0
M  V30 4656 H 417.15 1.76308 -3.76902 0
M  V30 4657 H 416.026 2.72043 -4.76743 0
M  V30 4658 H 416.287 3.16385 -3.08793 0
M  V30 4659 N 415.346 1.54954 0.287554 0
M  V30 4660 C 416.757 1.65732 0.859634 0
M  V30 4661 C 417.108 0.574767 1.87592 0
M  V30 4662 O 416.233 -0.286299 2.14498 0
M  V30 4663 C 416.828 3.00438 1.56597 0
M  V30 4664 C 415.387 3.13292 2.08627 0
M  V30 4665 C 414.534 2.61473 0.923416 0
M  V30 4666 H 417.485 1.5857 0.0642338 0
M  V30 4667 H 417.506 2.92613 2.43224 0
M  V30 4668 H 417.018 3.79207 0.826053 0
M  V30 4669 H 415.119 2.39268 2.85625 0
M  V30 4670 H 415.232 4.19647 2.31157 0
M  V30 4671 H 413.596 2.18264 1.31275 0
M  V30 4672 H 414.379 3.42733 0.197241 0
M  V30 4673 N 416.824 -0.551391 1.4764 0
M  V30 4674 C 417.787 -1.64007 1.60107 0
M  V30 4675 C 418.787 -1.53601 0.47576 0
M  V30 4676 O 419.977 -1.57655 0.740988 0
M  V30 4677 C 417.109 -3.03569 1.55108 0
M  V30 4678 H 418.302 -1.543 2.57161 0
M  V30 4679 H 415.855 -0.771776 1.35917 0
M  V30 4680 H 416.59 -3.18804 0.594519 0
M  V30 4681 H 416.375 -3.12532 2.36783 0
M  V30 4682 H 417.865 -3.82762 1.66982 0
M  V30 4683 N 418.302 -1.35869 -0.798587 0
M  V30 4684 C 419.718 -1.16082 -1.09532 0
M  V30 4685 C 419.918 0.0213124 -2.01489 0
M  V30 4686 O 418.974 0.689488 -2.42904 0
M  V30 4687 C 420.287 -2.46748 -1.7186 0
M  V30 4688 C 421.835 -2.53028 -1.84244 0
M  V30 4689 C 422.31 -3.83758 -2.49988 0
M  V30 4690 N 423.801 -3.85053 -2.57465 0
M  V30 4691 C 424.536 -4.8294 -3.09122 0
M  V30 4692 N 424.032 -5.91217 -3.61157 0
M  V30 4693 N 425.825 -4.70369 -3.0775 0
M  V30 4694 H 417.976 -2.11571 -0.187461 0
M  V30 4695 H 420.239 -0.936726 -0.145765 0
M  V30 4696 H 419.945 -3.33471 -1.11759 0
M  V30 4697 H 419.819 -2.61883 -2.71472 0
M  V30 4698 H 422.206 -1.66729 -2.43486 0
M  V30 4699 H 422.287 -2.418 -0.834643 0
M  V30 4700 H 421.931 -4.70459 -1.91393 0
M  V30 4701 H 421.861 -3.92278 -3.5132 0
M  V30 4702 H 424.352 -3.06822 -2.20609 0
M  V30 4703 H 424.665 -6.61892 -3.98896 0
M  V30 4704 H 423.01 -5.94899 -3.59333 0
M  V30 4705 H 426.201 -3.84914 -2.66381 0
M  V30 4706 H 426.374 -5.46816 -3.47701 0
M  V30 4707 N 419.78 1.02168 -1.19998 0
M  V30 4708 C 421.026 1.75945 -1.00852 0
M  V30 4709 C 421.359 1.88702 0.458828 0
M  V30 4710 O 420.634 1.40911 1.34069 0
M  V30 4711 C 420.917 3.18154 -1.68671 0
M  V30 4712 C 420.77 3.13224 -3.22817 0
M  V30 4713 C 422.089 4.16711 -1.41561 0
M  V30 4714 H 419.208 0.638673 -0.367785 0
M  V30 4715 H 421.85 1.19222 -1.4794 0
M  V30 4716 H 420 3.66586 -1.28636 0
M  V30 4717 H 421.672 2.72635 -3.72112 0
M  V30 4718 H 419.915 2.50751 -3.53986 0
M  V30 4719 H 420.586 4.13728 -3.65422 0
M  V30 4720 H 423.062 3.76913 -1.76284 0
M  V30 4721 H 421.938 5.14391 -1.91553 0
M  V30 4722 H 422.199 4.40774 -0.342193 0
M  V30 4723 N 421.258 1.00505 1.21394 0
M  V30 4724 C 422.483 0.706367 1.95001 0
M  V30 4725 C 422.908 -0.72463 1.73582 0
M  V30 4726 O 422.266 -1.49702 1.0227 0
M  V30 4727 C 422.314 1.03299 3.45487 0
M  V30 4728 O 421.418 0.138275 4.12168 0
M  V30 4729 H 420.759 0.263175 0.609619 0
M  V30 4730 H 423.289 1.34531 1.54151 0
M  V30 4731 H 423.299 0.979872 3.96059 0
M  V30 4732 H 421.974 2.07567 3.60401 0
M  V30 4733 H 420.551 0.247928 3.72075 0
M  V30 4734 N 422.737 -1.36956 0.779787 0
M  V30 4735 C 423.667 -2.32761 0.185651 0
M  V30 4736 C 424.648 -1.56177 -0.673989 0
M  V30 4737 O 425.833 -1.84378 -0.609797 0
M  V30 4738 C 422.963 -3.40418 -0.687964 0
M  V30 4739 C 421.917 -4.27941 0.0710102 0
M  V30 4740 C 421.243 -5.26681 -0.922573 0
M  V30 4741 C 422.543 -5.07006 1.25467 0
M  V30 4742 H 424.237 -2.82698 0.986008 0
M  V30 4743 H 421.783 -1.3592 0.475592 0
M  V30 4744 H 423.736 -4.06423 -1.11348 0
M  V30 4745 H 422.46 -2.89025 -1.52093 0
M  V30 4746 H 421.119 -3.63478 0.47739 0
M  V30 4747 H 420.767 -4.71565 -1.7503 0
M  V30 4748 H 420.467 -5.86103 -0.419237 0
M  V30 4749 H 421.991 -5.9556 -1.34686 0
M  V30 4750 H 423.405 -5.66105 0.905401 0
M  V30 4751 H 421.802 -5.75793 1.69063 0
M  V30 4752 H 422.872 -4.3921 2.05481 0
M  V30 4753 N 424.215 -0.530993 -1.48385 0
M  V30 4754 C 425.463 0.00273189 -2.021 0
M  V30 4755 C 425.784 1.34672 -1.41027 0
M  V30 4756 O 425.054 1.8724 -0.576012 0
M  V30 4757 H 423.634 0.00399774 -0.746989 0
M  V30 4758 H 426.296 -0.695054 -1.82085 0
M  V30 4759 H 425.392 0.11031 -3.11905 0
M  V30 4760 N 425.693 1.55336 -0.266172 0
M  V30 4761 C 426.939 1.99692 0.353681 0
M  V30 4762 C 427.272 1.1543 1.56172 0
M  V30 4763 O 426.547 0.222218 1.93226 0
M  V30 4764 C 426.83 3.52316 0.74466 0
M  V30 4765 C 426.683 4.47337 -0.470101 0
M  V30 4766 C 428.002 4.10588 1.58447 0
M  V30 4767 H 425.121 0.725961 0.12708 0
M  V30 4768 H 427.763 1.86336 -0.371333 0
M  V30 4769 H 425.913 3.63829 1.36239 0
M  V30 4770 H 427.585 4.4778 -1.10864 0
M  V30 4771 H 425.828 4.19364 -1.10978 0
M  V30 4772 H 426.499 5.51788 -0.15291 0
M  V30 4773 H 428.975 4.02297 1.06286 0
M  V30 4774 H 427.851 5.17607 1.82686 0
M  V30 4775 H 428.112 3.60253 2.56262 0
M  V30 4776 N 427.171 -0.0066808 1.57599 0
M  V30 4777 C 428.399 -0.704087 1.94551 0
M  V30 4778 C 428.814 -1.67677 0.867746 0
M  V30 4779 O 428.171 -1.8185 -0.153925 0
M  V30 4780 C 428.222 -1.44177 3.31505 0
M  V30 4781 O 427.943 -0.508097 4.35144 0
M  V30 4782 C 429.444 -2.23429 3.82876 0
M  V30 4783 H 426.664 -0.196523 0.641576 0
M  V30 4784 H 429.208 0.042453 2.04456 0
M  V30 4785 H 427.363 -2.13999 3.22929 0
M  V30 4786 H 427.777 -1.02782 5.14331 0
M  V30 4787 H 429.251 -2.70552 4.8115 0
M  V30 4788 H 429.728 -3.05818 3.15233 0
M  V30 4789 H 430.334 -1.58636 3.94607 0
M  V30 4790 N 428.649 -1.55105 -0.279332 0
M  V30 4791 C 429.877 -1.7943 -1.03017 0
M  V30 4792 C 430.292 -0.564456 -1.80165 0
M  V30 4793 O 429.649 0.466326 -1.76442 0
M  V30 4794 C 429.7 -3.0155 -1.99374 0
M  V30 4795 O 429.421 -4.19784 -1.25352 0
M  V30 4796 C 430.922 -3.3843 -2.86321 0
M  V30 4797 H 428.142 -0.597882 -0.304594 0
M  V30 4798 H 430.686 -2.02105 -0.312035 0
M  V30 4799 H 428.841 -2.81019 -2.66659 0
M  V30 4800 H 429.255 -4.88781 -1.90246 0
M  V30 4801 H 430.729 -4.27066 -3.49741 0
M  V30 4802 H 431.206 -2.57549 -3.5576 0
M  V30 4803 H 431.812 -3.61197 -2.24536 0
M  V30 4804 N 430.127 0.543554 -1.4793 0
M  V30 4805 C 431.057 1.65888 -1.64327 0
M  V30 4806 C 432.038 1.62818 -0.492383 0
M  V30 4807 O 433.223 1.80226 -0.723338 0
M  V30 4808 C 430.353 3.04506 -1.67013 0
M  V30 4809 C 429.307 3.2243 -2.81466 0
M  V30 4810 C 428.633 4.61972 -2.69233 0
M  V30 4811 C 429.933 3.06496 -4.22915 0
M  V30 4812 H 431.627 1.52421 -2.57698 0
M  V30 4813 H 429.173 0.731849 -1.24016 0
M  V30 4814 H 431.126 3.82391 -1.77074 0
M  V30 4815 H 429.85 3.18964 -0.70212 0
M  V30 4816 H 428.509 2.46957 -2.70938 0
M  V30 4817 H 428.157 4.73247 -1.7043 0
M  V30 4818 H 427.857 4.74911 -3.46025 0
M  V30 4819 H 429.381 5.41974 -2.81242 0
M  V30 4820 H 430.795 3.74186 -4.34348 0
M  V30 4821 H 429.192 3.30938 -5.006 0
M  V30 4822 H 430.262 2.03077 -4.40327 0
M  V30 4823 N 431.605 1.3629 0.791371 0
M  V30 4824 C 432.535 1.33137 1.91825 0
M  V30 4825 C 433.516 0.203168 1.68882 0
M  V30 4826 O 434.701 0.400509 1.90025 0
M  V30 4827 C 431.831 1.11793 3.28816 0
M  V30 4828 C 430.785 2.21417 3.66277 0
M  V30 4829 C 430.111 1.85218 5.01596 0
M  V30 4830 C 431.411 3.63489 3.75064 0
M  V30 4831 H 433.105 2.2743 1.9472 0
M  V30 4832 H 430.651 1.09479 0.935437 0
M  V30 4833 H 432.604 1.08222 4.07266 0
M  V30 4834 H 431.328 0.139501 3.26302 0
M  V30 4835 H 429.987 2.2411 2.90121 0
M  V30 4836 H 429.635 0.859544 4.95602 0
M  V30 4837 H 429.335 2.58611 5.27631 0
M  V30 4838 H 430.859 1.832 5.82469 0
M  V30 4839 H 432.273 3.63034 4.43711 0
M  V30 4840 H 430.67 4.35771 4.12582 0
M  V30 4841 H 431.74 3.98536 2.76219 0
M  V30 4842 N 433.083 -1.0153 1.20538 0
M  V30 4843 C 434.311 -1.78746 1.04199 0
M  V30 4844 C 434.726 -1.84323 -0.408733 0
M  V30 4845 O 434.083 -1.29714 -1.28377 0
M  V30 4846 C 434.134 -3.23152 1.62035 0
M  V30 4847 O 433.855 -3.17918 3.0143 0
M  V30 4848 C 435.356 -4.16911 1.50666 0
M  V30 4849 H 432.576 -0.56208 0.366479 0
M  V30 4850 H 435.12 -1.27794 1.59653 0
M  V30 4851 H 433.275 -3.71248 1.10697 0
M  V30 4852 H 433.689 -4.08567 3.28897 0
M  V30 4853 H 435.163 -5.16072 1.95892 0
M  V30 4854 H 435.64 -4.36791 0.459363 0
M  V30 4855 H 436.246 -3.74698 2.01201 0
M  V30 4856 N 434.561 -1.01147 -1.20859 0
M  V30 4857 C 435.494 -0.522108 -2.22147 0
M  V30 4858 C 436.472 0.427686 -1.56874 0
M  V30 4859 O 437.656 0.34889 -1.85243 0
M  V30 4860 C 434.783 0.240819 -3.37843 0
M  V30 4861 C 433.829 -0.657752 -4.21398 0
M  V30 4862 S 434.662 -2.12393 -4.91578 0
M  V30 4863 C 435.818 -1.37102 -6.10699 0
M  V30 4864 H 436.051 -1.38035 -2.63313 0
M  V30 4865 H 433.584 -0.819941 -1.30829 0
M  V30 4866 H 435.542 0.674908 -4.04914 0
M  V30 4867 H 434.203 1.07457 -2.95147 0
M  V30 4868 H 433.396 -0.0697456 -5.03952 0
M  V30 4869 H 432.998 -1.0294 -3.59555 0
M  V30 4870 H 435.29 -0.648315 -6.74391 0
M  V30 4871 H 436.233 -2.17252 -6.73949 0
M  V30 4872 H 436.641 -0.876154 -5.57659 0
M  V30 4873 N 436.039 1.36541 -0.78704 0
M  V30 4874 C 437.267 2.03561 -0.370199 0
M  V30 4875 C 437.682 1.59347 1.01263 0
M  V30 4876 O 437.039 0.781781 1.64907 0
M  V30 4877 C 437.09 3.59033 -0.421614 0
M  V30 4878 O 436.811 4.01634 -1.7499 0
M  V30 4879 C 438.312 4.433 0.00489763 0
M  V30 4880 H 435.532 0.653346 -0.152904 0
M  V30 4881 H 438.076 1.74566 -1.06522 0
M  V30 4882 H 436.231 3.86746 0.224971 0
M  V30 4883 H 436.645 4.96217 -1.69909 0
M  V30 4884 H 438.119 5.51939 -0.0822184 0
M  V30 4885 H 438.596 4.26285 1.05723 0
M  V30 4886 H 439.202 4.20843 -0.614085 0
M  V30 4887 N 437.518 0.538854 1.48102 0
M  V30 4888 C 438.746 0.0123136 2.06896 0
M  V30 4889 C 439.161 -1.27312 1.39417 0
M  V30 4890 O 438.518 -1.75949 0.484582 0
M  V30 4891 C 438.569 -0.206118 3.60912 0
M  V30 4892 O 438.29 1.0284 4.25859 0
M  V30 4893 C 439.791 -0.772033 4.36526 0
M  V30 4894 H 437.011 0.0375239 0.66995 0
M  V30 4895 H 439.555 0.747032 1.90367 0
M  V30 4896 H 437.71 -0.89091 3.77017 0
M  V30 4897 H 438.124 0.814654 5.18135 0
M  V30 4898 H 439.598 -0.874251 5.45033 0
M  V30 4899 H 440.075 -1.77904 4.01555 0
M  V30 4900 H 440.681 -0.123526 4.25121 0
M  V30 4901 N 438.996 -1.55193 0.274407 0
M  V30 4902 C 439.928 -2.1989 -0.646595 0
M  V30 4903 C 440.941 -1.1834 -1.11801 0
M  V30 4904 O 442.13 -1.4507 -1.04004 0
M  V30 4905 C 439.23 -2.8104 -1.89393 0
M  V30 4906 C 438.403 -4.08274 -1.56943 0
M  V30 4907 C 437.462 -4.53478 -2.66916 0
M  V30 4908 O 436.488 -5.19267 -2.33132 0
M  V30 4909 N 437.69 -4.2356 -3.9696 0
M  V30 4910 H 440.455 -2.99556 -0.0928686 0
M  V30 4911 H 438.016 -1.61618 0.0954783 0
M  V30 4912 H 440.008 -3.08226 -2.62257 0
M  V30 4913 H 438.578 -2.05372 -2.35672 0
M  V30 4914 H 437.798 -3.88384 -0.674655 0
M  V30 4915 H 439.086 -4.91173 -1.32764 0
M  V30 4916 H 438.484 -3.70799 -4.27229 0
M  V30 4917 H 437.041 -4.55518 -4.66205 0
M  V30 4918 N 440.474 -0.00167713 -1.576 0
M  V30 4919 C 441.437 0.974046 -2.07473 0
M  V30 4920 C 442.437 1.27143 -0.984444 0
M  V30 4921 O 443.627 1.21633 -1.24703 0
M  V30 4922 C 440.759 2.29849 -2.51759 0
M  V30 4923 H 441.952 0.54262 -2.9495 0
M  V30 4924 H 439.505 0.245829 -1.54355 0
M  V30 4925 H 440.24 2.77677 -1.67529 0
M  V30 4926 H 440.025 2.09584 -3.31386 0
M  V30 4927 H 441.515 2.9984 -2.90664 0
M  V30 4928 N 441.952 1.55251 0.271103 0
M  V30 4929 C 443.177 1.80306 1.02491 0
M  V30 4930 C 443.602 0.575457 1.79081 0
M  V30 4931 O 442.96 -0.474987 1.74967 0
M  V30 4932 C 443.008 3.02832 1.95768 0
M  V30 4933 O 442.112 2.78051 3.04568 0
M  V30 4934 H 441.453 0.595896 0.292923 0
M  V30 4935 H 443.983 2.02397 0.299436 0
M  V30 4936 H 443.993 3.31616 2.37686 0
M  V30 4937 H 442.668 3.9183 1.39434 0
M  V30 4938 H 441.245 2.60369 2.66951 0
M  V30 4939 N 443.43 -0.535701 1.48216 0
M  V30 4940 C 444.678 -1.28928 1.55634 0
M  V30 4941 C 444.999 -1.93645 0.229514 0
M  V30 4942 O 444.269 -1.81038 -0.74846 0
M  V30 4943 H 442.849 -0.47884 0.573342 0
M  V30 4944 H 445.511 -0.623853 1.84646 0
M  V30 4945 H 444.607 -2.07157 2.33436 0
M  V30 4946 N 444.908 -1.36708 -0.784132 0
M  V30 4947 C 446.157 -1.30559 -1.53744 0
M  V30 4948 C 446.47 0.111374 -1.95283 0
M  V30 4949 O 447.676 0.29527 -2.6989 0
M  V30 4950 C 446.132 -2.29098 -2.77565 0
M  V30 4951 C 445.74 -3.76258 -2.43174 0
M  V30 4952 C 447.484 -2.31936 -3.55536 0
M  V30 4953 C 445.391 -4.6656 -3.63422 0
M  V30 4954 H 444.321 -0.48518 -0.577162 0
M  V30 4955 H 446.972 -1.62101 -0.859981 0
M  V30 4956 H 445.354 -1.90557 -3.47137 0
M  V30 4957 H 446.528 -4.23565 -1.81465 0
M  V30 4958 H 444.843 -3.76246 -1.78403 0
M  V30 4959 H 447.44 -2.9661 -4.44889 0
M  V30 4960 H 447.783 -1.3294 -3.94503 0
M  V30 4961 H 448.316 -2.6912 -2.92949 0
M  V30 4962 H 445.055 -5.66638 -3.29547 0
M  V30 4963 H 444.575 -4.23966 -4.24279 0
M  V30 4964 H 446.254 -4.8309 -4.30387 0
M  V30 4965 N 446.386 1.0089 -1.21074 0
M  V30 4966 C 447.334 2.11707 -0.963476 0
M  V30 4967 C 448.328 1.69172 0.0879032 0
M  V30 4968 O 449.534 1.79889 -0.0631415 0
M  V30 4969 H 445.909 0.692026 -0.294287 0
M  V30 4970 H 447.88 2.29743 -1.90422 0
M  V30 4971 C 446.629 3.43473 -0.540509 0
M  V30 4972 H 445.952 3.76634 -1.34114 0
M  V30 4973 H 447.392 4.22044 -0.406777 0
M  V30 4974 C 445.851 3.2849 0.748079 0
M  V30 4975 O 446.381 3.58883 1.8046 0
M  V30 4976 N 444.587 2.81715 0.713081 0
M  V30 4977 H 444.134 2.5718 -0.146973 0
M  V30 4978 H 444.092 2.72071 1.57558 0
M  V30 4979 N 447.864 1.01787 1.20321 0
M  V30 4980 C 448.827 0.593972 2.2137 0
M  V30 4981 C 449.827 -0.336553 1.57239 0
M  V30 4982 O 451.017 -0.125069 1.7375 0
M  V30 4983 C 448.149 -0.132433 3.40643 0
M  V30 4984 H 449.342 1.48791 2.60387 0
M  V30 4985 H 446.895 0.807803 1.33807 0
M  V30 4986 H 447.63 -1.04123 3.0713 0
M  V30 4987 H 447.415 0.53605 3.88418 0
M  V30 4988 H 448.905 -0.416314 4.1552 0
M  V30 4989 N 449.342 -1.36122 0.79427 0
M  V30 4990 C 450.289 -2.29982 0.194101 0
M  V30 4991 C 451.259 -1.52214 -0.664833 0
M  V30 4992 O 452.444 -1.80702 -0.612498 0
M  V30 4993 C 449.584 -3.38706 -0.661244 0
M  V30 4994 C 448.697 -4.31456 0.216766 0
M  V30 4995 C 447.832 -5.27265 -0.645411 0
M  V30 4996 C 446.871 -6.11653 0.233756 0
M  V30 4997 N 446.008 -6.99636 -0.587682 0
M  V30 4998 H 450.848 -2.80722 0.999965 0
M  V30 4999 H 448.385 -1.38172 0.504677 0
M  V30 5000 H 450.343 -4.00394 -1.17219 0
M  V30 5001 H 448.973 -2.89274 -1.43249 0
M  V30 5002 H 448.025 -3.7088 0.845724 0
M  V30 5003 H 449.337 -4.90724 0.893973 0
M  V30 5004 H 448.491 -5.94266 -1.22198 0
M  V30 5005 H 447.23 -4.68463 -1.35623 0
M  V30 5006 H 446.235 -5.4361 0.82269 0
M  V30 5007 H 447.46 -6.72531 0.942247 0
M  V30 5008 H 445.406 -6.43337 -1.2827 0
M  V30 5009 H 445.323 -7.55993 0.0317402 0
M  V30 5010 H 446.591 -7.71001 -1.14792 0
M  V30 5011 N 450.82 -0.546701 -1.47814 0
M  V30 5012 C 451.75 0.195317 -2.32682 0
M  V30 5013 C 452.731 0.918981 -1.43139 0
M  V30 5014 O 453.916 0.901501 -1.72008 0
M  V30 5015 C 451.046 1.23237 -3.247 0
M  V30 5016 C 450 0.625818 -4.234 0
M  V30 5017 C 449.326 1.76674 -5.04669 0
M  V30 5018 C 450.626 -0.413515 -5.2066 0
M  V30 5019 H 452.32 -0.513184 -2.94969 0
M  V30 5020 H 449.866 -0.248241 -1.41844 0
M  V30 5021 H 451.819 1.75955 -3.82907 0
M  V30 5022 H 450.543 1.97067 -2.60446 0
M  V30 5023 H 449.202 0.120023 -3.66403 0
M  V30 5024 H 448.85 2.49383 -4.36826 0
M  V30 5025 H 448.55 1.36673 -5.71484 0
M  V30 5026 H 450.074 2.29738 -5.65732 0
M  V30 5027 H 451.488 0.0272042 -5.73294 0
M  V30 5028 H 449.885 -0.731825 -5.95621 0
M  V30 5029 H 450.955 -1.31325 -4.66778 0
M  V30 5030 N 452.299 1.55045 -0.282633 0
M  V30 5031 C 453.71 1.85473 0.213655 0
M  V30 5032 C 454.061 1.20465 1.54863 0
M  V30 5033 O 453.186 0.495676 2.10647 0
M  V30 5034 C 453.781 3.36496 0.394445 0
M  V30 5035 C 452.34 3.67022 0.834961 0
M  V30 5036 C 451.487 2.77218 -0.0674081 0
M  V30 5037 H 454.438 1.50478 -0.504202 0
M  V30 5038 H 454.459 3.60007 1.23186 0
M  V30 5039 H 453.971 3.83782 -0.577326 0
M  V30 5040 H 452.072 3.25241 1.81794 0
M  V30 5041 H 452.185 4.74433 0.667075 0
M  V30 5042 H 450.549 2.5069 0.450196 0
M  V30 5043 H 451.332 3.2732 -1.0352 0
M  V30 5044 N 453.777 0.010035 1.57597 0
M  V30 5045 C 455.188 -0.531426 1.78977 0
M  V30 5046 C 455.539 -1.73375 0.918454 0
M  V30 5047 O 454.664 -2.16047 0.123635 0
M  V30 5048 C 455.259 -0.97086 3.24592 0
M  V30 5049 C 453.818 -1.45756 3.47033 0
M  V30 5050 C 452.965 -0.413384 2.74201 0
M  V30 5051 H 455.916 0.236166 1.56933 0
M  V30 5052 H 455.937 -1.83633 3.33255 0
M  V30 5053 H 455.449 -0.0955893 3.87982 0
M  V30 5054 H 453.55 -2.35339 2.88871 0
M  V30 5055 H 453.663 -1.4781 4.55729 0
M  V30 5056 H 452.027 -0.877266 2.39115 0
M  V30 5057 H 452.81 0.453092 3.40297 0
M  V30 5058 N 455.255 -1.55392 -0.262866 0
M  V30 5059 C 456.501 -1.76737 -0.99458 0
M  V30 5060 C 456.834 -0.572453 -1.85571 0
M  V30 5061 O 456.109 0.429732 -1.89693 0
M  V30 5062 C 456.392 -3.07824 -1.8686 0
M  V30 5063 C 456.245 -4.3769 -1.03672 0
M  V30 5064 C 457.564 -3.35021 -2.85393 0
M  V30 5065 H 454.683 -0.643005 -0.360157 0
M  V30 5066 H 457.325 -1.88126 -0.266216 0
M  V30 5067 H 455.475 -2.98245 -2.48962 0
M  V30 5068 H 457.147 -4.59238 -0.43563 0
M  V30 5069 H 455.39 -4.32461 -0.340513 0
M  V30 5070 H 456.061 -5.25759 -1.6817 0
M  V30 5071 H 458.537 -3.44458 -2.33426 0
M  V30 5072 H 457.413 -4.27989 -3.43681 0
M  V30 5073 H 457.674 -2.55153 -3.61039 0
M  V30 5074 N 456.733 0.527833 -1.48498 0
M  V30 5075 C 457.958 1.313 -1.60546 0
M  V30 5076 C 458.383 1.86199 -0.26672 0
M  V30 5077 O 457.741 1.64513 0.761918 0
M  V30 5078 C 457.789 2.43818 -2.65678 0
M  V30 5079 O 456.893 3.46916 -2.22987 0
M  V30 5080 H 456.234 0.388784 -0.538277 0
M  V30 5081 H 458.764 0.634896 -1.945 0
M  V30 5082 H 458.774 2.89973 -2.87018 0
M  V30 5083 H 457.449 2.03222 -3.62869 0
M  V30 5084 H 456.026 3.06864 -2.11869 0
M  V30 5085 N 458.211 1.37122 0.776871 0
M  V30 5086 C 459.441 1.35034 1.56363 0
M  V30 5087 C 459.849 -0.0674681 1.8908 0
M  V30 5088 O 459.192 -1.03826 1.51545 0
M  V30 5089 C 459.254 2.11894 2.90415 0
M  V30 5090 C 458.918 3.60897 2.80362 0
M  V30 5091 C 459.915 4.54887 2.51742 0
M  V30 5092 C 457.6 4.03951 2.98545 0
M  V30 5093 C 459.594 5.89909 2.41426 0
M  V30 5094 C 457.281 5.3906 2.87849 0
M  V30 5095 C 458.279 6.31852 2.5933 0
M  V30 5096 O 457.967 7.64479 2.48651 0
M  V30 5097 H 457.699 0.464402 0.49123 0
M  V30 5098 H 460.253 1.80992 0.971127 0
M  V30 5099 H 458.483 1.60618 3.51765 0
M  V30 5100 H 460.172 2.02505 3.51776 0
M  V30 5101 H 460.938 4.22934 2.37385 0
M  V30 5102 H 456.817 3.3209 3.19746 0
M  V30 5103 H 460.361 6.62304 2.19086 0
M  V30 5104 H 456.258 5.70617 3.01773 0
M  V30 5105 H 457.026 7.74742 2.64039 0
M  V30 5106 N 459.689 -1.00246 1.21608 0
M  V30 5107 C 460.938 -1.73476 1.02902 0
M  V30 5108 C 461.251 -1.90643 -0.437561 0
M  V30 5109 O 462.457 -2.61105 -0.74407 0
M  V30 5110 C 460.913 -3.12079 1.79261 0
M  V30 5111 C 460.521 -3.02877 3.30106 0
M  V30 5112 C 462.265 -3.89421 1.68972 0
M  V30 5113 C 460.172 -4.36575 3.98944 0
M  V30 5114 H 459.102 -0.650408 0.381425 0
M  V30 5115 H 461.753 -1.11985 1.45367 0
M  V30 5116 H 460.135 -3.74196 1.2959 0
M  V30 5117 H 461.309 -2.49983 3.87098 0
M  V30 5118 H 459.624 -2.39022 3.40965 0
M  V30 5119 H 462.221 -4.88362 2.17731 0
M  V30 5120 H 462.564 -4.1122 0.648397 0
M  V30 5121 H 463.097 -3.33963 2.16133 0
M  V30 5122 H 459.836 -4.19978 5.03288 0
M  V30 5123 H 459.356 -4.8942 3.4674 0
M  V30 5124 H 461.035 -5.05364 4.04 0
M  V30 5125 N 461.167 -1.02423 -1.1978 0
M  V30 5126 C 462.114 -0.601023 -2.22837 0
M  V30 5127 C 463.084 0.382801 -1.61629 0
M  V30 5128 O 464.269 0.280514 -1.88727 0
M  V30 5129 C 461.409 0.0467755 -3.45068 0
M  V30 5130 C 460.522 -0.98253 -4.20678 0
M  V30 5131 C 459.657 -0.304982 -5.30324 0
M  V30 5132 C 458.696 -1.32052 -5.97686 0
M  V30 5133 N 457.833 -0.669105 -6.98904 0
M  V30 5134 H 462.673 -1.48444 -2.58396 0
M  V30 5135 H 460.21 -0.742936 -1.2696 0
M  V30 5136 H 462.168 0.439556 -4.14878 0
M  V30 5137 H 460.798 0.893796 -3.10179 0
M  V30 5138 H 459.85 -1.49341 -3.49859 0
M  V30 5139 H 461.162 -1.75455 -4.66923 0
M  V30 5140 H 460.316 0.142893 -6.06532 0
M  V30 5141 H 459.055 0.499283 -4.85138 0
M  V30 5142 H 458.06 -1.7787 -5.20233 0
M  V30 5143 H 459.285 -2.1262 -6.44957 0
M  V30 5144 H 457.231 0.115152 -6.55899 0
M  V30 5145 H 457.148 -1.37908 -7.43315 0
M  V30 5146 H 458.416 -0.245076 -7.79115 0
M  V30 5147 N 462.645 1.35699 -0.801477 0
M  V30 5148 C 463.608 2.28199 -0.213994 0
M  V30 5149 C 464.608 1.49359 0.595691 0
M  V30 5150 O 465.798 1.69186 0.414921 0
M  V30 5151 C 462.93 3.33587 0.702297 0
M  V30 5152 H 464.123 2.81666 -1.02976 0
M  V30 5153 H 461.676 1.45467 -0.571759 0
M  V30 5154 H 462.411 2.85297 1.54195 0
M  V30 5155 H 462.196 3.91906 0.123484 0
M  V30 5156 H 463.686 4.02638 1.10783 0
M  V30 5157 N 464.123 0.554532 1.47522 0
M  V30 5158 C 465.369 0.0295227 2.02779 0
M  V30 5159 C 465.702 -1.31582 1.42828 0
M  V30 5160 O 464.977 -1.85561 0.582872 0
M  V30 5161 C 465.26 -0.0664057 3.60039 0
M  V30 5162 C 465.113 1.30585 4.30427 0
M  V30 5163 C 466.432 -0.781162 4.33112 0
M  V30 5164 H 463.551 0.0122027 0.736899 0
M  V30 5165 H 466.193 0.716305 1.7598 0
M  V30 5166 H 464.343 -0.651307 3.83002 0
M  V30 5167 H 466.015 1.93374 4.18813 0
M  V30 5168 H 464.258 1.88125 3.90886 0
M  V30 5169 H 464.929 1.19147 5.38988 0
M  V30 5170 H 467.405 -0.284565 4.15126 0
M  V30 5171 H 466.281 -0.817237 5.42782 0
M  V30 5172 H 466.542 -1.83672 4.0214 0
M  V30 5173 N 465.601 -1.54893 0.290851 0
M  V30 5174 C 466.878 -1.91991 -0.373989 0
M  V30 5175 C 467.258 -1.21694 -1.72493 0
M  V30 5176 O 466.606 -0.34917 -2.25816 0
M  V30 5177 C 466.816 -3.45419 -0.498703 0
M  V30 5178 C 468.164 -4.1748 -0.774298 0
M  V30 5179 O 469.188 -3.51398 -0.582908 0
M  V30 5180 O 468.047 -5.3445 -1.14129 0
M  V30 5181 H 465.141 -0.800593 -0.207315 0
M  V30 5182 H 467.687 -1.66297 0.338164 0
M  V30 5183 H 466.459 -3.88688 0.451392 0
M  V30 5184 H 466.082 -3.77117 -1.25972 0
M  V30 5185 N 467.08 -0.0183926 -1.57589 0
M  V30 5186 C 468.326 0.663543 -1.91638 0
M  V30 5187 C 468.659 1.72392 -0.894134 0
M  V30 5188 O 467.934 1.94316 0.0846449 0
M  V30 5189 C 468.217 1.28984 -3.36207 0
M  V30 5190 C 468.07 0.239761 -4.49161 0
M  V30 5191 C 469.389 2.2109 -3.80536 0
M  V30 5192 H 466.508 0.239746 -0.696915 0
M  V30 5193 H 469.15 -0.073456 -1.89858 0
M  V30 5194 H 467.3 1.91799 -3.37854 0
M  V30 5195 H 468.972 -0.390119 -4.59647 0
M  V30 5196 H 467.215 -0.435972 -4.31604 0
M  V30 5197 H 467.886 0.717383 -5.47319 0
M  V30 5198 H 470.362 1.68273 -3.80557 0
M  V30 5199 H 469.238 2.61869 -4.82406 0
M  V30 5200 H 469.499 3.09764 -3.15434 0
M  V30 5201 N 468.558 1.5553 0.254621 0
M  V30 5202 C 469.804 1.7818 0.980989 0
M  V30 5203 C 470.159 0.586059 1.83257 0
M  V30 5204 O 469.452 -0.420889 1.8692 0
M  V30 5205 C 469.646 3.03891 1.88109 0
M  V30 5206 C 469.475 4.35578 1.11812 0
M  V30 5207 C 468.245 4.98497 0.826343 0
M  V30 5208 C 470.443 5.11869 0.499486 0
M  V30 5209 N 468.425 6.13888 0.0385095 0
M  V30 5210 C 469.796 6.1981 -0.153292 0
M  V30 5211 C 471.851 4.96216 0.409175 0
M  V30 5212 C 470.554 7.13801 -0.8877 0
M  V30 5213 C 472.58 5.90578 -0.311683 0
M  V30 5214 C 471.942 6.97922 -0.953129 0
M  V30 5215 H 468.041 0.704057 0.340335 0
M  V30 5216 H 470.625 1.93025 0.254855 0
M  V30 5217 H 468.796 2.90389 2.57932 0
M  V30 5218 H 470.528 3.14869 2.54244 0
M  V30 5219 H 467.283 4.59769 1.13621 0
M  V30 5220 H 467.707 6.76129 -0.343275 0
M  V30 5221 H 472.349 4.1331 0.890765 0
M  V30 5222 H 470.067 7.96214 -1.38092 0
M  V30 5223 H 473.653 5.80544 -0.382125 0
M  V30 5224 H 472.533 7.69681 -1.50203 0
M  V30 5225 N 470.036 -0.519951 1.48776 0
M  V30 5226 C 471.285 -1.27175 1.56555 0
M  V30 5227 C 471.598 -1.9401 0.248869 0
M  V30 5228 O 472.804 -2.70725 0.205004 0
M  V30 5229 C 471.26 -2.30811 2.76142 0
M  V30 5230 C 470.868 -1.7 4.14493 0
M  V30 5231 C 472.612 -3.06937 2.9324 0
M  V30 5232 C 470.519 -2.71635 5.25327 0
M  V30 5233 H 469.449 -0.478329 0.582853 0
M  V30 5234 H 472.1 -0.547916 1.75129 0
M  V30 5235 H 470.482 -3.06274 2.51023 0
M  V30 5236 H 471.656 -1.00658 4.49672 0
M  V30 5237 H 469.971 -1.06331 4.02595 0
M  V30 5238 H 472.568 -3.82905 3.73213 0
M  V30 5239 H 472.911 -3.63409 2.03075 0
M  V30 5240 H 473.444 -2.38589 3.18308 0
M  V30 5241 H 470.183 -2.1997 6.1749 0
M  V30 5242 H 469.703 -3.39275 4.94624 0
M  V30 5243 H 471.382 -3.34429 5.53865 0
M  V30 5244 N 471.514 -1.37532 -0.769588 0
M  V30 5245 C 472.762 -1.32597 -1.5252 0
M  V30 5246 C 473.083 0.0884294 -1.94799 0
M  V30 5247 O 472.353 1.03289 -1.66458 0
M  V30 5248 H 470.933 -0.487846 -0.565699 0
M  V30 5249 H 473.595 -1.72044 -0.915806 0
M  V30 5250 H 472.691 -1.96643 -2.42359 0
M  V30 5251 N 472.992 0.995999 -1.22138 0
M  V30 5252 C 474.238 1.73767 -1.04561 0
M  V30 5253 C 474.571 1.89633 0.418698 0
M  V30 5254 O 473.846 1.43723 1.3105 0
M  V30 5255 C 474.129 3.14505 -1.75382 0
M  V30 5256 C 473.982 3.06306 -3.29388 0
M  V30 5257 C 475.301 4.13615 -1.50369 0
M  V30 5258 H 472.42 0.630728 -0.38125 0
M  V30 5259 H 475.062 1.16057 -1.50435 0
M  V30 5260 H 473.212 3.63775 -1.36383 0
M  V30 5261 H 474.884 2.64681 -3.77812 0
M  V30 5262 H 473.127 2.43186 -3.59226 0
M  V30 5263 H 473.798 4.05884 -3.74116 0
M  V30 5264 H 476.274 3.73089 -1.84239 0
M  V30 5265 H 475.15 5.10212 -2.02421 0
M  V30 5266 H 475.411 4.39949 -0.435611 0
M  V30 5267 N 474.47 1.03057 1.19235 0
M  V30 5268 C 475.71 0.736757 1.9066 0
M  V30 5269 C 476.074 -0.721521 1.77927 0
M  V30 5270 O 477.275 -1.12849 2.43964 0
M  V30 5271 C 475.546 1.17755 3.37444 0
M  V30 5272 S 477.105 1.00783 4.27069 0
M  V30 5273 H 473.923 0.268174 0.658486 0
M  V30 5274 H 476.525 1.32076 1.4414 0
M  V30 5275 H 475.229 2.23448 3.44237 0
M  V30 5276 H 474.76 0.586912 3.88997 0
M  V30 5277 H 476.775 -0.0806356 4.96134 0
M  V30 5278 N 475.948 -1.35272 0.808662 0
M  V30 5279 C 476.878 -2.32315 0.234981 0
M  V30 5280 C 477.859 -1.57572 -0.64071 0
M  V30 5281 O 479.044 -1.8563 -0.570551 0
M  V30 5282 C 476.174 -3.41801 -0.615601 0
M  V30 5283 C 475.128 -4.27694 0.161767 0
M  V30 5284 C 474.454 -5.28519 -0.810649 0
M  V30 5285 C 475.754 -5.04231 1.36193 0
M  V30 5286 H 477.448 -2.80543 1.04575 0
M  V30 5287 H 474.994 -1.3488 0.504315 0
M  V30 5288 H 476.947 -4.08693 -1.02702 0
M  V30 5289 H 475.671 -2.92186 -1.45928 0
M  V30 5290 H 474.33 -3.62384 0.554382 0
M  V30 5291 H 473.978 -4.75171 -1.64988 0
M  V30 5292 H 473.678 -5.8686 -0.294822 0
M  V30 5293 H 475.202 -5.98283 -1.22023 0
M  V30 5294 H 476.616 -5.64058 1.02528 0
M  V30 5295 H 475.013 -5.72077 1.81239 0
M  V30 5296 H 476.083 -4.34753 2.14751 0
M  V30 5297 N 477.426 -0.562348 -1.47226 0
M  V30 5298 C 478.389 0.172056 -2.28553 0
M  V30 5299 C 479.389 0.837928 -1.37242 0
M  V30 5300 O 480.579 0.693001 -1.59822 0
M  V30 5301 C 477.711 1.25223 -3.17068 0
M  V30 5302 H 478.904 -0.542401 -2.94954 0
M  V30 5303 H 476.457 -0.319493 -1.53 0
M  V30 5304 H 477.192 1.99892 -2.55369 0
M  V30 5305 H 476.977 0.779515 -3.84273 0
M  V30 5306 H 478.467 1.76791 -3.78332 0
M  V30 5307 N 478.904 1.54736 -0.299062 0
M  V30 5308 C 480.151 2.00101 0.310784 0
M  V30 5309 C 480.479 1.18746 1.54045 0
M  V30 5310 O 479.734 0.251198 1.94081 0
M  V30 5311 C 480.033 3.50199 0.713835 0
M  V30 5312 C 479.699 4.48997 -0.413873 0
M  V30 5313 C 478.361 4.7573 -0.723462 0
M  V30 5314 C 480.713 5.07839 -1.17257 0
M  V30 5315 C 478.041 5.5857 -1.79491 0
M  V30 5316 C 480.393 5.91844 -2.23392 0
M  V30 5317 C 479.057 6.16889 -2.54959 0
M  V30 5318 H 478.327 0.732221 0.113724 0
M  V30 5319 H 480.974 1.86888 -0.417756 0
M  V30 5320 H 479.279 3.61012 1.52243 0
M  V30 5321 H 480.976 3.82723 1.19684 0
M  V30 5322 H 477.566 4.28292 -0.162476 0
M  V30 5323 H 481.75 4.87188 -0.946651 0
M  V30 5324 H 477.006 5.76213 -2.04423 0
M  V30 5325 H 481.18 6.36465 -2.8264 0
M  V30 5326 H 478.807 6.80869 -3.38114 0
M  V30 5327 N 480.382 0.0267497 1.57577 0
M  V30 5328 C 481.631 -0.651736 1.9088 0
M  V30 5329 C 481.944 -1.73427 0.904576 0
M  V30 5330 O 483.15 -2.46923 1.12877 0
M  V30 5331 C 481.606 -1.21048 3.38933 0
M  V30 5332 C 481.214 -0.161362 4.47709 0
M  V30 5333 C 482.958 -1.86562 3.81307 0
M  V30 5334 C 480.865 -0.731611 5.86857 0
M  V30 5335 H 479.795 -0.247198 0.712326 0
M  V30 5336 H 482.446 0.0916641 1.83271 0
M  V30 5337 H 480.828 -2.00542 3.41466 0
M  V30 5338 H 482.002 0.61094 4.56732 0
M  V30 5339 H 480.317 0.394877 4.14523 0
M  V30 5340 H 482.914 -2.30178 4.8262 0
M  V30 5341 H 483.257 -2.70735 3.16241 0
M  V30 5342 H 483.79 -1.13762 3.81186 0
M  V30 5343 H 480.529 0.0719329 6.55461 0
M  V30 5344 H 480.049 -1.47245 5.81445 0
M  V30 5345 H 481.728 -1.22208 6.35354 0
M  V30 5346 N 481.861 -1.55662 -0.24637 0
M  V30 5347 C 483.108 -1.77519 -0.974335 0
M  V30 5348 C 483.436 -0.591165 -1.85298 0
M  V30 5349 O 482.691 0.425497 -1.91018 0
M  V30 5350 C 482.99 -3.04885 -1.86494 0
M  V30 5351 C 482.656 -4.36209 -1.14161 0
M  V30 5352 C 481.318 -4.71896 -0.941701 0
M  V30 5353 C 483.67 -5.17391 -0.628957 0
M  V30 5354 C 480.998 -5.86299 -0.216852 0
M  V30 5355 C 483.35 -6.32546 0.0824273 0
M  V30 5356 C 482.014 -6.66853 0.293807 0
M  V30 5357 H 481.284 -0.649588 -0.356535 0
M  V30 5358 H 483.931 -1.89934 -0.244394 0
M  V30 5359 H 482.236 -2.87484 -2.66196 0
M  V30 5360 H 483.933 -3.18994 -2.42989 0
M  V30 5361 H 480.523 -4.08174 -1.30736 0
M  V30 5362 H 484.707 -4.90276 -0.770943 0
M  V30 5363 H 479.963 -6.11385 -0.0426124 0
M  V30 5364 H 484.137 -6.94693 0.487292 0
M  V30 5365 H 481.764 -7.55349 0.857428 0
M  V30 5366 N 483.339 0.512053 -1.4905 0
M  V30 5367 C 484.587 1.26436 -1.57665 0
M  V30 5368 C 484.908 1.93255 -0.260293 0
M  V30 5369 O 484.178 1.82206 0.719564 0
M  V30 5370 H 482.758 0.469658 -0.580888 0
M  V30 5371 H 485.42 0.594398 -1.85615 0
M  V30 5372 H 484.516 2.03417 -2.36702 0
M  V30 5373 N 484.817 1.37938 0.762283 0
M  V30 5374 C 485.78 1.34279 1.85747 0
M  V30 5375 C 486.78 0.244969 1.58923 0
M  V30 5376 O 487.97 0.501365 1.66829 0
M  V30 5377 C 485.102 1.08833 3.23061 0
M  V30 5378 H 486.295 2.31705 1.90401 0
M  V30 5379 H 483.848 1.23105 0.963057 0
M  V30 5380 H 484.583 0.119767 3.24079 0
M  V30 5381 H 484.368 1.88306 3.43923 0
M  V30 5382 H 485.858 1.08946 4.03138 0
M  V30 5383 N 486.295 -0.989507 1.22664 0
M  V30 5384 C 487.225 -2.09847 1.02404 0
M  V30 5385 C 488.206 -1.70007 -0.0561303 0
M  V30 5386 O 489.391 -1.93906 0.106748 0
M  V30 5387 C 486.521 -3.41996 0.604663 0
M  V30 5388 C 485.475 -3.95699 1.63115 0
M  V30 5389 C 484.801 -5.23936 1.0675 0
M  V30 5390 C 486.101 -4.25999 3.02196 0
M  V30 5391 H 487.795 -2.27054 1.95158 0
M  V30 5392 H 485.341 -1.09111 0.939727 0
M  V30 5393 H 487.294 -4.1899 0.45002 0
M  V30 5394 H 486.018 -3.24626 -0.35855 0
M  V30 5395 H 484.677 -3.2084 1.77362 0
M  V30 5396 H 484.325 -5.02909 0.0955422 0
M  V30 5397 H 484.025 -5.60833 1.75328 0
M  V30 5398 H 485.549 -6.0356 0.924516 0
M  V30 5399 H 486.963 -4.93777 2.91303 0
M  V30 5400 H 485.36 -4.74076 3.67929 0
M  V30 5401 H 486.43 -3.33636 3.51873 0
M  V30 5402 N 487.773 -1.03688 -1.18687 0
M  V30 5403 C 488.703 -0.645407 -2.24403 0
M  V30 5404 C 489.684 0.349511 -1.66471 0
M  V30 5405 O 490.869 0.230453 -1.92828 0
M  V30 5406 C 487.999 -0.00365337 -3.473 0
M  V30 5407 C 486.953 -0.921705 -4.17958 0
M  V30 5408 C 486.279 -0.144629 -5.34504 0
M  V30 5409 C 487.579 -2.23909 -4.71871 0
M  V30 5410 H 489.273 -1.52917 -2.57404 0
M  V30 5411 H 486.819 -0.736711 -1.23728 0
M  V30 5412 H 488.772 0.281908 -4.20456 0
M  V30 5413 H 487.496 0.914963 -3.13522 0
M  V30 5414 H 486.155 -1.19159 -3.46694 0
M  V30 5415 H 485.803 0.776274 -4.96974 0
M  V30 5416 H 485.503 -0.756206 -5.82714 0
M  V30 5417 H 487.027 0.134004 -6.10453 0
M  V30 5418 H 488.441 -2.0145 -5.36741 0
M  V30 5419 H 486.838 -2.8033 -5.30599 0
M  V30 5420 H 487.908 -2.88822 -3.895 0
M  V30 5421 N 489.251 1.34841 -0.815825 0
M  V30 5422 C 490.161 2.33425 -0.234462 0
M  V30 5423 C 491.177 1.62295 0.627413 0
M  V30 5424 O 492.353 1.94109 0.536987 0
M  V30 5425 C 489.418 3.41471 0.599849 0
M  V30 5426 C 488.479 4.28362 -0.283596 0
M  V30 5427 C 487.712 5.31248 0.51099 0
M  V30 5428 O 487.935 5.43056 1.7449 0
M  V30 5429 O 486.869 6.01812 -0.10297 0
M  V30 5430 H 490.695 2.84962 -1.05024 0
M  V30 5431 H 488.28 1.37774 -0.577809 0
M  V30 5432 H 490.162 4.07464 1.07475 0
M  V30 5433 H 488.837 2.9219 1.39308 0
M  V30 5434 H 487.744 3.65318 -0.805836 0
M  V30 5435 H 489.077 4.81066 -1.041 0
M  V30 5436 N 490.729 0.570148 1.46925 0
M  V30 5437 C 491.959 0.0561151 2.06524 0
M  V30 5438 C 492.367 -1.24874 1.42137 0
M  V30 5439 O 491.71 -1.76292 0.516417 0
M  V30 5440 C 491.772 -0.197035 3.5896 0
M  V30 5441 C 491.436 1.02033 4.45464 0
M  V30 5442 C 492.433 1.92921 4.82781 0
M  V30 5443 C 490.118 1.23864 4.86788 0
M  V30 5444 C 492.112 3.03999 5.60235 0
M  V30 5445 C 489.799 2.35249 5.64004 0
M  V30 5446 C 490.797 3.25146 6.0064 0
M  V30 5447 O 490.485 4.34598 6.76299 0
M  V30 5448 H 490.217 0.0487409 0.674241 0
M  V30 5449 H 492.771 0.786915 1.89728 0
M  V30 5450 H 491.001 -0.982299 3.74016 0
M  V30 5451 H 492.69 -0.658032 4.00531 0
M  V30 5452 H 493.456 1.77265 4.51444 0
M  V30 5453 H 489.335 0.54805 4.57731 0
M  V30 5454 H 492.879 3.74192 5.8875 0
M  V30 5455 H 488.776 2.50873 5.94755 0
M  V30 5456 H 489.544 4.32808 6.94708 0
M  V30 5457 N 492.207 -1.54576 0.307264 0
M  V30 5458 C 493.17 -2.22423 -0.553224 0
M  V30 5459 C 494.17 -1.21231 -1.05639 0
M  V30 5460 O 495.36 -1.45923 -0.951419 0
M  V30 5461 C 492.492 -2.91552 -1.76664 0
M  V30 5462 H 493.685 -2.99874 0.0396484 0
M  V30 5463 H 491.238 -1.56192 0.0581629 0
M  V30 5464 H 491.973 -2.18196 -2.39918 0
M  V30 5465 H 491.758 -3.65738 -1.41343 0
M  V30 5466 H 493.248 -3.43292 -2.37783 0
M  V30 5467 N 493.685 -0.035106 -1.57561 0
M  V30 5468 C 494.615 0.942993 -2.13612 0
M  V30 5469 C 495.596 1.33531 -1.05373 0
M  V30 5470 O 496.781 1.41287 -1.33235 0
M  V30 5471 C 493.911 2.22332 -2.66807 0
M  V30 5472 C 492.865 1.97156 -3.79886 0
M  V30 5473 C 492.191 3.31506 -4.19533 0
M  V30 5474 C 493.491 1.30596 -5.05709 0
M  V30 5475 H 495.185 0.476179 -2.95589 0
M  V30 5476 H 492.731 0.227602 -1.4219 0
M  V30 5477 H 494.684 2.91142 -3.04654 0
M  V30 5478 H 493.408 2.7119 -1.81999 0
M  V30 5479 H 492.067 1.30763 -3.42486 0
M  V30 5480 H 491.715 3.78134 -3.31698 0
M  V30 5481 H 491.415 3.15465 -4.95738 0
M  V30 5482 H 492.939 4.01574 -4.59968 0
M  V30 5483 H 494.353 1.89416 -5.41105 0
M  V30 5484 H 492.75 1.24934 -5.86951 0
M  V30 5485 H 493.82 0.279742 -4.84092 0
M  V30 5486 N 495.163 1.55791 0.238111 0
M  V30 5487 C 496.409 1.78297 0.966337 0
M  V30 5488 C 496.742 0.601903 1.84637 0
M  V30 5489 O 496.017 -0.399499 1.90353 0
M  V30 5490 C 496.3 3.10758 1.81939 0
M  V30 5491 C 496.153 4.39283 0.966958 0
M  V30 5492 C 497.472 3.39519 2.80027 0
M  V30 5493 H 494.591 0.648654 0.349882 0
M  V30 5494 H 497.233 1.88525 0.236253 0
M  V30 5495 H 495.383 3.02168 2.44185 0
M  V30 5496 H 497.055 4.59873 0.362514 0
M  V30 5497 H 495.298 4.32948 0.271669 0
M  V30 5498 H 495.969 5.28368 1.59784 0
M  V30 5499 H 498.445 3.48128 2.27917 0
M  V30 5500 H 497.321 4.33402 3.36829 0
M  V30 5501 H 497.582 2.60864 3.56934 0
M  V30 5502 N 496.642 -0.504142 1.49319 0
M  V30 5503 C 497.59 -1.62689 1.66238 0
M  V30 5504 C 498.584 -1.6095 0.528349 0
M  V30 5505 O 499.79 -1.65496 0.707887 0
M  V30 5506 H 496.165 -0.539247 0.524134 0
M  V30 5507 H 498.136 -1.45571 2.60484 0
M  V30 5508 C 496.885 -3.00841 1.74328 0
M  V30 5509 H 496.208 -3.02884 2.60963 0
M  V30 5510 H 497.648 -3.78945 1.90202 0
M  V30 5511 C 496.107 -3.33355 0.487416 0
M  V30 5512 O 496.637 -3.99819 -0.388294 0
M  V30 5513 N 494.843 -2.88469 0.351306 0
M  V30 5514 H 494.39 -2.34557 1.06492 0
M  V30 5515 H 494.348 -3.10591 -0.487899 0
M  V30 5516 N 498.12 -1.38341 -0.754957 0
M  V30 5517 C 499.35 -1.37504 -1.54195 0
M  V30 5518 C 499.758 0.0373787 -1.89163 0
M  V30 5519 O 499.101 1.01402 -1.53178 0
M  V30 5520 C 499.163 -2.16488 -2.87008 0
M  V30 5521 C 498.827 -3.65311 -2.74585 0
M  V30 5522 C 499.824 -4.58834 -2.44474 0
M  V30 5523 C 497.509 -4.08649 -2.9208 0
M  V30 5524 C 499.503 -5.93675 -2.32011 0
M  V30 5525 C 497.19 -5.43571 -2.79237 0
M  V30 5526 C 498.188 -6.35898 -2.49245 0
M  V30 5527 O 497.876 -7.68338 -2.36458 0
M  V30 5528 H 497.608 -0.472159 -0.483779 0
M  V30 5529 H 500.162 -1.82515 -0.94221 0
M  V30 5530 H 498.392 -1.66194 -3.49166 0
M  V30 5531 H 500.081 -2.08076 -3.4851 0
M  V30 5532 H 500.847 -4.26657 -2.30627 0
M  V30 5533 H 496.726 -3.37134 -3.14422 0
M  V30 5534 H 500.27 -6.65706 -2.08522 0
M  V30 5535 H 496.167 -5.75345 -2.92657 0
M  V30 5536 H 496.935 -7.78845 -2.5168 0
M  V30 5537 N 499.598 0.982988 -1.23187 0
M  V30 5538 C 500.548 2.05962 -0.977942 0
M  V30 5539 C 501.532 1.60725 0.0751148 0
M  V30 5540 O 502.724 1.76471 -0.136683 0
M  V30 5541 C 499.853 3.38564 -0.568276 0
M  V30 5542 C 498.939 3.90407 -1.6566 0
M  V30 5543 N 499.33 4.15359 -2.88635 0
M  V30 5544 C 497.628 4.18915 -1.53058 0
M  V30 5545 C 498.329 4.57642 -3.5908 0
M  V30 5546 N 497.305 4.6192 -2.86584 0
M  V30 5547 H 501.107 2.23208 -1.91195 0
M  V30 5548 H 498.621 1.16555 -1.13087 0
M  V30 5549 H 500.618 4.15276 -0.36764 0
M  V30 5550 H 499.278 3.22712 0.358713 0
M  V30 5551 H 500.289 4.03258 -3.24966 0
M  V30 5552 H 496.966 4.12081 -0.670506 0
M  V30 5553 H 498.356 4.85488 -4.6449 0
M  V30 5554 N 501.076 1.04316 1.18135 0
M  V30 5555 C 502.324 0.746542 1.87806 0
M  V30 5556 C 502.645 -0.728082 1.80898 0
M  V30 5557 O 501.915 -1.52554 1.22899 0
M  V30 5558 H 500.495 0.273157 0.695265 0
M  V30 5559 H 503.157 1.32044 1.43354 0
M  V30 5560 H 502.253 1.05362 2.93778 0
M  V30 5561 N 502.554 -1.34406 0.822964 0
M  V30 5562 C 503.97 -1.51275 0.508727 0
M  V30 5563 C 504.17 -1.76776 -0.967083 0
M  V30 5564 O 503.226 -1.81871 -1.75155 0
M  V30 5565 C 504.539 -2.67765 1.36829 0
M  V30 5566 C 506.087 -2.81647 1.36542 0
M  V30 5567 C 506.562 -4.01181 2.20947 0
M  V30 5568 N 508.053 -4.08388 2.18571 0
M  V30 5569 C 508.788 -5.00036 2.80627 0
M  V30 5570 N 508.284 -5.96906 3.51674 0
M  V30 5571 N 510.077 -4.92908 2.70181 0
M  V30 5572 H 502.228 -1.16113 1.77852 0
M  V30 5573 H 504.491 -0.56947 0.757897 0
M  V30 5574 H 504.197 -2.55551 2.41633 0
M  V30 5575 H 504.071 -3.62779 1.03303 0
M  V30 5576 H 506.458 -2.93303 0.325163 0
M  V30 5577 H 506.539 -1.87443 1.74066 0
M  V30 5578 H 506.183 -3.90286 3.25022 0
M  V30 5579 H 506.113 -4.94599 1.80774 0
M  V30 5580 H 508.604 -3.39051 1.66891 0
M  V30 5581 H 508.917 -6.63468 3.96271 0
M  V30 5582 H 507.262 -5.9703 3.5578 0
M  V30 5583 H 510.453 -4.1619 2.14251 0
M  V30 5584 H 510.626 -5.64137 3.18831 0
M  V30 5585 N 504.032 -0.577932 -1.46621 0
M  V30 5586 C 504.964 0.195801 -2.28362 0
M  V30 5587 C 505.977 0.859983 -1.38232 0
M  V30 5588 O 507.166 0.730349 -1.62875 0
M  V30 5589 C 504.266 1.29639 -3.13124 0
M  V30 5590 C 503.439 0.725049 -4.31349 0
M  V30 5591 C 502.498 1.71274 -4.97546 0
M  V30 5592 O 501.524 1.25067 -5.5529 0
M  V30 5593 N 502.726 3.04672 -4.94121 0
M  V30 5594 H 505.491 -0.505468 -2.95407 0
M  V30 5595 H 503.052 -0.415381 -1.56481 0
M  V30 5596 H 505.044 1.95631 -3.54275 0
M  V30 5597 H 503.614 1.90059 -2.48186 0
M  V30 5598 H 502.834 -0.112205 -3.9404 0
M  V30 5599 H 504.122 0.323034 -5.07774 0
M  V30 5600 H 503.52 3.4484 -4.48444 0
M  V30 5601 H 502.077 3.66166 -5.39227 0
M  V30 5602 N 505.51 1.54411 -0.315457 0
M  V30 5603 C 506.42 2.27737 0.56329 0
M  V30 5604 C 507.436 1.31787 1.13614 0
M  V30 5605 O 508.612 1.64791 1.15784 0
M  V30 5606 C 505.677 3.01478 1.71207 0
M  V30 5607 C 504.738 4.12997 1.17185 0
M  V30 5608 C 503.971 4.83212 2.26588 0
M  V30 5609 O 504.194 4.52884 3.46775 0
M  V30 5610 O 503.128 5.70299 1.92463 0
M  V30 5611 H 506.954 3.03683 -0.0319614 0
M  V30 5612 H 504.539 1.49178 -0.0814188 0
M  V30 5613 H 506.421 3.47683 2.38106 0
M  V30 5614 H 505.096 2.28414 2.29366 0
M  V30 5615 H 504.003 3.71159 0.468174 0
M  V30 5616 H 505.336 4.8808 0.635501 0
M  V30 5617 N 506.988 0.0434614 1.5754 0
M  V30 5618 C 508.235 -0.632035 1.92384 0
M  V30 5619 C 508.563 -1.71304 0.921157 0
M  V30 5620 O 507.818 -1.95583 -0.067744 0
M  V30 5621 C 508.117 -1.2738 3.3393 0
M  V30 5622 C 507.783 -0.321757 4.49751 0
M  V30 5623 C 506.445 -0.0597611 4.81163 0
M  V30 5624 C 508.797 0.331158 5.20147 0
M  V30 5625 C 506.125 0.862715 5.80322 0
M  V30 5626 C 508.477 1.24178 6.20292 0
M  V30 5627 C 507.141 1.51252 6.50138 0
M  V30 5628 H 506.411 -0.231278 0.703983 0
M  V30 5629 H 509.058 0.108294 1.91194 0
M  V30 5630 H 507.363 -2.08921 3.3145 0
M  V30 5631 H 509.06 -1.80326 3.58167 0
M  V30 5632 H 505.65 -0.53614 4.25233 0
M  V30 5633 H 509.834 0.141826 4.96097 0
M  V30 5634 H 505.09 1.08003 6.01785 0
M  V30 5635 H 509.264 1.75381 6.73954 0
M  V30 5636 H 506.891 2.22897 7.26788 0
M  V30 5637 N 508.466 -1.55915 -0.229846 0
M  V30 5638 C 509.396 -1.94754 -1.28815 0
M  V30 5639 C 510.377 -0.814657 -1.49323 0
M  V30 5640 O 511.562 -1.07631 -1.61645 0
M  V30 5641 C 508.692 -2.25705 -2.63959 0
M  V30 5642 C 507.646 -3.41406 -2.5812 0
M  V30 5643 C 506.972 -3.57941 -3.97218 0
M  V30 5644 C 508.272 -4.76616 -2.13623 0
M  V30 5645 H 509.966 -2.83404 -0.965547 0
M  V30 5646 H 507.512 -1.36353 -0.463028 0
M  V30 5647 H 509.465 -2.51467 -3.38146 0
M  V30 5648 H 508.189 -1.339 -2.9789 0
M  V30 5649 H 506.848 -3.1568 -1.86391 0
M  V30 5650 H 506.496 -2.63526 -4.28443 0
M  V30 5651 H 506.196 -4.35757 -3.94195 0
M  V30 5652 H 507.72 -3.86042 -4.73079 0
M  V30 5653 H 509.134 -5.01637 -2.77549 0
M  V30 5654 H 507.531 -5.57655 -2.21677 0
M  V30 5655 H 508.601 -4.7253 -1.08829 0
M  V30 5656 N 509.944 0.496216 -1.49584 0
M  V30 5657 C 510.891 1.59722 -1.66606 0
M  V30 5658 C 511.861 1.58158 -0.507477 0
M  V30 5659 O 513.046 1.76072 -0.735076 0
M  V30 5660 C 510.186 2.97844 -1.74308 0
M  V30 5661 C 509.299 3.09388 -3.01502 0
M  V30 5662 C 508.434 4.38271 -3.00153 0
M  V30 5663 C 507.473 4.43466 -4.21906 0
M  V30 5664 N 506.61 5.63784 -4.1844 0
M  V30 5665 H 511.45 1.44515 -2.60613 0
M  V30 5666 H 508.987 0.703048 -1.29212 0
M  V30 5667 H 510.945 3.77907 -1.76754 0
M  V30 5668 H 509.575 3.11743 -0.837619 0
M  V30 5669 H 508.627 2.22357 -3.08645 0
M  V30 5670 H 509.939 3.09085 -3.91494 0
M  V30 5671 H 509.093 5.2666 -3.01188 0
M  V30 5672 H 507.832 4.41146 -2.07947 0
M  V30 5673 H 506.837 3.53478 -4.21109 0
M  V30 5674 H 508.062 4.42303 -5.1531 0
M  V30 5675 H 506.008 5.67491 -3.29074 0
M  V30 5676 H 505.925 5.65118 -5.02173 0
M  V30 5677 H 507.193 6.54367 -4.23585 0
M  V30 5678 N 511.423 1.38739 0.74761 0
M  V30 5679 C 512.37 1.36449 1.86146 0
M  V30 5680 C 513.34 0.226098 1.64554 0
M  V30 5681 O 514.525 0.41926 1.86137 0
M  V30 5682 C 511.665 1.2013 3.23516 0
M  V30 5683 C 510.778 2.43407 3.56899 0
M  V30 5684 C 509.913 2.19773 4.83605 0
M  V30 5685 C 508.952 3.3879 5.09792 0
M  V30 5686 N 508.089 3.14553 6.27695 0
M  V30 5687 H 512.929 2.3167 1.87438 0
M  V30 5688 H 510.466 1.15094 0.916063 0
M  V30 5689 H 512.424 1.08683 4.02795 0
M  V30 5690 H 511.054 0.285453 3.21535 0
M  V30 5691 H 510.106 2.65504 2.72418 0
M  V30 5692 H 511.418 3.32094 3.72176 0
M  V30 5693 H 510.572 2.05496 5.70838 0
M  V30 5694 H 509.311 1.28461 4.70478 0
M  V30 5695 H 508.316 3.53579 4.21025 0
M  V30 5696 H 509.541 4.30986 5.24812 0
M  V30 5697 H 507.487 2.25893 6.1588 0
M  V30 5698 H 507.404 3.96791 6.435 0
M  V30 5699 H 508.672 3.03943 7.17801 0
M  V30 5700 N 512.901 -0.976442 1.23707 0
M  V30 5701 C 513.811 -2.10359 1.03856 0
M  V30 5702 C 514.827 -1.73991 -0.0180919 0
M  V30 5703 O 516.003 -2.0061 0.178211 0
M  V30 5704 C 513.068 -3.40809 0.636387 0
M  V30 5705 C 512.129 -3.91179 1.76854 0
M  V30 5706 C 511.362 -5.15404 1.38546 0
M  V30 5707 O 511.585 -5.69754 0.27142 0
M  V30 5708 O 510.519 -5.5994 2.20797 0
M  V30 5709 H 514.345 -2.29997 1.98331 0
M  V30 5710 H 511.93 -1.08742 1.02448 0
M  V30 5711 H 513.812 -4.19269 0.423223 0
M  V30 5712 H 512.487 -3.22493 -0.279322 0
M  V30 5713 H 511.394 -3.13819 2.03638 0
M  V30 5714 H 512.727 -4.13958 2.6627 0
M  V30 5715 N 514.379 -1.04941 -1.1758 0
M  V30 5716 C 515.326 -0.648155 -2.21512 0
M  V30 5717 C 516.296 0.348431 -1.62404 0
M  V30 5718 O 517.481 0.240419 -1.89279 0
M  V30 5719 C 514.621 -0.0264291 -3.4509 0
M  V30 5720 C 513.734 -1.07154 -4.185 0
M  V30 5721 C 512.869 -0.417403 -5.29558 0
M  V30 5722 C 511.908 -1.447 -5.94751 0
M  V30 5723 N 511.045 -0.817203 -6.97328 0
M  V30 5724 H 515.885 -1.53891 -2.55189 0
M  V30 5725 H 513.422 -0.769699 -1.25356 0
M  V30 5726 H 515.38 0.351456 -4.15717 0
M  V30 5727 H 514.01 0.827802 -3.12005 0
M  V30 5728 H 513.062 -1.56728 -3.46613 0
M  V30 5729 H 514.374 -1.8532 -4.63096 0
M  V30 5730 H 513.528 0.0142061 -6.06698 0
M  V30 5731 H 512.267 0.396265 -4.86087 0
M  V30 5732 H 511.272 -1.88865 -5.16343 0
M  V30 5733 H 512.497 -2.26252 -6.40302 0
M  V30 5734 H 510.443 -0.0239995 -6.55996 0
M  V30 5735 H 510.36 -1.53644 -7.40223 0
M  V30 5736 H 511.628 -0.410283 -7.7842 0
M  V30 5737 N 515.857 1.33968 -0.830081 0
M  V30 5738 C 516.804 2.29387 -0.255008 0
M  V30 5739 C 517.774 1.53923 0.624243 0
M  V30 5740 O 518.959 1.82262 0.564372 0
M  V30 5741 C 516.099 3.4034 0.571209 0
M  V30 5742 C 515.212 4.30729 -0.331083 0
M  V30 5743 C 514.347 5.2879 0.505389 0
M  V30 5744 C 513.386 6.10819 -0.395843 0
M  V30 5745 N 512.523 7.00948 0.401979 0
M  V30 5746 H 517.363 2.77972 -1.07404 0
M  V30 5747 H 514.9 1.36785 -0.541133 0
M  V30 5748 H 516.858 4.03361 1.06562 0
M  V30 5749 H 515.488 2.9297 1.35529 0
M  V30 5750 H 514.54 3.68507 -0.943759 0
M  V30 5751 H 515.852 4.88181 -1.02377 0
M  V30 5752 H 515.006 5.97297 1.06399 0
M  V30 5753 H 513.745 4.71894 1.23155 0
M  V30 5754 H 512.75 5.41238 -0.966529 0
M  V30 5755 H 513.975 6.69797 -1.12023 0
M  V30 5756 H 511.921 6.46512 1.11168 0
M  V30 5757 H 511.838 7.55643 -0.232167 0
M  V30 5758 H 513.106 7.73774 0.943102 0
M  V30 5759 N 517.335 0.585699 1.46312 0
M  V30 5760 C 518.282 -0.145835 2.30339 0
M  V30 5761 C 519.252 -0.881215 1.40797 0
M  V30 5762 O 520.437 -0.871293 1.69744 0
M  V30 5763 C 517.577 -1.15161 3.25318 0
M  V30 5764 C 516.69 -0.419367 4.2996 0
M  V30 5765 C 515.825 -1.41293 5.12064 0
M  V30 5766 C 514.864 -0.667261 6.08452 0
M  V30 5767 N 514.001 -1.60903 6.83414 0
M  V30 5768 H 518.841 0.576755 2.92365 0
M  V30 5769 H 516.378 0.296237 1.44086 0
M  V30 5770 H 518.336 -1.74763 3.78832 0
M  V30 5771 H 516.966 -1.84188 2.65094 0
M  V30 5772 H 516.018 0.291751 3.7928 0
M  V30 5773 H 517.33 0.163433 4.98532 0
M  V30 5774 H 516.484 -2.08167 5.6987 0
M  V30 5775 H 515.223 -2.02966 4.43459 0
M  V30 5776 H 514.228 0.0152356 5.49798 0
M  V30 5777 H 515.453 -0.0558817 6.79077 0
M  V30 5778 H 513.399 -2.21381 6.17516 0
M  V30 5779 H 513.316 -1.07911 7.48259 0
M  V30 5780 H 514.584 -2.26802 7.45775 0
M  V30 5781 O 518.852 -1.54637 0.465785 0
M  V30 5782 H 519.543 -1.93604 -0.0608748 0
M  V30 END ATOM
M  V30 BEGIN BOND
M  V30 END BOND
M  V30 END CTAB
M  END
$$$$
