drugbank_target|Q26000 GTPase (Rab6) (DB04315)
 OpenBabel12092120293D

  0  0  0     0  0            999 V3000
M  V30 BEGIN CTAB
M  V30 COUNTS 3303 3328 0 0 0
M  V30 BEGIN ATOM
M  V30 1 H -0.908 1.98254 -0.117106 0
M  V30 2 N 0 1.576 0 0
M  V30 3 C 0.933 2.03868 1.02534 0
M  V30 4 C 1.911 0.928543 1.3348 0
M  V30 5 O 3.095 1.19667 1.45644 0
M  V30 6 C 0.222 2.43627 2.35294 0
M  V30 7 C -0.732 3.65373 2.2001 0
M  V30 8 S 0.101 5.13292 1.52614 0
M  V30 9 C 1.257 5.56322 2.86805 0
M  V30 10 H 1.49 2.90518 0.631377 0
M  V30 11 H -0.977 1.52953 0.210867 0
M  V30 12 H 0.981 2.67203 3.11629 0
M  V30 13 H -0.358 1.57376 2.7183 0
M  V30 14 H -1.165 3.90944 3.18086 0
M  V30 15 H -1.563 3.418 1.51819 0
M  V30 16 H 0.729 5.58782 3.83104 0
M  V30 17 H 1.672 6.56266 2.65933 0
M  V30 18 H 2.08 4.83886 2.90714 0
M  V30 19 N 1.4781 -0.272755 1.55222 0
M  V30 20 C 2.7551 -1.02562 1.66555 0
M  V30 21 C 3.1351 -2.04282 0.532189 0
M  V30 22 O 2.4831 -2.23662 -0.467717 0
M  V30 23 C 2.6931 -1.6822 3.05782 0
M  V30 24 C 4.0411 -2.19373 3.63539 0
M  V30 25 O 5.0651 -1.78206 3.08417 0
M  V30 26 O 3.9241 -2.94883 4.60115 0
M  V30 27 H 1.0181 -0.475755 0.676451 0
M  V30 28 H 3.5641 -0.268593 1.67561 0
M  V30 29 H 2.3361 -0.945112 3.79715 0
M  V30 30 H 1.9591 -2.50609 3.08676 0
M  V30 31 N 2.9562 -1.48159 -0.537278 0
M  V30 32 C 3.8662 -1.64807 -1.6696 0
M  V30 33 C 4.8822 -0.530651 -1.65711 0
M  V30 34 O 6.0582 -0.800784 -1.84796 0
M  V30 35 C 3.1232 -1.67708 -3.03438 0
M  V30 36 C 2.1842 -2.91025 -3.156 0
M  V30 37 C 1.4172 -2.93778 -4.45567 0
M  V30 38 O 1.6402 -2.05153 -5.3223 0
M  V30 39 O 0.5742 -3.85868 -4.61941 0
M  V30 40 H 4.4002 -2.6066 -1.55853 0
M  V30 41 H 1.9852 -1.31475 -0.709549 0
M  V30 42 H 3.8672 -1.7218 -3.84619 0
M  V30 43 H 2.5422 -0.750278 -3.14885 0
M  V30 44 H 1.4492 -2.92089 -2.33741 0
M  V30 45 H 2.7822 -3.83065 -3.09066 0
M  V30 46 N 4.4343 0.785586 -1.36625 0
M  V30 47 C 5.6813 1.54362 -1.31067 0
M  V30 48 C 6.0093 1.94195 0.10893 0
M  V30 49 O 5.2643 1.63262 1.07908 0
M  V30 50 C 5.5633 2.83007 -2.1827 0
M  V30 51 C 5.2293 2.62294 -3.6676 0
M  V30 52 C 3.8913 2.56353 -4.0723 0
M  V30 53 C 6.2433 2.43371 -4.6089 0
M  V30 54 C 3.5713 2.29461 -5.39967 0
M  V30 55 C 5.9233 2.18005 -5.93849 0
M  V30 56 C 4.5873 2.105 -6.3344 0
M  V30 57 H 3.8573 0.564851 -0.479609 0
M  V30 58 H 6.5043 0.906028 -1.68711 0
M  V30 59 H 4.8093 3.51253 -1.73576 0
M  V30 60 H 6.5063 3.40817 -2.11292 0
M  V30 61 H 3.0963 2.67774 -3.34656 0
M  V30 62 H 7.2803 2.46959 -4.30494 0
M  V30 63 H 2.5363 2.22135 -5.69619 0
M  V30 64 H 6.7103 2.02359 -6.66351 0
M  V30 65 H 4.3373 1.89425 -7.36222 0
M  V30 66 N 5.9124 1.20967 1.01018 0
M  V30 67 C 6.8444 0.922059 2.09835 0
M  V30 68 C 7.8574 -0.0927106 1.62536 0
M  V30 69 O 9.0464 0.139127 1.77957 0
M  V30 70 C 6.1464 0.362004 3.36961 0
M  V30 71 C 5.3194 1.42986 4.13369 0
M  V30 72 C 4.3784 0.879976 5.1879 0
M  V30 73 O 3.4044 1.56219 5.47343 0
M  V30 74 N 4.6064 -0.307396 5.79686 0
M  V30 75 H 7.3714 1.8588 2.35093 0
M  V30 76 H 4.9324 1.11422 1.1746 0
M  V30 77 H 6.9244 -0.0201474 4.04695 0
M  V30 78 H 5.4944 -0.479437 3.08902 0
M  V30 79 H 4.7144 1.98608 3.40512 0
M  V30 80 H 6.0024 2.14885 4.61196 0
M  V30 81 H 5.4004 -0.878796 5.58832 0
M  V30 82 H 3.9574 -0.631115 6.48737 0
M  V30 83 N 7.3905 -1.2043 1.01659 0
M  V30 84 C 8.3385 -2.25249 0.580143 0
M  V30 85 C 9.3325 -1.65057 -0.381115 0
M  V30 86 O 10.5385 -1.78241 -0.251039 0
M  V30 87 H 6.9135 -0.732695 0.169299 0
M  V30 88 H 8.8845 -2.59389 1.47512 0
M  V30 89 C 7.6335 -3.47638 -0.065788 0
M  V30 90 H 6.9565 -3.94233 0.664874 0
M  V30 91 H 8.3965 -4.2268 -0.334282 0
M  V30 92 C 6.8555 -3.10447 -1.3086 0
M  V30 93 O 7.3855 -3.21981 -2.4019 0
M  V30 94 N 5.5915 -2.64996 -1.1927 0
M  V30 95 H 5.1385 -2.55811 -0.303064 0
M  V30 96 H 5.0965 -2.40482 -2.02523 0
M  V30 97 N 8.8686 -0.792821 -1.36206 0
M  V30 98 C 10.0936 -0.377701 -2.03932 0
M  V30 99 C 10.5186 0.998947 -1.59382 0
M  V30 100 O 9.8766 1.64421 -0.763903 0
M  V30 101 C 9.9246 -0.453635 -3.57735 0
M  V30 102 O 9.0286 0.538151 -4.08874 0
M  V30 103 H 8.3696 -0.159855 -0.644471 0
M  V30 104 H 10.8996 -1.07488 -1.7409 0
M  V30 105 H 10.9096 -0.318464 -4.06755 0
M  V30 106 H 9.5846 -1.45784 -3.89512 0
M  V30 107 H 8.1616 0.364359 -3.71116 0
M  V30 108 N 10.3467 1.47872 -0.545128 0
M  V30 109 C 11.5947 2.02093 -0.016553 0
M  V30 110 C 11.9157 1.42305 1.3332 0
M  V30 111 O 11.1857 0.593853 1.86682 0
M  V30 112 H 9.7657 0.746993 -0.00313038 0
M  V30 113 H 12.4277 1.81414 -0.712397 0
M  V30 114 H 11.5237 3.11996 0.0805422 0
M  V30 115 N 11.8248 0.280983 1.55075 0
M  V30 116 C 12.7548 -0.597469 2.25727 0
M  V30 117 C 13.7358 -1.15417 1.24952 0
M  V30 118 O 14.9208 -1.18722 1.53684 0
M  V30 119 C 12.0508 -1.7789 2.98283 0
M  V30 120 C 11.0048 -1.35347 4.06036 0
M  V30 121 C 10.3308 -2.61846 4.66198 0
M  V30 122 C 11.6308 -0.499354 5.19907 0
M  V30 123 H 13.3248 -0.00824265 2.99399 0
M  V30 124 H 10.8708 -0.0025244 1.44 0
M  V30 125 H 12.8238 -2.39937 3.46422 0
M  V30 126 H 11.5478 -2.39405 2.22155 0
M  V30 127 H 10.2068 -0.756156 3.58717 0
M  V30 128 H 9.8548 -3.21632 3.86732 0
M  V30 129 H 9.5548 -2.3409 5.38958 0
M  V30 130 H 11.0788 -3.24732 5.1709 0
M  V30 131 H 12.4928 -1.02498 5.64063 0
M  V30 132 H 10.8898 -0.316424 5.99265 0
M  V30 133 H 11.9598 0.480459 4.82514 0
M  V30 134 N 13.3029 -1.57598 0.00835791 0
M  V30 135 C 14.2509 -2.10078 -0.998508 0
M  V30 136 C 15.2449 -1.02262 -1.35051 0
M  V30 137 O 16.4509 -1.20719 -1.33518 0
M  V30 138 H 12.8259 -0.670903 -0.339696 0
M  V30 139 H 14.7969 -2.93648 -0.530398 0
M  V30 140 C 13.5459 -2.62615 -2.27879 0
M  V30 141 H 12.8689 -3.45213 -2.01662 0
M  V30 142 H 14.3089 -3.03004 -2.96588 0
M  V30 143 C 12.7679 -1.54407 -2.99433 0
M  V30 144 O 13.2979 -0.931812 -3.90743 0
M  V30 145 N 11.5039 -1.2695 -2.61404 0
M  V30 146 H 11.0509 -1.76924 -1.87232 0
M  V30 147 H 11.0089 -0.547704 -3.09593 0
M  V30 148 N 14.781 0.264519 -1.55364 0
M  V30 149 C 15.728 1.32717 -1.88825 0
M  V30 150 C 16.698 1.48675 -0.740605 0
M  V30 151 O 17.883 1.62945 -0.992657 0
M  V30 152 C 15.023 2.68089 -2.17307 0
M  V30 153 C 14.136 2.60284 -3.44785 0
M  V30 154 C 13.271 3.87892 -3.62924 0
M  V30 155 C 12.31 3.74631 -4.84064 0
M  V30 156 N 11.447 4.94092 -4.98816 0
M  V30 157 H 16.287 1.03481 -2.79456 0
M  V30 158 H 13.824 0.499757 -1.3835 0
M  V30 159 H 15.782 3.46864 -2.31821 0
M  V30 160 H 14.412 2.95509 -1.299 0
M  V30 161 H 13.464 1.73173 -3.38697 0
M  V30 162 H 14.776 2.46388 -4.33698 0
M  V30 163 H 13.93 4.75109 -3.77302 0
M  V30 164 H 12.669 4.04664 -2.7221 0
M  V30 165 H 11.674 2.85797 -4.69681 0
M  V30 166 H 12.899 3.5937 -5.76221 0
M  V30 167 H 10.845 5.11259 -4.11036 0
M  V30 168 H 10.762 4.8276 -5.81789 0
M  V30 169 H 12.03 5.82857 -5.17588 0
M  V30 170 N 16.2591 1.48442 0.529413 0
M  V30 171 C 17.4891 1.59919 1.30804 0
M  V30 172 C 17.8971 0.258792 1.87422 0
M  V30 173 O 17.2401 -0.762096 1.67146 0
M  V30 174 C 17.3021 2.58693 2.49636 0
M  V30 175 C 16.9661 4.03745 2.14101 0
M  V30 176 C 17.9631 4.9141 1.6974 0
M  V30 177 C 15.6481 4.49285 2.24607 0
M  V30 178 C 17.6421 6.22645 1.36351 0
M  V30 179 C 15.3291 5.8054 1.9083 0
M  V30 180 C 16.3271 6.67043 1.46773 0
M  V30 181 O 16.0151 7.95856 1.1344 0
M  V30 182 H 15.7471 0.541981 0.404021 0
M  V30 183 H 18.3011 1.95 0.645309 0
M  V30 184 H 16.5311 2.18734 3.18892 0
M  V30 185 H 18.2201 2.59999 3.11698 0
M  V30 186 H 18.9861 4.57465 1.61094 0
M  V30 187 H 14.8651 3.82142 2.57854 0
M  V30 188 H 18.4091 6.90119 1.01891 0
M  V30 189 H 14.3061 6.14022 1.99117 0
M  V30 190 H 15.0741 8.08613 1.26832 0
M  V30 191 N 17.7372 -0.778329 1.37039 0
M  V30 192 C 18.6842 -1.89139 1.32269 0
M  V30 193 C 19.6542 -1.65017 0.189387 0
M  V30 194 O 20.8392 -1.87024 0.377693 0
M  V30 195 C 17.9792 -3.26112 1.12894 0
M  V30 196 C 17.0922 -3.62233 2.35396 0
M  V30 197 C 16.2272 -4.8838 2.08946 0
M  V30 198 C 15.2662 -5.17212 3.2735 0
M  V30 199 N 14.4032 -6.34546 3.00492 0
M  V30 200 H 19.2432 -1.92552 2.27437 0
M  V30 201 H 16.7802 -0.941473 1.13025 0
M  V30 202 H 18.7382 -4.05116 0.996835 0
M  V30 203 H 17.3682 -3.22091 0.213758 0
M  V30 204 H 16.4202 -2.78265 2.5937 0
M  V30 205 H 17.7322 -3.79481 3.23721 0
M  V30 206 H 16.8862 -5.75274 1.92729 0
M  V30 207 H 15.6252 -4.73222 1.17949 0
M  V30 208 H 14.6302 -4.28796 3.44113 0
M  V30 209 H 15.8552 -5.34283 4.19188 0
M  V30 210 H 13.8012 -6.20759 2.12118 0
M  V30 211 H 13.7182 -6.52179 3.82358 0
M  V30 212 H 14.9862 -7.24394 2.87879 0
M  V30 213 N 19.2153 -1.21501 -1.00376 0
M  V30 214 C 20.1453 -0.999478 -2.11028 0
M  V30 215 C 21.1263 0.0759671 -1.6993 0
M  V30 216 O 22.3113 -0.0841106 -1.94018 0
M  V30 217 C 19.4413 -0.564709 -3.42678 0
M  V30 218 C 18.3953 -1.58486 -3.97576 0
M  V30 219 C 17.7213 -1.00628 -5.25146 0
M  V30 220 C 19.0213 -2.97204 -4.29496 0
M  V30 221 H 20.7153 -1.92495 -2.29317 0
M  V30 222 H 18.2613 -0.92693 -1.102 0
M  V30 223 H 20.2143 -0.401091 -4.19487 0
M  V30 224 H 18.9383 0.396411 -3.24185 0
M  V30 225 H 17.5973 -1.73606 -3.22888 0
M  V30 226 H 17.2453 -0.0368439 -5.02987 0
M  V30 227 H 16.9453 -1.68771 -5.62841 0
M  V30 228 H 18.4693 -0.854015 -6.04598 0
M  V30 229 H 19.8833 -2.8552 -4.97143 0
M  V30 230 H 18.2803 -3.62372 -4.78338 0
M  V30 231 H 19.3503 -3.47956 -3.3772 0
M  V30 232 N 20.6934 1.19889 -1.02296 0
M  V30 233 C 21.9394 1.89701 -0.717033 0
M  V30 234 C 22.2724 1.7905 0.751989 0
M  V30 235 O 21.5474 1.17891 1.547 0
M  V30 236 C 21.8304 3.40858 -1.16136 0
M  V30 237 C 21.6834 3.60411 -2.69117 0
M  V30 238 C 23.0024 4.33876 -0.737549 0
M  V30 239 H 20.1214 0.688874 -0.261957 0
M  V30 240 H 22.7634 1.41154 -1.27183 0
M  V30 241 H 20.9134 3.82335 -0.689342 0
M  V30 242 H 22.5854 3.28145 -3.2422 0
M  V30 243 H 20.8284 3.03665 -3.0979 0
M  V30 244 H 21.4994 4.66396 -2.95261 0
M  V30 245 H 23.9754 4.00081 -1.14344 0
M  V30 246 H 22.8514 5.38242 -1.0764 0
M  V30 247 H 23.1124 4.40628 0.360436 0
M  V30 248 N 22.1715 0.800033 1.35784 0
M  V30 249 C 23.4185 0.377342 1.98953 0
M  V30 250 C 23.7465 -1.05378 1.6348 0
M  V30 251 O 23.0015 -1.74459 0.886707 0
M  V30 252 C 23.3005 0.500276 3.53881 0
M  V30 253 C 22.9665 1.89375 4.09204 0
M  V30 254 C 21.6285 2.27499 4.24025 0
M  V30 255 C 23.9805 2.8057 4.39238 0
M  V30 256 C 21.3085 3.562 4.66195 0
M  V30 257 C 23.6605 4.0871 4.82844 0
M  V30 258 C 22.3245 4.46843 4.95871 0
M  V30 259 H 21.5945 0.138079 0.728021 0
M  V30 260 H 24.2415 1.01955 1.62103 0
M  V30 261 H 22.5465 -0.225405 3.91151 0
M  V30 262 H 24.2435 0.154097 4.00704 0
M  V30 263 H 20.8335 1.58753 3.98115 0
M  V30 264 H 25.0175 2.52367 4.27346 0
M  V30 265 H 20.2735 3.85602 4.74469 0
M  V30 266 H 24.4475 4.79481 5.05046 0
M  V30 267 H 22.0745 5.46623 5.28306 0
M  V30 268 N 23.6496 -1.47581 0.552962 0
M  V30 269 C 24.5796 -2.32762 -0.185451 0
M  V30 270 C 25.5606 -1.43527 -0.912905 0
M  V30 271 O 26.7456 -1.72388 -0.894201 0
M  V30 272 C 23.8756 -3.25219 -1.21859 0
M  V30 273 C 22.8296 -4.23661 -0.607864 0
M  V30 274 C 22.1556 -5.05413 -1.74533 0
M  V30 275 C 23.4556 -5.20481 0.435582 0
M  V30 276 H 25.1496 -2.94749 0.525684 0
M  V30 277 H 22.6956 -1.41738 0.254251 0
M  V30 278 H 24.6486 -3.8365 -1.7433 0
M  V30 279 H 23.3726 -2.61279 -1.95961 0
M  V30 280 H 22.0316 -3.66451 -0.104489 0
M  V30 281 H 21.6796 -4.3788 -2.47529 0
M  V30 282 H 21.3796 -5.72059 -1.34249 0
M  V30 283 H 22.9036 -5.66701 -2.27338 0
M  V30 284 H 24.3176 -5.733 -0.00290157 0
M  V30 285 H 22.7146 -5.95305 0.757067 0
M  V30 286 H 23.7846 -4.66217 1.33303 0
M  V30 287 N 25.1277 -0.289203 -1.54924 0
M  V30 288 C 26.3757 0.322879 -1.99504 0
M  V30 289 C 26.6967 1.55313 -1.1791 0
M  V30 290 O 25.9667 1.94001 -0.272097 0
M  V30 291 H 24.5467 0.122291 -0.736922 0
M  V30 292 H 27.2087 -0.397802 -1.90797 0
M  V30 293 H 26.3047 0.603061 -3.06218 0
M  V30 294 N 26.6058 1.57591 -0.0167156 0
M  V30 295 C 27.5158 2.1291 0.98521 0
M  V30 296 C 28.5318 1.07834 1.36557 0
M  V30 297 O 29.7078 1.39826 1.44951 0
M  V30 298 C 26.7728 2.63512 2.25305 0
M  V30 299 C 25.8338 3.83256 1.93426 0
M  V30 300 C 25.0668 4.31435 3.14165 0
M  V30 301 O 25.2898 3.78851 4.26413 0
M  V30 302 O 24.2238 5.23416 2.97186 0
M  V30 303 H 28.0498 2.98772 0.544888 0
M  V30 304 H 25.6348 1.48012 0.203141 0
M  V30 305 H 27.5168 2.96183 2.99756 0
M  V30 306 H 26.1918 1.8074 2.68542 0
M  V30 307 H 25.0988 3.55531 1.16398 0
M  V30 308 H 26.4318 4.67153 1.55013 0
M  V30 309 N 28.0839 -0.256276 1.55502 0
M  V30 310 C 29.0159 -1.33981 1.85962 0
M  V30 311 C 30.0289 -1.44743 0.745212 0
M  V30 312 O 31.2179 -1.4626 1.02324 0
M  V30 313 C 28.3179 -2.7194 2.02242 0
M  V30 314 C 27.4909 -2.83562 3.33033 0
M  V30 315 C 26.5499 -4.02304 3.39172 0
M  V30 316 O 25.5759 -3.92273 4.12444 0
M  V30 317 N 26.7779 -5.15045 2.67784 0
M  V30 318 H 29.5429 -1.08191 2.7949 0
M  V30 319 H 27.1039 -0.446388 1.55624 0
M  V30 320 H 29.0959 -3.49697 2.03701 0
M  V30 321 H 27.6659 -2.90479 1.15502 0
M  V30 322 H 26.8859 -1.92555 3.43971 0
M  V30 323 H 28.1739 -2.88271 4.19258 0
M  V30 324 H 27.5719 -5.26085 2.07968 0
M  V30 325 H 26.1289 -5.90972 2.74947 0
M  V30 326 N 29.562 -1.4872 -0.521534 0
M  V30 327 C 30.525 -1.63379 -1.60748 0
M  V30 328 C 31.525 -0.50661 -1.52611 0
M  V30 329 O 32.715 -0.772601 -1.5613 0
M  V30 330 C 29.847 -1.61192 -3.00383 0
M  V30 331 H 31.04 -2.60217 -1.49087 0
M  V30 332 H 28.593 -1.37444 -0.744235 0
M  V30 333 H 29.328 -0.65863 -3.17541 0
M  V30 334 H 29.113 -2.43032 -3.07698 0
M  V30 335 H 30.603 -1.7466 -3.7932 0
M  V30 336 N 31.0401 0.771051 -1.3745 0
M  V30 337 C 32.2861 1.5319 -1.32894 0
M  V30 338 C 32.6191 1.94008 0.0862511 0
M  V30 339 O 31.8941 1.64124 1.04373 0
M  V30 340 C 32.1771 2.79648 -2.26868 0
M  V30 341 C 32.0301 2.45079 -3.77169 0
M  V30 342 C 33.3491 3.81583 -2.19277 0
M  V30 343 H 30.4681 0.555744 -0.484064 0
M  V30 344 H 33.1101 0.884492 -1.68157 0
M  V30 345 H 31.2601 3.34891 -1.96926 0
M  V30 346 H 32.9321 1.95745 -4.1771 0
M  V30 347 H 31.1751 1.77767 -3.95704 0
M  V30 348 H 31.8461 3.35478 -4.38359 0
M  V30 349 H 34.3221 3.35835 -2.45671 0
M  V30 350 H 33.1981 4.67787 -2.87171 0
M  V30 351 H 33.4591 4.25897 -1.18592 0
M  V30 352 N 32.5182 1.22032 0.997298 0
M  V30 353 C 33.7662 1.04016 1.73278 0
M  V30 354 C 34.0872 -0.426255 1.90284 0
M  V30 355 O 33.3572 -1.30694 1.45931 0
M  V30 356 H 31.9372 0.381897 0.642 0
M  V30 357 H 34.5992 1.5347 1.20137 0
M  V30 358 H 33.6952 1.51441 2.72896 0
M  V30 359 N 33.9963 -1.19345 1.0293 0
M  V30 360 C 34.9433 -2.2258 0.610464 0
M  V30 361 C 35.9133 -1.6179 -0.375946 0
M  V30 362 O 37.0983 -1.88844 -0.272511 0
M  V30 363 C 34.2383 -3.45085 -0.0321473 0
M  V30 364 C 33.3513 -4.20258 1.00035 0
M  V30 365 C 32.4863 -5.3019 0.32746 0
M  V30 366 C 31.5253 -5.97121 1.34584 0
M  V30 367 N 30.6623 -6.98615 0.698726 0
M  V30 368 H 35.5023 -2.57764 1.49538 0
M  V30 369 H 33.0393 -1.26644 0.748311 0
M  V30 370 H 34.9973 -4.15061 -0.421966 0
M  V30 371 H 33.6273 -3.10555 -0.88064 0
M  V30 372 H 32.6793 -3.49223 1.50823 0
M  V30 373 H 33.9913 -4.66175 1.77433 0
M  V30 374 H 33.1453 -6.06587 -0.11718 0
M  V30 375 H 31.8843 -4.85345 -0.478713 0
M  V30 376 H 30.8893 -5.19474 1.80074 0
M  V30 377 H 32.1143 -6.4405 2.15352 0
M  V30 378 H 30.0603 -6.55942 -0.0873471 0
M  V30 379 H 29.9773 -7.42724 1.41058 0
M  V30 380 H 31.2453 -7.79004 0.278102 0
M  V30 381 N 35.4744 -0.807222 -1.35358 0
M  V30 382 C 36.7024 -0.400377 -2.02989 0
M  V30 383 C 37.1174 0.988859 -1.60832 0
M  V30 384 O 36.4744 1.63729 -0.806175 0
M  V30 385 C 36.5254 -0.474867 -3.58368 0
M  V30 386 O 36.2464 -1.80933 -3.98992 0
M  V30 387 C 37.7474 -0.0609112 -4.43258 0
M  V30 388 H 34.9674 -0.162587 -0.651004 0
M  V30 389 H 37.5114 -1.09102 -1.72965 0
M  V30 390 H 35.6664 0.167534 -3.87038 0
M  V30 391 H 36.0804 -1.77256 -4.9364 0
M  V30 392 H 37.5544 -0.164145 -5.51756 0
M  V30 393 H 38.0314 0.993831 -4.27808 0
M  V30 394 H 38.6374 -0.676492 -4.19885 0
M  V30 395 N 36.9525 1.47285 -0.560781 0
M  V30 396 C 38.1775 2.07359 -0.0410566 0
M  V30 397 C 38.6025 1.41017 1.24483 0
M  V30 398 O 37.9605 0.486368 1.74654 0
M  V30 399 C 38.0085 3.6035 0.134123 0
M  V30 400 O 37.1125 3.94681 1.19587 0
M  V30 401 H 36.4535 0.661887 -0.0529291 0
M  V30 402 H 38.9835 1.89252 -0.777482 0
M  V30 403 H 38.9935 4.0652 0.347207 0
M  V30 404 H 37.6685 4.08034 -0.805047 0
M  V30 405 H 36.2455 3.60251 0.962987 0
M  V30 406 N 38.4306 0.297415 1.54768 0
M  V30 407 C 39.6796 -0.313669 1.99246 0
M  V30 408 C 39.9926 -1.55281 1.18942 0
M  V30 409 O 41.1986 -2.23825 1.5367 0
M  V30 410 C 39.6546 -0.609407 3.54703 0
M  V30 411 C 39.2626 0.611192 4.43811 0
M  V30 412 C 41.0066 -1.18188 4.07715 0
M  V30 413 C 38.9136 0.288805 5.90694 0
M  V30 414 H 37.8436 -0.120979 0.744231 0
M  V30 415 H 40.4946 0.40556 1.78962 0
M  V30 416 H 38.8766 -1.38813 3.70873 0
M  V30 417 H 40.0506 1.3875 4.39414 0
M  V30 418 H 38.3656 1.10205 4.01552 0
M  V30 419 H 40.9626 -1.43727 5.15021 0
M  V30 420 H 41.3056 -2.12299 3.58099 0
M  V30 421 H 41.8386 -0.464944 3.95074 0
M  V30 422 H 38.5776 1.19838 6.44453 0
M  V30 423 H 38.0976 -0.450305 5.98107 0
M  V30 424 H 39.7766 -0.110933 6.46905 0
M  V30 425 N 39.9087 -1.5758 0.0250728 0
M  V30 426 C 41.1577 -1.90811 -0.653767 0
M  V30 427 C 41.4707 -0.90273 -1.73523 0
M  V30 428 O 42.6767 -1.12614 -2.47043 0
M  V30 429 C 41.1327 -3.38804 -1.21409 0
M  V30 430 C 40.7407 -4.47692 -0.166126 0
M  V30 431 C 42.4847 -3.81108 -1.86967 0
M  V30 432 C 40.3917 -5.86779 -0.737856 0
M  V30 433 H 39.3217 -0.712063 -0.247956 0
M  V30 434 H 41.9727 -1.83281 0.0897137 0
M  V30 435 H 40.3547 -3.41252 -2.00905 0
M  V30 436 H 41.5287 -4.56797 0.606079 0
M  V30 437 H 39.8437 -4.14565 0.390466 0
M  V30 438 H 42.4407 -4.82375 -2.30692 0
M  V30 439 H 42.7837 -3.15953 -2.71071 0
M  V30 440 H 43.3167 -3.81065 -1.14167 0
M  V30 441 H 40.0557 -6.55468 0.0649577 0
M  V30 442 H 39.5757 -5.81288 -1.47864 0
M  V30 443 H 41.2547 -6.35223 -1.22884 0
M  V30 444 N 41.3868 0.248026 -1.55636 0
M  V30 445 C 42.6148 0.993808 -1.81469 0
M  V30 446 C 43.0298 1.78991 -0.60064 0
M  V30 447 O 42.3868 1.77345 0.430682 0
M  V30 448 C 42.4378 1.93258 -3.05506 0
M  V30 449 O 42.1588 1.16869 -4.22224 0
M  V30 450 C 43.6598 2.79444 -3.4413 0
M  V30 451 H 40.8798 0.292486 -0.603898 0
M  V30 452 H 43.4238 0.271253 -2.02693 0
M  V30 453 H 41.5788 2.60943 -2.86335 0
M  V30 454 H 41.9928 1.80359 -4.92515 0
M  V30 455 H 43.4668 3.41066 -4.34026 0
M  V30 456 H 43.9438 3.50499 -2.64665 0
M  V30 457 H 44.5498 2.17214 -3.65648 0
M  V30 458 N 42.8649 1.48995 0.513639 0
M  V30 459 C 44.2809 1.35478 0.843682 0
M  V30 460 C 44.4809 0.378213 1.97919 0
M  V30 461 O 43.5369 -0.194689 2.51748 0
M  V30 462 C 44.8499 2.75901 1.1958 0
M  V30 463 C 46.3979 2.84509 1.30474 0
M  V30 464 C 46.8729 4.25671 1.69021 0
M  V30 465 N 48.3639 4.28422 1.76094 0
M  V30 466 C 49.0989 5.34601 2.07338 0
M  V30 467 N 48.5949 6.5104 2.36894 0
M  V30 468 N 50.3879 5.22007 2.08483 0
M  V30 469 H 42.5389 2.11092 -0.235328 0
M  V30 470 H 44.8019 0.947039 -0.0426669 0
M  V30 471 H 44.5079 3.49001 0.434913 0
M  V30 472 H 44.3819 3.10467 2.1422 0
M  V30 473 H 46.7689 2.11655 2.05637 0
M  V30 474 H 46.8499 2.53542 0.339155 0
M  V30 475 H 46.4939 4.99048 0.944135 0
M  V30 476 H 46.4239 4.54094 2.66658 0
M  V30 477 H 48.9149 3.44441 1.55464 0
M  V30 478 H 49.2279 7.2779 2.59887 0
M  V30 479 H 47.5729 6.54287 2.34378 0
M  V30 480 H 50.7639 4.30051 1.84861 0
M  V30 481 H 50.9369 6.04854 2.325 0
M  V30 482 N 44.343 -0.763751 1.37857 0
M  V30 483 C 45.59 -1.52257 1.33506 0
M  V30 484 C 45.918 -1.94343 -0.078022 0
M  V30 485 O 45.173 -1.64958 -1.05297 0
M  V30 486 C 45.472 -2.79499 2.22745 0
M  V30 487 C 45.138 -2.56426 3.70886 0
M  V30 488 C 43.8 -2.49842 4.11257 0
M  V30 489 C 46.152 -2.36008 4.64704 0
M  V30 490 C 43.48 -2.20841 5.43549 0
M  V30 491 C 45.832 -2.0853 5.97242 0
M  V30 492 C 44.496 -2.00396 6.36709 0
M  V30 493 H 43.766 -0.557149 0.488534 0
M  V30 494 H 46.413 -0.879073 1.70131 0
M  V30 495 H 44.718 -3.48447 1.79142 0
M  V30 496 H 46.415 -3.37413 2.16688 0
M  V30 497 H 43.005 -2.62416 3.38874 0
M  V30 498 H 47.189 -2.40079 4.34368 0
M  V30 499 H 42.445 -2.13045 5.73081 0
M  V30 500 H 46.619 -1.91732 6.69486 0
M  V30 501 H 44.246 -1.77688 7.39142 0
M  V30 502 N 45.8211 -1.22559 -0.990812 0
M  V30 503 C 46.7541 -0.940773 -2.07905 0
M  V30 504 C 47.7321 0.117082 -1.62178 0
M  V30 505 O 48.9161 -0.0149506 -1.88494 0
M  V30 506 C 46.0431 -0.415321 -3.36144 0
M  V30 507 C 45.0891 -1.45818 -4.00799 0
M  V30 508 S 45.9221 -3.03219 -4.41382 0
M  V30 509 C 47.0781 -2.52317 -5.72789 0
M  V30 510 H 47.3111 -1.8623 -2.31745 0
M  V30 511 H 44.8441 -1.05688 -1.12558 0
M  V30 512 H 46.8021 -0.118747 -4.10328 0
M  V30 513 H 45.4631 0.485121 -3.10331 0
M  V30 514 H 44.6561 -1.04044 -4.93144 0
M  V30 515 H 44.2581 -1.70356 -3.32949 0
M  V30 516 H 46.5501 -1.93688 -6.49224 0
M  V30 517 H 47.4931 -3.43161 -6.19392 0
M  V30 518 H 47.9011 -1.93529 -5.30289 0
M  V30 519 N 47.2992 1.18797 -1.03562 0
M  V30 520 C 48.5292 1.92319 -0.754773 0
M  V30 521 C 48.9372 1.7612 0.691248 0
M  V30 522 O 48.2802 1.08491 1.48241 0
M  V30 523 C 48.3422 3.44284 -1.03484 0
M  V30 524 C 48.0062 3.84258 -2.47376 0
M  V30 525 C 49.0032 3.88459 -3.45537 0
M  V30 526 C 46.6882 4.15701 -2.81954 0
M  V30 527 C 48.6822 4.23545 -4.76328 0
M  V30 528 C 46.3692 4.50458 -4.12954 0
M  V30 529 C 47.3672 4.54356 -5.09951 0
M  V30 530 O 47.0552 4.88305 -6.38603 0
M  V30 531 H 46.7872 0.617527 -0.275021 0
M  V30 532 H 49.3412 1.51683 -1.38497 0
M  V30 533 H 47.5712 3.85135 -0.347513 0
M  V30 534 H 49.2602 3.99049 -0.7426 0
M  V30 535 H 50.0262 3.6431 -3.20162 0
M  V30 536 H 45.9052 4.11847 -2.0713 0
M  V30 537 H 49.4492 4.26502 -5.52035 0
M  V30 538 H 45.3462 4.74067 -4.38099 0
M  V30 539 H 46.1142 5.06227 -6.43177 0
M  V30 540 N 48.7773 0.814389 1.34928 0
M  V30 541 C 50.0543 0.321363 1.92942 0
M  V30 542 C 50.4343 -1.19014 1.74353 0
M  V30 543 O 49.7823 -1.99328 1.11716 0
M  V30 544 C 49.9923 0.741323 3.41036 0
M  V30 545 C 51.3403 0.735266 4.18185 0
M  V30 546 O 52.3643 0.68336 3.49584 0
M  V30 547 O 51.2233 0.800703 5.40602 0
M  V30 548 H 48.3173 0.0858893 0.822528 0
M  V30 549 H 50.8633 0.898609 1.43955 0
M  V30 550 H 49.6353 1.78276 3.4833 0
M  V30 551 H 49.2583 0.139307 3.97356 0
M  V30 552 N 50.2554 -1.46986 0.568584 0
M  V30 553 C 51.4834 -2.0683 0.0539956 0
M  V30 554 C 51.8984 -1.41953 -1.24478 0
M  V30 555 O 51.2554 -0.519933 -1.74937 0
M  V30 556 C 51.3064 -3.61254 -0.133362 0
M  V30 557 O 51.0274 -4.237 1.11399 0
M  V30 558 C 52.5284 -4.37992 -0.683927 0
M  V30 559 H 49.7484 -0.669058 0.0510141 0
M  V30 560 H 52.2924 -1.88824 0.785234 0
M  V30 561 H 50.4474 -3.78735 -0.81477 0
M  V30 562 H 50.8614 -5.16388 0.91888 0
M  V30 563 H 52.3354 -5.46684 -0.764263 0
M  V30 564 H 52.8124 -4.05058 -1.69778 0
M  V30 565 H 53.4184 -4.25283 -0.0378494 0
M  V30 566 N 51.7335 -0.305618 -1.54608 0
M  V30 567 C 52.9805 0.302298 -2.00231 0
M  V30 568 C 53.3085 1.5354 -1.19398 0
M  V30 569 O 52.5635 1.93973 -0.259423 0
M  V30 570 C 52.8625 0.698983 -3.50498 0
M  V30 571 C 52.5285 -0.432903 -4.48817 0
M  V30 572 C 51.1905 -0.743622 -4.75419 0
M  V30 573 C 53.5425 -1.19409 -5.07337 0
M  V30 574 C 50.8705 -1.81857 -5.57804 0
M  V30 575 C 53.2225 -2.25899 -5.90891 0
M  V30 576 C 51.8865 -2.57572 -6.15803 0
M  V30 577 H 51.1565 0.110619 -0.732697 0
M  V30 578 H 53.8035 -0.425674 -1.86709 0
M  V30 579 H 52.1085 1.50711 -3.61654 0
M  V30 580 H 53.8055 1.1806 -3.83227 0
M  V30 581 H 50.3955 -0.18063 -4.28219 0
M  V30 582 H 54.5795 -0.967295 -4.86782 0
M  V30 583 H 49.8355 -2.06864 -5.75341 0
M  V30 584 H 54.0095 -2.85335 -6.35261 0
M  V30 585 H 51.6365 -3.40998 -6.7943 0
M  V30 586 N 53.2116 1.57565 -0.0334293 0
M  V30 587 C 54.4886 1.83282 0.683163 0
M  V30 588 C 54.8686 0.91823 1.90084 0
M  V30 589 O 54.2166 -0.025113 2.28486 0
M  V30 590 C 54.4266 3.32599 1.0573 0
M  V30 591 C 55.7746 3.99179 1.44711 0
M  V30 592 O 56.7986 3.3712 1.15015 0
M  V30 593 O 55.6576 5.08565 2.0006 0
M  V30 594 H 52.7516 0.755869 0.335546 0
M  V30 595 H 55.2976 1.69589 -0.0614402 0
M  V30 596 H 54.0696 3.90834 0.190828 0
M  V30 597 H 53.6926 3.51415 1.85993 0
M  V30 598 N 54.6897 -0.239769 1.55765 0
M  V30 599 C 55.6377 -1.31668 1.91745 0
M  V30 600 C 56.6317 -1.49462 0.797338 0
M  V30 601 O 57.8377 -1.50852 0.982021 0
M  V30 602 H 54.2127 -0.441048 0.609082 0
M  V30 603 H 56.1837 -0.985923 2.81642 0
M  V30 604 C 54.9327 -2.66368 2.2348 0
M  V30 605 H 54.2557 -2.53478 3.09175 0
M  V30 606 H 55.6957 -3.40578 2.52553 0
M  V30 607 C 54.1547 -3.20002 1.05359 0
M  V30 608 O 54.6847 -4.00538 0.305261 0
M  V30 609 N 52.8907 -2.78126 0.842292 0
M  V30 610 H 52.4377 -2.12742 1.45253 0
M  V30 611 H 52.3957 -3.14354 0.053652 0
M  V30 612 N 56.1678 -1.49265 -0.50573 0
M  V30 613 C 57.1158 -1.66065 -1.62866 0
M  V30 614 C 58.1098 -0.526636 -1.61006 0
M  V30 615 O 59.3158 -0.706126 -1.65571 0
M  V30 616 H 55.6908 -0.52356 -0.539805 0
M  V30 617 H 57.6618 -2.60329 -1.45848 0
M  V30 618 C 56.4108 -1.74008 -3.01026 0
M  V30 619 H 55.7338 -2.6064 -3.03161 0
M  V30 620 H 57.1738 -1.89798 -3.79147 0
M  V30 621 C 55.6328 -0.483868 -3.33407 0
M  V30 622 O 56.1628 0.392548 -3.99777 0
M  V30 623 N 54.3688 -0.348236 -2.88506 0
M  V30 624 H 53.9158 -1.06242 -2.34671 0
M  V30 625 H 53.8738 0.491204 -3.10539 0
M  V30 626 N 57.6459 0.756429 -1.3826 0
M  V30 627 C 58.8759 1.54341 -1.3734 0
M  V30 628 C 59.2839 1.89159 0.0393917 0
M  V30 629 O 58.6269 1.5307 1.01565 0
M  V30 630 C 58.6889 2.87238 -2.16182 0
M  V30 631 C 58.3529 2.74973 -3.65019 0
M  V30 632 C 59.3499 2.44962 -4.58574 0
M  V30 633 C 57.0349 2.92515 -4.08338 0
M  V30 634 C 59.0289 2.32642 -5.93428 0
M  V30 635 C 56.7159 2.79815 -5.43274 0
M  V30 636 C 57.7139 2.49921 -6.35632 0
M  V30 637 O 57.4019 2.37275 -7.68086 0
M  V30 638 H 57.1339 0.484281 -0.471643 0
M  V30 639 H 59.6879 0.944152 -1.82414 0
M  V30 640 H 57.9179 3.49342 -1.65822 0
M  V30 641 H 59.6069 3.48731 -2.07705 0
M  V30 642 H 60.3729 2.31081 -4.26412 0
M  V30 643 H 56.2519 3.14781 -3.368 0
M  V30 644 H 59.7959 2.0923 -6.65484 0
M  V30 645 H 55.6929 2.93269 -5.75034 0
M  V30 646 H 56.4609 2.52509 -7.78577 0
M  V30 647 N 59.124 1.23083 0.984299 0
M  V30 648 C 60.056 0.96636 2.07832 0
M  V30 649 C 61.069 -0.0582135 1.62696 0
M  V30 650 O 62.258 0.176843 1.77622 0
M  V30 651 C 59.358 0.433397 3.36117 0
M  V30 652 C 58.531 1.51722 4.10243 0
M  V30 653 C 57.59 0.989821 5.16807 0
M  V30 654 O 56.616 1.67794 5.43906 0
M  V30 655 N 57.818 -0.184367 5.80207 0
M  V30 656 H 60.583 1.90824 2.31098 0
M  V30 657 H 58.144 1.13888 1.1507 0
M  V30 658 H 60.136 0.065699 4.04647 0
M  V30 659 H 58.706 -0.413806 3.09849 0
M  V30 660 H 57.926 2.05786 3.36223 0
M  V30 661 H 59.214 2.24619 4.56534 0
M  V30 662 H 58.612 -0.760062 5.60571 0
M  V30 663 H 57.169 -0.493366 6.4993 0
M  V30 664 N 60.6021 -1.18246 1.0419 0
M  V30 665 C 61.8271 -1.92736 0.765996 0
M  V30 666 C 62.2521 -1.75728 -0.67091 0
M  V30 667 O 61.6101 -1.06825 -1.46486 0
M  V30 668 C 61.6581 -3.42148 1.13875 0
M  V30 669 O 60.7621 -4.11548 0.264954 0
M  V30 670 H 60.1031 -0.601238 0.281797 0
M  V30 671 H 62.6331 -1.49942 1.39207 0
M  V30 672 H 62.6431 -3.92858 1.1012 0
M  V30 673 H 61.3181 -3.53848 2.18551 0
M  V30 674 H 59.8951 -3.71137 0.362226 0
M  V30 675 N 62.0802 -0.821533 -1.34494 0
M  V30 676 C 63.3082 -0.421884 -2.02553 0
M  V30 677 C 63.7232 0.971745 -1.61872 0
M  V30 678 O 63.0802 1.62864 -0.823496 0
M  V30 679 C 63.1312 -0.51285 -3.57844 0
M  V30 680 O 62.8522 -1.85155 -3.97051 0
M  V30 681 C 64.3532 -0.107921 -4.43169 0
M  V30 682 H 61.5732 -0.169482 -0.649243 0
M  V30 683 H 64.1172 -1.1093 -1.71798 0
M  V30 684 H 62.2722 0.126474 -3.87193 0
M  V30 685 H 62.6862 -1.82482 -4.91732 0
M  V30 686 H 64.1602 -0.222657 -5.51551 0
M  V30 687 H 64.6372 0.948401 -4.28838 0
M  V30 688 H 65.2432 -0.720989 -4.19144 0
M  V30 689 N 63.5583 1.46682 -0.576371 0
M  V30 690 C 64.8073 2.01619 -0.0572825 0
M  V30 691 C 65.1203 1.45417 1.30818 0
M  V30 692 O 66.3263 1.92133 1.91825 0
M  V30 693 C 64.7823 3.59863 -0.0518371 0
M  V30 694 C 64.3903 4.25059 -1.41523 0
M  V30 695 C 66.1343 4.2248 0.413639 0
M  V30 696 C 64.0413 5.75364 -1.36785 0
M  V30 697 H 62.9713 0.753794 -0.0176448 0
M  V30 698 H 65.6223 1.68481 -0.727076 0
M  V30 699 H 64.0043 3.90048 0.683994 0
M  V30 700 H 65.1783 4.06491 -2.17029 0
M  V30 701 H 63.4933 3.7451 -1.8202 0
M  V30 702 H 66.0903 5.3265 0.467779 0
M  V30 703 H 66.4333 3.90976 1.42982 0
M  V30 704 H 66.9663 3.96897 -0.267929 0
M  V30 705 H 63.7053 6.11518 -2.36063 0
M  V30 706 H 63.2253 5.96214 -0.654895 0
M  V30 707 H 64.9043 6.37955 -1.07805 0
M  V30 708 N 65.0364 0.313813 1.54444 0
M  V30 709 C 66.2844 -0.291099 1.99993 0
M  V30 710 C 66.6054 -1.53418 1.20366 0
M  V30 711 O 65.8754 -1.93544 0.302927 0
M  V30 712 H 64.4554 -0.110552 0.738774 0
M  V30 713 H 67.1174 0.428106 1.9014 0
M  V30 714 H 66.2134 -0.554268 3.07139 0
M  V30 715 N 66.5145 -1.57545 0.0417849 0
M  V30 716 C 67.7635 -1.91494 -0.633492 0
M  V30 717 C 68.0765 -0.921084 -1.72556 0
M  V30 718 O 69.2825 -1.15228 -2.45835 0
M  V30 719 C 67.7385 -3.40072 -1.17808 0
M  V30 720 C 67.3465 -4.47843 -0.118633 0
M  V30 721 C 69.0905 -3.8307 -1.82915 0
M  V30 722 C 66.9975 -5.87529 -0.675578 0
M  V30 723 H 65.9275 -0.714653 -0.24039 0
M  V30 724 H 68.5785 -1.83175 0.109148 0
M  V30 725 H 66.9605 -3.43364 -1.97274 0
M  V30 726 H 68.1345 -4.56128 0.654494 0
M  V30 727 H 66.4495 -4.14128 0.434414 0
M  V30 728 H 69.0465 -4.84794 -2.25563 0
M  V30 729 H 69.3895 -3.1881 -2.67705 0
M  V30 730 H 69.9225 -3.82255 -1.10119 0
M  V30 731 H 66.6615 -6.55362 0.134475 0
M  V30 732 H 66.1815 -5.82824 -1.4169 0
M  V30 733 H 67.8605 -6.36491 -1.1614 0
M  V30 734 N 67.9926 0.231505 -1.5589 0
M  V30 735 C 69.2696 0.981096 -1.69215 0
M  V30 736 C 69.6496 2.02799 -0.586164 0
M  V30 737 O 68.9976 2.24823 0.408253 0
M  V30 738 C 69.2076 1.60054 -3.10135 0
M  V30 739 C 70.5556 2.09658 -3.69227 0
M  V30 740 O 71.5796 1.69967 -3.13033 0
M  V30 741 O 70.4386 2.8258 -4.67772 0
M  V30 742 H 67.5326 0.457653 -0.688827 0
M  V30 743 H 70.0786 0.224073 -1.68214 0
M  V30 744 H 68.8506 0.844105 -3.82087 0
M  V30 745 H 68.4736 2.42336 -3.15212 0
M  V30 746 N 69.4707 1.49531 0.497807 0
M  V30 747 C 70.7177 1.59179 1.25173 0
M  V30 748 C 71.0457 0.279932 1.92475 0
M  V30 749 O 70.3007 -0.732383 1.81479 0
M  V30 750 C 70.5997 2.70252 2.33878 0
M  V30 751 C 70.2657 4.11644 1.84012 0
M  V30 752 C 68.9277 4.50121 1.70132 0
M  V30 753 C 71.2797 5.00121 1.46725 0
M  V30 754 C 68.6077 5.74845 1.17348 0
M  V30 755 C 70.9597 6.25366 0.95392 0
M  V30 756 C 69.6237 6.6267 0.801538 0
M  V30 757 H 68.8937 0.582478 0.45804 0
M  V30 758 H 71.5407 1.83373 0.551948 0
M  V30 759 H 69.8457 2.40041 3.09657 0
M  V30 760 H 71.5427 2.74925 2.9192 0
M  V30 761 H 68.1327 3.81274 1.95775 0
M  V30 762 H 72.3167 4.71048 1.56294 0
M  V30 763 H 67.5727 6.02444 1.04264 0
M  V30 764 H 71.7467 6.93301 0.656225 0
M  V30 765 H 69.3737 7.59197 0.390351 0
M  V30 766 N 70.9488 -0.749086 1.3866 0
M  V30 767 C 71.8788 -1.8764 1.38973 0
M  V30 768 C 72.8598 -1.68178 0.255004 0
M  V30 769 O 74.0448 -1.88704 0.458754 0
M  V30 770 C 71.1748 -3.25222 1.21851 0
M  V30 771 C 70.1288 -3.59295 2.32575 0
M  V30 772 C 69.4548 -4.95663 2.00555 0
M  V30 773 C 70.7548 -3.63709 3.7485 0
M  V30 774 H 72.4488 -1.87635 2.3331 0
M  V30 775 H 69.9948 -0.901329 1.12303 0
M  V30 776 H 71.9478 -4.03746 1.20695 0
M  V30 777 H 70.6718 -3.25719 0.239775 0
M  V30 778 H 69.3308 -2.83093 2.32925 0
M  V30 779 H 68.9788 -4.92724 1.01154 0
M  V30 780 H 68.6788 -5.19429 2.74714 0
M  V30 781 H 70.2028 -5.7656 2.01024 0
M  V30 782 H 71.6168 -4.32338 3.76506 0
M  V30 783 H 70.0138 -3.98986 4.48252 0
M  V30 784 H 71.0838 -2.63834 4.06841 0
M  V30 785 N 72.4269 -1.23603 -0.977757 0
M  V30 786 C 73.6519 -1.09735 -1.75991 0
M  V30 787 C 74.0769 0.346858 -1.84874 0
M  V30 788 O 73.4349 1.25093 -1.3123 0
M  V30 789 C 73.4829 -1.73051 -3.16363 0
M  V30 790 O 72.5869 -0.994452 -4.0023 0
M  V30 791 H 71.9279 -0.384476 -0.541364 0
M  V30 792 H 74.4579 -1.6371 -1.2272 0
M  V30 793 H 74.4679 -1.78398 -3.66931 0
M  V30 794 H 73.1429 -2.78137 -3.09213 0
M  V30 795 H 71.7199 -1.01812 -3.58732 0
M  V30 796 N 73.905 1.17692 -1.04816 0
M  V30 797 C 74.852 2.21581 -0.645797 0
M  V30 798 C 75.822 1.62367 0.350159 0
M  V30 799 O 77.007 1.89254 0.242433 0
M  V30 800 C 74.147 3.45092 -0.0227568 0
M  V30 801 C 73.26 4.18613 -1.06709 0
M  V30 802 C 72.395 5.29602 -0.411767 0
M  V30 803 C 71.434 5.94904 -1.44067 0
M  V30 804 N 70.571 6.97414 -0.809781 0
M  V30 805 H 75.411 2.55353 -1.5362 0
M  V30 806 H 72.948 1.25438 -0.768364 0
M  V30 807 H 74.906 4.15679 0.35588 0
M  V30 808 H 73.536 3.11917 0.831122 0
M  V30 809 H 72.588 3.46779 -1.5636 0
M  V30 810 H 73.9 4.63293 -1.84827 0
M  V30 811 H 73.054 6.06696 0.0206623 0
M  V30 812 H 71.793 4.86045 0.401438 0
M  V30 813 H 70.798 5.16544 -1.88316 0
M  V30 814 H 72.023 6.40542 -2.25571 0
M  V30 815 H 69.969 6.55998 -0.0170186 0
M  V30 816 H 69.886 7.40386 -1.52856 0
M  V30 817 H 71.154 7.78463 -0.401999 0
M  V30 818 N 75.3831 0.828654 1.34056 0
M  V30 819 C 76.6111 0.43262 2.02326 0
M  V30 820 C 77.0261 -0.963147 1.62385 0
M  V30 821 O 76.3831 -1.62425 0.832121 0
M  V30 822 C 76.4341 0.53182 3.57567 0
M  V30 823 O 76.1551 1.87258 3.96063 0
M  V30 824 C 77.6561 0.131422 4.43105 0
M  V30 825 H 74.8761 0.172923 0.648335 0
M  V30 826 H 77.4201 1.1184 1.71208 0
M  V30 827 H 75.5751 -0.105938 3.87255 0
M  V30 828 H 75.9891 1.85087 4.90758 0
M  V30 829 H 77.4631 0.251904 5.51425 0
M  V30 830 H 77.9401 -0.925645 4.29335 0
M  V30 831 H 78.5461 0.743207 4.18756 0
M  V30 832 N 76.8612 -1.46375 0.584142 0
M  V30 833 C 77.7912 -2.33103 -0.136037 0
M  V30 834 C 78.7722 -1.45431 -0.882255 0
M  V30 835 O 79.9572 -1.74246 -0.857434 0
M  V30 836 C 77.0872 -3.27731 -1.14933 0
M  V30 837 C 76.0412 -4.24855 -0.517862 0
M  V30 838 C 75.3672 -5.09001 -1.63773 0
M  V30 839 C 76.6672 -5.19439 0.545886 0
M  V30 840 H 78.3612 -2.93568 0.588086 0
M  V30 841 H 75.9072 -1.41166 0.284259 0
M  V30 842 H 77.8602 -3.87261 -1.66153 0
M  V30 843 H 76.5842 -2.65377 -1.90375 0
M  V30 844 H 75.2432 -3.6659 -0.0267361 0
M  V30 845 H 74.8912 -4.43031 -2.38185 0
M  V30 846 H 74.5912 -5.74777 -1.22085 0
M  V30 847 H 76.1152 -5.71396 -2.15266 0
M  V30 848 H 77.5292 -5.73177 0.118704 0
M  V30 849 H 75.9262 -5.93566 0.88317 0
M  V30 850 H 76.9962 -4.63285 1.43162 0
M  V30 851 N 78.3393 -0.321999 -1.54275 0
M  V30 852 C 79.5693 0.282642 -2.04658 0
M  V30 853 C 79.9773 1.46453 -1.19784 0
M  V30 854 O 79.3203 1.82367 -0.220932 0
M  V30 855 C 79.3823 0.781857 -3.50895 0
M  V30 856 C 79.0463 -0.277517 -4.56157 0
M  V30 857 C 80.0433 -1.11307 -5.07845 0
M  V30 858 C 77.7283 -0.425256 -5.00497 0
M  V30 859 C 79.7223 -2.08211 -6.02434 0
M  V30 860 C 77.4093 -1.39771 -5.94901 0
M  V30 861 C 78.4073 -2.2246 -6.45756 0
M  V30 862 O 78.0953 -3.18054 -7.38307 0
M  V30 863 H 77.8273 0.0622636 -0.673126 0
M  V30 864 H 80.3813 -0.465792 -2.00049 0
M  V30 865 H 78.6113 1.58118 -3.52896 0
M  V30 866 H 80.3003 1.30467 -3.84361 0
M  V30 867 H 81.0663 -1.00991 -4.74369 0
M  V30 868 H 76.9453 0.20847 -4.60528 0
M  V30 869 H 80.4893 -2.72791 -6.42052 0
M  V30 870 H 76.3863 -1.50152 -6.27794 0
M  V30 871 H 77.1543 -3.13275 -7.56175 0
M  V30 872 N 79.8174 1.5752 -0.0501392 0
M  V30 873 C 80.7474 2.14502 0.922566 0
M  V30 874 C 81.7284 1.06642 1.3252 0
M  V30 875 O 82.9134 1.34577 1.4001 0
M  V30 876 C 80.0434 2.68916 2.19776 0
M  V30 877 C 78.9974 3.8175 1.93523 0
M  V30 878 C 78.3234 4.22677 3.27487 0
M  V30 879 C 79.6234 5.06932 1.25765 0
M  V30 880 H 81.3174 2.9603 0.447952 0
M  V30 881 H 78.8634 1.42401 0.214024 0
M  V30 882 H 80.8164 3.07419 2.88222 0
M  V30 883 H 79.5404 1.84578 2.69441 0
M  V30 884 H 78.1994 3.43718 1.27489 0
M  V30 885 H 77.8474 3.35291 3.74952 0
M  V30 886 H 77.5474 4.98725 3.1072 0
M  V30 887 H 79.0714 4.63779 3.97166 0
M  V30 888 H 80.4854 5.42888 1.84244 0
M  V30 889 H 78.8824 5.88116 1.19328 0
M  V30 890 H 79.9524 4.84337 0.233536 0
M  V30 891 N 81.2955 -0.223234 1.56011 0
M  V30 892 C 82.5725 -0.972108 1.69733 0
M  V30 893 C 82.9525 -2.02485 0.59691 0
M  V30 894 O 82.3005 -2.25037 -0.396324 0
M  V30 895 C 82.5105 -1.58407 3.10979 0
M  V30 896 C 83.8585 -2.07696 3.70334 0
M  V30 897 O 84.8825 -1.68304 3.1393 0
M  V30 898 O 83.7415 -2.80096 4.69264 0
M  V30 899 H 80.8355 -0.453993 0.691245 0
M  V30 900 H 83.3815 -0.215149 1.68331 0
M  V30 901 H 82.1535 -0.823831 3.82529 0
M  V30 902 H 81.7765 -2.40661 3.16493 0
M  V30 903 N 82.7736 -1.49793 -0.48987 0
M  V30 904 C 83.6836 -1.70036 -1.61632 0
M  V30 905 C 84.6996 -0.583102 -1.63939 0
M  V30 906 O 85.8756 -0.859169 -1.82154 0
M  V30 907 C 82.9406 -1.77277 -2.97949 0
M  V30 908 C 82.0016 -3.00918 -3.06181 0
M  V30 909 C 81.2346 -3.07804 -4.35996 0
M  V30 910 O 81.4576 -2.21982 -5.25433 0
M  V30 911 O 80.3916 -4.00369 -4.49431 0
M  V30 912 H 84.2176 -2.65486 -1.47482 0
M  V30 913 H 81.8026 -1.33666 -0.667362 0
M  V30 914 H 83.6846 -1.84329 -3.78947 0
M  V30 915 H 82.3596 -0.850076 -3.12339 0
M  V30 916 H 81.2666 -2.99377 -2.2433 0
M  V30 917 H 82.5996 -3.92704 -2.96723 0
M  V30 918 N 84.2517 0.741722 -1.39055 0
M  V30 919 C 85.4997 1.49818 -1.35643 0
M  V30 920 C 85.8207 1.94938 0.0491642 0
M  V30 921 O 85.0907 1.68505 0.999141 0
M  V30 922 H 83.6707 0.555755 -0.499144 0
M  V30 923 H 86.3327 0.880957 -1.73854 0
M  V30 924 H 85.4287 2.38348 -2.01486 0
M  V30 925 N 85.7298 1.2412 0.971189 0
M  V30 926 C 87.1408 1.07236 1.52831 0
M  V30 927 C 87.4918 -0.357352 1.92918 0
M  V30 928 O 86.6168 -1.24528 1.76979 0
M  V30 929 C 87.2118 1.94043 2.77728 0
M  V30 930 C 85.7708 1.81394 3.29808 0
M  V30 931 C 84.9178 1.89189 2.02738 0
M  V30 932 H 87.8688 1.37648 0.789864 0
M  V30 933 H 87.8898 1.47066 3.5093 0
M  V30 934 H 87.4018 2.98093 2.4852 0
M  V30 935 H 85.5028 0.801634 3.63874 0
M  V30 936 H 85.6158 2.65294 3.98944 0
M  V30 937 H 83.9798 1.32877 2.17292 0
M  V30 938 H 84.7628 2.94812 1.759 0
M  V30 939 N 87.2079 -1.17134 1.05439 0
M  V30 940 C 88.4539 -1.87733 0.767077 0
M  V30 941 C 88.7869 -1.8098 -0.704253 0
M  V30 942 O 88.0619 -1.21951 -1.5152 0
M  V30 943 C 88.3449 -3.37659 1.25133 0
M  V30 944 C 88.1979 -3.53149 2.78578 0
M  V30 945 C 89.5169 -4.31768 0.852324 0
M  V30 946 H 86.6359 -0.681687 0.280129 0
M  V30 947 H 89.2779 -1.37732 1.30881 0
M  V30 948 H 87.4279 -3.80373 0.790469 0
M  V30 949 H 89.0999 -3.19434 3.32806 0
M  V30 950 H 87.3429 -2.95345 3.17732 0
M  V30 951 H 88.0139 -4.58403 3.07523 0
M  V30 952 H 90.4899 -3.96909 1.24911 0
M  V30 953 H 89.3659 -5.35199 1.21873 0
M  V30 954 H 89.6269 -4.41429 -0.243485 0
M  V30 955 N 88.686 -0.835752 -1.33615 0
M  V30 956 C 90.102 -0.523139 -1.50783 0
M  V30 957 C 90.302 0.950171 -1.77691 0
M  V30 958 O 89.358 1.73411 -1.83534 0
M  V30 959 C 90.671 -1.39378 -2.66448 0
M  V30 960 C 92.219 -1.39223 -2.80332 0
M  V30 961 C 92.694 -2.24765 -3.99055 0
M  V30 962 N 94.185 -2.22458 -4.06284 0
M  V30 963 C 94.92 -2.85386 -4.97336 0
M  V30 964 N 94.416 -3.57354 -5.93523 0
M  V30 965 N 96.209 -2.74872 -4.90308 0
M  V30 966 H 88.36 -1.78952 -1.14411 0
M  V30 967 H 90.623 -0.763297 -0.562212 0
M  V30 968 H 90.329 -2.44061 -2.53234 0
M  V30 969 H 90.203 -1.0676 -3.61776 0
M  V30 970 H 92.59 -0.353136 -2.92979 0
M  V30 971 H 92.671 -1.75846 -1.85773 0
M  V30 972 H 92.315 -3.28732 -3.87167 0
M  V30 973 H 92.245 -1.85485 -4.92852 0
M  V30 974 H 94.736 -1.70119 -3.37443 0
M  V30 975 H 95.049 -4.02584 -6.59656 0
M  V30 976 H 93.394 -3.61461 -5.93608 0
M  V30 977 H 96.585 -2.18213 -4.14126 0
M  V30 978 H 96.758 -3.24199 -5.61069 0
M  V30 979 N 90.1641 1.46063 -0.591896 0
M  V30 980 C 91.0941 2.33172 0.123673 0
M  V30 981 C 92.0751 1.45897 0.87453 0
M  V30 982 O 93.2601 1.74698 0.848181 0
M  V30 983 C 90.3901 3.28336 1.13194 0
M  V30 984 C 89.3441 4.25124 0.495324 0
M  V30 985 C 88.6701 5.09863 1.61071 0
M  V30 986 C 89.9701 5.19143 -0.573425 0
M  V30 987 H 91.6641 2.93252 -0.603646 0
M  V30 988 H 89.2101 1.41014 -0.291741 0
M  V30 989 H 91.1631 3.88137 1.64097 0
M  V30 990 H 89.8871 2.66383 1.88965 0
M  V30 991 H 88.5461 3.66599 0.00729452 0
M  V30 992 H 88.1941 4.44288 2.35832 0
M  V30 993 H 87.8941 5.75417 1.19035 0
M  V30 994 H 89.4181 5.72529 2.12233 0
M  V30 995 H 90.8321 5.73106 -0.1491 0
M  V30 996 H 89.2291 5.93089 -0.914636 0
M  V30 997 H 90.2991 4.62519 -1.45617 0
M  V30 998 N 91.6422 0.330177 1.54103 0
M  V30 999 C 92.5742 -0.566902 2.22079 0
M  V30 1000 C 93.5872 -1.07462 1.22294 0
M  V30 1001 O 94.7762 -0.987065 1.48726 0
M  V30 1002 C 91.8762 -1.79138 2.87685 0
M  V30 1003 C 91.0492 -1.42123 4.13666 0
M  V30 1004 C 90.1082 -2.50394 4.62806 0
M  V30 1005 O 89.1342 -2.14261 5.27334 0
M  V30 1006 N 90.3362 -3.81433 4.37595 0
M  V30 1007 H 93.1012 0.0151844 2.99696 0
M  V30 1008 H 90.6622 0.153681 1.61169 0
M  V30 1009 H 92.6542 -2.50975 3.1748 0
M  V30 1010 H 91.2242 -2.28115 2.13734 0
M  V30 1011 H 90.4442 -0.534201 3.90564 0
M  V30 1012 H 91.7322 -1.14971 4.9564 0
M  V30 1013 H 91.1302 -4.13584 3.8596 0
M  V30 1014 H 89.6872 -4.4948 4.72029 0
M  V30 1015 N 93.1203 -1.57491 0.0584922 0
M  V30 1016 C 94.0503 -2.14988 -0.911178 0
M  V30 1017 C 95.0313 -1.07343 -1.31952 0
M  V30 1018 O 96.2163 -1.35318 -1.39294 0
M  V30 1019 C 93.3463 -2.70078 -2.18347 0
M  V30 1020 C 92.3003 -3.82771 -1.91495 0
M  V30 1021 C 91.6263 -4.24408 -3.25241 0
M  V30 1022 C 92.9263 -5.07592 -1.23075 0
M  V30 1023 H 94.6203 -2.96263 -0.432246 0
M  V30 1024 H 92.1663 -1.42512 -0.206469 0
M  V30 1025 H 94.1193 -3.08943 -2.86587 0
M  V30 1026 H 92.8433 -1.86005 -2.68458 0
M  V30 1027 H 91.5023 -3.44389 -1.25664 0
M  V30 1028 H 91.1503 -3.37275 -3.73168 0
M  V30 1029 H 90.8503 -5.00366 -3.08071 0
M  V30 1030 H 92.3743 -4.65879 -3.94701 0
M  V30 1031 H 93.7883 -5.43857 -1.81362 0
M  V30 1032 H 92.1853 -5.88741 -1.16207 0
M  V30 1033 H 93.2553 -4.84454 -0.207847 0
M  V30 1034 N 94.5984 0.214957 -1.56127 0
M  V30 1035 C 95.8444 0.935325 -1.80619 0
M  V30 1036 C 96.1994 1.81706 -0.632507 0
M  V30 1037 O 95.4924 1.87931 0.373182 0
M  V30 1038 C 95.6864 1.80314 -3.0858 0
M  V30 1039 C 95.5154 1.00691 -4.38282 0
M  V30 1040 C 94.2854 0.699211 -5.00439 0
M  V30 1041 C 96.4834 0.369057 -5.12974 0
M  V30 1042 N 94.4654 -0.117734 -6.13787 0
M  V30 1043 C 95.8364 -0.310981 -6.1922 0
M  V30 1044 C 97.8914 0.282759 -4.97096 0
M  V30 1045 C 96.5944 -1.06907 -7.11311 0
M  V30 1046 C 98.6204 -0.461881 -5.89594 0
M  V30 1047 C 97.9824 -1.13044 -6.9527 0
M  V30 1048 H 94.0814 0.322307 -0.71249 0
M  V30 1049 H 96.6654 0.205649 -1.93611 0
M  V30 1050 H 94.8364 2.50458 -2.96859 0
M  V30 1051 H 96.5684 2.46148 -3.21237 0
M  V30 1052 H 93.3234 1.01884 -4.62511 0
M  V30 1053 H 93.7474 -0.515235 -6.75037 0
M  V30 1054 H 98.3894 0.785292 -4.15443 0
M  V30 1055 H 96.1074 -1.5831 -7.92442 0
M  V30 1056 H 99.6934 -0.529746 -5.79383 0
M  V30 1057 H 98.5734 -1.69742 -7.65609 0
M  V30 1058 N 96.0765 1.50051 0.48192 0
M  V30 1059 C 97.3535 1.51009 1.2432 0
M  V30 1060 C 97.7335 0.248587 2.09631 0
M  V30 1061 O 97.0815 -0.768409 2.15192 0
M  V30 1062 C 97.2915 2.79981 2.08355 0
M  V30 1063 C 98.6395 3.3022 2.66908 0
M  V30 1064 O 99.6635 2.81228 2.18607 0
M  V30 1065 O 98.5225 4.15595 3.54884 0
M  V30 1066 H 95.6165 0.605239 0.563573 0
M  V30 1067 H 98.1625 1.62332 0.494627 0
M  V30 1068 H 96.9345 3.63275 1.45419 0
M  V30 1069 H 96.5575 2.7161 2.90368 0
M  V30 1070 N 97.5546 -0.734337 1.39446 0
M  V30 1071 C 98.7826 -1.52358 1.39981 0
M  V30 1072 C 99.1976 -1.88799 -0.0054975 0
M  V30 1073 O 98.5546 -1.54146 -0.976998 0
M  V30 1074 C 98.6056 -2.81072 2.27333 0
M  V30 1075 O 98.3266 -2.46178 3.62392 0
M  V30 1076 C 99.8276 -3.75096 2.36259 0
M  V30 1077 H 97.0476 -0.470806 0.478103 0
M  V30 1078 H 99.5916 -0.907339 1.83269 0
M  V30 1079 H 97.7466 -3.39026 1.87457 0
M  V30 1080 H 98.1606 -3.28866 4.08592 0
M  V30 1081 H 99.6346 -4.62305 3.01626 0
M  V30 1082 H 100.112 -4.16892 1.38194 0
M  V30 1083 H 100.718 -3.23061 2.76608 0
M  V30 1084 N 99.0327 -1.24633 -0.964593 0
M  V30 1085 C 99.9957 -1.0424 -2.04124 0
M  V30 1086 C 100.996 0.00137563 -1.608 0
M  V30 1087 O 102.186 -0.239883 -1.7254 0
M  V30 1088 C 99.3177 -0.580588 -3.3592 0
M  V30 1089 H 100.511 -1.99803 -2.23649 0
M  V30 1090 H 98.0637 -1.06899 -1.14027 0
M  V30 1091 H 98.7987 0.3781 -3.22088 0
M  V30 1092 H 98.5837 -1.33398 -3.6871 0
M  V30 1093 H 100.074 -0.459034 -4.15069 0
M  V30 1094 N 100.511 1.16574 -1.06058 0
M  V30 1095 C 101.759 1.86677 -0.77434 0
M  V30 1096 C 102.08 1.81959 0.701147 0
M  V30 1097 O 101.35 1.2515 1.50713 0
M  V30 1098 H 99.9298 0.691134 -0.283449 0
M  V30 1099 H 102.592 1.41378 -1.34158 0
M  V30 1100 H 101.688 2.92181 -1.09711 0
M  V30 1101 N 101.989 0.842826 1.3317 0
M  V30 1102 C 102.921 0.236245 2.27979 0
M  V30 1103 C 103.934 -0.585282 1.51915 0
M  V30 1104 O 105.123 -0.411705 1.73687 0
M  V30 1105 C 102.223 -0.685717 3.3189 0
M  V30 1106 C 101.396 0.0973448 4.37292 0
M  V30 1107 C 100.455 -0.748565 5.20848 0
M  V30 1108 O 99.4809 -0.186339 5.68895 0
M  V30 1109 N 100.683 -2.06527 5.42519 0
M  V30 1110 H 103.448 1.05088 2.80672 0
M  V30 1111 H 101.009 0.701667 1.45905 0
M  V30 1112 H 103.001 -1.25669 3.84694 0
M  V30 1113 H 101.571 -1.40105 2.79445 0
M  V30 1114 H 100.791 0.849706 3.84933 0
M  V30 1115 H 102.079 0.635643 5.04814 0
M  V30 1116 H 101.477 -2.54554 5.05192 0
M  V30 1117 H 100.034 -2.58464 5.98364 0
M  V30 1118 N 103.467 -1.45747 0.599634 0
M  V30 1119 C 104.377 -2.34262 -0.125888 0
M  V30 1120 C 105.393 -1.50768 -0.868625 0
M  V30 1121 O 106.569 -1.83592 -0.828003 0
M  V30 1122 C 103.634 -3.28252 -1.11587 0
M  V30 1123 C 102.695 -4.27651 -0.375956 0
M  V30 1124 C 101.928 -5.1715 -1.31877 0
M  V30 1125 O 102.151 -5.09916 -2.55621 0
M  V30 1126 O 101.085 -5.96286 -0.820157 0
M  V30 1127 H 104.911 -2.97688 0.601315 0
M  V30 1128 H 102.496 -1.44999 0.359934 0
M  V30 1129 H 104.378 -3.86191 -1.68626 0
M  V30 1130 H 103.053 -2.67401 -1.82424 0
M  V30 1131 H 101.96 -3.7335 0.236698 0
M  V30 1132 H 103.293 -4.91334 0.29177 0
M  V30 1133 N 104.945 -0.338344 -1.53925 0
M  V30 1134 C 106.361 0.0137736 -1.59594 0
M  V30 1135 C 106.561 1.49186 -1.35447 0
M  V30 1136 O 105.617 2.24987 -1.14616 0
M  V30 1137 C 106.93 -0.41773 -2.97784 0
M  V30 1138 C 108.478 -0.369633 -3.1081 0
M  V30 1139 C 108.953 -0.776524 -4.51369 0
M  V30 1140 N 110.444 -0.730506 -4.57403 0
M  V30 1141 C 111.179 -1.01736 -5.64303 0
M  V30 1142 N 110.675 -1.3721 -6.79077 0
M  V30 1143 N 112.468 -0.941942 -5.54151 0
M  V30 1144 H 104.619 -1.3012 -1.67876 0
M  V30 1145 H 106.882 -0.530082 -0.78595 0
M  V30 1146 H 106.588 -1.44811 -3.20504 0
M  V30 1147 H 106.462 0.209729 -3.76616 0
M  V30 1148 H 108.849 0.651568 -2.87817 0
M  V30 1149 H 108.93 -1.03223 -2.34049 0
M  V30 1150 H 108.574 -1.79571 -4.75096 0
M  V30 1151 H 108.504 -0.0914649 -5.26521 0
M  V30 1152 H 110.995 -0.468783 -3.74981 0
M  V30 1153 H 111.308 -1.57597 -7.5656 0
M  V30 1154 H 109.653 -1.4105 -6.80536 0
M  V30 1155 H 112.844 -0.664184 -4.63364 0
M  V30 1156 H 113.017 -1.16884 -6.37371 0
M  V30 1157 N 106.423 1.57458 -0.0668435 0
M  V30 1158 C 107.67 1.93301 0.603406 0
M  V30 1159 C 107.998 0.946486 1.69917 0
M  V30 1160 O 107.253 -0.0387021 1.95662 0
M  V30 1161 C 107.552 3.35784 1.22409 0
M  V30 1162 C 107.218 4.50179 0.254955 0
M  V30 1163 C 105.88 4.81199 -0.0116746 0
M  V30 1164 C 108.232 5.19598 -0.408338 0
M  V30 1165 C 105.56 5.78978 -0.94877 0
M  V30 1166 C 107.912 6.18381 -1.33372 0
M  V30 1167 C 106.576 6.47821 -1.60887 0
M  V30 1168 H 105.846 0.707338 0.220802 0
M  V30 1169 H 108.493 1.91012 -0.136665 0
M  V30 1170 H 106.798 3.34515 2.03978 0
M  V30 1171 H 108.495 3.60804 1.74989 0
M  V30 1172 H 105.085 4.25983 0.472954 0
M  V30 1173 H 109.269 4.95832 -0.215456 0
M  V30 1174 H 104.525 6.00115 -1.16925 0
M  V30 1175 H 108.699 6.71277 -1.85367 0
M  V30 1176 H 106.326 7.23399 -2.33661 0
M  V30 1177 N 107.901 -0.206675 1.56239 0
M  V30 1178 C 109.317 -0.557025 1.49564 0
M  V30 1179 C 109.517 -1.86424 0.764735 0
M  V30 1180 O 108.573 -2.50584 0.310491 0
M  V30 1181 C 109.886 -0.622478 2.94186 0
M  V30 1182 C 111.434 -0.712099 3.04792 0
M  V30 1183 C 111.909 -0.808767 4.50803 0
M  V30 1184 N 113.4 -0.8726 4.54907 0
M  V30 1185 C 114.135 -0.967365 5.65181 0
M  V30 1186 N 113.631 -1.02515 6.85173 0
M  V30 1187 N 115.424 -1.00366 5.53067 0
M  V30 1188 H 107.575 0.650943 2.02179 0
M  V30 1189 H 109.838 0.230387 0.919579 0
M  V30 1190 H 109.544 0.268727 3.50672 0
M  V30 1191 H 109.418 -1.4811 3.46905 0
M  V30 1192 H 111.805 -1.59374 2.48363 0
M  V30 1193 H 111.886 0.172489 2.55218 0
M  V30 1194 H 111.53 0.0684754 5.07854 0
M  V30 1195 H 111.46 -1.70899 4.98098 0
M  V30 1196 H 113.951 -0.837657 3.68499 0
M  V30 1197 H 114.264 -1.09765 7.64965 0
M  V30 1198 H 112.609 -0.994026 6.87855 0
M  V30 1199 H 115.8 -0.95527 4.58249 0
M  V30 1200 H 115.973 -1.07405 6.39037 0
M  V30 1201 N 109.379 -1.50304 -0.473955 0
M  V30 1202 C 110.604 -1.65175 -1.25427 0
M  V30 1203 C 111.029 -0.333673 -1.85117 0
M  V30 1204 O 110.387 0.702114 -1.67153 0
M  V30 1205 C 110.435 -2.74295 -2.34082 0
M  V30 1206 O 109.539 -2.35349 -3.38651 0
M  V30 1207 H 108.88 -0.551944 -0.369126 0
M  V30 1208 H 111.41 -1.96662 -0.564364 0
M  V30 1209 H 111.42 -2.97285 -2.79438 0
M  V30 1210 H 110.095 -3.69959 -1.90008 0
M  V30 1211 H 108.672 -2.22794 -2.99027 0
M  V30 1212 N 110.857 0.726932 -1.39834 0
M  V30 1213 C 111.787 1.85405 -1.41941 0
M  V30 1214 C 112.768 1.67751 -0.281728 0
M  V30 1215 O 113.953 1.8795 -0.488717 0
M  V30 1216 C 111.083 3.23243 -1.2701 0
M  V30 1217 C 110.037 3.55549 -2.38262 0
M  V30 1218 C 109.363 4.9241 -2.08415 0
M  V30 1219 C 110.663 3.577 -3.80589 0
M  V30 1220 H 112.357 1.83899 -2.36266 0
M  V30 1221 H 109.903 0.883349 -1.13723 0
M  V30 1222 H 111.856 4.01775 -1.27103 0
M  V30 1223 H 110.58 3.25296 -0.291564 0
M  V30 1224 H 109.239 2.79351 -2.37399 0
M  V30 1225 H 108.887 4.91052 -1.0898 0
M  V30 1226 H 108.587 5.14992 -2.82943 0
M  V30 1227 H 110.111 5.73289 -2.10171 0
M  V30 1228 H 111.525 4.26293 -3.83337 0
M  V30 1229 H 109.922 3.91804 -4.54543 0
M  V30 1230 H 110.992 2.57328 -4.10987 0
M  V30 1231 N 112.336 1.25143 0.95797 0
M  V30 1232 C 113.585 1.0909 1.69654 0
M  V30 1233 C 113.898 -0.368548 1.92097 0
M  V30 1234 O 115.104 -0.649455 2.63618 0
M  V30 1235 C 113.56 1.90395 3.05414 0
M  V30 1236 C 113.168 3.4081 2.90779 0
M  V30 1237 C 114.912 1.82901 3.83076 0
M  V30 1238 C 112.819 4.14423 4.21909 0
M  V30 1239 H 111.749 0.404625 0.636235 0
M  V30 1240 H 114.4 1.4931 1.06672 0
M  V30 1241 H 112.782 1.42996 3.69281 0
M  V30 1242 H 113.956 3.95859 2.35865 0
M  V30 1243 H 112.271 3.49361 2.26575 0
M  V30 1244 H 114.868 2.35196 4.80195 0
M  V30 1245 H 115.211 0.796224 4.08615 0
M  V30 1246 H 115.744 2.28033 3.25954 0
M  V30 1247 H 112.483 5.18102 4.01561 0
M  V30 1248 H 112.003 3.64159 4.76601 0
M  V30 1249 H 113.682 4.21956 4.90471 0
M  V30 1250 N 113.814 -1.1601 1.06675 0
M  V30 1251 C 115.225 -1.68235 0.809565 0
M  V30 1252 C 115.576 -1.8454 -0.666303 0
M  V30 1253 O 114.701 -1.54374 -1.5165 0
M  V30 1254 C 115.296 -3.05585 1.46299 0
M  V30 1255 C 113.855 -3.54915 1.25349 0
M  V30 1256 C 113.002 -2.30804 1.53703 0
M  V30 1257 H 115.953 -1.00318 1.22971 0
M  V30 1258 H 115.974 -3.70174 0.880431 0
M  V30 1259 H 115.486 -2.93686 2.53713 0
M  V30 1260 H 113.587 -3.72067 0.199261 0
M  V30 1261 H 113.7 -4.36774 1.9689 0
M  V30 1262 H 112.064 -2.36007 0.957739 0
M  V30 1263 H 112.847 -2.21499 2.62284 0
M  V30 1264 N 115.292 -0.849877 -1.32721 0
M  V30 1265 C 116.517 -0.463856 -2.02146 0
M  V30 1266 C 116.942 0.930449 -1.63476 0
M  V30 1267 O 116.3 1.61033 -0.832952 0
M  V30 1268 C 116.348 -0.604955 -3.55489 0
M  V30 1269 O 115.452 0.36425 -4.10788 0
M  V30 1270 H 114.793 -0.187046 -0.637111 0
M  V30 1271 H 117.323 -1.14775 -1.69375 0
M  V30 1272 H 117.333 -0.490696 -4.05038 0
M  V30 1273 H 116.008 -1.62174 -3.82978 0
M  V30 1274 H 114.585 0.206628 -3.72327 0
M  V30 1275 N 116.77 1.45427 -0.607355 0
M  V30 1276 C 118 2.06314 -0.108656 0
M  V30 1277 C 118.408 1.45269 1.21217 0
M  V30 1278 O 117.751 0.561115 1.74921 0
M  V30 1279 C 117.813 3.59345 0.105618 0
M  V30 1280 C 117.477 4.42723 -1.13337 0
M  V30 1281 C 118.474 4.77715 -2.05145 0
M  V30 1282 C 116.159 4.83478 -1.36213 0
M  V30 1283 C 118.153 5.52317 -3.18158 0
M  V30 1284 C 115.84 5.57835 -2.49527 0
M  V30 1285 C 116.838 5.92171 -3.40327 0
M  V30 1286 O 116.526 6.65019 -4.51669 0
M  V30 1287 H 116.258 0.672782 -0.0658842 0
M  V30 1288 H 118.812 1.87664 -0.834945 0
M  V30 1289 H 117.042 3.76394 0.886796 0
M  V30 1290 H 118.731 4.02076 0.555886 0
M  V30 1291 H 119.497 4.46787 -1.88697 0
M  V30 1292 H 115.376 4.56188 -0.664362 0
M  V30 1293 H 118.92 5.79036 -3.89054 0
M  V30 1294 H 114.817 5.88177 -2.65928 0
M  V30 1295 H 115.585 6.83469 -4.50348 0
M  V30 1296 N 118.248 0.346503 1.53744 0
M  V30 1297 C 119.497 -0.250122 2.00143 0
M  V30 1298 C 119.81 -1.51418 1.23822 0
M  V30 1299 O 121.016 -2.18823 1.60713 0
M  V30 1300 C 119.472 -0.496252 3.56462 0
M  V30 1301 C 119.08 0.752077 4.41642 0
M  V30 1302 C 120.824 -1.05157 4.11269 0
M  V30 1303 C 118.731 0.476583 5.89477 0
M  V30 1304 H 117.661 -0.0972409 0.747703 0
M  V30 1305 H 120.312 0.46229 1.77581 0
M  V30 1306 H 118.694 -1.26944 3.75102 0
M  V30 1307 H 119.868 1.5266 4.34778 0
M  V30 1308 H 118.183 1.22925 3.97842 0
M  V30 1309 H 120.78 -1.27269 5.19333 0
M  V30 1310 H 121.123 -2.00799 3.64672 0
M  V30 1311 H 121.656 -0.339019 3.96353 0
M  V30 1312 H 118.395 1.4028 6.40314 0
M  V30 1313 H 117.915 -0.259794 5.99237 0
M  V30 1314 H 119.594 0.0949315 6.4693 0
M  V30 1315 N 119.726 -1.57421 0.075193 0
M  V30 1316 C 121.142 -1.57099 -0.281444 0
M  V30 1317 C 121.342 -1.08486 -1.69803 0
M  V30 1318 O 120.398 -0.752279 -2.41033 0
M  V30 1319 C 121.711 -3.00571 -0.0880041 0
M  V30 1320 C 123.259 -3.12605 -0.157281 0
M  V30 1321 C 123.734 -4.57999 0.0079207 0
M  V30 1322 N 125.225 -4.63176 -0.0475725 0
M  V30 1323 C 125.96 -5.73373 0.0557876 0
M  V30 1324 N 125.456 -6.92473 0.21286 0
M  V30 1325 N 127.249 -5.621 -0.00152098 0
M  V30 1326 H 119.4 -1.87335 1.00098 0
M  V30 1327 H 121.663 -0.86377 0.390646 0
M  V30 1328 H 121.369 -3.40262 0.889629 0
M  V30 1329 H 121.243 -3.67754 -0.838875 0
M  V30 1330 H 123.63 -2.72798 -1.1254 0
M  V30 1331 H 123.711 -2.48053 0.62475 0
M  V30 1332 H 123.355 -4.98496 0.972824 0
M  V30 1333 H 123.285 -5.20586 -0.793556 0
M  V30 1334 H 125.776 -3.7753 -0.167244 0
M  V30 1335 H 126.089 -7.72279 0.283781 0
M  V30 1336 H 124.434 -6.94556 0.248267 0
M  V30 1337 H 127.625 -4.67938 -0.122958 0
M  V30 1338 H 127.798 -6.47948 0.0824844 0
M  V30 1339 N 121.204 0.198386 -1.56346 0
M  V30 1340 C 122.481 0.944982 -1.71258 0
M  V30 1341 C 122.861 2.0151 -0.629048 0
M  V30 1342 O 122.209 2.25639 0.360473 0
M  V30 1343 C 122.419 1.5344 -3.1346 0
M  V30 1344 C 123.767 2.01778 -3.73591 0
M  V30 1345 O 124.791 1.63288 -3.16568 0
M  V30 1346 O 123.65 2.72594 -4.73661 0
M  V30 1347 H 120.744 0.442939 -0.69838 0
M  V30 1348 H 123.29 0.188342 -1.68652 0
M  V30 1349 H 122.062 0.762869 -3.83792 0
M  V30 1350 H 121.685 2.35596 -3.20282 0
M  V30 1351 N 122.682 1.50554 0.465978 0
M  V30 1352 C 123.907 1.65838 1.24549 0
M  V30 1353 C 124.332 0.343486 1.84937 0
M  V30 1354 O 123.69 -0.69324 1.67523 0
M  V30 1355 C 123.738 2.75533 2.32624 0
M  V30 1356 O 122.842 2.37142 3.37398 0
M  V30 1357 H 122.183 0.553893 0.366194 0
M  V30 1358 H 124.713 1.96959 0.553927 0
M  V30 1359 H 124.723 2.98763 2.77857 0
M  V30 1360 H 123.398 3.70962 1.88043 0
M  V30 1361 H 121.975 2.24377 2.97841 0
M  V30 1362 N 124.16 -0.719506 1.40217 0
M  V30 1363 C 125.123 -1.8153 1.39927 0
M  V30 1364 C 126.123 -1.58095 0.293723 0
M  V30 1365 O 127.313 -1.65209 0.552429 0
M  V30 1366 C 124.445 -3.19561 1.18716 0
M  V30 1367 H 125.638 -1.83186 2.37451 0
M  V30 1368 H 123.191 -0.924746 1.26008 0
M  V30 1369 H 123.926 -3.23557 0.219366 0
M  V30 1370 H 123.711 -3.3797 1.98793 0
M  V30 1371 H 125.201 -3.99598 1.21291 0
M  V30 1372 N 125.638 -1.25649 -0.95132 0
M  V30 1373 C 126.601 -1.06399 -2.03007 0
M  V30 1374 C 127.601 -0.0156794 -1.60792 0
M  V30 1375 O 128.791 -0.25817 -1.72276 0
M  V30 1376 C 125.923 -0.616184 -3.35285 0
M  V30 1377 H 127.116 -2.02164 -2.21517 0
M  V30 1378 H 124.669 -1.08103 -1.12887 0
M  V30 1379 H 125.404 0.343917 -3.22471 0
M  V30 1380 H 125.189 -1.37301 -3.67275 0
M  V30 1381 H 126.679 -0.503032 -4.14559 0
M  V30 1382 N 127.117 1.15442 -1.07289 0
M  V30 1383 C 128.08 2.18358 -0.696591 0
M  V30 1384 C 129.08 1.58637 0.262837 0
M  V30 1385 O 130.27 1.74145 0.0438809 0
M  V30 1386 C 127.402 3.4089 -0.0266151 0
M  V30 1387 H 128.595 2.53162 -1.60776 0
M  V30 1388 H 126.148 1.29893 -0.869342 0
M  V30 1389 H 126.883 3.11653 0.896822 0
M  V30 1390 H 126.668 3.85495 -0.716657 0
M  V30 1391 H 128.158 4.17009 0.222028 0
M  V30 1392 N 128.595 0.856903 1.32268 0
M  V30 1393 C 129.844 0.457599 1.96441 0
M  V30 1394 C 130.157 -0.992426 1.68553 0
M  V30 1395 O 131.363 -1.49727 2.26482 0
M  V30 1396 C 129.819 0.767358 3.51624 0
M  V30 1397 C 129.427 2.23326 3.88367 0
M  V30 1398 C 131.171 0.435887 4.22256 0
M  V30 1399 C 129.078 2.48613 5.36606 0
M  V30 1400 H 128.008 0.167387 0.735185 0
M  V30 1401 H 130.659 1.048 1.5063 0
M  V30 1402 H 129.041 0.106367 3.95857 0
M  V30 1403 H 130.215 2.93623 3.55137 0
M  V30 1404 H 128.53 2.52948 3.30766 0
M  V30 1405 H 131.127 0.602202 5.31298 0
M  V30 1406 H 131.47 -0.622672 4.11617 0
M  V30 1407 H 132.003 1.05286 3.83614 0
M  V30 1408 H 128.742 3.53101 5.52268 0
M  V30 1409 H 128.262 1.82896 5.71235 0
M  V30 1410 H 129.941 2.32676 6.03714 0
M  V30 1411 N 130.073 -1.45103 0.615059 0
M  V30 1412 C 131.319 -2.02483 0.113347 0
M  V30 1413 C 131.652 -1.48146 -1.25564 0
M  V30 1414 O 130.927 -0.659104 -1.82992 0
M  V30 1415 C 131.21 -3.60005 0.0825278 0
M  V30 1416 C 131.063 -4.2466 1.48271 0
M  V30 1417 C 132.382 -4.35972 -0.601401 0
M  V30 1418 H 129.501 -0.735764 0.0426632 0
M  V30 1419 H 132.143 -1.72868 0.788461 0
M  V30 1420 H 130.293 -3.85367 -0.492378 0
M  V30 1421 H 131.965 -4.10458 2.10527 0
M  V30 1422 H 130.208 -3.82772 2.04127 0
M  V30 1423 H 130.879 -5.336 1.41332 0
M  V30 1424 H 133.355 -4.15947 -0.112666 0
M  V30 1425 H 132.231 -5.45697 -0.592097 0
M  V30 1426 H 132.492 -4.09391 -1.66887 0
M  V30 1427 N 131.551 -0.354651 -1.53558 0
M  V30 1428 C 132.797 0.238797 -2.01389 0
M  V30 1429 C 133.13 1.49309 -1.2418 0
M  V30 1430 O 132.405 1.91638 -0.332457 0
M  V30 1431 C 132.688 0.541771 -3.56001 0
M  V30 1432 C 132.541 -0.725388 -4.43912 0
M  V30 1433 C 133.86 1.34685 -4.18984 0
M  V30 1434 H 130.979 0.0853177 -0.732045 0
M  V30 1435 H 133.621 -0.477384 -1.83905 0
M  V30 1436 H 131.771 1.15189 -3.71031 0
M  V30 1437 H 133.443 -1.36313 -4.407 0
M  V30 1438 H 131.686 -1.34801 -4.12324 0
M  V30 1439 H 132.357 -0.468505 -5.50008 0
M  V30 1440 H 134.833 0.830837 -4.07721 0
M  V30 1441 H 133.709 1.52759 -5.27215 0
M  V30 1442 H 133.97 2.35221 -3.74331 0
M  V30 1443 N 133.029 1.57378 -0.0835403 0
M  V30 1444 C 134.259 1.97975 0.590713 0
M  V30 1445 C 134.667 0.961083 1.62972 0
M  V30 1446 O 134.01 -0.0590879 1.83605 0
M  V30 1447 C 134.072 3.34915 1.3066 0
M  V30 1448 C 133.736 4.55069 0.419698 0
M  V30 1449 C 134.733 5.18868 -0.32749 0
M  V30 1450 C 132.418 5.0114 0.341137 0
M  V30 1451 C 134.412 6.27098 -1.14134 0
M  V30 1452 C 132.099 6.0924 -0.476374 0
M  V30 1453 C 133.097 6.72083 -1.21627 0
M  V30 1454 O 132.785 7.781 -2.02028 0
M  V30 1455 H 132.517 0.655818 0.163947 0
M  V30 1456 H 135.071 2.04807 -0.156021 0
M  V30 1457 H 133.301 3.24733 2.09966 0
M  V30 1458 H 134.99 3.60037 1.87424 0
M  V30 1459 H 135.756 4.84211 -0.276459 0
M  V30 1460 H 131.635 4.51996 0.90668 0
M  V30 1461 H 135.179 6.7608 -1.71935 0
M  V30 1462 H 131.076 6.43329 -0.528927 0
M  V30 1463 H 131.844 7.95034 -1.94586 0
M  V30 1464 N 134.507 -0.190092 1.56449 0
M  V30 1465 C 135.784 -0.935886 1.71757 0
M  V30 1466 C 136.164 -2.01173 0.639726 0
M  V30 1467 O 135.512 -2.25827 -0.348502 0
M  V30 1468 C 135.722 -1.51775 3.1427 0
M  V30 1469 C 137.07 -1.99794 3.74656 0
M  V30 1470 O 138.094 -1.61607 3.1743 0
M  V30 1471 O 136.953 -2.70079 4.751 0
M  V30 1472 H 134.047 -0.439229 0.700719 0
M  V30 1473 H 136.593 -0.179395 1.68749 0
M  V30 1474 H 135.365 -0.742505 3.84191 0
M  V30 1475 H 134.988 -2.33894 3.21527 0
M  V30 1476 N 135.985 -1.50799 -0.457987 0
M  V30 1477 C 137.234 -1.6168 -1.20593 0
M  V30 1478 C 137.547 -0.32888 -1.92815 0
M  V30 1479 O 138.753 -0.316773 -2.69646 0
M  V30 1480 C 137.209 -2.8545 -2.19195 0
M  V30 1481 C 136.817 -4.21168 -1.52715 0
M  V30 1482 C 138.561 -3.05681 -2.94549 0
M  V30 1483 C 136.468 -5.3611 -2.4968 0
M  V30 1484 H 135.398 -0.602134 -0.453818 0
M  V30 1485 H 138.049 -1.77245 -0.475031 0
M  V30 1486 H 136.431 -2.63472 -2.95632 0
M  V30 1487 H 137.605 -4.53449 -0.819775 0
M  V30 1488 H 135.92 -4.06648 -0.895922 0
M  V30 1489 H 138.517 -3.88727 -3.67145 0
M  V30 1490 H 138.86 -2.17929 -3.54701 0
M  V30 1491 H 139.393 -3.27901 -2.25223 0
M  V30 1492 H 136.132 -6.26057 -1.94249 0
M  V30 1493 H 135.652 -5.0823 -3.18532 0
M  V30 1494 H 137.331 -5.6722 -3.11241 0
M  V30 1495 N 137.463 0.71206 -1.40597 0
M  V30 1496 C 138.691 1.50111 -1.42388 0
M  V30 1497 C 139.106 1.88784 -0.0245395 0
M  V30 1498 O 138.463 1.55681 0.952351 0
M  V30 1499 C 138.514 2.7742 -2.31776 0
M  V30 1500 O 138.235 2.40382 -3.66262 0
M  V30 1501 C 139.736 3.7129 -2.42196 0
M  V30 1502 H 136.956 0.46314 -0.485533 0
M  V30 1503 H 139.5 0.878068 -1.8469 0
M  V30 1504 H 137.655 3.36001 -1.92827 0
M  V30 1505 H 138.069 3.22324 -4.13772 0
M  V30 1506 H 139.543 4.57448 -3.08943 0
M  V30 1507 H 140.02 4.14641 -1.44809 0
M  V30 1508 H 140.626 3.18619 -2.81712 0
M  V30 1509 N 138.941 1.26152 0.944643 0
M  V30 1510 C 139.889 1.07215 2.06417 0
M  V30 1511 C 140.883 9.2007e-05 1.694 0
M  V30 1512 O 142.089 0.1565 1.79318 0
M  V30 1513 H 138.464 0.329837 0.675805 0
M  V30 1514 H 140.435 2.02099 2.19541 0
M  V30 1515 C 139.184 0.718197 3.40202 0
M  V30 1516 H 138.507 1.53497 3.69159 0
M  V30 1517 H 139.947 0.625459 4.19361 0
M  V30 1518 C 138.406 -0.576435 3.31932 0
M  V30 1519 O 138.936 -1.61574 3.67773 0
M  V30 1520 N 137.142 -0.565781 2.85039 0
M  V30 1521 H 136.689 0.280367 2.5607 0
M  V30 1522 H 136.647 -1.43213 2.79888 0
M  V30 1523 N 140.419 -1.14872 1.07899 0
M  V30 1524 C 141.835 -1.37776 0.805606 0
M  V30 1525 C 142.035 -1.92743 -0.587555 0
M  V30 1526 O 141.091 -2.13678 -1.34528 0
M  V30 1527 C 142.404 -2.34361 1.88402 0
M  V30 1528 C 143.952 -2.48012 1.90942 0
M  V30 1529 C 144.427 -3.47893 2.97883 0
M  V30 1530 N 145.918 -3.55433 2.97021 0
M  V30 1531 C 146.653 -4.32553 3.76412 0
M  V30 1532 N 146.149 -5.12959 4.65666 0
M  V30 1533 N 147.942 -4.27697 3.64735 0
M  V30 1534 H 140.093 -0.775365 1.97742 0
M  V30 1535 H 142.356 -0.403521 0.857831 0
M  V30 1536 H 142.062 -2.01098 2.88535 0
M  V30 1537 H 141.936 -3.34206 1.74889 0
M  V30 1538 H 144.323 -2.8057 0.914579 0
M  V30 1539 H 144.404 -1.48147 2.08534 0
M  V30 1540 H 144.048 -3.16069 3.97571 0
M  V30 1541 H 143.978 -4.47527 2.77538 0
M  V30 1542 H 146.469 -2.98048 2.32326 0
M  V30 1543 H 146.782 -5.69065 5.22862 0
M  V30 1544 H 145.127 -5.12245 4.69712 0
M  V30 1545 H 148.318 -3.63949 2.94378 0
M  V30 1546 H 148.491 -4.8755 4.26848 0
M  V30 1547 N 141.898 -0.863906 -1.31812 0
M  V30 1548 C 142.83 -0.272485 -2.27575 0
M  V30 1549 C 143.843 0.56104 -1.52827 0
M  V30 1550 O 145.032 0.384021 -1.7432 0
M  V30 1551 C 142.132 0.63283 -3.32939 0
M  V30 1552 C 141.305 -0.166902 -4.37081 0
M  V30 1553 C 140.364 0.665608 -5.21973 0
M  V30 1554 O 139.39 0.0958091 -5.69119 0
M  V30 1555 N 140.592 1.9787 -5.45736 0
M  V30 1556 H 143.357 -1.0954 -2.78964 0
M  V30 1557 H 140.918 -0.724791 -1.4477 0
M  V30 1558 H 142.91 1.19532 -3.86645 0
M  V30 1559 H 141.48 1.35642 -2.81638 0
M  V30 1560 H 140.7 -0.910838 -3.83533 0
M  V30 1561 H 141.988 -0.715874 -5.03739 0
M  V30 1562 H 141.386 2.46484 -5.09178 0
M  V30 1563 H 139.943 2.48911 -6.024 0
M  V30 1564 N 143.376 1.44774 -0.622745 0
M  V30 1565 C 144.601 2.06999 -0.128968 0
M  V30 1566 C 145.026 1.4617 1.1839 0
M  V30 1567 O 144.384 0.560007 1.72434 0
M  V30 1568 C 144.432 3.60595 -0.0188351 0
M  V30 1569 O 143.536 3.99398 1.02739 0
M  V30 1570 H 142.877 0.659047 -0.0809544 0
M  V30 1571 H 145.407 1.85784 -0.85705 0
M  V30 1572 H 145.417 4.07627 0.174476 0
M  V30 1573 H 144.092 4.04252 -0.977384 0
M  V30 1574 H 142.669 3.64011 0.809326 0
M  V30 1575 N 144.854 0.36279 1.53368 0
M  V30 1576 C 146.101 -0.227776 2.01215 0
M  V30 1577 C 146.429 -1.49003 1.25014 0
M  V30 1578 O 145.684 -1.92876 0.331236 0
M  V30 1579 C 145.983 -0.568417 3.52851 0
M  V30 1580 C 145.649 0.59918 4.46901 0
M  V30 1581 C 144.311 0.919559 4.72332 0
M  V30 1582 C 146.663 1.38156 5.02556 0
M  V30 1583 C 143.991 2.02434 5.5067 0
M  V30 1584 C 146.343 2.47674 5.821 0
M  V30 1585 C 145.007 2.8025 6.05819 0
M  V30 1586 H 144.277 -0.083349 0.736297 0
M  V30 1587 H 146.924 0.494677 1.85001 0
M  V30 1588 H 145.229 -1.37185 3.66998 0
M  V30 1589 H 146.926 -1.03756 3.87344 0
M  V30 1590 H 143.516 0.339437 4.27254 0
M  V30 1591 H 147.7 1.14729 4.82857 0
M  V30 1592 H 142.956 2.28075 5.67267 0
M  V30 1593 H 147.13 3.08716 6.24234 0
M  V30 1594 H 144.757 3.65979 6.66306 0
M  V30 1595 N 146.332 -1.57332 0.0918853 0
M  V30 1596 C 147.242 -2.17368 -0.882505 0
M  V30 1597 C 148.258 -1.14226 -1.31257 0
M  V30 1598 O 149.434 -1.46582 -1.38115 0
M  V30 1599 C 146.499 -2.73962 -2.12476 0
M  V30 1600 C 145.56 -3.92048 -1.7492 0
M  V30 1601 C 144.793 -4.45933 -2.93223 0
M  V30 1602 O 145.016 -3.98764 -4.07852 0
M  V30 1603 O 143.95 -5.36999 -2.71875 0
M  V30 1604 H 147.776 -3.01031 -0.40172 0
M  V30 1605 H 145.361 -1.48813 -0.132291 0
M  V30 1606 H 147.243 -3.10147 -2.85283 0
M  V30 1607 H 145.918 -1.93347 -2.59613 0
M  V30 1608 H 144.825 -3.6068 -0.993025 0
M  V30 1609 H 146.158 -4.74017 -1.32548 0
M  V30 1610 N 147.81 0.181792 -1.56548 0
M  V30 1611 C 148.758 1.24461 -1.965 0
M  V30 1612 C 149.752 1.464 -0.852261 0
M  V30 1613 O 150.958 1.47103 -1.03733 0
M  V30 1614 H 147.333 0.418138 -0.625031 0
M  V30 1615 H 149.304 0.880714 -2.85107 0
M  V30 1616 C 148.053 2.57891 -2.33212 0
M  V30 1617 H 147.376 2.41829 -3.18369 0
M  V30 1618 H 148.816 3.3097 -2.65019 0
M  V30 1619 C 147.275 3.15871 -1.17163 0
M  V30 1620 O 147.805 3.9913 -0.453708 0
M  V30 1621 N 146.011 2.74808 -0.944936 0
M  V30 1622 H 145.558 2.07205 -1.53049 0
M  V30 1623 H 145.516 3.13939 -0.170286 0
M  V30 1624 N 149.288 1.51039 0.449983 0
M  V30 1625 C 150.516 1.66869 1.2232 0
M  V30 1626 C 150.931 0.360727 1.85322 0
M  V30 1627 O 150.288 -0.659531 1.70166 0
M  V30 1628 C 150.339 2.77524 2.31652 0
M  V30 1629 O 150.06 4.03252 1.7123 0
M  V30 1630 C 151.561 3.04512 3.2216 0
M  V30 1631 H 148.781 0.560326 0.369155 0
M  V30 1632 H 151.325 1.97385 0.534719 0
M  V30 1633 H 149.48 2.49642 2.96239 0
M  V30 1634 H 149.894 4.64609 2.43389 0
M  V30 1635 H 151.368 3.85551 3.95038 0
M  V30 1636 H 151.845 2.16415 3.8218 0
M  V30 1637 H 152.451 3.34005 2.63288 0
M  V30 1638 N 150.766 -0.704594 1.40972 0
M  V30 1639 C 151.994 -1.49354 1.43182 0
M  V30 1640 C 152.409 -1.88768 0.0345508 0
M  V30 1641 O 151.766 -1.56184 -0.944081 0
M  V30 1642 C 151.817 -2.76187 2.33244 0
M  V30 1643 O 151.538 -2.38436 3.67532 0
M  V30 1644 C 153.039 -3.7 2.44162 0
M  V30 1645 H 150.259 -0.460559 0.487982 0
M  V30 1646 H 152.803 -0.868261 1.85153 0
M  V30 1647 H 150.958 -3.34974 1.94606 0
M  V30 1648 H 151.372 -3.20126 4.15475 0
M  V30 1649 H 152.846 -4.55803 3.11364 0
M  V30 1650 H 153.323 -4.13867 1.47006 0
M  V30 1651 H 153.929 -3.17121 2.83398 0
M  V30 1652 N 152.244 -1.26651 -0.937939 0
M  V30 1653 C 153.191 -1.0849 -2.03712 0
M  V30 1654 C 154.161 0.011033 -1.66096 0
M  V30 1655 O 155.346 -0.149353 -1.90215 0
M  V30 1656 C 152.486 -0.72735 -3.37348 0
M  V30 1657 C 151.599 -1.89986 -3.87981 0
M  V30 1658 C 150.734 -1.48513 -5.10017 0
M  V30 1659 C 149.773 -2.62575 -5.5292 0
M  V30 1660 N 148.91 -2.21762 -6.66158 0
M  V30 1661 H 153.75 -2.02551 -2.18579 0
M  V30 1662 H 151.287 -1.00844 -1.07093 0
M  V30 1663 H 153.245 -0.50092 -4.14182 0
M  V30 1664 H 151.875 0.176298 -3.22318 0
M  V30 1665 H 150.927 -2.23913 -3.07518 0
M  V30 1666 H 152.239 -2.75586 -4.15757 0
M  V30 1667 H 151.393 -1.21934 -5.94321 0
M  V30 1668 H 150.132 -0.60009 -4.83994 0
M  V30 1669 H 149.137 -2.8988 -4.67172 0
M  V30 1670 H 150.362 -3.51685 -5.80943 0
M  V30 1671 H 148.308 -1.35696 -6.41812 0
M  V30 1672 H 148.225 -3.00903 -6.93537 0
M  V30 1673 H 149.493 -1.98403 -7.53828 0
M  V30 1674 N 153.722 1.14298 -1.08507 0
M  V30 1675 C 154.968 1.85854 -0.826438 0
M  V30 1676 C 155.323 1.81413 0.640878 0
M  V30 1677 O 154.616 1.23463 1.46518 0
M  V30 1678 C 154.81 3.33547 -1.28379 0
M  V30 1679 C 154.639 3.52369 -2.79403 0
M  V30 1680 C 153.409 3.67159 -3.47164 0
M  V30 1681 C 155.607 3.49203 -3.77573 0
M  V30 1682 N 153.589 3.74149 -4.86709 0
M  V30 1683 C 154.96 3.6245 -5.03021 0
M  V30 1684 C 157.015 3.32547 -3.70563 0
M  V30 1685 C 155.718 3.60761 -6.2229 0
M  V30 1686 C 157.744 3.32162 -4.89308 0
M  V30 1687 C 157.106 3.45949 -6.13595 0
M  V30 1688 H 153.205 0.696705 -0.355143 0
M  V30 1689 H 155.789 1.36981 -1.38362 0
M  V30 1690 H 153.96 3.81008 -0.754166 0
M  V30 1691 H 155.692 3.92867 -0.971469 0
M  V30 1692 H 152.447 3.68433 -2.9758 0
M  V30 1693 H 152.871 3.81359 -5.5937 0
M  V30 1694 H 157.513 3.20797 -2.75407 0
M  V30 1695 H 155.231 3.71286 -7.17755 0
M  V30 1696 H 158.817 3.20485 -4.85573 0
M  V30 1697 H 157.697 3.456 -7.03939 0
M  V30 1698 N 155.201 0.870884 1.31352 0
M  V30 1699 C 156.45 0.478408 1.95944 0
M  V30 1700 C 156.763 -0.974493 1.69597 0
M  V30 1701 O 157.969 -1.47316 2.28058 0
M  V30 1702 C 156.425 0.804609 3.50791 0
M  V30 1703 C 156.033 2.27433 3.85977 0
M  V30 1704 C 157.777 0.480648 4.2177 0
M  V30 1705 C 155.684 2.5429 5.33939 0
M  V30 1706 H 154.614 0.175175 0.733369 0
M  V30 1707 H 157.265 1.06391 1.4951 0
M  V30 1708 H 155.647 0.148347 3.95722 0
M  V30 1709 H 156.821 2.97373 3.52002 0
M  V30 1710 H 155.136 2.56442 3.28065 0
M  V30 1711 H 157.733 0.658519 5.30629 0
M  V30 1712 H 158.076 -0.578979 4.12254 0
M  V30 1713 H 158.609 1.09349 3.82476 0
M  V30 1714 H 155.348 3.58939 5.48491 0
M  V30 1715 H 154.868 1.88945 5.69263 0
M  V30 1716 H 156.547 2.39066 6.01212 0
M  V30 1717 N 156.679 -1.44442 0.630414 0
M  V30 1718 C 157.611 -2.2892 -0.113347 0
M  V30 1719 C 158.624 -1.41243 -0.80959 0
M  V30 1720 O 159.813 -1.65402 -0.671156 0
M  V30 1721 C 156.913 -3.17594 -1.18266 0
M  V30 1722 C 156.086 -4.33682 -0.569073 0
M  V30 1723 C 155.145 -5.03397 -1.53226 0
M  V30 1724 O 154.171 -5.59438 -1.04967 0
M  V30 1725 N 155.373 -5.04783 -2.86661 0
M  V30 1726 H 158.138 -2.93392 0.611636 0
M  V30 1727 H 155.699 -1.54881 0.471523 0
M  V30 1728 H 157.691 -3.61097 -1.82732 0
M  V30 1729 H 156.261 -2.54876 -1.80988 0
M  V30 1730 H 155.481 -3.9338 0.254187 0
M  V30 1731 H 156.769 -5.08608 -0.139767 0
M  V30 1732 H 156.167 -4.60584 -3.28449 0
M  V30 1733 H 154.724 -5.52077 -3.46489 0
M  V30 1734 N 158.157 -0.370918 -1.53173 0
M  V30 1735 C 159.434 0.273754 -1.93675 0
M  V30 1736 C 159.814 1.65938 -1.3049 0
M  V30 1737 O 159.162 2.23698 -0.465999 0
M  V30 1738 C 159.372 0.318602 -3.47543 0
M  V30 1739 C 160.72 0.556392 -4.20939 0
M  V30 1740 O 161.744 0.399587 -3.53952 0
M  V30 1741 O 160.603 0.862133 -5.39657 0
M  V30 1742 H 157.697 0.165448 -0.810281 0
M  V30 1743 H 160.243 -0.42409 -1.64315 0
M  V30 1744 H 159.015 -0.652687 -3.85818 0
M  V30 1745 H 158.638 1.06212 -3.83151 0
M  V30 1746 N 159.635 1.57281 -0.100228 0
M  V30 1747 C 160.884 1.93713 0.561984 0
M  V30 1748 C 161.197 0.984492 1.69018 0
M  V30 1749 O 162.403 1.24273 2.41389 0
M  V30 1750 C 160.859 3.4421 1.05106 0
M  V30 1751 C 160.467 4.47975 -0.0476628 0
M  V30 1752 C 162.211 3.89595 1.68571 0
M  V30 1753 C 160.118 5.89631 0.457055 0
M  V30 1754 H 159.048 0.723082 0.2137 0
M  V30 1755 H 161.699 1.82644 -0.177057 0
M  V30 1756 H 160.081 3.50449 1.84395 0
M  V30 1757 H 161.255 4.53385 -0.823333 0
M  V30 1758 H 159.57 4.1223 -0.587816 0
M  V30 1759 H 162.167 4.92832 2.07414 0
M  V30 1760 H 162.51 3.28526 2.55688 0
M  V30 1761 H 163.043 3.86078 0.958562 0
M  V30 1762 H 159.782 6.54411 -0.377616 0
M  V30 1763 H 159.302 5.87681 1.19962 0
M  V30 1764 H 160.981 6.40363 0.92437 0
M  V30 1765 N 161.113 -0.173488 1.56642 0
M  V30 1766 C 162.043 -1.2171 1.99271 0
M  V30 1767 C 163.024 -1.46289 0.867959 0
M  V30 1768 O 164.209 -1.5766 1.13388 0
M  V30 1769 C 161.339 -2.55651 2.35074 0
M  V30 1770 C 160.293 -2.45645 3.50489 0
M  V30 1771 C 159.619 -3.84056 3.72028 0
M  V30 1772 C 160.919 -1.96302 4.84007 0
M  V30 1773 H 162.613 -0.86275 2.867 0
M  V30 1774 H 160.159 -0.413571 1.37933 0
M  V30 1775 H 162.112 -3.2886 2.63494 0
M  V30 1776 H 160.836 -2.92869 1.44552 0
M  V30 1777 H 159.495 -1.7489 3.22194 0
M  V30 1778 H 159.143 -4.18664 2.788 0
M  V30 1779 H 158.843 -3.7823 4.49684 0
M  V30 1780 H 160.367 -4.58854 4.02846 0
M  V30 1781 H 161.781 -2.59284 5.11317 0
M  V30 1782 H 160.178 -2.01429 5.65284 0
M  V30 1783 H 161.248 -0.917226 4.76146 0
M  V30 1784 N 162.591 -1.51276 -0.441967 0
M  V30 1785 C 163.539 -1.72823 -1.55676 0
M  V30 1786 C 164.533 -0.59445 -1.58627 0
M  V30 1787 O 165.739 -0.775715 -1.62427 0
M  V30 1788 H 162.114 -0.545983 -0.517113 0
M  V30 1789 H 164.085 -2.6628 -1.34675 0
M  V30 1790 C 162.834 -1.86619 -2.93375 0
M  V30 1791 H 162.157 -2.73264 -2.91834 0
M  V30 1792 H 163.597 -2.05709 -3.70756 0
M  V30 1793 C 162.056 -0.624842 -3.31055 0
M  V30 1794 O 162.586 0.222636 -4.01083 0
M  V30 1795 N 160.792 -0.470288 -2.86769 0
M  V30 1796 H 160.339 -1.161 -2.29953 0
M  V30 1797 H 160.297 0.359051 -3.12343 0
M  V30 1798 N 164.069 0.697108 -1.41344 0
M  V30 1799 C 164.979 1.84088 -1.45427 0
M  V30 1800 C 165.995 1.70545 -0.34501 0
M  V30 1801 O 167.171 1.92488 -0.592492 0
M  V30 1802 C 164.236 3.20056 -1.33286 0
M  V30 1803 C 163.297 3.45718 -2.54514 0
M  V30 1804 C 162.53 4.75199 -2.42944 0
M  V30 1805 O 162.753 5.51579 -1.45318 0
M  V30 1806 O 161.687 5.0161 -3.32672 0
M  V30 1807 H 165.513 1.836 -2.41919 0
M  V30 1808 H 163.098 0.849966 -1.22866 0
M  V30 1809 H 164.98 4.01236 -1.28794 0
M  V30 1810 H 163.655 3.2123 -0.39909 0
M  V30 1811 H 162.562 2.64474 -2.64583 0
M  V30 1812 H 163.895 3.49356 -3.46715 0
M  V30 1813 N 165.547 1.27147 0.931209 0
M  V30 1814 C 166.963 1.04475 1.20653 0
M  V30 1815 C 167.163 -0.223885 2.00252 0
M  V30 1816 O 166.219 -0.930332 2.34736 0
M  V30 1817 C 167.532 2.28209 1.95809 0
M  V30 1818 C 169.08 2.33211 2.08762 0
M  V30 1819 C 169.555 3.56665 2.87323 0
M  V30 1820 N 171.046 3.57201 2.94892 0
M  V30 1821 C 171.781 4.49395 3.56134 0
M  V30 1822 N 171.277 5.51889 4.18796 0
M  V30 1823 N 173.07 4.37026 3.53504 0
M  V30 1824 H 165.221 2.08612 0.399333 0
M  V30 1825 H 167.484 0.917312 0.239253 0
M  V30 1826 H 167.19 3.20538 1.44736 0
M  V30 1827 H 167.064 2.33247 2.96438 0
M  V30 1828 H 169.451 1.41391 2.59023 0
M  V30 1829 H 169.532 2.32178 1.07364 0
M  V30 1830 H 169.176 4.4882 2.37746 0
M  V30 1831 H 169.106 3.54948 3.88998 0
M  V30 1832 H 171.597 2.83074 2.50354 0
M  V30 1833 H 171.91 6.18409 4.63454 0
M  V30 1834 H 170.255 5.55735 4.17353 0
M  V30 1835 H 173.446 3.56166 3.03749 0
M  V30 1836 H 173.619 5.09067 4.00942 0
M  V30 1837 N 167.025 -1.13721 1.09112 0
M  V30 1838 C 168.273 -1.84559 0.823562 0
M  V30 1839 C 168.594 -1.83754 -0.652658 0
M  V30 1840 O 167.864 -1.29102 -1.47342 0
M  V30 1841 H 166.444 -0.683376 0.301673 0
M  V30 1842 H 169.106 -1.37771 1.37859 0
M  V30 1843 H 168.202 -2.8917 1.17419 0
M  V30 1844 N 168.503 -0.877838 -1.30888 0
M  V30 1845 C 169.45 -0.337538 -2.28318 0
M  V30 1846 C 170.42 0.568346 -1.56074 0
M  V30 1847 O 171.605 0.498298 -1.84178 0
M  V30 1848 C 168.745 0.448142 -3.42178 0
M  V30 1849 C 167.858 -0.48615 -4.29256 0
M  V30 1850 C 166.993 0.314427 -5.30269 0
M  V30 1851 C 166.032 -0.615791 -6.08995 0
M  V30 1852 N 165.169 0.14902 -7.01942 0
M  V30 1853 H 170.009 -1.17356 -2.73919 0
M  V30 1854 H 167.546 -0.590094 -1.34745 0
M  V30 1855 H 169.504 0.919517 -4.06941 0
M  V30 1856 H 168.134 1.24879 -2.97666 0
M  V30 1857 H 167.186 -1.076 -3.64865 0
M  V30 1858 H 168.498 -1.19909 -4.84173 0
M  V30 1859 H 167.652 0.847969 -6.00745 0
M  V30 1860 H 166.391 1.06062 -4.76027 0
M  V30 1861 H 165.396 -1.16102 -5.37401 0
M  V30 1862 H 166.621 -1.36097 -6.65323 0
M  V30 1863 H 164.567 0.877884 -6.50099 0
M  V30 1864 H 164.484 -0.504433 -7.54315 0
M  V30 1865 H 165.752 0.663537 -7.76671 0
M  V30 1866 N 169.982 1.44106 -0.638065 0
M  V30 1867 C 171.259 1.95453 -0.0759321 0
M  V30 1868 C 171.639 1.57984 1.40015 0
M  V30 1869 O 170.987 0.857361 2.11806 0
M  V30 1870 C 171.197 3.47655 -0.306132 0
M  V30 1871 C 172.545 4.24114 -0.203008 0
M  V30 1872 O 173.569 3.55405 -0.237871 0
M  V30 1873 O 172.428 5.46381 -0.113827 0
M  V30 1874 H 169.522 0.826797 0.0183332 0
M  V30 1875 H 172.068 1.54122 -0.710251 0
M  V30 1876 H 170.84 3.68 -1.3301 0
M  V30 1877 H 170.463 3.95949 0.361991 0
M  V30 1878 N 171.46 0.379036 1.52974 0
M  V30 1879 C 172.706 -0.206727 2.01744 0
M  V30 1880 C 173.039 -1.47314 1.26539 0
M  V30 1881 O 172.314 -1.91084 0.362903 0
M  V30 1882 C 172.597 -0.485066 3.56818 0
M  V30 1883 C 172.45 0.795919 4.42702 0
M  V30 1884 C 173.769 -1.28003 4.21074 0
M  V30 1885 H 170.888 -0.0736607 0.73331 0
M  V30 1886 H 173.53 0.506581 1.83122 0
M  V30 1887 H 171.68 -1.09272 3.72816 0
M  V30 1888 H 173.352 1.43307 4.38476 0
M  V30 1889 H 171.595 1.41344 4.10127 0
M  V30 1890 H 172.266 0.555947 5.49193 0
M  V30 1891 H 174.742 -0.765867 4.08991 0
M  V30 1892 H 173.618 -1.44352 5.29579 0
M  V30 1893 H 173.879 -2.29236 3.78026 0
M  V30 1894 N 172.938 -1.57226 0.108567 0
M  V30 1895 C 174.187 -1.94008 -0.551703 0
M  V30 1896 C 174.5 -0.993442 -1.68494 0
M  V30 1897 O 175.706 -1.25551 -2.40726 0
M  V30 1898 C 174.162 -3.44763 -1.03279 0
M  V30 1899 C 173.77 -4.47943 0.0714193 0
M  V30 1900 C 175.514 -3.90483 -1.66503 0
M  V30 1901 C 173.421 -5.89865 -0.425779 0
M  V30 1902 H 172.351 -0.724206 -0.209863 0
M  V30 1903 H 175.002 -1.82547 0.186741 0
M  V30 1904 H 173.384 -3.51422 -1.82533 0
M  V30 1905 H 174.558 -4.52942 0.847365 0
M  V30 1906 H 172.873 -4.11913 0.609669 0
M  V30 1907 H 175.47 -4.93925 -2.04798 0
M  V30 1908 H 175.813 -3.29877 -2.53942 0
M  V30 1909 H 176.346 -3.86581 -0.938074 0
M  V30 1910 H 173.085 -6.54202 0.412316 0
M  V30 1911 H 172.605 -5.88309 -1.16843 0
M  V30 1912 H 174.284 -6.40844 -0.890397 0
M  V30 1913 N 174.416 0.165178 -1.56732 0
M  V30 1914 C 175.665 0.879143 -1.81532 0
M  V30 1915 C 175.978 1.83144 -0.686842 0
M  V30 1916 O 177.184 2.58823 -0.819944 0
M  V30 1917 C 175.64 1.61388 -3.21686 0
M  V30 1918 C 175.248 0.704904 -4.4242 0
M  V30 1919 C 176.992 2.3157 -3.55774 0
M  V30 1920 C 174.899 1.44022 -5.73595 0
M  V30 1921 H 173.829 0.332033 -0.676957 0
M  V30 1922 H 176.48 0.132008 -1.83025 0
M  V30 1923 H 174.862 2.40599 -3.14529 0
M  V30 1924 H 176.036 -0.0506815 -4.60772 0
M  V30 1925 H 174.351 0.112419 -4.16248 0
M  V30 1926 H 176.948 2.8719 -4.51028 0
M  V30 1927 H 177.291 3.07201 -2.8095 0
M  V30 1928 H 177.824 1.59297 -3.64513 0
M  V30 1929 H 174.563 0.72612 -6.51466 0
M  V30 1930 H 174.083 2.16898 -5.5921 0
M  V30 1931 H 175.762 1.98606 -6.15764 0
M  V30 1932 N 175.894 1.51508 0.433938 0
M  V30 1933 C 176.857 1.72473 1.50949 0
M  V30 1934 C 177.857 0.594725 1.49398 0
M  V30 1935 O 179.047 0.862315 1.5136 0
M  V30 1936 C 176.179 1.78431 2.90474 0
M  V30 1937 H 177.372 2.68467 1.33662 0
M  V30 1938 H 174.925 1.41549 0.662836 0
M  V30 1939 H 175.66 0.842645 3.13161 0
M  V30 1940 H 175.445 2.60558 2.93005 0
M  V30 1941 H 176.935 1.96479 3.68491 0
M  V30 1942 N 177.372 -0.689602 1.41712 0
M  V30 1943 C 178.302 -1.81577 1.46806 0
M  V30 1944 C 179.283 -1.66945 0.326105 0
M  V30 1945 O 180.468 -1.86588 0.538377 0
M  V30 1946 C 177.598 -3.19762 1.35535 0
M  V30 1947 C 176.552 -3.49107 2.47605 0
M  V30 1948 C 175.878 -4.86711 2.21397 0
M  V30 1949 C 177.178 -3.47483 3.89939 0
M  V30 1950 H 178.872 -1.7757 2.41058 0
M  V30 1951 H 176.418 -0.852887 1.16025 0
M  V30 1952 H 178.371 -3.98263 1.3771 0
M  V30 1953 H 177.095 -3.24409 0.377708 0
M  V30 1954 H 175.754 -2.72959 2.44722 0
M  V30 1955 H 175.402 -4.8799 1.21961 0
M  V30 1956 H 175.102 -5.0731 2.96497 0
M  V30 1957 H 176.626 -5.67515 2.25297 0
M  V30 1958 H 178.04 -4.1598 3.94505 0
M  V30 1959 H 176.437 -3.79615 4.64771 0
M  V30 1960 H 177.507 -2.46341 4.17665 0
M  V30 1961 N 178.85 -1.27639 -0.924453 0
M  V30 1962 C 180.096 -1.14336 -1.67497 0
M  V30 1963 C 180.429 0.309465 -1.91718 0
M  V30 1964 O 179.704 1.22608 -1.50989 0
M  V30 1965 C 179.987 -1.93096 -3.0395 0
M  V30 1966 C 179.84 -3.46381 -2.8695 0
M  V30 1967 C 181.159 -1.73798 -4.0433 0
M  V30 1968 H 178.278 -0.416728 -0.607871 0
M  V30 1969 H 180.92 -1.56832 -1.07256 0
M  V30 1970 H 179.07 -1.56982 -3.55372 0
M  V30 1971 H 180.742 -3.92343 -2.42621 0
M  V30 1972 H 178.985 -3.72557 -2.22225 0
M  V30 1973 H 179.656 -3.96735 -3.83804 0
M  V30 1974 H 182.132 -2.05293 -3.61931 0
M  V30 1975 H 181.008 -2.31294 -4.97789 0
M  V30 1976 H 181.269 -0.686725 -4.36734 0
M  V30 1977 N 180.328 1.1314 -1.09713 0
M  V30 1978 C 181.576 1.84119 -0.833338 0
M  V30 1979 C 181.897 1.84097 0.642904 0
M  V30 1980 O 181.167 1.29881 1.46655 0
M  V30 1981 H 179.747 0.681766 -0.305293 0
M  V30 1982 H 182.409 1.37038 -1.38588 0
M  V30 1983 H 181.505 2.88543 -1.18951 0
M  V30 1984 N 181.806 0.884767 1.30421 0
M  V30 1985 C 182.754 0.340869 2.30089 0
M  V30 1986 C 183.748 -0.55201 1.60154 0
M  V30 1987 O 184.954 -0.436467 1.74628 0
M  V30 1988 H 181.329 0.0915739 0.746404 0
M  V30 1989 H 183.3 1.19513 2.73421 0
M  V30 1990 C 182.049 -0.429779 3.45034 0
M  V30 1991 H 181.372 0.248024 3.9903 0
M  V30 1992 H 182.812 -0.775445 4.16849 0
M  V30 1993 C 181.271 -1.62677 2.95022 0
M  V30 1994 O 181.801 -2.72614 2.95033 0
M  V30 1995 N 180.007 -1.46387 2.51036 0
M  V30 1996 H 179.554 -0.569506 2.51226 0
M  V30 1997 H 179.512 -2.26612 2.17932 0
M  V30 1998 N 183.284 -1.43765 0.645699 0
M  V30 1999 C 184.231 -2.30745 -0.0504648 0
M  V30 2000 C 185.201 -1.4432 -0.822241 0
M  V30 2001 O 186.386 -1.73202 -0.800358 0
M  V30 2002 C 183.526 -3.29802 -1.0161 0
M  V30 2003 C 182.639 -4.31326 -0.241219 0
M  V30 2004 C 181.774 -5.17469 -1.19998 0
M  V30 2005 C 180.813 -6.10691 -0.415094 0
M  V30 2006 N 179.95 -6.89483 -1.32506 0
M  V30 2007 H 184.79 -2.8973 0.697155 0
M  V30 2008 H 182.327 -1.42738 0.355563 0
M  V30 2009 H 184.285 -3.85734 -1.58949 0
M  V30 2010 H 182.915 -2.72483 -1.73069 0
M  V30 2011 H 181.967 -3.77749 0.448334 0
M  V30 2012 H 183.279 -4.9743 0.369437 0
M  V30 2013 H 182.433 -5.7799 -1.84424 0
M  V30 2014 H 181.172 -4.51473 -1.84455 0
M  V30 2015 H 180.177 -5.49265 0.242565 0
M  V30 2016 H 181.402 -6.78727 0.224966 0
M  V30 2017 H 179.348 -6.26142 -1.95657 0
M  V30 2018 H 179.265 -7.52081 -0.768783 0
M  V30 2019 H 180.533 -7.54516 -1.9577 0
M  V30 2020 N 184.763 -0.387143 -1.52771 0
M  V30 2021 C 185.991 0.195869 -2.05971 0
M  V30 2022 C 186.406 1.40691 -1.25903 0
M  V30 2023 O 185.763 1.79931 -0.305134 0
M  V30 2024 C 185.814 0.56812 -3.57008 0
M  V30 2025 O 185.535 -0.594803 -4.34043 0
M  V30 2026 C 187.036 1.20723 -4.26545 0
M  V30 2027 H 184.256 0.0300578 -0.670326 0
M  V30 2028 H 186.8 -0.551749 -1.96916 0
M  V30 2029 H 184.955 1.26564 -3.66143 0
M  V30 2030 H 185.369 -0.289322 -5.23701 0
M  V30 2031 H 186.843 1.41807 -5.33474 0
M  V30 2032 H 187.32 2.17395 -3.81623 0
M  V30 2033 H 187.926 0.550535 -4.21722 0
M  V30 2034 N 186.241 1.57166 -0.116904 0
M  V30 2035 C 187.518 1.86645 0.585049 0
M  V30 2036 C 187.898 1.0177 1.84949 0
M  V30 2037 O 187.246 0.0960379 2.28298 0
M  V30 2038 C 187.456 3.37736 0.879507 0
M  V30 2039 C 188.804 4.06289 1.23348 0
M  V30 2040 O 189.828 3.42743 0.969836 0
M  V30 2041 O 188.687 5.18455 1.7282 0
M  V30 2042 H 185.781 0.772593 0.295007 0
M  V30 2043 H 188.327 1.69025 -0.151249 0
M  V30 2044 H 187.099 3.91296 -0.0166136 0
M  V30 2045 H 186.722 3.6078 1.67103 0
M  V30 2046 N 187.719 -0.156864 1.56817 0
M  V30 2047 C 188.649 -1.19589 2.00551 0
M  V30 2048 C 189.63 -1.4536 0.883426 0
M  V30 2049 O 190.815 -1.56449 1.15054 0
M  V30 2050 C 187.945 -2.53143 2.37773 0
M  V30 2051 C 186.899 -2.41913 3.53075 0
M  V30 2052 C 186.225 -3.80088 3.76081 0
M  V30 2053 C 187.525 -1.91157 4.86062 0
M  V30 2054 H 189.219 -0.832293 2.87599 0
M  V30 2055 H 186.765 -0.398918 1.38364 0
M  V30 2056 H 188.718 -3.26047 2.66967 0
M  V30 2057 H 187.442 -2.91319 1.4765 0
M  V30 2058 H 186.101 -1.71462 3.24031 0
M  V30 2059 H 185.749 -4.15683 2.83225 0
M  V30 2060 H 185.449 -3.73439 4.53671 0
M  V30 2061 H 186.973 -4.54556 4.0769 0
M  V30 2062 H 188.387 -2.53846 5.14038 0
M  V30 2063 H 186.784 -1.95422 5.67389 0
M  V30 2064 H 187.854 -0.866673 4.77092 0
M  V30 2065 N 189.197 -1.51736 -0.425897 0
M  V30 2066 C 190.445 -1.64644 -1.17204 0
M  V30 2067 C 190.766 -0.370486 -1.91448 0
M  V30 2068 O 190.036 0.614088 -1.86026 0
M  V30 2069 H 188.616 -0.606819 -0.435638 0
M  V30 2070 H 191.278 -1.88713 -0.487177 0
M  V30 2071 H 190.374 -2.47958 -1.89534 0
M  V30 2072 N 190.675 0.682077 -1.42076 0
M  V30 2073 C 191.952 1.43755 -1.32642 0
M  V30 2074 C 192.332 2.11063 0.0396611 0
M  V30 2075 O 191.68 2.02701 1.05474 0
M  V30 2076 C 191.89 2.44596 -2.48946 0
M  V30 2077 C 193.238 3.09454 -2.9073 0
M  V30 2078 O 194.262 2.54922 -2.48783 0
M  V30 2079 O 193.121 4.08253 -3.63307 0
M  V30 2080 H 190.215 0.640857 -0.522715 0
M  V30 2081 H 192.761 0.711415 -1.54068 0
M  V30 2082 H 191.533 1.93609 -3.40046 0
M  V30 2083 H 191.156 3.24701 -2.29467 0
M  V30 2084 N 192.153 1.28127 0.917671 0
M  V30 2085 C 193.083 1.14248 2.03641 0
M  V30 2086 C 194.064 0.0412748 1.7005 0
M  V30 2087 O 195.249 0.217566 1.92977 0
M  V30 2088 C 192.379 0.799431 3.37974 0
M  V30 2089 C 191.333 1.85497 3.85713 0
M  V30 2090 C 190.659 1.36565 5.16966 0
M  V30 2091 C 191.959 3.26085 4.08002 0
M  V30 2092 H 193.653 2.07835 2.15511 0
M  V30 2093 H 191.199 1.00064 1.03553 0
M  V30 2094 H 193.152 0.689114 4.15727 0
M  V30 2095 H 191.876 -0.172145 3.26146 0
M  V30 2096 H 190.535 1.95437 3.10161 0
M  V30 2097 H 190.183 0.383253 5.01538 0
M  V30 2098 H 189.883 2.07143 5.49878 0
M  V30 2099 H 191.407 1.26848 5.97279 0
M  V30 2100 H 192.821 3.19089 4.76293 0
M  V30 2101 H 191.218 3.94462 4.52238 0
M  V30 2102 H 192.288 3.70394 3.12948 0
M  V30 2103 N 193.631 -1.12557 1.10312 0
M  V30 2104 C 195.047 -1.36036 0.834649 0
M  V30 2105 C 195.247 -1.93946 -0.546539 0
M  V30 2106 O 194.303 -2.16484 -1.29966 0
M  V30 2107 C 195.616 -2.30312 1.9333 0
M  V30 2108 C 197.164 -2.43906 1.9616 0
M  V30 2109 C 197.639 -3.41496 3.05195 0
M  V30 2110 N 199.13 -3.49053 3.04494 0
M  V30 2111 C 199.865 -4.24471 3.85502 0
M  V30 2112 N 199.361 -5.02966 4.76442 0
M  V30 2113 N 201.154 -4.19864 3.73725 0
M  V30 2114 H 193.305 -0.733246 1.99342 0
M  V30 2115 H 195.568 -0.385234 0.866198 0
M  V30 2116 H 195.274 -1.94933 2.92735 0
M  V30 2117 H 195.148 -3.30421 1.81939 0
M  V30 2118 H 197.535 -2.78567 0.973886 0
M  V30 2119 H 197.616 -1.4369 2.11629 0
M  V30 2120 H 197.26 -3.07565 4.04186 0
M  V30 2121 H 197.19 -4.41539 2.86968 0
M  V30 2122 H 199.681 -2.93053 2.38596 0
M  V30 2123 H 199.994 -5.57846 5.34815 0
M  V30 2124 H 198.339 -5.02167 4.80472 0
M  V30 2125 H 201.53 -3.57623 3.02032 0
M  V30 2126 H 201.703 -4.78386 4.37093 0
M  V30 2127 N 195.109 -0.891671 -1.2995 0
M  V30 2128 C 196.056 -0.361736 -2.27948 0
M  V30 2129 C 197.026 0.551761 -1.56668 0
M  V30 2130 O 198.211 0.478736 -1.84696 0
M  V30 2131 C 195.351 0.411825 -3.42634 0
M  V30 2132 C 194.464 -0.531651 -4.28716 0
M  V30 2133 C 193.599 0.258167 -5.30572 0
M  V30 2134 C 192.638 -0.680349 -6.08307 0
M  V30 2135 N 191.775 0.0745613 -7.0206 0
M  V30 2136 H 196.615 -1.20254 -2.72659 0
M  V30 2137 H 194.152 -0.604352 -1.34112 0
M  V30 2138 H 196.11 0.876304 -4.07893 0
M  V30 2139 H 194.74 1.21715 -2.98974 0
M  V30 2140 H 193.792 -1.11463 -3.63703 0
M  V30 2141 H 195.104 -1.25038 -4.82874 0
M  V30 2142 H 194.258 0.784204 -6.0161 0
M  V30 2143 H 192.997 1.01008 -4.77126 0
M  V30 2144 H 192.002 -1.21796 -5.3614 0
M  V30 2145 H 193.227 -1.43145 -6.63842 0
M  V30 2146 H 191.173 0.808883 -6.50994 0
M  V30 2147 H 191.09 -0.584409 -7.53738 0
M  V30 2148 H 192.358 0.581123 -7.77331 0
M  V30 2149 N 196.587 1.43421 -0.653314 0
M  V30 2150 C 197.833 2.02111 -0.166992 0
M  V30 2151 C 198.166 1.51423 1.21592 0
M  V30 2152 O 197.441 0.707389 1.8118 0
M  V30 2153 C 197.724 3.5966 -0.177948 0
M  V30 2154 C 197.577 4.20579 -1.59478 0
M  V30 2155 C 198.896 4.37413 0.4856 0
M  V30 2156 H 196.015 0.734374 -0.0621557 0
M  V30 2157 H 198.657 1.70717 -0.834016 0
M  V30 2158 H 196.807 3.86537 0.390032 0
M  V30 2159 H 198.479 4.04732 -2.21336 0
M  V30 2160 H 196.722 3.77226 -2.14204 0
M  V30 2161 H 197.393 5.29665 -1.5543 0
M  V30 2162 H 199.869 4.161 0.00234528 0
M  V30 2163 H 198.745 5.47075 0.447207 0
M  V30 2164 H 199.006 4.13672 1.55974 0
M  V30 2165 N 198.065 0.39524 1.52563 0
M  V30 2166 C 199.293 -0.184943 2.06072 0
M  V30 2167 C 199.708 -1.40021 1.26647 0
M  V30 2168 O 199.065 -1.79767 0.314672 0
M  V30 2169 C 199.116 -0.549179 3.57304 0
M  V30 2170 O 198.837 0.617813 4.33722 0
M  V30 2171 C 200.338 -1.18459 4.2718 0
M  V30 2172 H 197.558 -0.0265025 0.670476 0
M  V30 2173 H 200.102 0.562184 1.96621 0
M  V30 2174 H 198.257 -1.2462 3.66809 0
M  V30 2175 H 198.671 0.317091 5.23541 0
M  V30 2176 H 200.145 -1.38976 5.34219 0
M  V30 2177 H 200.622 -2.15368 3.82771 0
M  V30 2178 H 201.228 -0.528163 4.22008 0
M  V30 2179 N 199.544 -1.57102 0.125237 0
M  V30 2180 C 200.774 -1.99472 -0.538015 0
M  V30 2181 C 201.182 -1.00395 -1.60366 0
M  V30 2182 O 200.525 0.0103875 -1.83697 0
M  V30 2183 C 200.587 -3.38262 -1.21734 0
M  V30 2184 C 200.251 -4.56021 -0.298897 0
M  V30 2185 C 201.248 -5.17817 0.464943 0
M  V30 2186 C 198.933 -5.01869 -0.208149 0
M  V30 2187 C 200.927 -6.23852 1.3072 0
M  V30 2188 C 198.614 -6.07763 0.637736 0
M  V30 2189 C 199.612 -6.68622 1.39403 0
M  V30 2190 O 199.3 -7.7247 2.22586 0
M  V30 2191 H 199.032 -0.659934 -0.146501 0
M  V30 2192 H 201.586 -2.04321 0.210267 0
M  V30 2193 H 199.816 -3.30185 -2.01282 0
M  V30 2194 H 201.505 -3.6488 -1.77813 0
M  V30 2195 H 202.271 -4.83308 0.404741 0
M  V30 2196 H 198.15 -4.54241 -0.786522 0
M  V30 2197 H 201.694 -6.71284 1.898 0
M  V30 2198 H 197.591 -6.41701 0.699309 0
M  V30 2199 H 198.359 -7.89595 2.15596 0
M  V30 2200 N 201.022 0.148545 -1.56898 0
M  V30 2201 C 201.932 1.20293 -2.01412 0
M  V30 2202 C 202.948 1.47107 -0.929273 0
M  V30 2203 O 204.124 1.58807 -1.23863 0
M  V30 2204 C 201.189 2.51682 -2.38447 0
M  V30 2205 C 200.25 2.32529 -3.60872 0
M  V30 2206 C 199.483 3.57653 -3.96132 0
M  V30 2207 O 199.706 4.63771 -3.32073 0
M  V30 2208 O 198.64 3.50408 -4.89385 0
M  V30 2209 H 202.466 0.855025 -2.91416 0
M  V30 2210 H 200.051 0.357151 -1.45068 0
M  V30 2211 H 201.933 3.29147 -2.63135 0
M  V30 2212 H 200.608 2.86006 -1.51599 0
M  V30 2213 H 199.515 1.53019 -3.41373 0
M  V30 2214 H 200.848 2.03121 -4.48333 0
M  V30 2215 N 202.5 1.5196 0.417844 0
M  V30 2216 C 203.41 1.77554 1.53336 0
M  V30 2217 C 204.426 0.660655 1.6097 0
M  V30 2218 O 205.602 0.945099 1.77848 0
M  V30 2219 C 202.667 1.91291 2.89152 0
M  V30 2220 C 201.728 3.15183 2.91475 0
M  V30 2221 C 200.961 3.28256 4.20813 0
M  V30 2222 O 201.184 2.46798 5.14244 0
M  V30 2223 O 200.118 4.21356 4.29817 0
M  V30 2224 H 203.944 2.7222 1.34647 0
M  V30 2225 H 201.529 1.36698 0.602828 0
M  V30 2226 H 203.411 2.02199 3.69721 0
M  V30 2227 H 202.086 0.998129 3.07927 0
M  V30 2228 H 200.993 3.09739 2.09791 0
M  V30 2229 H 202.326 4.06414 2.77648 0
M  V30 2230 N 203.978 -0.674533 1.42435 0
M  V30 2231 C 205.226 -1.43175 1.42637 0
M  V30 2232 C 205.547 -1.94951 0.0438992 0
M  V30 2233 O 204.817 -1.7308 -0.917607 0
M  V30 2234 H 203.397 -0.531307 0.525092 0
M  V30 2235 H 206.059 -0.797006 1.77859 0
M  V30 2236 H 205.155 -2.28463 2.12629 0
M  V30 2237 N 205.456 -1.28612 -0.910864 0
M  V30 2238 C 206.389 -1.07109 -2.01502 0
M  V30 2239 C 207.367 0.013706 -1.62594 0
M  V30 2240 O 208.551 -0.134796 -1.88017 0
M  V30 2241 C 205.678 -0.628255 -3.32822 0
M  V30 2242 C 204.724 -1.71012 -3.90714 0
M  V30 2243 S 205.557 -3.30676 -4.21205 0
M  V30 2244 C 206.713 -2.88234 -5.55583 0
M  V30 2245 H 206.946 -2.00591 -2.19432 0
M  V30 2246 H 204.479 -1.12633 -1.05609 0
M  V30 2247 H 206.437 -0.37946 -4.08742 0
M  V30 2248 H 205.098 0.28678 -3.12788 0
M  V30 2249 H 204.291 -1.35195 -4.85529 0
M  V30 2250 H 203.893 -1.91186 -3.21441 0
M  V30 2251 H 206.185 -2.34584 -6.35591 0
M  V30 2252 H 207.128 -3.81857 -5.96314 0
M  V30 2253 H 207.536 -2.26862 -5.16908 0
M  V30 2254 N 206.934 1.1197 -1.10907 0
M  V30 2255 C 207.866 2.17592 -0.720175 0
M  V30 2256 C 208.879 1.60938 0.245495 0
M  V30 2257 O 210.068 1.78476 0.0292245 0
M  V30 2258 C 207.168 3.38873 -0.0427917 0
M  V30 2259 C 206.341 4.25006 -1.03388 0
M  V30 2260 C 205.4 5.24774 -0.387075 0
M  V30 2261 O 204.426 5.59631 -1.03934 0
M  V30 2262 N 205.628 5.74208 0.852407 0
M  V30 2263 H 208.393 2.51567 -1.62893 0
M  V30 2264 H 205.954 1.27439 -0.998543 0
M  V30 2265 H 207.946 4.02703 0.401501 0
M  V30 2266 H 206.516 3.03007 0.768456 0
M  V30 2267 H 205.736 3.57716 -1.65629 0
M  V30 2268 H 207.024 4.79397 -1.70458 0
M  V30 2269 H 206.422 5.48062 1.40161 0
M  V30 2270 H 204.979 6.39901 1.23977 0
M  V30 2271 N 208.412 0.89855 1.29475 0
M  V30 2272 C 209.359 0.373819 2.27753 0
M  V30 2273 C 210.329 -0.543444 1.56958 0
M  V30 2274 O 211.514 -0.468934 1.84948 0
M  V30 2275 C 208.654 -0.393648 3.42848 0
M  V30 2276 C 207.767 0.554379 4.28428 0
M  V30 2277 C 206.902 -0.230026 5.30702 0
M  V30 2278 C 205.941 0.712599 6.07938 0
M  V30 2279 N 205.078 -0.0373283 7.0209 0
M  V30 2280 H 209.918 1.21699 2.72017 0
M  V30 2281 H 207.455 0.611456 1.33789 0
M  V30 2282 H 209.413 -0.85466 4.08352 0
M  V30 2283 H 208.043 -1.20128 2.99615 0
M  V30 2284 H 207.095 1.13391 3.63107 0
M  V30 2285 H 208.407 1.27597 4.82204 0
M  V30 2286 H 207.561 -0.752288 6.02018 0
M  V30 2287 H 206.3 -0.984758 4.77654 0
M  V30 2288 H 205.305 1.24637 5.35486 0
M  V30 2289 H 206.53 1.46664 6.63074 0
M  V30 2290 H 204.476 -0.774348 6.51414 0
M  V30 2291 H 204.393 0.624374 7.53417 0
M  V30 2292 H 205.661 -0.539891 7.77628 0
M  V30 2293 N 209.89 -1.43072 0.660911 0
M  V30 2294 C 210.853 -2.29194 -0.0166406 0
M  V30 2295 C 211.853 -1.42609 -0.742912 0
M  V30 2296 O 213.043 -1.64155 -0.583004 0
M  V30 2297 C 210.175 -3.24831 -1.0343 0
M  V30 2298 H 211.368 -2.90596 0.741208 0
M  V30 2299 H 208.921 -1.5048 0.422532 0
M  V30 2300 H 209.656 -2.68339 -1.82111 0
M  V30 2301 H 209.441 -3.88676 -0.517082 0
M  V30 2302 H 210.931 -3.89451 -1.50723 0
M  V30 2303 N 211.368 -0.403325 -1.52352 0
M  V30 2304 C 212.3 0.4603 -2.2453 0
M  V30 2305 C 213.313 1.01505 -1.27282 0
M  V30 2306 O 214.502 0.914982 -1.53266 0
M  V30 2307 C 211.602 1.65208 -2.95905 0
M  V30 2308 C 210.775 1.22224 -4.19976 0
M  V30 2309 C 209.834 2.28028 -4.74226 0
M  V30 2310 O 208.86 1.88857 -5.36956 0
M  V30 2311 N 210.062 3.6012 -4.55295 0
M  V30 2312 H 212.827 -0.158156 -2.99282 0
M  V30 2313 H 210.388 -0.230402 -1.60252 0
M  V30 2314 H 212.38 2.35541 -3.29093 0
M  V30 2315 H 210.95 2.17658 -2.24374 0
M  V30 2316 H 210.17 0.34725 -3.92668 0
M  V30 2317 H 211.458 0.911924 -5.00561 0
M  V30 2318 H 210.856 3.94698 -4.05253 0
M  V30 2319 H 209.413 4.26447 -4.92936 0
M  V30 2320 N 212.846 1.57033 -0.133567 0
M  V30 2321 C 213.756 2.19632 0.824564 0
M  V30 2322 C 214.772 1.17666 1.28182 0
M  V30 2323 O 215.948 1.50193 1.3418 0
M  V30 2324 C 213.013 2.79499 2.05137 0
M  V30 2325 C 212.074 3.96548 1.64464 0
M  V30 2326 C 211.307 4.5355 2.81297 0
M  V30 2327 O 211.53 4.09438 3.97136 0
M  V30 2328 O 210.464 5.44018 2.57542 0
M  V30 2329 H 214.29 3.01991 0.321766 0
M  V30 2330 H 211.875 1.49112 0.0927889 0
M  V30 2331 H 213.757 3.17602 2.7696 0
M  V30 2332 H 212.432 2.00162 2.54395 0
M  V30 2333 H 211.339 3.63186 0.897048 0
M  V30 2334 H 212.672 4.77364 1.19934 0
M  V30 2335 N 214.325 -0.140222 1.56975 0
M  V30 2336 C 215.555 -0.865181 1.87612 0
M  V30 2337 C 215.963 -1.74942 0.72055 0
M  V30 2338 O 215.306 -1.80917 -0.318561 0
M  V30 2339 C 215.368 -1.76782 3.13031 0
M  V30 2340 C 215.032 -1.06005 4.44536 0
M  V30 2341 C 216.029 -0.410768 5.18275 0
M  V30 2342 C 213.714 -1.04754 4.91255 0
M  V30 2343 C 215.708 0.241572 6.36942 0
M  V30 2344 C 213.395 -0.391394 6.09845 0
M  V30 2345 C 214.393 0.252029 6.82535 0
M  V30 2346 O 214.081 0.897757 7.98871 0
M  V30 2347 H 213.813 -0.255188 0.625983 0
M  V30 2348 H 216.367 -0.135653 2.04952 0
M  V30 2349 H 214.597 -2.53846 2.91718 0
M  V30 2350 H 216.286 -2.36533 3.29859 0
M  V30 2351 H 217.052 -0.412195 4.83245 0
M  V30 2352 H 212.931 -1.53777 4.34596 0
M  V30 2353 H 216.475 0.744375 6.93617 0
M  V30 2354 H 212.372 -0.387656 6.44335 0
M  V30 2355 H 213.14 0.800102 8.1458 0
M  V30 2356 N 215.803 -1.52179 -0.40978 0
M  V30 2357 C 216.751 -1.76086 -1.51975 0
M  V30 2358 C 217.745 -0.627964 -1.57331 0
M  V30 2359 O 218.951 -0.809993 -1.60745 0
M  V30 2360 H 215.326 -0.556829 -0.505416 0
M  V30 2361 H 217.297 -2.69077 -1.28996 0
M  V30 2362 C 216.046 -1.92799 -2.8935 0
M  V30 2363 H 215.369 -2.79392 -2.85972 0
M  V30 2364 H 216.809 -2.13527 -3.66309 0
M  V30 2365 C 215.268 -0.694923 -3.29655 0
M  V30 2366 O 215.798 0.13751 -4.01465 0
M  V30 2367 N 214.004 -0.53101 -2.85707 0
M  V30 2368 H 213.551 -1.20952 -2.27439 0
M  V30 2369 H 213.509 0.292718 -3.13034 0
M  V30 2370 N 217.281 0.66697 -1.42791 0
M  V30 2371 C 218.509 1.45505 -1.47091 0
M  V30 2372 C 218.924 1.8861 -0.0845873 0
M  V30 2373 O 218.281 1.58632 0.90234 0
M  V30 2374 C 218.332 2.69906 -2.40485 0
M  V30 2375 O 218.053 2.28608 -3.73725 0
M  V30 2376 C 219.554 3.63396 -2.53886 0
M  V30 2377 H 216.774 0.447459 -0.500022 0
M  V30 2378 H 219.318 0.818866 -1.8739 0
M  V30 2379 H 217.473 3.29696 -2.03419 0
M  V30 2380 H 217.887 3.08997 -4.23817 0
M  V30 2381 H 219.361 4.47387 -3.2334 0
M  V30 2382 H 219.838 4.09824 -1.57927 0
M  V30 2383 H 220.444 3.09495 -2.91706 0
M  V30 2384 N 218.759 1.29093 0.90403 0
M  V30 2385 C 219.692 1.08176 2.00931 0
M  V30 2386 C 220.67 -0.005083 1.62599 0
M  V30 2387 O 221.854 0.144765 1.87943 0
M  V30 2388 C 218.981 0.645897 3.32484 0
M  V30 2389 C 218.027 1.73081 3.89801 0
M  V30 2390 S 218.86 3.32905 4.19446 0
M  V30 2391 C 220.016 2.91176 5.54046 0
M  V30 2392 H 220.249 2.01752 2.18365 0
M  V30 2393 H 217.782 1.13191 1.0501 0
M  V30 2394 H 219.74 0.401131 4.08535 0
M  V30 2395 H 218.401 -0.270188 3.12936 0
M  V30 2396 H 217.594 1.37768 4.84805 0
M  V30 2397 H 217.196 1.92888 3.20422 0
M  V30 2398 H 219.488 2.37952 6.34338 0
M  V30 2399 H 220.431 3.85014 5.94281 0
M  V30 2400 H 220.839 2.296 5.15698 0
M  V30 2401 N 220.237 -1.11381 1.11499 0
M  V30 2402 C 221.484 -1.83132 0.864231 0
M  V30 2403 C 221.812 -1.84683 -0.610114 0
M  V30 2404 O 221.067 -1.29589 -1.46646 0
M  V30 2405 C 221.366 -3.30026 1.37177 0
M  V30 2406 C 221.032 -3.48634 2.85946 0
M  V30 2407 C 219.694 -3.53421 3.26569 0
M  V30 2408 C 222.046 -3.54837 3.81759 0
M  V30 2409 C 219.374 -3.61967 4.61733 0
M  V30 2410 C 221.726 -3.64915 5.1674 0
M  V30 2411 C 220.39 -3.67962 5.5692 0
M  V30 2412 H 219.66 -0.670127 0.316245 0
M  V30 2413 H 222.307 -1.31354 1.3935 0
M  V30 2414 H 220.612 -3.84304 0.762753 0
M  V30 2415 H 222.309 -3.84034 1.15408 0
M  V30 2416 H 218.899 -3.45579 2.53521 0
M  V30 2417 H 223.083 -3.50399 3.51474 0
M  V30 2418 H 218.339 -3.62603 4.92269 0
M  V30 2419 H 222.513 -3.68658 5.90816 0
M  V30 2420 H 220.14 -3.74336 6.61647 0
M  V30 2421 N 221.715 -0.905404 -1.28997 0
M  V30 2422 C 222.665 -0.358713 -2.25161 0
M  V30 2423 C 223.649 0.524449 -1.52113 0
M  V30 2424 O 224.841 0.365534 -1.73184 0
M  V30 2425 C 221.97 0.407609 -3.40872 0
M  V30 2426 C 221.056 -0.490797 -4.21251 0
M  V30 2427 N 221.447 -1.60061 -4.79806 0
M  V30 2428 C 219.745 -0.289636 -4.45059 0
M  V30 2429 C 220.446 -2.15757 -5.40207 0
M  V30 2430 N 219.422 -1.44988 -5.23908 0
M  V30 2431 H 223.224 -1.20642 -2.67998 0
M  V30 2432 H 220.738 -0.757103 -1.43672 0
M  V30 2433 H 222.735 0.816046 -4.08835 0
M  V30 2434 H 221.395 1.25251 -2.9957 0
M  V30 2435 H 222.406 -1.98329 -4.7842 0
M  V30 2436 H 219.083 0.51643 -4.14294 0
M  V30 2437 H 220.473 -3.09069 -5.96595 0
M  V30 2438 N 223.193 1.4272 -0.668489 0
M  V30 2439 C 224.103 2.34596 0.0139753 0
M  V30 2440 C 225.119 1.5474 0.795703 0
M  V30 2441 O 226.295 1.87334 0.739466 0
M  V30 2442 C 223.36 3.33202 0.957982 0
M  V30 2443 C 222.421 4.28957 0.17149 0
M  V30 2444 C 221.654 5.22853 1.07053 0
M  V30 2445 O 221.877 5.21531 2.31001 0
M  V30 2446 O 220.811 5.9952 0.534727 0
M  V30 2447 H 224.637 2.9448 -0.742661 0
M  V30 2448 H 222.222 1.43117 -0.428705 0
M  V30 2449 H 224.104 3.93796 1.50008 0
M  V30 2450 H 222.779 2.758 1.69458 0
M  V30 2451 H 221.686 3.71796 -0.414558 0
M  V30 2452 H 223.019 4.89383 -0.52586 0
M  V30 2453 N 224.671 0.411399 1.52136 0
M  V30 2454 C 225.899 -0.163076 2.06256 0
M  V30 2455 C 226.314 -1.3867 1.28125 0
M  V30 2456 O 225.671 -1.79423 0.333721 0
M  V30 2457 C 225.722 -0.511252 3.57867 0
M  V30 2458 O 225.443 0.66378 4.33042 0
M  V30 2459 C 226.944 -1.13921 4.28412 0
M  V30 2460 H 224.164 -0.0193897 0.67072 0
M  V30 2461 H 226.708 0.583007 1.96013 0
M  V30 2462 H 224.863 -1.20723 3.6811 0
M  V30 2463 H 225.277 0.372601 5.23175 0
M  V30 2464 H 226.751 -1.33302 5.35663 0
M  V30 2465 H 227.228 -2.11296 3.85033 0
M  V30 2466 H 227.834 -0.483373 4.22544 0
M  V30 2467 N 226.149 -1.5696 0.141893 0
M  V30 2468 C 227.374 -2.00754 -0.520838 0
M  V30 2469 C 227.799 -1.0213 -1.57959 0
M  V30 2470 O 227.157 0.00371324 -1.813 0
M  V30 2471 C 227.205 -3.43318 -1.10294 0
M  V30 2472 O 226.309 -3.47679 -2.21795 0
M  V30 2473 H 225.65 -0.651564 -0.127908 0
M  V30 2474 H 228.18 -2.03221 0.23712 0
M  V30 2475 H 228.19 -3.82012 -1.43287 0
M  V30 2476 H 226.865 -4.14608 -0.327574 0
M  V30 2477 H 225.442 -3.20824 -1.9007 0
M  V30 2478 N 227.627 0.131896 -1.57047 0
M  V30 2479 C 228.59 1.14638 -1.98471 0
M  V30 2480 C 229.59 1.35029 -0.873148 0
M  V30 2481 O 230.78 1.31764 -1.13946 0
M  V30 2482 C 227.912 2.50358 -2.31373 0
M  V30 2483 H 229.105 0.79064 -2.8929 0
M  V30 2484 H 226.658 0.375761 -1.51716 0
M  V30 2485 H 227.393 2.90876 -1.43393 0
M  V30 2486 H 227.178 2.36915 -3.12432 0
M  V30 2487 H 228.668 3.23395 -2.64207 0
M  V30 2488 N 229.106 1.52395 0.401703 0
M  V30 2489 C 230.053 1.76268 1.48991 0
M  V30 2490 C 231.023 0.605386 1.54675 0
M  V30 2491 O 232.208 0.843742 1.7113 0
M  V30 2492 C 229.348 1.92592 2.86361 0
M  V30 2493 C 228.461 3.20259 2.89928 0
M  V30 2494 C 227.596 3.26972 4.18644 0
M  V30 2495 C 226.635 4.48812 4.16214 0
M  V30 2496 N 225.772 4.52877 5.36514 0
M  V30 2497 H 230.612 2.6914 1.27935 0
M  V30 2498 H 228.149 1.33355 0.620871 0
M  V30 2499 H 230.107 2.0004 3.66115 0
M  V30 2500 H 228.737 1.03093 3.05895 0
M  V30 2501 H 227.789 3.21945 2.02621 0
M  V30 2502 H 229.101 4.10056 2.83999 0
M  V30 2503 H 228.255 3.33533 5.06794 0
M  V30 2504 H 226.994 2.35126 4.27278 0
M  V30 2505 H 225.999 4.4239 3.26453 0
M  V30 2506 H 227.224 5.41961 4.09213 0
M  V30 2507 H 225.17 3.63917 5.45802 0
M  V30 2508 H 225.087 5.36529 5.32609 0
M  V30 2509 H 226.355 4.63676 6.26597 0
M  V30 2510 N 230.584 -0.659388 1.43143 0
M  V30 2511 C 231.547 -1.75432 1.47501 0
M  V30 2512 C 232.547 -1.56707 0.360512 0
M  V30 2513 O 233.737 -1.62717 0.622002 0
M  V30 2514 C 230.869 -3.14239 1.32162 0
M  V30 2515 H 232.062 -1.7295 2.45006 0
M  V30 2516 H 229.615 -0.870469 1.29817 0
M  V30 2517 H 230.35 -3.22336 0.356401 0
M  V30 2518 H 230.135 -3.29235 2.12948 0
M  V30 2519 H 231.625 -3.94094 1.3813 0
M  V30 2520 N 232.062 -1.29571 -0.897171 0
M  V30 2521 C 233.31 -1.17456 -1.64464 0
M  V30 2522 C 233.631 0.273698 -1.9307 0
M  V30 2523 O 232.901 1.18684 -1.55855 0
M  V30 2524 H 231.481 -0.431706 -0.609622 0
M  V30 2525 H 234.143 -1.62531 -1.07562 0
M  V30 2526 H 233.239 -1.72648 -2.59998 0
M  V30 2527 N 233.54 1.10788 -1.12088 0
M  V30 2528 C 234.49 2.15158 -0.754401 0
M  V30 2529 C 235.474 1.59026 0.244846 0
M  V30 2530 O 236.666 1.76927 0.0509097 0
M  V30 2531 C 233.795 3.42677 -0.206657 0
M  V30 2532 C 232.881 4.05751 -1.23398 0
M  V30 2533 N 233.272 4.43582 -2.43041 0
M  V30 2534 C 231.57 4.32764 -1.07848 0
M  V30 2535 C 232.271 4.93085 -3.08613 0
M  V30 2536 N 231.247 4.89664 -2.36072 0
M  V30 2537 H 235.049 2.42195 -1.6649 0
M  V30 2538 H 232.563 1.27872 -1.00112 0
M  V30 2539 H 234.56 4.16834 0.0740646 0
M  V30 2540 H 233.22 3.17101 0.698342 0
M  V30 2541 H 234.231 4.35395 -2.80449 0
M  V30 2542 H 230.908 4.16863 -0.230483 0
M  V30 2543 H 232.298 5.31933 -4.10483 0
M  V30 2544 N 235.018 0.912232 1.28515 0
M  V30 2545 C 235.966 0.389597 2.29314 0
M  V30 2546 C 236.96 -0.517915 1.61289 0
M  V30 2547 O 238.166 -0.399328 1.75515 0
M  V30 2548 H 234.541 0.107386 0.744293 0
M  V30 2549 H 236.512 1.25286 2.70825 0
M  V30 2550 C 235.261 -0.356496 3.45868 0
M  V30 2551 H 234.584 0.332608 3.98414 0
M  V30 2552 H 236.024 -0.686851 4.184 0
M  V30 2553 C 234.483 -1.56383 2.98406 0
M  V30 2554 O 235.013 -2.66294 3.00749 0
M  V30 2555 N 233.219 -1.41029 2.54085 0
M  V30 2556 H 232.766 -0.516089 2.52377 0
M  V30 2557 H 232.724 -2.21939 2.22689 0
M  V30 2558 N 236.496 -1.42363 0.676048 0
M  V30 2559 C 237.745 -2.00745 0.196037 0
M  V30 2560 C 238.058 -1.54083 -1.20489 0
M  V30 2561 O 239.264 -2.04891 -1.78134 0
M  V30 2562 C 237.72 -3.58651 0.299616 0
M  V30 2563 C 237.328 -4.143 1.70468 0
M  V30 2564 C 239.072 -4.24326 -0.121619 0
M  V30 2565 C 236.979 -5.64574 1.76096 0
M  V30 2566 H 235.909 -0.750787 0.0695301 0
M  V30 2567 H 238.56 -1.63072 0.841412 0
M  V30 2568 H 236.942 -3.93833 -0.413673 0
M  V30 2569 H 238.116 -3.90575 2.44515 0
M  V30 2570 H 236.431 -3.61081 2.07387 0
M  V30 2571 H 239.028 -5.34607 -0.0997362 0
M  V30 2572 H 239.371 -3.99897 -1.15708 0
M  V30 2573 H 239.904 -3.94108 0.540706 0
M  V30 2574 H 236.643 -5.93804 2.77628 0
M  V30 2575 H 236.163 -5.90286 1.06406 0
M  V30 2576 H 237.842 -6.29013 1.51496 0
M  V30 2577 N 237.974 -0.419461 -1.51915 0
M  V30 2578 C 238.921 0.400927 -2.27291 0
M  V30 2579 C 239.891 1.03224 -1.30131 0
M  V30 2580 O 241.076 1.05455 -1.59009 0
M  V30 2581 C 238.216 1.50603 -3.10504 0
M  V30 2582 C 237.329 0.89462 -4.22635 0
M  V30 2583 C 236.464 1.97328 -4.93189 0
M  V30 2584 C 235.503 1.33935 -5.97267 0
M  V30 2585 N 234.64 2.3586 -6.61298 0
M  V30 2586 H 239.48 -0.248251 -2.96964 0
M  V30 2587 H 237.017 -0.134266 -1.46486 0
M  V30 2588 H 238.975 2.15783 -3.57062 0
M  V30 2589 H 237.605 2.12509 -2.42981 0
M  V30 2590 H 236.657 0.131583 -3.80172 0
M  V30 2591 H 237.969 0.391641 -4.9726 0
M  V30 2592 H 237.123 2.70211 -5.43204 0
M  V30 2593 H 235.862 2.50994 -4.18155 0
M  V30 2594 H 234.867 0.595896 -5.46561 0
M  V30 2595 H 236.092 0.810252 -6.74249 0
M  V30 2596 H 234.038 2.88639 -5.89087 0
M  V30 2597 H 233.955 1.90403 -7.3163 0
M  V30 2598 H 235.223 3.08282 -7.15949 0
M  V30 2599 N 239.452 1.56882 -0.150215 0
M  V30 2600 C 240.698 1.96518 0.500834 0
M  V30 2601 C 241.031 1.03527 1.64304 0
M  V30 2602 O 240.306 0.0782751 1.94342 0
M  V30 2603 C 240.589 3.45822 1.00395 0
M  V30 2604 C 240.442 4.49591 -0.136983 0
M  V30 2605 C 241.761 3.97704 1.88467 0
M  V30 2606 H 238.88 0.714535 0.18058 0
M  V30 2607 H 241.522 1.88577 -0.232091 0
M  V30 2608 H 239.672 3.5272 1.62851 0
M  V30 2609 H 241.344 4.5477 -0.77343 0
M  V30 2610 H 239.587 4.26441 -0.795652 0
M  V30 2611 H 240.258 5.51402 0.256815 0
M  V30 2612 H 242.734 3.93304 1.35834 0
M  V30 2613 H 241.61 5.0263 2.20578 0
M  V30 2614 H 241.871 3.40252 2.82279 0
M  V30 2615 N 240.93 -0.123565 1.57115 0
M  V30 2616 C 241.86 -1.15309 2.03042 0
M  V30 2617 C 242.841 -1.43454 0.914061 0
M  V30 2618 O 244.026 -1.53973 1.18347 0
M  V30 2619 C 241.156 -2.48043 2.43089 0
M  V30 2620 C 240.11 -2.3437 3.58127 0
M  V30 2621 C 239.436 -3.72026 3.84059 0
M  V30 2622 C 240.736 -1.80804 4.90007 0
M  V30 2623 H 242.43 -0.771102 2.893 0
M  V30 2624 H 239.976 -0.369479 1.39179 0
M  V30 2625 H 241.929 -3.20311 2.73823 0
M  V30 2626 H 240.653 -2.88122 1.53796 0
M  V30 2627 H 239.312 -1.64551 3.27595 0
M  V30 2628 H 238.96 -4.09582 2.91979 0
M  V30 2629 H 238.66 -3.63732 4.6149 0
M  V30 2630 H 240.184 -4.45806 4.1724 0
M  V30 2631 H 241.598 -2.42886 5.19307 0
M  V30 2632 H 239.995 -1.83343 5.71407 0
M  V30 2633 H 241.065 -0.76528 4.78823 0
M  V30 2634 N 242.408 -1.52605 -0.393616 0
M  V30 2635 C 243.655 -1.67424 -1.1391 0
M  V30 2636 C 243.983 -0.411859 -1.90089 0
M  V30 2637 O 243.238 0.605626 -1.86093 0
M  V30 2638 C 243.537 -2.85721 -2.14705 0
M  V30 2639 C 243.203 -4.23342 -1.55218 0
M  V30 2640 C 241.865 -4.60771 -1.3872 0
M  V30 2641 C 244.217 -5.09041 -1.11924 0
M  V30 2642 C 241.545 -5.81563 -0.774689 0
M  V30 2643 C 243.897 -6.30452 -0.520853 0
M  V30 2644 C 242.561 -6.66617 -0.343134 0
M  V30 2645 H 241.831 -0.612648 -0.416826 0
M  V30 2646 H 244.478 -1.8674 -0.424315 0
M  V30 2647 H 242.783 -2.60803 -2.92385 0
M  V30 2648 H 244.48 -2.94382 -2.72288 0
M  V30 2649 H 241.07 -3.93855 -1.69045 0
M  V30 2650 H 245.254 -4.80695 -1.23473 0
M  V30 2651 H 240.51 -6.08196 -0.625154 0
M  V30 2652 H 244.684 -6.96175 -0.177065 0
M  V30 2653 H 242.311 -7.60083 0.133571 0
M  V30 2654 N 243.887 0.651787 -1.4349 0
M  V30 2655 C 244.834 1.76462 -1.4876 0
M  V30 2656 C 245.804 1.62641 -0.337189 0
M  V30 2657 O 246.989 1.82864 -0.544544 0
M  V30 2658 C 244.129 3.14623 -1.41796 0
M  V30 2659 C 243.242 3.39568 -2.67053 0
M  V30 2660 C 242.377 4.67585 -2.52068 0
M  V30 2661 C 241.416 4.85639 -3.72587 0
M  V30 2662 N 240.553 6.04915 -3.56402 0
M  V30 2663 H 245.393 1.71293 -2.43849 0
M  V30 2664 H 242.93 0.835889 -1.21043 0
M  V30 2665 H 244.888 3.94496 -1.35753 0
M  V30 2666 H 243.518 3.18859 -0.50288 0
M  V30 2667 H 242.57 2.53783 -2.8337 0
M  V30 2668 H 243.882 3.48795 -3.56572 0
M  V30 2669 H 243.036 5.55586 -2.4374 0
M  V30 2670 H 241.775 4.60681 -1.60075 0
M  V30 2671 H 240.78 3.96073 -3.81321 0
M  V30 2672 H 242.005 4.94372 -4.65589 0
M  V30 2673 H 239.951 5.9914 -2.67146 0
M  V30 2674 H 239.868 6.15106 -4.39524 0
M  V30 2675 H 241.136 6.95533 -3.51929 0
M  V30 2676 N 245.365 1.30045 0.890287 0
M  V30 2677 C 246.312 1.15976 1.99545 0
M  V30 2678 C 247.282 0.0506202 1.66023 0
M  V30 2679 O 248.467 0.219847 1.89529 0
M  V30 2680 C 245.607 0.852054 3.34416 0
M  V30 2681 C 244.72 2.04255 3.80662 0
M  V30 2682 C 243.855 1.6734 5.04154 0
M  V30 2683 C 242.894 2.82916 5.42794 0
M  V30 2684 N 242.031 2.46333 6.57468 0
M  V30 2685 H 246.871 2.10524 2.10911 0
M  V30 2686 H 244.408 1.04749 1.03276 0
M  V30 2687 H 246.366 0.654296 4.12037 0
M  V30 2688 H 244.996 -0.0565502 3.2275 0
M  V30 2689 H 244.048 2.35172 2.98995 0
M  V30 2690 H 245.36 2.90826 4.05242 0
M  V30 2691 H 244.514 1.43908 5.89386 0
M  V30 2692 H 243.253 0.779308 4.81433 0
M  V30 2693 H 242.258 3.0702 4.56091 0
M  V30 2694 H 243.483 3.73004 5.6749 0
M  V30 2695 H 241.429 1.59423 6.36334 0
M  V30 2696 H 241.346 3.26436 6.81891 0
M  V30 2697 H 242.614 2.26244 7.45945 0
M  V30 2698 N 246.843 -1.10192 1.12674 0
M  V30 2699 C 248.071 -1.85983 0.906527 0
M  V30 2700 C 248.486 -1.80783 -0.544333 0
M  V30 2701 O 247.843 -1.19834 -1.37645 0
M  V30 2702 C 247.894 -3.34281 1.37618 0
M  V30 2703 O 247.615 -3.39401 2.77017 0
M  V30 2704 C 249.116 -4.26938 1.19325 0
M  V30 2705 H 246.336 -0.587716 0.323775 0
M  V30 2706 H 248.88 -1.39284 1.49734 0
M  V30 2707 H 247.035 -3.78436 0.828539 0
M  V30 2708 H 247.449 -4.31838 2.97684 0
M  V30 2709 H 248.923 -5.29181 1.57071 0
M  V30 2710 H 249.4 -4.38995 0.134097 0
M  V30 2711 H 250.006 -3.8859 1.72852 0
M  V30 2712 N 248.321 -0.919034 -1.28029 0
M  V30 2713 C 249.284 -0.416182 -2.2539 0
M  V30 2714 C 250.284 0.460438 -1.54067 0
M  V30 2715 O 251.474 0.262744 -1.72207 0
M  V30 2716 C 248.606 0.402707 -3.38513 0
M  V30 2717 H 249.799 -1.27629 -2.71387 0
M  V30 2718 H 247.352 -0.698919 -1.39803 0
M  V30 2719 H 248.087 1.282 -2.97885 0
M  V30 2720 H 247.872 -0.225698 -3.9145 0
M  V30 2721 H 249.362 0.745191 -4.10897 0
M  V30 2722 N 249.799 1.42003 -0.683588 0
M  V30 2723 C 251.024 2.06265 -0.216647 0
M  V30 2724 C 251.449 1.51059 1.12083 0
M  V30 2725 O 250.807 0.632638 1.69904 0
M  V30 2726 C 250.855 3.60191 -0.171759 0
M  V30 2727 O 249.959 4.03396 0.857069 0
M  V30 2728 H 249.3 0.65502 -0.108834 0
M  V30 2729 H 251.83 1.81982 -0.935077 0
M  V30 2730 H 251.84 4.08 0.0014303 0
M  V30 2731 H 250.515 3.99743 -1.14796 0
M  V30 2732 H 249.092 3.67117 0.654208 0
M  V30 2733 N 251.277 0.427512 1.51691 0
M  V30 2734 C 252.224 -0.388867 2.275 0
M  V30 2735 C 253.194 -1.02532 1.30677 0
M  V30 2736 O 254.379 -1.0461 1.59566 0
M  V30 2737 C 251.519 -1.48954 3.11298 0
M  V30 2738 C 250.632 -0.872194 4.23104 0
M  V30 2739 C 249.767 -1.94709 4.94228 0
M  V30 2740 C 248.806 -1.30766 5.97969 0
M  V30 2741 N 247.943 -2.32349 6.62539 0
M  V30 2742 H 252.783 0.263997 2.96828 0
M  V30 2743 H 250.32 0.142033 1.46413 0
M  V30 2744 H 252.278 -2.13887 3.58201 0
M  V30 2745 H 250.908 -2.11217 2.44105 0
M  V30 2746 H 249.96 -0.111419 3.80237 0
M  V30 2747 H 251.272 -0.365264 4.97461 0
M  V30 2748 H 250.426 -2.67327 5.44629 0
M  V30 2749 H 249.165 -2.48773 4.1948 0
M  V30 2750 H 248.17 -0.566902 5.4687 0
M  V30 2751 H 249.395 -0.774483 6.74669 0
M  V30 2752 H 247.341 -2.85511 5.90609 0
M  V30 2753 H 247.258 -1.8652 7.3263 0
M  V30 2754 H 248.526 -3.04481 7.17574 0
M  V30 2755 N 252.755 -1.56801 0.158532 0
M  V30 2756 C 253.685 -2.20347 -0.772609 0
M  V30 2757 C 254.666 -1.15518 -1.24859 0
M  V30 2758 O 255.851 -1.43902 -1.30406 0
M  V30 2759 C 252.981 -2.83417 -2.00729 0
M  V30 2760 C 251.935 -3.94174 -1.66765 0
M  V30 2761 C 251.261 -4.44233 -2.97592 0
M  V30 2762 C 252.561 -5.14392 -0.905447 0
M  V30 2763 H 254.255 -2.98413 -0.242959 0
M  V30 2764 H 251.801 -1.43537 -0.115419 0
M  V30 2765 H 253.754 -3.26543 -2.6636 0
M  V30 2766 H 252.478 -2.02701 -2.56086 0
M  V30 2767 H 251.137 -3.51684 -1.03508 0
M  V30 2768 H 250.785 -3.60325 -3.50963 0
M  V30 2769 H 250.485 -5.18945 -2.75626 0
M  V30 2770 H 252.009 -4.90037 -3.64274 0
M  V30 2771 H 253.423 -5.5429 -1.46408 0
M  V30 2772 H 251.82 -5.9494 -0.7853 0
M  V30 2773 H 252.89 -4.84795 0.100668 0
M  V30 2774 N 254.233 0.115231 -1.57178 0
M  V30 2775 C 255.644 0.67197 -1.74188 0
M  V30 2776 C 255.995 1.80125 -0.777777 0
M  V30 2777 O 255.12 2.16346 0.0484376 0
M  V30 2778 C 255.715 1.22573 -3.1585 0
M  V30 2779 C 254.274 1.72872 -3.34353 0
M  V30 2780 C 253.421 0.629972 -2.70049 0
M  V30 2781 H 256.372 -0.110712 -1.58313 0
M  V30 2782 H 256.393 2.09535 -3.17609 0
M  V30 2783 H 255.905 0.403598 -3.85996 0
M  V30 2784 H 254.006 2.5755 -2.69256 0
M  V30 2785 H 254.119 1.83557 -4.42542 0
M  V30 2786 H 252.483 1.0645 -2.31388 0
M  V30 2787 H 253.266 -0.181241 -3.42821 0
M  V30 2788 N 255.711 1.52812 0.385517 0
M  V30 2789 C 256.659 1.78482 1.49155 0
M  V30 2790 C 257.653 0.652914 1.56312 0
M  V30 2791 O 258.859 0.835464 1.59436 0
M  V30 2792 H 255.234 0.5648 0.496493 0
M  V30 2793 H 257.205 2.71095 1.24699 0
M  V30 2794 C 255.954 1.97378 2.86247 0
M  V30 2795 H 255.277 2.83907 2.81491 0
M  V30 2796 H 256.717 2.19327 3.62866 0
M  V30 2797 C 255.176 0.74728 3.28508 0
M  V30 2798 O 255.706 -0.0736232 4.01633 0
M  V30 2799 N 253.912 0.576396 2.84826 0
M  V30 2800 H 253.459 1.24555 2.25486 0
M  V30 2801 H 253.417 -0.24288 3.1346 0
M  V30 2802 N 257.189 -0.644168 1.43834 0
M  V30 2803 C 258.119 -1.76814 1.52509 0
M  V30 2804 C 259.1 -1.65823 0.379052 0
M  V30 2805 O 260.285 -1.84781 0.597466 0
M  V30 2806 C 257.415 -3.15288 1.4564 0
M  V30 2807 C 256.369 -3.41053 2.58586 0
M  V30 2808 C 255.695 -4.79421 2.36769 0
M  V30 2809 C 256.995 -3.34902 4.00797 0
M  V30 2810 H 258.689 -1.69812 2.46586 0
M  V30 2811 H 256.235 -0.815542 1.1868 0
M  V30 2812 H 258.188 -3.93681 1.50311 0
M  V30 2813 H 256.912 -3.23043 0.480725 0
M  V30 2814 H 255.571 -2.65035 2.53282 0
M  V30 2815 H 255.219 -4.83863 1.37424 0
M  V30 2816 H 254.919 -4.9762 3.12487 0
M  V30 2817 H 256.443 -5.6006 2.43238 0
M  V30 2818 H 257.857 -4.03218 4.07539 0
M  V30 2819 H 256.254 -3.64637 4.76613 0
M  V30 2820 H 257.324 -2.32928 4.25291 0
M  V30 2821 N 258.668 -1.30515 -0.883378 0
M  V30 2822 C 259.945 -1.10086 -1.6168 0
M  V30 2823 C 260.325 0.349269 -2.08191 0
M  V30 2824 O 259.673 1.34105 -1.85008 0
M  V30 2825 C 259.883 -2.10315 -2.78511 0
M  V30 2826 C 261.231 -2.42119 -3.48803 0
M  V30 2827 O 262.255 -2.08638 -2.88702 0
M  V30 2828 O 261.114 -2.99396 -4.57192 0
M  V30 2829 H 258.208 -0.422907 -0.710689 0
M  V30 2830 H 260.754 -1.41947 -0.930015 0
M  V30 2831 H 259.526 -3.07917 -2.41459 0
M  V30 2832 H 259.149 -1.79282 -3.54886 0
M  V30 2833 N 260.146 1.09593 -1.13257 0
M  V30 2834 C 261.094 2.18271 -0.803783 0
M  V30 2835 C 262.088 1.68054 0.213148 0
M  V30 2836 O 263.294 1.79862 0.0704699 0
M  V30 2837 H 259.669 0.711949 -0.242143 0
M  V30 2838 H 261.64 2.43235 -1.72856 0
M  V30 2839 C 260.389 3.46536 -0.28424 0
M  V30 2840 H 259.712 3.85545 -1.05807 0
M  V30 2841 H 261.152 4.23899 -0.0925945 0
M  V30 2842 C 259.611 3.22036 0.989684 0
M  V30 2843 O 260.141 3.44509 2.06584 0
M  V30 2844 N 258.347 2.7565 0.920086 0
M  V30 2845 H 257.894 2.57562 0.0442019 0
M  V30 2846 H 257.852 2.59635 1.77306 0
M  V30 2847 N 261.624 0.925811 1.2754 0
M  V30 2848 C 262.852 0.581509 1.9856 0
M  V30 2849 C 263.267 -0.840041 1.69082 0
M  V30 2850 O 262.624 -1.55805 0.950312 0
M  V30 2851 C 262.675 0.795589 3.52637 0
M  V30 2852 O 262.396 2.16121 3.81082 0
M  V30 2853 C 263.897 0.459744 4.4091 0
M  V30 2854 H 261.117 0.220538 0.633722 0
M  V30 2855 H 263.661 1.24232 1.6244 0
M  V30 2856 H 261.816 0.18161 3.86974 0
M  V30 2857 H 262.23 2.2098 4.75676 0
M  V30 2858 H 263.704 0.660244 5.48037 0
M  V30 2859 H 264.181 -0.604625 4.35018 0
M  V30 2860 H 264.787 1.05178 4.12089 0
M  V30 2861 N 263.102 -1.41638 0.69111 0
M  V30 2862 C 264.05 -2.32597 0.0115199 0
M  V30 2863 C 265.044 -1.5072 -0.773296 0
M  V30 2864 O 266.25 -1.66685 -0.67942 0
M  V30 2865 H 262.625 -0.751849 -0.0150746 0
M  V30 2866 H 264.596 -2.87593 0.795791 0
M  V30 2867 C 263.345 -3.35467 -0.914172 0
M  V30 2868 H 262.668 -3.9852 -0.319687 0
M  V30 2869 H 264.108 -4.01662 -1.35808 0
M  V30 2870 C 262.567 -2.69004 -2.02826 0
M  V30 2871 O 263.097 -2.53444 -3.11655 0
M  V30 2872 N 261.303 -2.2777 -1.80469 0
M  V30 2873 H 260.85 -2.40626 -0.919615 0
M  V30 2874 H 260.808 -1.83635 -2.55197 0
M  V30 2875 N 264.58 -0.43555 -1.51462 0
M  V30 2876 C 265.528 0.391205 -2.29287 0
M  V30 2877 C 266.522 1.02247 -1.35062 0
M  V30 2878 O 267.728 0.957646 -1.52411 0
M  V30 2879 H 264.103 0.144968 -0.737895 0
M  V30 2880 H 266.074 -0.286051 -2.97026 0
M  V30 2881 C 264.823 1.48096 -3.14583 0
M  V30 2882 H 264.146 1.00457 -3.86973 0
M  V30 2883 H 265.586 2.03273 -3.72097 0
M  V30 2884 C 264.045 2.46321 -2.29843 0
M  V30 2885 O 264.575 3.50815 -1.95682 0
M  V30 2886 N 262.781 2.17166 -1.931 0
M  V30 2887 H 262.328 1.32218 -2.21079 0
M  V30 2888 H 262.286 2.83127 -1.36698 0
M  V30 2889 N 266.058 1.56714 -0.166846 0
M  V30 2890 C 267.006 2.19056 0.782123 0
M  V30 2891 C 268 1.15328 1.24079 0
M  V30 2892 O 269.206 1.33537 1.20697 0
M  V30 2893 H 265.581 0.70167 0.270486 0
M  V30 2894 H 267.552 2.97494 0.232322 0
M  V30 2895 C 266.301 2.84206 2.00306 0
M  V30 2896 H 265.624 3.63748 1.65914 0
M  V30 2897 H 267.064 3.31302 2.64604 0
M  V30 2898 C 265.523 1.83744 2.82382 0
M  V30 2899 O 266.053 1.32014 3.79388 0
M  V30 2900 N 264.259 1.52601 2.47308 0
M  V30 2901 H 263.806 1.9486 1.68485 0
M  V30 2902 H 263.764 0.856351 3.02513 0
M  V30 2903 N 267.536 -0.106894 1.57237 0
M  V30 2904 C 268.446 -1.14911 2.0453 0
M  V30 2905 C 269.462 -1.44592 0.96795 0
M  V30 2906 O 270.638 -1.55468 1.2803 0
M  V30 2907 C 267.703 -2.45272 2.45036 0
M  V30 2908 C 266.764 -2.22879 3.66911 0
M  V30 2909 C 265.997 -3.47024 4.05475 0
M  V30 2910 O 266.22 -4.54804 3.44252 0
M  V30 2911 O 265.154 -3.3731 4.98504 0
M  V30 2912 H 268.98 -0.777461 2.9358 0
M  V30 2913 H 266.565 -0.318563 1.45964 0
M  V30 2914 H 268.447 -3.22055 2.71769 0
M  V30 2915 H 267.122 -2.81886 1.59129 0
M  V30 2916 H 266.029 -1.43915 3.45311 0
M  V30 2917 H 267.362 -1.91163 4.53561 0
M  V30 2918 N 269.014 -1.53014 -0.377408 0
M  V30 2919 C 269.977 -1.77957 -1.44444 0
M  V30 2920 C 270.977 -0.649763 -1.47087 0
M  V30 2921 O 272.167 -0.917897 -1.48055 0
M  V30 2922 C 269.299 -1.89089 -2.83651 0
M  V30 2923 H 270.492 -2.73243 -1.23606 0
M  V30 2924 H 268.045 -1.43912 -0.609844 0
M  V30 2925 H 268.78 -0.958293 -3.09818 0
M  V30 2926 H 268.565 -2.71254 -2.83132 0
M  V30 2927 H 270.055 -2.1002 -3.60945 0
M  V30 2928 N 270.492 0.636531 -1.44174 0
M  V30 2929 C 271.44 1.76995 -1.50915 0
M  V30 2930 C 272.434 1.65053 -0.381295 0
M  V30 2931 O 273.64 1.71197 -0.55601 0
M  V30 2932 H 270.015 0.584247 -0.473455 0
M  V30 2933 H 271.986 1.68432 -2.4632 0
M  V30 2934 C 270.735 3.15314 -1.46534 0
M  V30 2935 H 270.058 3.25149 -2.32633 0
M  V30 2936 H 271.498 3.9453 -1.55312 0
M  V30 2937 C 269.957 3.3639 -0.185305 0
M  V30 2938 O 270.487 3.94699 0.746688 0
M  V30 2939 N 268.693 2.9046 -0.0901606 0
M  V30 2940 H 268.24 2.43193 -0.849416 0
M  V30 2941 H 268.198 3.04937 0.765553 0
M  V30 2942 N 271.97 1.30982 0.876444 0
M  V30 2943 C 273.216 1.20474 1.63138 0
M  V30 2944 C 273.549 -0.238096 1.92735 0
M  V30 2945 O 272.824 -1.1692 1.55435 0
M  V30 2946 C 273.107 2.04244 2.96574 0
M  V30 2947 C 272.96 3.56793 2.73896 0
M  V30 2948 C 274.279 1.88684 3.97601 0
M  V30 2949 H 271.398 0.439001 0.591985 0
M  V30 2950 H 274.04 1.60704 1.01361 0
M  V30 2951 H 272.19 1.70063 3.493 0
M  V30 2952 H 273.862 4.01077 2.27892 0
M  V30 2953 H 272.105 3.80548 2.08245 0
M  V30 2954 H 272.776 4.10706 3.68815 0
M  V30 2955 H 275.252 2.18584 3.54062 0
M  V30 2956 H 274.128 2.4961 4.88862 0
M  V30 2957 H 274.389 0.848343 4.33884 0
M  V30 2958 N 273.449 -1.08991 1.13837 0
M  V30 2959 C 274.695 -1.81526 0.90422 0
M  V30 2960 C 275.028 -1.85706 -0.568066 0
M  V30 2961 O 274.303 -1.32855 -1.42056 0
M  V30 2962 C 274.586 -3.27447 1.49835 0
M  V30 2963 C 274.439 -3.31512 3.04006 0
M  V30 2964 C 275.758 -4.24256 1.17025 0
M  V30 2965 H 272.877 -0.659029 0.329923 0
M  V30 2966 H 275.519 -1.27644 1.40737 0
M  V30 2967 H 273.669 -3.73462 1.07044 0
M  V30 2968 H 275.341 -2.93867 3.55584 0
M  V30 2969 H 273.584 -2.70963 3.38765 0
M  V30 2970 H 274.255 -4.34329 3.40679 0
M  V30 2971 H 276.731 -3.86549 1.54009 0
M  V30 2972 H 275.607 -5.24684 1.61237 0
M  V30 2973 H 275.868 -4.42019 0.0846274 0
M  V30 2974 N 274.927 -0.932562 -1.27047 0
M  V30 2975 C 276.204 -0.49377 -1.89265 0
M  V30 2976 C 276.584 1.02833 -1.8436 0
M  V30 2977 O 275.932 1.88461 -1.29209 0
M  V30 2978 C 276.142 -1.04536 -3.32976 0
M  V30 2979 C 277.49 -1.10879 -4.09867 0
M  V30 2980 O 278.514 -0.995327 -3.42011 0
M  V30 2981 O 277.373 -1.28417 -5.31198 0
M  V30 2982 H 274.467 -0.159596 -0.811454 0
M  V30 2983 H 277.013 -1.02457 -1.3528 0
M  V30 2984 H 275.785 -2.08913 -3.30864 0
M  V30 2985 H 275.408 -0.496494 -3.94488 0
M  V30 2986 N 276.405 1.4127 -0.698611 0
M  V30 2987 C 277.654 2.00408 -0.227949 0
M  V30 2988 C 277.967 1.55981 1.18023 0
M  V30 2989 O 279.173 2.07699 1.74852 0
M  V30 2990 C 277.629 3.58129 -0.356636 0
M  V30 2991 C 277.237 4.11536 -1.77037 0
M  V30 2992 C 278.981 4.24466 0.0540969 0
M  V30 2993 C 276.888 5.61701 -1.85055 0
M  V30 2994 H 275.818 0.749586 -0.0814657 0
M  V30 2995 H 278.469 1.61713 -0.867249 0
M  V30 2996 H 276.851 3.94442 0.350965 0
M  V30 2997 H 278.025 3.86636 -2.50698 0
M  V30 2998 H 276.34 3.57736 -2.13105 0
M  V30 2999 H 278.937 5.34698 0.0146723 0
M  V30 3000 H 279.28 4.01687 1.09332 0
M  V30 3001 H 279.813 3.93198 -0.603337 0
M  V30 3002 H 276.552 5.89312 -2.8704 0
M  V30 3003 H 276.072 5.88519 -1.15783 0
M  V30 3004 H 277.751 6.26524 -1.61484 0
M  V30 3005 N 277.883 0.443576 1.51229 0
M  V30 3006 C 278.815 -0.400608 2.25672 0
M  V30 3007 C 279.828 -0.980945 1.29928 0
M  V30 3008 O 281.017 -0.874024 1.55638 0
M  V30 3009 C 278.117 -1.57304 3.00181 0
M  V30 3010 C 277.29 -1.11046 4.23069 0
M  V30 3011 C 276.349 -2.15374 4.80105 0
M  V30 3012 O 275.375 -1.74554 5.41774 0
M  V30 3013 N 276.577 -3.47922 4.64683 0
M  V30 3014 H 279.342 0.23745 2.98758 0
M  V30 3015 H 276.903 0.272809 1.59585 0
M  V30 3016 H 278.895 -2.26733 3.35223 0
M  V30 3017 H 277.465 -2.11632 2.30066 0
M  V30 3018 H 276.685 -0.243019 3.9345 0
M  V30 3019 H 277.973 -0.778888 5.02803 0
M  V30 3020 H 277.371 -3.83815 4.15575 0
M  V30 3021 H 275.928 -4.13228 5.0407 0
M  V30 3022 N 279.361 -1.56624 0.175154 0
M  V30 3023 C 280.291 -2.21155 -0.749195 0
M  V30 3024 C 281.272 -1.16836 -1.23626 0
M  V30 3025 O 282.457 -1.45277 -1.28873 0
M  V30 3026 C 279.587 -2.8553 -1.97711 0
M  V30 3027 C 278.541 -3.95921 -1.62575 0
M  V30 3028 C 277.867 -4.47365 -2.92864 0
M  V30 3029 C 279.167 -5.15323 -0.850838 0
M  V30 3030 H 280.861 -2.98653 -0.211295 0
M  V30 3031 H 278.407 -1.43651 -0.100188 0
M  V30 3032 H 280.36 -3.2935 -2.62881 0
M  V30 3033 H 279.084 -2.05406 -2.53921 0
M  V30 3034 H 277.743 -3.52762 -0.997719 0
M  V30 3035 H 277.391 -3.64027 -3.47122 0
M  V30 3036 H 277.091 -5.21839 -2.70106 0
M  V30 3037 H 278.615 -4.93873 -3.59056 0
M  V30 3038 H 280.029 -5.55812 -1.40521 0
M  V30 3039 H 278.426 -5.95739 -0.722154 0
M  V30 3040 H 279.496 -4.84661 0.152082 0
M  V30 3041 N 280.839 0.0985539 -1.57292 0
M  V30 3042 C 282.067 0.816318 -1.90115 0
M  V30 3043 C 282.482 1.72451 -0.768509 0
M  V30 3044 O 281.839 1.80643 0.259687 0
M  V30 3045 C 281.89 1.63259 -3.22535 0
M  V30 3046 O 281.611 0.760934 -4.31441 0
M  V30 3047 C 283.112 2.45372 -3.69199 0
M  V30 3048 H 280.332 0.233595 -0.629027 0
M  V30 3049 H 282.876 0.0768229 -2.04356 0
M  V30 3050 H 281.031 2.32463 -3.09903 0
M  V30 3051 H 281.445 1.32595 -5.07463 0
M  V30 3052 H 282.919 2.98144 -4.64558 0
M  V30 3053 H 283.396 3.23677 -2.96867 0
M  V30 3054 H 284.002 1.81373 -3.84687 0
M  V30 3055 N 282.317 1.53212 0.369288 0
M  V30 3056 C 283.265 1.80054 1.47253 0
M  V30 3057 C 284.259 0.669456 1.55611 0
M  V30 3058 O 285.465 0.852328 1.58541 0
M  V30 3059 H 281.84 0.570034 0.490475 0
M  V30 3060 H 283.811 2.72403 1.21817 0
M  V30 3061 C 282.56 2.00403 2.84137 0
M  V30 3062 H 281.883 2.86876 2.78464 0
M  V30 3063 H 283.323 2.23164 3.60519 0
M  V30 3064 C 281.782 0.782081 3.27697 0
M  V30 3065 O 282.312 -0.0310205 4.01688 0
M  V30 3066 N 280.518 0.606573 2.84199 0
M  V30 3067 H 280.065 1.26939 2.24152 0
M  V30 3068 H 280.023 -0.20962 3.137 0
M  V30 3069 N 283.795 -0.628877 1.44509 0
M  V30 3070 C 284.743 -1.76193 1.51852 0
M  V30 3071 C 285.737 -1.64849 0.390042 0
M  V30 3072 O 286.943 -1.709 0.565082 0
M  V30 3073 H 283.318 -0.581728 0.476547 0
M  V30 3074 H 285.289 -1.67123 2.47209 0
M  V30 3075 C 284.038 -3.14533 1.48204 0
M  V30 3076 H 283.361 -3.23911 2.34354 0
M  V30 3077 H 284.801 -3.93701 1.57402 0
M  V30 3078 C 283.26 -3.36287 0.203142 0
M  V30 3079 O 283.79 -3.9509 -0.725745 0
M  V30 3080 N 281.996 -2.90408 0.105563 0
M  V30 3081 H 281.543 -2.42739 0.862301 0
M  V30 3082 H 281.501 -3.05339 -0.749371 0
M  V30 3083 N 285.273 -1.31445 -0.869486 0
M  V30 3084 C 286.498 -1.24256 -1.66058 0
M  V30 3085 C 286.923 0.188928 -1.87149 0
M  V30 3086 O 286.281 1.13522 -1.4136 0
M  V30 3087 C 286.329 -1.9924 -3.00559 0
M  V30 3088 O 285.433 -1.33007 -3.90362 0
M  V30 3089 H 284.774 -0.428973 -0.506831 0
M  V30 3090 H 287.304 -1.73521 -1.08404 0
M  V30 3091 H 287.314 -2.08854 -3.50491 0
M  V30 3092 H 285.989 -3.03342 -2.84528 0
M  V30 3093 H 284.566 -1.31848 -3.48813 0
M  V30 3094 N 286.751 1.08385 -1.14413 0
M  V30 3095 C 287.699 2.17406 -0.826888 0
M  V30 3096 C 288.693 1.6827 0.195312 0
M  V30 3097 O 289.899 1.79927 0.0513892 0
M  V30 3098 H 286.274 0.70934 -0.249681 0
M  V30 3099 H 288.245 2.41388 -1.75426 0
M  V30 3100 C 286.994 3.46215 -0.320979 0
M  V30 3101 H 286.317 3.84401 -1.0989 0
M  V30 3102 H 287.757 4.23777 -0.137549 0
M  V30 3103 C 286.216 3.23067 0.955472 0
M  V30 3104 O 286.746 3.4668 2.02918 0
M  V30 3105 N 284.952 2.7661 0.890798 0
M  V30 3106 H 284.499 2.57594 0.0168815 0
M  V30 3107 H 284.457 2.61501 1.74542 0
M  V30 3108 N 288.23 0.939286 1.26551 0
M  V30 3109 C 289.177 0.446088 2.26448 0
M  V30 3110 C 290.147 -0.493234 1.58608 0
M  V30 3111 O 291.332 -0.409857 1.86346 0
M  V30 3112 C 288.472 -0.284375 3.43926 0
M  V30 3113 C 287.585 0.690399 4.26448 0
M  V30 3114 C 286.72 -0.0610712 5.31165 0
M  V30 3115 C 285.759 0.905649 6.05363 0
M  V30 3116 N 284.896 0.186055 7.01853 0
M  V30 3117 H 289.736 1.30291 2.68008 0
M  V30 3118 H 287.273 0.65371 1.31776 0
M  V30 3119 H 289.231 -0.724313 4.10864 0
M  V30 3120 H 287.861 -1.10535 3.03285 0
M  V30 3121 H 286.913 1.24885 3.59316 0
M  V30 3122 H 288.225 1.42873 4.779 0
M  V30 3123 H 287.379 -0.56038 6.04106 0
M  V30 3124 H 286.118 -0.832297 4.80546 0
M  V30 3125 H 285.123 1.4161 5.3125 0
M  V30 3126 H 286.348 1.67685 6.58072 0
M  V30 3127 H 284.294 -0.566714 6.53548 0
M  V30 3128 H 284.211 0.863752 7.51049 0
M  V30 3129 H 285.479 -0.292221 7.78952 0
M  V30 3130 N 289.708 -1.40897 0.706093 0
M  V30 3131 C 290.656 -2.32572 0.0361893 0
M  V30 3132 C 291.65 -1.51532 -0.757266 0
M  V30 3133 O 292.856 -1.67396 -0.661703 0
M  V30 3134 H 289.231 -0.751966 -0.00709935 0
M  V30 3135 H 291.202 -2.86733 0.826249 0
M  V30 3136 C 289.951 -3.36418 -0.87854 0
M  V30 3137 H 289.274 -3.98836 -0.277401 0
M  V30 3138 H 290.714 -4.0308 -1.3154 0
M  V30 3139 C 289.173 -2.71141 -1.99961 0
M  V30 3140 O 289.703 -2.56735 -3.0895 0
M  V30 3141 N 287.909 -2.29671 -1.78043 0
M  V30 3142 H 287.456 -2.41588 -0.894042 0
M  V30 3143 H 287.414 -1.86332 -2.53235 0
M  V30 3144 N 291.186 -0.45159 -1.50991 0
M  V30 3145 C 292.463 0.170707 -1.94854 0
M  V30 3146 C 292.843 1.58788 -1.39103 0
M  V30 3147 O 292.191 2.20913 -0.583921 0
M  V30 3148 C 292.401 0.133929 -3.48743 0
M  V30 3149 C 293.749 0.33248 -4.23296 0
M  V30 3150 O 294.773 0.211403 -3.55572 0
M  V30 3151 O 293.632 0.57486 -5.43468 0
M  V30 3152 H 290.726 0.122264 -0.817912 0
M  V30 3153 H 293.272 -0.510594 -1.61836 0
M  V30 3154 H 292.044 -0.856283 -3.81816 0
M  V30 3155 H 291.667 0.857529 -3.88242 0
M  V30 3156 N 292.664 1.56529 -0.183458 0
M  V30 3157 C 293.611 2.18546 0.742055 0
M  V30 3158 C 294.581 1.12912 1.2182 0
M  V30 3159 O 295.766 1.41115 1.28418 0
M  V30 3160 C 292.906 2.83977 1.96089 0
M  V30 3161 C 292.019 4.04105 1.52719 0
M  V30 3162 C 291.154 4.57427 2.70063 0
M  V30 3163 C 290.193 5.69938 2.23243 0
M  V30 3164 N 289.33 6.17717 3.33722 0
M  V30 3165 H 294.17 2.97284 0.206432 0
M  V30 3166 H 291.707 1.46823 0.0901571 0
M  V30 3167 H 293.665 3.20077 2.67594 0
M  V30 3168 H 292.295 2.07822 2.47002 0
M  V30 3169 H 291.347 3.73745 0.708436 0
M  V30 3170 H 292.659 4.85513 1.1436 0
M  V30 3171 H 291.813 4.95772 3.49708 0
M  V30 3172 H 290.552 3.75101 3.11689 0
M  V30 3173 H 289.557 5.31133 1.42048 0
M  V30 3174 H 290.782 6.54073 1.82661 0
M  V30 3175 H 288.728 5.38317 3.74902 0
M  V30 3176 H 288.645 6.94146 2.99495 0
M  V30 3177 H 289.913 6.60713 4.13616 0
M  V30 3178 N 294.142 -0.090211 1.57342 0
M  V30 3179 C 295.09 -1.12792 2.03422 0
M  V30 3180 C 296.084 -1.41182 0.936166 0
M  V30 3181 O 297.29 -1.40805 1.12133 0
M  V30 3182 H 293.665 -0.380986 0.648347 0
M  V30 3183 H 295.636 -0.71299 2.89757 0
M  V30 3184 C 294.385 -2.43855 2.47851 0
M  V30 3185 H 293.708 -2.22855 3.31927 0
M  V30 3186 H 295.148 -3.14955 2.83865 0
M  V30 3187 C 293.607 -3.08503 1.3538 0
M  V30 3188 O 294.137 -3.95805 0.685641 0
M  V30 3189 N 292.343 -2.68831 1.10355 0
M  V30 3190 H 291.89 -1.97929 1.64869 0
M  V30 3191 H 291.848 -3.12412 0.353031 0
M  V30 3192 N 295.62 -1.53406 -0.361157 0
M  V30 3193 C 296.553 -1.74946 -1.46524 0
M  V30 3194 C 297.531 -0.59795 -1.51206 0
M  V30 3195 O 298.715 -0.831062 -1.69191 0
M  V30 3196 C 295.842 -1.83224 -2.84863 0
M  V30 3197 C 294.888 -3.05233 -2.97885 0
M  V30 3198 S 295.721 -4.6466 -2.66179 0
M  V30 3199 C 296.877 -4.75793 -4.06659 0
M  V30 3200 H 297.11 -2.68319 -1.28033 0
M  V30 3201 H 294.643 -1.44051 -0.555764 0
M  V30 3202 H 296.601 -1.88679 -3.64569 0
M  V30 3203 H 295.262 -0.908948 -3.00661 0
M  V30 3204 H 294.455 -3.07648 -3.9921 0
M  V30 3205 H 294.057 -2.97913 -2.26106 0
M  V30 3206 H 296.349 -4.5612 -5.0096 0
M  V30 3207 H 297.292 -5.7786 -4.09247 0
M  V30 3208 H 297.7 -4.04389 -3.93865 0
M  V30 3209 N 297.098 0.621204 -1.44841 0
M  V30 3210 C 298.028 1.74366 -1.55303 0
M  V30 3211 C 299.009 1.65199 -0.405385 0
M  V30 3212 O 300.194 1.83807 -0.626787 0
M  V30 3213 C 297.324 3.12931 -1.50637 0
M  V30 3214 C 296.278 3.36896 -2.63979 0
M  V30 3215 C 295.604 4.75594 -2.44366 0
M  V30 3216 C 296.904 3.28483 -4.06074 0
M  V30 3217 H 298.598 1.65867 -2.49256 0
M  V30 3218 H 296.144 0.796558 -1.19962 0
M  V30 3219 H 298.097 3.9124 -1.56555 0
M  V30 3220 H 296.821 3.22237 -0.532057 0
M  V30 3221 H 295.48 2.60972 -2.57467 0
M  V30 3222 H 295.128 4.81616 -1.45105 0
M  V30 3223 H 294.828 4.92586 -3.20364 0
M  V30 3224 H 296.352 5.5612 -2.52117 0
M  V30 3225 H 297.766 3.96684 -4.13902 0
M  V30 3226 H 296.163 3.57008 -4.82354 0
M  V30 3227 H 297.233 2.26133 -4.28943 0
M  V30 3228 N 298.576 1.31904 0.862503 0
M  V30 3229 C 299.801 1.25135 1.65397 0
M  V30 3230 C 300.226 -0.179 1.87246 0
M  V30 3231 O 299.584 -1.1277 1.4196 0
M  V30 3232 C 299.632 2.00832 2.99498 0
M  V30 3233 O 298.736 1.35075 3.89652 0
M  V30 3234 H 298.077 0.431655 0.504549 0
M  V30 3235 H 300.607 1.74094 1.07483 0
M  V30 3236 H 300.617 2.10709 3.49379 0
M  V30 3237 H 299.292 3.04847 2.82916 0
M  V30 3238 H 297.869 1.33696 3.48109 0
M  V30 3239 N 300.054 -1.07777 1.14986 0
M  V30 3240 C 301.001 -2.14867 0.842672 0
M  V30 3241 C 301.971 -1.6486 -0.202552 0
M  V30 3242 O 303.156 -1.90668 -0.0710568 0
M  V30 3243 C 300.296 -3.43486 0.333363 0
M  V30 3244 C 299.409 -4.07306 1.43965 0
M  V30 3245 C 298.544 -5.23744 0.886914 0
M  V30 3246 C 297.583 -5.79517 1.97043 0
M  V30 3247 N 296.72 -6.87291 1.4344 0
M  V30 3248 H 301.56 -2.40485 1.75986 0
M  V30 3249 H 299.097 -1.1801 0.878179 0
M  V30 3250 H 301.055 -4.17195 0.0198163 0
M  V30 3251 H 299.685 -3.18133 -0.546916 0
M  V30 3252 H 298.737 -3.31293 1.86946 0
M  V30 3253 H 300.049 -4.44771 2.25788 0
M  V30 3254 H 299.203 -6.04419 0.525651 0
M  V30 3255 H 297.942 -4.87685 0.0377957 0
M  V30 3256 H 296.947 -4.97491 2.34057 0
M  V30 3257 H 298.172 -6.17632 2.82325 0
M  V30 3258 H 296.118 -6.5318 0.607567 0
M  V30 3259 H 296.035 -7.23617 2.18895 0
M  V30 3260 H 297.303 -7.71682 1.10124 0
M  V30 3261 N 301.532 -0.945985 -1.26051 0
M  V30 3262 C 302.772 -0.603665 -1.95282 0
M  V30 3263 C 303.136 0.842377 -1.72534 0
M  V30 3264 O 304.337 1.29387 -2.35611 0
M  V30 3265 C 302.608 -0.942292 -3.44754 0
M  V30 3266 S 304.167 -0.711242 -4.32997 0
M  V30 3267 H 300.985 -0.222176 -0.675395 0
M  V30 3268 H 303.587 -1.21832 -1.52896 0
M  V30 3269 H 302.291 -1.99203 -3.58812 0
M  V30 3270 H 301.822 -0.317546 -3.92116 0
M  V30 3271 H 303.837 0.422221 -4.944 0
M  V30 3272 N 303.011 1.40521 -0.713556 0
M  V30 3273 C 303.941 2.33381 -0.0743864 0
M  V30 3274 C 304.922 1.52784 0.747735 0
M  V30 3275 O 306.107 1.81258 0.697071 0
M  V30 3276 C 303.237 3.36748 0.849598 0
M  V30 3277 C 302.191 4.27793 0.133247 0
M  V30 3278 C 301.517 5.21679 1.17281 0
M  V30 3279 C 302.817 5.12415 -1.01134 0
M  V30 3280 H 304.511 2.87081 -0.850007 0
M  V30 3281 H 302.057 1.38034 -0.410201 0
M  V30 3282 H 304.01 4.00648 1.30612 0
M  V30 3283 H 302.734 2.81439 1.65709 0
M  V30 3284 H 301.393 3.65342 -0.303426 0
M  V30 3285 H 301.041 4.62677 1.9733 0
M  V30 3286 H 300.741 5.83435 0.698397 0
M  V30 3287 H 302.265 5.88456 1.62947 0
M  V30 3288 H 303.679 5.69781 -0.634274 0
M  V30 3289 H 302.076 5.83203 -1.41399 0
M  V30 3290 H 303.146 4.48514 -1.84292 0
M  V30 3291 N 304.489 0.459591 1.5075 0
M  V30 3292 C 305.729 -0.09824 2.04164 0
M  V30 3293 C 306.093 -1.3801 1.33481 0
M  V30 3294 O 307.294 -2.01959 1.77387 0
M  V30 3295 C 305.565 -0.289467 3.56226 0
M  V30 3296 S 307.124 -0.807507 4.31306 0
M  V30 3297 H 303.942 -0.0213845 0.710678 0
M  V30 3298 H 306.544 0.624098 1.85271 0
M  V30 3299 H 305.248 0.649461 4.05229 0
M  V30 3300 H 304.779 -1.03825 3.79452 0
M  V30 3301 H 306.794 -2.0824 4.50389 0
M  V30 3302 O 306.006 -1.58029 0.333053 0
M  V30 3303 H 306.697 -1.92392 -0.224736 0
M  V30 END ATOM
M  V30 BEGIN BOND
M  V30 END BOND
M  V30 END CTAB
M  END
$$$$
