drugbank_target|Q26966 Trans-sialidase (DB01768; DB03296)
 OpenBabel12092120223D

  0  0  0     0  0            999 V3000
M  V30 BEGIN CTAB
M  V30 COUNTS 9859 9973 0 0 0
M  V30 BEGIN ATOM
M  V30 1 H -0.908 1.98254 -0.117106 0
M  V30 2 N 0 1.576 0 0
M  V30 3 C 0.933 2.03868 1.02534 0
M  V30 4 C 1.911 0.928543 1.3348 0
M  V30 5 O 3.095 1.19667 1.45644 0
M  V30 6 C 0.222 2.43627 2.35294 0
M  V30 7 C -0.732 3.65373 2.2001 0
M  V30 8 S 0.101 5.13292 1.52614 0
M  V30 9 C 1.257 5.56322 2.86805 0
M  V30 10 H 1.49 2.90518 0.631377 0
M  V30 11 H -0.977 1.52953 0.210867 0
M  V30 12 H 0.981 2.67203 3.11629 0
M  V30 13 H -0.358 1.57376 2.7183 0
M  V30 14 H -1.165 3.90944 3.18086 0
M  V30 15 H -1.563 3.418 1.51819 0
M  V30 16 H 0.729 5.58782 3.83104 0
M  V30 17 H 1.672 6.56266 2.65933 0
M  V30 18 H 2.08 4.83886 2.90714 0
M  V30 19 N 1.4781 -0.272755 1.55222 0
M  V30 20 C 2.4081 -1.34136 1.91127 0
M  V30 21 C 3.3891 -1.51513 0.773168 0
M  V30 22 O 4.5741 -1.64552 1.03132 0
M  V30 23 C 1.7041 -2.70083 2.1834 0
M  V30 24 C 0.6581 -2.67437 3.34158 0
M  V30 25 C -0.0159 -4.06938 3.46851 0
M  V30 26 C 1.2841 -2.26686 4.70543 0
M  V30 27 H 2.9781 -1.04333 2.80633 0
M  V30 28 H 0.5241 -0.500454 1.35024 0
M  V30 29 H 2.4771 -3.44952 2.42046 0
M  V30 30 H 1.2011 -3.01469 1.25634 0
M  V30 31 H -0.1399 -1.95026 3.1042 0
M  V30 32 H -0.4919 -4.35547 2.51611 0
M  V30 33 H -0.7919 -4.06062 4.2472 0
M  V30 34 H 0.7321 -4.83545 3.72849 0
M  V30 35 H 2.1461 -2.91277 4.93792 0
M  V30 36 H 0.5431 -2.36971 5.5133 0
M  V30 37 H 1.6131 -1.21818 4.69349 0
M  V30 38 N 2.9562 -1.48159 -0.537278 0
M  V30 39 C 3.9192 -1.61665 -1.62472 0
M  V30 40 C 4.9192 -0.490395 -1.5314 0
M  V30 41 O 6.1092 -0.755998 -1.5694 0
M  V30 42 C 3.2412 -1.57997 -3.02076 0
M  V30 43 H 4.4342 -2.58621 -1.51839 0
M  V30 44 H 1.9872 -1.36647 -0.758771 0
M  V30 45 H 2.7222 -0.624913 -3.18222 0
M  V30 46 H 2.5072 -2.39755 -3.10258 0
M  V30 47 H 3.9972 -1.70627 -3.81151 0
M  V30 48 N 4.4343 0.785586 -1.36625 0
M  V30 49 C 5.8453 1.36101 -1.27803 0
M  V30 50 C 6.1963 1.96035 0.0804875 0
M  V30 51 O 5.3213 1.92834 0.982042 0
M  V30 52 C 5.9163 2.47442 -2.31426 0
M  V30 53 C 4.4753 3.00789 -2.26281 0
M  V30 54 C 3.6223 1.73896 -2.15999 0
M  V30 55 H 6.5733 0.586928 -1.47448 0
M  V30 56 H 6.5943 3.2656 -1.95291 0
M  V30 57 H 6.1063 2.03791 -3.30289 0
M  V30 58 H 4.2073 3.48851 -1.30896 0
M  V30 59 H 4.3203 3.57343 -3.19128 0
M  V30 60 H 2.6843 1.9628 -1.62316 0
M  V30 61 H 3.4673 1.32368 -3.16755 0
M  V30 62 N 5.9124 1.20967 1.01018 0
M  V30 63 C 7.1604 1.02172 1.74371 0
M  V30 64 C 7.4814 -0.446414 1.89821 0
M  V30 65 O 6.7514 -1.32234 1.44537 0
M  V30 66 H 5.3314 0.375066 0.646014 0
M  V30 67 H 7.9934 1.52187 1.21758 0
M  V30 68 H 7.0894 1.48538 2.74487 0
M  V30 69 N 7.3905 -1.2043 1.01659 0
M  V30 70 C 8.6155 -1.94318 0.724942 0
M  V30 71 C 9.0405 -1.74266 -0.708034 0
M  V30 72 O 8.3985 -1.03694 -1.48719 0
M  V30 73 C 8.4465 -3.44486 1.06591 0
M  V30 74 O 7.5505 -4.12017 0.177599 0
M  V30 75 H 6.8915 -0.60708 0.26898 0
M  V30 76 H 9.4215 -1.52861 1.35995 0
M  V30 77 H 9.4315 -3.95106 1.01762 0
M  V30 78 H 8.1065 -3.58404 2.10997 0
M  V30 79 H 6.6835 -3.71821 0.283421 0
M  V30 80 N 8.8686 -0.792821 -1.36206 0
M  V30 81 C 10.0936 -0.377701 -2.03932 0
M  V30 82 C 10.5186 0.998947 -1.59382 0
M  V30 83 O 9.8766 1.64421 -0.763903 0
M  V30 84 C 9.9246 -0.453635 -3.57735 0
M  V30 85 O 9.0286 0.538151 -4.08874 0
M  V30 86 H 8.3696 -0.159855 -0.644471 0
M  V30 87 H 10.8996 -1.07488 -1.7409 0
M  V30 88 H 10.9096 -0.318464 -4.06755 0
M  V30 89 H 9.5846 -1.45784 -3.89512 0
M  V30 90 H 8.1616 0.364359 -3.71116 0
M  V30 91 N 10.3467 1.47872 -0.545128 0
M  V30 92 C 11.7627 1.5829 -0.204032 0
M  V30 93 C 11.9627 1.54529 1.29317 0
M  V30 94 O 11.0187 1.44232 2.07252 0
M  V30 95 C 12.3317 2.89304 -0.819987 0
M  V30 96 C 13.8797 3.02864 -0.790105 0
M  V30 97 C 14.3547 4.3656 -1.38491 0
M  V30 98 N 15.8457 4.43165 -1.34755 0
M  V30 99 C 16.5807 5.45153 -1.77753 0
M  V30 100 N 16.0767 6.54016 -2.2855 0
M  V30 101 N 17.8697 5.36125 -1.68897 0
M  V30 102 H 10.0207 1.4856 -1.51802 0
M  V30 103 H 12.2837 0.706305 -0.632327 0
M  V30 104 H 11.9897 2.97757 -1.87173 0
M  V30 105 H 11.8637 3.75957 -0.305915 0
M  V30 106 H 14.2507 2.94014 0.252913 0
M  V30 107 H 14.3317 2.17782 -1.34181 0
M  V30 108 H 13.9757 4.46164 -2.42693 0
M  V30 109 H 13.9057 5.20353 -0.808754 0
M  V30 110 H 16.3967 3.65083 -0.975855 0
M  V30 111 H 16.7097 7.27994 -2.59314 0
M  V30 112 H 15.0547 6.54938 -2.32553 0
M  V30 113 H 18.2457 4.49975 -1.28998 0
M  V30 114 H 18.4187 6.15472 -2.02726 0
M  V30 115 N 11.8248 0.280983 1.55075 0
M  V30 116 C 13.0708 -0.33461 2.00021 0
M  V30 117 C 13.4038 -1.55063 1.16915 0
M  V30 118 O 12.6788 -1.93006 0.240646 0
M  V30 119 C 12.9618 -0.711007 3.53011 0
M  V30 120 C 12.8148 0.512766 4.46868 0
M  V30 121 C 14.1338 -1.54522 4.12081 0
M  V30 122 H 11.2528 -0.120147 0.727141 0
M  V30 123 H 13.8948 0.389097 1.85973 0
M  V30 124 H 12.0448 -1.32761 3.65112 0
M  V30 125 H 13.7168 1.15131 4.46702 0
M  V30 126 H 11.9598 1.14975 4.18286 0
M  V30 127 H 12.6308 0.205556 5.51617 0
M  V30 128 H 15.1068 -1.02442 4.03293 0
M  V30 129 H 13.9828 -1.77739 5.19327 0
M  V30 130 H 14.2438 -2.52813 3.62682 0
M  V30 131 N 13.3029 -1.57598 0.00835791 0
M  V30 132 C 14.2129 -2.12385 -0.996487 0
M  V30 133 C 15.2289 -1.07108 -1.37127 0
M  V30 134 O 16.4049 -1.39055 -1.4569 0
M  V30 135 C 13.4699 -2.62314 -2.26699 0
M  V30 136 C 12.5309 -3.82225 -1.95456 0
M  V30 137 C 11.7639 -4.29763 -3.16449 0
M  V30 138 O 11.9869 -3.76584 -4.28416 0
M  V30 139 O 10.9209 -5.21832 -2.99958 0
M  V30 140 H 14.7469 -2.98479 -0.560725 0
M  V30 141 H 12.3319 -1.47903 -0.210987 0
M  V30 142 H 14.2139 -2.94589 -3.01322 0
M  V30 143 H 12.8889 -1.79313 -2.69497 0
M  V30 144 H 11.7959 -3.54909 -1.18282 0
M  V30 145 H 13.1289 -4.66324 -1.57489 0
M  V30 146 N 14.781 0.264519 -1.55364 0
M  V30 147 C 15.711 1.33121 -1.91836 0
M  V30 148 C 16.692 1.51101 -0.781192 0
M  V30 149 O 17.877 1.64003 -1.04003 0
M  V30 150 C 15.007 2.68921 -2.19769 0
M  V30 151 C 13.961 2.65661 -3.35571 0
M  V30 152 C 13.287 4.05093 -3.49004 0
M  V30 153 C 14.587 2.24187 -4.71739 0
M  V30 154 H 16.281 1.02844 -2.81182 0
M  V30 155 H 13.827 0.493286 -1.35287 0
M  V30 156 H 15.78 3.43663 -2.43872 0
M  V30 157 H 14.504 3.00799 -1.27231 0
M  V30 158 H 13.163 1.93377 -3.1145 0
M  V30 159 H 12.811 4.34206 -2.53917 0
M  V30 160 H 12.511 4.03804 -4.26868 0
M  V30 161 H 14.035 4.81561 -3.75408 0
M  V30 162 H 15.449 2.88654 -4.9533 0
M  V30 163 H 13.846 2.34044 -5.52579 0
M  V30 164 H 14.916 1.19327 -4.69988 0
M  V30 165 N 16.2591 1.48442 0.529413 0
M  V30 166 C 17.5061 1.56488 1.28521 0
M  V30 167 C 17.8341 0.239042 1.93025 0
M  V30 168 O 17.0891 -0.770713 1.79885 0
M  V30 169 C 17.3881 2.6523 2.39558 0
M  V30 170 C 17.0541 4.07648 1.92702 0
M  V30 171 C 15.7161 4.46411 1.79641 0
M  V30 172 C 18.0681 4.96896 1.573 0
M  V30 173 C 15.3961 5.72226 1.29514 0
M  V30 174 C 17.7481 6.23202 1.08636 0
M  V30 175 C 16.4121 6.60821 0.941919 0
M  V30 176 H 15.6821 0.572631 0.470292 0
M  V30 177 H 18.3291 1.82161 0.59072 0
M  V30 178 H 16.6341 2.33419 3.14679 0
M  V30 179 H 18.3311 2.68671 2.97686 0
M  V30 180 H 14.9211 3.77036 2.03819 0
M  V30 181 H 19.1051 4.67626 1.66251 0
M  V30 182 H 14.3611 6.00097 1.17019 0
M  V30 183 H 18.5351 6.91753 0.803136 0
M  V30 184 H 16.1621 7.58198 0.5513 0
M  V30 185 N 17.7372 -0.778329 1.37039 0
M  V30 186 C 18.6842 -1.89139 1.32269 0
M  V30 187 C 19.6542 -1.65017 0.189387 0
M  V30 188 O 20.8392 -1.87024 0.377693 0
M  V30 189 C 17.9792 -3.26112 1.12894 0
M  V30 190 C 17.0922 -3.62233 2.35396 0
M  V30 191 C 16.2272 -4.8838 2.08946 0
M  V30 192 C 15.2662 -5.17212 3.2735 0
M  V30 193 N 14.4032 -6.34546 3.00492 0
M  V30 194 H 19.2432 -1.92552 2.27437 0
M  V30 195 H 16.7802 -0.941473 1.13025 0
M  V30 196 H 18.7382 -4.05116 0.996835 0
M  V30 197 H 17.3682 -3.22091 0.213758 0
M  V30 198 H 16.4202 -2.78265 2.5937 0
M  V30 199 H 17.7322 -3.79481 3.23721 0
M  V30 200 H 16.8862 -5.75274 1.92729 0
M  V30 201 H 15.6252 -4.73222 1.17949 0
M  V30 202 H 14.6302 -4.28796 3.44113 0
M  V30 203 H 15.8552 -5.34283 4.19188 0
M  V30 204 H 13.8012 -6.20759 2.12118 0
M  V30 205 H 13.7182 -6.52179 3.82358 0
M  V30 206 H 14.9862 -7.24394 2.87879 0
M  V30 207 N 19.2153 -1.21501 -1.00376 0
M  V30 208 C 20.6313 -0.972629 -1.26539 0
M  V30 209 C 20.8313 0.340257 -1.98606 0
M  V30 210 O 19.8873 1.06561 -2.28913 0
M  V30 211 C 21.2003 -2.16404 -2.08781 0
M  V30 212 C 22.7483 -2.20643 -2.22004 0
M  V30 213 C 23.2233 -3.39306 -3.07629 0
M  V30 214 N 24.7143 -3.39401 -3.15217 0
M  V30 215 C 25.4493 -4.27867 -3.81729 0
M  V30 216 N 24.9453 -5.26533 -4.5026 0
M  V30 217 N 26.7383 -4.15672 -3.78382 0
M  V30 218 H 18.8893 -2.05929 -0.520281 0
M  V30 219 H 21.1523 -0.901803 -0.292328 0
M  V30 220 H 20.8583 -3.11554 -1.63178 0
M  V30 221 H 20.7323 -2.15567 -3.09533 0
M  V30 222 H 23.1193 -1.26048 -2.66825 0
M  V30 223 H 23.2003 -2.25523 -1.20718 0
M  V30 224 H 22.8443 -4.34195 -2.63509 0
M  V30 225 H 22.7743 -3.31665 -4.09031 0
M  V30 226 H 25.2653 -2.67997 -2.66432 0
M  V30 227 H 25.5783 -5.90337 -4.98721 0
M  V30 228 H 23.9233 -5.30457 -4.49044 0
M  V30 229 H 27.1143 -3.3785 -3.23998 0
M  V30 230 H 27.2873 -4.84825 -4.2994 0
M  V30 231 N 20.6934 1.19889 -1.02296 0
M  V30 232 C 21.6254 2.22334 -0.556787 0
M  V30 233 C 22.6384 1.58674 0.364199 0
M  V30 234 O 23.8274 1.77768 0.161533 0
M  V30 235 C 20.9274 3.38257 0.208694 0
M  V30 236 C 20.1004 4.31504 -0.71577 0
M  V30 237 C 19.1594 5.262 0.00325597 0
M  V30 238 O 18.1854 5.65798 -0.621357 0
M  V30 239 N 19.3874 5.66303 1.27599 0
M  V30 240 H 22.1524 2.62957 -1.43784 0
M  V30 241 H 19.7134 1.34495 -0.901261 0
M  V30 242 H 21.7054 3.98616 0.699111 0
M  V30 243 H 20.2754 2.96472 0.991102 0
M  V30 244 H 19.4954 3.69016 -1.38638 0
M  V30 245 H 20.7834 4.9072 -1.34428 0
M  V30 246 H 20.1814 5.36155 1.80429 0
M  V30 247 H 18.7384 6.28942 1.71102 0
M  V30 248 N 22.1715 0.800033 1.35784 0
M  V30 249 C 23.3965 0.388511 2.03729 0
M  V30 250 C 23.8215 -0.990481 1.5991 0
M  V30 251 O 23.1795 -1.64013 0.772612 0
M  V30 252 C 23.2275 0.4726 3.5749 0
M  V30 253 O 22.3315 -0.51646 4.09153 0
M  V30 254 H 21.6725 0.163271 0.643614 0
M  V30 255 H 24.2025 1.0841 1.73518 0
M  V30 256 H 24.2125 0.34003 4.06581 0
M  V30 257 H 22.8875 1.47848 3.88734 0
M  V30 258 H 21.4645 -0.344673 3.71304 0
M  V30 259 N 23.6496 -1.47581 0.552962 0
M  V30 260 C 24.8746 -2.07378 0.0300593 0
M  V30 261 C 25.2996 -1.40355 -1.25229 0
M  V30 262 O 24.6576 -0.477099 -1.7491 0
M  V30 263 C 24.7056 -3.60274 -0.153231 0
M  V30 264 O 23.8096 -3.94041 -1.21678 0
M  V30 265 H 23.1506 -0.662158 0.0494182 0
M  V30 266 H 25.6806 -1.89662 0.767434 0
M  V30 267 H 25.6906 -4.0633 -0.368761 0
M  V30 268 H 24.3656 -4.08455 0.783397 0
M  V30 269 H 22.9426 -3.59735 -0.982079 0
M  V30 270 N 25.1277 -0.289203 -1.54924 0
M  V30 271 C 26.0747 0.592115 -2.23075 0
M  V30 272 C 27.0447 1.13881 -1.20915 0
M  V30 273 O 28.2297 1.18551 -1.495 0
M  V30 274 C 25.3697 1.76376 -2.96623 0
M  V30 275 C 24.4827 1.24959 -4.13533 0
M  V30 276 C 23.6177 2.38416 -4.74691 0
M  V30 277 C 22.6567 1.84072 -5.83767 0
M  V30 278 N 21.7937 2.91057 -6.38929 0
M  V30 279 H 26.6337 0.00432038 -2.98 0
M  V30 280 H 24.1707 -0.00963529 -1.47097 0
M  V30 281 H 26.1287 2.45268 -3.3749 0
M  V30 282 H 24.7587 2.32337 -2.24097 0
M  V30 283 H 23.8107 0.453307 -3.77689 0
M  V30 284 H 25.1227 0.811662 -4.92152 0
M  V30 285 H 24.2767 3.15276 -5.18349 0
M  V30 286 H 23.0157 2.8553 -3.95378 0
M  V30 287 H 22.0207 1.05697 -5.39545 0
M  V30 288 H 23.2457 1.37877 -6.64956 0
M  V30 289 H 21.1917 3.37526 -5.62505 0
M  V30 290 H 21.1087 2.51724 -7.12861 0
M  V30 291 H 22.3767 3.6785 -6.87246 0
M  V30 292 N 26.6058 1.57591 -0.0167156 0
M  V30 293 C 27.8518 1.91567 0.665582 0
M  V30 294 C 28.1848 0.892298 1.72487 0
M  V30 295 O 27.4598 -0.0867127 1.94307 0
M  V30 296 C 27.7428 3.36069 1.29342 0
M  V30 297 C 27.5958 4.49135 0.244541 0
M  V30 298 C 28.9148 3.803 2.21495 0
M  V30 299 H 26.0338 0.69666 0.240488 0
M  V30 300 H 28.6758 1.89866 -0.0714356 0
M  V30 301 H 26.8258 3.3765 1.92158 0
M  V30 302 H 28.4978 4.59689 -0.385228 0
M  V30 303 H 26.7408 4.3165 -0.431379 0
M  V30 304 H 27.4118 5.47242 0.723207 0
M  V30 305 H 29.8878 3.80377 1.68678 0
M  V30 306 H 28.7638 4.82127 2.62382 0
M  V30 307 H 29.0248 3.15104 3.101 0
M  V30 308 N 28.0839 -0.256276 1.55502 0
M  V30 309 C 29.4949 -0.826068 1.67431 0
M  V30 310 C 29.8459 -1.86396 0.612446 0
M  V30 311 O 28.9709 -2.15031 -0.243025 0
M  V30 312 C 29.5659 -1.50512 3.03532 0
M  V30 313 C 28.1249 -2.02273 3.17431 0
M  V30 314 C 27.2719 -0.870548 2.63281 0
M  V30 315 H 30.2229 -0.0322728 1.58667 0
M  V30 316 H 30.2439 -2.37279 2.97454 0
M  V30 317 H 29.7559 -0.749484 3.80794 0
M  V30 318 H 27.8569 -2.80746 2.44974 0
M  V30 319 H 27.9699 -2.22655 4.24219 0
M  V30 320 H 26.3339 -1.26851 2.20864 0
M  V30 321 H 27.1169 -0.128149 3.43061 0
M  V30 322 N 29.562 -1.4872 -0.521534 0
M  V30 323 C 30.809 -1.57168 -1.27689 0
M  V30 324 C 31.137 -0.249275 -1.92896 0
M  V30 325 O 30.392 0.761162 -1.80291 0
M  V30 326 C 30.691 -2.66497 -2.38148 0
M  V30 327 C 30.357 -4.08664 -1.90538 0
M  V30 328 C 29.019 -4.47357 -1.77271 0
M  V30 329 C 31.371 -4.97724 -1.54663 0
M  V30 330 C 28.699 -5.72905 -1.26478 0
M  V30 331 C 31.051 -6.2377 -1.05329 0
M  V30 332 C 29.715 -6.61311 -0.906861 0
M  V30 333 H 28.985 -0.575117 -0.467249 0
M  V30 334 H 31.632 -1.82472 -0.581051 0
M  V30 335 H 29.937 -2.35085 -3.13437 0
M  V30 336 H 31.634 -2.70246 -2.96257 0
M  V30 337 H 28.224 -3.78111 -2.01816 0
M  V30 338 H 32.408 -4.68501 -1.63768 0
M  V30 339 H 27.664 -6.00709 -1.13835 0
M  V30 340 H 31.838 -6.9217 -0.76644 0
M  V30 341 H 29.465 -7.5848 -0.511083 0
M  V30 342 N 31.0401 0.771051 -1.3745 0
M  V30 343 C 31.9501 1.91538 -1.35464 0
M  V30 344 C 32.9661 1.72134 -0.254123 0
M  V30 345 O 34.1421 1.95358 -0.489626 0
M  V30 346 C 31.2071 3.26671 -1.16134 0
M  V30 347 C 30.2681 3.58723 -2.35831 0
M  V30 348 C 29.5011 4.87409 -2.17413 0
M  V30 349 O 29.7241 5.58506 -1.15876 0
M  V30 350 O 28.6581 5.18539 -3.05615 0
M  V30 351 H 32.4841 1.96165 -2.31847 0
M  V30 352 H 30.0691 0.9139 -1.18187 0
M  V30 353 H 31.9511 4.07499 -1.07345 0
M  V30 354 H 30.6261 3.22894 -0.228251 0
M  V30 355 H 29.5331 2.78127 -2.50192 0
M  V30 356 H 30.8661 3.67243 -3.27709 0
M  V30 357 N 32.5182 1.22032 0.997298 0
M  V30 358 C 33.4652 0.986467 2.08656 0
M  V30 359 C 34.4352 -0.0902671 1.65855 0
M  V30 360 O 35.6202 0.0584294 1.90711 0
M  V30 361 C 32.7602 0.565569 3.40434 0
M  V30 362 C 31.8732 1.71259 3.96604 0
M  V30 363 C 31.0082 1.24011 5.16522 0
M  V30 364 C 30.0472 2.35896 5.64818 0
M  V30 365 N 29.1842 1.89726 6.7598 0
M  V30 366 H 34.0242 1.91892 2.27994 0
M  V30 367 H 31.5612 0.956199 1.11782 0
M  V30 368 H 33.5192 0.302738 4.161 0
M  V30 369 H 32.1492 -0.329879 3.2111 0
M  V30 370 H 31.2012 2.08986 3.17851 0
M  V30 371 H 32.5132 2.55436 4.28432 0
M  V30 372 H 31.6672 0.934395 5.99461 0
M  V30 373 H 30.4062 0.368487 4.86306 0
M  V30 374 H 29.4112 2.67261 4.8047 0
M  V30 375 H 30.6362 3.23567 5.97061 0
M  V30 376 H 28.5822 1.0492 6.47555 0
M  V30 377 H 28.4992 2.67471 7.07103 0
M  V30 378 H 29.7672 1.62211 7.62435 0
M  V30 379 N 33.9963 -1.19345 1.0293 0
M  V30 380 C 35.2733 -1.84811 0.640642 0
M  V30 381 C 35.6533 -1.91855 -0.88062 0
M  V30 382 O 35.0013 -1.43587 -1.7775 0
M  V30 383 C 35.2113 -3.23755 1.30321 0
M  V30 384 C 36.5593 -3.99912 1.42673 0
M  V30 385 O 37.5833 -3.33155 1.26041 0
M  V30 386 O 36.4423 -5.19494 1.6967 0
M  V30 387 H 33.5363 -0.796443 0.222726 0
M  V30 388 H 36.0823 -1.26831 1.12748 0
M  V30 389 H 34.8543 -3.13466 2.34211 0
M  V30 390 H 34.4773 -3.89381 0.804261 0
M  V30 391 N 35.4744 -0.807222 -1.35358 0
M  V30 392 C 36.7224 -0.387122 -1.98358 0
M  V30 393 C 37.0434 1.04942 -1.64354 0
M  V30 394 O 36.3134 1.72615 -0.926339 0
M  V30 395 H 34.8934 -0.140154 -0.733734 0
M  V30 396 H 37.5554 -1.0332 -1.6526 0
M  V30 397 H 36.6514 -0.493352 -3.08176 0
M  V30 398 N 36.9525 1.47285 -0.560781 0
M  V30 399 C 37.8995 2.30058 0.18491 0
M  V30 400 C 38.8695 1.39281 0.904986 0
M  V30 401 O 40.0545 1.68241 0.899979 0
M  V30 402 C 37.1945 3.23317 1.20666 0
M  V30 403 C 36.3075 4.29186 0.492285 0
M  V30 404 C 35.4425 5.09592 1.49964 0
M  V30 405 C 34.4815 6.07232 0.770439 0
M  V30 406 N 33.6185 6.80584 1.72479 0
M  V30 407 H 38.4585 2.93302 -0.527048 0
M  V30 408 H 35.9955 1.44568 -0.271738 0
M  V30 409 H 37.9535 3.75811 1.81168 0
M  V30 410 H 36.5835 2.61929 1.88661 0
M  V30 411 H 35.6355 3.7972 -0.227333 0
M  V30 412 H 36.9475 4.98738 -0.0787929 0
M  V30 413 H 36.1015 5.66254 2.17809 0
M  V30 414 H 34.8405 4.3995 2.10464 0
M  V30 415 H 33.8455 5.49745 0.0780846 0
M  V30 416 H 35.0705 6.78884 0.171134 0
M  V30 417 H 33.0165 6.1367 2.3183 0
M  V30 418 H 32.9335 7.46319 1.20596 0
M  V30 419 H 34.2015 7.41818 2.39428 0
M  V30 420 N 38.4306 0.297415 1.54768 0
M  V30 421 C 39.6766 -0.313376 2.00364 0
M  V30 422 C 40.0096 -1.53815 1.18553 0
M  V30 423 O 39.2846 -1.92739 0.261103 0
M  V30 424 C 39.5676 -0.673525 3.53745 0
M  V30 425 C 39.4206 0.560133 4.46299 0
M  V30 426 C 40.7396 -1.50143 4.13697 0
M  V30 427 H 37.8586 -0.112428 0.728374 0
M  V30 428 H 40.5006 0.4088 1.8555 0
M  V30 429 H 38.6506 -1.28881 3.665 0
M  V30 430 H 40.3226 1.19863 4.45455 0
M  V30 431 H 38.5656 1.19405 4.17043 0
M  V30 432 H 39.2366 0.26405 5.51368 0
M  V30 433 H 41.7126 -0.981588 4.04356 0
M  V30 434 H 40.5886 -1.72221 5.21182 0
M  V30 435 H 40.8496 -2.48952 3.65343 0
M  V30 436 N 39.9087 -1.5758 0.0250728 0
M  V30 437 C 41.1367 -1.9593 -0.664747 0
M  V30 438 C 41.5517 -0.901352 -1.65895 0
M  V30 439 O 40.9087 0.117255 -1.82123 0
M  V30 440 C 40.9597 -3.34342 -1.37468 0
M  V30 441 O 40.6807 -4.36079 -0.420324 0
M  V30 442 C 42.1817 -3.873 -2.1567 0
M  V30 443 H 39.4017 -0.645405 -0.183557 0
M  V30 444 H 41.9457 -2.04329 0.0836372 0
M  V30 445 H 40.1007 -3.27175 -2.0745 0
M  V30 446 H 40.5147 -5.16297 -0.923991 0
M  V30 447 H 41.9887 -4.86504 -2.60803 0
M  V30 448 H 42.4657 -3.21331 -2.99405 0
M  V30 449 H 43.0717 -3.97723 -1.50654 0
M  V30 450 N 41.3868 0.248026 -1.55636 0
M  V30 451 C 42.2968 1.32859 -1.93354 0
M  V30 452 C 43.3128 1.52719 -0.833838 0
M  V30 453 O 44.4888 1.66363 -1.13513 0
M  V30 454 C 41.5538 2.66337 -2.21958 0
M  V30 455 C 40.6148 2.55008 -3.45354 0
M  V30 456 C 39.8478 3.82121 -3.72584 0
M  V30 457 O 40.0708 4.83951 -3.01907 0
M  V30 458 O 39.0048 3.80822 -4.6611 0
M  V30 459 H 42.8308 1.03862 -2.85388 0
M  V30 460 H 40.4158 0.448686 -1.42503 0
M  V30 461 H 42.2978 3.45216 -2.4167 0
M  V30 462 H 40.9728 2.95068 -1.33103 0
M  V30 463 H 39.8798 1.7442 -3.30951 0
M  V30 464 H 41.2128 2.31222 -4.34508 0
M  V30 465 N 42.8649 1.48995 0.513639 0
M  V30 466 C 44.2809 1.35478 0.843682 0
M  V30 467 C 44.4809 0.378213 1.97919 0
M  V30 468 O 43.5369 -0.194689 2.51748 0
M  V30 469 C 44.8499 2.75901 1.1958 0
M  V30 470 C 46.3979 2.84509 1.30474 0
M  V30 471 C 46.8729 4.25671 1.69021 0
M  V30 472 N 48.3639 4.28422 1.76094 0
M  V30 473 C 49.0989 5.34601 2.07338 0
M  V30 474 N 48.5949 6.5104 2.36894 0
M  V30 475 N 50.3879 5.22007 2.08483 0
M  V30 476 H 42.5389 2.11092 -0.235328 0
M  V30 477 H 44.8019 0.947039 -0.0426669 0
M  V30 478 H 44.5079 3.49001 0.434913 0
M  V30 479 H 44.3819 3.10467 2.1422 0
M  V30 480 H 46.7689 2.11655 2.05637 0
M  V30 481 H 46.8499 2.53542 0.339155 0
M  V30 482 H 46.4939 4.99048 0.944135 0
M  V30 483 H 46.4239 4.54094 2.66658 0
M  V30 484 H 48.9149 3.44441 1.55464 0
M  V30 485 H 49.2279 7.2779 2.59887 0
M  V30 486 H 47.5729 6.54287 2.34378 0
M  V30 487 H 50.7639 4.30051 1.84861 0
M  V30 488 H 50.9369 6.04854 2.325 0
M  V30 489 N 44.343 -0.763751 1.37857 0
M  V30 490 C 45.589 -1.52483 1.33704 0
M  V30 491 C 45.922 -1.94051 -0.0759612 0
M  V30 492 O 45.197 -1.64675 -1.03501 0
M  V30 493 C 45.48 -2.78441 2.28348 0
M  V30 494 C 45.333 -2.43075 3.78463 0
M  V30 495 C 46.652 -3.80415 2.21298 0
M  V30 496 H 43.771 -0.553169 0.487005 0
M  V30 497 H 46.413 -0.875562 1.68624 0
M  V30 498 H 44.563 -3.33842 1.987 0
M  V30 499 H 46.235 -1.93527 4.18742 0
M  V30 500 H 44.478 -1.75666 3.96641 0
M  V30 501 H 45.149 -3.33149 4.40132 0
M  V30 502 H 47.625 -3.34527 2.47449 0
M  V30 503 H 46.501 -4.66257 2.89647 0
M  V30 504 H 46.762 -4.25262 1.20849 0
M  V30 505 N 45.8211 -1.22559 -0.990812 0
M  V30 506 C 47.0671 -1.05297 -1.73322 0
M  V30 507 C 47.4001 0.410655 -1.89808 0
M  V30 508 O 46.6751 1.30439 -1.44277 0
M  V30 509 C 46.9581 -1.76713 -3.13759 0
M  V30 510 C 46.8111 -3.30684 -3.04907 0
M  V30 511 C 48.1301 -1.52121 -4.12974 0
M  V30 512 H 45.2491 -0.38392 -0.629106 0
M  V30 513 H 47.8911 -1.50926 -1.15418 0
M  V30 514 H 46.0411 -1.37924 -3.63193 0
M  V30 515 H 47.7131 -3.7893 -2.63077 0
M  V30 516 H 45.9561 -3.60253 -2.41661 0
M  V30 517 H 46.6271 -3.75833 -4.04294 0
M  V30 518 H 49.1031 -1.85819 -3.72304 0
M  V30 519 H 47.9791 -2.04582 -5.0935 0
M  V30 520 H 48.2401 -0.454257 -4.3976 0
M  V30 521 N 47.2992 1.18797 -1.03562 0
M  V30 522 C 48.2492 2.20161 -0.592724 0
M  V30 523 C 49.2332 1.56772 0.362133 0
M  V30 524 O 50.4252 1.76062 0.182009 0
M  V30 525 C 47.5542 3.43266 0.0481024 0
M  V30 526 C 46.6402 4.13786 -0.9296 0
M  V30 527 N 47.0312 4.60388 -2.09467 0
M  V30 528 C 45.3292 4.39572 -0.754499 0
M  V30 529 C 46.0302 5.14619 -2.71187 0
M  V30 530 N 45.0062 5.05826 -1.991 0
M  V30 531 H 48.8082 2.53877 -1.48066 0
M  V30 532 H 46.3222 1.34946 -0.903514 0
M  V30 533 H 48.3192 4.15136 0.383058 0
M  V30 534 H 46.9792 3.11048 0.931636 0
M  V30 535 H 47.9902 4.54999 -2.47379 0
M  V30 536 H 44.6672 4.17425 0.0793713 0
M  V30 537 H 46.0572 5.60917 -3.69895 0
M  V30 538 N 48.7773 0.814389 1.34928 0
M  V30 539 C 50.0023 0.410097 2.03305 0
M  V30 540 C 50.4273 -0.973464 1.60951 0
M  V30 541 O 49.7853 -1.63185 0.789964 0
M  V30 542 C 49.8333 0.51049 3.56968 0
M  V30 543 O 48.9373 -0.473035 4.09678 0
M  V30 544 H 48.2783 0.170088 0.641846 0
M  V30 545 H 50.8083 1.10244 1.72358 0
M  V30 546 H 50.8183 0.383135 4.06197 0
M  V30 547 H 49.4933 1.51963 3.87144 0
M  V30 548 H 48.0703 -0.305272 3.71648 0
M  V30 549 N 50.2554 -1.46986 0.568584 0
M  V30 550 C 51.5024 -2.02441 0.0487986 0
M  V30 551 C 51.8304 -1.44169 -1.30559 0
M  V30 552 O 51.0854 -0.591213 -1.86556 0
M  V30 553 C 51.3844 -3.57306 -0.081836 0
M  V30 554 C 51.0504 -4.34552 1.20313 0
M  V30 555 C 49.7124 -4.55376 1.5552 0
M  V30 556 C 52.0644 -4.79016 2.05411 0
M  V30 557 C 49.3924 -5.17913 2.7565 0
M  V30 558 C 51.7444 -5.42879 3.24754 0
M  V30 559 C 50.4084 -5.61933 3.60261 0
M  V30 560 H 49.6784 -0.740785 0.0178567 0
M  V30 561 H 52.3254 -1.76525 0.742384 0
M  V30 562 H 50.6304 -3.8228 -0.858463 0
M  V30 563 H 52.3274 -3.97876 -0.499546 0
M  V30 564 H 48.9174 -4.18631 0.919014 0
M  V30 565 H 53.1014 -4.62696 1.79516 0
M  V30 566 H 48.3574 -5.30858 3.03315 0
M  V30 567 H 52.5314 -5.76293 3.90973 0
M  V30 568 H 50.1584 -6.10161 4.53439 0
M  V30 569 N 51.7335 -0.305618 -1.54608 0
M  V30 570 C 53.1495 0.0476228 -1.59529 0
M  V30 571 C 53.3495 1.52025 -1.32252 0
M  V30 572 O 52.4055 2.27368 -1.09818 0
M  V30 573 C 53.7185 -0.354471 -2.98603 0
M  V30 574 C 55.2665 -0.303622 -3.11524 0
M  V30 575 C 55.7415 -0.680608 -4.52915 0
M  V30 576 N 57.2325 -0.63332 -4.5885 0
M  V30 577 C 57.9675 -0.897432 -5.66334 0
M  V30 578 N 57.4635 -1.22775 -6.81834 0
M  V30 579 N 59.2565 -0.824186 -5.56025 0
M  V30 580 H 51.4075 -1.2653 -1.70599 0
M  V30 581 H 53.6705 -0.513291 -0.797017 0
M  V30 582 H 53.3765 -1.3798 -3.23503 0
M  V30 583 H 53.2505 0.289568 -3.76087 0
M  V30 584 H 55.6375 0.712472 -2.8637 0
M  V30 585 H 55.7185 -0.982348 -2.36185 0
M  V30 586 H 55.3625 -1.69453 -4.78799 0
M  V30 587 H 55.2925 0.0202385 -5.26596 0
M  V30 588 H 57.7835 -0.389138 -3.75891 0
M  V30 589 H 58.0965 -1.41513 -7.59733 0
M  V30 590 H 56.4415 -1.26583 -6.83375 0
M  V30 591 H 59.6325 -0.565748 -4.64669 0
M  V30 592 H 59.8055 -1.03338 -6.39707 0
M  V30 593 N 53.2116 1.57565 -0.0334293 0
M  V30 594 C 54.1416 2.13511 0.945265 0
M  V30 595 C 55.1226 1.05231 1.33643 0
M  V30 596 O 56.3076 1.33084 1.41429 0
M  V30 597 C 53.4376 2.6657 2.22616 0
M  V30 598 C 52.3916 3.79676 1.97561 0
M  V30 599 C 51.7176 4.1918 3.31952 0
M  V30 600 C 53.0176 5.0557 1.31135 0
M  V30 601 H 54.7116 2.95538 0.479325 0
M  V30 602 H 52.2576 1.42166 0.229115 0
M  V30 603 H 54.2106 3.04344 2.91466 0
M  V30 604 H 52.9346 1.8171 2.71384 0
M  V30 605 H 51.5936 3.42347 1.31127 0
M  V30 606 H 51.2416 3.31296 3.78487 0
M  V30 607 H 50.9416 4.95402 3.15992 0
M  V30 608 H 52.4656 4.59541 4.02063 0
M  V30 609 H 53.8796 5.40903 1.89992 0
M  V30 610 H 52.2766 5.86818 1.25559 0
M  V30 611 H 53.3466 4.84062 0.284894 0
M  V30 612 N 54.6897 -0.239769 1.55765 0
M  V30 613 C 56.1007 -0.808263 1.68297 0
M  V30 614 C 56.4517 -1.85736 0.632181 0
M  V30 615 O 55.5767 -2.15277 -0.220204 0
M  V30 616 C 56.1717 -1.47284 3.05111 0
M  V30 617 C 54.7307 -1.98895 3.19559 0
M  V30 618 C 53.8777 -0.842575 2.64189 0
M  V30 619 H 56.8287 -0.0154422 1.58692 0
M  V30 620 H 56.8497 -2.34111 2.99954 0
M  V30 621 H 56.3617 -0.709053 3.81568 0
M  V30 622 H 54.4627 -2.78132 2.47938 0
M  V30 623 H 54.5757 -2.18143 4.26556 0
M  V30 624 H 52.9397 -1.24501 2.22197 0
M  V30 625 H 53.7227 -0.0917552 3.43177 0
M  V30 626 N 56.1678 -1.49265 -0.50573 0
M  V30 627 C 57.1308 -1.65075 -1.59006 0
M  V30 628 C 58.1308 -0.522768 -1.52065 0
M  V30 629 O 59.3208 -0.789117 -1.55302 0
M  V30 630 C 56.4528 -1.64369 -2.98656 0
M  V30 631 H 57.6458 -2.61784 -1.46319 0
M  V30 632 H 55.1988 -1.38226 -0.729616 0
M  V30 633 H 55.9338 -0.692272 -3.16825 0
M  V30 634 H 55.7188 -2.46282 -3.05103 0
M  V30 635 H 57.2088 -1.78674 -3.77446 0
M  V30 636 N 57.6459 0.756429 -1.3826 0
M  V30 637 C 58.5759 1.88374 -1.37976 0
M  V30 638 C 59.5569 1.68311 -0.246082 0
M  V30 639 O 60.7419 1.88944 -0.44874 0
M  V30 640 C 57.8719 3.25864 -1.20125 0
M  V30 641 C 56.8259 3.60523 -2.30666 0
M  V30 642 C 56.1519 4.9672 -1.97923 0
M  V30 643 C 57.4519 3.65692 -3.72916 0
M  V30 644 H 59.1459 1.88869 -2.32312 0
M  V30 645 H 56.6919 0.907272 -1.11824 0
M  V30 646 H 58.6449 4.0438 -1.18552 0
M  V30 647 H 57.3689 3.25841 -0.222498 0
M  V30 648 H 56.0279 2.84324 -2.3142 0
M  V30 649 H 55.6759 4.93253 -0.985393 0
M  V30 650 H 55.3759 5.20878 -2.71955 0
M  V30 651 H 56.8999 5.77618 -1.97964 0
M  V30 652 H 58.3139 4.34328 -3.74208 0
M  V30 653 H 56.7109 4.01358 -4.4613 0
M  V30 654 H 57.7809 2.65987 -4.05436 0
M  V30 655 N 59.124 1.23083 0.984299 0
M  V30 656 C 60.37 1.06214 1.72761 0
M  V30 657 C 60.703 -0.400584 1.90024 0
M  V30 658 O 59.978 -1.29672 1.44967 0
M  V30 659 C 60.261 1.78375 3.12817 0
M  V30 660 C 60.114 3.32296 3.03149 0
M  V30 661 C 61.433 1.54309 4.12161 0
M  V30 662 H 58.552 0.387251 0.627061 0
M  V30 663 H 61.194 1.51536 1.14616 0
M  V30 664 H 59.344 1.39848 3.62457 0
M  V30 665 H 61.016 3.8032 2.61064 0
M  V30 666 H 59.259 3.6153 2.39747 0
M  V30 667 H 59.93 3.77972 4.02295 0
M  V30 668 H 62.406 1.87791 3.71314 0
M  V30 669 H 61.282 2.07281 5.08258 0
M  V30 670 H 61.543 0.477572 4.39513 0
M  V30 671 N 60.6021 -1.18246 1.0419 0
M  V30 672 C 61.5501 -2.23968 0.627792 0
M  V30 673 C 62.5441 -1.65828 -0.346019 0
M  V30 674 O 63.7501 -1.78733 -0.213175 0
M  V30 675 H 60.1251 -0.728939 0.184802 0
M  V30 676 H 62.0961 -2.56202 1.52981 0
M  V30 677 C 60.8451 -3.47699 0.00796591 0
M  V30 678 H 60.1681 -3.92734 0.748347 0
M  V30 679 H 61.6081 -4.23294 -0.24455 0
M  V30 680 C 60.0671 -3.13153 -1.24246 0
M  V30 681 O 60.5971 -3.27003 -2.33307 0
M  V30 682 N 58.8031 -2.67467 -1.13622 0
M  V30 683 H 58.3501 -2.56396 -0.248734 0
M  V30 684 H 58.3081 -2.44724 -1.97377 0
M  V30 685 N 62.0802 -0.821533 -1.34494 0
M  V30 686 C 63.3262 -0.409552 -1.98622 0
M  V30 687 C 63.6592 1.0244 -1.64984 0
M  V30 688 O 62.9342 1.71325 -0.920758 0
M  V30 689 C 63.2172 -0.610458 -3.54888 0
M  V30 690 C 63.0702 -2.09043 -3.98273 0
M  V30 691 C 64.3892 -0.0455379 -4.40076 0
M  V30 692 H 61.5082 -0.15028 -0.721516 0
M  V30 693 H 64.1502 -1.03384 -1.59411 0
M  V30 694 H 62.3002 -0.079044 -3.8842 0
M  V30 695 H 63.9722 -2.68537 -3.75081 0
M  V30 696 H 62.2152 -2.58139 -3.48635 0
M  V30 697 H 62.8862 -2.18182 -5.07051 0
M  V30 698 H 65.3622 -0.499557 -4.1309 0
M  V30 699 H 64.2382 -0.215922 -5.48475 0
M  V30 700 H 64.4992 1.04939 -4.29465 0
M  V30 701 N 63.5583 1.46682 -0.576371 0
M  V30 702 C 64.8353 1.95599 0.00703437 0
M  V30 703 C 65.2153 1.51904 1.46589 0
M  V30 704 O 64.5633 0.766755 2.15251 0
M  V30 705 C 64.7733 3.4864 -0.158404 0
M  V30 706 C 66.1213 4.24594 -0.0229439 0
M  V30 707 O 67.1453 3.56094 -0.0869173 0
M  V30 708 O 66.0043 5.46373 0.118015 0
M  V30 709 H 63.0983 0.825275 0.053384 0
M  V30 710 H 65.6443 1.56996 -0.644244 0
M  V30 711 H 64.4163 3.7331 -1.17282 0
M  V30 712 H 64.0393 3.94057 0.5296 0
M  V30 713 N 65.0364 0.313813 1.54444 0
M  V30 714 C 66.2844 -0.291099 1.99993 0
M  V30 715 C 66.6054 -1.53418 1.20366 0
M  V30 716 O 65.8754 -1.93544 0.302927 0
M  V30 717 H 64.4554 -0.110552 0.738774 0
M  V30 718 H 67.1174 0.428106 1.9014 0
M  V30 719 H 66.2134 -0.554268 3.07139 0
M  V30 720 N 66.5145 -1.57545 0.0417849 0
M  V30 721 C 67.7605 -1.92601 -0.635021 0
M  V30 722 C 68.0935 -0.919627 -1.71045 0
M  V30 723 O 67.3685 0.0557892 -1.9442 0
M  V30 724 C 67.6515 -3.38085 -1.23979 0
M  V30 725 C 67.5045 -4.49467 -0.173057 0
M  V30 726 C 68.8235 -3.83776 -2.15416 0
M  V30 727 H 65.9425 -0.700397 -0.229374 0
M  V30 728 H 68.5845 -1.89728 0.101633 0
M  V30 729 H 66.7345 -3.40664 -1.86762 0
M  V30 730 H 68.4065 -4.59018 0.458312 0
M  V30 731 H 66.6495 -4.30909 0.499996 0
M  V30 732 H 67.3205 -5.48323 -0.636054 0
M  V30 733 H 69.7965 -3.83013 -1.62605 0
M  V30 734 H 68.6725 -4.8624 -2.54679 0
M  V30 735 H 68.9335 -3.19998 -3.05047 0
M  V30 736 N 67.9926 0.231505 -1.5589 0
M  V30 737 C 68.9256 1.31369 -1.86595 0
M  V30 738 C 69.9036 1.45671 -0.722397 0
M  V30 739 O 71.0876 1.61642 -0.969743 0
M  V30 740 C 68.2146 2.68529 -2.06421 0
M  V30 741 C 67.2606 2.71295 -3.29092 0
M  V30 742 S 68.0936 2.26358 -4.85306 0
M  V30 743 C 69.2496 3.65414 -5.08157 0
M  V30 744 H 69.4826 1.05128 -2.78092 0
M  V30 745 H 67.0156 0.433259 -1.48197 0
M  V30 746 H 68.9736 3.47499 -2.18528 0
M  V30 747 H 67.6346 2.91999 -1.15738 0
M  V30 748 H 66.8276 3.72063 -3.39978 0
M  V30 749 H 66.4296 2.0038 -3.15791 0
M  V30 750 H 68.7216 4.6103 -4.96445 0
M  V30 751 H 69.6646 3.5945 -6.10083 0
M  V30 752 H 70.0726 3.5864 -4.35933 0
M  V30 753 N 69.4707 1.49531 0.497807 0
M  V30 754 C 70.7167 1.59415 1.25358 0
M  V30 755 C 71.0497 0.281422 1.9215 0
M  V30 756 O 70.3247 -0.715249 1.80871 0
M  V30 757 C 70.6077 2.75566 2.3181 0
M  V30 758 C 70.4607 4.16642 1.69498 0
M  V30 759 C 71.7797 2.87347 3.33346 0
M  V30 760 H 68.8987 0.580244 0.454408 0
M  V30 761 H 71.5407 1.81827 0.551262 0
M  V30 762 H 69.6907 2.56587 2.91711 0
M  V30 763 H 71.3627 4.47145 1.13399 0
M  V30 764 H 69.6057 4.22141 0.998978 0
M  V30 765 H 70.2767 4.93792 2.46725 0
M  V30 766 H 72.7527 3.04634 2.83438 0
M  V30 767 H 71.6287 3.70289 4.05188 0
M  V30 768 H 71.8897 1.96834 3.95865 0
M  V30 769 N 70.9488 -0.749086 1.3866 0
M  V30 770 C 71.9118 -1.84457 1.36045 0
M  V30 771 C 72.9118 -1.58682 0.260122 0
M  V30 772 O 74.1018 -1.66343 0.517261 0
M  V30 773 C 71.2338 -3.22008 1.11911 0
M  V30 774 H 72.4268 -1.88182 2.33512 0
M  V30 775 H 69.9798 -0.951266 1.24019 0
M  V30 776 H 70.7148 -3.2395 0.150686 0
M  V30 777 H 70.4998 -3.42111 1.91579 0
M  V30 778 H 71.9898 -4.0208 1.12788 0
M  V30 779 N 72.4269 -1.23603 -0.977757 0
M  V30 780 C 73.6759 -1.06377 -1.71368 0
M  V30 781 C 73.9889 0.399062 -1.91486 0
M  V30 782 O 75.1949 0.691312 -2.62551 0
M  V30 783 C 73.6509 -1.85512 -3.08404 0
M  V30 784 C 73.2589 -3.36141 -2.96164 0
M  V30 785 C 75.0029 -1.76783 -3.85938 0
M  V30 786 C 72.9099 -4.07659 -4.28449 0
M  V30 787 H 71.8399 -0.394452 -0.642591 0
M  V30 788 H 74.4909 -1.47594 -1.09034 0
M  V30 789 H 72.8729 -1.37103 -3.71509 0
M  V30 790 H 74.0469 -3.92056 -2.42133 0
M  V30 791 H 72.3619 -3.45712 -2.32104 0
M  V30 792 H 74.9589 -2.27526 -4.83876 0
M  V30 793 H 75.3019 -0.731116 -4.0983 0
M  V30 794 H 75.8349 -2.22818 -3.2954 0
M  V30 795 H 72.5739 -5.11648 -4.09752 0
M  V30 796 H 72.0939 -3.5653 -4.82334 0
M  V30 797 H 73.7729 -4.141 -4.97122 0
M  V30 798 N 73.905 1.17692 -1.04816 0
M  V30 799 C 74.868 2.19787 -0.650117 0
M  V30 800 C 75.868 1.58044 0.296427 0
M  V30 801 O 77.058 1.74012 0.0808097 0
M  V30 802 C 74.19 3.40869 0.0456987 0
M  V30 803 H 75.383 2.56516 -1.5537 0
M  V30 804 H 72.936 1.31708 -0.841594 0
M  V30 805 H 73.671 3.09681 0.962726 0
M  V30 806 H 73.456 3.86928 -0.634727 0
M  V30 807 H 74.946 4.16445 0.310432 0
M  V30 808 N 75.3831 0.828654 1.34056 0
M  V30 809 C 76.6601 0.341809 1.9259 0
M  V30 810 C 77.0401 -1.17158 1.75605 0
M  V30 811 O 76.3881 -1.98132 1.13824 0
M  V30 812 C 76.5981 0.777453 3.4023 0
M  V30 813 C 77.9461 0.779579 4.17382 0
M  V30 814 O 78.9701 0.7204 3.48839 0
M  V30 815 O 77.8291 0.857996 5.39723 0
M  V30 816 H 74.9231 0.0946085 0.821571 0
M  V30 817 H 77.4691 0.913827 1.42994 0
M  V30 818 H 76.2411 1.8196 3.46419 0
M  V30 819 H 75.8641 0.181444 3.97186 0
M  V30 820 N 76.8612 -1.46375 0.584142 0
M  V30 821 C 77.8242 -2.28784 -0.138108 0
M  V30 822 C 78.8242 -1.38471 -0.817462 0
M  V30 823 O 80.0142 -1.60833 -0.669199 0
M  V30 824 C 77.1462 -3.18892 -1.20503 0
M  V30 825 H 78.3392 -2.94117 0.586127 0
M  V30 826 H 75.8922 -1.52509 0.342171 0
M  V30 827 H 76.6272 -2.58309 -1.96079 0
M  V30 828 H 76.4122 -3.85388 -0.722384 0
M  V30 829 H 77.9022 -3.80914 -1.71155 0
M  V30 830 N 78.3393 -0.321999 -1.54275 0
M  V30 831 C 79.7553 0.0306999 -1.5957 0
M  V30 832 C 79.9553 1.50614 -1.33857 0
M  V30 833 O 79.0113 2.2619 -1.12223 0
M  V30 834 C 80.3243 -0.386122 -2.98211 0
M  V30 835 C 81.8723 -0.336647 -3.11184 0
M  V30 836 C 82.3473 -0.728607 -4.52167 0
M  V30 837 N 83.8383 -0.681952 -4.58152 0
M  V30 838 C 84.5733 -0.957449 -5.6535 0
M  V30 839 N 84.0693 -1.3 -6.80494 0
M  V30 840 N 85.8623 -0.883113 -5.55119 0
M  V30 841 H 78.0133 -1.28332 -1.69247 0
M  V30 842 H 80.2763 -0.521716 -0.791528 0
M  V30 843 H 79.9823 -1.41404 -3.22022 0
M  V30 844 H 79.8563 0.249662 -3.76373 0
M  V30 845 H 82.2433 0.682058 -2.8711 0
M  V30 846 H 82.3243 -1.00734 -2.3513 0
M  V30 847 H 81.9683 -1.74522 -4.76974 0
M  V30 848 H 81.8983 -0.0356152 -5.26588 0
M  V30 849 H 84.3893 -0.428985 -3.75457 0
M  V30 850 H 84.7023 -1.49563 -7.58189 0
M  V30 851 H 83.0473 -1.33824 -6.81994 0
M  V30 852 H 86.2383 -0.615001 -4.64042 0
M  V30 853 H 86.4113 -1.10118 -6.38575 0
M  V30 854 N 79.8174 1.5752 -0.0501392 0
M  V30 855 C 81.0474 1.96678 0.632573 0
M  V30 856 C 81.4554 0.926298 1.64974 0
M  V30 857 O 80.7984 -0.09802 1.83438 0
M  V30 858 C 80.8604 3.32068 1.37735 0
M  V30 859 C 80.5244 4.54076 0.516131 0
M  V30 860 C 81.5214 5.19445 -0.217357 0
M  V30 861 C 79.2064 5.00304 0.44736 0
M  V30 862 C 81.2004 6.29378 -1.00807 0
M  V30 863 C 78.8874 6.10114 -0.347038 0
M  V30 864 C 79.8854 6.74512 -1.07344 0
M  V30 865 O 79.5734 7.82211 -1.85477 0
M  V30 866 H 79.3054 0.652193 0.177821 0
M  V30 867 H 81.8594 2.05091 -0.112543 0
M  V30 868 H 80.0894 3.20206 2.16807 0
M  V30 869 H 81.7784 3.55981 1.95019 0
M  V30 870 H 82.5444 4.84689 -0.173688 0
M  V30 871 H 78.4234 4.49971 1.00235 0
M  V30 872 H 81.9674 6.79575 -1.57556 0
M  V30 873 H 77.8644 6.44307 -0.392349 0
M  V30 874 H 78.6324 7.98982 -1.77678 0
M  V30 875 N 81.2955 -0.223234 1.56011 0
M  V30 876 C 82.2055 -1.29766 1.95443 0
M  V30 877 C 83.2215 -1.51373 0.858028 0
M  V30 878 O 84.3975 -1.64536 1.16146 0
M  V30 879 C 81.4625 -2.62772 2.26167 0
M  V30 880 C 80.5235 -2.49482 3.49367 0
M  V30 881 C 79.7565 -3.76145 3.78616 0
M  V30 882 O 79.9795 -4.79087 3.09568 0
M  V30 883 O 78.9135 -3.73358 4.72109 0
M  V30 884 H 82.7395 -0.99309 2.87004 0
M  V30 885 H 80.3245 -0.425958 1.43199 0
M  V30 886 H 82.2065 -3.41327 2.47131 0
M  V30 887 H 80.8815 -2.92913 1.37781 0
M  V30 888 H 79.7885 -1.69133 3.33684 0
M  V30 889 H 81.1215 -2.2428 4.38131 0
M  V30 890 N 82.7736 -1.49793 -0.48987 0
M  V30 891 C 84.0016 -1.63568 -1.26701 0
M  V30 892 C 84.4166 -0.311465 -1.86213 0
M  V30 893 O 83.7736 0.704416 -1.68357 0
M  V30 894 C 83.8246 -2.71284 -2.38929 0
M  V30 895 O 83.5456 -3.9857 -1.81861 0
M  V30 896 C 85.0466 -2.95864 -3.3012 0
M  V30 897 H 82.2666 -0.550342 -0.383881 0
M  V30 898 H 84.8106 -1.95898 -0.586864 0
M  V30 899 H 82.9656 -2.417 -3.02753 0
M  V30 900 H 83.3796 -4.57993 -2.55622 0
M  V30 901 H 84.8536 -3.74941 -4.05121 0
M  V30 902 H 85.3306 -2.06206 -3.87783 0
M  V30 903 H 85.9366 -3.26907 -2.72051 0
M  V30 904 N 84.2517 0.741722 -1.39055 0
M  V30 905 C 85.4767 1.53607 -1.39354 0
M  V30 906 C 85.9017 1.88096 0.0116905 0
M  V30 907 O 85.2597 1.5143 0.996924 0
M  V30 908 C 85.3077 2.80441 -2.26682 0
M  V30 909 O 84.4117 3.76088 -1.69208 0
M  V30 910 H 83.7527 0.464142 -0.474835 0
M  V30 911 H 86.2827 0.915665 -1.82967 0
M  V30 912 H 86.2927 3.29246 -2.40959 0
M  V30 913 H 84.9677 2.5467 -3.2881 0
M  V30 914 H 83.5447 3.34833 -1.64138 0
M  V30 915 N 85.7298 1.2412 0.971189 0
M  V30 916 C 86.6778 1.02812 2.08644 0
M  V30 917 C 87.6718 -0.0358403 1.69362 0
M  V30 918 O 88.8778 0.118429 1.7961 0
M  V30 919 H 85.2528 0.315428 0.682649 0
M  V30 920 H 87.2238 1.97397 2.23779 0
M  V30 921 C 85.9728 0.645874 3.41649 0
M  V30 922 H 85.2958 1.45632 3.72332 0
M  V30 923 H 86.7358 0.536366 4.20594 0
M  V30 924 C 85.1948 -0.646713 3.30635 0
M  V30 925 O 85.7248 -1.69338 3.64263 0
M  V30 926 N 83.9308 -0.626115 2.83775 0
M  V30 927 H 83.4778 0.225988 2.56607 0
M  V30 928 H 83.4358 -1.49117 2.76788 0
M  V30 929 N 87.2079 -1.17134 1.05439 0
M  V30 930 C 88.4849 -1.83411 0.679699 0
M  V30 931 C 88.8649 -1.9368 -0.839726 0
M  V30 932 O 88.2129 -1.47325 -1.74664 0
M  V30 933 C 88.4229 -3.20918 1.37159 0
M  V30 934 C 89.7709 -3.96796 1.51123 0
M  V30 935 O 90.7949 -3.30406 1.3308 0
M  V30 936 O 89.6539 -5.15778 1.80651 0
M  V30 937 H 86.7479 -0.79154 0.239569 0
M  V30 938 H 89.2939 -1.24411 1.15413 0
M  V30 939 H 88.0659 -3.08428 2.40807 0
M  V30 940 H 87.6889 -3.87587 0.886674 0
M  V30 941 N 88.686 -0.835752 -1.33615 0
M  V30 942 C 89.634 -0.255238 -2.31195 0
M  V30 943 C 90.628 0.61107 -1.57995 0
M  V30 944 O 91.834 0.500979 -1.72888 0
M  V30 945 H 88.209 -0.0638085 -0.749288 0
M  V30 946 H 90.18 -1.09283 -2.77669 0
M  V30 947 C 88.929 0.55754 -3.43201 0
M  V30 948 H 88.252 -0.0997553 -3.99676 0
M  V30 949 H 89.692 0.929622 -4.13683 0
M  V30 950 C 88.151 1.73515 -2.88781 0
M  V30 951 O 88.681 2.83376 -2.84712 0
M  V30 952 N 86.887 1.55603 -2.4543 0
M  V30 953 H 86.434 0.662354 -2.48939 0
M  V30 954 H 86.392 2.34545 -2.09371 0
M  V30 955 N 90.1641 1.46063 -0.591896 0
M  V30 956 C 91.3891 2.07226 -0.0850314 0
M  V30 957 C 91.8141 1.43625 1.21463 0
M  V30 958 O 91.1721 0.523305 1.73583 0
M  V30 959 C 91.2201 3.60554 0.0576567 0
M  V30 960 O 90.3241 3.97128 1.11188 0
M  V30 961 H 89.6651 0.660615 -0.0669568 0
M  V30 962 H 92.1951 1.8756 -0.81745 0
M  V30 963 H 92.2051 4.07165 0.2609 0
M  V30 964 H 90.8801 4.06235 -0.891416 0
M  V30 965 H 89.4571 3.62213 0.886356 0
M  V30 966 N 91.6422 0.330177 1.54103 0
M  V30 967 C 92.5722 -0.525353 2.27513 0
M  V30 968 C 93.5532 -1.11383 1.2856 0
M  V30 969 O 94.7382 -1.13773 1.57383 0
M  V30 970 C 91.8682 -1.6831 3.03791 0
M  V30 971 C 90.8222 -1.2236 4.10137 0
M  V30 972 C 90.1482 -2.46882 4.74293 0
M  V30 973 C 91.4482 -0.333697 5.21233 0
M  V30 974 H 93.1422 0.087013 2.99274 0
M  V30 975 H 90.6882 0.0432893 1.43935 0
M  V30 976 H 92.6412 -2.28795 3.5388 0
M  V30 977 H 91.3652 -2.32216 2.29659 0
M  V30 978 H 90.0242 -0.64165 3.60941 0
M  V30 979 H 89.6722 -3.09165 3.96769 0
M  V30 980 H 89.3722 -2.16825 5.46133 0
M  V30 981 H 90.8962 -3.08117 5.27159 0
M  V30 982 H 92.3102 -0.845013 5.67038 0
M  V30 983 H 90.7072 -0.125612 5.99969 0
M  V30 984 H 91.7772 0.633724 4.80741 0
M  V30 985 N 93.1203 -1.57491 0.0584922 0
M  V30 986 C 94.3693 -1.92155 -0.613146 0
M  V30 987 C 94.6823 -0.939334 -1.71569 0
M  V30 988 O 95.8883 -1.17829 -2.44599 0
M  V30 989 C 94.3443 -3.41303 -1.14195 0
M  V30 990 C 93.9523 -4.47944 -0.0711265 0
M  V30 991 C 95.6963 -3.84988 -1.78841 0
M  V30 992 C 93.6033 -5.88212 -0.613225 0
M  V30 993 H 92.5333 -0.717162 -0.232796 0
M  V30 994 H 95.1843 -1.83049 0.12857 0
M  V30 995 H 93.5663 -3.45437 -1.93621 0
M  V30 996 H 94.7403 -4.55408 0.702836 0
M  V30 997 H 93.0553 -4.13644 0.478313 0
M  V30 998 H 95.6523 -4.87159 -2.20408 0
M  V30 999 H 95.9953 -3.21632 -2.64308 0
M  V30 1000 H 96.5283 -3.83401 -1.06059 0
M  V30 1001 H 93.2673 -6.55183 0.203978 0
M  V30 1002 H 92.7873 -5.84294 -1.35501 0
M  V30 1003 H 94.4663 -6.37687 -1.09383 0
M  V30 1004 N 94.5984 0.214957 -1.56127 0
M  V30 1005 C 95.8754 0.963093 -1.70247 0
M  V30 1006 C 96.2554 2.02166 -0.60764 0
M  V30 1007 O 95.6034 2.25244 0.384385 0
M  V30 1008 C 95.8134 1.56756 -3.11815 0
M  V30 1009 C 97.1614 2.0573 -3.7143 0
M  V30 1010 O 98.1854 1.66637 -3.14818 0
M  V30 1011 O 97.0444 2.77603 -4.70743 0
M  V30 1012 H 94.1384 0.450321 -0.693643 0
M  V30 1013 H 96.6844 0.206219 -1.68442 0
M  V30 1014 H 95.4564 0.803533 -3.82961 0
M  V30 1015 H 95.0794 2.3898 -3.17765 0
M  V30 1016 N 96.0765 1.50051 0.48192 0
M  V30 1017 C 97.3045 1.64237 1.25832 0
M  V30 1018 C 97.7195 0.321336 1.86045 0
M  V30 1019 O 97.0765 -0.695478 1.68729 0
M  V30 1020 C 97.1275 2.72548 2.37487 0
M  V30 1021 O 96.8485 3.99529 1.79745 0
M  V30 1022 C 98.3495 2.9761 3.28547 0
M  V30 1023 H 95.5695 0.55237 0.380957 0
M  V30 1024 H 98.1135 1.96207 0.576467 0
M  V30 1025 H 96.2685 2.43303 3.01467 0
M  V30 1026 H 96.6825 4.59342 2.5319 0
M  V30 1027 H 98.1565 3.77084 4.03127 0
M  V30 1028 H 98.6335 2.0826 3.86684 0
M  V30 1029 H 99.2395 3.28345 2.70314 0
M  V30 1030 N 97.5546 -0.734337 1.39446 0
M  V30 1031 C 98.8006 -1.49613 1.36908 0
M  V30 1032 C 99.1336 -1.94169 -0.0347829 0
M  V30 1033 O 98.4086 -1.66833 -0.999847 0
M  V30 1034 C 98.6916 -2.73534 2.34203 0
M  V30 1035 C 98.5446 -2.34993 3.83534 0
M  V30 1036 C 99.8636 -3.75635 2.29317 0
M  V30 1037 H 96.9826 -0.542714 0.498629 0
M  V30 1038 H 99.6246 -0.839597 1.70443 0
M  V30 1039 H 97.7746 -3.29553 2.05736 0
M  V30 1040 H 99.4466 -1.84601 4.22753 0
M  V30 1041 H 97.6896 -1.67213 4.00278 0
M  V30 1042 H 98.3606 -3.23738 4.47099 0
M  V30 1043 H 100.837 -3.29203 2.54489 0
M  V30 1044 H 99.7126 -4.60008 2.99472 0
M  V30 1045 H 99.9736 -4.22603 1.29842 0
M  V30 1046 N 99.0327 -1.24633 -0.964593 0
M  V30 1047 C 99.9957 -1.0424 -2.04124 0
M  V30 1048 C 100.996 0.00137563 -1.608 0
M  V30 1049 O 102.186 -0.239883 -1.7254 0
M  V30 1050 C 99.3177 -0.580588 -3.3592 0
M  V30 1051 H 100.511 -1.99803 -2.23649 0
M  V30 1052 H 98.0637 -1.06899 -1.14027 0
M  V30 1053 H 98.7987 0.3781 -3.22088 0
M  V30 1054 H 98.5837 -1.33398 -3.6871 0
M  V30 1055 H 100.074 -0.459034 -4.15069 0
M  V30 1056 N 100.511 1.16574 -1.06058 0
M  V30 1057 C 101.458 2.20883 -0.669263 0
M  V30 1058 C 102.428 1.62729 0.332918 0
M  V30 1059 O 103.613 1.895 0.222346 0
M  V30 1060 C 100.753 3.45049 -0.0593572 0
M  V30 1061 C 99.8658 4.17458 -1.11143 0
M  V30 1062 C 99.0008 5.29135 -0.467916 0
M  V30 1063 C 98.0398 5.93343 -1.50369 0
M  V30 1064 N 97.1768 6.96516 -0.883706 0
M  V30 1065 H 102.017 2.53709 -1.5632 0
M  V30 1066 H 99.5538 1.24616 -0.781625 0
M  V30 1067 H 101.512 4.16033 0.311771 0
M  V30 1068 H 100.142 3.12781 0.797992 0
M  V30 1069 H 99.1938 3.45101 -1.60029 0
M  V30 1070 H 100.506 4.61307 -1.89731 0
M  V30 1071 H 99.6598 6.06684 -0.0436871 0
M  V30 1072 H 98.3988 4.86443 0.349864 0
M  V30 1073 H 97.4038 5.14517 -1.93784 0
M  V30 1074 H 98.6288 6.38114 -2.32352 0
M  V30 1075 H 96.5748 6.55943 -0.086595 0
M  V30 1076 H 96.4918 7.38723 -1.607 0
M  V30 1077 H 97.7598 7.77993 -0.484543 0
M  V30 1078 N 101.989 0.842826 1.3317 0
M  V30 1079 C 103.219 0.453397 2.01564 0
M  V30 1080 C 103.627 -0.951147 1.63554 0
M  V30 1081 O 102.97 -1.63021 0.846746 0
M  V30 1082 C 103.032 0.499013 3.5602 0
M  V30 1083 C 102.696 1.86037 4.1742 0
M  V30 1084 C 103.693 2.82416 4.36506 0
M  V30 1085 C 101.378 2.15428 4.53757 0
M  V30 1086 C 103.372 4.06346 4.91082 0
M  V30 1087 C 101.059 3.39615 5.0804 0
M  V30 1088 C 102.057 4.3489 5.26649 0
M  V30 1089 O 101.745 5.5688 5.79776 0
M  V30 1090 H 101.477 0.177871 0.652179 0
M  V30 1091 H 104.031 1.13808 1.70988 0
M  V30 1092 H 102.261 -0.242467 3.85939 0
M  V30 1093 H 103.95 0.126852 4.05702 0
M  V30 1094 H 104.716 2.6101 4.08777 0
M  V30 1095 H 100.595 1.42061 4.38565 0
M  V30 1096 H 104.139 4.80722 5.05522 0
M  V30 1097 H 100.036 3.60876 5.352 0
M  V30 1098 H 100.804 5.58674 5.98185 0
M  V30 1099 N 103.467 -1.45747 0.599634 0
M  V30 1100 C 104.692 -2.07178 0.0960198 0
M  V30 1101 C 105.117 -1.44268 -1.207 0
M  V30 1102 O 104.475 -0.532503 -1.73303 0
M  V30 1103 C 104.523 -3.60579 -0.0385348 0
M  V30 1104 O 103.627 -3.97713 -1.0908 0
M  V30 1105 H 102.968 -0.660251 0.0704593 0
M  V30 1106 H 105.498 -1.87124 0.827385 0
M  V30 1107 H 105.508 -4.07298 -0.239304 0
M  V30 1108 H 104.183 -4.05756 0.912947 0
M  V30 1109 H 102.76 -3.62678 -0.867135 0
M  V30 1110 N 104.945 -0.338344 -1.53925 0
M  V30 1111 C 106.191 0.260143 -2.01125 0
M  V30 1112 C 106.524 1.50617 -1.22589 0
M  V30 1113 O 105.799 1.91979 -0.312113 0
M  V30 1114 C 106.082 0.579499 -3.55407 0
M  V30 1115 C 105.935 -0.678264 -4.44657 0
M  V30 1116 C 107.254 1.39122 -4.17532 0
M  V30 1117 H 104.373 0.0930772 -0.731099 0
M  V30 1118 H 107.015 -0.457852 -1.84401 0
M  V30 1119 H 105.165 1.19118 -3.69788 0
M  V30 1120 H 106.837 -1.31631 -4.42121 0
M  V30 1121 H 105.08 -1.3042 -4.13731 0
M  V30 1122 H 105.751 -0.410143 -5.50474 0
M  V30 1123 H 108.227 0.874035 -4.06817 0
M  V30 1124 H 107.103 1.58342 -5.25565 0
M  V30 1125 H 107.364 2.39178 -3.71815 0
M  V30 1126 N 106.423 1.57458 -0.0668435 0
M  V30 1127 C 107.7 1.8469 0.644132 0
M  V30 1128 C 108.08 0.958343 1.88093 0
M  V30 1129 O 107.428 0.0233579 2.28488 0
M  V30 1130 C 107.638 3.34767 0.986509 0
M  V30 1131 C 108.986 4.02159 1.36212 0
M  V30 1132 O 110.01 3.39484 1.07839 0
M  V30 1133 O 108.869 5.12694 1.89227 0
M  V30 1134 H 105.963 0.762816 0.319437 0
M  V30 1135 H 108.509 1.6942 -0.0973986 0
M  V30 1136 H 107.281 3.91151 0.107883 0
M  V30 1137 H 106.904 3.55281 1.78497 0
M  V30 1138 N 107.901 -0.206675 1.56239 0
M  V30 1139 C 109.178 -0.954051 1.70755 0
M  V30 1140 C 109.558 -2.01841 0.618353 0
M  V30 1141 O 108.906 -2.25444 -0.372434 0
M  V30 1142 C 109.116 -1.551 3.12642 0
M  V30 1143 C 110.464 -2.03757 3.72516 0
M  V30 1144 O 111.488 -1.64965 3.15698 0
M  V30 1145 O 110.347 -2.75103 4.72208 0
M  V30 1146 H 107.441 -0.446636 0.696021 0
M  V30 1147 H 109.987 -0.197283 1.68549 0
M  V30 1148 H 108.759 -0.783212 3.83382 0
M  V30 1149 H 108.382 -2.37291 3.19028 0
M  V30 1150 N 109.379 -1.50304 -0.473955 0
M  V30 1151 C 110.627 -1.60832 -1.22382 0
M  V30 1152 C 110.948 -0.30939 -1.9253 0
M  V30 1153 O 110.218 0.67296 -1.83978 0
M  V30 1154 H 108.798 -0.592652 -0.454723 0
M  V30 1155 H 111.46 -1.87068 -0.546968 0
M  V30 1156 H 110.556 -2.41803 -1.97327 0
M  V30 1157 N 110.857 0.726932 -1.39834 0
M  V30 1158 C 111.767 1.87131 -1.41489 0
M  V30 1159 C 112.783 1.71239 -0.308757 0
M  V30 1160 O 113.959 1.93701 -0.551529 0
M  V30 1161 C 111.024 3.22811 -1.26468 0
M  V30 1162 C 110.085 3.51039 -2.47124 0
M  V30 1163 C 109.318 4.80245 -2.3281 0
M  V30 1164 O 109.541 5.54537 -1.33585 0
M  V30 1165 O 108.475 5.08554 -3.21957 0
M  V30 1166 H 112.301 1.8869 -2.3797 0
M  V30 1167 H 109.886 0.875837 -1.21035 0
M  V30 1168 H 111.768 4.03877 -1.20255 0
M  V30 1169 H 110.443 3.22005 -0.330862 0
M  V30 1170 H 109.35 2.70027 -2.58914 0
M  V30 1171 H 110.683 3.56632 -3.39227 0
M  V30 1172 N 112.336 1.25143 0.95797 0
M  V30 1173 C 113.564 1.12424 1.73691 0
M  V30 1174 C 113.979 -0.322304 1.86029 0
M  V30 1175 O 113.336 -1.22186 1.35561 0
M  V30 1176 C 113.387 1.76933 3.15241 0
M  V30 1177 O 113.108 3.15932 3.03511 0
M  V30 1178 C 114.609 1.6995 4.09429 0
M  V30 1179 H 111.829 0.3923 0.544373 0
M  V30 1180 H 114.373 1.6544 1.20207 0
M  V30 1181 H 112.528 1.27895 3.6568 0
M  V30 1182 H 112.942 3.47598 3.9278 0
M  V30 1183 H 114.416 2.19753 5.06372 0
M  V30 1184 H 114.893 0.662619 4.34173 0
M  V30 1185 H 115.499 2.18461 3.64904 0
M  V30 1186 N 113.814 -1.1601 1.06675 0
M  V30 1187 C 115.06 -1.87145 0.796766 0
M  V30 1188 C 115.415 -1.8037 -0.669658 0
M  V30 1189 O 114.708 -1.21116 -1.48463 0
M  V30 1190 C 114.902 -3.35547 1.23057 0
M  V30 1191 C 114.731 -3.56769 2.73762 0
M  V30 1192 C 113.501 -3.72635 3.41279 0
M  V30 1193 C 115.699 -3.55166 3.7197 0
M  V30 1194 N 113.681 -3.81845 4.80695 0
M  V30 1195 C 115.052 -3.70406 4.97191 0
M  V30 1196 C 117.107 -3.384 3.65226 0
M  V30 1197 C 115.81 -3.70615 6.16471 0
M  V30 1198 C 117.836 -3.39904 4.83962 0
M  V30 1199 C 117.198 -3.55667 6.08013 0
M  V30 1200 H 113.297 -0.702267 0.344014 0
M  V30 1201 H 115.881 -1.39165 1.36166 0
M  V30 1202 H 114.052 -3.82159 0.693456 0
M  V30 1203 H 115.784 -3.94363 0.908844 0
M  V30 1204 H 112.539 -3.73121 2.91681 0
M  V30 1205 H 112.963 -3.90209 5.53232 0
M  V30 1206 H 117.605 -3.25138 2.70269 0
M  V30 1207 H 115.323 -3.82658 7.11757 0
M  V30 1208 H 118.909 -3.28169 4.80413 0
M  V30 1209 H 117.789 -3.56755 6.98352 0
M  V30 1210 N 115.292 -0.849877 -1.32721 0
M  V30 1211 C 116.202 -0.293791 -2.32753 0
M  V30 1212 C 117.218 0.585906 -1.63839 0
M  V30 1213 O 118.394 0.487413 -1.95413 0
M  V30 1214 C 115.459 0.512752 -3.42887 0
M  V30 1215 C 114.52 -0.39252 -4.27502 0
M  V30 1216 C 113.753 0.375625 -5.32377 0
M  V30 1217 O 113.976 1.60613 -5.4732 0
M  V30 1218 O 112.91 -0.256094 -6.01355 0
M  V30 1219 H 116.736 -1.12242 -2.82197 0
M  V30 1220 H 114.321 -0.612685 -1.36259 0
M  V30 1221 H 116.203 0.970704 -4.10067 0
M  V30 1222 H 114.878 1.31826 -2.95641 0
M  V30 1223 H 113.785 -0.898547 -3.63149 0
M  V30 1224 H 115.118 -1.16309 -4.7826 0
M  V30 1225 N 116.77 1.45427 -0.607355 0
M  V30 1226 C 117.998 2.06614 -0.108814 0
M  V30 1227 C 118.413 1.45204 1.2067 0
M  V30 1228 O 117.77 0.566132 1.73497 0
M  V30 1229 C 117.821 3.61481 0.0375347 0
M  V30 1230 O 117.542 4.20598 -1.22593 0
M  V30 1231 C 119.043 4.39652 0.567561 0
M  V30 1232 H 116.263 0.66747 -0.0687351 0
M  V30 1233 H 118.807 1.86675 -0.835022 0
M  V30 1234 H 116.962 3.80762 0.714068 0
M  V30 1235 H 117.376 5.1377 -1.05547 0
M  V30 1236 H 118.85 5.48518 0.61905 0
M  V30 1237 H 119.327 4.09417 1.58978 0
M  V30 1238 H 119.933 4.25234 -0.0749202 0
M  V30 1239 N 118.248 0.346503 1.53744 0
M  V30 1240 C 119.18 -0.543316 2.22667 0
M  V30 1241 C 120.193 -1.06159 1.23427 0
M  V30 1242 O 121.382 -0.971235 1.49764 0
M  V30 1243 C 118.482 -1.76076 2.89569 0
M  V30 1244 C 117.655 -1.37727 4.15151 0
M  V30 1245 C 116.714 -2.45471 4.65436 0
M  V30 1246 O 115.74 -2.08655 5.29577 0
M  V30 1247 N 116.942 -3.7677 4.41616 0
M  V30 1248 H 119.707 0.0469703 2.99663 0
M  V30 1249 H 117.268 0.170766 1.60997 0
M  V30 1250 H 119.26 -2.47593 3.20125 0
M  V30 1251 H 117.83 -2.25835 2.16142 0
M  V30 1252 H 117.05 -0.492746 3.91108 0
M  V30 1253 H 118.338 -1.09708 4.96832 0
M  V30 1254 H 117.736 -4.09467 3.90325 0
M  V30 1255 H 116.293 -4.44448 4.7677 0
M  V30 1256 N 119.726 -1.57421 0.075193 0
M  V30 1257 C 120.975 -1.92794 -0.592731 0
M  V30 1258 C 121.288 -0.957478 -1.70563 0
M  V30 1259 O 122.494 -1.20417 -2.43335 0
M  V30 1260 C 120.95 -3.42495 -1.10569 0
M  V30 1261 C 120.558 -4.47994 -0.0236121 0
M  V30 1262 C 122.302 -3.86864 -1.74748 0
M  V30 1263 C 120.209 -5.88829 -0.550803 0
M  V30 1264 H 119.139 -0.719591 -0.225177 0
M  V30 1265 H 121.79 -1.82902 0.147978 0
M  V30 1266 H 120.172 -3.47471 -1.89947 0
M  V30 1267 H 121.346 -4.54637 0.751099 0
M  V30 1268 H 119.661 -4.13113 0.522159 0
M  V30 1269 H 122.258 -4.8947 -2.15229 0
M  V30 1270 H 122.601 -3.24417 -2.60882 0
M  V30 1271 H 123.134 -3.84504 -1.01986 0
M  V30 1272 H 119.873 -6.54929 0.273457 0
M  V30 1273 H 119.393 -5.85698 -1.29296 0
M  V30 1274 H 121.072 -6.38811 -1.02613 0
M  V30 1275 N 121.204 0.198386 -1.56346 0
M  V30 1276 C 122.167 1.22952 -1.93431 0
M  V30 1277 C 123.167 1.38611 -0.815092 0
M  V30 1278 O 124.357 1.36479 -1.08255 0
M  V30 1279 C 121.489 2.59946 -2.20546 0
M  V30 1280 H 122.682 0.912626 -2.85677 0
M  V30 1281 H 120.235 0.43977 -1.49986 0
M  V30 1282 H 120.97 2.96696 -1.30927 0
M  V30 1283 H 120.755 2.49953 -3.02102 0
M  V30 1284 H 122.245 3.3431 -2.50253 0
M  V30 1285 N 122.682 1.50554 0.465978 0
M  V30 1286 C 123.931 1.61038 1.21448 0
M  V30 1287 C 124.244 0.31865 1.92987 0
M  V30 1288 O 125.45 0.302469 2.6981 0
M  V30 1289 C 123.906 2.84283 2.20706 0
M  V30 1290 C 123.514 4.20352 1.54946 0
M  V30 1291 C 125.258 3.04115 2.96166 0
M  V30 1292 C 123.165 5.34778 2.5252 0
M  V30 1293 H 122.095 0.599718 0.457005 0
M  V30 1294 H 124.746 1.7699 0.484424 0
M  V30 1295 H 123.128 2.61901 2.97025 0
M  V30 1296 H 124.302 4.53008 0.843811 0
M  V30 1297 H 122.617 4.06167 0.917475 0
M  V30 1298 H 125.214 3.86774 3.69202 0
M  V30 1299 H 125.557 2.16045 3.55852 0
M  V30 1300 H 126.09 3.26702 2.26959 0
M  V30 1301 H 122.829 6.25018 1.97566 0
M  V30 1302 H 122.349 5.06534 3.21222 0
M  V30 1303 H 124.028 5.65561 3.14245 0
M  V30 1304 N 124.16 -0.719506 1.40217 0
M  V30 1305 C 125.107 -1.83359 1.40172 0
M  V30 1306 C 126.077 -1.64065 0.259206 0
M  V30 1307 O 127.262 -1.85254 0.456677 0
M  V30 1308 C 124.402 -3.2103 1.26624 0
M  V30 1309 C 123.515 -3.51923 2.50548 0
M  V30 1310 C 122.65 -4.79079 2.29471 0
M  V30 1311 C 121.689 -5.02863 3.48992 0
M  V30 1312 N 120.826 -6.2123 3.27135 0
M  V30 1313 H 125.666 -1.82733 2.35399 0
M  V30 1314 H 123.203 -0.892688 1.16917 0
M  V30 1315 H 125.161 -4.00524 1.16776 0
M  V30 1316 H 123.791 -3.20895 0.350176 0
M  V30 1317 H 122.843 -2.67014 2.70939 0
M  V30 1318 H 124.155 -3.6541 3.39525 0
M  V30 1319 H 123.309 -5.66582 2.16955 0
M  V30 1320 H 122.048 -4.67794 1.37913 0
M  V30 1321 H 121.053 -4.13816 3.6199 0
M  V30 1322 H 122.278 -5.16023 4.41472 0
M  V30 1323 H 120.224 -6.11204 2.38256 0
M  V30 1324 H 120.141 -6.35375 4.09675 0
M  V30 1325 H 121.409 -7.11532 3.18344 0
M  V30 1326 N 125.638 -1.25649 -0.95132 0
M  V30 1327 C 126.586 -1.06118 -2.06982 0
M  V30 1328 C 127.58 0.00889169 -1.69398 0
M  V30 1329 O 128.786 -0.146988 -1.79399 0
M  V30 1330 H 125.161 -0.326248 -0.677544 0
M  V30 1331 H 127.132 -2.00932 -2.2061 0
M  V30 1332 C 125.881 -0.700145 -3.40578 0
M  V30 1333 H 125.204 -1.51537 -3.69968 0
M  V30 1334 H 126.644 -0.603211 -4.19687 0
M  V30 1335 C 125.103 0.59403 -3.31622 0
M  V30 1336 O 125.633 1.63522 -3.66911 0
M  V30 1337 N 123.839 0.58089 -2.84735 0
M  V30 1338 H 123.386 -0.266783 -2.56215 0
M  V30 1339 H 123.344 1.44695 -2.79125 0
M  V30 1340 N 127.117 1.15442 -1.07289 0
M  V30 1341 C 128.342 1.90638 -0.816828 0
M  V30 1342 C 128.767 1.77445 0.624083 0
M  V30 1343 O 128.125 1.10671 1.43602 0
M  V30 1344 C 128.173 3.39008 -1.22906 0
M  V30 1345 O 127.277 4.10701 -0.373975 0
M  V30 1346 H 126.618 0.593555 -0.297638 0
M  V30 1347 H 129.148 1.46198 -1.43134 0
M  V30 1348 H 129.158 3.89801 -1.20497 0
M  V30 1349 H 127.833 3.47929 -2.27856 0
M  V30 1350 H 126.41 3.70046 -0.460499 0
M  V30 1351 N 128.595 0.856903 1.32268 0
M  V30 1352 C 130.011 0.547061 1.49931 0
M  V30 1353 C 130.211 -0.921781 1.7918 0
M  V30 1354 O 129.267 -1.70469 1.8627 0
M  V30 1355 C 130.58 1.43599 2.64196 0
M  V30 1356 C 132.128 1.43665 2.78081 0
M  V30 1357 C 132.603 2.31085 3.95428 0
M  V30 1358 N 134.094 2.28893 4.02694 0
M  V30 1359 C 134.829 2.93262 4.92732 0
M  V30 1360 N 134.325 3.66751 5.87763 0
M  V30 1361 N 136.118 2.82638 4.85873 0
M  V30 1362 H 128.269 1.8075 1.11549 0
M  V30 1363 H 130.532 0.772144 0.549997 0
M  V30 1364 H 130.238 2.48058 2.49319 0
M  V30 1365 H 130.112 1.12502 3.60032 0
M  V30 1366 H 132.499 0.399701 2.92381 0
M  V30 1367 H 132.58 1.7878 1.82952 0
M  V30 1368 H 132.224 3.34849 3.81888 0
M  V30 1369 H 132.154 1.93302 4.89839 0
M  V30 1370 H 134.645 1.75466 3.34694 0
M  V30 1371 H 134.958 4.13027 6.53168 0
M  V30 1372 H 133.303 3.70859 5.87783 0
M  V30 1373 H 136.494 2.24774 4.10602 0
M  V30 1374 H 136.667 3.33084 5.55841 0
M  V30 1375 N 130.073 -1.45103 0.615059 0
M  V30 1376 C 131.036 -2.29025 -0.0895485 0
M  V30 1377 C 132.036 -1.40174 -0.787906 0
M  V30 1378 O 133.226 -1.62217 -0.634933 0
M  V30 1379 C 130.358 -3.21376 -1.13711 0
M  V30 1380 H 131.551 -2.92807 0.648382 0
M  V30 1381 H 129.104 -1.51749 0.374444 0
M  V30 1382 H 129.839 -2.6241 -1.90556 0
M  V30 1383 H 129.624 -3.86834 -0.640475 0
M  V30 1384 H 131.114 -3.84459 -1.63036 0
M  V30 1385 N 131.551 -0.354651 -1.53558 0
M  V30 1386 C 132.776 0.242153 -2.05981 0
M  V30 1387 C 133.201 1.42553 -1.2272 0
M  V30 1388 O 132.559 1.79656 -0.243604 0
M  V30 1389 C 132.607 0.624367 -3.55154 0
M  V30 1390 O 131.711 1.72301 -3.74681 0
M  V30 1391 H 131.052 0.0378432 -0.662921 0
M  V30 1392 H 133.582 -0.512087 -1.98088 0
M  V30 1393 H 133.592 0.898433 -3.97985 0
M  V30 1394 H 132.267 -0.240989 -4.15201 0
M  V30 1395 H 130.844 1.44535 -3.4375 0
M  V30 1396 N 133.029 1.57378 -0.0835403 0
M  V30 1397 C 134.254 1.98682 0.594987 0
M  V30 1398 C 134.679 0.961969 1.61641 0
M  V30 1399 O 134.037 -0.0709989 1.81161 0
M  V30 1400 C 134.085 3.38988 1.2296 0
M  V30 1401 O 133.189 3.39208 2.34546 0
M  V30 1402 H 132.53 0.646368 0.152002 0
M  V30 1403 H 135.06 2.03961 -0.161533 0
M  V30 1404 H 135.07 3.76431 1.57366 0
M  V30 1405 H 133.745 4.13107 0.481228 0
M  V30 1406 H 132.322 3.13548 2.01846 0
M  V30 1407 N 134.507 -0.190092 1.56449 0
M  V30 1408 C 135.753 -0.911052 1.81184 0
M  V30 1409 C 136.086 -1.82699 0.658396 0
M  V30 1410 O 135.361 -1.91491 -0.340775 0
M  V30 1411 C 135.644 -1.72297 3.16205 0
M  V30 1412 C 135.497 -0.831419 4.42049 0
M  V30 1413 C 136.816 -2.69454 3.47969 0
M  V30 1414 H 133.935 -0.32977 0.659106 0
M  V30 1415 H 136.577 -0.178169 1.89163 0
M  V30 1416 H 134.727 -2.34778 3.09534 0
M  V30 1417 H 136.399 -0.220929 4.60771 0
M  V30 1418 H 134.642 -0.138406 4.33579 0
M  V30 1419 H 135.313 -1.43461 5.33032 0
M  V30 1420 H 137.789 -2.17104 3.54972 0
M  V30 1421 H 136.665 -3.23342 4.43555 0
M  V30 1422 H 136.926 -3.48744 2.71717 0
M  V30 1423 N 135.985 -1.50799 -0.457987 0
M  V30 1424 C 137.21 -1.66496 -1.23668 0
M  V30 1425 C 137.635 -0.353288 -1.84752 0
M  V30 1426 O 136.993 0.684346 -1.67888 0
M  V30 1427 C 137.041 -2.76763 -2.3116 0
M  V30 1428 O 136.145 -2.38928 -3.36136 0
M  V30 1429 H 135.486 -0.555828 -0.363252 0
M  V30 1430 H 138.016 -1.9725 -0.543474 0
M  V30 1431 H 138.026 -3.00232 -2.76269 0
M  V30 1432 H 136.701 -3.71954 -1.86073 0
M  V30 1433 H 135.278 -2.25953 -2.96647 0
M  V30 1434 N 137.463 0.71206 -1.40597 0
M  V30 1435 C 138.879 1.02058 -1.22704 0
M  V30 1436 C 139.079 2.01228 -0.104729 0
M  V30 1437 O 138.135 2.4674 0.53624 0
M  V30 1438 C 139.448 1.56094 -2.57012 0
M  V30 1439 C 140.996 1.6806 -2.64054 0
M  V30 1440 C 141.471 2.25501 -3.9864 0
M  V30 1441 N 142.962 2.32882 -4.004 0
M  V30 1442 C 143.697 2.78317 -5.01325 0
M  V30 1443 N 143.193 3.23478 -6.12645 0
M  V30 1444 N 144.986 2.77733 -4.88693 0
M  V30 1445 H 137.137 0.0547896 -2.12329 0
M  V30 1446 H 139.4 0.0869027 -0.944008 0
M  V30 1447 H 139.106 0.906865 -3.39807 0
M  V30 1448 H 138.98 2.54564 -2.78347 0
M  V30 1449 H 141.367 2.32583 -1.81629 0
M  V30 1450 H 141.448 0.681802 -2.46546 0
M  V30 1451 H 141.092 1.61598 -4.81506 0
M  V30 1452 H 141.022 3.26102 -4.13479 0
M  V30 1453 H 143.513 2.00991 -3.20017 0
M  V30 1454 H 143.826 3.56725 -6.85542 0
M  V30 1455 H 142.171 3.21429 -6.16205 0
M  V30 1456 H 145.362 2.4179 -4.00818 0
M  V30 1457 H 145.535 3.12826 -5.67489 0
M  V30 1458 N 138.941 1.26152 0.944643 0
M  V30 1459 C 140.187 1.11657 1.69294 0
M  V30 1460 C 140.52 -0.339926 1.91202 0
M  V30 1461 O 139.795 -1.24994 1.49019 0
M  V30 1462 C 140.078 1.88236 3.06984 0
M  V30 1463 C 139.931 3.41772 2.92424 0
M  V30 1464 C 141.25 1.67343 4.07043 0
M  V30 1465 H 138.369 0.407004 0.614424 0
M  V30 1466 H 141.011 1.55106 1.09737 0
M  V30 1467 H 139.161 1.51308 3.57824 0
M  V30 1468 H 140.833 3.88433 2.48832 0
M  V30 1469 H 139.076 3.68974 2.28124 0
M  V30 1470 H 139.747 3.90579 3.90067 0
M  V30 1471 H 142.223 1.99509 3.65151 0
M  V30 1472 H 141.099 2.23346 5.01406 0
M  V30 1473 H 141.36 0.617158 4.37771 0
M  V30 1474 N 140.419 -1.14872 1.07899 0
M  V30 1475 C 141.665 -1.86064 0.806725 0
M  V30 1476 C 141.998 -1.82434 -0.665706 0
M  V30 1477 O 141.273 -1.25138 -1.48899 0
M  V30 1478 C 141.556 -3.34929 1.32267 0
M  V30 1479 C 141.409 -3.47161 2.86006 0
M  V30 1480 C 142.728 -4.29863 0.943717 0
M  V30 1481 H 139.847 -0.675591 0.294526 0
M  V30 1482 H 142.489 -1.34925 1.33773 0
M  V30 1483 H 140.639 -3.78611 0.870974 0
M  V30 1484 H 142.311 -3.12302 3.39507 0
M  V30 1485 H 140.554 -2.88539 3.23925 0
M  V30 1486 H 141.225 -4.51777 3.17177 0
M  V30 1487 H 143.701 -3.9417 1.33302 0
M  V30 1488 H 142.577 -5.32494 1.33198 0
M  V30 1489 H 142.838 -4.41846 -0.149796 0
M  V30 1490 N 141.898 -0.863906 -1.31812 0
M  V30 1491 C 143.175 -0.39275 -1.91616 0
M  V30 1492 C 143.555 1.12461 -1.7865 0
M  V30 1493 O 142.903 1.95045 -1.19037 0
M  V30 1494 C 143.113 -0.867385 -3.38049 0
M  V30 1495 C 144.461 -0.889966 -4.15168 0
M  V30 1496 O 145.485 -0.812635 -3.46806 0
M  V30 1497 O 144.344 -1.00079 -5.37258 0
M  V30 1498 H 141.438 -0.116358 -0.818773 0
M  V30 1499 H 143.984 -0.951418 -1.40521 0
M  V30 1500 H 142.756 -1.91081 -3.41473 0
M  V30 1501 H 142.379 -0.286687 -3.96565 0
M  V30 1502 N 143.376 1.44774 -0.622745 0
M  V30 1503 C 144.787 1.85546 -0.207226 0
M  V30 1504 C 145.138 1.52093 1.23944 0
M  V30 1505 O 144.263 0.95492 1.94191 0
M  V30 1506 C 144.858 3.36781 -0.369313 0
M  V30 1507 C 143.417 3.76399 -0.00836847 0
M  V30 1508 C 142.564 2.68664 -0.686651 0
M  V30 1509 H 145.515 1.3536 -0.828454 0
M  V30 1510 H 145.536 3.78453 0.394162 0
M  V30 1511 H 145.048 3.61098 -1.42231 0
M  V30 1512 H 143.149 3.57698 1.04322 0
M  V30 1513 H 143.262 4.7732 -0.412584 0
M  V30 1514 H 141.626 2.54404 -0.122777 0
M  V30 1515 H 142.409 2.95815 -1.74208 0
M  V30 1516 N 144.854 0.36279 1.53368 0
M  V30 1517 C 146.082 -0.228613 2.05633 0
M  V30 1518 C 146.497 -1.42676 1.23649 0
M  V30 1519 O 145.854 -1.80394 0.27647 0
M  V30 1520 C 145.905 -0.624845 3.56059 0
M  V30 1521 O 145.626 0.525675 4.34935 0
M  V30 1522 C 147.127 -1.27493 4.24571 0
M  V30 1523 H 144.347 -0.0407183 0.669763 0
M  V30 1524 H 146.891 0.520352 1.97769 0
M  V30 1525 H 145.046 -1.32373 3.64083 0
M  V30 1526 H 145.46 0.205969 5.24095 0
M  V30 1527 H 146.934 -1.50277 5.31151 0
M  V30 1528 H 147.411 -2.23439 3.78116 0
M  V30 1529 H 148.017 -0.617558 4.20792 0
M  V30 1530 N 146.332 -1.57332 0.0918853 0
M  V30 1531 C 147.578 -1.94524 -0.573425 0
M  V30 1532 C 147.911 -0.973578 -1.68033 0
M  V30 1533 O 147.186 -0.00609226 -1.94499 0
M  V30 1534 C 147.469 -3.41858 -1.13161 0
M  V30 1535 C 147.322 -4.4979 -0.0299747 0
M  V30 1536 C 148.641 -3.90435 -2.03098 0
M  V30 1537 H 145.76 -0.70734 -0.206975 0
M  V30 1538 H 148.402 -1.89309 0.161942 0
M  V30 1539 H 146.552 -3.46433 -1.7583 0
M  V30 1540 H 148.224 -4.57327 0.604112 0
M  V30 1541 H 146.467 -4.291 0.636833 0
M  V30 1542 H 147.138 -5.50069 -0.461287 0
M  V30 1543 H 149.614 -3.87992 -1.50338 0
M  V30 1544 H 148.49 -4.94097 -2.39081 0
M  V30 1545 H 148.751 -3.29541 -2.94712 0
M  V30 1546 N 147.81 0.181792 -1.56548 0
M  V30 1547 C 149.059 0.898348 -1.8059 0
M  V30 1548 C 149.372 1.83862 -0.667379 0
M  V30 1549 O 150.578 2.59678 -0.792446 0
M  V30 1550 C 149.034 1.64791 -3.19956 0
M  V30 1551 C 148.642 0.751789 -4.41647 0
M  V30 1552 C 150.386 2.35331 -3.53298 0
M  V30 1553 C 148.293 1.50098 -5.72035 0
M  V30 1554 H 147.223 0.339194 -0.673397 0
M  V30 1555 H 149.874 0.151413 -1.82874 0
M  V30 1556 H 148.256 2.43921 -3.11959 0
M  V30 1557 H 149.43 -0.0018076 -4.608 0
M  V30 1558 H 147.745 0.156562 -4.16106 0
M  V30 1559 H 150.342 2.91958 -4.47956 0
M  V30 1560 H 150.685 3.10164 -2.77676 0
M  V30 1561 H 151.218 1.63154 -3.62803 0
M  V30 1562 H 147.957 0.795175 -6.50659 0
M  V30 1563 H 147.477 2.22817 -5.56878 0
M  V30 1564 H 149.156 2.05125 -6.13622 0
M  V30 1565 N 149.288 1.51039 0.449983 0
M  V30 1566 C 150.534 1.63322 1.20223 0
M  V30 1567 C 150.867 0.34241 1.91158 0
M  V30 1568 O 150.142 -0.657344 1.83055 0
M  V30 1569 C 150.425 2.82801 2.22925 0
M  V30 1570 C 150.278 4.21823 1.56157 0
M  V30 1571 C 151.597 2.97807 3.24035 0
M  V30 1572 H 148.716 0.594407 0.435718 0
M  V30 1573 H 151.358 1.83489 0.493136 0
M  V30 1574 H 149.508 2.65738 2.834 0
M  V30 1575 H 151.18 4.50526 0.991162 0
M  V30 1576 H 149.423 4.25105 0.864172 0
M  V30 1577 H 150.094 5.01391 2.30891 0
M  V30 1578 H 152.57 3.13497 2.73603 0
M  V30 1579 H 151.446 3.82992 3.93202 0
M  V30 1580 H 151.707 2.09328 3.89402 0
M  V30 1581 N 150.766 -0.704594 1.40972 0
M  V30 1582 C 151.713 -1.81862 1.42109 0
M  V30 1583 C 152.683 -1.63781 0.276593 0
M  V30 1584 O 153.868 -1.84759 0.4763 0
M  V30 1585 C 151.008 -3.19669 1.30022 0
M  V30 1586 C 150.121 -3.49246 2.54267 0
M  V30 1587 C 149.256 -4.76618 2.3454 0
M  V30 1588 C 148.295 -4.99133 3.54306 0
M  V30 1589 N 147.432 -6.17726 3.33706 0
M  V30 1590 H 152.272 -1.80226 2.37324 0
M  V30 1591 H 149.809 -0.880238 1.17857 0
M  V30 1592 H 151.767 -3.99263 1.21018 0
M  V30 1593 H 150.397 -3.20506 0.384192 0
M  V30 1594 H 149.449 -2.64125 2.73756 0
M  V30 1595 H 150.761 -3.61788 3.43381 0
M  V30 1596 H 149.915 -5.64249 2.22952 0
M  V30 1597 H 148.654 -4.66305 1.42867 0
M  V30 1598 H 147.659 -4.09953 3.66359 0
M  V30 1599 H 148.884 -5.11311 4.4692 0
M  V30 1600 H 146.83 -6.08642 2.44725 0
M  V30 1601 H 146.747 -6.30995 4.16391 0
M  V30 1602 H 148.015 -7.08115 3.25873 0
M  V30 1603 N 152.244 -1.26651 -0.937939 0
M  V30 1604 C 153.492 -1.12165 -1.68118 0
M  V30 1605 C 153.813 0.334983 -1.92101 0
M  V30 1606 O 153.083 1.23583 -1.52 0
M  V30 1607 H 151.663 -0.412093 -0.623048 0
M  V30 1608 H 154.325 -1.59027 -1.12678 0
M  V30 1609 H 153.421 -1.64289 -2.6536 0
M  V30 1610 N 153.722 1.14298 -1.08507 0
M  V30 1611 C 154.67 2.21483 -0.710483 0
M  V30 1612 C 155.664 1.66998 0.284234 0
M  V30 1613 O 156.87 1.79401 0.146692 0
M  V30 1614 H 153.245 0.721578 -0.211729 0
M  V30 1615 H 155.216 2.50348 -1.62384 0
M  V30 1616 C 153.965 3.4743 -0.137007 0
M  V30 1617 H 153.288 3.89686 -0.893592 0
M  V30 1618 H 154.728 4.2391 0.0872789 0
M  V30 1619 C 153.187 3.17548 1.12538 0
M  V30 1620 O 153.717 3.35437 2.21009 0
M  V30 1621 N 151.923 2.71499 1.03617 0
M  V30 1622 H 151.47 2.57143 0.153403 0
M  V30 1623 H 151.428 2.51881 1.88158 0
M  V30 1624 N 155.201 0.870884 1.31352 0
M  V30 1625 C 156.148 0.325425 2.28494 0
M  V30 1626 C 157.118 -0.576615 1.5577 0
M  V30 1627 O 158.303 -0.508059 1.83911 0
M  V30 1628 C 155.443 -0.466283 3.41935 0
M  V30 1629 C 154.556 0.463378 4.29508 0
M  V30 1630 C 153.691 -0.342544 5.30094 0
M  V30 1631 C 152.73 0.583486 6.09313 0
M  V30 1632 N 151.867 -0.186244 7.01853 0
M  V30 1633 H 156.707 1.15901 2.74538 0
M  V30 1634 H 154.244 0.58294 1.35056 0
M  V30 1635 H 156.202 -0.941085 4.06447 0
M  V30 1636 H 154.832 -1.26456 2.97 0
M  V30 1637 H 153.884 1.05663 3.65431 0
M  V30 1638 H 155.196 1.1734 4.84802 0
M  V30 1639 H 154.35 -0.879816 6.00287 0
M  V30 1640 H 153.089 -1.08585 4.75458 0
M  V30 1641 H 152.094 1.13251 5.3801 0
M  V30 1642 H 153.319 1.32566 6.66035 0
M  V30 1643 H 151.265 -0.912348 6.49625 0
M  V30 1644 H 151.182 0.464422 7.54572 0
M  V30 1645 H 152.45 -0.704716 7.76308 0
M  V30 1646 N 156.679 -1.44442 0.630414 0
M  V30 1647 C 157.609 -2.33418 -0.0618083 0
M  V30 1648 C 158.59 -1.48165 -0.835541 0
M  V30 1649 O 159.775 -1.76886 -0.801564 0
M  V30 1650 C 156.905 -3.31222 -1.04449 0
M  V30 1651 C 155.859 -4.26288 -0.382436 0
M  V30 1652 C 155.185 -5.13954 -1.47497 0
M  V30 1653 C 156.485 -5.1744 0.710865 0
M  V30 1654 H 158.179 -2.91548 0.681184 0
M  V30 1655 H 155.725 -1.40191 0.329026 0
M  V30 1656 H 157.678 -3.92351 -1.53748 0
M  V30 1657 H 156.402 -2.71299 -1.81836 0
M  V30 1658 H 155.061 -3.6649 0.0899054 0
M  V30 1659 H 154.709 -4.50385 -2.2397 0
M  V30 1660 H 154.409 -5.7837 -1.03737 0
M  V30 1661 H 155.933 -5.77955 -1.96979 0
M  V30 1662 H 157.347 -5.72509 0.300996 0
M  V30 1663 H 155.744 -5.90455 1.07156 0
M  V30 1664 H 156.814 -4.58496 1.57829 0
M  V30 1665 N 158.157 -0.370918 -1.53173 0
M  V30 1666 C 159.387 0.217389 -2.05453 0
M  V30 1667 C 159.795 1.42568 -1.24382 0
M  V30 1668 O 159.138 1.81571 -0.278839 0
M  V30 1669 C 159.2 0.669827 -3.53205 0
M  V30 1670 C 158.864 -0.4225 -4.55043 0
M  V30 1671 C 159.861 -1.27407 -5.04047 0
M  V30 1672 C 157.546 -0.58427 -4.9889 0
M  V30 1673 C 159.54 -2.27271 -5.95505 0
M  V30 1674 C 157.227 -1.58627 -5.90153 0
M  V30 1675 C 158.225 -2.42892 -6.38351 0
M  V30 1676 O 157.913 -3.41382 -7.27814 0
M  V30 1677 H 157.645 0.0408171 -0.674767 0
M  V30 1678 H 160.199 -0.5292 -1.98466 0
M  V30 1679 H 158.429 1.4681 -3.57748 0
M  V30 1680 H 160.118 1.18173 -3.88317 0
M  V30 1681 H 160.884 -1.16031 -4.70916 0
M  V30 1682 H 156.763 0.061851 -4.60959 0
M  V30 1683 H 160.307 -2.93079 -6.33049 0
M  V30 1684 H 156.204 -1.70048 -6.22699 0
M  V30 1685 H 156.972 -3.37173 -7.45826 0
M  V30 1686 N 159.635 1.57281 -0.100228 0
M  V30 1687 C 160.881 1.94826 0.563101 0
M  V30 1688 C 161.214 0.982475 1.67514 0
M  V30 1689 O 160.489 0.0164069 1.94493 0
M  V30 1690 C 160.772 3.42453 1.11346 0
M  V30 1691 C 160.625 4.498 0.00612081 0
M  V30 1692 C 161.944 3.91506 2.01024 0
M  V30 1693 H 159.063 0.708428 0.203221 0
M  V30 1694 H 161.705 1.8922 -0.171979 0
M  V30 1695 H 159.855 3.47361 1.7399 0
M  V30 1696 H 161.527 4.57 -0.628357 0
M  V30 1697 H 159.77 4.28756 -0.659581 0
M  V30 1698 H 160.441 5.50306 0.432109 0
M  V30 1699 H 162.917 3.88784 1.48278 0
M  V30 1700 H 161.793 4.95358 2.36457 0
M  V30 1701 H 162.054 3.31099 2.92961 0
M  V30 1702 N 161.113 -0.173488 1.56642 0
M  V30 1703 C 162.043 -1.2171 1.99271 0
M  V30 1704 C 163.024 -1.46289 0.867959 0
M  V30 1705 O 164.209 -1.5766 1.13388 0
M  V30 1706 C 161.339 -2.55651 2.35074 0
M  V30 1707 C 160.293 -2.45645 3.50489 0
M  V30 1708 C 159.619 -3.84056 3.72028 0
M  V30 1709 C 160.919 -1.96302 4.84007 0
M  V30 1710 H 162.613 -0.86275 2.867 0
M  V30 1711 H 160.159 -0.413571 1.37933 0
M  V30 1712 H 162.112 -3.2886 2.63494 0
M  V30 1713 H 160.836 -2.92869 1.44552 0
M  V30 1714 H 159.495 -1.7489 3.22194 0
M  V30 1715 H 159.143 -4.18664 2.788 0
M  V30 1716 H 158.843 -3.7823 4.49684 0
M  V30 1717 H 160.367 -4.58854 4.02846 0
M  V30 1718 H 161.781 -2.59284 5.11317 0
M  V30 1719 H 160.178 -2.01429 5.65284 0
M  V30 1720 H 161.248 -0.917226 4.76146 0
M  V30 1721 N 162.591 -1.51276 -0.441967 0
M  V30 1722 C 163.837 -1.63958 -1.19355 0
M  V30 1723 C 164.17 -0.352543 -1.90973 0
M  V30 1724 O 163.445 0.647627 -1.83401 0
M  V30 1725 C 163.728 -2.83979 -2.21422 0
M  V30 1726 C 163.581 -4.22646 -1.53918 0
M  V30 1727 C 164.9 -2.99521 -3.22451 0
M  V30 1728 H 162.019 -0.596709 -0.432559 0
M  V30 1729 H 164.661 -1.83748 -0.483398 0
M  V30 1730 H 162.811 -2.67237 -2.81987 0
M  V30 1731 H 164.483 -4.51045 -0.967256 0
M  V30 1732 H 162.726 -4.25558 -0.841615 0
M  V30 1733 H 163.397 -5.02609 -2.28229 0
M  V30 1734 H 165.873 -3.14944 -2.71937 0
M  V30 1735 H 164.749 -3.85072 -3.91166 0
M  V30 1736 H 165.01 -2.11391 -3.88287 0
M  V30 1737 N 164.069 0.697108 -1.41344 0
M  V30 1738 C 165.317 1.45426 -1.40341 0
M  V30 1739 C 165.638 1.94996 -0.0128787 0
M  V30 1740 O 164.908 1.71599 0.945027 0
M  V30 1741 H 163.488 0.539594 -0.516573 0
M  V30 1742 H 166.15 0.825201 -1.76569 0
M  V30 1743 H 165.246 2.31817 -2.08967 0
M  V30 1744 N 165.547 1.27147 0.931209 0
M  V30 1745 C 166.772 1.16191 1.71797 0
M  V30 1746 C 167.197 -0.278004 1.86034 0
M  V30 1747 O 166.555 -1.20137 1.35782 0
M  V30 1748 C 166.603 1.84673 3.09723 0
M  V30 1749 O 165.707 1.14231 3.96264 0
M  V30 1750 H 165.048 0.404303 0.526721 0
M  V30 1751 H 167.578 1.68152 1.1656 0
M  V30 1752 H 167.588 1.91893 3.60057 0
M  V30 1753 H 166.263 2.89421 2.98677 0
M  V30 1754 H 164.84 1.15056 3.54706 0
M  V30 1755 N 167.025 -1.13721 1.09112 0
M  V30 1756 C 168.255 -1.88499 0.845671 0
M  V30 1757 C 168.663 -1.79218 -0.606432 0
M  V30 1758 O 168.006 -1.1544 -1.42896 0
M  V30 1759 C 168.068 -3.38954 1.19793 0
M  V30 1760 C 167.732 -3.72018 2.65428 0
M  V30 1761 C 168.729 -3.7153 3.63677 0
M  V30 1762 C 166.414 -4.01775 3.01467 0
M  V30 1763 C 168.408 -4.00336 4.95994 0
M  V30 1764 C 166.095 -4.30243 4.33975 0
M  V30 1765 C 167.093 -4.29508 5.31048 0
M  V30 1766 O 166.781 -4.5728 6.61173 0
M  V30 1767 H 166.513 -0.603702 0.304171 0
M  V30 1768 H 169.067 -1.44903 1.45576 0
M  V30 1769 H 167.297 -3.83039 0.530871 0
M  V30 1770 H 168.986 -3.95052 0.932146 0
M  V30 1771 H 169.752 -3.4862 3.37179 0
M  V30 1772 H 165.631 -4.01496 2.26544 0
M  V30 1773 H 169.175 -3.99678 5.71755 0
M  V30 1774 H 165.072 -4.52625 4.60219 0
M  V30 1775 H 165.84 -4.74964 6.66597 0
M  V30 1776 N 168.503 -0.877838 -1.30888 0
M  V30 1777 C 169.451 -0.328662 -2.30266 0
M  V30 1778 C 170.445 0.560496 -1.59859 0
M  V30 1779 O 171.651 0.445722 -1.74394 0
M  V30 1780 H 168.026 -0.0876142 -0.746879 0
M  V30 1781 H 169.997 -1.18061 -2.74051 0
M  V30 1782 C 168.746 0.448071 -3.44801 0
M  V30 1783 H 168.069 -0.226859 -3.99156 0
M  V30 1784 H 169.509 0.797541 -4.16432 0
M  V30 1785 C 167.968 1.64239 -2.94155 0
M  V30 1786 O 168.498 2.74175 -2.93583 0
M  V30 1787 N 166.704 1.47716 -2.50256 0
M  V30 1788 H 166.251 0.582821 -2.5092 0
M  V30 1789 H 166.209 2.27765 -2.16727 0
M  V30 1790 N 169.982 1.44106 -0.638065 0
M  V30 1791 C 171.207 2.0685 -0.150916 0
M  V30 1792 C 171.632 1.47417 1.16833 0
M  V30 1793 O 170.99 0.578264 1.71831 0
M  V30 1794 C 171.038 3.60555 -0.05708 0
M  V30 1795 O 170.142 4.00465 0.984972 0
M  V30 1796 H 169.483 0.658151 -0.0879399 0
M  V30 1797 H 172.013 1.84865 -0.876707 0
M  V30 1798 H 172.023 4.07789 0.131232 0
M  V30 1799 H 170.698 4.03193 -1.02021 0
M  V30 1800 H 169.275 3.64849 0.770672 0
M  V30 1801 N 171.46 0.379036 1.52974 0
M  V30 1802 C 172.685 -0.209353 2.06341 0
M  V30 1803 C 173.11 -1.40583 1.24972 0
M  V30 1804 O 172.468 -1.79246 0.272155 0
M  V30 1805 C 172.516 -0.567786 3.56102 0
M  V30 1806 O 171.62 -1.66318 3.77375 0
M  V30 1807 H 170.961 -0.0272919 0.663439 0
M  V30 1808 H 173.491 0.543536 1.97248 0
M  V30 1809 H 173.501 -0.835003 3.99364 0
M  V30 1810 H 172.176 0.307013 4.14765 0
M  V30 1811 H 170.753 -1.39048 3.46006 0
M  V30 1812 N 172.938 -1.57226 0.108567 0
M  V30 1813 C 174.354 -1.5766 -0.248058 0
M  V30 1814 C 174.554 -1.12063 -1.67464 0
M  V30 1815 O 173.61 -0.803236 -2.39383 0
M  V30 1816 C 174.923 -3.0069 -0.0242287 0
M  V30 1817 C 176.471 -3.12868 -0.0909372 0
M  V30 1818 C 176.946 -4.57879 0.105067 0
M  V30 1819 N 178.437 -4.63172 0.0506846 0
M  V30 1820 C 179.172 -5.73126 0.177396 0
M  V30 1821 N 178.668 -6.91866 0.359696 0
M  V30 1822 N 180.461 -5.61977 0.117709 0
M  V30 1823 H 172.612 -1.85169 1.04049 0
M  V30 1824 H 174.875 -0.85529 0.40888 0
M  V30 1825 H 174.581 -3.38299 0.961604 0
M  V30 1826 H 174.455 -3.6945 -0.76068 0
M  V30 1827 H 176.842 -2.75124 -1.06729 0
M  V30 1828 H 176.923 -2.46672 0.677225 0
M  V30 1829 H 176.567 -4.96321 1.07834 0
M  V30 1830 H 176.497 -5.22153 -0.682954 0
M  V30 1831 H 178.988 -3.778 -0.0871266 0
M  V30 1832 H 179.301 -7.71503 0.447529 0
M  V30 1833 H 177.646 -6.93874 0.395536 0
M  V30 1834 H 180.837 -4.68094 -0.0236741 0
M  V30 1835 H 181.01 -6.47627 0.219905 0
M  V30 1836 N 174.416 0.165178 -1.56732 0
M  V30 1837 C 175.641 0.900253 -1.86843 0
M  V30 1838 C 176.066 1.74766 -0.695596 0
M  V30 1839 O 175.424 1.77786 0.35522 0
M  V30 1840 C 175.472 1.74777 -3.15413 0
M  V30 1841 O 174.576 2.85007 -2.98068 0
M  V30 1842 H 173.917 0.251832 -0.614391 0
M  V30 1843 H 176.447 0.161468 -2.03962 0
M  V30 1844 H 176.457 2.14646 -3.46974 0
M  V30 1845 H 175.132 1.12537 -4.00385 0
M  V30 1846 H 173.709 2.48676 -2.77875 0
M  V30 1847 N 175.894 1.51508 0.433938 0
M  V30 1848 C 177.124 1.67914 1.20369 0
M  V30 1849 C 177.532 0.377461 1.85397 0
M  V30 1850 O 176.875 -0.654255 1.71654 0
M  V30 1851 C 176.937 2.74045 2.32679 0
M  V30 1852 C 176.601 4.16543 1.87991 0
M  V30 1853 C 177.598 5.01211 1.38145 0
M  V30 1854 C 175.283 4.6266 1.95579 0
M  V30 1855 C 177.277 6.30056 0.964774 0
M  V30 1856 C 174.964 5.91501 1.53523 0
M  V30 1857 C 175.962 6.75027 1.04055 0
M  V30 1858 O 175.65 8.01459 0.625964 0
M  V30 1859 H 175.382 0.566578 0.368735 0
M  V30 1860 H 177.936 1.98709 0.51999 0
M  V30 1861 H 176.166 2.38572 3.04336 0
M  V30 1862 H 177.855 2.79295 2.94532 0
M  V30 1863 H 178.621 4.66783 1.31675 0
M  V30 1864 H 174.5 3.97767 2.33029 0
M  V30 1865 H 178.044 6.95202 0.57796 0
M  V30 1866 H 173.941 6.25442 1.59665 0
M  V30 1867 H 174.709 8.15043 0.751509 0
M  V30 1868 N 177.372 -0.689602 1.41712 0
M  V30 1869 C 178.618 -1.45041 1.42599 0
M  V30 1870 C 178.973 -1.92366 0.0363764 0
M  V30 1871 O 178.266 -1.67022 -0.938844 0
M  V30 1872 C 178.46 -2.67298 2.37247 0
M  V30 1873 C 178.289 -2.31935 3.85274 0
M  V30 1874 C 177.059 -2.2201 4.53916 0
M  V30 1875 C 179.257 -1.94526 4.76093 0
M  V30 1876 N 177.239 -1.79594 5.87043 0
M  V30 1877 C 178.61 -1.62915 5.98213 0
M  V30 1878 C 180.665 -1.81388 4.63684 0
M  V30 1879 C 179.368 -1.19486 7.09306 0
M  V30 1880 C 181.394 -1.39364 5.74745 0
M  V30 1881 C 180.756 -1.08668 6.95967 0
M  V30 1882 H 176.855 -0.527806 0.577014 0
M  V30 1883 H 179.439 -0.797266 1.77628 0
M  V30 1884 H 177.61 -3.30325 2.04304 0
M  V30 1885 H 179.342 -3.33806 2.28814 0
M  V30 1886 H 176.097 -2.406 4.07932 0
M  V30 1887 H 176.521 -1.60851 6.57614 0
M  V30 1888 H 181.163 -2.03772 3.70455 0
M  V30 1889 H 178.881 -0.958477 8.02396 0
M  V30 1890 H 182.467 -1.2974 5.6715 0
M  V30 1891 H 181.347 -0.766417 7.80446 0
M  V30 1892 N 178.85 -1.27639 -0.924453 0
M  V30 1893 C 180.078 -1.16989 -1.70649 0
M  V30 1894 C 180.493 0.272869 -1.86818 0
M  V30 1895 O 179.85 1.18549 -1.38753 0
M  V30 1896 C 179.901 -1.85229 -3.10439 0
M  V30 1897 O 179.622 -3.23868 -2.95028 0
M  V30 1898 C 181.123 -1.80746 -4.04779 0
M  V30 1899 H 178.343 -0.406595 -0.53378 0
M  V30 1900 H 180.887 -1.68569 -1.15778 0
M  V30 1901 H 179.042 -1.37545 -3.6216 0
M  V30 1902 H 179.456 -3.57889 -3.83426 0
M  V30 1903 H 180.93 -2.33101 -5.00368 0
M  V30 1904 H 181.407 -0.777499 -4.32263 0
M  V30 1905 H 182.013 -2.28059 -3.58984 0
M  V30 1906 N 180.328 1.1314 -1.09713 0
M  V30 1907 C 181.553 1.88862 -0.857081 0
M  V30 1908 C 181.978 1.78729 0.586304 0
M  V30 1909 O 181.336 1.13692 1.41222 0
M  V30 1910 C 181.384 3.36325 -1.30069 0
M  V30 1911 O 180.488 4.09815 -0.461007 0
M  V30 1912 H 179.829 0.587108 -0.310162 0
M  V30 1913 H 182.359 1.43129 -1.46203 0
M  V30 1914 H 182.369 3.87157 -1.28738 0
M  V30 1915 H 181.044 3.43017 -2.35185 0
M  V30 1916 H 179.621 3.68986 -0.538888 0
M  V30 1917 N 181.806 0.884767 1.30421 0
M  V30 1918 C 182.756 0.322846 2.25703 0
M  V30 1919 C 183.74 -0.548582 1.51259 0
M  V30 1920 O 184.932 -0.39304 1.72581 0
M  V30 1921 C 182.061 -0.461787 3.4018 0
M  V30 1922 C 181.147 0.423717 4.21978 0
M  V30 1923 N 181.538 1.52408 4.82292 0
M  V30 1924 C 179.836 0.218795 4.45463 0
M  V30 1925 C 180.537 2.07136 5.43571 0
M  V30 1926 N 179.513 1.36635 5.26148 0
M  V30 1927 H 183.315 1.16363 2.69883 0
M  V30 1928 H 180.829 0.73415 1.44859 0
M  V30 1929 H 182.826 -0.880985 4.07485 0
M  V30 1930 H 181.486 -1.30001 2.9754 0
M  V30 1931 H 182.497 1.90693 4.81515 0
M  V30 1932 H 179.174 -0.582275 4.1342 0
M  V30 1933 H 180.564 2.99538 6.01437 0
M  V30 1934 N 183.284 -1.43765 0.645699 0
M  V30 1935 C 184.532 -2.01499 0.155731 0
M  V30 1936 C 184.853 -1.51151 -1.232 0
M  V30 1937 O 184.123 -0.721044 -1.82148 0
M  V30 1938 H 182.703 -0.745003 0.0545817 0
M  V30 1939 H 185.365 -1.76075 0.835677 0
M  V30 1940 H 184.461 -3.1181 0.134577 0
M  V30 1941 N 184.763 -0.387143 -1.52771 0
M  V30 1942 C 186.04 0.253197 -1.93954 0
M  V30 1943 C 186.42 1.64545 -1.32243 0
M  V30 1944 O 185.768 2.23191 -0.489699 0
M  V30 1945 C 185.978 0.281722 -3.47861 0
M  V30 1946 C 187.326 0.511715 -4.21505 0
M  V30 1947 O 188.35 0.362023 -3.54356 0
M  V30 1948 O 187.209 0.804847 -5.40541 0
M  V30 1949 H 184.303 0.156845 -0.811991 0
M  V30 1950 H 186.849 -0.441494 -1.63856 0
M  V30 1951 H 185.621 -0.693571 -3.85104 0
M  V30 1952 H 185.244 1.02142 -3.84256 0
M  V30 1953 N 186.241 1.57166 -0.116904 0
M  V30 1954 C 187.204 2.14039 0.819742 0
M  V30 1955 C 188.204 1.07477 1.19605 0
M  V30 1956 O 189.394 1.33263 1.1219 0
M  V30 1957 C 186.526 2.67891 2.10826 0
M  V30 1958 H 187.719 2.98128 0.325511 0
M  V30 1959 H 185.272 1.55739 0.132312 0
M  V30 1960 H 186.007 1.87384 2.64685 0
M  V30 1961 H 185.792 3.45823 1.84793 0
M  V30 1962 H 187.282 3.11809 2.77785 0
M  V30 1963 N 187.719 -0.156864 1.56817 0
M  V30 1964 C 189.135 -0.50916 1.5126 0
M  V30 1965 C 189.335 -1.83897 0.823658 0
M  V30 1966 O 188.391 -2.49469 0.390055 0
M  V30 1967 C 189.704 -0.52857 2.96018 0
M  V30 1968 C 191.252 -0.614771 3.06903 0
M  V30 1969 C 191.727 -0.664938 4.53147 0
M  V30 1970 N 193.218 -0.727433 4.57452 0
M  V30 1971 C 193.953 -0.787067 5.67973 0
M  V30 1972 N 193.449 -0.806649 6.88088 0
M  V30 1973 N 195.242 -0.827195 5.5598 0
M  V30 1974 H 187.393 0.714935 2.00006 0
M  V30 1975 H 189.656 0.259526 0.911784 0
M  V30 1976 H 189.362 0.380154 3.49639 0
M  V30 1977 H 189.236 -1.36998 3.51442 0
M  V30 1978 H 191.623 -1.51392 2.53307 0
M  V30 1979 H 191.704 0.253597 2.5454 0
M  V30 1980 H 191.348 0.230011 5.07379 0
M  V30 1981 H 191.278 -1.54966 5.03282 0
M  V30 1982 H 193.769 -0.719998 3.70978 0
M  V30 1983 H 194.082 -0.853727 7.6807 0
M  V30 1984 H 192.427 -0.774687 6.90669 0
M  V30 1985 H 195.618 -0.808998 4.61056 0
M  V30 1986 H 195.791 -0.870206 6.4213 0
M  V30 1987 N 189.197 -1.51736 -0.425897 0
M  V30 1988 C 190.474 -1.55519 -1.1863 0
M  V30 1989 C 190.854 -0.326219 -2.08564 0
M  V30 1990 O 190.202 0.688012 -2.17896 0
M  V30 1991 C 190.412 -2.87521 -1.9782 0
M  V30 1992 C 191.76 -3.39899 -2.54468 0
M  V30 1993 O 192.784 -2.89148 -2.08019 0
M  V30 1994 O 191.643 -4.2848 -3.39215 0
M  V30 1995 H 188.737 -0.625739 -0.540721 0
M  V30 1996 H 191.283 -1.64055 -0.434038 0
M  V30 1997 H 190.055 -3.68422 -1.31836 0
M  V30 1998 H 189.678 -2.822 -2.80088 0
M  V30 1999 N 190.675 0.682077 -1.42076 0
M  V30 2000 C 191.921 1.44283 -1.43366 0
M  V30 2001 C 192.276 1.92344 -0.0465775 0
M  V30 2002 O 191.569 1.67517 0.929973 0
M  V30 2003 C 191.763 2.66036 -2.38662 0
M  V30 2004 C 191.592 2.29889 -3.86499 0
M  V30 2005 C 190.362 2.19599 -4.55087 0
M  V30 2006 C 192.56 1.91999 -4.77117 0
M  V30 2007 N 190.542 1.76478 -5.87987 0
M  V30 2008 C 191.913 1.59741 -5.99068 0
M  V30 2009 C 193.968 1.78927 -4.64639 0
M  V30 2010 C 192.671 1.15723 -7.0993 0
M  V30 2011 C 194.697 1.36314 -5.75476 0
M  V30 2012 C 194.059 1.04975 -6.96534 0
M  V30 2013 H 190.158 0.524739 -0.579805 0
M  V30 2014 H 192.742 0.787834 -1.78048 0
M  V30 2015 H 190.913 3.29237 -2.06053 0
M  V30 2016 H 192.645 3.32588 -2.30581 0
M  V30 2017 H 189.4 2.38433 -4.09202 0
M  V30 2018 H 189.824 1.57362 -6.58458 0
M  V30 2019 H 194.466 2.01805 -3.7153 0
M  V30 2020 H 192.184 0.91591 -8.02893 0
M  V30 2021 H 195.77 1.26731 -5.6783 0
M  V30 2022 H 194.65 0.725017 -7.80841 0
M  V30 2023 N 192.153 1.28127 0.917671 0
M  V30 2024 C 193.43 1.05761 1.64542 0
M  V30 2025 C 193.81 -0.404344 2.07191 0
M  V30 2026 O 193.158 -1.38963 1.81388 0
M  V30 2027 C 193.368 2.02857 2.83989 0
M  V30 2028 C 194.716 2.32786 3.551 0
M  V30 2029 O 195.74 2.0091 2.94132 0
M  V30 2030 O 194.599 2.87169 4.64969 0
M  V30 2031 H 191.693 0.403916 0.721652 0
M  V30 2032 H 194.239 1.39431 0.967322 0
M  V30 2033 H 193.011 3.01407 2.49538 0
M  V30 2034 H 192.634 1.69809 3.59514 0
M  V30 2035 N 193.631 -1.12557 1.10312 0
M  V30 2036 C 194.88 -1.83395 0.839588 0
M  V30 2037 C 195.193 -1.84939 -0.636929 0
M  V30 2038 O 196.399 -2.51761 -1.01631 0
M  V30 2039 C 194.855 -3.29303 1.45215 0
M  V30 2040 C 194.463 -3.36122 2.96186 0
M  V30 2041 C 196.207 -4.05121 1.26796 0
M  V30 2042 C 194.114 -4.76357 3.50483 0
M  V30 2043 H 193.044 -0.687133 0.310425 0
M  V30 2044 H 195.695 -1.26746 1.32694 0
M  V30 2045 H 194.077 -3.85812 0.892469 0
M  V30 2046 H 195.251 -2.89559 3.58458 0
M  V30 2047 H 193.566 -2.73776 3.13745 0
M  V30 2048 H 196.163 -5.08668 1.64806 0
M  V30 2049 H 196.506 -4.15773 0.209409 0
M  V30 2050 H 197.039 -3.54967 1.79563 0
M  V30 2051 H 193.778 -4.70899 4.55998 0
M  V30 2052 H 193.298 -5.23377 2.92978 0
M  V30 2053 H 194.977 -5.45294 3.48228 0
M  V30 2054 N 195.109 -0.891671 -1.2995 0
M  V30 2055 C 196.039 -0.379797 -2.30391 0
M  V30 2056 C 197.02 0.540919 -1.6127 0
M  V30 2057 O 198.205 0.453352 -1.88834 0
M  V30 2058 C 195.335 0.400654 -3.44981 0
M  V30 2059 C 194.289 -0.428905 -4.25846 0
M  V30 2060 C 193.615 0.478557 -5.32554 0
M  V30 2061 C 194.915 -1.67458 -4.94727 0
M  V30 2062 H 196.609 -1.21914 -2.73454 0
M  V30 2063 H 194.155 -0.587675 -1.31462 0
M  V30 2064 H 196.108 0.769434 -4.14316 0
M  V30 2065 H 194.832 1.27371 -3.0074 0
M  V30 2066 H 193.491 -0.779911 -3.58208 0
M  V30 2067 H 193.139 1.34951 -4.84559 0
M  V30 2068 H 192.839 -0.0727433 -5.87555 0
M  V30 2069 H 194.363 0.843705 -6.04743 0
M  V30 2070 H 195.777 -1.376 -5.56542 0
M  V30 2071 H 194.174 -2.16659 -5.59624 0
M  V30 2072 H 195.244 -2.41518 -4.20473 0
M  V30 2073 N 196.587 1.43421 -0.653314 0
M  V30 2074 C 197.517 2.33487 0.0246656 0
M  V30 2075 C 198.498 1.49475 0.811863 0
M  V30 2076 O 199.683 1.78139 0.773322 0
M  V30 2077 C 196.813 3.32841 0.99166 0
M  V30 2078 C 195.767 4.26842 0.314568 0
M  V30 2079 C 195.093 5.16236 1.39302 0
M  V30 2080 C 196.393 5.16243 -0.793095 0
M  V30 2081 H 198.087 2.90427 -0.727481 0
M  V30 2082 H 195.633 1.39649 -0.351287 0
M  V30 2083 H 197.586 3.94747 1.47487 0
M  V30 2084 H 196.31 2.74158 1.77497 0
M  V30 2085 H 194.969 3.663 -0.148199 0
M  V30 2086 H 194.617 4.53891 2.16776 0
M  V30 2087 H 194.317 5.79948 0.945223 0
M  V30 2088 H 195.841 5.81015 1.87759 0
M  V30 2089 H 197.255 5.71958 -0.392039 0
M  V30 2090 H 195.652 5.88676 -1.16536 0
M  V30 2091 H 196.722 4.55927 -1.65103 0
M  V30 2092 N 198.065 0.39524 1.52563 0
M  V30 2093 C 199.028 -0.425001 2.25225 0
M  V30 2094 C 200.028 -0.985266 1.27079 0
M  V30 2095 O 201.218 -0.866332 1.5113 0
M  V30 2096 C 198.35 -1.59686 3.01186 0
M  V30 2097 H 199.543 0.211233 2.99155 0
M  V30 2098 H 197.096 0.147472 1.55603 0
M  V30 2099 H 197.831 -2.27035 2.31572 0
M  V30 2100 H 197.616 -1.20176 3.73229 0
M  V30 2101 H 199.106 -2.17743 3.5634 0
M  V30 2102 N 199.544 -1.57102 0.125237 0
M  V30 2103 C 200.79 -1.95697 -0.532035 0
M  V30 2104 C 201.123 -1.009 -1.6593 0
M  V30 2105 O 200.398 -0.047347 -1.94442 0
M  V30 2106 C 200.681 -3.44181 -1.05884 0
M  V30 2107 C 200.534 -4.49752 0.0654392 0
M  V30 2108 C 201.853 -3.94655 -1.9477 0
M  V30 2109 H 198.972 -0.711571 -0.191925 0
M  V30 2110 H 201.614 -1.88923 0.20206 0
M  V30 2111 H 199.764 -3.50085 -1.68442 0
M  V30 2112 H 201.436 -4.55943 0.700982 0
M  V30 2113 H 199.679 -4.27653 0.727709 0
M  V30 2114 H 200.35 -5.50924 -0.344505 0
M  V30 2115 H 202.826 -3.91094 -1.42074 0
M  V30 2116 H 201.702 -4.99057 -2.28546 0
M  V30 2117 H 201.963 -3.35718 -2.87656 0
M  V30 2118 N 201.022 0.148545 -1.56898 0
M  V30 2119 C 202.27 0.859717 -1.82902 0
M  V30 2120 C 202.591 1.81775 -0.70588 0
M  V30 2121 O 201.861 1.93994 0.272586 0
M  V30 2122 H 200.441 0.320469 -0.674766 0
M  V30 2123 H 203.103 0.142918 -1.94375 0
M  V30 2124 H 202.199 1.4229 -2.77777 0
M  V30 2125 N 202.5 1.5196 0.417844 0
M  V30 2126 C 203.41 1.77554 1.53336 0
M  V30 2127 C 204.426 0.660655 1.6097 0
M  V30 2128 O 205.602 0.945099 1.77848 0
M  V30 2129 C 202.667 1.91291 2.89152 0
M  V30 2130 C 201.728 3.15183 2.91475 0
M  V30 2131 C 200.961 3.28256 4.20813 0
M  V30 2132 O 201.184 2.46798 5.14244 0
M  V30 2133 O 200.118 4.21356 4.29817 0
M  V30 2134 H 203.944 2.7222 1.34647 0
M  V30 2135 H 201.529 1.36698 0.602828 0
M  V30 2136 H 203.411 2.02199 3.69721 0
M  V30 2137 H 202.086 0.998129 3.07927 0
M  V30 2138 H 200.993 3.09739 2.09791 0
M  V30 2139 H 202.326 4.06414 2.77648 0
M  V30 2140 N 203.978 -0.674533 1.42435 0
M  V30 2141 C 205.224 -1.43671 1.43131 0
M  V30 2142 C 205.557 -1.94142 0.0476021 0
M  V30 2143 O 204.832 -1.70924 -0.928188 0
M  V30 2144 C 205.115 -2.63355 2.45594 0
M  V30 2145 C 204.968 -2.18514 3.93156 0
M  V30 2146 C 206.287 -3.65571 2.45043 0
M  V30 2147 H 203.406 -0.521077 0.521198 0
M  V30 2148 H 206.048 -0.766551 1.7385 0
M  V30 2149 H 204.198 -3.2053 2.19528 0
M  V30 2150 H 205.87 -1.66504 4.30202 0
M  V30 2151 H 204.113 -1.50086 4.07009 0
M  V30 2152 H 204.784 -3.04484 4.60428 0
M  V30 2153 H 207.26 -3.18113 2.68223 0
M  V30 2154 H 206.136 -4.46893 3.18713 0
M  V30 2155 H 206.397 -4.16716 1.47649 0
M  V30 2156 N 205.456 -1.28612 -0.910864 0
M  V30 2157 C 206.684 -1.18792 -1.69399 0
M  V30 2158 C 207.099 0.253039 -1.87097 0
M  V30 2159 O 206.456 1.17071 -1.40003 0
M  V30 2160 C 206.507 -1.88511 -3.08457 0
M  V30 2161 O 206.228 -3.26979 -2.91576 0
M  V30 2162 C 207.729 -1.85029 -4.02839 0
M  V30 2163 H 204.949 -0.412233 -0.529438 0
M  V30 2164 H 207.493 -1.69788 -1.13984 0
M  V30 2165 H 205.648 -1.41379 -3.60681 0
M  V30 2166 H 206.062 -3.61936 -3.79608 0
M  V30 2167 H 207.536 -2.38395 -4.97867 0
M  V30 2168 H 208.013 -0.823303 -4.31414 0
M  V30 2169 H 208.619 -2.31853 -3.56545 0
M  V30 2170 N 206.934 1.1197 -1.10907 0
M  V30 2171 C 207.881 2.17846 -0.762345 0
M  V30 2172 C 208.851 1.63995 0.263599 0
M  V30 2173 O 210.036 1.90273 0.141773 0
M  V30 2174 C 207.176 3.44487 -0.205651 0
M  V30 2175 C 206.289 4.12369 -1.28748 0
M  V30 2176 C 205.424 5.26674 -0.691919 0
M  V30 2177 C 204.463 5.86431 -1.75399 0
M  V30 2178 N 203.6 6.92142 -1.17833 0
M  V30 2179 H 208.44 2.46851 -1.6694 0
M  V30 2180 H 205.977 1.21188 -0.833776 0
M  V30 2181 H 207.935 4.16981 0.135037 0
M  V30 2182 H 206.565 3.15884 0.664613 0
M  V30 2183 H 205.617 3.38003 -1.74522 0
M  V30 2184 H 206.929 4.52844 -2.09125 0
M  V30 2185 H 206.083 6.05953 -0.300963 0
M  V30 2186 H 204.822 4.8749 0.143232 0
M  V30 2187 H 203.827 5.05835 -2.15432 0
M  V30 2188 H 205.052 6.27685 -2.59208 0
M  V30 2189 H 202.998 6.54985 -0.364725 0
M  V30 2190 H 202.915 7.31242 -1.91887 0
M  V30 2191 H 204.183 7.75237 -0.81408 0
M  V30 2192 N 208.412 0.89855 1.29475 0
M  V30 2193 C 209.637 0.538561 2.00285 0
M  V30 2194 C 210.062 -0.869135 1.66816 0
M  V30 2195 O 209.42 -1.57831 0.892145 0
M  V30 2196 C 209.468 0.736475 3.52999 0
M  V30 2197 O 208.572 -0.211537 4.11857 0
M  V30 2198 H 207.913 0.210563 0.62973 0
M  V30 2199 H 210.443 1.20982 1.64998 0
M  V30 2200 H 210.453 0.640685 4.02938 0
M  V30 2201 H 209.128 1.76276 3.76696 0
M  V30 2202 H 207.705 -0.0682991 3.72837 0
M  V30 2203 N 209.89 -1.43072 0.660911 0
M  V30 2204 C 211.118 -2.06067 0.185422 0
M  V30 2205 C 211.533 -1.49582 -1.15198 0
M  V30 2206 O 210.89 -0.630134 -1.71276 0
M  V30 2207 C 210.941 -3.61371 0.0966523 0
M  V30 2208 O 210.662 -4.15758 1.38119 0
M  V30 2209 C 212.163 -4.41455 -0.403996 0
M  V30 2210 H 209.383 -0.664459 0.0934604 0
M  V30 2211 H 211.927 -1.83447 0.90373 0
M  V30 2212 H 210.082 -3.8315 -0.572259 0
M  V30 2213 H 210.496 -5.09499 1.24542 0
M  V30 2214 H 211.97 -5.50437 -0.415045 0
M  V30 2215 H 212.447 -4.15036 -1.43674 0
M  V30 2216 H 213.053 -4.24663 0.232691 0
M  V30 2217 N 211.368 -0.403325 -1.52352 0
M  V30 2218 C 212.331 0.413051 -2.25447 0
M  V30 2219 C 213.331 0.978513 -1.276 0
M  V30 2220 O 214.521 0.858305 -1.51587 0
M  V30 2221 C 211.653 1.58087 -3.02029 0
M  V30 2222 H 212.846 -0.227094 -2.99039 0
M  V30 2223 H 210.399 -0.155722 -1.55522 0
M  V30 2224 H 211.134 2.25804 -2.32772 0
M  V30 2225 H 210.919 1.18195 -3.73861 0
M  V30 2226 H 212.409 2.1585 -3.57489 0
M  V30 2227 N 212.846 1.57033 -0.133567 0
M  V30 2228 C 214.094 1.953 0.519848 0
M  V30 2229 C 214.415 1.01866 1.66278 0
M  V30 2230 O 213.685 0.0776513 1.95746 0
M  V30 2231 H 212.265 0.721091 0.195032 0
M  V30 2232 H 214.927 1.93809 -0.205921 0
M  V30 2233 H 214.023 2.98695 0.904854 0
M  V30 2234 N 214.325 -0.140222 1.56975 0
M  V30 2235 C 215.573 -0.850005 1.83356 0
M  V30 2236 C 215.894 -1.81399 0.71551 0
M  V30 2237 O 215.164 -1.94136 -0.262294 0
M  V30 2238 H 213.744 -0.316886 0.676456 0
M  V30 2239 H 216.406 -0.132608 1.94448 0
M  V30 2240 H 215.502 -1.40814 2.78528 0
M  V30 2241 N 215.803 -1.52179 -0.40978 0
M  V30 2242 C 216.75 -1.75475 -1.49924 0
M  V30 2243 C 217.72 -0.597175 -1.54994 0
M  V30 2244 O 218.905 -0.834655 -1.71575 0
M  V30 2245 C 216.045 -1.9107 -2.87378 0
M  V30 2246 C 215.158 -3.18717 -2.91622 0
M  V30 2247 C 214.293 -3.24747 -4.20372 0
M  V30 2248 C 213.332 -4.46598 -4.18588 0
M  V30 2249 N 212.469 -4.50025 -5.38908 0
M  V30 2250 H 217.309 -2.68458 -1.29361 0
M  V30 2251 H 214.846 -1.33024 -0.627934 0
M  V30 2252 H 216.804 -1.98096 -3.6717 0
M  V30 2253 H 215.434 -1.01469 -3.06437 0
M  V30 2254 H 214.486 -3.20866 -2.04326 0
M  V30 2255 H 215.798 -4.08544 -2.86169 0
M  V30 2256 H 214.952 -3.30841 -5.08556 0
M  V30 2257 H 213.691 -2.32857 -4.28519 0
M  V30 2258 H 212.696 -4.40652 -3.28794 0
M  V30 2259 H 213.921 -5.39783 -4.12081 0
M  V30 2260 H 211.867 -3.61017 -5.47725 0
M  V30 2261 H 211.784 -5.33697 -5.35447 0
M  V30 2262 H 213.052 -4.60347 -6.29048 0
M  V30 2263 N 217.281 0.66697 -1.42791 0
M  V30 2264 C 218.53 1.42278 -1.42968 0
M  V30 2265 C 218.843 1.9553 -0.0524489 0
M  V30 2266 O 220.049 2.71414 0.068363 0
M  V30 2267 C 218.505 2.57418 -2.51524 0
M  V30 2268 C 218.113 2.10832 -3.9529 0
M  V30 2269 C 219.857 3.34878 -2.60877 0
M  V30 2270 C 217.764 3.23101 -4.95338 0
M  V30 2271 H 216.694 0.534533 -0.531781 0
M  V30 2272 H 219.345 0.721302 -1.68729 0
M  V30 2273 H 217.727 3.29971 -2.18941 0
M  V30 2274 H 218.901 1.4538 -4.37266 0
M  V30 2275 H 217.216 1.46289 -3.89857 0
M  V30 2276 H 219.813 4.18505 -3.32802 0
M  V30 2277 H 220.156 3.81993 -1.6549 0
M  V30 2278 H 220.689 2.69398 -2.92693 0
M  V30 2279 H 217.428 2.80969 -5.9223 0
M  V30 2280 H 216.948 3.87309 -4.57987 0
M  V30 2281 H 218.627 3.88447 -5.17415 0
M  V30 2282 N 218.759 1.29093 0.90403 0
M  V30 2283 C 219.987 1.19689 1.68766 0
M  V30 2284 C 220.402 -0.243113 1.87228 0
M  V30 2285 O 219.759 -1.16326 1.40621 0
M  V30 2286 C 219.81 1.90144 3.07453 0
M  V30 2287 O 219.531 3.2852 2.89838 0
M  V30 2288 C 221.032 1.87162 4.01852 0
M  V30 2289 H 218.252 0.415035 0.527244 0
M  V30 2290 H 220.796 1.7039 1.13082 0
M  V30 2291 H 218.951 1.43289 3.59926 0
M  V30 2292 H 219.365 3.63944 3.77684 0
M  V30 2293 H 220.839 2.41032 4.96596 0
M  V30 2294 H 221.316 0.84617 4.30972 0
M  V30 2295 H 221.922 2.33741 3.5531 0
M  V30 2296 N 220.237 -1.11381 1.11499 0
M  V30 2297 C 221.2 -2.15622 0.777153 0
M  V30 2298 C 222.2 -1.59504 -0.203779 0
M  V30 2299 O 223.39 -1.74188 0.020782 0
M  V30 2300 C 220.522 -3.40556 0.153116 0
M  V30 2301 H 221.715 -2.47021 1.70061 0
M  V30 2302 H 219.268 -1.26577 0.916952 0
M  V30 2303 H 220.003 -3.14767 -0.780536 0
M  V30 2304 H 219.788 -3.8257 0.859238 0
M  V30 2305 H 221.278 -4.17546 -0.0671044 0
M  V30 2306 N 221.715 -0.905404 -1.28997 0
M  V30 2307 C 222.94 -0.549175 -1.99997 0
M  V30 2308 C 223.365 0.860276 -1.67275 0
M  V30 2309 O 222.723 1.57355 -0.900502 0
M  V30 2310 C 222.771 -0.755185 -3.52604 0
M  V30 2311 O 221.875 0.189692 -4.11964 0
M  V30 2312 H 221.216 -0.213899 -0.628604 0
M  V30 2313 H 223.746 -1.21856 -1.64354 0
M  V30 2314 H 223.756 -0.662045 -4.02593 0
M  V30 2315 H 222.431 -1.78271 -3.75755 0
M  V30 2316 H 221.008 0.0485257 -3.72868 0
M  V30 2317 N 223.193 1.4272 -0.668489 0
M  V30 2318 C 224.442 2.00846 -0.185389 0
M  V30 2319 C 224.755 1.53442 1.21305 0
M  V30 2320 O 225.961 2.03944 1.79218 0
M  V30 2321 C 224.417 3.58805 -0.280591 0
M  V30 2322 C 224.025 4.15198 -1.68268 0
M  V30 2323 C 225.769 4.24255 0.14412 0
M  V30 2324 C 223.676 5.655 -1.73099 0
M  V30 2325 H 222.606 0.751145 -0.0655475 0
M  V30 2326 H 225.257 1.63516 -0.832752 0
M  V30 2327 H 223.639 3.93608 0.434553 0
M  V30 2328 H 224.813 3.91866 -2.42441 0
M  V30 2329 H 223.128 3.62176 -2.05469 0
M  V30 2330 H 225.725 5.34547 0.128086 0
M  V30 2331 H 226.068 3.99277 1.17827 0
M  V30 2332 H 226.601 3.94389 -0.519798 0
M  V30 2333 H 223.34 5.95268 -2.74475 0
M  V30 2334 H 222.86 5.90842 -1.03274 0
M  V30 2335 H 224.539 6.29808 -1.48158 0
M  V30 2336 N 224.671 0.411399 1.52136 0
M  V30 2337 C 225.618 -0.412975 2.27075 0
M  V30 2338 C 226.588 -1.03912 1.29582 0
M  V30 2339 O 227.773 -1.06296 1.58448 0
M  V30 2340 C 224.913 -1.52247 3.09701 0
M  V30 2341 C 224.026 -0.917021 4.22155 0
M  V30 2342 C 223.161 -1.9994 4.92135 0
M  V30 2343 C 222.2 -1.37101 5.96548 0
M  V30 2344 N 221.337 -2.39364 6.60038 0
M  V30 2345 H 226.177 0.232499 2.97092 0
M  V30 2346 H 223.714 0.126496 1.46555 0
M  V30 2347 H 225.672 -2.17674 3.55913 0
M  V30 2348 H 224.302 -2.13794 2.41851 0
M  V30 2349 H 223.354 -0.151742 3.80097 0
M  V30 2350 H 224.666 -0.418006 4.97045 0
M  V30 2351 H 223.82 -2.73088 5.41763 0
M  V30 2352 H 222.559 -2.53208 4.16818 0
M  V30 2353 H 221.564 -0.624873 5.46237 0
M  V30 2354 H 222.789 -0.845998 6.7381 0
M  V30 2355 H 220.735 -2.91759 5.87548 0
M  V30 2356 H 220.652 -1.9428 7.3061 0
M  V30 2357 H 221.92 -3.12074 7.14304 0
M  V30 2358 N 226.149 -1.5696 0.141893 0
M  V30 2359 C 227.395 -1.97034 -0.504884 0
M  V30 2360 C 227.75 -1.02518 -1.62812 0
M  V30 2361 O 227.043 -0.0592943 -1.91508 0
M  V30 2362 C 227.237 -3.41242 -1.06249 0
M  V30 2363 C 227.066 -4.497 0.00519653 0
M  V30 2364 C 225.836 -5.03338 0.444873 0
M  V30 2365 C 228.034 -5.08122 0.794767 0
M  V30 2366 N 226.016 -5.95395 1.49593 0
M  V30 2367 C 227.387 -5.96339 1.69645 0
M  V30 2368 C 229.442 -4.9071 0.843122 0
M  V30 2369 C 228.145 -6.69009 2.64233 0
M  V30 2370 C 230.171 -5.64077 1.77681 0
M  V30 2371 C 229.533 -6.51999 2.66603 0
M  V30 2372 H 225.632 -0.766745 -0.153707 0
M  V30 2373 H 228.216 -1.93273 0.235313 0
M  V30 2374 H 226.387 -3.45606 -1.77231 0
M  V30 2375 H 228.119 -3.68389 -1.67546 0
M  V30 2376 H 224.874 -4.73576 0.0480959 0
M  V30 2377 H 225.298 -6.46128 2.02107 0
M  V30 2378 H 229.94 -4.22459 0.169732 0
M  V30 2379 H 227.658 -7.36492 3.32575 0
M  V30 2380 H 231.244 -5.52602 1.81996 0
M  V30 2381 H 230.124 -7.07775 3.37675 0
M  V30 2382 N 227.627 0.131896 -1.57047 0
M  V30 2383 C 228.875 0.840269 -1.83804 0
M  V30 2384 C 229.196 1.81017 -0.72512 0
M  V30 2385 O 228.466 1.94272 0.251995 0
M  V30 2386 H 227.046 0.313294 -0.678127 0
M  V30 2387 H 229.708 0.122294 -1.94516 0
M  V30 2388 H 228.804 1.39335 -2.79271 0
M  V30 2389 N 229.106 1.52395 0.401703 0
M  V30 2390 C 230.331 1.70972 1.17403 0
M  V30 2391 C 230.756 0.421615 1.83314 0
M  V30 2392 O 230.114 -0.621564 1.70312 0
M  V30 2393 C 230.162 2.85151 2.20728 0
M  V30 2394 O 229.266 2.51238 3.27037 0
M  V30 2395 H 228.607 0.568927 0.342372 0
M  V30 2396 H 231.137 1.99131 0.469891 0
M  V30 2397 H 231.147 3.10279 2.64936 0
M  V30 2398 H 229.822 3.78603 1.7214 0
M  V30 2399 H 228.399 2.36808 2.88057 0
M  V30 2400 N 230.584 -0.659388 1.43143 0
M  V30 2401 C 231.995 -1.24041 1.39537 0
M  V30 2402 C 232.346 -1.95963 0.0963364 0
M  V30 2403 O 231.471 -2.00892 -0.804438 0
M  V30 2404 C 232.066 -2.25601 2.52764 0
M  V30 2405 C 230.625 -2.79195 2.52443 0
M  V30 2406 C 229.772 -1.53743 2.30778 0
M  V30 2407 H 232.723 -0.451792 1.52133 0
M  V30 2408 H 232.744 -3.07651 2.23899 0
M  V30 2409 H 232.256 -1.73226 3.47296 0
M  V30 2410 H 230.357 -3.35649 1.61773 0
M  V30 2411 H 230.47 -3.2716 3.50004 0
M  V30 2412 H 228.834 -1.80869 1.79328 0
M  V30 2413 H 229.617 -1.03312 3.27386 0
M  V30 2414 N 232.062 -1.29571 -0.897171 0
M  V30 2415 C 233.308 -1.17863 -1.65034 0
M  V30 2416 C 233.641 0.268729 -1.92332 0
M  V30 2417 O 232.916 1.19378 -1.53555 0
M  V30 2418 C 233.199 -1.995 -2.99786 0
M  V30 2419 C 233.052 -3.5239 -2.79538 0
M  V30 2420 C 234.371 -1.82335 -4.00552 0
M  V30 2421 H 231.49 -0.429528 -0.598895 0
M  V30 2422 H 234.132 -1.59072 -1.03905 0
M  V30 2423 H 232.282 -1.64485 -3.51962 0
M  V30 2424 H 233.954 -3.97401 -2.34244 0
M  V30 2425 H 232.197 -3.77187 -2.14273 0
M  V30 2426 H 232.868 -4.04787 -3.75302 0
M  V30 2427 H 235.344 -2.12924 -3.57495 0
M  V30 2428 H 234.22 -2.41801 -4.92771 0
M  V30 2429 H 234.481 -0.779209 -4.35179 0
M  V30 2430 N 233.54 1.10788 -1.12088 0
M  V30 2431 C 234.765 1.87002 -0.896949 0
M  V30 2432 C 235.19 1.79933 0.548261 0
M  V30 2433 O 234.548 1.16662 1.38779 0
M  V30 2434 C 234.596 3.3349 -1.37174 0
M  V30 2435 O 233.7 4.08745 -0.547831 0
M  V30 2436 H 233.041 0.580397 -0.322545 0
M  V30 2437 H 235.571 1.39996 -1.49206 0
M  V30 2438 H 235.581 3.84339 -1.36922 0
M  V30 2439 H 234.256 3.37951 -2.42408 0
M  V30 2440 H 232.833 3.6776 -0.617034 0
M  V30 2441 N 235.018 0.912232 1.28515 0
M  V30 2442 C 235.948 0.416403 2.29757 0
M  V30 2443 C 236.929 -0.515194 1.6211 0
M  V30 2444 O 238.114 -0.423253 1.89532 0
M  V30 2445 C 235.244 -0.34572 3.45575 0
M  V30 2446 C 234.198 0.496599 4.25109 0
M  V30 2447 C 233.524 -0.393771 5.33248 0
M  V30 2448 C 234.824 1.75307 4.92001 0
M  V30 2449 H 236.518 1.26249 2.7148 0
M  V30 2450 H 234.064 0.608515 1.30511 0
M  V30 2451 H 236.017 -0.703422 4.15488 0
M  V30 2452 H 234.741 -1.2257 3.02728 0
M  V30 2453 H 233.4 0.8368 3.56922 0
M  V30 2454 H 233.048 -1.27225 4.86644 0
M  V30 2455 H 232.748 0.166209 5.87365 0
M  V30 2456 H 234.272 -0.747389 6.06009 0
M  V30 2457 H 235.686 1.46437 5.54283 0
M  V30 2458 H 234.083 2.25534 5.56106 0
M  V30 2459 H 235.153 2.48176 4.16577 0
M  V30 2460 N 236.496 -1.42363 0.676048 0
M  V30 2461 C 237.443 -2.308 -0.00150904 0
M  V30 2462 C 238.413 -1.46032 -0.791444 0
M  V30 2463 O 239.598 -1.74861 -0.76344 0
M  V30 2464 C 236.738 -3.31883 -0.945919 0
M  V30 2465 C 235.851 -4.31741 -0.149675 0
M  V30 2466 C 234.986 -5.19898 -1.08995 0
M  V30 2467 C 234.025 -6.11434 -0.285465 0
M  V30 2468 N 233.162 -6.92138 -1.17851 0
M  V30 2469 H 238.002 -2.88187 0.758455 0
M  V30 2470 H 235.539 -1.41952 0.38576 0
M  V30 2471 H 237.497 -3.89019 -1.50731 0
M  V30 2472 H 236.127 -2.76093 -1.6725 0
M  V30 2473 H 235.179 -3.76713 0.528359 0
M  V30 2474 H 236.491 -4.96534 0.474866 0
M  V30 2475 H 235.645 -5.81772 -1.72123 0
M  V30 2476 H 234.384 -4.55284 -1.74837 0
M  V30 2477 H 233.389 -5.48627 0.359018 0
M  V30 2478 H 234.614 -6.78097 0.368883 0
M  V30 2479 H 232.56 -6.30152 -1.82332 0
M  V30 2480 H 232.477 -7.53542 -0.609082 0
M  V30 2481 H 233.745 -7.58499 -1.79722 0
M  V30 2482 N 237.974 -0.419461 -1.51915 0
M  V30 2483 C 238.884 0.407528 -2.31033 0
M  V30 2484 C 239.9 1.04413 -1.3919 0
M  V30 2485 O 241.076 1.0434 -1.72265 0
M  V30 2486 C 238.141 1.50365 -3.12396 0
M  V30 2487 C 237.202 0.889029 -4.19994 0
M  V30 2488 C 236.435 1.93291 -4.97468 0
M  V30 2489 O 236.658 3.15259 -4.75361 0
M  V30 2490 O 235.592 1.53339 -5.8204 0
M  V30 2491 H 239.418 -0.237865 -3.02767 0
M  V30 2492 H 237.003 -0.182413 -1.48282 0
M  V30 2493 H 238.885 2.13975 -3.63032 0
M  V30 2494 H 237.56 2.13345 -2.43445 0
M  V30 2495 H 236.467 0.215353 -3.7348 0
M  V30 2496 H 237.8 0.302991 -4.91267 0
M  V30 2497 N 239.452 1.56882 -0.150215 0
M  V30 2498 C 240.699 1.96228 0.500093 0
M  V30 2499 C 241.027 1.03522 1.64661 0
M  V30 2500 O 240.282 0.0650683 1.95592 0
M  V30 2501 C 240.581 3.41801 1.04437 0
M  V30 2502 C 240.247 4.50897 0.0159671 0
M  V30 2503 C 238.909 4.8046 -0.266731 0
M  V30 2504 C 241.261 5.16703 -0.683192 0
M  V30 2505 C 238.589 5.73135 -1.25434 0
M  V30 2506 C 240.941 6.10441 -1.65964 0
M  V30 2507 C 239.605 6.38382 -1.95 0
M  V30 2508 H 238.875 0.718048 0.182997 0
M  V30 2509 H 241.522 1.90019 -0.237724 0
M  V30 2510 H 239.827 3.44857 1.85959 0
M  V30 2511 H 241.524 3.69573 1.55618 0
M  V30 2512 H 238.114 4.27891 0.246485 0
M  V30 2513 H 242.298 4.93993 -0.477983 0
M  V30 2514 H 237.554 5.93074 -1.48571 0
M  V30 2515 H 241.728 6.60507 -2.20689 0
M  V30 2516 H 239.355 7.09996 -2.71679 0
M  V30 2517 N 240.93 -0.123565 1.57115 0
M  V30 2518 C 242.177 -0.832153 1.84612 0
M  V30 2519 C 242.505 -1.80093 0.734627 0
M  V30 2520 O 241.76 -1.93766 -0.27442 0
M  V30 2521 C 242.059 -1.62016 3.18568 0
M  V30 2522 C 241.725 -0.796084 4.43817 0
M  V30 2523 C 240.387 -0.568816 4.77826 0
M  V30 2524 C 242.739 -0.221364 5.2073 0
M  V30 2525 C 240.067 0.243499 5.86194 0
M  V30 2526 C 242.419 0.578117 6.29953 0
M  V30 2527 C 241.083 0.815744 6.62497 0
M  V30 2528 H 240.353 -0.304507 0.675542 0
M  V30 2529 H 243 -0.0947248 1.91266 0
M  V30 2530 H 241.305 -2.42837 3.0747 0
M  V30 2531 H 243.002 -2.17231 3.37064 0
M  V30 2532 H 239.592 -0.983307 4.17168 0
M  V30 2533 H 243.776 -0.384173 4.94811 0
M  V30 2534 H 239.032 0.436871 6.09837 0
M  V30 2535 H 243.206 1.03046 6.88734 0
M  V30 2536 H 240.833 1.44701 7.46301 0
M  V30 2537 N 242.408 -1.52605 -0.393616 0
M  V30 2538 C 243.819 -1.59417 -0.971761 0
M  V30 2539 C 244.17 -0.444173 -1.91106 0
M  V30 2540 O 243.295 0.433382 -2.12016 0
M  V30 2541 C 243.89 -2.88936 -1.76921 0
M  V30 2542 C 242.449 -2.98175 -2.29714 0
M  V30 2543 C 241.596 -2.54491 -1.10135 0
M  V30 2544 H 244.547 -1.57751 -0.173317 0
M  V30 2545 H 244.568 -2.75163 -2.62804 0
M  V30 2546 H 244.08 -3.72616 -1.08532 0
M  V30 2547 H 242.181 -2.19024 -3.01429 0
M  V30 2548 H 242.294 -4.02726 -2.59517 0
M  V30 2549 H 240.658 -2.08702 -1.45999 0
M  V30 2550 H 241.441 -3.4056 -0.432874 0
M  V30 2551 N 243.887 0.651787 -1.4349 0
M  V30 2552 C 244.85 1.74647 -1.48429 0
M  V30 2553 C 245.85 1.56513 -0.368817 0
M  V30 2554 O 247.04 1.62385 -0.630623 0
M  V30 2555 C 244.172 3.13533 -1.33827 0
M  V30 2556 H 245.365 1.71649 -2.4592 0
M  V30 2557 H 242.918 0.863573 -1.30277 0
M  V30 2558 H 243.653 3.22142 -0.37349 0
M  V30 2559 H 243.438 3.28101 -2.14691 0
M  V30 2560 H 244.928 3.93356 -1.40218 0
M  V30 2561 N 245.365 1.30045 0.890287 0
M  V30 2562 C 246.275 1.17885 2.02831 0
M  V30 2563 C 247.291 0.0999609 1.73713 0
M  V30 2564 O 248.467 0.313867 1.98939 0
M  V30 2565 C 245.532 0.866079 3.35708 0
M  V30 2566 C 244.593 2.02979 3.78283 0
M  V30 2567 C 243.826 1.73184 5.0482 0
M  V30 2568 O 244.049 0.657237 5.66601 0
M  V30 2569 O 242.983 2.58267 5.43674 0
M  V30 2570 H 246.809 2.13474 2.16015 0
M  V30 2571 H 244.394 1.09587 1.01543 0
M  V30 2572 H 246.276 0.706623 4.15433 0
M  V30 2573 H 244.951 -0.0599443 3.23644 0
M  V30 2574 H 243.858 2.24454 2.99285 0
M  V30 2575 H 245.191 2.93734 3.94944 0
M  V30 2576 N 246.843 -1.10192 1.12674 0
M  V30 2577 C 247.776 -2.15847 0.740625 0
M  V30 2578 C 248.754 -1.60352 -0.269421 0
M  V30 2579 O 249.938 -1.87796 -0.16278 0
M  V30 2580 C 247.065 -3.38562 0.096641 0
M  V30 2581 C 246.111 -4.12758 1.07391 0
M  V30 2582 S 246.944 -4.67997 2.60267 0
M  V30 2583 C 248.1 -5.94021 1.97206 0
M  V30 2584 H 248.333 -2.48266 1.63558 0
M  V30 2585 H 245.866 -1.22019 0.946087 0
M  V30 2586 H 247.824 -4.09621 -0.268535 0
M  V30 2587 H 246.485 -3.04377 -0.775462 0
M  V30 2588 H 245.678 -5.00755 0.570997 0
M  V30 2589 H 245.28 -3.47523 1.38216 0
M  V30 2590 H 247.572 -6.64589 1.31634 0
M  V30 2591 H 248.515 -6.48979 2.83253 0
M  V30 2592 H 248.923 -5.46169 1.42686 0
M  V30 2593 N 248.321 -0.919034 -1.28029 0
M  V30 2594 C 249.231 -0.416756 -2.30869 0
M  V30 2595 C 250.247 0.498235 -1.66714 0
M  V30 2596 O 251.423 0.383144 -1.97722 0
M  V30 2597 C 248.488 0.330274 -3.45123 0
M  V30 2598 C 247.549 -0.618578 -4.2482 0
M  V30 2599 C 246.782 0.0928959 -5.33619 0
M  V30 2600 O 247.005 1.31375 -5.55065 0
M  V30 2601 O 245.939 -0.574499 -5.99152 0
M  V30 2602 H 249.765 -1.27043 -2.75851 0
M  V30 2603 H 247.35 -0.684052 -1.3282 0
M  V30 2604 H 249.232 0.751972 -4.14636 0
M  V30 2605 H 247.907 1.1597 -3.02213 0
M  V30 2606 H 246.814 -1.08978 -3.57875 0
M  V30 2607 H 248.147 -1.41497 -4.71423 0
M  V30 2608 N 249.799 1.42003 -0.683588 0
M  V30 2609 C 251.047 2.01015 -0.209101 0
M  V30 2610 C 251.368 1.54365 1.19149 0
M  V30 2611 O 250.638 0.769083 1.80172 0
M  V30 2612 H 249.218 0.743294 -0.074315 0
M  V30 2613 H 251.88 1.73798 -0.882066 0
M  V30 2614 H 250.976 3.11343 -0.2172 0
M  V30 2615 N 251.277 0.427512 1.51691 0
M  V30 2616 C 252.21 -0.433876 2.24037 0
M  V30 2617 C 253.188 -1.03287 1.25581 0
M  V30 2618 O 254.372 -1.07722 1.54688 0
M  V30 2619 C 251.499 -1.60385 2.98319 0
M  V30 2620 C 250.545 -1.12648 4.11355 0
M  V30 2621 S 251.378 -0.076543 5.35445 0
M  V30 2622 C 252.534 -1.25141 6.13262 0
M  V30 2623 H 252.767 0.180367 2.96752 0
M  V30 2624 H 250.3 0.211946 1.52938 0
M  V30 2625 H 252.258 -2.27462 3.41718 0
M  V30 2626 H 250.919 -2.18948 2.25213 0
M  V30 2627 H 250.112 -2.0011 4.62571 0
M  V30 2628 H 249.714 -0.534088 3.70167 0
M  V30 2629 H 252.006 -2.17162 6.41753 0
M  V30 2630 H 252.949 -0.779411 7.03797 0
M  V30 2631 H 253.357 -1.48553 5.44603 0
M  V30 2632 N 252.755 -1.56801 0.158532 0
M  V30 2633 C 253.705 -2.13923 -0.788738 0
M  V30 2634 C 254.689 -1.07006 -1.2016 0
M  V30 2635 O 255.881 -1.33159 -1.1661 0
M  V30 2636 C 253.01 -2.77348 -2.02319 0
M  V30 2637 C 252.096 -3.91404 -1.6329 0
M  V30 2638 N 252.487 -4.9677 -0.951463 0
M  V30 2639 C 250.785 -4.02326 -1.92482 0
M  V30 2640 C 251.486 -5.76698 -0.761221 0
M  V30 2641 N 250.462 -5.27859 -1.29869 0
M  V30 2642 H 254.264 -2.92757 -0.258995 0
M  V30 2643 H 251.778 -1.62344 -0.0426055 0
M  V30 2644 H 253.775 -3.16639 -2.71192 0
M  V30 2645 H 252.435 -1.99991 -2.558 0
M  V30 2646 H 253.446 -5.14284 -0.610928 0
M  V30 2647 H 250.123 -3.36059 -2.47732 0
M  V30 2648 H 251.513 -6.71529 -0.223284 0
M  V30 2649 N 254.233 0.115231 -1.57178 0
M  V30 2650 C 255.461 0.836437 -1.89239 0
M  V30 2651 C 255.876 1.73256 -0.750175 0
M  V30 2652 O 255.233 1.80357 0.278832 0
M  V30 2653 C 255.284 1.66671 -3.20785 0
M  V30 2654 O 255.005 0.806652 -4.3061 0
M  V30 2655 C 256.506 2.49274 -3.66575 0
M  V30 2656 H 253.726 0.240253 -0.626514 0
M  V30 2657 H 256.27 0.0984932 -2.04263 0
M  V30 2658 H 254.425 2.35737 -3.0742 0
M  V30 2659 H 254.839 1.37969 -5.06028 0
M  V30 2660 H 256.313 3.03055 -4.6137 0
M  V30 2661 H 256.79 3.26807 -2.93417 0
M  V30 2662 H 257.396 1.85443 -3.82741 0
M  V30 2663 N 255.711 1.52812 0.385517 0
M  V30 2664 C 256.659 1.78482 1.49155 0
M  V30 2665 C 257.653 0.652914 1.56312 0
M  V30 2666 O 258.859 0.835464 1.59436 0
M  V30 2667 H 255.234 0.5648 0.496493 0
M  V30 2668 H 257.205 2.71095 1.24699 0
M  V30 2669 C 255.954 1.97378 2.86247 0
M  V30 2670 H 255.277 2.83907 2.81491 0
M  V30 2671 H 256.717 2.19327 3.62866 0
M  V30 2672 C 255.176 0.74728 3.28508 0
M  V30 2673 O 255.706 -0.0736232 4.01633 0
M  V30 2674 N 253.912 0.576396 2.84826 0
M  V30 2675 H 253.459 1.24555 2.25486 0
M  V30 2676 H 253.417 -0.24288 3.1346 0
M  V30 2677 N 257.189 -0.644168 1.43834 0
M  V30 2678 C 258.121 -1.76955 1.45669 0
M  V30 2679 C 259.134 -1.58956 0.351666 0
M  V30 2680 O 260.323 -1.6751 0.616644 0
M  V30 2681 C 257.423 -3.14507 1.26248 0
M  V30 2682 C 256.596 -3.59083 2.49757 0
M  V30 2683 C 255.655 -4.75467 2.25427 0
M  V30 2684 O 254.681 -4.84444 2.98836 0
M  V30 2685 N 255.883 -5.66289 1.27661 0
M  V30 2686 H 258.648 -1.75856 2.42682 0
M  V30 2687 H 256.209 -0.828312 1.39106 0
M  V30 2688 H 258.201 -3.90067 1.0784 0
M  V30 2689 H 256.771 -3.10325 0.376478 0
M  V30 2690 H 255.991 -2.7387 2.8353 0
M  V30 2691 H 257.279 -3.85613 3.31934 0
M  V30 2692 H 256.677 -5.61718 0.670064 0
M  V30 2693 H 255.234 -6.41533 1.15234 0
M  V30 2694 N 258.668 -1.30515 -0.883378 0
M  V30 2695 C 259.915 -1.1943 -1.63532 0
M  V30 2696 C 260.243 0.250627 -1.92878 0
M  V30 2697 O 259.498 1.19556 -1.54935 0
M  V30 2698 C 259.797 -1.96994 -2.98209 0
M  V30 2699 C 259.463 -3.466 -2.88408 0
M  V30 2700 C 258.125 -3.87397 -2.85442 0
M  V30 2701 C 260.477 -4.41863 -2.76418 0
M  V30 2702 C 257.805 -5.21745 -2.68327 0
M  V30 2703 C 260.157 -5.7632 -2.60841 0
M  V30 2704 C 258.821 -6.16354 -2.56251 0
M  V30 2705 H 258.091 -0.437025 -0.598406 0
M  V30 2706 H 260.738 -1.61635 -1.02696 0
M  V30 2707 H 259.043 -1.47429 -3.63004 0
M  V30 2708 H 260.74 -1.85808 -3.55354 0
M  V30 2709 H 257.33 -3.14182 -2.91527 0
M  V30 2710 H 261.514 -4.11285 -2.77775 0
M  V30 2711 H 256.77 -5.51853 -2.63189 0
M  V30 2712 H 260.944 -6.49772 -2.50538 0
M  V30 2713 H 258.571 -7.20401 -2.42748 0
M  V30 2714 N 260.146 1.09593 -1.13257 0
M  V30 2715 C 261.076 2.18214 -0.830946 0
M  V30 2716 C 262.057 1.68812 0.208966 0
M  V30 2717 O 263.242 1.9408 0.0682666 0
M  V30 2718 C 260.372 3.46051 -0.294296 0
M  V30 2719 C 259.326 4.08778 -1.26826 0
M  V30 2720 C 258.652 5.31419 -0.591449 0
M  V30 2721 C 259.952 4.51476 -2.62615 0
M  V30 2722 H 261.646 2.43703 -1.73923 0
M  V30 2723 H 259.192 1.17128 -0.837675 0
M  V30 2724 H 261.145 4.2134 -0.0709606 0
M  V30 2725 H 259.869 3.20079 0.649366 0
M  V30 2726 H 258.528 3.35505 -1.47756 0
M  V30 2727 H 258.176 5.01727 0.357633 0
M  V30 2728 H 257.876 5.74341 -1.24123 0
M  V30 2729 H 259.4 6.09433 -0.377355 0
M  V30 2730 H 260.814 5.17999 -2.45663 0
M  V30 2731 H 259.211 5.05277 -3.23752 0
M  V30 2732 H 260.281 3.63962 -3.20406 0
M  V30 2733 N 261.624 0.925811 1.2754 0
M  V30 2734 C 262.872 0.564138 1.94067 0
M  V30 2735 C 263.193 -0.897188 1.73134 0
M  V30 2736 O 262.463 -1.63573 1.07799 0
M  V30 2737 H 261.043 0.205645 0.718136 0
M  V30 2738 H 263.705 1.1778 1.55287 0
M  V30 2739 H 262.801 0.76881 3.02483 0
M  V30 2740 N 263.102 -1.41638 0.69111 0
M  V30 2741 C 264.35 -2.00902 0.219758 0
M  V30 2742 C 264.671 -1.54994 -1.18329 0
M  V30 2743 O 263.941 -0.778628 -1.79762 0
M  V30 2744 H 262.521 -0.74289 0.0782558 0
M  V30 2745 H 265.183 -1.73327 0.891271 0
M  V30 2746 H 264.279 -3.11224 0.233708 0
M  V30 2747 N 264.58 -0.43555 -1.51462 0
M  V30 2748 C 265.543 0.365137 -2.26273 0
M  V30 2749 C 266.543 0.951227 -1.29647 0
M  V30 2750 O 267.733 0.825958 -1.53374 0
M  V30 2751 C 264.865 1.51645 -3.05314 0
M  V30 2752 H 266.058 -0.290474 -2.9849 0
M  V30 2753 H 263.611 -0.188676 -1.55157 0
M  V30 2754 H 264.346 2.20816 -2.3751 0
M  V30 2755 H 264.131 1.10238 -3.76284 0
M  V30 2756 H 265.621 2.08218 -3.61987 0
M  V30 2757 N 266.058 1.56714 -0.166846 0
M  V30 2758 C 267.306 1.96358 0.478305 0
M  V30 2759 C 267.627 1.0537 1.6408 0
M  V30 2760 O 266.897 0.119154 1.95537 0
M  V30 2761 H 265.477 0.725065 0.179692 0
M  V30 2762 H 268.139 1.93329 -0.246985 0
M  V30 2763 H 267.235 3.00547 0.841292 0
M  V30 2764 N 267.536 -0.106894 1.57237 0
M  V30 2765 C 268.782 -0.81373 1.85759 0
M  V30 2766 C 269.115 -1.78952 0.754315 0
M  V30 2767 O 268.39 -1.93029 -0.23879 0
M  V30 2768 C 268.673 -1.55293 3.24894 0
M  V30 2769 C 268.526 -0.595929 4.45835 0
M  V30 2770 C 269.845 -2.5063 3.61763 0
M  V30 2771 H 266.964 -0.294369 0.67566 0
M  V30 2772 H 269.606 -0.0776472 1.89841 0
M  V30 2773 H 267.756 -2.1804 3.21544 0
M  V30 2774 H 269.428 0.0236262 4.61294 0
M  V30 2775 H 267.671 0.0916191 4.33703 0
M  V30 2776 H 268.342 -1.15004 5.39887 0
M  V30 2777 H 270.818 -1.97982 3.65981 0
M  V30 2778 H 269.694 -2.99376 4.60071 0
M  V30 2779 H 269.955 -3.3385 2.89821 0
M  V30 2780 N 269.014 -1.53014 -0.377408 0
M  V30 2781 C 269.977 -1.77957 -1.44444 0
M  V30 2782 C 270.977 -0.649763 -1.47087 0
M  V30 2783 O 272.167 -0.917897 -1.48055 0
M  V30 2784 C 269.299 -1.89089 -2.83651 0
M  V30 2785 H 270.492 -2.73243 -1.23606 0
M  V30 2786 H 268.045 -1.43912 -0.609844 0
M  V30 2787 H 268.78 -0.958293 -3.09818 0
M  V30 2788 H 268.565 -2.71254 -2.83132 0
M  V30 2789 H 270.055 -2.1002 -3.60945 0
M  V30 2790 N 270.492 0.636531 -1.44174 0
M  V30 2791 C 271.741 1.39213 -1.45954 0
M  V30 2792 C 272.054 1.95374 -0.0939119 0
M  V30 2793 O 273.26 2.71498 0.0107767 0
M  V30 2794 C 271.716 2.52025 -2.56927 0
M  V30 2795 C 271.324 2.024 -3.99673 0
M  V30 2796 C 273.068 3.29269 -2.67922 0
M  V30 2797 C 270.975 3.12521 -5.0208 0
M  V30 2798 H 269.905 0.523132 -0.542999 0
M  V30 2799 H 272.556 0.685349 -1.70221 0
M  V30 2800 H 270.938 3.25253 -2.25891 0
M  V30 2801 H 272.112 1.36073 -4.40251 0
M  V30 2802 H 270.427 1.37987 -3.92872 0
M  V30 2803 H 273.024 4.11352 -3.41605 0
M  V30 2804 H 273.367 3.78397 -1.73555 0
M  V30 2805 H 273.9 2.63129 -2.98342 0
M  V30 2806 H 270.639 2.68343 -5.98057 0
M  V30 2807 H 270.159 3.77507 -4.66099 0
M  V30 2808 H 271.838 3.77385 -5.25538 0
M  V30 2809 N 271.97 1.30982 0.876444 0
M  V30 2810 C 273.216 1.20474 1.63138 0
M  V30 2811 C 273.549 -0.238096 1.92735 0
M  V30 2812 O 272.824 -1.1692 1.55435 0
M  V30 2813 C 273.107 2.04244 2.96574 0
M  V30 2814 C 272.96 3.56793 2.73896 0
M  V30 2815 C 274.279 1.88684 3.97601 0
M  V30 2816 H 271.398 0.439001 0.591985 0
M  V30 2817 H 274.04 1.60704 1.01361 0
M  V30 2818 H 272.19 1.70063 3.493 0
M  V30 2819 H 273.862 4.01077 2.27892 0
M  V30 2820 H 272.105 3.80548 2.08245 0
M  V30 2821 H 272.776 4.10706 3.68815 0
M  V30 2822 H 275.252 2.18584 3.54062 0
M  V30 2823 H 274.128 2.4961 4.88862 0
M  V30 2824 H 274.389 0.848343 4.33884 0
M  V30 2825 N 273.449 -1.08991 1.13837 0
M  V30 2826 C 274.412 -2.13925 0.822715 0
M  V30 2827 C 275.412 -1.599 -0.1699 0
M  V30 2828 O 276.602 -1.74104 0.0577251 0
M  V30 2829 C 273.734 -3.40155 0.225318 0
M  V30 2830 H 274.927 -2.43358 1.75262 0
M  V30 2831 H 272.48 -1.24603 0.943594 0
M  V30 2832 H 273.215 -3.16352 -0.713594 0
M  V30 2833 H 273 -3.80661 0.940193 0
M  V30 2834 H 274.49 -4.17594 0.0214784 0
M  V30 2835 N 274.927 -0.932562 -1.27047 0
M  V30 2836 C 276.152 -0.591474 -1.98787 0
M  V30 2837 C 276.577 0.824601 -1.69062 0
M  V30 2838 O 275.935 1.5541 -0.933677 0
M  V30 2839 C 275.983 -0.829808 -3.50922 0
M  V30 2840 O 275.087 0.102266 -4.12273 0
M  V30 2841 H 274.428 -0.227185 -0.623926 0
M  V30 2842 H 276.958 -1.25314 -1.61733 0
M  V30 2843 H 276.968 -0.747292 -4.01098 0
M  V30 2844 H 275.643 -1.86201 -3.7189 0
M  V30 2845 H 274.22 -0.0305761 -3.72887 0
M  V30 2846 N 276.405 1.4127 -0.698611 0
M  V30 2847 C 277.353 2.32588 -0.023855 0
M  V30 2848 C 278.347 1.51128 0.765292 0
M  V30 2849 O 279.553 1.67043 0.670571 0
M  V30 2850 H 275.928 0.751918 0.0110871 0
M  V30 2851 H 277.899 2.87167 -0.811031 0
M  V30 2852 C 276.648 3.35947 0.896369 0
M  V30 2853 H 275.971 3.98684 0.298548 0
M  V30 2854 H 277.411 4.02376 1.33676 0
M  V30 2855 C 275.87 2.70076 2.01396 0
M  V30 2856 O 276.4 2.55093 3.10307 0
M  V30 2857 N 274.606 2.28724 1.79259 0
M  V30 2858 H 274.153 2.4111 0.906841 0
M  V30 2859 H 274.111 1.84986 2.54219 0
M  V30 2860 N 277.883 0.443576 1.51229 0
M  V30 2861 C 279.131 -0.120557 2.0174 0
M  V30 2862 C 279.452 -1.42665 1.32935 0
M  V30 2863 O 278.722 -1.9028 0.465866 0
M  V30 2864 H 277.302 -0.0475426 0.745486 0
M  V30 2865 H 279.964 0.587711 1.85828 0
M  V30 2866 H 279.06 -0.291972 3.10731 0
M  V30 2867 N 279.361 -1.56624 0.175154 0
M  V30 2868 C 280.309 -2.19468 -0.770495 0
M  V30 2869 C 281.303 -1.15985 -1.23466 0
M  V30 2870 O 282.509 -1.34176 -1.19987 0
M  V30 2871 H 278.884 -0.703095 -0.266761 0
M  V30 2872 H 280.855 -2.97613 -0.216542 0
M  V30 2873 C 279.604 -2.85264 -1.98796 0
M  V30 2874 H 278.927 -3.64623 -1.63983 0
M  V30 2875 H 280.367 -3.327 -2.62843 0
M  V30 2876 C 278.826 -1.85239 -2.81404 0
M  V30 2877 O 279.356 -1.34024 -3.78682 0
M  V30 2878 N 277.562 -1.53911 -2.46495 0
M  V30 2879 H 277.109 -1.95751 -1.67449 0
M  V30 2880 H 277.067 -0.872382 -3.02054 0
M  V30 2881 N 280.839 0.0985539 -1.57292 0
M  V30 2882 C 281.769 1.12064 -2.04851 0
M  V30 2883 C 282.75 1.41981 -0.936767 0
M  V30 2884 O 283.935 1.52071 -1.20781 0
M  V30 2885 C 281.065 2.44144 -2.47004 0
M  V30 2886 C 280.019 2.28643 -3.6181 0
M  V30 2887 C 279.345 3.65869 -3.89929 0
M  V30 2888 C 280.645 1.72986 -4.92822 0
M  V30 2889 H 282.339 0.724979 -2.9049 0
M  V30 2890 H 279.885 0.34729 -1.39749 0
M  V30 2891 H 281.838 3.15914 -2.78884 0
M  V30 2892 H 280.562 2.85639 -1.5836 0
M  V30 2893 H 279.221 1.59318 -3.30172 0
M  V30 2894 H 278.869 4.04885 -2.98458 0
M  V30 2895 H 278.569 3.56344 -4.67218 0
M  V30 2896 H 280.093 4.39112 -4.2428 0
M  V30 2897 H 281.507 2.34593 -5.23105 0
M  V30 2898 H 279.904 1.74229 -5.74251 0
M  V30 2899 H 280.974 0.689007 -4.7998 0
M  V30 2900 N 282.317 1.53212 0.369288 0
M  V30 2901 C 283.563 1.69466 1.11397 0
M  V30 2902 C 283.896 0.443257 1.89074 0
M  V30 2903 O 283.171 -0.559386 1.86282 0
M  V30 2904 C 283.454 2.9422 2.07621 0
M  V30 2905 C 283.307 4.29508 1.33577 0
M  V30 2906 C 284.626 3.14565 3.07794 0
M  V30 2907 H 281.745 0.616667 0.403597 0
M  V30 2908 H 284.387 1.85845 0.395179 0
M  V30 2909 H 282.537 2.80387 2.68916 0
M  V30 2910 H 284.209 4.55147 0.750955 0
M  V30 2911 H 282.452 4.29088 0.637618 0
M  V30 2912 H 283.123 5.12926 2.03989 0
M  V30 2913 H 285.599 3.2756 2.56601 0
M  V30 2914 H 284.475 4.03297 3.72348 0
M  V30 2915 H 284.736 2.29675 3.77759 0
M  V30 2916 N 283.795 -0.628877 1.44509 0
M  V30 2917 C 285.025 -1.41349 1.50678 0
M  V30 2918 C 285.433 -1.88745 0.131075 0
M  V30 2919 O 284.776 -1.61592 -0.87371 0
M  V30 2920 C 284.838 -2.66608 2.41165 0
M  V30 2921 C 284.502 -2.40993 3.88293 0
M  V30 2922 C 285.499 -2.0268 4.78766 0
M  V30 2923 C 283.184 -2.54563 4.33016 0
M  V30 2924 C 285.178 -1.78269 6.11963 0
M  V30 2925 C 282.865 -2.29766 5.6626 0
M  V30 2926 C 283.863 -1.91678 6.55552 0
M  V30 2927 O 283.551 -1.67158 7.86329 0
M  V30 2928 H 283.283 -0.439851 0.51333 0
M  V30 2929 H 285.837 -0.776084 1.90174 0
M  V30 2930 H 284.067 -3.32994 1.96601 0
M  V30 2931 H 285.756 -3.28615 2.38259 0
M  V30 2932 H 286.522 -1.91751 4.45485 0
M  V30 2933 H 282.401 -2.83179 3.63773 0
M  V30 2934 H 285.945 -1.48465 6.81619 0
M  V30 2935 H 281.842 -2.40306 5.99102 0
M  V30 2936 H 282.61 -1.81386 7.98149 0
M  V30 2937 N 285.273 -1.31445 -0.869486 0
M  V30 2938 C 286.684 -1.19042 -1.43826 0
M  V30 2939 C 287.035 0.202919 -1.95148 0
M  V30 2940 O 286.16 1.10071 -1.86315 0
M  V30 2941 C 286.755 -2.15499 -2.6143 0
M  V30 2942 C 285.314 -2.07028 -3.14351 0
M  V30 2943 C 284.461 -2.04701 -1.87063 0
M  V30 2944 H 287.412 -1.43489 -0.677984 0
M  V30 2945 H 287.433 -1.74488 -3.38134 0
M  V30 2946 H 286.945 -3.16899 -2.24046 0
M  V30 2947 H 285.046 -1.08825 -3.56354 0
M  V30 2948 H 285.159 -2.96157 -3.766 0
M  V30 2949 H 283.523 -1.49724 -2.06046 0
M  V30 2950 H 284.306 -3.07857 -1.51917 0
M  V30 2951 N 286.751 1.08385 -1.14413 0
M  V30 2952 C 287.997 1.81044 -0.913834 0
M  V30 2953 C 288.33 1.86004 0.558209 0
M  V30 2954 O 287.605 1.33606 1.4135 0
M  V30 2955 C 287.888 3.26648 -1.51569 0
M  V30 2956 C 287.741 3.29895 -3.0576 0
M  V30 2957 C 289.06 4.23629 -1.19273 0
M  V30 2958 H 286.179 0.65727 -0.333414 0
M  V30 2959 H 288.821 1.26896 -1.41412 0
M  V30 2960 H 286.971 3.72889 -1.09023 0
M  V30 2961 H 288.643 2.91977 -3.57137 0
M  V30 2962 H 286.886 2.69163 -3.40197 0
M  V30 2963 H 287.557 4.32516 -3.42977 0
M  V30 2964 H 290.033 3.85727 -1.56057 0
M  V30 2965 H 288.909 5.23822 -1.64017 0
M  V30 2966 H 289.17 4.41968 -0.108068 0
M  V30 2967 N 288.23 0.939286 1.26551 0
M  V30 2968 C 289.162 0.404704 2.25599 0
M  V30 2969 C 290.175 -0.470983 1.55838 0
M  V30 2970 O 291.364 -0.281734 1.76263 0
M  V30 2971 C 288.464 -0.43764 3.36062 0
M  V30 2972 C 287.637 0.421449 4.35365 0
M  V30 2973 C 286.696 -0.36015 5.24966 0
M  V30 2974 O 285.722 0.236167 5.6871 0
M  V30 2975 N 286.924 -1.65715 5.56344 0
M  V30 2976 H 289.689 1.25618 2.72103 0
M  V30 2977 H 287.25 0.807963 1.40298 0
M  V30 2978 H 289.242 -0.967866 3.92956 0
M  V30 2979 H 287.812 -1.18991 2.89067 0
M  V30 2980 H 287.032 1.1329 3.7757 0
M  V30 2981 H 288.32 1.00835 4.98708 0
M  V30 2982 H 287.718 -2.16378 5.22682 0
M  V30 2983 H 286.275 -2.13366 6.15888 0
M  V30 2984 N 289.708 -1.40897 0.706093 0
M  V30 2985 C 290.954 -2.01352 0.241889 0
M  V30 2986 C 291.287 -1.55832 -1.15888 0
M  V30 2987 O 290.562 -0.774145 -1.7843 0
M  V30 2988 C 290.845 -3.58752 0.311311 0
M  V30 2989 C 290.698 -4.1437 1.74978 0
M  V30 2990 C 292.017 -4.38914 -0.322922 0
M  V30 2991 H 289.136 -0.731562 0.0893687 0
M  V30 2992 H 291.778 -1.67504 0.896802 0
M  V30 2993 H 289.928 -3.87718 -0.246302 0
M  V30 2994 H 291.6 -3.96239 2.36205 0
M  V30 2995 H 289.843 -3.69016 2.28057 0
M  V30 2996 H 290.514 -5.23532 1.74981 0
M  V30 2997 H 292.99 -4.15822 0.152089 0
M  V30 2998 H 291.866 -5.48358 -0.243855 0
M  V30 2999 H 292.127 -4.19176 -1.40513 0
M  V30 3000 N 291.186 -0.45159 -1.50991 0
M  V30 3001 C 292.414 0.108334 -2.06616 0
M  V30 3002 C 292.829 1.35224 -1.31757 0
M  V30 3003 O 292.186 1.78475 -0.381174 0
M  V30 3004 C 292.237 0.41619 -3.59096 0
M  V30 3005 O 291.958 -0.778361 -4.3113 0
M  V30 3006 C 293.459 1.02523 -4.31282 0
M  V30 3007 H 290.679 0.00159995 -0.670998 0
M  V30 3008 H 293.223 -0.634771 -1.94399 0
M  V30 3009 H 291.378 1.10921 -3.71181 0
M  V30 3010 H 291.792 -0.511181 -5.22003 0
M  V30 3011 H 293.266 1.19053 -5.39009 0
M  V30 3012 H 293.743 2.01013 -3.905 0
M  V30 3013 H 294.349 0.371173 -4.23677 0
M  V30 3014 N 292.664 1.56529 -0.183458 0
M  V30 3015 C 293.612 2.19873 0.758845 0
M  V30 3016 C 294.606 1.16638 1.22849 0
M  V30 3017 O 295.812 1.3481 1.19274 0
M  V30 3018 H 292.187 0.7045 0.263029 0
M  V30 3019 H 294.158 2.97724 0.200755 0
M  V30 3020 C 292.907 2.86314 1.9728 0
M  V30 3021 H 292.23 3.65487 1.62047 0
M  V30 3022 H 293.67 3.3409 2.61075 0
M  V30 3023 C 292.129 1.86729 2.80418 0
M  V30 3024 O 292.659 1.36031 3.77966 0
M  V30 3025 N 290.865 1.55216 2.45675 0
M  V30 3026 H 290.412 1.96636 1.66409 0
M  V30 3027 H 290.37 0.888388 3.01588 0
M  V30 3028 N 294.142 -0.090211 1.57342 0
M  V30 3029 C 295.089 -1.10909 2.02405 0
M  V30 3030 C 296.059 -1.39523 0.901252 0
M  V30 3031 O 297.244 -1.50903 1.1676 0
M  V30 3032 C 294.384 -2.42277 2.45755 0
M  V30 3033 C 293.497 -2.20352 3.71576 0
M  V30 3034 C 292.632 -3.45154 4.03785 0
M  V30 3035 C 291.671 -3.18512 5.22701 0
M  V30 3036 N 290.808 -4.35593 5.50639 0
M  V30 3037 H 295.648 -0.71782 2.89225 0
M  V30 3038 H 293.185 -0.342901 1.43048 0
M  V30 3039 H 295.143 -3.18951 2.68935 0
M  V30 3040 H 293.773 -2.79242 1.61938 0
M  V30 3041 H 292.825 -1.34458 3.55844 0
M  V30 3042 H 294.137 -1.96661 4.58395 0
M  V30 3043 H 293.291 -4.30233 4.27767 0
M  V30 3044 H 292.03 -3.71904 3.15498 0
M  V30 3045 H 291.035 -2.31827 4.98534 0
M  V30 3046 H 292.26 -2.93103 6.12591 0
M  V30 3047 H 290.206 -4.6241 4.6531 0
M  V30 3048 H 290.123 -4.1511 6.31838 0
M  V30 3049 H 291.391 -5.21723 5.7916 0
M  V30 3050 N 295.62 -1.53406 -0.361157 0
M  V30 3051 C 296.567 -1.80156 -1.44265 0
M  V30 3052 C 297.537 -0.646183 -1.53015 0
M  V30 3053 O 298.722 -0.888818 -1.68833 0
M  V30 3054 C 295.862 -2.00116 -2.81154 0
M  V30 3055 C 294.975 -3.27833 -2.81335 0
M  V30 3056 C 294.11 -3.37957 -4.09828 0
M  V30 3057 C 293.149 -4.59689 -4.04168 0
M  V30 3058 N 292.286 -4.66942 -5.24318 0
M  V30 3059 H 297.126 -2.72438 -1.20754 0
M  V30 3060 H 294.663 -1.34954 -0.585296 0
M  V30 3061 H 296.621 -2.09677 -3.60682 0
M  V30 3062 H 295.251 -1.11167 -3.03054 0
M  V30 3063 H 294.303 -3.27204 -1.94014 0
M  V30 3064 H 295.615 -4.17442 -2.73027 0
M  V30 3065 H 294.769 -3.46853 -4.97773 0
M  V30 3066 H 293.508 -2.46372 -4.20894 0
M  V30 3067 H 292.513 -4.50889 -3.14609 0
M  V30 3068 H 293.738 -5.5262 -3.947 0
M  V30 3069 H 291.684 -3.7826 -5.35962 0
M  V30 3070 H 291.601 -5.50462 -5.18197 0
M  V30 3071 H 292.869 -4.80127 -6.14084 0
M  V30 3072 N 297.098 0.621204 -1.44841 0
M  V30 3073 C 298.045 1.73267 -1.5247 0
M  V30 3074 C 299.015 1.6189 -0.371611 0
M  V30 3075 O 300.2 1.81668 -0.58321 0
M  V30 3076 C 297.34 3.11545 -1.48438 0
M  V30 3077 C 296.453 3.33827 -2.74196 0
M  V30 3078 C 295.588 4.62133 -2.61929 0
M  V30 3079 C 294.627 4.77627 -3.82804 0
M  V30 3080 N 293.764 5.97219 -3.69153 0
M  V30 3081 H 298.604 1.66082 -2.47428 0
M  V30 3082 H 296.141 0.810026 -1.22788 0
M  V30 3083 H 298.099 3.91528 -1.4409 0
M  V30 3084 H 296.729 3.1772 -0.570402 0
M  V30 3085 H 295.781 2.47715 -2.88689 0
M  V30 3086 H 297.093 3.41153 -3.6389 0
M  V30 3087 H 296.247 5.50291 -2.5547 0
M  V30 3088 H 294.986 4.57182 -1.69811 0
M  V30 3089 H 293.991 3.87896 -3.89637 0
M  V30 3090 H 295.216 4.84385 -4.75971 0
M  V30 3091 H 293.162 5.93339 -2.79794 0
M  V30 3092 H 293.079 6.05644 -4.52472 0
M  V30 3093 H 294.347 6.87912 -3.66603 0
M  V30 3094 N 298.576 1.31904 0.862503 0
M  V30 3095 C 299.508 1.16005 1.97675 0
M  V30 3096 C 300.521 0.0971234 1.6251 0
M  V30 3097 O 301.71 0.345337 1.75128 0
M  V30 3098 C 298.81 0.751791 3.30456 0
M  V30 3099 C 297.983 1.90133 3.93914 0
M  V30 3100 C 297.042 1.4779 5.05019 0
M  V30 3101 O 296.068 2.18872 5.25437 0
M  V30 3102 N 297.27 0.369491 5.79323 0
M  V30 3103 H 300.035 2.11982 2.11857 0
M  V30 3104 H 297.596 1.24337 1.03691 0
M  V30 3105 H 299.588 0.451084 4.02178 0
M  V30 3106 H 298.158 -0.116593 3.12382 0
M  V30 3107 H 297.378 2.36896 3.15078 0
M  V30 3108 H 298.666 2.67111 4.33047 0
M  V30 3109 H 298.064 -0.222299 5.65263 0
M  V30 3110 H 296.621 0.128354 6.51674 0
M  V30 3111 N 300.054 -1.07777 1.14986 0
M  V30 3112 C 301.3 -1.80557 0.923422 0
M  V30 3113 C 301.633 -1.86298 -0.548337 0
M  V30 3114 O 300.908 -1.34354 -1.40639 0
M  V30 3115 C 301.191 -3.25839 1.53299 0
M  V30 3116 C 301.044 -3.28269 3.07505 0
M  V30 3117 C 302.363 -4.22991 1.21518 0
M  V30 3118 H 299.482 -0.655493 0.336894 0
M  V30 3119 H 302.124 -1.26144 1.42083 0
M  V30 3120 H 300.274 -3.72306 1.10999 0
M  V30 3121 H 301.946 -2.90079 3.58681 0
M  V30 3122 H 300.189 -2.67355 3.4162 0
M  V30 3123 H 300.86 -4.30691 3.45266 0
M  V30 3124 H 303.336 -3.84894 1.581 0
M  V30 3125 H 302.212 -5.22945 1.66793 0
M  V30 3126 H 302.473 -4.41904 0.131505 0
M  V30 3127 N 301.532 -0.945985 -1.26051 0
M  V30 3128 C 302.779 -0.596118 -1.93527 0
M  V30 3129 C 303.107 0.865559 -1.74179 0
M  V30 3130 O 302.362 1.63524 -1.0751 0
M  V30 3131 C 302.661 -0.890475 -3.46129 0
M  V30 3132 C 302.327 -2.3368 -3.85622 0
M  V30 3133 C 300.989 -2.73216 -3.96114 0
M  V30 3134 C 303.341 -3.27648 -4.05334 0
M  V30 3135 C 300.669 -4.05806 -4.2372 0
M  V30 3136 C 303.021 -4.59841 -4.3443 0
M  V30 3137 C 301.685 -4.99185 -4.43137 0
M  V30 3138 H 300.955 -0.218135 -0.708165 0
M  V30 3139 H 303.602 -1.1934 -1.49768 0
M  V30 3140 H 301.907 -0.210711 -3.91233 0
M  V30 3141 H 303.604 -0.598478 -3.96509 0
M  V30 3142 H 300.194 -2.02015 -3.78005 0
M  V30 3143 H 304.378 -2.98298 -3.96651 0
M  V30 3144 H 299.634 -4.35945 -4.28675 0
M  V30 3145 H 303.808 -5.32641 -4.48628 0
M  V30 3146 H 301.435 -6.01952 -4.64282 0
M  V30 3147 N 303.011 1.40521 -0.713556 0
M  V30 3148 C 304.236 2.05759 -0.26035 0
M  V30 3149 C 304.661 1.53403 1.08854 0
M  V30 3150 O 304.019 0.668535 1.68524 0
M  V30 3151 C 304.067 3.59745 -0.248122 0
M  V30 3152 O 303.171 4.05123 0.77131 0
M  V30 3153 H 302.512 0.652564 -0.122703 0
M  V30 3154 H 305.042 1.79958 -0.973467 0
M  V30 3155 H 305.052 4.07911 -0.0851129 0
M  V30 3156 H 303.727 3.97218 -1.2325 0
M  V30 3157 H 302.304 3.68422 0.57619 0
M  V30 3158 N 304.489 0.459591 1.5075 0
M  V30 3159 C 305.436 -0.340524 2.28274 0
M  V30 3160 C 306.406 -0.997371 1.32822 0
M  V30 3161 O 307.591 -1.01202 1.61749 0
M  V30 3162 C 304.731 -1.42317 3.14388 0
M  V30 3163 C 303.844 -0.782251 4.24859 0
M  V30 3164 C 302.979 -1.84182 4.98247 0
M  V30 3165 C 302.018 -1.18053 6.00608 0
M  V30 3166 N 301.155 -2.18244 6.67319 0
M  V30 3167 H 305.995 0.326899 2.96202 0
M  V30 3168 H 303.532 0.173057 1.46078 0
M  V30 3169 H 305.49 -2.06241 3.62658 0
M  V30 3170 H 304.12 -2.05992 2.4853 0
M  V30 3171 H 303.172 -0.0307404 3.80388 0
M  V30 3172 H 304.484 -0.259663 4.98124 0
M  V30 3173 H 303.638 -2.55714 5.50177 0
M  V30 3174 H 302.377 -2.39819 4.24662 0
M  V30 3175 H 301.382 -0.450776 5.47949 0
M  V30 3176 H 302.607 -0.631202 6.7616 0
M  V30 3177 H 300.553 -2.72919 5.96533 0
M  V30 3178 H 300.47 -1.70938 7.36421 0
M  V30 3179 H 301.738 -2.89191 7.23871 0
M  V30 3180 N 305.967 -1.56429 0.191757 0
M  V30 3181 C 307.216 -1.9666 -0.448088 0
M  V30 3182 C 307.529 -1.08136 -1.62991 0
M  V30 3183 O 308.735 -1.38135 -2.33733 0
M  V30 3184 C 307.191 -3.49753 -0.848585 0
M  V30 3185 C 306.799 -4.46935 0.308764 0
M  V30 3186 C 308.543 -3.9876 -1.4557 0
M  V30 3187 C 306.45 -5.91293 -0.112506 0
M  V30 3188 H 305.38 -0.734312 -0.171179 0
M  V30 3189 H 308.031 -1.81301 0.283242 0
M  V30 3190 H 306.413 -3.60604 -1.63649 0
M  V30 3191 H 307.587 -4.47813 1.08627 0
M  V30 3192 H 305.902 -4.08102 0.827158 0
M  V30 3193 H 308.499 -5.04086 -1.78328 0
M  V30 3194 H 308.842 -3.42875 -2.36099 0
M  V30 3195 H 309.375 -3.9101 -0.731836 0
M  V30 3196 H 306.114 -6.51097 0.758514 0
M  V30 3197 H 305.634 -5.93676 -0.854941 0
M  V30 3198 H 307.313 -6.44663 -0.549448 0
M  V30 3199 N 307.445 0.0818655 -1.57387 0
M  V30 3200 C 308.692 0.782914 -1.86753 0
M  V30 3201 C 309.02 1.78082 -0.782118 0
M  V30 3202 O 308.275 1.94426 0.22295 0
M  V30 3203 C 308.574 1.53513 -3.22752 0
M  V30 3204 C 308.24 0.678134 -4.45771 0
M  V30 3205 C 306.902 0.441929 -4.79166 0
M  V30 3206 C 309.254 0.0832243 -5.21134 0
M  V30 3207 C 306.582 -0.398833 -5.85343 0
M  V30 3208 C 308.934 -0.744935 -6.28199 0
M  V30 3209 C 307.598 -0.991107 -6.60101 0
M  V30 3210 H 306.868 0.286489 -0.683378 0
M  V30 3211 H 309.515 0.0439808 -1.91449 0
M  V30 3212 H 307.82 2.34599 -3.138 0
M  V30 3213 H 309.517 2.08218 -3.42705 0
M  V30 3214 H 306.107 0.872357 -4.19628 0
M  V30 3215 H 310.291 0.252847 -4.95655 0
M  V30 3216 H 305.547 -0.598405 -6.08465 0
M  V30 3217 H 309.721 -1.21271 -6.8576 0
M  V30 3218 H 307.348 -1.64437 -7.42202 0
M  V30 3219 N 308.923 1.53595 0.353017 0
M  V30 3220 C 310.153 1.74058 1.11299 0
M  V30 3221 C 310.561 0.475205 1.83135 0
M  V30 3222 O 309.904 -0.562344 1.74881 0
M  V30 3223 C 309.966 2.85994 2.17825 0
M  V30 3224 C 309.63 4.25923 1.65647 0
M  V30 3225 C 310.627 5.07829 1.11383 0
M  V30 3226 C 308.312 4.72377 1.7078 0
M  V30 3227 C 310.306 6.34285 0.629439 0
M  V30 3228 C 307.993 5.98808 1.21953 0
M  V30 3229 C 308.991 6.79594 0.681265 0
M  V30 3230 O 308.679 8.03651 0.200248 0
M  V30 3231 H 308.411 0.585327 0.338183 0
M  V30 3232 H 310.965 2.01186 0.413927 0
M  V30 3233 H 309.195 2.54368 2.91262 0
M  V30 3234 H 310.884 2.94515 2.79313 0
M  V30 3235 H 311.65 4.73107 1.06746 0
M  V30 3236 H 307.529 4.0956 2.11617 0
M  V30 3237 H 311.073 6.97288 0.208636 0
M  V30 3238 H 306.97 6.33026 1.26287 0
M  V30 3239 H 307.738 8.1788 0.318416 0
M  V30 3240 N 310.401 -0.613514 1.45168 0
M  V30 3241 C 311.626 -1.40437 1.52618 0
M  V30 3242 C 312.051 -1.87438 0.157707 0
M  V30 3243 O 311.409 -1.59791 -0.856537 0
M  V30 3244 C 311.457 -2.58894 2.51011 0
M  V30 3245 O 310.561 -3.59326 2.02382 0
M  V30 3246 H 309.902 -0.419506 0.514695 0
M  V30 3247 H 312.432 -0.747215 1.90467 0
M  V30 3248 H 312.442 -3.06214 2.69624 0
M  V30 3249 H 311.117 -2.24032 3.50403 0
M  V30 3250 H 309.694 -3.18695 1.93618 0
M  V30 3251 N 311.879 -1.3236 -0.855495 0
M  V30 3252 C 312.789 -1.23221 -1.99634 0
M  V30 3253 C 313.805 -0.145983 -1.73387 0
M  V30 3254 O 314.981 -0.366502 -1.98037 0
M  V30 3255 C 312.046 -0.954782 -3.33294 0
M  V30 3256 C 311.107 -2.12937 -3.72769 0
M  V30 3257 C 310.34 -1.86508 -5.00051 0
M  V30 3258 O 310.563 -0.807231 -5.64659 0
M  V30 3259 O 309.497 -2.72591 -5.36636 0
M  V30 3260 H 313.323 -2.19126 -2.1028 0
M  V30 3261 H 310.908 -1.12241 -0.986018 0
M  V30 3262 H 312.79 -0.816519 -4.13414 0
M  V30 3263 H 311.465 -0.0258854 -3.2369 0
M  V30 3264 H 310.372 -2.3231 -2.93228 0
M  V30 3265 H 311.705 -3.04102 -3.87018 0
M  V30 3266 N 313.357 1.07166 -1.15556 0
M  V30 3267 C 314.634 1.76546 -0.842069 0
M  V30 3268 C 315.014 2.00453 0.661939 0
M  V30 3269 O 314.362 1.62452 1.60691 0
M  V30 3270 C 314.572 3.07266 -1.65495 0
M  V30 3271 C 315.92 3.81578 -1.86234 0
M  V30 3272 O 316.944 3.17083 -1.62287 0
M  V30 3273 O 315.803 4.97419 -2.26355 0
M  V30 3274 H 312.897 0.766756 -0.309862 0
M  V30 3275 H 315.443 1.13514 -1.26145 0
M  V30 3276 H 314.215 2.85494 -2.67598 0
M  V30 3277 H 313.838 3.7803 -1.23203 0
M  V30 3278 N 314.835 0.952656 1.25548 0
M  V30 3279 C 315.745 0.47782 2.29682 0
M  V30 3280 C 316.761 -0.453859 1.67977 0
M  V30 3281 O 317.937 -0.330587 1.98668 0
M  V30 3282 C 315.002 -0.238655 3.45878 0
M  V30 3283 C 314.063 0.730994 4.23031 0
M  V30 3284 C 313.296 0.0486165 5.33678 0
M  V30 3285 O 313.519 -1.16612 5.58353 0
M  V30 3286 O 312.453 0.733152 5.97418 0
M  V30 3287 H 316.279 1.34312 2.72386 0
M  V30 3288 H 313.864 0.719026 1.30959 0
M  V30 3289 H 315.746 -0.641774 4.16484 0
M  V30 3290 H 314.421 -1.07916 3.05181 0
M  V30 3291 H 313.328 1.18428 3.5486 0
M  V30 3292 H 314.661 1.53946 4.67506 0
M  V30 3293 N 316.313 -1.40141 0.720998 0
M  V30 3294 C 317.561 -2.0039 0.262323 0
M  V30 3295 C 317.882 -1.57469 -1.15015 0
M  V30 3296 O 317.152 -0.816582 -1.78069 0
M  V30 3297 H 315.732 -0.741063 0.093996 0
M  V30 3298 H 318.394 -1.71398 0.927835 0
M  V30 3299 H 317.49 -3.10658 0.299671 0
M  V30 3300 N 317.792 -0.46758 -1.50504 0
M  V30 3301 C 318.739 0.328413 -2.28452 0
M  V30 3302 C 319.709 0.990313 -1.33349 0
M  V30 3303 O 320.894 1.00343 -1.62284 0
M  V30 3304 C 318.034 1.40648 -3.15138 0
M  V30 3305 C 317.147 0.759709 -4.25267 0
M  V30 3306 C 316.282 1.81537 -4.99217 0
M  V30 3307 C 315.321 1.14866 -6.01226 0
M  V30 3308 N 314.458 2.14702 -6.68467 0
M  V30 3309 H 319.298 -0.342603 -2.96024 0
M  V30 3310 H 316.835 -0.180801 -1.45985 0
M  V30 3311 H 318.793 2.04315 -3.63746 0
M  V30 3312 H 317.423 2.04671 -2.49619 0
M  V30 3313 H 316.475 0.0105671 -3.80399 0
M  V30 3314 H 317.787 0.233243 -4.98254 0
M  V30 3315 H 316.941 2.52793 -5.51526 0
M  V30 3316 H 315.68 2.37564 -4.25928 0
M  V30 3317 H 314.685 0.42171 -5.4818 0
M  V30 3318 H 315.91 0.595334 -6.76485 0
M  V30 3319 H 313.856 2.69752 -5.97972 0
M  V30 3320 H 313.773 1.6703 -7.37317 0
M  V30 3321 H 315.041 2.85348 -7.25394 0
M  V30 3322 N 319.27 1.56325 -0.20005 0
M  V30 3323 C 320.498 2.02105 0.442874 0
M  V30 3324 C 320.913 1.08014 1.5485 0
M  V30 3325 O 320.27 0.0858797 1.82298 0
M  V30 3326 C 320.321 3.47549 0.994583 0
M  V30 3327 O 320.042 4.38049 -0.0669322 0
M  V30 3328 C 321.543 4.0887 1.7129 0
M  V30 3329 H 318.763 0.661807 0.110691 0
M  V30 3330 H 321.307 2.02134 -0.310207 0
M  V30 3331 H 319.462 3.48204 1.69803 0
M  V30 3332 H 319.876 5.23368 0.344462 0
M  V30 3333 H 321.35 5.12475 2.05118 0
M  V30 3334 H 321.827 3.52615 2.61838 0
M  V30 3335 H 322.433 4.12002 1.05518 0
M  V30 3336 N 320.748 -0.0735177 1.57428 0
M  V30 3337 C 321.994 -0.768909 1.88307 0
M  V30 3338 C 322.349 -1.75273 0.793535 0
M  V30 3339 O 321.642 -1.90527 -0.202466 0
M  V30 3340 C 321.836 -1.51799 3.23561 0
M  V30 3341 C 321.665 -0.608217 4.45568 0
M  V30 3342 C 320.435 -0.245808 5.04702 0
M  V30 3343 C 322.633 0.0942904 5.14214 0
M  V30 3344 N 320.615 0.66987 6.10234 0
M  V30 3345 C 321.986 0.867222 6.13905 0
M  V30 3346 C 324.041 0.165943 4.97623 0
M  V30 3347 C 322.744 1.70515 6.98797 0
M  V30 3348 C 324.77 0.990837 5.83041 0
M  V30 3349 C 324.132 1.75182 6.82269 0
M  V30 3350 H 320.231 -0.25685 0.738615 0
M  V30 3351 H 322.815 -0.030499 1.94676 0
M  V30 3352 H 320.986 -2.22713 3.18203 0
M  V30 3353 H 322.718 -2.16226 3.42094 0
M  V30 3354 H 319.473 -0.598284 4.69806 0
M  V30 3355 H 319.897 1.1209 6.67656 0
M  V30 3356 H 324.539 -0.408064 4.20826 0
M  V30 3357 H 322.257 2.29013 7.7497 0
M  V30 3358 H 325.843 1.04923 5.72261 0
M  V30 3359 H 324.723 2.37983 7.47217 0
M  V30 3360 N 322.226 -1.5378 -0.344866 0
M  V30 3361 C 323.173 -1.81676 -1.42346 0
M  V30 3362 C 324.143 -0.662376 -1.52321 0
M  V30 3363 O 325.328 -0.906675 -1.67881 0
M  V30 3364 C 322.468 -2.03087 -2.79015 0
M  V30 3365 C 321.581 -3.30799 -2.77842 0
M  V30 3366 C 320.716 -3.42285 -4.0622 0
M  V30 3367 C 319.755 -4.6395 -3.9927 0
M  V30 3368 N 318.892 -4.72477 -5.19336 0
M  V30 3369 H 323.732 -2.73703 -1.17858 0
M  V30 3370 H 321.269 -1.35568 -0.570949 0
M  V30 3371 H 323.227 -2.1349 -3.58438 0
M  V30 3372 H 321.857 -1.14375 -3.01858 0
M  V30 3373 H 320.909 -3.29244 -1.90533 0
M  V30 3374 H 322.221 -4.20314 -2.68584 0
M  V30 3375 H 321.375 -3.52113 -4.94066 0
M  V30 3376 H 320.114 -2.50823 -4.18258 0
M  V30 3377 H 319.119 -4.54201 -3.09809 0
M  V30 3378 H 320.344 -5.56775 -3.88817 0
M  V30 3379 H 318.29 -3.83924 -5.3192 0
M  V30 3380 H 318.207 -5.55927 -5.12329 0
M  V30 3381 H 319.475 -4.86613 -6.08957 0
M  V30 3382 N 323.704 0.605807 -1.45491 0
M  V30 3383 C 324.951 1.36476 -1.49601 0
M  V30 3384 C 325.279 1.94007 -0.138452 0
M  V30 3385 O 324.534 1.75638 0.863114 0
M  V30 3386 C 324.833 2.53012 -2.52428 0
M  V30 3387 C 324.499 2.13617 -3.97087 0
M  V30 3388 C 323.161 2.02587 -4.36477 0
M  V30 3389 C 325.513 1.82899 -4.88055 0
M  V30 3390 C 322.841 1.59064 -5.64726 0
M  V30 3391 C 325.193 1.40861 -6.16718 0
M  V30 3392 C 323.857 1.28391 -6.55036 0
M  V30 3393 H 323.127 0.499402 -0.547429 0
M  V30 3394 H 325.774 0.684546 -1.78847 0
M  V30 3395 H 324.079 3.26379 -2.16758 0
M  V30 3396 H 325.776 3.1124 -2.52845 0
M  V30 3397 H 322.366 2.23129 -3.65939 0
M  V30 3398 H 326.55 1.90317 -4.58359 0
M  V30 3399 H 321.806 1.48034 -5.93208 0
M  V30 3400 H 325.98 1.16138 -6.86648 0
M  V30 3401 H 323.607 0.944403 -7.54311 0
M  V30 3402 N 325.182 1.32811 0.848464 0
M  V30 3403 C 326.43 1.23479 1.59991 0
M  V30 3404 C 326.751 -0.201853 1.93952 0
M  V30 3405 O 326.021 -1.12818 1.60153 0
M  V30 3406 H 324.601 0.454034 0.593179 0
M  V30 3407 H 327.263 1.66412 1.01455 0
M  V30 3408 H 326.359 1.82178 2.53412 0
M  V30 3409 N 326.66 -1.06551 1.16123 0
M  V30 3410 C 327.607 -2.13961 0.865414 0
M  V30 3411 C 328.577 -1.65066 -0.185055 0
M  V30 3412 O 329.762 -1.90732 -0.05083 0
M  V30 3413 C 326.902 -3.43113 0.369776 0
M  V30 3414 C 326.015 -4.05756 1.48276 0
M  V30 3415 C 325.15 -5.22773 0.942414 0
M  V30 3416 C 324.189 -5.77395 2.03179 0
M  V30 3417 N 323.326 -6.85731 1.50721 0
M  V30 3418 H 328.166 -2.38605 1.78527 0
M  V30 3419 H 325.703 -1.17072 0.890646 0
M  V30 3420 H 327.661 -4.17151 0.0640643 0
M  V30 3421 H 326.291 -3.18695 -0.513143 0
M  V30 3422 H 325.343 -3.29292 1.9045 0
M  V30 3423 H 326.655 -4.42351 2.30493 0
M  V30 3424 H 325.809 -6.03827 0.589729 0
M  V30 3425 H 324.548 -4.87618 0.0895191 0
M  V30 3426 H 323.553 -4.94981 2.3932 0
M  V30 3427 H 324.778 -6.14603 2.8886 0
M  V30 3428 H 322.724 -6.52499 0.676811 0
M  V30 3429 H 322.641 -7.21254 2.26557 0
M  V30 3430 H 323.909 -7.7047 1.18303 0
M  V30 3431 N 328.138 -0.959301 -1.25041 0
M  V30 3432 C 329.386 -0.615393 -1.92503 0
M  V30 3433 C 329.707 0.850969 -1.75452 0
M  V30 3434 O 328.977 1.60658 -1.12098 0
M  V30 3435 H 327.557 -0.224613 -0.712431 0
M  V30 3436 H 330.219 -1.21855 -1.5211 0
M  V30 3437 H 329.315 -0.848738 -3.00338 0
M  V30 3438 N 329.616 1.39756 -0.72842 0
M  V30 3439 C 331.032 1.5442 -0.403308 0
M  V30 3440 C 331.232 1.69694 1.08656 0
M  V30 3441 O 330.288 1.69373 1.87267 0
M  V30 3442 C 331.601 2.76555 -1.18058 0
M  V30 3443 C 333.149 2.90384 -1.16815 0
M  V30 3444 C 333.624 4.15449 -1.92785 0
M  V30 3445 N 335.115 4.22475 -1.89918 0
M  V30 3446 C 335.85 5.1818 -2.45514 0
M  V30 3447 N 335.346 6.19714 -3.09719 0
M  V30 3448 N 337.139 5.1035 -2.35584 0
M  V30 3449 H 329.29 1.28089 -1.69431 0
M  V30 3450 H 331.553 0.620327 -0.716867 0
M  V30 3451 H 331.259 2.7159 -2.23455 0
M  V30 3452 H 331.133 3.69033 -0.780662 0
M  V30 3453 H 333.52 2.94846 -0.12234 0
M  V30 3454 H 333.601 1.98988 -1.6074 0
M  V30 3455 H 333.245 4.11749 -2.97364 0
M  V30 3456 H 333.175 5.05877 -1.46272 0
M  V30 3457 H 335.666 3.49743 -1.43138 0
M  V30 3458 H 335.979 6.8919 -3.49625 0
M  V30 3459 H 334.324 6.20121 -3.13807 0
M  V30 3460 H 337.515 4.2996 -1.85072 0
M  V30 3461 H 337.688 5.84761 -2.79211 0
M  V30 3462 N 331.094 0.475555 1.50254 0
M  V30 3463 C 332.319 -0.0777042 2.07254 0
M  V30 3464 C 332.744 -1.3235 1.3366 0
M  V30 3465 O 332.102 -1.77152 0.385597 0
M  V30 3466 C 332.15 -0.340169 3.58992 0
M  V30 3467 O 331.254 -1.41982 3.87188 0
M  V30 3468 H 330.595 0.0149556 0.663832 0
M  V30 3469 H 333.125 0.667878 1.93392 0
M  V30 3470 H 333.135 -0.579332 4.03866 0
M  V30 3471 H 331.81 0.570167 4.11973 0
M  V30 3472 H 330.387 -1.16762 3.54148 0
M  V30 3473 N 332.573 -1.56217 0.208337 0
M  V30 3474 C 333.536 -2.18455 -0.693557 0
M  V30 3475 C 334.536 -1.14268 -1.13135 0
M  V30 3476 O 335.726 -1.39577 -1.0423 0
M  V30 3477 C 332.858 -2.79727 -1.94848 0
M  V30 3478 H 334.051 -2.99519 -0.15114 0
M  V30 3479 H 331.604 -1.56245 -0.041287 0
M  V30 3480 H 332.339 -2.02497 -2.53309 0
M  V30 3481 H 332.124 -3.56009 -1.64316 0
M  V30 3482 H 333.614 -3.27475 -2.59133 0
M  V30 3483 N 334.051 0.0651679 -1.57465 0
M  V30 3484 C 335.298 0.763063 -1.87573 0
M  V30 3485 C 335.626 1.77242 -0.800961 0
M  V30 3486 O 334.881 1.94651 0.202316 0
M  V30 3487 C 335.18 1.50081 -3.24362 0
M  V30 3488 C 334.846 0.630816 -4.46466 0
M  V30 3489 C 333.508 0.391082 -4.79608 0
M  V30 3490 C 335.86 0.0279465 -5.21193 0
M  V30 3491 C 333.188 -0.460894 -5.84887 0
M  V30 3492 C 335.54 -0.811522 -6.27373 0
M  V30 3493 C 334.204 -1.06106 -6.59013 0
M  V30 3494 H 333.474 0.279224 -0.686378 0
M  V30 3495 H 336.121 0.0236726 -1.91485 0
M  V30 3496 H 334.426 2.31258 -3.16271 0
M  V30 3497 H 336.123 2.04571 -3.44894 0
M  V30 3498 H 332.713 0.8278 -4.2053 0
M  V30 3499 H 336.897 0.200262 -4.95896 0
M  V30 3500 H 332.153 -0.662907 -6.07796 0
M  V30 3501 H 336.327 -1.28537 -6.84435 0
M  V30 3502 H 333.954 -1.723 -7.40417 0
M  V30 3503 N 335.529 1.53961 0.336706 0
M  V30 3504 C 336.777 1.71197 1.07405 0
M  V30 3505 C 337.098 0.481475 1.88962 0
M  V30 3506 O 336.368 -0.504585 1.8929 0
M  V30 3507 H 334.948 0.631185 0.399517 0
M  V30 3508 H 337.61 1.91232 0.376323 0
M  V30 3509 H 336.706 2.58587 1.74755 0
M  V30 3510 N 337.007 -0.598083 1.45811 0
M  V30 3511 C 338.247 -1.36802 1.5187 0
M  V30 3512 C 338.611 -1.9133 0.160224 0
M  V30 3513 O 339.812 -2.6863 0.0955302 0
M  V30 3514 C 338.083 -2.47835 2.57513 0
M  V30 3515 S 339.642 -3.35458 2.82866 0
M  V30 3516 H 336.46 -0.466278 0.536755 0
M  V30 3517 H 339.062 -0.689152 1.82951 0
M  V30 3518 H 337.766 -2.06141 3.54872 0
M  V30 3519 H 337.297 -3.20512 2.28114 0
M  V30 3520 H 339.312 -4.46251 2.16967 0
M  V30 3521 N 338.485 -1.33259 -0.841409 0
M  V30 3522 C 339.71 -1.2775 -1.63385 0
M  V30 3523 C 340.135 0.149188 -1.87507 0
M  V30 3524 O 339.493 1.10498 -1.43736 0
M  V30 3525 C 339.541 -2.05571 -2.96265 0
M  V30 3526 O 338.645 -1.41257 -3.87453 0
M  V30 3527 H 337.986 -0.439627 -0.497618 0
M  V30 3528 H 340.516 -1.75782 -1.04699 0
M  V30 3529 H 340.526 -2.16241 -3.45982 0
M  V30 3530 H 339.201 -3.09309 -2.7803 0
M  V30 3531 H 337.778 -1.39217 -3.45938 0
M  V30 3532 N 339.963 1.05934 -1.16686 0
M  V30 3533 C 340.873 2.17014 -0.891183 0
M  V30 3534 C 341.889 1.73453 0.137907 0
M  V30 3535 O 343.065 2.01361 -0.039592 0
M  V30 3536 C 340.13 3.44384 -0.400099 0
M  V30 3537 C 339.191 4.02433 -1.49486 0
M  V30 3538 C 338.424 5.23723 -1.02711 0
M  V30 3539 O 338.647 5.7027 0.121716 0
M  V30 3540 O 337.581 5.7382 -1.81699 0
M  V30 3541 H 341.407 2.43113 -1.82015 0
M  V30 3542 H 338.992 1.15541 -0.947132 0
M  V30 3543 H 340.874 4.21189 -0.133392 0
M  V30 3544 H 339.549 3.19802 0.500817 0
M  V30 3545 H 338.456 3.27102 -1.81535 0
M  V30 3546 H 339.789 4.31317 -2.37121 0
M  V30 3547 N 341.441 0.965919 1.2453 0
M  V30 3548 C 342.852 0.665929 1.7442 0
M  V30 3549 C 343.203 -0.818407 1.78316 0
M  V30 3550 O 342.328 -1.64037 1.41141 0
M  V30 3551 C 342.923 1.20211 3.16757 0
M  V30 3552 C 341.482 0.952059 3.6416 0
M  V30 3553 C 340.629 1.33848 2.42858 0
M  V30 3554 H 343.58 1.14144 1.10258 0
M  V30 3555 H 343.601 0.567544 3.76244 0
M  V30 3556 H 343.113 2.28244 3.13889 0
M  V30 3557 H 341.214 -0.112821 3.72429 0
M  V30 3558 H 341.327 1.59645 4.51719 0
M  V30 3559 H 339.691 0.756864 2.43195 0
M  V30 3560 H 340.474 2.42827 2.42673 0
M  V30 3561 N 342.919 -1.39368 0.735821 0
M  V30 3562 C 344.165 -2.00794 0.284544 0
M  V30 3563 C 344.498 -1.58255 -1.12557 0
M  V30 3564 O 343.773 -0.811819 -1.76748 0
M  V30 3565 C 344.056 -3.58011 0.387337 0
M  V30 3566 C 343.909 -4.10566 1.83728 0
M  V30 3567 C 345.228 -4.395 -0.22975 0
M  V30 3568 H 342.347 -0.729501 0.104866 0
M  V30 3569 H 344.989 -1.65564 0.93213 0
M  V30 3570 H 343.139 -3.88154 -0.164006 0
M  V30 3571 H 344.811 -3.91139 2.44556 0
M  V30 3572 H 343.054 -3.64095 2.35833 0
M  V30 3573 H 343.725 -5.19702 1.86047 0
M  V30 3574 H 346.201 -4.15406 0.240257 0
M  V30 3575 H 345.077 -5.48752 -0.127485 0
M  V30 3576 H 345.338 -4.22062 -1.3159 0
M  V30 3577 N 344.397 -0.483516 -1.5 0
M  V30 3578 C 345.36 0.292965 -2.2732 0
M  V30 3579 C 346.36 0.909499 -1.32608 0
M  V30 3580 O 347.55 0.776745 -1.55924 0
M  V30 3581 C 344.682 1.41854 -3.09984 0
M  V30 3582 H 345.875 -0.385289 -2.97415 0
M  V30 3583 H 343.428 -0.237942 -1.54478 0
M  V30 3584 H 344.163 2.13148 -2.44414 0
M  V30 3585 H 343.948 0.982114 -3.79601 0
M  V30 3586 H 345.438 1.96597 -3.68429 0
M  V30 3587 N 345.875 1.56104 -0.216619 0
M  V30 3588 C 346.805 2.23063 0.690296 0
M  V30 3589 C 347.786 1.20072 1.20485 0
M  V30 3590 O 348.971 1.48643 1.24976 0
M  V30 3591 C 346.101 2.90672 1.90072 0
M  V30 3592 C 345.055 4.00092 1.5202 0
M  V30 3593 C 344.381 4.54972 2.80899 0
M  V30 3594 C 345.681 5.17398 0.71391 0
M  V30 3595 H 347.375 2.99109 0.132038 0
M  V30 3596 H 344.921 1.43866 0.0620664 0
M  V30 3597 H 346.874 3.36204 2.54057 0
M  V30 3598 H 345.598 2.12066 2.48386 0
M  V30 3599 H 344.257 3.55283 0.903839 0
M  V30 3600 H 343.905 3.73102 3.37348 0
M  V30 3601 H 343.605 5.28817 2.56176 0
M  V30 3602 H 345.129 5.0322 3.45836 0
M  V30 3603 H 346.543 5.59342 1.25735 0
M  V30 3604 H 344.94 5.97444 0.563951 0
M  V30 3605 H 346.01 4.84088 -0.280527 0
M  V30 3606 N 347.353 -0.0568162 1.57498 0
M  V30 3607 C 348.263 -1.08346 2.08083 0
M  V30 3608 C 349.279 -1.41439 1.01346 0
M  V30 3609 O 350.455 -1.51316 1.32912 0
M  V30 3610 C 347.52 -2.37352 2.52715 0
M  V30 3611 C 346.581 -2.11093 3.73816 0
M  V30 3612 C 345.814 -3.33949 4.1631 0
M  V30 3613 O 346.037 -4.43622 3.58547 0
M  V30 3614 O 344.971 -3.21279 5.08983 0
M  V30 3615 H 348.797 -0.683667 2.95905 0
M  V30 3616 H 346.382 -0.271965 1.46904 0
M  V30 3617 H 348.264 -3.13246 2.81877 0
M  V30 3618 H 346.939 -2.76681 1.68016 0
M  V30 3619 H 345.846 -1.32856 3.49714 0
M  V30 3620 H 347.179 -1.76637 4.59413 0
M  V30 3621 N 348.832 -1.54138 -0.328536 0
M  V30 3622 C 350.078 -1.73297 -1.06488 0
M  V30 3623 C 350.433 -0.497958 -1.85844 0
M  V30 3624 O 349.726 0.509591 -1.84699 0
M  V30 3625 C 349.92 -2.9457 -2.02393 0
M  V30 3626 C 349.749 -4.29747 -1.32467 0
M  V30 3627 C 348.519 -4.93987 -1.06324 0
M  V30 3628 C 350.717 -5.08903 -0.743137 0
M  V30 3629 N 348.699 -6.13005 -0.331359 0
M  V30 3630 C 350.07 -6.19836 -0.142602 0
M  V30 3631 C 352.125 -4.93699 -0.64546 0
M  V30 3632 C 350.828 -7.17224 0.546125 0
M  V30 3633 C 352.854 -5.91393 0.0295558 0
M  V30 3634 C 352.216 -7.01674 0.619056 0
M  V30 3635 H 348.315 -0.687017 -0.373539 0
M  V30 3636 H 350.899 -1.91589 -0.346659 0
M  V30 3637 H 349.07 -2.77752 -2.71493 0
M  V30 3638 H 350.802 -3.0238 -2.68977 0
M  V30 3639 H 347.557 -4.53824 -1.35428 0
M  V30 3640 H 347.981 -6.76997 0.0202939 0
M  V30 3641 H 352.623 -4.08589 -1.08695 0
M  V30 3642 H 350.341 -8.01896 0.999459 0
M  V30 3643 H 353.927 -5.81706 0.104705 0
M  V30 3644 H 352.807 -7.75971 1.13309 0
M  V30 3645 N 350.31 0.590341 -1.46126 0
M  V30 3646 C 351.22 1.72793 -1.58681 0
M  V30 3647 C 352.236 1.67516 -0.470566 0
M  V30 3648 O 353.412 1.87562 -0.733642 0
M  V30 3649 C 350.477 3.09287 -1.5666 0
M  V30 3650 C 349.538 3.25886 -2.79458 0
M  V30 3651 C 348.771 4.55869 -2.77524 0
M  V30 3652 O 348.994 5.3928 -1.85832 0
M  V30 3653 O 347.928 4.75552 -3.68964 0
M  V30 3654 H 351.754 1.65149 -2.54872 0
M  V30 3655 H 349.339 0.756486 -1.28832 0
M  V30 3656 H 351.221 3.90577 -1.58202 0
M  V30 3657 H 349.896 3.17385 -0.636271 0
M  V30 3658 H 348.803 2.44119 -2.83472 0
M  V30 3659 H 350.136 3.22675 -3.71674 0
M  V30 3660 N 351.788 1.33704 0.83433 0
M  V30 3661 C 353.036 1.25169 1.58673 0
M  V30 3662 C 353.357 -0.18127 1.94156 0
M  V30 3663 O 352.627 -1.11113 1.6134 0
M  V30 3664 H 351.207 0.4603 0.58833 0
M  V30 3665 H 353.869 1.67478 0.996847 0
M  V30 3666 H 352.965 1.84856 2.51465 0
M  V30 3667 N 353.266 -1.05314 1.17247 0
M  V30 3668 C 354.213 -2.13031 0.888058 0
M  V30 3669 C 355.183 -1.65253 -0.167537 0
M  V30 3670 O 356.368 -1.90775 -0.0305974 0
M  V30 3671 C 353.508 -3.42702 0.406147 0
M  V30 3672 C 352.621 -4.04161 1.52572 0
M  V30 3673 C 351.756 -5.21744 0.997808 0
M  V30 3674 C 350.795 -5.75207 2.09291 0
M  V30 3675 N 349.932 -6.84094 1.57986 0
M  V30 3676 H 354.772 -2.36698 1.81048 0
M  V30 3677 H 352.309 -1.16121 0.903013 0
M  V30 3678 H 354.267 -4.17059 0.108305 0
M  V30 3679 H 352.897 -3.19222 -0.479313 0
M  V30 3680 H 351.949 -3.27253 1.93931 0
M  V30 3681 H 353.261 -4.39881 2.35172 0
M  V30 3682 H 352.415 -6.03168 0.653739 0
M  V30 3683 H 351.154 -4.87495 0.141232 0
M  V30 3684 H 350.159 -4.92414 2.44557 0
M  V30 3685 H 351.384 -6.11505 2.95362 0
M  V30 3686 H 349.33 -6.51745 0.74598 0
M  V30 3687 H 349.247 -7.18811 2.34195 0
M  V30 3688 H 350.515 -7.69172 1.26468 0
M  V30 3689 N 354.744 -0.972509 -1.24016 0
M  V30 3690 C 355.674 -0.525548 -2.27509 0
M  V30 3691 C 356.655 0.437262 -1.64384 0
M  V30 3692 O 357.84 0.332343 -1.91335 0
M  V30 3693 C 354.97 0.180448 -3.46831 0
M  V30 3694 C 353.924 -0.698859 -4.22256 0
M  V30 3695 C 353.25 0.138903 -5.3452 0
M  V30 3696 C 354.55 -1.98582 -4.83076 0
M  V30 3697 H 356.244 -1.39058 -2.65148 0
M  V30 3698 H 353.79 -0.67009 -1.27459 0
M  V30 3699 H 355.743 0.504387 -4.18371 0
M  V30 3700 H 354.467 1.07987 -3.08231 0
M  V30 3701 H 353.126 -1.00614 -3.52523 0
M  V30 3702 H 352.774 1.03862 -4.9216 0
M  V30 3703 H 352.474 -0.446259 -5.85903 0
M  V30 3704 H 353.998 0.457404 -6.08884 0
M  V30 3705 H 355.412 -1.72715 -5.46665 0
M  V30 3706 H 353.809 -2.5181 -5.44713 0
M  V30 3707 H 354.879 -2.67769 -4.04262 0
M  V30 3708 N 356.222 1.38976 -0.743202 0
M  V30 3709 C 357.471 1.99581 -0.291592 0
M  V30 3710 C 357.784 1.59656 1.13001 0
M  V30 3711 O 358.99 2.13157 1.68156 0
M  V30 3712 C 357.446 3.56813 -0.470391 0
M  V30 3713 C 357.054 4.05695 -1.90041 0
M  V30 3714 C 358.798 4.24423 -0.0809709 0
M  V30 3715 C 356.705 5.5553 -2.02832 0
M  V30 3716 H 355.635 0.746615 -0.105272 0
M  V30 3717 H 358.286 1.58872 -0.918258 0
M  V30 3718 H 356.668 3.95359 0.225299 0
M  V30 3719 H 357.842 3.78464 -2.62872 0
M  V30 3720 H 356.157 3.50775 -2.24379 0
M  V30 3721 H 358.754 5.34474 -0.155445 0
M  V30 3722 H 359.097 4.04962 0.96497 0
M  V30 3723 H 359.63 3.9108 -0.728124 0
M  V30 3724 H 356.369 5.79881 -3.05643 0
M  V30 3725 H 355.889 5.84537 -1.34448 0
M  V30 3726 H 357.568 6.21069 -1.81335 0
M  V30 3727 N 357.7 0.491464 1.49741 0
M  V30 3728 C 358.949 -0.0582189 2.01616 0
M  V30 3729 C 359.262 -1.38927 1.3769 0
M  V30 3730 O 360.468 -2.02509 1.80838 0
M  V30 3731 C 358.924 -0.154235 3.59569 0
M  V30 3732 C 358.532 1.1696 4.32463 0
M  V30 3733 C 360.276 -0.65479 4.1942 0
M  V30 3734 C 358.183 1.03627 5.8225 0
M  V30 3735 H 357.113 -0.0255317 0.753568 0
M  V30 3736 H 359.764 0.629445 1.72367 0
M  V30 3737 H 358.146 -0.906138 3.85493 0
M  V30 3738 H 359.32 1.93405 4.18248 0
M  V30 3739 H 357.635 1.60285 3.84315 0
M  V30 3740 H 360.232 -0.771903 5.29099 0
M  V30 3741 H 360.575 -1.65127 3.8215 0
M  V30 3742 H 361.108 0.040304 3.9778 0
M  V30 3743 H 357.847 2.00672 6.24028 0
M  V30 3744 H 357.367 0.312546 5.98985 0
M  V30 3745 H 359.046 0.711114 6.4308 0
M  V30 3746 N 359.178 -1.55987 0.224894 0
M  V30 3747 C 360.126 -2.21808 -0.700283 0
M  V30 3748 C 361.12 -1.19854 -1.19714 0
M  V30 3749 O 362.326 -1.37925 -1.15658 0
M  V30 3750 H 358.701 -0.711226 -0.244258 0
M  V30 3751 H 360.672 -2.98152 -0.121749 0
M  V30 3752 C 359.421 -2.91444 -1.8962 0
M  V30 3753 H 358.744 -3.69655 -1.52299 0
M  V30 3754 H 360.184 -3.40894 -2.52125 0
M  V30 3755 C 358.643 -1.94098 -2.75368 0
M  V30 3756 O 359.173 -1.46004 -3.74227 0
M  V30 3757 N 357.379 -1.61675 -2.41474 0
M  V30 3758 H 356.926 -2.00979 -1.61137 0
M  V30 3759 H 356.884 -0.968036 -2.99126 0
M  V30 3760 N 360.656 0.0484629 -1.57525 0
M  V30 3761 C 361.884 0.755421 -1.92616 0
M  V30 3762 C 362.299 1.69919 -0.822984 0
M  V30 3763 O 361.656 1.81378 0.202085 0
M  V30 3764 C 361.707 1.52915 -3.27566 0
M  V30 3765 O 361.428 0.62329 -4.33644 0
M  V30 3766 C 362.929 2.33502 -3.76818 0
M  V30 3767 H 360.149 0.213465 -0.63614 0
M  V30 3768 H 362.693 0.0117698 -2.04497 0
M  V30 3769 H 360.848 2.22486 -3.17142 0
M  V30 3770 H 361.262 1.16383 -5.11425 0
M  V30 3771 H 362.736 2.83214 -4.73808 0
M  V30 3772 H 363.213 3.14068 -3.07014 0
M  V30 3773 H 363.819 1.69043 -3.90262 0
M  V30 3774 N 362.134 1.5431 0.320358 0
M  V30 3775 C 363.55 1.45091 0.664889 0
M  V30 3776 C 363.75 0.626382 1.91517 0
M  V30 3777 O 362.806 0.126443 2.52183 0
M  V30 3778 C 364.119 2.88848 0.83591 0
M  V30 3779 C 365.667 2.9877 0.933046 0
M  V30 3780 C 366.142 4.43683 1.13621 0
M  V30 3781 N 367.633 4.47309 1.20287 0
M  V30 3782 C 368.368 5.56595 1.37801 0
M  V30 3783 N 367.864 6.75844 1.52338 0
M  V30 3784 N 369.657 5.44248 1.40535 0
M  V30 3785 H 361.808 2.06398 -0.501374 0
M  V30 3786 H 364.071 0.933963 -0.162534 0
M  V30 3787 H 363.777 3.51698 -0.0116092 0
M  V30 3788 H 363.651 3.35148 1.73078 0
M  V30 3789 H 366.038 2.36045 1.77107 0
M  V30 3790 H 366.119 2.55796 0.0145782 0
M  V30 3791 H 365.763 5.06995 0.303032 0
M  V30 3792 H 365.693 4.84269 2.0686 0
M  V30 3793 H 368.184 3.61388 1.10485 0
M  V30 3794 H 368.497 7.54892 1.65403 0
M  V30 3795 H 366.842 6.78746 1.4943 0
M  V30 3796 H 370.033 4.50038 1.28777 0
M  V30 3797 H 370.206 6.29473 1.53842 0
M  V30 3798 N 363.613 -0.582584 1.46437 0
M  V30 3799 C 364.859 -1.34278 1.51978 0
M  V30 3800 C 365.192 -1.93446 0.170973 0
M  V30 3801 O 364.467 -1.76481 -0.817608 0
M  V30 3802 C 364.75 -2.47203 2.61845 0
M  V30 3803 C 364.603 -1.93069 4.06257 0
M  V30 3804 C 365.922 -3.49247 2.67795 0
M  V30 3805 H 363.041 -0.486876 0.553282 0
M  V30 3806 H 365.683 -0.654437 1.78374 0
M  V30 3807 H 363.833 -3.0592 2.39469 0
M  V30 3808 H 365.505 -1.38808 4.3992 0
M  V30 3809 H 363.748 -1.23898 4.1573 0
M  V30 3810 H 364.419 -2.74586 4.7886 0
M  V30 3811 H 366.895 -3.00411 2.8791 0
M  V30 3812 H 365.771 -4.25719 3.46489 0
M  V30 3813 H 366.032 -4.06482 1.73852 0
M  V30 3814 N 365.091 -1.34144 -0.827227 0
M  V30 3815 C 366.368 -1.16844 -1.56865 0
M  V30 3816 C 366.748 0.260654 -2.09485 0
M  V30 3817 O 366.096 1.26138 -1.9053 0
M  V30 3818 C 366.306 -2.21939 -2.6934 0
M  V30 3819 C 367.654 -2.56695 -3.3822 0
M  V30 3820 O 368.678 -2.20695 -2.79593 0
M  V30 3821 O 367.537 -3.18518 -4.44082 0
M  V30 3822 H 364.631 -0.452669 -0.692112 0
M  V30 3823 H 367.177 -1.45763 -0.868973 0
M  V30 3824 H 365.949 -3.17882 -2.28182 0
M  V30 3825 H 365.572 -1.94172 -3.46962 0
M  V30 3826 N 366.569 1.04691 -1.17803 0
M  V30 3827 C 367.799 1.81183 -0.992788 0
M  V30 3828 C 368.207 1.8347 0.462098 0
M  V30 3829 O 367.55 1.2643 1.33271 0
M  V30 3830 C 367.612 3.28363 -1.46349 0
M  V30 3831 C 367.276 3.49749 -2.94151 0
M  V30 3832 C 368.273 3.41456 -3.92051 0
M  V30 3833 C 365.958 3.76548 -3.32441 0
M  V30 3834 C 367.952 3.59656 -5.26238 0
M  V30 3835 C 365.639 3.94396 -4.66792 0
M  V30 3836 C 366.637 3.8595 -5.635 0
M  V30 3837 O 366.325 4.03294 -6.9542 0
M  V30 3838 H 366.057 0.577622 -0.351182 0
M  V30 3839 H 368.611 1.32876 -1.5663 0
M  V30 3840 H 366.841 3.77609 -0.833574 0
M  V30 3841 H 368.53 3.86395 -1.24313 0
M  V30 3842 H 369.296 3.20723 -3.63815 0
M  V30 3843 H 365.175 3.82224 -2.57732 0
M  V30 3844 H 368.719 3.52979 -6.01707 0
M  V30 3845 H 364.616 4.14622 -4.94731 0
M  V30 3846 H 365.384 4.2049 -7.02232 0
M  V30 3847 N 368.047 0.979072 1.23499 0
M  V30 3848 C 369.463 0.687475 1.44034 0
M  V30 3849 C 369.663 -0.746801 1.8715 0
M  V30 3850 O 368.719 -1.51939 2.0167 0
M  V30 3851 C 370.032 1.68127 2.49307 0
M  V30 3852 C 371.58 1.69516 2.63122 0
M  V30 3853 C 372.055 2.67723 3.71603 0
M  V30 3854 N 373.546 2.66233 3.79044 0
M  V30 3855 C 374.281 3.38891 4.62537 0
M  V30 3856 N 373.777 4.21103 5.50131 0
M  V30 3857 N 375.57 3.27661 4.56721 0
M  V30 3858 H 367.721 1.90559 0.938135 0
M  V30 3859 H 369.984 0.821051 0.473897 0
M  V30 3860 H 369.69 2.70693 2.2454 0
M  V30 3861 H 369.564 1.46306 3.4767 0
M  V30 3862 H 371.951 0.676561 2.8724 0
M  V30 3863 H 372.032 1.95404 1.65079 0
M  V30 3864 H 371.676 3.69724 3.48233 0
M  V30 3865 H 371.606 2.39111 4.69184 0
M  V30 3866 H 374.097 2.06568 3.16446 0
M  V30 3867 H 374.41 4.73403 6.10827 0
M  V30 3868 H 372.755 4.25195 5.49759 0
M  V30 3869 H 375.946 2.62887 3.87309 0
M  V30 3870 H 376.119 3.84547 5.21562 0
M  V30 3871 N 369.525 -1.3858 0.750561 0
M  V30 3872 C 370.941 -1.53759 0.427824 0
M  V30 3873 C 371.141 -1.71401 -1.05943 0
M  V30 3874 O 370.197 -1.72331 -1.84549 0
M  V30 3875 C 371.51 -2.74642 1.22443 0
M  V30 3876 C 373.058 -2.88489 1.2142 0
M  V30 3877 C 373.533 -4.12329 1.9937 0
M  V30 3878 N 375.024 -4.194 1.96616 0
M  V30 3879 C 375.759 -5.14209 2.53727 0
M  V30 3880 N 375.255 -6.14709 3.19539 0
M  V30 3881 N 377.048 -5.06537 2.43673 0
M  V30 3882 H 369.199 -1.25377 1.71447 0
M  V30 3883 H 371.462 -0.608844 0.726645 0
M  V30 3884 H 371.168 -2.68 2.27747 0
M  V30 3885 H 371.042 -3.67745 0.839273 0
M  V30 3886 H 373.429 -2.94614 0.169232 0
M  V30 3887 H 373.51 -1.96406 1.63885 0
M  V30 3888 H 373.154 -4.06966 3.03877 0
M  V30 3889 H 373.084 -5.03486 1.54302 0
M  V30 3890 H 375.575 -3.47421 1.48684 0
M  V30 3891 H 375.888 -6.8354 3.60545 0
M  V30 3892 H 374.233 -6.1505 3.23633 0
M  V30 3893 H 377.424 -4.26962 1.91889 0
M  V30 3894 H 377.597 -5.80245 2.88479 0
M  V30 3895 N 371.003 -0.499398 -1.49478 0
M  V30 3896 C 372.419 -0.155261 -1.58843 0
M  V30 3897 C 372.619 1.34008 -1.50479 0
M  V30 3898 O 371.675 2.11589 -1.37791 0
M  V30 3899 C 372.988 -0.730636 -2.91689 0
M  V30 3900 C 374.536 -0.696599 -3.0515 0
M  V30 3901 C 375.011 -1.25001 -4.40612 0
M  V30 3902 N 376.502 -1.21064 -4.47099 0
M  V30 3903 C 377.237 -1.60905 -5.50361 0
M  V30 3904 N 376.733 -2.08331 -6.60735 0
M  V30 3905 N 378.526 -1.52331 -5.41065 0
M  V30 3906 H 370.677 -1.47162 -1.53158 0
M  V30 3907 H 372.94 -0.610309 -0.725415 0
M  V30 3908 H 372.646 -1.77928 -3.03372 0
M  V30 3909 H 372.52 -0.190161 -3.7672 0
M  V30 3910 H 374.907 0.343204 -2.93097 0
M  V30 3911 H 374.988 -1.2742 -2.21806 0
M  V30 3912 H 374.632 -2.28859 -4.53416 0
M  V30 3913 H 374.562 -0.64836 -5.22593 0
M  V30 3914 H 377.053 -0.863128 -3.67911 0
M  V30 3915 H 377.366 -2.36805 -7.35624 0
M  V30 3916 H 375.711 -2.12304 -6.6178 0
M  V30 3917 H 378.902 -1.151 -4.53729 0
M  V30 3918 H 379.075 -1.83704 -6.21415 0
M  V30 3919 N 372.481 1.55866 -0.233164 0
M  V30 3920 C 373.411 2.23783 0.666599 0
M  V30 3921 C 374.392 1.21343 1.19205 0
M  V30 3922 O 375.577 1.4996 1.23392 0
M  V30 3923 C 372.707 2.92671 1.86978 0
M  V30 3924 C 371.661 4.01682 1.47768 0
M  V30 3925 C 370.987 4.57926 2.76058 0
M  V30 3926 C 372.287 5.18126 0.658993 0
M  V30 3927 H 373.981 2.99232 0.100306 0
M  V30 3928 H 371.527 1.43924 0.046804 0
M  V30 3929 H 373.48 3.3888 2.50476 0
M  V30 3930 H 372.204 2.14688 2.46123 0
M  V30 3931 H 370.863 3.56222 0.866106 0
M  V30 3932 H 370.511 3.76659 3.33372 0
M  V30 3933 H 370.211 5.31505 2.50552 0
M  V30 3934 H 371.735 5.06859 3.40479 0
M  V30 3935 H 373.149 5.60644 1.19795 0
M  V30 3936 H 371.546 5.98009 0.500552 0
M  V30 3937 H 372.616 4.83763 -0.331856 0
M  V30 3938 N 373.959 -0.0401083 1.57549 0
M  V30 3939 C 375.205 -0.734211 1.89043 0
M  V30 3940 C 375.538 -1.75591 0.829535 0
M  V30 3941 O 374.813 -1.93868 -0.156706 0
M  V30 3942 C 375.096 -1.41374 3.31188 0
M  V30 3943 C 374.949 -0.406299 4.47961 0
M  V30 3944 C 376.268 -2.35061 3.72068 0
M  V30 3945 H 373.387 -0.265447 0.687537 0
M  V30 3946 H 376.029 0.00294087 1.9 0
M  V30 3947 H 374.179 -2.04206 3.30503 0
M  V30 3948 H 375.851 0.219255 4.60779 0
M  V30 3949 H 374.094 0.275485 4.32924 0
M  V30 3950 H 374.765 -0.920022 5.44279 0
M  V30 3951 H 377.241 -1.82282 3.74049 0
M  V30 3952 H 376.117 -2.79593 4.72355 0
M  V30 3953 H 376.378 -3.21258 3.0372 0
M  V30 3954 N 375.437 -1.54477 -0.31217 0
M  V30 3955 C 376.667 -1.76948 -1.06645 0
M  V30 3956 C 377.075 -0.523593 -1.81811 0
M  V30 3957 O 376.418 0.51578 -1.76311 0
M  V30 3958 C 376.48 -2.91668 -2.10166 0
M  V30 3959 C 376.144 -4.30165 -1.54296 0
M  V30 3960 C 377.141 -5.10603 -0.978793 0
M  V30 3961 C 374.826 -4.76738 -1.58196 0
M  V30 3962 C 376.82 -6.3573 -0.461048 0
M  V30 3963 C 374.507 -6.01831 -1.06034 0
M  V30 3964 C 375.505 -6.81161 -0.500844 0
M  V30 3965 O 375.193 -8.03899 0.0128958 0
M  V30 3966 H 374.925 -0.594088 -0.322546 0
M  V30 3967 H 377.479 -2.02213 -0.360441 0
M  V30 3968 H 375.709 -2.62001 -2.84416 0
M  V30 3969 H 377.398 -3.01817 -2.71406 0
M  V30 3970 H 378.164 -4.75771 -0.941651 0
M  V30 3971 H 374.043 -4.15027 -2.00683 0
M  V30 3972 H 377.587 -6.97596 -0.0236894 0
M  V30 3973 H 373.484 -6.36152 -1.09459 0
M  V30 3974 H 374.252 -8.18437 -0.101457 0
M  V30 3975 N 376.915 0.57481 -1.46744 0
M  V30 3976 C 377.825 1.711 -1.60505 0
M  V30 3977 C 378.841 1.67008 -0.488307 0
M  V30 3978 O 380.017 1.86774 -0.753495 0
M  V30 3979 C 377.082 3.07608 -1.59932 0
M  V30 3980 C 376.143 3.22904 -2.82898 0
M  V30 3981 C 375.376 4.529 -2.82343 0
M  V30 3982 O 375.599 5.37278 -1.91542 0
M  V30 3983 O 374.533 4.71611 -3.73987 0
M  V30 3984 H 378.359 1.62436 -2.56609 0
M  V30 3985 H 375.944 0.742779 -1.29627 0
M  V30 3986 H 377.826 3.88877 -1.62336 0
M  V30 3987 H 376.501 3.16692 -0.669898 0
M  V30 3988 H 375.408 2.41099 -2.86046 0
M  V30 3989 H 376.741 3.18715 -3.75076 0
M  V30 3990 N 378.394 1.34581 0.820102 0
M  V30 3991 C 379.619 1.30333 1.61332 0
M  V30 3992 C 380.044 -0.119339 1.87721 0
M  V30 3993 O 379.402 -1.08197 1.45475 0
M  V30 3994 C 379.45 2.10258 2.92957 0
M  V30 3995 O 378.554 1.47404 3.85157 0
M  V30 3996 H 377.895 0.447488 0.490561 0
M  V30 3997 H 380.425 1.77425 1.01889 0
M  V30 3998 H 380.435 2.21718 3.42498 0
M  V30 3999 H 379.11 3.13693 2.73074 0
M  V30 4000 H 377.687 1.44703 3.43679 0
M  V30 4001 N 379.872 -1.04064 1.18357 0
M  V30 4002 C 381.097 -1.81454 1.00445 0
M  V30 4003 C 381.522 -1.82823 -0.442423 0
M  V30 4004 O 380.88 -1.24555 -1.31741 0
M  V30 4005 C 380.928 -3.24925 1.56384 0
M  V30 4006 O 380.032 -4.04856 0.785209 0
M  V30 4007 H 379.373 -0.560604 0.355835 0
M  V30 4008 H 381.903 -1.31059 1.57114 0
M  V30 4009 H 381.913 -3.75702 1.59097 0
M  V30 4010 H 380.588 -3.23244 2.61699 0
M  V30 4011 H 379.165 -3.63537 0.830399 0
M  V30 4012 N 381.35 -0.985608 -1.22978 0
M  V30 4013 C 382.627 -0.573599 -1.87001 0
M  V30 4014 C 383.007 0.949213 -1.88555 0
M  V30 4015 O 382.355 1.82811 -1.37086 0
M  V30 4016 C 382.565 -1.18564 -3.28243 0
M  V30 4017 C 383.913 -1.28163 -4.04796 0
M  V30 4018 O 384.937 -1.13949 -3.37482 0
M  V30 4019 O 383.796 -1.50832 -5.25273 0
M  V30 4020 H 380.89 -0.193868 -0.803955 0
M  V30 4021 H 383.436 -1.08102 -1.30813 0
M  V30 4022 H 382.208 -2.22758 -3.21706 0
M  V30 4023 H 381.831 -0.663363 -3.92027 0
M  V30 4024 N 382.828 1.3818 -0.7579 0
M  V30 4025 C 383.761 2.28055 -0.0814093 0
M  V30 4026 C 384.739 1.45603 0.723779 0
M  V30 4027 O 385.923 1.74961 0.701491 0
M  V30 4028 C 383.05 3.2676 0.891394 0
M  V30 4029 C 382.096 4.26153 0.171909 0
M  V30 4030 S 382.929 5.23434 -1.13035 0
M  V30 4031 C 384.085 6.25694 -0.160727 0
M  V30 4032 H 384.318 2.85082 -0.84353 0
M  V30 4033 H 381.851 1.44246 -0.550671 0
M  V30 4034 H 383.809 3.8414 1.44731 0
M  V30 4035 H 382.47 2.68706 1.62652 0
M  V30 4036 H 381.663 4.95738 0.908843 0
M  V30 4037 H 381.265 3.72691 -0.312606 0
M  V30 4038 H 383.557 6.74161 0.671773 0
M  V30 4039 H 384.5 7.03285 -0.824353 0
M  V30 4040 H 384.908 5.64064 0.221892 0
M  V30 4041 N 384.306 0.507319 1.49211 0
M  V30 4042 C 385.554 -0.0348839 2.0207 0
M  V30 4043 C 385.875 -1.36898 1.38866 0
M  V30 4044 O 385.145 -1.88133 0.546151 0
M  V30 4045 H 383.725 -0.0158812 0.746831 0
M  V30 4046 H 386.387 0.665998 1.83168 0
M  V30 4047 H 385.483 -0.159917 3.1169 0
M  V30 4048 N 385.784 -1.5574 0.241426 0
M  V30 4049 C 386.732 -2.22538 -0.676718 0
M  V30 4050 C 387.726 -1.21117 -1.18436 0
M  V30 4051 O 388.932 -1.39144 -1.14188 0
M  V30 4052 H 385.307 -0.713776 -0.236701 0
M  V30 4053 H 387.278 -2.98264 -0.0901187 0
M  V30 4054 C 386.027 -2.93439 -1.86518 0
M  V30 4055 H 385.35 -3.7125 -1.4837 0
M  V30 4056 H 386.79 -3.43549 -2.48495 0
M  V30 4057 C 385.249 -1.97008 -2.73294 0
M  V30 4058 O 385.779 -1.49965 -3.72657 0
M  V30 4059 N 383.985 -1.64227 -2.39745 0
M  V30 4060 H 383.532 -2.02677 -1.58996 0
M  V30 4061 H 383.49 -0.999708 -2.98083 0
M  V30 4062 N 387.262 0.0317525 -1.57568 0
M  V30 4063 C 388.487 0.738664 -1.938 0
M  V30 4064 C 388.912 1.68242 -0.841208 0
M  V30 4065 O 388.27 1.80157 0.203267 0
M  V30 4066 C 388.318 1.47417 -3.29091 0
M  V30 4067 O 387.422 2.5872 -3.2115 0
M  V30 4068 H 386.763 0.198856 -0.633524 0
M  V30 4069 H 389.293 -0.0119713 -2.04596 0
M  V30 4070 H 389.303 1.84468 -3.63917 0
M  V30 4071 H 387.978 0.781988 -4.08482 0
M  V30 4072 H 386.555 2.24231 -2.97951 0
M  V30 4073 N 388.74 1.54641 0.303973 0
M  V30 4074 C 389.986 1.74969 1.03718 0
M  V30 4075 C 390.341 0.527461 1.85029 0
M  V30 4076 O 389.634 -0.480143 1.85486 0
M  V30 4077 C 389.828 2.97753 1.97681 0
M  V30 4078 C 389.657 4.318 1.25613 0
M  V30 4079 C 388.427 4.95616 0.984518 0
M  V30 4080 C 390.625 5.10021 0.662081 0
M  V30 4081 N 388.607 6.13455 0.233794 0
M  V30 4082 C 389.978 6.19984 0.0439736 0
M  V30 4083 C 392.033 4.94663 0.566835 0
M  V30 4084 C 390.736 7.16264 -0.66016 0
M  V30 4085 C 392.762 5.91271 -0.123637 0
M  V30 4086 C 392.124 7.00601 -0.730608 0
M  V30 4087 H 388.223 0.692873 0.362562 0
M  V30 4088 H 390.807 1.92116 0.316135 0
M  V30 4089 H 388.978 2.82036 2.6704 0
M  V30 4090 H 390.71 3.06621 2.64132 0
M  V30 4091 H 387.465 4.55921 1.28191 0
M  V30 4092 H 387.889 6.76879 -0.127996 0
M  V30 4093 H 392.531 4.10267 1.02181 0
M  V30 4094 H 390.249 8.00204 -1.12691 0
M  V30 4095 H 393.835 5.81466 -0.197236 0
M  V30 4096 H 392.715 7.7407 -1.2564 0
M  V30 4097 N 390.218 -0.567019 1.47046 0
M  V30 4098 C 391.148 -1.68482 1.61667 0
M  V30 4099 C 392.129 -1.6358 0.466418 0
M  V30 4100 O 393.314 -1.81354 0.694574 0
M  V30 4101 C 390.444 -3.07124 1.62148 0
M  V30 4102 C 389.398 -3.26867 2.76301 0
M  V30 4103 C 388.724 -4.66196 2.61849 0
M  V30 4104 C 390.024 -3.13186 4.17986 0
M  V30 4105 H 391.718 -1.56502 2.5524 0
M  V30 4106 H 389.264 -0.751486 1.22836 0
M  V30 4107 H 391.217 -3.8516 1.70968 0
M  V30 4108 H 389.941 -3.2004 0.651287 0
M  V30 4109 H 388.6 -2.51237 2.66975 0
M  V30 4110 H 388.248 -4.75898 1.62879 0
M  V30 4111 H 387.948 -4.80356 3.38425 0
M  V30 4112 H 389.472 -5.46379 2.72584 0
M  V30 4113 H 390.886 -3.81049 4.2834 0
M  V30 4114 H 389.283 -3.3886 4.95272 0
M  V30 4115 H 390.353 -2.10057 4.3704 0
M  V30 4116 N 391.696 -1.35014 -0.812953 0
M  V30 4117 C 392.606 -1.2951 -1.95613 0
M  V30 4118 C 393.622 -0.20107 -1.72834 0
M  V30 4119 O 394.798 -0.42932 -1.96771 0
M  V30 4120 C 391.863 -1.06033 -3.30088 0
M  V30 4121 C 390.924 -2.24688 -3.65805 0
M  V30 4122 C 390.157 -2.02322 -4.93864 0
M  V30 4123 O 390.38 -0.986464 -5.61805 0
M  V30 4124 O 389.314 -2.89525 -5.27692 0
M  V30 4125 H 393.14 -2.25705 -2.03202 0
M  V30 4126 H 390.725 -1.15321 -0.949811 0
M  V30 4127 H 392.607 -0.94763 -4.10607 0
M  V30 4128 H 391.282 -0.128852 -3.23443 0
M  V30 4129 H 390.189 -2.41521 -2.85689 0
M  V30 4130 H 391.522 -3.16261 -3.77147 0
M  V30 4131 N 393.175 1.03435 -1.18907 0
M  V30 4132 C 394.138 2.09756 -0.923844 0
M  V30 4133 C 395.138 1.60528 0.093416 0
M  V30 4134 O 396.328 1.73631 -0.140727 0
M  V30 4135 C 393.46 3.38692 -0.387354 0
M  V30 4136 H 394.653 2.34719 -1.86674 0
M  V30 4137 H 392.206 1.19959 -1.00197 0
M  V30 4138 H 392.941 3.19396 0.561845 0
M  V30 4139 H 392.726 3.75742 -1.12074 0
M  V30 4140 H 394.216 4.17016 -0.220694 0
M  V30 4141 N 394.653 0.992116 1.22453 0
M  V30 4142 C 395.899 0.668523 1.91464 0
M  V30 4143 C 396.232 -0.797313 1.77078 0
M  V30 4144 O 395.507 -1.5765 1.13916 0
M  V30 4145 C 395.79 1.07424 3.43703 0
M  V30 4146 C 395.643 2.59857 3.67143 0
M  V30 4147 C 396.962 0.626891 4.35612 0
M  V30 4148 H 394.081 0.244341 0.695318 0
M  V30 4149 H 396.723 1.2355 1.44345 0
M  V30 4150 H 394.873 0.591816 3.83966 0
M  V30 4151 H 396.545 3.15764 3.3629 0
M  V30 4152 H 394.788 3.01961 3.11451 0
M  V30 4153 H 395.459 2.83296 4.73759 0
M  V30 4154 H 397.935 1.04125 4.02861 0
M  V30 4155 H 396.811 0.939076 5.40807 0
M  V30 4156 H 397.072 -0.472457 4.39568 0
M  V30 4157 N 396.131 -1.37776 0.765217 0
M  V30 4158 C 397.379 -1.99454 0.325943 0
M  V30 4159 C 397.7 -1.61049 -1.09947 0
M  V30 4160 O 396.97 -0.872821 -1.75381 0
M  V30 4161 H 395.55 -0.737697 0.117525 0
M  V30 4162 H 398.212 -1.68359 0.981895 0
M  V30 4163 H 397.308 -3.09547 0.398353 0
M  V30 4164 N 397.609 -0.515225 -1.4894 0
M  V30 4165 C 398.837 0.0206034 -2.0689 0
M  V30 4166 C 399.252 1.29514 -1.37374 0
M  V30 4167 O 398.609 1.76698 -0.456529 0
M  V30 4168 C 398.66 0.26351 -3.60538 0
M  V30 4169 O 398.381 -0.960517 -4.27441 0
M  V30 4170 C 399.882 0.841383 -4.35242 0
M  V30 4171 H 397.102 -0.0268608 -0.670462 0
M  V30 4172 H 399.646 -0.716651 -1.91532 0
M  V30 4173 H 397.801 0.950777 -3.75552 0
M  V30 4174 H 398.215 -0.73212 -5.19365 0
M  V30 4175 H 399.689 0.96085 -5.43573 0
M  V30 4176 H 400.166 1.8427 -3.98674 0
M  V30 4177 H 400.772 0.191143 -4.2487 0
M  V30 4178 N 399.087 1.5561 -0.249682 0
M  V30 4179 C 400.017 2.24477 0.642826 0
M  V30 4180 C 400.998 1.22601 1.17911 0
M  V30 4181 O 402.183 1.5126 1.21795 0
M  V30 4182 C 399.313 2.94638 1.83863 0
M  V30 4183 C 398.267 4.03227 1.435 0
M  V30 4184 C 397.593 4.60828 2.71186 0
M  V30 4185 C 398.893 5.18796 0.604002 0
M  V30 4186 H 400.587 2.99321 0.0685625 0
M  V30 4187 H 398.133 1.43965 0.0315363 0
M  V30 4188 H 400.086 3.41517 2.46868 0
M  V30 4189 H 398.81 2.17287 2.43832 0
M  V30 4190 H 397.469 3.57121 0.828275 0
M  V30 4191 H 397.117 3.80174 3.29358 0
M  V30 4192 H 396.817 5.34132 2.44901 0
M  V30 4193 H 398.341 5.10442 3.35084 0
M  V30 4194 H 399.755 5.61883 1.13842 0
M  V30 4195 H 398.152 5.98506 0.437097 0
M  V30 4196 H 399.222 4.83384 -0.383147 0
M  V30 4197 N 400.565 -0.0233959 1.57583 0
M  V30 4198 C 401.79 -0.728376 1.94189 0
M  V30 4199 C 402.215 -1.67793 0.850119 0
M  V30 4200 O 401.573 -1.80262 -0.19371 0
M  V30 4201 C 401.621 -1.45669 3.29868 0
M  V30 4202 O 400.725 -2.57013 3.22518 0
M  V30 4203 H 400.066 -0.195493 0.63457 0
M  V30 4204 H 402.596 0.0228214 2.04587 0
M  V30 4205 H 402.606 -1.82535 3.6489 0
M  V30 4206 H 401.281 -0.760314 4.08891 0
M  V30 4207 H 399.858 -2.22648 2.99136 0
M  V30 4208 N 402.043 -1.548 -0.295768 0
M  V30 4209 C 403.459 -1.4613 -0.641722 0
M  V30 4210 C 403.659 -0.656771 -1.90496 0
M  V30 4211 O 402.715 -0.166547 -2.5195 0
M  V30 4212 C 404.028 -2.90141 -0.789852 0
M  V30 4213 C 405.576 -3.00216 -0.885396 0
M  V30 4214 C 406.051 -4.45434 -1.06548 0
M  V30 4215 N 407.542 -4.49166 -1.13156 0
M  V30 4216 C 408.277 -5.58717 -1.28929 0
M  V30 4217 N 407.773 -6.78182 -1.41567 0
M  V30 4218 N 409.566 -5.46415 -1.31859 0
M  V30 4219 H 401.717 -2.05574 0.534147 0
M  V30 4220 H 403.98 -0.931259 0.177372 0
M  V30 4221 H 403.686 -3.51635 0.0675598 0
M  V30 4222 H 403.56 -3.37859 -1.67724 0
M  V30 4223 H 405.947 -2.38833 -1.73329 0
M  V30 4224 H 406.028 -2.55787 0.0261185 0
M  V30 4225 H 405.672 -5.07413 -0.222335 0
M  V30 4226 H 405.602 -4.87499 -1.9913 0
M  V30 4227 H 408.093 -3.631 -1.04721 0
M  V30 4228 H 408.406 -7.57428 -1.53372 0
M  V30 4229 H 406.751 -6.81037 -1.38613 0
M  V30 4230 H 409.942 -4.5203 -1.21601 0
M  V30 4231 H 410.115 -6.31841 -1.43808 0
M  V30 4232 N 403.521 0.559213 -1.47345 0
M  V30 4233 C 404.767 1.31843 -1.54095 0
M  V30 4234 C 405.1 1.93149 -0.201726 0
M  V30 4235 O 404.375 1.77759 0.789428 0
M  V30 4236 C 404.658 2.43006 -2.65744 0
M  V30 4237 C 404.511 1.86581 -4.09277 0
M  V30 4238 C 405.83 3.44943 -2.73318 0
M  V30 4239 H 402.949 0.478012 -0.560957 0
M  V30 4240 H 405.591 0.625977 -1.79392 0
M  V30 4241 H 403.741 3.02072 -2.44305 0
M  V30 4242 H 405.413 1.31792 -4.42073 0
M  V30 4243 H 403.656 1.17268 -4.17649 0
M  V30 4244 H 404.327 2.66933 -4.83168 0
M  V30 4245 H 406.803 2.95793 -2.92653 0
M  V30 4246 H 405.679 4.20153 -3.53218 0
M  V30 4247 H 405.94 4.03665 -1.80296 0
M  V30 4248 N 404.999 1.35443 0.805782 0
M  V30 4249 C 406.245 1.2996 1.56467 0
M  V30 4250 C 406.6 -0.124742 1.91995 0
M  V30 4251 O 405.893 -1.07533 1.58579 0
M  V30 4252 C 406.087 2.14045 2.86216 0
M  V30 4253 C 405.916 3.64512 2.63365 0
M  V30 4254 C 404.686 4.33744 2.59219 0
M  V30 4255 C 406.884 4.58142 2.33688 0
M  V30 4256 N 404.866 5.69953 2.28094 0
M  V30 4257 C 406.237 5.8248 2.12408 0
M  V30 4258 C 408.292 4.46877 2.19558 0
M  V30 4259 C 406.995 6.96818 1.78429 0
M  V30 4260 C 409.021 5.61065 1.86976 0
M  V30 4261 C 408.383 6.84431 1.66532 0
M  V30 4262 H 404.482 0.530817 0.574245 0
M  V30 4263 H 407.066 1.70333 0.943126 0
M  V30 4264 H 405.237 1.75942 3.46264 0
M  V30 4265 H 406.969 2.00075 3.51784 0
M  V30 4266 H 403.724 3.86365 2.73896 0
M  V30 4267 H 404.148 6.41845 2.15323 0
M  V30 4268 H 408.79 3.52102 2.34061 0
M  V30 4269 H 406.508 7.91559 1.62664 0
M  V30 4270 H 410.094 5.54302 1.7675 0
M  V30 4271 H 408.974 7.71294 1.41688 0
M  V30 4272 N 406.477 -1.02803 1.19454 0
M  V30 4273 C 407.725 -1.75869 0.995722 0
M  V30 4274 C 408.046 -1.89138 -0.474543 0
M  V30 4275 O 407.316 -1.42558 -1.34366 0
M  V30 4276 H 405.896 -0.651511 0.365435 0
M  V30 4277 H 408.558 -1.24004 1.50363 0
M  V30 4278 H 407.654 -2.76661 1.44447 0
M  V30 4279 N 407.956 -0.998596 -1.21925 0
M  V30 4280 C 409.367 -0.711939 -1.72593 0
M  V30 4281 C 409.718 0.770842 -1.80423 0
M  V30 4282 O 408.843 1.60237 -1.4544 0
M  V30 4283 C 409.438 -1.28567 -3.13458 0
M  V30 4284 C 407.997 -1.04828 -3.61508 0
M  V30 4285 C 407.144 -1.4024 -2.39224 0
M  V30 4286 H 410.095 -1.17027 -1.07193 0
M  V30 4287 H 410.116 -0.667098 -3.74607 0
M  V30 4288 H 409.628 -2.36486 -3.07727 0
M  V30 4289 H 407.729 0.0140383 -3.72597 0
M  V30 4290 H 407.842 -1.71566 -4.47328 0
M  V30 4291 H 406.206 -0.821077 -2.41103 0
M  V30 4292 H 406.989 -2.49176 -2.36149 0
M  V30 4293 N 409.434 1.37368 -0.772513 0
M  V30 4294 C 410.659 2.0447 -0.347386 0
M  V30 4295 C 411.084 1.57882 1.0225 0
M  V30 4296 O 410.442 0.73941 1.65537 0
M  V30 4297 C 410.49 3.58369 -0.400479 0
M  V30 4298 O 409.594 4.0803 0.598789 0
M  V30 4299 H 408.935 0.646773 -0.15027 0
M  V30 4300 H 411.465 1.75667 -1.04892 0
M  V30 4301 H 411.475 4.07183 -0.258045 0
M  V30 4302 H 410.15 3.91633 -1.39986 0
M  V30 4303 H 408.727 3.70534 0.419411 0
M  V30 4304 N 410.912 0.523116 1.48665 0
M  V30 4305 C 412.323 0.0808997 1.86525 0
M  V30 4306 C 412.674 -1.33975 1.43336 0
M  V30 4307 O 411.799 -2.00221 0.821009 0
M  V30 4308 C 412.394 0.140037 3.3851 0
M  V30 4309 C 410.953 -0.246948 3.75589 0
M  V30 4310 C 410.1 0.502845 2.72703 0
M  V30 4311 H 413.051 0.734736 1.40667 0
M  V30 4312 H 413.072 -0.649945 3.74908 0
M  V30 4313 H 412.584 1.17412 3.69914 0
M  V30 4314 H 410.685 -1.28343 3.49798 0
M  V30 4315 H 410.798 0.0878859 4.79019 0
M  V30 4316 H 409.162 -0.0500581 2.54651 0
M  V30 4317 H 409.945 1.53743 3.0695 0
M  V30 4318 N 412.39 -1.55475 0.257931 0
M  V30 4319 C 413.337 -2.21837 -0.636939 0
M  V30 4320 C 414.307 -1.18596 -1.16294 0
M  V30 4321 O 415.492 -1.47081 -1.21539 0
M  V30 4322 C 412.632 -2.9301 -1.82317 0
M  V30 4323 C 411.745 -4.10931 -1.33265 0
M  V30 4324 C 410.88 -4.69791 -2.47931 0
M  V30 4325 C 409.919 -5.7994 -1.95796 0
M  V30 4326 N 409.056 -6.32935 -3.0387 0
M  V30 4327 H 413.896 -2.9793 -0.0643591 0
M  V30 4328 H 411.433 -1.47086 -0.0200031 0
M  V30 4329 H 413.391 -3.3248 -2.52018 0
M  V30 4330 H 412.021 -2.1937 -2.36805 0
M  V30 4331 H 411.073 -3.76699 -0.52931 0
M  V30 4332 H 412.385 -4.90417 -0.910654 0
M  V30 4333 H 411.539 -5.11892 -3.25656 0
M  V30 4334 H 410.278 -3.89545 -2.93438 0
M  V30 4335 H 409.283 -5.37305 -1.16546 0
M  V30 4336 H 410.508 -6.62043 -1.51246 0
M  V30 4337 H 408.454 -5.55591 -3.48791 0
M  V30 4338 H 408.371 -7.07645 -2.66035 0
M  V30 4339 H 409.639 -6.79695 -3.81621 0
M  V30 4340 N 413.868 0.0150385 -1.57593 0
M  V30 4341 C 415.093 0.718067 -1.94573 0
M  V30 4342 C 415.518 1.6734 -0.859005 0
M  V30 4343 O 414.876 1.80362 0.184147 0
M  V30 4344 C 414.924 1.43918 -3.30636 0
M  V30 4345 O 414.028 2.55299 -3.23876 0
M  V30 4346 H 413.369 0.192125 -0.635597 0
M  V30 4347 H 415.899 -0.0336708 -2.04572 0
M  V30 4348 H 415.909 1.80598 -3.65853 0
M  V30 4349 H 414.584 0.738619 -4.09289 0
M  V30 4350 H 413.161 2.21058 -3.00312 0
M  V30 4351 N 415.346 1.54954 0.287554 0
M  V30 4352 C 416.294 1.87606 1.37502 0
M  V30 4353 C 417.288 0.751001 1.51843 0
M  V30 4354 O 418.494 0.935169 1.53801 0
M  V30 4355 H 414.869 0.595231 0.459569 0
M  V30 4356 H 416.84 2.78477 1.07206 0
M  V30 4357 C 415.589 2.15183 2.73115 0
M  V30 4358 H 414.912 3.01234 2.62866 0
M  V30 4359 H 416.352 2.4196 3.48183 0
M  V30 4360 C 414.811 0.954686 3.2309 0
M  V30 4361 O 415.341 0.181949 4.01288 0
M  V30 4362 N 413.547 0.756368 2.80584 0
M  V30 4363 H 413.094 1.38643 2.17108 0
M  V30 4364 H 413.052 -0.0430391 3.14371 0
M  V30 4365 N 416.824 -0.551391 1.4764 0
M  V30 4366 C 417.756 -1.67333 1.56628 0
M  V30 4367 C 418.769 -1.56398 0.452045 0
M  V30 4368 O 419.958 -1.6325 0.721926 0
M  V30 4369 C 417.058 -3.05841 1.45994 0
M  V30 4370 C 416.231 -3.42472 2.72088 0
M  V30 4371 C 415.29 -4.60168 2.55209 0
M  V30 4372 O 414.316 -4.64458 3.2904 0
M  V30 4373 N 415.518 -5.57024 1.63416 0
M  V30 4374 H 418.283 -1.60066 2.53375 0
M  V30 4375 H 415.844 -0.738169 1.44093 0
M  V30 4376 H 417.836 -3.8242 1.32428 0
M  V30 4377 H 416.406 -3.07302 0.573071 0
M  V30 4378 H 415.626 -2.55284 3.00373 0
M  V30 4379 H 416.914 -3.63723 3.55785 0
M  V30 4380 H 416.312 -5.56319 1.02594 0
M  V30 4381 H 414.869 -6.32906 1.558 0
M  V30 4382 N 418.302 -1.35869 -0.798587 0
M  V30 4383 C 419.713 -1.26498 -1.37314 0
M  V30 4384 C 420.064 0.0991899 -1.95949 0
M  V30 4385 O 419.189 1.0004 -1.91888 0
M  V30 4386 C 419.784 -2.29054 -2.49639 0
M  V30 4387 C 418.343 -2.234 -3.02935 0
M  V30 4388 C 417.49 -2.14329 -1.75949 0
M  V30 4389 H 420.441 -1.46881 -0.600971 0
M  V30 4390 H 420.462 -1.92166 -3.28409 0
M  V30 4391 H 419.974 -3.2833 -2.06933 0
M  V30 4392 H 418.075 -1.27562 -3.50084 0
M  V30 4393 H 418.188 -3.15703 -3.60372 0
M  V30 4394 H 416.552 -1.60435 -1.9782 0
M  V30 4395 H 417.335 -3.15477 -1.35384 0
M  V30 4396 N 419.78 1.02168 -1.19998 0
M  V30 4397 C 421.028 1.75338 -1.00504 0
M  V30 4398 C 421.349 1.89387 0.464506 0
M  V30 4399 O 420.619 1.43268 1.33608 0
M  V30 4400 H 419.199 0.649564 -0.368885 0
M  V30 4401 H 421.861 1.23205 -1.51018 0
M  V30 4402 H 420.957 2.75892 -1.45912 0
M  V30 4403 N 421.258 1.00505 1.21394 0
M  V30 4404 C 422.483 0.706367 1.95001 0
M  V30 4405 C 422.908 -0.72463 1.73582 0
M  V30 4406 O 422.266 -1.49702 1.0227 0
M  V30 4407 C 422.314 1.03299 3.45487 0
M  V30 4408 O 421.418 0.138275 4.12168 0
M  V30 4409 H 420.759 0.263175 0.609619 0
M  V30 4410 H 423.289 1.34531 1.54151 0
M  V30 4411 H 423.299 0.979872 3.96059 0
M  V30 4412 H 421.974 2.07567 3.60401 0
M  V30 4413 H 420.551 0.247928 3.72075 0
M  V30 4414 N 422.737 -1.36956 0.779787 0
M  V30 4415 C 423.669 -2.28833 0.129639 0
M  V30 4416 C 424.682 -1.4902 -0.655511 0
M  V30 4417 O 425.871 -1.71578 -0.492279 0
M  V30 4418 C 422.971 -3.2833 -0.839792 0
M  V30 4419 C 422.144 -4.3727 -0.10675 0
M  V30 4420 C 421.203 -5.16789 -0.990717 0
M  V30 4421 O 420.229 -5.67406 -0.451516 0
M  V30 4422 N 421.431 -5.32294 -2.3161 0
M  V30 4423 H 424.196 -2.85268 0.918803 0
M  V30 4424 H 421.757 -1.49019 0.632841 0
M  V30 4425 H 423.749 -3.78413 -1.43477 0
M  V30 4426 H 422.319 -2.72605 -1.52988 0
M  V30 4427 H 421.539 -3.88478 0.669216 0
M  V30 4428 H 422.827 -5.07229 0.399464 0
M  V30 4429 H 422.225 -4.92768 -2.77843 0
M  V30 4430 H 420.782 -5.85656 -2.86095 0
M  V30 4431 N 424.215 -0.530993 -1.48385 0
M  V30 4432 C 425.44 0.000729535 -2.074 0
M  V30 4433 C 425.865 1.27298 -1.3848 0
M  V30 4434 O 425.223 1.75599 -0.451081 0
M  V30 4435 C 425.271 0.206697 -3.60007 0
M  V30 4436 O 424.375 1.27514 -3.92191 0
M  V30 4437 H 423.716 -0.039583 -0.662819 0
M  V30 4438 H 426.246 -0.739194 -1.9078 0
M  V30 4439 H 426.256 0.42904 -4.05738 0
M  V30 4440 H 424.931 -0.722675 -4.09573 0
M  V30 4441 H 423.508 1.03537 -3.58238 0
M  V30 4442 N 425.693 1.55336 -0.266172 0
M  V30 4443 C 426.918 2.04258 0.359661 0
M  V30 4444 C 427.343 1.14359 1.49344 0
M  V30 4445 O 426.701 0.140369 1.80756 0
M  V30 4446 C 426.749 3.50997 0.826635 0
M  V30 4447 O 425.853 3.64204 1.93466 0
M  V30 4448 H 425.194 0.659668 0.075727 0
M  V30 4449 H 427.724 2.00694 -0.39786 0
M  V30 4450 H 427.734 3.9219 1.12477 0
M  V30 4451 H 426.409 4.159 -0.00293032 0
M  V30 4452 H 424.986 3.34913 1.63974 0
M  V30 4453 N 427.171 -0.0066808 1.57599 0
M  V30 4454 C 428.418 -0.69292 1.90276 0
M  V30 4455 C 428.746 -1.74148 0.866192 0
M  V30 4456 O 428.001 -1.95268 -0.129933 0
M  V30 4457 C 428.3 -1.37939 3.29708 0
M  V30 4458 C 427.966 -0.464679 4.48499 0
M  V30 4459 C 426.628 -0.212809 4.80729 0
M  V30 4460 C 428.98 0.16551 5.20937 0
M  V30 4461 C 426.308 0.677653 5.82773 0
M  V30 4462 C 428.66 1.04381 6.23929 0
M  V30 4463 C 427.324 1.30492 6.54621 0
M  V30 4464 H 426.594 -0.253558 0.696268 0
M  V30 4465 H 429.241 0.0474123 1.91441 0
M  V30 4466 H 427.546 -2.1936 3.24636 0
M  V30 4467 H 429.243 -1.9163 3.52249 0
M  V30 4468 H 425.833 -0.671153 4.23313 0
M  V30 4469 H 430.017 -0.0160756 4.96297 0
M  V30 4470 H 425.273 0.88803 6.04917 0
M  V30 4471 H 429.447 1.53851 6.79193 0
M  V30 4472 H 427.074 1.99662 7.33512 0
M  V30 4473 N 428.649 -1.55105 -0.279332 0
M  V30 4474 C 429.877 -1.7943 -1.03017 0
M  V30 4475 C 430.292 -0.564456 -1.80165 0
M  V30 4476 O 429.649 0.466326 -1.76442 0
M  V30 4477 C 429.7 -3.0155 -1.99374 0
M  V30 4478 O 429.421 -4.19784 -1.25352 0
M  V30 4479 C 430.922 -3.3843 -2.86321 0
M  V30 4480 H 428.142 -0.597882 -0.304594 0
M  V30 4481 H 430.686 -2.02105 -0.312035 0
M  V30 4482 H 428.841 -2.81019 -2.66659 0
M  V30 4483 H 429.255 -4.88781 -1.90246 0
M  V30 4484 H 430.729 -4.27066 -3.49741 0
M  V30 4485 H 431.206 -2.57549 -3.5576 0
M  V30 4486 H 431.812 -3.61197 -2.24536 0
M  V30 4487 N 430.127 0.543554 -1.4793 0
M  V30 4488 C 431.09 1.63156 -1.60975 0
M  V30 4489 C 432.09 1.53346 -0.483899 0
M  V30 4490 O 433.28 1.5726 -0.749339 0
M  V30 4491 C 430.412 3.02743 -1.56716 0
M  V30 4492 H 431.605 1.52934 -2.57975 0
M  V30 4493 H 429.158 0.764557 -1.36324 0
M  V30 4494 H 429.893 3.18484 -0.611418 0
M  V30 4495 H 429.678 3.11272 -2.38438 0
M  V30 4496 H 431.168 3.81871 -1.6901 0
M  V30 4497 N 431.605 1.3629 0.791371 0
M  V30 4498 C 432.851 1.30605 1.55146 0
M  V30 4499 C 433.184 -0.115042 1.93859 0
M  V30 4500 O 432.459 -1.06798 1.62556 0
M  V30 4501 C 432.742 2.22692 2.82985 0
M  V30 4502 C 432.595 3.73489 2.50651 0
M  V30 4503 C 433.914 2.13588 3.84796 0
M  V30 4504 H 431.033 0.475761 0.562868 0
M  V30 4505 H 433.675 1.66825 0.909358 0
M  V30 4506 H 431.825 1.91933 3.37778 0
M  V30 4507 H 433.497 4.14758 2.01924 0
M  V30 4508 H 431.74 3.93021 1.83622 0
M  V30 4509 H 432.411 4.3333 3.41949 0
M  V30 4510 H 434.887 2.40659 3.39445 0
M  V30 4511 H 433.763 2.80195 4.71998 0
M  V30 4512 H 434.024 1.12256 4.27611 0
M  V30 4513 N 433.083 -1.0153 1.20538 0
M  V30 4514 C 434.311 -1.78746 1.04199 0
M  V30 4515 C 434.726 -1.84323 -0.408733 0
M  V30 4516 O 434.083 -1.29714 -1.28377 0
M  V30 4517 C 434.134 -3.23152 1.62035 0
M  V30 4518 O 433.855 -3.17918 3.0143 0
M  V30 4519 C 435.356 -4.16911 1.50666 0
M  V30 4520 H 432.576 -0.56208 0.366479 0
M  V30 4521 H 435.12 -1.27794 1.59653 0
M  V30 4522 H 433.275 -3.71248 1.10697 0
M  V30 4523 H 433.689 -4.08567 3.28897 0
M  V30 4524 H 435.163 -5.16072 1.95892 0
M  V30 4525 H 435.64 -4.36791 0.459363 0
M  V30 4526 H 436.246 -3.74698 2.01201 0
M  V30 4527 N 434.561 -1.01147 -1.20859 0
M  V30 4528 C 435.81 -0.693214 -1.89413 0
M  V30 4529 C 436.123 0.779969 -1.79376 0
M  V30 4530 O 437.329 1.21057 -2.43017 0
M  V30 4531 C 435.785 -1.18949 -3.39675 0
M  V30 4532 C 435.393 -2.68921 -3.58309 0
M  V30 4533 C 437.137 -0.94642 -4.13815 0
M  V30 4534 C 435.044 -3.12056 -5.0237 0
M  V30 4535 H 433.974 -0.255595 -0.709357 0
M  V30 4536 H 436.625 -1.22349 -1.36759 0
M  V30 4537 H 435.007 -0.587228 -3.91622 0
M  V30 4538 H 436.181 -3.34652 -3.16772 0
M  V30 4539 H 434.496 -2.91314 -2.97532 0
M  V30 4540 H 437.093 -1.24417 -5.20023 0
M  V30 4541 H 437.436 0.117219 -4.16135 0
M  V30 4542 H 437.969 -1.5118 -3.67953 0
M  V30 4543 H 434.708 -4.17674 -5.05202 0
M  V30 4544 H 434.228 -2.51041 -5.44737 0
M  V30 4545 H 435.907 -3.04403 -5.70918 0
M  V30 4546 N 436.039 1.36541 -0.78704 0
M  V30 4547 C 436.949 2.3387 -0.184896 0
M  V30 4548 C 437.965 1.60927 0.661697 0
M  V30 4549 O 439.141 1.92927 0.57804 0
M  V30 4550 C 436.206 3.40122 0.672145 0
M  V30 4551 C 435.267 4.28867 -0.19267 0
M  V30 4552 C 434.5 5.30045 0.623561 0
M  V30 4553 O 434.723 5.39232 1.8597 0
M  V30 4554 O 433.657 6.01895 0.0247068 0
M  V30 4555 H 437.483 2.87126 -0.989562 0
M  V30 4556 H 435.068 1.38969 -0.548455 0
M  V30 4557 H 436.95 4.05093 1.16094 0
M  V30 4558 H 435.625 2.89169 1.45474 0
M  V30 4559 H 434.532 3.66945 -0.728166 0
M  V30 4560 H 435.865 4.83165 -0.938722 0
M  V30 4561 N 437.518 0.538854 1.48102 0
M  V30 4562 C 438.766 0.00798599 2.02098 0
M  V30 4563 C 439.087 -1.33922 1.41739 0
M  V30 4564 O 438.357 -1.86932 0.585934 0
M  V30 4565 H 436.937 -3.62179e-05 0.747 0
M  V30 4566 H 439.599 0.7047 1.81714 0
M  V30 4567 H 438.695 -0.0937672 3.11959 0
M  V30 4568 N 438.996 -1.55193 0.274407 0
M  V30 4569 C 439.929 -2.18606 -0.654712 0
M  V30 4570 C 440.907 -1.14677 -1.15273 0
M  V30 4571 O 442.091 -1.43198 -1.22583 0
M  V30 4572 C 439.218 -2.80875 -1.89281 0
M  V30 4573 C 438.264 -3.981 -1.53032 0
M  V30 4574 S 439.097 -5.32025 -0.609107 0
M  V30 4575 C 440.253 -5.97761 -1.85559 0
M  V30 4576 H 440.486 -2.97074 -0.115894 0
M  V30 4577 H 438.019 -1.54288 0.05867 0
M  V30 4578 H 439.977 -3.17381 -2.60345 0
M  V30 4579 H 438.638 -2.02302 -2.40277 0
M  V30 4580 H 437.831 -4.40356 -2.45158 0
M  V30 4581 H 437.433 -3.63013 -0.899874 0
M  V30 4582 H 439.725 -6.16951 -2.7996 0
M  V30 4583 H 440.668 -6.92545 -1.47605 0
M  V30 4584 H 441.076 -5.27113 -2.02021 0
M  V30 4585 N 440.474 -0.00167713 -1.576 0
M  V30 4586 C 441.89 0.354422 -1.55615 0
M  V30 4587 C 442.09 1.74679 -1.00447 0
M  V30 4588 O 441.146 2.4428 -0.639022 0
M  V30 4589 C 442.459 0.22812 -2.99833 0
M  V30 4590 C 444.007 0.302934 -3.11531 0
M  V30 4591 C 444.482 0.205737 -4.57538 0
M  V30 4592 N 445.973 0.263584 -4.62449 0
M  V30 4593 C 446.708 0.211742 -5.73009 0
M  V30 4594 N 446.204 0.110399 -6.92712 0
M  V30 4595 N 447.997 0.263729 -5.61481 0
M  V30 4596 H 440.148 -0.912498 -1.918 0
M  V30 4597 H 442.411 -0.349928 -0.881053 0
M  V30 4598 H 442.117 -0.729934 -3.44042 0
M  V30 4599 H 441.991 1.00951 -3.6344 0
M  V30 4600 H 444.378 1.25143 -2.67251 0
M  V30 4601 H 444.459 -0.508357 -2.50698 0
M  V30 4602 H 444.103 -0.739225 -5.02492 0
M  V30 4603 H 444.033 1.03554 -5.16318 0
M  V30 4604 H 446.524 0.343173 -3.76339 0
M  V30 4605 H 446.837 0.0767828 -7.72762 0
M  V30 4606 H 445.182 0.0760025 -6.94958 0
M  V30 4607 H 448.373 0.34111 -4.66855 0
M  V30 4608 H 448.546 0.219862 -6.47627 0
M  V30 4609 N 441.952 1.55251 0.271103 0
M  V30 4610 C 443.198 1.76207 1.00394 0
M  V30 4611 C 443.531 0.562604 1.85872 0
M  V30 4612 O 442.806 -0.439785 1.89463 0
M  V30 4613 C 443.089 3.06828 1.8849 0
M  V30 4614 C 442.942 4.37134 1.05992 0
M  V30 4615 C 444.261 3.33503 2.87165 0
M  V30 4616 H 441.38 0.641086 0.363562 0
M  V30 4617 H 444.022 1.87982 0.276189 0
M  V30 4618 H 442.172 2.96921 2.5054 0
M  V30 4619 H 443.844 4.59001 0.459978 0
M  V30 4620 H 442.087 4.32275 0.363443 0
M  V30 4621 H 442.758 5.2486 1.70955 0
M  V30 4622 H 445.234 3.43215 2.3525 0
M  V30 4623 H 444.11 4.2616 3.45946 0
M  V30 4624 H 444.371 2.53235 3.62387 0
M  V30 4625 N 443.43 -0.535701 1.48216 0
M  V30 4626 C 444.363 -1.65726 1.56876 0
M  V30 4627 C 445.341 -1.57094 0.419542 0
M  V30 4628 O 446.525 -1.77648 0.630352 0
M  V30 4629 C 443.652 -3.04096 1.49142 0
M  V30 4630 C 442.698 -3.31105 2.68834 0
M  V30 4631 S 443.531 -3.18001 4.30854 0
M  V30 4632 C 444.687 -4.58828 4.25709 0
M  V30 4633 H 444.92 -1.58129 2.51759 0
M  V30 4634 H 442.453 -0.718218 1.36678 0
M  V30 4635 H 444.411 -3.839 1.45366 0
M  V30 4636 H 443.072 -3.09139 0.556067 0
M  V30 4637 H 442.265 -4.32033 2.59545 0
M  V30 4638 H 441.867 -2.58961 2.69843 0
M  V30 4639 H 444.159 -5.5023 3.95289 0
M  V30 4640 H 445.102 -4.73172 5.26796 0
M  V30 4641 H 445.51 -4.37883 3.56257 0
M  V30 4642 N 444.908 -1.36708 -0.784132 0
M  V30 4643 C 445.838 -1.34153 -1.91116 0
M  V30 4644 C 446.819 -0.212121 -1.68772 0
M  V30 4645 O 448.004 -0.410581 -1.8981 0
M  V30 4646 C 445.134 -1.13535 -3.28218 0
M  V30 4647 C 444.088 -2.23356 -3.65097 0
M  V30 4648 C 443.414 -1.87875 -5.00607 0
M  V30 4649 C 444.714 -3.65473 -3.73131 0
M  V30 4650 H 446.408 -2.28459 -1.93512 0
M  V30 4651 H 443.954 -1.09973 -0.929618 0
M  V30 4652 H 445.907 -1.10381 -4.06687 0
M  V30 4653 H 444.631 -0.156804 -3.26223 0
M  V30 4654 H 443.29 -2.25645 -2.88929 0
M  V30 4655 H 442.938 -0.885814 -4.95139 0
M  V30 4656 H 442.638 -2.61406 -5.26252 0
M  V30 4657 H 444.162 -1.86286 -5.81489 0
M  V30 4658 H 445.576 -3.65382 -4.41779 0
M  V30 4659 H 443.973 -4.37953 -4.10265 0
M  V30 4660 H 445.043 -3.99995 -2.74102 0
M  V30 4661 N 446.386 1.0089 -1.21074 0
M  V30 4662 C 447.633 1.74607 -1.0256 0
M  V30 4663 C 447.961 1.89426 0.44136 0
M  V30 4664 O 447.216 1.42266 1.34384 0
M  V30 4665 C 447.515 3.16335 -1.66334 0
M  V30 4666 C 447.181 3.21474 -3.16173 0
M  V30 4667 C 445.843 3.22583 -3.57062 0
M  V30 4668 C 448.195 3.19025 -4.12156 0
M  V30 4669 C 445.523 3.18925 -4.92446 0
M  V30 4670 C 447.875 3.16909 -5.47496 0
M  V30 4671 C 446.539 3.16326 -5.87787 0
M  V30 4672 H 445.809 0.638933 -0.375294 0
M  V30 4673 H 448.456 1.18274 -1.50611 0
M  V30 4674 H 446.761 3.75876 -1.10566 0
M  V30 4675 H 448.458 3.72083 -1.49516 0
M  V30 4676 H 445.048 3.2135 -2.83605 0
M  V30 4677 H 449.232 3.17332 -3.81595 0
M  V30 4678 H 444.488 3.16809 -5.22917 0
M  V30 4679 H 448.662 3.13968 -6.21609 0
M  V30 4680 H 446.289 3.13246 -6.92662 0
M  V30 4681 N 447.864 1.01787 1.20321 0
M  V30 4682 C 449.092 0.727194 1.937 0
M  V30 4683 C 449.507 -0.712305 1.74848 0
M  V30 4684 O 448.864 -1.48327 1.06327 0
M  V30 4685 C 448.915 1.05497 3.45764 0
M  V30 4686 O 448.636 2.43794 3.64 0
M  V30 4687 C 450.137 0.785534 4.36285 0
M  V30 4688 H 447.357 0.266939 0.615617 0
M  V30 4689 H 449.901 1.35939 1.52777 0
M  V30 4690 H 448.056 0.468158 3.84561 0
M  V30 4691 H 448.47 2.55656 4.57974 0
M  V30 4692 H 449.944 1.06495 5.4163 0
M  V30 4693 H 450.421 -0.280273 4.38305 0
M  V30 4694 H 451.027 1.35456 4.03152 0
M  V30 4695 N 449.342 -1.36122 0.79427 0
M  V30 4696 C 450.292 -2.27373 0.169017 0
M  V30 4697 C 451.276 -1.4719 -0.649913 0
M  V30 4698 O 452.468 -1.69518 -0.50919 0
M  V30 4699 C 449.597 -3.36264 -0.691455 0
M  V30 4700 C 448.683 -4.2388 0.13653 0
M  V30 4701 N 449.074 -4.91519 1.19345 0
M  V30 4702 C 447.372 -4.45921 -0.0838499 0
M  V30 4703 C 448.073 -5.56369 1.6979 0
M  V30 4704 N 447.049 -5.34204 1.00634 0
M  V30 4705 H 450.851 -2.77154 0.977897 0
M  V30 4706 H 448.365 -1.49504 0.634208 0
M  V30 4707 H 450.362 -4.00572 -1.15534 0
M  V30 4708 H 449.022 -2.88037 -1.49883 0
M  V30 4709 H 450.033 -4.9334 1.57594 0
M  V30 4710 H 446.71 -4.08518 -0.861341 0
M  V30 4711 H 448.1 -6.20368 2.58055 0
M  V30 4712 N 450.82 -0.546701 -1.47814 0
M  V30 4713 C 452.231 -0.110564 -1.86372 0
M  V30 4714 C 452.582 1.31678 -1.45449 0
M  V30 4715 O 451.707 1.98889 -0.852758 0
M  V30 4716 C 452.302 -0.193873 -3.38245 0
M  V30 4717 C 450.861 0.187164 -3.75934 0
M  V30 4718 C 450.008 -0.546166 -2.71868 0
M  V30 4719 H 452.959 -0.757022 -1.39481 0
M  V30 4720 H 452.98 0.590218 -3.75895 0
M  V30 4721 H 452.492 -1.23282 -3.67999 0
M  V30 4722 H 450.593 1.22762 -3.51796 0
M  V30 4723 H 450.706 -0.164083 -4.78819 0
M  V30 4724 H 449.07 0.00953904 -2.54698 0
M  V30 4725 H 449.853 -1.58606 -3.04465 0
M  V30 4726 N 452.299 1.55045 -0.282633 0
M  V30 4727 C 453.229 2.2579 0.595066 0
M  V30 4728 C 454.21 1.25074 1.15284 0
M  V30 4729 O 455.395 1.5381 1.18559 0
M  V30 4730 C 452.525 2.98472 1.77572 0
M  V30 4731 C 451.479 4.0618 1.34914 0
M  V30 4732 C 450.805 4.66477 2.6135 0
M  V30 4733 C 452.105 5.1996 0.493821 0
M  V30 4734 H 453.799 2.994 0.00505653 0
M  V30 4735 H 451.345 1.44 0.000992001 0
M  V30 4736 H 453.298 3.46677 2.39568 0
M  V30 4737 H 452.022 2.2241 2.39168 0
M  V30 4738 H 450.681 3.58797 0.752338 0
M  V30 4739 H 450.329 3.87074 3.2122 0
M  V30 4740 H 450.029 5.39207 2.33516 0
M  V30 4741 H 451.553 5.17435 3.24181 0
M  V30 4742 H 452.967 5.64172 1.01898 0
M  V30 4743 H 451.364 5.99299 0.310047 0
M  V30 4744 H 452.434 4.82462 -0.485593 0
M  V30 4745 N 453.777 0.010035 1.57597 0
M  V30 4746 C 454.725 -0.996272 2.10184 0
M  V30 4747 C 455.719 -1.34942 1.02406 0
M  V30 4748 O 456.925 -1.33389 1.20861 0
M  V30 4749 H 453.3 -0.338982 0.671264 0
M  V30 4750 H 455.271 -0.527272 2.93705 0
M  V30 4751 C 454.02 -2.27599 2.62857 0
M  V30 4752 H 453.343 -2.01295 3.45428 0
M  V30 4753 H 454.783 -2.96265 3.0332 0
M  V30 4754 C 453.242 -2.99269 1.54725 0
M  V30 4755 O 453.772 -3.90644 0.93597 0
M  V30 4756 N 451.978 -2.61269 1.27228 0
M  V30 4757 H 451.525 -1.87043 1.77123 0
M  V30 4758 H 451.483 -3.09534 0.550999 0
M  V30 4759 N 455.255 -1.55392 -0.262866 0
M  V30 4760 C 456.502 -1.76476 -0.993109 0
M  V30 4761 C 456.83 -0.571479 -1.85915 0
M  V30 4762 O 456.085 0.445733 -1.90556 0
M  V30 4763 C 456.384 -3.02889 -1.89718 0
M  V30 4764 C 456.05 -4.34974 -1.18781 0
M  V30 4765 C 454.712 -4.7087 -0.991699 0
M  V30 4766 C 457.064 -5.16695 -0.683798 0
M  V30 4767 C 454.392 -5.86036 -0.279024 0
M  V30 4768 C 456.744 -6.32598 0.0153327 0
M  V30 4769 C 455.408 -6.67127 0.223062 0
M  V30 4770 H 454.678 -0.64577 -0.363404 0
M  V30 4771 H 457.325 -1.89664 -0.264525 0
M  V30 4772 H 455.63 -2.84644 -2.6923 0
M  V30 4773 H 457.327 -3.16399 -2.46359 0
M  V30 4774 H 453.917 -4.06765 -1.35058 0
M  V30 4775 H 458.101 -4.8943 -0.8229 0
M  V30 4776 H 453.357 -6.11306 -0.107456 0
M  V30 4777 H 457.531 -6.95171 0.413584 0
M  V30 4778 H 455.158 -7.56216 0.777265 0
M  V30 4779 N 456.733 0.527833 -1.48498 0
M  V30 4780 C 457.68 1.6322 -1.6318 0
M  V30 4781 C 458.65 1.59199 -0.473815 0
M  V30 4782 O 459.835 1.77591 -0.697563 0
M  V30 4783 C 456.975 3.01474 -1.67951 0
M  V30 4784 C 456.088 3.15713 -2.94871 0
M  V30 4785 C 455.223 4.44539 -2.90789 0
M  V30 4786 C 454.262 4.52315 -4.12404 0
M  V30 4787 N 453.399 5.72533 -4.06387 0
M  V30 4788 H 458.239 1.50011 -2.57489 0
M  V30 4789 H 455.776 0.730298 -1.27691 0
M  V30 4790 H 457.734 3.81572 -1.68698 0
M  V30 4791 H 456.364 3.1345 -0.771306 0
M  V30 4792 H 455.416 2.28854 -3.03859 0
M  V30 4793 H 456.728 3.1732 -3.8485 0
M  V30 4794 H 455.882 5.3293 -2.89949 0
M  V30 4795 H 454.621 4.45457 -1.98542 0
M  V30 4796 H 453.626 3.62331 -4.13517 0
M  V30 4797 H 454.851 4.53134 -5.05812 0
M  V30 4798 H 452.797 5.74344 -3.16962 0
M  V30 4799 H 452.714 5.75643 -4.90073 0
M  V30 4800 H 453.982 6.63204 -4.0961 0
M  V30 4801 N 458.211 1.37122 0.776871 0
M  V30 4802 C 459.459 1.31787 1.53221 0
M  V30 4803 C 459.78 -0.0987589 1.9475 0
M  V30 4804 O 459.05 -1.0417 1.65908 0
M  V30 4805 H 457.63 0.484839 0.568278 0
M  V30 4806 H 460.292 1.71556 0.924917 0
M  V30 4807 H 459.388 1.95355 2.43398 0
M  V30 4808 N 459.689 -1.00246 1.21608 0
M  V30 4809 C 461.105 -1.26435 0.973975 0
M  V30 4810 C 461.305 -1.98642 -0.338143 0
M  V30 4811 O 460.361 -2.29026 -1.06317 0
M  V30 4812 C 461.674 -2.08551 2.16626 0
M  V30 4813 C 463.222 -2.21769 2.20879 0
M  V30 4814 C 463.697 -3.07267 3.39633 0
M  V30 4815 N 465.188 -3.14855 3.39736 0
M  V30 4816 C 465.923 -3.81274 4.28273 0
M  V30 4817 N 465.419 -4.497 5.27012 0
M  V30 4818 N 467.212 -3.7794 4.16074 0
M  V30 4819 H 459.363 -0.518089 2.05984 0
M  V30 4820 H 461.626 -0.291368 0.902113 0
M  V30 4821 H 461.332 -1.62847 3.11727 0
M  V30 4822 H 461.206 -3.09303 2.15897 0
M  V30 4823 H 463.593 -2.66691 1.26332 0
M  V30 4824 H 463.674 -1.20478 2.25652 0
M  V30 4825 H 463.318 -2.63047 4.34475 0
M  V30 4826 H 463.248 -4.08678 3.321 0
M  V30 4827 H 465.739 -2.66147 2.6828 0
M  V30 4828 H 466.052 -4.98092 5.90867 0
M  V30 4829 H 464.397 -4.48479 5.30935 0
M  V30 4830 H 467.588 -3.23638 3.38195 0
M  V30 4831 H 467.761 -4.29424 4.85282 0
M  V30 4832 N 461.167 -1.02423 -1.1978 0
M  V30 4833 C 462.413 -0.72878 -1.89896 0
M  V30 4834 C 462.768 0.734248 -1.77839 0
M  V30 4835 O 462.061 1.52733 -1.15685 0
M  V30 4836 C 462.255 -1.1088 -3.39765 0
M  V30 4837 C 462.084 -2.60722 -3.66407 0
M  V30 4838 C 460.854 -3.27623 -3.84696 0
M  V30 4839 C 463.052 -3.58924 -3.68345 0
M  V30 4840 N 461.034 -4.66617 -3.98926 0
M  V30 4841 C 462.405 -4.83514 -3.8809 0
M  V30 4842 C 464.46 -3.52788 -3.51347 0
M  V30 4843 C 463.163 -6.0271 -3.92598 0
M  V30 4844 C 465.189 -4.71394 -3.5713 0
M  V30 4845 C 464.551 -5.94796 -3.77356 0
M  V30 4846 H 460.65 -0.318473 -0.714212 0
M  V30 4847 H 463.234 -1.3106 -1.43984 0
M  V30 4848 H 461.405 -0.555233 -3.84411 0
M  V30 4849 H 463.137 -0.766082 -3.97383 0
M  V30 4850 H 459.892 -2.7804 -3.83393 0
M  V30 4851 H 460.316 -5.38805 -4.099 0
M  V30 4852 H 464.958 -2.58372 -3.3467 0
M  V30 4853 H 462.676 -6.97499 -4.08069 0
M  V30 4854 H 466.262 -4.6827 -3.45275 0
M  V30 4855 H 465.142 -6.85037 -3.81699 0
M  V30 4856 N 462.645 1.35699 -0.801477 0
M  V30 4857 C 463.575 2.32436 -0.222658 0
M  V30 4858 C 464.556 1.5723 0.649057 0
M  V30 4859 O 465.741 1.85324 0.580387 0
M  V30 4860 C 462.871 3.41469 0.633719 0
M  V30 4861 C 461.825 4.27774 -0.139083 0
M  V30 4862 C 461.151 5.28082 0.838666 0
M  V30 4863 C 462.451 5.04946 -1.33517 0
M  V30 4864 H 464.145 2.81094 -1.03086 0
M  V30 4865 H 461.691 1.35146 -0.497155 0
M  V30 4866 H 463.644 4.08143 1.04868 0
M  V30 4867 H 462.368 2.91408 1.47475 0
M  V30 4868 H 461.027 3.62673 -0.535156 0
M  V30 4869 H 460.675 4.7429 1.67506 0
M  V30 4870 H 460.375 5.86695 0.32594 0
M  V30 4871 H 461.899 5.97628 1.25194 0
M  V30 4872 H 463.313 5.64593 -0.995349 0
M  V30 4873 H 461.71 5.7303 -1.78202 0
M  V30 4874 H 462.78 4.35886 -2.12442 0
M  V30 4875 N 464.123 0.554532 1.47522 0
M  V30 4876 C 465.539 0.214107 1.58157 0
M  V30 4877 C 465.739 -1.28331 1.55349 0
M  V30 4878 O 464.795 -2.06329 1.45549 0
M  V30 4879 C 466.108 0.838391 2.88776 0
M  V30 4880 C 467.656 0.809374 3.02354 0
M  V30 4881 C 468.131 1.41268 4.35669 0
M  V30 4882 N 469.622 1.37574 4.42298 0
M  V30 4883 C 470.357 1.8122 5.4401 0
M  V30 4884 N 469.853 2.3271 6.52547 0
M  V30 4885 N 471.646 1.72307 5.35039 0
M  V30 4886 H 463.797 1.52744 1.4759 0
M  V30 4887 H 466.06 0.636812 0.702264 0
M  V30 4888 H 465.766 1.89065 2.96559 0
M  V30 4889 H 465.64 0.329847 3.75755 0
M  V30 4890 H 468.027 -0.234187 2.94169 0
M  V30 4891 H 468.108 1.35565 2.16924 0
M  V30 4892 H 467.752 2.45529 4.4461 0
M  V30 4893 H 467.682 0.841871 5.19827 0
M  V30 4894 H 470.173 0.999081 3.64454 0
M  V30 4895 H 470.486 2.63944 7.26329 0
M  V30 4896 H 468.831 2.36719 6.53444 0
M  V30 4897 H 472.022 1.3186 4.49144 0
M  V30 4898 H 472.195 2.06641 6.14169 0
M  V30 4899 N 465.601 -1.54893 0.290851 0
M  V30 4900 C 466.878 -1.91991 -0.373989 0
M  V30 4901 C 467.258 -1.21694 -1.72493 0
M  V30 4902 O 466.606 -0.34917 -2.25816 0
M  V30 4903 C 466.816 -3.45419 -0.498703 0
M  V30 4904 C 468.164 -4.1748 -0.774298 0
M  V30 4905 O 469.188 -3.51398 -0.582908 0
M  V30 4906 O 468.047 -5.3445 -1.14129 0
M  V30 4907 H 465.141 -0.800593 -0.207315 0
M  V30 4908 H 467.687 -1.66297 0.338164 0
M  V30 4909 H 466.459 -3.88688 0.451392 0
M  V30 4910 H 466.082 -3.77117 -1.25972 0
M  V30 4911 N 467.08 -0.0183926 -1.57589 0
M  V30 4912 C 468.496 0.337897 -1.55982 0
M  V30 4913 C 468.696 1.73604 -1.02294 0
M  V30 4914 O 467.752 2.43589 -0.664895 0
M  V30 4915 C 469.065 0.196305 -3.00059 0
M  V30 4916 C 470.613 0.269875 -3.11834 0
M  V30 4917 C 471.088 0.157197 -4.5773 0
M  V30 4918 N 472.579 0.214521 -4.62703 0
M  V30 4919 C 473.314 0.150955 -5.73201 0
M  V30 4920 N 472.81 0.0369212 -6.9279 0
M  V30 4921 N 474.603 0.204162 -5.61729 0
M  V30 4922 H 466.754 -0.93279 -1.90821 0
M  V30 4923 H 469.017 -0.359253 -0.877292 0
M  V30 4924 H 468.723 -0.766383 -3.43248 0
M  V30 4925 H 468.597 0.970908 -3.6449 0
M  V30 4926 H 470.984 1.22302 -2.68563 0
M  V30 4927 H 471.065 -0.534918 -2.50144 0
M  V30 4928 H 470.709 -0.792479 -5.01679 0
M  V30 4929 H 470.639 0.980717 -5.17387 0
M  V30 4930 H 473.13 0.303238 -3.76681 0
M  V30 4931 H 473.443 -0.00518321 -7.728 0
M  V30 4932 H 471.788 0.0022886 -6.95 0
M  V30 4933 H 474.979 0.291575 -4.67191 0
M  V30 4934 H 475.152 0.15116 -6.47824 0
M  V30 4935 N 468.558 1.5553 0.254621 0
M  V30 4936 C 469.488 1.9268 1.31897 0
M  V30 4937 C 470.469 0.790797 1.506 0
M  V30 4938 O 471.654 1.05045 1.63337 0
M  V30 4939 C 468.784 2.21477 2.67517 0
M  V30 4940 C 467.738 3.37256 2.63519 0
M  V30 4941 C 467.064 3.51576 4.02862 0
M  V30 4942 C 468.364 4.73157 2.21179 0
M  V30 4943 H 470.058 2.81832 1.01051 0
M  V30 4944 H 467.604 1.35599 0.484662 0
M  V30 4945 H 469.557 2.46055 3.42104 0
M  V30 4946 H 468.281 1.29144 2.99982 0
M  V30 4947 H 466.94 3.12675 1.9139 0
M  V30 4948 H 466.588 2.56676 4.32581 0
M  V30 4949 H 466.288 4.2943 4.01078 0
M  V30 4950 H 467.812 3.78467 4.79161 0
M  V30 4951 H 469.226 4.97158 2.85494 0
M  V30 4952 H 467.623 5.54058 2.30521 0
M  V30 4953 H 468.693 4.70739 1.16332 0
M  V30 4954 N 470.036 -0.519951 1.48776 0
M  V30 4955 C 470.984 -1.64443 1.64503 0
M  V30 4956 C 471.978 -1.61501 0.511248 0
M  V30 4957 O 473.184 -1.66238 0.690294 0
M  V30 4958 H 469.559 -0.544776 0.518385 0
M  V30 4959 H 471.53 -1.48325 2.58925 0
M  V30 4960 C 470.279 -3.02673 1.71127 0
M  V30 4961 H 469.602 -3.05635 2.57735 0
M  V30 4962 H 471.042 -3.80941 1.86172 0
M  V30 4963 C 469.501 -3.33854 0.452032 0
M  V30 4964 O 470.031 -3.99385 -0.430678 0
M  V30 4965 N 468.237 -2.88825 0.32069 0
M  V30 4966 H 467.784 -2.35674 1.03998 0
M  V30 4967 H 467.742 -3.10056 -0.520814 0
M  V30 4968 N 471.514 -1.37532 -0.769588 0
M  V30 4969 C 472.444 -1.36172 -1.89682 0
M  V30 4970 C 473.425 -0.23001 -1.68538 0
M  V30 4971 O 474.61 -0.43069 -1.89364 0
M  V30 4972 C 471.74 -1.1701 -3.26995 0
M  V30 4973 C 470.694 -2.27216 -3.62708 0
M  V30 4974 C 470.02 -1.93174 -4.98586 0
M  V30 4975 C 471.32 -3.6941 -3.69234 0
M  V30 4976 H 473.014 -2.30499 -1.91078 0
M  V30 4977 H 470.56 -1.10953 -0.917902 0
M  V30 4978 H 472.513 -1.14688 -4.05493 0
M  V30 4979 H 471.237 -0.191395 -3.26039 0
M  V30 4980 H 469.896 -2.28697 -2.86519 0
M  V30 4981 H 469.544 -0.938281 -4.94171 0
M  V30 4982 H 469.244 -2.66973 -5.23449 0
M  V30 4983 H 470.768 -1.92443 -5.79481 0
M  V30 4984 H 472.182 -3.70047 -4.37879 0
M  V30 4985 H 470.579 -4.4228 -4.05597 0
M  V30 4986 H 471.649 -4.0288 -2.69844 0
M  V30 4987 N 472.992 0.995999 -1.22138 0
M  V30 4988 C 474.238 1.7386 -1.05567 0
M  V30 4989 C 474.593 1.8808 0.405418 0
M  V30 4990 O 473.886 1.41062 1.29661 0
M  V30 4991 C 474.08 3.14553 -1.6968 0
M  V30 4992 C 473.909 3.14053 -3.21871 0
M  V30 4993 C 472.679 3.20121 -3.90961 0
M  V30 4994 C 474.877 2.98451 -4.18845 0
M  V30 4995 N 472.859 3.09342 -5.30265 0
M  V30 4996 C 474.23 2.95667 -5.4496 0
M  V30 4997 C 476.285 2.8282 -4.09777 0
M  V30 4998 C 474.988 2.78852 -6.63049 0
M  V30 4999 C 477.014 2.67364 -5.27513 0
M  V30 5000 C 476.376 2.65264 -6.52544 0
M  V30 5001 H 472.475 0.645989 -0.440706 0
M  V30 5002 H 475.059 1.1831 -1.54631 0
M  V30 5003 H 473.23 3.68353 -1.2317 0
M  V30 5004 H 474.962 3.77358 -1.4623 0
M  V30 5005 H 471.717 3.27679 -3.4194 0
M  V30 5006 H 472.141 3.0727 -6.03253 0
M  V30 5007 H 476.783 2.83243 -3.139 0
M  V30 5008 H 474.501 2.77175 -7.59078 0
M  V30 5009 H 478.087 2.56256 -5.22326 0
M  V30 5010 H 476.967 2.5345 -7.42114 0
M  V30 5011 N 474.47 1.03057 1.19235 0
M  V30 5012 C 475.4 0.633497 2.24742 0
M  V30 5013 C 476.381 -0.358335 1.66283 0
M  V30 5014 O 477.566 -0.240676 1.92703 0
M  V30 5015 C 474.696 -0.0147648 3.47297 0
M  V30 5016 C 473.65 0.899527 4.18441 0
M  V30 5017 C 472.976 0.116281 5.34574 0
M  V30 5018 C 474.276 2.21404 4.73051 0
M  V30 5019 H 475.97 1.5155 2.58211 0
M  V30 5020 H 473.516 0.73014 1.24117 0
M  V30 5021 H 475.469 -0.304202 4.20301 0
M  V30 5022 H 474.193 -0.931577 3.13032 0
M  V30 5023 H 472.852 1.17319 3.47321 0
M  V30 5024 H 472.5 -0.802619 4.96555 0
M  V30 5025 H 472.2 0.725293 5.83107 0
M  V30 5026 H 473.724 -0.166376 6.10373 0
M  V30 5027 H 475.138 1.98601 5.37802 0
M  V30 5028 H 473.535 2.77512 5.32078 0
M  V30 5029 H 474.605 2.86752 3.91026 0
M  V30 5030 N 475.948 -1.35272 0.808662 0
M  V30 5031 C 477.176 -2.02946 0.402537 0
M  V30 5032 C 477.591 -1.60937 -0.987147 0
M  V30 5033 O 476.948 -0.807917 -1.63643 0
M  V30 5034 C 476.999 -3.58317 0.47868 0
M  V30 5035 O 476.72 -3.98799 1.81358 0
M  V30 5036 C 478.221 -4.43251 0.0656281 0
M  V30 5037 H 475.441 -0.650831 0.163279 0
M  V30 5038 H 477.985 -1.72849 1.09286 0
M  V30 5039 H 476.14 -3.87055 -0.163415 0
M  V30 5040 H 476.554 -4.93451 1.77781 0
M  V30 5041 H 478.028 -5.51738 0.170017 0
M  V30 5042 H 478.505 -4.27913 -0.989278 0
M  V30 5043 H 479.111 -4.19813 0.68096 0
M  V30 5044 N 477.426 -0.562348 -1.47226 0
M  V30 5045 C 478.703 0.0256985 -1.95583 0
M  V30 5046 C 479.083 1.48032 -1.50498 0
M  V30 5047 O 478.431 2.15973 -0.746181 0
M  V30 5048 C 478.641 -0.125129 -3.48776 0
M  V30 5049 C 479.989 0.0175728 -4.24596 0
M  V30 5050 O 481.013 -0.0529341 -3.56161 0
M  V30 5051 O 479.872 0.170145 -5.46235 0
M  V30 5052 H 476.966 0.0612565 -0.824728 0
M  V30 5053 H 479.512 -0.629233 -1.57603 0
M  V30 5054 H 478.284 -1.13715 -3.74412 0
M  V30 5055 H 477.907 0.567178 -3.93534 0
M  V30 5056 N 478.904 1.54736 -0.299062 0
M  V30 5057 C 479.852 2.24897 0.593658 0
M  V30 5058 C 480.846 1.25429 1.13859 0
M  V30 5059 O 482.052 1.43286 1.08945 0
M  V30 5060 H 478.427 0.72207 0.210046 0
M  V30 5061 H 480.398 2.98393 -0.0206421 0
M  V30 5062 C 479.147 3.00159 1.75499 0
M  V30 5063 H 478.47 3.76501 1.34489 0
M  V30 5064 H 479.91 3.52535 2.35574 0
M  V30 5065 C 478.369 2.07015 2.65794 0
M  V30 5066 O 478.899 1.63692 3.66835 0
M  V30 5067 N 477.105 1.73012 2.33485 0
M  V30 5068 H 476.652 2.08439 1.51364 0
M  V30 5069 H 476.61 1.10965 2.94167 0
M  V30 5070 N 480.382 0.0267497 1.57577 0
M  V30 5071 C 481.314 -0.984594 2.06974 0
M  V30 5072 C 482.327 -1.29032 0.992705 0
M  V30 5073 O 483.516 -1.25539 1.26895 0
M  V30 5074 C 480.616 -2.31262 2.47732 0
M  V30 5075 C 479.789 -2.1924 3.78487 0
M  V30 5076 C 478.848 -3.34956 4.05821 0
M  V30 5077 O 477.874 -3.11948 4.76106 0
M  V30 5078 N 479.076 -4.58672 3.55809 0
M  V30 5079 H 481.841 -0.563143 2.94362 0
M  V30 5080 H 479.402 -0.160061 1.61107 0
M  V30 5081 H 481.394 -3.07496 2.63112 0
M  V30 5082 H 479.964 -2.65056 1.65723 0
M  V30 5083 H 479.184 -1.27747 3.72927 0
M  V30 5084 H 480.472 -2.08409 4.64158 0
M  V30 5085 H 479.87 -4.8026 2.98942 0
M  V30 5086 H 478.427 -5.32083 3.76472 0
M  V30 5087 N 481.861 -1.55662 -0.24637 0
M  V30 5088 C 483.277 -1.48098 -0.594907 0
M  V30 5089 C 483.477 -0.717044 -1.8831 0
M  V30 5090 O 482.533 -0.246618 -2.51293 0
M  V30 5091 C 483.846 -2.92507 -0.697146 0
M  V30 5092 C 485.394 -3.02881 -0.789436 0
M  V30 5093 C 485.869 -4.48598 -0.923232 0
M  V30 5094 N 487.36 -4.52538 -0.988088 0
M  V30 5095 C 488.095 -5.62536 -1.11089 0
M  V30 5096 N 487.591 -6.82342 -1.19919 0
M  V30 5097 N 489.384 -5.50334 -1.14408 0
M  V30 5098 H 481.535 -2.0377 0.599278 0
M  V30 5099 H 483.798 -0.925145 0.20691 0
M  V30 5100 H 483.504 -3.51242 0.179396 0
M  V30 5101 H 483.378 -3.43024 -1.5689 0
M  V30 5102 H 485.765 -2.44226 -1.65643 0
M  V30 5103 H 485.846 -2.55574 0.107482 0
M  V30 5104 H 485.49 -5.07864 -0.0607927 0
M  V30 5105 H 485.42 -4.93587 -1.8352 0
M  V30 5106 H 487.911 -3.66248 -0.931167 0
M  V30 5107 H 488.224 -7.61924 -1.29197 0
M  V30 5108 H 486.569 -6.85102 -1.16876 0
M  V30 5109 H 489.76 -4.5567 -1.07158 0
M  V30 5110 H 489.933 -6.36096 -1.23634 0
M  V30 5111 N 483.339 0.512053 -1.4905 0
M  V30 5112 C 484.588 1.26343 -1.57227 0
M  V30 5113 C 484.901 1.93876 -0.259155 0
M  V30 5114 O 486.107 2.70612 -0.219358 0
M  V30 5115 C 484.563 2.29343 -2.77362 0
M  V30 5116 C 484.171 1.67799 -4.15388 0
M  V30 5117 C 485.915 3.05378 -2.94864 0
M  V30 5118 C 483.822 2.68845 -5.2676 0
M  V30 5119 H 482.752 0.475231 -0.585382 0
M  V30 5120 H 485.403 0.53862 -1.75417 0
M  V30 5121 H 483.785 3.04938 -2.52643 0
M  V30 5122 H 484.959 0.982715 -4.50199 0
M  V30 5123 H 483.274 1.04194 -4.03153 0
M  V30 5124 H 485.871 3.80921 -3.75238 0
M  V30 5125 H 486.214 3.62327 -2.05 0
M  V30 5126 H 486.747 2.36898 -3.19569 0
M  V30 5127 H 483.486 2.16692 -6.18647 0
M  V30 5128 H 483.006 3.36647 -4.96416 0
M  V30 5129 H 484.685 3.31487 -5.5563 0
M  V30 5130 N 484.817 1.37938 0.762283 0
M  V30 5131 C 486.047 1.36685 1.54922 0
M  V30 5132 C 486.455 -0.0474099 1.89141 0
M  V30 5133 O 485.798 -1.02213 1.52638 0
M  V30 5134 C 485.86 2.14963 2.88152 0
M  V30 5135 C 485.524 3.6385 2.76518 0
M  V30 5136 C 486.521 4.57531 2.46904 0
M  V30 5137 C 484.206 4.07095 2.94243 0
M  V30 5138 C 486.2 5.92436 2.35156 0
M  V30 5139 C 483.887 5.42083 2.82116 0
M  V30 5140 C 484.885 6.34567 2.52614 0
M  V30 5141 O 484.573 7.67073 2.40529 0
M  V30 5142 H 484.305 0.469586 0.486276 0
M  V30 5143 H 486.859 1.82012 0.951876 0
M  V30 5144 H 485.089 1.6434 3.50042 0
M  V30 5145 H 486.778 2.06224 3.49609 0
M  V30 5146 H 487.544 4.25428 2.32886 0
M  V30 5147 H 483.423 3.35462 3.16206 0
M  V30 5148 H 486.967 6.64591 2.12049 0
M  V30 5149 H 482.864 5.73785 2.95704 0
M  V30 5150 H 483.632 7.77499 2.55807 0
M  V30 5151 N 486.295 -0.989507 1.22664 0
M  V30 5152 C 487.243 -2.10148 0.997035 0
M  V30 5153 C 488.237 -1.6929 -0.0609783 0
M  V30 5154 O 489.443 -1.79766 0.0917523 0
M  V30 5155 H 485.818 -0.687256 0.305259 0
M  V30 5156 H 487.789 -2.26685 1.94053 0
M  V30 5157 C 486.538 -3.4257 0.595085 0
M  V30 5158 H 485.861 -3.74453 1.40089 0
M  V30 5159 H 487.301 -4.21344 0.473869 0
M  V30 5160 C 485.76 -3.29638 -0.695725 0
M  V30 5161 O 486.29 -3.61709 -1.74727 0
M  V30 5162 N 484.496 -2.82814 -0.668173 0
M  V30 5163 H 484.043 -2.56914 0.18787 0
M  V30 5164 H 484.001 -2.74544 -1.5321 0
M  V30 5165 N 487.773 -1.03688 -1.18687 0
M  V30 5166 C 489.019 -0.739123 -1.88851 0
M  V30 5167 C 489.352 0.731042 -1.79915 0
M  V30 5168 O 488.627 1.53313 -1.19688 0
M  V30 5169 C 488.91 -1.20106 -3.3948 0
M  V30 5170 C 488.763 -2.73304 -3.57246 0
M  V30 5171 C 490.082 -0.788134 -4.32986 0
M  V30 5172 H 487.201 -0.269978 -0.68577 0
M  V30 5173 H 489.843 -1.28822 -1.3966 0
M  V30 5174 H 487.993 -0.733915 -3.81505 0
M  V30 5175 H 489.665 -3.28027 -3.24339 0
M  V30 5176 H 487.908 -3.13313 -3.00029 0
M  V30 5177 H 488.579 -3.00684 -4.62918 0
M  V30 5178 H 491.055 -1.19005 -3.98719 0
M  V30 5179 H 489.931 -1.13915 -5.36949 0
M  V30 5180 H 490.192 0.308988 -4.41019 0
M  V30 5181 N 489.251 1.34841 -0.815825 0
M  V30 5182 C 490.499 1.98107 -0.399744 0
M  V30 5183 C 490.82 1.65019 1.03894 0
M  V30 5184 O 490.09 0.937311 1.72021 0
M  V30 5185 H 488.67 0.732827 -0.144823 0
M  V30 5186 H 491.332 1.64599 -1.0437 0
M  V30 5187 H 490.428 3.07856 -0.512965 0
M  V30 5188 N 490.729 0.570148 1.46925 0
M  V30 5189 C 491.661 -0.207909 2.28255 0
M  V30 5190 C 492.674 -0.867301 1.37774 0
M  V30 5191 O 493.863 -0.738976 1.62485 0
M  V30 5192 C 490.963 -1.31298 3.12433 0
M  V30 5193 C 490.136 -0.747915 4.30958 0
M  V30 5194 C 489.195 -1.7391 4.9663 0
M  V30 5195 O 488.221 -1.2801 5.54619 0
M  V30 5196 N 489.423 -3.07288 4.92498 0
M  V30 5197 H 492.188 0.489794 2.95671 0
M  V30 5198 H 489.749 0.407076 1.56699 0
M  V30 5199 H 491.741 -1.97507 3.53232 0
M  V30 5200 H 490.311 -1.91373 2.47175 0
M  V30 5201 H 489.531 0.0913066 3.94094 0
M  V30 5202 H 490.819 -0.349958 5.07595 0
M  V30 5203 H 490.217 -3.47213 4.46609 0
M  V30 5204 H 488.774 -3.69021 5.37277 0
M  V30 5205 N 492.207 -1.54576 0.307264 0
M  V30 5206 C 493.453 -2.0056 -0.300612 0
M  V30 5207 C 493.786 -1.1953 -1.53057 0
M  V30 5208 O 493.061 -0.27337 -1.92569 0
M  V30 5209 C 493.344 -3.54167 -0.650987 0
M  V30 5210 C 493.197 -4.45933 0.588539 0
M  V30 5211 C 494.516 -4.14645 -1.47506 0
M  V30 5212 H 491.635 -0.729075 -0.107788 0
M  V30 5213 H 494.277 -1.85286 0.420606 0
M  V30 5214 H 492.427 -3.67313 -1.26544 0
M  V30 5215 H 494.099 -4.44683 1.22697 0
M  V30 5216 H 492.342 -4.16274 1.22058 0
M  V30 5217 H 493.013 -5.51189 0.299153 0
M  V30 5218 H 495.489 -4.04973 -0.955821 0
M  V30 5219 H 494.365 -5.22269 -1.68899 0
M  V30 5220 H 494.626 -3.66921 -2.4662 0
M  V30 5221 N 493.685 -0.035106 -1.57561 0
M  V30 5222 C 494.91 0.655802 -1.96759 0
M  V30 5223 C 495.335 1.64523 -0.911809 0
M  V30 5224 O 494.693 1.80857 0.126673 0
M  V30 5225 C 494.741 1.33326 -3.35047 0
M  V30 5226 O 493.845 2.44866 -3.31835 0
M  V30 5227 H 493.186 0.171807 -0.641388 0
M  V30 5228 H 495.716 -0.0987369 -2.04362 0
M  V30 5229 H 495.726 1.68867 -3.71413 0
M  V30 5230 H 494.401 0.608033 -4.11431 0
M  V30 5231 H 492.978 2.11392 -3.07193 0
M  V30 5232 N 495.163 1.55791 0.238111 0
M  V30 5233 C 496.412 1.77234 0.962868 0
M  V30 5234 C 496.725 0.600661 1.86149 0
M  V30 5235 O 497.931 0.698315 2.62366 0
M  V30 5236 C 496.387 3.13808 1.76218 0
M  V30 5237 C 495.995 4.3865 0.910518 0
M  V30 5238 C 497.739 3.44585 2.47914 0
M  V30 5239 C 495.646 5.66252 1.70623 0
M  V30 5240 H 494.576 0.660731 0.36325 0
M  V30 5241 H 497.227 1.8221 0.217242 0
M  V30 5242 H 495.609 3.02963 2.55009 0
M  V30 5243 H 496.783 4.60507 0.164316 0
M  V30 5244 H 495.098 4.15271 0.30647 0
M  V30 5245 H 497.695 4.3714 3.07917 0
M  V30 5246 H 498.038 2.66314 3.19973 0
M  V30 5247 H 498.571 3.56685 1.76127 0
M  V30 5248 H 495.31 6.47369 1.02923 0
M  V30 5249 H 494.83 5.48483 2.42748 0
M  V30 5250 H 496.509 6.05829 2.27114 0
M  V30 5251 N 496.642 -0.504142 1.49319 0
M  V30 5252 C 497.89 -1.25598 1.58334 0
M  V30 5253 C 498.211 -1.93114 0.270538 0
M  V30 5254 O 497.481 -1.82585 -0.709891 0
M  V30 5255 H 496.061 -0.466571 0.58337 0
M  V30 5256 H 498.723 -0.584547 1.85928 0
M  V30 5257 H 497.819 -2.02159 2.37778 0
M  V30 5258 N 498.12 -1.38341 -0.754957 0
M  V30 5259 C 499.397 -1.24995 -1.50451 0
M  V30 5260 C 499.777 0.149244 -2.10572 0
M  V30 5261 O 499.125 1.15861 -1.96948 0
M  V30 5262 C 499.335 -2.35904 -2.57197 0
M  V30 5263 C 500.683 -2.74262 -3.24138 0
M  V30 5264 O 501.707 -2.35205 -2.67501 0
M  V30 5265 O 500.566 -3.4161 -4.26574 0
M  V30 5266 H 497.66 -0.48872 -0.667144 0
M  V30 5267 H 500.206 -1.50165 -0.790486 0
M  V30 5268 H 498.978 -3.2953 -2.11011 0
M  V30 5269 H 498.601 -2.12291 -3.36182 0
M  V30 5270 N 499.598 0.982988 -1.23187 0
M  V30 5271 C 500.508 2.10907 -1.02739 0
M  V30 5272 C 501.524 1.73979 0.0273188 0
M  V30 5273 O 502.7 2.00702 -0.16757 0
M  V30 5274 C 499.765 3.41142 -0.618304 0
M  V30 5275 C 498.826 3.92112 -1.74777 0
M  V30 5276 C 498.059 5.16131 -1.3581 0
M  V30 5277 O 498.282 5.6989 -0.241201 0
M  V30 5278 O 497.216 5.61103 -2.17824 0
M  V30 5279 H 501.042 2.31046 -1.97108 0
M  V30 5280 H 498.627 1.09284 -1.01869 0
M  V30 5281 H 500.509 4.19488 -0.400982 0
M  V30 5282 H 499.184 3.2234 0.296421 0
M  V30 5283 H 498.091 3.14895 -2.0197 0
M  V30 5284 H 499.424 4.15364 -2.64071 0
M  V30 5285 N 501.076 1.04316 1.18135 0
M  V30 5286 C 502.024 0.630175 2.23901 0
M  V30 5287 C 503.018 -0.344254 1.65865 0
M  V30 5288 O 504.224 -0.211273 1.78756 0
M  V30 5289 H 500.599 0.185578 0.728742 0
M  V30 5290 H 502.57 1.53253 2.56039 0
M  V30 5291 C 501.319 0.011666 3.47698 0
M  V30 5292 H 500.642 0.752526 3.92654 0
M  V30 5293 H 502.082 -0.240046 4.2332 0
M  V30 5294 C 500.541 -1.23913 3.13285 0
M  V30 5295 O 501.071 -2.32959 3.27251 0
M  V30 5296 N 499.277 -1.13338 2.67587 0
M  V30 5297 H 498.824 -0.246006 2.56423 0
M  V30 5298 H 498.782 -1.97116 2.44934 0
M  V30 5299 N 502.554 -1.34406 0.822964 0
M  V30 5300 C 503.779 -2.0304 0.423034 0
M  V30 5301 C 504.204 -1.61568 -0.963196 0
M  V30 5302 O 503.562 -0.800339 -1.62678 0
M  V30 5303 C 503.61 -3.56636 0.53321 0
M  V30 5304 O 502.714 -4.09971 -0.446939 0
M  V30 5305 H 502.055 -0.64075 0.174171 0
M  V30 5306 H 504.585 -1.71653 1.11339 0
M  V30 5307 H 504.595 -4.05945 0.408991 0
M  V30 5308 H 503.27 -3.86168 1.54425 0
M  V30 5309 H 501.847 -3.71835 -0.281601 0
M  V30 5310 N 504.032 -0.577932 -1.46621 0
M  V30 5311 C 504.995 0.147805 -2.28723 0
M  V30 5312 C 505.995 0.823325 -1.38123 0
M  V30 5313 O 507.185 0.676011 -1.60548 0
M  V30 5314 C 504.317 1.21853 -3.18378 0
M  V30 5315 H 505.51 -0.573654 -2.94362 0
M  V30 5316 H 503.063 -0.335703 -1.52652 0
M  V30 5317 H 503.798 1.97173 -2.57475 0
M  V30 5318 H 503.583 0.738714 -3.85078 0
M  V30 5319 H 505.073 1.72768 -3.80186 0
M  V30 5320 N 505.51 1.54411 -0.315457 0
M  V30 5321 C 506.74 2.04536 0.291315 0
M  V30 5322 C 507.148 1.19162 1.4696 0
M  V30 5323 O 506.491 0.213199 1.82459 0
M  V30 5324 C 506.553 3.5056 0.796725 0
M  V30 5325 C 506.217 4.5627 -0.258178 0
M  V30 5326 C 507.214 5.08312 -1.09153 0
M  V30 5327 C 504.899 5.00672 -0.404036 0
M  V30 5328 C 506.893 6.03312 -2.05655 0
M  V30 5329 C 504.58 5.95488 -1.37248 0
M  V30 5330 C 505.578 6.46693 -2.19721 0
M  V30 5331 O 505.266 7.39648 -3.14921 0
M  V30 5332 H 504.998 0.672856 0.0651165 0
M  V30 5333 H 507.552 2.00244 -0.457308 0
M  V30 5334 H 505.782 3.52223 1.59612 0
M  V30 5335 H 507.471 3.83804 1.32096 0
M  V30 5336 H 508.237 4.74793 -0.98979 0
M  V30 5337 H 504.116 4.60436 0.22799 0
M  V30 5338 H 507.66 6.43203 -2.70067 0
M  V30 5339 H 503.557 6.28424 -1.47489 0
M  V30 5340 H 504.325 7.57496 -3.10067 0
M  V30 5341 N 506.988 0.0434614 1.5754 0
M  V30 5342 C 508.213 -0.645358 1.97104 0
M  V30 5343 C 508.638 -1.64037 0.920521 0
M  V30 5344 O 507.996 -1.80922 -0.11708 0
M  V30 5345 C 508.044 -1.31547 3.35749 0
M  V30 5346 O 507.148 -2.43103 3.33129 0
M  V30 5347 H 506.489 -0.168403 0.64229 0
M  V30 5348 H 509.019 0.109573 2.04306 0
M  V30 5349 H 509.029 -1.66895 3.72304 0
M  V30 5350 H 507.704 -0.586205 4.11748 0
M  V30 5351 H 506.281 -2.0976 3.0831 0
M  V30 5352 N 508.466 -1.55915 -0.229846 0
M  V30 5353 C 509.691 -1.8296 -0.976743 0
M  V30 5354 C 510.116 -0.622735 -1.77493 0
M  V30 5355 O 509.474 0.428431 -1.76165 0
M  V30 5356 C 509.522 -3.07916 -1.8767 0
M  V30 5357 O 508.626 -2.86028 -2.97088 0
M  V30 5358 H 507.967 -0.603453 -0.277021 0
M  V30 5359 H 510.497 -2.0312 -0.245669 0
M  V30 5360 H 510.507 -3.37802 -2.2881 0
M  V30 5361 H 509.182 -3.95389 -1.28996 0
M  V30 5362 H 507.759 -2.67355 -2.59954 0
M  V30 5363 N 509.944 0.496216 -1.49584 0
M  V30 5364 C 511.19 1.25189 -1.59548 0
M  V30 5365 C 511.523 1.9212 -0.283466 0
M  V30 5366 O 510.798 1.80947 0.713324 0
M  V30 5367 C 511.081 2.31516 -2.75812 0
M  V30 5368 C 510.934 1.69054 -4.16822 0
M  V30 5369 C 512.253 3.3304 -2.87702 0
M  V30 5370 H 509.372 0.45379 -0.580727 0
M  V30 5371 H 512.014 0.549327 -1.81886 0
M  V30 5372 H 510.164 2.91438 -2.56897 0
M  V30 5373 H 511.836 1.12923 -4.47265 0
M  V30 5374 H 510.079 0.994485 -4.22247 0
M  V30 5375 H 510.75 2.462 -4.94054 0
M  V30 5376 H 513.226 2.83114 -3.04936 0
M  V30 5377 H 512.102 4.04794 -3.7072 0
M  V30 5378 H 512.363 3.95655 -1.97255 0
M  V30 5379 N 511.423 1.38739 0.74761 0
M  V30 5380 C 512.353 1.39173 1.87492 0
M  V30 5381 C 513.334 0.256794 1.6815 0
M  V30 5382 O 514.519 0.460762 1.88655 0
M  V30 5383 C 511.649 1.22197 3.25093 0
M  V30 5384 C 510.603 2.32957 3.59047 0
M  V30 5385 C 509.929 2.01082 4.95449 0
M  V30 5386 C 511.229 3.75237 3.6331 0
M  V30 5387 H 512.923 2.3351 1.87386 0
M  V30 5388 H 510.469 1.12399 0.900134 0
M  V30 5389 H 512.422 1.21124 4.03617 0
M  V30 5390 H 511.146 0.243241 3.25693 0
M  V30 5391 H 509.805 2.33226 2.82845 0
M  V30 5392 H 509.453 1.01678 4.92616 0
M  V30 5393 H 509.153 2.75267 5.19136 0
M  V30 5394 H 510.677 2.01638 5.76346 0
M  V30 5395 H 512.091 3.76966 4.31937 0
M  V30 5396 H 510.488 4.48677 3.98509 0
M  V30 5397 H 511.558 4.07122 2.634 0
M  V30 5398 N 512.901 -0.976442 1.23707 0
M  V30 5399 C 514.131 -1.75087 1.09673 0
M  V30 5400 C 514.539 -1.85852 -0.354344 0
M  V30 5401 O 513.882 -1.33985 -1.25673 0
M  V30 5402 C 513.944 -3.19272 1.65245 0
M  V30 5403 C 513.608 -3.32004 3.14042 0
M  V30 5404 C 514.605 -3.18017 4.11292 0
M  V30 5405 C 512.29 -3.56525 3.53829 0
M  V30 5406 C 514.284 -3.28363 5.46312 0
M  V30 5407 C 511.971 -3.6651 4.88993 0
M  V30 5408 C 512.969 -3.52439 5.85043 0
M  V30 5409 O 512.657 -3.62063 7.1775 0
M  V30 5410 H 512.389 -0.556164 0.384262 0
M  V30 5411 H 514.943 -1.23518 1.64111 0
M  V30 5412 H 513.173 -3.72107 1.05231 0
M  V30 5413 H 514.862 -3.7849 1.46629 0
M  V30 5414 H 515.628 -2.98966 3.81896 0
M  V30 5415 H 511.507 -3.66547 2.79579 0
M  V30 5416 H 515.051 -3.17297 6.21263 0
M  V30 5417 H 510.948 -3.85072 5.18063 0
M  V30 5418 H 511.716 -3.78833 7.25553 0
M  V30 5419 N 514.379 -1.04941 -1.1758 0
M  V30 5420 C 515.326 -0.648155 -2.21512 0
M  V30 5421 C 516.296 0.348431 -1.62404 0
M  V30 5422 O 517.481 0.240419 -1.89279 0
M  V30 5423 C 514.621 -0.0264291 -3.4509 0
M  V30 5424 C 513.734 -1.07154 -4.185 0
M  V30 5425 C 512.869 -0.417403 -5.29558 0
M  V30 5426 C 511.908 -1.447 -5.94751 0
M  V30 5427 N 511.045 -0.817203 -6.97328 0
M  V30 5428 H 515.885 -1.53891 -2.55189 0
M  V30 5429 H 513.422 -0.769699 -1.25356 0
M  V30 5430 H 515.38 0.351456 -4.15717 0
M  V30 5431 H 514.01 0.827802 -3.12005 0
M  V30 5432 H 513.062 -1.56728 -3.46613 0
M  V30 5433 H 514.374 -1.8532 -4.63096 0
M  V30 5434 H 513.528 0.0142061 -6.06698 0
M  V30 5435 H 512.267 0.396265 -4.86087 0
M  V30 5436 H 511.272 -1.88865 -5.16343 0
M  V30 5437 H 512.497 -2.26252 -6.40302 0
M  V30 5438 H 510.443 -0.0239995 -6.55996 0
M  V30 5439 H 510.36 -1.53644 -7.40223 0
M  V30 5440 H 511.628 -0.410283 -7.7842 0
M  V30 5441 N 515.857 1.33968 -0.830081 0
M  V30 5442 C 517.134 1.92554 -0.343858 0
M  V30 5443 C 517.514 1.7573 1.16971 0
M  V30 5444 O 516.862 1.14035 1.98011 0
M  V30 5445 C 517.072 3.40147 -0.781073 0
M  V30 5446 C 518.42 4.17299 -0.78402 0
M  V30 5447 O 519.444 3.48762 -0.724112 0
M  V30 5448 O 518.303 5.39631 -0.863739 0
M  V30 5449 H 515.397 0.821469 -0.0954827 0
M  V30 5450 H 517.943 1.42897 -0.915348 0
M  V30 5451 H 516.715 3.46225 -1.82329 0
M  V30 5452 H 516.338 3.97166 -0.18567 0
M  V30 5453 N 517.335 0.585699 1.46312 0
M  V30 5454 C 518.612 0.00542031 1.95599 0
M  V30 5455 C 518.992 -1.45619 1.52834 0
M  V30 5456 O 518.34 -2.14759 0.780446 0
M  V30 5457 C 518.55 0.180601 3.48532 0
M  V30 5458 C 519.898 0.049979 4.24571 0
M  V30 5459 O 520.922 0.109589 3.56031 0
M  V30 5460 O 519.781 -0.0832226 5.46437 0
M  V30 5461 H 516.875 -0.0481281 0.825598 0
M  V30 5462 H 519.421 0.654227 1.56582 0
M  V30 5463 H 518.193 1.19657 3.72556 0
M  V30 5464 H 517.816 -0.504498 3.94386 0
M  V30 5465 N 518.813 -1.54241 0.323641 0
M  V30 5466 C 519.76 -2.24339 -0.542277 0
M  V30 5467 C 520.73 -1.23421 -1.11159 0
M  V30 5468 O 521.915 -1.52104 -1.15192 0
M  V30 5469 C 519.055 -3.00479 -1.69725 0
M  V30 5470 C 518.168 -4.16214 -1.15716 0
M  V30 5471 C 517.303 -4.79884 -2.27783 0
M  V30 5472 C 516.342 -5.87722 -1.71023 0
M  V30 5473 N 515.479 -6.45254 -2.76752 0
M  V30 5474 H 520.319 -2.97935 0.0620613 0
M  V30 5475 H 517.856 -1.47039 0.0423993 0
M  V30 5476 H 519.814 -3.42869 -2.3769 0
M  V30 5477 H 518.444 -2.29217 -2.27288 0
M  V30 5478 H 517.496 -3.78605 -0.369063 0
M  V30 5479 H 518.808 -4.93838 -0.701832 0
M  V30 5480 H 517.962 -5.25243 -3.03651 0
M  V30 5481 H 516.701 -4.01641 -2.76652 0
M  V30 5482 H 515.706 -5.41765 -0.936518 0
M  V30 5483 H 516.931 -6.67863 -1.2303 0
M  V30 5484 H 514.877 -5.69884 -3.24912 0
M  V30 5485 H 514.794 -7.18292 -2.35782 0
M  V30 5486 H 516.062 -6.95269 -3.5245 0
M  V30 5487 N 520.291 -0.0518155 -1.57515 0
M  V30 5488 C 521.221 0.920283 -2.146 0
M  V30 5489 C 522.202 1.32406 -1.06783 0
M  V30 5490 O 523.387 1.39866 -1.34726 0
M  V30 5491 C 520.517 2.1949 -2.6915 0
M  V30 5492 C 519.471 1.93116 -3.81956 0
M  V30 5493 C 518.797 3.27037 -4.23026 0
M  V30 5494 C 520.097 1.25225 -5.07066 0
M  V30 5495 H 521.791 0.444801 -2.96077 0
M  V30 5496 H 519.337 0.212508 -1.42423 0
M  V30 5497 H 521.29 2.87894 -3.07725 0
M  V30 5498 H 520.014 2.69244 -1.84865 0
M  V30 5499 H 518.673 1.27123 -3.43854 0
M  V30 5500 H 518.321 3.74595 -3.3569 0
M  V30 5501 H 518.021 3.10189 -4.99056 0
M  V30 5502 H 519.545 3.96673 -4.64202 0
M  V30 5503 H 520.959 1.83666 -5.43083 0
M  V30 5504 H 519.356 1.18702 -5.88243 0
M  V30 5505 H 520.426 0.228382 -4.84362 0
M  V30 5506 N 521.769 1.56035 0.221574 0
M  V30 5507 C 522.999 1.82864 0.961468 0
M  V30 5508 C 523.407 0.628703 1.78449 0
M  V30 5509 O 522.75 -0.412109 1.79018 0
M  V30 5510 C 522.812 3.03425 1.92804 0
M  V30 5511 C 522.476 4.38429 1.28954 0
M  V30 5512 C 523.473 5.15441 0.679431 0
M  V30 5513 C 521.158 4.85151 1.30131 0
M  V30 5514 C 523.152 6.37337 0.0896148 0
M  V30 5515 C 520.839 6.06989 0.707651 0
M  V30 5516 C 521.837 6.82923 0.102855 0
M  V30 5517 O 521.525 8.02456 -0.48157 0
M  V30 5518 H 521.257 0.611883 0.28736 0
M  V30 5519 H 523.811 2.0397 0.241932 0
M  V30 5520 H 522.041 2.78138 2.68656 0
M  V30 5521 H 523.73 3.17127 2.53348 0
M  V30 5522 H 524.496 4.80452 0.662661 0
M  V30 5523 H 520.375 4.26021 1.76145 0
M  V30 5524 H 523.919 6.96547 -0.383069 0
M  V30 5525 H 519.816 6.41451 0.721834 0
M  V30 5526 H 520.584 8.17636 -0.375887 0
M  V30 5527 N 523.247 -0.488276 1.49845 0
M  V30 5528 C 524.487 -1.2516 1.61599 0
M  V30 5529 C 524.851 -1.89615 0.301706 0
M  V30 5530 O 526.052 -2.67182 0.29453 0
M  V30 5531 C 524.323 -2.2805 2.75187 0
M  V30 5532 S 525.882 -3.13552 3.0697 0
M  V30 5533 H 522.7 -0.425178 0.569864 0
M  V30 5534 H 525.302 -0.551545 1.87559 0
M  V30 5535 H 524.006 -1.7925 3.69185 0
M  V30 5536 H 523.537 -3.02708 2.5126 0
M  V30 5537 H 525.552 -4.28927 2.49471 0
M  V30 5538 N 524.725 -1.39134 -0.740242 0
M  V30 5539 C 525.655 -1.40165 -1.86751 0
M  V30 5540 C 526.636 -0.265708 -1.68012 0
M  V30 5541 O 527.821 -0.47076 -1.88408 0
M  V30 5542 C 524.951 -1.2392 -3.2444 0
M  V30 5543 C 523.905 -2.34858 -3.57807 0
M  V30 5544 C 523.231 -2.03707 -4.94376 0
M  V30 5545 C 524.531 -3.77159 -3.61315 0
M  V30 5546 H 526.225 -2.345 -1.86145 0
M  V30 5547 H 523.771 -1.12875 -0.89416 0
M  V30 5548 H 525.724 -1.23263 -4.02969 0
M  V30 5549 H 524.448 -0.26051 -3.25559 0
M  V30 5550 H 523.107 -2.34723 -2.81604 0
M  V30 5551 H 522.755 -1.04289 -4.9207 0
M  V30 5552 H 522.455 -2.78016 -5.17669 0
M  V30 5553 H 523.979 -2.04691 -5.75268 0
M  V30 5554 H 525.393 -3.79252 -4.29931 0
M  V30 5555 H 523.79 -4.50784 -3.96124 0
M  V30 5556 H 524.86 -4.08513 -2.61238 0
M  V30 5557 N 526.204 0.969867 -1.24223 0
M  V30 5558 C 527.154 2.04913 -0.999732 0
M  V30 5559 C 528.138 1.60795 0.0580636 0
M  V30 5560 O 529.33 1.76317 -0.155392 0
M  V30 5561 C 526.459 3.37942 -0.604154 0
M  V30 5562 C 525.545 3.88628 -1.69791 0
M  V30 5563 N 525.936 4.12274 -2.93025 0
M  V30 5564 C 524.234 4.17268 -1.57492 0
M  V30 5565 C 524.935 4.53808 -3.63914 0
M  V30 5566 N 523.911 4.58855 -2.91468 0
M  V30 5567 H 527.713 2.21168 -1.93551 0
M  V30 5568 H 525.227 1.15349 -1.14317 0
M  V30 5569 H 527.224 4.14863 -0.411665 0
M  V30 5570 H 525.884 3.23075 0.324465 0
M  V30 5571 H 526.895 3.99789 -3.29225 0
M  V30 5572 H 523.572 4.11346 -0.714175 0
M  V30 5573 H 524.962 4.80534 -4.69614 0
M  V30 5574 N 527.682 1.05563 1.17022 0
M  V30 5575 C 528.592 0.670758 2.24807 0
M  V30 5576 C 529.608 -0.309865 1.71219 0
M  V30 5577 O 530.784 -0.161025 2.00755 0
M  V30 5578 C 527.849 0.055337 3.46656 0
M  V30 5579 C 526.91 1.08688 4.15314 0
M  V30 5580 C 526.143 0.500736 5.31346 0
M  V30 5581 O 526.366 -0.688718 5.66227 0
M  V30 5582 O 525.3 1.23683 5.89055 0
M  V30 5583 H 529.126 1.56914 2.60023 0
M  V30 5584 H 526.711 0.827428 1.24395 0
M  V30 5585 H 528.593 -0.286492 4.20425 0
M  V30 5586 H 527.268 -0.816638 3.13229 0
M  V30 5587 H 526.175 1.48077 3.43546 0
M  V30 5588 H 527.508 1.93014 4.52777 0
M  V30 5589 N 529.16 -1.33526 0.837174 0
M  V30 5590 C 530.409 -1.97098 0.428387 0
M  V30 5591 C 530.722 -1.67062 -1.01734 0
M  V30 5592 O 531.928 -2.24235 -1.53072 0
M  V30 5593 C 530.384 -3.52725 0.715075 0
M  V30 5594 C 529.992 -3.9164 2.17537 0
M  V30 5595 C 531.736 -4.22857 0.373154 0
M  V30 5596 C 529.643 -5.40237 2.40619 0
M  V30 5597 H 528.573 -0.737589 0.156455 0
M  V30 5598 H 531.224 -1.52169 1.02552 0
M  V30 5599 H 529.606 -3.95971 0.0475904 0
M  V30 5600 H 530.78 -3.59456 2.88319 0
M  V30 5601 H 529.095 -3.34485 2.4801 0
M  V30 5602 H 531.692 -5.32133 0.523264 0
M  V30 5603 H 532.035 -4.10647 -0.683708 0
M  V30 5604 H 532.568 -3.85135 0.995801 0
M  V30 5605 H 529.307 -5.57449 3.44864 0
M  V30 5606 H 528.827 -5.73887 1.74396 0
M  V30 5607 H 530.506 -6.07102 2.23688 0
M  V30 5608 N 530.638 -0.59345 -1.46 0
M  V30 5609 C 531.586 0.146268 -2.3214 0
M  V30 5610 C 532.58 0.873743 -1.45128 0
M  V30 5611 O 533.786 0.790912 -1.61693 0
M  V30 5612 H 530.161 0.0660349 -0.749095 0
M  V30 5613 H 532.132 -0.598895 -2.92328 0
M  V30 5614 C 530.881 1.1396 -3.28494 0
M  V30 5615 H 530.204 0.589252 -3.95434 0
M  V30 5616 H 531.644 1.62738 -3.91526 0
M  V30 5617 C 530.103 2.20604 -2.54628 0
M  V30 5618 O 530.633 3.28128 -2.31722 0
M  V30 5619 N 528.839 1.95502 -2.15005 0
M  V30 5620 H 528.386 1.0807 -2.33834 0
M  V30 5621 H 528.344 2.67064 -1.65904 0
M  V30 5622 N 532.116 1.54067 -0.331816 0
M  V30 5623 C 533.341 2.05599 0.272705 0
M  V30 5624 C 533.766 1.2059 1.44359 0
M  V30 5625 O 533.124 0.216907 1.79998 0
M  V30 5626 C 533.172 3.54188 0.677021 0
M  V30 5627 O 532.276 3.72082 1.77844 0
M  V30 5628 H 531.617 0.662286 0.0476801 0
M  V30 5629 H 534.147 1.98826 -0.482624 0
M  V30 5630 H 534.157 3.96608 0.957415 0
M  V30 5631 H 532.832 4.15513 -0.179325 0
M  V30 5632 H 531.409 3.41566 1.49622 0
M  V30 5633 N 533.594 0.0601682 1.57485 0
M  V30 5634 C 534.542 -0.928899 2.13247 0
M  V30 5635 C 535.536 -1.31616 1.06647 0
M  V30 5636 O 536.742 -1.29476 1.25043 0
M  V30 5637 H 533.117 -0.317455 0.681708 0
M  V30 5638 H 535.088 -0.433566 2.95233 0
M  V30 5639 C 533.837 -2.19121 2.69965 0
M  V30 5640 H 533.16 -1.90204 3.51657 0
M  V30 5641 H 534.6 -2.86465 3.12592 0
M  V30 5642 C 533.059 -2.94195 1.64168 0
M  V30 5643 O 533.589 -3.87468 1.05978 0
M  V30 5644 N 531.795 -2.57089 1.35476 0
M  V30 5645 H 531.342 -1.81314 1.82984 0
M  V30 5646 H 531.3 -3.07624 0.649196 0
M  V30 5647 N 535.072 -1.5615 -0.213296 0
M  V30 5648 C 535.982 -1.96265 -1.28519 0
M  V30 5649 C 536.998 -0.86765 -1.50824 0
M  V30 5650 O 538.174 -1.17191 -1.63793 0
M  V30 5651 C 535.239 -2.27836 -2.61327 0
M  V30 5652 C 534.3 -3.50949 -2.47252 0
M  V30 5653 C 533.533 -3.81004 -3.73727 0
M  V30 5654 O 533.756 -3.12612 -4.77106 0
M  V30 5655 O 532.69 -4.74477 -3.70344 0
M  V30 5656 H 536.516 -2.87631 -0.974795 0
M  V30 5657 H 534.101 -1.43467 -0.416832 0
M  V30 5658 H 535.983 -2.49299 -3.39747 0
M  V30 5659 H 534.658 -1.39643 -2.9203 0
M  V30 5660 H 533.565 -3.34754 -1.67004 0
M  V30 5661 H 534.898 -4.39551 -2.21486 0
M  V30 5662 N 536.55 0.480323 -1.50102 0
M  V30 5663 C 537.796 1.23489 -1.60867 0
M  V30 5664 C 538.129 1.91809 -0.303827 0
M  V30 5665 O 537.404 1.81694 0.694092 0
M  V30 5666 C 537.687 2.28578 -2.78252 0
M  V30 5667 C 537.54 1.64624 -4.18592 0
M  V30 5668 C 538.859 3.2997 -2.91218 0
M  V30 5669 H 535.978 0.447605 -0.585507 0
M  V30 5670 H 538.62 0.530005 -1.82458 0
M  V30 5671 H 536.77 2.88697 -2.59974 0
M  V30 5672 H 538.442 1.08173 -4.48438 0
M  V30 5673 H 536.685 0.949645 -4.23278 0
M  V30 5674 H 537.356 2.40946 -4.96638 0
M  V30 5675 H 539.832 2.79864 -3.07921 0
M  V30 5676 H 538.708 4.00839 -3.74993 0
M  V30 5677 H 538.969 3.93541 -2.0144 0
M  V30 5678 N 538.028 1.39524 0.732853 0
M  V30 5679 C 539.258 1.3994 1.51988 0
M  V30 5680 C 539.666 -0.00727973 1.89199 0
M  V30 5681 O 539.009 -0.989521 1.54771 0
M  V30 5682 C 539.071 2.21026 2.83527 0
M  V30 5683 C 538.735 3.69633 2.68738 0
M  V30 5684 C 539.732 4.62665 2.37143 0
M  V30 5685 C 537.417 4.13244 2.85542 0
M  V30 5686 C 539.411 5.97291 2.22536 0
M  V30 5687 C 537.098 5.47945 2.70554 0
M  V30 5688 C 538.096 6.39783 2.39097 0
M  V30 5689 O 537.784 7.72002 2.24204 0
M  V30 5690 H 537.516 0.479795 0.476206 0
M  V30 5691 H 540.07 1.8399 0.913054 0
M  V30 5692 H 538.3 1.71728 3.46477 0
M  V30 5693 H 539.989 2.13594 3.45156 0
M  V30 5694 H 540.755 4.30272 2.2381 0
M  V30 5695 H 536.634 3.42094 3.09019 0
M  V30 5696 H 540.178 6.68939 1.97905 0
M  V30 5697 H 536.075 5.79928 2.83466 0
M  V30 5698 H 536.843 7.8275 2.39258 0
M  V30 5699 N 539.506 -0.963266 1.24736 0
M  V30 5700 C 540.731 -1.74699 1.11781 0
M  V30 5701 C 541.156 -1.85267 -0.325258 0
M  V30 5702 O 540.514 -1.32681 -1.23553 0
M  V30 5703 C 540.562 -3.14322 1.76731 0
M  V30 5704 O 539.666 -3.99043 1.04109 0
M  V30 5705 H 539.007 -0.53684 0.390767 0
M  V30 5706 H 541.537 -1.20801 1.65131 0
M  V30 5707 H 541.547 -3.64824 1.82668 0
M  V30 5708 H 540.222 -3.05946 2.81726 0
M  V30 5709 H 538.799 -3.5752 1.05991 0
M  V30 5710 N 540.985 -1.06182 -1.16461 0
M  V30 5711 C 541.915 -0.692861 -2.22984 0
M  V30 5712 C 542.896 0.314122 -1.67174 0
M  V30 5713 O 544.081 0.189499 -1.93273 0
M  V30 5714 C 541.211 -0.07732 -3.47214 0
M  V30 5715 C 540.165 -1.01015 -4.15909 0
M  V30 5716 C 539.491 -0.257973 -5.34077 0
M  V30 5717 C 540.791 -2.33868 -4.67015 0
M  V30 5718 H 542.485 -1.58343 -2.54102 0
M  V30 5719 H 540.031 -0.76279 -1.22137 0
M  V30 5720 H 541.984 0.19266 -4.20959 0
M  V30 5721 H 540.708 0.848254 -3.15392 0
M  V30 5722 H 539.367 -1.26486 -3.44088 0
M  V30 5723 H 539.015 0.670684 -4.98509 0
M  V30 5724 H 538.715 -0.879638 -5.80979 0
M  V30 5725 H 540.239 0.00448788 -6.106 0
M  V30 5726 H 541.653 -2.1279 -5.32347 0
M  V30 5727 H 540.05 -2.91522 -5.24533 0
M  V30 5728 H 541.12 -2.97019 -3.83286 0
M  V30 5729 N 542.463 1.3308 -0.844243 0
M  V30 5730 C 543.709 1.97898 -0.443206 0
M  V30 5731 C 544.042 1.66699 0.99625 0
M  V30 5732 O 543.317 0.949704 1.69738 0
M  V30 5733 C 543.6 3.53801 -0.670606 0
M  V30 5734 C 543.453 3.94667 -2.15772 0
M  V30 5735 C 544.772 4.39936 -0.120226 0
M  V30 5736 H 541.891 0.718861 -0.162504 0
M  V30 5737 H 544.533 1.57633 -1.06075 0
M  V30 5738 H 542.683 3.88229 -0.14496 0
M  V30 5739 H 544.355 3.70469 -2.74865 0
M  V30 5740 H 542.598 3.44203 -2.6402 0
M  V30 5741 H 543.269 5.03275 -2.26757 0
M  V30 5742 H 545.745 4.12183 -0.5696 0
M  V30 5743 H 544.621 5.4803 -0.308984 0
M  V30 5744 H 544.882 4.31184 0.976347 0
M  V30 5745 N 543.941 0.601185 1.45683 0
M  V30 5746 C 545.188 0.0938811 2.02282 0
M  V30 5747 C 545.516 -1.27315 1.47041 0
M  V30 5748 O 544.771 -1.85193 0.632623 0
M  V30 5749 C 545.07 -0.00222425 3.574 0
M  V30 5750 C 544.736 1.29963 4.31764 0
M  V30 5751 C 543.398 1.65625 4.51798 0
M  V30 5752 C 545.75 2.1603 4.74321 0
M  V30 5753 C 543.078 2.87119 5.11644 0
M  V30 5754 C 545.43 3.36766 5.3551 0
M  V30 5755 C 544.094 3.72689 5.53768 0
M  V30 5756 H 543.364 0.0343535 0.740203 0
M  V30 5757 H 546.011 0.781522 1.74827 0
M  V30 5758 H 544.316 -0.773096 3.84097 0
M  V30 5759 H 546.013 -0.410794 3.9889 0
M  V30 5760 H 542.603 1.01204 4.1648 0
M  V30 5761 H 546.787 1.89778 4.58582 0
M  V30 5762 H 542.043 3.15065 5.2397 0
M  V30 5763 H 546.217 4.03713 5.67441 0
M  V30 5764 H 543.844 4.66918 5.99909 0
M  V30 5765 N 545.419 -1.53889 0.339982 0
M  V30 5766 C 546.382 -2.23547 -0.50592 0
M  V30 5767 C 547.382 -1.23445 -1.03044 0
M  V30 5768 O 548.572 -1.47909 -0.920253 0
M  V30 5769 C 545.704 -2.95234 -1.7044 0
M  V30 5770 H 546.897 -2.99722 0.103247 0
M  V30 5771 H 544.45 -1.56033 0.0912804 0
M  V30 5772 H 545.185 -2.23236 -2.35236 0
M  V30 5773 H 544.97 -3.68654 -1.33553 0
M  V30 5774 H 546.46 -3.48258 -2.30447 0
M  V30 5775 N 546.897 -0.0685191 -1.57451 0
M  V30 5776 C 548.313 0.288101 -1.56978 0
M  V30 5777 C 548.513 1.70262 -1.07765 0
M  V30 5778 O 547.569 2.4135 -0.742054 0
M  V30 5779 C 548.882 0.100745 -3.00531 0
M  V30 5780 C 550.43 0.170531 -3.12535 0
M  V30 5781 C 550.905 0.0114944 -4.57999 0
M  V30 5782 N 552.396 0.0672065 -4.63151 0
M  V30 5783 C 553.131 -0.0314813 -5.73391 0
M  V30 5784 N 552.627 -0.183503 -6.92557 0
M  V30 5785 N 554.42 0.0253489 -5.62094 0
M  V30 5786 H 546.571 -0.993026 -1.87757 0
M  V30 5787 H 548.834 -0.386981 -0.865419 0
M  V30 5788 H 548.54 -0.875197 -3.40636 0
M  V30 5789 H 548.414 0.854457 -3.67395 0
M  V30 5790 H 550.801 1.13696 -2.72318 0
M  V30 5791 H 550.882 -0.614229 -2.48316 0
M  V30 5792 H 550.526 -0.951684 -4.98904 0
M  V30 5793 H 550.456 0.815617 -5.20245 0
M  V30 5794 H 552.947 0.183246 -3.77455 0
M  V30 5795 H 553.26 -0.251041 -7.72392 0
M  V30 5796 H 551.605 -0.218822 -6.94655 0
M  V30 5797 H 554.796 0.142794 -4.67882 0
M  V30 5798 H 554.969 -0.0550166 -6.47977 0
M  V30 5799 N 548.375 1.56261 0.205012 0
M  V30 5800 C 549.305 1.96779 1.257 0
M  V30 5801 C 550.286 0.838309 1.48008 0
M  V30 5802 O 551.471 1.10189 1.59913 0
M  V30 5803 C 548.601 2.29876 2.60335 0
M  V30 5804 C 547.555 3.45469 2.52656 0
M  V30 5805 C 546.881 3.64215 3.91473 0
M  V30 5806 C 548.181 4.79954 2.06014 0
M  V30 5807 H 549.875 2.84904 0.920338 0
M  V30 5808 H 547.421 1.37072 0.441277 0
M  V30 5809 H 549.374 2.56814 3.34102 0
M  V30 5810 H 548.098 1.38622 2.95722 0
M  V30 5811 H 546.757 3.18605 1.81345 0
M  V30 5812 H 546.405 2.70309 4.24196 0
M  V30 5813 H 546.105 4.41973 3.87213 0
M  V30 5814 H 547.629 3.93519 4.66878 0
M  V30 5815 H 549.043 5.05989 2.69533 0
M  V30 5816 H 547.44 5.61111 2.12777 0
M  V30 5817 H 548.51 4.74201 1.01297 0
M  V30 5818 N 549.853 -0.472356 1.50355 0
M  V30 5819 C 551.099 -1.22634 1.6152 0
M  V30 5820 C 551.432 -1.91645 0.313995 0
M  V30 5821 O 550.707 -1.82059 -0.684446 0
M  V30 5822 C 550.99 -2.27099 2.7946 0
M  V30 5823 C 550.843 -1.62402 4.19459 0
M  V30 5824 C 552.162 -3.28421 2.92964 0
M  V30 5825 H 549.281 -0.444494 0.587873 0
M  V30 5826 H 551.923 -0.520321 1.82737 0
M  V30 5827 H 550.073 -2.87314 2.61501 0
M  V30 5828 H 551.745 -1.05793 4.49005 0
M  V30 5829 H 549.988 -0.927184 4.23776 0
M  V30 5830 H 550.659 -2.38309 4.97909 0
M  V30 5831 H 553.135 -2.78227 3.09401 0
M  V30 5832 H 552.011 -3.98845 3.77113 0
M  V30 5833 H 552.272 -3.92467 2.03525 0
M  V30 5834 N 551.331 -1.39911 -0.725443 0
M  V30 5835 C 552.579 -1.37382 -1.48224 0
M  V30 5836 C 552.9 0.0264107 -1.94982 0
M  V30 5837 O 552.17 0.979408 -1.6966 0
M  V30 5838 H 550.75 -0.505596 -0.549892 0
M  V30 5839 H 553.412 -1.7487 -0.860608 0
M  V30 5840 H 552.508 -2.04254 -2.3598 0
M  V30 5841 N 552.809 0.956637 -1.25245 0
M  V30 5842 C 553.719 2.0868 -1.0719 0
M  V30 5843 C 554.735 1.73997 -0.00959074 0
M  V30 5844 O 555.911 2.00301 -0.210104 0
M  V30 5845 C 552.976 3.39754 -0.690526 0
M  V30 5846 C 552.037 3.88316 -1.83055 0
M  V30 5847 C 551.27 5.13134 -1.46728 0
M  V30 5848 O 551.493 5.6925 -0.362029 0
M  V30 5849 O 550.427 5.56356 -2.29677 0
M  V30 5850 H 554.253 2.26813 -2.01965 0
M  V30 5851 H 551.838 1.07098 -1.04165 0
M  V30 5852 H 553.72 4.18543 -0.489871 0
M  V30 5853 H 552.395 3.22896 0.227981 0
M  V30 5854 H 551.302 3.1054 -2.08604 0
M  V30 5855 H 552.635 4.09669 -2.72822 0
M  V30 5856 N 554.287 1.06798 1.15896 0
M  V30 5857 C 555.217 0.704677 2.22613 0
M  V30 5858 C 556.198 -0.305252 1.67339 0
M  V30 5859 O 557.383 -0.179247 1.93371 0
M  V30 5860 C 554.513 0.0957325 3.47168 0
M  V30 5861 C 553.467 1.0322 4.15367 0
M  V30 5862 C 552.793 0.286293 5.33933 0
M  V30 5863 C 554.093 2.36341 4.65768 0
M  V30 5864 H 555.787 1.59688 2.53259 0
M  V30 5865 H 553.333 0.769257 1.21731 0
M  V30 5866 H 555.286 -0.170333 4.21056 0
M  V30 5867 H 554.01 -0.831516 3.15838 0
M  V30 5868 H 552.669 1.28309 3.43413 0
M  V30 5869 H 552.317 -0.644237 4.98857 0
M  V30 5870 H 552.017 0.910436 5.80504 0
M  V30 5871 H 553.541 0.0278938 6.10594 0
M  V30 5872 H 554.955 2.1561 5.31211 0
M  V30 5873 H 553.352 2.94299 5.2298 0
M  V30 5874 H 554.422 2.99047 3.81705 0
M  V30 5875 N 555.766 -1.3263 0.851289 0
M  V30 5876 C 557.182 -1.50162 0.5407 0
M  V30 5877 C 557.382 -1.78788 -0.929369 0
M  V30 5878 O 556.438 -1.85545 -1.71258 0
M  V30 5879 C 557.751 -2.64803 1.42478 0
M  V30 5880 C 559.299 -2.78688 1.42485 0
M  V30 5881 C 559.774 -3.96405 2.29407 0
M  V30 5882 N 561.265 -4.0366 2.27184 0
M  V30 5883 C 562 -4.93971 2.9117 0
M  V30 5884 N 561.496 -5.89313 3.64256 0
M  V30 5885 N 563.289 -4.87066 2.80576 0
M  V30 5886 H 555.44 -1.12315 1.80275 0
M  V30 5887 H 557.703 -0.553266 0.769806 0
M  V30 5888 H 557.409 -2.50368 2.46999 0
M  V30 5889 H 557.283 -3.60506 1.10974 0
M  V30 5890 H 559.67 -2.92547 0.387304 0
M  V30 5891 H 559.751 -1.83708 1.78002 0
M  V30 5892 H 559.395 -3.83304 3.33228 0
M  V30 5893 H 559.325 -4.90654 1.91224 0
M  V30 5894 H 561.816 -3.35435 1.74045 0
M  V30 5895 H 562.129 -6.54913 4.10255 0
M  V30 5896 H 560.474 -5.8935 3.68364 0
M  V30 5897 H 563.665 -4.11552 2.23031 0
M  V30 5898 H 563.838 -5.57248 3.30725 0
M  V30 5899 N 557.244 -0.608902 -1.45362 0
M  V30 5900 C 558.493 -0.10218 -2.01441 0
M  V30 5901 C 558.806 1.27546 -1.48295 0
M  V30 5902 O 560.012 1.87498 -1.96359 0
M  V30 5903 C 558.468 -0.131985 -3.59658 0
M  V30 5904 C 558.076 -1.50956 -4.21801 0
M  V30 5905 C 559.82 0.319427 -4.23296 0
M  V30 5906 C 557.727 -1.49568 -5.72174 0
M  V30 5907 H 556.657 -0.0344314 -0.753213 0
M  V30 5908 H 559.308 -0.764426 -1.6682 0
M  V30 5909 H 557.69 0.596939 -3.91475 0
M  V30 5910 H 558.864 -2.26029 -4.01556 0
M  V30 5911 H 557.179 -1.90318 -3.70362 0
M  V30 5912 H 559.776 0.349013 -5.3356 0
M  V30 5913 H 560.119 1.34237 -3.94064 0
M  V30 5914 H 560.652 -0.356273 -3.96201 0
M  V30 5915 H 557.391 -2.49626 -6.06108 0
M  V30 5916 H 556.911 -0.787542 -5.94607 0
M  V30 5917 H 558.59 -1.21989 -6.35396 0
M  V30 5918 N 558.722 1.53707 -0.348139 0
M  V30 5919 C 559.971 2.0017 0.247992 0
M  V30 5920 C 560.284 1.23983 1.51286 0
M  V30 5921 O 561.49 1.60946 2.18652 0
M  V30 5922 C 559.946 3.56515 0.492459 0
M  V30 5923 C 559.554 4.41562 -0.756777 0
M  V30 5924 C 561.298 4.11381 1.0472 0
M  V30 5925 C 559.205 5.89426 -0.482856 0
M  V30 5926 H 558.135 0.747806 0.0964452 0
M  V30 5927 H 560.786 1.77532 -0.464179 0
M  V30 5928 H 559.168 3.75236 1.26545 0
M  V30 5929 H 560.342 4.34615 -1.53122 0
M  V30 5930 H 558.657 3.97711 -1.23348 0
M  V30 5931 H 561.254 5.19468 1.26717 0
M  V30 5932 H 561.597 3.64885 2.00411 0
M  V30 5933 H 562.13 3.96389 0.334801 0
M  V30 5934 H 558.869 6.40164 -1.40962 0
M  V30 5935 H 558.389 5.99264 0.253416 0
M  V30 5936 H 560.068 6.4692 -0.101816 0
M  V30 5937 N 560.2 0.0768682 1.57412 0
M  V30 5938 C 561.147 -0.888577 2.13009 0
M  V30 5939 C 562.117 -1.29198 1.0439 0
M  V30 5940 O 563.302 -1.37694 1.3208 0
M  V30 5941 C 560.442 -2.14899 2.70023 0
M  V30 5942 C 559.555 -1.79777 3.92816 0
M  V30 5943 C 558.69 -3.00467 4.38056 0
M  V30 5944 C 557.729 -2.61385 5.53484 0
M  V30 5945 N 556.866 -3.74851 5.93659 0
M  V30 5946 H 561.706 -0.407593 2.95199 0
M  V30 5947 H 559.243 -0.189534 1.45874 0
M  V30 5948 H 561.201 -2.88688 3.0119 0
M  V30 5949 H 559.831 -2.60529 1.9059 0
M  V30 5950 H 558.883 -0.960301 3.68079 0
M  V30 5951 H 560.195 -1.47027 4.76639 0
M  V30 5952 H 559.349 -3.82529 4.7091 0
M  V30 5953 H 558.088 -3.36413 3.53097 0
M  V30 5954 H 557.093 -1.77746 5.20275 0
M  V30 5955 H 558.318 -2.26603 6.40178 0
M  V30 5956 H 556.264 -4.1055 5.11649 0
M  V30 5957 H 556.181 -3.45887 6.72234 0
M  V30 5958 H 557.449 -4.57477 6.31138 0
M  V30 5959 N 561.678 -1.56367 -0.196722 0
M  V30 5960 C 562.903 -1.84991 -0.937714 0
M  V30 5961 C 563.328 -0.660244 -1.76132 0
M  V30 5962 O 562.686 0.390967 -1.77034 0
M  V30 5963 C 562.734 -3.11828 -1.81096 0
M  V30 5964 O 561.838 -2.92266 -2.90955 0
M  V30 5965 H 561.179 -0.609193 -0.264159 0
M  V30 5966 H 563.709 -2.03595 -0.202529 0
M  V30 5967 H 563.719 -3.42579 -2.21594 0
M  V30 5968 H 562.394 -3.98037 -1.2058 0
M  V30 5969 H 560.971 -2.72809 -2.54224 0
M  V30 5970 N 563.156 0.464375 -1.50603 0
M  V30 5971 C 564.402 1.21776 -1.62168 0
M  V30 5972 C 564.735 1.91476 -0.324154 0
M  V30 5973 O 564.01 1.8242 0.674782 0
M  V30 5974 C 564.293 2.25614 -2.80661 0
M  V30 5975 C 564.146 1.60175 -4.20314 0
M  V30 5976 C 565.465 3.26862 -2.94702 0
M  V30 5977 H 562.584 0.44137 -0.590222 0
M  V30 5978 H 565.226 0.510623 -1.8301 0
M  V30 5979 H 563.376 2.85923 -2.63021 0
M  V30 5980 H 565.048 1.03411 -4.4956 0
M  V30 5981 H 563.291 0.904697 -4.24261 0
M  V30 5982 H 563.962 2.35665 -4.99165 0
M  V30 5983 H 566.438 2.76582 -3.10872 0
M  V30 5984 H 565.314 3.96839 -3.79223 0
M  V30 5985 H 565.575 3.91382 -2.05603 0
M  V30 5986 N 564.634 1.40294 0.718013 0
M  V30 5987 C 565.564 1.43118 1.84498 0
M  V30 5988 C 566.545 0.292403 1.67568 0
M  V30 5989 O 567.73 0.500675 1.87635 0
M  V30 5990 C 564.86 1.29065 3.22427 0
M  V30 5991 C 563.814 2.40521 3.54025 0
M  V30 5992 C 563.14 2.11546 4.91073 0
M  V30 5993 C 564.44 3.82859 3.55269 0
M  V30 5994 H 566.134 2.37432 1.82391 0
M  V30 5995 H 563.68 1.14283 0.87609 0
M  V30 5996 H 565.633 1.29658 4.00957 0
M  V30 5997 H 564.357 0.312271 3.25104 0
M  V30 5998 H 563.016 2.39173 2.77834 0
M  V30 5999 H 562.664 1.12104 4.90348 0
M  V30 6000 H 562.364 2.86216 5.1318 0
M  V30 6001 H 563.888 2.13817 5.71939 0
M  V30 6002 H 565.302 3.86044 4.23843 0
M  V30 6003 H 563.699 4.57029 3.88902 0
M  V30 6004 H 564.769 4.12617 2.54706 0
M  V30 6005 N 566.112 -0.949982 1.2575 0
M  V30 6006 C 567.044 -2.05088 1.02331 0
M  V30 6007 C 568.057 -1.62795 -0.0133247 0
M  V30 6008 O 569.246 -1.77067 0.225759 0
M  V30 6009 C 566.346 -3.34794 0.525924 0
M  V30 6010 C 565.519 -4.05903 1.62978 0
M  V30 6011 C 564.578 -5.1388 1.13196 0
M  V30 6012 O 563.604 -5.39072 1.82729 0
M  V30 6013 N 564.806 -5.80495 -0.0242926 0
M  V30 6014 H 567.571 -2.25747 1.97125 0
M  V30 6015 H 565.132 -1.11886 1.17018 0
M  V30 6016 H 567.124 -4.04312 0.177263 0
M  V30 6017 H 565.694 -3.10872 -0.328202 0
M  V30 6018 H 564.914 -3.3042 2.1498 0
M  V30 6019 H 566.202 -4.50166 2.37124 0
M  V30 6020 H 565.6 -5.62454 -0.605184 0
M  V30 6021 H 564.157 -6.51043 -0.313947 0
M  V30 6022 N 567.59 -1.07411 -1.15328 0
M  V30 6023 C 568.815 -0.818856 -1.90551 0
M  V30 6024 C 569.24 0.622194 -1.77512 0
M  V30 6025 O 568.598 1.43484 -1.10824 0
M  V30 6026 C 568.646 -1.23267 -3.38877 0
M  V30 6027 O 567.75 -0.378345 -4.10661 0
M  V30 6028 H 567.091 -0.29827 -0.593238 0
M  V30 6029 H 569.621 -1.43289 -1.46046 0
M  V30 6030 H 569.631 -1.20912 -3.89672 0
M  V30 6031 H 568.306 -2.28226 -3.47686 0
M  V30 6032 H 566.883 -0.464437 -3.69996 0
M  V30 6033 N 569.068 1.32177 -0.85831 0
M  V30 6034 C 570.314 1.97813 -0.47346 0
M  V30 6035 C 570.669 1.66674 0.961122 0
M  V30 6036 O 569.962 0.94657 1.66585 0
M  V30 6037 C 570.156 3.51372 -0.653658 0
M  V30 6038 C 569.985 3.97433 -2.1042 0
M  V30 6039 C 568.755 4.24338 -2.74345 0
M  V30 6040 C 570.953 4.12233 -3.0752 0
M  V30 6041 N 568.935 4.56672 -4.10272 0
M  V30 6042 C 570.306 4.48146 -4.28445 0
M  V30 6043 C 572.361 3.94577 -3.03667 0
M  V30 6044 C 571.064 4.68246 -5.4602 0
M  V30 6045 C 573.09 4.15864 -4.20489 0
M  V30 6046 C 572.452 4.52098 -5.40173 0
M  V30 6047 H 568.551 0.749808 -0.222061 0
M  V30 6048 H 571.135 1.59927 -1.11047 0
M  V30 6049 H 569.306 3.88372 -0.0463267 0
M  V30 6050 H 571.038 4.03998 -0.238343 0
M  V30 6051 H 567.793 4.16544 -2.25362 0
M  V30 6052 H 568.217 4.77019 -4.80398 0
M  V30 6053 H 572.859 3.65662 -2.12252 0
M  V30 6054 H 570.577 4.96014 -6.37962 0
M  V30 6055 H 574.163 4.03702 -4.18947 0
M  V30 6056 H 573.043 4.68238 -6.29065 0
M  V30 6057 N 570.547 0.616602 1.45037 0
M  V30 6058 C 571.494 -0.0969439 2.30596 0
M  V30 6059 C 572.464 -0.851151 1.42635 0
M  V30 6060 O 573.649 -0.835092 1.71554 0
M  V30 6061 C 570.789 -1.08234 3.27688 0
M  V30 6062 C 569.902 -0.328072 4.30752 0
M  V30 6063 C 569.037 -1.30399 5.14946 0
M  V30 6064 C 568.076 -0.538049 6.09731 0
M  V30 6065 N 567.213 -1.46371 6.86673 0
M  V30 6066 H 572.053 0.63864 2.91076 0
M  V30 6067 H 569.59 0.326733 1.43425 0
M  V30 6068 H 571.548 -1.66688 3.82454 0
M  V30 6069 H 570.178 -1.78523 2.68941 0
M  V30 6070 H 569.23 0.372136 3.78575 0
M  V30 6071 H 570.542 0.269142 4.98073 0
M  V30 6072 H 569.696 -1.96032 5.74157 0
M  V30 6073 H 568.435 -1.93514 4.47665 0
M  V30 6074 H 567.44 0.131852 5.49642 0
M  V30 6075 H 568.665 0.0881732 6.79043 0
M  V30 6076 H 566.611 -2.08233 6.22073 0
M  V30 6077 H 566.528 -0.920152 7.50379 0
M  V30 6078 H 567.796 -2.10932 7.50418 0
M  V30 6079 N 572.025 -1.5352 0.356285 0
M  V30 6080 C 572.973 -2.26945 -0.50978 0
M  V30 6081 C 573.967 -1.29569 -1.09125 0
M  V30 6082 O 575.173 -1.47231 -1.03552 0
M  V30 6083 H 571.548 -0.729368 -0.183102 0
M  V30 6084 H 573.519 -2.98111 0.131374 0
M  V30 6085 C 572.268 -3.06466 -1.64237 0
M  V30 6086 H 571.591 -3.81233 -1.20423 0
M  V30 6087 H 573.031 -3.61035 -2.22327 0
M  V30 6088 C 571.49 -2.16737 -2.57928 0
M  V30 6089 O 572.02 -1.77195 -3.60507 0
M  V30 6090 N 570.226 -1.81558 -2.26903 0
M  V30 6091 H 569.773 -2.13913 -1.43524 0
M  V30 6092 H 569.731 -1.21806 -2.89846 0
M  V30 6093 N 573.503 -0.0852151 -1.57369 0
M  V30 6094 C 574.749 0.575588 -1.95086 0
M  V30 6095 C 575.104 1.66402 -0.96582 0
M  V30 6096 O 574.397 1.91598 0.00978463 0
M  V30 6097 C 574.591 1.18482 -3.3719 0
M  V30 6098 C 574.42 0.156928 -4.49426 0
M  V30 6099 C 573.19 -0.263126 -5.04614 0
M  V30 6100 C 575.388 -0.611068 -5.10657 0
M  V30 6101 N 573.37 -1.28032 -6.00401 0
M  V30 6102 C 574.741 -1.48036 -6.02068 0
M  V30 6103 C 576.796 -0.665669 -4.9343 0
M  V30 6104 C 575.499 -2.39943 -6.781 0
M  V30 6105 C 577.525 -1.5723 -5.70116 0
M  V30 6106 C 576.887 -2.42924 -6.61186 0
M  V30 6107 H 572.986 0.181249 -0.760705 0
M  V30 6108 H 575.57 -0.165484 -1.93995 0
M  V30 6109 H 573.741 1.89575 -3.38992 0
M  V30 6110 H 575.473 1.80718 -3.62109 0
M  V30 6111 H 572.228 0.122664 -4.73441 0
M  V30 6112 H 572.652 -1.78682 -6.52994 0
M  V30 6113 H 577.294 -0.0173214 -4.22796 0
M  V30 6114 H 575.012 -3.05807 -7.48002 0
M  V30 6115 H 578.598 -1.61956 -5.58804 0
M  V30 6116 H 577.478 -3.1194 -7.19488 0
M  V30 6117 N 574.981 1.5647 0.188427 0
M  V30 6118 C 576.258 1.71857 0.934058 0
M  V30 6119 C 576.638 0.641867 2.01105 0
M  V30 6120 O 575.986 -0.346098 2.25864 0
M  V30 6121 C 576.196 3.14431 1.5144 0
M  V30 6122 C 577.544 3.74869 1.99396 0
M  V30 6123 O 578.568 3.17601 1.61269 0
M  V30 6124 O 577.427 4.75387 2.69573 0
M  V30 6125 H 574.521 0.701186 0.438483 0
M  V30 6126 H 577.067 1.68768 0.177599 0
M  V30 6127 H 575.839 3.8427 0.738416 0
M  V30 6128 H 575.462 3.21775 2.33552 0
M  V30 6129 N 576.459 -0.456382 1.50847 0
M  V30 6130 C 577.684 -1.2349 1.66628 0
M  V30 6131 C 578.109 -1.84715 0.355254 0
M  V30 6132 O 577.467 -1.67961 -0.682559 0
M  V30 6133 C 577.515 -2.30865 2.77009 0
M  V30 6134 O 576.619 -3.35882 2.39285 0
M  V30 6135 H 575.96 -0.36266 0.556214 0
M  V30 6136 H 578.49 -0.541374 1.97308 0
M  V30 6137 H 578.5 -2.75949 3.00526 0
M  V30 6138 H 577.175 -1.85677 3.72152 0
M  V30 6139 H 575.752 -2.96406 2.26269 0
M  V30 6140 N 577.937 -1.40673 -0.710563 0
M  V30 6141 C 578.887 -1.37812 -1.81636 0
M  V30 6142 C 579.871 -0.254853 -1.58869 0
M  V30 6143 O 581.063 -0.494356 -1.69956 0
M  V30 6144 C 578.192 -1.24802 -3.19811 0
M  V30 6145 C 577.278 -2.41931 -3.48325 0
M  V30 6146 N 577.669 -3.67411 -3.47625 0
M  V30 6147 C 575.967 -2.35419 -3.78806 0
M  V30 6148 C 576.668 -4.45008 -3.74623 0
M  V30 6149 N 575.644 -3.74916 -3.93623 0
M  V30 6150 H 579.446 -2.32766 -1.79436 0
M  V30 6151 H 576.96 -1.34516 -0.909909 0
M  V30 6152 H 578.957 -1.20835 -3.99004 0
M  V30 6153 H 577.617 -0.308202 -3.23234 0
M  V30 6154 H 578.628 -4.00503 -3.28356 0
M  V30 6155 H 575.305 -1.4983 -3.89689 0
M  V30 6156 H 576.695 -5.53884 -3.80344 0
M  V30 6157 N 579.415 0.9433 -1.26252 0
M  V30 6158 C 580.345 2.05902 -1.10122 0
M  V30 6159 C 581.326 1.70099 -0.00700552 0
M  V30 6160 O 582.511 1.93377 -0.178641 0
M  V30 6161 C 579.641 3.39516 -0.731175 0
M  V30 6162 C 578.595 3.89372 -1.77688 0
M  V30 6163 C 577.921 5.19613 -1.26122 0
M  V30 6164 C 579.221 4.14489 -3.17799 0
M  V30 6165 H 580.915 2.19655 -2.03451 0
M  V30 6166 H 578.461 1.05548 -0.979576 0
M  V30 6167 H 580.414 4.17031 -0.605215 0
M  V30 6168 H 579.138 3.25733 0.23782 0
M  V30 6169 H 577.797 3.14036 -1.89148 0
M  V30 6170 H 577.445 5.02208 -0.282128 0
M  V30 6171 H 577.145 5.53939 -1.96023 0
M  V30 6172 H 578.669 5.99713 -1.14789 0
M  V30 6173 H 580.083 4.82625 -3.09428 0
M  V30 6174 H 578.48 4.60094 -3.85271 0
M  V30 6175 H 579.55 3.20347 -3.64014 0
M  V30 6176 N 580.893 1.08022 1.14757 0
M  V30 6177 C 582.118 0.82895 1.90114 0
M  V30 6178 C 582.543 -0.612772 1.77839 0
M  V30 6179 O 581.901 -1.42895 1.11583 0
M  V30 6180 C 581.949 1.25062 3.38219 0
M  V30 6181 O 581.053 0.400119 4.10454 0
M  V30 6182 H 580.394 0.301412 0.591648 0
M  V30 6183 H 582.924 1.44062 1.45284 0
M  V30 6184 H 582.934 1.22977 3.89025 0
M  V30 6185 H 581.609 2.30067 3.46471 0
M  V30 6186 H 580.186 0.484052 3.69745 0
M  V30 6187 N 582.371 -1.3172 0.865308 0
M  V30 6188 C 583.596 -2.01591 0.487415 0
M  V30 6189 C 584.021 -1.6455 -0.911307 0
M  V30 6190 O 583.379 -0.851689 -1.6005 0
M  V30 6191 C 583.427 -3.54759 0.646401 0
M  V30 6192 O 582.531 -4.11185 -0.316284 0
M  V30 6193 H 581.872 -0.634884 0.194468 0
M  V30 6194 H 584.402 -1.68024 1.16744 0
M  V30 6195 H 584.412 -4.04438 0.537932 0
M  V30 6196 H 583.087 -3.8106 1.66632 0
M  V30 6197 H 581.664 -3.72543 -0.163162 0
M  V30 6198 N 583.85 -0.624285 -1.44708 0
M  V30 6199 C 585.099 -0.123539 -2.01321 0
M  V30 6200 C 585.412 1.25966 -1.49639 0
M  V30 6201 O 586.618 1.85405 -1.98336 0
M  V30 6202 C 585.074 -0.170124 -3.59498 0
M  V30 6203 C 584.682 -1.55421 -4.20176 0
M  V30 6204 C 586.426 0.274513 -4.23611 0
M  V30 6205 C 584.332 -1.55628 -5.70556 0
M  V30 6206 H 583.263 -0.0424183 -0.752806 0
M  V30 6207 H 585.913 -0.782076 -1.65999 0
M  V30 6208 H 584.296 0.555385 -3.92086 0
M  V30 6209 H 585.47 -2.30276 -3.99136 0
M  V30 6210 H 583.784 -1.94235 -3.68323 0
M  V30 6211 H 586.382 0.292402 -5.339 0
M  V30 6212 H 586.725 1.3005 -3.95465 0
M  V30 6213 H 587.258 -0.398275 -3.95801 0
M  V30 6214 H 583.997 -2.56041 -6.03426 0
M  V30 6215 H 583.517 -0.850563 -5.93739 0
M  V30 6216 H 585.196 -1.28721 -6.34066 0
M  V30 6217 N 585.328 1.53329 -0.364422 0
M  V30 6218 C 586.568 2.0315 0.22572 0
M  V30 6219 C 586.932 1.24589 1.46087 0
M  V30 6220 O 588.133 1.64411 2.12656 0
M  V30 6221 C 586.404 3.53718 0.511663 0
M  V30 6222 S 587.963 4.25412 1.07564 0
M  V30 6223 H 584.781 0.70795 0.0657843 0
M  V30 6224 H 587.383 1.88811 -0.507019 0
M  V30 6225 H 586.087 4.08497 -0.394784 0
M  V30 6226 H 585.618 3.72217 1.27351 0
M  V30 6227 H 587.633 4.36486 2.35997 0
M  V30 6228 N 586.806 0.0935595 1.57322 0
M  V30 6229 C 588.034 -0.578934 1.98635 0
M  V30 6230 C 588.449 -1.61819 0.972626 0
M  V30 6231 O 587.806 -1.82461 -0.0379638 0
M  V30 6232 C 587.857 -1.22802 3.40003 0
M  V30 6233 O 587.578 -0.230334 4.37494 0
M  V30 6234 C 589.079 -1.98627 3.96311 0
M  V30 6235 H 586.299 -0.155324 0.652775 0
M  V30 6236 H 588.843 0.172393 2.03772 0
M  V30 6237 H 586.998 -1.93029 3.35885 0
M  V30 6238 H 587.412 -0.698649 5.19826 0
M  V30 6239 H 588.886 -2.39405 4.97382 0
M  V30 6240 H 589.363 -2.85151 3.34044 0
M  V30 6241 H 589.969 -1.3322 4.03897 0
M  V30 6242 N 588.284 -1.56567 -0.180126 0
M  V30 6243 C 589.695 -1.7126 -0.743422 0
M  V30 6244 C 590.046 -0.70263 -1.83187 0
M  V30 6245 O 589.171 0.137856 -2.1596 0
M  V30 6246 C 589.766 -3.10512 -1.35528 0
M  V30 6247 C 588.325 -3.26919 -1.8655 0
M  V30 6248 C 587.472 -2.67213 -0.741099 0
M  V30 6249 H 590.423 -1.58636 0.0451543 0
M  V30 6250 H 590.444 -3.08673 -2.22489 0
M  V30 6251 H 589.956 -3.83997 -0.562862 0
M  V30 6252 H 588.057 -2.58376 -2.68464 0
M  V30 6253 H 588.17 -4.34574 -2.01699 0
M  V30 6254 H 586.534 -2.26788 -1.15927 0
M  V30 6255 H 587.317 -3.43277 0.0393291 0
M  V30 6256 N 589.762 0.448376 -1.51087 0
M  V30 6257 C 590.725 1.52588 -1.71025 0
M  V30 6258 C 591.725 1.49958 -0.580442 0
M  V30 6259 O 592.915 1.52176 -0.847833 0
M  V30 6260 C 590.047 2.92163 -1.75652 0
M  V30 6261 H 591.24 1.36218 -2.67179 0
M  V30 6262 H 588.793 0.676313 -1.4091 0
M  V30 6263 H 589.528 3.13951 -0.812724 0
M  V30 6264 H 589.313 2.95478 -2.57751 0
M  V30 6265 H 590.803 3.70349 -1.92953 0
M  V30 6266 N 591.24 1.41047 0.703093 0
M  V30 6267 C 592.517 1.30493 1.45708 0
M  V30 6268 C 592.897 -0.0709892 2.10981 0
M  V30 6269 O 592.245 -1.08471 2.01113 0
M  V30 6270 C 592.455 2.45287 2.48265 0
M  V30 6271 C 593.803 2.86104 3.13735 0
M  V30 6272 O 594.827 2.44971 2.58587 0
M  V30 6273 O 593.686 3.57206 4.13601 0
M  V30 6274 H 590.78 0.513144 0.648546 0
M  V30 6275 H 593.326 1.52995 0.734208 0
M  V30 6276 H 592.098 3.37135 1.98635 0
M  V30 6277 H 591.721 2.24622 3.28071 0
M  V30 6278 N 592.718 -0.936591 1.26751 0
M  V30 6279 C 594.129 -1.49816 1.1141 0
M  V30 6280 C 594.48 -1.9383 -0.304015 0
M  V30 6281 O 593.605 -1.80346 -1.196 0
M  V30 6282 C 594.2 -2.72271 2.01629 0
M  V30 6283 C 592.759 -3.2468 1.9042 0
M  V30 6284 C 591.906 -1.97444 1.94708 0
M  V30 6285 H 594.857 -0.751604 1.39773 0
M  V30 6286 H 594.878 -3.46741 1.56688 0
M  V30 6287 H 594.39 -2.40205 3.04833 0
M  V30 6288 H 592.491 -3.61525 0.901674 0
M  V30 6289 H 592.604 -3.91476 2.76195 0
M  V30 6290 H 590.968 -2.13545 1.38818 0
M  V30 6291 H 591.751 -1.67703 2.9955 0
M  V30 6292 N 594.196 -1.08629 -1.14182 0
M  V30 6293 C 595.159 -0.722027 -2.1753 0
M  V30 6294 C 596.159 0.244305 -1.58933 0
M  V30 6295 O 597.349 0.0235545 -1.74184 0
M  V30 6296 C 594.481 -0.0663966 -3.40835 0
M  V30 6297 H 595.674 -1.63719 -2.51269 0
M  V30 6298 H 593.227 -0.884442 -1.28869 0
M  V30 6299 H 593.962 0.860389 -3.12678 0
M  V30 6300 H 593.747 -0.761598 -3.84632 0
M  V30 6301 H 595.237 0.173346 -4.1724 0
M  V30 6302 N 595.674 1.31259 -0.872281 0
M  V30 6303 C 596.637 2.26744 -0.334656 0
M  V30 6304 C 597.637 1.52307 0.515681 0
M  V30 6305 O 598.827 1.71148 0.324656 0
M  V30 6306 C 595.959 3.36841 0.524482 0
M  V30 6307 H 597.152 2.75812 -1.17762 0
M  V30 6308 H 594.705 1.42232 -0.648064 0
M  V30 6309 H 595.44 2.93069 1.38855 0
M  V30 6310 H 595.225 3.92009 -0.0844299 0
M  V30 6311 H 596.715 4.07944 0.892838 0
M  V30 6312 N 597.152 0.631951 1.44375 0
M  V30 6313 C 598.377 0.142146 2.06912 0
M  V30 6314 C 598.802 -1.17456 1.4692 0
M  V30 6315 O 598.16 -1.72074 0.570975 0
M  V30 6316 C 598.208 0.0417952 3.60576 0
M  V30 6317 O 597.312 -1.00194 4.00044 0
M  V30 6318 H 596.653 0.0851491 0.658518 0
M  V30 6319 H 599.183 0.868863 1.85235 0
M  V30 6320 H 599.193 -0.148517 4.0773 0
M  V30 6321 H 597.868 1.0031 4.03622 0
M  V30 6322 H 596.445 -0.786131 3.64519 0
M  V30 6323 N 598.631 -1.53133 0.372548 0
M  V30 6324 C 599.856 -2.0625 -0.218098 0
M  V30 6325 C 600.281 -1.24375 -1.41111 0
M  V30 6326 O 599.639 -0.264554 -1.79359 0
M  V30 6327 C 599.687 -3.55858 -0.582876 0
M  V30 6328 O 598.791 -3.76667 -1.67917 0
M  V30 6329 H 598.132 -0.663317 -0.030104 0
M  V30 6330 H 600.662 -1.97477 0.535169 0
M  V30 6331 H 600.672 -3.99007 -0.851925 0
M  V30 6332 H 599.347 -4.14892 0.289428 0
M  V30 6333 H 597.924 -3.45413 -1.40513 0
M  V30 6334 N 600.109 -0.101901 -1.5727 0
M  V30 6335 C 601.334 0.571759 -1.99363 0
M  V30 6336 C 601.759 1.60507 -0.980768 0
M  V30 6337 O 601.117 1.81231 0.0498517 0
M  V30 6338 C 601.165 1.18996 -3.404 0
M  V30 6339 O 600.269 2.30572 -3.41922 0
M  V30 6340 H 599.61 0.144449 -0.648098 0
M  V30 6341 H 602.14 -0.185325 -2.03759 0
M  V30 6342 H 602.15 1.52962 -3.78241 0
M  V30 6343 H 600.825 0.432984 -4.1364 0
M  V30 6344 H 599.402 1.98173 -3.15883 0
M  V30 6345 N 601.587 1.56661 0.17182 0
M  V30 6346 C 602.497 1.99604 1.2327 0
M  V30 6347 C 603.513 0.907333 1.4847 0
M  V30 6348 O 604.689 1.21492 1.60629 0
M  V30 6349 C 601.754 2.34685 2.55194 0
M  V30 6350 C 600.815 3.57381 2.3786 0
M  V30 6351 C 600.048 3.90779 3.63494 0
M  V30 6352 O 600.271 3.25152 4.6865 0
M  V30 6353 O 599.205 4.84129 3.57634 0
M  V30 6354 H 603.031 2.90114 0.898192 0
M  V30 6355 H 600.616 1.44522 0.378647 0
M  V30 6356 H 602.498 2.5822 3.33017 0
M  V30 6357 H 601.173 1.47336 2.88225 0
M  V30 6358 H 600.08 3.39064 1.5807 0
M  V30 6359 H 601.413 4.45268 2.09754 0
M  V30 6360 N 603.065 -0.440357 1.51323 0
M  V30 6361 C 604.481 -0.7766 1.39431 0
M  V30 6362 C 604.681 -1.95838 0.474296 0
M  V30 6363 O 603.737 -2.52398 -0.0716692 0
M  V30 6364 C 605.05 -1.05981 2.81405 0
M  V30 6365 C 606.598 -1.16442 2.90534 0
M  V30 6366 C 607.073 -1.48058 4.33408 0
M  V30 6367 N 608.564 -1.54988 4.36501 0
M  V30 6368 C 609.299 -1.81017 5.44078 0
M  V30 6369 N 608.795 -2.04858 6.61819 0
M  V30 6370 N 610.588 -1.82774 5.31554 0
M  V30 6371 H 602.739 0.338006 2.09693 0
M  V30 6372 H 605.002 0.0888072 0.943831 0
M  V30 6373 H 604.708 -0.264173 3.50706 0
M  V30 6374 H 604.582 -1.98822 3.20546 0
M  V30 6375 H 606.969 -1.95068 2.21432 0
M  V30 6376 H 607.05 -0.215088 2.54894 0
M  V30 6377 H 606.694 -0.699605 5.03059 0
M  V30 6378 H 606.624 -2.44192 4.66559 0
M  V30 6379 H 609.115 -1.38479 3.51613 0
M  V30 6380 H 609.428 -2.2408 7.396 0
M  V30 6381 H 607.773 -2.02187 6.6494 0
M  V30 6382 H 610.964 -1.63665 4.38556 0
M  V30 6383 H 611.137 -2.02722 6.15474 0
M  V30 6384 N 604.543 -1.41418 -0.695603 0
M  V30 6385 C 605.791 -1.40496 -1.45277 0
M  V30 6386 C 606.112 -0.0149538 -1.94994 0
M  V30 6387 O 605.382 0.9432 -1.71699 0
M  V30 6388 H 603.962 -0.517147 -0.539044 0
M  V30 6389 H 606.624 -1.76656 -0.823321 0
M  V30 6390 H 605.72 -2.09214 -2.31595 0
M  V30 6391 N 606.021 0.929856 -1.27246 0
M  V30 6392 C 607.261 1.6919 -1.14691 0
M  V30 6393 C 607.625 1.896 0.302621 0
M  V30 6394 O 608.826 2.63102 0.550543 0
M  V30 6395 C 607.097 3.02291 -1.9067 0
M  V30 6396 S 608.656 3.93436 -1.94303 0
M  V30 6397 H 605.474 0.581248 -0.409477 0
M  V30 6398 H 608.076 1.10722 -1.61124 0
M  V30 6399 H 606.78 2.85125 -2.95181 0
M  V30 6400 H 606.311 3.65813 -1.44723 0
M  V30 6401 H 608.326 4.85224 -1.0379 0
M  V30 6402 N 607.499 1.09233 1.13605 0
M  V30 6403 C 608.747 0.825525 1.84471 0
M  V30 6404 C 609.068 -0.650702 1.83823 0
M  V30 6405 O 608.338 -1.47204 1.29259 0
M  V30 6406 H 606.918 0.3024 0.683054 0
M  V30 6407 H 609.58 1.38006 1.37624 0
M  V30 6408 H 608.676 1.17727 2.89045 0
M  V30 6409 N 608.977 -1.30795 0.87923 0
M  V30 6410 C 610.388 -1.78535 0.546093 0
M  V30 6411 C 610.739 -1.72354 -0.937467 0
M  V30 6412 O 609.864 -1.2969 -1.73233 0
M  V30 6413 C 610.459 -3.24181 0.9845 0
M  V30 6414 C 609.018 -3.69779 0.702871 0
M  V30 6415 C 608.165 -2.51377 1.17068 0
M  V30 6416 H 611.116 -1.17746 1.06403 0
M  V30 6417 H 611.137 -3.79227 0.311045 0
M  V30 6418 H 610.649 -3.28647 2.06429 0
M  V30 6419 H 608.75 -3.70806 -0.365166 0
M  V30 6420 H 608.863 -4.61507 1.28639 0
M  V30 6421 H 607.227 -2.47768 0.590172 0
M  V30 6422 H 608.01 -2.58584 2.25808 0
M  V30 6423 N 610.455 -0.639598 -1.44038 0
M  V30 6424 C 611.418 0.0506628 -2.29144 0
M  V30 6425 C 612.418 0.764001 -1.41491 0
M  V30 6426 O 613.608 0.607309 -1.63271 0
M  V30 6427 C 610.74 1.0824 -3.2326 0
M  V30 6428 H 611.933 -0.697987 -2.91664 0
M  V30 6429 H 609.486 -0.400146 -1.51091 0
M  V30 6430 H 610.221 1.86075 -2.65606 0
M  V30 6431 H 610.006 0.574725 -3.87865 0
M  V30 6432 H 611.496 1.56487 -3.87171 0
M  V30 6433 N 611.933 1.52934 -0.380664 0
M  V30 6434 C 613.179 2.01765 0.20458 0
M  V30 6435 C 613.512 1.26696 1.47179 0
M  V30 6436 O 612.787 0.364936 1.91046 0
M  V30 6437 C 613.07 3.56869 0.481269 0
M  V30 6438 C 612.923 4.42617 -0.800629 0
M  V30 6439 C 614.242 4.2121 1.27554 0
M  V30 6440 H 611.361 0.733388 0.0728803 0
M  V30 6441 H 614.003 1.83068 -0.50853 0
M  V30 6442 H 612.153 3.72932 1.08875 0
M  V30 6443 H 613.825 4.38323 -1.43773 0
M  V30 6444 H 612.068 4.09977 -1.4178 0
M  V30 6445 H 612.739 5.49134 -0.561791 0
M  V30 6446 H 615.215 4.09072 0.761514 0
M  V30 6447 H 614.091 5.29732 1.43788 0
M  V30 6448 H 614.352 3.78269 2.28833 0
M  V30 6449 N 613.412 0.11024 1.57214 0
M  V30 6450 C 614.64 -0.557834 1.99238 0
M  V30 6451 C 615.055 -1.60778 0.989734 0
M  V30 6452 O 614.412 -1.82491 -0.0186092 0
M  V30 6453 C 614.463 -1.19189 3.41286 0
M  V30 6454 O 614.184 -0.183919 4.37714 0
M  V30 6455 C 615.685 -1.94413 3.98395 0
M  V30 6456 H 612.905 -0.148392 0.654386 0
M  V30 6457 H 615.449 0.193996 2.03578 0
M  V30 6458 H 613.604 -1.89456 3.37913 0
M  V30 6459 H 614.018 -0.643475 5.20538 0
M  V30 6460 H 615.492 -2.34116 4.99894 0
M  V30 6461 H 615.969 -2.81592 3.3705 0
M  V30 6462 H 616.575 -1.28928 4.05287 0
M  V30 6463 N 614.89 -1.56749 -0.16351 0
M  V30 6464 C 616.118 -1.86577 -0.894233 0
M  V30 6465 C 616.533 -0.696543 -1.75481 0
M  V30 6466 O 615.89 0.334161 -1.79415 0
M  V30 6467 C 615.941 -3.15508 -1.76456 0
M  V30 6468 O 615.662 -4.27926 -0.938685 0
M  V30 6469 C 617.163 -3.58737 -2.60428 0
M  V30 6470 H 614.383 -0.618829 -0.259405 0
M  V30 6471 H 616.927 -2.03863 -0.161259 0
M  V30 6472 H 615.082 -3.00025 -2.45079 0
M  V30 6473 H 615.496 -5.01546 -1.53465 0
M  V30 6474 H 616.97 -4.51832 -3.17099 0
M  V30 6475 H 617.447 -2.83229 -3.35675 0
M  V30 6476 H 618.053 -3.76858 -1.97125 0
M  V30 6477 N 616.368 0.432326 -1.51554 0
M  V30 6478 C 617.614 1.18309 -1.64714 0
M  V30 6479 C 617.947 1.90745 -0.364696 0
M  V30 6480 O 617.222 1.8381 0.635936 0
M  V30 6481 C 617.505 2.1961 -2.85383 0
M  V30 6482 C 617.358 1.51223 -4.23617 0
M  V30 6483 C 618.677 3.20538 -3.01569 0
M  V30 6484 H 615.796 0.428751 -0.599451 0
M  V30 6485 H 618.438 0.471689 -1.84052 0
M  V30 6486 H 616.588 2.8028 -2.69027 0
M  V30 6487 H 618.26 0.938516 -4.51652 0
M  V30 6488 H 616.503 0.814501 -4.26085 0
M  V30 6489 H 617.174 2.25024 -5.04052 0
M  V30 6490 H 619.65 2.69926 -3.16669 0
M  V30 6491 H 618.526 3.88706 -3.87555 0
M  V30 6492 H 618.787 3.86933 -2.13859 0
M  V30 6493 N 617.846 1.41785 0.688094 0
M  V30 6494 C 619.094 1.41264 1.4453 0
M  V30 6495 C 619.415 0.0252946 1.94984 0
M  V30 6496 O 618.685 -0.934081 1.72197 0
M  V30 6497 H 617.265 0.519998 0.536294 0
M  V30 6498 H 619.927 1.7709 0.813941 0
M  V30 6499 H 619.023 2.10439 2.30482 0
M  V30 6500 N 619.324 -0.923095 1.27737 0
M  V30 6501 C 620.254 -2.04124 1.13383 0
M  V30 6502 C 621.235 -1.70066 0.0340658 0
M  V30 6503 O 622.42 -1.93068 0.209383 0
M  V30 6504 C 619.55 -3.3831 0.785097 0
M  V30 6505 C 618.504 -3.86496 1.8386 0
M  V30 6506 C 617.83 -5.1754 1.34373 0
M  V30 6507 C 619.13 -4.09381 3.24353 0
M  V30 6508 H 620.824 -2.1639 2.06919 0
M  V30 6509 H 618.37 -1.03976 0.996243 0
M  V30 6510 H 620.323 -4.16016 0.671485 0
M  V30 6511 H 619.047 -3.2607 -0.185969 0
M  V30 6512 H 617.706 -3.10987 1.9412 0
M  V30 6513 H 617.354 -5.01696 0.361989 0
M  V30 6514 H 617.054 -5.50751 2.04811 0
M  V30 6515 H 618.578 -5.97811 1.24315 0
M  V30 6516 H 619.992 -4.77641 3.17067 0
M  V30 6517 H 618.389 -4.53906 3.92542 0
M  V30 6518 H 619.459 -3.14515 3.69064 0
M  V30 6519 N 620.802 -1.09834 -1.13024 0
M  V30 6520 C 622.048 -0.83819 -1.84668 0
M  V30 6521 C 622.381 0.634645 -1.83537 0
M  V30 6522 O 621.656 1.46753 -1.27647 0
M  V30 6523 C 621.939 -1.37933 -3.32636 0
M  V30 6524 C 621.792 -2.91857 -3.42257 0
M  V30 6525 C 623.111 -1.01654 -4.28199 0
M  V30 6526 H 620.23 -0.30595 -0.670495 0
M  V30 6527 H 622.872 -1.36044 -1.32635 0
M  V30 6528 H 621.022 -0.935111 -3.77078 0
M  V30 6529 H 622.694 -3.44759 -3.06495 0
M  V30 6530 H 620.937 -3.28776 -2.83 0
M  V30 6531 H 621.608 -3.24799 -4.46329 0
M  V30 6532 H 624.084 -1.39973 -3.9185 0
M  V30 6533 H 622.96 -1.42217 -5.30156 0
M  V30 6534 H 623.221 0.0747794 -4.42037 0
M  V30 6535 N 622.28 1.30327 -0.886154 0
M  V30 6536 C 623.528 1.9571 -0.504195 0
M  V30 6537 C 623.849 1.70294 0.950003 0
M  V30 6538 O 623.119 1.02718 1.66811 0
M  V30 6539 H 621.699 0.72412 -0.183465 0
M  V30 6540 H 624.361 1.58835 -1.12949 0
M  V30 6541 H 623.457 3.04704 -0.675431 0
M  V30 6542 N 623.758 0.647228 1.43697 0
M  V30 6543 C 625.005 0.158188 2.01881 0
M  V30 6544 C 625.333 -1.22573 1.51017 0
M  V30 6545 O 624.588 -1.83086 0.69122 0
M  V30 6546 C 624.887 0.111481 3.57226 0
M  V30 6547 C 624.553 1.43633 4.27411 0
M  V30 6548 C 623.215 1.79915 4.463 0
M  V30 6549 C 625.567 2.31011 4.67208 0
M  V30 6550 C 622.895 3.03251 5.02251 0
M  V30 6551 C 625.247 3.53633 5.24525 0
M  V30 6552 C 623.911 3.90118 5.41631 0
M  V30 6553 H 623.181 0.0578851 0.738736 0
M  V30 6554 H 625.828 0.836746 1.72252 0
M  V30 6555 H 624.133 -0.650507 3.86362 0
M  V30 6556 H 625.83 -0.283682 3.99995 0
M  V30 6557 H 622.42 1.14403 4.1305 0
M  V30 6558 H 626.604 2.04272 4.52313 0
M  V30 6559 H 621.86 3.31575 5.13681 0
M  V30 6560 H 626.034 4.21561 5.5431 0
M  V30 6561 H 623.661 4.85768 5.84751 0
M  V30 6562 N 625.236 -1.5273 0.388769 0
M  V30 6563 C 626.166 -2.29353 -0.438111 0
M  V30 6564 C 627.147 -1.32719 -1.06394 0
M  V30 6565 O 628.332 -1.61612 -1.07681 0
M  V30 6566 C 625.462 -3.09995 -1.56589 0
M  V30 6567 C 624.416 -4.14509 -1.06613 0
M  V30 6568 C 623.742 -4.83372 -2.28594 0
M  V30 6569 C 625.042 -5.22127 -0.134459 0
M  V30 6570 H 626.736 -2.98723 0.201206 0
M  V30 6571 H 624.282 -1.43665 0.0982089 0
M  V30 6572 H 626.235 -3.62357 -2.15118 0
M  V30 6573 H 624.959 -2.38357 -2.23279 0
M  V30 6574 H 623.618 -3.63128 -0.503383 0
M  V30 6575 H 623.266 -4.08283 -2.93792 0
M  V30 6576 H 622.966 -5.54012 -1.95817 0
M  V30 6577 H 624.49 -5.38538 -2.87766 0
M  V30 6578 H 625.904 -5.69851 -0.627914 0
M  V30 6579 H 624.301 -6.00011 0.103534 0
M  V30 6580 H 625.371 -4.77971 0.816798 0
M  V30 6581 N 626.714 -0.118576 -1.57153 0
M  V30 6582 C 627.939 0.550582 -1.99958 0
M  V30 6583 C 628.364 1.59458 -0.997736 0
M  V30 6584 O 627.722 1.81274 0.0306269 0
M  V30 6585 C 627.77 1.15379 -3.41643 0
M  V30 6586 O 626.874 2.26932 -3.44348 0
M  V30 6587 H 626.215 0.137567 -0.649593 0
M  V30 6588 H 628.745 -0.206926 -2.03551 0
M  V30 6589 H 628.755 1.48942 -3.79843 0
M  V30 6590 H 627.43 0.389087 -4.14076 0
M  V30 6591 H 626.007 1.94812 -3.17967 0
M  V30 6592 N 628.193 1.56834 0.155195 0
M  V30 6593 C 629.143 1.94061 1.19684 0
M  V30 6594 C 630.127 0.810851 1.38975 0
M  V30 6595 O 631.319 1.07422 1.40675 0
M  V30 6596 C 628.448 2.31778 2.53247 0
M  V30 6597 C 627.534 3.51305 2.37583 0
M  V30 6598 N 627.925 4.68081 1.9166 0
M  V30 6599 C 626.223 3.56228 2.6836 0
M  V30 6600 C 626.924 5.50193 1.88845 0
M  V30 6601 N 625.9 4.91676 2.31852 0
M  V30 6602 H 629.702 2.81826 0.833747 0
M  V30 6603 H 627.216 1.58284 0.363328 0
M  V30 6604 H 629.213 2.56649 3.28538 0
M  V30 6605 H 627.873 1.4536 2.90346 0
M  V30 6606 H 628.884 4.91993 1.6175 0
M  V30 6607 H 625.561 2.8033 3.09389 0
M  V30 6608 H 626.951 6.53801 1.54901 0
M  V30 6609 N 629.671 -0.424282 1.51781 0
M  V30 6610 C 630.896 -1.19928 1.6921 0
M  V30 6611 C 631.321 -1.8392 0.394355 0
M  V30 6612 O 630.679 -1.69371 -0.646778 0
M  V30 6613 C 630.727 -2.24937 2.81843 0
M  V30 6614 O 629.831 -3.3073 2.46356 0
M  V30 6615 H 629.172 -0.35078 0.563781 0
M  V30 6616 H 631.702 -0.499401 1.98412 0
M  V30 6617 H 631.712 -2.69512 3.06312 0
M  V30 6618 H 630.387 -1.77742 3.76006 0
M  V30 6619 H 628.964 -2.9154 2.32505 0
M  V30 6620 N 631.149 -1.42148 -0.680565 0
M  V30 6621 C 632.112 -1.4488 -1.77602 0
M  V30 6622 C 633.112 -0.337209 -1.57224 0
M  V30 6623 O 634.302 -0.597778 -1.63622 0
M  V30 6624 C 631.434 -1.27483 -3.16166 0
M  V30 6625 H 632.627 -2.42412 -1.76568 0
M  V30 6626 H 630.18 -1.28511 -0.889645 0
M  V30 6627 H 630.915 -0.30851 -3.22829 0
M  V30 6628 H 630.7 -2.08037 -3.3236 0
M  V30 6629 H 632.19 -1.32265 -3.96101 0
M  V30 6630 N 632.627 0.916307 -1.28225 0
M  V30 6631 C 633.855 1.69901 -1.18073 0
M  V30 6632 C 634.27 1.86988 0.260968 0
M  V30 6633 O 633.627 1.39505 1.17663 0
M  V30 6634 C 633.678 3.09254 -1.87201 0
M  V30 6635 O 633.399 2.92959 -3.2574 0
M  V30 6636 C 634.9 4.0362 -1.83319 0
M  V30 6637 H 632.12 0.531181 -0.409985 0
M  V30 6638 H 634.664 1.14703 -1.69303 0
M  V30 6639 H 632.819 3.61277 -1.39848 0
M  V30 6640 H 633.233 3.81139 -3.60324 0
M  V30 6641 H 634.707 4.98873 -2.36282 0
M  V30 6642 H 635.184 4.3176 -0.805007 0
M  V30 6643 H 635.79 3.57524 -2.3034 0
M  V30 6644 N 634.105 1.10431 1.1244 0
M  V30 6645 C 635.052 0.753103 2.18167 0
M  V30 6646 C 636.022 -0.270549 1.63882 0
M  V30 6647 O 637.207 -0.149837 1.90211 0
M  V30 6648 C 634.347 0.191046 3.44571 0
M  V30 6649 C 633.46 1.26999 4.12911 0
M  V30 6650 C 632.595 0.669586 5.26963 0
M  V30 6651 C 631.634 1.72912 5.87169 0
M  V30 6652 N 630.771 1.14898 6.92635 0
M  V30 6653 H 635.611 1.65892 2.47556 0
M  V30 6654 H 633.148 0.828631 1.21541 0
M  V30 6655 H 635.106 -0.152712 4.1692 0
M  V30 6656 H 633.736 -0.677997 3.15599 0
M  V30 6657 H 632.788 1.73087 3.3874 0
M  V30 6658 H 634.1 2.07204 4.53727 0
M  V30 6659 H 633.254 0.275274 6.06075 0
M  V30 6660 H 631.993 -0.163895 4.87425 0
M  V30 6661 H 630.998 2.13286 5.06744 0
M  V30 6662 H 632.223 2.56544 6.28778 0
M  V30 6663 H 630.169 0.336956 6.55134 0
M  V30 6664 H 630.086 1.88786 7.32049 0
M  V30 6665 H 631.354 0.78121 7.75576 0
M  V30 6666 N 635.583 -1.29855 0.893053 0
M  V30 6667 C 636.811 -1.99976 0.530788 0
M  V30 6668 C 637.226 -1.66889 -0.882799 0
M  V30 6669 O 636.583 -0.910352 -1.58173 0
M  V30 6670 C 636.634 -3.54547 0.705587 0
M  V30 6671 O 636.355 -3.86458 2.06353 0
M  V30 6672 C 637.856 -4.41937 0.347387 0
M  V30 6673 H 635.076 -0.639129 0.204339 0
M  V30 6674 H 637.62 -1.65549 1.20057 0
M  V30 6675 H 635.775 -3.87311 0.0830685 0
M  V30 6676 H 636.189 -4.81146 2.08803 0
M  V30 6677 H 637.663 -5.4954 0.520557 0
M  V30 6678 H 638.14 -4.33339 -0.715139 0
M  V30 6679 H 638.746 -4.14633 0.946567 0
M  V30 6680 N 637.061 -0.65484 -1.43351 0
M  V30 6681 C 637.971 0.0363603 -2.34572 0
M  V30 6682 C 638.987 0.810432 -1.53974 0
M  V30 6683 O 640.163 0.757308 -1.86619 0
M  V30 6684 C 637.228 0.989733 -3.32273 0
M  V30 6685 C 636.289 0.212414 -4.28774 0
M  V30 6686 C 635.522 1.12038 -5.21808 0
M  V30 6687 O 635.745 2.35967 -5.19303 0
M  V30 6688 O 634.679 0.59191 -5.98982 0
M  V30 6689 H 638.505 -0.714527 -2.95175 0
M  V30 6690 H 636.09 -0.415029 -1.4352 0
M  V30 6691 H 637.972 1.53759 -3.92347 0
M  V30 6692 H 636.647 1.72082 -2.74171 0
M  V30 6693 H 635.554 -0.379062 -3.72175 0
M  V30 6694 H 636.887 -0.479138 -4.89862 0
M  V30 6695 N 638.539 1.52521 -0.396863 0
M  V30 6696 C 639.785 2.02641 0.175606 0
M  V30 6697 C 640.14 1.27782 1.43839 0
M  V30 6698 O 639.433 0.371921 1.87956 0
M  V30 6699 C 639.627 3.5403 0.489677 0
M  V30 6700 C 639.456 4.43551 -0.741113 0
M  V30 6701 C 638.226 4.8927 -1.26265 0
M  V30 6702 C 640.424 4.88263 -1.61565 0
M  V30 6703 N 638.406 5.62884 -2.4502 0
M  V30 6704 C 639.777 5.60534 -2.64955 0
M  V30 6705 C 641.832 4.70294 -1.63486 0
M  V30 6706 C 640.535 6.16744 -3.70162 0
M  V30 6707 C 642.561 5.27392 -2.67603 0
M  V30 6708 C 641.923 5.99575 -3.69715 0
M  V30 6709 H 638.022 0.781563 0.0261477 0
M  V30 6710 H 640.606 1.86816 -0.548454 0
M  V30 6711 H 638.777 3.69952 1.18279 0
M  V30 6712 H 640.509 3.90843 1.04996 0
M  V30 6713 H 637.264 4.66403 -0.822509 0
M  V30 6714 H 637.688 6.04339 -3.05128 0
M  V30 6715 H 642.33 4.13985 -0.858848 0
M  V30 6716 H 640.048 6.72131 -4.48626 0
M  V30 6717 H 643.634 5.15365 -2.69982 0
M  V30 6718 H 642.514 6.42967 -4.48958 0
M  V30 6719 N 640.017 0.126909 1.57088 0
M  V30 6720 C 640.927 -0.833867 2.1928 0
M  V30 6721 C 641.943 -1.2868 1.17122 0
M  V30 6722 O 643.119 -1.34815 1.49622 0
M  V30 6723 C 640.184 -2.0632 2.78627 0
M  V30 6724 C 639.245 -1.66143 3.95847 0
M  V30 6725 C 638.478 -2.83217 4.52354 0
M  V30 6726 O 638.701 -3.98868 4.0775 0
M  V30 6727 O 637.635 -2.59846 5.42922 0
M  V30 6728 H 641.461 -0.334564 3.01852 0
M  V30 6729 H 639.046 -0.0991091 1.49071 0
M  V30 6730 H 640.928 -2.78304 3.16425 0
M  V30 6731 H 639.603 -2.55242 1.99082 0
M  V30 6732 H 638.51 -0.912435 3.62802 0
M  V30 6733 H 639.843 -1.21957 4.76852 0
M  V30 6734 N 641.495 -1.56914 -0.146875 0
M  V30 6735 C 642.772 -1.74273 -0.888165 0
M  V30 6736 C 643.152 -0.69496 -1.99333 0
M  V30 6737 O 642.5 0.286093 -2.26702 0
M  V30 6738 C 642.71 -3.18336 -1.43051 0
M  V30 6739 C 644.058 -3.80024 -1.89387 0
M  V30 6740 O 645.082 -3.21765 -1.52792 0
M  V30 6741 O 643.941 -4.82367 -2.56874 0
M  V30 6742 H 641.035 -0.712565 -0.419738 0
M  V30 6743 H 643.581 -1.6918 -0.132791 0
M  V30 6744 H 642.353 -3.86092 -0.636274 0
M  V30 6745 H 641.976 -3.27854 -2.24938 0
M  V30 6746 N 642.974 0.416227 -1.52004 0
M  V30 6747 C 643.937 1.48926 -1.74223 0
M  V30 6748 C 644.937 1.48693 -0.612119 0
M  V30 6749 O 646.127 1.50343 -0.879921 0
M  V30 6750 C 643.259 2.88372 -1.81809 0
M  V30 6751 H 644.452 1.3052 -2.70008 0
M  V30 6752 H 642.005 0.646271 -1.42313 0
M  V30 6753 H 642.74 3.12157 -0.879135 0
M  V30 6754 H 642.525 2.89944 -2.6396 0
M  V30 6755 H 644.015 3.66173 -2.00766 0
M  V30 6756 N 644.452 1.42507 0.673017 0
M  V30 6757 C 645.682 1.46261 1.45916 0
M  V30 6758 C 646.09 0.0729724 1.89059 0
M  V30 6759 O 645.433 -0.922987 1.58829 0
M  V30 6760 C 645.495 2.32853 2.73898 0
M  V30 6761 C 645.159 3.80699 2.52819 0
M  V30 6762 C 646.156 4.72307 2.17306 0
M  V30 6763 C 643.841 4.24983 2.67758 0
M  V30 6764 C 645.835 6.06192 1.97003 0
M  V30 6765 C 643.522 5.58927 2.4707 0
M  V30 6766 C 644.52 6.49348 2.11746 0
M  V30 6767 O 644.208 7.80817 1.91259 0
M  V30 6768 H 643.94 0.499561 0.455428 0
M  V30 6769 H 646.494 1.87697 0.834196 0
M  V30 6770 H 644.724 1.86268 3.38882 0
M  V30 6771 H 646.413 2.28041 3.35786 0
M  V30 6772 H 647.179 4.39378 2.05359 0
M  V30 6773 H 643.058 3.54893 2.94231 0
M  V30 6774 H 646.602 6.76731 1.69355 0
M  V30 6775 H 642.499 5.91429 2.58615 0
M  V30 6776 H 643.267 7.92194 2.05843 0
M  V30 6777 N 645.93 -0.909495 1.28709 0
M  V30 6778 C 647.346 -1.18862 1.06508 0
M  V30 6779 C 647.546 -2.00604 -0.189864 0
M  V30 6780 O 646.602 -2.36281 -0.890355 0
M  V30 6781 C 647.915 -1.91908 2.31499 0
M  V30 6782 C 649.463 -2.04773 2.36721 0
M  V30 6783 C 649.938 -2.81228 3.6149 0
M  V30 6784 N 651.429 -2.88787 3.62155 0
M  V30 6785 C 652.164 -3.48455 4.55375 0
M  V30 6786 N 651.66 -4.09369 5.58918 0
M  V30 6787 N 653.453 -3.46035 4.42963 0
M  V30 6788 H 645.604 -0.363867 2.0926 0
M  V30 6789 H 647.867 -0.223649 0.921241 0
M  V30 6790 H 647.573 -1.39275 3.22948 0
M  V30 6791 H 647.447 -2.92436 2.38245 0
M  V30 6792 H 649.834 -2.56585 1.45767 0
M  V30 6793 H 649.915 -1.03408 2.33967 0
M  V30 6794 H 649.559 -2.30094 4.5279 0
M  V30 6795 H 649.489 -3.82917 3.61499 0
M  V30 6796 H 651.98 -2.45514 2.87283 0
M  V30 6797 H 652.293 -4.52891 6.26187 0
M  V30 6798 H 650.638 -4.0786 5.62739 0
M  V30 6799 H 653.829 -2.9766 3.6127 0
M  V30 6800 H 654.002 -3.92244 5.15799 0
M  V30 6801 N 647.408 -1.11026 -1.11852 0
M  V30 6802 C 648.648 -0.866348 -1.85132 0
M  V30 6803 C 649.012 0.597236 -1.82475 0
M  V30 6804 O 650.213 0.957744 -2.51159 0
M  V30 6805 C 648.484 -1.40721 -3.28531 0
M  V30 6806 S 650.043 -1.29964 -4.19112 0
M  V30 6807 H 646.861 -0.312899 -0.638447 0
M  V30 6808 H 649.463 -1.41691 -1.34699 0
M  V30 6809 H 648.167 -2.46631 -3.28027 0
M  V30 6810 H 647.698 -0.85349 -3.8403 0
M  V30 6811 H 649.713 -0.261333 -4.95511 0
M  V30 6812 N 648.886 1.2938 -0.899927 0
M  V30 6813 C 650.132 1.9584 -0.526742 0
M  V30 6814 C 650.465 1.70774 0.924651 0
M  V30 6815 O 649.74 1.02084 1.65557 0
M  V30 6816 C 650.023 3.50638 -0.820062 0
M  V30 6817 C 649.876 3.85161 -2.32317 0
M  V30 6818 C 651.195 4.3903 -0.30671 0
M  V30 6819 H 648.314 0.711322 -0.192848 0
M  V30 6820 H 650.956 1.52992 -1.12665 0
M  V30 6821 H 649.106 3.87265 -0.309491 0
M  V30 6822 H 650.778 3.58477 -2.9033 0
M  V30 6823 H 649.021 3.32696 -2.78381 0
M  V30 6824 H 649.692 4.93204 -2.47898 0
M  V30 6825 H 652.168 4.09396 -0.743908 0
M  V30 6826 H 651.044 5.46226 -0.541144 0
M  V30 6827 H 651.305 4.34937 0.792588 0
M  V30 6828 N 650.364 0.662433 1.43002 0
M  V30 6829 C 651.312 -0.035345 2.32573 0
M  V30 6830 C 652.306 -0.803505 1.49131 0
M  V30 6831 O 653.512 -0.712865 1.65282 0
M  V30 6832 H 649.887 -0.0302194 0.751393 0
M  V30 6833 H 651.858 0.737686 2.89138 0
M  V30 6834 C 650.607 -0.981575 3.33557 0
M  V30 6835 H 649.93 -0.399914 3.97795 0
M  V30 6836 H 651.37 -1.43873 3.98844 0
M  V30 6837 C 649.829 -2.08204 2.64863 0
M  V30 6838 O 650.359 -3.16698 2.47113 0
M  V30 6839 N 648.565 -1.85022 2.24088 0
M  V30 6840 H 648.112 -0.967909 2.38724 0
M  V30 6841 H 648.07 -2.58845 1.78457 0
M  V30 6842 N 651.842 -1.52309 0.404946 0
M  V30 6843 C 652.805 -2.25491 -0.410651 0
M  V30 6844 C 653.805 -1.27704 -0.977154 0
M  V30 6845 O 654.995 -1.51679 -0.856691 0
M  V30 6846 C 652.127 -3.02197 -1.57765 0
M  V30 6847 H 653.32 -2.99015 0.230277 0
M  V30 6848 H 650.873 -1.55506 0.157377 0
M  V30 6849 H 651.608 -2.33013 -2.25556 0
M  V30 6850 H 651.393 -3.73987 -1.17797 0
M  V30 6851 H 652.883 -3.57719 -2.15469 0
M  V30 6852 N 653.32 -0.135238 -1.57019 0
M  V30 6853 C 654.545 0.529343 -2.00531 0
M  V30 6854 C 654.97 1.58391 -1.01459 0
M  V30 6855 O 654.328 1.81296 0.0113986 0
M  V30 6856 C 654.376 1.11748 -3.42848 0
M  V30 6857 O 653.48 2.23267 -3.46736 0
M  V30 6858 H 652.821 0.130669 -0.651016 0
M  V30 6859 H 655.351 -0.228503 -2.0332 0
M  V30 6860 H 655.361 1.44905 -3.81401 0
M  V30 6861 H 654.036 0.345147 -4.14465 0
M  V30 6862 H 652.613 1.91428 -3.20015 0
M  V30 6863 N 654.798 1.5699 0.138552 0
M  V30 6864 C 656.026 1.87976 0.864437 0
M  V30 6865 C 656.441 0.724372 1.74351 0
M  V30 6866 O 655.798 -0.305575 1.79924 0
M  V30 6867 C 655.849 3.18276 1.71414 0
M  V30 6868 O 655.57 4.29365 0.870487 0
M  V30 6869 C 657.071 3.62834 2.54688 0
M  V30 6870 H 654.291 0.622878 0.249528 0
M  V30 6871 H 656.835 2.04094 0.128805 0
M  V30 6872 H 654.99 3.03886 2.40274 0
M  V30 6873 H 655.404 5.03924 1.45466 0
M  V30 6874 H 656.878 4.5682 3.0987 0
M  V30 6875 H 657.355 2.88533 3.31127 0
M  V30 6876 H 657.961 3.79946 1.91105 0
M  V30 6877 N 656.276 -0.40816 1.52223 0
M  V30 6878 C 657.239 -1.48 1.7501 0
M  V30 6879 C 658.239 -1.48367 0.619996 0
M  V30 6880 O 659.429 -1.49874 0.887881 0
M  V30 6881 C 656.561 -2.87403 1.83336 0
M  V30 6882 H 657.754 -1.29086 2.70697 0
M  V30 6883 H 655.307 -0.638715 1.42654 0
M  V30 6884 H 656.042 -3.11686 0.895677 0
M  V30 6885 H 655.827 -2.8854 2.65494 0
M  V30 6886 H 657.317 -3.65103 2.02705 0
M  V30 6887 N 657.755 -1.42862 -0.66545 0
M  V30 6888 C 658.703 -1.47319 -1.8 0
M  V30 6889 C 659.697 -0.347963 -1.65788 0
M  V30 6890 O 660.903 -0.521406 -1.72283 0
M  V30 6891 H 657.278 -0.461588 -0.593667 0
M  V30 6892 H 659.249 -2.42876 -1.7336 0
M  V30 6893 C 657.998 -1.40152 -3.18203 0
M  V30 6894 H 657.321 -2.26035 -3.2977 0
M  V30 6895 H 658.761 -1.47331 -3.9758 0
M  V30 6896 C 657.22 -0.117493 -3.36695 0
M  V30 6897 O 657.75 0.826058 -3.93115 0
M  V30 6898 N 655.956 -0.0316218 -2.90583 0
M  V30 6899 H 655.503 -0.800247 -2.44855 0
M  V30 6900 H 655.461 0.826835 -3.03333 0
M  V30 6901 N 659.233 0.902656 -1.29189 0
M  V30 6902 C 660.196 1.98797 -1.14071 0
M  V30 6903 C 661.196 1.60615 -0.0770549 0
M  V30 6904 O 662.386 1.71165 -0.323753 0
M  V30 6905 C 659.518 3.32688 -0.743739 0
M  V30 6906 H 660.711 2.13637 -2.10473 0
M  V30 6907 H 658.264 1.08678 -1.12334 0
M  V30 6908 H 658.999 3.23549 0.220554 0
M  V30 6909 H 658.784 3.61765 -1.51223 0
M  V30 6910 H 660.274 4.12337 -0.660935 0
M  V30 6911 N 660.711 1.11618 1.11262 0
M  V30 6912 C 661.621 0.78898 2.20935 0
M  V30 6913 C 662.637 -0.21867 1.7262 0
M  V30 6914 O 663.813 -0.0543826 2.01327 0
M  V30 6915 C 660.878 0.239014 3.45875 0
M  V30 6916 C 659.939 1.3055 4.08968 0
M  V30 6917 C 659.172 0.781687 5.27944 0
M  V30 6918 O 659.395 -0.387605 5.69082 0
M  V30 6919 O 658.329 1.54734 5.81671 0
M  V30 6920 H 662.155 1.70477 2.51339 0
M  V30 6921 H 659.74 0.892203 1.19834 0
M  V30 6922 H 661.622 -0.0632312 4.21353 0
M  V30 6923 H 660.297 -0.649454 3.17118 0
M  V30 6924 H 659.204 1.66079 3.35214 0
M  V30 6925 H 660.537 2.16743 4.41909 0
M  V30 6926 N 662.189 -1.289 0.906776 0
M  V30 6927 C 663.605 -1.47733 0.603902 0
M  V30 6928 C 663.805 -1.82568 -0.852702 0
M  V30 6929 O 662.861 -1.92642 -1.63234 0
M  V30 6930 C 664.174 -2.58522 1.53581 0
M  V30 6931 C 665.722 -2.72394 1.54177 0
M  V30 6932 C 666.197 -3.86318 2.46013 0
M  V30 6933 N 667.688 -3.93661 2.441 0
M  V30 6934 C 668.423 -4.81177 3.11859 0
M  V30 6935 N 667.919 -5.73333 3.88923 0
M  V30 6936 N 669.712 -4.74728 3.00981 0
M  V30 6937 H 661.863 -1.04567 1.84877 0
M  V30 6938 H 664.126 -0.520118 0.792579 0
M  V30 6939 H 663.832 -2.39667 2.57396 0
M  V30 6940 H 663.706 -3.55475 1.26165 0
M  V30 6941 H 666.093 -2.90641 0.511034 0
M  V30 6942 H 666.174 -1.75993 1.85634 0
M  V30 6943 H 665.818 -3.68826 3.49185 0
M  V30 6944 H 665.748 -4.82102 2.11862 0
M  V30 6945 H 668.239 -3.27751 1.88115 0
M  V30 6946 H 668.552 -6.36923 4.37663 0
M  V30 6947 H 666.897 -5.73196 3.93029 0
M  V30 6948 H 670.088 -4.01722 2.40286 0
M  V30 6949 H 670.261 -5.42719 3.54062 0
M  V30 6950 N 663.667 -0.670007 -1.42649 0
M  V30 6951 C 664.913 -0.190568 -2.01903 0
M  V30 6952 C 665.246 1.19817 -1.52832 0
M  V30 6953 O 664.521 1.80342 -0.728485 0
M  V30 6954 C 664.804 -0.21991 -3.59428 0
M  V30 6955 C 664.657 -1.64376 -4.18689 0
M  V30 6956 C 665.976 0.434519 -4.3795 0
M  V30 6957 H 663.095 -0.0707219 -0.733599 0
M  V30 6958 H 665.737 -0.853883 -1.69732 0
M  V30 6959 H 663.887 0.344894 -3.86966 0
M  V30 6960 H 665.559 -2.26044 -4.02122 0
M  V30 6961 H 663.802 -2.18591 -3.747 0
M  V30 6962 H 664.473 -1.61601 -5.27815 0
M  V30 6963 H 666.949 -0.0462156 -4.16074 0
M  V30 6964 H 665.825 0.38333 -5.4756 0
M  V30 6965 H 666.086 1.51135 -4.15464 0
M  V30 6966 N 665.145 1.52092 -0.413018 0
M  V30 6967 C 666.556 1.86617 0.0556967 0
M  V30 6968 C 666.907 1.33156 1.44097 0
M  V30 6969 O 666.032 0.672417 2.05688 0
M  V30 6970 C 666.627 3.38628 0.107844 0
M  V30 6971 C 665.186 3.72778 0.520904 0
M  V30 6972 C 664.333 2.75649 -0.302109 0
M  V30 6973 H 667.284 1.45663 -0.629919 0
M  V30 6974 H 667.305 3.69152 0.922324 0
M  V30 6975 H 666.817 3.77508 -0.900506 0
M  V30 6976 H 664.918 3.39478 1.53575 0
M  V30 6977 H 665.031 4.7838 0.262591 0
M  V30 6978 H 663.395 2.53603 0.236115 0
M  V30 6979 H 664.178 3.17369 -1.30888 0
M  V30 6980 N 666.623 0.143563 1.56945 0
M  V30 6981 C 667.571 -0.814556 2.17871 0
M  V30 6982 C 668.565 -1.25778 1.13474 0
M  V30 6983 O 669.771 -1.22666 1.31731 0
M  V30 6984 H 666.146 -0.280873 0.697578 0
M  V30 6985 H 668.117 -0.276459 2.97117 0
M  V30 6986 C 666.866 -2.04503 2.81201 0
M  V30 6987 H 666.189 -1.71296 3.61245 0
M  V30 6988 H 667.629 -2.69493 3.27337 0
M  V30 6989 C 666.088 -2.85079 1.79532 0
M  V30 6990 O 666.618 -3.81306 1.26368 0
M  V30 6991 N 664.824 -2.49546 1.48913 0
M  V30 6992 H 664.371 -1.71359 1.92338 0
M  V30 6993 H 664.329 -3.03751 0.811348 0
M  V30 6994 N 668.101 -1.57061 -0.130224 0
M  V30 6995 C 669.349 -1.83893 -0.838313 0
M  V30 6996 C 669.67 -0.727046 -1.80939 0
M  V30 6997 O 668.94 0.249927 -1.94299 0
M  V30 6998 H 667.52 -0.67846 -0.312573 0
M  V30 6999 H 670.182 -1.94529 -0.120224 0
M  V30 7000 H 669.278 -2.79419 -1.39038 0
M  V30 7001 N 669.579 0.400081 -1.52437 0
M  V30 7002 C 670.509 1.4947 -1.7939 0
M  V30 7003 C 671.49 1.57383 -0.645329 0
M  V30 7004 O 672.675 1.72511 -0.891826 0
M  V30 7005 C 669.805 2.87201 -1.95276 0
M  V30 7006 C 668.759 2.94134 -3.10917 0
M  V30 7007 C 668.085 4.34207 -3.1204 0
M  V30 7008 C 669.385 2.64791 -4.50203 0
M  V30 7009 H 671.079 1.27165 -2.71052 0
M  V30 7010 H 668.625 0.610312 -1.30427 0
M  V30 7011 H 670.578 3.63772 -2.12715 0
M  V30 7012 H 669.302 3.10819 -1.00294 0
M  V30 7013 H 667.961 2.20009 -2.93243 0
M  V30 7014 H 667.609 4.54848 -2.14761 0
M  V30 7015 H 667.309 4.39768 -3.89715 0
M  V30 7016 H 668.833 5.127 -3.31619 0
M  V30 7017 H 670.247 3.31083 -4.68035 0
M  V30 7018 H 668.644 2.81717 -5.29864 0
M  V30 7019 H 669.714 1.60184 -4.57678 0
M  V30 7020 N 671.057 1.43213 0.657864 0
M  V30 7021 C 672.004 1.48011 1.77092 0
M  V30 7022 C 672.974 0.330291 1.62783 0
M  V30 7023 O 674.159 0.536787 1.83094 0
M  V30 7024 C 671.299 1.40461 3.15222 0
M  V30 7025 C 670.412 2.65612 3.40697 0
M  V30 7026 C 669.547 2.50083 4.68649 0
M  V30 7027 C 668.586 3.70525 4.87214 0
M  V30 7028 N 667.723 3.53835 6.0642 0
M  V30 7029 H 672.563 2.43121 1.72326 0
M  V30 7030 H 670.1 1.20687 0.841013 0
M  V30 7031 H 672.058 1.34079 3.95068 0
M  V30 7032 H 670.688 0.489359 3.19069 0
M  V30 7033 H 669.74 2.82292 2.54982 0
M  V30 7034 H 671.052 3.5509 3.50303 0
M  V30 7035 H 670.206 2.41383 5.56614 0
M  V30 7036 H 668.945 1.58121 4.61356 0
M  V30 7037 H 667.95 3.79639 3.97686 0
M  V30 7038 H 669.175 4.63489 4.96341 0
M  V30 7039 H 667.121 2.64604 6.00267 0
M  V30 7040 H 667.038 4.36912 6.16963 0
M  V30 7041 H 668.306 3.48978 6.97019 0
M  V30 7042 N 672.536 -0.895792 1.29666 0
M  V30 7043 C 673.783 -1.64664 1.17864 0
M  V30 7044 C 674.111 -1.92631 -0.26902 0
M  V30 7045 O 673.366 -1.53787 -1.21029 0
M  V30 7046 C 673.665 -3.00075 1.94139 0
M  V30 7047 C 673.331 -2.91702 3.43833 0
M  V30 7048 C 671.993 -2.89126 3.84656 0
M  V30 7049 C 674.345 -2.80622 4.39205 0
M  V30 7050 C 671.673 -2.73293 5.1916 0
M  V30 7051 C 674.025 -2.66329 5.73805 0
M  V30 7052 C 672.689 -2.62121 6.1388 0
M  V30 7053 H 671.959 -0.602549 0.431295 0
M  V30 7054 H 674.606 -1.04234 1.60648 0
M  V30 7055 H 672.911 -3.64394 1.43958 0
M  V30 7056 H 674.608 -3.57111 1.82408 0
M  V30 7057 H 671.198 -2.94511 3.11386 0
M  V30 7058 H 675.382 -2.81686 4.08615 0
M  V30 7059 H 670.638 -2.68443 5.49316 0
M  V30 7060 H 674.812 -2.56727 6.47352 0
M  V30 7061 H 672.439 -2.49611 7.18052 0
M  V30 7062 N 674.014 -1.12206 -1.10668 0
M  V30 7063 C 674.977 -0.790867 -2.15123 0
M  V30 7064 C 675.977 0.193618 -1.5963 0
M  V30 7065 O 677.167 -0.0318728 -1.74171 0
M  V30 7066 C 674.299 -0.174797 -3.40452 0
M  V30 7067 H 675.492 -1.7163 -2.45933 0
M  V30 7068 H 673.045 -0.924993 -1.2599 0
M  V30 7069 H 673.78 0.760478 -3.15257 0
M  V30 7070 H 673.565 -0.88358 -3.82015 0
M  V30 7071 H 675.055 0.0405162 -4.1758 0
M  V30 7072 N 675.492 1.28418 -0.913599 0
M  V30 7073 C 676.74 1.94596 -0.545594 0
M  V30 7074 C 677.061 1.7227 0.913668 0
M  V30 7075 O 676.331 1.06233 1.64595 0
M  V30 7076 H 674.911 0.720065 -0.198783 0
M  V30 7077 H 677.573 1.56404 -1.16292 0
M  V30 7078 H 676.669 3.03202 -0.739911 0
M  V30 7079 N 676.97 0.677563 1.42291 0
M  V30 7080 C 678.216 0.201272 2.01799 0
M  V30 7081 C 678.549 -1.19004 1.53465 0
M  V30 7082 O 677.824 -1.79953 0.738039 0
M  V30 7083 C 678.107 0.238968 3.59306 0
M  V30 7084 C 677.96 1.66594 4.17812 0
M  V30 7085 C 679.279 -0.411287 4.38174 0
M  V30 7086 H 676.398 0.0746114 0.733214 0
M  V30 7087 H 679.04 0.862872 1.69276 0
M  V30 7088 H 677.19 -0.324368 3.87144 0
M  V30 7089 H 678.862 2.28173 4.00917 0
M  V30 7090 H 677.105 2.20576 3.73536 0
M  V30 7091 H 677.776 1.64398 5.26951 0
M  V30 7092 H 680.252 0.0682804 4.16044 0
M  V30 7093 H 679.128 -0.354286 5.47755 0
M  V30 7094 H 679.389 -1.4893 4.1626 0
M  V30 7095 N 678.448 -1.51871 0.421078 0
M  V30 7096 C 679.696 -2.01539 -0.150492 0
M  V30 7097 C 680.017 -1.30803 -1.44623 0
M  V30 7098 O 679.287 -0.437568 -1.90951 0
M  V30 7099 H 677.867 -0.744698 -0.0586041 0
M  V30 7100 H 680.529 -1.8668 0.560059 0
M  V30 7101 H 679.625 -3.10264 -0.338068 0
M  V30 7102 N 679.926 -0.151884 -1.56866 0
M  V30 7103 C 681.174 0.497021 -1.95893 0
M  V30 7104 C 681.495 1.65078 -1.03799 0
M  V30 7105 O 680.765 1.95642 -0.10049 0
M  V30 7106 H 679.345 0.186603 -0.723318 0
M  V30 7107 H 682.007 -0.228525 -1.93556 0
M  V30 7108 H 681.103 0.869933 -2.99731 0
M  V30 7109 N 681.404 1.57128 0.121893 0
M  V30 7110 C 682.652 1.84335 0.828548 0
M  V30 7111 C 682.973 0.736632 1.80551 0
M  V30 7112 O 682.243 -0.23962 1.94429 0
M  V30 7113 H 680.823 0.680108 0.30897 0
M  V30 7114 H 683.485 1.9459 0.109906 0
M  V30 7115 H 682.581 2.80152 1.37554 0
M  V30 7116 N 682.882 -0.391992 1.52647 0
M  V30 7117 C 683.845 -1.46135 1.7657 0
M  V30 7118 C 684.845 -1.47701 0.635698 0
M  V30 7119 O 686.035 -1.48924 0.903728 0
M  V30 7120 C 683.167 -2.85443 1.86374 0
M  V30 7121 H 684.36 -1.26208 2.72051 0
M  V30 7122 H 681.913 -0.623549 1.43323 0
M  V30 7123 H 682.648 -3.10718 0.928685 0
M  V30 7124 H 682.433 -2.85708 2.68539 0
M  V30 7125 H 683.923 -3.62933 2.06566 0
M  V30 7126 N 684.36 -1.4356 -0.65026 0
M  V30 7127 C 685.29 -1.51758 -1.77459 0
M  V30 7128 C 686.271 -0.372019 -1.65982 0
M  V30 7129 O 687.456 -0.589627 -1.85033 0
M  V30 7130 C 684.586 -1.44302 -3.15902 0
M  V30 7131 C 683.54 -2.57138 -3.42146 0
M  V30 7132 C 682.866 -2.34735 -4.8042 0
M  V30 7133 C 684.166 -3.99373 -3.36598 0
M  V30 7134 H 685.86 -2.45863 -1.70855 0
M  V30 7135 H 683.406 -1.18333 -0.820566 0
M  V30 7136 H 685.359 -1.48641 -3.94314 0
M  V30 7137 H 684.083 -0.467026 -3.23244 0
M  V30 7138 H 682.742 -2.52157 -2.66106 0
M  V30 7139 H 682.39 -1.35372 -4.84441 0
M  V30 7140 H 682.09 -3.10375 -4.9894 0
M  V30 7141 H 683.614 -2.40862 -5.61086 0
M  V30 7142 H 685.028 -4.05826 -4.04942 0
M  V30 7143 H 683.425 -4.75063 -3.66654 0
M  V30 7144 H 684.495 -4.243 -2.34729 0
M  V30 7145 N 685.838 0.888903 -1.30139 0
M  V30 7146 C 687.084 1.64288 -1.19922 0
M  V30 7147 C 687.439 1.90839 0.244561 0
M  V30 7148 O 686.732 1.51544 1.17239 0
M  V30 7149 C 686.926 2.99041 -1.95728 0
M  V30 7150 C 686.755 2.85644 -3.47329 0
M  V30 7151 C 685.525 2.85836 -4.16685 0
M  V30 7152 C 687.723 2.6188 -4.42632 0
M  V30 7153 N 685.705 2.63289 -5.54574 0
M  V30 7154 C 687.076 2.48418 -5.68057 0
M  V30 7155 C 689.131 2.47073 -4.32272 0
M  V30 7156 C 687.834 2.21655 -6.84296 0
M  V30 7157 C 689.86 2.21695 -5.48275 0
M  V30 7158 C 689.222 2.09007 -6.72678 0
M  V30 7159 H 685.321 0.606315 -0.493868 0
M  V30 7160 H 687.905 1.0478 -1.64102 0
M  V30 7161 H 686.076 3.56589 -1.53945 0
M  V30 7162 H 687.808 3.63607 -1.77685 0
M  V30 7163 H 684.563 2.97521 -3.68481 0
M  V30 7164 H 684.987 2.55039 -6.27124 0
M  V30 7165 H 689.629 2.55621 -3.36776 0
M  V30 7166 H 687.347 2.11845 -7.79838 0
M  V30 7167 H 690.933 2.11067 -5.42164 0
M  V30 7168 H 689.813 1.89643 -7.60924 0
M  V30 7169 N 687.317 1.12792 1.10072 0
M  V30 7170 C 688.728 0.899346 1.63611 0
M  V30 7171 C 689.079 -0.565547 1.87872 0
M  V30 7172 O 688.204 -1.43081 1.62348 0
M  V30 7173 C 688.799 1.62608 2.97227 0
M  V30 7174 C 687.358 1.44356 3.47618 0
M  V30 7175 C 686.505 1.65958 2.22156 0
M  V30 7176 H 689.456 1.28216 0.935223 0
M  V30 7177 H 689.477 1.0793 3.64872 0
M  V30 7178 H 688.989 2.69221 2.79538 0
M  V30 7179 H 687.09 0.400148 3.70445 0
M  V30 7180 H 687.203 2.20218 4.25489 0
M  V30 7181 H 685.567 1.08395 2.30484 0
M  V30 7182 H 686.35 2.73877 2.06993 0
M  V30 7183 N 688.795 -1.27931 0.920396 0
M  V30 7184 C 690.041 -1.94977 0.557832 0
M  V30 7185 C 690.374 -1.72224 -0.897365 0
M  V30 7186 O 689.649 -1.04705 -1.63912 0
M  V30 7187 C 689.932 -3.49289 0.875741 0
M  V30 7188 C 689.785 -3.81416 2.38416 0
M  V30 7189 C 691.104 -4.38486 0.376517 0
M  V30 7190 H 688.223 -0.708164 0.20414 0
M  V30 7191 H 690.865 -1.5118 1.15085 0
M  V30 7192 H 689.015 -3.86724 0.371062 0
M  V30 7193 H 690.687 -3.53813 2.95997 0
M  V30 7194 H 688.93 -3.28225 2.83639 0
M  V30 7195 H 689.601 -4.89198 2.55713 0
M  V30 7196 H 692.077 -4.08161 0.808945 0
M  V30 7197 H 690.953 -5.45296 0.627976 0
M  V30 7198 H 691.214 -4.36143 -0.723293 0
M  V30 7199 N 690.273 -0.685099 -1.4193 0
M  V30 7200 C 691.498 -0.218842 -2.06242 0
M  V30 7201 C 691.923 1.11923 -1.51178 0
M  V30 7202 O 691.281 1.69837 -0.634446 0
M  V30 7203 C 691.329 -0.175592 -3.60172 0
M  V30 7204 O 690.433 0.852776 -4.03487 0
M  V30 7205 H 689.774 -0.109531 -0.654904 0
M  V30 7206 H 692.304 -0.937013 -1.81882 0
M  V30 7207 H 692.314 -0.00291151 -4.08 0
M  V30 7208 H 690.989 -1.15222 -3.99621 0
M  V30 7209 H 689.566 0.650301 -3.67186 0
M  V30 7210 N 691.751 1.51645 -0.429126 0
M  V30 7211 C 692.683 2.25279 0.422124 0
M  V30 7212 C 693.696 1.28986 0.993299 0
M  V30 7213 O 694.885 1.54797 0.888836 0
M  V30 7214 C 691.985 2.98666 1.60162 0
M  V30 7215 C 691.158 4.2199 1.15078 0
M  V30 7216 C 690.217 4.78028 2.19946 0
M  V30 7217 O 689.243 5.40084 1.79716 0
M  V30 7218 N 690.445 4.61342 3.5234 0
M  V30 7219 H 693.21 2.98971 -0.208931 0
M  V30 7220 H 690.771 1.59838 -0.257568 0
M  V30 7221 H 692.763 3.33044 2.29922 0
M  V30 7222 H 691.333 2.28036 2.13818 0
M  V30 7223 H 690.553 3.932 0.280552 0
M  V30 7224 H 691.841 5.02037 0.826831 0
M  V30 7225 H 691.239 4.11894 3.87763 0
M  V30 7226 H 689.796 5.00104 4.18019 0
M  V30 7227 N 693.229 0.160201 1.56784 0
M  V30 7228 C 694.161 -0.80564 2.14574 0
M  V30 7229 C 695.174 -1.20154 1.09849 0
M  V30 7230 O 696.363 -1.14333 1.37078 0
M  V30 7231 C 693.463 -2.09434 2.6644 0
M  V30 7232 C 692.636 -1.86375 3.95706 0
M  V30 7233 C 691.695 -2.99358 4.32749 0
M  V30 7234 O 690.721 -2.70475 5.00831 0
M  V30 7235 N 691.923 -4.26867 3.93402 0
M  V30 7236 H 694.688 -0.311644 2.98075 0
M  V30 7237 H 692.249 -0.0229465 1.61884 0
M  V30 7238 H 694.241 -2.84091 2.88226 0
M  V30 7239 H 692.811 -2.50057 1.8759 0
M  V30 7240 H 692.031 -0.956821 3.82412 0
M  V30 7241 H 693.319 -1.68322 4.80151 0
M  V30 7242 H 692.717 -4.53197 3.38569 0
M  V30 7243 H 691.274 -4.98263 4.20211 0
M  V30 7244 N 694.707 -1.5719 -0.113559 0
M  V30 7245 C 695.955 -1.84772 -0.818761 0
M  V30 7246 C 696.276 -0.746196 -1.80158 0
M  V30 7247 O 695.546 0.229305 -1.94553 0
M  V30 7248 H 694.126 -0.681737 -0.305359 0
M  V30 7249 H 696.788 -1.94645 -0.0995845 0
M  V30 7250 H 695.884 -2.80878 -1.36067 0
M  V30 7251 N 696.185 0.383891 -1.52853 0
M  V30 7252 C 697.117 1.48889 -1.74255 0
M  V30 7253 C 698.13 1.50405 -0.623063 0
M  V30 7254 O 699.319 1.54215 -0.898887 0
M  V30 7255 C 696.419 2.87721 -1.79081 0
M  V30 7256 C 695.592 3.10111 -3.08464 0
M  V30 7257 C 694.651 4.28954 -3.0477 0
M  V30 7258 O 693.677 4.25012 -3.78621 0
M  V30 7259 N 694.879 5.35411 -2.24311 0
M  V30 7260 H 697.644 1.30915 -2.69595 0
M  V30 7261 H 695.205 0.573454 -1.51404 0
M  V30 7262 H 697.197 3.65333 -1.7411 0
M  V30 7263 H 695.767 2.99029 -0.911052 0
M  V30 7264 H 694.987 2.20319 -3.26884 0
M  V30 7265 H 696.275 3.21928 -3.94005 0
M  V30 7266 H 695.673 5.41471 -1.63787 0
M  V30 7267 H 694.23 6.1167 -2.25175 0
M  V30 7268 N 697.663 1.43903 0.642637 0
M  V30 7269 C 698.611 1.50164 1.77634 0
M  V30 7270 C 699.605 0.374294 1.65213 0
M  V30 7271 O 700.811 0.548748 1.71431 0
M  V30 7272 H 697.186 0.470974 0.586249 0
M  V30 7273 H 699.157 2.45603 1.69474 0
M  V30 7274 C 697.906 1.45196 3.15933 0
M  V30 7275 H 697.229 2.31253 3.26132 0
M  V30 7276 H 698.669 1.53638 3.95185 0
M  V30 7277 C 697.128 0.171043 3.36466 0
M  V30 7278 O 697.658 -0.763413 3.94379 0
M  V30 7279 N 695.864 0.077847 2.90496 0
M  V30 7280 H 695.411 0.8391 2.43551 0
M  V30 7281 H 695.369 -0.778473 3.0461 0
M  V30 7282 N 699.141 -0.881989 1.30609 0
M  V30 7283 C 700.073 -1.99375 1.13058 0
M  V30 7284 C 701.086 -1.62636 0.0729879 0
M  V30 7285 O 702.275 -1.75621 0.319301 0
M  V30 7286 C 699.375 -3.31536 0.702651 0
M  V30 7287 C 698.548 -3.96693 1.84265 0
M  V30 7288 C 697.607 -5.07158 1.40277 0
M  V30 7289 O 696.633 -5.28628 2.11048 0
M  V30 7290 N 697.835 -5.79808 0.283449 0
M  V30 7291 H 700.6 -2.14981 2.08814 0
M  V30 7292 H 698.161 -1.05526 1.22784 0
M  V30 7293 H 700.153 -4.02804 0.391331 0
M  V30 7294 H 698.723 -3.12175 -0.162954 0
M  V30 7295 H 697.943 -3.1856 2.32192 0
M  V30 7296 H 699.231 -4.36964 2.60653 0
M  V30 7297 H 698.629 -5.64871 -0.306189 0
M  V30 7298 H 697.186 -6.51792 0.0315985 0
M  V30 7299 N 700.619 -1.13374 -1.09472 0
M  V30 7300 C 702.035 -0.871846 -1.33682 0
M  V30 7301 C 702.235 0.492847 -1.9538 0
M  V30 7302 O 701.291 1.23946 -2.19985 0
M  V30 7303 C 702.604 -1.99608 -2.24893 0
M  V30 7304 C 704.152 -2.02812 -2.38404 0
M  V30 7305 C 704.627 -3.14497 -3.3295 0
M  V30 7306 N 706.118 -3.14004 -3.40523 0
M  V30 7307 C 706.853 -3.97061 -4.13679 0
M  V30 7308 N 706.349 -4.90131 -4.89636 0
M  V30 7309 N 708.142 -3.85162 -4.09398 0
M  V30 7310 H 700.293 -2.01288 -0.677995 0
M  V30 7311 H 702.556 -0.876492 -0.361201 0
M  V30 7312 H 702.262 -2.98 -1.86786 0
M  V30 7313 H 702.136 -1.90981 -3.25278 0
M  V30 7314 H 704.523 -1.05034 -2.75775 0
M  V30 7315 H 704.604 -2.15511 -1.37799 0
M  V30 7316 H 704.248 -4.12514 -2.96302 0
M  V30 7317 H 704.178 -2.99035 -4.33458 0
M  V30 7318 H 706.669 -2.46587 -2.86362 0
M  V30 7319 H 706.982 -5.49996 -5.42885 0
M  V30 7320 H 705.327 -4.94138 -4.88726 0
M  V30 7321 H 708.518 -3.11779 -3.49158 0
M  V30 7322 H 708.691 -4.5012 -4.6615 0
M  V30 7323 N 702.098 1.27442 -0.927168 0
M  V30 7324 C 703.328 1.9821 -0.582775 0
M  V30 7325 C 703.736 1.69361 0.843406 0
M  V30 7326 O 703.079 0.950381 1.57205 0
M  V30 7327 C 703.141 3.52048 -0.728165 0
M  V30 7328 C 702.805 4.04518 -2.12637 0
M  V30 7329 C 703.802 4.17332 -3.10048 0
M  V30 7330 C 701.487 4.38879 -2.44317 0
M  V30 7331 C 703.481 4.6378 -4.37249 0
M  V30 7332 C 701.168 4.85018 -3.71753 0
M  V30 7333 C 702.166 4.97428 -4.68033 0
M  V30 7334 O 701.854 5.42556 -5.93202 0
M  V30 7335 H 701.586 0.639314 -0.219667 0
M  V30 7336 H 704.14 1.63272 -1.24626 0
M  V30 7337 H 702.37 3.86699 -0.00758143 0
M  V30 7338 H 704.059 4.04033 -0.388906 0
M  V30 7339 H 704.825 3.91046 -2.86894 0
M  V30 7340 H 700.704 4.28462 -1.70121 0
M  V30 7341 H 704.248 4.73382 -5.12402 0
M  V30 7342 H 700.145 5.10746 -3.94726 0
M  V30 7343 H 700.913 5.60811 -5.96182 0
M  V30 7344 N 703.576 0.692616 1.41565 0
M  V30 7345 C 704.992 0.363878 1.55397 0
M  V30 7346 C 705.192 -1.1294 1.66874 0
M  V30 7347 O 704.248 -1.91517 1.64552 0
M  V30 7348 C 705.561 1.10982 2.7947 0
M  V30 7349 C 707.109 1.09387 2.93263 0
M  V30 7350 C 707.584 1.8215 4.20221 0
M  V30 7351 N 709.075 1.79105 4.27172 0
M  V30 7352 C 709.81 2.32247 5.2426 0
M  V30 7353 N 709.306 2.93847 6.27396 0
M  V30 7354 N 711.099 2.22519 5.1618 0
M  V30 7355 H 703.25 1.66116 1.3236 0
M  V30 7356 H 705.513 0.700848 0.63837 0
M  V30 7357 H 705.219 2.1647 2.77188 0
M  V30 7358 H 705.093 0.686492 3.709 0
M  V30 7359 H 707.48 0.0472638 2.95062 0
M  V30 7360 H 707.561 1.55623 2.03015 0
M  V30 7361 H 707.205 2.86789 4.19183 0
M  V30 7362 H 707.135 1.33351 5.09436 0
M  V30 7363 H 709.626 1.34191 3.53272 0
M  V30 7364 H 709.939 3.31972 6.97864 0
M  V30 7365 H 708.284 2.97924 6.27906 0
M  V30 7366 H 711.475 1.7407 4.34531 0
M  V30 7367 H 711.648 2.64239 5.91677 0
M  V30 7368 N 705.054 -1.51416 0.437162 0
M  V30 7369 C 706.301 -2.02086 -0.129364 0
M  V30 7370 C 706.629 -1.32133 -1.42728 0
M  V30 7371 O 705.884 -0.424916 -1.91031 0
M  V30 7372 C 706.183 -3.55203 -0.39564 0
M  V30 7373 C 705.849 -4.43447 0.81644 0
M  V30 7374 C 704.511 -4.67285 1.14884 0
M  V30 7375 C 706.863 -4.95219 1.62503 0
M  V30 7376 C 704.191 -5.40141 2.29052 0
M  V30 7377 C 706.543 -5.69327 2.7577 0
M  V30 7378 C 705.207 -5.91429 3.09464 0
M  V30 7379 H 704.477 -0.739486 -0.0473375 0
M  V30 7380 H 707.124 -1.82368 0.584321 0
M  V30 7381 H 705.429 -3.73252 -1.19121 0
M  V30 7382 H 707.126 -3.91944 -0.847399 0
M  V30 7383 H 703.716 -4.2509 0.547422 0
M  V30 7384 H 707.9 -4.76686 1.38144 0
M  V30 7385 H 703.156 -5.55468 2.55471 0
M  V30 7386 H 707.33 -6.08433 3.38795 0
M  V30 7387 H 704.957 -6.47662 3.98042 0
M  V30 7388 N 706.532 -0.168513 -1.56696 0
M  V30 7389 C 707.495 0.748928 -2.16619 0
M  V30 7390 C 708.495 1.16007 -1.11351 0
M  V30 7391 O 709.685 1.07748 -1.3688 0
M  V30 7392 C 706.817 2.01904 -2.74677 0
M  V30 7393 H 708.01 0.227317 -2.99037 0
M  V30 7394 H 705.563 0.0810372 -1.5609 0
M  V30 7395 H 706.298 2.58381 -1.95985 0
M  V30 7396 H 706.083 1.73323 -3.51712 0
M  V30 7397 H 707.573 2.67383 -3.20774 0
M  V30 7398 N 708.01 1.57248 0.105221 0
M  V30 7399 C 708.958 2.02337 1.14728 0
M  V30 7400 C 709.952 0.922652 1.42069 0
M  V30 7401 O 711.158 1.10785 1.41869 0
M  V30 7402 H 707.533 0.644682 0.387155 0
M  V30 7403 H 709.504 2.89063 0.740607 0
M  V30 7404 C 708.253 2.45513 2.46209 0
M  V30 7405 H 707.576 3.29785 2.26013 0
M  V30 7406 H 709.016 2.80846 3.1765 0
M  V30 7407 C 707.475 1.3243 3.09781 0
M  V30 7408 O 708.005 0.647841 3.96442 0
M  V30 7409 N 706.211 1.07785 2.69872 0
M  V30 7410 H 705.758 1.62973 1.99493 0
M  V30 7411 H 705.716 0.323204 3.12734 0
M  V30 7412 N 709.488 -0.375779 1.53054 0
M  V30 7413 C 710.438 -1.45965 1.75152 0
M  V30 7414 C 711.422 -1.49059 0.605823 0
M  V30 7415 O 712.614 -1.54472 0.864133 0
M  V30 7416 C 709.743 -2.83524 1.93569 0
M  V30 7417 C 708.829 -2.84949 3.1411 0
M  V30 7418 N 709.22 -2.56029 4.36214 0
M  V30 7419 C 707.518 -3.16113 3.14625 0
M  V30 7420 C 708.219 -2.64873 5.17897 0
M  V30 7421 N 707.195 -2.99159 4.53878 0
M  V30 7422 H 710.997 -1.22454 2.67175 0
M  V30 7423 H 708.511 -0.583867 1.51541 0
M  V30 7424 H 710.508 -3.61578 2.07525 0
M  V30 7425 H 709.168 -3.08008 1.02768 0
M  V30 7426 H 710.179 -2.29808 4.64121 0
M  V30 7427 H 706.856 -3.45977 2.3368 0
M  V30 7428 H 708.246 -2.45947 6.25268 0
M  V30 7429 N 710.966 -1.44241 -0.634997 0
M  V30 7430 C 711.929 -1.50457 -1.72903 0
M  V30 7431 C 712.929 -0.387058 -1.56072 0
M  V30 7432 O 714.119 -0.649531 -1.61638 0
M  V30 7433 C 711.251 -1.37477 -3.1195 0
M  V30 7434 H 712.444 -2.47907 -1.68767 0
M  V30 7435 H 709.997 -1.31276 -0.84831 0
M  V30 7436 H 710.732 -0.41106 -3.21684 0
M  V30 7437 H 710.517 -2.18506 -3.25573 0
M  V30 7438 H 712.007 -1.44799 -3.91692 0
M  V30 7439 N 712.444 0.87505 -1.31075 0
M  V30 7440 C 713.691 1.62768 -1.20469 0
M  V30 7441 C 714.019 1.93034 0.23834 0
M  V30 7442 O 713.274 1.55693 1.18567 0
M  V30 7443 C 713.573 2.96948 -1.98888 0
M  V30 7444 C 713.239 2.86195 -3.4843 0
M  V30 7445 C 711.901 2.82969 -3.89207 0
M  V30 7446 C 714.253 2.73599 -4.43614 0
M  V30 7447 C 711.581 2.64999 -5.23443 0
M  V30 7448 C 713.933 2.57166 -5.77969 0
M  V30 7449 C 712.597 2.52321 -6.17973 0
M  V30 7450 H 711.867 0.595611 -0.440827 0
M  V30 7451 H 714.514 1.01665 -1.62285 0
M  V30 7452 H 712.819 3.62058 -1.49737 0
M  V30 7453 H 714.516 3.54164 -1.88067 0
M  V30 7454 H 711.106 2.8952 -3.16032 0
M  V30 7455 H 715.29 2.7515 -4.13045 0
M  V30 7456 H 710.546 2.5967 -5.53517 0
M  V30 7457 H 714.72 2.46396 -6.51354 0
M  V30 7458 H 712.347 2.38156 -7.21932 0
M  V30 7459 N 713.922 1.13953 1.08869 0
M  V30 7460 C 715.15 0.92817 1.84912 0
M  V30 7461 C 715.565 -0.523197 1.81406 0
M  V30 7462 O 714.922 -1.36237 1.21432 0
M  V30 7463 C 714.973 1.41509 3.32652 0
M  V30 7464 O 714.694 2.80959 3.36145 0
M  V30 7465 C 716.195 1.243 4.25517 0
M  V30 7466 H 713.415 0.330612 0.583898 0
M  V30 7467 H 715.959 1.51349 1.37527 0
M  V30 7468 H 714.114 0.872648 3.77444 0
M  V30 7469 H 714.528 3.02704 4.28335 0
M  V30 7470 H 716.002 1.63237 5.27312 0
M  V30 7471 H 716.479 0.18532 4.38809 0
M  V30 7472 H 717.085 1.77375 3.86546 0
M  V30 7473 N 715.4 -1.26948 0.933913 0
M  V30 7474 C 716.646 -1.94374 0.57848 0
M  V30 7475 C 716.979 -1.73166 -0.879048 0
M  V30 7476 O 716.254 -1.06438 -1.62792 0
M  V30 7477 C 716.537 -3.4834 0.912739 0
M  V30 7478 C 716.39 -3.78866 2.42448 0
M  V30 7479 C 717.709 -4.38062 0.423003 0
M  V30 7480 H 714.828 -0.705959 0.211639 0
M  V30 7481 H 717.47 -1.49951 1.16682 0
M  V30 7482 H 715.62 -3.86309 0.412058 0
M  V30 7483 H 717.292 -3.50654 2.99733 0
M  V30 7484 H 715.535 -3.25198 2.87104 0
M  V30 7485 H 716.206 -4.86458 2.60887 0
M  V30 7486 H 718.682 -4.0728 0.852191 0
M  V30 7487 H 717.558 -5.44599 0.685776 0
M  V30 7488 H 717.819 -4.36886 -0.676994 0
M  V30 7489 N 716.879 -0.700114 -1.41195 0
M  V30 7490 C 718.125 -0.233351 -2.01453 0
M  V30 7491 C 718.458 1.16548 -1.55339 0
M  V30 7492 O 717.733 1.78756 -0.766575 0
M  V30 7493 C 718.016 -0.2961 -3.58881 0
M  V30 7494 C 717.869 -1.7322 -4.15108 0
M  V30 7495 C 719.188 0.341525 -4.38773 0
M  V30 7496 H 716.307 -0.0862667 -0.731934 0
M  V30 7497 H 718.949 -0.889693 -1.67882 0
M  V30 7498 H 717.099 0.262736 -3.87611 0
M  V30 7499 H 718.771 -2.34523 -3.97236 0
M  V30 7500 H 717.014 -2.2649 -3.69979 0
M  V30 7501 H 717.685 -1.7276 -5.24269 0
M  V30 7502 H 720.161 -0.134461 -4.15883 0
M  V30 7503 H 719.037 0.267098 -5.4825 0
M  V30 7504 H 719.298 1.42289 -4.18577 0
M  V30 7505 N 718.357 1.51182 -0.445186 0
M  V30 7506 C 719.32 2.26501 0.350722 0
M  V30 7507 C 720.32 1.3025 0.942952 0
M  V30 7508 O 721.51 1.53897 0.816175 0
M  V30 7509 C 718.642 3.06274 1.49697 0
M  V30 7510 H 719.835 2.98299 -0.309474 0
M  V30 7511 H 717.388 1.55034 -0.198551 0
M  V30 7512 H 718.123 2.38911 2.19299 0
M  V30 7513 H 717.908 3.76979 1.0784 0
M  V30 7514 H 719.398 3.63306 2.05909 0
M  V30 7515 N 719.835 0.176821 1.56605 0
M  V30 7516 C 721.06 -0.47599 2.01864 0
M  V30 7517 C 721.485 -1.55645 1.05623 0
M  V30 7518 O 720.843 -1.81263 0.0366729 0
M  V30 7519 C 720.891 -1.02619 3.4569 0
M  V30 7520 O 719.995 -2.13996 3.52533 0
M  V30 7521 H 719.336 -0.113363 0.654251 0
M  V30 7522 H 721.866 0.28233 2.02643 0
M  V30 7523 H 721.876 -1.34742 3.85109 0
M  V30 7524 H 720.551 -0.235138 4.15235 0
M  V30 7525 H 719.128 -1.82876 3.24978 0
M  V30 7526 N 721.313 -1.57302 -0.09688 0
M  V30 7527 C 722.559 -1.86273 -0.801885 0
M  V30 7528 C 722.892 -0.765694 -1.78468 0
M  V30 7529 O 722.167 0.226495 -1.93177 0
M  V30 7530 C 722.45 -3.25876 -1.53221 0
M  V30 7531 C 722.303 -4.46205 -0.567529 0
M  V30 7532 C 723.622 -3.63352 -2.48321 0
M  V30 7533 H 720.741 -0.67752 -0.29006 0
M  V30 7534 H 723.383 -1.89887 -0.0655577 0
M  V30 7535 H 721.533 -3.22926 -2.15988 0
M  V30 7536 H 723.205 -4.6127 0.0529982 0
M  V30 7537 H 721.448 -4.33636 0.119233 0
M  V30 7538 H 722.119 -5.40608 -1.11564 0
M  V30 7539 H 724.595 -3.67234 -1.95648 0
M  V30 7540 H 723.471 -4.61968 -2.9644 0
M  V30 7541 H 723.732 -2.91941 -3.31998 0
M  V30 7542 N 722.791 0.367657 -1.53252 0
M  V30 7543 C 724.019 1.13119 -1.73239 0
M  V30 7544 C 724.434 1.831 -0.460404 0
M  V30 7545 O 723.791 1.73483 0.566557 0
M  V30 7546 C 723.842 2.16308 -2.89643 0
M  V30 7547 O 723.563 1.49175 -4.1192 0
M  V30 7548 C 725.064 3.05224 -3.21486 0
M  V30 7549 H 722.284 0.338318 -0.579467 0
M  V30 7550 H 724.828 0.42721 -1.99988 0
M  V30 7551 H 722.983 2.82307 -2.65295 0
M  V30 7552 H 723.397 2.17912 -4.7709 0
M  V30 7553 H 724.871 3.73613 -4.06346 0
M  V30 7554 H 725.348 3.69919 -2.36763 0
M  V30 7555 H 725.954 2.44843 -3.47753 0
M  V30 7556 N 724.269 1.44576 0.627338 0
M  V30 7557 C 725.518 1.46837 1.38281 0
M  V30 7558 C 725.831 0.10635 1.95311 0
M  V30 7559 O 727.037 0.00651084 2.71499 0
M  V30 7560 C 725.493 2.58527 2.50384 0
M  V30 7561 C 725.101 4.00953 1.99851 0
M  V30 7562 C 726.845 2.70013 3.27557 0
M  V30 7563 C 724.752 5.0406 3.09318 0
M  V30 7564 H 723.682 0.546319 0.519664 0
M  V30 7565 H 726.333 1.70654 0.674497 0
M  V30 7566 H 724.715 2.27957 3.23808 0
M  V30 7567 H 725.889 4.41108 1.33267 0
M  V30 7568 H 724.204 3.93743 1.35482 0
M  V30 7569 H 726.801 3.44217 4.09168 0
M  V30 7570 H 727.144 1.75961 3.77284 0
M  V30 7571 H 727.677 3.00011 2.61224 0
M  V30 7572 H 724.416 5.99753 2.6453 0
M  V30 7573 H 723.936 4.68493 3.74532 0
M  V30 7574 H 725.615 5.2793 3.74031 0
M  V30 7575 N 725.747 -0.868086 1.31537 0
M  V30 7576 C 726.697 -1.96321 1.1594 0
M  V30 7577 C 727.681 -1.60748 0.0698962 0
M  V30 7578 O 728.873 -1.74524 0.295011 0
M  V30 7579 C 726.002 -3.32073 0.870789 0
M  V30 7580 C 725.088 -3.73907 2.00136 0
M  V30 7581 N 725.479 -3.87685 3.24859 0
M  V30 7582 C 723.777 -4.03433 1.90152 0
M  V30 7583 C 724.478 -4.23454 3.98825 0
M  V30 7584 N 723.454 -4.34242 3.27009 0
M  V30 7585 H 727.256 -2.05088 2.10514 0
M  V30 7586 H 724.77 -1.059 1.23122 0
M  V30 7587 H 726.767 -4.10279 0.740034 0
M  V30 7588 H 725.427 -3.24631 -0.0667068 0
M  V30 7589 H 726.438 -3.72363 3.59953 0
M  V30 7590 H 723.115 -4.0437 1.03879 0
M  V30 7591 H 724.505 -4.41696 5.06314 0
M  V30 7592 N 727.225 -1.14528 -1.08264 0
M  V30 7593 C 728.135 -0.84728 -2.18765 0
M  V30 7594 C 729.151 0.172826 -1.7314 0
M  V30 7595 O 730.327 0.000985336 -2.014 0
M  V30 7596 C 727.392 -0.330633 -3.4512 0
M  V30 7597 C 726.453 -1.41348 -4.05363 0
M  V30 7598 C 725.686 -0.921387 -5.25686 0
M  V30 7599 O 725.909 0.236587 -5.69909 0
M  V30 7600 O 724.843 -1.70101 -5.77364 0
M  V30 7601 H 728.669 -1.7708 -2.46731 0
M  V30 7602 H 726.254 -0.923661 -1.17426 0
M  V30 7603 H 728.136 -0.0485053 -4.21372 0
M  V30 7604 H 726.811 0.565147 -3.18728 0
M  V30 7605 H 725.718 -1.74908 -3.30693 0
M  V30 7606 H 727.051 -2.28383 -4.36007 0
M  V30 7607 N 728.703 1.26451 -0.940633 0
M  V30 7608 C 729.949 1.94065 -0.58878 0
M  V30 7609 C 730.282 1.7363 0.869853 0
M  V30 7610 O 729.557 1.073 1.62225 0
M  V30 7611 C 729.84 3.47852 -0.931199 0
M  V30 7612 C 729.693 3.77575 -2.44453 0
M  V30 7613 C 731.012 4.37832 -0.446229 0
M  V30 7614 H 728.131 0.704827 -0.21538 0
M  V30 7615 H 730.773 1.4933 -1.17475 0
M  V30 7616 H 728.923 3.86085 -0.432539 0
M  V30 7617 H 730.595 3.49059 -3.01588 0
M  V30 7618 H 728.838 3.23671 -2.88825 0
M  V30 7619 H 729.509 4.85068 -2.63464 0
M  V30 7620 H 731.985 4.06822 -0.873778 0
M  V30 7621 H 730.861 5.44228 -0.714648 0
M  V30 7622 H 731.122 4.37239 0.653815 0
M  V30 7623 N 730.181 0.707592 1.40822 0
M  V30 7624 C 731.592 0.317011 1.83989 0
M  V30 7625 C 731.943 -1.14697 1.59182 0
M  V30 7626 O 731.068 -1.8818 1.06852 0
M  V30 7627 C 731.663 0.568593 3.33995 0
M  V30 7628 C 730.222 0.231804 3.75686 0
M  V30 7629 C 729.369 0.844933 2.64114 0
M  V30 7630 H 732.32 0.907349 1.30203 0
M  V30 7631 H 732.341 -0.168798 3.80125 0
M  V30 7632 H 731.853 1.63417 3.52018 0
M  V30 7633 H 729.954 -0.82903 3.6326 0
M  V30 7634 H 730.067 0.695219 4.74029 0
M  V30 7635 H 728.431 0.273588 2.53226 0
M  V30 7636 H 729.214 1.91462 2.84951 0
M  V30 7637 N 731.66 -1.50943 0.453197 0
M  V30 7638 C 732.885 -2.07116 -0.108463 0
M  V30 7639 C 733.31 -1.31681 -1.3432 0
M  V30 7640 O 732.668 -0.359256 -1.77705 0
M  V30 7641 C 732.716 -3.58447 -0.393424 0
M  V30 7642 O 731.82 -3.85038 -1.47714 0
M  V30 7643 H 731.161 -0.66398 0.0050993 0
M  V30 7644 H 733.691 -1.94362 0.639095 0
M  V30 7645 H 733.701 -4.02961 -0.639222 0
M  V30 7646 H 732.376 -4.12774 0.508946 0
M  V30 7647 H 730.953 -3.52376 -1.22006 0
M  V30 7648 N 733.138 -0.185124 -1.56509 0
M  V30 7649 C 734.384 0.456934 -1.97585 0
M  V30 7650 C 734.717 1.61957 -1.07161 0
M  V30 7651 O 733.992 1.9412 -0.121546 0
M  V30 7652 C 734.275 0.926666 -3.47973 0
M  V30 7653 C 734.128 -0.237097 -4.49175 0
M  V30 7654 C 735.447 1.79561 -4.01803 0
M  V30 7655 H 732.566 0.164619 -0.71838 0
M  V30 7656 H 735.208 -0.274039 -1.88013 0
M  V30 7657 H 733.358 1.54954 -3.56261 0
M  V30 7658 H 735.03 -0.87454 -4.52934 0
M  V30 7659 H 733.273 -0.890446 -4.24563 0
M  V30 7660 H 733.944 0.133924 -5.51838 0
M  V30 7661 H 736.42 1.27039 -3.96232 0
M  V30 7662 H 735.296 2.09327 -5.07418 0
M  V30 7663 H 735.557 2.74629 -3.46455 0
M  V30 7664 N 734.616 1.57351 0.0885366 0
M  V30 7665 C 735.579 2.01557 1.09121 0
M  V30 7666 C 736.579 0.910052 1.3257 0
M  V30 7667 O 737.769 1.17537 1.28572 0
M  V30 7668 C 734.901 2.38189 2.43883 0
M  V30 7669 H 736.094 2.91361 0.710562 0
M  V30 7670 H 733.647 1.52694 0.333779 0
M  V30 7671 H 734.382 1.5136 2.86811 0
M  V30 7672 H 734.167 3.18846 2.28209 0
M  V30 7673 H 735.657 2.73025 3.15986 0
M  V30 7674 N 736.094 -0.359525 1.53444 0
M  V30 7675 C 737.319 -1.12644 1.74144 0
M  V30 7676 C 737.744 -1.82082 0.472007 0
M  V30 7677 O 737.102 -1.71962 -0.57436 0
M  V30 7678 C 737.15 -2.12781 2.9113 0
M  V30 7679 O 736.254 -3.19984 2.60162 0
M  V30 7680 H 735.595 -0.326553 0.578152 0
M  V30 7681 H 738.125 -0.414798 2.00351 0
M  V30 7682 H 738.135 -2.56278 3.17467 0
M  V30 7683 H 736.81 -1.61634 3.83207 0
M  V30 7684 H 735.387 -2.81417 2.44661 0
M  V30 7685 N 737.572 -1.44907 -0.619662 0
M  V30 7686 C 738.983 -1.42905 -1.20146 0
M  V30 7687 C 739.334 -0.150341 -1.95623 0
M  V30 7688 O 738.459 0.748732 -2.03034 0
M  V30 7689 C 739.054 -2.58889 -2.18545 0
M  V30 7690 C 737.613 -2.60046 -2.72127 0
M  V30 7691 C 736.76 -2.3493 -1.4732 0
M  V30 7692 H 739.711 -1.53321 -0.409666 0
M  V30 7693 H 739.732 -2.32298 -3.0136 0
M  V30 7694 H 739.244 -3.51941 -1.63583 0
M  V30 7695 H 737.345 -1.70968 -3.3106 0
M  V30 7696 H 737.458 -3.58893 -3.17384 0
M  V30 7697 H 735.822 -1.84248 -1.75855 0
M  V30 7698 H 736.605 -3.3011 -0.942442 0
M  V30 7699 N 739.05 0.861098 -1.31996 0
M  V30 7700 C 739.98 1.98482 -1.22993 0
M  V30 7701 C 740.961 1.6971 -0.115168 0
M  V30 7702 O 742.146 1.91849 -0.30126 0
M  V30 7703 C 739.276 3.34179 -0.945615 0
M  V30 7704 C 738.23 3.77284 -2.02091 0
M  V30 7705 C 737.556 5.1054 -1.58912 0
M  V30 7706 C 738.856 3.93439 -3.43515 0
M  V30 7707 H 740.55 2.06271 -2.17008 0
M  V30 7708 H 738.096 0.991043 -1.04472 0
M  V30 7709 H 740.049 4.12338 -0.869206 0
M  V30 7710 H 738.773 3.26586 0.0301849 0
M  V30 7711 H 737.432 3.01371 -2.08737 0
M  V30 7712 H 737.08 4.99397 -0.600942 0
M  V30 7713 H 736.78 5.40352 -2.30854 0
M  V30 7714 H 738.304 5.91199 -1.52696 0
M  V30 7715 H 739.718 4.6197 -3.39495 0
M  V30 7716 H 738.115 4.34661 -4.13751 0
M  V30 7717 H 739.185 2.96548 -3.8365 0
M  V30 7718 N 740.528 1.15101 1.07655 0
M  V30 7719 C 741.458 0.867864 2.16773 0
M  V30 7720 C 742.439 -0.180283 1.69142 0
M  V30 7721 O 743.624 -0.0353152 1.94168 0
M  V30 7722 C 740.754 0.35299 3.45501 0
M  V30 7723 C 739.708 1.33746 4.06566 0
M  V30 7724 C 739.034 0.681562 5.30338 0
M  V30 7725 C 740.334 2.7024 4.46954 0
M  V30 7726 H 742.028 1.78034 2.40716 0
M  V30 7727 H 739.574 0.857435 1.15689 0
M  V30 7728 H 741.527 0.142465 4.21159 0
M  V30 7729 H 740.251 -0.594945 3.21135 0
M  V30 7730 H 738.91 1.53429 3.32949 0
M  V30 7731 H 738.558 -0.272422 5.02262 0
M  V30 7732 H 738.258 1.33853 5.72151 0
M  V30 7733 H 739.782 0.48074 6.08705 0
M  V30 7734 H 741.196 2.5442 5.13754 0
M  V30 7735 H 739.593 3.32282 4.99709 0
M  V30 7736 H 740.663 3.26537 3.58471 0
M  V30 7737 N 742.006 -1.2595 0.947325 0
M  V30 7738 C 743.254 -1.93081 0.596996 0
M  V30 7739 C 743.575 -1.74632 -0.867672 0
M  V30 7740 O 742.845 -1.1056 -1.6172 0
M  V30 7741 H 741.425 -0.714542 0.217805 0
M  V30 7742 H 744.087 -1.53265 1.20398 0
M  V30 7743 H 743.183 -3.01134 0.82004 0
M  V30 7744 N 743.484 -0.715051 -1.40445 0
M  V30 7745 C 744.447 -0.0708726 -2.2909 0
M  V30 7746 C 745.447 0.687926 -1.45342 0
M  V30 7747 O 746.637 0.519908 -1.66261 0
M  V30 7748 C 743.769 0.909528 -3.28543 0
M  V30 7749 H 744.962 -0.851611 -2.87555 0
M  V30 7750 H 742.515 -0.479674 -1.48758 0
M  V30 7751 H 743.25 1.71734 -2.75096 0
M  V30 7752 H 743.035 0.368318 -3.90366 0
M  V30 7753 H 744.525 1.35744 -3.94922 0
M  V30 7754 N 744.962 1.50701 -0.461195 0
M  V30 7755 C 746.187 2.07171 0.0974773 0
M  V30 7756 C 746.612 1.32391 1.3362 0
M  V30 7757 O 745.97 0.368676 1.77512 0
M  V30 7758 C 746.018 3.58651 0.374409 0
M  V30 7759 O 745.122 3.85816 1.4567 0
M  V30 7760 H 744.463 0.663944 -0.00862047 0
M  V30 7761 H 746.993 1.94021 -0.649394 0
M  V30 7762 H 747.003 4.03295 0.617843 0
M  V30 7763 H 745.678 4.12498 -0.530829 0
M  V30 7764 H 744.255 3.53018 1.20136 0
M  V30 7765 N 746.441 0.193421 1.56409 0
M  V30 7766 C 747.371 -0.723334 2.22014 0
M  V30 7767 C 748.352 -1.22254 1.1827 0
M  V30 7768 O 749.537 -1.27168 1.46771 0
M  V30 7769 C 746.667 -1.94366 2.87818 0
M  V30 7770 C 745.621 -1.57943 3.97791 0
M  V30 7771 C 744.947 -2.87623 4.50752 0
M  V30 7772 C 746.247 -0.790639 5.16281 0
M  V30 7773 H 747.941 -0.176426 2.9888 0
M  V30 7774 H 745.487 -0.0834166 1.43758 0
M  V30 7775 H 747.44 -2.5902 3.32396 0
M  V30 7776 H 746.164 -2.51507 2.08355 0
M  V30 7777 H 744.823 -0.956482 3.53903 0
M  V30 7778 H 744.471 -3.4285 3.68053 0
M  V30 7779 H 744.171 -2.63998 5.24956 0
M  V30 7780 H 745.695 -3.53268 4.9803 0
M  V30 7781 H 747.109 -1.34024 5.57414 0
M  V30 7782 H 745.506 -0.65258 5.96541 0
M  V30 7783 H 746.576 0.208633 4.84451 0
M  V30 7784 N 747.919 -1.57396 -0.0801906 0
M  V30 7785 C 749.196 -1.77883 -0.813451 0
M  V30 7786 C 749.576 -0.778879 -1.96206 0
M  V30 7787 O 748.924 0.189683 -2.27711 0
M  V30 7788 C 749.134 -3.24116 -1.2942 0
M  V30 7789 C 750.482 -3.87714 -1.73098 0
M  V30 7790 O 751.506 -3.27956 -1.39007 0
M  V30 7791 O 750.365 -4.92828 -2.36184 0
M  V30 7792 H 747.459 -0.729727 -0.389138 0
M  V30 7793 H 750.005 -1.69591 -0.0609166 0
M  V30 7794 H 748.777 -3.88443 -0.471947 0
M  V30 7795 H 748.4 -3.371 -2.1083 0
M  V30 7796 N 749.397 0.351382 -1.53633 0
M  V30 7797 C 750.622 1.11718 -1.74739 0
M  V30 7798 C 751.047 1.81829 -0.481657 0
M  V30 7799 O 750.405 1.72264 0.565233 0
M  V30 7800 C 750.453 2.11234 -2.92254 0
M  V30 7801 O 749.557 3.186 -2.61855 0
M  V30 7802 H 748.898 0.323482 -0.579875 0
M  V30 7803 H 751.428 0.404167 -2.00568 0
M  V30 7804 H 751.438 2.54591 -3.18822 0
M  V30 7805 H 750.113 1.59599 -3.84058 0
M  V30 7806 H 748.69 2.80115 -2.4615 0
M  V30 7807 N 750.875 1.45233 0.611969 0
M  V30 7808 C 752.1 1.52767 1.40274 0
M  V30 7809 C 752.525 0.159701 1.87421 0
M  V30 7810 O 751.883 -0.854837 1.59882 0
M  V30 7811 C 751.931 2.51286 2.58626 0
M  V30 7812 O 751.035 2.02764 3.59111 0
M  V30 7813 H 750.376 0.515141 0.418958 0
M  V30 7814 H 752.906 1.90547 0.745188 0
M  V30 7815 H 752.916 2.69949 3.05927 0
M  V30 7816 H 751.591 3.50641 2.23659 0
M  V30 7817 H 750.168 1.93957 3.18489 0
M  V30 7818 N 752.353 -0.854086 1.3245 0
M  V30 7819 C 753.601 -1.60513 1.228 0
M  V30 7820 C 753.922 -1.93865 -0.210073 0
M  V30 7821 O 753.192 -1.59673 -1.13496 0
M  V30 7822 H 751.772 -0.595099 0.451516 0
M  V30 7823 H 754.434 -1.0216 1.6598 0
M  V30 7824 H 753.53 -2.54182 1.81102 0
M  V30 7825 N 753.831 -1.1567 -1.07043 0
M  V30 7826 C 755.079 -0.931673 -1.79344 0
M  V30 7827 C 755.4 0.542421 -1.87304 0
M  V30 7828 O 754.67 1.39418 -1.37621 0
M  V30 7829 H 753.25 -0.34171 -0.664262 0
M  V30 7830 H 755.912 -1.45795 -1.29344 0
M  V30 7831 H 755.008 -1.34379 -2.81689 0
M  V30 7832 N 755.309 1.25446 -0.953992 0
M  V30 7833 C 756.256 2.25912 -0.472485 0
M  V30 7834 C 757.226 1.59173 0.47469 0
M  V30 7835 O 758.411 1.86812 0.388082 0
M  V30 7836 C 755.551 3.44235 0.244218 0
M  V30 7837 C 754.664 4.25613 -0.740121 0
M  V30 7838 C 753.799 5.312 -0.000922267 0
M  V30 7839 C 752.838 6.04265 -0.976236 0
M  V30 7840 N 751.975 7.01589 -0.267952 0
M  V30 7841 H 756.815 2.66469 -1.3341 0
M  V30 7842 H 754.352 1.31005 -0.669045 0
M  V30 7843 H 756.31 4.11682 0.676314 0
M  V30 7844 H 754.94 3.04554 1.06988 0
M  V30 7845 H 753.992 3.57834 -1.2907 0
M  V30 7846 H 755.304 4.762 -1.48441 0
M  V30 7847 H 754.458 6.04719 0.48984 0
M  V30 7848 H 753.197 4.81484 0.776159 0
M  V30 7849 H 752.202 5.29561 -1.478 0
M  V30 7850 H 753.427 6.5607 -1.75354 0
M  V30 7851 H 751.373 6.54164 0.490403 0
M  V30 7852 H 751.29 7.4999 -0.951344 0
M  V30 7853 H 752.558 7.7924 0.201294 0
M  V30 7854 N 756.787 0.722489 1.40064 0
M  V30 7855 C 757.734 0.0743738 2.3068 0
M  V30 7856 C 758.704 -0.743004 1.48555 0
M  V30 7857 O 759.889 -0.705536 1.77276 0
M  V30 7858 C 757.029 -0.836292 3.34814 0
M  V30 7859 C 756.142 -0.00764663 4.31999 0
M  V30 7860 C 755.277 -0.918428 5.232 0
M  V30 7861 C 754.316 -0.0842838 6.12042 0
M  V30 7862 N 753.453 -0.950316 6.95639 0
M  V30 7863 H 758.293 0.852794 2.85537 0
M  V30 7864 H 755.83 0.432222 1.40607 0
M  V30 7865 H 757.788 -1.3786 3.93765 0
M  V30 7866 H 756.418 -1.58082 2.81443 0
M  V30 7867 H 755.47 0.651928 3.74772 0
M  V30 7868 H 756.782 0.63786 4.94705 0
M  V30 7869 H 755.936 -1.52902 5.87116 0
M  V30 7870 H 754.675 -1.59774 4.60786 0
M  V30 7871 H 753.68 0.5392 5.4715 0
M  V30 7872 H 754.905 0.591628 6.76518 0
M  V30 7873 H 752.851 -1.61515 6.35806 0
M  V30 7874 H 752.768 -0.361004 7.55138 0
M  V30 7875 H 754.036 -1.54687 7.63997 0
M  V30 7876 N 758.265 -1.50454 0.469181 0
M  V30 7877 C 759.195 -2.31353 -0.31592 0
M  V30 7878 C 760.176 -1.38172 -0.992094 0
M  V30 7879 O 761.361 -1.67093 -0.989633 0
M  V30 7880 C 758.491 -3.1786 -1.39937 0
M  V30 7881 C 757.445 -4.19578 -0.844909 0
M  V30 7882 C 756.771 -4.9481 -2.0265 0
M  V30 7883 C 758.071 -5.22106 0.142499 0
M  V30 7884 H 759.765 -2.97237 0.359269 0
M  V30 7885 H 757.311 -1.42942 0.174224 0
M  V30 7886 H 759.264 -3.7325 -1.95607 0
M  V30 7887 H 757.988 -2.49858 -2.1033 0
M  V30 7888 H 756.647 -3.65285 -0.310189 0
M  V30 7889 H 756.295 -4.23282 -2.71737 0
M  V30 7890 H 755.995 -5.63613 -1.66174 0
M  V30 7891 H 757.519 -5.53035 -2.58815 0
M  V30 7892 H 758.933 -5.72378 -0.324966 0
M  V30 7893 H 757.33 -5.98618 0.421441 0
M  V30 7894 H 758.4 -4.7297 1.06901 0
M  V30 7895 N 759.743 -0.201713 -1.56304 0
M  V30 7896 C 760.673 0.71155 -2.22394 0
M  V30 7897 C 761.654 1.21625 -1.18917 0
M  V30 7898 O 762.839 1.26388 -1.47444 0
M  V30 7899 C 759.969 1.92837 -2.88845 0
M  V30 7900 C 758.923 1.55831 -3.98623 0
M  V30 7901 C 758.249 2.85228 -4.52271 0
M  V30 7902 C 759.549 0.763249 -5.16693 0
M  V30 7903 H 761.243 0.160573 -2.98969 0
M  V30 7904 H 758.789 0.0757916 -1.438 0
M  V30 7905 H 760.742 2.57253 -3.33764 0
M  V30 7906 H 759.466 2.50398 -2.09686 0
M  V30 7907 H 758.125 0.9377 -3.54405 0
M  V30 7908 H 757.773 3.40893 -3.69866 0
M  V30 7909 H 757.473 2.6121 -5.26349 0
M  V30 7910 H 758.997 3.50622 -4.99897 0
M  V30 7911 H 760.411 1.31066 -5.58117 0
M  V30 7912 H 758.808 0.620935 -5.96879 0
M  V30 7913 H 759.878 -0.234322 -4.84334 0
M  V30 7914 N 761.222 1.57436 0.0718424 0
M  V30 7915 C 762.47 1.86878 0.769484 0
M  V30 7916 C 762.791 0.7937 1.78116 0
M  V30 7917 O 762.061 -0.177642 1.95093 0
M  V30 7918 H 760.641 0.689593 0.287177 0
M  V30 7919 H 763.303 1.94841 0.0479427 0
M  V30 7920 H 762.399 2.84387 1.28572 0
M  V30 7921 N 762.7 -0.34323 1.53817 0
M  V30 7922 C 763.63 -1.42709 1.84814 0
M  V30 7923 C 764.611 -1.5488 0.703297 0
M  V30 7924 O 765.796 -1.69082 0.955237 0
M  V30 7925 C 762.926 -2.79756 2.05801 0
M  V30 7926 C 761.88 -2.82392 3.21619 0
M  V30 7927 C 761.206 -4.22326 3.2794 0
M  V30 7928 C 762.506 -2.479 4.59721 0
M  V30 7929 H 764.2 -1.17018 2.75585 0
M  V30 7930 H 761.746 -0.561485 1.32602 0
M  V30 7931 H 763.699 -3.55627 2.26069 0
M  V30 7932 H 762.423 -3.06883 1.11761 0
M  V30 7933 H 761.082 -2.08974 3.01207 0
M  V30 7934 H 760.73 -4.46564 2.31494 0
M  V30 7935 H 760.43 -4.25001 4.05768 0
M  V30 7936 H 761.954 -5.00039 3.50419 0
M  V30 7937 H 763.368 -3.13484 4.80001 0
M  V30 7938 H 761.765 -2.61857 5.39954 0
M  V30 7939 H 762.835 -1.43087 4.63308 0
M  V30 7940 N 764.178 -1.45556 -0.604258 0
M  V30 7941 C 765.403 -1.53509 -1.39462 0
M  V30 7942 C 765.828 -0.169638 -1.87333 0
M  V30 7943 O 765.186 0.846346 -1.60333 0
M  V30 7944 C 765.234 -2.52654 -2.5729 0
M  V30 7945 O 764.338 -2.04666 -3.5803 0
M  V30 7946 H 763.679 -0.517355 -0.416221 0
M  V30 7947 H 766.209 -1.90939 -0.735072 0
M  V30 7948 H 766.219 -2.71568 -3.04491 0
M  V30 7949 H 764.894 -3.51823 -2.21797 0
M  V30 7950 H 763.471 -1.95643 -3.17456 0
M  V30 7951 N 765.656 0.84705 -1.32902 0
M  V30 7952 C 766.886 1.63166 -1.26729 0
M  V30 7953 C 767.294 1.88474 0.165595 0
M  V30 7954 O 766.637 1.45947 1.11558 0
M  V30 7955 C 766.699 3.0103 -1.96522 0
M  V30 7956 C 766.363 2.9873 -3.45846 0
M  V30 7957 C 767.36 2.75032 -4.41196 0
M  V30 7958 C 765.045 3.19125 -3.87898 0
M  V30 7959 C 767.039 2.71743 -5.76571 0
M  V30 7960 C 764.726 3.15462 -5.2338 0
M  V30 7961 C 765.724 2.91801 -6.17528 0
M  V30 7962 O 765.412 2.88027 -7.5053 0
M  V30 7963 H 765.144 0.51469 -0.438258 0
M  V30 7964 H 767.698 1.06383 -1.75704 0
M  V30 7965 H 765.928 3.59634 -1.42128 0
M  V30 7966 H 767.617 3.61821 -1.83958 0
M  V30 7967 H 768.383 2.59034 -4.10032 0
M  V30 7968 H 764.262 3.36565 -3.15032 0
M  V30 7969 H 767.806 2.53194 -6.5003 0
M  V30 7970 H 763.703 3.31006 -5.54171 0
M  V30 7971 H 764.471 3.03927 -7.59981 0
M  V30 7972 N 767.134 1.16236 1.06428 0
M  V30 7973 C 768.411 0.853294 1.76006 0
M  V30 7974 C 768.791 -0.649162 2.00871 0
M  V30 7975 O 768.139 -1.59653 1.63472 0
M  V30 7976 C 768.349 1.67448 3.06206 0
M  V30 7977 C 769.697 1.8866 3.80385 0
M  V30 7978 O 770.721 1.64303 3.16043 0
M  V30 7979 O 769.58 2.29518 4.95968 0
M  V30 7980 H 766.674 0.314737 0.764767 0
M  V30 7981 H 769.22 1.26865 1.12709 0
M  V30 7982 H 767.992 2.69411 2.83784 0
M  V30 7983 H 767.615 1.25608 3.77238 0
M  V30 7984 N 768.612 -1.24939 0.960631 0
M  V30 7985 C 769.522 -2.29374 0.492435 0
M  V30 7986 C 770.538 -1.68262 -0.443154 0
M  V30 7987 O 771.714 -1.98875 -0.31793 0
M  V30 7988 C 768.779 -3.46023 -0.216626 0
M  V30 7989 C 767.84 -4.22557 0.757915 0
M  V30 7990 C 767.073 -5.33636 0.0825969 0
M  V30 7991 O 767.296 -5.59084 -1.13054 0
M  V30 7992 O 766.23 -5.96939 0.771177 0
M  V30 7993 H 770.056 -2.71525 1.36044 0
M  V30 7994 H 767.641 -1.30499 0.72735 0
M  V30 7995 H 769.523 -4.16885 -0.615241 0
M  V30 7996 H 768.198 -3.05862 -1.05971 0
M  V30 7997 H 767.105 -3.54099 1.20685 0
M  V30 7998 H 768.438 -4.66516 1.5692 0
M  V30 7999 N 770.09 -0.729906 -1.39679 0
M  V30 8000 C 771.506 -0.404951 -1.54377 0
M  V30 8001 C 771.706 1.08476 -1.6981 0
M  V30 8002 O 770.762 1.87087 -1.69572 0
M  V30 8003 C 772.075 -1.18352 -2.76429 0
M  V30 8004 C 773.623 -1.17124 -2.9026 0
M  V30 8005 C 774.098 -1.93227 -4.15244 0
M  V30 8006 N 775.589 -1.90368 -4.22273 0
M  V30 8007 C 776.324 -2.46065 -5.17918 0
M  V30 8008 N 775.82 -3.10378 -6.19385 0
M  V30 8009 N 777.613 -2.36127 -5.10099 0
M  V30 8010 H 769.764 -1.69567 -1.27909 0
M  V30 8011 H 772.027 -0.717527 -0.619564 0
M  V30 8012 H 771.733 -2.23743 -2.71352 0
M  V30 8013 H 771.607 -0.784589 -3.6895 0
M  V30 8014 H 773.994 -0.125478 -2.94833 0
M  V30 8015 H 774.075 -1.60951 -1.98817 0
M  V30 8016 H 773.719 -2.97802 -4.11432 0
M  V30 8017 H 773.649 -1.4681 -5.05722 0
M  V30 8018 H 776.14 -1.4351 -3.4959 0
M  V30 8019 H 776.453 -3.50358 -6.88817 0
M  V30 8020 H 774.798 -3.14467 -6.19787 0
M  V30 8021 H 777.989 -1.85529 -4.29763 0
M  V30 8022 H 778.162 -2.79833 -5.84463 0
M  V30 8023 N 771.568 1.50203 -0.477153 0
M  V30 8024 C 772.518 2.25561 0.332625 0
M  V30 8025 C 773.502 1.29401 0.956249 0
M  V30 8026 O 774.694 1.54267 0.867795 0
M  V30 8027 C 771.823 3.12984 1.41052 0
M  V30 8028 C 770.909 4.16595 0.79433 0
M  V30 8029 N 771.3 5.05722 -0.0889633 0
M  V30 8030 C 769.598 4.33279 1.0576 0
M  V30 8031 C 770.299 5.80039 -0.439286 0
M  V30 8032 N 769.275 5.43278 0.187018 0
M  V30 8033 H 773.077 2.91836 -0.347718 0
M  V30 8034 H 770.591 1.59759 -0.291686 0
M  V30 8035 H 772.588 3.65582 2.00388 0
M  V30 8036 H 771.248 2.48258 2.09279 0
M  V30 8037 H 772.259 5.15869 -0.458205 0
M  V30 8038 H 768.936 3.79769 1.7344 0
M  V30 8039 H 770.326 6.61802 -1.1605 0
M  V30 8040 N 773.046 0.209999 1.56195 0
M  V30 8041 C 773.978 -0.736967 2.17029 0
M  V30 8042 C 774.991 -1.16599 1.13616 0
M  V30 8043 O 776.18 -1.09914 1.40646 0
M  V30 8044 C 773.28 -2.00852 2.72969 0
M  V30 8045 C 772.453 -1.73691 4.01435 0
M  V30 8046 C 771.512 -2.85439 4.42053 0
M  V30 8047 O 770.538 -2.54405 5.09183 0
M  V30 8048 N 771.74 -4.14135 4.06783 0
M  V30 8049 H 774.505 -0.216656 2.98916 0
M  V30 8050 H 772.066 0.0285672 1.61875 0
M  V30 8051 H 774.058 -2.74778 2.97118 0
M  V30 8052 H 772.628 -2.43963 1.95451 0
M  V30 8053 H 771.848 -0.834676 3.85262 0
M  V30 8054 H 773.136 -1.52961 4.85263 0
M  V30 8055 H 772.534 -4.42196 3.52816 0
M  V30 8056 H 771.091 -4.84642 4.35851 0
M  V30 8057 N 774.524 -1.57472 -0.0634922 0
M  V30 8058 C 775.77 -1.88792 -0.756903 0
M  V30 8059 C 776.125 -0.804679 -1.74765 0
M  V30 8060 O 775.418 0.19033 -1.90652 0
M  V30 8061 C 775.612 -3.24521 -1.49736 0
M  V30 8062 C 775.441 -4.45946 -0.579833 0
M  V30 8063 C 774.211 -5.04848 -0.213667 0
M  V30 8064 C 776.409 -5.14143 0.12703 0
M  V30 8065 N 774.391 -6.09795 0.708712 0
M  V30 8066 C 775.762 -6.1334 0.906295 0
M  V30 8067 C 777.817 -4.97508 0.197625 0
M  V30 8068 C 776.52 -6.97697 1.74961 0
M  V30 8069 C 778.546 -5.82398 1.02794 0
M  V30 8070 C 777.908 -6.81139 1.79523 0
M  V30 8071 H 774.007 -0.740235 -0.252142 0
M  V30 8072 H 776.591 -1.94692 -0.0181026 0
M  V30 8073 H 774.762 -3.19615 -2.20683 0
M  V30 8074 H 776.494 -3.43464 -2.14044 0
M  V30 8075 H 773.249 -4.70177 -0.568357 0
M  V30 8076 H 773.673 -6.66929 1.16339 0
M  V30 8077 H 778.315 -4.21077 -0.381261 0
M  V30 8078 H 776.033 -7.73496 2.33943 0
M  V30 8079 H 779.619 -5.71581 1.08565 0
M  V30 8080 H 778.499 -7.45687 2.42736 0
M  V30 8081 N 776.003 0.335068 -1.53997 0
M  V30 8082 C 776.935 1.4327 -1.78903 0
M  V30 8083 C 777.948 1.48347 -0.670598 0
M  V30 8084 O 779.137 1.51277 -0.947494 0
M  V30 8085 C 776.237 2.81878 -1.88144 0
M  V30 8086 C 775.41 3.00141 -3.18174 0
M  V30 8087 C 774.469 4.19041 -3.18263 0
M  V30 8088 O 773.495 4.12751 -3.9195 0
M  V30 8089 N 774.697 5.28004 -2.41231 0
M  V30 8090 H 777.462 1.22272 -2.73623 0
M  V30 8091 H 775.023 0.524996 -1.53152 0
M  V30 8092 H 777.015 3.59609 -1.85644 0
M  V30 8093 H 775.585 2.9598 -1.00572 0
M  V30 8094 H 774.805 2.09808 -3.33728 0
M  V30 8095 H 776.093 3.0923 -4.04047 0
M  V30 8096 H 775.491 5.35986 -1.8093 0
M  V30 8097 H 774.048 6.04196 -2.44521 0
M  V30 8098 N 777.481 1.45874 0.596531 0
M  V30 8099 C 778.892 1.44798 1.17857 0
M  V30 8100 C 779.243 0.181443 1.95359 0
M  V30 8101 O 778.368 -0.716336 2.042 0
M  V30 8102 C 778.963 2.62333 2.14398 0
M  V30 8103 C 777.522 2.64342 2.67955 0
M  V30 8104 C 776.669 2.37244 1.43564 0
M  V30 8105 H 779.62 1.53954 0.385222 0
M  V30 8106 H 779.641 2.37063 2.97626 0
M  V30 8107 H 779.153 3.54499 1.57963 0
M  V30 8108 H 777.254 1.76213 3.28298 0
M  V30 8109 H 777.367 3.63897 3.11634 0
M  V30 8110 H 775.731 1.87022 1.72901 0
M  V30 8111 H 776.514 3.31568 0.889805 0
M  V30 8112 N 778.959 -0.83999 1.33349 0
M  V30 8113 C 780.208 -1.59011 1.2409 0
M  V30 8114 C 780.521 -1.94655 -0.192029 0
M  V30 8115 O 781.727 -2.68438 -0.406617 0
M  V30 8116 C 780.183 -2.86801 2.17425 0
M  V30 8117 C 779.791 -2.58525 3.65881 0
M  V30 8118 C 781.535 -3.64823 2.17036 0
M  V30 8119 C 779.442 -3.82404 4.51133 0
M  V30 8120 H 778.372 -0.596731 0.460899 0
M  V30 8121 H 781.023 -0.926274 1.58406 0
M  V30 8122 H 779.405 -3.54719 1.7604 0
M  V30 8123 H 780.579 -1.98824 4.15699 0
M  V30 8124 H 778.894 -1.93808 3.68548 0
M  V30 8125 H 781.491 -4.56774 2.7796 0
M  V30 8126 H 781.834 -3.99663 1.16513 0
M  V30 8127 H 782.367 -3.03826 2.56777 0
M  V30 8128 H 779.106 -3.52696 5.52527 0
M  V30 8129 H 778.626 -4.41447 4.0606 0
M  V30 8130 H 780.305 -4.49995 4.6488 0
M  V30 8131 N 780.437 -1.16799 -1.0581 0
M  V30 8132 C 781.667 -0.975454 -1.82122 0
M  V30 8133 C 782.075 0.479584 -1.83021 0
M  V30 8134 O 781.418 1.34471 -1.25153 0
M  V30 8135 C 781.48 -1.43209 -3.29744 0
M  V30 8136 C 781.144 -2.908 -3.5254 0
M  V30 8137 C 782.141 -3.88775 -3.45181 0
M  V30 8138 C 779.826 -3.28832 -3.79703 0
M  V30 8139 C 781.82 -5.22782 -3.64661 0
M  V30 8140 C 779.507 -4.63007 -3.98832 0
M  V30 8141 C 780.505 -5.59791 -3.91309 0
M  V30 8142 O 780.193 -6.9154 -4.09911 0
M  V30 8143 H 779.925 -0.345655 -0.580947 0
M  V30 8144 H 782.479 -1.55355 -1.34365 0
M  V30 8145 H 780.709 -0.797504 -3.78387 0
M  V30 8146 H 782.398 -1.2062 -3.87564 0
M  V30 8147 H 783.164 -3.60738 -3.2418 0
M  V30 8148 H 779.043 -2.54073 -3.84666 0
M  V30 8149 H 782.587 -5.98312 -3.58705 0
M  V30 8150 H 778.484 -4.90752 -4.19324 0
M  V30 8151 H 779.252 -6.98188 -4.27172 0
M  V30 8152 N 781.915 1.24427 -0.967243 0
M  V30 8153 C 783.163 1.92107 -0.627638 0
M  V30 8154 C 783.484 1.75991 0.83978 0
M  V30 8155 O 782.754 1.13118 1.59941 0
M  V30 8156 H 781.334 0.710986 -0.229145 0
M  V30 8157 H 783.996 1.51331 -1.22821 0
M  V30 8158 H 783.092 2.99791 -0.867844 0
M  V30 8159 N 783.393 0.737304 1.3929 0
M  V30 8160 C 784.618 0.295237 2.05288 0
M  V30 8161 C 785.043 -1.06235 1.55228 0
M  V30 8162 O 784.401 -1.67365 0.697043 0
M  V30 8163 C 784.449 0.309146 3.59272 0
M  V30 8164 O 783.553 -0.702437 4.06374 0
M  V30 8165 H 782.894 0.133762 0.650387 0
M  V30 8166 H 785.424 1.00387 1.78279 0
M  V30 8167 H 785.434 0.154336 4.07708 0
M  V30 8168 H 784.109 1.29974 3.95069 0
M  V30 8169 H 782.686 -0.513574 3.69346 0
M  V30 8170 N 784.871 -1.49948 0.485112 0
M  V30 8171 C 786.099 -2.06806 -0.0622824 0
M  V30 8172 C 786.514 -1.34736 -1.32256 0
M  V30 8173 O 785.871 -0.420836 -1.77582 0
M  V30 8174 C 785.922 -3.59934 -0.336096 0
M  V30 8175 O 785.643 -4.29289 0.874203 0
M  V30 8176 C 787.144 -4.33459 -0.928903 0
M  V30 8177 H 784.364 -0.670867 0.0133472 0
M  V30 8178 H 786.908 -1.92937 0.677917 0
M  V30 8179 H 785.063 -3.7356 -1.02625 0
M  V30 8180 H 785.477 -5.20735 0.627332 0
M  V30 8181 H 786.951 -5.41527 -1.07017 0
M  V30 8182 H 787.428 -3.94881 -1.92265 0
M  V30 8183 H 788.034 -4.24399 -0.276705 0
M  V30 8184 N 786.349 -0.21828 -1.56081 0
M  V30 8185 C 787.76 0.290166 -1.84431 0
M  V30 8186 C 788.111 1.59712 -1.13958 0
M  V30 8187 O 787.236 2.12516 -0.40815 0
M  V30 8188 C 787.831 0.53325 -3.34577 0
M  V30 8189 C 786.39 0.986011 -3.63256 0
M  V30 8190 C 785.537 0.0472798 -2.7726 0
M  V30 8191 H 788.488 -0.441548 -1.52434 0
M  V30 8192 H 788.509 1.37967 -3.54606 0
M  V30 8193 H 788.021 -0.418137 -3.85841 0
M  V30 8194 H 786.122 1.95087 -3.17446 0
M  V30 8195 H 786.235 0.862684 -4.71269 0
M  V30 8196 H 784.599 0.553471 -2.48614 0
M  V30 8197 H 785.382 -0.898966 -3.31321 0
M  V30 8198 N 787.827 1.57504 0.0551401 0
M  V30 8199 C 789.073 1.88334 0.752216 0
M  V30 8200 C 789.406 0.812742 1.76375 0
M  V30 8201 O 788.681 -0.175198 1.93709 0
M  V30 8202 C 788.964 3.29824 1.44528 0
M  V30 8203 C 788.817 4.47553 0.449026 0
M  V30 8204 C 790.136 3.69808 2.38601 0
M  V30 8205 H 787.255 0.684973 0.271995 0
M  V30 8206 H 789.897 1.89994 0.0151895 0
M  V30 8207 H 788.047 3.28539 2.07351 0
M  V30 8208 H 789.719 4.60967 -0.175277 0
M  V30 8209 H 787.962 4.33168 -0.234162 0
M  V30 8210 H 788.633 5.43376 0.971917 0
M  V30 8211 H 791.109 3.72293 1.85842 0
M  V30 8212 H 789.985 4.69665 2.84088 0
M  V30 8213 H 790.246 3.00641 3.24141 0
M  V30 8214 N 789.305 -0.326896 1.54172 0
M  V30 8215 C 790.533 -1.08486 1.76177 0
M  V30 8216 C 790.948 -1.81815 0.508788 0
M  V30 8217 O 790.305 -1.74924 -0.520362 0
M  V30 8218 C 790.356 -2.08552 2.95276 0
M  V30 8219 O 790.077 -1.38202 4.15731 0
M  V30 8220 C 791.578 -2.96593 3.29466 0
M  V30 8221 H 788.798 -0.322835 0.588233 0
M  V30 8222 H 791.342 -0.374036 2.0105 0
M  V30 8223 H 789.497 -2.75174 2.72687 0
M  V30 8224 H 789.911 -2.05186 4.827 0
M  V30 8225 H 791.385 -3.62708 4.16109 0
M  V30 8226 H 791.862 -3.63511 2.46487 0
M  V30 8227 H 792.468 -2.35537 3.54122 0
M  V30 8228 N 790.784 -1.46188 -0.588786 0
M  V30 8229 C 792.195 -1.45421 -1.17088 0
M  V30 8230 C 792.546 -0.191801 -1.9526 0
M  V30 8231 O 791.671 0.705497 -2.04577 0
M  V30 8232 C 792.266 -2.63467 -2.13004 0
M  V30 8233 C 790.825 -2.6576 -2.6655 0
M  V30 8234 C 789.972 -2.38002 -1.42304 0
M  V30 8235 H 792.923 -1.54156 -0.377052 0
M  V30 8236 H 792.944 -2.38638 -2.96365 0
M  V30 8237 H 792.456 -3.55331 -1.56081 0
M  V30 8238 H 790.557 -1.77952 -3.27359 0
M  V30 8239 H 790.67 -3.65545 -3.09699 0
M  V30 8240 H 789.034 -1.87936 -1.71907 0
M  V30 8241 H 789.817 -3.32035 -0.872209 0
M  V30 8242 N 792.262 0.832906 -1.33792 0
M  V30 8243 C 793.49 1.62048 -1.28639 0
M  V30 8244 C 793.905 1.88269 0.141522 0
M  V30 8245 O 793.262 1.46706 1.08553 0
M  V30 8246 C 793.313 2.96722 -2.0649 0
M  V30 8247 O 793.034 2.7165 -3.43712 0
M  V30 8248 C 794.535 3.91144 -2.08617 0
M  V30 8249 H 791.755 0.504032 -0.442937 0
M  V30 8250 H 794.299 1.03704 -1.76255 0
M  V30 8251 H 792.454 3.51652 -1.62541 0
M  V30 8252 H 792.868 3.57453 -3.83833 0
M  V30 8253 H 794.342 4.82837 -2.67531 0
M  V30 8254 H 794.819 4.25766 -1.07796 0
M  V30 8255 H 795.425 3.42152 -2.52611 0
M  V30 8256 N 793.74 1.17359 1.05189 0
M  V30 8257 C 794.988 0.960087 1.77839 0
M  V30 8258 C 795.309 -0.512554 1.88143 0
M  V30 8259 O 794.579 -1.3721 1.39822 0
M  V30 8260 H 793.159 0.352234 0.658741 0
M  V30 8261 H 795.821 1.47834 1.27008 0
M  V30 8262 H 794.917 1.38843 2.79516 0
M  V30 8263 N 795.218 -1.23913 0.973828 0
M  V30 8264 C 796.443 -1.96735 0.656511 0
M  V30 8265 C 796.868 -1.71682 -0.768571 0
M  V30 8266 O 796.226 -0.984267 -1.52256 0
M  V30 8267 C 796.274 -3.48004 0.944735 0
M  V30 8268 O 795.378 -4.12387 0.0333357 0
M  V30 8269 H 794.719 -0.616119 0.247575 0
M  V30 8270 H 797.249 -1.57525 1.30564 0
M  V30 8271 H 797.259 -3.98424 0.87876 0
M  V30 8272 H 795.934 -3.65567 1.98328 0
M  V30 8273 H 794.511 -3.72585 0.153157 0
M  V30 8274 N 796.696 -0.74468 -1.38897 0
M  V30 8275 C 797.942 -0.306249 -2.01081 0
M  V30 8276 C 798.297 1.09724 -1.58046 0
M  V30 8277 O 797.59 1.73923 -0.803834 0
M  V30 8278 C 797.784 -0.357302 -3.55609 0
M  V30 8279 C 797.613 -1.76421 -4.13649 0
M  V30 8280 C 796.383 -2.3787 -4.4581 0
M  V30 8281 C 798.581 -2.71942 -4.36523 0
M  V30 8282 N 796.563 -3.70614 -4.89406 0
M  V30 8283 C 797.934 -3.89437 -4.8243 0
M  V30 8284 C 799.989 -2.69579 -4.18607 0
M  V30 8285 C 798.692 -5.04917 -5.123 0
M  V30 8286 C 800.718 -3.8421 -4.49596 0
M  V30 8287 C 800.08 -5.00442 -4.95719 0
M  V30 8288 H 796.179 -0.158531 -0.765762 0
M  V30 8289 H 798.763 -0.972726 -1.6866 0
M  V30 8290 H 796.934 0.278865 -3.87398 0
M  V30 8291 H 798.666 0.100599 -4.04575 0
M  V30 8292 H 795.421 -1.8971 -4.33943 0
M  V30 8293 H 795.845 -4.38791 -5.1555 0
M  V30 8294 H 800.487 -1.80905 -3.82143 0
M  V30 8295 H 798.205 -5.94213 -5.47665 0
M  V30 8296 H 801.791 -3.83691 -4.37347 0
M  V30 8297 H 800.671 -5.87671 -5.19242 0
M  V30 8298 N 798.174 1.49689 -0.493057 0
M  V30 8299 C 799.084 2.32746 0.294358 0
M  V30 8300 C 800.1 1.44117 0.975003 0
M  V30 8301 O 801.276 1.77149 0.958138 0
M  V30 8302 C 798.341 3.19358 1.34949 0
M  V30 8303 C 797.402 4.2383 0.683122 0
M  V30 8304 C 796.635 5.06303 1.68798 0
M  V30 8305 O 796.858 4.90172 2.91698 0
M  V30 8306 O 795.792 5.88826 1.24768 0
M  V30 8307 H 799.618 3.01247 -0.385254 0
M  V30 8308 H 797.203 1.47216 -0.254519 0
M  V30 8309 H 799.085 3.73037 1.96014 0
M  V30 8310 H 797.76 2.53561 2.01217 0
M  V30 8311 H 796.667 3.74086 0.0329351 0
M  V30 8312 H 798 4.9216 0.0630192 0
M  V30 8313 N 799.652 0.226554 1.55963 0
M  V30 8314 C 800.585 -0.721625 2.1649 0
M  V30 8315 C 801.563 -1.18745 1.11078 0
M  V30 8316 O 802.747 -1.26929 1.3936 0
M  V30 8317 C 799.874 -1.97828 2.74921 0
M  V30 8318 C 798.92 -1.65202 3.93206 0
M  V30 8319 S 799.753 -0.772419 5.299 0
M  V30 8320 C 800.909 -2.03853 5.91773 0
M  V30 8321 H 801.142 -0.207192 2.96577 0
M  V30 8322 H 798.675 0.0111976 1.54396 0
M  V30 8323 H 800.633 -2.69982 3.09225 0
M  V30 8324 H 799.294 -2.46384 1.94817 0
M  V30 8325 H 798.487 -2.58583 4.32609 0
M  V30 8326 H 798.089 -1.01108 3.60074 0
M  V30 8327 H 800.381 -2.98799 6.08051 0
M  V30 8328 H 801.324 -1.68831 6.87678 0
M  V30 8329 H 801.732 -2.18134 5.20651 0
M  V30 8330 N 801.13 -1.57531 -0.0467866 0
M  V30 8331 C 802.378 -1.88078 -0.739656 0
M  V30 8332 C 802.699 -0.821936 -1.76831 0
M  V30 8333 O 801.969 0.146582 -1.95351 0
M  V30 8334 H 800.549 -0.694075 -0.276169 0
M  V30 8335 H 803.211 -1.94893 -0.0169391 0
M  V30 8336 H 802.307 -2.86396 -1.24031 0
M  V30 8337 N 802.608 0.318715 -1.54344 0
M  V30 8338 C 803.555 1.39242 -1.84066 0
M  V30 8339 C 804.525 1.51175 -0.688134 0
M  V30 8340 O 805.71 1.66318 -0.935039 0
M  V30 8341 C 802.85 2.75528 -2.07794 0
M  V30 8342 C 801.963 2.72187 -3.35467 0
M  V30 8343 C 801.098 4.00352 -3.4913 0
M  V30 8344 C 800.137 3.91338 -4.7066 0
M  V30 8345 N 799.274 5.11242 -4.81224 0
M  V30 8346 H 804.114 1.13196 -2.75664 0
M  V30 8347 H 801.651 0.547857 -1.36517 0
M  V30 8348 H 803.609 3.54763 -2.19543 0
M  V30 8349 H 802.239 2.99873 -1.19482 0
M  V30 8350 H 801.291 1.84917 -3.3243 0
M  V30 8351 H 802.603 2.61411 -4.24812 0
M  V30 8352 H 801.757 4.88019 -3.60448 0
M  V30 8353 H 800.496 4.1394 -2.57886 0
M  V30 8354 H 799.501 3.02055 -4.59394 0
M  V30 8355 H 800.726 3.7931 -5.63294 0
M  V30 8356 H 798.672 5.25327 -3.92897 0
M  V30 8357 H 798.589 5.0282 -5.64543 0
M  V30 8358 H 799.857 6.0061 -4.96879 0
M  V30 8359 N 804.086 1.46499 0.581025 0
M  V30 8360 C 805.502 1.31491 0.904563 0
M  V30 8361 C 805.702 0.287598 1.99437 0
M  V30 8362 O 804.758 -0.309247 2.50599 0
M  V30 8363 C 806.071 2.70163 1.32032 0
M  V30 8364 C 807.619 2.78266 1.43308 0
M  V30 8365 C 808.094 4.17524 1.8825 0
M  V30 8366 N 809.585 4.19949 1.9544 0
M  V30 8367 C 810.32 5.24594 2.31493 0
M  V30 8368 N 809.816 6.39564 2.66326 0
M  V30 8369 N 811.609 5.11961 2.32062 0
M  V30 8370 H 803.76 2.11946 -0.138856 0
M  V30 8371 H 806.023 0.948 0.000548528 0
M  V30 8372 H 805.729 3.46655 0.593554 0
M  V30 8373 H 805.603 3.00379 2.2815 0
M  V30 8374 H 807.99 2.02061 2.15071 0
M  V30 8375 H 808.071 2.51732 0.45438 0
M  V30 8376 H 807.715 4.94225 1.17065 0
M  V30 8377 H 807.645 4.41466 2.87081 0
M  V30 8378 H 810.136 3.36996 1.71004 0
M  V30 8379 H 810.449 7.15187 2.92793 0
M  V30 8380 H 808.794 6.42923 2.6396 0
M  V30 8381 H 811.985 4.21177 2.04272 0
M  V30 8382 H 812.158 5.93626 2.5983 0
M  V30 8383 N 805.565 -0.825799 1.34232 0
M  V30 8384 C 806.795 -1.61129 1.29309 0
M  V30 8385 C 807.203 -1.88714 -0.135589 0
M  V30 8386 O 806.546 -1.47703 -1.09222 0
M  V30 8387 C 806.608 -2.97866 2.01287 0
M  V30 8388 C 806.272 -2.9319 3.50555 0
M  V30 8389 C 807.269 -2.67978 4.45515 0
M  V30 8390 C 804.954 -3.12913 3.92926 0
M  V30 8391 C 806.948 -2.62536 5.80822 0
M  V30 8392 C 804.635 -3.07096 5.28333 0
M  V30 8393 C 805.633 -2.8194 6.22092 0
M  V30 8394 O 805.321 -2.7605 7.55018 0
M  V30 8395 H 805.053 -0.507652 0.446391 0
M  V30 8396 H 807.607 -1.03575 1.77374 0
M  V30 8397 H 805.837 -3.57327 1.47832 0
M  V30 8398 H 807.526 -3.58848 1.89691 0
M  V30 8399 H 808.292 -2.52478 4.14101 0
M  V30 8400 H 804.171 -3.3151 3.20347 0
M  V30 8401 H 807.715 -2.42821 6.53975 0
M  V30 8402 H 803.612 -3.22148 5.59367 0
M  V30 8403 H 804.38 -2.91798 7.6472 0
M  V30 8404 N 807.043 -1.17915 -1.04565 0
M  V30 8405 C 807.993 -0.869634 -2.10764 0
M  V30 8406 C 808.977 0.158502 -1.60117 0
M  V30 8407 O 810.169 -0.04483 -1.76943 0
M  V30 8408 C 807.298 -0.391642 -3.41059 0
M  V30 8409 C 806.384 -1.45156 -3.98485 0
M  V30 8410 N 806.775 -2.6667 -4.29792 0
M  V30 8411 C 805.073 -1.3109 -4.263 0
M  V30 8412 C 805.774 -3.34823 -4.75677 0
M  V30 8413 N 804.75 -2.62203 -4.76183 0
M  V30 8414 H 808.552 -1.79342 -2.32838 0
M  V30 8415 H 806.066 -1.0688 -1.22272 0
M  V30 8416 H 808.063 -0.151428 -4.16625 0
M  V30 8417 H 806.723 0.525862 -3.20413 0
M  V30 8418 H 807.734 -3.0358 -4.19594 0
M  V30 8419 H 804.411 -0.455545 -4.15007 0
M  V30 8420 H 805.801 -4.38645 -5.0896 0
M  V30 8421 N 808.521 1.23394 -0.980386 0
M  V30 8422 C 809.767 1.92094 -0.650223 0
M  V30 8423 C 810.1 1.76309 0.814173 0
M  V30 8424 O 809.375 1.12406 1.5873 0
M  V30 8425 C 809.658 3.44713 -1.04139 0
M  V30 8426 C 809.511 3.69606 -2.56342 0
M  V30 8427 C 810.83 4.36191 -0.585296 0
M  V30 8428 H 807.949 0.697618 -0.237695 0
M  V30 8429 H 810.591 1.45517 -1.22167 0
M  V30 8430 H 808.741 3.84513 -0.55515 0
M  V30 8431 H 810.413 3.39288 -3.1254 0
M  V30 8432 H 808.656 3.14318 -2.98976 0
M  V30 8433 H 809.327 4.76441 -2.78762 0
M  V30 8434 H 811.803 4.03836 -1.00276 0
M  V30 8435 H 810.679 5.41679 -0.887428 0
M  V30 8436 H 810.94 4.39097 0.51438 0
M  V30 8437 N 809.999 0.752036 1.385 0
M  V30 8438 C 811.245 0.307958 2.00448 0
M  V30 8439 C 811.578 -1.10702 1.59558 0
M  V30 8440 O 810.853 -1.75788 0.832391 0
M  V30 8441 C 811.136 0.429092 3.57534 0
M  V30 8442 C 810.989 1.88507 4.08393 0
M  V30 8443 C 812.308 -0.178442 4.39738 0
M  V30 8444 H 809.427 0.113373 0.728228 0
M  V30 8445 H 812.069 0.951389 1.64465 0
M  V30 8446 H 810.219 -0.118695 3.88319 0
M  V30 8447 H 811.891 2.49104 3.88259 0
M  V30 8448 H 810.134 2.40066 3.61318 0
M  V30 8449 H 810.805 1.92099 5.17496 0
M  V30 8450 H 813.281 0.28872 4.15097 0
M  V30 8451 H 812.157 -0.0634349 5.48863 0
M  V30 8452 H 812.418 -1.26655 4.23569 0
M  V30 8453 N 811.477 -1.49425 0.500989 0
M  V30 8454 C 812.407 -2.31971 -0.266775 0
M  V30 8455 C 813.388 -1.40245 -0.962563 0
M  V30 8456 O 814.573 -1.69154 -0.953968 0
M  V30 8457 C 811.703 -3.20757 -1.33163 0
M  V30 8458 C 810.657 -4.21275 -0.75572 0
M  V30 8459 C 809.983 -4.98997 -1.92109 0
M  V30 8460 C 811.283 -5.21686 0.253213 0
M  V30 8461 H 812.977 -2.96408 0.422237 0
M  V30 8462 H 810.523 -1.4254 0.204505 0
M  V30 8463 H 812.476 -3.77315 -1.87646 0
M  V30 8464 H 811.2 -2.54263 -2.04983 0
M  V30 8465 H 809.859 -3.65861 -0.232637 0
M  V30 8466 H 809.507 -4.28951 -2.62698 0
M  V30 8467 H 809.207 -5.67011 -1.54182 0
M  V30 8468 H 810.731 -5.584 -2.47026 0
M  V30 8469 H 812.145 -5.72939 -0.203483 0
M  V30 8470 H 810.542 -5.9759 0.548322 0
M  V30 8471 H 811.612 -4.70596 1.16909 0
M  V30 8472 N 812.955 -0.234822 -1.55841 0
M  V30 8473 C 814.183 0.397745 -2.03041 0
M  V30 8474 C 814.598 1.52405 -1.11437 0
M  V30 8475 O 813.955 1.82061 -0.126466 0
M  V30 8476 C 814.006 0.916919 -3.49678 0
M  V30 8477 O 813.727 -0.164493 -4.37791 0
M  V30 8478 C 815.228 1.62139 -4.12584 0
M  V30 8479 H 812.448 0.0959214 -0.664108 0
M  V30 8480 H 814.992 -0.355156 -2.01392 0
M  V30 8481 H 813.147 1.62004 -3.519 0
M  V30 8482 H 813.561 0.227794 -5.24005 0
M  V30 8483 H 815.035 1.93651 -5.16917 0
M  V30 8484 H 815.512 2.53918 -3.58361 0
M  V30 8485 H 816.118 0.963145 -4.14251 0
M  V30 8486 N 814.433 1.57553 0.0384317 0
M  V30 8487 C 815.366 2.01307 1.07475 0
M  V30 8488 C 816.344 0.895717 1.35704 0
M  V30 8489 O 817.528 1.16079 1.48519 0
M  V30 8490 C 814.655 2.37817 2.41165 0
M  V30 8491 C 813.701 3.599 2.28855 0
M  V30 8492 S 814.534 5.09418 1.65086 0
M  V30 8493 C 815.69 5.49162 3.00286 0
M  V30 8494 H 815.923 2.88892 0.702034 0
M  V30 8495 H 813.456 1.52394 0.248103 0
M  V30 8496 H 815.414 2.59524 3.18053 0
M  V30 8497 H 814.075 1.507 2.75587 0
M  V30 8498 H 813.268 3.83071 3.27525 0
M  V30 8499 H 812.87 3.37996 1.60109 0
M  V30 8500 H 815.162 5.49274 3.96617 0
M  V30 8501 H 816.105 6.49586 2.81858 0
M  V30 8502 H 816.513 4.76653 3.02427 0
M  V30 8503 N 815.911 -0.310526 1.54511 0
M  V30 8504 C 816.874 -1.3657 1.84068 0
M  V30 8505 C 817.874 -1.44123 0.713097 0
M  V30 8506 O 819.064 -1.43924 0.981399 0
M  V30 8507 C 816.196 -2.75162 2.01243 0
M  V30 8508 H 817.389 -1.1161 2.78358 0
M  V30 8509 H 814.942 -0.546699 1.46427 0
M  V30 8510 H 815.677 -3.05359 1.09208 0
M  V30 8511 H 815.462 -2.71071 2.83307 0
M  V30 8512 H 816.952 -3.51473 2.25514 0
M  V30 8513 N 817.389 -1.46805 -0.573248 0
M  V30 8514 C 818.337 -1.58468 -1.70267 0
M  V30 8515 C 819.331 -0.452694 -1.63239 0
M  V30 8516 O 820.537 -0.629915 -1.68618 0
M  V30 8517 H 816.912 -0.498408 -0.56311 0
M  V30 8518 H 818.883 -2.5341 -1.57563 0
M  V30 8519 C 817.632 -1.60104 -3.08645 0
M  V30 8520 H 816.955 -2.4655 -3.14727 0
M  V30 8521 H 818.395 -1.72318 -3.87405 0
M  V30 8522 C 816.854 -0.33138 -3.35266 0
M  V30 8523 O 817.384 0.57438 -3.97572 0
M  V30 8524 N 815.59 -0.216358 -2.89793 0
M  V30 8525 H 815.137 -0.954345 -2.3927 0
M  V30 8526 H 815.095 0.632253 -3.07977 0
M  V30 8527 N 818.867 0.818669 -1.34668 0
M  V30 8528 C 819.814 1.92983 -1.26595 0
M  V30 8529 C 820.784 1.65506 -0.140315 0
M  V30 8530 O 821.969 1.88063 -0.322005 0
M  V30 8531 C 819.109 3.2932 -1.03163 0
M  V30 8532 C 818.222 3.69061 -2.24539 0
M  V30 8533 C 817.357 4.94368 -1.94355 0
M  V30 8534 C 816.396 5.26702 -3.11851 0
M  V30 8535 N 815.533 6.43187 -2.81522 0
M  V30 8536 H 820.373 1.99219 -2.2162 0
M  V30 8537 H 817.91 0.974612 -1.1018 0
M  V30 8538 H 819.868 4.07897 -0.87613 0
M  V30 8539 H 818.498 3.22584 -0.118045 0
M  V30 8540 H 817.55 2.85842 -2.50995 0
M  V30 8541 H 818.862 3.88924 -3.12313 0
M  V30 8542 H 818.016 5.80742 -1.75566 0
M  V30 8543 H 816.755 4.76515 -1.03848 0
M  V30 8544 H 815.76 4.38823 -3.31231 0
M  V30 8545 H 816.985 5.46492 -4.03142 0
M  V30 8546 H 814.931 6.26783 -1.93596 0
M  V30 8547 H 814.848 6.63243 -3.62829 0
M  V30 8548 H 816.116 7.32621 -2.66247 0
M  V30 8549 N 820.346 1.18468 1.03938 0
M  V30 8550 C 821.595 0.975193 1.76558 0
M  V30 8551 C 821.908 -0.495978 1.89207 0
M  V30 8552 O 823.114 -0.824009 2.58694 0
M  V30 8553 C 821.57 1.69579 3.17444 0
M  V30 8554 C 821.178 3.20636 3.12884 0
M  V30 8555 C 822.922 1.56917 3.94433 0
M  V30 8556 C 820.829 3.8533 4.48636 0
M  V30 8557 H 819.759 0.361244 0.66183 0
M  V30 8558 H 822.41 1.41854 1.16403 0
M  V30 8559 H 820.792 1.18022 3.78004 0
M  V30 8560 H 821.966 3.79228 2.61768 0
M  V30 8561 H 820.281 3.33454 2.49394 0
M  V30 8562 H 822.878 2.02611 4.94826 0
M  V30 8563 H 823.221 0.521638 4.13019 0
M  V30 8564 H 823.754 2.05762 3.40451 0
M  V30 8565 H 820.493 4.90136 4.35255 0
M  V30 8566 H 820.013 3.31526 4.99851 0
M  V30 8567 H 821.692 3.88269 5.17549 0
M  V30 8568 N 821.824 -1.22873 0.986916 0
M  V30 8569 C 823.072 -1.91084 0.658121 0
M  V30 8570 C 823.393 -1.77304 -0.811675 0
M  V30 8571 O 822.663 -1.15649 -1.58121 0
M  V30 8572 H 821.243 -0.707251 0.240427 0
M  V30 8573 H 823.905 -1.49357 1.25213 0
M  V30 8574 H 823.001 -2.98373 0.915428 0
M  V30 8575 N 823.302 -0.75937 -1.38099 0
M  V30 8576 C 824.527 -0.327859 -2.04792 0
M  V30 8577 C 824.952 1.03752 -1.56899 0
M  V30 8578 O 824.31 1.66235 -0.723581 0
M  V30 8579 C 824.358 -0.366264 -3.58735 0
M  V30 8580 O 823.462 0.637697 -4.0744 0
M  V30 8581 H 822.803 -0.144092 -0.648177 0
M  V30 8582 H 825.333 -1.03211 -1.7666 0
M  V30 8583 H 825.343 -0.219179 -4.07411 0
M  V30 8584 H 824.018 -1.36243 -3.92951 0
M  V30 8585 H 822.595 0.454749 -3.70117 0
M  V30 8586 N 824.78 1.49157 -0.508906 0
M  V30 8587 C 825.69 2.33045 0.269656 0
M  V30 8588 C 826.706 1.45143 0.959662 0
M  V30 8589 O 827.882 1.78155 0.939295 0
M  V30 8590 C 824.947 3.20772 1.31554 0
M  V30 8591 C 824.008 4.24531 0.638131 0
M  V30 8592 C 823.241 5.08065 1.63418 0
M  V30 8593 O 823.464 4.93238 2.86483 0
M  V30 8594 O 822.398 5.90117 1.18516 0
M  V30 8595 H 826.224 3.00821 -0.417183 0
M  V30 8596 H 823.809 1.46938 -0.270119 0
M  V30 8597 H 825.691 3.75095 1.92047 0
M  V30 8598 H 824.366 2.55681 1.98516 0
M  V30 8599 H 823.273 3.74099 -0.00674357 0
M  V30 8600 H 824.606 4.92199 0.0108155 0
M  V30 8601 N 826.258 0.243083 1.55714 0
M  V30 8602 C 827.488 -0.38641 2.02954 0
M  V30 8603 C 827.896 -1.52358 1.12177 0
M  V30 8604 O 827.239 -1.83255 0.127853 0
M  V30 8605 C 827.301 -0.959388 3.46462 0
M  V30 8606 C 826.965 0.0450546 4.56978 0
M  V30 8607 C 827.962 0.853224 5.12851 0
M  V30 8608 C 825.647 0.170041 5.02012 0
M  V30 8609 C 827.641 1.77288 6.12248 0
M  V30 8610 C 825.328 1.0932 6.01242 0
M  V30 8611 C 826.326 1.89315 6.56238 0
M  V30 8612 O 826.014 2.80075 7.53534 0
M  V30 8613 H 825.746 -0.0964333 0.669086 0
M  V30 8614 H 828.3 0.363399 2.0216 0
M  V30 8615 H 826.53 -1.75869 3.44394 0
M  V30 8616 H 828.219 -1.49856 3.77224 0
M  V30 8617 H 828.985 0.767229 4.78893 0
M  V30 8618 H 824.864 -0.442528 4.58871 0
M  V30 8619 H 828.408 2.39768 6.55101 0
M  V30 8620 H 824.305 1.18013 6.3462 0
M  V30 8621 H 825.073 2.74393 7.71136 0
M  V30 8622 N 827.736 -1.57571 -0.0300757 0
M  V30 8623 C 828.985 -1.88407 -0.720126 0
M  V30 8624 C 829.298 -0.841466 -1.76575 0
M  V30 8625 O 830.504 -1.03902 -2.50832 0
M  V30 8626 C 828.96 -3.34348 -1.33188 0
M  V30 8627 C 828.568 -4.46837 -0.32266 0
M  V30 8628 C 830.312 -3.74333 -2.00187 0
M  V30 8629 C 828.219 -5.83838 -0.942703 0
M  V30 8630 H 827.149 -0.702952 -0.272718 0
M  V30 8631 H 829.8 -1.83482 0.0255337 0
M  V30 8632 H 828.182 -3.34014 -2.12721 0
M  V30 8633 H 829.356 -4.58638 0.445887 0
M  V30 8634 H 827.671 -4.15678 0.245181 0
M  V30 8635 H 830.268 -4.74008 -2.47428 0
M  V30 8636 H 830.611 -3.06275 -2.81959 0
M  V30 8637 H 831.144 -3.76837 -1.2743 0
M  V30 8638 H 827.883 -6.55294 -0.164413 0
M  V30 8639 H 827.403 -5.75759 -1.68111 0
M  V30 8640 H 829.082 -6.30535 -1.45034 0
M  V30 8641 N 829.214 0.302327 -1.54673 0
M  V30 8642 C 830.491 1.05721 -1.64567 0
M  V30 8643 C 830.871 2.0526 -0.493108 0
M  V30 8644 O 830.219 2.22729 0.510315 0
M  V30 8645 C 830.429 1.74025 -3.02517 0
M  V30 8646 C 831.777 2.26271 -3.59286 0
M  V30 8647 O 832.801 1.8406 -3.0496 0
M  V30 8648 O 831.66 3.0361 -4.54404 0
M  V30 8649 H 828.754 0.488577 -0.667249 0
M  V30 8650 H 831.3 0.300521 -1.67018 0
M  V30 8651 H 830.072 1.0174 -3.77842 0
M  V30 8652 H 829.695 2.56454 -3.03838 0
M  V30 8653 N 830.692 1.47107 0.565454 0
M  V30 8654 C 831.94 1.53005 1.32038 0
M  V30 8655 C 832.261 0.190453 1.94068 0
M  V30 8656 O 831.531 -0.784783 1.79494 0
M  V30 8657 H 830.111 0.563578 0.490294 0
M  V30 8658 H 832.773 1.83351 0.660928 0
M  V30 8659 H 831.869 2.29215 2.11818 0
M  V30 8660 N 832.17 -0.811516 1.35101 0
M  V30 8661 C 833.08 -1.95475 1.29718 0
M  V30 8662 C 834.096 -1.72813 0.202909 0
M  V30 8663 O 835.272 -1.96725 0.431414 0
M  V30 8664 C 832.337 -3.29975 1.06385 0
M  V30 8665 C 831.398 -3.65566 2.25077 0
M  V30 8666 C 830.631 -4.93648 2.02848 0
M  V30 8667 O 830.854 -5.617 0.992442 0
M  V30 8668 O 829.788 -5.27384 2.90087 0
M  V30 8669 H 833.614 -2.02961 2.25921 0
M  V30 8670 H 831.199 -0.948583 1.15422 0
M  V30 8671 H 833.081 -4.10506 0.951999 0
M  V30 8672 H 831.756 -3.2343 0.132294 0
M  V30 8673 H 830.663 -2.85432 2.41825 0
M  V30 8674 H 831.996 -3.7681 3.16662 0
M  V30 8675 N 833.648 -1.19017 -1.03309 0
M  V30 8676 C 835.059 -0.993206 -1.5809 0
M  V30 8677 C 835.41 0.45505 -1.9085 0
M  V30 8678 O 834.535 1.33372 -1.70414 0
M  V30 8679 C 835.13 -1.79661 -2.87241 0
M  V30 8680 C 833.689 -1.64377 -3.38611 0
M  V30 8681 C 832.836 -1.78628 -2.12102 0
M  V30 8682 H 835.787 -1.3345 -0.858879 0
M  V30 8683 H 835.808 -1.29019 -3.57958 0
M  V30 8684 H 835.32 -2.85061 -2.63366 0
M  V30 8685 H 833.421 -0.615447 -3.67482 0
M  V30 8686 H 833.534 -2.44651 -4.11926 0
M  V30 8687 H 831.898 -1.21648 -2.23772 0
M  V30 8688 H 832.681 -2.8548 -1.90673 0
M  V30 8689 N 835.127 1.22348 -0.993418 0
M  V30 8690 C 836.057 2.26584 -0.564088 0
M  V30 8691 C 837.038 1.65102 0.409298 0
M  V30 8692 O 838.223 1.91872 0.299819 0
M  V30 8693 C 835.353 3.47087 0.121554 0
M  V30 8694 C 834.307 4.21009 -0.770429 0
M  V30 8695 C 833.633 5.34678 0.0481586 0
M  V30 8696 C 834.933 4.79636 -2.06752 0
M  V30 8697 H 836.627 2.62749 -1.43538 0
M  V30 8698 H 834.173 1.26303 -0.691628 0
M  V30 8699 H 836.126 4.19166 0.433303 0
M  V30 8700 H 834.85 3.1002 1.0274 0
M  V30 8701 H 833.509 3.50764 -1.06583 0
M  V30 8702 H 833.157 4.93852 0.954933 0
M  V30 8703 H 832.857 5.85061 -0.545641 0
M  V30 8704 H 834.381 6.09573 0.353991 0
M  V30 8705 H 835.795 5.43654 -1.81969 0
M  V30 8706 H 834.192 5.4036 -2.61019 0
M  V30 8707 H 835.262 3.99659 -2.74592 0
M  V30 8708 N 836.605 0.766683 1.37694 0
M  V30 8709 C 837.515 0.150158 2.34119 0
M  V30 8710 C 838.531 -0.685513 1.59927 0
M  V30 8711 O 839.707 -0.606616 1.92047 0
M  V30 8712 C 836.772 -0.722562 3.39087 0
M  V30 8713 C 835.833 0.128983 4.29106 0
M  V30 8714 C 835.066 -0.702178 5.29061 0
M  V30 8715 O 835.289 -1.93954 5.36412 0
M  V30 8716 O 834.223 -0.114056 6.01792 0
M  V30 8717 H 838.049 0.946829 2.88563 0
M  V30 8718 H 835.634 0.527765 1.39768 0
M  V30 8719 H 837.516 -1.22095 4.03325 0
M  V30 8720 H 836.191 -1.49751 2.86978 0
M  V30 8721 H 835.098 0.673612 3.67985 0
M  V30 8722 H 836.431 0.866892 4.84506 0
M  V30 8723 N 838.083 -1.48885 0.516809 0
M  V30 8724 C 839.331 -2.02088 -0.0220166 0
M  V30 8725 C 839.652 -1.39735 -1.36011 0
M  V30 8726 O 838.922 -0.558119 -1.87781 0
M  V30 8727 H 837.502 -0.746917 -0.0111255 0
M  V30 8728 H 840.164 -1.8274 0.677647 0
M  V30 8729 H 839.26 -3.11786 -0.140067 0
M  V30 8730 N 839.561 -0.251338 -1.55583 0
M  V30 8731 C 840.786 0.379136 -2.03905 0
M  V30 8732 C 841.211 1.50428 -1.12929 0
M  V30 8733 O 840.569 1.80882 -0.123114 0
M  V30 8734 C 840.617 0.86009 -3.50193 0
M  V30 8735 O 839.721 1.96932 -3.62342 0
M  V30 8736 H 839.062 0.0820183 -0.658915 0
M  V30 8737 H 841.592 -0.378692 -2.01065 0
M  V30 8738 H 841.602 1.16214 -3.91099 0
M  V30 8739 H 840.277 0.0367559 -4.15884 0
M  V30 8740 H 838.854 1.67163 -3.33333 0
M  V30 8741 N 841.039 1.57585 0.0217189 0
M  V30 8742 C 842.287 1.89231 0.709641 0
M  V30 8743 C 842.608 0.849964 1.75501 0
M  V30 8744 O 841.878 -0.115485 1.95559 0
M  V30 8745 H 840.458 0.69838 0.265092 0
M  V30 8746 H 843.12 1.94895 -0.0140688 0
M  V30 8747 H 842.216 2.88333 1.19459 0
M  V30 8748 N 842.517 -0.29412 1.54831 0
M  V30 8749 C 843.449 -1.38476 1.82639 0
M  V30 8750 C 844.462 -1.46517 0.709694 0
M  V30 8751 O 845.651 -1.48712 0.987269 0
M  V30 8752 C 842.751 -2.76791 1.95551 0
M  V30 8753 C 841.924 -2.91599 3.26019 0
M  V30 8754 C 840.983 -4.10456 3.29261 0
M  V30 8755 O 840.009 -4.02214 4.02756 0
M  V30 8756 N 841.211 -5.21422 2.55145 0
M  V30 8757 H 843.976 -1.14974 2.76769 0
M  V30 8758 H 841.537 -0.484206 1.5449 0
M  V30 8759 H 843.529 -3.5456 1.95113 0
M  V30 8760 H 842.099 -2.93209 1.08384 0
M  V30 8761 H 841.319 -2.00886 3.39173 0
M  V30 8762 H 842.607 -2.98409 4.12104 0
M  V30 8763 H 842.005 -5.31 1.95078 0
M  V30 8764 H 840.562 -5.97501 2.60454 0
M  V30 8765 N 843.995 -1.47404 -0.557645 0
M  V30 8766 C 845.223 -1.57622 -1.34026 0
M  V30 8767 C 845.638 -0.226256 -1.87439 0
M  V30 8768 O 844.995 0.78043 -1.64971 0
M  V30 8769 C 845.046 -2.60111 -2.51047 0
M  V30 8770 O 844.767 -3.89866 -1.99841 0
M  V30 8771 C 846.268 -2.80508 -3.43264 0
M  V30 8772 H 843.488 -0.532271 -0.40857 0
M  V30 8773 H 846.032 -1.93019 -0.675555 0
M  V30 8774 H 844.187 -2.27648 -3.13457 0
M  V30 8775 H 844.601 -4.45864 -2.76234 0
M  V30 8776 H 846.075 -3.56084 -4.21792 0
M  V30 8777 H 846.552 -1.88314 -3.9678 0
M  V30 8778 H 847.158 -3.14166 -2.86671 0
M  V30 8779 N 845.473 0.80434 -1.35529 0
M  V30 8780 C 846.719 1.56385 -1.29118 0
M  V30 8781 C 847.052 1.9374 0.133536 0
M  V30 8782 O 846.327 1.6153 1.08344 0
M  V30 8783 C 846.61 2.85097 -2.19981 0
M  V30 8784 C 846.463 2.54204 -3.7108 0
M  V30 8785 C 847.782 3.86817 -2.09907 0
M  V30 8786 H 844.901 0.567382 -0.470368 0
M  V30 8787 H 847.543 0.925235 -1.6595 0
M  V30 8788 H 845.693 3.39594 -1.88701 0
M  V30 8789 H 847.365 2.05872 -4.12813 0
M  V30 8790 H 845.608 1.87364 -3.91251 0
M  V30 8791 H 846.279 3.46068 -4.30048 0
M  V30 8792 H 848.755 3.41725 -2.37409 0
M  V30 8793 H 847.631 4.7465 -2.75678 0
M  V30 8794 H 847.892 4.28663 -1.08171 0
M  V30 8795 N 846.951 1.19563 1.02676 0
M  V30 8796 C 848.197 1.00105 1.76371 0
M  V30 8797 C 848.53 -0.466823 1.88506 0
M  V30 8798 O 847.805 -1.34665 1.40341 0
M  V30 8799 C 848.088 1.67321 3.18866 0
M  V30 8800 C 847.941 3.21486 3.1459 0
M  V30 8801 C 849.26 1.39794 4.17308 0
M  V30 8802 H 846.379 0.365075 0.640226 0
M  V30 8803 H 849.021 1.47433 1.19848 0
M  V30 8804 H 847.171 1.27081 3.67128 0
M  V30 8805 H 848.843 3.70953 2.7421 0
M  V30 8806 H 847.086 3.5292 2.52249 0
M  V30 8807 H 847.757 3.63665 4.15273 0
M  V30 8808 H 850.233 1.74685 3.77657 0
M  V30 8809 H 849.109 1.89371 5.15199 0
M  V30 8810 H 849.37 0.323505 4.40915 0
M  V30 8811 N 848.429 -1.21819 0.999893 0
M  V30 8812 C 849.84 -1.72517 0.713775 0
M  V30 8813 C 850.191 -1.80505 -0.768922 0
M  V30 8814 O 849.316 -1.45611 -1.60083 0
M  V30 8815 C 849.911 -3.13321 1.28901 0
M  V30 8816 C 848.47 -3.61396 1.05212 0
M  V30 8817 C 847.617 -2.39074 1.40494 0
M  V30 8818 H 850.568 -1.07068 1.17141 0
M  V30 8819 H 850.589 -3.74535 0.671084 0
M  V30 8820 H 850.101 -3.07475 2.36814 0
M  V30 8821 H 848.202 -3.72599 -0.0100732 0
M  V30 8822 H 848.315 -4.47145 1.72042 0
M  V30 8823 H 846.679 -2.41015 0.823642 0
M  V30 8824 H 847.462 -2.35884 2.49427 0
M  V30 8825 N 849.908 -0.773975 -1.37286 0
M  V30 8826 C 851.185 -0.263942 -1.93811 0
M  V30 8827 C 851.565 1.24138 -1.70743 0
M  V30 8828 O 850.913 2.02557 -1.05749 0
M  V30 8829 C 851.123 -0.639753 -3.43086 0
M  V30 8830 C 852.471 -0.610796 -4.20184 0
M  V30 8831 O 853.495 -0.579278 -3.51458 0
M  V30 8832 O 852.354 -0.639862 -5.42741 0
M  V30 8833 H 849.448 -0.0614331 -0.824715 0
M  V30 8834 H 851.994 -0.855477 -1.46559 0
M  V30 8835 H 850.766 -1.67856 -3.53469 0
M  V30 8836 H 850.389 -0.0212827 -3.97594 0
M  V30 8837 N 851.386 1.48609 -0.524698 0
M  V30 8838 C 852.296 2.33318 0.244923 0
M  V30 8839 C 853.312 1.46153 0.944214 0
M  V30 8840 O 854.488 1.79141 0.920347 0
M  V30 8841 C 851.553 3.22149 1.28144 0
M  V30 8842 C 850.614 4.25184 0.593068 0
M  V30 8843 C 849.847 5.0977 1.5802 0
M  V30 8844 O 850.07 4.96249 2.81235 0
M  V30 8845 O 849.004 5.9134 1.1225 0
M  V30 8846 H 852.83 3.00362 -0.449066 0
M  V30 8847 H 850.415 1.46643 -0.285689 0
M  V30 8848 H 852.297 3.77111 1.88057 0
M  V30 8849 H 850.972 2.57772 1.95793 0
M  V30 8850 H 849.879 3.74071 -0.0464214 0
M  V30 8851 H 851.212 4.92183 -0.0413893 0
M  V30 8852 N 852.864 0.259585 1.55447 0
M  V30 8853 C 854.28 -0.094961 1.59317 0
M  V30 8854 C 854.48 -1.55884 1.2768 0
M  V30 8855 O 853.536 -2.30528 1.0302 0
M  V30 8856 C 854.849 0.265669 2.99524 0
M  V30 8857 C 856.397 0.211007 3.12288 0
M  V30 8858 C 856.872 0.545851 4.54736 0
M  V30 8859 N 858.363 0.496823 4.60528 0
M  V30 8860 C 859.098 0.728909 5.68748 0
M  V30 8861 N 858.594 1.02479 6.85179 0
M  V30 8862 N 860.387 0.658756 5.58226 0
M  V30 8863 H 852.538 1.2141 1.7428 0
M  V30 8864 H 854.801 0.489404 0.811904 0
M  V30 8865 H 854.507 1.28316 3.27457 0
M  V30 8866 H 854.381 -0.401089 3.75061 0
M  V30 8867 H 856.768 -0.797172 2.84129 0
M  V30 8868 H 856.849 0.911799 2.38998 0
M  V30 8869 H 856.493 1.55164 4.83618 0
M  V30 8870 H 856.423 -0.17656 5.26304 0
M  V30 8871 H 858.914 0.277376 3.76881 0
M  V30 8872 H 859.227 1.18897 7.63599 0
M  V30 8873 H 857.572 1.0624 6.86832 0
M  V30 8874 H 860.763 0.427553 4.66143 0
M  V30 8875 H 860.936 0.84302 6.42493 0
M  V30 8876 N 854.342 -1.57594 -0.0133615 0
M  V30 8877 C 855.57 -1.94251 -0.712328 0
M  V30 8878 C 855.985 -0.86063 -1.68043 0
M  V30 8879 O 855.342 0.161632 -1.81783 0
M  V30 8880 C 855.393 -3.30891 -1.45581 0
M  V30 8881 O 855.114 -4.34924 -0.526539 0
M  V30 8882 C 856.615 -3.81926 -2.2505 0
M  V30 8883 H 853.835 -0.640737 -0.199241 0
M  V30 8884 H 856.379 -2.04472 0.0337855 0
M  V30 8885 H 854.534 -3.22019 -2.15366 0
M  V30 8886 H 854.948 -5.1389 -1.04962 0
M  V30 8887 H 856.422 -4.79999 -2.72589 0
M  V30 8888 H 856.899 -3.13934 -3.07152 0
M  V30 8889 H 857.505 -3.93931 -1.60308 0
M  V30 8890 N 855.82 0.285905 -1.54985 0
M  V30 8891 C 857.231 0.857869 -1.65824 0
M  V30 8892 C 857.582 1.87531 -0.576763 0
M  V30 8893 O 856.707 2.14528 0.284016 0
M  V30 8894 C 857.302 1.56277 -3.00604 0
M  V30 8895 C 855.861 2.08294 -3.13513 0
M  V30 8896 C 855.008 0.920633 -2.61571 0
M  V30 8897 H 857.959 0.0625463 -1.58577 0
M  V30 8898 H 857.98 2.42912 -2.92872 0
M  V30 8899 H 857.492 0.822017 -3.79295 0
M  V30 8900 H 855.593 2.8537 -2.39572 0
M  V30 8901 H 855.706 2.3071 -4.19892 0
M  V30 8902 H 854.07 1.31043 -2.18403 0
M  V30 8903 H 854.853 0.193594 -3.42754 0
M  V30 8904 N 857.298 1.47698 0.54982 0
M  V30 8905 C 858.575 1.45185 1.31075 0
M  V30 8906 C 858.955 0.152768 2.10547 0
M  V30 8907 O 858.303 -0.865706 2.11466 0
M  V30 8908 C 858.513 2.70192 2.20902 0
M  V30 8909 C 859.861 3.1771 2.81683 0
M  V30 8910 O 860.885 2.70971 2.312 0
M  V30 8911 O 859.744 3.98986 3.7346 0
M  V30 8912 H 856.838 0.57892 0.590577 0
M  V30 8913 H 859.384 1.59908 0.568112 0
M  V30 8914 H 858.156 3.56269 1.61828 0
M  V30 8915 H 857.779 2.58091 3.02448 0
M  V30 8916 N 858.776 -0.797141 1.35954 0
M  V30 8917 C 860.025 -1.54983 1.29086 0
M  V30 8918 C 860.338 -1.95167 -0.130003 0
M  V30 8919 O 861.544 -2.69596 -0.32101 0
M  V30 8920 C 860 -2.79738 2.26439 0
M  V30 8921 C 859.608 -2.46753 3.73921 0
M  V30 8922 C 861.352 -3.57733 2.28533 0
M  V30 8923 C 859.259 -3.67858 4.63071 0
M  V30 8924 H 858.189 -0.581766 0.479651 0
M  V30 8925 H 860.84 -0.87541 1.61273 0
M  V30 8926 H 859.222 -3.48939 1.87236 0
M  V30 8927 H 860.396 -1.85499 4.21814 0
M  V30 8928 H 858.711 -1.81985 3.74527 0
M  V30 8929 H 861.308 -4.47699 2.92351 0
M  V30 8930 H 861.651 -3.95754 1.29169 0
M  V30 8931 H 862.184 -2.95504 2.66313 0
M  V30 8932 H 858.923 -3.34939 5.63468 0
M  V30 8933 H 858.443 -4.28305 4.19898 0
M  V30 8934 H 860.122 -4.34977 4.78961 0
M  V30 8935 N 860.254 -1.20106 -1.0204 0
M  V30 8936 C 861.479 -1.0351 -1.79723 0
M  V30 8937 C 861.904 0.411328 -1.83548 0
M  V30 8938 O 861.262 1.29608 -1.26773 0
M  V30 8939 C 861.31 -1.61876 -3.22224 0
M  V30 8940 O 860.414 -0.853813 -4.03465 0
M  V30 8941 H 859.755 -0.365299 -0.554484 0
M  V30 8942 H 862.285 -1.59316 -1.28373 0
M  V30 8943 H 862.295 -1.65451 -3.72948 0
M  V30 8944 H 860.97 -2.67148 -3.18755 0
M  V30 8945 H 859.547 -0.891983 -3.62075 0
M  V30 8946 N 861.732 1.21287 -1.00634 0
M  V30 8947 C 862.682 2.21541 -0.53886 0
M  V30 8948 C 863.666 1.55842 0.400256 0
M  V30 8949 O 864.858 1.75566 0.224889 0
M  V30 8950 C 861.987 3.43047 0.131796 0
M  V30 8951 C 861.073 4.1593 -0.828419 0
M  V30 8952 N 861.464 4.65359 -1.98178 0
M  V30 8953 C 859.762 4.41281 -0.647083 0
M  V30 8954 C 860.463 5.21079 -2.58557 0
M  V30 8955 N 859.439 5.10531 -1.86705 0
M  V30 8956 H 863.241 2.57413 -1.41831 0
M  V30 8957 H 860.755 1.37109 -0.870338 0
M  V30 8958 H 862.752 4.14079 0.484178 0
M  V30 8959 H 861.412 3.08683 1.00721 0
M  V30 8960 H 862.423 4.60896 -2.3621 0
M  V30 8961 H 859.1 4.17107 0.181139 0
M  V30 8962 H 860.49 5.6977 -3.56107 0
M  V30 8963 N 863.21 0.781244 1.36873 0
M  V30 8964 C 864.457 0.349889 1.99454 0
M  V30 8965 C 864.785 -1.07621 1.62013 0
M  V30 8966 O 864.04 -1.75665 0.86258 0
M  V30 8967 C 864.339 0.45146 3.54537 0
M  V30 8968 C 864.005 1.83718 4.11775 0
M  V30 8969 C 862.667 2.21634 4.2712 0
M  V30 8970 C 865.019 2.7449 4.43063 0
M  V30 8971 C 862.347 3.49742 4.7106 0
M  V30 8972 C 864.699 4.02017 4.88431 0
M  V30 8973 C 863.363 4.39967 5.01982 0
M  V30 8974 H 862.633 0.128033 0.729855 0
M  V30 8975 H 865.28 0.997117 1.63493 0
M  V30 8976 H 863.585 -0.279288 3.90803 0
M  V30 8977 H 865.282 0.0988609 4.00878 0
M  V30 8978 H 861.872 1.53251 4.00265 0
M  V30 8979 H 866.056 2.46453 4.30783 0
M  V30 8980 H 861.312 3.79026 4.79738 0
M  V30 8981 H 865.486 4.72475 5.11605 0
M  V30 8982 H 863.113 5.39291 5.35788 0
M  V30 8983 N 864.689 -1.48329 0.532571 0
M  V30 8984 C 865.919 -2.066 0.00353785 0
M  V30 8985 C 866.327 -1.38913 -1.28451 0
M  V30 8986 O 865.67 -0.471385 -1.77549 0
M  V30 8987 C 865.732 -3.58342 -0.288324 0
M  V30 8988 C 865.396 -4.47917 0.906631 0
M  V30 8989 C 866.393 -4.87534 1.80572 0
M  V30 8990 C 864.078 -4.89783 1.11436 0
M  V30 8991 C 866.072 -5.6779 2.89642 0
M  V30 8992 C 863.759 -5.69809 2.20819 0
M  V30 8993 C 864.757 -6.08721 3.09755 0
M  V30 8994 O 864.445 -6.8714 4.17246 0
M  V30 8995 H 864.177 -0.675263 0.0315661 0
M  V30 8996 H 866.731 -1.91669 0.738375 0
M  V30 8997 H 864.961 -3.71395 -1.07717 0
M  V30 8998 H 866.65 -3.98726 -0.759752 0
M  V30 8999 H 867.416 -4.5581 1.65719 0
M  V30 9000 H 863.295 -4.58977 0.431382 0
M  V30 9001 H 866.839 -5.98082 3.59087 0
M  V30 9002 H 862.736 -6.00947 2.35655 0
M  V30 9003 H 863.504 -7.05498 4.14988 0
M  V30 9004 N 866.167 -0.267825 -1.55308 0
M  V30 9005 C 867.413 0.351556 -1.9973 0
M  V30 9006 C 867.746 1.56049 -1.15596 0
M  V30 9007 O 867.021 1.93203 -0.224274 0
M  V30 9008 C 867.304 0.74091 -3.52395 0
M  V30 9009 C 867.157 -0.474861 -4.47286 0
M  V30 9010 C 868.476 1.5801 -4.10756 0
M  V30 9011 H 865.595 0.126308 -0.726096 0
M  V30 9012 H 868.237 -0.373316 -1.86296 0
M  V30 9013 H 866.387 1.35851 -3.63973 0
M  V30 9014 H 868.059 -1.1134 -4.47662 0
M  V30 9015 H 866.302 -1.11425 -4.19246 0
M  V30 9016 H 866.973 -0.158782 -5.51772 0
M  V30 9017 H 869.449 1.05857 -4.0241 0
M  V30 9018 H 868.325 1.82135 -5.17801 0
M  V30 9019 H 868.586 2.55878 -3.60526 0
M  V30 9020 N 867.645 1.57599 0.00500368 0
M  V30 9021 C 868.893 1.89973 0.68953 0
M  V30 9022 C 869.214 0.868531 1.7459 0
M  V30 9023 O 868.484 -0.0947367 1.95671 0
M  V30 9024 H 867.064 0.701153 0.25767 0
M  V30 9025 H 869.726 1.94869 -0.0347392 0
M  V30 9026 H 868.822 2.89584 1.16394 0
M  V30 9027 N 869.123 -0.277682 1.55134 0
M  V30 9028 C 870.371 -1.00791 1.75173 0
M  V30 9029 C 870.692 -1.86987 0.553266 0
M  V30 9030 O 869.962 -1.91079 -0.43195 0
M  V30 9031 H 868.542 -0.375129 0.645978 0
M  V30 9032 H 871.204 -0.303041 1.9253 0
M  V30 9033 H 870.3 -1.64756 2.6507 0
M  V30 9034 N 870.601 -1.47988 -0.541979 0
M  V30 9035 C 871.831 -1.58804 -1.32155 0
M  V30 9036 C 872.239 -0.242893 -1.87634 0
M  V30 9037 O 871.582 0.776239 -1.66494 0
M  V30 9038 C 871.644 -2.56567 -2.51821 0
M  V30 9039 C 871.308 -4.01915 -2.17517 0
M  V30 9040 C 872.305 -4.89954 -1.73901 0
M  V30 9041 C 869.99 -4.47365 -2.28408 0
M  V30 9042 C 871.984 -6.21467 -1.41625 0
M  V30 9043 C 869.671 -5.78902 -1.95745 0
M  V30 9044 C 870.669 -6.65775 -1.52423 0
M  V30 9045 O 870.357 -7.94866 -1.20183 0
M  V30 9046 H 870.089 -0.538536 -0.408601 0
M  V30 9047 H 872.643 -1.94446 -0.661818 0
M  V30 9048 H 870.873 -2.16023 -3.20735 0
M  V30 9049 H 872.562 -2.57347 -3.13891 0
M  V30 9050 H 873.328 -4.56082 -1.64966 0
M  V30 9051 H 869.207 -3.79942 -2.61084 0
M  V30 9052 H 872.751 -6.8923 -1.07738 0
M  V30 9053 H 868.648 -6.12311 -2.04316 0
M  V30 9054 H 869.416 -8.07509 -1.33683 0
M  V30 9055 N 872.079 0.78992 -1.36375 0
M  V30 9056 C 873.026 1.90254 -1.3066 0
M  V30 9057 C 873.996 1.65171 -0.17539 0
M  V30 9058 O 875.181 1.87338 -0.361824 0
M  V30 9059 C 872.321 3.27057 -1.10125 0
M  V30 9060 C 871.434 3.64215 -2.32317 0
M  V30 9061 C 870.569 4.90134 -2.04798 0
M  V30 9062 C 869.608 5.19969 -3.22953 0
M  V30 9063 N 868.745 6.37071 -2.95102 0
M  V30 9064 H 873.585 1.94474 -2.25796 0
M  V30 9065 H 871.122 0.951022 -1.12223 0
M  V30 9066 H 873.08 4.05947 -0.962453 0
M  V30 9067 H 871.71 3.22261 -0.186444 0
M  V30 9068 H 870.762 2.80454 -2.57002 0
M  V30 9069 H 872.074 3.82212 -3.20492 0
M  V30 9070 H 871.228 5.76888 -1.87845 0
M  V30 9071 H 869.967 4.74205 -1.13932 0
M  V30 9072 H 868.972 4.31699 -3.40465 0
M  V30 9073 H 870.197 5.37817 -4.14644 0
M  V30 9074 H 868.143 6.22535 -2.06848 0
M  V30 9075 H 868.06 6.55398 -3.76815 0
M  V30 9076 H 869.328 7.26808 -2.81727 0
M  V30 9077 N 873.557 1.20646 1.01402 0
M  V30 9078 C 874.973 0.961866 1.27359 0
M  V30 9079 C 875.173 -0.357083 1.98311 0
M  V30 9080 O 874.229 -1.08498 2.28001 0
M  V30 9081 C 875.542 2.14627 2.10609 0
M  V30 9082 C 877.09 2.18753 2.23866 0
M  V30 9083 C 877.565 3.36686 3.10494 0
M  V30 9084 N 879.056 3.36716 3.18083 0
M  V30 9085 C 879.791 4.24615 3.85343 0
M  V30 9086 N 879.287 5.22697 4.54708 0
M  V30 9087 N 881.08 4.12449 3.81893 0
M  V30 9088 H 873.231 2.05481 0.537721 0
M  V30 9089 H 875.494 0.899292 0.299963 0
M  V30 9090 H 875.2 3.10159 1.65814 0
M  V30 9091 H 875.074 2.12935 3.11349 0
M  V30 9092 H 877.461 1.23782 2.67885 0
M  V30 9093 H 877.542 2.24492 1.22626 0
M  V30 9094 H 877.186 4.31945 2.67181 0
M  V30 9095 H 877.116 3.28185 4.11828 0
M  V30 9096 H 879.607 2.65728 2.68695 0
M  V30 9097 H 879.92 5.86087 5.03708 0
M  V30 9098 H 878.265 5.26631 4.53525 0
M  V30 9099 H 881.456 3.35091 3.26851 0
M  V30 9100 H 881.629 4.81162 4.34035 0
M  V30 9101 N 875.035 -1.20752 1.01276 0
M  V30 9102 C 876.26 -1.94547 0.718769 0
M  V30 9103 C 876.685 -1.7404 -0.713563 0
M  V30 9104 O 876.043 -1.03221 -1.49047 0
M  V30 9105 C 876.091 -3.44823 1.05497 0
M  V30 9106 O 875.195 -4.12072 0.164516 0
M  V30 9107 H 874.536 -0.607931 0.267051 0
M  V30 9108 H 877.066 -1.53292 1.35509 0
M  V30 9109 H 877.076 -3.95427 1.00507 0
M  V30 9110 H 875.751 -3.59072 2.09858 0
M  V30 9111 H 874.328 -3.71909 0.271615 0
M  V30 9112 N 876.513 -0.788492 -1.36457 0
M  V30 9113 C 877.79 -0.284484 -1.9352 0
M  V30 9114 C 878.17 1.2232 -1.7205 0
M  V30 9115 O 877.518 2.01424 -1.07892 0
M  V30 9116 C 877.728 -0.676106 -3.42388 0
M  V30 9117 C 879.076 -0.655327 -4.19512 0
M  V30 9118 O 880.1 -0.616523 -3.50824 0
M  V30 9119 O 878.959 -0.697391 -5.42032 0
M  V30 9120 H 876.053 -0.0701769 -0.824017 0
M  V30 9121 H 878.599 -0.870974 -1.45644 0
M  V30 9122 H 877.371 -1.71596 -3.51668 0
M  V30 9123 H 876.994 -0.0634517 -3.97549 0
M  V30 9124 N 877.991 1.48044 -0.54043 0
M  V30 9125 C 878.924 2.26667 0.264083 0
M  V30 9126 C 879.902 1.32996 0.935456 0
M  V30 9127 O 881.086 1.62354 0.95778 0
M  V30 9128 C 878.213 3.09541 1.37485 0
M  V30 9129 C 877.259 4.18664 0.813792 0
M  V30 9130 S 878.092 5.34503 -0.326536 0
M  V30 9131 C 879.248 6.20939 0.786452 0
M  V30 9132 H 879.481 2.94554 -0.403129 0
M  V30 9133 H 877.014 1.5091 -0.326415 0
M  V30 9134 H 878.972 3.57863 2.01107 0
M  V30 9135 H 877.633 2.41048 2.01382 0
M  V30 9136 H 876.826 4.76316 1.6474 0
M  V30 9137 H 876.428 3.73136 0.254066 0
M  V30 9138 H 878.72 6.56273 1.68262 0
M  V30 9139 H 879.663 7.07667 0.247673 0
M  V30 9140 H 880.071 5.54236 1.07156 0
M  V30 9141 N 879.47 0.276058 1.55163 0
M  V30 9142 C 880.881 -0.221516 1.85381 0
M  V30 9143 C 881.232 -1.55372 1.19808 0
M  V30 9144 O 880.357 -2.10855 0.486742 0
M  V30 9145 C 880.952 -0.408706 3.36326 0
M  V30 9146 C 879.511 -0.850512 3.66665 0
M  V30 9147 C 878.658 0.055656 2.77244 0
M  V30 9148 H 881.609 0.497819 1.5069 0
M  V30 9149 H 881.63 -1.24711 3.59482 0
M  V30 9150 H 881.142 0.561052 3.84023 0
M  V30 9151 H 879.243 -1.83171 3.24468 0
M  V30 9152 H 879.356 -0.687181 4.74146 0
M  V30 9153 H 877.72 -0.460819 2.50497 0
M  V30 9154 H 878.503 1.02131 3.27756 0
M  V30 9155 N 880.948 -1.576 0.00335426 0
M  V30 9156 C 882.176 -1.94996 -0.691685 0
M  V30 9157 C 882.591 -0.878405 -1.67121 0
M  V30 9158 O 881.948 0.142343 -1.81944 0
M  V30 9159 C 881.999 -3.32416 -1.42063 0
M  V30 9160 O 881.72 -4.35458 -0.48038 0
M  V30 9161 C 883.221 -3.84291 -2.20987 0
M  V30 9162 H 880.441 -0.642814 -0.192434 0
M  V30 9163 H 882.985 -2.04425 0.0554706 0
M  V30 9164 H 881.14 -3.24285 -2.11939 0
M  V30 9165 H 881.554 -5.14975 -0.995054 0
M  V30 9166 H 883.028 -4.82863 -2.67483 0
M  V30 9167 H 883.505 -3.17174 -3.03805 0
M  V30 9168 H 884.111 -3.95609 -1.56121 0
M  V30 9169 N 882.426 0.269451 -1.5528 0
M  V30 9170 C 883.675 0.998381 -1.75258 0
M  V30 9171 C 883.988 1.87321 -0.563034 0
M  V30 9172 O 885.194 2.63719 -0.645313 0
M  V30 9173 C 883.65 1.82505 -3.10193 0
M  V30 9174 C 883.258 0.99871 -4.36726 0
M  V30 9175 C 885.002 2.54807 -3.3952 0
M  V30 9176 C 882.909 1.81997 -5.627 0
M  V30 9177 H 881.839 0.376488 -0.653278 0
M  V30 9178 H 884.49 0.253909 -1.81735 0
M  V30 9179 H 882.872 2.61061 -2.97763 0
M  V30 9180 H 884.046 0.257064 -4.60082 0
M  V30 9181 H 882.361 0.390074 -4.14569 0
M  V30 9182 H 884.958 3.16662 -4.30847 0
M  V30 9183 H 885.301 3.25273 -2.59813 0
M  V30 9184 H 885.834 1.83278 -3.53064 0
M  V30 9185 H 882.573 1.15945 -6.45164 0
M  V30 9186 H 882.093 2.53749 -5.43481 0
M  V30 9187 H 883.772 2.39274 -6.0113 0
M  V30 9188 N 883.904 1.48273 0.534124 0
M  V30 9189 C 885.129 1.59988 1.31979 0
M  V30 9190 C 885.554 0.258824 1.86311 0
M  V30 9191 O 884.912 -0.768885 1.64188 0
M  V30 9192 C 884.96 2.64642 2.44943 0
M  V30 9193 O 884.064 2.21515 3.47858 0
M  V30 9194 H 883.405 0.536625 0.391063 0
M  V30 9195 H 885.935 1.94229 0.643135 0
M  V30 9196 H 885.945 2.85786 2.91187 0
M  V30 9197 H 884.62 3.62004 2.04758 0
M  V30 9198 H 883.197 2.10567 3.0776 0
M  V30 9199 N 885.382 -0.782676 1.36792 0
M  V30 9200 C 886.332 -1.8855 1.28191 0
M  V30 9201 C 887.316 -1.59978 0.171984 0
M  V30 9202 O 888.508 -1.72295 0.405405 0
M  V30 9203 C 885.637 -3.25862 1.08021 0
M  V30 9204 C 884.723 -3.60422 2.2351 0
M  V30 9205 N 885.114 -3.66241 3.48857 0
M  V30 9206 C 883.412 -3.90523 2.15424 0
M  V30 9207 C 884.113 -3.97233 4.24948 0
M  V30 9208 N 883.089 -4.12567 3.53963 0
M  V30 9209 H 886.891 -1.91285 2.23131 0
M  V30 9210 H 884.405 -0.978554 1.29607 0
M  V30 9211 H 886.402 -4.04742 0.999458 0
M  V30 9212 H 885.062 -3.24399 0.139882 0
M  V30 9213 H 886.073 -3.48717 3.82906 0
M  V30 9214 H 882.75 -3.96945 1.29386 0
M  V30 9215 H 884.14 -4.08602 5.33379 0
M  V30 9216 N 886.86 -1.21182 -1.00761 0
M  V30 9217 C 888.106 -1.02898 -1.74756 0
M  V30 9218 C 888.439 0.436774 -1.89225 0
M  V30 9219 O 887.714 1.32415 -1.42466 0
M  V30 9220 C 887.997 -1.72372 -3.16164 0
M  V30 9221 C 887.85 -3.2645 -3.09435 0
M  V30 9222 C 889.169 -1.46415 -4.15031 0
M  V30 9223 H 886.288 -0.375214 -0.634337 0
M  V30 9224 H 888.93 -1.49321 -1.17487 0
M  V30 9225 H 887.08 -1.32906 -3.65059 0
M  V30 9226 H 888.752 -3.75269 -2.68274 0
M  V30 9227 H 886.995 -3.56889 -2.46603 0
M  V30 9228 H 887.666 -3.70226 -4.09435 0
M  V30 9229 H 890.142 -1.80671 -3.7483 0
M  V30 9230 H 889.018 -1.97544 -5.12121 0
M  V30 9231 H 889.279 -0.39361 -4.40344 0
M  V30 9232 N 888.338 1.20213 -1.01915 0
M  V30 9233 C 889.566 1.93622 -0.729255 0
M  V30 9234 C 889.981 1.74923 0.710444 0
M  V30 9235 O 889.338 1.06484 1.48214 0
M  V30 9236 C 889.389 3.45651 -1.05865 0
M  V30 9237 O 889.11 3.63741 -2.44181 0
M  V30 9238 C 890.611 4.36201 -0.790176 0
M  V30 9239 H 887.831 0.615333 -0.267594 0
M  V30 9240 H 890.375 1.52633 -1.36101 0
M  V30 9241 H 888.53 3.84511 -0.47225 0
M  V30 9242 H 888.944 4.57702 -2.56143 0
M  V30 9243 H 890.418 5.41516 -1.07071 0
M  V30 9244 H 890.895 4.38334 0.275609 0
M  V30 9245 H 891.501 4.03008 -1.35885 0
M  V30 9246 N 889.816 0.795718 1.36037 0
M  V30 9247 C 891.062 0.371574 1.99367 0
M  V30 9248 C 891.395 -1.0557 1.62999 0
M  V30 9249 O 890.67 -1.73051 0.887895 0
M  V30 9250 C 890.953 0.542622 3.55988 0
M  V30 9251 C 890.806 2.01404 4.0219 0
M  V30 9252 C 892.125 -0.0384527 4.40083 0
M  V30 9253 H 889.244 0.136483 0.724252 0
M  V30 9254 H 891.886 1.00323 1.61355 0
M  V30 9255 H 890.036 0.0049053 3.885 0
M  V30 9256 H 891.708 2.6133 3.80137 0
M  V30 9257 H 889.951 2.51439 3.53498 0
M  V30 9258 H 890.622 2.08466 5.11122 0
M  V30 9259 H 893.098 0.420634 4.13968 0
M  V30 9260 H 891.974 0.111214 5.48787 0
M  V30 9261 H 892.235 -1.13116 4.27384 0
M  V30 9262 N 891.294 -1.47756 0.548274 0
M  V30 9263 C 892.242 -2.3158 -0.217584 0
M  V30 9264 C 893.236 -1.42372 -0.917957 0
M  V30 9265 O 894.442 -1.59184 -0.840259 0
M  V30 9266 H 890.817 -0.74671 -0.0890388 0
M  V30 9267 H 892.788 -2.94032 0.508719 0
M  V30 9268 C 891.537 -3.24834 -1.24008 0
M  V30 9269 H 890.86 -3.93435 -0.710572 0
M  V30 9270 H 892.3 -3.86336 -1.74701 0
M  V30 9271 C 890.759 -2.47724 -2.2833 0
M  V30 9272 O 891.289 -2.21522 -3.35098 0
M  V30 9273 N 889.495 -2.08891 -2.02022 0
M  V30 9274 H 889.042 -2.30401 -1.1521 0
M  V30 9275 H 889 -1.57613 -2.7204 0
M  V30 9276 N 892.772 -0.284283 -1.55015 0
M  V30 9277 C 893.72 0.615091 -2.2432 0
M  V30 9278 C 894.714 1.15051 -1.24337 0
M  V30 9279 O 895.92 1.10308 -1.4224 0
M  V30 9280 H 892.295 0.216927 -0.720033 0
M  V30 9281 H 894.266 0.00783216 -2.98399 0
M  V30 9282 C 893.015 1.78355 -2.98471 0
M  V30 9283 H 892.338 1.38076 -3.752 0
M  V30 9284 H 893.778 2.38927 -3.50271 0
M  V30 9285 C 892.237 2.67757 -2.04469 0
M  V30 9286 O 892.767 3.6838 -1.60185 0
M  V30 9287 N 890.973 2.35125 -1.70776 0
M  V30 9288 H 890.52 1.53346 -2.06985 0
M  V30 9289 H 890.478 2.95212 -1.08153 0
M  V30 9290 N 894.251 1.57596 -0.0117121 0
M  V30 9291 C 895.497 1.91355 0.671661 0
M  V30 9292 C 895.83 0.886818 1.72769 0
M  V30 9293 O 895.105 -0.0928813 1.94278 0
M  V30 9294 C 895.388 3.35657 1.30409 0
M  V30 9295 C 895.241 4.49055 0.2588 0
M  V30 9296 C 896.56 3.79595 2.22701 0
M  V30 9297 H 893.679 0.695893 0.242698 0
M  V30 9298 H 896.321 1.89887 -0.0654071 0
M  V30 9299 H 894.471 3.37038 1.9323 0
M  V30 9300 H 896.143 4.59809 -0.370631 0
M  V30 9301 H 894.386 4.31785 -0.417672 0
M  V30 9302 H 895.057 5.4701 0.740578 0
M  V30 9303 H 897.533 3.7984 1.69885 0
M  V30 9304 H 896.409 4.81292 2.63912 0
M  V30 9305 H 896.67 3.14118 3.11098 0
M  V30 9306 N 895.729 -0.261212 1.5542 0
M  V30 9307 C 896.659 -1.32712 1.92119 0
M  V30 9308 C 897.64 -1.50934 0.784406 0
M  V30 9309 O 898.825 -1.63781 1.04352 0
M  V30 9310 C 895.955 -2.68453 2.20341 0
M  V30 9311 C 894.909 -2.64947 3.36136 0
M  V30 9312 C 894.235 -4.04349 3.49865 0
M  V30 9313 C 895.535 -2.23182 4.72215 0
M  V30 9314 H 897.229 -1.02245 2.81401 0
M  V30 9315 H 894.775 -0.490406 1.35392 0
M  V30 9316 H 896.728 -3.43144 2.44603 0
M  V30 9317 H 895.452 -3.00527 1.27871 0
M  V30 9318 H 894.111 -1.92714 3.11861 0
M  V30 9319 H 893.759 -4.33665 2.5484 0
M  V30 9320 H 893.459 -4.02895 4.27726 0
M  V30 9321 H 894.983 -4.80761 3.76432 0
M  V30 9322 H 896.397 -2.87599 4.95943 0
M  V30 9323 H 894.794 -2.32867 5.53076 0
M  V30 9324 H 895.864 -1.18327 4.70241 0
M  V30 9325 N 897.207 -1.48554 -0.526253 0
M  V30 9326 C 898.137 -1.66252 -1.63959 0
M  V30 9327 C 899.118 -0.511351 -1.62232 0
M  V30 9328 O 900.303 -0.744322 -1.7937 0
M  V30 9329 C 897.433 -1.70556 -3.02536 0
M  V30 9330 C 896.387 -2.8521 -3.19123 0
M  V30 9331 C 895.713 -2.74606 -4.58798 0
M  V30 9332 C 897.013 -4.26463 -3.0154 0
M  V30 9333 H 898.707 -2.59459 -1.49404 0
M  V30 9334 H 896.253 -1.24862 -0.717326 0
M  V30 9335 H 898.206 -1.81524 -3.80298 0
M  V30 9336 H 896.93 -0.739297 -3.18123 0
M  V30 9337 H 895.589 -2.73802 -2.43779 0
M  V30 9338 H 895.237 -1.75941 -4.71226 0
M  V30 9339 H 894.937 -3.51544 -4.70841 0
M  V30 9340 H 896.461 -2.87548 -5.38655 0
M  V30 9341 H 897.875 -4.38685 -3.69091 0
M  V30 9342 H 896.272 -5.04428 -3.25073 0
M  V30 9343 H 897.342 -4.42667 -1.97925 0
M  V30 9344 N 898.685 0.775411 -1.37205 0
M  V30 9345 C 899.915 1.56219 -1.352 0
M  V30 9346 C 900.323 1.89087 0.065456 0
M  V30 9347 O 899.666 1.51655 1.03665 0
M  V30 9348 C 899.728 2.9019 -2.12203 0
M  V30 9349 C 899.392 2.79978 -3.61195 0
M  V30 9350 C 900.389 2.51258 -4.55154 0
M  V30 9351 C 898.074 2.98115 -4.04268 0
M  V30 9352 C 900.068 2.40798 -5.90165 0
M  V30 9353 C 897.755 2.87276 -5.39366 0
M  V30 9354 C 898.753 2.58657 -6.32128 0
M  V30 9355 O 898.441 2.47838 -7.64743 0
M  V30 9356 H 898.173 0.490735 -0.464925 0
M  V30 9357 H 900.727 0.969201 -1.81096 0
M  V30 9358 H 898.957 3.51594 -1.60992 0
M  V30 9359 H 900.646 3.51561 -2.02879 0
M  V30 9360 H 901.412 2.36935 -4.23186 0
M  V30 9361 H 897.291 3.19392 -3.3243 0
M  V30 9362 H 900.835 2.18381 -6.62537 0
M  V30 9363 H 896.732 3.01166 -5.70937 0
M  V30 9364 H 897.5 2.63215 -7.75023 0
M  V30 9365 N 900.163 1.21714 1.00117 0
M  V30 9366 C 901.111 0.976937 2.11089 0
M  V30 9367 C 902.105 -0.0771295 1.69224 0
M  V30 9368 O 903.311 0.0745945 1.79845 0
M  V30 9369 H 899.686 0.298687 0.690138 0
M  V30 9370 H 901.657 1.91881 2.28526 0
M  V30 9371 C 900.406 0.562369 3.43122 0
M  V30 9372 H 899.729 1.36509 3.75773 0
M  V30 9373 H 901.169 0.433642 4.21777 0
M  V30 9374 C 899.628 -0.727148 3.28959 0
M  V30 9375 O 900.158 -1.78171 3.60025 0
M  V30 9376 N 898.364 -0.695129 2.82164 0
M  V30 9377 H 897.911 0.163346 2.57082 0
M  V30 9378 H 897.869 -1.55822 2.73069 0
M  V30 9379 N 901.641 -1.19671 1.02551 0
M  V30 9380 C 903.057 -1.41305 0.741963 0
M  V30 9381 C 903.257 -1.89865 -0.674807 0
M  V30 9382 O 902.313 -2.07323 -1.44129 0
M  V30 9383 C 903.626 -2.42706 1.77522 0
M  V30 9384 C 905.174 -2.56458 1.79438 0
M  V30 9385 C 905.649 -3.61111 2.81715 0
M  V30 9386 N 907.14 -3.68603 2.8051 0
M  V30 9387 C 907.875 -4.49262 3.56302 0
M  V30 9388 N 907.371 -5.33653 4.41799 0
M  V30 9389 N 909.164 -4.43879 3.44859 0
M  V30 9390 H 901.315 -0.8647 1.94002 0
M  V30 9391 H 903.578 -0.442206 0.838545 0
M  V30 9392 H 903.284 -2.14042 2.79068 0
M  V30 9393 H 903.158 -3.41831 1.59472 0
M  V30 9394 H 905.545 -2.84447 0.78573 0
M  V30 9395 H 905.626 -1.57499 2.01563 0
M  V30 9396 H 905.27 -3.33864 3.82749 0
M  V30 9397 H 905.2 -4.59713 2.56849 0
M  V30 9398 H 907.691 -3.08329 2.18498 0
M  V30 9399 H 908.004 -5.92308 4.96378 0
M  V30 9400 H 906.349 -5.33125 4.45873 0
M  V30 9401 H 909.54 -3.7699 2.77482 0
M  V30 9402 H 909.713 -5.06501 4.04179 0
M  V30 9403 N 903.119 -0.802921 -1.35613 0
M  V30 9404 C 904.051 -0.168461 -2.2858 0
M  V30 9405 C 905.064 0.630123 -1.50111 0
M  V30 9406 O 906.253 0.463086 -1.72388 0
M  V30 9407 C 903.353 0.783943 -3.29708 0
M  V30 9408 C 902.526 0.0325165 -4.37388 0
M  V30 9409 C 901.585 0.902859 -5.18396 0
M  V30 9410 O 900.611 0.355144 -5.68091 0
M  V30 9411 N 901.813 2.22542 -5.36149 0
M  V30 9412 H 904.578 -0.96709 -2.83668 0
M  V30 9413 H 902.139 -0.658043 -1.47924 0
M  V30 9414 H 904.131 1.37034 -3.80794 0
M  V30 9415 H 902.701 1.48339 -2.75162 0
M  V30 9416 H 901.921 -0.735057 -3.87286 0
M  V30 9417 H 903.209 -0.485499 -5.06478 0
M  V30 9418 H 902.607 2.69439 -4.97412 0
M  V30 9419 H 901.164 2.76113 -5.90428 0
M  V30 9420 N 904.597 1.47463 -0.556102 0
M  V30 9421 C 905.527 2.32801 0.180497 0
M  V30 9422 C 906.508 1.43721 0.909848 0
M  V30 9423 O 907.693 1.72578 0.89053 0
M  V30 9424 C 904.823 3.25478 1.21167 0
M  V30 9425 C 903.777 4.2379 0.598846 0
M  V30 9426 C 903.103 5.05783 1.73457 0
M  V30 9427 C 904.403 5.20387 -0.446659 0
M  V30 9428 H 906.097 2.94636 -0.531956 0
M  V30 9429 H 903.643 1.41683 -0.257267 0
M  V30 9430 H 905.596 3.8402 1.73513 0
M  V30 9431 H 904.32 2.61695 1.95405 0
M  V30 9432 H 902.979 3.66472 0.0966897 0
M  V30 9433 H 902.627 4.38405 2.46596 0
M  V30 9434 H 902.327 5.72343 1.33031 0
M  V30 9435 H 903.851 5.67183 2.26131 0
M  V30 9436 H 905.265 5.73299 -0.00930019 0
M  V30 9437 H 903.662 5.95143 -0.769735 0
M  V30 9438 H 904.732 4.65932 -1.34295 0
M  V30 9439 N 906.075 0.2925 1.54862 0
M  V30 9440 C 907.023 -0.603186 2.24643 0
M  V30 9441 C 908.017 -1.1439 1.24946 0
M  V30 9442 O 909.223 -1.09552 1.42823 0
M  V30 9443 H 905.598 -0.213105 0.721173 0
M  V30 9444 H 907.569 0.00799278 2.98399 0
M  V30 9445 C 906.318 -1.76769 2.99413 0
M  V30 9446 H 905.641 -1.36084 3.75927 0
M  V30 9447 H 907.081 -2.37066 3.51533 0
M  V30 9448 C 905.54 -2.66669 2.05886 0
M  V30 9449 O 906.07 -3.67525 1.62136 0
M  V30 9450 N 904.276 -2.34216 1.7202 0
M  V30 9451 H 903.823 -1.52246 2.07795 0
M  V30 9452 H 903.781 -2.94635 1.09717 0
M  V30 9453 N 907.553 -1.57587 0.0200696 0
M  V30 9454 C 908.516 -2.08595 -0.949767 0
M  V30 9455 C 909.516 -0.999215 -1.25985 0
M  V30 9456 O 910.706 -1.26115 -1.2017 0
M  V30 9457 C 907.838 -2.54424 -2.26895 0
M  V30 9458 H 909.031 -2.95563 -0.508161 0
M  V30 9459 H 906.584 -1.54631 -0.227798 0
M  V30 9460 H 907.319 -1.70758 -2.75703 0
M  V30 9461 H 907.104 -3.3381 -2.05702 0
M  V30 9462 H 908.594 -2.94144 -2.96427 0
M  V30 9463 N 909.032 0.252966 -1.55557 0
M  V30 9464 C 909.942 1.33472 -1.92931 0
M  V30 9465 C 910.958 1.52983 -0.828985 0
M  V30 9466 O 912.134 1.66723 -1.12984 0
M  V30 9467 C 909.199 2.6704 -2.21112 0
M  V30 9468 C 908.26 2.56103 -3.44542 0
M  V30 9469 C 907.493 3.83302 -3.71369 0
M  V30 9470 O 907.716 4.84907 -3.00368 0
M  V30 9471 O 906.65 3.823 -4.64898 0
M  V30 9472 H 910.476 1.04768 -2.85057 0
M  V30 9473 H 908.061 0.453208 -1.4236 0
M  V30 9474 H 909.943 3.45981 -2.40572 0
M  V30 9475 H 908.618 2.95489 -1.32166 0
M  V30 9476 H 907.525 1.7547 -3.30396 0
M  V30 9477 H 908.858 2.32601 -4.33772 0
M  V30 9478 N 910.51 1.48831 0.518367 0
M  V30 9479 C 911.42 1.6692 1.64848 0
M  V30 9480 C 912.436 0.551711 1.65022 0
M  V30 9481 O 913.612 0.824251 1.83761 0
M  V30 9482 C 910.677 1.71559 3.01278 0
M  V30 9483 C 909.738 2.9502 3.11868 0
M  V30 9484 C 908.971 2.99428 4.4179 0
M  V30 9485 O 909.194 2.11914 5.29574 0
M  V30 9486 O 908.128 3.91719 4.5699 0
M  V30 9487 H 911.954 2.62623 1.52521 0
M  V30 9488 H 909.539 1.32368 0.692749 0
M  V30 9489 H 911.421 1.77064 3.82396 0
M  V30 9490 H 910.096 0.790316 3.13904 0
M  V30 9491 H 909.003 2.95042 2.30003 0
M  V30 9492 H 910.336 3.8697 3.04163 0
M  V30 9493 N 911.988 -0.768124 1.37614 0
M  V30 9494 C 913.237 -1.5221 1.32345 0
M  V30 9495 C 913.55 -1.95399 -0.0885761 0
M  V30 9496 O 914.756 -2.70216 -0.263752 0
M  V30 9497 C 913.212 -2.74872 2.32322 0
M  V30 9498 C 912.82 -2.38767 3.79071 0
M  V30 9499 C 914.564 -3.52805 2.36069 0
M  V30 9500 C 912.471 -3.57953 4.7077 0
M  V30 9501 H 911.401 -0.571461 0.491883 0
M  V30 9502 H 914.052 -0.841004 1.63093 0
M  V30 9503 H 912.434 -3.44889 1.94596 0
M  V30 9504 H 913.608 -1.7651 4.25654 0
M  V30 9505 H 911.923 -1.74 3.78303 0
M  V30 9506 H 914.52 -4.41397 3.01782 0
M  V30 9507 H 914.863 -3.92925 1.37535 0
M  V30 9508 H 915.396 -2.89788 2.72521 0
M  V30 9509 H 912.135 -3.22911 5.70446 0
M  V30 9510 H 911.655 -4.19302 4.28889 0
M  V30 9511 H 913.334 -4.2472 4.8808 0
M  V30 9512 N 913.466 -1.22244 -0.994698 0
M  V30 9513 C 914.882 -0.982006 -1.25813 0
M  V30 9514 C 915.082 0.325488 -1.98854 0
M  V30 9515 O 914.138 1.04857 -2.29698 0
M  V30 9516 C 915.451 -2.1795 -2.07167 0
M  V30 9517 C 916.999 -2.22287 -2.20358 0
M  V30 9518 C 917.474 -3.41583 -3.05098 0
M  V30 9519 N 918.965 -3.41734 -3.12686 0
M  V30 9520 C 919.7 -4.30692 -3.78539 0
M  V30 9521 N 919.196 -5.29865 -4.46335 0
M  V30 9522 N 920.989 -4.18473 -3.75283 0
M  V30 9523 H 913.14 -2.0631 -0.504963 0
M  V30 9524 H 915.403 -0.90395 -0.285618 0
M  V30 9525 H 915.109 -3.12758 -1.60858 0
M  V30 9526 H 914.983 -2.17862 -3.07922 0
M  V30 9527 H 917.37 -1.28028 -2.65881 0
M  V30 9528 H 917.451 -2.26414 -1.19039 0
M  V30 9529 H 917.095 -4.36141 -2.60275 0
M  V30 9530 H 917.025 -3.34695 -4.06555 0
M  V30 9531 H 919.516 -2.69969 -2.64433 0
M  V30 9532 H 919.829 -5.94027 -4.9432 0
M  V30 9533 H 918.174 -5.3378 -4.45089 0
M  V30 9534 H 921.365 -3.40249 -3.21478 0
M  V30 9535 H 921.538 -4.88007 -4.26326 0
M  V30 9536 N 914.944 1.19125 -1.03184 0
M  V30 9537 C 916.172 1.92838 -0.74975 0
M  V30 9538 C 916.587 1.75667 0.691851 0
M  V30 9539 O 915.944 1.0805 1.47076 0
M  V30 9540 C 915.995 3.44509 -1.09525 0
M  V30 9541 O 915.716 3.6113 -2.48025 0
M  V30 9542 C 917.217 4.35338 -0.836397 0
M  V30 9543 H 914.437 0.61246 -0.274105 0
M  V30 9544 H 916.981 1.5118 -1.37712 0
M  V30 9545 H 915.136 3.83988 -0.513006 0
M  V30 9546 H 915.55 4.54959 -2.60984 0
M  V30 9547 H 917.024 5.4035 -1.12808 0
M  V30 9548 H 917.501 4.38602 0.229102 0
M  V30 9549 H 918.107 4.01544 -1.40152 0
M  V30 9550 N 916.422 0.810101 1.35185 0
M  V30 9551 C 917.352 0.237453 2.32289 0
M  V30 9552 C 918.333 -0.639032 1.5764 0
M  V30 9553 O 919.518 -0.568575 1.8569 0
M  V30 9554 C 916.648 -0.611964 3.41866 0
M  V30 9555 C 915.602 0.166318 4.27677 0
M  V30 9556 C 914.928 -0.805024 5.28605 0
M  V30 9557 C 916.228 1.36729 5.04086 0
M  V30 9558 H 917.922 1.04874 2.80432 0
M  V30 9559 H 915.468 0.505751 1.34826 0
M  V30 9560 H 917.421 -1.02267 4.08802 0
M  V30 9561 H 916.145 -1.45617 2.92341 0
M  V30 9562 H 914.804 0.558238 3.62325 0
M  V30 9563 H 914.452 -1.64483 4.75347 0
M  V30 9564 H 914.152 -0.288577 5.86891 0
M  V30 9565 H 915.676 -1.21386 5.98413 0
M  V30 9566 H 917.09 1.03128 5.63948 0
M  V30 9567 H 915.487 1.81848 5.71884 0
M  V30 9568 H 916.557 2.15214 4.34524 0
M  V30 9569 N 917.9 -1.47166 0.563914 0
M  V30 9570 C 919.147 -2.02456 0.042371 0
M  V30 9571 C 919.475 -1.43753 -1.31016 0
M  V30 9572 O 918.73 -0.585287 -1.86743 0
M  V30 9573 C 919.029 -3.57279 -0.0931797 0
M  V30 9574 C 918.695 -4.34932 1.18933 0
M  V30 9575 C 917.357 -4.55867 1.54073 0
M  V30 9576 C 919.709 -4.79665 2.03889 0
M  V30 9577 C 917.037 -5.18785 2.74005 0
M  V30 9578 C 919.389 -5.43907 3.23029 0
M  V30 9579 C 918.053 -5.63074 3.58475 0
M  V30 9580 H 917.323 -0.740838 0.0155047 0
M  V30 9581 H 919.97 -1.76759 0.736776 0
M  V30 9582 H 918.275 -3.82005 -0.870596 0
M  V30 9583 H 919.972 -3.97716 -0.512176 0
M  V30 9584 H 916.562 -4.18921 0.905718 0
M  V30 9585 H 920.746 -4.63264 1.78046 0
M  V30 9586 H 916.002 -5.31818 3.01628 0
M  V30 9587 H 920.176 -5.77531 3.89141 0
M  V30 9588 H 917.803 -6.11598 4.515 0
M  V30 9589 N 919.378 -0.300708 -1.54705 0
M  V30 9590 C 920.308 0.568675 -2.26469 0
M  V30 9591 C 921.289 1.13817 -1.26411 0
M  V30 9592 O 922.474 1.16756 -1.55183 0
M  V30 9593 C 919.604 1.74077 -3.00524 0
M  V30 9594 C 918.558 1.30165 -4.07727 0
M  V30 9595 C 917.884 2.55888 -4.69495 0
M  V30 9596 C 919.184 0.433106 -5.20501 0
M  V30 9597 H 920.878 -0.0298851 -2.99385 0
M  V30 9598 H 918.424 -0.0158135 -1.43991 0
M  V30 9599 H 920.377 2.35506 -3.49449 0
M  V30 9600 H 919.101 2.36556 -2.25186 0
M  V30 9601 H 917.76 0.710414 -3.59651 0
M  V30 9602 H 917.408 3.16681 -3.90797 0
M  V30 9603 H 917.108 2.27207 -5.41895 0
M  V30 9604 H 918.632 3.18121 -5.21183 0
M  V30 9605 H 920.046 0.95307 -5.65322 0
M  V30 9606 H 918.443 0.240085 -5.9962 0
M  V30 9607 H 919.513 -0.541866 -4.81863 0
M  V30 9608 N 920.856 1.57574 -0.0284266 0
M  V30 9609 C 922.081 1.96479 0.664137 0
M  V30 9610 C 922.506 0.904826 1.64908 0
M  V30 9611 O 921.864 -0.134339 1.80802 0
M  V30 9612 C 921.912 3.34479 1.34745 0
M  V30 9613 O 921.016 3.30794 2.46271 0
M  V30 9614 H 920.357 0.640654 0.174524 0
M  V30 9615 H 922.887 2.04402 -0.0900729 0
M  V30 9616 H 922.897 3.70694 1.7044 0
M  V30 9617 H 921.572 4.1117 0.625468 0
M  V30 9618 H 920.149 3.06294 2.12693 0
M  V30 9619 N 922.334 -0.244713 1.55689 0
M  V30 9620 C 923.266 -1.32595 1.86952 0
M  V30 9621 C 924.279 -1.44185 0.755948 0
M  V30 9622 O 925.468 -1.45496 1.03408 0
M  V30 9623 C 922.568 -2.70429 2.04258 0
M  V30 9624 C 921.741 -2.8108 3.35131 0
M  V30 9625 C 920.8 -3.99773 3.42152 0
M  V30 9626 O 919.826 -3.89197 4.15348 0
M  V30 9627 N 921.028 -5.13041 2.71604 0
M  V30 9628 H 923.793 -1.06111 2.80287 0
M  V30 9629 H 921.354 -0.434811 1.55952 0
M  V30 9630 H 923.346 -3.48173 2.06295 0
M  V30 9631 H 921.916 -2.89612 1.17658 0
M  V30 9632 H 921.136 -1.89994 3.45392 0
M  V30 9633 H 922.424 -2.85147 4.21389 0
M  V30 9634 H 921.822 -5.24525 2.11872 0
M  V30 9635 H 920.379 -5.88912 2.79331 0
M  V30 9636 N 923.813 -1.49104 -0.510467 0
M  V30 9637 C 925.09 -1.48609 -1.27179 0
M  V30 9638 C 925.47 -0.208537 -2.10067 0
M  V30 9639 O 924.818 0.809335 -2.13687 0
M  V30 9640 C 925.028 -2.75953 -2.1366 0
M  V30 9641 C 926.376 -3.25067 -2.73161 0
M  V30 9642 O 927.4 -2.77005 -2.23934 0
M  V30 9643 O 926.259 -4.08747 -3.62751 0
M  V30 9644 H 923.353 -0.594374 -0.57502 0
M  V30 9645 H 925.899 -1.61358 -0.525515 0
M  V30 9646 H 924.671 -3.60434 -1.52325 0
M  V30 9647 H 924.294 -2.66019 -2.95499 0
M  V30 9648 N 925.291 0.760815 -1.38019 0
M  V30 9649 C 926.221 1.88811 -1.37377 0
M  V30 9650 C 927.202 1.68388 -0.240737 0
M  V30 9651 O 928.387 1.89086 -0.442739 0
M  V30 9652 C 925.517 3.26244 -1.1909 0
M  V30 9653 C 924.471 3.61254 -2.29521 0
M  V30 9654 C 923.797 4.97346 -1.96345 0
M  V30 9655 C 925.097 3.66874 -3.71753 0
M  V30 9656 H 926.791 1.89606 -2.31711 0
M  V30 9657 H 924.337 0.910818 -1.11535 0
M  V30 9658 H 926.29 4.04755 -1.17267 0
M  V30 9659 H 925.014 3.2591 -0.212152 0
M  V30 9660 H 923.673 2.85057 -2.30517 0
M  V30 9661 H 923.321 4.93564 -0.969728 0
M  V30 9662 H 923.021 5.21739 -2.703 0
M  V30 9663 H 924.545 5.78244 -1.96129 0
M  V30 9664 H 925.959 4.35514 -3.72828 0
M  V30 9665 H 924.356 4.02772 -4.44853 0
M  V30 9666 H 925.426 2.67273 -4.0459 0
M  V30 9667 N 926.769 1.22769 0.988202 0
M  V30 9668 C 928.018 1.0492 1.72263 0
M  V30 9669 C 928.331 -0.415282 1.91141 0
M  V30 9670 O 929.537 -0.713547 2.61956 0
M  V30 9671 C 927.993 1.82891 3.09966 0
M  V30 9672 C 927.601 3.33618 2.99003 0
M  V30 9673 C 929.345 1.73505 3.87423 0
M  V30 9674 C 927.252 4.04012 4.3189 0
M  V30 9675 H 926.182 0.38899 0.645912 0
M  V30 9676 H 928.833 1.46664 1.10281 0
M  V30 9677 H 927.215 1.33948 3.72658 0
M  V30 9678 H 928.389 3.8999 2.45448 0
M  V30 9679 H 926.704 3.43732 2.35027 0
M  V30 9680 H 929.301 2.23416 4.85787 0
M  V30 9681 H 929.644 0.696344 4.10435 0
M  V30 9682 H 930.177 2.20016 3.31418 0
M  V30 9683 H 926.916 5.08155 4.14075 0
M  V30 9684 H 926.436 3.52428 4.8534 0
M  V30 9685 H 928.115 4.0987 5.00615 0
M  V30 9686 N 928.247 -1.18576 1.03814 0
M  V30 9687 C 929.495 -1.88121 0.738574 0
M  V30 9688 C 929.816 -1.80587 -0.735744 0
M  V30 9689 O 929.086 -1.22251 -1.53074 0
M  V30 9690 H 927.666 -0.696417 0.270208 0
M  V30 9691 H 930.328 -1.43912 1.31435 0
M  V30 9692 H 929.424 -2.94222 1.04115 0
M  V30 9693 N 929.725 -0.817259 -1.34754 0
M  V30 9694 C 930.953 -0.415451 -2.02686 0
M  V30 9695 C 931.368 0.97688 -1.61563 0
M  V30 9696 O 930.725 1.63125 -0.818321 0
M  V30 9697 C 930.776 -0.501486 -3.58005 0
M  V30 9698 O 930.497 -1.83893 -3.97637 0
M  V30 9699 C 931.998 -0.0938504 -4.43201 0
M  V30 9700 H 929.218 -0.16742 -0.649778 0
M  V30 9701 H 931.762 -1.10384 -1.7215 0
M  V30 9702 H 929.917 0.138766 -3.87151 0
M  V30 9703 H 930.331 -1.8092 -4.92309 0
M  V30 9704 H 931.805 -0.205145 -5.51619 0
M  V30 9705 H 932.282 0.962011 -4.28535 0
M  V30 9706 H 932.888 -0.707677 -4.19371 0
M  V30 9707 N 931.203 1.46865 -0.571711 0
M  V30 9708 C 932.113 2.33979 0.170571 0
M  V30 9709 C 933.129 1.49083 0.897239 0
M  V30 9710 O 934.305 1.81979 0.862888 0
M  V30 9711 C 931.37 3.26063 1.17831 0
M  V30 9712 C 930.431 4.26855 0.457499 0
M  V30 9713 C 929.664 5.14539 1.41722 0
M  V30 9714 O 929.887 5.04945 2.65305 0
M  V30 9715 O 928.821 5.94612 0.9338 0
M  V30 9716 H 932.647 2.98781 -0.544396 0
M  V30 9717 H 930.232 1.4566 -0.332198 0
M  V30 9718 H 932.114 3.82903 1.75965 0
M  V30 9719 H 930.789 2.63871 1.87493 0
M  V30 9720 H 929.696 3.73734 -0.165406 0
M  V30 9721 H 931.029 4.91802 -0.197953 0
M  V30 9722 N 932.681 0.308908 1.54543 0
M  V30 9723 C 933.644 -0.550857 2.22482 0
M  V30 9724 C 934.644 -1.0551 1.21344 0
M  V30 9725 O 935.834 -0.949866 1.46025 0
M  V30 9726 C 932.966 -1.76354 2.9174 0
M  V30 9727 H 934.159 0.0428395 2.99869 0
M  V30 9728 H 931.712 0.059825 1.56185 0
M  V30 9729 H 932.447 -2.39686 2.18451 0
M  V30 9730 H 932.232 -1.40954 3.65889 0
M  V30 9731 H 933.722 -2.37417 3.43545 0
M  V30 9732 N 934.159 -1.57557 0.0367827 0
M  V30 9733 C 935.109 -2.07182 -0.95183 0
M  V30 9734 C 936.093 -0.973921 -1.28076 0
M  V30 9735 O 937.285 -1.23741 -1.26559 0
M  V30 9736 C 934.414 -2.60869 -2.23164 0
M  V30 9737 C 933.5 -3.77602 -1.93074 0
M  V30 9738 N 933.891 -4.87923 -1.33283 0
M  V30 9739 C 932.189 -3.86234 -2.23023 0
M  V30 9740 C 932.89 -5.69083 -1.20498 0
M  V30 9741 N 931.866 -5.16233 -1.70306 0
M  V30 9742 H 935.668 -2.89876 -0.484647 0
M  V30 9743 H 933.182 -1.61528 -0.16804 0
M  V30 9744 H 935.179 -2.94716 -2.9487 0
M  V30 9745 H 933.839 -1.79607 -2.70502 0
M  V30 9746 H 934.85 -5.08018 -1.00686 0
M  V30 9747 H 931.527 -3.15891 -2.72981 0
M  V30 9748 H 932.917 -6.6779 -0.741999 0
M  V30 9749 N 935.637 0.236453 -1.55816 0
M  V30 9750 C 936.57 1.3196 -1.86177 0
M  V30 9751 C 937.548 1.459 -0.717769 0
M  V30 9752 O 938.732 1.61949 -0.964606 0
M  V30 9753 C 935.859 2.69183 -2.05568 0
M  V30 9754 C 934.905 2.72338 -3.28229 0
M  V30 9755 S 935.738 2.27898 -4.84585 0
M  V30 9756 C 936.894 3.67025 -5.06994 0
M  V30 9757 H 937.127 1.06011 -2.77757 0
M  V30 9758 H 934.66 0.437961 -1.48058 0
M  V30 9759 H 936.618 3.48191 -2.17423 0
M  V30 9760 H 935.279 2.92365 -1.14811 0
M  V30 9761 H 934.472 3.7314 -3.38795 0
M  V30 9762 H 934.074 2.01382 -3.15153 0
M  V30 9763 H 936.366 4.62604 -4.94979 0
M  V30 9764 H 937.309 3.61385 -6.08939 0
M  V30 9765 H 937.717 3.60022 -4.34792 0
M  V30 9766 N 937.115 1.49373 0.502552 0
M  V30 9767 C 938.392 1.49282 1.26389 0
M  V30 9768 C 938.772 0.219674 2.09954 0
M  V30 9769 O 938.12 -0.797991 2.14113 0
M  V30 9770 C 938.33 2.77083 2.12194 0
M  V30 9771 C 939.678 3.26511 2.71433 0
M  V30 9772 O 940.702 2.78189 2.22462 0
M  V30 9773 O 939.561 4.10665 3.60578 0
M  V30 9774 H 936.655 0.597415 0.57186 0
M  V30 9775 H 939.201 1.61634 0.516951 0
M  V30 9776 H 937.973 3.61237 1.50411 0
M  V30 9777 H 937.596 2.67583 2.94084 0
M  V30 9778 N 938.594 -0.753485 1.38421 0
M  V30 9779 C 939.819 -1.54783 1.38047 0
M  V30 9780 C 940.244 -1.8808 -0.0276371 0
M  V30 9781 O 939.602 -1.5058 -1.00973 0
M  V30 9782 C 939.65 -2.82353 2.24297 0
M  V30 9783 O 938.754 -3.77509 1.66014 0
M  V30 9784 H 938.095 -0.468151 0.470883 0
M  V30 9785 H 940.625 -0.931144 1.82184 0
M  V30 9786 H 940.635 -3.31277 2.38159 0
M  V30 9787 H 939.31 -2.57449 3.26639 0
M  V30 9788 H 937.887 -3.36212 1.61294 0
M  V30 9789 N 940.072 -1.23292 -0.981677 0
M  V30 9790 C 941.297 -1.09176 -1.76339 0
M  V30 9791 C 941.722 0.352726 -1.84763 0
M  V30 9792 O 941.08 1.25509 -1.30832 0
M  V30 9793 C 941.128 -1.72046 -3.16911 0
M  V30 9794 O 940.232 -0.98174 -4.00544 0
M  V30 9795 H 939.573 -0.382755 -0.542581 0
M  V30 9796 H 942.103 -1.63319 -1.23239 0
M  V30 9797 H 942.113 -1.77232 -3.67495 0
M  V30 9798 H 940.788 -2.77154 -3.10095 0
M  V30 9799 H 939.365 -1.00672 -3.59054 0
M  V30 9800 N 941.55 1.18024 -1.04442 0
M  V30 9801 C 942.775 1.92573 -0.770097 0
M  V30 9802 C 943.2 1.75871 0.667169 0
M  V30 9803 O 942.558 1.07136 1.46258 0
M  V30 9804 C 942.606 3.41904 -1.14602 0
M  V30 9805 O 941.71 4.11491 -0.273712 0
M  V30 9806 H 941.051 0.600636 -0.283076 0
M  V30 9807 H 943.581 1.49645 -1.39526 0
M  V30 9808 H 943.591 3.92623 -1.10956 0
M  V30 9809 H 942.266 3.53382 -2.19304 0
M  V30 9810 H 940.843 3.71059 -0.370124 0
M  V30 9811 N 943.028 0.824394 1.34319 0
M  V30 9812 C 944.305 0.335692 1.92698 0
M  V30 9813 C 944.685 -1.17715 1.75232 0
M  V30 9814 O 944.033 -1.98493 1.13194 0
M  V30 9815 C 944.243 0.766647 3.40475 0
M  V30 9816 C 945.591 0.766323 4.17627 0
M  V30 9817 O 946.615 0.709321 3.49066 0
M  V30 9818 O 945.474 0.840856 5.39992 0
M  V30 9819 H 942.568 0.0919996 0.821867 0
M  V30 9820 H 945.114 0.909282 1.43283 0
M  V30 9821 H 943.886 1.80859 3.46995 0
M  V30 9822 H 943.509 0.168833 3.97241 0
M  V30 9823 N 944.506 -1.46559 0.579492 0
M  V30 9824 C 945.734 -2.06784 0.0693648 0
M  V30 9825 C 946.149 -1.42875 -1.23419 0
M  V30 9826 O 945.506 -0.532919 -1.74546 0
M  V30 9827 C 945.557 -3.61343 -0.106511 0
M  V30 9828 O 945.278 -4.22861 1.14545 0
M  V30 9829 C 946.779 -4.38489 -0.651359 0
M  V30 9830 H 943.999 -0.66866 0.0559848 0
M  V30 9831 H 946.543 -1.88235 0.799245 0
M  V30 9832 H 944.698 -3.7933 -0.786601 0
M  V30 9833 H 945.112 -5.15691 0.95723 0
M  V30 9834 H 946.586 -5.47237 -0.723615 0
M  V30 9835 H 947.063 -4.06309 -1.66763 0
M  V30 9836 H 947.669 -4.253 -0.0062433 0
M  V30 9837 N 945.984 -0.3171 -1.54377 0
M  V30 9838 C 947.209 0.292311 -2.0533 0
M  V30 9839 C 947.634 1.45503 -1.19207 0
M  V30 9840 O 946.992 1.80197 -0.199721 0
M  V30 9841 C 947.04 0.710787 -3.53525 0
M  V30 9842 O 946.144 1.81387 -3.70368 0
M  V30 9843 H 945.485 0.0539976 -0.661801 0
M  V30 9844 H 948.015 -0.463629 -1.99278 0
M  V30 9845 H 948.025 0.995216 -3.95676 0
M  V30 9846 H 946.7 -0.139668 -4.15665 0
M  V30 9847 H 945.277 1.52875 -3.40123 0
M  V30 9848 N 947.462 1.57535 -0.0451378 0
M  V30 9849 C 948.425 2.1008 0.916461 0
M  V30 9850 C 949.425 1.01913 1.2438 0
M  V30 9851 O 950.615 1.2801 1.18148 0
M  V30 9852 C 947.747 2.58001 2.22818 0
M  V30 9853 H 948.94 2.96334 0.461076 0
M  V30 9854 H 946.493 1.54974 0.203169 0
M  V30 9855 H 947.228 1.75123 2.72951 0
M  V30 9856 H 947.013 3.3704 2.00366 0
M  V30 9857 H 948.503 2.98822 2.9171 0
M  V30 9858 O 948.979 -0.0961309 1.61214 0
M  V30 9859 H 949.67 -0.72487 1.79625 0
M  V30 END ATOM
M  V30 BEGIN BOND
M  V30 END BOND
M  V30 END CTAB
M  END
$$$$
