drugbank_target|Q27218 Acetylcholine receptor subunit beta-type lev-1 (DB00848)
 OpenBabel12092121013D

  0  0  0     0  0            999 V3000
M  V30 BEGIN CTAB
M  V30 COUNTS 8196 8290 0 0 0
M  V30 BEGIN ATOM
M  V30 1 H -0.908 1.98254 -0.117106 0
M  V30 2 N 0 1.576 0 0
M  V30 3 C 0.933 2.03868 1.02534 0
M  V30 4 C 1.911 0.928543 1.3348 0
M  V30 5 O 3.095 1.19667 1.45644 0
M  V30 6 C 0.222 2.43627 2.35294 0
M  V30 7 C -0.732 3.65373 2.2001 0
M  V30 8 S 0.101 5.13292 1.52614 0
M  V30 9 C 1.257 5.56322 2.86805 0
M  V30 10 H 1.49 2.90518 0.631377 0
M  V30 11 H -0.977 1.52953 0.210867 0
M  V30 12 H 0.981 2.67203 3.11629 0
M  V30 13 H -0.358 1.57376 2.7183 0
M  V30 14 H -1.165 3.90944 3.18086 0
M  V30 15 H -1.563 3.418 1.51819 0
M  V30 16 H 0.729 5.58782 3.83104 0
M  V30 17 H 1.672 6.56266 2.65933 0
M  V30 18 H 2.08 4.83886 2.90714 0
M  V30 19 N 1.4781 -0.272755 1.55222 0
M  V30 20 C 2.4111 -1.3627 1.83046 0
M  V30 21 C 3.3891 -1.47536 0.683521 0
M  V30 22 O 4.5731 -1.64157 0.926545 0
M  V30 23 C 1.7001 -2.73908 1.99229 0
M  V30 24 C 0.7461 -2.79925 3.21783 0
M  V30 25 S 1.5791 -2.39146 4.79134 0
M  V30 26 C 2.7351 -3.78758 4.9829 0
M  V30 27 H 2.9681 -1.12464 2.75207 0
M  V30 28 H 0.5011 -0.472398 1.46996 0
M  V30 29 H 2.4591 -3.53171 2.09238 0
M  V30 30 H 1.1201 -2.94965 1.07956 0
M  V30 31 H 0.3131 -3.80946 3.29994 0
M  V30 32 H -0.0849 -2.08683 3.10367 0
M  V30 33 H 2.2071 -4.7403 4.84047 0
M  V30 34 H 3.1501 -3.75499 6.00338 0
M  V30 35 H 3.5581 -3.70072 4.26271 0
M  V30 36 N 2.9562 -1.48159 -0.537278 0
M  V30 37 C 3.8862 -1.65029 -1.6519 0
M  V30 38 C 4.8672 -0.499281 -1.62607 0
M  V30 39 O 6.0522 -0.730972 -1.79918 0
M  V30 40 C 3.1822 -1.68303 -3.03795 0
M  V30 41 C 2.1362 -2.8283 -3.21234 0
M  V30 42 C 1.4622 -2.71189 -4.60826 0
M  V30 43 C 2.7622 -4.24211 -3.04701 0
M  V30 44 H 4.4562 -2.58341 -1.51328 0
M  V30 45 H 2.0022 -1.24325 -0.726585 0
M  V30 46 H 3.9552 -1.78693 -3.81637 0
M  V30 47 H 2.6792 -0.715635 -3.18663 0
M  V30 48 H 1.3382 -2.71983 -2.45807 0
M  V30 49 H 0.9862 -1.72435 -4.7252 0
M  V30 50 H 0.6862 -3.48035 -4.7344 0
M  V30 51 H 2.2102 -2.83537 -5.40777 0
M  V30 52 H 3.6242 -4.3593 -3.72341 0
M  V30 53 H 2.0212 -5.01998 -3.28813 0
M  V30 54 H 3.0912 -4.41184 -2.01209 0
M  V30 55 N 4.4343 0.785586 -1.36625 0
M  V30 56 C 5.6823 1.54057 -1.30808 0
M  V30 57 C 6.0033 1.94683 0.111157 0
M  V30 58 O 5.2733 1.65241 1.05224 0
M  V30 59 H 3.8533 0.571354 -0.481211 0
M  V30 60 H 6.5153 0.935821 -1.70963 0
M  V30 61 H 5.6113 2.44637 -1.93801 0
M  V30 62 N 5.9124 1.20967 1.01018 0
M  V30 63 C 7.1604 1.02172 1.74371 0
M  V30 64 C 7.4814 -0.446414 1.89821 0
M  V30 65 O 6.7514 -1.32234 1.44537 0
M  V30 66 H 5.3314 0.375066 0.646014 0
M  V30 67 H 7.9934 1.52187 1.21758 0
M  V30 68 H 7.0894 1.48538 2.74487 0
M  V30 69 N 7.3905 -1.2043 1.01659 0
M  V30 70 C 8.6385 -1.89423 0.704522 0
M  V30 71 C 8.9595 -1.79231 -0.768197 0
M  V30 72 O 8.2295 -1.1947 -1.55254 0
M  V30 73 H 6.8095 -0.701178 0.257602 0
M  V30 74 H 9.4715 -1.4626 1.28818 0
M  V30 75 H 8.5675 -2.96052 0.987916 0
M  V30 76 N 8.8686 -0.792821 -1.36206 0
M  V30 77 C 10.1166 -0.366062 -1.98757 0
M  V30 78 C 10.4376 1.0668 -1.63231 0
M  V30 79 O 9.7076 1.73587 -0.907978 0
M  V30 80 H 8.2876 -0.132364 -0.735179 0
M  V30 81 H 10.9496 -1.01562 -1.66347 0
M  V30 82 H 10.0456 -0.460638 -3.08682 0
M  V30 83 N 10.3467 1.47872 -0.545128 0
M  V30 84 C 11.5947 2.02093 -0.016553 0
M  V30 85 C 11.9157 1.42305 1.3332 0
M  V30 86 O 11.1857 0.593853 1.86682 0
M  V30 87 H 9.7657 0.746993 -0.00313038 0
M  V30 88 H 12.4277 1.81414 -0.712397 0
M  V30 89 H 11.5237 3.11996 0.0805422 0
M  V30 90 N 11.8248 0.280983 1.55075 0
M  V30 91 C 13.0648 -0.335234 2.01632 0
M  V30 92 C 13.4288 -1.5261 1.16508 0
M  V30 93 O 14.6298 -2.21235 1.52672 0
M  V30 94 C 12.9008 -0.702172 3.50434 0
M  V30 95 S 14.4598 -1.30409 4.18974 0
M  V30 96 H 11.2778 -0.103967 0.703358 0
M  V30 97 H 13.8798 0.404187 1.91276 0
M  V30 98 H 12.5838 0.17333 4.10034 0
M  V30 99 H 12.1148 -1.4729 3.64786 0
M  V30 100 H 14.1298 -2.59253 4.23087 0
M  V30 101 N 13.3029 -1.57598 0.00835791 0
M  V30 102 C 14.5509 -1.90551 -0.6734 0
M  V30 103 C 14.8719 -0.883301 -1.73847 0
M  V30 104 O 14.1419 0.0781442 -1.95744 0
M  V30 105 H 12.7219 -0.703312 -0.251717 0
M  V30 106 H 15.3839 -1.94833 0.0512592 0
M  V30 107 H 14.4799 -2.9056 -1.13935 0
M  V30 108 N 14.781 0.264519 -1.55364 0
M  V30 109 C 15.744 1.31046 -1.88042 0
M  V30 110 C 16.744 1.41943 -0.755569 0
M  V30 111 O 17.934 1.40947 -1.02369 0
M  V30 112 C 15.066 2.69067 -2.09323 0
M  V30 113 H 16.259 1.03297 -2.81549 0
M  V30 114 H 13.812 0.502989 -1.47986 0
M  V30 115 H 14.547 3.01982 -1.18226 0
M  V30 116 H 14.332 2.62542 -2.91229 0
M  V30 117 H 15.822 3.44623 -2.35848 0
M  V30 118 N 16.2591 1.48442 0.529413 0
M  V30 119 C 17.5071 1.56179 1.28267 0
M  V30 120 C 17.8281 0.237721 1.93546 0
M  V30 121 O 17.0981 -0.740779 1.81354 0
M  V30 122 H 15.6781 0.575367 0.476405 0
M  V30 123 H 18.3401 1.84909 0.61602 0
M  V30 124 H 17.4361 2.34312 2.06165 0
M  V30 125 N 17.7372 -0.778329 1.37039 0
M  V30 126 C 18.9852 -1.53361 1.31623 0
M  V30 127 C 19.3062 -1.94739 -0.100831 0
M  V30 128 O 18.5762 -1.65797 -1.04347 0
M  V30 129 H 17.1562 -0.568794 0.484234 0
M  V30 130 H 19.8182 -0.926742 1.71457 0
M  V30 131 H 18.9142 -2.43606 1.95096 0
M  V30 132 N 19.2153 -1.21501 -1.00376 0
M  V30 133 C 20.4433 -1.059 -1.77744 0
M  V30 134 C 20.8583 0.391125 -1.84704 0
M  V30 135 O 20.2153 1.27133 -1.30933 0
M  V30 136 C 20.2663 -1.65111 -3.21591 0
M  V30 137 O 19.9873 -3.0445 -3.15027 0
M  V30 138 C 21.4883 -1.54637 -4.15454 0
M  V30 139 H 18.7083 -0.371825 -0.558558 0
M  V30 140 H 21.2523 -1.60865 -1.26264 0
M  V30 141 H 19.4073 -1.14235 -3.70175 0
M  V30 142 H 19.8213 -3.3278 -4.0541 0
M  V30 143 H 21.2953 -2.00808 -5.14179 0
M  V30 144 H 21.7723 -0.501022 -4.36333 0
M  V30 145 H 22.3783 -2.04767 -3.72761 0
M  V30 146 N 20.6934 1.19889 -1.02296 0
M  V30 147 C 21.9394 1.89973 -0.726759 0
M  V30 148 C 22.2944 1.7776 0.73614 0
M  V30 149 O 21.5874 1.15523 1.52856 0
M  V30 150 C 21.7814 3.39883 -1.10518 0
M  V30 151 C 21.6104 3.66684 -2.60332 0
M  V30 152 C 20.3804 3.85045 -3.27213 0
M  V30 153 C 22.5784 3.68727 -3.58532 0
M  V30 154 N 20.5604 3.99422 -4.66192 0
M  V30 155 C 21.9314 3.88604 -4.83101 0
M  V30 156 C 23.9864 3.51722 -3.52414 0
M  V30 157 C 22.6894 3.9324 -6.02292 0
M  V30 158 C 24.7154 3.57632 -4.71013 0
M  V30 159 C 24.0774 3.77988 -5.94394 0
M  V30 160 H 20.1764 0.714551 -0.317712 0
M  V30 161 H 22.7604 1.44123 -1.30907 0
M  V30 162 H 20.9314 3.8447 -0.551142 0
M  V30 163 H 22.6634 3.97464 -0.761853 0
M  V30 164 H 19.4184 3.83689 -2.77632 0
M  V30 165 H 19.8424 4.10473 -5.38368 0
M  V30 166 H 24.4844 3.34945 -2.58015 0
M  V30 167 H 22.2024 4.08811 -6.97065 0
M  V30 168 H 25.7884 3.45773 -4.67902 0
M  V30 169 H 24.6684 3.82428 -6.8463 0
M  V30 170 N 22.1715 0.800033 1.35784 0
M  V30 171 C 23.1015 0.220184 2.3246 0
M  V30 172 C 24.0825 -0.65073 1.57161 0
M  V30 173 O 25.2675 -0.582359 1.85263 0
M  V30 174 C 22.3975 -0.637353 3.41402 0
M  V30 175 C 21.3515 0.134531 4.27789 0
M  V30 176 C 20.6775 -0.844285 5.27992 0
M  V30 177 C 21.9775 1.32979 5.05088 0
M  V30 178 H 23.6715 1.02787 2.81203 0
M  V30 179 H 21.2175 0.495717 1.35199 0
M  V30 180 H 23.1705 -1.05302 4.08031 0
M  V30 181 H 21.8945 -1.47785 2.91251 0
M  V30 182 H 20.5535 0.531296 3.6273 0
M  V30 183 H 20.2015 -1.68011 4.74111 0
M  V30 184 H 19.9015 -0.332184 5.8666 0
M  V30 185 H 21.4255 -1.2583 5.97494 0
M  V30 186 H 22.8395 0.98934 5.64699 0
M  V30 187 H 21.2365 1.77593 5.7322 0
M  V30 188 H 22.3065 2.11978 4.36111 0
M  V30 189 N 23.6496 -1.47581 0.552962 0
M  V30 190 C 24.8976 -2.02082 0.0272703 0
M  V30 191 C 25.2186 -1.4301 -1.32563 0
M  V30 192 O 24.4886 -0.603745 -1.86365 0
M  V30 193 H 23.0686 -0.746966 0.00709182 0
M  V30 194 H 25.7306 -1.81033 0.722008 0
M  V30 195 H 24.8266 -3.12034 -0.0639951 0
M  V30 196 N 25.1277 -0.289203 -1.54924 0
M  V30 197 C 26.3747 0.323519 -1.99899 0
M  V30 198 C 26.7027 1.54797 -1.17762 0
M  V30 199 O 25.9577 1.94237 -0.238835 0
M  V30 200 C 26.2567 0.736119 -3.49737 0
M  V30 201 C 25.9227 -0.385276 -4.49251 0
M  V30 202 C 24.5847 -0.693156 -4.76181 0
M  V30 203 C 26.9367 -1.14021 -5.08575 0
M  V30 204 C 24.2647 -1.7593 -5.59701 0
M  V30 205 C 26.6167 -2.19619 -5.93254 0
M  V30 206 C 25.2807 -2.51026 -6.185 0
M  V30 207 H 24.5507 0.118384 -0.731482 0
M  V30 208 H 27.1977 -0.405847 -1.8715 0
M  V30 209 H 25.5027 1.54539 -3.60035 0
M  V30 210 H 27.1997 1.22118 -3.81953 0
M  V30 211 H 23.7897 -0.135202 -4.28387 0
M  V30 212 H 27.9737 -0.915611 -4.87781 0
M  V30 213 H 23.2297 -2.0075 -5.77503 0
M  V30 214 H 27.4037 -2.78581 -6.38252 0
M  V30 215 H 25.0307 -3.33772 -6.83008 0
M  V30 216 N 26.6058 1.57591 -0.0167156 0
M  V30 217 C 27.5358 2.12496 0.967858 0
M  V30 218 C 28.5168 1.03807 1.34752 0
M  V30 219 O 29.7018 1.31577 1.42833 0
M  V30 220 C 26.8318 2.64194 2.25431 0
M  V30 221 C 25.7858 3.77559 2.01576 0
M  V30 222 C 25.1118 4.15636 3.36379 0
M  V30 223 C 26.4118 5.04151 1.36489 0
M  V30 224 H 28.1058 2.95013 0.510643 0
M  V30 225 H 25.6518 1.41915 0.244181 0
M  V30 226 H 27.6048 3.01236 2.94678 0
M  V30 227 H 26.3288 1.78821 2.73296 0
M  V30 228 H 24.9878 3.40937 1.34751 0
M  V30 229 H 24.6358 3.27263 3.81979 0
M  V30 230 H 24.3358 4.92022 3.21229 0
M  V30 231 H 25.8598 4.5525 4.06915 0
M  V30 232 H 27.2738 5.38857 1.95718 0
M  V30 233 H 25.6708 5.85453 1.31776 0
M  V30 234 H 26.7408 4.83733 0.336219 0
M  V30 235 N 28.0839 -0.256276 1.55502 0
M  V30 236 C 29.3299 -0.987079 1.77157 0
M  V30 237 C 29.6629 -1.85327 0.580315 0
M  V30 238 O 28.9379 -1.89874 -0.421686 0
M  V30 239 C 29.2209 -1.85553 3.08613 0
M  V30 240 C 29.0739 -1.01816 4.38125 0
M  V30 241 C 30.3929 -2.8397 3.36228 0
M  V30 242 H 27.5119 -0.357428 0.644526 0
M  V30 243 H 30.1539 -0.258239 1.88237 0
M  V30 244 H 28.3039 -2.47695 2.99298 0
M  V30 245 H 29.9759 -0.416159 4.59419 0
M  V30 246 H 28.2189 -0.322178 4.32602 0
M  V30 247 H 28.8899 -1.65939 5.26468 0
M  V30 248 H 31.3659 -2.31964 3.45445 0
M  V30 249 H 30.2419 -3.41864 4.29442 0
M  V30 250 H 30.5029 -3.59955 2.56681 0
M  V30 251 N 29.562 -1.4872 -0.521534 0
M  V30 252 C 30.809 -1.57168 -1.27689 0
M  V30 253 C 31.137 -0.249275 -1.92896 0
M  V30 254 O 30.392 0.761162 -1.80291 0
M  V30 255 C 30.691 -2.66497 -2.38148 0
M  V30 256 C 30.357 -4.08664 -1.90538 0
M  V30 257 C 29.019 -4.47357 -1.77271 0
M  V30 258 C 31.371 -4.97724 -1.54663 0
M  V30 259 C 28.699 -5.72905 -1.26478 0
M  V30 260 C 31.051 -6.2377 -1.05329 0
M  V30 261 C 29.715 -6.61311 -0.906861 0
M  V30 262 H 28.985 -0.575117 -0.467249 0
M  V30 263 H 31.632 -1.82472 -0.581051 0
M  V30 264 H 29.937 -2.35085 -3.13437 0
M  V30 265 H 31.634 -2.70246 -2.96257 0
M  V30 266 H 28.224 -3.78111 -2.01816 0
M  V30 267 H 32.408 -4.68501 -1.63768 0
M  V30 268 H 27.664 -6.00709 -1.13835 0
M  V30 269 H 31.838 -6.9217 -0.76644 0
M  V30 270 H 29.465 -7.5848 -0.511083 0
M  V30 271 N 31.0401 0.771051 -1.3745 0
M  V30 272 C 31.9701 1.89827 -1.3597 0
M  V30 273 C 32.9511 1.68562 -0.228216 0
M  V30 274 O 34.1361 1.8941 -0.428675 0
M  V30 275 C 31.2661 3.2712 -1.16662 0
M  V30 276 C 30.2201 3.6295 -2.2683 0
M  V30 277 C 29.5461 4.98791 -1.92644 0
M  V30 278 C 30.8461 3.69627 -3.69017 0
M  V30 279 H 32.5401 1.91323 -2.30295 0
M  V30 280 H 30.0861 0.919082 -1.10855 0
M  V30 281 H 32.0391 4.05615 -1.14256 0
M  V30 282 H 30.7631 3.26059 -0.187926 0
M  V30 283 H 29.4221 2.86763 -2.28392 0
M  V30 284 H 29.0701 4.94271 -0.933021 0
M  V30 285 H 28.7701 5.23733 -2.66416 0
M  V30 286 H 30.2941 5.79685 -1.91826 0
M  V30 287 H 31.7081 4.38273 -3.69581 0
M  V30 288 H 30.1051 4.06067 -4.41848 0
M  V30 289 H 31.1751 2.70273 -4.02592 0
M  V30 290 N 32.5182 1.22032 0.997298 0
M  V30 291 C 33.4812 0.987909 2.06816 0
M  V30 292 C 34.4812 -0.0440084 1.6074 0
M  V30 293 O 35.6712 0.194053 1.73116 0
M  V30 294 C 32.8032 0.49132 3.37341 0
M  V30 295 H 33.9962 1.93803 2.28868 0
M  V30 296 H 31.5492 1.03838 1.16822 0
M  V30 297 H 32.2842 -0.463364 3.20973 0
M  V30 298 H 32.0692 1.23575 3.72118 0
M  V30 299 H 33.5592 0.348824 4.16141 0
M  V30 300 N 33.9963 -1.19345 1.0293 0
M  V30 301 C 35.2423 -1.89318 0.727083 0
M  V30 302 C 35.5753 -1.79446 -0.742483 0
M  V30 303 O 34.8503 -1.1871 -1.54072 0
M  V30 304 C 35.1333 -3.40238 1.17942 0
M  V30 305 C 34.9863 -3.58979 2.71024 0
M  V30 306 C 36.3053 -4.33479 0.760548 0
M  V30 307 H 33.4243 -0.687475 0.265606 0
M  V30 308 H 36.0663 -1.40477 1.2793 0
M  V30 309 H 34.2163 -3.81964 0.709608 0
M  V30 310 H 35.8883 -3.26421 3.25955 0
M  V30 311 H 34.1313 -3.02018 3.11396 0
M  V30 312 H 34.8023 -4.64823 2.9773 0
M  V30 313 H 37.2783 -3.99469 1.16464 0
M  V30 314 H 36.1543 -5.37664 1.10493 0
M  V30 315 H 36.4153 -4.40813 -0.337063 0
M  V30 316 N 35.4744 -0.807222 -1.35358 0
M  V30 317 C 36.6994 -0.399309 -2.0352 0
M  V30 318 C 37.1244 0.981986 -1.60433 0
M  V30 319 O 36.4824 1.63601 -0.781299 0
M  V30 320 C 36.5304 -0.491552 -3.57234 0
M  V30 321 O 35.6344 0.494754 -4.09421 0
M  V30 322 H 34.9754 -0.166682 -0.642739 0
M  V30 323 H 37.5054 -1.09328 -1.72941 0
M  V30 324 H 37.5154 -0.361588 -4.06395 0
M  V30 325 H 36.1904 -1.49907 -3.87944 0
M  V30 326 H 34.7674 0.324977 -3.71481 0
M  V30 327 N 36.9525 1.47285 -0.560781 0
M  V30 328 C 37.8825 2.32857 0.173105 0
M  V30 329 C 38.8635 1.44009 0.905281 0
M  V30 330 O 40.0485 1.7286 0.885046 0
M  V30 331 C 37.1785 3.25861 1.20133 0
M  V30 332 C 36.1325 4.23978 0.585388 0
M  V30 333 C 35.4585 5.06332 1.7185 0
M  V30 334 C 36.7585 5.20242 -0.463178 0
M  V30 335 H 38.4525 2.94466 -0.541307 0
M  V30 336 H 35.9985 1.41601 -0.261764 0
M  V30 337 H 37.9515 3.84569 1.72293 0
M  V30 338 H 36.6755 2.62315 1.94573 0
M  V30 339 H 35.3345 3.66501 0.085054 0
M  V30 340 H 34.9825 4.39186 2.45203 0
M  V30 341 H 34.6825 5.72762 1.31213 0
M  V30 342 H 36.2065 5.67899 2.24329 0
M  V30 343 H 37.6205 5.73293 -0.027502 0
M  V30 344 H 36.0175 5.94896 -0.788627 0
M  V30 345 H 37.0875 4.65504 -1.35773 0
M  V30 346 N 38.4306 0.297415 1.54768 0
M  V30 347 C 39.8466 -0.0560823 1.59501 0
M  V30 348 C 40.0466 -1.52725 1.31444 0
M  V30 349 O 39.1026 -2.27947 1.08611 0
M  V30 350 C 40.4156 0.338631 2.98787 0
M  V30 351 C 41.9636 0.287097 3.11681 0
M  V30 352 C 42.4386 0.656579 4.53269 0
M  V30 353 N 43.9296 0.608977 4.59179 0
M  V30 354 C 44.6646 0.867385 5.66802 0
M  V30 355 N 44.1606 1.19157 6.82476 0
M  V30 356 N 45.9536 0.794687 5.56454 0
M  V30 357 H 38.1046 1.25624 1.71267 0
M  V30 358 H 40.3676 0.509057 0.799728 0
M  V30 359 H 40.0736 1.36263 3.2423 0
M  V30 360 H 39.9476 -0.309508 3.75928 0
M  V30 361 H 42.3346 -0.727649 2.85988 0
M  V30 362 H 42.4156 0.969809 2.36703 0
M  V30 363 H 42.0596 1.66912 4.7969 0
M  V30 364 H 41.9896 -0.0481649 5.26578 0
M  V30 365 H 44.4806 0.369198 3.76092 0
M  V30 366 H 44.7936 1.37482 7.60473 0
M  V30 367 H 43.1386 1.22958 6.84037 0
M  V30 368 H 46.3296 0.541098 4.64962 0
M  V30 369 H 46.5026 0.999445 6.40246 0
M  V30 370 N 39.9087 -1.5758 0.0250728 0
M  V30 371 C 40.8567 -2.11125 -0.97617 0
M  V30 372 C 41.8507 -1.03689 -1.33959 0
M  V30 373 O 43.0567 -1.22128 -1.3223 0
M  V30 374 H 39.4317 -0.674468 -0.332561 0
M  V30 375 H 41.4027 -2.94194 -0.499223 0
M  V30 376 C 40.1517 -2.65017 -2.2508 0
M  V30 377 H 39.4747 -3.47333 -1.9799 0
M  V30 378 H 40.9147 -3.06133 -2.93357 0
M  V30 379 C 39.3737 -1.57574 -2.97779 0
M  V30 380 O 39.9037 -0.973203 -3.89733 0
M  V30 381 N 38.1097 -1.29716 -2.60043 0
M  V30 382 H 37.6567 -1.789 -1.85345 0
M  V30 383 H 37.6147 -0.58051 -3.08994 0
M  V30 384 N 41.3868 0.248026 -1.55636 0
M  V30 385 C 42.3368 1.30994 -1.86614 0
M  V30 386 C 43.3208 1.43543 -0.726918 0
M  V30 387 O 44.5128 1.46804 -0.988818 0
M  V30 388 C 41.6418 2.6656 -2.16335 0
M  V30 389 C 40.7278 2.58019 -3.36581 0
M  V30 390 N 41.1188 2.1911 -4.55878 0
M  V30 391 C 39.4168 2.89035 -3.39669 0
M  V30 392 C 40.1178 2.21174 -5.38012 0
M  V30 393 N 39.0938 2.60632 -4.77045 0
M  V30 394 H 42.8958 0.999583 -2.76379 0
M  V30 395 H 40.4098 0.456652 -1.55848 0
M  V30 396 H 42.4068 3.43194 -2.36692 0
M  V30 397 H 41.0668 2.98463 -1.27867 0
M  V30 398 H 42.0778 1.90672 -4.81523 0
M  V30 399 H 38.7548 3.25485 -2.61469 0
M  V30 400 H 40.1448 1.9344 -6.43452 0
M  V30 401 N 42.8649 1.48995 0.513639 0
M  V30 402 C 44.0899 1.61792 1.29762 0
M  V30 403 C 44.5149 0.284475 1.85936 0
M  V30 404 O 43.8729 -0.746185 1.65232 0
M  V30 405 C 43.9209 2.67993 2.41272 0
M  V30 406 O 43.0249 2.26287 3.44772 0
M  V30 407 H 42.3659 0.541963 0.38363 0
M  V30 408 H 44.8959 1.95097 0.616307 0
M  V30 409 H 44.9059 2.89772 2.87221 0
M  V30 410 H 43.5809 3.64791 1.9975 0
M  V30 411 H 42.1579 2.14788 3.04829 0
M  V30 412 N 44.343 -0.763751 1.37857 0
M  V30 413 C 45.571 -1.55293 1.36718 0
M  V30 414 C 45.986 -1.88745 -0.0455434 0
M  V30 415 O 45.343 -1.52039 -1.00947 0
M  V30 416 C 45.394 -2.85831 2.2132 0
M  V30 417 O 45.115 -2.5381 3.57089 0
M  V30 418 C 46.616 -3.80023 2.28249 0
M  V30 419 H 43.836 -0.480841 0.468009 0
M  V30 420 H 46.38 -0.946009 1.81303 0
M  V30 421 H 44.535 -3.42926 1.80223 0
M  V30 422 H 44.949 -3.37459 4.01524 0
M  V30 423 H 46.423 -4.68599 2.91752 0
M  V30 424 H 46.9 -4.1973 1.2932 0
M  V30 425 H 47.506 -3.28855 2.69693 0
M  V30 426 N 45.8211 -1.22559 -0.990812 0
M  V30 427 C 47.0611 -1.06302 -1.74583 0
M  V30 428 C 47.4251 0.394737 -1.87898 0
M  V30 429 O 48.6261 0.678214 -2.60103 0
M  V30 430 C 46.8971 -1.75699 -3.11231 0
M  V30 431 S 48.4561 -1.74882 -4.02445 0
M  V30 432 H 45.2741 -0.380639 -0.600529 0
M  V30 433 H 47.8761 -1.55532 -1.18449 0
M  V30 434 H 46.5801 -2.80923 -2.99183 0
M  V30 435 H 46.1111 -1.26708 -3.72436 0
M  V30 436 H 48.1261 -0.799997 -4.89709 0
M  V30 437 N 47.2992 1.18797 -1.03562 0
M  V30 438 C 48.2092 2.25913 -0.632505 0
M  V30 439 C 49.2252 1.70668 0.338882 0
M  V30 440 O 50.4012 2.00453 0.195076 0
M  V30 441 C 47.4662 3.467 0.00350942 0
M  V30 442 C 46.5272 4.17098 -1.01624 0
M  V30 443 C 45.7602 5.32119 -0.410478 0
M  V30 444 O 45.9832 5.64976 0.784725 0
M  V30 445 O 44.9172 5.9107 -1.13667 0
M  V30 446 H 48.7432 2.62648 -1.52478 0
M  V30 447 H 46.3282 1.25781 -0.806195 0
M  V30 448 H 48.2102 4.19878 0.35781 0
M  V30 449 H 46.8852 3.11798 0.869686 0
M  V30 450 H 45.7922 3.4601 -1.42224 0
M  V30 451 H 47.1252 4.55987 -1.85301 0
M  V30 452 N 48.7773 0.814389 1.34928 0
M  V30 453 C 50.0543 0.321363 1.92942 0
M  V30 454 C 50.4343 -1.19014 1.74353 0
M  V30 455 O 49.7823 -1.99328 1.11716 0
M  V30 456 C 49.9923 0.741323 3.41036 0
M  V30 457 C 51.3403 0.735266 4.18185 0
M  V30 458 O 52.3643 0.68336 3.49584 0
M  V30 459 O 51.2233 0.800703 5.40602 0
M  V30 460 H 48.3173 0.0858893 0.822528 0
M  V30 461 H 50.8633 0.898609 1.43955 0
M  V30 462 H 49.6353 1.78276 3.4833 0
M  V30 463 H 49.2583 0.139307 3.97356 0
M  V30 464 N 50.2554 -1.46986 0.568584 0
M  V30 465 C 51.5044 -2.01646 0.0465894 0
M  V30 466 C 51.8174 -1.44721 -1.31587 0
M  V30 467 O 53.0234 -1.91113 -1.92842 0
M  V30 468 C 51.4794 -3.59885 0.032752 0
M  V30 469 C 51.0874 -4.25804 1.39266 0
M  V30 470 C 52.8314 -4.22255 -0.436038 0
M  V30 471 C 50.7384 -5.76081 1.33732 0
M  V30 472 H 49.6684 -0.753876 0.013647 0
M  V30 473 H 52.3194 -1.68864 0.718131 0
M  V30 474 H 50.7014 -3.8968 -0.704669 0
M  V30 475 H 51.8754 -4.07637 2.1487 0
M  V30 476 H 50.1904 -3.7547 1.80032 0
M  V30 477 H 52.7874 -5.32394 -0.49602 0
M  V30 478 H 53.1304 -3.90212 -1.45053 0
M  V30 479 H 53.6634 -3.97033 0.246877 0
M  V30 480 H 50.4024 -6.12761 2.32817 0
M  V30 481 H 49.9224 -5.96553 0.623267 0
M  V30 482 H 51.6014 -6.38518 1.0442 0
M  V30 483 N 51.7335 -0.305618 -1.54608 0
M  V30 484 C 53.0105 0.355652 -1.92339 0
M  V30 485 C 53.3905 1.71324 -1.23335 0
M  V30 486 O 52.7385 2.25473 -0.370702 0
M  V30 487 C 52.9485 0.46572 -3.45879 0
M  V30 488 C 54.2965 0.734426 -4.182 0
M  V30 489 O 55.3205 0.54935 -3.51938 0
M  V30 490 O 54.1795 1.09024 -5.35515 0
M  V30 491 H 51.2735 0.199666 -0.802535 0
M  V30 492 H 53.8195 -0.354017 -1.65966 0
M  V30 493 H 52.5915 -0.488461 -3.88239 0
M  V30 494 H 52.2145 1.22367 -3.78301 0
M  V30 495 N 53.2116 1.57565 -0.0334293 0
M  V30 496 C 54.1746 2.09393 0.932048 0
M  V30 497 C 55.1746 1.00986 1.25134 0
M  V30 498 O 56.3646 1.27129 1.19096 0
M  V30 499 C 53.4966 2.56338 2.2473 0
M  V30 500 H 54.6896 2.95984 0.483085 0
M  V30 501 H 52.2426 1.54819 0.21468 0
M  V30 502 H 52.9776 1.7309 2.74245 0
M  V30 503 H 52.7626 3.35542 2.02865 0
M  V30 504 H 54.2526 2.96646 2.93923 0
M  V30 505 N 54.6897 -0.239769 1.55765 0
M  V30 506 C 55.5997 -1.31831 1.94056 0
M  V30 507 C 56.6157 -1.52275 0.841925 0
M  V30 508 O 57.7917 -1.65759 1.14394 0
M  V30 509 C 54.8567 -2.65156 2.23368 0
M  V30 510 C 53.9177 -2.53173 3.46701 0
M  V30 511 C 53.1507 -3.8014 3.74606 0
M  V30 512 O 53.3737 -4.82343 3.04469 0
M  V30 513 O 52.3077 -3.78344 4.68123 0
M  V30 514 H 56.1337 -1.02347 2.85935 0
M  V30 515 H 53.7187 -0.441123 1.42739 0
M  V30 516 H 55.6007 -3.43929 2.43497 0
M  V30 517 H 54.2757 -2.94358 1.34666 0
M  V30 518 H 53.1827 -1.72662 3.31871 0
M  V30 519 H 54.5157 -2.28915 4.35728 0
M  V30 520 N 56.1678 -1.49265 -0.50573 0
M  V30 521 C 57.4448 -1.49012 -1.26707 0
M  V30 522 C 57.8248 -0.215205 -2.1 0
M  V30 523 O 57.1728 0.802547 -2.13943 0
M  V30 524 C 57.3828 -2.7663 -2.12783 0
M  V30 525 C 58.7308 -3.25932 -2.72127 0
M  V30 526 O 59.7548 -2.77715 -2.23054 0
M  V30 527 O 58.6138 -4.09897 -3.61451 0
M  V30 528 H 55.7078 -0.596197 -0.57313 0
M  V30 529 H 58.2538 -1.61524 -0.52039 0
M  V30 530 H 57.0258 -3.60916 -1.5118 0
M  V30 531 H 56.6488 -2.66956 -2.94653 0
M  V30 532 N 57.6459 0.756429 -1.3826 0
M  V30 533 C 59.0619 1.0591 -1.19395 0
M  V30 534 C 59.2619 2.01459 -0.0406567 0
M  V30 535 O 58.3179 2.44909 0.614467 0
M  V30 536 C 59.6309 1.64191 -2.51916 0
M  V30 537 C 61.1789 1.76376 -2.58574 0
M  V30 538 C 61.6539 2.38069 -3.91264 0
M  V30 539 N 63.1449 2.45503 -3.92788 0
M  V30 540 C 63.8799 2.94126 -4.92217 0
M  V30 541 N 63.3759 3.42805 -6.02043 0
M  V30 542 N 65.1689 2.9314 -4.7961 0
M  V30 543 H 57.3199 0.122313 -2.12048 0
M  V30 544 H 59.5829 0.116892 -0.940766 0
M  V30 545 H 59.2889 1.01451 -3.3675 0
M  V30 546 H 59.1629 2.6329 -2.70108 0
M  V30 547 H 61.5499 2.38244 -1.74137 0
M  V30 548 H 61.6309 0.759894 -2.44252 0
M  V30 549 H 61.2749 1.76835 -4.76121 0
M  V30 550 H 61.2049 3.39091 -4.02895 0
M  V30 551 H 63.6959 2.1107 -3.13461 0
M  V30 552 H 64.0089 3.78354 -6.73846 0
M  V30 553 H 62.3539 3.4087 -6.05667 0
M  V30 554 H 65.5449 2.54419 -3.92923 0
M  V30 555 H 65.7179 3.30721 -5.5725 0
M  V30 556 N 59.124 1.23083 0.984299 0
M  V30 557 C 60.054 1.03292 2.09411 0
M  V30 558 C 61.035 -0.048923 1.7003 0
M  V30 559 O 62.22 0.114967 1.93859 0
M  V30 560 C 59.35 0.619155 3.41736 0
M  V30 561 C 58.304 1.64791 3.95004 0
M  V30 562 C 57.63 1.0897 5.23478 0
M  V30 563 C 58.93 3.03999 4.24714 0
M  V30 564 H 60.624 1.96119 2.26225 0
M  V30 565 H 58.17 0.944344 1.08711 0
M  V30 566 H 60.123 0.467777 4.18796 0
M  V30 567 H 58.847 -0.344786 3.24775 0
M  V30 568 H 57.506 1.78721 3.20085 0
M  V30 569 H 57.154 0.11686 5.02864 0
M  V30 570 H 56.854 1.77704 5.60085 0
M  V30 571 H 58.378 0.950093 6.03163 0
M  V30 572 H 59.792 2.93393 4.92538 0
M  V30 573 H 58.189 3.69936 4.72512 0
M  V30 574 H 59.259 3.53285 3.32142 0
M  V30 575 N 60.6021 -1.18246 1.0419 0
M  V30 576 C 61.5351 -2.20746 0.578474 0
M  V30 577 C 62.5131 -1.57912 -0.387624 0
M  V30 578 O 63.6971 -1.86071 -0.301634 0
M  V30 579 C 60.8241 -3.38346 -0.154762 0
M  V30 580 C 59.8701 -4.19587 0.764782 0
M  V30 581 S 60.7031 -4.86014 2.24835 0
M  V30 582 C 61.8591 -6.07012 1.526 0
M  V30 583 H 62.0921 -2.59715 1.44691 0
M  V30 584 H 59.6251 -1.287 0.85297 0
M  V30 585 H 61.5831 -4.065 -0.571641 0
M  V30 586 H 60.2441 -2.97786 -0.999105 0
M  V30 587 H 59.4371 -5.03611 0.197976 0
M  V30 588 H 59.0391 -3.56818 1.12057 0
M  V30 589 H 61.3311 -6.72523 0.819733 0
M  V30 590 H 62.2741 -6.68202 2.34333 0
M  V30 591 H 62.6821 -5.55249 1.01779 0
M  V30 592 N 62.0802 -0.821533 -1.34494 0
M  V30 593 C 63.3262 -0.409552 -1.98622 0
M  V30 594 C 63.6592 1.0244 -1.64984 0
M  V30 595 O 62.9342 1.71325 -0.920758 0
M  V30 596 C 63.2172 -0.610458 -3.54888 0
M  V30 597 C 63.0702 -2.09043 -3.98273 0
M  V30 598 C 64.3892 -0.0455379 -4.40076 0
M  V30 599 H 61.5082 -0.15028 -0.721516 0
M  V30 600 H 64.1502 -1.03384 -1.59411 0
M  V30 601 H 62.3002 -0.079044 -3.8842 0
M  V30 602 H 63.9722 -2.68537 -3.75081 0
M  V30 603 H 62.2152 -2.58139 -3.48635 0
M  V30 604 H 62.8862 -2.18182 -5.07051 0
M  V30 605 H 65.3622 -0.499557 -4.1309 0
M  V30 606 H 64.2382 -0.215922 -5.48475 0
M  V30 607 H 64.4992 1.04939 -4.29465 0
M  V30 608 N 63.5583 1.46682 -0.576371 0
M  V30 609 C 64.8353 1.95599 0.00703437 0
M  V30 610 C 65.2153 1.51904 1.46589 0
M  V30 611 O 64.5633 0.766755 2.15251 0
M  V30 612 C 64.7733 3.4864 -0.158404 0
M  V30 613 C 66.1213 4.24594 -0.0229439 0
M  V30 614 O 67.1453 3.56094 -0.0869173 0
M  V30 615 O 66.0043 5.46373 0.118015 0
M  V30 616 H 63.0983 0.825275 0.053384 0
M  V30 617 H 65.6443 1.56996 -0.644244 0
M  V30 618 H 64.4163 3.7331 -1.17282 0
M  V30 619 H 64.0393 3.94057 0.5296 0
M  V30 620 N 65.0364 0.313813 1.54444 0
M  V30 621 C 65.9664 -0.549454 2.26943 0
M  V30 622 C 66.9474 -1.12741 1.27372 0
M  V30 623 O 68.1324 -1.15436 1.56167 0
M  V30 624 C 65.2624 -1.71523 3.01989 0
M  V30 625 C 64.2164 -1.26703 4.08816 0
M  V30 626 C 63.5424 -2.51898 4.71647 0
M  V30 627 C 64.8424 -0.388962 5.2085 0
M  V30 628 H 66.5364 0.0552661 2.99349 0
M  V30 629 H 64.0824 0.0280207 1.43973 0
M  V30 630 H 66.0354 -2.32535 3.51433 0
M  V30 631 H 64.7594 -2.34639 2.27183 0
M  V30 632 H 63.4184 -0.679896 3.6024 0
M  V30 633 H 63.0664 -3.13356 3.93468 0
M  V30 634 H 62.7664 -2.22605 5.43802 0
M  V30 635 H 64.2904 -3.1369 5.23861 0
M  V30 636 H 65.7044 -0.905107 5.6611 0
M  V30 637 H 64.1014 -0.18924 5.99802 0
M  V30 638 H 65.1714 0.582699 4.81386 0
M  V30 639 N 66.5145 -1.57545 0.0417849 0
M  V30 640 C 67.7615 -1.92317 -0.634082 0
M  V30 641 C 68.0895 -0.919334 -1.71402 0
M  V30 642 O 67.3445 0.0698253 -1.95575 0
M  V30 643 C 67.6435 -3.33794 -1.27735 0
M  V30 644 C 67.3095 -4.49716 -0.326543 0
M  V30 645 C 65.9715 -4.81156 -0.0648814 0
M  V30 646 C 68.3235 -5.20182 0.325623 0
M  V30 647 C 65.6515 -5.80414 0.856539 0
M  V30 648 C 68.0035 -6.20424 1.23518 0
M  V30 649 C 66.6675 -6.50298 1.5056 0
M  V30 650 H 65.9375 -0.703736 -0.232027 0
M  V30 651 H 68.5845 -1.91205 0.106259 0
M  V30 652 H 66.8895 -3.31228 -2.09274 0
M  V30 653 H 68.5865 -3.57975 -1.80707 0
M  V30 654 H 65.1765 -4.25176 -0.540665 0
M  V30 655 H 69.3605 -4.96112 0.136546 0
M  V30 656 H 64.6165 -6.019 1.07363 0
M  V30 657 H 68.7905 -6.74141 1.74664 0
M  V30 658 H 66.4175 -7.27025 2.22123 0
M  V30 659 N 67.9926 0.231505 -1.5589 0
M  V30 660 C 69.4086 0.580748 -1.48659 0
M  V30 661 C 69.6086 1.87617 -0.73498 0
M  V30 662 O 68.6646 2.51046 -0.270586 0
M  V30 663 C 69.9776 0.669202 -2.93159 0
M  V30 664 C 71.5256 0.760499 -3.03621 0
M  V30 665 C 72.0006 0.880383 -4.49459 0
M  V30 666 N 73.4916 0.944861 -4.53461 0
M  V30 667 C 74.2266 1.05716 -5.63571 0
M  V30 668 N 73.7226 1.13403 -6.83456 0
M  V30 669 N 75.5156 1.09152 -5.514 0
M  V30 670 H 67.6666 -0.618695 -2.03189 0
M  V30 671 H 69.9296 -0.215728 -0.923128 0
M  V30 672 H 69.6356 -0.212904 -3.51055 0
M  V30 673 H 69.5096 1.5361 -3.44505 0
M  V30 674 H 71.8966 1.63305 -2.45796 0
M  V30 675 H 71.9776 -0.131864 -2.5546 0
M  V30 676 H 71.6216 0.0123284 -5.07899 0
M  V30 677 H 71.5516 1.78802 -4.95316 0
M  V30 678 H 74.0426 0.896176 -3.6712 0
M  V30 679 H 74.3556 1.21921 -7.63122 0
M  V30 680 H 72.7006 1.10333 -6.86186 0
M  V30 681 H 75.8916 1.02805 -4.56671 0
M  V30 682 H 76.0646 1.17558 -6.37247 0
M  V30 683 N 69.4707 1.49531 0.497807 0
M  V30 684 C 70.7187 1.58865 1.24926 0
M  V30 685 C 71.0397 0.278721 1.92998 0
M  V30 686 O 70.3097 -0.702144 1.82885 0
M  V30 687 H 68.8897 0.585343 0.464094 0
M  V30 688 H 71.5517 1.86174 0.57666 0
M  V30 689 H 70.6477 2.38633 2.01149 0
M  V30 690 N 70.9488 -0.749086 1.3866 0
M  V30 691 C 72.1788 -1.53611 1.38157 0
M  V30 692 C 72.5868 -1.89177 -0.0293595 0
M  V30 693 O 71.9298 -1.53606 -1.00752 0
M  V30 694 C 71.9918 -2.86087 2.17702 0
M  V30 695 C 71.6558 -2.73034 3.66472 0
M  V30 696 C 72.6528 -2.42526 4.59866 0
M  V30 697 C 70.3378 -2.90345 4.09884 0
M  V30 698 C 72.3318 -2.29492 5.94653 0
M  V30 699 C 70.0188 -2.7693 5.4475 0
M  V30 700 C 71.0168 -2.46547 6.36949 0
M  V30 701 O 70.7048 -2.33199 7.69333 0
M  V30 702 H 70.4368 -0.481773 0.474205 0
M  V30 703 H 72.9908 -0.934465 1.82912 0
M  V30 704 H 71.2208 -3.48458 1.67672 0
M  V30 705 H 72.9098 -3.47625 2.09551 0
M  V30 706 H 73.6758 -2.28816 4.27631 0
M  V30 707 H 69.5548 -3.1299 3.38464 0
M  V30 708 H 73.0988 -2.05698 6.66584 0
M  V30 709 H 68.9958 -2.90215 5.76581 0
M  V30 710 H 69.7638 -2.48376 7.79905 0
M  V30 711 N 72.4269 -1.23603 -0.977757 0
M  V30 712 C 73.3749 -1.01704 -2.09187 0
M  V30 713 C 74.3689 0.0448214 -1.69341 0
M  V30 714 O 75.5749 -0.108902 -1.7967 0
M  V30 715 H 71.9499 -0.311803 -0.684312 0
M  V30 716 H 73.9209 -1.96207 -2.24823 0
M  V30 717 C 72.6699 -0.627746 -3.41986 0
M  V30 718 H 71.9929 -1.43656 -3.73099 0
M  V30 719 H 73.4329 -0.514053 -4.20872 0
M  V30 720 C 71.8919 0.664238 -3.30287 0
M  V30 721 O 72.4219 1.71268 -3.6336 0
M  V30 722 N 70.6279 0.641156 -2.83439 0
M  V30 723 H 70.1749 -0.212376 -2.56723 0
M  V30 724 H 70.1329 1.50583 -2.75993 0
M  V30 725 N 73.905 1.17692 -1.04816 0
M  V30 726 C 75.13 1.92327 -0.776207 0
M  V30 727 C 75.555 1.76082 0.661581 0
M  V30 728 O 74.913 1.076 1.45917 0
M  V30 729 C 74.961 3.41539 -1.15687 0
M  V30 730 O 74.065 4.11402 -0.286775 0
M  V30 731 H 73.406 0.599735 -0.284981 0
M  V30 732 H 75.936 1.49201 -1.4 0
M  V30 733 H 75.946 3.92269 -1.12202 0
M  V30 734 H 74.621 3.52684 -2.20425 0
M  V30 735 H 73.198 3.70939 -0.381903 0
M  V30 736 N 75.3831 0.828654 1.34056 0
M  V30 737 C 76.3131 0.269443 2.3194 0
M  V30 738 C 77.2941 -0.617247 1.58506 0
M  V30 739 O 78.4791 -0.542931 1.86456 0
M  V30 740 C 75.6091 -0.564793 3.42677 0
M  V30 741 C 74.5631 0.225241 4.27407 0
M  V30 742 C 73.8891 -0.7321 5.29664 0
M  V30 743 C 75.1891 1.43663 5.02154 0
M  V30 744 H 76.8831 1.08728 2.7896 0
M  V30 745 H 74.4291 0.524283 1.34117 0
M  V30 746 H 76.3821 -0.966233 4.10173 0
M  V30 747 H 75.1061 -1.41574 2.9432 0
M  V30 748 H 73.7651 0.608117 3.61521 0
M  V30 749 H 73.4131 -1.57916 4.77568 0
M  V30 750 H 73.1131 -0.20767 5.87233 0
M  V30 751 H 74.6371 -1.13128 6.00029 0
M  V30 752 H 76.0511 1.1089 5.62473 0
M  V30 753 H 74.4481 1.89711 5.69324 0
M  V30 754 H 75.5181 2.21181 4.31517 0
M  V30 755 N 76.8612 -1.46375 0.584142 0
M  V30 756 C 78.1072 -2.02678 0.0703716 0
M  V30 757 C 78.4402 -1.4545 -1.28678 0
M  V30 758 O 77.7152 -0.62014 -1.84349 0
M  V30 759 C 77.9982 -3.60099 0.00614674 0
M  V30 760 C 77.8512 -4.27709 1.3923 0
M  V30 761 C 79.1702 -4.34598 -0.693742 0
M  V30 762 H 76.2892 -0.736504 0.027047 0
M  V30 763 H 78.9312 -1.74501 0.751615 0
M  V30 764 H 77.0812 -3.84236 -0.574009 0
M  V30 765 H 78.7532 -4.14832 2.01773 0
M  V30 766 H 76.9962 -3.87016 1.95962 0
M  V30 767 H 77.6672 -5.36478 1.29982 0
M  V30 768 H 80.1432 -4.15615 -0.200869 0
M  V30 769 H 79.0192 -5.44318 -0.707714 0
M  V30 770 H 79.2802 -4.05759 -1.75533 0
M  V30 771 N 78.3393 -0.321999 -1.54275 0
M  V30 772 C 79.2713 0.578671 -2.21775 0
M  V30 773 C 80.2843 1.08109 -1.21722 0
M  V30 774 O 81.4733 0.994938 -1.482 0
M  V30 775 C 78.5733 1.80661 -2.86731 0
M  V30 776 C 77.7463 1.44314 -4.12907 0
M  V30 777 C 76.8053 2.52845 -4.61472 0
M  V30 778 O 75.8313 2.17054 -5.2619 0
M  V30 779 N 77.0333 3.83748 -4.35566 0
M  V30 780 H 79.7983 0.000709447 -2.997 0
M  V30 781 H 77.3593 -0.145132 -1.61248 0
M  V30 782 H 79.3513 2.52655 -3.16145 0
M  V30 783 H 77.9213 2.29245 -2.12521 0
M  V30 784 H 77.1413 0.554906 -3.90275 0
M  V30 785 H 78.4293 1.17598 -4.95023 0
M  V30 786 H 77.8273 4.15625 -3.83761 0
M  V30 787 H 76.3843 4.51977 -4.69638 0
M  V30 788 N 79.8174 1.5752 -0.0501392 0
M  V30 789 C 81.2284 1.80271 0.485705 0
M  V30 790 C 81.5794 0.96228 1.70981 0
M  V30 791 O 80.7044 0.178578 2.15662 0
M  V30 792 C 81.2994 3.26957 0.887938 0
M  V30 793 C 79.8584 3.5063 1.36877 0
M  V30 794 C 79.0054 2.75165 0.343468 0
M  V30 795 H 81.9564 1.56281 -0.276028 0
M  V30 796 H 81.9774 3.37821 1.75093 0
M  V30 797 H 81.4894 3.881 -0.0031809 0
M  V30 798 H 79.5904 2.94766 2.27911 0
M  V30 799 H 79.7034 4.59343 1.36164 0
M  V30 800 H 78.0674 2.4127 0.816128 0
M  V30 801 H 78.8504 3.39034 -0.539548 0
M  V30 802 N 81.2955 -0.223234 1.56011 0
M  V30 803 C 82.5415 -0.949279 1.79211 0
M  V30 804 C 82.8745 -1.84054 0.619494 0
M  V30 805 O 82.1495 -1.90726 -0.381317 0
M  V30 806 C 82.4325 -1.78965 3.12479 0
M  V30 807 C 82.2855 -0.924997 4.40186 0
M  V30 808 C 83.6045 -2.76774 3.42175 0
M  V30 809 H 80.7235 -0.343676 0.651963 0
M  V30 810 H 83.3655 -0.218253 1.88742 0
M  V30 811 H 81.5155 -2.41291 3.04485 0
M  V30 812 H 83.1875 -0.318615 4.60198 0
M  V30 813 H 81.4305 -0.230344 4.33188 0
M  V30 814 H 82.1015 -1.54735 5.29869 0
M  V30 815 H 84.5775 -2.24584 3.50287 0
M  V30 816 H 83.4535 -3.32678 4.36597 0
M  V30 817 H 83.7145 -3.54429 2.64258 0
M  V30 818 N 82.7736 -1.49793 -0.48987 0
M  V30 819 C 84.1896 -1.36803 -0.822022 0
M  V30 820 C 84.3896 -0.409652 -1.97292 0
M  V30 821 O 83.4456 0.154614 -2.52026 0
M  V30 822 C 84.7586 -2.77768 -1.15175 0
M  V30 823 C 86.3066 -2.86549 -1.25931 0
M  V30 824 C 86.7816 -4.28306 -1.62228 0
M  V30 825 N 88.2726 -4.31169 -1.69256 0
M  V30 826 C 89.0076 -5.37832 -1.98807 0
M  V30 827 N 88.5036 -6.54726 -2.26507 0
M  V30 828 N 90.2966 -5.25258 -2.00152 0
M  V30 829 H 82.4476 -2.10691 0.268881 0
M  V30 830 H 84.7106 -0.946241 0.057728 0
M  V30 831 H 84.4166 -3.49648 -0.379335 0
M  V30 832 H 84.2906 -3.13836 -2.09253 0
M  V30 833 H 86.6776 -2.14899 -2.02243 0
M  V30 834 H 86.7586 -2.54049 -0.298776 0
M  V30 835 H 86.4026 -5.00486 -0.864622 0
M  V30 836 H 86.3326 -4.58279 -2.594 0
M  V30 837 H 88.8236 -3.4687 -1.49965 0
M  V30 838 H 89.1366 -7.31833 -2.48276 0
M  V30 839 H 87.4816 -6.57933 -2.23939 0
M  V30 840 H 90.6726 -4.32938 -1.77996 0
M  V30 841 H 90.8456 -6.08476 -2.22848 0
M  V30 842 N 84.2517 0.741722 -1.39055 0
M  V30 843 C 85.1997 1.87702 -1.3737 0
M  V30 844 C 86.1937 1.67427 -0.257812 0
M  V30 845 O 87.3997 1.7485 -0.427489 0
M  V30 846 H 83.7747 0.617757 -0.428812 0
M  V30 847 H 85.7457 1.86239 -2.33147 0
M  V30 848 C 84.4947 3.25315 -1.22741 0
M  V30 849 H 83.8177 3.41509 -2.07873 0
M  V30 850 H 85.2577 4.04964 -1.25618 0
M  V30 851 C 83.7167 3.36838 0.0647316 0
M  V30 852 O 84.2467 3.88073 1.03741 0
M  V30 853 N 82.4527 2.90329 0.125544 0
M  V30 854 H 81.9997 2.48823 -0.666682 0
M  V30 855 H 81.9577 2.98418 0.989639 0
M  V30 856 N 85.7298 1.2412 0.971189 0
M  V30 857 C 87.1458 1.00584 1.23916 0
M  V30 858 C 87.3458 -0.287481 1.99439 0
M  V30 859 O 86.4018 -1.00454 2.31658 0
M  V30 860 C 87.7148 2.21864 2.0297 0
M  V30 861 C 89.2628 2.26452 2.16076 0
M  V30 862 C 89.7378 3.47343 2.98524 0
M  V30 863 N 91.2288 3.47639 3.06107 0
M  V30 864 C 91.9638 4.37837 3.70251 0
M  V30 865 N 91.4598 5.38286 4.36142 0
M  V30 866 N 93.2528 4.25558 3.67228 0
M  V30 867 H 85.4038 2.07236 0.465499 0
M  V30 868 H 87.6668 0.909236 0.268315 0
M  V30 869 H 87.3728 3.15771 1.54861 0
M  V30 870 H 87.2468 2.23698 3.03709 0
M  V30 871 H 89.6338 1.33078 2.6339 0
M  V30 872 H 89.7148 2.28645 1.14696 0
M  V30 873 H 89.3588 4.41029 2.51905 0
M  V30 874 H 89.2888 3.42393 4.00093 0
M  V30 875 H 91.7798 2.74966 2.59233 0
M  V30 876 H 92.0928 6.03352 4.82894 0
M  V30 877 H 90.4378 5.42176 4.34822 0
M  V30 878 H 93.6288 3.46322 3.14927 0
M  V30 879 H 93.8018 4.96054 4.16935 0
M  V30 880 N 87.2079 -1.17134 1.05439 0
M  V30 881 C 88.4329 -1.91913 0.786396 0
M  V30 882 C 88.8579 -1.7643 -0.652234 0
M  V30 883 O 88.2159 -1.08372 -1.45345 0
M  V30 884 C 88.2639 -3.40921 1.17497 0
M  V30 885 O 87.3679 -4.11244 0.308589 0
M  V30 886 H 86.7089 -0.598215 0.288158 0
M  V30 887 H 89.2389 -1.48457 1.4079 0
M  V30 888 H 89.2489 -3.91668 1.14281 0
M  V30 889 H 87.9239 -3.5151 2.22292 0
M  V30 890 H 86.5009 -3.70731 0.40157 0
M  V30 891 N 88.686 -0.835752 -1.33615 0
M  V30 892 C 89.596 -0.269088 -2.33052 0
M  V30 893 C 90.612 0.603251 -1.63208 0
M  V30 894 O 91.788 0.508112 -1.94885 0
M  V30 895 C 88.853 0.549091 -3.42324 0
M  V30 896 C 87.914 -0.347156 -4.27894 0
M  V30 897 C 87.147 0.43207 -5.31948 0
M  V30 898 O 87.37 1.66409 -5.45586 0
M  V30 899 O 86.304 -0.192298 -6.01593 0
M  V30 900 H 90.13 -1.09243 -2.83372 0
M  V30 901 H 87.715 -0.598198 -1.36901 0
M  V30 902 H 89.597 1.01414 -4.09015 0
M  V30 903 H 88.272 1.34955 -2.94226 0
M  V30 904 H 87.179 -0.859979 -3.64081 0
M  V30 905 H 88.512 -1.1123 -4.79467 0
M  V30 906 N 90.1641 1.46063 -0.591896 0
M  V30 907 C 91.0941 2.33172 0.123673 0
M  V30 908 C 92.0751 1.45897 0.87453 0
M  V30 909 O 93.2601 1.74698 0.848181 0
M  V30 910 C 90.3901 3.28336 1.13194 0
M  V30 911 C 89.3441 4.25124 0.495324 0
M  V30 912 C 88.6701 5.09863 1.61071 0
M  V30 913 C 89.9701 5.19143 -0.573425 0
M  V30 914 H 91.6641 2.93252 -0.603646 0
M  V30 915 H 89.2101 1.41014 -0.291741 0
M  V30 916 H 91.1631 3.88137 1.64097 0
M  V30 917 H 89.8871 2.66383 1.88965 0
M  V30 918 H 88.5461 3.66599 0.00729452 0
M  V30 919 H 88.1941 4.44288 2.35832 0
M  V30 920 H 87.8941 5.75417 1.19035 0
M  V30 921 H 89.4181 5.72529 2.12233 0
M  V30 922 H 90.8321 5.73106 -0.1491 0
M  V30 923 H 89.2291 5.93089 -0.914636 0
M  V30 924 H 90.2991 4.62519 -1.45617 0
M  V30 925 N 91.6422 0.330177 1.54103 0
M  V30 926 C 93.0532 -0.15652 1.86043 0
M  V30 927 C 93.4042 -1.51086 1.2517 0
M  V30 928 O 92.5292 -2.09023 0.560217 0
M  V30 929 C 93.1242 -0.290784 3.3755 0
M  V30 930 C 91.6832 -0.721705 3.69416 0
M  V30 931 C 90.8302 0.152622 2.7688 0
M  V30 932 H 93.7812 0.550237 1.48856 0
M  V30 933 H 93.8022 -1.12058 3.63625 0
M  V30 934 H 93.3142 0.695068 3.81825 0
M  V30 935 H 91.4152 -1.71706 3.30678 0
M  V30 936 H 91.5282 -0.520869 4.7626 0
M  V30 937 H 89.8922 -0.372894 2.51956 0
M  V30 938 H 90.6752 1.13536 3.23982 0
M  V30 939 N 93.1203 -1.57491 0.0584922 0
M  V30 940 C 94.0533 -2.07533 -0.948969 0
M  V30 941 C 95.0313 -0.977444 -1.29942 0
M  V30 942 O 96.2153 -1.2499 -1.41102 0
M  V30 943 C 93.3423 -2.52192 -2.2609 0
M  V30 944 C 92.3883 -3.73287 -2.06298 0
M  V30 945 S 93.2213 -5.18603 -1.33459 0
M  V30 946 C 94.3773 -5.66583 -2.65959 0
M  V30 947 H 94.6103 -2.92662 -0.523118 0
M  V30 948 H 92.1433 -1.53631 -0.153954 0
M  V30 949 H 94.1013 -2.78585 -3.01498 0
M  V30 950 H 92.7623 -1.67356 -2.65802 0
M  V30 951 H 91.9553 -4.0248 -3.03357 0
M  V30 952 H 91.5573 -3.47199 -1.39029 0
M  V30 953 H 93.8493 -5.72616 -3.62101 0
M  V30 954 H 94.7923 -6.65684 -2.41393 0
M  V30 955 H 95.2003 -4.94342 -2.72554 0
M  V30 956 N 94.5984 0.214957 -1.56127 0
M  V30 957 C 95.8474 0.936451 -1.78643 0
M  V30 958 C 96.1604 1.85237 -0.628229 0
M  V30 959 O 97.3664 2.613 -0.737186 0
M  V30 960 C 95.8224 1.7154 -3.16389 0
M  V30 961 C 95.4304 0.845299 -4.39953 0
M  V30 962 C 97.1744 2.42772 -3.48227 0
M  V30 963 C 95.0814 1.62198 -5.68723 0
M  V30 964 H 94.0114 0.353401 -0.666051 0
M  V30 965 H 96.6624 0.190169 -1.82512 0
M  V30 966 H 95.0444 2.50484 -3.06715 0
M  V30 967 H 96.2184 0.0959353 -4.607 0
M  V30 968 H 94.5334 0.244789 -4.1568 0
M  V30 969 H 97.1304 3.01394 -4.41663 0
M  V30 970 H 97.4734 3.15984 -2.71035 0
M  V30 971 H 98.0064 1.70813 -3.5926 0
M  V30 972 H 94.7454 0.933011 -6.48826 0
M  V30 973 H 94.2654 2.34579 -5.52026 0
M  V30 974 H 95.9444 2.18095 -6.09133 0
M  V30 975 N 96.0765 1.50051 0.48192 0
M  V30 976 C 97.3225 1.60736 1.2366 0
M  V30 977 C 97.6555 0.301786 1.91841 0
M  V30 978 O 96.9305 -0.696025 1.8162 0
M  V30 979 C 97.2135 2.78009 2.28874 0
M  V30 980 C 97.0665 4.18416 1.65069 0
M  V30 981 C 98.3855 2.90867 3.30279 0
M  V30 982 H 95.5045 0.585031 0.448228 0
M  V30 983 H 98.1465 1.82402 0.531946 0
M  V30 984 H 96.2965 2.59667 2.88973 0
M  V30 985 H 97.9685 4.48322 1.0865 0
M  V30 986 H 96.2115 4.23177 0.954148 0
M  V30 987 H 96.8825 4.96381 2.41474 0
M  V30 988 H 99.3585 3.07623 2.80191 0
M  V30 989 H 98.2345 3.74566 4.01238 0
M  V30 990 H 98.4955 2.01021 3.93755 0
M  V30 991 N 97.5546 -0.734337 1.39446 0
M  V30 992 C 98.5016 -1.84835 1.38219 0
M  V30 993 C 99.4716 -1.64331 0.24179 0
M  V30 994 O 100.657 -1.85728 0.437002 0
M  V30 995 C 97.7966 -3.22355 1.23212 0
M  V30 996 C 96.9096 -3.5456 2.46801 0
M  V30 997 C 96.0446 -4.81485 2.24377 0
M  V30 998 C 95.0836 -5.06536 3.43639 0
M  V30 999 N 94.2206 -6.24665 3.20528 0
M  V30 1000 H 99.0606 -1.85219 2.33448 0
M  V30 1001 H 96.5976 -0.905039 1.15963 0
M  V30 1002 H 98.5556 -4.0174 1.12522 0
M  V30 1003 H 97.1856 -3.21248 0.316121 0
M  V30 1004 H 96.2376 -2.69872 2.68092 0
M  V30 1005 H 97.5496 -3.6899 3.3563 0
M  V30 1006 H 96.7036 -5.68852 2.10933 0
M  V30 1007 H 95.4426 -4.6923 1.32944 0
M  V30 1008 H 94.4476 -4.17632 3.5758 0
M  V30 1009 H 95.6726 -5.20676 4.35974 0
M  V30 1010 H 93.6186 -6.13696 2.3176 0
M  V30 1011 H 93.5356 -6.39685 4.02913 0
M  V30 1012 H 94.8036 -7.14868 3.10779 0
M  V30 1013 N 99.0327 -1.24633 -0.964593 0
M  V30 1014 C 100.282 -1.08188 -1.7023 0
M  V30 1015 C 100.595 0.37873 -1.91898 0
M  V30 1016 O 101.801 0.663427 -2.6327 0
M  V30 1017 C 100.257 -1.88773 -3.06419 0
M  V30 1018 C 99.8647 -3.39263 -2.92582 0
M  V30 1019 C 101.609 -1.80867 -3.84041 0
M  V30 1020 C 99.5157 -4.1218 -4.24101 0
M  V30 1021 H 98.4457 -0.401245 -0.638372 0
M  V30 1022 H 101.097 -1.48742 -1.07462 0
M  V30 1023 H 99.4787 -1.41035 -3.70034 0
M  V30 1024 H 100.653 -3.94603 -2.37961 0
M  V30 1025 H 98.9677 -3.48154 -2.28424 0
M  V30 1026 H 101.565 -2.32646 -4.81435 0
M  V30 1027 H 101.908 -0.774543 -4.09031 0
M  V30 1028 H 102.441 -2.26301 -3.27159 0
M  V30 1029 H 99.1797 -5.15965 -4.04303 0
M  V30 1030 H 98.6997 -3.61626 -4.78526 0
M  V30 1031 H 100.379 -4.19349 -4.92702 0
M  V30 1032 N 100.511 1.16574 -1.06058 0
M  V30 1033 C 101.759 1.86677 -0.77434 0
M  V30 1034 C 102.08 1.81959 0.701147 0
M  V30 1035 O 101.35 1.2515 1.50713 0
M  V30 1036 H 99.9298 0.691134 -0.283449 0
M  V30 1037 H 102.592 1.41378 -1.34158 0
M  V30 1038 H 101.688 2.92181 -1.09711 0
M  V30 1039 N 101.989 0.842826 1.3317 0
M  V30 1040 C 102.922 0.223862 2.27099 0
M  V30 1041 C 103.9 -0.631311 1.49844 0
M  V30 1042 O 105.084 -0.590708 1.79005 0
M  V30 1043 C 102.211 -0.685313 3.31694 0
M  V30 1044 C 101.257 0.094919 4.26394 0
M  V30 1045 S 102.09 1.45546 5.15341 0
M  V30 1046 C 103.246 0.551685 6.23464 0
M  V30 1047 H 103.479 1.02015 2.79249 0
M  V30 1048 H 101.012 0.639797 1.4052 0
M  V30 1049 H 102.97 -1.20426 3.92438 0
M  V30 1050 H 101.631 -1.4553 2.78352 0
M  V30 1051 H 100.824 -0.597059 5.00451 0
M  V30 1052 H 100.426 0.545054 3.70007 0
M  V30 1053 H 102.718 -0.248877 6.77043 0
M  V30 1054 H 103.661 1.26253 6.96754 0
M  V30 1055 H 104.069 0.131275 5.64347 0
M  V30 1056 N 103.467 -1.45747 0.599634 0
M  V30 1057 C 104.399 -2.28628 -0.161879 0
M  V30 1058 C 105.412 -1.39494 -0.839367 0
M  V30 1059 O 106.601 -1.63941 -0.706089 0
M  V30 1060 C 103.701 -3.15014 -1.24976 0
M  V30 1061 C 102.874 -4.32378 -0.660935 0
M  V30 1062 C 101.933 -5.00033 -1.63869 0
M  V30 1063 O 100.959 -5.57085 -1.1681 0
M  V30 1064 N 102.161 -4.98589 -2.97303 0
M  V30 1065 H 104.926 -2.94624 0.549265 0
M  V30 1066 H 102.487 -1.55847 0.438565 0
M  V30 1067 H 104.479 -3.5714 -1.9035 0
M  V30 1068 H 103.049 -2.5098 -1.86354 0
M  V30 1069 H 102.269 -3.9383 0.170688 0
M  V30 1070 H 103.557 -5.08197 -0.247619 0
M  V30 1071 H 102.955 -4.53514 -3.38145 0
M  V30 1072 H 101.512 -5.44603 -3.58121 0
M  V30 1073 N 104.945 -0.338344 -1.53925 0
M  V30 1074 C 105.875 0.51328 -2.27789 0
M  V30 1075 C 106.856 1.107 -1.29149 0
M  V30 1076 O 108.041 1.12937 -1.57984 0
M  V30 1077 C 105.171 1.66697 -3.04679 0
M  V30 1078 C 104.125 1.20183 -4.1078 0
M  V30 1079 C 103.451 2.44363 -4.75595 0
M  V30 1080 C 104.751 0.30605 -5.21403 0
M  V30 1081 H 106.445 -0.102883 -2.99223 0
M  V30 1082 H 103.991 -0.0509219 -1.4391 0
M  V30 1083 H 105.944 2.26915 -3.55088 0
M  V30 1084 H 104.668 2.30995 -2.30887 0
M  V30 1085 H 103.327 0.622499 -3.61276 0
M  V30 1086 H 102.975 3.07057 -3.98403 0
M  V30 1087 H 102.675 2.13925 -5.47275 0
M  V30 1088 H 104.199 3.05317 -5.28786 0
M  V30 1089 H 105.613 0.814929 -5.67478 0
M  V30 1090 H 104.01 0.0937929 -6.00027 0
M  V30 1091 H 105.08 -0.65921 -4.80398 0
M  V30 1092 N 106.423 1.57458 -0.0668435 0
M  V30 1093 C 107.669 1.93587 0.6043 0
M  V30 1094 C 108.002 0.946722 1.69561 0
M  V30 1095 O 107.277 -0.0248516 1.94484 0
M  V30 1096 C 107.56 3.40014 1.18585 0
M  V30 1097 C 107.413 4.49685 0.101529 0
M  V30 1098 C 108.732 3.87154 2.09284 0
M  V30 1099 H 105.851 0.703958 0.218202 0
M  V30 1100 H 108.493 1.89542 -0.131804 0
M  V30 1101 H 106.643 3.43592 1.81319 0
M  V30 1102 H 108.315 4.5823 -0.531279 0
M  V30 1103 H 106.558 4.30059 -0.568487 0
M  V30 1104 H 107.229 5.49266 0.54874 0
M  V30 1105 H 109.705 3.85551 1.56491 0
M  V30 1106 H 108.581 4.90231 2.46911 0
M  V30 1107 H 108.842 3.2481 2.99918 0
M  V30 1108 N 107.901 -0.206675 1.56239 0
M  V30 1109 C 108.831 -1.25909 1.96645 0
M  V30 1110 C 109.812 -1.48097 0.836734 0
M  V30 1111 O 110.997 -1.6003 1.10019 0
M  V30 1112 C 108.127 -2.6058 2.29599 0
M  V30 1113 C 107.081 -2.53024 3.452 0
M  V30 1114 C 106.407 -3.91861 3.63798 0
M  V30 1115 C 107.707 -2.06524 4.79734 0
M  V30 1116 H 109.401 -0.923369 2.84806 0
M  V30 1117 H 106.947 -0.442735 1.37025 0
M  V30 1118 H 108.9 -3.34375 2.56459 0
M  V30 1119 H 107.624 -2.95869 1.38307 0
M  V30 1120 H 106.283 -1.81684 3.18412 0
M  V30 1121 H 105.931 -4.24483 2.69857 0
M  V30 1122 H 105.631 -3.87683 4.4156 0
M  V30 1123 H 107.155 -4.67296 3.93022 0
M  V30 1124 H 108.569 -2.70072 5.05702 0
M  V30 1125 H 106.966 -2.13374 5.60885 0
M  V30 1126 H 108.036 -1.01802 4.74093 0
M  V30 1127 N 109.379 -1.50304 -0.473955 0
M  V30 1128 C 110.309 -1.71886 -1.58042 0
M  V30 1129 C 111.29 -0.567799 -1.60344 0
M  V30 1130 O 112.475 -0.806623 -1.76656 0
M  V30 1131 C 109.605 -1.81036 -2.96384 0
M  V30 1132 C 108.559 -2.962 -3.08949 0
M  V30 1133 C 107.885 -2.9049 -4.48909 0
M  V30 1134 C 109.185 -4.36752 -2.86434 0
M  V30 1135 H 110.879 -2.64527 -1.40234 0
M  V30 1136 H 108.425 -1.27295 -0.673201 0
M  V30 1137 H 110.378 -1.94719 -3.73714 0
M  V30 1138 H 109.102 -0.850147 -3.15341 0
M  V30 1139 H 107.761 -2.82164 -2.3405 0
M  V30 1140 H 107.409 -1.92321 -4.64781 0
M  V30 1141 H 107.109 -3.67802 -4.58253 0
M  V30 1142 H 108.633 -3.06218 -5.28264 0
M  V30 1143 H 110.047 -4.5133 -3.53517 0
M  V30 1144 H 108.444 -5.15493 -3.07225 0
M  V30 1145 H 109.514 -4.49321 -1.82316 0
M  V30 1146 N 110.857 0.726932 -1.39834 0
M  V30 1147 C 112.106 1.48214 -1.36805 0
M  V30 1148 C 112.419 1.95576 0.0305291 0
M  V30 1149 O 113.625 2.7088 0.183417 0
M  V30 1150 C 112.081 2.67854 -2.40379 0
M  V30 1151 C 111.689 2.27408 -3.85992 0
M  V30 1152 C 113.433 3.45641 -2.46439 0
M  V30 1153 C 111.34 3.43819 -4.81189 0
M  V30 1154 H 110.27 0.556606 -0.508631 0
M  V30 1155 H 112.921 0.792216 -1.65518 0
M  V30 1156 H 111.303 3.3896 -2.04749 0
M  V30 1157 H 112.477 1.63795 -4.30706 0
M  V30 1158 H 110.792 1.62692 -3.83302 0
M  V30 1159 H 113.389 4.32244 -3.14753 0
M  V30 1160 H 113.732 3.88669 -1.49139 0
M  V30 1161 H 114.265 2.8157 -2.81004 0
M  V30 1162 H 111.004 3.05834 -5.79781 0
M  V30 1163 H 110.524 4.06385 -4.41148 0
M  V30 1164 H 112.203 4.10043 -5.00474 0
M  V30 1165 N 112.336 1.25143 0.95797 0
M  V30 1166 C 113.284 1.05019 2.07542 0
M  V30 1167 C 114.278 -0.0178751 1.69391 0
M  V30 1168 O 115.484 0.137472 1.79474 0
M  V30 1169 H 111.859 0.32265 0.679265 0
M  V30 1170 H 113.83 1.99759 2.21673 0
M  V30 1171 C 112.579 0.682074 3.40944 0
M  V30 1172 H 111.902 1.49573 3.70767 0
M  V30 1173 H 113.342 0.580945 4.20001 0
M  V30 1174 C 111.801 -0.611608 3.31302 0
M  V30 1175 O 112.331 -1.65465 3.66038 0
M  V30 1176 N 110.537 -0.595982 2.84423 0
M  V30 1177 H 110.084 0.253192 2.56353 0
M  V30 1178 H 110.042 -1.46173 2.78354 0
M  V30 1179 N 113.814 -1.1601 1.06675 0
M  V30 1180 C 115.06 -1.86909 0.786945 0
M  V30 1181 C 115.393 -1.81717 -0.685018 0
M  V30 1182 O 114.668 -1.23551 -1.50218 0
M  V30 1183 C 114.951 -3.36313 1.28707 0
M  V30 1184 C 114.804 -3.50175 2.82308 0
M  V30 1185 C 116.123 -4.3084 0.898071 0
M  V30 1186 H 113.242 -0.678677 0.287343 0
M  V30 1187 H 115.884 -1.36336 1.32334 0
M  V30 1188 H 114.034 -3.79513 0.830768 0
M  V30 1189 H 115.706 -3.15886 3.36175 0
M  V30 1190 H 113.949 -2.91959 3.20847 0
M  V30 1191 H 114.62 -4.55116 3.12368 0
M  V30 1192 H 117.096 -3.95561 1.29114 0
M  V30 1193 H 115.972 -5.33876 1.27543 0
M  V30 1194 H 116.233 -4.41662 -0.196651 0
M  V30 1195 N 115.292 -0.849877 -1.32721 0
M  V30 1196 C 116.569 -0.372405 -1.92022 0
M  V30 1197 C 116.949 1.1435 -1.77447 0
M  V30 1198 O 116.297 1.96296 -1.16962 0
M  V30 1199 C 116.507 -0.831482 -3.3895 0
M  V30 1200 C 117.855 -0.845882 -4.16089 0
M  V30 1201 O 118.879 -0.775806 -3.47649 0
M  V30 1202 O 117.738 -0.943753 -5.38289 0
M  V30 1203 H 114.832 -0.107667 -0.819961 0
M  V30 1204 H 117.378 -0.93646 -1.41522 0
M  V30 1205 H 116.15 -1.87448 -3.4348 0
M  V30 1206 H 115.773 -0.24461 -3.96847 0
M  V30 1207 N 116.77 1.45427 -0.607355 0
M  V30 1208 C 117.68 2.34325 0.113463 0
M  V30 1209 C 118.696 1.51226 0.860617 0
M  V30 1210 O 119.872 1.84029 0.818255 0
M  V30 1211 C 116.937 3.28839 1.09844 0
M  V30 1212 C 115.998 4.27844 0.353271 0
M  V30 1213 C 115.231 5.17842 1.29133 0
M  V30 1214 O 115.454 5.11264 2.52913 0
M  V30 1215 O 114.388 5.96713 0.788523 0
M  V30 1216 H 118.214 2.97364 -0.617094 0
M  V30 1217 H 115.799 1.44807 -0.367619 0
M  V30 1218 H 117.681 3.8708 1.66575 0
M  V30 1219 H 116.356 2.68365 1.81003 0
M  V30 1220 H 115.263 3.7322 -0.256494 0
M  V30 1221 H 116.596 4.91173 -0.317822 0
M  V30 1222 N 118.248 0.346503 1.53744 0
M  V30 1223 C 119.195 -0.508914 2.25119 0
M  V30 1224 C 120.165 -1.09315 1.25058 0
M  V30 1225 O 121.35 -1.12921 1.53797 0
M  V30 1226 C 118.49 -1.65246 3.02965 0
M  V30 1227 C 117.603 -1.09525 4.17886 0
M  V30 1228 C 116.738 -2.20634 4.83212 0
M  V30 1229 C 115.777 -1.62279 5.90196 0
M  V30 1230 N 114.914 -2.67143 6.49291 0
M  V30 1231 H 119.754 0.106283 2.9781 0
M  V30 1232 H 117.291 0.0642227 1.4696 0
M  V30 1233 H 119.249 -2.32574 3.4636 0
M  V30 1234 H 117.879 -2.2386 2.32565 0
M  V30 1235 H 116.931 -0.312818 3.79112 0
M  V30 1236 H 118.243 -0.628444 4.94825 0
M  V30 1237 H 117.397 -2.95821 5.29693 0
M  V30 1238 H 116.136 -2.70659 4.05703 0
M  V30 1239 H 115.141 -0.855989 5.43096 0
M  V30 1240 H 116.366 -1.13102 6.69615 0
M  V30 1241 H 114.312 -3.16417 5.74645 0
M  V30 1242 H 114.229 -2.25093 7.21713 0
M  V30 1243 H 115.497 -3.4209 7.00425 0
M  V30 1244 N 119.726 -1.57421 0.075193 0
M  V30 1245 C 120.636 -2.1642 -0.905511 0
M  V30 1246 C 121.652 -1.12828 -1.32461 0
M  V30 1247 O 122.828 -1.45109 -1.39661 0
M  V30 1248 C 119.893 -2.71693 -2.15369 0
M  V30 1249 C 118.954 -3.90171 -1.79068 0
M  V30 1250 C 118.187 -4.42798 -2.97936 0
M  V30 1251 O 118.41 -3.94416 -4.12058 0
M  V30 1252 O 117.344 -5.34085 -2.77555 0
M  V30 1253 H 121.17 -3.00588 -0.433626 0
M  V30 1254 H 118.755 -1.48664 -0.148067 0
M  V30 1255 H 120.637 -3.07104 -2.88557 0
M  V30 1256 H 119.312 -1.90582 -2.61649 0
M  V30 1257 H 118.219 -3.59606 -1.03122 0
M  V30 1258 H 119.552 -4.72584 -1.37569 0
M  V30 1259 N 121.204 0.198386 -1.56346 0
M  V30 1260 C 122.136 1.26987 -1.90806 0
M  V30 1261 C 123.149 1.41877 -0.798419 0
M  V30 1262 O 124.338 1.42362 -1.07682 0
M  V30 1263 C 121.438 2.64246 -2.12196 0
M  V30 1264 C 120.611 2.71007 -3.43328 0
M  V30 1265 C 119.67 3.89439 -3.5387 0
M  V30 1266 O 118.696 3.76695 -4.26719 0
M  V30 1267 N 119.898 5.04752 -2.86715 0
M  V30 1268 H 122.663 0.977433 -2.83313 0
M  V30 1269 H 120.224 0.388322 -1.57174 0
M  V30 1270 H 122.216 3.41896 -2.1654 0
M  V30 1271 H 120.786 2.85992 -1.26204 0
M  V30 1272 H 120.006 1.79657 -3.50881 0
M  V30 1273 H 121.294 2.72512 -4.29668 0
M  V30 1274 H 120.692 5.18004 -2.2735 0
M  V30 1275 H 119.249 5.8036 -2.96691 0
M  V30 1276 N 122.682 1.50554 0.465978 0
M  V30 1277 C 123.928 1.62038 1.21949 0
M  V30 1278 C 124.261 0.322116 1.9151 0
M  V30 1279 O 123.536 -0.676723 1.82348 0
M  V30 1280 C 123.819 2.80421 2.25912 0
M  V30 1281 C 123.672 4.20144 1.60622 0
M  V30 1282 C 124.991 2.94354 3.27176 0
M  V30 1283 H 122.11 0.589752 0.441998 0
M  V30 1284 H 124.752 1.82956 0.51257 0
M  V30 1285 H 122.902 2.62717 2.86203 0
M  V30 1286 H 124.574 4.49449 1.03889 0
M  V30 1287 H 122.817 4.24165 0.909211 0
M  V30 1288 H 123.488 4.98914 2.36196 0
M  V30 1289 H 125.964 3.10578 2.76913 0
M  V30 1290 H 124.84 3.788 3.97242 0
M  V30 1291 H 125.101 2.05186 3.916 0
M  V30 1292 N 124.16 -0.719506 1.40217 0
M  V30 1293 C 125.093 -1.84298 1.34571 0
M  V30 1294 C 126.071 -1.61149 0.216741 0
M  V30 1295 O 127.255 -1.84212 0.399756 0
M  V30 1296 C 124.382 -3.20568 1.09335 0
M  V30 1297 C 123.428 -3.62551 2.24631 0
M  V30 1298 S 124.261 -3.7012 3.87004 0
M  V30 1299 C 125.417 -5.09154 3.64024 0
M  V30 1300 H 125.65 -1.88807 2.2965 0
M  V30 1301 H 123.183 -0.885901 1.26456 0
M  V30 1302 H 125.141 -3.99246 0.954602 0
M  V30 1303 H 123.802 -3.13696 0.159164 0
M  V30 1304 H 122.995 -4.61483 2.02606 0
M  V30 1305 H 122.597 -2.91119 2.34789 0
M  V30 1306 H 124.889 -5.95955 3.22248 0
M  V30 1307 H 125.832 -5.36213 4.62473 0
M  V30 1308 H 126.24 -4.79562 2.97793 0
M  V30 1309 N 125.638 -1.25649 -0.95132 0
M  V30 1310 C 126.588 -1.03004 -2.03406 0
M  V30 1311 C 127.572 0.034187 -1.60864 0
M  V30 1312 O 128.764 -0.181549 -1.76066 0
M  V30 1313 C 125.893 -0.654255 -3.37008 0
M  V30 1314 C 124.979 -1.75542 -3.86065 0
M  V30 1315 N 125.37 -2.99113 -4.07879 0
M  V30 1316 C 123.668 -1.63669 -4.14884 0
M  V30 1317 C 124.369 -3.70611 -4.48356 0
M  V30 1318 N 123.345 -2.98247 -4.54477 0
M  V30 1319 H 127.147 -1.96813 -2.1827 0
M  V30 1320 H 124.661 -1.16017 -1.13639 0
M  V30 1321 H 126.658 -0.473206 -4.14206 0
M  V30 1322 H 125.318 0.276468 -3.23521 0
M  V30 1323 H 126.329 -3.35124 -3.94857 0
M  V30 1324 H 123.006 -0.775161 -4.10241 0
M  V30 1325 H 124.396 -4.76695 -4.73509 0
M  V30 1326 N 127.117 1.15442 -1.07289 0
M  V30 1327 C 128.345 1.90096 -0.81676 0
M  V30 1328 C 128.76 1.7798 0.629966 0
M  V30 1329 O 128.117 1.1313 1.43206 0
M  V30 1330 C 128.168 3.40466 -1.21512 0
M  V30 1331 O 127.889 3.52232 -2.60508 0
M  V30 1332 C 129.39 4.32145 -0.988198 0
M  V30 1333 H 126.61 0.602495 -0.295366 0
M  V30 1334 H 129.154 1.4627 -1.42918 0
M  V30 1335 H 127.309 3.81958 -0.647039 0
M  V30 1336 H 127.723 4.45549 -2.76742 0
M  V30 1337 H 129.197 5.36072 -1.31645 0
M  V30 1338 H 129.674 4.39135 0.0755063 0
M  V30 1339 H 130.28 3.96395 -1.54115 0
M  V30 1340 N 128.595 0.856903 1.32268 0
M  V30 1341 C 129.543 0.291987 2.3076 0
M  V30 1342 C 130.537 -0.585857 1.58947 0
M  V30 1343 O 131.743 -0.47341 1.73663 0
M  V30 1344 H 128.118 0.075721 0.748178 0
M  V30 1345 H 130.089 1.13687 2.75895 0
M  V30 1346 C 128.838 -0.502869 3.44044 0
M  V30 1347 H 128.161 0.163328 3.99466 0
M  V30 1348 H 129.601 -0.863691 4.1511 0
M  V30 1349 C 128.06 -1.68898 2.91505 0
M  V30 1350 O 128.59 -2.78811 2.89184 0
M  V30 1351 N 126.796 -1.51679 2.47875 0
M  V30 1352 H 126.343 -0.622666 2.49961 0
M  V30 1353 H 126.301 -2.31184 2.13076 0
M  V30 1354 N 130.073 -1.45103 0.615059 0
M  V30 1355 C 131.319 -2.02483 0.113347 0
M  V30 1356 C 131.652 -1.48146 -1.25564 0
M  V30 1357 O 130.927 -0.659104 -1.82992 0
M  V30 1358 C 131.21 -3.60005 0.0825278 0
M  V30 1359 C 131.063 -4.2466 1.48271 0
M  V30 1360 C 132.382 -4.35972 -0.601401 0
M  V30 1361 H 129.501 -0.735764 0.0426632 0
M  V30 1362 H 132.143 -1.72868 0.788461 0
M  V30 1363 H 130.293 -3.85367 -0.492378 0
M  V30 1364 H 131.965 -4.10458 2.10527 0
M  V30 1365 H 130.208 -3.82772 2.04127 0
M  V30 1366 H 130.879 -5.336 1.41332 0
M  V30 1367 H 133.355 -4.15947 -0.112666 0
M  V30 1368 H 132.231 -5.45697 -0.592097 0
M  V30 1369 H 132.492 -4.09391 -1.66887 0
M  V30 1370 N 131.551 -0.354651 -1.53558 0
M  V30 1371 C 132.797 0.231422 -2.02079 0
M  V30 1372 C 133.152 1.47308 -1.23767 0
M  V30 1373 O 132.445 1.8891 -0.319947 0
M  V30 1374 C 132.639 0.587121 -3.52545 0
M  V30 1375 C 132.468 -0.618513 -4.45426 0
M  V30 1376 C 131.238 -1.12724 -4.92566 0
M  V30 1377 C 133.436 -1.48039 -4.92533 0
M  V30 1378 N 131.418 -2.29404 -5.69427 0
M  V30 1379 C 132.789 -2.49397 -5.67628 0
M  V30 1380 C 134.844 -1.50454 -4.74624 0
M  V30 1381 C 133.547 -3.53013 -6.26717 0
M  V30 1382 C 135.573 -2.52958 -5.34571 0
M  V30 1383 C 134.935 -3.5304 -6.09543 0
M  V30 1384 H 131.034 0.0476909 -0.780544 0
M  V30 1385 H 133.618 -0.496727 -1.88257 0
M  V30 1386 H 131.789 1.28436 -3.6655 0
M  V30 1387 H 133.521 1.15734 -3.87799 0
M  V30 1388 H 130.276 -0.693577 -4.68494 0
M  V30 1389 H 130.7 -2.88347 -6.12524 0
M  V30 1390 H 135.342 -0.744356 -4.16196 0
M  V30 1391 H 133.06 -4.2992 -6.84247 0
M  V30 1392 H 136.646 -2.55667 -5.22614 0
M  V30 1393 H 135.526 -4.31056 -6.55103 0
M  V30 1394 N 133.029 1.57378 -0.0835403 0
M  V30 1395 C 133.959 2.1641 0.87686 0
M  V30 1396 C 134.94 1.09429 1.30228 0
M  V30 1397 O 136.125 1.37516 1.37124 0
M  V30 1398 C 133.255 2.73517 2.14022 0
M  V30 1399 C 132.209 3.85769 1.85381 0
M  V30 1400 C 131.535 4.29529 3.18448 0
M  V30 1401 C 132.835 5.09486 1.14984 0
M  V30 1402 H 134.529 2.96914 0.385059 0
M  V30 1403 H 132.075 1.42823 0.18377 0
M  V30 1404 H 134.028 3.13463 2.81636 0
M  V30 1405 H 132.752 1.90252 2.65465 0
M  V30 1406 H 131.411 3.46345 1.20169 0
M  V30 1407 H 131.059 3.43169 3.67755 0
M  V30 1408 H 130.759 5.05204 3.00071 0
M  V30 1409 H 132.283 4.72099 3.8724 0
M  V30 1410 H 133.697 5.46674 1.72687 0
M  V30 1411 H 132.094 5.90515 1.06826 0
M  V30 1412 H 133.164 4.84724 0.130749 0
M  V30 1413 N 134.507 -0.190092 1.56449 0
M  V30 1414 C 135.735 -0.925772 1.85033 0
M  V30 1415 C 136.15 -1.76638 0.666658 0
M  V30 1416 O 135.507 -1.78822 -0.364565 0
M  V30 1417 C 135.558 -1.81786 3.12468 0
M  V30 1418 O 135.279 -1.01118 4.26271 0
M  V30 1419 C 136.78 -2.6648 3.54265 0
M  V30 1420 H 134 -0.269872 0.614337 0
M  V30 1421 H 136.544 -0.195837 2.0356 0
M  V30 1422 H 134.699 -2.50136 2.95822 0
M  V30 1423 H 135.113 -1.61956 4.98869 0
M  V30 1424 H 136.587 -3.24722 4.46385 0
M  V30 1425 H 137.064 -3.40434 2.77491 0
M  V30 1426 H 137.67 -2.03493 3.73458 0
M  V30 1427 N 135.985 -1.50799 -0.457987 0
M  V30 1428 C 136.918 -1.65273 -1.57353 0
M  V30 1429 C 137.896 -0.500578 -1.54703 0
M  V30 1430 O 139.08 -0.721781 -1.74134 0
M  V30 1431 C 136.207 -1.64737 -2.95938 0
M  V30 1432 C 135.253 -2.8567 -3.16693 0
M  V30 1433 S 136.086 -4.46791 -2.95191 0
M  V30 1434 C 137.242 -4.48968 -4.36095 0
M  V30 1435 H 137.475 -2.59633 -1.44838 0
M  V30 1436 H 135.008 -1.40225 -0.64625 0
M  V30 1437 H 136.966 -1.65112 -3.7583 0
M  V30 1438 H 135.627 -0.715899 -3.05833 0
M  V30 1439 H 134.82 -2.81637 -4.17967 0
M  V30 1440 H 134.422 -2.8293 -2.44594 0
M  V30 1441 H 136.714 -4.23337 -5.28954 0
M  V30 1442 H 137.657 -5.50664 -4.45168 0
M  V30 1443 H 138.065 -3.78522 -4.18786 0
M  V30 1444 N 137.463 0.71206 -1.40597 0
M  V30 1445 C 138.41 1.82613 -1.41142 0
M  V30 1446 C 139.38 1.63925 -0.267903 0
M  V30 1447 O 140.565 1.85009 -0.466495 0
M  V30 1448 C 137.705 3.20354 -1.28324 0
M  V30 1449 C 136.818 3.50589 -2.52411 0
M  V30 1450 C 135.953 4.77855 -2.32009 0
M  V30 1451 C 134.992 5.01005 -3.51654 0
M  V30 1452 N 134.129 6.19487 -3.30425 0
M  V30 1453 H 138.969 1.81482 -2.36365 0
M  V30 1454 H 136.506 0.886475 -1.17388 0
M  V30 1455 H 138.464 3.99899 -1.18899 0
M  V30 1456 H 137.094 3.20705 -0.367189 0
M  V30 1457 H 136.146 2.65573 -2.72351 0
M  V30 1458 H 137.458 3.63604 -3.41458 0
M  V30 1459 H 136.612 5.65424 -2.19956 0
M  V30 1460 H 135.351 4.67056 -1.40392 0
M  V30 1461 H 134.356 4.1189 -3.64179 0
M  V30 1462 H 135.581 5.13674 -4.44202 0
M  V30 1463 H 133.527 6.09932 -2.41494 0
M  V30 1464 H 133.444 6.33194 -4.13039 0
M  V30 1465 H 134.712 7.09834 -3.22113 0
M  V30 1466 N 138.941 1.26152 0.944643 0
M  V30 1467 C 140.187 1.12665 1.69346 0
M  V30 1468 C 140.542 -0.3273 1.89596 0
M  V30 1469 O 139.835 -1.23717 1.46303 0
M  V30 1470 C 140.029 1.82541 3.07268 0
M  V30 1471 C 139.858 3.34582 3.00475 0
M  V30 1472 C 138.628 4.03863 3.03681 0
M  V30 1473 C 140.826 4.30828 2.80877 0
M  V30 1474 N 138.808 5.42603 2.87151 0
M  V30 1475 C 140.179 5.5672 2.7288 0
M  V30 1476 C 142.234 4.21122 2.65633 0
M  V30 1477 C 140.937 6.74013 2.51196 0
M  V30 1478 C 142.963 5.38118 2.45323 0
M  V30 1479 C 142.325 6.62955 2.38055 0
M  V30 1480 H 138.424 0.467041 0.627214 0
M  V30 1481 H 141.008 1.59391 1.11815 0
M  V30 1482 H 139.179 1.38296 3.62945 0
M  V30 1483 H 140.911 1.61708 3.70989 0
M  V30 1484 H 137.666 3.55198 3.1326 0
M  V30 1485 H 138.09 6.15443 2.82063 0
M  V30 1486 H 142.732 3.25344 2.70021 0
M  V30 1487 H 140.45 7.6989 2.4555 0
M  V30 1488 H 144.036 5.32475 2.34439 0
M  V30 1489 H 142.916 7.51959 2.22546 0
M  V30 1490 N 140.419 -1.14872 1.07899 0
M  V30 1491 C 141.696 -1.81928 0.71845 0
M  V30 1492 C 142.076 -1.95417 -0.798455 0
M  V30 1493 O 141.424 -1.50997 -1.715 0
M  V30 1494 C 141.634 -3.17937 1.43935 0
M  V30 1495 C 142.982 -3.93501 1.59506 0
M  V30 1496 O 144.006 -3.27509 1.40058 0
M  V30 1497 O 142.865 -5.1183 1.91551 0
M  V30 1498 H 139.959 -0.78628 0.256305 0
M  V30 1499 H 142.505 -1.21934 1.18026 0
M  V30 1500 H 141.277 -3.0325 2.47295 0
M  V30 1501 H 140.9 -3.85619 0.968687 0
M  V30 1502 N 141.898 -0.863906 -1.31812 0
M  V30 1503 C 143.175 -0.39275 -1.91616 0
M  V30 1504 C 143.555 1.12461 -1.7865 0
M  V30 1505 O 142.903 1.95045 -1.19037 0
M  V30 1506 C 143.113 -0.867385 -3.38049 0
M  V30 1507 C 144.461 -0.889966 -4.15168 0
M  V30 1508 O 145.485 -0.812635 -3.46806 0
M  V30 1509 O 144.344 -1.00079 -5.37258 0
M  V30 1510 H 141.438 -0.116358 -0.818773 0
M  V30 1511 H 143.984 -0.951418 -1.40521 0
M  V30 1512 H 142.756 -1.91081 -3.41473 0
M  V30 1513 H 142.379 -0.286687 -3.96565 0
M  V30 1514 N 143.376 1.44774 -0.622745 0
M  V30 1515 C 144.623 2.02121 -0.1239 0
M  V30 1516 C 144.951 1.48915 1.25118 0
M  V30 1517 O 144.206 0.660045 1.84233 0
M  V30 1518 C 144.505 3.57364 -0.0508323 0
M  V30 1519 C 144.171 4.29787 -1.36358 0
M  V30 1520 C 142.833 4.4929 -1.72314 0
M  V30 1521 C 145.185 4.71062 -2.23048 0
M  V30 1522 C 142.513 5.07325 -2.94682 0
M  V30 1523 C 144.865 5.30452 -3.44679 0
M  V30 1524 C 143.529 5.48175 -3.80868 0
M  V30 1525 H 142.799 0.739612 -0.0453381 0
M  V30 1526 H 145.446 1.73648 -0.807389 0
M  V30 1527 H 143.751 3.85202 0.715991 0
M  V30 1528 H 145.448 3.99456 0.351533 0
M  V30 1529 H 142.038 4.14932 -1.07375 0
M  V30 1530 H 146.222 4.55715 -1.96565 0
M  V30 1531 H 141.478 5.19235 -3.22809 0
M  V30 1532 H 145.652 5.61385 -4.12092 0
M  V30 1533 H 143.279 5.92912 -4.75773 0
M  V30 1534 N 144.854 0.36279 1.53368 0
M  V30 1535 C 145.786 -0.519668 2.23231 0
M  V30 1536 C 146.799 -1.04844 1.24546 0
M  V30 1537 O 147.988 -0.955296 1.50786 0
M  V30 1538 C 145.088 -1.72995 2.9142 0
M  V30 1539 C 144.261 -1.33316 4.16588 0
M  V30 1540 C 143.32 -2.40521 4.68013 0
M  V30 1541 O 142.346 -2.03027 5.3176 0
M  V30 1542 N 143.548 -3.72065 4.45587 0
M  V30 1543 H 146.313 0.078751 2.99597 0
M  V30 1544 H 143.874 0.187833 1.60807 0
M  V30 1545 H 145.866 -2.44184 3.22733 0
M  V30 1546 H 144.436 -2.2353 2.18525 0
M  V30 1547 H 143.656 -0.451236 3.91609 0
M  V30 1548 H 144.944 -1.04432 4.97967 0
M  V30 1549 H 144.342 -4.05304 3.94646 0
M  V30 1550 H 142.899 -4.39366 4.81457 0
M  V30 1551 N 146.332 -1.57332 0.0918853 0
M  V30 1552 C 147.262 -2.16872 -0.865371 0
M  V30 1553 C 148.243 -1.10118 -1.29646 0
M  V30 1554 O 149.428 -1.38242 -1.36392 0
M  V30 1555 C 146.558 -2.74649 -2.12569 0
M  V30 1556 C 145.512 -3.86747 -1.83333 0
M  V30 1557 C 144.838 -4.31212 -3.16166 0
M  V30 1558 C 146.138 -5.10089 -1.1228 0
M  V30 1559 H 147.832 -2.97114 -0.369307 0
M  V30 1560 H 145.378 -1.42918 -0.176194 0
M  V30 1561 H 147.331 -3.14952 -2.7997 0
M  V30 1562 H 146.055 -1.91657 -2.64452 0
M  V30 1563 H 144.714 -3.46978 -1.18331 0
M  V30 1564 H 144.362 -3.45115 -3.6593 0
M  V30 1565 H 144.062 -5.06788 -2.97388 0
M  V30 1566 H 145.586 -4.74146 -3.84731 0
M  V30 1567 H 147 -5.47582 -1.69785 0
M  V30 1568 H 145.397 -5.91073 -1.03693 0
M  V30 1569 H 146.467 -4.84786 -0.105041 0
M  V30 1570 N 147.81 0.181792 -1.56548 0
M  V30 1571 C 148.757 1.22521 -1.95595 0
M  V30 1572 C 149.727 1.4454 -0.818373 0
M  V30 1573 O 150.912 1.57454 -1.07763 0
M  V30 1574 C 148.052 2.56193 -2.31212 0
M  V30 1575 C 147.165 2.41641 -3.58097 0
M  V30 1576 C 146.3 3.68108 -3.82975 0
M  V30 1577 C 145.339 3.48445 -5.03242 0
M  V30 1578 N 144.476 4.66956 -5.24306 0
M  V30 1579 H 149.316 0.885226 -2.84548 0
M  V30 1580 H 146.853 0.425718 -1.40805 0
M  V30 1581 H 148.811 3.34088 -2.49882 0
M  V30 1582 H 147.441 2.88208 -1.45382 0
M  V30 1583 H 146.493 1.54976 -3.474 0
M  V30 1584 H 147.805 2.23052 -4.46149 0
M  V30 1585 H 146.959 4.54441 -4.01956 0
M  V30 1586 H 145.698 3.89666 -2.93278 0
M  V30 1587 H 144.703 2.60499 -4.8417 0
M  V30 1588 H 145.928 3.2832 -5.9446 0
M  V30 1589 H 143.874 4.88752 -4.37559 0
M  V30 1590 H 143.791 4.51242 -6.06561 0
M  V30 1591 H 145.059 5.54602 -5.47756 0
M  V30 1592 N 149.288 1.51039 0.449983 0
M  V30 1593 C 150.534 1.64287 1.19923 0
M  V30 1594 C 150.889 0.348701 1.89214 0
M  V30 1595 O 150.182 -0.654751 1.80065 0
M  V30 1596 C 150.376 2.77556 2.25161 0
M  V30 1597 C 150.205 4.17862 1.66198 0
M  V30 1598 C 148.975 4.83976 1.45243 0
M  V30 1599 C 151.173 5.01388 1.14519 0
M  V30 1600 N 149.155 6.08433 0.817437 0
M  V30 1601 C 150.526 6.16743 0.634705 0
M  V30 1602 C 152.581 4.87008 1.03574 0
M  V30 1603 C 151.284 7.19295 0.0255452 0
M  V30 1604 C 153.31 5.89757 0.440489 0
M  V30 1605 C 152.672 7.04375 -0.0595112 0
M  V30 1606 H 148.771 0.655161 0.426952 0
M  V30 1607 H 151.355 1.88228 0.49781 0
M  V30 1608 H 149.526 2.553 2.92706 0
M  V30 1609 H 151.258 2.80049 2.92155 0
M  V30 1610 H 148.013 4.41627 1.71063 0
M  V30 1611 H 148.437 6.75017 0.517747 0
M  V30 1612 H 153.079 3.9866 1.4082 0
M  V30 1613 H 150.797 8.07302 -0.359071 0
M  V30 1614 H 154.383 5.80698 0.35788 0
M  V30 1615 H 153.263 7.82521 -0.512882 0
M  V30 1616 N 150.766 -0.704594 1.40972 0
M  V30 1617 C 152.043 -1.45847 1.30338 0
M  V30 1618 C 152.423 -2.10973 -0.0732344 0
M  V30 1619 O 151.771 -2.00997 -1.08685 0
M  V30 1620 C 151.981 -2.48525 2.45023 0
M  V30 1621 C 153.329 -3.1404 2.8577 0
M  V30 1622 O 154.353 -2.58848 2.44696 0
M  V30 1623 O 153.212 -4.13981 3.56766 0
M  V30 1624 H 150.306 -0.649092 0.512454 0
M  V30 1625 H 152.852 -0.735836 1.52917 0
M  V30 1626 H 151.624 -1.98994 3.36923 0
M  V30 1627 H 151.247 -3.2831 2.24272 0
M  V30 1628 N 152.244 -1.26651 -0.937939 0
M  V30 1629 C 153.655 -1.1125 -1.49934 0
M  V30 1630 C 154.006 0.306077 -1.93798 0
M  V30 1631 O 153.131 1.19792 -1.80219 0
M  V30 1632 C 153.726 -2.01339 -2.72485 0
M  V30 1633 C 152.285 -1.90074 -3.24883 0
M  V30 1634 C 151.432 -1.94498 -1.97651 0
M  V30 1635 H 154.383 -1.39693 -0.753091 0
M  V30 1636 H 154.404 -1.56319 -3.46907 0
M  V30 1637 H 153.916 -3.04577 -2.40529 0
M  V30 1638 H 152.017 -0.897827 -3.61621 0
M  V30 1639 H 152.13 -2.75778 -3.9177 0
M  V30 1640 H 150.494 -1.38591 -2.13693 0
M  V30 1641 H 151.277 -2.99372 -1.68022 0
M  V30 1642 N 153.722 1.14298 -1.08507 0
M  V30 1643 C 155.138 1.37347 -0.812901 0
M  V30 1644 C 155.338 1.93052 0.577325 0
M  V30 1645 O 154.394 2.14389 1.33393 0
M  V30 1646 C 155.707 2.33359 -1.89642 0
M  V30 1647 C 157.255 2.46996 -1.92255 0
M  V30 1648 C 157.73 3.46309 -2.99724 0
M  V30 1649 N 159.221 3.53853 -2.98902 0
M  V30 1650 C 159.956 4.3055 -3.787 0
M  V30 1651 N 159.452 5.10482 -4.6838 0
M  V30 1652 N 161.245 4.25757 -3.66998 0
M  V30 1653 H 153.396 0.764867 -1.9815 0
M  V30 1654 H 155.659 0.398966 -0.859959 0
M  V30 1655 H 155.365 1.99565 -2.89597 0
M  V30 1656 H 155.239 3.33274 -1.76659 0
M  V30 1657 H 157.626 2.80081 -0.929445 0
M  V30 1658 H 157.707 1.47039 -2.09316 0
M  V30 1659 H 157.351 3.13957 -3.99241 0
M  V30 1660 H 157.281 4.46049 -2.79907 0
M  V30 1661 H 159.772 2.96812 -2.33904 0
M  V30 1662 H 160.085 5.66284 -5.25873 0
M  V30 1663 H 158.43 5.09747 -4.72422 0
M  V30 1664 H 161.621 3.62383 -2.96304 0
M  V30 1665 H 161.794 4.85279 -4.29427 0
M  V30 1666 N 155.201 0.870884 1.31352 0
M  V30 1667 C 156.478 0.402907 1.91405 0
M  V30 1668 C 156.858 -1.11512 1.79244 0
M  V30 1669 O 156.206 -1.94411 1.2007 0
M  V30 1670 C 156.416 0.885301 3.37585 0
M  V30 1671 C 157.764 0.911971 4.14691 0
M  V30 1672 O 158.788 0.831016 3.46371 0
M  V30 1673 O 157.647 1.02927 5.3672 0
M  V30 1674 H 154.741 0.120698 0.818145 0
M  V30 1675 H 157.287 0.958857 1.40014 0
M  V30 1676 H 156.059 1.92889 3.40455 0
M  V30 1677 H 155.682 0.307714 3.96407 0
M  V30 1678 N 156.679 -1.44442 0.630414 0
M  V30 1679 C 157.909 -2.06115 0.141465 0
M  V30 1680 C 158.317 -1.47179 -1.1889 0
M  V30 1681 O 157.66 -0.588873 -1.74006 0
M  V30 1682 C 157.722 -3.59467 -0.0484355 0
M  V30 1683 C 157.386 -4.40864 1.20366 0
M  V30 1684 C 158.383 -4.74391 2.12719 0
M  V30 1685 C 156.068 -4.8125 1.43887 0
M  V30 1686 C 158.062 -5.47186 3.26904 0
M  V30 1687 C 155.749 -5.53795 2.5837 0
M  V30 1688 C 156.747 -5.86682 3.49705 0
M  V30 1689 O 156.435 -6.57749 4.62191 0
M  V30 1690 H 156.167 -0.671648 0.0765792 0
M  V30 1691 H 158.721 -1.86312 0.864695 0
M  V30 1692 H 156.951 -3.77758 -0.826803 0
M  V30 1693 H 158.64 -4.02909 -0.491849 0
M  V30 1694 H 159.406 -4.43728 1.95781 0
M  V30 1695 H 155.285 -4.55073 0.736853 0
M  V30 1696 H 158.829 -5.72773 3.98217 0
M  V30 1697 H 154.726 -5.83872 2.75251 0
M  V30 1698 H 155.494 -6.76217 4.61164 0
M  V30 1699 N 158.157 -0.370918 -1.53173 0
M  V30 1700 C 159.12 0.460778 -2.24521 0
M  V30 1701 C 160.12 1.00536 -1.25496 0
M  V30 1702 O 161.31 0.890266 -1.49733 0
M  V30 1703 C 158.442 1.64457 -2.98608 0
M  V30 1704 H 159.635 -0.163613 -2.99453 0
M  V30 1705 H 157.188 -0.122699 -1.55818 0
M  V30 1706 H 157.923 2.30691 -2.2793 0
M  V30 1707 H 157.708 1.26099 -3.7127 0
M  V30 1708 H 159.198 2.23384 -3.5283 0
M  V30 1709 N 159.635 1.57281 -0.100228 0
M  V30 1710 C 160.583 2.15542 0.874328 0
M  V30 1711 C 161.577 1.09962 1.28859 0
M  V30 1712 O 162.783 1.28298 1.26252 0
M  V30 1713 H 159.158 0.689567 0.300003 0
M  V30 1714 H 161.129 2.96241 0.35829 0
M  V30 1715 C 159.878 2.75454 2.1218 0
M  V30 1716 H 159.201 3.56384 1.81193 0
M  V30 1717 H 160.641 3.19781 2.78417 0
M  V30 1718 C 159.1 1.71602 2.89921 0
M  V30 1719 O 159.63 1.15804 3.84646 0
M  V30 1720 N 157.836 1.41975 2.53558 0
M  V30 1721 H 157.383 1.87539 1.76598 0
M  V30 1722 H 157.341 0.727274 3.05873 0
M  V30 1723 N 161.113 -0.173488 1.56642 0
M  V30 1724 C 162.362 -0.888758 1.81063 0
M  V30 1725 C 162.675 -1.83506 0.67712 0
M  V30 1726 O 163.881 -2.59254 0.806206 0
M  V30 1727 C 162.337 -1.63091 3.20826 0
M  V30 1728 C 161.945 -0.728357 4.4204 0
M  V30 1729 C 163.689 -2.33454 3.54541 0
M  V30 1730 C 161.596 -1.47062 5.72823 0
M  V30 1731 H 160.526 -0.335618 0.675186 0
M  V30 1732 H 163.177 -0.141712 1.82952 0
M  V30 1733 H 161.559 -2.42263 3.13248 0
M  V30 1734 H 162.733 0.0262449 4.60793 0
M  V30 1735 H 161.048 -0.134492 4.16183 0
M  V30 1736 H 163.645 -2.89578 4.49498 0
M  V30 1737 H 163.988 -3.08687 2.79317 0
M  V30 1738 H 164.521 -1.61227 3.63663 0
M  V30 1739 H 161.26 -0.760658 6.51072 0
M  V30 1740 H 160.78 -2.1986 5.58052 0
M  V30 1741 H 162.459 -2.01868 6.14702 0
M  V30 1742 N 162.591 -1.51276 -0.441967 0
M  V30 1743 C 163.819 -1.67516 -1.21434 0
M  V30 1744 C 164.234 -0.37055 -1.85128 0
M  V30 1745 O 163.591 0.650498 -1.70513 0
M  V30 1746 C 163.642 -2.78748 -2.30177 0
M  V30 1747 O 163.363 -4.04154 -1.69089 0
M  V30 1748 C 164.864 -3.06217 -3.20541 0
M  V30 1749 H 162.084 -0.562276 -0.366178 0
M  V30 1750 H 164.628 -1.97666 -0.524244 0
M  V30 1751 H 162.783 -2.5121 -2.94911 0
M  V30 1752 H 163.197 -4.65894 -2.40922 0
M  V30 1753 H 164.671 -3.8764 -3.92987 0
M  V30 1754 H 165.148 -2.18439 -3.81026 0
M  V30 1755 H 165.754 -3.35397 -2.61513 0
M  V30 1756 N 164.069 0.697108 -1.41344 0
M  V30 1757 C 165.001 1.8224 -1.39001 0
M  V30 1758 C 166.014 1.60152 -0.292428 0
M  V30 1759 O 167.203 1.69684 -0.554048 0
M  V30 1760 C 164.303 3.18976 -1.14489 0
M  V30 1761 C 163.476 3.68105 -2.36258 0
M  V30 1762 C 162.535 4.83506 -2.07625 0
M  V30 1763 O 161.561 4.95201 -2.8065 0
M  V30 1764 N 162.763 5.70637 -1.06555 0
M  V30 1765 H 165.528 1.84742 -2.35988 0
M  V30 1766 H 163.089 0.87937 -1.35936 0
M  V30 1767 H 165.081 3.93801 -0.932885 0
M  V30 1768 H 163.651 3.11508 -0.261043 0
M  V30 1769 H 162.871 2.84204 -2.7317 0
M  V30 1770 H 164.159 3.97667 -3.17393 0
M  V30 1771 H 163.557 5.63817 -0.461125 0
M  V30 1772 H 162.114 6.45368 -0.913444 0
M  V30 1773 N 165.547 1.27147 0.931209 0
M  V30 1774 C 166.796 1.12664 1.67302 0
M  V30 1775 C 167.109 -0.327718 1.92835 0
M  V30 1776 O 168.315 -0.593392 2.64936 0
M  V30 1777 C 166.771 1.9683 3.01307 0
M  V30 1778 C 166.379 3.46901 2.83485 0
M  V30 1779 C 168.123 1.90985 3.79111 0
M  V30 1780 C 166.03 4.23279 4.13024 0
M  V30 1781 H 164.96 0.41803 0.627509 0
M  V30 1782 H 167.611 1.51539 1.03481 0
M  V30 1783 H 165.993 1.50797 3.66164 0
M  V30 1784 H 167.167 4.00773 2.27415 0
M  V30 1785 H 165.482 3.54088 2.19113 0
M  V30 1786 H 168.079 2.45328 4.75098 0
M  V30 1787 H 168.422 0.882718 4.06834 0
M  V30 1788 H 168.955 2.34895 3.21044 0
M  V30 1789 H 165.694 5.26503 3.90481 0
M  V30 1790 H 165.214 3.74186 4.6877 0
M  V30 1791 H 166.893 4.32265 4.81411 0
M  V30 1792 N 167.025 -1.13721 1.09112 0
M  V30 1793 C 168.441 -1.36914 0.820174 0
M  V30 1794 C 168.641 -1.93356 -0.567079 0
M  V30 1795 O 167.697 -2.15093 -1.32255 0
M  V30 1796 C 169.01 -2.3235 1.90877 0
M  V30 1797 C 170.558 -2.45973 1.93562 0
M  V30 1798 C 171.033 -3.44714 3.01556 0
M  V30 1799 N 172.524 -3.52263 3.00775 0
M  V30 1800 C 173.259 -4.28536 3.80978 0
M  V30 1801 N 172.755 -5.07991 4.71081 0
M  V30 1802 N 174.548 -4.23804 3.69251 0
M  V30 1803 H 166.699 -0.754348 1.98553 0
M  V30 1804 H 168.962 -0.3944 0.862063 0
M  V30 1805 H 168.668 -1.98027 2.90651 0
M  V30 1806 H 168.542 -3.32332 1.78424 0
M  V30 1807 H 170.929 -2.79584 0.944286 0
M  V30 1808 H 171.01 -1.45926 2.10093 0
M  V30 1809 H 170.654 -3.11835 4.00901 0
M  V30 1810 H 170.584 -4.44558 2.82269 0
M  V30 1811 H 173.075 -2.95567 2.35475 0
M  V30 1812 H 173.388 -5.63487 5.28869 0
M  V30 1813 H 171.733 -5.07235 4.75119 0
M  V30 1814 H 174.924 -3.60806 2.98222 0
M  V30 1815 H 175.097 -4.82995 4.31995 0
M  V30 1816 N 168.503 -0.877838 -1.30888 0
M  V30 1817 C 169.749 -0.493426 -1.96706 0
M  V30 1818 C 170.082 0.953504 -1.6918 0
M  V30 1819 O 169.357 1.67266 -0.992594 0
M  V30 1820 C 169.64 -0.760429 -3.51979 0
M  V30 1821 C 169.493 -2.25747 -3.89048 0
M  V30 1822 C 170.812 -0.232148 -4.39487 0
M  V30 1823 H 167.931 -0.180746 -0.714493 0
M  V30 1824 H 170.573 -1.10052 -1.54882 0
M  V30 1825 H 168.723 -0.243715 -3.87735 0
M  V30 1826 H 170.395 -2.84204 -3.63354 0
M  V30 1827 H 168.638 -2.72694 -3.37373 0
M  V30 1828 H 169.309 -2.39491 -4.97341 0
M  V30 1829 H 171.785 -0.674314 -4.106 0
M  V30 1830 H 170.661 -0.448355 -5.47066 0
M  V30 1831 H 170.922 0.866297 -4.33529 0
M  V30 1832 N 169.982 1.44106 -0.638065 0
M  V30 1833 C 170.945 2.29138 0.0531013 0
M  V30 1834 C 171.945 1.41409 0.765506 0
M  V30 1835 O 173.135 1.63206 0.609046 0
M  V30 1836 C 170.267 3.23144 1.08584 0
M  V30 1837 H 171.46 2.91739 -0.694883 0
M  V30 1838 H 169.013 1.51134 -0.398538 0
M  V30 1839 H 169.748 2.65408 1.86357 0
M  V30 1840 H 169.533 3.87804 0.578852 0
M  V30 1841 H 171.023 3.87004 1.56899 0
M  V30 1842 N 171.46 0.379036 1.52974 0
M  V30 1843 C 172.871 -0.0972525 1.86447 0
M  V30 1844 C 173.222 -1.47027 1.29914 0
M  V30 1845 O 172.347 -2.07135 0.626433 0
M  V30 1846 C 172.942 -0.183248 3.38304 0
M  V30 1847 C 171.501 -0.603812 3.71525 0
M  V30 1848 C 170.648 0.240632 2.76254 0
M  V30 1849 H 173.599 0.597316 1.4703 0
M  V30 1850 H 173.62 -1.00432 3.67006 0
M  V30 1851 H 173.132 0.816191 3.79421 0
M  V30 1852 H 171.233 -1.61099 3.35973 0
M  V30 1853 H 171.346 -0.369086 4.77676 0
M  V30 1854 H 169.71 -0.292548 2.53014 0
M  V30 1855 H 170.493 1.23786 3.20206 0
M  V30 1856 N 172.938 -1.57226 0.108567 0
M  V30 1857 C 173.848 -2.18292 -0.859401 0
M  V30 1858 C 174.864 -1.15612 -1.30038 0
M  V30 1859 O 176.04 -1.48039 -1.36552 0
M  V30 1860 C 173.105 -2.762 -2.09558 0
M  V30 1861 C 172.166 -3.93881 -1.70752 0
M  V30 1862 C 171.399 -4.49018 -2.88477 0
M  V30 1863 O 171.622 -4.03068 -4.036 0
M  V30 1864 O 170.556 -5.39852 -2.66164 0
M  V30 1865 H 174.382 -3.01441 -0.369769 0
M  V30 1866 H 171.967 -1.48945 -0.1165 0
M  V30 1867 H 173.849 -3.13156 -2.81978 0
M  V30 1868 H 172.524 -1.96089 -2.57548 0
M  V30 1869 H 171.431 -3.61713 -0.954714 0
M  V30 1870 H 172.764 -4.75396 -1.27513 0
M  V30 1871 N 174.416 0.165178 -1.56732 0
M  V30 1872 C 175.363 1.2044 -1.96883 0
M  V30 1873 C 176.333 1.43664 -0.833657 0
M  V30 1874 O 177.518 1.56302 -1.09427 0
M  V30 1875 C 174.658 2.53727 -2.33916 0
M  V30 1876 C 173.771 2.3783 -3.6064 0
M  V30 1877 C 172.906 3.64026 -3.86857 0
M  V30 1878 C 171.945 3.43088 -5.06909 0
M  V30 1879 N 171.082 4.61369 -5.29229 0
M  V30 1880 H 175.922 0.854996 -2.85471 0
M  V30 1881 H 173.459 0.41076 -1.41249 0
M  V30 1882 H 175.417 3.31419 -2.53411 0
M  V30 1883 H 174.047 2.8665 -1.48431 0
M  V30 1884 H 173.099 1.51282 -3.49024 0
M  V30 1885 H 174.411 2.18308 -4.4849 0
M  V30 1886 H 173.565 4.50152 -4.06753 0
M  V30 1887 H 172.304 3.86533 -2.97394 0
M  V30 1888 H 171.309 2.55349 -4.86906 0
M  V30 1889 H 172.534 3.21997 -5.97909 0
M  V30 1890 H 170.48 4.84084 -4.42718 0
M  V30 1891 H 170.397 4.44783 -6.11313 0
M  V30 1892 H 171.665 5.48761 -5.53608 0
M  V30 1893 N 175.894 1.51508 0.433938 0
M  V30 1894 C 177.14 1.64588 1.18484 0
M  V30 1895 C 177.473 0.362666 1.90784 0
M  V30 1896 O 176.748 -0.637892 1.83742 0
M  V30 1897 C 177.031 2.85149 2.19913 0
M  V30 1898 C 176.884 4.23456 1.51674 0
M  V30 1899 C 178.203 3.01227 3.20858 0
M  V30 1900 H 175.322 0.598994 0.429389 0
M  V30 1901 H 177.964 1.84002 0.473647 0
M  V30 1902 H 176.114 2.68729 2.80566 0
M  V30 1903 H 177.786 4.51552 0.943322 0
M  V30 1904 H 176.029 4.25998 0.819035 0
M  V30 1905 H 176.7 5.03812 2.2556 0
M  V30 1906 H 179.176 3.16382 2.70263 0
M  V30 1907 H 178.052 3.87141 3.89118 0
M  V30 1908 H 178.313 2.13447 3.8716 0
M  V30 1909 N 177.372 -0.689602 1.41712 0
M  V30 1910 C 178.618 -1.45041 1.42599 0
M  V30 1911 C 178.973 -1.92366 0.0363764 0
M  V30 1912 O 178.266 -1.67022 -0.938844 0
M  V30 1913 C 178.46 -2.67298 2.37247 0
M  V30 1914 C 178.289 -2.31935 3.85274 0
M  V30 1915 C 177.059 -2.2201 4.53916 0
M  V30 1916 C 179.257 -1.94526 4.76093 0
M  V30 1917 N 177.239 -1.79594 5.87043 0
M  V30 1918 C 178.61 -1.62915 5.98213 0
M  V30 1919 C 180.665 -1.81388 4.63684 0
M  V30 1920 C 179.368 -1.19486 7.09306 0
M  V30 1921 C 181.394 -1.39364 5.74745 0
M  V30 1922 C 180.756 -1.08668 6.95967 0
M  V30 1923 H 176.855 -0.527806 0.577014 0
M  V30 1924 H 179.439 -0.797266 1.77628 0
M  V30 1925 H 177.61 -3.30325 2.04304 0
M  V30 1926 H 179.342 -3.33806 2.28814 0
M  V30 1927 H 176.097 -2.406 4.07932 0
M  V30 1928 H 176.521 -1.60851 6.57614 0
M  V30 1929 H 181.163 -2.03772 3.70455 0
M  V30 1930 H 178.881 -0.958477 8.02396 0
M  V30 1931 H 182.467 -1.2974 5.6715 0
M  V30 1932 H 181.347 -0.766417 7.80446 0
M  V30 1933 N 178.85 -1.27639 -0.924453 0
M  V30 1934 C 179.78 -1.13166 -2.04244 0
M  V30 1935 C 180.761 -0.032256 -1.70069 0
M  V30 1936 O 181.946 -0.207328 -1.9309 0
M  V30 1937 C 179.076 -0.781496 -3.38393 0
M  V30 1938 C 178.03 -1.83449 -3.86692 0
M  V30 1939 C 177.356 -1.33822 -5.17683 0
M  V30 1940 C 178.656 -3.23917 -4.09726 0
M  V30 1941 H 180.35 -2.06689 -2.1661 0
M  V30 1942 H 177.896 -0.995136 -1.04082 0
M  V30 1943 H 179.849 -0.667057 -4.16087 0
M  V30 1944 H 178.573 0.189439 -3.2605 0
M  V30 1945 H 177.232 -1.93789 -3.11193 0
M  V30 1946 H 176.88 -0.35665 -5.01734 0
M  V30 1947 H 176.58 -2.04224 -5.50968 0
M  V30 1948 H 178.104 -1.23679 -5.97943 0
M  V30 1949 H 179.518 -3.16559 -4.77978 0
M  V30 1950 H 177.915 -3.92059 -4.54324 0
M  V30 1951 H 178.985 -3.68729 -3.14908 0
M  V30 1952 N 180.328 1.1314 -1.09713 0
M  V30 1953 C 181.739 1.66029 -0.853885 0
M  V30 1954 C 182.09 1.86241 0.617142 0
M  V30 1955 O 181.215 1.5834 1.47503 0
M  V30 1956 C 181.81 3.01599 -1.5435 0
M  V30 1957 C 180.369 3.51467 -1.34714 0
M  V30 1958 C 179.516 2.26648 -1.59769 0
M  V30 1959 H 182.467 0.970226 -1.25588 0
M  V30 1960 H 182.488 3.67709 -0.978267 0
M  V30 1961 H 182 2.86856 -2.6141 0
M  V30 1962 H 180.101 3.71408 -0.297838 0
M  V30 1963 H 180.214 4.314 -2.08401 0
M  V30 1964 H 178.578 2.33385 -1.01998 0
M  V30 1965 H 179.361 2.14467 -2.68065 0
M  V30 1966 N 181.806 0.884767 1.30421 0
M  V30 1967 C 183.083 0.423185 1.90967 0
M  V30 1968 C 183.463 -1.09605 1.80416 0
M  V30 1969 O 182.811 -1.93126 1.22125 0
M  V30 1970 C 183.021 0.921056 3.36627 0
M  V30 1971 C 184.369 0.955903 4.137 0
M  V30 1972 O 185.393 0.867706 3.4547 0
M  V30 1973 O 184.252 1.08614 5.35598 0
M  V30 1974 H 181.346 0.129369 0.816819 0
M  V30 1975 H 183.892 0.973653 1.3899 0
M  V30 1976 H 182.664 1.96489 3.3839 0
M  V30 1977 H 182.287 0.349741 3.96059 0
M  V30 1978 N 183.284 -1.43765 0.645699 0
M  V30 1979 C 184.533 -2.01116 0.153412 0
M  V30 1980 C 184.846 -1.51493 -1.23731 0
M  V30 1981 O 186.052 -2.01067 -1.8244 0
M  V30 1982 C 184.508 -3.59206 0.223473 0
M  V30 1983 C 184.116 -4.17823 1.61642 0
M  V30 1984 C 185.86 -4.23972 -0.211597 0
M  V30 1985 C 183.767 -5.68183 1.64081 0
M  V30 1986 H 182.697 -0.752093 0.0535891 0
M  V30 1987 H 185.348 -1.6482 0.806633 0
M  V30 1988 H 183.73 -3.92867 -0.497118 0
M  V30 1989 H 184.904 -3.95674 2.36176 0
M  V30 1990 H 183.219 -3.65399 1.99681 0
M  V30 1991 H 185.816 -5.34275 -0.213112 0
M  V30 1992 H 186.159 -3.97352 -1.24165 0
M  V30 1993 H 186.692 -3.95166 0.456988 0
M  V30 1994 H 183.431 -5.99559 2.64971 0
M  V30 1995 H 182.951 -5.9241 0.938611 0
M  V30 1996 H 184.63 -6.32085 1.3812 0
M  V30 1997 N 184.763 -0.387143 -1.52771 0
M  V30 1998 C 186.009 0.196025 -2.0185 0
M  V30 1999 C 186.342 1.46641 -1.27319 0
M  V30 2000 O 185.617 1.90889 -0.373032 0
M  V30 2001 C 185.9 0.466136 -3.5707 0
M  V30 2002 C 185.753 -0.819385 -4.42274 0
M  V30 2003 C 187.072 1.25768 -4.21747 0
M  V30 2004 H 184.191 0.0697708 -0.73369 0
M  V30 2005 H 186.833 -0.516286 -1.82851 0
M  V30 2006 H 184.983 1.07293 -3.7339 0
M  V30 2007 H 186.655 -1.4563 -4.37709 0
M  V30 2008 H 184.898 -1.43517 -4.09372 0
M  V30 2009 H 185.569 -0.585065 -5.48891 0
M  V30 2010 H 188.045 0.744167 -4.09391 0
M  V30 2011 H 186.921 1.41541 -5.30337 0
M  V30 2012 H 187.182 2.27228 -3.79236 0
M  V30 2013 N 186.241 1.57166 -0.116904 0
M  V30 2014 C 187.171 2.18222 0.830759 0
M  V30 2015 C 188.152 1.12167 1.27877 0
M  V30 2016 O 189.337 1.40394 1.34176 0
M  V30 2017 C 186.467 2.77996 2.08172 0
M  V30 2018 C 185.421 3.89614 1.77157 0
M  V30 2019 C 184.747 4.36187 3.09265 0
M  V30 2020 C 186.047 5.1181 1.04151 0
M  V30 2021 H 187.741 2.97664 0.321992 0
M  V30 2022 H 185.287 1.4318 0.153434 0
M  V30 2023 H 187.24 3.19366 2.74924 0
M  V30 2024 H 185.964 1.9584 2.6137 0
M  V30 2025 H 184.623 3.48816 1.12796 0
M  V30 2026 H 184.271 3.50893 3.60393 0
M  V30 2027 H 183.971 5.11455 2.89288 0
M  V30 2028 H 185.495 4.80207 3.77139 0
M  V30 2029 H 186.909 5.50214 1.61052 0
M  V30 2030 H 185.306 5.92648 0.942762 0
M  V30 2031 H 186.376 4.84892 0.0279022 0
M  V30 2032 N 187.719 -0.156864 1.56817 0
M  V30 2033 C 188.966 -0.871125 1.82805 0
M  V30 2034 C 189.294 -1.81611 0.696262 0
M  V30 2035 O 188.549 -1.93141 -0.315459 0
M  V30 2036 C 188.848 -1.68737 3.1506 0
M  V30 2037 C 188.514 -0.890045 4.42028 0
M  V30 2038 C 187.176 -0.670042 4.76512 0
M  V30 2039 C 189.528 -0.331769 5.20143 0
M  V30 2040 C 186.856 0.119104 5.86579 0
M  V30 2041 C 189.208 0.444365 6.31037 0
M  V30 2042 C 187.872 0.675035 6.64078 0
M  V30 2043 H 187.142 -0.318767 0.668931 0
M  V30 2044 H 189.789 -0.135274 1.91022 0
M  V30 2045 H 188.094 -2.49304 3.0225 0
M  V30 2046 H 189.791 -2.24331 3.3238 0
M  V30 2047 H 186.381 -1.07157 4.14988 0
M  V30 2048 H 190.565 -0.489043 4.93885 0
M  V30 2049 H 185.821 0.307417 6.10627 0
M  V30 2050 H 189.995 0.884139 6.90765 0
M  V30 2051 H 187.622 1.28839 7.49203 0
M  V30 2052 N 189.197 -1.51736 -0.425897 0
M  V30 2053 C 190.145 -1.74464 -1.53834 0
M  V30 2054 C 191.139 -0.611241 -1.57988 0
M  V30 2055 O 192.345 -0.792899 -1.61596 0
M  V30 2056 H 188.72 -0.551437 -0.511293 0
M  V30 2057 H 190.691 -2.67694 -1.31843 0
M  V30 2058 C 189.44 -1.8972 -2.91379 0
M  V30 2059 H 188.763 -2.76344 -2.88919 0
M  V30 2060 H 190.203 -2.09629 -3.68553 0
M  V30 2061 C 188.662 -0.65992 -3.30374 0
M  V30 2062 O 189.192 0.180083 -4.01296 0
M  V30 2063 N 187.398 -0.500677 -2.86254 0
M  V30 2064 H 186.945 -1.18532 -2.28709 0
M  V30 2065 H 186.903 0.325903 -3.12706 0
M  V30 2066 N 190.675 0.682077 -1.42076 0
M  V30 2067 C 191.623 1.81707 -1.45208 0
M  V30 2068 C 192.617 1.66183 -0.328591 0
M  V30 2069 O 193.823 1.7288 -0.501264 0
M  V30 2070 H 190.198 0.599014 -0.454628 0
M  V30 2071 H 192.169 1.76183 -2.40836 0
M  V30 2072 C 190.918 3.19816 -1.36428 0
M  V30 2073 H 190.241 3.32385 -2.22171 0
M  V30 2074 H 191.681 3.99272 -1.42681 0
M  V30 2075 C 190.14 3.36809 -0.078191 0
M  V30 2076 O 190.67 3.92124 0.87188 0
M  V30 2077 N 188.876 2.906 0.00229266 0
M  V30 2078 H 188.423 2.45772 -0.771616 0
M  V30 2079 H 188.381 3.02347 0.862179 0
M  V30 2080 N 192.153 1.28127 0.917671 0
M  V30 2081 C 193.116 1.11744 2.00115 0
M  V30 2082 C 194.116 0.0583052 1.60694 0
M  V30 2083 O 195.306 0.303755 1.71531 0
M  V30 2084 C 192.438 0.704862 3.33533 0
M  V30 2085 H 193.631 2.07966 2.16079 0
M  V30 2086 H 191.184 1.11058 1.09981 0
M  V30 2087 H 191.919 -0.258299 3.2327 0
M  V30 2088 H 191.704 1.4699 3.63505 0
M  V30 2089 H 193.194 0.612768 4.1308 0
M  V30 2090 N 193.631 -1.12557 1.10312 0
M  V30 2091 C 194.908 -1.80363 0.756878 0
M  V30 2092 C 195.288 -1.97067 -0.756824 0
M  V30 2093 O 194.636 -1.54601 -1.68259 0
M  V30 2094 C 194.846 -3.14812 1.50647 0
M  V30 2095 C 196.194 -3.90029 1.67817 0
M  V30 2096 O 197.218 -3.24464 1.46974 0
M  V30 2097 O 196.077 -5.07652 2.02365 0
M  V30 2098 H 193.171 -0.780667 0.272926 0
M  V30 2099 H 195.717 -1.19404 1.20586 0
M  V30 2100 H 194.489 -2.97936 2.53672 0
M  V30 2101 H 194.112 -3.83478 1.05026 0
M  V30 2102 N 195.109 -0.891671 -1.2995 0
M  V30 2103 C 196.357 -0.512486 -1.95494 0
M  V30 2104 C 196.678 0.942776 -1.70695 0
M  V30 2105 O 195.948 1.66374 -1.03424 0
M  V30 2106 H 194.528 -0.186533 -0.723336 0
M  V30 2107 H 197.19 -1.13621 -1.58355 0
M  V30 2108 H 196.286 -0.688342 -3.04415 0
M  V30 2109 N 196.587 1.43421 -0.653314 0
M  V30 2110 C 197.535 2.32546 0.0501531 0
M  V30 2111 C 198.529 1.48617 0.812985 0
M  V30 2112 O 199.735 1.64825 0.723375 0
M  V30 2113 H 196.11 0.751185 0.0350032 0
M  V30 2114 H 198.081 2.89602 -0.719261 0
M  V30 2115 C 196.83 3.32925 1.00279 0
M  V30 2116 H 196.153 3.97532 0.425236 0
M  V30 2117 H 197.593 3.9792 1.46409 0
M  V30 2118 C 196.052 2.63532 2.09886 0
M  V30 2119 O 196.582 2.45092 3.18265 0
M  V30 2120 N 194.788 2.22905 1.86445 0
M  V30 2121 H 194.335 2.38103 0.98309 0
M  V30 2122 H 194.293 1.76805 2.59976 0
M  V30 2123 N 198.065 0.39524 1.52563 0
M  V30 2124 C 199.295 -0.184675 2.05773 0
M  V30 2125 C 199.703 -1.40571 1.26635 0
M  V30 2126 O 199.046 -1.81105 0.30769 0
M  V30 2127 C 199.108 -0.613551 3.54226 0
M  V30 2128 C 198.772 0.49484 4.54313 0
M  V30 2129 C 199.769 1.3541 5.01956 0
M  V30 2130 C 197.454 0.663565 4.97898 0
M  V30 2131 C 199.448 2.36716 5.91814 0
M  V30 2132 C 197.135 1.67996 5.87555 0
M  V30 2133 C 198.133 2.53017 6.34406 0
M  V30 2134 O 197.821 3.52917 7.22291 0
M  V30 2135 H 197.553 -0.030077 0.675331 0
M  V30 2136 H 200.107 0.560708 1.97599 0
M  V30 2137 H 198.337 -1.411 3.60038 0
M  V30 2138 H 200.026 -1.11981 3.90148 0
M  V30 2139 H 200.792 1.23509 4.6901 0
M  V30 2140 H 196.671 0.0114913 4.60999 0
M  V30 2141 H 200.215 3.03113 6.28306 0
M  V30 2142 H 196.112 1.79933 6.19915 0
M  V30 2143 H 196.88 3.48996 7.40367 0
M  V30 2144 N 199.544 -1.57102 0.125237 0
M  V30 2145 C 200.454 -2.19191 -0.8362 0
M  V30 2146 C 201.47 -1.16985 -1.28805 0
M  V30 2147 O 202.646 -1.49479 -1.34974 0
M  V30 2148 C 199.711 -2.78407 -2.06617 0
M  V30 2149 C 198.772 -3.9567 -1.66565 0
M  V30 2150 C 198.005 -4.52052 -2.83698 0
M  V30 2151 O 198.228 -4.07326 -3.99302 0
M  V30 2152 O 197.162 -5.42645 -2.60423 0
M  V30 2153 H 200.988 -3.01816 -0.337776 0
M  V30 2154 H 198.573 -1.4906 -0.100695 0
M  V30 2155 H 200.455 -3.16129 -2.7864 0
M  V30 2156 H 199.13 -1.9881 -2.55453 0
M  V30 2157 H 198.037 -3.62705 -0.916296 0
M  V30 2158 H 199.37 -4.76722 -1.22464 0
M  V30 2159 N 201.022 0.148545 -1.56898 0
M  V30 2160 C 202.268 0.862694 -1.83536 0
M  V30 2161 C 202.601 1.80889 -0.706604 0
M  V30 2162 O 201.876 1.92328 0.289885 0
M  V30 2163 C 202.159 1.63853 -3.20662 0
M  V30 2164 C 202.012 0.713925 -4.44098 0
M  V30 2165 C 203.331 2.60133 -3.54991 0
M  V30 2166 H 200.45 0.312179 -0.667618 0
M  V30 2167 H 203.092 0.127953 -1.89569 0
M  V30 2168 H 201.242 2.26489 -3.1565 0
M  V30 2169 H 202.914 0.098686 -4.61194 0
M  V30 2170 H 201.157 0.0234019 -4.33794 0
M  V30 2171 H 201.828 1.29278 -5.36648 0
M  V30 2172 H 204.304 2.07616 -3.60603 0
M  V30 2173 H 203.18 3.11468 -4.51972 0
M  V30 2174 H 203.441 3.41417 -2.80868 0
M  V30 2175 N 202.5 1.5196 0.417844 0
M  V30 2176 C 203.725 1.69717 1.1921 0
M  V30 2177 C 204.15 0.402148 1.83751 0
M  V30 2178 O 203.508 -0.639593 1.69643 0
M  V30 2179 C 203.556 2.82794 2.2374 0
M  V30 2180 O 202.66 2.47756 3.29683 0
M  V30 2181 H 202.001 0.565263 0.348387 0
M  V30 2182 H 204.531 1.98621 0.490985 0
M  V30 2183 H 204.541 3.07452 2.68212 0
M  V30 2184 H 203.216 3.76756 1.76146 0
M  V30 2185 H 201.793 2.33739 2.90552 0
M  V30 2186 N 203.978 -0.674533 1.42435 0
M  V30 2187 C 205.225 -1.43459 1.42919 0
M  V30 2188 C 205.553 -1.94446 0.0457312 0
M  V30 2189 O 204.808 -1.7132 -0.94593 0
M  V30 2190 C 205.107 -2.64767 2.40069 0
M  V30 2191 C 204.773 -2.3232 3.86443 0
M  V30 2192 C 203.435 -2.23182 4.26314 0
M  V30 2193 C 205.787 -2.05977 4.78773 0
M  V30 2194 C 203.115 -1.85827 5.56494 0
M  V30 2195 C 205.467 -1.70125 6.09295 0
M  V30 2196 C 204.131 -1.59498 6.48164 0
M  V30 2197 H 203.401 -0.524952 0.522978 0
M  V30 2198 H 206.048 -0.769097 1.75377 0
M  V30 2199 H 204.353 -3.36349 2.00939 0
M  V30 2200 H 206.05 -3.22949 2.37707 0
M  V30 2201 H 202.64 -2.40334 3.54877 0
M  V30 2202 H 206.824 -2.11969 4.48757 0
M  V30 2203 H 202.08 -1.76168 5.8547 0
M  V30 2204 H 206.254 -1.48767 6.80324 0
M  V30 2205 H 203.881 -1.30322 7.48946 0
M  V30 2206 N 205.456 -1.28612 -0.910864 0
M  V30 2207 C 206.389 -1.07109 -2.01502 0
M  V30 2208 C 207.367 0.013706 -1.62594 0
M  V30 2209 O 208.551 -0.134796 -1.88017 0
M  V30 2210 C 205.678 -0.628255 -3.32822 0
M  V30 2211 C 204.724 -1.71012 -3.90714 0
M  V30 2212 S 205.557 -3.30676 -4.21205 0
M  V30 2213 C 206.713 -2.88234 -5.55583 0
M  V30 2214 H 206.946 -2.00591 -2.19432 0
M  V30 2215 H 204.479 -1.12633 -1.05609 0
M  V30 2216 H 206.437 -0.37946 -4.08742 0
M  V30 2217 H 205.098 0.28678 -3.12788 0
M  V30 2218 H 204.291 -1.35195 -4.85529 0
M  V30 2219 H 203.893 -1.91186 -3.21441 0
M  V30 2220 H 206.185 -2.34584 -6.35591 0
M  V30 2221 H 207.128 -3.81857 -5.96314 0
M  V30 2222 H 207.536 -2.26862 -5.16908 0
M  V30 2223 N 206.934 1.1197 -1.10907 0
M  V30 2224 C 208.174 1.85224 -0.864378 0
M  V30 2225 C 208.538 1.82411 0.599178 0
M  V30 2226 O 209.739 2.51057 0.960416 0
M  V30 2227 C 208.01 3.2868 -1.40371 0
M  V30 2228 S 209.569 4.1925 -1.29518 0
M  V30 2229 H 206.387 0.63878 -0.312219 0
M  V30 2230 H 208.989 1.3485 -1.41548 0
M  V30 2231 H 207.693 3.28289 -2.46281 0
M  V30 2232 H 207.224 3.84121 -0.849402 0
M  V30 2233 H 209.239 4.95539 -0.256059 0
M  V30 2234 N 208.412 0.89855 1.29475 0
M  V30 2235 C 209.36 0.365253 2.29714 0
M  V30 2236 C 210.354 -0.534993 1.6073 0
M  V30 2237 O 211.56 -0.417921 1.75081 0
M  V30 2238 H 207.935 0.0994853 0.74539 0
M  V30 2239 H 209.906 1.22406 2.72138 0
M  V30 2240 C 208.655 -0.393159 3.4547 0
M  V30 2241 H 207.978 0.290332 3.98744 0
M  V30 2242 H 209.418 -0.731189 4.17648 0
M  V30 2243 C 207.877 -1.59539 2.9673 0
M  V30 2244 O 208.407 -2.69469 2.97908 0
M  V30 2245 N 206.613 -1.43716 2.52575 0
M  V30 2246 H 206.16 -0.542828 2.51816 0
M  V30 2247 H 206.118 -2.24288 2.20323 0
M  V30 2248 N 209.89 -1.43072 0.660911 0
M  V30 2249 C 211.136 -2.0202 0.177708 0
M  V30 2250 C 211.469 -1.52066 -1.20787 0
M  V30 2251 O 210.744 -0.716987 -1.80802 0
M  V30 2252 C 211.027 -3.59561 0.197019 0
M  V30 2253 C 210.88 -4.19727 1.61706 0
M  V30 2254 C 212.199 -4.37664 -0.462396 0
M  V30 2255 H 209.318 -0.734034 0.0660494 0
M  V30 2256 H 211.96 -1.70272 0.843058 0
M  V30 2257 H 210.11 -3.86739 -0.369527 0
M  V30 2258 H 211.782 -4.03553 2.23479 0
M  V30 2259 H 210.025 -3.76084 2.16201 0
M  V30 2260 H 210.696 -5.28834 1.58237 0
M  V30 2261 H 213.172 -4.16095 0.0197215 0
M  V30 2262 H 212.048 -5.47305 -0.418188 0
M  V30 2263 H 212.309 -4.14493 -1.53778 0
M  V30 2264 N 211.368 -0.403325 -1.52352 0
M  V30 2265 C 212.298 0.416205 -2.29761 0
M  V30 2266 C 213.279 1.05123 -1.33728 0
M  V30 2267 O 214.464 1.06134 -1.62632 0
M  V30 2268 C 211.594 1.53624 -3.11475 0
M  V30 2269 C 210.548 1.02653 -4.15507 0
M  V30 2270 C 209.874 2.23971 -4.85532 0
M  V30 2271 C 211.174 0.08463 -5.22231 0
M  V30 2272 H 212.868 -0.229701 -2.98518 0
M  V30 2273 H 210.414 -0.111913 -1.43564 0
M  V30 2274 H 212.367 2.1165 -3.64393 0
M  V30 2275 H 211.091 2.20994 -2.40477 0
M  V30 2276 H 209.75 0.46871 -3.63591 0
M  V30 2277 H 209.398 2.89883 -4.11068 0
M  V30 2278 H 209.098 1.90521 -5.55856 0
M  V30 2279 H 210.622 2.82614 -5.41259 0
M  V30 2280 H 212.036 0.573509 -5.70424 0
M  V30 2281 H 210.433 -0.160783 -5.99885 0
M  V30 2282 H 211.503 -0.86237 -4.7717 0
M  V30 2283 N 212.846 1.57033 -0.133567 0
M  V30 2284 C 214.095 1.94861 0.520768 0
M  V30 2285 C 214.408 1.02012 1.66892 0
M  V30 2286 O 215.614 1.29365 2.38699 0
M  V30 2287 C 214.07 3.46362 0.977809 0
M  V30 2288 C 213.678 4.47773 -0.142674 0
M  V30 2289 C 215.422 3.93083 1.60269 0
M  V30 2290 C 213.329 5.90468 0.331883 0
M  V30 2291 H 212.259 0.727453 0.198315 0
M  V30 2292 H 214.91 1.82227 -0.215759 0
M  V30 2293 H 213.292 3.54282 1.7692 0
M  V30 2294 H 214.466 4.51536 -0.919317 0
M  V30 2295 H 212.781 4.10891 -0.675124 0
M  V30 2296 H 215.378 4.97121 1.96914 0
M  V30 2297 H 215.721 3.33876 2.48662 0
M  V30 2298 H 216.254 3.88025 0.876453 0
M  V30 2299 H 212.993 6.53463 -0.516341 0
M  V30 2300 H 212.513 5.90094 1.07469 0
M  V30 2301 H 214.192 6.42179 0.788332 0
M  V30 2302 N 214.325 -0.140222 1.56975 0
M  V30 2303 C 215.255 -1.17456 2.01808 0
M  V30 2304 C 216.236 -1.44415 0.898794 0
M  V30 2305 O 217.421 -1.5522 1.16707 0
M  V30 2306 C 214.551 -2.50607 2.40444 0
M  V30 2307 C 213.505 -2.38155 3.55621 0
M  V30 2308 C 212.831 -3.76078 3.80091 0
M  V30 2309 C 214.131 -1.85991 4.88062 0
M  V30 2310 H 215.825 -0.801743 2.88466 0
M  V30 2311 H 213.371 -0.38422 1.38779 0
M  V30 2312 H 215.324 -3.23197 2.7041 0
M  V30 2313 H 214.048 -2.89737 1.50732 0
M  V30 2314 H 212.707 -1.68016 3.25832 0
M  V30 2315 H 212.355 -4.12656 2.87618 0
M  V30 2316 H 212.055 -3.68606 4.57606 0
M  V30 2317 H 213.579 -4.50206 4.12488 0
M  V30 2318 H 214.993 -2.4838 5.16701 0
M  V30 2319 H 213.39 -1.89393 5.6943 0
M  V30 2320 H 214.46 -0.816023 4.77984 0
M  V30 2321 N 215.803 -1.52179 -0.40978 0
M  V30 2322 C 217.028 -1.70347 -1.18308 0
M  V30 2323 C 217.453 -0.411887 -1.83535 0
M  V30 2324 O 216.811 0.630587 -1.6998 0
M  V30 2325 C 216.859 -2.83977 -2.22238 0
M  V30 2326 O 215.963 -2.495 -3.28365 0
M  V30 2327 H 215.304 -0.567103 -0.345384 0
M  V30 2328 H 217.834 -1.98879 -0.480445 0
M  V30 2329 H 217.844 -3.0887 -2.66577 0
M  V30 2330 H 216.519 -3.77685 -1.74146 0
M  V30 2331 H 215.096 -2.35277 -2.89308 0
M  V30 2332 N 217.281 0.66697 -1.42791 0
M  V30 2333 C 218.509 1.45505 -1.47091 0
M  V30 2334 C 218.924 1.8861 -0.0845873 0
M  V30 2335 O 218.281 1.58632 0.90234 0
M  V30 2336 C 218.332 2.69906 -2.40485 0
M  V30 2337 O 218.053 2.28608 -3.73725 0
M  V30 2338 C 219.554 3.63396 -2.53886 0
M  V30 2339 H 216.774 0.447459 -0.500022 0
M  V30 2340 H 219.318 0.818866 -1.8739 0
M  V30 2341 H 217.473 3.29696 -2.03419 0
M  V30 2342 H 217.887 3.08997 -4.23817 0
M  V30 2343 H 219.361 4.47387 -3.2334 0
M  V30 2344 H 219.838 4.09824 -1.57927 0
M  V30 2345 H 220.444 3.09495 -2.91706 0
M  V30 2346 N 218.759 1.29093 0.90403 0
M  V30 2347 C 220.007 1.16583 1.65085 0
M  V30 2348 C 220.328 -0.283933 1.92922 0
M  V30 2349 O 219.598 -1.19509 1.55224 0
M  V30 2350 H 218.178 0.428467 0.611903 0
M  V30 2351 H 220.84 1.61959 1.08422 0
M  V30 2352 H 219.936 1.71266 2.6091 0
M  V30 2353 N 220.237 -1.11381 1.11499 0
M  V30 2354 C 221.465 -1.86934 0.88675 0
M  V30 2355 C 221.88 -1.80195 -0.563476 0
M  V30 2356 O 221.237 -1.18367 -1.38908 0
M  V30 2357 C 221.288 -3.35722 1.34064 0
M  V30 2358 O 221.009 -3.4232 2.73401 0
M  V30 2359 C 222.51 -4.2818 1.14791 0
M  V30 2360 H 219.73 -0.591117 0.317523 0
M  V30 2361 H 222.274 -1.40865 1.48248 0
M  V30 2362 H 220.429 -3.79294 0.788355 0
M  V30 2363 H 220.843 -4.34971 2.93087 0
M  V30 2364 H 222.317 -5.30817 1.5145 0
M  V30 2365 H 222.794 -4.39113 0.0875279 0
M  V30 2366 H 223.4 -3.90402 1.68721 0
M  V30 2367 N 221.715 -0.905404 -1.28997 0
M  V30 2368 C 222.961 -0.535039 -1.95615 0
M  V30 2369 C 223.294 0.917404 -1.71165 0
M  V30 2370 O 222.569 1.65123 -1.02785 0
M  V30 2371 C 222.852 -0.834918 -3.50287 0
M  V30 2372 C 222.705 -2.33948 -3.84172 0
M  V30 2373 C 224.024 -0.325318 -4.38896 0
M  V30 2374 H 221.143 -0.195861 -0.710498 0
M  V30 2375 H 223.785 -1.13313 -1.52513 0
M  V30 2376 H 221.935 -0.325904 -3.87131 0
M  V30 2377 H 223.607 -2.91847 -3.57243 0
M  V30 2378 H 221.85 -2.79789 -3.31513 0
M  V30 2379 H 222.521 -2.49987 -4.92149 0
M  V30 2380 H 224.997 -0.761256 -4.09077 0
M  V30 2381 H 223.873 -0.564295 -5.45992 0
M  V30 2382 H 224.134 0.774144 -4.35269 0
M  V30 2383 N 223.193 1.4272 -0.668489 0
M  V30 2384 C 224.123 2.335 -0.000100175 0
M  V30 2385 C 225.104 1.50328 0.795964 0
M  V30 2386 O 226.289 1.78949 0.754385 0
M  V30 2387 C 223.419 3.33874 0.956302 0
M  V30 2388 C 222.373 4.27152 0.269278 0
M  V30 2389 C 221.699 5.17684 1.33818 0
M  V30 2390 C 222.999 5.15373 -0.847805 0
M  V30 2391 H 224.693 2.89639 -0.758244 0
M  V30 2392 H 222.239 1.39269 -0.366079 0
M  V30 2393 H 224.192 3.9629 1.43292 0
M  V30 2394 H 222.916 2.76025 1.74579 0
M  V30 2395 H 221.575 3.66123 -0.187042 0
M  V30 2396 H 221.223 4.56165 2.1195 0
M  V30 2397 H 220.923 5.80918 0.883659 0
M  V30 2398 H 222.447 5.82974 1.81586 0
M  V30 2399 H 223.861 5.7151 -0.452681 0
M  V30 2400 H 222.258 5.87407 -1.22773 0
M  V30 2401 H 223.328 4.5415 -1.69929 0
M  V30 2402 N 224.671 0.411399 1.52136 0
M  V30 2403 C 225.917 -0.156262 2.02799 0
M  V30 2404 C 226.272 -1.42613 1.29149 0
M  V30 2405 O 225.565 -1.87592 0.389839 0
M  V30 2406 C 225.759 -0.455872 3.54481 0
M  V30 2407 C 225.588 0.783404 4.42824 0
M  V30 2408 C 224.358 1.30928 4.88043 0
M  V30 2409 C 226.556 1.66217 4.86699 0
M  V30 2410 N 224.538 2.5038 5.6052 0
M  V30 2411 C 225.909 2.70292 5.5798 0
M  V30 2412 C 227.964 1.67966 4.68713 0
M  V30 2413 C 226.667 3.7603 6.13184 0
M  V30 2414 C 228.693 2.72624 5.24815 0
M  V30 2415 C 228.055 3.7542 5.9602 0
M  V30 2416 H 224.154 -0.0186886 0.781777 0
M  V30 2417 H 226.738 0.566255 1.86284 0
M  V30 2418 H 224.909 -1.14743 3.71064 0
M  V30 2419 H 226.641 -1.01261 3.91827 0
M  V30 2420 H 223.396 0.866977 4.65597 0
M  V30 2421 H 223.82 3.10881 6.014 0
M  V30 2422 H 228.462 0.898312 4.13147 0
M  V30 2423 H 226.18 4.55019 6.6782 0
M  V30 2424 H 229.766 2.74887 5.12765 0
M  V30 2425 H 228.646 4.55073 6.38654 0
M  V30 2426 N 226.149 -1.5696 0.141893 0
M  V30 2427 C 227.395 -1.9625 -0.511248 0
M  V30 2428 C 227.728 -1.02654 -1.64851 0
M  V30 2429 O 227.003 -0.0679676 -1.94381 0
M  V30 2430 C 227.286 -3.45285 -1.02227 0
M  V30 2431 C 227.139 -4.49658 0.113138 0
M  V30 2432 C 228.458 -3.96698 -1.90574 0
M  V30 2433 H 225.577 -0.713567 -0.184367 0
M  V30 2434 H 228.219 -1.88698 0.222087 0
M  V30 2435 H 226.369 -3.51852 -1.64719 0
M  V30 2436 H 228.041 -4.55174 0.749302 0
M  V30 2437 H 226.284 -4.26857 0.773026 0
M  V30 2438 H 226.955 -5.51258 -0.286053 0
M  V30 2439 H 229.431 -3.92578 -1.37918 0
M  V30 2440 H 228.307 -5.01453 -2.2324 0
M  V30 2441 H 228.568 -3.3875 -2.84079 0
M  V30 2442 N 227.627 0.131896 -1.57047 0
M  V30 2443 C 229.038 0.690407 -1.73465 0
M  V30 2444 C 229.389 1.8094 -0.758629 0
M  V30 2445 O 228.514 2.16282 0.0713813 0
M  V30 2446 C 229.109 1.25916 -3.14532 0
M  V30 2447 C 227.668 1.76409 -3.32501 0
M  V30 2448 C 226.815 0.658579 -2.69366 0
M  V30 2449 H 229.766 -0.0939144 -1.58422 0
M  V30 2450 H 229.787 2.12892 -3.15369 0
M  V30 2451 H 229.299 0.444515 -3.85546 0
M  V30 2452 H 227.4 2.60391 -2.66509 0
M  V30 2453 H 227.513 1.88241 -4.4057 0
M  V30 2454 H 225.877 1.08899 -2.30246 0
M  V30 2455 H 226.66 -0.14487 -3.42994 0
M  V30 2456 N 229.106 1.52395 0.401703 0
M  V30 2457 C 230.517 1.58899 0.980202 0
M  V30 2458 C 230.868 0.434032 1.91339 0
M  V30 2459 O 229.993 -0.444619 2.11783 0
M  V30 2460 C 230.588 2.87994 1.78451 0
M  V30 2461 C 229.147 2.96953 2.31292 0
M  V30 2462 C 228.294 2.53903 1.11483 0
M  V30 2463 H 231.245 1.57657 0.18168 0
M  V30 2464 H 231.266 2.73765 2.64259 0
M  V30 2465 H 230.778 3.72035 1.10506 0
M  V30 2466 H 228.879 2.17422 3.02586 0
M  V30 2467 H 228.992 4.01344 2.61649 0
M  V30 2468 H 227.356 2.07925 1.47104 0
M  V30 2469 H 228.139 3.40326 0.450928 0
M  V30 2470 N 230.584 -0.659388 1.43143 0
M  V30 2471 C 231.547 -1.75432 1.47501 0
M  V30 2472 C 232.547 -1.56707 0.360512 0
M  V30 2473 O 233.737 -1.62717 0.622002 0
M  V30 2474 C 230.869 -3.14239 1.32162 0
M  V30 2475 H 232.062 -1.7295 2.45006 0
M  V30 2476 H 229.615 -0.870469 1.29817 0
M  V30 2477 H 230.35 -3.22336 0.356401 0
M  V30 2478 H 230.135 -3.29235 2.12948 0
M  V30 2479 H 231.625 -3.94094 1.3813 0
M  V30 2480 N 232.062 -1.29571 -0.897171 0
M  V30 2481 C 233.311 -1.1706 -1.64256 0
M  V30 2482 C 233.624 0.276476 -1.93636 0
M  V30 2483 O 234.83 0.52294 -2.66416 0
M  V30 2484 C 233.286 -2.0475 -2.95982 0
M  V30 2485 C 232.894 -3.54295 -2.74187 0
M  V30 2486 C 234.638 -2.0097 -3.73914 0
M  V30 2487 C 232.545 -4.34081 -4.01656 0
M  V30 2488 H 231.475 -0.43452 -0.616205 0
M  V30 2489 H 234.126 -1.54229 -0.994268 0
M  V30 2490 H 232.508 -1.60452 -3.62038 0
M  V30 2491 H 233.682 -4.06662 -2.1671 0
M  V30 2492 H 231.997 -3.59773 -2.09648 0
M  V30 2493 H 234.594 -2.57838 -4.68427 0
M  V30 2494 H 234.937 -0.990273 -4.0435 0
M  V30 2495 H 235.47 -2.43325 -3.14703 0
M  V30 2496 H 232.209 -5.36671 -3.76384 0
M  V30 2497 H 231.729 -3.86483 -4.58684 0
M  V30 2498 H 233.408 -4.44877 -4.69781 0
M  V30 2499 N 233.54 1.10788 -1.12088 0
M  V30 2500 C 234.77 1.86191 -0.895351 0
M  V30 2501 C 235.178 1.80763 0.558702 0
M  V30 2502 O 234.521 1.19188 1.39785 0
M  V30 2503 C 234.583 3.35659 -1.28737 0
M  V30 2504 C 234.247 3.64849 -2.75198 0
M  V30 2505 C 235.244 3.61757 -3.734 0
M  V30 2506 C 232.929 3.93641 -3.12013 0
M  V30 2507 C 234.923 3.87045 -5.06434 0
M  V30 2508 C 232.61 4.18585 -4.4523 0
M  V30 2509 C 233.608 4.15277 -5.42249 0
M  V30 2510 O 233.296 4.3959 -6.73065 0
M  V30 2511 H 233.028 0.595425 -0.32007 0
M  V30 2512 H 235.582 1.40992 -1.49367 0
M  V30 2513 H 233.812 3.81497 -0.63224 0
M  V30 2514 H 235.501 3.92441 -1.03656 0
M  V30 2515 H 236.267 3.39557 -3.46303 0
M  V30 2516 H 232.146 3.95348 -2.37109 0
M  V30 2517 H 235.69 3.84378 -5.82151 0
M  V30 2518 H 231.587 4.40264 -4.72057 0
M  V30 2519 H 232.355 4.57123 -6.78956 0
M  V30 2520 N 235.018 0.912232 1.28515 0
M  V30 2521 C 235.965 0.397954 2.27343 0
M  V30 2522 C 236.935 -0.526766 1.57526 0
M  V30 2523 O 238.12 -0.449292 1.85435 0
M  V30 2524 C 235.26 -0.357263 3.43246 0
M  V30 2525 C 234.373 0.599788 4.27816 0
M  V30 2526 C 233.508 -0.173725 5.30916 0
M  V30 2527 C 232.547 0.777039 6.07148 0
M  V30 2528 N 231.684 0.0371398 7.0209 0
M  V30 2529 H 236.524 1.24577 2.70711 0
M  V30 2530 H 234.061 0.625612 1.33133 0
M  V30 2531 H 236.019 -0.8113 4.09236 0
M  V30 2532 H 234.649 -1.16943 3.00872 0
M  V30 2533 H 233.701 1.17235 3.61884 0
M  V30 2534 H 235.013 1.32704 4.80823 0
M  V30 2535 H 234.167 -0.688394 6.02782 0
M  V30 2536 H 232.906 -0.934041 4.78672 0
M  V30 2537 H 231.911 1.3031 5.34134 0
M  V30 2538 H 233.136 1.53689 6.61481 0
M  V30 2539 H 231.082 -0.705213 6.52198 0
M  V30 2540 H 230.999 0.704249 7.52713 0
M  V30 2541 H 232.267 -0.457383 7.78157 0
M  V30 2542 N 236.496 -1.42363 0.676048 0
M  V30 2543 C 237.721 -2.06377 0.205705 0
M  V30 2544 C 238.146 -1.50463 -1.12883 0
M  V30 2545 O 237.504 -0.623619 -1.70237 0
M  V30 2546 C 237.552 -3.60277 0.152655 0
M  V30 2547 O 236.656 -4.02935 -0.87845 0
M  V30 2548 H 235.997 -0.655588 0.105359 0
M  V30 2549 H 238.527 -1.82475 0.925412 0
M  V30 2550 H 238.537 -4.07993 -0.0230675 0
M  V30 2551 H 237.212 -4.00346 1.12675 0
M  V30 2552 H 235.789 -3.66764 -0.673668 0
M  V30 2553 N 237.974 -0.419461 -1.51915 0
M  V30 2554 C 239.199 0.154572 -2.06823 0
M  V30 2555 C 239.624 1.3722 -1.28656 0
M  V30 2556 O 238.982 1.78461 -0.319583 0
M  V30 2557 C 239.03 0.473172 -3.57482 0
M  V30 2558 O 238.134 1.56255 -3.81652 0
M  V30 2559 H 237.475 0.0096924 -0.663929 0
M  V30 2560 H 240.005 -0.595642 -1.95738 0
M  V30 2561 H 240.015 0.728825 -4.01438 0
M  V30 2562 H 238.69 -0.416873 -4.13805 0
M  V30 2563 H 237.267 1.29825 -3.49571 0
M  V30 2564 N 239.452 1.56882 -0.150215 0
M  V30 2565 C 240.692 1.98119 0.502804 0
M  V30 2566 C 241.056 1.03327 1.61826 0
M  V30 2567 O 242.257 1.33621 2.33236 0
M  V30 2568 C 240.528 3.43329 0.992988 0
M  V30 2569 S 242.087 4.0659 1.65015 0
M  V30 2570 H 238.905 0.692189 0.162467 0
M  V30 2571 H 241.507 1.93988 -0.242689 0
M  V30 2572 H 240.211 4.10046 0.170436 0
M  V30 2573 H 239.742 3.5118 1.77303 0
M  V30 2574 H 241.757 3.99906 2.93752 0
M  V30 2575 N 240.93 -0.123565 1.57115 0
M  V30 2576 C 242.179 -0.830704 1.83799 0
M  V30 2577 C 242.492 -1.81259 0.735158 0
M  V30 2578 O 243.698 -2.56558 0.888278 0
M  V30 2579 C 242.154 -1.52802 3.25852 0
M  V30 2580 C 241.762 -0.587356 4.44133 0
M  V30 2581 C 243.506 -2.22056 3.61789 0
M  V30 2582 C 241.413 -1.28764 5.77212 0
M  V30 2583 H 240.343 -0.313967 0.685522 0
M  V30 2584 H 242.994 -0.0834359 1.8331 0
M  V30 2585 H 241.376 -2.32175 3.20797 0
M  V30 2586 H 242.55 0.172829 4.60476 0
M  V30 2587 H 240.865 -0.00201892 4.164 0
M  V30 2588 H 243.462 -2.75131 4.58483 0
M  V30 2589 H 243.805 -2.99644 2.88997 0
M  V30 2590 H 244.338 -1.49576 3.68608 0
M  V30 2591 H 241.077 -0.55314 6.53162 0
M  V30 2592 H 240.597 -2.01995 5.64764 0
M  V30 2593 H 242.276 -1.8221 6.20813 0
M  V30 2594 N 242.408 -1.52605 -0.393616 0
M  V30 2595 C 243.657 -1.66649 -1.13627 0
M  V30 2596 C 243.97 -0.410364 -1.91247 0
M  V30 2597 O 245.176 -0.430854 -2.68059 0
M  V30 2598 C 243.632 -2.9449 -2.06891 0
M  V30 2599 C 243.24 -4.27266 -1.34714 0
M  V30 2600 C 244.984 -3.17899 -2.81319 0
M  V30 2601 C 242.891 -5.46217 -2.26717 0
M  V30 2602 H 241.821 -0.62084 -0.427871 0
M  V30 2603 H 244.472 -1.791 -0.399428 0
M  V30 2604 H 242.854 -2.75774 -2.84191 0
M  V30 2605 H 244.028 -4.56518 -0.626714 0
M  V30 2606 H 242.343 -4.10081 -0.722643 0
M  V30 2607 H 244.94 -4.03949 -3.50328 0
M  V30 2608 H 245.283 -2.32777 -3.45139 0
M  V30 2609 H 245.816 -3.37159 -2.11113 0
M  V30 2610 H 242.555 -6.33733 -1.67521 0
M  V30 2611 H 242.075 -5.21283 -2.96689 0
M  V30 2612 H 243.754 -5.7991 -2.86903 0
M  V30 2613 N 243.887 0.651787 -1.4349 0
M  V30 2614 C 245.164 1.40909 -1.35661 0
M  V30 2615 C 245.544 2.11099 -0.00511733 0
M  V30 2616 O 244.892 2.04892 1.0115 0
M  V30 2617 C 245.102 2.3926 -2.54078 0
M  V30 2618 C 246.45 3.03217 -2.97228 0
M  V30 2619 O 247.474 2.49588 -2.54135 0
M  V30 2620 O 246.333 4.00455 -3.71885 0
M  V30 2621 H 243.427 0.629625 -0.536191 0
M  V30 2622 H 245.973 0.678575 -1.55542 0
M  V30 2623 H 244.745 1.86352 -3.44076 0
M  V30 2624 H 244.368 3.1976 -2.36303 0
M  V30 2625 N 245.365 1.30045 0.890287 0
M  V30 2626 C 246.611 1.18737 1.64406 0
M  V30 2627 C 246.944 -0.258525 1.92472 0
M  V30 2628 O 246.219 -1.18562 1.54186 0
M  V30 2629 C 246.502 2.01087 2.98724 0
M  V30 2630 C 246.355 3.53867 2.77665 0
M  V30 2631 C 247.674 1.84457 3.9958 0
M  V30 2632 H 244.793 0.432698 0.596608 0
M  V30 2633 H 247.435 1.5962 1.0306 0
M  V30 2634 H 245.585 1.66349 3.51084 0
M  V30 2635 H 247.257 3.98637 2.32133 0
M  V30 2636 H 245.5 3.78318 2.12269 0
M  V30 2637 H 246.171 4.06772 3.7315 0
M  V30 2638 H 248.647 2.14817 3.56361 0
M  V30 2639 H 247.523 2.44411 4.91482 0
M  V30 2640 H 247.784 0.802276 4.3476 0
M  V30 2641 N 246.843 -1.10192 1.12674 0
M  V30 2642 C 247.753 -2.20172 0.810026 0
M  V30 2643 C 248.769 -1.72821 -0.202188 0
M  V30 2644 O 249.945 -2.01369 -0.0351691 0
M  V30 2645 C 247.01 -3.45631 0.272007 0
M  V30 2646 C 246.071 -4.07704 1.34447 0
M  V30 2647 C 245.304 -5.27175 0.832029 0
M  V30 2648 O 245.527 -5.69425 -0.333284 0
M  V30 2649 O 244.461 -5.80168 1.60277 0
M  V30 2650 H 248.287 -2.49701 1.72867 0
M  V30 2651 H 245.872 -1.18977 0.903597 0
M  V30 2652 H 247.754 -4.21394 -0.0230219 0
M  V30 2653 H 246.429 -3.17723 -0.619164 0
M  V30 2654 H 245.336 -3.33614 1.6927 0
M  V30 2655 H 246.669 -4.3982 2.2095 0
M  V30 2656 N 248.321 -0.919034 -1.28029 0
M  V30 2657 C 249.568 -0.554934 -1.94748 0
M  V30 2658 C 249.896 0.90231 -1.72304 0
M  V30 2659 O 249.151 1.65767 -1.04018 0
M  V30 2660 C 249.45 -0.816855 -3.4794 0
M  V30 2661 C 249.116 -2.25448 -3.90492 0
M  V30 2662 C 247.778 -2.64752 -4.01821 0
M  V30 2663 C 250.13 -3.18977 -4.12193 0
M  V30 2664 C 247.458 -3.96727 -4.32232 0
M  V30 2665 C 249.81 -4.50523 -4.44086 0
M  V30 2666 C 248.474 -4.89673 -4.53626 0
M  V30 2667 H 247.744 -0.203065 -0.712633 0
M  V30 2668 H 250.391 -1.16136 -1.52265 0
M  V30 2669 H 248.696 -0.127677 -3.91592 0
M  V30 2670 H 250.393 -0.514238 -3.97689 0
M  V30 2671 H 246.983 -1.93952 -3.82205 0
M  V30 2672 H 251.167 -2.89817 -4.02889 0
M  V30 2673 H 246.423 -4.26754 -4.37825 0
M  V30 2674 H 250.597 -5.23005 -4.59825 0
M  V30 2675 H 248.224 -5.91969 -4.76946 0
M  V30 2676 N 249.799 1.42003 -0.683588 0
M  V30 2677 C 251.046 2.01413 -0.209514 0
M  V30 2678 C 251.374 1.54088 1.1869 0
M  V30 2679 O 250.629 0.737591 1.81268 0
M  V30 2680 C 250.928 3.56827 -0.202357 0
M  V30 2681 C 250.594 4.23617 -1.54464 0
M  V30 2682 C 249.256 4.41577 -1.91215 0
M  V30 2683 C 251.608 4.61178 -2.42826 0
M  V30 2684 C 248.936 4.9437 -3.15935 0
M  V30 2685 C 251.288 5.15355 -3.66867 0
M  V30 2686 C 249.952 5.31528 -4.03776 0
M  V30 2687 H 249.222 0.737023 -0.0766668 0
M  V30 2688 H 251.869 1.70067 -0.880312 0
M  V30 2689 H 250.174 3.87892 0.551969 0
M  V30 2690 H 251.871 4.00588 0.181793 0
M  V30 2691 H 248.461 4.10004 -1.24877 0
M  V30 2692 H 252.645 4.46968 -2.15717 0
M  V30 2693 H 247.901 5.05076 -3.44541 0
M  V30 2694 H 252.075 5.43402 -4.35531 0
M  V30 2695 H 249.702 5.72199 -5.00492 0
M  V30 2696 N 251.277 0.427512 1.51691 0
M  V30 2697 C 252.688 -0.0378867 1.86662 0
M  V30 2698 C 253.039 -1.42819 1.34525 0
M  V30 2699 O 252.164 -2.05037 0.692014 0
M  V30 2700 C 252.759 -0.0755266 3.38716 0
M  V30 2701 C 251.318 -0.485309 3.73258 0
M  V30 2702 C 250.465 0.328399 2.75349 0
M  V30 2703 H 253.416 0.64379 1.45055 0
M  V30 2704 H 253.437 -0.887056 3.70016 0
M  V30 2705 H 252.949 0.936487 3.76632 0
M  V30 2706 H 251.05 -1.50329 3.40928 0
M  V30 2707 H 251.163 -0.21693 4.78609 0
M  V30 2708 H 249.527 -0.211905 2.53817 0
M  V30 2709 H 250.31 1.3391 3.16106 0
M  V30 2710 N 252.755 -1.56801 0.158532 0
M  V30 2711 C 254.002 -1.9649 -0.489679 0
M  V30 2712 C 254.33 -1.04394 -1.6411 0
M  V30 2713 O 253.585 -0.0754401 -1.95555 0
M  V30 2714 C 253.884 -3.4235 -1.02623 0
M  V30 2715 C 253.55 -4.50899 0.00794526 0
M  V30 2716 C 252.212 -4.80312 0.292207 0
M  V30 2717 C 254.564 -5.16333 0.710584 0
M  V30 2718 C 251.892 -5.72461 1.28472 0
M  V30 2719 C 254.244 -6.09553 1.69199 0
M  V30 2720 C 252.908 -6.37339 1.98383 0
M  V30 2721 H 252.178 -0.719009 -0.179186 0
M  V30 2722 H 254.825 -1.8989 0.247798 0
M  V30 2723 H 253.13 -3.45838 -1.84128 0
M  V30 2724 H 254.827 -3.70393 -1.53656 0
M  V30 2725 H 251.417 -4.28015 -0.22379 0
M  V30 2726 H 255.601 -4.93732 0.504174 0
M  V30 2727 H 250.857 -5.92278 1.51714 0
M  V30 2728 H 255.031 -6.59327 2.24189 0
M  V30 2729 H 252.658 -7.08546 2.7544 0
M  V30 2730 N 254.233 0.115231 -1.57178 0
M  V30 2731 C 255.51 0.852873 -1.76027 0
M  V30 2732 C 255.89 1.97892 -0.73498 0
M  V30 2733 O 255.238 2.27232 0.24036 0
M  V30 2734 C 255.448 1.36608 -3.21153 0
M  V30 2735 C 256.796 1.81692 -3.83762 0
M  V30 2736 O 257.82 1.46278 -3.24779 0
M  V30 2737 O 256.679 2.47104 -4.87444 0
M  V30 2738 H 253.773 0.405296 -0.720877 0
M  V30 2739 H 256.319 0.0986785 -1.69413 0
M  V30 2740 H 255.091 0.558357 -3.87296 0
M  V30 2741 H 254.714 2.18287 -3.3232 0
M  V30 2742 N 255.711 1.52812 0.385517 0
M  V30 2743 C 256.988 1.5861 1.14465 0
M  V30 2744 C 257.368 0.381402 2.07626 0
M  V30 2745 O 256.716 -0.629999 2.19643 0
M  V30 2746 C 256.926 2.92664 1.90128 0
M  V30 2747 C 258.274 3.46526 2.45367 0
M  V30 2748 O 259.298 2.94562 2.0028 0
M  V30 2749 O 258.157 4.37323 3.27736 0
M  V30 2750 H 255.251 0.639855 0.523941 0
M  V30 2751 H 257.797 1.65149 0.390389 0
M  V30 2752 H 256.569 3.71788 1.22022 0
M  V30 2753 H 256.192 2.89527 2.72507 0
M  V30 2754 N 257.189 -0.644168 1.43834 0
M  V30 2755 C 258.121 -1.76955 1.45669 0
M  V30 2756 C 259.134 -1.58956 0.351666 0
M  V30 2757 O 260.323 -1.6751 0.616644 0
M  V30 2758 C 257.423 -3.14507 1.26248 0
M  V30 2759 C 256.596 -3.59083 2.49757 0
M  V30 2760 C 255.655 -4.75467 2.25427 0
M  V30 2761 O 254.681 -4.84444 2.98836 0
M  V30 2762 N 255.883 -5.66289 1.27661 0
M  V30 2763 H 258.648 -1.75856 2.42682 0
M  V30 2764 H 256.209 -0.828312 1.39106 0
M  V30 2765 H 258.201 -3.90067 1.0784 0
M  V30 2766 H 256.771 -3.10325 0.376478 0
M  V30 2767 H 255.991 -2.7387 2.8353 0
M  V30 2768 H 257.279 -3.85613 3.31934 0
M  V30 2769 H 256.677 -5.61718 0.670064 0
M  V30 2770 H 255.234 -6.41533 1.15234 0
M  V30 2771 N 258.668 -1.30515 -0.883378 0
M  V30 2772 C 259.598 -1.19607 -2.00541 0
M  V30 2773 C 260.579 -0.086346 -1.69881 0
M  V30 2774 O 261.764 -0.268654 -1.92333 0
M  V30 2775 C 258.894 -0.888758 -3.35736 0
M  V30 2776 C 257.848 -1.95659 -3.8066 0
M  V30 2777 C 257.174 -1.50224 -5.13164 0
M  V30 2778 C 258.474 -3.36788 -3.99213 0
M  V30 2779 H 260.168 -2.13476 -2.09925 0
M  V30 2780 H 257.714 -1.02775 -1.00863 0
M  V30 2781 H 259.667 -0.799094 -4.13754 0
M  V30 2782 H 258.391 0.0856125 -3.26488 0
M  V30 2783 H 257.05 -2.03591 -3.04871 0
M  V30 2784 H 256.698 -0.516092 -5.00345 0
M  V30 2785 H 256.398 -2.2165 -5.44192 0
M  V30 2786 H 257.922 -1.42639 -5.93706 0
M  V30 2787 H 259.336 -3.31605 -4.67665 0
M  V30 2788 H 257.733 -4.06314 -4.41621 0
M  V30 2789 H 258.803 -3.78561 -3.03017 0
M  V30 2790 N 260.146 1.09593 -1.13257 0
M  V30 2791 C 261.386 1.83349 -0.903472 0
M  V30 2792 C 261.75 1.83641 0.560351 0
M  V30 2793 O 262.951 2.53037 0.906947 0
M  V30 2794 C 261.222 3.25629 -1.47311 0
M  V30 2795 S 262.781 4.16408 -1.38382 0
M  V30 2796 H 259.599 0.632014 -0.325699 0
M  V30 2797 H 262.201 1.31817 -1.44376 0
M  V30 2798 H 260.905 3.22991 -2.53189 0
M  V30 2799 H 260.436 3.82233 -0.930689 0
M  V30 2800 H 262.451 4.94884 -0.361113 0
M  V30 2801 N 261.624 0.925811 1.2754 0
M  V30 2802 C 262.849 0.580924 1.99098 0
M  V30 2803 C 263.274 -0.833555 1.68622 0
M  V30 2804 O 262.632 -1.55903 0.925422 0
M  V30 2805 C 262.68 0.811186 3.51358 0
M  V30 2806 O 261.784 -0.124129 4.12213 0
M  V30 2807 H 261.125 0.223873 0.625122 0
M  V30 2808 H 263.655 1.24455 1.62395 0
M  V30 2809 H 263.665 0.72601 4.01489 0
M  V30 2810 H 262.34 1.84227 3.72872 0
M  V30 2811 H 260.917 0.0108006 3.72898 0
M  V30 2812 N 263.102 -1.41638 0.69111 0
M  V30 2813 C 264.032 -2.3347 0.037248 0
M  V30 2814 C 265.013 -1.51575 -0.771947 0
M  V30 2815 O 266.198 -1.80126 -0.72582 0
M  V30 2816 C 263.328 -3.35354 -0.903064 0
M  V30 2817 C 262.282 -4.27526 -0.201288 0
M  V30 2818 C 261.608 -5.19747 -1.25565 0
M  V30 2819 C 262.908 -5.13959 0.929689 0
M  V30 2820 H 264.602 -2.88397 0.804227 0
M  V30 2821 H 262.148 -1.38669 0.388189 0
M  V30 2822 H 264.101 -3.98519 -1.36969 0
M  V30 2823 H 262.825 -2.78767 -1.70166 0
M  V30 2824 H 261.484 -3.65779 0.245265 0
M  V30 2825 H 261.132 -4.59479 -2.04666 0
M  V30 2826 H 260.832 -5.8225 -0.791128 0
M  V30 2827 H 262.356 -5.85789 -1.72288 0
M  V30 2828 H 263.77 -5.70718 0.543546 0
M  V30 2829 H 262.167 -5.85379 1.32103 0
M  V30 2830 H 263.237 -4.51389 1.77133 0
M  V30 2831 N 264.58 -0.43555 -1.51462 0
M  V30 2832 C 265.808 0.130242 -2.0649 0
M  V30 2833 C 266.223 1.36614 -1.30315 0
M  V30 2834 O 265.58 1.78869 -0.362223 0
M  V30 2835 C 265.631 0.454253 -3.58635 0
M  V30 2836 O 265.352 -0.73259 -4.31931 0
M  V30 2837 C 266.853 1.07091 -4.3017 0
M  V30 2838 H 264.073 0.00871669 -0.670943 0
M  V30 2839 H 266.617 -0.614117 -1.95061 0
M  V30 2840 H 264.772 1.14851 -3.69984 0
M  V30 2841 H 265.186 -0.455787 -5.22516 0
M  V30 2842 H 266.66 1.24764 -5.37716 0
M  V30 2843 H 267.137 2.05144 -3.88346 0
M  V30 2844 H 267.743 0.416089 -4.2326 0
M  V30 2845 N 266.058 1.56714 -0.166846 0
M  V30 2846 C 267.305 1.96747 0.479252 0
M  V30 2847 C 267.633 1.05263 1.63554 0
M  V30 2848 O 266.888 0.0858098 1.95512 0
M  V30 2849 C 267.187 3.42889 1.00806 0
M  V30 2850 C 266.853 4.50889 -0.0318574 0
M  V30 2851 C 265.515 4.8015 -0.317675 0
M  V30 2852 C 267.867 5.15949 -0.737956 0
M  V30 2853 C 265.195 5.71772 -1.31506 0
M  V30 2854 C 267.547 6.08647 -1.72429 0
M  V30 2855 C 266.211 6.36277 -2.0176 0
M  V30 2856 H 265.481 0.719949 0.175371 0
M  V30 2857 H 268.128 1.89756 -0.257864 0
M  V30 2858 H 266.433 3.4681 1.82291 0
M  V30 2859 H 268.13 3.71203 1.51689 0
M  V30 2860 H 264.72 4.28128 0.201088 0
M  V30 2861 H 268.904 4.93458 -0.530351 0
M  V30 2862 H 264.16 5.91465 -1.54853 0
M  V30 2863 H 268.334 6.58129 -2.27682 0
M  V30 2864 H 265.961 7.07075 -2.79194 0
M  V30 2865 N 267.536 -0.106894 1.57237 0
M  V30 2866 C 268.784 -0.810921 1.85117 0
M  V30 2867 C 269.105 -1.7984 0.753827 0
M  V30 2868 O 268.375 -1.94649 -0.221056 0
M  V30 2869 H 266.955 -0.302466 0.683025 0
M  V30 2870 H 269.617 -0.0913324 1.94686 0
M  V30 2871 H 268.713 -1.34875 2.81452 0
M  V30 2872 N 269.014 -1.53014 -0.377408 0
M  V30 2873 C 270.239 -1.72818 -1.14668 0
M  V30 2874 C 270.664 -0.450725 -1.8262 0
M  V30 2875 O 270.022 0.59439 -1.7128 0
M  V30 2876 C 270.07 -2.88627 -2.16164 0
M  V30 2877 O 269.174 -2.56409 -3.22998 0
M  V30 2878 H 268.515 -0.574301 -0.333278 0
M  V30 2879 H 271.045 -1.99853 -0.438152 0
M  V30 2880 H 271.055 -3.14455 -2.59966 0
M  V30 2881 H 269.73 -3.81294 -1.66095 0
M  V30 2882 H 268.307 -2.4136 -2.84253 0
M  V30 2883 N 270.492 0.636531 -1.44174 0
M  V30 2884 C 271.738 1.39649 -1.47884 0
M  V30 2885 C 272.093 1.92098 -0.107747 0
M  V30 2886 O 271.386 1.70391 0.876208 0
M  V30 2887 C 271.58 2.58309 -2.47005 0
M  V30 2888 C 271.409 2.17476 -3.93617 0
M  V30 2889 C 270.179 2.0501 -4.61843 0
M  V30 2890 C 272.377 1.76722 -4.82984 0
M  V30 2891 N 270.359 1.57683 -5.93304 0
M  V30 2892 C 271.73 1.40601 -6.03847 0
M  V30 2893 C 273.785 1.64054 -4.70096 0
M  V30 2894 C 272.488 0.930787 -7.13252 0
M  V30 2895 C 274.514 1.17937 -5.79521 0
M  V30 2896 C 273.876 0.827625 -6.99521 0
M  V30 2897 H 269.975 0.506027 -0.596205 0
M  V30 2898 H 272.559 0.730791 -1.80465 0
M  V30 2899 H 270.73 3.22514 -2.16423 0
M  V30 2900 H 272.462 3.25083 -2.41045 0
M  V30 2901 H 269.217 2.25294 -4.16581 0
M  V30 2902 H 269.641 1.36334 -6.63131 0
M  V30 2903 H 274.283 1.89882 -3.77762 0
M  V30 2904 H 272.001 0.660012 -8.054 0
M  V30 2905 H 275.587 1.08601 -5.71574 0
M  V30 2906 H 274.467 0.476231 -7.82753 0
M  V30 2907 N 271.97 1.30982 0.876444 0
M  V30 2908 C 273.198 1.23242 1.6619 0
M  V30 2909 C 273.613 -0.203345 1.87702 0
M  V30 2910 O 272.97 -1.13317 1.43057 0
M  V30 2911 C 273.021 1.96623 3.03351 0
M  V30 2912 O 272.742 3.34594 2.82804 0
M  V30 2913 C 274.243 1.95644 3.97792 0
M  V30 2914 H 271.463 0.426126 0.518322 0
M  V30 2915 H 274.007 1.7275 1.09442 0
M  V30 2916 H 272.162 1.50892 3.56806 0
M  V30 2917 H 272.576 3.71873 3.69879 0
M  V30 2918 H 274.05 2.51511 4.91372 0
M  V30 2919 H 274.527 0.937395 4.2908 0
M  V30 2920 H 275.133 2.41225 3.50272 0
M  V30 2921 N 273.449 -1.08991 1.13837 0
M  V30 2922 C 274.679 -1.84743 0.924859 0
M  V30 2923 C 275.087 -1.81629 -0.529874 0
M  V30 2924 O 274.43 -1.21397 -1.37872 0
M  V30 2925 C 274.492 -3.33568 1.34061 0
M  V30 2926 C 274.156 -3.60425 2.80968 0
M  V30 2927 C 275.153 -3.55771 3.79108 0
M  V30 2928 C 272.838 -3.88627 3.18236 0
M  V30 2929 C 274.832 -3.78939 5.12527 0
M  V30 2930 C 272.519 -4.11449 4.51833 0
M  V30 2931 C 273.517 -4.06598 5.48787 0
M  V30 2932 O 273.205 -4.28826 6.79973 0
M  V30 2933 H 272.937 -0.590258 0.329502 0
M  V30 2934 H 275.491 -1.38598 1.51591 0
M  V30 2935 H 273.721 -3.80442 0.692853 0
M  V30 2936 H 275.41 -3.90743 1.09886 0
M  V30 2937 H 276.176 -3.34005 3.51661 0
M  V30 2938 H 272.055 -3.91526 2.43369 0
M  V30 2939 H 275.599 -3.75068 5.88192 0
M  V30 2940 H 271.496 -4.32698 4.79002 0
M  V30 2941 H 272.264 -4.46264 6.86142 0
M  V30 2942 N 274.927 -0.932562 -1.27047 0
M  V30 2943 C 275.875 -0.42603 -2.28665 0
M  V30 2944 C 276.869 0.49219 -1.62092 0
M  V30 2945 O 278.075 0.371355 -1.76128 0
M  V30 2946 H 274.45 -0.119213 -0.742491 0
M  V30 2947 H 276.421 -1.29579 -2.68797 0
M  V30 2948 C 275.17 0.301426 -3.46391 0
M  V30 2949 H 274.493 -0.39595 -3.97834 0
M  V30 2950 H 275.933 0.6202 -4.1944 0
M  V30 2951 C 274.392 1.51616 -3.00856 0
M  V30 2952 O 274.922 2.61476 -3.04948 0
M  V30 2953 N 273.128 1.36969 -2.56296 0
M  V30 2954 H 272.675 0.475873 -2.53166 0
M  V30 2955 H 272.633 2.18368 -2.26192 0
M  V30 2956 N 276.405 1.4127 -0.698611 0
M  V30 2957 C 277.821 1.55241 -0.370462 0
M  V30 2958 C 278.021 1.67351 1.12231 0
M  V30 2959 O 277.077 1.65363 1.90818 0
M  V30 2960 C 278.39 2.78997 -1.12165 0
M  V30 2961 C 279.938 2.92797 -1.1063 0
M  V30 2962 C 280.413 4.19445 -1.8393 0
M  V30 2963 N 281.904 4.26409 -1.80914 0
M  V30 2964 C 282.639 5.23271 -2.34467 0
M  V30 2965 N 282.135 6.26145 -2.96504 0
M  V30 2966 N 283.928 5.15232 -2.24706 0
M  V30 2967 H 276.079 1.31654 -1.66676 0
M  V30 2968 H 278.342 0.635393 -0.703548 0
M  V30 2969 H 278.048 2.76268 -2.17644 0
M  V30 2970 H 277.922 3.70606 -0.702209 0
M  V30 2971 H 280.309 2.95039 -0.0597713 0
M  V30 2972 H 280.39 2.02353 -1.56483 0
M  V30 2973 H 280.034 4.17964 -2.88563 0
M  V30 2974 H 279.964 5.08866 -1.35509 0
M  V30 2975 H 282.455 3.527 -1.35687 0
M  V30 2976 H 282.768 6.96451 -3.34927 0
M  V30 2977 H 281.113 6.26638 -3.00583 0
M  V30 2978 H 284.304 4.33789 -1.7591 0
M  V30 2979 H 284.477 5.90552 -2.66745 0
M  V30 2980 N 277.883 0.443576 1.51229 0
M  V30 2981 C 279.16 -0.181038 1.9476 0
M  V30 2982 C 279.54 -1.59523 1.38259 0
M  V30 2983 O 278.888 -2.2122 0.572198 0
M  V30 2984 C 279.098 -0.152422 3.48667 0
M  V30 2985 C 280.446 -0.354923 4.23114 0
M  V30 2986 O 281.47 -0.230257 3.55455 0
M  V30 2987 O 280.329 -0.603674 5.43156 0
M  V30 2988 H 277.423 -0.1266 0.817252 0
M  V30 2989 H 279.969 0.502004 1.62105 0
M  V30 2990 H 278.741 0.836022 3.82265 0
M  V30 2991 H 278.364 -0.878107 3.87782 0
M  V30 2992 N 279.361 -1.56624 0.175154 0
M  V30 2993 C 280.271 -2.21741 -0.766042 0
M  V30 2994 C 281.287 -1.21023 -1.25018 0
M  V30 2995 O 282.463 -1.53697 -1.3015 0
M  V30 2996 C 279.528 -2.84839 -1.97655 0
M  V30 2997 C 278.589 -4.00769 -1.53892 0
M  V30 2998 C 277.822 -4.60849 -2.69173 0
M  V30 2999 O 278.045 -4.19823 -3.86141 0
M  V30 3000 O 276.979 -5.50655 -2.43028 0
M  V30 3001 H 280.805 -3.02738 -0.241585 0
M  V30 3002 H 278.39 -1.49305 -0.053222 0
M  V30 3003 H 280.272 -3.24834 -2.68442 0
M  V30 3004 H 278.947 -2.06836 -2.48999 0
M  V30 3005 H 277.854 -3.65436 -0.80044 0
M  V30 3006 H 279.187 -4.80376 -1.07236 0
M  V30 3007 N 280.839 0.0985539 -1.57292 0
M  V30 3008 C 282.088 0.801358 -1.85098 0
M  V30 3009 C 282.401 1.80066 -0.763902 0
M  V30 3010 O 283.607 2.55112 -0.928981 0
M  V30 3011 C 282.063 1.47599 -3.28242 0
M  V30 3012 C 281.671 0.516624 -4.45011 0
M  V30 3013 C 283.415 2.16272 -3.65276 0
M  V30 3014 C 281.322 1.19564 -5.79188 0
M  V30 3015 H 280.252 0.303022 -0.69043 0
M  V30 3016 H 282.903 0.0542623 -1.8342 0
M  V30 3017 H 281.285 2.27042 -3.2445 0
M  V30 3018 H 282.459 -0.246065 -4.60143 0
M  V30 3019 H 280.774 -0.064227 -4.1635 0
M  V30 3020 H 283.371 2.67802 -4.62803 0
M  V30 3021 H 283.714 2.95009 -2.93727 0
M  V30 3022 H 284.247 1.43693 -3.70941 0
M  V30 3023 H 280.986 0.449157 -6.53959 0
M  V30 3024 H 280.506 1.92984 -5.67906 0
M  V30 3025 H 282.185 1.7231 -6.23633 0
M  V30 3026 N 282.317 1.53212 0.369288 0
M  V30 3027 C 283.264 1.79388 1.45219 0
M  V30 3028 C 284.234 0.638059 1.53356 0
M  V30 3029 O 285.419 0.879852 1.69302 0
M  V30 3030 C 282.559 1.98623 2.82211 0
M  V30 3031 C 281.672 3.26337 2.8307 0
M  V30 3032 C 280.807 3.35779 4.11614 0
M  V30 3033 C 279.846 4.5754 4.06601 0
M  V30 3034 N 278.983 4.64155 5.26787 0
M  V30 3035 H 283.823 2.71794 1.22198 0
M  V30 3036 H 281.36 1.34642 0.592444 0
M  V30 3037 H 283.318 2.07761 3.61789 0
M  V30 3038 H 281.948 1.09558 3.03639 0
M  V30 3039 H 281 3.26171 1.95747 0
M  V30 3040 H 282.312 4.15988 2.75237 0
M  V30 3041 H 281.466 3.44208 4.99606 0
M  V30 3042 H 280.205 2.44137 4.22195 0
M  V30 3043 H 279.21 4.49215 3.16996 0
M  V30 3044 H 280.435 5.50519 3.97625 0
M  V30 3045 H 278.381 3.75413 5.3796 0
M  V30 3046 H 278.298 5.47706 5.21109 0
M  V30 3047 H 279.566 4.76863 6.16621 0
M  V30 3048 N 283.795 -0.628877 1.44509 0
M  V30 3049 C 284.725 -1.75187 1.54376 0
M  V30 3050 C 285.706 -1.65411 0.396618 0
M  V30 3051 O 286.891 -1.84137 0.617031 0
M  V30 3052 C 284.021 -3.13725 1.48976 0
M  V30 3053 C 282.975 -3.38291 2.62189 0
M  V30 3054 C 282.301 -4.76883 2.41841 0
M  V30 3055 C 283.601 -3.30632 4.04326 0
M  V30 3056 H 285.295 -1.67187 2.48373 0
M  V30 3057 H 282.841 -0.802909 1.19538 0
M  V30 3058 H 284.794 -3.92064 1.54478 0
M  V30 3059 H 283.518 -3.22515 0.514961 0
M  V30 3060 H 282.177 -2.62334 2.56079 0
M  V30 3061 H 281.825 -4.82378 1.42548 0
M  V30 3062 H 281.525 -4.94278 3.17747 0
M  V30 3063 H 283.049 -5.57449 2.49165 0
M  V30 3064 H 284.463 -3.98873 4.11793 0
M  V30 3065 H 282.86 -3.59561 4.80454 0
M  V30 3066 H 283.93 -2.28404 4.27738 0
M  V30 3067 N 285.273 -1.31445 -0.869486 0
M  V30 3068 C 286.55 -1.11795 -1.60503 0
M  V30 3069 C 286.93 0.327168 -2.08549 0
M  V30 3070 O 286.278 1.32135 -1.8642 0
M  V30 3071 C 286.488 -2.13258 -2.76265 0
M  V30 3072 C 287.836 -2.45805 -3.46215 0
M  V30 3073 O 288.86 -2.11688 -2.86473 0
M  V30 3074 O 287.719 -3.04228 -4.5399 0
M  V30 3075 H 284.813 -0.430421 -0.706163 0
M  V30 3076 H 287.359 -1.42925 -0.914907 0
M  V30 3077 H 286.131 -3.10461 -2.3818 0
M  V30 3078 H 285.754 -1.83035 -3.52964 0
M  V30 3079 N 286.751 1.08385 -1.14413 0
M  V30 3080 C 287.998 1.80776 -0.912482 0
M  V30 3081 C 288.326 1.86236 0.560934 0
M  V30 3082 O 287.581 1.33431 1.43159 0
M  V30 3083 C 287.88 3.26273 -1.45879 0
M  V30 3084 C 287.546 3.4093 -2.95089 0
M  V30 3085 C 286.208 3.44638 -3.35824 0
M  V30 3086 C 288.56 3.44591 -3.91033 0
M  V30 3087 C 285.888 3.49597 -4.71167 0
M  V30 3088 C 288.24 3.51086 -5.26233 0
M  V30 3089 C 286.904 3.53067 -5.6648 0
M  V30 3090 H 286.174 0.661507 -0.333901 0
M  V30 3091 H 288.821 1.27613 -1.42784 0
M  V30 3092 H 287.126 3.82146 -0.864376 0
M  V30 3093 H 288.823 3.80839 -1.2555 0
M  V30 3094 H 285.413 3.38736 -2.62594 0
M  V30 3095 H 289.597 3.40957 -3.60641 0
M  V30 3096 H 284.853 3.49424 -5.0171 0
M  V30 3097 H 289.027 3.52864 -6.00383 0
M  V30 3098 H 286.654 3.56662 -6.71339 0
M  V30 3099 N 288.23 0.939286 1.26551 0
M  V30 3100 C 289.16 0.465044 2.28822 0
M  V30 3101 C 290.141 -0.480692 1.63167 0
M  V30 3102 O 291.326 -0.382955 1.90387 0
M  V30 3103 C 288.456 -0.27234 3.46231 0
M  V30 3104 C 287.41 0.58666 4.2396 0
M  V30 3105 C 286.736 -0.280573 5.33963 0
M  V30 3106 C 288.036 1.85704 4.88171 0
M  V30 3107 H 289.73 1.31979 2.68741 0
M  V30 3108 H 287.276 0.636061 1.29191 0
M  V30 3109 H 289.229 -0.615133 4.16886 0
M  V30 3110 H 287.953 -1.16121 3.0526 0
M  V30 3111 H 286.612 0.91232 3.55067 0
M  V30 3112 H 286.26 -1.16874 4.89234 0
M  V30 3113 H 285.96 0.29076 5.8688 0
M  V30 3114 H 287.484 -0.618678 6.07458 0
M  V30 3115 H 288.898 1.58161 5.51052 0
M  V30 3116 H 287.295 2.37279 5.51197 0
M  V30 3117 H 288.365 2.56957 4.11219 0
M  V30 3118 N 289.708 -1.40897 0.706093 0
M  V30 3119 C 290.936 -2.05373 0.250887 0
M  V30 3120 C 291.351 -1.53172 -1.10381 0
M  V30 3121 O 290.708 -0.684305 -1.69185 0
M  V30 3122 C 290.759 -3.6088 0.211571 0
M  V30 3123 O 290.48 -4.11153 1.51276 0
M  V30 3124 C 291.981 -4.42517 -0.263346 0
M  V30 3125 H 289.201 -0.66115 0.114552 0
M  V30 3126 H 291.745 -1.80479 0.961635 0
M  V30 3127 H 289.9 -3.84777 -0.450073 0
M  V30 3128 H 290.314 -5.05279 1.40689 0
M  V30 3129 H 291.788 -5.51479 -0.239718 0
M  V30 3130 H 292.265 -4.19396 -1.30397 0
M  V30 3131 H 292.871 -4.23708 0.367677 0
M  V30 3132 N 291.186 -0.45159 -1.50991 0
M  V30 3133 C 292.411 0.110667 -2.07105 0
M  V30 3134 C 292.836 1.3446 -1.31538 0
M  V30 3135 O 292.194 1.77743 -0.357365 0
M  V30 3136 C 292.242 0.397238 -3.58405 0
M  V30 3137 O 291.346 1.48124 -3.84881 0
M  V30 3138 H 290.687 -0.00439271 -0.663985 0
M  V30 3139 H 293.217 -0.637026 -1.9443 0
M  V30 3140 H 293.227 0.64351 -4.02893 0
M  V30 3141 H 291.902 -0.504553 -4.12828 0
M  V30 3142 H 290.479 1.22381 -3.52246 0
M  V30 3143 N 292.664 1.56529 -0.183458 0
M  V30 3144 C 293.941 1.88959 0.50536 0
M  V30 3145 C 294.321 1.09523 1.80466 0
M  V30 3146 O 293.669 0.19278 2.27685 0
M  V30 3147 C 293.879 3.41162 0.73547 0
M  V30 3148 C 295.227 4.11155 1.06005 0
M  V30 3149 O 296.251 3.46548 0.823594 0
M  V30 3150 O 295.11 5.25318 1.50675 0
M  V30 3151 H 292.204 0.78441 0.261973 0
M  V30 3152 H 294.75 1.68231 -0.222802 0
M  V30 3153 H 293.522 3.90874 -0.182561 0
M  V30 3154 H 293.145 3.67543 1.51651 0
M  V30 3155 N 294.142 -0.090211 1.57342 0
M  V30 3156 C 295.558 -0.444547 1.53284 0
M  V30 3157 C 295.758 -1.80238 0.900914 0
M  V30 3158 O 294.814 -2.4759 0.495513 0
M  V30 3159 C 296.127 -0.402543 2.97993 0
M  V30 3160 C 297.675 -0.48405 3.09234 0
M  V30 3161 C 298.15 -0.472144 4.5556 0
M  V30 3162 N 299.641 -0.532757 4.60126 0
M  V30 3163 C 300.376 -0.545462 5.708 0
M  V30 3164 N 299.872 -0.514082 6.9089 0
M  V30 3165 N 301.665 -0.59064 5.58988 0
M  V30 3166 H 293.816 0.799121 1.96794 0
M  V30 3167 H 296.079 0.297965 0.899956 0
M  V30 3168 H 295.785 0.528106 3.47712 0
M  V30 3169 H 295.659 -1.21969 3.56936 0
M  V30 3170 H 298.046 -1.40512 2.595 0
M  V30 3171 H 298.127 0.361328 2.53235 0
M  V30 3172 H 297.771 0.445 5.05947 0
M  V30 3173 H 297.701 -1.3348 5.09402 0
M  V30 3174 H 300.192 -0.562006 3.73698 0
M  V30 3175 H 300.505 -0.527195 7.71 0
M  V30 3176 H 298.85 -0.481054 6.93333 0
M  V30 3177 H 302.041 -0.61272 4.64073 0
M  V30 3178 H 302.214 -0.597073 6.45243 0
M  V30 3179 N 295.62 -1.53406 -0.361157 0
M  V30 3180 C 296.866 -1.70054 -1.10496 0
M  V30 3181 C 297.199 -0.453278 -1.88836 0
M  V30 3182 O 296.474 0.5495 -1.86576 0
M  V30 3183 C 296.757 -2.95317 -2.06058 0
M  V30 3184 C 296.61 -4.3021 -1.31298 0
M  V30 3185 C 297.929 -3.16193 -3.06121 0
M  V30 3186 H 295.048 -0.618799 -0.400321 0
M  V30 3187 H 297.69 -1.86052 -0.385318 0
M  V30 3188 H 295.84 -2.81809 -2.67425 0
M  V30 3189 H 297.512 -4.55538 -0.726807 0
M  V30 3190 H 295.755 -4.29421 -0.614853 0
M  V30 3191 H 296.426 -5.14 -2.01265 0
M  V30 3192 H 298.902 -3.28916 -2.5486 0
M  V30 3193 H 297.778 -4.05266 -3.70204 0
M  V30 3194 H 298.039 -2.31676 -3.76535 0
M  V30 3195 N 297.098 0.621204 -1.44841 0
M  V30 3196 C 298.375 1.38 -1.38619 0
M  V30 3197 C 298.755 2.11041 -0.0498935 0
M  V30 3198 O 298.103 2.06992 0.967816 0
M  V30 3199 C 298.313 2.33817 -2.59096 0
M  V30 3200 C 299.661 2.96844 -3.03593 0
M  V30 3201 O 300.685 2.44141 -2.59371 0
M  V30 3202 O 299.544 3.92476 -3.80296 0
M  V30 3203 H 296.638 0.61811 -0.549426 0
M  V30 3204 H 299.184 0.645429 -1.56947 0
M  V30 3205 H 297.956 1.79012 -3.47952 0
M  V30 3206 H 297.579 3.14676 -2.43032 0
M  V30 3207 N 298.576 1.31904 0.862503 0
M  V30 3208 C 299.823 1.22017 1.61611 0
M  V30 3209 C 300.151 -0.21991 1.93253 0
M  V30 3210 O 299.406 -1.17076 1.56817 0
M  V30 3211 C 299.705 2.01713 2.95037 0
M  V30 3212 C 299.371 3.51145 2.82857 0
M  V30 3213 C 298.033 3.91889 2.79243 0
M  V30 3214 C 300.385 4.46204 2.69353 0
M  V30 3215 C 297.713 5.25947 2.59993 0
M  V30 3216 C 300.065 5.80397 2.5164 0
M  V30 3217 C 298.729 6.20352 2.46413 0
M  V30 3218 H 297.999 0.44649 0.591378 0
M  V30 3219 H 300.646 1.63248 1.00111 0
M  V30 3220 H 298.951 1.53185 3.60613 0
M  V30 3221 H 300.648 1.91437 3.52353 0
M  V30 3222 H 297.238 3.1878 2.86491 0
M  V30 3223 H 301.422 4.15652 2.71196 0
M  V30 3224 H 296.678 5.5597 2.54376 0
M  V30 3225 H 300.852 6.53676 2.40169 0
M  V30 3226 H 298.479 7.24172 2.31256 0
M  V30 3227 N 300.054 -1.07777 1.14986 0
M  V30 3228 C 301.279 -1.84558 0.946213 0
M  V30 3229 C 301.704 -1.81323 -0.500362 0
M  V30 3230 O 301.062 -1.20301 -1.35637 0
M  V30 3231 C 301.11 -3.29736 1.45968 0
M  V30 3232 O 300.214 -4.07149 0.65601 0
M  V30 3233 H 299.555 -0.571641 0.33782 0
M  V30 3234 H 302.085 -1.35991 1.52865 0
M  V30 3235 H 302.095 -3.80574 1.47063 0
M  V30 3236 H 300.77 -3.31406 2.51283 0
M  V30 3237 H 299.347 -3.65994 0.714322 0
M  V30 3238 N 301.532 -0.945985 -1.26051 0
M  V30 3239 C 302.442 -0.465633 -2.29933 0
M  V30 3240 C 303.458 0.462761 -1.67733 0
M  V30 3241 O 304.634 0.341118 -1.9849 0
M  V30 3242 C 301.699 0.256994 -3.45746 0
M  V30 3243 C 300.76 -0.708549 -4.23412 0
M  V30 3244 C 299.993 -0.0203135 -5.33696 0
M  V30 3245 O 300.216 1.19571 -5.57726 0
M  V30 3246 O 299.15 -0.701459 -5.97799 0
M  V30 3247 H 302.976 -1.32866 -2.73094 0
M  V30 3248 H 300.561 -0.712071 -1.31339 0
M  V30 3249 H 302.443 0.663852 -4.16138 0
M  V30 3250 H 301.118 1.09533 -3.04605 0
M  V30 3251 H 300.025 -1.16545 -3.55483 0
M  V30 3252 H 301.358 -1.51465 -4.68315 0
M  V30 3253 N 303.011 1.40521 -0.713556 0
M  V30 3254 C 304.241 2.0494 -0.261395 0
M  V30 3255 C 304.649 1.53861 1.10107 0
M  V30 3256 O 303.992 0.689321 1.70276 0
M  V30 3257 C 304.054 3.59138 -0.161227 0
M  V30 3258 C 303.718 4.33096 -1.45865 0
M  V30 3259 C 304.715 4.61182 -2.40016 0
M  V30 3260 C 302.4 4.72043 -1.71701 0
M  V30 3261 C 304.394 5.27196 -3.58251 0
M  V30 3262 C 302.081 5.37789 -2.90218 0
M  V30 3263 C 303.079 5.65295 -3.83315 0
M  V30 3264 O 302.767 6.29683 -4.99754 0
M  V30 3265 H 302.499 0.666041 -0.115608 0
M  V30 3266 H 305.053 1.80954 -0.971849 0
M  V30 3267 H 303.283 3.81936 0.605153 0
M  V30 3268 H 304.972 4.05091 0.256105 0
M  V30 3269 H 305.738 4.31559 -2.21318 0
M  V30 3270 H 301.617 4.50003 -1.00092 0
M  V30 3271 H 305.161 5.48582 -4.30934 0
M  V30 3272 H 301.058 5.66831 -3.08825 0
M  V30 3273 H 301.826 6.4818 -4.99805 0
M  V30 3274 N 304.489 0.459591 1.5075 0
M  V30 3275 C 305.714 -0.0996819 2.0716 0
M  V30 3276 C 306.139 -1.33761 1.32249 0
M  V30 3277 O 305.497 -1.77551 0.366786 0
M  V30 3278 C 305.545 -0.378226 3.58611 0
M  V30 3279 O 304.649 -1.46081 3.85661 0
M  V30 3280 H 303.99 0.00791392 0.663953 0
M  V30 3281 H 306.52 0.647329 1.9409 0
M  V30 3282 H 306.53 -0.622135 4.03229 0
M  V30 3283 H 305.205 0.526439 4.12555 0
M  V30 3284 H 303.782 -1.20511 3.5289 0
M  V30 3285 N 305.967 -1.56429 0.191757 0
M  V30 3286 C 307.195 -2.01867 -0.453586 0
M  V30 3287 C 307.61 -1.07191 -1.5542 0
M  V30 3288 O 306.967 -0.0762108 -1.82341 0
M  V30 3289 C 307.018 -3.47017 -1.013 0
M  V30 3290 O 306.739 -4.38078 0.0437005 0
M  V30 3291 C 308.24 -4.07956 -1.73456 0
M  V30 3292 H 305.46 -0.661211 -0.114199 0
M  V30 3293 H 308.004 -2.02295 0.299483 0
M  V30 3294 H 306.159 -3.47298 -1.71647 0
M  V30 3295 H 306.573 -5.23178 -0.372212 0
M  V30 3296 H 308.047 -5.1138 -2.07833 0
M  V30 3297 H 308.524 -3.51222 -2.63704 0
M  V30 3298 H 309.13 -4.11437 -1.07702 0
M  V30 3299 N 307.445 0.0818655 -1.57387 0
M  V30 3300 C 308.67 0.799946 -1.91352 0
M  V30 3301 C 309.095 1.70833 -0.787258 0
M  V30 3302 O 308.453 1.79419 0.26048 0
M  V30 3303 C 308.501 1.57812 -3.24234 0
M  V30 3304 O 307.605 2.68806 -3.12757 0
M  V30 3305 H 306.946 0.21891 -0.626877 0
M  V30 3306 H 309.476 0.0531256 -2.04531 0
M  V30 3307 H 309.486 1.95952 -3.57864 0
M  V30 3308 H 308.161 0.911548 -4.05788 0
M  V30 3309 H 306.738 2.33597 -2.90666 0
M  V30 3310 N 308.923 1.53595 0.353017 0
M  V30 3311 C 310.148 1.7462 1.11904 0
M  V30 3312 C 310.573 0.479721 1.8188 0
M  V30 3313 O 309.931 -0.567066 1.72204 0
M  V30 3314 C 309.979 2.92029 2.11545 0
M  V30 3315 O 309.083 2.61516 3.18878 0
M  V30 3316 H 308.424 0.579531 0.324099 0
M  V30 3317 H 310.954 2.00525 0.406301 0
M  V30 3318 H 310.964 3.18551 2.5493 0
M  V30 3319 H 309.639 3.83888 1.60008 0
M  V30 3320 H 308.216 2.45852 2.80377 0
M  V30 3321 N 310.401 -0.613514 1.45168 0
M  V30 3322 C 311.65 -1.36874 1.4815 0
M  V30 3323 C 311.963 -1.952 0.124982 0
M  V30 3324 O 313.169 -2.71481 0.0324176 0
M  V30 3325 C 311.625 -2.47905 2.60904 0
M  V30 3326 C 311.233 -1.96016 4.02842 0
M  V30 3327 C 312.977 -3.24965 2.73126 0
M  V30 3328 C 310.884 -3.04494 5.06988 0
M  V30 3329 H 309.814 -0.514428 0.551253 0
M  V30 3330 H 312.465 -0.658182 1.7129 0
M  V30 3331 H 310.847 -3.21618 2.31037 0
M  V30 3332 H 312.021 -1.29051 4.4236 0
M  V30 3333 H 310.336 -1.31719 3.95018 0
M  V30 3334 H 312.933 -4.05865 3.48106 0
M  V30 3335 H 313.276 -3.75588 1.79553 0
M  V30 3336 H 313.809 -2.5835 3.0249 0
M  V30 3337 H 310.548 -2.58795 6.0225 0
M  V30 3338 H 310.068 -3.70044 4.72046 0
M  V30 3339 H 311.747 -3.68976 5.31475 0
M  V30 3340 N 311.879 -1.3236 -0.855495 0
M  V30 3341 C 313.125 -1.24064 -1.61182 0
M  V30 3342 C 313.48 0.195914 -1.914 0
M  V30 3343 O 312.773 1.13345 -1.54478 0
M  V30 3344 C 312.967 -2.03275 -2.93963 0
M  V30 3345 C 312.796 -3.54486 -2.76712 0
M  V30 3346 C 311.566 -4.23824 -2.75139 0
M  V30 3347 C 313.764 -4.49154 -2.50531 0
M  V30 3348 N 311.746 -5.61095 -2.4909 0
M  V30 3349 C 313.117 -5.74195 -2.3388 0
M  V30 3350 C 315.172 -4.3842 -2.35992 0
M  V30 3351 C 313.875 -6.89716 -2.04168 0
M  V30 3352 C 315.901 -5.53739 -2.0767 0
M  V30 3353 C 315.263 -6.77779 -1.9182 0
M  V30 3354 H 311.362 -0.509139 -0.59355 0
M  V30 3355 H 313.946 -1.66715 -1.00569 0
M  V30 3356 H 312.117 -1.6297 -3.52555 0
M  V30 3357 H 313.849 -1.86881 -3.58967 0
M  V30 3358 H 310.604 -3.75934 -2.88047 0
M  V30 3359 H 311.028 -6.33411 -2.38996 0
M  V30 3360 H 315.67 -3.43172 -2.46967 0
M  V30 3361 H 313.388 -7.84977 -1.9193 0
M  V30 3362 H 316.974 -5.4736 -1.97201 0
M  V30 3363 H 315.854 -7.65504 -1.70217 0
M  V30 3364 N 313.357 1.07166 -1.15556 0
M  V30 3365 C 314.634 1.76546 -0.842069 0
M  V30 3366 C 315.014 2.00453 0.661939 0
M  V30 3367 O 314.362 1.62452 1.60691 0
M  V30 3368 C 314.572 3.07266 -1.65495 0
M  V30 3369 C 315.92 3.81578 -1.86234 0
M  V30 3370 O 316.944 3.17083 -1.62287 0
M  V30 3371 O 315.803 4.97419 -2.26355 0
M  V30 3372 H 312.897 0.766756 -0.309862 0
M  V30 3373 H 315.443 1.13514 -1.26145 0
M  V30 3374 H 314.215 2.85494 -2.67598 0
M  V30 3375 H 313.838 3.7803 -1.23203 0
M  V30 3376 N 314.835 0.952656 1.25548 0
M  V30 3377 C 315.768 0.415525 2.24385 0
M  V30 3378 C 316.746 -0.502046 1.54655 0
M  V30 3379 O 317.93 -0.436875 1.83368 0
M  V30 3380 C 315.057 -0.401734 3.36309 0
M  V30 3381 C 314.103 0.455949 4.24056 0
M  V30 3382 S 314.936 1.88698 5.01152 0
M  V30 3383 C 316.092 1.07809 6.16545 0
M  V30 3384 H 316.325 1.25315 2.69599 0
M  V30 3385 H 313.858 0.756587 1.34592 0
M  V30 3386 H 315.816 -0.867329 4.01233 0
M  V30 3387 H 314.477 -1.21416 2.89684 0
M  V30 3388 H 313.67 -0.170776 5.03711 0
M  V30 3389 H 313.272 0.856675 3.64056 0
M  V30 3390 H 315.564 0.325816 6.76716 0
M  V30 3391 H 316.507 1.84849 6.83547 0
M  V30 3392 H 316.915 0.60909 5.61204 0
M  V30 3393 N 316.313 -1.40141 0.720998 0
M  V30 3394 C 317.246 -2.2819 0.020916 0
M  V30 3395 C 318.224 -1.43633 -0.762129 0
M  V30 3396 O 319.408 -1.7304 -0.747633 0
M  V30 3397 C 316.535 -3.24281 -0.977715 0
M  V30 3398 C 315.581 -4.25548 -0.284836 0
M  V30 3399 S 316.414 -5.26247 0.991169 0
M  V30 3400 C 317.57 -6.259 -0.0052214 0
M  V30 3401 H 317.803 -2.87218 0.767649 0
M  V30 3402 H 315.336 -1.45656 0.512233 0
M  V30 3403 H 317.294 -3.80167 -1.54865 0
M  V30 3404 H 315.955 -2.643 -1.69719 0
M  V30 3405 H 315.148 -4.93154 -1.03996 0
M  V30 3406 H 314.75 -3.73389 0.213684 0
M  V30 3407 H 317.042 -6.72143 -0.850279 0
M  V30 3408 H 317.985 -7.05224 0.637599 0
M  V30 3409 H 318.393 -5.63277 -0.371366 0
M  V30 3410 N 317.792 -0.46758 -1.50504 0
M  V30 3411 C 319.069 0.15003 -1.95024 0
M  V30 3412 C 319.449 1.57304 -1.40779 0
M  V30 3413 O 318.797 2.20281 -0.607319 0
M  V30 3414 C 319.007 0.0969324 -3.48865 0
M  V30 3415 C 320.355 0.287565 -4.23625 0
M  V30 3416 O 321.379 0.173678 -3.55776 0
M  V30 3417 O 320.238 0.517186 -5.44047 0
M  V30 3418 H 317.332 0.113582 -0.819163 0
M  V30 3419 H 319.878 -0.52773 -1.61286 0
M  V30 3420 H 318.65 -0.896732 -3.80886 0
M  V30 3421 H 318.273 0.816303 -3.8913 0
M  V30 3422 N 319.27 1.56325 -0.20005 0
M  V30 3423 C 320.518 1.97329 0.436547 0
M  V30 3424 C 320.839 1.08826 1.61808 0
M  V30 3425 O 320.109 0.160604 1.95241 0
M  V30 3426 H 318.689 0.728714 0.164272 0
M  V30 3427 H 321.351 1.92761 -0.287937 0
M  V30 3428 H 320.447 3.02264 0.777353 0
M  V30 3429 N 320.748 -0.0735177 1.57428 0
M  V30 3430 C 322.159 -0.625551 1.75908 0
M  V30 3431 C 322.51 -1.78 0.825261 0
M  V30 3432 O 321.635 -2.16398 0.00893964 0
M  V30 3433 C 322.23 -1.14155 3.18989 0
M  V30 3434 C 320.789 -1.63946 3.38819 0
M  V30 3435 C 319.936 -0.558151 2.71625 0
M  V30 3436 H 322.887 0.152647 1.57964 0
M  V30 3437 H 322.908 -2.0104 3.23053 0
M  V30 3438 H 322.42 -0.301116 3.8693 0
M  V30 3439 H 320.521 -2.50321 2.7599 0
M  V30 3440 H 320.634 -1.71759 4.47253 0
M  V30 3441 H 318.998 -1.00278 2.34129 0
M  V30 3442 H 319.781 0.272071 3.4222 0
M  V30 3443 N 322.226 -1.5378 -0.344866 0
M  V30 3444 C 323.189 -1.80981 -1.40637 0
M  V30 3445 C 324.189 -0.680816 -1.45676 0
M  V30 3446 O 325.379 -0.949095 -1.46075 0
M  V30 3447 C 322.511 -1.95063 -2.79577 0
M  V30 3448 H 323.704 -2.75803 -1.17783 0
M  V30 3449 H 321.257 -1.45173 -0.579181 0
M  V30 3450 H 321.992 -1.02379 -3.07716 0
M  V30 3451 H 321.777 -2.77198 -2.77315 0
M  V30 3452 H 323.267 -2.17629 -3.56409 0
M  V30 3453 N 323.704 0.605807 -1.45491 0
M  V30 3454 C 324.95 1.36679 -1.49823 0
M  V30 3455 C 325.283 1.93693 -0.140175 0
M  V30 3456 O 324.558 1.75158 0.845581 0
M  V30 3457 C 324.841 2.51337 -2.57879 0
M  V30 3458 C 324.694 1.99508 -4.03134 0
M  V30 3459 C 326.013 3.53463 -2.62205 0
M  V30 3460 H 323.132 0.495617 -0.545466 0
M  V30 3461 H 325.774 0.682732 -1.7731 0
M  V30 3462 H 323.924 3.09691 -2.34571 0
M  V30 3463 H 325.596 1.45789 -4.37656 0
M  V30 3464 H 323.839 1.30496 -4.13707 0
M  V30 3465 H 324.51 2.82169 -4.74431 0
M  V30 3466 H 326.986 3.04953 -2.83095 0
M  V30 3467 H 325.862 4.31178 -3.39672 0
M  V30 3468 H 326.123 4.09197 -1.67363 0
M  V30 3469 N 325.182 1.32811 0.848464 0
M  V30 3470 C 326.112 1.24882 1.97299 0
M  V30 3471 C 327.093 0.131357 1.69592 0
M  V30 3472 O 328.278 0.319553 1.91553 0
M  V30 3473 C 325.408 0.97746 3.33261 0
M  V30 3474 C 324.362 2.05682 3.75338 0
M  V30 3475 C 323.688 1.63777 5.09 0
M  V30 3476 C 324.988 3.47254 3.90144 0
M  V30 3477 H 326.682 2.18966 2.04191 0
M  V30 3478 H 324.228 1.05413 0.981029 0
M  V30 3479 H 326.181 0.908513 4.1149 0
M  V30 3480 H 324.905 0.000980011 3.266 0
M  V30 3481 H 323.564 2.11603 2.99366 0
M  V30 3482 H 323.212 0.648569 4.98801 0
M  V30 3483 H 322.912 2.36 5.38124 0
M  V30 3484 H 324.436 1.5833 5.89715 0
M  V30 3485 H 325.85 3.43888 4.58709 0
M  V30 3486 H 324.247 4.1788 4.30693 0
M  V30 3487 H 325.317 3.86462 2.92874 0
M  V30 3488 N 326.66 -1.06551 1.16123 0
M  V30 3489 C 327.888 -1.83005 0.965237 0
M  V30 3490 C 328.303 -1.82423 -0.486542 0
M  V30 3491 O 327.66 -1.24152 -1.33763 0
M  V30 3492 C 327.711 -3.29733 1.48183 0
M  V30 3493 O 327.432 -3.30416 2.87674 0
M  V30 3494 C 328.933 -4.22926 1.32848 0
M  V30 3495 H 326.153 -0.577118 0.342309 0
M  V30 3496 H 328.697 -1.3445 1.54089 0
M  V30 3497 H 326.852 -3.75609 0.948517 0
M  V30 3498 H 327.266 -4.22149 3.11272 0
M  V30 3499 H 328.74 -5.23916 1.73827 0
M  V30 3500 H 329.217 -4.38346 0.273692 0
M  V30 3501 H 329.823 -3.82894 1.85127 0
M  V30 3502 N 328.138 -0.959301 -1.25041 0
M  V30 3503 C 329.363 -0.633507 -1.97488 0
M  V30 3504 C 329.788 0.788555 -1.70773 0
M  V30 3505 O 329.146 1.53394 -0.966431 0
M  V30 3506 C 329.194 -0.904057 -3.49083 0
M  V30 3507 O 328.298 0.0147939 -4.12397 0
M  V30 3508 H 327.639 -0.240368 -0.618966 0
M  V30 3509 H 330.169 -1.28717 -1.59038 0
M  V30 3510 H 330.179 -0.832203 -3.99423 0
M  V30 3511 H 328.854 -1.94048 -3.67856 0
M  V30 3512 H 327.431 -0.109664 -3.72739 0
M  V30 3513 N 329.616 1.39756 -0.72842 0
M  V30 3514 C 330.893 1.94574 -0.200079 0
M  V30 3515 C 331.273 1.66569 1.29684 0
M  V30 3516 O 330.621 0.990326 2.05924 0
M  V30 3517 C 330.831 3.45004 -0.526608 0
M  V30 3518 C 332.179 4.21965 -0.472318 0
M  V30 3519 O 333.203 3.53173 -0.463413 0
M  V30 3520 O 332.062 5.44552 -0.461075 0
M  V30 3521 H 329.156 0.826289 -0.0342851 0
M  V30 3522 H 331.702 1.49293 -0.806829 0
M  V30 3523 H 330.474 3.58796 -1.56144 0
M  V30 3524 H 330.097 3.97449 0.109449 0
M  V30 3525 N 331.094 0.475555 1.50254 0
M  V30 3526 C 332.51 0.12997 1.5907 0
M  V30 3527 C 332.71 -1.36385 1.48328 0
M  V30 3528 O 331.766 -2.13754 1.34407 0
M  V30 3529 C 333.079 0.684139 2.92814 0
M  V30 3530 C 334.627 0.647965 3.0622 0
M  V30 3531 C 335.102 1.17975 4.42545 0
M  V30 3532 N 336.593 1.13936 4.48969 0
M  V30 3533 C 337.328 1.52129 5.52851 0
M  V30 3534 N 336.824 1.97793 6.63965 0
M  V30 3535 N 338.617 1.43704 5.4342 0
M  V30 3536 H 330.768 1.44706 1.55479 0
M  V30 3537 H 333.031 0.598691 0.735033 0
M  V30 3538 H 332.737 1.73079 3.06164 0
M  V30 3539 H 332.611 0.130204 3.76975 0
M  V30 3540 H 334.998 -0.38979 2.92514 0
M  V30 3541 H 335.079 1.23876 2.23805 0
M  V30 3542 H 334.723 2.21616 4.57 0
M  V30 3543 H 334.653 0.565138 5.23559 0
M  V30 3544 H 337.144 0.804488 3.69238 0
M  V30 3545 H 337.457 2.25072 7.39299 0
M  V30 3546 H 335.802 2.01749 6.65073 0
M  V30 3547 H 338.993 1.07867 4.55502 0
M  V30 3548 H 339.166 1.73794 6.24259 0
M  V30 3549 N 332.573 -1.56217 0.208337 0
M  V30 3550 C 333.798 -2.02782 -0.435222 0
M  V30 3551 C 334.223 -1.08738 -1.53485 0
M  V30 3552 O 333.581 -0.0731855 -1.81152 0
M  V30 3553 C 333.629 -3.47687 -0.956335 0
M  V30 3554 O 332.733 -3.56773 -2.06849 0
M  V30 3555 H 332.074 -0.656403 -0.100158 0
M  V30 3556 H 334.604 -2.02033 0.3231 0
M  V30 3557 H 334.614 -3.87745 -1.26955 0
M  V30 3558 H 333.289 -4.15624 -0.15143 0
M  V30 3559 H 331.866 -3.28597 -1.76292 0
M  V30 3560 N 334.051 0.0651679 -1.57465 0
M  V30 3561 C 335.467 0.420105 -1.53972 0
M  V30 3562 C 335.667 1.78782 -0.929474 0
M  V30 3563 O 334.723 2.46771 -0.534839 0
M  V30 3564 C 336.036 0.355084 -2.98596 0
M  V30 3565 C 337.584 0.434792 -3.09965 0
M  V30 3566 C 338.059 0.399609 -4.56253 0
M  V30 3567 N 339.55 0.459488 -4.60915 0
M  V30 3568 C 340.285 0.454584 -5.71595 0
M  V30 3569 N 339.781 0.404102 -6.9162 0
M  V30 3570 N 341.574 0.501635 -5.59857 0
M  V30 3571 H 333.725 -0.830328 -1.95498 0
M  V30 3572 H 335.988 -0.312244 -0.895102 0
M  V30 3573 H 335.694 -0.583357 -3.46828 0
M  V30 3574 H 335.568 1.16275 -3.58831 0
M  V30 3575 H 337.955 1.36366 -2.61703 0
M  V30 3576 H 338.036 -0.40157 -2.52628 0
M  V30 3577 H 337.68 -0.525436 -5.05175 0
M  V30 3578 H 337.61 1.25359 -5.11461 0
M  V30 3579 H 340.101 0.502482 -3.74544 0
M  V30 3580 H 340.414 0.404468 -7.71741 0
M  V30 3581 H 338.759 0.37069 -6.94011 0
M  V30 3582 H 341.95 0.538812 -4.64989 0
M  V30 3583 H 342.123 0.494345 -6.46112 0
M  V30 3584 N 335.529 1.53961 0.336706 0
M  V30 3585 C 336.778 1.70751 1.07363 0
M  V30 3586 C 337.091 0.481061 1.89592 0
M  V30 3587 O 338.297 0.530046 2.66276 0
M  V30 3588 C 336.753 3.01965 1.95818 0
M  V30 3589 C 336.361 4.31971 1.18764 0
M  V30 3590 C 338.105 3.28121 2.69327 0
M  V30 3591 C 336.012 5.54255 2.06289 0
M  V30 3592 H 334.942 0.636292 0.404535 0
M  V30 3593 H 337.593 1.80459 0.332681 0
M  V30 3594 H 335.975 2.86132 2.7376 0
M  V30 3595 H 337.149 4.5853 0.456849 0
M  V30 3596 H 335.464 4.12481 0.569946 0
M  V30 3597 H 338.061 4.16673 3.35094 0
M  V30 3598 H 338.404 2.45426 3.36261 0
M  V30 3599 H 338.937 3.44762 1.98454 0
M  V30 3600 H 335.676 6.39513 1.43885 0
M  V30 3601 H 335.196 5.31935 2.77138 0
M  V30 3602 H 336.875 5.90159 2.65182 0
M  V30 3603 N 337.007 -0.598083 1.45811 0
M  V30 3604 C 337.917 -1.73632 1.57763 0
M  V30 3605 C 338.933 -1.67763 0.461676 0
M  V30 3606 O 340.109 -1.87949 0.723685 0
M  V30 3607 C 337.174 -3.10114 1.55018 0
M  V30 3608 C 336.235 -3.27364 2.77726 0
M  V30 3609 C 335.468 -4.57334 2.75102 0
M  V30 3610 O 335.691 -5.40258 1.8297 0
M  V30 3611 O 334.625 -4.77502 3.66437 0
M  V30 3612 H 338.451 -1.66498 2.53992 0
M  V30 3613 H 336.036 -0.763308 1.28429 0
M  V30 3614 H 337.918 -3.9141 1.56129 0
M  V30 3615 H 336.593 -3.17718 0.619431 0
M  V30 3616 H 335.5 -2.45619 2.82174 0
M  V30 3617 H 336.833 -3.24641 3.69958 0
M  V30 3618 N 338.485 -1.33259 -0.841409 0
M  V30 3619 C 339.732 -1.24572 -1.5965 0
M  V30 3620 C 340.06 0.189137 -1.93578 0
M  V30 3621 O 339.315 1.14566 -1.5866 0
M  V30 3622 C 339.614 -2.06381 -2.9179 0
M  V30 3623 C 339.28 -3.556 -2.77235 0
M  V30 3624 C 337.942 -3.96282 -2.72973 0
M  V30 3625 C 340.294 -4.50433 -2.62221 0
M  V30 3626 C 337.622 -5.30017 -2.51592 0
M  V30 3627 C 339.974 -5.84327 -2.42374 0
M  V30 3628 C 338.638 -6.24194 -2.36512 0
M  V30 3629 H 337.908 -0.455842 -0.5842 0
M  V30 3630 H 340.555 -1.6482 -0.975016 0
M  V30 3631 H 338.86 -1.58903 -3.5813 0
M  V30 3632 H 340.557 -1.97019 -3.49263 0
M  V30 3633 H 337.147 -3.23298 -2.81384 0
M  V30 3634 H 341.331 -4.19914 -2.64549 0
M  V30 3635 H 336.587 -5.59947 -2.45499 0
M  V30 3636 H 340.761 -6.57414 -2.29739 0
M  V30 3637 H 338.388 -7.27759 -2.19706 0
M  V30 3638 N 339.963 1.05934 -1.16686 0
M  V30 3639 C 340.895 2.13468 -0.834503 0
M  V30 3640 C 341.908 1.62013 0.15984 0
M  V30 3641 O 343.097 1.7838 -0.0654228 0
M  V30 3642 C 340.197 3.3817 -0.222361 0
M  V30 3643 C 339.37 4.18928 -1.25771 0
M  V30 3644 C 338.429 5.21985 -0.664703 0
M  V30 3645 O 337.455 5.53334 -1.33453 0
M  V30 3646 N 338.657 5.77919 0.546834 0
M  V30 3647 H 341.422 2.42578 -1.75999 0
M  V30 3648 H 338.983 1.21967 -1.06469 0
M  V30 3649 H 340.975 4.04266 0.187472 0
M  V30 3650 H 339.545 3.06655 0.606758 0
M  V30 3651 H 338.765 3.48433 -1.84358 0
M  V30 3652 H 340.053 4.69687 -1.95631 0
M  V30 3653 H 339.451 5.54721 1.10912 0
M  V30 3654 H 338.008 6.45573 0.898829 0
M  V30 3655 N 341.441 0.965919 1.2453 0
M  V30 3656 C 342.69 0.622437 1.91856 0
M  V30 3657 C 343.003 -0.846006 1.76358 0
M  V30 3658 O 344.209 -1.29993 2.38357 0
M  V30 3659 C 342.665 1.0626 3.43856 0
M  V30 3660 C 342.273 2.55437 3.68043 0
M  V30 3661 C 344.017 0.792183 4.17043 0
M  V30 3662 C 341.924 2.93196 5.13605 0
M  V30 3663 H 340.854 0.229092 0.718354 0
M  V30 3664 H 343.505 1.17189 1.41206 0
M  V30 3665 H 341.887 0.441476 3.93531 0
M  V30 3666 H 343.061 3.22665 3.28974 0
M  V30 3667 H 341.376 2.8007 3.08139 0
M  V30 3668 H 343.973 1.05031 5.24283 0
M  V30 3669 H 344.316 -0.271584 4.15413 0
M  V30 3670 H 344.849 1.37419 3.73311 0
M  V30 3671 H 341.588 3.98636 5.20355 0
M  V30 3672 H 341.108 2.30651 5.53679 0
M  V30 3673 H 342.787 2.83004 5.81823 0
M  V30 3674 N 342.919 -1.39368 0.735821 0
M  V30 3675 C 344.335 -1.54204 0.411492 0
M  V30 3676 C 344.535 -1.70268 -1.07755 0
M  V30 3677 O 343.591 -1.70364 -1.86366 0
M  V30 3678 C 344.904 -2.75925 1.19523 0
M  V30 3679 C 346.452 -2.89761 1.18354 0
M  V30 3680 C 346.927 -4.14421 1.94986 0
M  V30 3681 N 348.418 -4.21462 1.92156 0
M  V30 3682 C 349.153 -5.16871 2.48258 0
M  V30 3683 N 348.649 -6.18063 3.13001 0
M  V30 3684 N 350.442 -5.09093 2.38287 0
M  V30 3685 H 342.593 -1.27189 1.70108 0
M  V30 3686 H 344.856 -0.616517 0.720147 0
M  V30 3687 H 344.562 -2.70401 2.24892 0
M  V30 3688 H 344.436 -3.68614 0.800222 0
M  V30 3689 H 346.823 -2.94777 0.137975 0
M  V30 3690 H 346.904 -1.98133 1.61793 0
M  V30 3691 H 346.548 -4.10166 2.99543 0
M  V30 3692 H 346.478 -5.05095 1.48953 0
M  V30 3693 H 348.969 -3.48979 1.44991 0
M  V30 3694 H 349.282 -6.87326 3.53275 0
M  V30 3695 H 347.627 -6.18448 3.17091 0
M  V30 3696 H 350.818 -4.28973 1.8735 0
M  V30 3697 H 350.991 -5.83272 2.82308 0
M  V30 3698 N 344.397 -0.483516 -1.5 0
M  V30 3699 C 345.646 0.0689102 -2.01582 0
M  V30 3700 C 345.959 1.39655 -1.36952 0
M  V30 3701 O 347.165 2.03465 -1.79762 0
M  V30 3702 C 345.621 0.173302 -3.59483 0
M  V30 3703 C 345.229 -1.14665 -4.33077 0
M  V30 3704 C 346.973 0.677024 -4.19066 0
M  V30 3705 C 344.88 -1.00537 -5.82792 0
M  V30 3706 H 343.81 0.0295277 -0.753422 0
M  V30 3707 H 346.461 -0.620295 -1.72698 0
M  V30 3708 H 344.843 0.926569 -3.85007 0
M  V30 3709 H 346.017 -1.91184 -4.19268 0
M  V30 3710 H 344.332 -1.58244 -3.85159 0
M  V30 3711 H 346.929 0.799952 -5.28682 0
M  V30 3712 H 347.272 1.67151 -3.81269 0
M  V30 3713 H 347.805 -0.0192083 -3.97795 0
M  V30 3714 H 344.544 -1.9736 -6.25083 0
M  V30 3715 H 344.064 -0.280776 -5.99142 0
M  V30 3716 H 345.743 -0.677 -6.43448 0
M  V30 3717 N 345.875 1.56104 -0.216619 0
M  V30 3718 C 347.291 1.58995 0.13886 0
M  V30 3719 C 347.491 1.23333 1.59346 0
M  V30 3720 O 346.547 0.966234 2.33281 0
M  V30 3721 C 347.86 3.00143 -0.182968 0
M  V30 3722 C 349.408 3.12751 -0.124807 0
M  V30 3723 C 349.883 4.56068 -0.420241 0
M  V30 3724 N 351.374 4.61723 -0.369634 0
M  V30 3725 C 352.109 5.70542 -0.571789 0
M  V30 3726 N 351.605 6.87744 -0.835453 0
M  V30 3727 N 353.398 5.59831 -0.504563 0
M  V30 3728 H 345.549 1.77562 -1.16557 0
M  V30 3729 H 347.812 0.825091 -0.466828 0
M  V30 3730 H 347.518 3.30871 -1.19237 0
M  V30 3731 H 347.392 3.73813 0.504367 0
M  V30 3732 H 349.779 2.81822 0.875223 0
M  V30 3733 H 349.86 2.41421 -0.845544 0
M  V30 3734 H 349.504 4.87713 -1.41769 0
M  V30 3735 H 349.434 5.25617 0.321631 0
M  V30 3736 H 351.925 3.77502 -0.173338 0
M  V30 3737 H 352.238 7.66587 -0.977938 0
M  V30 3738 H 350.583 6.895 -0.872592 0
M  V30 3739 H 353.774 4.67145 -0.298842 0
M  V30 3740 H 353.947 6.44573 -0.665519 0
M  V30 3741 N 347.353 -0.0568162 1.57498 0
M  V30 3742 C 348.769 -0.411933 1.54192 0
M  V30 3743 C 348.969 -1.78287 0.938942 0
M  V30 3744 O 348.025 -2.46483 0.547919 0
M  V30 3745 C 349.338 -0.339244 2.9878 0
M  V30 3746 C 350.886 -0.418348 3.10192 0
M  V30 3747 C 351.361 -0.375407 4.56459 0
M  V30 3748 N 352.852 -0.435038 4.61153 0
M  V30 3749 C 353.587 -0.424265 5.71828 0
M  V30 3750 N 353.083 -0.367418 6.91825 0
M  V30 3751 N 354.876 -0.471938 5.60115 0
M  V30 3752 H 347.027 0.840684 1.95055 0
M  V30 3753 H 349.29 0.316987 0.893433 0
M  V30 3754 H 348.996 0.601742 3.46514 0
M  V30 3755 H 348.87 -1.14371 3.59443 0
M  V30 3756 H 351.257 -1.34976 2.62422 0
M  V30 3757 H 351.338 0.414962 2.52412 0
M  V30 3758 H 350.982 0.552219 5.04889 0
M  V30 3759 H 350.912 -1.22645 5.12119 0
M  V30 3760 H 353.403 -0.482612 3.74806 0
M  V30 3761 H 353.716 -0.363535 7.71944 0
M  V30 3762 H 352.061 -0.333879 6.94198 0
M  V30 3763 H 355.252 -0.514145 4.65268 0
M  V30 3764 H 355.425 -0.460073 6.46365 0
M  V30 3765 N 348.832 -1.54138 -0.328536 0
M  V30 3766 C 349.779 -1.83176 -1.40411 0
M  V30 3767 C 350.749 -0.678494 -1.5161 0
M  V30 3768 O 351.934 -0.92443 -1.6691 0
M  V30 3769 C 349.074 -2.06035 -2.76846 0
M  V30 3770 C 348.187 -3.33727 -2.74318 0
M  V30 3771 C 347.322 -3.46574 -4.02567 0
M  V30 3772 C 346.361 -4.68159 -3.94327 0
M  V30 3773 N 345.498 -4.77959 -5.14296 0
M  V30 3774 H 350.338 -2.74938 -1.14948 0
M  V30 3775 H 347.875 -1.36166 -0.556538 0
M  V30 3776 H 349.833 -2.1728 -3.56153 0
M  V30 3777 H 348.463 -1.1757 -3.00628 0
M  V30 3778 H 347.515 -3.31246 -1.8703 0
M  V30 3779 H 348.827 -4.23139 -2.64111 0
M  V30 3780 H 347.981 -3.57333 -4.90304 0
M  V30 3781 H 346.72 -2.55245 -4.15574 0
M  V30 3782 H 345.725 -4.57461 -3.04974 0
M  V30 3783 H 346.95 -5.60868 -3.82889 0
M  V30 3784 H 344.896 -3.89544 -5.27818 0
M  V30 3785 H 344.813 -5.6133 -5.06404 0
M  V30 3786 H 346.081 -4.93044 -6.03761 0
M  V30 3787 N 350.31 0.590341 -1.46126 0
M  V30 3788 C 351.538 1.37504 -1.54597 0
M  V30 3789 C 351.953 1.87897 -0.184447 0
M  V30 3790 O 351.31 1.63192 0.816984 0
M  V30 3791 C 351.361 2.56779 -2.54454 0
M  V30 3792 O 351.082 2.08476 -3.85317 0
M  V30 3793 C 352.583 3.49427 -2.72792 0
M  V30 3794 H 349.803 0.420325 -0.523037 0
M  V30 3795 H 352.347 0.718383 -1.91467 0
M  V30 3796 H 350.502 3.1845 -2.20609 0
M  V30 3797 H 350.916 2.86097 -4.396 0
M  V30 3798 H 352.39 4.29619 -3.466 0
M  V30 3799 H 352.867 4.00876 -1.79429 0
M  V30 3800 H 353.473 2.93598 -3.07702 0
M  V30 3801 N 351.788 1.33704 0.83433 0
M  V30 3802 C 352.718 1.26967 1.95963 0
M  V30 3803 C 353.699 0.149337 1.69443 0
M  V30 3804 O 354.884 0.339852 1.91203 0
M  V30 3805 C 352.014 1.01275 3.32206 0
M  V30 3806 C 350.968 2.09652 3.73136 0
M  V30 3807 C 350.294 1.69166 5.07235 0
M  V30 3808 C 351.594 3.51372 3.86439 0
M  V30 3809 H 353.288 2.2112 2.01857 0
M  V30 3810 H 350.834 1.06447 0.969793 0
M  V30 3811 H 352.787 0.952106 4.10503 0
M  V30 3812 H 351.511 0.0356203 3.26581 0
M  V30 3813 H 350.17 2.14766 2.97104 0
M  V30 3814 H 349.818 0.701437 4.98085 0
M  V30 3815 H 349.518 2.41694 5.35591 0
M  V30 3816 H 351.042 1.64576 5.88003 0
M  V30 3817 H 352.456 3.48734 4.55036 0
M  V30 3818 H 350.853 4.22425 4.26236 0
M  V30 3819 H 351.923 3.89546 2.88759 0
M  V30 3820 N 353.266 -1.05314 1.17247 0
M  V30 3821 C 354.513 -1.78293 0.960091 0
M  V30 3822 C 354.841 -1.87658 -0.51136 0
M  V30 3823 O 354.096 -1.3718 -1.39571 0
M  V30 3824 C 354.395 -3.2229 1.54479 0
M  V30 3825 C 354.061 -3.32987 3.04024 0
M  V30 3826 C 352.723 -3.35613 3.44844 0
M  V30 3827 C 355.075 -3.34102 4.00031 0
M  V30 3828 C 352.403 -3.36982 4.8027 0
M  V30 3829 C 354.755 -3.3701 5.35357 0
M  V30 3830 C 353.419 -3.37923 5.75642 0
M  V30 3831 H 352.689 -0.652422 0.351322 0
M  V30 3832 H 355.336 -1.23782 1.46117 0
M  V30 3833 H 353.641 -3.7972 0.965391 0
M  V30 3834 H 355.338 -3.77376 1.35603 0
M  V30 3835 H 351.928 -3.31655 2.71483 0
M  V30 3836 H 356.112 -3.31276 3.69554 0
M  V30 3837 H 351.368 -3.35999 5.10798 0
M  V30 3838 H 355.542 -3.36822 6.09528 0
M  V30 3839 H 353.169 -3.38738 6.80559 0
M  V30 3840 N 354.744 -0.972509 -1.24016 0
M  V30 3841 C 355.974 -0.653853 -1.9598 0
M  V30 3842 C 356.382 0.781801 -1.72292 0
M  V30 3843 O 355.725 1.53677 -1.00644 0
M  V30 3844 C 355.787 -0.854608 -3.49194 0
M  V30 3845 C 355.451 -2.27082 -3.96589 0
M  V30 3846 C 356.448 -3.24892 -4.05883 0
M  V30 3847 C 354.133 -2.5998 -4.29786 0
M  V30 3848 C 356.127 -4.53684 -4.47716 0
M  V30 3849 C 353.814 -3.88997 -4.71301 0
M  V30 3850 C 354.812 -4.85661 -4.80232 0
M  V30 3851 O 354.5 -6.12376 -5.20818 0
M  V30 3852 H 354.232 -0.242572 -0.630979 0
M  V30 3853 H 356.786 -1.30431 -1.58673 0
M  V30 3854 H 355.016 -0.146985 -3.86421 0
M  V30 3855 H 356.705 -0.534311 -4.02368 0
M  V30 3856 H 357.471 -3.00805 -3.80449 0
M  V30 3857 H 353.35 -1.85457 -4.22051 0
M  V30 3858 H 356.894 -5.29135 -4.54601 0
M  V30 3859 H 352.791 -4.12882 -4.96184 0
M  V30 3860 H 353.559 -6.16013 -5.38953 0
M  V30 3861 N 356.222 1.38976 -0.743202 0
M  V30 3862 C 357.45 2.04636 -0.30525 0
M  V30 3863 C 357.865 1.56044 1.06281 0
M  V30 3864 O 357.222 0.728921 1.67311 0
M  V30 3865 C 357.273 3.60193 -0.307177 0
M  V30 3866 O 356.994 4.06998 -1.62124 0
M  V30 3867 C 358.495 4.4306 0.145928 0
M  V30 3868 H 355.715 0.65788 -0.132041 0
M  V30 3869 H 358.259 1.77866 -1.00915 0
M  V30 3870 H 356.414 3.85835 0.347898 0
M  V30 3871 H 356.828 5.01371 -1.54036 0
M  V30 3872 H 358.302 5.51921 0.0934183 0
M  V30 3873 H 358.779 4.22706 1.19231 0
M  V30 3874 H 359.385 4.22584 -0.479886 0
M  V30 3875 N 357.7 0.491464 1.49741 0
M  V30 3876 C 358.946 -0.0565092 2.02721 0
M  V30 3877 C 359.279 -1.37522 1.37118 0
M  V30 3878 O 358.554 -1.87866 0.503645 0
M  V30 3879 C 358.837 -0.219051 3.59433 0
M  V30 3880 C 358.69 1.12211 4.35579 0
M  V30 3881 C 360.009 -0.964157 4.29409 0
M  V30 3882 H 357.128 -0.0190627 0.736753 0
M  V30 3883 H 359.77 0.641021 1.7886 0
M  V30 3884 H 357.92 -0.813165 3.79895 0
M  V30 3885 H 359.592 1.75437 4.26637 0
M  V30 3886 H 357.835 1.71377 3.98513 0
M  V30 3887 H 358.506 0.961794 5.43556 0
M  V30 3888 H 360.982 -0.460378 4.13545 0
M  V30 3889 H 359.858 -1.04671 5.38828 0
M  V30 3890 H 360.119 -2.00563 3.93988 0
M  V30 3891 N 359.178 -1.55987 0.224894 0
M  V30 3892 C 360.424 -1.98684 -0.406502 0
M  V30 3893 C 360.757 -1.11248 -1.59177 0
M  V30 3894 O 360.032 -0.170909 -1.93748 0
M  V30 3895 C 360.315 -3.50218 -0.837808 0
M  V30 3896 C 360.168 -4.48426 0.351332 0
M  V30 3897 C 361.487 -4.06243 -1.69278 0
M  V30 3898 H 358.606 -0.722337 -0.146283 0
M  V30 3899 H 361.248 -1.87255 0.321799 0
M  V30 3900 H 359.398 -3.60089 -1.45837 0
M  V30 3901 H 361.07 -4.50562 0.989526 0
M  V30 3902 H 359.313 -4.22159 0.998207 0
M  V30 3903 H 359.984 -5.52 0.00655905 0
M  V30 3904 H 362.46 -3.99337 -1.16914 0
M  V30 3905 H 361.336 -5.12581 -1.96346 0
M  V30 3906 H 361.597 -3.53332 -2.65723 0
M  V30 3907 N 360.656 0.0484629 -1.57525 0
M  V30 3908 C 361.586 1.0549 -2.08313 0
M  V30 3909 C 362.567 1.38929 -0.981463 0
M  V30 3910 O 363.752 1.48151 -1.25558 0
M  V30 3911 C 360.882 2.36162 -2.54646 0
M  V30 3912 C 359.836 2.17016 -3.68901 0
M  V30 3913 C 359.162 3.53278 -4.01371 0
M  V30 3914 C 360.462 1.57219 -4.98076 0
M  V30 3915 H 362.156 0.632195 -2.92649 0
M  V30 3916 H 359.702 0.302654 -1.40784 0
M  V30 3917 H 361.655 3.06882 -2.88793 0
M  V30 3918 H 360.379 2.80456 -1.67368 0
M  V30 3919 H 359.038 1.48733 -3.35073 0
M  V30 3920 H 358.686 3.95185 -3.11188 0
M  V30 3921 H 358.386 3.41299 -4.78318 0
M  V30 3922 H 359.91 4.25391 -4.38035 0
M  V30 3923 H 361.324 2.17832 -5.30304 0
M  V30 3924 H 359.721 1.55871 -5.79503 0
M  V30 3925 H 360.791 0.535956 -4.81929 0
M  V30 3926 N 362.134 1.5431 0.320358 0
M  V30 3927 C 363.383 1.7188 1.05546 0
M  V30 3928 C 363.696 0.501143 1.89071 0
M  V30 3929 O 364.902 0.558258 2.65699 0
M  V30 3930 C 363.358 3.04025 1.92605 0
M  V30 3931 C 362.966 4.33207 1.14176 0
M  V30 3932 C 364.71 3.30959 2.65832 0
M  V30 3933 C 362.617 5.56412 2.00399 0
M  V30 3934 H 361.547 0.640547 0.397763 0
M  V30 3935 H 364.198 1.80802 0.313522 0
M  V30 3936 H 362.58 2.89019 2.7071 0
M  V30 3937 H 363.754 4.58989 0.40819 0
M  V30 3938 H 362.069 4.13062 0.526165 0
M  V30 3939 H 364.666 4.20203 3.30656 0
M  V30 3940 H 365.009 2.48979 3.33639 0
M  V30 3941 H 365.542 3.46847 1.94787 0
M  V30 3942 H 362.281 6.41004 1.37094 0
M  V30 3943 H 361.801 5.34844 2.7148 0
M  V30 3944 H 363.48 5.92938 2.58908 0
M  V30 3945 N 363.613 -0.582584 1.46437 0
M  V30 3946 C 364.543 -1.70187 1.59871 0
M  V30 3947 C 365.524 -1.64066 0.449042 0
M  V30 3948 O 366.709 -1.82081 0.6753 0
M  V30 3949 C 363.839 -3.08827 1.58881 0
M  V30 3950 C 362.793 -3.29779 2.72819 0
M  V30 3951 C 362.119 -4.68947 2.5689 0
M  V30 3952 C 363.419 -3.17601 4.1464 0
M  V30 3953 H 365.113 -1.592 2.53566 0
M  V30 3954 H 362.659 -0.764472 1.22032 0
M  V30 3955 H 364.612 -3.86951 1.66873 0
M  V30 3956 H 363.336 -3.20713 0.617306 0
M  V30 3957 H 361.995 -2.54054 2.64296 0
M  V30 3958 H 361.643 -4.77599 1.57823 0
M  V30 3959 H 361.343 -4.83919 3.33312 0
M  V30 3960 H 362.867 -5.4924 2.66773 0
M  V30 3961 H 364.281 -3.8557 4.24274 0
M  V30 3962 H 362.678 -3.44094 4.9165 0
M  V30 3963 H 363.748 -2.14681 4.34788 0
M  V30 3964 N 365.091 -1.34144 -0.827227 0
M  V30 3965 C 366.502 -1.23557 -1.39966 0
M  V30 3966 C 366.853 0.140731 -1.95695 0
M  V30 3967 O 365.978 1.04087 -1.89723 0
M  V30 3968 C 366.573 -2.23708 -2.54441 0
M  V30 3969 C 365.132 -2.16924 -3.07605 0
M  V30 3970 C 364.279 -2.10549 -1.80456 0
M  V30 3971 H 367.23 -1.45573 -0.631991 0
M  V30 3972 H 367.251 -1.85157 -3.32411 0
M  V30 3973 H 366.763 -3.23866 -2.13851 0
M  V30 3974 H 364.864 -1.20107 -3.52711 0
M  V30 3975 H 364.977 -3.07988 -3.66988 0
M  V30 3976 H 363.341 -1.56203 -2.01178 0
M  V30 3977 H 364.124 -3.12535 -1.42046 0
M  V30 3978 N 366.569 1.04691 -1.17803 0
M  V30 3979 C 367.797 1.81446 -0.99423 0
M  V30 3980 C 368.212 1.83174 0.457459 0
M  V30 3981 O 367.569 1.26265 1.31771 0
M  V30 3982 C 367.62 3.27334 -1.5341 0
M  V30 3983 O 367.341 3.25798 -2.92895 0
M  V30 3984 C 368.842 4.20759 -1.39559 0
M  V30 3985 H 366.062 0.571599 -0.351447 0
M  V30 3986 H 368.606 1.31982 -1.56208 0
M  V30 3987 H 366.761 3.74052 -1.00815 0
M  V30 3988 H 367.175 4.17144 -3.17949 0
M  V30 3989 H 368.649 5.21084 -1.82141 0
M  V30 3990 H 369.126 4.37856 -0.343394 0
M  V30 3991 H 369.732 3.79901 -1.91195 0
M  V30 3992 N 368.047 0.979072 1.23499 0
M  V30 3993 C 369.293 0.648178 1.92163 0
M  V30 3994 C 369.626 -0.816049 1.76222 0
M  V30 3995 O 368.901 -1.58849 1.12237 0
M  V30 3996 C 369.184 1.03773 3.44824 0
M  V30 3997 C 369.037 2.55948 3.69879 0
M  V30 3998 C 370.356 0.580653 4.36253 0
M  V30 3999 H 367.475 0.236952 0.69787 0
M  V30 4000 H 370.117 1.22012 1.45647 0
M  V30 4001 H 368.267 0.551058 3.84572 0
M  V30 4002 H 369.939 3.12179 3.3962 0
M  V30 4003 H 368.182 2.98641 3.14636 0
M  V30 4004 H 368.853 2.78255 4.76737 0
M  V30 4005 H 371.329 0.998465 4.03943 0
M  V30 4006 H 370.205 0.881663 5.41773 0
M  V30 4007 H 370.466 -0.519052 4.39042 0
M  V30 4008 N 369.525 -1.3858 0.750561 0
M  V30 4009 C 370.455 -2.33102 0.136237 0
M  V30 4010 C 371.436 -1.54713 -0.706965 0
M  V30 4011 O 372.621 -1.83043 -0.648769 0
M  V30 4012 C 369.751 -3.38882 -0.760017 0
M  V30 4013 C 368.705 -4.27995 -0.0197785 0
M  V30 4014 C 368.031 -5.24605 -1.03408 0
M  V30 4015 C 369.331 -5.09554 1.14684 0
M  V30 4016 H 371.025 -2.84726 0.925822 0
M  V30 4017 H 368.571 -1.36898 0.446654 0
M  V30 4018 H 370.524 -4.0397 -1.19943 0
M  V30 4019 H 369.248 -2.85734 -1.58189 0
M  V30 4020 H 367.907 -3.64409 0.400184 0
M  V30 4021 H 367.555 -4.67746 -1.84994 0
M  V30 4022 H 367.255 -5.85081 -0.543464 0
M  V30 4023 H 368.779 -5.9257 -1.47288 0
M  V30 4024 H 370.193 -5.67899 0.785118 0
M  V30 4025 H 368.59 -5.7925 1.56812 0
M  V30 4026 H 369.66 -4.4347 1.96118 0
M  V30 4027 N 371.003 -0.499398 -1.49478 0
M  V30 4028 C 371.936 0.326491 -2.25852 0
M  V30 4029 C 372.914 0.971776 -1.30366 0
M  V30 4030 O 374.098 1.00219 -1.59651 0
M  V30 4031 C 371.225 1.45969 -3.05632 0
M  V30 4032 C 370.271 0.928938 -4.16261 0
M  V30 4033 S 371.104 -0.179012 -5.35201 0
M  V30 4034 C 372.26 0.957389 -6.18534 0
M  V30 4035 H 372.493 -0.321746 -2.95554 0
M  V30 4036 H 370.026 -0.284674 -1.51753 0
M  V30 4037 H 371.984 2.109 -3.52181 0
M  V30 4038 H 370.645 2.07953 -2.35402 0
M  V30 4039 H 369.838 1.77813 -4.71592 0
M  V30 4040 H 369.44 0.356869 -3.72293 0
M  V30 4041 H 371.732 1.86296 -6.51383 0
M  V30 4042 H 372.675 0.442733 -7.06715 0
M  V30 4043 H 373.083 1.224 -5.5107 0
M  V30 4044 N 372.481 1.55866 -0.233164 0
M  V30 4045 C 373.444 2.1953 0.658715 0
M  V30 4046 C 374.444 1.16053 1.11303 0
M  V30 4047 O 375.634 1.41218 1.01996 0
M  V30 4048 C 372.766 2.82791 1.90373 0
M  V30 4049 H 373.959 2.99721 0.10347 0
M  V30 4050 H 371.512 1.56291 0.0164245 0
M  V30 4051 H 372.247 2.06501 2.50056 0
M  V30 4052 H 372.032 3.58578 1.58632 0
M  V30 4053 H 373.522 3.31556 2.53891 0
M  V30 4054 N 373.959 -0.0401083 1.57549 0
M  V30 4055 C 375.206 -0.733125 1.88763 0
M  V30 4056 C 375.534 -1.75946 0.829058 0
M  V30 4057 O 374.789 -1.94949 -0.171323 0
M  V30 4058 C 375.088 -1.44902 3.26708 0
M  V30 4059 C 374.754 -0.559707 4.47413 0
M  V30 4060 C 373.416 -0.314731 4.8017 0
M  V30 4061 C 375.768 0.0549743 5.21171 0
M  V30 4062 C 373.096 0.553886 5.8408 0
M  V30 4063 C 375.448 0.911229 6.26003 0
M  V30 4064 C 374.112 1.16577 6.57241 0
M  V30 4065 H 373.382 -0.268269 0.690733 0
M  V30 4066 H 376.029 0.00679408 1.91499 0
M  V30 4067 H 374.334 -2.26197 3.1991 0
M  V30 4068 H 376.031 -1.99058 3.48105 0
M  V30 4069 H 372.621 -0.760793 4.21794 0
M  V30 4070 H 376.805 -0.121344 4.96152 0
M  V30 4071 H 372.061 0.759518 6.06664 0
M  V30 4072 H 376.235 1.3941 6.82303 0
M  V30 4073 H 373.862 1.84058 7.37582 0
M  V30 4074 N 375.437 -1.54477 -0.31217 0
M  V30 4075 C 376.367 -1.87652 -1.38957 0
M  V30 4076 C 377.348 -0.734358 -1.53431 0
M  V30 4077 O 378.533 -0.98911 -1.67123 0
M  V30 4078 C 375.663 -2.11396 -2.75552 0
M  V30 4079 C 374.617 -3.27243 -2.75855 0
M  V30 4080 C 373.943 -3.36382 -4.15633 0
M  V30 4081 C 375.243 -4.64622 -2.38587 0
M  V30 4082 H 376.937 -2.77887 -1.11442 0
M  V30 4083 H 374.483 -1.33707 -0.534655 0
M  V30 4084 H 376.436 -2.33189 -3.51 0
M  V30 4085 H 375.16 -1.17921 -3.04569 0
M  V30 4086 H 373.819 -3.05356 -2.02863 0
M  V30 4087 H 373.467 -2.40445 -4.41809 0
M  V30 4088 H 373.167 -4.14249 -4.1674 0
M  V30 4089 H 374.691 -3.60422 -4.92877 0
M  V30 4090 H 376.105 -4.86219 -3.03749 0
M  V30 4091 H 374.502 -5.45121 -2.50925 0
M  V30 4092 H 375.572 -4.66097 -1.33723 0
M  V30 4093 N 376.915 0.57481 -1.46744 0
M  V30 4094 C 377.863 1.70435 -1.58286 0
M  V30 4095 C 378.857 1.63287 -0.450956 0
M  V30 4096 O 380.063 1.68685 -0.628121 0
M  V30 4097 H 376.438 0.56364 -0.497809 0
M  V30 4098 H 378.409 1.57833 -2.53242 0
M  V30 4099 C 377.158 3.08815 -1.59776 0
M  V30 4100 H 376.481 3.1499 -2.46214 0
M  V30 4101 H 377.921 3.87588 -1.71905 0
M  V30 4102 C 376.38 3.35301 -0.327812 0
M  V30 4103 O 376.91 3.97511 0.57861 0
M  V30 4104 N 375.116 2.89816 -0.213274 0
M  V30 4105 H 374.663 2.39371 -0.951798 0
M  V30 4106 H 374.621 3.0791 0.63553 0
M  V30 4107 N 378.394 1.34581 0.820102 0
M  V30 4108 C 379.64 1.27285 1.57881 0
M  V30 4109 C 379.973 -0.156137 1.93571 0
M  V30 4110 O 379.248 -1.10222 1.60254 0
M  V30 4111 C 379.531 2.16639 2.87645 0
M  V30 4112 C 379.384 3.68088 2.58517 0
M  V30 4113 C 380.703 2.05378 3.8924 0
M  V30 4114 H 377.822 0.463714 0.572833 0
M  V30 4115 H 380.464 1.64859 0.944539 0
M  V30 4116 H 378.614 1.84725 3.41773 0
M  V30 4117 H 380.286 4.10382 2.10676 0
M  V30 4118 H 378.529 3.89038 1.91917 0
M  V30 4119 H 379.2 4.2598 3.51063 0
M  V30 4120 H 381.676 2.33404 3.44473 0
M  V30 4121 H 380.552 2.7012 4.77835 0
M  V30 4122 H 380.813 1.0316 4.29896 0
M  V30 4123 N 379.872 -1.04064 1.18357 0
M  V30 4124 C 381.1 -1.80916 1.00384 0
M  V30 4125 C 381.515 -1.83414 -0.447738 0
M  V30 4126 O 380.872 -1.26962 -1.31099 0
M  V30 4127 C 380.923 -3.26516 1.55144 0
M  V30 4128 O 380.644 -3.2424 2.94618 0
M  V30 4129 C 382.145 -4.20013 1.41789 0
M  V30 4130 H 379.365 -0.569728 0.354474 0
M  V30 4131 H 381.909 -1.31151 1.56906 0
M  V30 4132 H 380.064 -3.73512 1.02798 0
M  V30 4133 H 380.478 -4.15452 3.20156 0
M  V30 4134 H 381.952 -5.20111 1.84901 0
M  V30 4135 H 382.429 -4.37667 0.36661 0
M  V30 4136 H 383.035 -3.78881 1.93207 0
M  V30 4137 N 381.35 -0.985608 -1.22978 0
M  V30 4138 C 382.596 -0.65836 -1.91816 0
M  V30 4139 C 382.929 0.806692 -1.76653 0
M  V30 4140 O 382.204 1.58252 -1.13078 0
M  V30 4141 C 382.487 -1.056 -3.44268 0
M  V30 4142 C 382.34 -2.57906 -3.68516 0
M  V30 4143 C 383.659 -0.603781 -4.35939 0
M  V30 4144 H 380.778 -0.24065 -0.696604 0
M  V30 4145 H 383.42 -1.22783 -1.44998 0
M  V30 4146 H 381.57 -0.571445 -3.84274 0
M  V30 4147 H 383.242 -3.13976 -3.3796 0
M  V30 4148 H 381.485 -3.00305 -3.13048 0
M  V30 4149 H 382.156 -2.80779 -4.75255 0
M  V30 4150 H 384.632 -1.01987 -4.03408 0
M  V30 4151 H 383.508 -0.910383 -5.41298 0
M  V30 4152 H 383.769 0.495761 -4.39312 0
M  V30 4153 N 382.828 1.3818 -0.7579 0
M  V30 4154 C 384.075 2.00019 -0.315985 0
M  V30 4155 C 384.403 1.60163 1.10355 0
M  V30 4156 O 383.658 0.83264 1.77103 0
M  V30 4157 C 383.957 3.55252 -0.391218 0
M  V30 4158 C 383.623 4.14834 -1.76702 0
M  V30 4159 C 382.285 4.30821 -2.14353 0
M  V30 4160 C 384.637 4.47658 -2.66931 0
M  V30 4161 C 381.965 4.76928 -3.41696 0
M  V30 4162 C 384.317 4.95184 -3.93669 0
M  V30 4163 C 382.981 5.09377 -4.31383 0
M  V30 4164 H 382.251 0.731923 -0.115627 0
M  V30 4165 H 384.898 1.65161 -0.969223 0
M  V30 4166 H 383.203 3.90273 0.34558 0
M  V30 4167 H 384.9 4.00988 -0.030805 0
M  V30 4168 H 381.49 4.02808 -1.46435 0
M  V30 4169 H 385.674 4.34904 -2.39106 0
M  V30 4170 H 380.93 4.86103 -3.70829 0
M  V30 4171 H 385.104 5.19551 -4.63724 0
M  V30 4172 H 382.731 5.44865 -5.30119 0
M  V30 4173 N 384.306 0.507319 1.49211 0
M  V30 4174 C 385.536 -0.0315292 2.06576 0
M  V30 4175 C 385.944 -1.30791 1.36713 0
M  V30 4176 O 385.287 -1.78324 0.441181 0
M  V30 4177 C 385.349 -0.349104 3.57801 0
M  V30 4178 C 385.013 0.830475 4.49391 0
M  V30 4179 C 386.01 1.72271 4.90529 0
M  V30 4180 C 383.695 1.03107 4.91604 0
M  V30 4181 C 385.689 2.79964 5.72625 0
M  V30 4182 C 383.376 2.11116 5.73475 0
M  V30 4183 C 384.374 2.99379 6.1389 0
M  V30 4184 O 384.062 4.05523 6.94123 0
M  V30 4185 H 383.794 0.0201002 0.675701 0
M  V30 4186 H 386.348 0.705737 1.92895 0
M  V30 4187 H 384.578 -1.14005 3.69513 0
M  V30 4188 H 386.267 -0.827319 3.97379 0
M  V30 4189 H 387.033 1.57958 4.58557 0
M  V30 4190 H 382.912 0.353417 4.59643 0
M  V30 4191 H 386.456 3.48884 6.04091 0
M  V30 4192 H 382.353 2.25421 6.0486 0
M  V30 4193 H 383.121 4.02953 7.1244 0
M  V30 4194 N 385.784 -1.5574 0.241426 0
M  V30 4195 C 386.714 -2.24133 -0.654722 0
M  V30 4196 C 387.695 -1.21974 -1.1856 0
M  V30 4197 O 388.88 -1.50612 -1.22595 0
M  V30 4198 C 386.01 -2.93659 -1.85423 0
M  V30 4199 C 384.964 -4.0246 -1.45636 0
M  V30 4200 C 384.29 -4.59383 -2.73626 0
M  V30 4201 C 385.59 -5.18468 -0.631506 0
M  V30 4202 H 387.284 -2.99281 -0.0844353 0
M  V30 4203 H 384.83 -1.43947 -0.0391707 0
M  V30 4204 H 386.783 -3.40203 -2.48676 0
M  V30 4205 H 385.507 -2.15991 -2.44981 0
M  V30 4206 H 384.166 -3.56676 -0.847202 0
M  V30 4207 H 383.814 -3.78422 -3.3137 0
M  V30 4208 H 383.514 -5.32826 -2.4773 0
M  V30 4209 H 385.038 -5.08658 -3.37786 0
M  V30 4210 H 386.452 -5.61272 -1.1682 0
M  V30 4211 H 384.849 -5.98266 -0.468831 0
M  V30 4212 H 385.919 -4.8358 0.357506 0
M  V30 4213 N 387.262 0.0317525 -1.57568 0
M  V30 4214 C 388.673 0.578692 -1.77505 0
M  V30 4215 C 389.024 1.75749 -0.872164 0
M  V30 4216 O 388.149 2.16298 -0.0663106 0
M  V30 4217 C 388.744 1.05658 -3.21904 0
M  V30 4218 C 387.303 1.54906 -3.43047 0
M  V30 4219 C 386.45 0.485939 -2.73009 0
M  V30 4220 H 389.401 -0.194475 -1.57504 0
M  V30 4221 H 389.422 1.92404 -3.28269 0
M  V30 4222 H 388.934 0.198422 -3.87592 0
M  V30 4223 H 387.035 2.42915 -2.82529 0
M  V30 4224 H 387.148 1.59841 -4.5165 0
M  V30 4225 H 385.512 0.940354 -2.36705 0
M  V30 4226 H 386.295 -0.362709 -3.41379 0
M  V30 4227 N 388.74 1.54641 0.303973 0
M  V30 4228 C 389.968 1.77768 1.05858 0
M  V30 4229 C 390.383 0.535722 1.8104 0
M  V30 4230 O 389.74 -0.494337 1.75677 0
M  V30 4231 C 389.791 2.9834 2.04146 0
M  V30 4232 O 389.512 4.17736 1.32015 0
M  V30 4233 C 391.013 3.33832 2.91669 0
M  V30 4234 H 388.233 0.592961 0.314067 0
M  V30 4235 H 390.777 2.01583 0.344149 0
M  V30 4236 H 388.932 2.76742 2.71096 0
M  V30 4237 H 389.346 4.85693 1.97998 0
M  V30 4238 H 390.82 4.21448 3.56491 0
M  V30 4239 H 391.297 2.51857 3.59812 0
M  V30 4240 H 391.903 3.57579 2.30254 0
M  V30 4241 N 390.218 -0.567019 1.47046 0
M  V30 4242 C 391.181 -1.65696 1.58359 0
M  V30 4243 C 392.181 -1.54097 0.459441 0
M  V30 4244 O 393.371 -1.58432 0.724225 0
M  V30 4245 C 390.503 -3.05197 1.51879 0
M  V30 4246 H 391.696 -1.57019 2.5551 0
M  V30 4247 H 389.249 -0.786148 1.3509 0
M  V30 4248 H 389.984 -3.19417 0.560673 0
M  V30 4249 H 389.769 -3.15025 2.33455 0
M  V30 4250 H 391.259 -3.84511 1.62913 0
M  V30 4251 N 391.696 -1.35014 -0.812953 0
M  V30 4252 C 392.921 -1.31187 -1.60639 0
M  V30 4253 C 393.346 0.109382 -1.87782 0
M  V30 4254 O 392.704 1.07424 -1.46047 0
M  V30 4255 C 392.752 -2.11809 -2.91838 0
M  V30 4256 O 391.856 -1.49444 -3.8437 0
M  V30 4257 H 391.197 -0.450084 -0.488181 0
M  V30 4258 H 393.727 -1.77963 -1.00947 0
M  V30 4259 H 393.737 -2.23531 -3.41318 0
M  V30 4260 H 392.412 -3.15137 -2.71407 0
M  V30 4261 H 390.989 -1.46524 -3.42907 0
M  V30 4262 N 393.175 1.03435 -1.18907 0
M  V30 4263 C 394.423 1.76394 -0.986382 0
M  V30 4264 C 394.744 1.88883 0.484567 0
M  V30 4265 O 394.014 1.41843 1.3512 0
M  V30 4266 H 392.594 0.65344 -0.361975 0
M  V30 4267 H 395.256 1.248 -1.49703 0
M  V30 4268 H 394.352 2.77424 -1.42978 0
M  V30 4269 N 394.653 0.992116 1.22453 0
M  V30 4270 C 395.563 0.55065 2.28046 0
M  V30 4271 C 396.579 -0.400189 1.69335 0
M  V30 4272 O 397.755 -0.267215 1.99619 0
M  V30 4273 C 394.82 -0.128496 3.46462 0
M  V30 4274 C 393.881 0.865208 4.20491 0
M  V30 4275 C 393.114 0.218377 5.33253 0
M  V30 4276 O 393.337 -0.987894 5.6178 0
M  V30 4277 O 392.271 0.922845 5.94783 0
M  V30 4278 H 396.097 1.4291 2.67975 0
M  V30 4279 H 393.682 0.760326 1.28606 0
M  V30 4280 H 395.564 -0.508947 4.18315 0
M  V30 4281 H 394.239 -0.981526 3.0846 0
M  V30 4282 H 393.146 1.29658 3.50913 0
M  V30 4283 H 394.479 1.68741 4.62371 0
M  V30 4284 N 396.131 -1.37776 0.765217 0
M  V30 4285 C 397.078 -2.30342 0.145274 0
M  V30 4286 C 398.048 -1.5077 -0.696971 0
M  V30 4287 O 399.233 -1.79362 -0.650689 0
M  V30 4288 C 396.373 -3.37227 -0.732939 0
M  V30 4289 C 395.486 -4.31819 0.125199 0
M  V30 4290 C 394.621 -5.25777 -0.757107 0
M  V30 4291 C 393.66 -6.12012 0.103963 0
M  V30 4292 N 392.797 -6.98232 -0.735953 0
M  V30 4293 H 397.637 -2.8278 0.940195 0
M  V30 4294 H 395.174 -1.39211 0.475255 0
M  V30 4295 H 397.132 -3.97818 -1.25686 0
M  V30 4296 H 395.762 -2.86171 -1.49353 0
M  V30 4297 H 394.814 -3.7259 0.766865 0
M  V30 4298 H 396.126 -4.92509 0.789683 0
M  V30 4299 H 395.28 -5.91541 -1.34776 0
M  V30 4300 H 394.019 -4.65481 -1.45529 0
M  V30 4301 H 393.024 -5.45233 0.707197 0
M  V30 4302 H 394.249 -6.74379 0.799381 0
M  V30 4303 H 392.195 -6.40472 -1.41887 0
M  V30 4304 H 392.112 -7.55891 -0.128624 0
M  V30 4305 H 393.38 -7.68393 -1.31121 0
M  V30 4306 N 397.609 -0.515225 -1.4894 0
M  V30 4307 C 398.542 0.302518 -2.26186 0
M  V30 4308 C 399.52 0.957895 -1.31389 0
M  V30 4309 O 400.704 0.985198 -1.60705 0
M  V30 4310 C 397.831 1.42719 -3.07163 0
M  V30 4311 C 396.877 0.884736 -4.17223 0
M  V30 4312 S 397.71 -0.235767 -5.34981 0
M  V30 4313 C 398.866 0.891731 -6.19515 0
M  V30 4314 H 399.099 -0.353076 -2.95196 0
M  V30 4315 H 396.632 -0.300753 -1.51443 0
M  V30 4316 H 398.59 2.07152 -3.54398 0
M  V30 4317 H 397.251 2.05445 -2.37595 0
M  V30 4318 H 396.444 1.72801 -4.73451 0
M  V30 4319 H 396.046 0.317362 -3.72651 0
M  V30 4320 H 398.338 1.79377 -6.53322 0
M  V30 4321 H 399.281 0.367751 -7.07144 0
M  V30 4322 H 399.689 1.16548 -5.52338 0
M  V30 4323 N 399.087 1.5561 -0.249682 0
M  V30 4324 C 400.335 1.98618 0.373548 0
M  V30 4325 C 400.656 1.13919 1.58264 0
M  V30 4326 O 399.926 0.222637 1.94631 0
M  V30 4327 H 398.506 0.733571 0.141006 0
M  V30 4328 H 401.168 1.91748 -0.349117 0
M  V30 4329 H 400.264 3.04584 0.680796 0
M  V30 4330 N 400.565 -0.0233959 1.57583 0
M  V30 4331 C 401.495 -1.02162 2.09965 0
M  V30 4332 C 402.476 -1.3735 1.00344 0
M  V30 4333 O 403.661 -1.46135 1.27899 0
M  V30 4334 C 400.791 -2.32081 2.58371 0
M  V30 4335 C 399.745 -2.1112 3.72307 0
M  V30 4336 C 399.071 -3.46848 4.06941 0
M  V30 4337 C 400.371 -1.49276 5.00514 0
M  V30 4338 H 402.065 -0.585557 2.93618 0
M  V30 4339 H 399.611 -0.280218 1.41247 0
M  V30 4340 H 401.564 -3.02249 2.93639 0
M  V30 4341 H 400.288 -2.77758 1.71808 0
M  V30 4342 H 398.947 -1.43384 3.37397 0
M  V30 4343 H 398.595 -3.90184 3.17436 0
M  V30 4344 H 398.295 -3.33646 4.83688 0
M  V30 4345 H 399.819 -4.18369 4.44747 0
M  V30 4346 H 401.233 -2.09368 5.33702 0
M  V30 4347 H 399.63 -1.46632 5.8191 0
M  V30 4348 H 400.7 -0.459217 4.82721 0
M  V30 4349 N 402.043 -1.548 -0.295768 0
M  V30 4350 C 403.271 -1.78327 -1.04914 0
M  V30 4351 C 403.686 -0.545316 -1.80753 0
M  V30 4352 O 403.043 0.485013 -1.75937 0
M  V30 4353 C 403.094 -2.99418 -2.02561 0
M  V30 4354 O 402.815 -4.18431 -1.29798 0
M  V30 4355 C 404.316 -3.35375 -2.89895 0
M  V30 4356 H 401.536 -0.594618 -0.310918 0
M  V30 4357 H 404.08 -2.01763 -0.333454 0
M  V30 4358 H 402.235 -2.78175 -2.69624 0
M  V30 4359 H 402.649 -4.86736 -1.95419 0
M  V30 4360 H 404.123 -4.23332 -3.54251 0
M  V30 4361 H 404.6 -2.53761 -3.58472 0
M  V30 4362 H 405.206 -3.58796 -2.28355 0
M  V30 4363 N 403.521 0.559213 -1.47345 0
M  V30 4364 C 404.454 1.68201 -1.5422 0
M  V30 4365 C 405.432 1.57742 -0.394497 0
M  V30 4366 O 406.616 1.78628 -0.60201 0
M  V30 4367 C 403.743 3.0643 -1.44285 0
M  V30 4368 C 402.789 3.3534 -2.63532 0
M  V30 4369 S 403.622 3.24816 -4.25741 0
M  V30 4370 C 404.778 4.65542 -4.18355 0
M  V30 4371 H 405.011 1.62114 -2.49211 0
M  V30 4372 H 402.544 0.739871 -1.35519 0
M  V30 4373 H 404.502 3.86164 -1.3924 0
M  V30 4374 H 403.163 3.09984 -0.506816 0
M  V30 4375 H 402.356 4.36107 -2.52639 0
M  V30 4376 H 401.958 2.63221 -2.65689 0
M  V30 4377 H 404.25 5.56449 -3.86485 0
M  V30 4378 H 405.193 4.81493 -5.19202 0
M  V30 4379 H 405.601 4.43495 -3.49246 0
M  V30 4380 N 404.999 1.35443 0.805782 0
M  V30 4381 C 405.947 1.28465 1.93906 0
M  V30 4382 C 406.941 0.17943 1.68447 0
M  V30 4383 O 408.147 0.345459 1.76654 0
M  V30 4384 H 404.522 0.399528 0.637088 0
M  V30 4385 H 406.493 2.24206 1.96912 0
M  V30 4386 C 405.242 1.07432 3.30687 0
M  V30 4387 H 404.565 1.91716 3.50835 0
M  V30 4388 H 406.005 1.06591 4.10383 0
M  V30 4389 C 404.464 -0.22179 3.36169 0
M  V30 4390 O 404.994 -1.21731 3.82811 0
M  V30 4391 N 403.2 -0.260841 2.89427 0
M  V30 4392 H 402.747 0.549884 2.51663 0
M  V30 4393 H 402.705 -1.12777 2.93477 0
M  V30 4394 N 406.477 -1.02803 1.19454 0
M  V30 4395 C 407.723 -1.76478 0.999171 0
M  V30 4396 C 408.056 -1.88456 -0.468828 0
M  V30 4397 O 407.331 -1.40198 -1.34814 0
M  V30 4398 C 407.614 -3.19044 1.66981 0
M  V30 4399 C 407.467 -3.14932 3.21151 0
M  V30 4400 C 408.786 -4.17456 1.39349 0
M  V30 4401 H 405.905 -0.640614 0.364393 0
M  V30 4402 H 408.547 -1.20005 1.47305 0
M  V30 4403 H 406.697 -3.67263 1.2669 0
M  V30 4404 H 408.369 -2.74605 3.70661 0
M  V30 4405 H 406.612 -2.52625 3.52652 0
M  V30 4406 H 407.283 -4.1566 3.63223 0
M  V30 4407 H 409.759 -3.77842 1.74283 0
M  V30 4408 H 408.635 -5.154 1.88823 0
M  V30 4409 H 408.896 -4.40949 0.318813 0
M  V30 4410 N 407.956 -0.998596 -1.21925 0
M  V30 4411 C 408.886 -0.573688 -2.26343 0
M  V30 4412 C 409.867 0.402296 -1.65274 0
M  V30 4413 O 411.052 0.291683 -1.91997 0
M  V30 4414 C 408.182 0.106839 -3.47136 0
M  V30 4415 C 407.136 -0.788269 -4.20678 0
M  V30 4416 C 406.462 0.0254927 -5.34694 0
M  V30 4417 C 407.762 -2.08784 -4.78755 0
M  V30 4418 H 409.456 -1.44651 -2.62138 0
M  V30 4419 H 407.002 -0.696975 -1.26009 0
M  V30 4420 H 408.955 0.415531 -4.19346 0
M  V30 4421 H 407.679 1.01424 -3.10452 0
M  V30 4422 H 406.338 -1.08069 -3.50309 0
M  V30 4423 H 405.986 0.933989 -4.94253 0
M  V30 4424 H 405.686 -0.570437 -5.84825 0
M  V30 4425 H 407.21 0.328147 -6.09718 0
M  V30 4426 H 408.624 -1.84272 -5.42878 0
M  V30 4427 H 407.021 -2.63307 -5.39249 0
M  V30 4428 H 408.091 -2.76284 -3.98491 0
M  V30 4429 N 409.434 1.37368 -0.772513 0
M  V30 4430 C 410.364 2.32856 -0.173304 0
M  V30 4431 C 411.345 1.55818 0.682262 0
M  V30 4432 O 412.53 1.84052 0.619566 0
M  V30 4433 C 409.66 3.40048 0.706007 0
M  V30 4434 C 408.614 4.27973 -0.0483144 0
M  V30 4435 C 407.94 5.26184 0.950491 0
M  V30 4436 C 409.24 5.07665 -1.22776 0
M  V30 4437 H 410.934 2.83217 -0.971002 0
M  V30 4438 H 408.48 1.3617 -0.468377 0
M  V30 4439 H 410.433 4.05827 1.13501 0
M  V30 4440 H 409.157 2.88214 1.53623 0
M  V30 4441 H 407.816 3.63726 -0.458107 0
M  V30 4442 H 407.464 4.7063 1.77529 0
M  V30 4443 H 407.164 5.85872 0.450314 0
M  V30 4444 H 408.688 5.94838 1.37842 0
M  V30 4445 H 410.102 5.66578 -0.875366 0
M  V30 4446 H 408.499 5.76681 -1.66007 0
M  V30 4447 H 409.569 4.40294 -2.03149 0
M  V30 4448 N 410.912 0.523116 1.48665 0
M  V30 4449 C 412.137 -0.0117284 2.07397 0
M  V30 4450 C 412.562 -1.28031 1.37803 0
M  V30 4451 O 411.92 -1.75836 0.441762 0
M  V30 4452 C 411.968 -0.225786 3.59892 0
M  V30 4453 O 411.072 -1.29592 3.91509 0
M  V30 4454 H 410.413 0.0360673 0.66302 0
M  V30 4455 H 412.943 0.729066 1.9117 0
M  V30 4456 H 412.953 -0.450552 4.05505 0
M  V30 4457 H 411.628 0.700944 4.09951 0
M  V30 4458 H 410.205 -1.05436 3.57684 0
M  V30 4459 N 412.39 -1.55475 0.257931 0
M  V30 4460 C 413.639 -1.98383 -0.364275 0
M  V30 4461 C 413.952 -1.14952 -1.58258 0
M  V30 4462 O 415.158 -1.47924 -2.27664 0
M  V30 4463 C 413.614 -3.53037 -0.699479 0
M  V30 4464 C 413.222 -4.45223 0.498046 0
M  V30 4465 C 414.966 -4.04575 -1.28526 0
M  V30 4466 C 412.873 -5.91238 0.138383 0
M  V30 4467 H 411.803 -0.740911 -0.13988 0
M  V30 4468 H 414.454 -1.79936 0.359883 0
M  V30 4469 H 412.836 -3.6722 -1.48207 0
M  V30 4470 H 414.01 -4.42803 1.27522 0
M  V30 4471 H 412.325 -4.04226 0.999503 0
M  V30 4472 H 414.922 -5.11196 -1.56788 0
M  V30 4473 H 415.265 -3.5258 -2.21344 0
M  V30 4474 H 415.798 -3.93762 -0.565337 0
M  V30 4475 H 412.537 -6.47294 1.03398 0
M  V30 4476 H 412.057 -5.96768 -0.602374 0
M  V30 4477 H 413.736 -6.46413 -0.27553 0
M  V30 4478 N 413.868 0.0150385 -1.57593 0
M  V30 4479 C 415.114 0.704043 -1.90187 0
M  V30 4480 C 415.447 1.74249 -0.857366 0
M  V30 4481 O 414.722 1.94092 0.125843 0
M  V30 4482 C 415.005 1.36087 -3.33395 0
M  V30 4483 C 414.858 0.334981 -4.48551 0
M  V30 4484 C 416.177 2.29112 -3.7576 0
M  V30 4485 H 413.296 0.254475 -0.691673 0
M  V30 4486 H 415.938 -0.0331678 -1.89971 0
M  V30 4487 H 414.088 1.98922 -3.3371 0
M  V30 4488 H 415.76 -0.292534 -4.60372 0
M  V30 4489 H 414.003 -0.344325 -4.32431 0
M  V30 4490 H 414.674 0.833316 -5.45674 0
M  V30 4491 H 417.15 1.76308 -3.76902 0
M  V30 4492 H 416.026 2.72043 -4.76743 0
M  V30 4493 H 416.287 3.16385 -3.08793 0
M  V30 4494 N 415.346 1.54954 0.287554 0
M  V30 4495 C 416.592 1.75132 1.02257 0
M  V30 4496 C 416.925 0.542858 1.86458 0
M  V30 4497 O 416.2 -0.459856 1.88986 0
M  V30 4498 C 416.483 3.04812 1.91733 0
M  V30 4499 C 416.336 4.35985 1.10622 0
M  V30 4500 C 417.655 3.30438 2.90687 0
M  V30 4501 H 414.774 0.637194 0.370341 0
M  V30 4502 H 417.416 1.87678 0.296111 0
M  V30 4503 H 415.566 2.94247 2.53675 0
M  V30 4504 H 417.238 4.58487 0.508636 0
M  V30 4505 H 415.481 4.31865 0.409271 0
M  V30 4506 H 416.152 5.23017 1.76513 0
M  V30 4507 H 418.628 3.40701 2.38877 0
M  V30 4508 H 417.504 4.22467 3.50447 0
M  V30 4509 H 417.765 2.49377 3.65053 0
M  V30 4510 N 416.824 -0.551391 1.4764 0
M  V30 4511 C 418.071 -1.3083 1.54563 0
M  V30 4512 C 418.399 -1.93359 0.210361 0
M  V30 4513 O 417.654 -1.78721 -0.797332 0
M  V30 4514 C 417.953 -2.43469 2.61644 0
M  V30 4515 C 417.619 -1.98732 4.04742 0
M  V30 4516 C 416.281 -1.86248 4.43695 0
M  V30 4517 C 418.633 -1.64659 4.94507 0
M  V30 4518 C 415.961 -1.37995 5.70241 0
M  V30 4519 C 418.313 -1.17875 6.21521 0
M  V30 4520 C 416.977 -1.03992 6.5935 0
M  V30 4521 H 416.247 -0.478741 0.565587 0
M  V30 4522 H 418.894 -0.617697 1.81264 0
M  V30 4523 H 417.199 -3.18109 2.28722 0
M  V30 4524 H 418.896 -3.01642 2.64222 0
M  V30 4525 H 415.486 -2.09393 3.73968 0
M  V30 4526 H 419.67 -1.73174 4.65107 0
M  V30 4527 H 414.926 -1.25915 5.98294 0
M  V30 4528 H 419.1 -0.905739 6.90485 0
M  V30 4529 H 416.727 -0.663794 7.57296 0
M  V30 4530 N 418.302 -1.35869 -0.798587 0
M  V30 4531 C 419.232 -1.32118 -1.92528 0
M  V30 4532 C 420.213 -0.194209 -1.68988 0
M  V30 4533 O 421.398 -0.390426 -1.90235 0
M  V30 4534 C 418.528 -1.10047 -3.29404 0
M  V30 4535 C 417.482 -2.19471 -3.67446 0
M  V30 4536 C 416.808 -1.82555 -5.02571 0
M  V30 4537 C 418.108 -3.61495 -3.76987 0
M  V30 4538 H 419.802 -2.26394 -1.95924 0
M  V30 4539 H 417.348 -1.08981 -0.94123 0
M  V30 4540 H 419.301 -1.06061 -4.07835 0
M  V30 4541 H 418.025 -0.122195 -3.26371 0
M  V30 4542 H 416.684 -2.22568 -2.91306 0
M  V30 4543 H 416.332 -0.833249 -4.9605 0
M  V30 4544 H 416.032 -2.5581 -5.28995 0
M  V30 4545 H 417.556 -1.80108 -5.83432 0
M  V30 4546 H 418.97 -3.60676 -4.4563 0
M  V30 4547 H 417.367 -4.33577 -4.14887 0
M  V30 4548 H 418.437 -3.97065 -2.78329 0
M  V30 4549 N 419.78 1.02168 -1.19998 0
M  V30 4550 C 420.71 2.12488 -0.96804 0
M  V30 4551 C 421.691 1.69799 0.101185 0
M  V30 4552 O 422.876 1.94121 -0.0552993 0
M  V30 4553 C 420.006 3.43479 -0.513776 0
M  V30 4554 C 418.96 3.99884 -1.52566 0
M  V30 4555 C 418.286 5.26582 -0.928214 0
M  V30 4556 C 419.586 4.33861 -2.90795 0
M  V30 4557 H 421.28 2.32149 -1.89069 0
M  V30 4558 H 418.826 1.11564 -0.910468 0
M  V30 4559 H 420.779 4.20036 -0.338774 0
M  V30 4560 H 419.503 3.23561 0.444493 0
M  V30 4561 H 418.162 3.25429 -1.68794 0
M  V30 4562 H 417.81 5.02986 0.0378289 0
M  V30 4563 H 417.51 5.65284 -1.60397 0
M  V30 4564 H 419.034 6.05799 -0.764167 0
M  V30 4565 H 420.448 5.01327 -2.78109 0
M  V30 4566 H 418.845 4.83664 -3.55231 0
M  V30 4567 H 419.915 3.42848 -3.42904 0
M  V30 4568 N 421.258 1.00505 1.21394 0
M  V30 4569 C 422.188 0.585684 2.26035 0
M  V30 4570 C 423.169 -0.393525 1.65485 0
M  V30 4571 O 424.354 -0.281497 1.92149 0
M  V30 4572 C 421.484 -0.0884283 3.47187 0
M  V30 4573 C 420.438 0.810567 4.20254 0
M  V30 4574 C 419.764 0.00286382 5.347 0
M  V30 4575 C 421.064 2.1132 4.77641 0
M  V30 4576 H 422.758 1.46039 2.61368 0
M  V30 4577 H 420.304 0.703648 1.25638 0
M  V30 4578 H 422.257 -0.393286 4.19561 0
M  V30 4579 H 420.981 -0.997766 3.10986 0
M  V30 4580 H 419.64 1.09925 3.49731 0
M  V30 4581 H 419.288 -0.907765 4.94741 0
M  V30 4582 H 418.988 0.601444 5.84514 0
M  V30 4583 H 420.512 -0.295808 6.09883 0
M  V30 4584 H 421.926 1.87148 5.41893 0
M  V30 4585 H 420.323 2.66164 5.37845 0
M  V30 4586 H 421.393 2.78393 3.9702 0
M  V30 4587 N 422.737 -1.36956 0.779787 0
M  V30 4588 C 423.983 -1.99787 0.348281 0
M  V30 4589 C 424.316 -1.61756 -1.07465 0
M  V30 4590 O 423.591 -0.867639 -1.74075 0
M  V30 4591 C 423.874 -3.56597 0.50104 0
M  V30 4592 C 423.727 -4.04513 1.96697 0
M  V30 4593 C 425.046 -4.40008 -0.0898097 0
M  V30 4594 H 422.165 -0.725796 0.128022 0
M  V30 4595 H 424.807 -1.62514 0.984331 0
M  V30 4596 H 422.957 -3.88479 -0.0404347 0
M  V30 4597 H 424.629 -3.83161 2.56876 0
M  V30 4598 H 422.872 -3.56408 2.47297 0
M  V30 4599 H 423.543 -5.1352 2.02486 0
M  V30 4600 H 426.019 -4.14431 0.372293 0
M  V30 4601 H 424.895 -5.4888 0.0471605 0
M  V30 4602 H 425.156 -4.26035 -1.18096 0
M  V30 4603 N 424.215 -0.530993 -1.48385 0
M  V30 4604 C 425.44 0.000729535 -2.074 0
M  V30 4605 C 425.865 1.27298 -1.3848 0
M  V30 4606 O 425.223 1.75599 -0.451081 0
M  V30 4607 C 425.271 0.206697 -3.60007 0
M  V30 4608 O 424.375 1.27514 -3.92191 0
M  V30 4609 H 423.716 -0.039583 -0.662819 0
M  V30 4610 H 426.246 -0.739194 -1.9078 0
M  V30 4611 H 426.256 0.42904 -4.05738 0
M  V30 4612 H 424.931 -0.722675 -4.09573 0
M  V30 4613 H 423.508 1.03537 -3.58238 0
M  V30 4614 N 425.693 1.55336 -0.266172 0
M  V30 4615 C 426.64 2.22172 0.625165 0
M  V30 4616 C 427.61 1.19211 1.15663 0
M  V30 4617 O 428.795 1.47723 1.20758 0
M  V30 4618 C 425.935 2.93972 1.8076 0
M  V30 4619 C 425.048 4.11632 1.31084 0
M  V30 4620 C 424.183 4.71099 2.45436 0
M  V30 4621 C 423.222 5.8097 1.92718 0
M  V30 4622 N 422.359 6.34538 3.00509 0
M  V30 4623 H 427.199 2.9796 0.0485582 0
M  V30 4624 H 424.736 1.47095 0.0122024 0
M  V30 4625 H 426.694 3.33811 2.50251 0
M  V30 4626 H 425.324 2.20623 2.35638 0
M  V30 4627 H 424.376 3.76975 0.509326 0
M  V30 4628 H 425.688 4.90893 0.884633 0
M  V30 4629 H 424.842 5.13612 3.22936 0
M  V30 4630 H 423.581 3.91096 2.91368 0
M  V30 4631 H 422.586 5.37916 1.13695 0
M  V30 4632 H 423.811 6.62836 1.47733 0
M  V30 4633 H 421.757 5.57433 3.45839 0
M  V30 4634 H 421.674 7.09046 2.62279 0
M  V30 4635 H 422.942 6.81709 3.78011 0
M  V30 4636 N 427.171 -0.0066808 1.57599 0
M  V30 4637 C 428.42 -0.692078 1.89455 0
M  V30 4638 C 428.733 -1.75306 0.867586 0
M  V30 4639 O 429.939 -2.49262 1.07614 0
M  V30 4640 C 428.395 -1.2821 3.36289 0
M  V30 4641 C 428.003 -0.256291 4.47266 0
M  V30 4642 C 429.747 -1.94608 3.77264 0
M  V30 4643 C 427.654 -0.855927 5.85173 0
M  V30 4644 H 426.584 -0.262252 0.706923 0
M  V30 4645 H 429.235 0.052769 1.83424 0
M  V30 4646 H 427.617 -2.0774 3.37135 0
M  V30 4647 H 428.791 0.513923 4.57925 0
M  V30 4648 H 427.106 0.306862 4.15268 0
M  V30 4649 H 429.703 -2.40364 4.77629 0
M  V30 4650 H 430.046 -2.77382 3.10427 0
M  V30 4651 H 430.579 -1.21822 3.78688 0
M  V30 4652 H 427.318 -0.0671161 6.55466 0
M  V30 4653 H 426.838 -1.59546 5.78191 0
M  V30 4654 H 428.517 -1.35658 6.32618 0
M  V30 4655 N 428.649 -1.55105 -0.279332 0
M  V30 4656 C 429.579 -1.90557 -1.34945 0
M  V30 4657 C 430.56 -0.766738 -1.51839 0
M  V30 4658 O 431.745 -1.02434 -1.64988 0
M  V30 4659 C 428.875 -2.17193 -2.71006 0
M  V30 4660 C 427.829 -3.33021 -2.68851 0
M  V30 4661 C 427.155 -3.45123 -4.08405 0
M  V30 4662 C 428.455 -4.69578 -2.28678 0
M  V30 4663 H 430.149 -2.80188 -1.05522 0
M  V30 4664 H 427.695 -1.34811 -0.506173 0
M  V30 4665 H 429.648 -2.40581 -3.45975 0
M  V30 4666 H 428.372 -1.24355 -3.01999 0
M  V30 4667 H 427.031 -3.0959 -1.9634 0
M  V30 4668 H 426.679 -2.49762 -4.3661 0
M  V30 4669 H 426.379 -4.22995 -4.07859 0
M  V30 4670 H 427.903 -3.70796 -4.85121 0
M  V30 4671 H 429.317 -4.92553 -2.93368 0
M  V30 4672 H 427.714 -5.5032 -2.39306 0
M  V30 4673 H 428.784 -4.68828 -1.23807 0
M  V30 4674 N 430.127 0.543554 -1.4793 0
M  V30 4675 C 431.538 1.12561 -1.48953 0
M  V30 4676 C 431.889 1.94578 -0.251754 0
M  V30 4677 O 431.014 2.0665 0.642255 0
M  V30 4678 C 431.609 2.04801 -2.69892 0
M  V30 4679 C 430.168 2.58251 -2.73831 0
M  V30 4680 C 429.315 1.34918 -2.42265 0
M  V30 4681 H 432.266 0.32947 -1.55242 0
M  V30 4682 H 432.287 2.88886 -2.47639 0
M  V30 4683 H 431.799 1.4508 -3.59963 0
M  V30 4684 H 429.9 3.21732 -1.87934 0
M  V30 4685 H 430.013 2.98312 -3.74895 0
M  V30 4686 H 428.377 1.66046 -1.93134 0
M  V30 4687 H 429.16 0.769693 -3.3456 0
M  V30 4688 N 431.605 1.3629 0.791371 0
M  V30 4689 C 433.016 1.27225 1.36641 0
M  V30 4690 C 433.367 -0.0887968 1.95999 0
M  V30 4691 O 432.492 -0.990207 1.92416 0
M  V30 4692 C 433.087 2.30375 2.48421 0
M  V30 4693 C 431.646 2.25004 3.01746 0
M  V30 4694 C 430.793 2.15259 1.7481 0
M  V30 4695 H 433.744 1.47198 0.593173 0
M  V30 4696 H 433.765 1.93905 3.27385 0
M  V30 4697 H 433.277 3.29422 2.05189 0
M  V30 4698 H 431.378 1.29417 3.49403 0
M  V30 4699 H 431.491 3.1761 3.58693 0
M  V30 4700 H 429.855 1.61482 1.96966 0
M  V30 4701 H 430.638 3.16191 1.33709 0
M  V30 4702 N 433.083 -1.0153 1.20538 0
M  V30 4703 C 434.311 -1.78746 1.04199 0
M  V30 4704 C 434.726 -1.84323 -0.408733 0
M  V30 4705 O 434.083 -1.29714 -1.28377 0
M  V30 4706 C 434.134 -3.23152 1.62035 0
M  V30 4707 O 433.855 -3.17918 3.0143 0
M  V30 4708 C 435.356 -4.16911 1.50666 0
M  V30 4709 H 432.576 -0.56208 0.366479 0
M  V30 4710 H 435.12 -1.27794 1.59653 0
M  V30 4711 H 433.275 -3.71248 1.10697 0
M  V30 4712 H 433.689 -4.08567 3.28897 0
M  V30 4713 H 435.163 -5.16072 1.95892 0
M  V30 4714 H 435.64 -4.36791 0.459363 0
M  V30 4715 H 436.246 -3.74698 2.01201 0
M  V30 4716 N 434.561 -1.01147 -1.20859 0
M  V30 4717 C 435.786 -0.716698 -1.94623 0
M  V30 4718 C 436.211 0.715415 -1.73964 0
M  V30 4719 O 435.569 1.49157 -1.03062 0
M  V30 4720 C 435.617 -1.0513 -3.44935 0
M  V30 4721 O 434.721 -0.160131 -4.12089 0
M  V30 4722 H 434.062 -0.266404 -0.608214 0
M  V30 4723 H 436.592 -1.35346 -1.53436 0
M  V30 4724 H 436.602 -1.00086 -3.95533 0
M  V30 4725 H 435.277 -2.09475 -3.59295 0
M  V30 4726 H 433.854 -0.267657 -3.71938 0
M  V30 4727 N 436.039 1.36541 -0.78704 0
M  V30 4728 C 437.264 2.0409 -0.369053 0
M  V30 4729 C 437.689 1.58957 1.00569 0
M  V30 4730 O 437.047 0.756926 1.64743 0
M  V30 4731 C 437.095 3.57924 -0.438466 0
M  V30 4732 O 436.199 4.08642 0.555479 0
M  V30 4733 H 435.54 0.645142 -0.157122 0
M  V30 4734 H 438.07 1.74545 -1.06749 0
M  V30 4735 H 438.08 4.06887 -0.301218 0
M  V30 4736 H 436.755 3.90127 -1.44132 0
M  V30 4737 H 435.332 3.70958 0.380088 0
M  V30 4738 N 437.518 0.538854 1.48102 0
M  V30 4739 C 438.743 0.0102694 2.07397 0
M  V30 4740 C 439.168 -1.26562 1.39153 0
M  V30 4741 O 438.526 -1.75357 0.460387 0
M  V30 4742 C 438.574 -0.187602 3.60112 0
M  V30 4743 O 437.678 -1.25432 3.92862 0
M  V30 4744 H 437.019 0.0430975 0.6626 0
M  V30 4745 H 439.549 0.749301 1.90385 0
M  V30 4746 H 439.559 -0.407517 4.0596 0
M  V30 4747 H 438.234 0.744386 4.09184 0
M  V30 4748 H 436.811 -1.01636 3.58782 0
M  V30 4749 N 438.996 -1.55193 0.274407 0
M  V30 4750 C 440.245 -1.98758 -0.343213 0
M  V30 4751 C 440.558 -1.16624 -1.5703 0
M  V30 4752 O 441.764 -1.5033 -2.26082 0
M  V30 4753 C 440.22 -3.53759 -0.661996 0
M  V30 4754 C 439.828 -4.4467 0.54524 0
M  V30 4755 C 441.572 -4.05916 -1.24228 0
M  V30 4756 C 439.479 -5.91058 0.201084 0
M  V30 4757 H 438.409 -0.742353 -0.132014 0
M  V30 4758 H 441.06 -1.79545 0.378948 0
M  V30 4759 H 439.442 -3.68772 -1.44304 0
M  V30 4760 H 440.616 -4.41426 1.32212 0
M  V30 4761 H 438.931 -4.03143 1.04232 0
M  V30 4762 H 441.528 -5.12831 -1.51357 0
M  V30 4763 H 441.871 -3.54908 -2.17592 0
M  V30 4764 H 442.404 -3.9434 -0.523542 0
M  V30 4765 H 439.143 -6.46161 1.10258 0
M  V30 4766 H 438.663 -5.97373 -0.539045 0
M  V30 4767 H 440.342 -6.46669 -0.206954 0
M  V30 4768 N 440.474 -0.00167713 -1.576 0
M  V30 4769 C 441.885 0.54091 -1.78693 0
M  V30 4770 C 442.236 1.7386 -0.909247 0
M  V30 4771 O 441.361 2.16109 -0.112176 0
M  V30 4772 C 441.956 0.98806 -3.24072 0
M  V30 4773 C 440.515 1.47594 -3.46256 0
M  V30 4774 C 439.662 0.42792 -2.73978 0
M  V30 4775 H 442.613 -0.22784 -1.57056 0
M  V30 4776 H 442.634 1.85398 -3.32277 0
M  V30 4777 H 442.146 0.116164 -3.87926 0
M  V30 4778 H 440.247 2.36868 -2.87618 0
M  V30 4779 H 440.36 1.50225 -4.54939 0
M  V30 4780 H 438.724 0.889934 -2.38647 0
M  V30 4781 H 439.507 -0.435038 -3.40532 0
M  V30 4782 N 441.952 1.55251 0.271103 0
M  V30 4783 C 442.882 1.9127 1.33933 0
M  V30 4784 C 443.863 0.77478 1.5143 0
M  V30 4785 O 445.048 1.03307 1.64442 0
M  V30 4786 C 442.178 2.18627 2.69851 0
M  V30 4787 C 441.132 3.34442 2.67081 0
M  V30 4788 C 440.458 3.47284 4.06569 0
M  V30 4789 C 441.758 4.70784 2.26185 0
M  V30 4790 H 443.452 2.80744 1.04035 0
M  V30 4791 H 440.998 1.35077 0.499017 0
M  V30 4792 H 442.951 2.42413 3.44694 0
M  V30 4793 H 441.675 1.25955 3.01335 0
M  V30 4794 H 440.334 3.10627 1.94695 0
M  V30 4795 H 439.982 2.52074 4.35279 0
M  V30 4796 H 439.682 4.25152 4.0561 0
M  V30 4797 H 441.206 3.73363 4.83148 0
M  V30 4798 H 442.62 4.94102 2.90751 0
M  V30 4799 H 441.017 5.51582 2.36384 0
M  V30 4800 H 442.087 4.69478 1.21319 0
M  V30 4801 N 443.43 -0.535701 1.48216 0
M  V30 4802 C 444.676 -1.29375 1.56173 0
M  V30 4803 C 445.009 -1.92804 0.232429 0
M  V30 4804 O 444.284 -1.78992 -0.761048 0
M  V30 4805 C 444.567 -2.38747 2.69577 0
M  V30 4806 C 444.42 -1.80046 4.12193 0
M  V30 4807 C 445.739 -3.40551 2.78771 0
M  V30 4808 H 442.858 -0.469027 0.568491 0
M  V30 4809 H 445.5 -0.597358 1.80365 0
M  V30 4810 H 443.65 -2.98147 2.4908 0
M  V30 4811 H 445.322 -1.24742 4.44114 0
M  V30 4812 H 443.565 -1.10609 4.19462 0
M  V30 4813 H 444.236 -2.59212 4.87353 0
M  V30 4814 H 446.712 -2.91099 2.97322 0
M  V30 4815 H 445.588 -4.1448 3.59857 0
M  V30 4816 H 445.849 -4.00746 1.86696 0
M  V30 4817 N 444.908 -1.36708 -0.784132 0
M  V30 4818 C 445.871 -1.31307 -1.87859 0
M  V30 4819 C 446.871 -0.219654 -1.59293 0
M  V30 4820 O 448.061 -0.47476 -1.67606 0
M  V30 4821 C 445.193 -1.03679 -3.24751 0
M  V30 4822 H 446.386 -2.28647 -1.94064 0
M  V30 4823 H 443.939 -1.21558 -0.98252 0
M  V30 4824 H 444.674 -0.0681936 -3.24228 0
M  V30 4825 H 444.459 -1.82811 -3.46876 0
M  V30 4826 H 445.949 -1.02518 -4.04821 0
M  V30 4827 N 446.386 1.0089 -1.21074 0
M  V30 4828 C 447.333 2.09588 -0.966512 0
M  V30 4829 C 448.303 1.65761 0.106089 0
M  V30 4830 O 449.488 1.90758 -0.0402287 0
M  V30 4831 C 446.628 3.40958 -0.533058 0
M  V30 4832 C 445.741 3.9822 -1.67467 0
M  V30 4833 C 444.876 5.17682 -1.19076 0
M  V30 4834 C 443.915 5.67043 -2.30496 0
M  V30 4835 N 443.052 6.77759 -1.83267 0
M  V30 4836 H 447.892 2.29815 -1.89708 0
M  V30 4837 H 445.429 1.12689 -0.945489 0
M  V30 4838 H 447.387 4.1637 -0.263019 0
M  V30 4839 H 446.017 3.20781 0.360505 0
M  V30 4840 H 445.069 3.1983 -2.05944 0
M  V30 4841 H 446.381 4.3085 -2.51336 0
M  V30 4842 H 445.535 6.00326 -0.877151 0
M  V30 4843 H 444.274 4.86635 -0.322066 0
M  V30 4844 H 443.279 4.82999 -2.62664 0
M  V30 4845 H 444.504 6.00121 -3.17855 0
M  V30 4846 H 442.45 6.48527 -0.987356 0
M  V30 4847 H 442.367 7.09624 -2.60711 0
M  V30 4848 H 443.635 7.63949 -1.54928 0
M  V30 4849 N 447.864 1.01787 1.20321 0
M  V30 4850 C 449.094 0.72614 1.93419 0
M  V30 4851 C 449.502 -0.717317 1.75075 0
M  V30 4852 O 448.845 -1.49836 1.06278 0
M  V30 4853 C 448.907 0.983621 3.45782 0
M  V30 4854 C 448.571 2.41645 3.87888 0
M  V30 4855 C 449.568 3.39732 3.93545 0
M  V30 4856 C 447.253 2.75752 4.19841 0
M  V30 4857 C 449.247 4.69988 4.30569 0
M  V30 4858 C 446.934 4.06221 4.56539 0
M  V30 4859 C 447.932 5.0315 4.61876 0
M  V30 4860 O 447.62 6.31284 4.97731 0
M  V30 4861 H 447.352 0.265824 0.621541 0
M  V30 4862 H 449.906 1.3623 1.53722 0
M  V30 4863 H 448.136 0.290301 3.85609 0
M  V30 4864 H 449.825 0.683279 4.00108 0
M  V30 4865 H 450.591 3.14718 3.69022 0
M  V30 4866 H 446.47 2.00993 4.14877 0
M  V30 4867 H 450.014 5.45642 4.3465 0
M  V30 4868 H 445.911 4.31013 4.80518 0
M  V30 4869 H 446.679 6.35591 5.15719 0
M  V30 4870 N 449.342 -1.36122 0.79427 0
M  V30 4871 C 450.272 -2.32551 0.210328 0
M  V30 4872 C 451.253 -1.56884 -0.657386 0
M  V30 4873 O 452.438 -1.85014 -0.590207 0
M  V30 4874 C 449.568 -3.41128 -0.651819 0
M  V30 4875 C 448.522 -4.27842 0.116395 0
M  V30 4876 C 447.848 -5.2763 -0.86666 0
M  V30 4877 C 449.148 -5.05647 1.30837 0
M  V30 4878 H 450.842 -2.81636 1.01594 0
M  V30 4879 H 448.388 -1.35407 0.489981 0
M  V30 4880 H 450.341 -4.07581 -1.07031 0
M  V30 4881 H 449.065 -2.90622 -1.49019 0
M  V30 4882 H 447.724 -3.62952 0.515915 0
M  V30 4883 H 447.372 -4.73395 -1.70019 0
M  V30 4884 H 447.072 -5.86514 -0.35705 0
M  V30 4885 H 448.596 -5.96955 -1.28361 0
M  V30 4886 H 450.01 -5.65113 0.965393 0
M  V30 4887 H 448.407 -5.73967 1.75161 0
M  V30 4888 H 449.477 -4.37006 2.10128 0
M  V30 4889 N 450.82 -0.546701 -1.47814 0
M  V30 4890 C 451.75 0.195317 -2.32682 0
M  V30 4891 C 452.731 0.918981 -1.43139 0
M  V30 4892 O 453.916 0.901501 -1.72008 0
M  V30 4893 C 451.046 1.23237 -3.247 0
M  V30 4894 C 450 0.625818 -4.234 0
M  V30 4895 C 449.326 1.76674 -5.04669 0
M  V30 4896 C 450.626 -0.413515 -5.2066 0
M  V30 4897 H 452.32 -0.513184 -2.94969 0
M  V30 4898 H 449.866 -0.248241 -1.41844 0
M  V30 4899 H 451.819 1.75955 -3.82907 0
M  V30 4900 H 450.543 1.97067 -2.60446 0
M  V30 4901 H 449.202 0.120023 -3.66403 0
M  V30 4902 H 448.85 2.49383 -4.36826 0
M  V30 4903 H 448.55 1.36673 -5.71484 0
M  V30 4904 H 450.074 2.29738 -5.65732 0
M  V30 4905 H 451.488 0.0272042 -5.73294 0
M  V30 4906 H 449.885 -0.731825 -5.95621 0
M  V30 4907 H 450.955 -1.31325 -4.66778 0
M  V30 4908 N 452.299 1.55045 -0.282633 0
M  V30 4909 C 453.229 2.2579 0.595066 0
M  V30 4910 C 454.21 1.25074 1.15284 0
M  V30 4911 O 455.395 1.5381 1.18559 0
M  V30 4912 C 452.525 2.98472 1.77572 0
M  V30 4913 C 451.479 4.0618 1.34914 0
M  V30 4914 C 450.805 4.66477 2.6135 0
M  V30 4915 C 452.105 5.1996 0.493821 0
M  V30 4916 H 453.799 2.994 0.00505653 0
M  V30 4917 H 451.345 1.44 0.000992001 0
M  V30 4918 H 453.298 3.46677 2.39568 0
M  V30 4919 H 452.022 2.2241 2.39168 0
M  V30 4920 H 450.681 3.58797 0.752338 0
M  V30 4921 H 450.329 3.87074 3.2122 0
M  V30 4922 H 450.029 5.39207 2.33516 0
M  V30 4923 H 451.553 5.17435 3.24181 0
M  V30 4924 H 452.967 5.64172 1.01898 0
M  V30 4925 H 451.364 5.99299 0.310047 0
M  V30 4926 H 452.434 4.82462 -0.485593 0
M  V30 4927 N 453.777 0.010035 1.57597 0
M  V30 4928 C 455.005 -0.683413 1.95287 0
M  V30 4929 C 455.42 -1.66747 0.885481 0
M  V30 4930 O 454.777 -1.82003 -0.134629 0
M  V30 4931 C 454.828 -1.40652 3.33015 0
M  V30 4932 O 454.549 -0.461916 4.35658 0
M  V30 4933 C 456.05 -2.19356 3.85225 0
M  V30 4934 H 453.27 -0.189708 0.643624 0
M  V30 4935 H 455.814 0.0641359 2.04399 0
M  V30 4936 H 453.969 -2.10562 3.2518 0
M  V30 4937 H 454.383 -0.973215 5.15392 0
M  V30 4938 H 455.857 -2.65433 4.83993 0
M  V30 4939 H 456.334 -3.02457 3.18459 0
M  V30 4940 H 456.94 -1.54442 3.96267 0
M  V30 4941 N 455.255 -1.55392 -0.262866 0
M  V30 4942 C 456.502 -1.76476 -0.993109 0
M  V30 4943 C 456.83 -0.571479 -1.85915 0
M  V30 4944 O 456.085 0.445733 -1.90556 0
M  V30 4945 C 456.384 -3.02889 -1.89718 0
M  V30 4946 C 456.05 -4.34974 -1.18781 0
M  V30 4947 C 454.712 -4.7087 -0.991699 0
M  V30 4948 C 457.064 -5.16695 -0.683798 0
M  V30 4949 C 454.392 -5.86036 -0.279024 0
M  V30 4950 C 456.744 -6.32598 0.0153327 0
M  V30 4951 C 455.408 -6.67127 0.223062 0
M  V30 4952 H 454.678 -0.64577 -0.363404 0
M  V30 4953 H 457.325 -1.89664 -0.264525 0
M  V30 4954 H 455.63 -2.84644 -2.6923 0
M  V30 4955 H 457.327 -3.16399 -2.46359 0
M  V30 4956 H 453.917 -4.06765 -1.35058 0
M  V30 4957 H 458.101 -4.8943 -0.8229 0
M  V30 4958 H 453.357 -6.11306 -0.107456 0
M  V30 4959 H 457.531 -6.95171 0.413584 0
M  V30 4960 H 455.158 -7.56216 0.777265 0
M  V30 4961 N 456.733 0.527833 -1.48498 0
M  V30 4962 C 457.979 1.28545 -1.56857 0
M  V30 4963 C 458.312 1.92678 -0.242651 0
M  V30 4964 O 457.587 1.79394 0.751545 0
M  V30 4965 C 457.87 2.37314 -2.70839 0
M  V30 4966 C 457.723 1.77858 -4.13142 0
M  V30 4967 C 459.042 3.39068 -2.80573 0
M  V30 4968 H 456.161 0.466006 -0.570971 0
M  V30 4969 H 458.803 0.587784 -1.8068 0
M  V30 4970 H 456.953 2.96821 -2.50658 0
M  V30 4971 H 458.625 1.22385 -4.44769 0
M  V30 4972 H 456.868 1.08383 -4.20042 0
M  V30 4973 H 457.539 2.56624 -4.88721 0
M  V30 4974 H 460.015 2.89518 -2.98862 0
M  V30 4975 H 458.891 4.12566 -3.6205 0
M  V30 4976 H 459.152 3.9975 -1.88818 0
M  V30 4977 N 458.211 1.37122 0.776871 0
M  V30 4978 C 459.141 1.35164 1.90402 0
M  V30 4979 C 460.122 0.221069 1.68657 0
M  V30 4980 O 461.307 0.420642 1.8959 0
M  V30 4981 C 458.437 1.15274 3.27611 0
M  V30 4982 C 457.391 2.25289 3.63908 0
M  V30 4983 C 456.717 1.90527 4.99603 0
M  V30 4984 C 458.017 3.67446 3.71188 0
M  V30 4985 H 459.711 2.29482 1.92297 0
M  V30 4986 H 457.257 1.10465 0.923773 0
M  V30 4987 H 459.21 1.12536 4.06096 0
M  V30 4988 H 457.934 0.174102 3.26136 0
M  V30 4989 H 456.593 2.27174 2.87728 0
M  V30 4990 H 456.241 0.91206 4.94662 0
M  V30 4991 H 455.941 2.64193 5.24858 0
M  V30 4992 H 457.465 1.89367 5.80493 0
M  V30 4993 H 458.879 3.67719 4.39836 0
M  V30 4994 H 457.276 4.40123 4.07936 0
M  V30 4995 H 458.346 4.01443 2.71977 0
M  V30 4996 N 459.689 -1.00246 1.21608 0
M  V30 4997 C 460.637 -2.11193 0.97469 0
M  V30 4998 C 461.631 -1.69216 -0.0789303 0
M  V30 4999 O 462.837 -1.79853 0.0726806 0
M  V30 5000 H 459.212 -0.690455 0.297953 0
M  V30 5001 H 461.183 -2.2873 1.91638 0
M  V30 5002 C 459.932 -3.43182 0.558717 0
M  V30 5003 H 459.255 -3.75918 1.3611 0
M  V30 5004 H 460.695 -4.21823 0.429154 0
M  V30 5005 C 459.154 -3.28882 -0.730648 0
M  V30 5006 O 459.684 -3.59835 -1.78554 0
M  V30 5007 N 457.89 -2.8209 -0.698131 0
M  V30 5008 H 457.437 -2.57099 0.16061 0
M  V30 5009 H 457.395 -2.72903 -1.56113 0
M  V30 5010 N 461.167 -1.02423 -1.1978 0
M  V30 5011 C 462.416 -0.713265 -1.88667 0
M  V30 5012 C 462.729 0.7609 -1.80193 0
M  V30 5013 O 463.935 1.18473 -2.44288 0
M  V30 5014 C 462.391 -1.22545 -3.38394 0
M  V30 5015 C 461.999 -2.72706 -3.55437 0
M  V30 5016 C 463.743 -0.990257 -4.12788 0
M  V30 5017 C 461.65 -3.17367 -4.99031 0
M  V30 5018 H 460.58 -0.263105 -0.706606 0
M  V30 5019 H 463.231 -1.23792 -1.35454 0
M  V30 5020 H 461.613 -0.628732 -3.90977 0
M  V30 5021 H 462.787 -3.37993 -3.13205 0
M  V30 5022 H 461.102 -2.94453 -2.94425 0
M  V30 5023 H 463.699 -1.29926 -5.18675 0
M  V30 5024 H 464.042 0.0730761 -4.16236 0
M  V30 5025 H 464.575 -1.55074 -3.66329 0
M  V30 5026 H 461.314 -4.23009 -5.00743 0
M  V30 5027 H 460.834 -2.56805 -5.42044 0
M  V30 5028 H 462.513 -3.10441 -5.67658 0
M  V30 5029 N 462.645 1.35699 -0.801477 0
M  V30 5030 C 463.894 1.98165 -0.375979 0
M  V30 5031 C 464.207 1.64306 1.06127 0
M  V30 5032 O 465.413 2.20097 1.58964 0
M  V30 5033 C 463.869 3.54497 -0.621305 0
M  V30 5034 C 463.477 3.9727 -2.07076 0
M  V30 5035 C 465.221 4.23697 -0.26091 0
M  V30 5036 C 463.128 5.46427 -2.26211 0
M  V30 5037 H 462.058 0.741478 -0.136844 0
M  V30 5038 H 464.709 1.54834 -0.984814 0
M  V30 5039 H 463.091 3.95958 0.0574112 0
M  V30 5040 H 464.265 3.66974 -2.78687 0
M  V30 5041 H 462.58 3.40943 -2.39054 0
M  V30 5042 H 465.177 5.33334 -0.381994 0
M  V30 5043 H 465.52 4.0869 0.792344 0
M  V30 5044 H 466.053 3.87639 -0.893339 0
M  V30 5045 H 462.792 5.66396 -3.29963 0
M  V30 5046 H 462.312 5.78309 -1.59119 0
M  V30 5047 H 463.991 6.12819 -2.07513 0
M  V30 5048 N 464.123 0.554532 1.47522 0
M  V30 5049 C 465.351 0.034257 2.06872 0
M  V30 5050 C 465.766 -1.25826 1.40759 0
M  V30 5051 O 465.123 -1.75425 0.503217 0
M  V30 5052 C 465.174 -0.167827 3.6111 0
M  V30 5053 O 464.895 1.07351 4.24744 0
M  V30 5054 C 466.396 -0.72569 4.3732 0
M  V30 5055 H 463.616 0.0446275 0.669514 0
M  V30 5056 H 466.16 0.767181 1.89564 0
M  V30 5057 H 464.315 -0.850872 3.7794 0
M  V30 5058 H 464.729 0.869563 5.17242 0
M  V30 5059 H 466.203 -0.816394 5.45929 0
M  V30 5060 H 466.68 -1.73635 4.0342 0
M  V30 5061 H 467.286 -0.0784292 4.25228 0
M  V30 5062 N 465.601 -1.54893 0.290851 0
M  V30 5063 C 466.85 -1.99111 -0.322113 0
M  V30 5064 C 467.163 -1.18283 -1.55784 0
M  V30 5065 O 468.369 -1.5272 -2.24475 0
M  V30 5066 C 466.825 -3.54442 -0.624438 0
M  V30 5067 C 466.433 -4.44066 0.592373 0
M  V30 5068 C 468.177 -4.07211 -1.19916 0
M  V30 5069 C 466.084 -5.90812 0.263762 0
M  V30 5070 H 465.014 -0.743712 -0.124133 0
M  V30 5071 H 467.665 -1.79132 0.39797 0
M  V30 5072 H 466.047 -3.70281 -1.40384 0
M  V30 5073 H 467.221 -4.39999 1.36886 0
M  V30 5074 H 465.536 -4.02015 1.08502 0
M  V30 5075 H 468.133 -5.14407 -1.45909 0
M  V30 5076 H 468.476 -3.57196 -2.13815 0
M  V30 5077 H 469.009 -3.94873 -0.481687 0
M  V30 5078 H 465.748 -6.44955 1.17105 0
M  V30 5079 H 465.268 -5.97911 -0.475655 0
M  V30 5080 H 466.947 -6.46852 -0.138354 0
M  V30 5081 N 467.08 -0.0183926 -1.57589 0
M  V30 5082 C 468.013 1.00148 -2.0505 0
M  V30 5083 C 468.991 1.32387 -0.944058 0
M  V30 5084 O 470.175 1.44237 -1.21358 0
M  V30 5085 C 467.302 2.32435 -2.46357 0
M  V30 5086 C 466.348 2.15731 -3.67916 0
M  V30 5087 S 467.181 1.46613 -5.15039 0
M  V30 5088 C 468.337 2.80293 -5.59631 0
M  V30 5089 H 468.57 0.597429 -2.91235 0
M  V30 5090 H 466.103 0.193002 -1.53189 0
M  V30 5091 H 468.061 3.0849 -2.70822 0
M  V30 5092 H 466.722 2.69975 -1.60537 0
M  V30 5093 H 465.915 3.13502 -3.9463 0
M  V30 5094 H 465.517 1.4782 -3.43548 0
M  V30 5095 H 467.809 3.76557 -5.63215 0
M  V30 5096 H 468.752 2.58256 -6.59325 0
M  V30 5097 H 469.16 2.85047 -4.87246 0
M  V30 5098 N 468.558 1.5553 0.254621 0
M  V30 5099 C 469.804 1.77262 0.985193 0
M  V30 5100 C 470.137 0.582286 1.85265 0
M  V30 5101 O 469.412 -0.419666 1.89919 0
M  V30 5102 C 469.695 3.0881 1.85225 0
M  V30 5103 C 469.548 4.38233 1.0135 0
M  V30 5104 C 470.867 3.3653 2.83612 0
M  V30 5105 H 467.986 0.644906 0.356742 0
M  V30 5106 H 470.628 1.88264 0.256236 0
M  V30 5107 H 468.778 2.99562 2.47376 0
M  V30 5108 H 470.45 4.59463 0.411269 0
M  V30 5109 H 468.693 4.32636 0.317574 0
M  V30 5110 H 469.364 5.26644 1.65379 0
M  V30 5111 H 471.84 3.45691 2.31596 0
M  V30 5112 H 470.716 4.29805 3.41407 0
M  V30 5113 H 470.977 2.57064 3.59681 0
M  V30 5114 N 470.036 -0.519951 1.48776 0
M  V30 5115 C 471.264 -1.29971 1.60982 0
M  V30 5116 C 471.679 -1.86803 0.273885 0
M  V30 5117 O 471.036 -1.66904 -0.738193 0
M  V30 5118 C 471.087 -2.44346 2.66415 0
M  V30 5119 O 470.808 -1.89855 3.94825 0
M  V30 5120 C 472.309 -3.36014 2.89153 0
M  V30 5121 H 469.529 -0.394891 0.542496 0
M  V30 5122 H 472.073 -0.626214 1.94676 0
M  V30 5123 H 470.228 -3.07562 2.35552 0
M  V30 5124 H 470.642 -2.64798 4.5275 0
M  V30 5125 H 472.116 -4.12593 3.66703 0
M  V30 5126 H 472.593 -3.91859 1.98351 0
M  V30 5127 H 473.199 -2.78582 3.21359 0
M  V30 5128 N 471.514 -1.37532 -0.769588 0
M  V30 5129 C 472.742 -1.36059 -1.55871 0
M  V30 5130 C 473.157 0.053544 -1.88724 0
M  V30 5131 O 472.514 1.01591 -1.5161 0
M  V30 5132 C 472.565 -2.20107 -2.86767 0
M  V30 5133 O 472.286 -3.56009 -2.55321 0
M  V30 5134 C 473.787 -2.26636 -3.80987 0
M  V30 5135 H 471.007 -0.465967 -0.482821 0
M  V30 5136 H 473.551 -1.80901 -0.953686 0
M  V30 5137 H 471.706 -1.78768 -3.43687 0
M  V30 5138 H 472.12 -4.0009 -3.39158 0
M  V30 5139 H 473.594 -2.89763 -4.69831 0
M  V30 5140 H 474.071 -1.2754 -4.20274 0
M  V30 5141 H 474.677 -2.68296 -3.29996 0
M  V30 5142 N 472.992 0.995999 -1.22138 0
M  V30 5143 C 474.241 1.72928 -1.03821 0
M  V30 5144 C 474.554 1.90872 0.427444 0
M  V30 5145 O 475.76 2.61496 0.730212 0
M  V30 5146 C 474.216 3.11124 -1.80913 0
M  V30 5147 C 473.824 3.01122 -3.31707 0
M  V30 5148 C 475.568 3.8852 -1.71035 0
M  V30 5149 C 473.475 4.34453 -4.01253 0
M  V30 5150 H 472.405 0.648376 -0.384869 0
M  V30 5151 H 475.056 1.11213 -1.45959 0
M  V30 5152 H 473.438 3.73503 -1.31573 0
M  V30 5153 H 474.612 2.47926 -3.88419 0
M  V30 5154 H 472.927 2.3721 -3.42228 0
M  V30 5155 H 475.524 4.872 -2.20318 0
M  V30 5156 H 475.867 4.1087 -0.670196 0
M  V30 5157 H 476.4 3.32812 -2.17902 0
M  V30 5158 H 473.139 4.17303 -5.05508 0
M  V30 5159 H 472.659 4.87574 -3.49331 0
M  V30 5160 H 474.338 5.03215 -4.06674 0
M  V30 5161 N 474.47 1.03057 1.19235 0
M  V30 5162 C 475.719 0.72326 1.88287 0
M  V30 5163 C 476.032 -0.751333 1.80594 0
M  V30 5164 O 477.238 -1.17176 2.44912 0
M  V30 5165 C 475.694 1.24338 3.3774 0
M  V30 5166 C 475.302 2.74587 3.53986 0
M  V30 5167 C 477.046 1.01213 4.12257 0
M  V30 5168 C 474.953 3.20009 4.97341 0
M  V30 5169 H 473.883 0.266848 0.705201 0
M  V30 5170 H 476.534 1.24509 1.34795 0
M  V30 5171 H 474.916 0.649457 3.90638 0
M  V30 5172 H 476.09 3.39649 3.11408 0
M  V30 5173 H 474.405 2.9601 2.9286 0
M  V30 5174 H 477.002 1.32675 5.17978 0
M  V30 5175 H 477.345 -0.051001 4.16269 0
M  V30 5176 H 477.878 1.57014 3.65501 0
M  V30 5177 H 474.617 4.25659 4.98493 0
M  V30 5178 H 474.137 2.59676 5.40674 0
M  V30 5179 H 475.816 3.13447 5.66003 0
M  V30 5180 N 475.948 -1.35272 0.808662 0
M  V30 5181 C 477.188 -2.00534 0.395668 0
M  V30 5182 C 477.552 -1.62755 -1.01857 0
M  V30 5183 O 478.753 -2.20752 -1.53368 0
M  V30 5184 C 477.024 -3.52732 0.575771 0
M  V30 5185 S 478.583 -4.38067 0.253507 0
M  V30 5186 H 475.401 -0.694962 0.150165 0
M  V30 5187 H 478.003 -1.64823 1.05137 0
M  V30 5188 H 476.707 -3.77714 1.60499 0
M  V30 5189 H 476.238 -3.93285 -0.0951739 0
M  V30 5190 H 478.253 -4.87252 -0.938068 0
M  V30 5191 N 477.426 -0.562348 -1.47226 0
M  V30 5192 C 478.374 0.195476 -2.31777 0
M  V30 5193 C 479.368 0.90433 -1.43242 0
M  V30 5194 O 480.574 0.825031 -1.59979 0
M  V30 5195 H 476.949 0.0819095 -0.747526 0
M  V30 5196 H 478.92 -0.536753 -2.93533 0
M  V30 5197 C 477.669 1.20902 -3.26003 0
M  V30 5198 H 476.992 0.672997 -3.94095 0
M  V30 5199 H 478.432 1.71006 -3.87986 0
M  V30 5200 C 476.891 2.25955 -2.49891 0
M  V30 5201 O 477.421 3.32969 -2.2471 0
M  V30 5202 N 475.627 2.00019 -2.1081 0
M  V30 5203 H 475.174 1.13006 -2.31489 0
M  V30 5204 H 475.132 2.70523 -1.60201 0
M  V30 5205 N 478.904 1.54736 -0.299062 0
M  V30 5206 C 480.153 1.99279 0.311549 0
M  V30 5207 C 480.466 1.19107 1.55154 0
M  V30 5208 O 481.672 1.53908 2.23662 0
M  V30 5209 C 480.128 3.54768 0.605632 0
M  V30 5210 C 479.736 4.43746 -0.615914 0
M  V30 5211 C 481.48 4.07841 1.17754 0
M  V30 5212 C 479.387 5.90663 -0.29509 0
M  V30 5213 H 478.317 0.744359 0.120187 0
M  V30 5214 H 480.968 1.78919 -0.407464 0
M  V30 5215 H 479.35 3.71021 1.38419 0
M  V30 5216 H 480.524 4.39267 -1.39218 0
M  V30 5217 H 478.839 4.01434 -1.10633 0
M  V30 5218 H 481.436 5.15174 1.43179 0
M  V30 5219 H 481.779 3.58324 2.11918 0
M  V30 5220 H 482.312 3.95123 0.460739 0
M  V30 5221 H 479.051 6.44325 -1.20524 0
M  V30 5222 H 478.571 5.98155 0.44394 0
M  V30 5223 H 480.25 6.46916 0.104048 0
M  V30 5224 N 480.382 0.0267497 1.57577 0
M  V30 5225 C 481.612 -0.6617 1.95717 0
M  V30 5226 C 482.02 -1.66331 0.901706 0
M  V30 5227 O 481.363 -1.83273 -0.125241 0
M  V30 5228 C 481.425 -1.42649 3.29987 0
M  V30 5229 C 481.089 -0.583482 4.5326 0
M  V30 5230 C 482.086 0.140221 5.19711 0
M  V30 5231 C 479.771 -0.521581 4.99585 0
M  V30 5232 C 481.765 0.914523 6.30805 0
M  V30 5233 C 479.452 0.256428 6.10562 0
M  V30 5234 C 480.45 0.973189 6.76031 0
M  V30 5235 O 480.138 1.73845 7.84878 0
M  V30 5236 H 479.87 -0.187483 0.649481 0
M  V30 5237 H 482.424 0.0820847 2.05236 0
M  V30 5238 H 480.654 -2.21536 3.16952 0
M  V30 5239 H 482.343 -2.00282 3.53047 0
M  V30 5240 H 483.109 0.101716 4.84893 0
M  V30 5241 H 478.988 -1.06904 4.48433 0
M  V30 5242 H 482.532 1.4745 6.81839 0
M  V30 5243 H 478.429 0.296657 6.44818 0
M  V30 5244 H 479.197 1.65797 8.01532 0
M  V30 5245 N 481.861 -1.55662 -0.24637 0
M  V30 5246 C 483.108 -1.77519 -0.974335 0
M  V30 5247 C 483.436 -0.591165 -1.85298 0
M  V30 5248 O 482.691 0.425497 -1.91018 0
M  V30 5249 C 482.99 -3.04885 -1.86494 0
M  V30 5250 C 482.656 -4.36209 -1.14161 0
M  V30 5251 C 481.318 -4.71896 -0.941701 0
M  V30 5252 C 483.67 -5.17391 -0.628957 0
M  V30 5253 C 480.998 -5.86299 -0.216852 0
M  V30 5254 C 483.35 -6.32546 0.0824273 0
M  V30 5255 C 482.014 -6.66853 0.293807 0
M  V30 5256 H 481.284 -0.649588 -0.356535 0
M  V30 5257 H 483.931 -1.89934 -0.244394 0
M  V30 5258 H 482.236 -2.87484 -2.66196 0
M  V30 5259 H 483.933 -3.18994 -2.42989 0
M  V30 5260 H 480.523 -4.08174 -1.30736 0
M  V30 5261 H 484.707 -4.90276 -0.770943 0
M  V30 5262 H 479.963 -6.11385 -0.0426124 0
M  V30 5263 H 484.137 -6.94693 0.487292 0
M  V30 5264 H 481.764 -7.55349 0.857428 0
M  V30 5265 N 483.339 0.512053 -1.4905 0
M  V30 5266 C 484.755 0.84224 -1.35567 0
M  V30 5267 C 484.955 1.97878 -0.380319 0
M  V30 5268 O 484.011 2.51769 0.19201 0
M  V30 5269 C 485.324 1.19286 -2.76028 0
M  V30 5270 C 486.872 1.30171 -2.84648 0
M  V30 5271 C 487.347 1.68568 -4.25851 0
M  V30 5272 N 488.838 1.75638 -4.28609 0
M  V30 5273 C 489.573 2.06769 -5.34821 0
M  V30 5274 N 489.069 2.36201 -6.51292 0
M  V30 5275 N 490.862 2.07927 -5.22229 0
M  V30 5276 H 483.013 -0.237574 -2.11067 0
M  V30 5277 H 485.276 -0.0436747 -0.946993 0
M  V30 5278 H 484.982 0.431199 -3.49047 0
M  V30 5279 H 484.856 2.13889 -3.10695 0
M  V30 5280 H 487.243 2.05411 -2.11873 0
M  V30 5281 H 487.324 0.336457 -2.53578 0
M  V30 5282 H 486.968 0.938824 -4.99148 0
M  V30 5283 H 486.898 2.66174 -4.54377 0
M  V30 5284 H 489.389 1.55097 -3.44606 0
M  V30 5285 H 489.702 2.59112 -7.28066 0
M  V30 5286 H 488.047 2.33681 -6.54536 0
M  V30 5287 H 491.238 1.84403 -4.30248 0
M  V30 5288 H 491.411 2.31856 -6.05101 0
M  V30 5289 N 484.817 1.37938 0.762283 0
M  V30 5290 C 486.042 1.37059 1.55659 0
M  V30 5291 C 486.467 -0.0396123 1.88058 0
M  V30 5292 O 485.825 -1.01929 1.49934 0
M  V30 5293 C 485.873 2.22494 2.83776 0
M  V30 5294 O 484.977 1.63607 3.78559 0
M  V30 5295 H 484.318 0.467892 0.47114 0
M  V30 5296 H 486.848 1.81587 0.942725 0
M  V30 5297 H 486.858 2.36045 3.32786 0
M  V30 5298 H 485.533 3.24993 2.59524 0
M  V30 5299 H 484.11 1.5915 3.37233 0
M  V30 5300 N 486.295 -0.989507 1.22664 0
M  V30 5301 C 487.706 -1.54406 1.04955 0
M  V30 5302 C 488.057 -1.92366 -0.385951 0
M  V30 5303 O 487.182 -1.75111 -1.27142 0
M  V30 5304 C 487.777 -2.80578 1.89899 0
M  V30 5305 C 486.336 -3.32464 1.76478 0
M  V30 5306 C 485.483 -2.05524 1.86159 0
M  V30 5307 H 488.434 -0.810211 1.3646 0
M  V30 5308 H 488.455 -3.53075 1.4184 0
M  V30 5309 H 487.967 -2.52918 2.94371 0
M  V30 5310 H 486.068 -3.65024 0.747528 0
M  V30 5311 H 486.181 -4.02838 2.59342 0
M  V30 5312 H 484.545 -2.19241 1.29636 0
M  V30 5313 H 485.328 -1.80258 2.92168 0
M  V30 5314 N 487.773 -1.03688 -1.18687 0
M  V30 5315 C 489.022 -0.733235 -1.879 0
M  V30 5316 C 489.335 0.741745 -1.8099 0
M  V30 5317 O 490.541 1.15875 -2.4553 0
M  V30 5318 C 488.997 -1.26127 -3.37076 0
M  V30 5319 C 488.605 -2.76461 -3.52524 0
M  V30 5320 C 490.349 -1.03398 -4.11715 0
M  V30 5321 C 488.256 -3.22642 -4.95637 0
M  V30 5322 H 487.186 -0.270584 -0.703776 0
M  V30 5323 H 489.837 -1.25222 -1.34133 0
M  V30 5324 H 488.219 -0.670165 -3.90288 0
M  V30 5325 H 489.393 -3.41296 -3.09602 0
M  V30 5326 H 487.708 -2.97559 -2.91286 0
M  V30 5327 H 490.305 -1.3542 -5.17267 0
M  V30 5328 H 490.648 0.0289246 -4.1629 0
M  V30 5329 H 491.181 -1.5895 -3.64664 0
M  V30 5330 H 487.92 -4.28296 -4.96228 0
M  V30 5331 H 487.44 -2.62539 -5.39289 0
M  V30 5332 H 489.119 -3.16444 -5.64333 0
M  V30 5333 N 489.251 1.34841 -0.815825 0
M  V30 5334 C 490.479 2.0273 -0.413294 0
M  V30 5335 C 490.894 1.61459 0.978599 0
M  V30 5336 O 490.251 0.816584 1.63212 0
M  V30 5337 C 490.302 3.58058 -0.497676 0
M  V30 5338 O 490.023 3.97832 -1.8347 0
M  V30 5339 C 491.524 4.4321 -0.0891339 0
M  V30 5340 H 488.744 0.649956 -0.166728 0
M  V30 5341 H 491.288 1.72267 -1.10201 0
M  V30 5342 H 489.443 3.87136 0.142886 0
M  V30 5343 H 489.857 4.92501 -1.80396 0
M  V30 5344 H 491.331 5.5164 -0.199274 0
M  V30 5345 H 491.808 4.28432 0.966571 0
M  V30 5346 H 492.414 4.19446 -0.703214 0
M  V30 5347 N 490.729 0.570148 1.46925 0
M  V30 5348 C 491.679 -0.190921 2.27199 0
M  V30 5349 C 492.663 -0.873457 1.35128 0
M  V30 5350 O 493.855 -0.769627 1.59392 0
M  V30 5351 C 490.984 -1.21204 3.21192 0
M  V30 5352 C 490.07 -0.532261 4.20747 0
M  V30 5353 N 490.461 0.405038 5.04176 0
M  V30 5354 C 488.759 -0.784582 4.39045 0
M  V30 5355 C 489.46 0.801149 5.76157 0
M  V30 5356 N 488.436 0.153082 5.43384 0
M  V30 5357 H 492.238 0.529535 2.8909 0
M  V30 5358 H 489.752 0.391019 1.57622 0
M  V30 5359 H 491.749 -1.77135 3.77398 0
M  V30 5360 H 490.409 -1.93345 2.6086 0
M  V30 5361 H 491.42 0.779903 5.11994 0
M  V30 5362 H 488.097 -1.49352 3.89872 0
M  V30 5363 H 489.487 1.57208 6.5325 0
M  V30 5364 N 492.207 -1.54576 0.307264 0
M  V30 5365 C 493.623 -1.59534 -0.0459251 0
M  V30 5366 C 493.823 -1.32414 -1.51884 0
M  V30 5367 O 492.879 -1.1006 -2.27251 0
M  V30 5368 C 494.192 -2.98566 0.357649 0
M  V30 5369 C 495.74 -3.11491 0.306937 0
M  V30 5370 C 496.215 -4.52842 0.685427 0
M  V30 5371 N 497.706 -4.58782 0.638203 0
M  V30 5372 C 498.441 -5.66238 0.903458 0
M  V30 5373 N 497.937 -6.81703 1.23501 0
M  V30 5374 N 499.73 -5.55937 0.830102 0
M  V30 5375 H 491.881 -1.70464 1.26712 0
M  V30 5376 H 494.144 -0.79647 0.514139 0
M  V30 5377 H 493.85 -3.23356 1.38325 0
M  V30 5378 H 493.724 -3.76117 -0.285565 0
M  V30 5379 H 496.111 -2.86446 -0.709424 0
M  V30 5380 H 496.192 -2.36081 0.984861 0
M  V30 5381 H 495.836 -4.78618 1.69963 0
M  V30 5382 H 495.766 -5.26598 -0.0146346 0
M  V30 5383 H 498.257 -3.75849 0.393138 0
M  V30 5384 H 498.57 -7.59582 1.42322 0
M  V30 5385 H 496.915 -6.8324 1.27311 0
M  V30 5386 H 500.106 -4.64608 0.570693 0
M  V30 5387 H 500.279 -6.39597 1.04019 0
M  V30 5388 N 493.685 -0.035106 -1.57561 0
M  V30 5389 C 494.615 0.942993 -2.13612 0
M  V30 5390 C 495.596 1.33531 -1.05373 0
M  V30 5391 O 496.781 1.41287 -1.33235 0
M  V30 5392 C 493.911 2.22332 -2.66807 0
M  V30 5393 C 492.865 1.97156 -3.79886 0
M  V30 5394 C 492.191 3.31506 -4.19533 0
M  V30 5395 C 493.491 1.30596 -5.05709 0
M  V30 5396 H 495.185 0.476179 -2.95589 0
M  V30 5397 H 492.731 0.227602 -1.4219 0
M  V30 5398 H 494.684 2.91142 -3.04654 0
M  V30 5399 H 493.408 2.7119 -1.81999 0
M  V30 5400 H 492.067 1.30763 -3.42486 0
M  V30 5401 H 491.715 3.78134 -3.31698 0
M  V30 5402 H 491.415 3.15465 -4.95738 0
M  V30 5403 H 492.939 4.01574 -4.59968 0
M  V30 5404 H 494.353 1.89416 -5.41105 0
M  V30 5405 H 492.75 1.24934 -5.86951 0
M  V30 5406 H 493.82 0.279742 -4.84092 0
M  V30 5407 N 495.163 1.55791 0.238111 0
M  V30 5408 C 496.574 1.68383 0.806472 0
M  V30 5409 C 496.925 0.634157 1.85669 0
M  V30 5410 O 496.05 -0.217913 2.153 0
M  V30 5411 C 496.645 3.05268 1.46959 0
M  V30 5412 C 495.204 3.1977 1.98555 0
M  V30 5413 C 494.351 2.64279 0.839763 0
M  V30 5414 H 497.302 1.58694 0.0137535 0
M  V30 5415 H 497.323 3.00203 2.33792 0
M  V30 5416 H 496.835 3.81643 0.704993 0
M  V30 5417 H 494.936 2.48234 2.77868 0
M  V30 5418 H 495.049 4.26788 2.17689 0
M  V30 5419 H 493.413 2.22329 1.24265 0
M  V30 5420 H 494.196 3.43187 0.0881032 0
M  V30 5421 N 496.642 -0.504142 1.49319 0
M  V30 5422 C 498.053 -1.08572 1.51885 0
M  V30 5423 C 498.404 -1.93842 0.303255 0
M  V30 5424 O 497.529 -2.0828 -0.58724 0
M  V30 5425 C 498.124 -1.97574 2.75227 0
M  V30 5426 C 496.683 -2.509 2.80581 0
M  V30 5427 C 495.83 -1.28447 2.45757 0
M  V30 5428 H 498.781 -0.288194 1.56061 0
M  V30 5429 H 498.802 -2.82219 2.55211 0
M  V30 5430 H 498.314 -1.35486 3.63683 0
M  V30 5431 H 496.415 -3.16636 1.96398 0
M  V30 5432 H 496.528 -2.88268 3.82673 0
M  V30 5433 H 494.892 -1.60868 1.97468 0
M  V30 5434 H 495.675 -0.68072 3.36483 0
M  V30 5435 N 498.12 -1.38341 -0.754957 0
M  V30 5436 C 499.366 -1.35678 -1.51536 0
M  V30 5437 C 499.721 0.0533985 -1.92326 0
M  V30 5438 O 499.014 1.01573 -1.6246 0
M  V30 5439 C 499.208 -2.2452 -2.78075 0
M  V30 5440 C 499.037 -3.74035 -2.49655 0
M  V30 5441 C 497.807 -4.43066 -2.42942 0
M  V30 5442 C 500.005 -4.665 -2.16523 0
M  V30 5443 N 497.987 -5.78026 -2.06783 0
M  V30 5444 C 499.358 -5.89962 -1.90644 0
M  V30 5445 C 501.413 -4.54718 -2.02821 0
M  V30 5446 C 500.116 -7.0296 -1.52444 0
M  V30 5447 C 502.142 -5.67618 -1.66023 0
M  V30 5448 C 501.504 -6.90141 -1.41015 0
M  V30 5449 H 497.603 -0.551764 -0.554148 0
M  V30 5450 H 500.187 -1.73716 -0.879258 0
M  V30 5451 H 498.358 -1.88673 -3.39496 0
M  V30 5452 H 500.09 -2.12993 -3.44116 0
M  V30 5453 H 496.845 -3.96264 -2.59367 0
M  V30 5454 H 497.269 -6.49394 -1.91353 0
M  V30 5455 H 501.911 -3.60546 -2.20831 0
M  V30 5456 H 499.629 -7.97051 -1.33174 0
M  V30 5457 H 503.215 -5.6048 -1.56055 0
M  V30 5458 H 502.095 -7.76021 -1.12965 0
M  V30 5459 N 499.598 0.982988 -1.23187 0
M  V30 5460 C 500.844 1.72648 -1.06398 0
M  V30 5461 C 501.177 1.90066 0.398561 0
M  V30 5462 O 500.452 1.45105 1.29518 0
M  V30 5463 C 500.735 3.12627 -1.78707 0
M  V30 5464 C 500.588 3.02795 -3.32618 0
M  V30 5465 C 501.907 4.11997 -1.54747 0
M  V30 5466 H 499.026 0.626649 -0.387918 0
M  V30 5467 H 501.668 1.14455 -1.51658 0
M  V30 5468 H 499.818 3.62308 -1.40234 0
M  V30 5469 H 501.49 2.60659 -3.80598 0
M  V30 5470 H 499.733 2.39362 -3.61785 0
M  V30 5471 H 500.404 4.01893 -3.78399 0
M  V30 5472 H 502.88 3.71114 -1.88186 0
M  V30 5473 H 501.756 5.08037 -2.07821 0
M  V30 5474 H 502.017 4.39462 -0.482249 0
M  V30 5475 N 501.076 1.04316 1.18135 0
M  V30 5476 C 502.492 0.762858 1.40188 0
M  V30 5477 C 502.692 -0.646547 1.90846 0
M  V30 5478 O 501.748 -1.41036 2.0944 0
M  V30 5479 C 503.061 1.81106 2.40044 0
M  V30 5480 C 504.609 1.83226 2.53766 0
M  V30 5481 C 505.084 2.87044 3.56889 0
M  V30 5482 N 506.575 2.85951 3.64398 0
M  V30 5483 C 507.31 3.62932 4.43923 0
M  V30 5484 N 506.806 4.49672 5.27036 0
M  V30 5485 N 508.599 3.51411 4.38711 0
M  V30 5486 H 500.75 1.95264 0.835805 0
M  V30 5487 H 503.013 0.845017 0.429709 0
M  V30 5488 H 502.719 2.82214 2.09876 0
M  V30 5489 H 502.593 1.64529 3.39426 0
M  V30 5490 H 504.98 0.827869 2.8325 0
M  V30 5491 H 505.061 2.03879 1.54489 0
M  V30 5492 H 504.705 3.87663 3.28145 0
M  V30 5493 H 504.635 2.63645 4.5585 0
M  V30 5494 H 507.126 2.23051 3.05052 0
M  V30 5495 H 507.439 5.05116 5.84874 0
M  V30 5496 H 505.784 4.53738 5.26447 0
M  V30 5497 H 508.975 2.83047 3.72829 0
M  V30 5498 H 509.148 4.11654 5.00445 0
M  V30 5499 N 502.554 -1.34406 0.822964 0
M  V30 5500 C 503.501 -2.29519 0.24284 0
M  V30 5501 C 504.471 -1.5359 -0.632397 0
M  V30 5502 O 505.656 -1.8196 -0.57403 0
M  V30 5503 C 502.796 -3.40032 -0.58925 0
M  V30 5504 C 501.909 -4.30899 0.308236 0
M  V30 5505 C 501.044 -5.28515 -0.533425 0
M  V30 5506 C 500.083 -6.1102 0.363444 0
M  V30 5507 N 499.22 -7.00725 -0.439147 0
M  V30 5508 H 504.06 -2.78537 1.05929 0
M  V30 5509 H 501.597 -1.3707 0.533872 0
M  V30 5510 H 503.555 -4.0279 -1.087 0
M  V30 5511 H 502.185 -2.92248 -1.37081 0
M  V30 5512 H 501.237 -3.69002 0.924203 0
M  V30 5513 H 502.549 -4.88717 0.997862 0
M  V30 5514 H 501.703 -5.96725 -1.09565 0
M  V30 5515 H 500.442 -4.71235 -1.25656 0
M  V30 5516 H 499.447 -5.41743 0.937812 0
M  V30 5517 H 500.672 -6.70381 1.08469 0
M  V30 5518 H 498.618 -6.45913 -1.14595 0
M  V30 5519 H 498.535 -7.55756 0.19209 0
M  V30 5520 H 499.803 -7.73263 -0.984124 0
M  V30 5521 N 504.032 -0.577932 -1.46621 0
M  V30 5522 C 505.278 -0.0617793 -2.02706 0
M  V30 5523 C 505.611 1.29294 -1.44903 0
M  V30 5524 O 504.886 1.8461 -0.61232 0
M  V30 5525 C 505.169 0.00911824 -3.60099 0
M  V30 5526 C 505.022 -1.37416 -4.28295 0
M  V30 5527 C 506.341 0.712159 -4.343 0
M  V30 5528 H 503.46 -0.0239246 -0.736612 0
M  V30 5529 H 506.102 -0.744211 -1.74818 0
M  V30 5530 H 504.252 0.590292 -3.83989 0
M  V30 5531 H 505.924 -2.00013 -4.15683 0
M  V30 5532 H 504.167 -1.94319 -3.87843 0
M  V30 5533 H 504.838 -1.27707 -5.37024 0
M  V30 5534 H 507.314 0.218486 -4.15526 0
M  V30 5535 H 506.19 0.730782 -5.44014 0
M  V30 5536 H 506.451 1.77251 -4.05012 0
M  V30 5537 N 505.51 1.54411 -0.315457 0
M  V30 5538 C 506.757 2.00419 0.289543 0
M  V30 5539 C 507.085 1.20373 1.52776 0
M  V30 5540 O 506.34 0.271769 1.93804 0
M  V30 5541 C 506.639 3.50936 0.676652 0
M  V30 5542 C 506.305 4.48532 -0.461472 0
M  V30 5543 C 504.967 4.74936 -0.773879 0
M  V30 5544 C 507.319 5.06567 -1.22637 0
M  V30 5545 C 504.647 5.56634 -1.85405 0
M  V30 5546 C 506.999 5.89441 -2.29657 0
M  V30 5547 C 505.663 6.1415 -2.61488 0
M  V30 5548 H 504.933 0.733386 0.105951 0
M  V30 5549 H 507.58 1.86434 -0.437554 0
M  V30 5550 H 505.885 3.62606 1.48405 0
M  V30 5551 H 507.582 3.83971 1.15618 0
M  V30 5552 H 504.172 4.28096 -0.207893 0
M  V30 5553 H 508.356 4.86157 -0.998271 0
M  V30 5554 H 503.612 5.74012 -2.10523 0
M  V30 5555 H 507.786 6.33432 -2.89374 0
M  V30 5556 H 505.413 6.77245 -3.45317 0
M  V30 5557 N 506.988 0.0434614 1.5754 0
M  V30 5558 C 507.918 -0.931651 2.14109 0
M  V30 5559 C 508.899 -1.32971 1.06079 0
M  V30 5560 O 510.084 -1.40579 1.33982 0
M  V30 5561 C 507.214 -2.20914 2.67982 0
M  V30 5562 C 506.168 -1.95139 3.80926 0
M  V30 5563 C 505.494 -3.29276 4.21285 0
M  V30 5564 C 506.794 -1.27913 5.06395 0
M  V30 5565 H 508.488 -0.460497 2.95837 0
M  V30 5566 H 506.034 -0.220058 1.42309 0
M  V30 5567 H 507.987 -2.89522 3.06194 0
M  V30 5568 H 506.711 -2.70221 1.83434 0
M  V30 5569 H 505.37 -1.28945 3.43175 0
M  V30 5570 H 505.018 -3.76369 3.33699 0
M  V30 5571 H 504.718 -3.12831 4.97404 0
M  V30 5572 H 506.242 -3.99129 4.62091 0
M  V30 5573 H 507.656 -1.86544 5.42102 0
M  V30 5574 H 506.053 -1.2182 5.87605 0
M  V30 5575 H 507.123 -0.254066 4.84234 0
M  V30 5576 N 508.466 -1.55915 -0.229846 0
M  V30 5577 C 509.743 -1.6932 -0.979295 0
M  V30 5578 C 510.123 -0.588321 -2.02736 0
M  V30 5579 O 509.471 0.40586 -2.24867 0
M  V30 5580 C 509.681 -3.10305 -1.59724 0
M  V30 5581 C 511.029 -3.6945 -2.09264 0
M  V30 5582 O 512.053 -3.13214 -1.69633 0
M  V30 5583 O 510.912 -4.68072 -2.82082 0
M  V30 5584 H 508.006 -0.689314 -0.456919 0
M  V30 5585 H 510.552 -1.68238 -0.222283 0
M  V30 5586 H 509.324 -3.82177 -0.840039 0
M  V30 5587 H 508.947 -3.1547 -2.42001 0
M  V30 5588 N 509.944 0.496216 -1.49584 0
M  V30 5589 C 511.193 1.24668 -1.58558 0
M  V30 5590 C 511.506 1.9359 -0.279703 0
M  V30 5591 O 512.712 2.70365 -0.248048 0
M  V30 5592 C 511.168 2.26388 -2.79779 0
M  V30 5593 C 510.776 1.63384 -4.17145 0
M  V30 5594 C 512.52 3.02233 -2.98086 0
M  V30 5595 C 510.427 2.63243 -5.29582 0
M  V30 5596 H 509.357 0.468995 -0.590389 0
M  V30 5597 H 512.008 0.519985 -1.75978 0
M  V30 5598 H 510.39 3.02241 -2.55863 0
M  V30 5599 H 511.564 0.93491 -4.51216 0
M  V30 5600 H 509.879 0.999121 -4.04236 0
M  V30 5601 H 512.476 3.76919 -3.79257 0
M  V30 5602 H 512.819 3.60132 -2.08831 0
M  V30 5603 H 513.352 2.33495 -3.22063 0
M  V30 5604 H 510.091 2.10119 -6.20911 0
M  V30 5605 H 509.611 3.31363 -4.99959 0
M  V30 5606 H 511.29 3.25575 -5.59115 0
M  V30 5607 N 511.423 1.38739 0.74761 0
M  V30 5608 C 512.353 1.39173 1.87492 0
M  V30 5609 C 513.334 0.256794 1.6815 0
M  V30 5610 O 514.519 0.460762 1.88655 0
M  V30 5611 C 511.649 1.22197 3.25093 0
M  V30 5612 C 510.603 2.32957 3.59047 0
M  V30 5613 C 509.929 2.01082 4.95449 0
M  V30 5614 C 511.229 3.75237 3.6331 0
M  V30 5615 H 512.923 2.3351 1.87386 0
M  V30 5616 H 510.469 1.12399 0.900134 0
M  V30 5617 H 512.422 1.21124 4.03617 0
M  V30 5618 H 511.146 0.243241 3.25693 0
M  V30 5619 H 509.805 2.33226 2.82845 0
M  V30 5620 H 509.453 1.01678 4.92616 0
M  V30 5621 H 509.153 2.75267 5.19136 0
M  V30 5622 H 510.677 2.01638 5.76346 0
M  V30 5623 H 512.091 3.76966 4.31937 0
M  V30 5624 H 510.488 4.48677 3.98509 0
M  V30 5625 H 511.558 4.07122 2.634 0
M  V30 5626 N 512.901 -0.976442 1.23707 0
M  V30 5627 C 514.312 -1.53284 1.06587 0
M  V30 5628 C 514.663 -1.92765 -0.365526 0
M  V30 5629 O 513.788 -1.7645 -1.25277 0
M  V30 5630 C 514.383 -2.78548 1.92864 0
M  V30 5631 C 512.942 -3.30574 1.79994 0
M  V30 5632 C 512.089 -2.03538 1.88328 0
M  V30 5633 H 515.04 -0.795692 1.37311 0
M  V30 5634 H 515.061 -3.5155 1.45577 0
M  V30 5635 H 514.573 -2.49782 2.97037 0
M  V30 5636 H 512.674 -3.64211 0.786202 0
M  V30 5637 H 512.787 -4.00065 2.636 0
M  V30 5638 H 511.151 -2.17853 1.31954 0
M  V30 5639 H 511.934 -1.77149 2.94063 0
M  V30 5640 N 514.379 -1.04941 -1.1758 0
M  V30 5641 C 515.309 -0.669172 -2.23706 0
M  V30 5642 C 516.29 0.331835 -1.66832 0
M  V30 5643 O 517.475 0.209988 -1.93061 0
M  V30 5644 C 514.605 -0.0404889 -3.47276 0
M  V30 5645 C 513.559 -0.965983 -4.16957 0
M  V30 5646 C 512.885 -0.201312 -5.34321 0
M  V30 5647 C 514.185 -2.28902 -4.69469 0
M  V30 5648 H 515.879 -1.55639 -2.55767 0
M  V30 5649 H 513.425 -0.749793 -1.22939 0
M  V30 5650 H 515.378 0.237298 -4.20731 0
M  V30 5651 H 514.102 0.881658 -3.14475 0
M  V30 5652 H 512.761 -1.22829 -3.45411 0
M  V30 5653 H 512.409 0.723519 -4.97769 0
M  V30 5654 H 512.109 -0.817968 -5.81879 0
M  V30 5655 H 513.633 0.0692499 -6.10561 0
M  V30 5656 H 515.047 -2.07132 -5.34574 0
M  V30 5657 H 513.444 -2.85942 -5.27596 0
M  V30 5658 H 514.514 -2.92937 -3.86414 0
M  V30 5659 N 515.857 1.33968 -0.830081 0
M  V30 5660 C 516.787 2.31911 -0.271911 0
M  V30 5661 C 517.768 1.58571 0.61556 0
M  V30 5662 O 518.953 1.86514 0.540946 0
M  V30 5663 C 516.083 3.42737 0.561146 0
M  V30 5664 C 515.037 4.27383 -0.229789 0
M  V30 5665 C 514.363 5.29742 0.726463 0
M  V30 5666 C 515.663 5.02 -1.44197 0
M  V30 5667 H 517.357 2.78844 -1.09025 0
M  V30 5668 H 514.903 1.34061 -0.52571 0
M  V30 5669 H 516.856 4.10276 0.961867 0
M  V30 5670 H 515.58 2.94471 1.41261 0
M  V30 5671 H 514.239 3.61456 -0.611964 0
M  V30 5672 H 513.887 4.77736 1.57408 0
M  V30 5673 H 513.587 5.87255 0.20142 0
M  V30 5674 H 515.111 6.00149 1.12489 0
M  V30 5675 H 516.525 5.62355 -1.11488 0
M  V30 5676 H 514.922 5.69122 -1.90317 0
M  V30 5677 H 515.992 4.31281 -2.2164 0
M  V30 5678 N 517.335 0.585699 1.46312 0
M  V30 5679 C 518.268 -0.194257 2.27372 0
M  V30 5680 C 519.246 -0.894116 1.3581 0
M  V30 5681 O 520.43 -0.907402 1.65222 0
M  V30 5682 C 517.557 -1.27901 3.13622 0
M  V30 5683 C 516.603 -0.684666 4.20969 0
M  V30 5684 S 517.436 0.490745 5.33247 0
M  V30 5685 C 518.592 -0.595137 6.23064 0
M  V30 5686 H 518.825 0.493515 2.93175 0
M  V30 5687 H 516.358 0.372666 1.49835 0
M  V30 5688 H 518.316 -1.90008 3.63878 0
M  V30 5689 H 516.977 -1.93875 2.47126 0
M  V30 5690 H 516.17 -1.50015 4.81156 0
M  V30 5691 H 515.772 -0.139204 3.73741 0
M  V30 5692 H 518.064 -1.48002 6.61137 0
M  V30 5693 H 519.007 -0.0299446 7.08094 0
M  V30 5694 H 519.415 -0.900627 5.57269 0
M  V30 5695 N 518.813 -1.54241 0.323641 0
M  V30 5696 C 520.053 -2.0248 -0.279502 0
M  V30 5697 C 520.417 -1.20672 -1.49339 0
M  V30 5698 O 521.618 -1.58715 -2.1694 0
M  V30 5699 C 519.889 -3.52238 -0.605266 0
M  V30 5700 S 521.448 -4.22411 -1.18805 0
M  V30 5701 H 518.266 -0.705957 -0.0845313 0
M  V30 5702 H 520.868 -1.90089 0.456781 0
M  V30 5703 H 519.572 -4.094 0.286339 0
M  V30 5704 H 519.103 -3.6871 -1.37174 0
M  V30 5705 H 521.118 -4.30075 -2.47487 0
M  V30 5706 N 520.291 -0.0518155 -1.57515 0
M  V30 5707 C 521.224 0.957758 -2.07129 0
M  V30 5708 C 522.202 1.30355 -0.971927 0
M  V30 5709 O 523.386 1.41631 -1.2439 0
M  V30 5710 C 520.513 2.27157 -2.51232 0
M  V30 5711 C 519.559 2.07879 -3.72409 0
M  V30 5712 S 520.392 1.35656 -5.18033 0
M  V30 5713 C 521.548 2.68359 -5.65451 0
M  V30 5714 H 521.781 0.53552 -2.92437 0
M  V30 5715 H 519.314 0.160465 -1.53564 0
M  V30 5716 H 521.272 3.02676 -2.77304 0
M  V30 5717 H 519.933 2.66509 -1.66228 0
M  V30 5718 H 519.126 3.05061 -4.01191 0
M  V30 5719 H 518.728 1.40499 -3.46606 0
M  V30 5720 H 521.02 3.64526 -5.71076 0
M  V30 5721 H 521.963 2.44213 -6.64654 0
M  V30 5722 H 522.371 2.74647 -4.93183 0
M  V30 5723 N 521.769 1.56035 0.221574 0
M  V30 5724 C 522.701 1.889 1.29805 0
M  V30 5725 C 523.714 0.777269 1.43047 0
M  V30 5726 O 524.903 1.05557 1.43945 0
M  V30 5727 C 522.003 2.0825 2.67367 0
M  V30 5728 C 521.176 3.39267 2.76073 0
M  V30 5729 C 520.235 3.48049 3.94649 0
M  V30 5730 O 519.261 4.2108 3.82988 0
M  V30 5731 N 520.463 2.79191 5.08953 0
M  V30 5732 H 523.228 2.81831 1.01938 0
M  V30 5733 H 520.789 1.5658 0.411612 0
M  V30 5734 H 522.781 2.11441 3.45072 0
M  V30 5735 H 521.351 1.21944 2.87834 0
M  V30 5736 H 520.571 3.48175 1.84846 0
M  V30 5737 H 521.859 4.25575 2.7886 0
M  V30 5738 H 521.257 2.19635 5.21322 0
M  V30 5739 H 519.814 2.88043 5.84701 0
M  V30 5740 N 523.247 -0.488276 1.49845 0
M  V30 5741 C 524.663 -0.820566 1.3689 0
M  V30 5742 C 524.863 -1.97248 0.411752 0
M  V30 5743 O 523.919 -2.52042 -0.151931 0
M  V30 5744 C 525.232 -1.1488 2.77891 0
M  V30 5745 C 526.78 -1.25626 2.86683 0
M  V30 5746 C 527.255 -1.61772 4.28479 0
M  V30 5747 N 528.746 -1.68797 4.31349 0
M  V30 5748 C 529.481 -1.98235 5.38043 0
M  V30 5749 N 528.977 -2.2581 6.54967 0
M  V30 5750 N 530.77 -1.99593 5.2547 0
M  V30 5751 H 522.921 0.271123 2.10662 0
M  V30 5752 H 525.184 0.058735 0.946179 0
M  V30 5753 H 524.89 -0.375614 3.49688 0
M  V30 5754 H 524.764 -2.08919 3.14058 0
M  V30 5755 H 527.151 -2.02014 2.15114 0
M  V30 5756 H 527.232 -0.296072 2.54081 0
M  V30 5757 H 526.876 -0.859295 5.00578 0
M  V30 5758 H 526.806 -2.58912 4.58554 0
M  V30 5759 H 529.297 -1.49595 3.4703 0
M  V30 5760 H 529.61 -2.47497 7.32096 0
M  V30 5761 H 527.955 -2.23239 6.58171 0
M  V30 5762 H 531.146 -1.77535 4.33127 0
M  V30 5763 H 531.319 -2.222 6.08713 0
M  V30 5764 N 524.725 -1.39134 -0.740242 0
M  V30 5765 C 526.136 -1.32208 -1.31825 0
M  V30 5766 C 526.487 0.0159919 -1.96193 0
M  V30 5767 O 525.612 0.918111 -1.95958 0
M  V30 5768 C 526.207 -2.39436 -2.39699 0
M  V30 5769 C 524.766 -2.36048 -2.93187 0
M  V30 5770 C 523.913 -2.21599 -1.66701 0
M  V30 5771 H 526.864 -1.49298 -0.538133 0
M  V30 5772 H 526.885 -2.05922 -3.19963 0
M  V30 5773 H 526.397 -3.36811 -1.92821 0
M  V30 5774 H 524.498 -1.42295 -3.44359 0
M  V30 5775 H 524.611 -3.30704 -3.46658 0
M  V30 5776 H 522.975 -1.68681 -1.90837 0
M  V30 5777 H 523.758 -3.20936 -1.21882 0
M  V30 5778 N 526.204 0.969867 -1.24223 0
M  V30 5779 C 527.154 2.04913 -0.999732 0
M  V30 5780 C 528.138 1.60795 0.0580636 0
M  V30 5781 O 529.33 1.76317 -0.155392 0
M  V30 5782 C 526.459 3.37942 -0.604154 0
M  V30 5783 C 525.545 3.88628 -1.69791 0
M  V30 5784 N 525.936 4.12274 -2.93025 0
M  V30 5785 C 524.234 4.17268 -1.57492 0
M  V30 5786 C 524.935 4.53808 -3.63914 0
M  V30 5787 N 523.911 4.58855 -2.91468 0
M  V30 5788 H 527.713 2.21168 -1.93551 0
M  V30 5789 H 525.227 1.15349 -1.14317 0
M  V30 5790 H 527.224 4.14863 -0.411665 0
M  V30 5791 H 525.884 3.23075 0.324465 0
M  V30 5792 H 526.895 3.99789 -3.29225 0
M  V30 5793 H 523.572 4.11346 -0.714175 0
M  V30 5794 H 524.962 4.80534 -4.69614 0
M  V30 5795 N 527.682 1.05563 1.17022 0
M  V30 5796 C 529.098 0.777684 1.39371 0
M  V30 5797 C 529.298 -0.626269 1.91521 0
M  V30 5798 O 528.354 -1.38806 2.10924 0
M  V30 5799 C 529.667 1.83642 2.3811 0
M  V30 5800 C 531.215 1.85907 2.51809 0
M  V30 5801 C 531.69 2.90813 3.53824 0
M  V30 5802 N 533.181 2.898 3.61345 0
M  V30 5803 C 533.916 3.6762 4.40049 0
M  V30 5804 N 533.412 4.55237 5.22237 0
M  V30 5805 N 535.205 3.56044 4.34959 0
M  V30 5806 H 527.356 1.9614 0.815047 0
M  V30 5807 H 529.619 0.849527 0.420722 0
M  V30 5808 H 529.325 2.84425 2.06871 0
M  V30 5809 H 529.199 1.6812 3.37662 0
M  V30 5810 H 531.586 0.857865 2.82356 0
M  V30 5811 H 531.667 2.05506 1.52318 0
M  V30 5812 H 531.311 3.91122 3.24015 0
M  V30 5813 H 531.241 2.68465 4.53028 0
M  V30 5814 H 533.732 2.26274 3.02669 0
M  V30 5815 H 534.045 5.11291 5.79484 0
M  V30 5816 H 532.39 4.59296 5.21605 0
M  V30 5817 H 535.581 2.86986 3.69806 0
M  V30 5818 H 535.754 4.16938 4.96051 0
M  V30 5819 N 529.16 -1.33526 0.837174 0
M  V30 5820 C 530.107 -2.29248 0.267169 0
M  V30 5821 C 531.077 -1.54252 -0.616071 0
M  V30 5822 O 532.262 -1.82559 -0.554699 0
M  V30 5823 C 529.402 -3.40638 -0.553152 0
M  V30 5824 C 528.515 -4.30548 0.353921 0
M  V30 5825 C 527.65 -5.29051 -0.477339 0
M  V30 5826 C 526.689 -6.106 0.42823 0
M  V30 5827 N 525.826 -7.01152 -0.364801 0
M  V30 5828 H 530.666 -2.77398 1.08877 0
M  V30 5829 H 528.203 -1.36496 0.54838 0
M  V30 5830 H 530.161 -4.03921 -1.04422 0
M  V30 5831 H 528.791 -2.93685 -1.33973 0
M  V30 5832 H 527.843 -3.68001 0.963289 0
M  V30 5833 H 529.155 -4.87631 1.04964 0
M  V30 5834 H 528.309 -5.97853 -1.0323 0
M  V30 5835 H 527.048 -4.72541 -1.2065 0
M  V30 5836 H 526.053 -5.40718 0.995219 0
M  V30 5837 H 527.278 -6.69193 1.15573 0
M  V30 5838 H 525.224 -6.47092 -1.07738 0
M  V30 5839 H 525.141 -7.5551 0.272238 0
M  V30 5840 H 526.409 -7.74263 -0.902054 0
M  V30 5841 N 530.638 -0.59345 -1.46 0
M  V30 5842 C 531.586 0.146268 -2.3214 0
M  V30 5843 C 532.58 0.873743 -1.45128 0
M  V30 5844 O 533.786 0.790912 -1.61693 0
M  V30 5845 H 530.161 0.0660349 -0.749095 0
M  V30 5846 H 532.132 -0.598895 -2.92328 0
M  V30 5847 C 530.881 1.1396 -3.28494 0
M  V30 5848 H 530.204 0.589252 -3.95434 0
M  V30 5849 H 531.644 1.62738 -3.91526 0
M  V30 5850 C 530.103 2.20604 -2.54628 0
M  V30 5851 O 530.633 3.28128 -2.31722 0
M  V30 5852 N 528.839 1.95502 -2.15005 0
M  V30 5853 H 528.386 1.0807 -2.33834 0
M  V30 5854 H 528.344 2.67064 -1.65904 0
M  V30 5855 N 532.116 1.54067 -0.331816 0
M  V30 5856 C 533.362 2.01012 0.268667 0
M  V30 5857 C 533.695 1.2195 1.51136 0
M  V30 5858 O 532.97 0.303972 1.9211 0
M  V30 5859 C 533.253 3.55158 0.59456 0
M  V30 5860 C 533.106 4.4494 -0.659409 0
M  V30 5861 C 534.425 4.16939 1.4089 0
M  V30 5862 H 531.544 0.730698 0.0961756 0
M  V30 5863 H 534.186 1.84593 -0.450031 0
M  V30 5864 H 532.336 3.6928 1.20685 0
M  V30 5865 H 534.008 4.42675 -1.29756 0
M  V30 5866 H 532.251 4.1428 -1.28665 0
M  V30 5867 H 532.922 5.50643 -0.386804 0
M  V30 5868 H 535.398 4.06443 0.891272 0
M  V30 5869 H 534.274 5.24889 1.60569 0
M  V30 5870 H 534.535 3.70798 2.40752 0
M  V30 5871 N 533.594 0.0601682 1.57485 0
M  V30 5872 C 534.843 -0.611101 1.9222 0
M  V30 5873 C 535.156 -1.71469 0.941159 0
M  V30 5874 O 536.362 -2.44473 1.18089 0
M  V30 5875 C 534.818 -1.13832 3.41424 0
M  V30 5876 C 534.426 -0.0663596 4.47951 0
M  V30 5877 C 536.17 -1.78432 3.85178 0
M  V30 5878 C 534.077 -0.606965 5.88277 0
M  V30 5879 H 533.007 -0.232033 0.71741 0
M  V30 5880 H 535.658 0.130518 1.83035 0
M  V30 5881 H 534.04 -1.93254 3.45643 0
M  V30 5882 H 535.214 0.707682 4.55333 0
M  V30 5883 H 533.529 0.482715 4.13593 0
M  V30 5884 H 536.126 -2.1989 4.87394 0
M  V30 5885 H 536.469 -2.63966 3.21913 0
M  V30 5886 H 537.002 -1.05651 3.83514 0
M  V30 5887 H 533.741 0.21095 6.5516 0
M  V30 5888 H 533.261 -1.34879 5.84438 0
M  V30 5889 H 534.94 -1.08704 6.37803 0
M  V30 5890 N 535.072 -1.5615 -0.213296 0
M  V30 5891 C 536.004 -1.89586 -1.28802 0
M  V30 5892 C 537.017 -0.784844 -1.42633 0
M  V30 5893 O 538.206 -1.06319 -1.43383 0
M  V30 5894 C 535.306 -2.09665 -2.66259 0
M  V30 5895 C 534.479 -3.40726 -2.7427 0
M  V30 5896 C 533.538 -3.50137 -3.92798 0
M  V30 5897 O 532.564 -4.23105 -3.8075 0
M  V30 5898 N 533.766 -2.81886 -5.07465 0
M  V30 5899 H 536.531 -2.82368 -1.00442 0
M  V30 5900 H 534.092 -1.56796 -0.403302 0
M  V30 5901 H 536.084 -2.13268 -3.43946 0
M  V30 5902 H 534.654 -1.23469 -2.87183 0
M  V30 5903 H 533.874 -3.4915 -1.82997 0
M  V30 5904 H 535.162 -4.27048 -2.76599 0
M  V30 5905 H 534.56 -2.22397 -5.2015 0
M  V30 5906 H 533.117 -2.91139 -5.83165 0
M  V30 5907 N 536.55 0.480323 -1.50102 0
M  V30 5908 C 537.966 0.813295 -1.37323 0
M  V30 5909 C 538.166 1.97027 -0.422206 0
M  V30 5910 O 537.222 2.5212 0.138563 0
M  V30 5911 C 538.535 1.13404 -2.78496 0
M  V30 5912 C 540.083 1.24104 -2.87345 0
M  V30 5913 C 540.558 1.59497 -4.29331 0
M  V30 5914 N 542.049 1.66507 -4.32238 0
M  V30 5915 C 542.784 1.95378 -5.39087 0
M  V30 5916 N 542.28 2.22333 -6.56155 0
M  V30 5917 N 544.073 1.96803 -5.26522 0
M  V30 5918 H 536.224 -0.282291 -2.10516 0
M  V30 5919 H 538.487 -0.063752 -0.945854 0
M  V30 5920 H 538.193 0.357064 -3.49883 0
M  V30 5921 H 538.067 2.07251 -3.15162 0
M  V30 5922 H 540.454 2.00871 -2.16183 0
M  V30 5923 H 540.535 0.282593 -2.54234 0
M  V30 5924 H 540.179 0.832736 -5.01027 0
M  V30 5925 H 540.109 2.56477 -4.59921 0
M  V30 5926 H 542.6 1.47753 -3.47818 0
M  V30 5927 H 542.913 2.43611 -7.33399 0
M  V30 5928 H 541.258 2.19745 -6.59346 0
M  V30 5929 H 544.449 1.75235 -4.34062 0
M  V30 5930 H 544.622 2.18969 -6.09883 0
M  V30 5931 N 538.028 1.39524 0.732853 0
M  V30 5932 C 539.253 1.40329 1.52717 0
M  V30 5933 C 539.678 0.000286574 1.881 0
M  V30 5934 O 539.036 -0.987262 1.52062 0
M  V30 5935 C 539.084 2.28464 2.78992 0
M  V30 5936 O 538.188 1.716 3.75003 0
M  V30 5937 H 537.529 0.47778 0.461109 0
M  V30 5938 H 540.059 1.83546 0.903996 0
M  V30 5939 H 540.069 2.43051 3.27705 0
M  V30 5940 H 538.744 3.30425 2.52572 0
M  V30 5941 H 537.321 1.66267 3.33781 0
M  V30 5942 N 539.506 -0.963266 1.24736 0
M  V30 5943 C 540.456 -2.0438 1.01058 0
M  V30 5944 C 541.44 -1.60824 -0.0495354 0
M  V30 5945 O 542.632 -1.76232 0.164741 0
M  V30 5946 C 539.761 -3.37617 0.622067 0
M  V30 5947 C 538.847 -3.87722 1.7185 0
M  V30 5948 N 539.238 -4.10715 2.95207 0
M  V30 5949 C 537.536 -4.16426 1.59703 0
M  V30 5950 C 538.237 -4.51872 3.66315 0
M  V30 5951 N 537.213 -4.57302 2.93897 0
M  V30 5952 H 541.015 -2.20138 1.94721 0
M  V30 5953 H 538.529 -1.14741 1.14927 0
M  V30 5954 H 540.526 -4.14638 0.43366 0
M  V30 5955 H 539.186 -3.23242 -0.307327 0
M  V30 5956 H 540.197 -3.98037 3.31341 0
M  V30 5957 H 536.874 -4.10962 0.73598 0
M  V30 5958 H 538.264 -4.78037 4.72155 0
M  V30 5959 N 540.985 -1.06182 -1.16461 0
M  V30 5960 C 542.401 -0.785065 -1.38956 0
M  V30 5961 C 542.601 0.616103 -1.9185 0
M  V30 5962 O 541.657 1.37686 -2.11657 0
M  V30 5963 C 542.97 -1.84902 -2.37132 0
M  V30 5964 C 544.518 -1.8724 -2.50819 0
M  V30 5965 C 544.993 -2.92686 -3.52277 0
M  V30 5966 N 546.484 -2.91712 -3.59803 0
M  V30 5967 C 547.219 -3.69949 -4.38093 0
M  V30 5968 N 546.715 -4.58 -5.19815 0
M  V30 5969 N 548.508 -3.58346 -4.33064 0
M  V30 5970 H 540.659 -1.96569 -0.804634 0
M  V30 5971 H 542.922 -0.851747 -0.416211 0
M  V30 5972 H 542.628 -2.85518 -2.0536 0
M  V30 5973 H 542.502 -1.69908 -3.36766 0
M  V30 5974 H 544.889 -0.872827 -2.81897 0
M  V30 5975 H 544.97 -2.06311 -1.51226 0
M  V30 5976 H 544.614 -3.92835 -3.21937 0
M  V30 5977 H 544.544 -2.70864 -4.51598 0
M  V30 5978 H 547.035 -2.27876 -3.01464 0
M  V30 5979 H 547.348 -5.14357 -5.76764 0
M  V30 5980 H 545.693 -4.62056 -5.19162 0
M  V30 5981 H 548.884 -2.88943 -3.68279 0
M  V30 5982 H 549.057 -4.19563 -4.93833 0
M  V30 5983 N 542.463 1.3308 -0.844243 0
M  V30 5984 C 543.879 1.50447 -0.532729 0
M  V30 5985 C 544.079 1.78292 0.938837 0
M  V30 5986 O 543.135 1.84635 1.72239 0
M  V30 5987 C 544.448 2.65555 -1.41072 0
M  V30 5988 C 545.996 2.7944 -1.41005 0
M  V30 5989 C 546.471 3.97616 -2.27301 0
M  V30 5990 N 547.962 4.0486 -2.2504 0
M  V30 5991 C 548.697 4.95508 -2.88547 0
M  V30 5992 N 548.193 5.91236 -3.61126 0
M  V30 5993 N 549.986 4.88548 -2.77989 0
M  V30 5994 H 542.137 1.13269 -1.79677 0
M  V30 5995 H 544.4 0.55734 -0.766861 0
M  V30 5996 H 544.106 2.51675 -2.45668 0
M  V30 5997 H 543.98 3.61089 -1.09061 0
M  V30 5998 H 546.367 2.92749 -0.371784 0
M  V30 5999 H 546.448 1.8465 -1.77026 0
M  V30 6000 H 546.092 3.85066 -3.3119 0
M  V30 6001 H 546.022 4.91661 -1.88619 0
M  V30 6002 H 548.513 3.36353 -1.72264 0
M  V30 6003 H 548.826 6.57079 -4.06776 0
M  V30 6004 H 547.171 5.91295 -3.65234 0
M  V30 6005 H 550.362 4.12729 -2.20846 0
M  V30 6006 H 550.535 5.58994 -3.27765 0
M  V30 6007 N 543.941 0.601185 1.45683 0
M  V30 6008 C 544.871 -0.108824 2.33246 0
M  V30 6009 C 545.852 -0.865223 1.46451 0
M  V30 6010 O 547.037 -0.83704 1.75235 0
M  V30 6011 C 544.167 -1.11101 3.2905 0
M  V30 6012 C 543.121 -0.468244 4.25431 0
M  V30 6013 C 542.447 -1.57822 5.10878 0
M  V30 6014 C 543.747 0.606469 5.18767 0
M  V30 6015 H 545.441 0.622306 2.92861 0
M  V30 6016 H 542.987 0.300714 1.40825 0
M  V30 6017 H 544.94 -1.61622 3.89174 0
M  V30 6018 H 543.664 -1.87265 2.67581 0
M  V30 6019 H 542.323 0.0160484 3.66596 0
M  V30 6020 H 541.971 -2.32998 4.45781 0
M  V30 6021 H 541.671 -1.15369 5.76163 0
M  V30 6022 H 543.195 -2.08583 5.73869 0
M  V30 6023 H 544.609 0.185589 5.73 0
M  V30 6024 H 543.006 0.952381 5.92494 0
M  V30 6025 H 544.076 1.48559 4.61582 0
M  V30 6026 N 545.419 -1.53889 0.339982 0
M  V30 6027 C 546.349 -2.27843 -0.510856 0
M  V30 6028 C 547.33 -1.29267 -1.10563 0
M  V30 6029 O 548.515 -1.58104 -1.12768 0
M  V30 6030 C 545.645 -3.04857 -1.66372 0
M  V30 6031 C 544.599 -4.10907 -1.19746 0
M  V30 6032 C 543.925 -4.75855 -2.43857 0
M  V30 6033 C 545.225 -5.21435 -0.300501 0
M  V30 6034 H 546.919 -2.99212 0.106067 0
M  V30 6035 H 544.465 -1.43904 0.0524533 0
M  V30 6036 H 546.418 -3.5533 -2.26537 0
M  V30 6037 H 545.142 -2.31133 -2.30749 0
M  V30 6038 H 543.801 -3.61342 -0.618654 0
M  V30 6039 H 543.449 -3.9873 -3.06633 0
M  V30 6040 H 543.149 -5.47502 -2.13343 0
M  V30 6041 H 544.673 -5.2911 -3.04754 0
M  V30 6042 H 546.087 -5.67565 -0.80889 0
M  V30 6043 H 544.484 -6.00036 -0.0874076 0
M  V30 6044 H 545.554 -4.80328 0.664321 0
M  V30 6045 N 546.897 -0.0685191 -1.57451 0
M  V30 6046 C 547.807 0.914677 -2.16034 0
M  V30 6047 C 548.823 1.32938 -1.12265 0
M  V30 6048 O 549.999 1.40275 -1.44516 0
M  V30 6049 C 547.064 2.16519 -2.70777 0
M  V30 6050 C 546.125 1.80721 -3.89408 0
M  V30 6051 C 545.358 2.9981 -4.41531 0
M  V30 6052 O 545.581 4.13727 -3.92666 0
M  V30 6053 O 544.515 2.79817 -5.32903 0
M  V30 6054 H 548.341 0.446364 -3.00402 0
M  V30 6055 H 545.926 0.154367 -1.486 0
M  V30 6056 H 547.808 2.89856 -3.05878 0
M  V30 6057 H 546.483 2.62454 -1.89471 0
M  V30 6058 H 545.39 1.04646 -3.59166 0
M  V30 6059 H 546.723 1.39571 -4.71997 0
M  V30 6060 N 548.375 1.56261 0.205012 0
M  V30 6061 C 549.603 1.84141 0.943386 0
M  V30 6062 C 550.018 0.649772 1.77266 0
M  V30 6063 O 549.375 -0.381612 1.78466 0
M  V30 6064 C 549.426 3.10719 1.84759 0
M  V30 6065 O 549.147 4.25286 1.05181 0
M  V30 6066 C 550.648 3.51706 2.69848 0
M  V30 6067 H 547.868 0.611734 0.275721 0
M  V30 6068 H 550.412 2.03364 0.215253 0
M  V30 6069 H 548.567 2.93422 2.52947 0
M  V30 6070 H 548.981 4.97301 1.66709 0
M  V30 6071 H 550.455 4.43266 3.28967 0
M  V30 6072 H 550.932 2.7423 3.43067 0
M  V30 6073 H 551.538 3.71499 2.07047 0
M  V30 6074 N 549.853 -0.472356 1.50355 0
M  V30 6075 C 551.101 -1.22211 1.60962 0
M  V30 6076 C 551.422 -1.92497 0.311439 0
M  V30 6077 O 550.692 -1.8405 -0.671002 0
M  V30 6078 H 549.272 -0.454092 0.593135 0
M  V30 6079 H 551.934 -0.544977 1.87126 0
M  V30 6080 H 551.03 -1.9707 2.42012 0
M  V30 6081 N 551.331 -1.39911 -0.725443 0
M  V30 6082 C 552.742 -1.33599 -1.30415 0
M  V30 6083 C 553.093 -0.00481792 -1.96199 0
M  V30 6084 O 552.218 0.897275 -1.96921 0
M  V30 6085 C 552.813 -2.41965 -2.37146 0
M  V30 6086 C 551.372 -2.39144 -2.90667 0
M  V30 6087 C 550.519 -2.23355 -1.64341 0
M  V30 6088 H 553.47 -1.4986 -0.522267 0
M  V30 6089 H 553.491 -2.09304 -3.17761 0
M  V30 6090 H 553.003 -3.38837 -1.89238 0
M  V30 6091 H 551.104 -1.4594 -3.4283 0
M  V30 6092 H 551.217 -3.34362 -3.43131 0
M  V30 6093 H 549.581 -1.70696 -1.89037 0
M  V30 6094 H 550.364 -3.2221 -1.18471 0
M  V30 6095 N 552.809 0.956637 -1.25245 0
M  V30 6096 C 554.034 1.74104 -1.12706 0
M  V30 6097 C 554.459 1.85436 0.315429 0
M  V30 6098 O 553.817 1.33334 1.22848 0
M  V30 6099 C 553.865 3.1338 -1.78396 0
M  V30 6100 O 552.969 3.98485 -1.06224 0
M  V30 6101 H 552.31 0.53476 -0.393609 0
M  V30 6102 H 554.84 1.19924 -1.65769 0
M  V30 6103 H 554.85 3.6385 -1.846 0
M  V30 6104 H 553.525 3.04448 -2.83345 0
M  V30 6105 H 552.102 3.56952 -1.07886 0
M  V30 6106 N 554.287 1.06798 1.15896 0
M  V30 6107 C 555.533 0.788934 1.86825 0
M  V30 6108 C 555.866 -0.683084 1.8179 0
M  V30 6109 O 555.141 -1.50086 1.23711 0
M  V30 6110 C 555.424 1.29065 3.36176 0
M  V30 6111 C 555.277 2.8268 3.49874 0
M  V30 6112 C 556.596 0.902655 4.30744 0
M  V30 6113 H 553.715 0.288066 0.678371 0
M  V30 6114 H 556.357 1.32479 1.36195 0
M  V30 6115 H 554.507 0.834806 3.79425 0
M  V30 6116 H 556.179 3.36511 3.15528 0
M  V30 6117 H 554.422 3.21157 2.91617 0
M  V30 6118 H 555.093 3.12852 4.54783 0
M  V30 6119 H 557.569 1.29535 3.95424 0
M  V30 6120 H 556.445 1.28111 5.3374 0
M  V30 6121 H 556.706 -0.191951 4.41683 0
M  V30 6122 N 555.766 -1.3263 0.851289 0
M  V30 6123 C 556.676 -2.32722 0.296268 0
M  V30 6124 C 557.692 -1.63901 -0.584162 0
M  V30 6125 O 558.868 -1.95465 -0.485334 0
M  V30 6126 C 555.933 -3.42942 -0.509103 0
M  V30 6127 C 554.994 -4.2746 0.397069 0
M  V30 6128 C 554.227 -5.32416 -0.36996 0
M  V30 6129 O 554.45 -5.47491 -1.6003 0
M  V30 6130 O 553.384 -6.01327 0.262493 0
M  V30 6131 H 557.21 -2.82078 1.12543 0
M  V30 6132 H 554.795 -1.36194 0.614135 0
M  V30 6133 H 556.677 -4.1017 -0.96634 0
M  V30 6134 H 555.352 -2.95781 -1.31512 0
M  V30 6135 H 554.259 -3.63053 0.902411 0
M  V30 6136 H 555.592 -4.78136 1.16818 0
M  V30 6137 N 557.244 -0.608902 -1.45362 0
M  V30 6138 C 558.154 0.110969 -2.34337 0
M  V30 6139 C 559.17 0.859007 -1.51318 0
M  V30 6140 O 560.346 0.816296 -1.84116 0
M  V30 6141 C 557.411 1.09494 -3.28956 0
M  V30 6142 C 556.472 0.348718 -4.27881 0
M  V30 6143 C 555.705 1.28582 -5.17979 0
M  V30 6144 O 555.928 2.52369 -5.11533 0
M  V30 6145 O 554.862 0.782172 -5.96796 0
M  V30 6146 H 558.688 -0.620258 -2.97299 0
M  V30 6147 H 556.273 -0.36916 -1.44767 0
M  V30 6148 H 558.155 1.66163 -3.87257 0
M  V30 6149 H 556.83 1.80717 -2.68557 0
M  V30 6150 H 555.737 -0.260465 -3.73192 0
M  V30 6151 H 557.07 -0.323049 -4.91139 0
M  V30 6152 N 558.722 1.53707 -0.348139 0
M  V30 6153 C 559.67 2.26671 0.521808 0
M  V30 6154 C 560.664 1.28988 1.09811 0
M  V30 6155 O 561.87 1.4668 1.04332 0
M  V30 6156 H 558.245 0.728387 0.186968 0
M  V30 6157 H 560.216 2.98176 -0.115563 0
M  V30 6158 C 558.965 3.05591 1.6586 0
M  V30 6159 H 558.288 3.80589 1.22443 0
M  V30 6160 H 559.728 3.59851 2.24239 0
M  V30 6161 C 558.187 2.15366 2.59073 0
M  V30 6162 O 558.717 1.7528 3.61441 0
M  V30 6163 N 556.923 1.80352 2.27863 0
M  V30 6164 H 556.47 2.13149 1.44656 0
M  V30 6165 H 556.428 1.20268 2.90488 0
M  V30 6166 N 560.2 0.0768682 1.57412 0
M  V30 6167 C 561.611 -0.455037 1.8107 0
M  V30 6168 C 561.962 -1.69323 0.991162 0
M  V30 6169 O 561.087 -2.15328 0.215156 0
M  V30 6170 C 561.682 -0.832316 3.28417 0
M  V30 6171 C 560.241 -1.30906 3.52903 0
M  V30 6172 C 559.388 -0.296714 2.75708 0
M  V30 6173 H 562.339 0.302514 1.5579 0
M  V30 6174 H 562.36 -1.69333 3.40744 0
M  V30 6175 H 561.872 0.0690532 3.88039 0
M  V30 6176 H 559.973 -2.22875 2.98592 0
M  V30 6177 H 560.086 -1.28348 4.61588 0
M  V30 6178 H 558.45 -0.775059 2.42621 0
M  V30 6179 H 559.233 0.597015 3.38069 0
M  V30 6180 N 561.678 -1.56367 -0.196722 0
M  V30 6181 C 562.611 -1.89475 -1.2718 0
M  V30 6182 C 563.589 -0.754667 -1.44026 0
M  V30 6183 O 564.773 -1.00551 -1.59442 0
M  V30 6184 C 561.9 -2.12352 -2.63864 0
M  V30 6185 C 560.946 -3.35053 -2.63897 0
M  V30 6186 S 561.779 -4.90228 -2.15492 0
M  V30 6187 C 562.935 -5.16171 -3.54004 0
M  V30 6188 H 563.168 -2.80365 -0.989075 0
M  V30 6189 H 560.701 -1.49125 -0.40014 0
M  V30 6190 H 562.659 -2.26214 -3.42545 0
M  V30 6191 H 561.32 -1.22214 -2.89349 0
M  V30 6192 H 560.513 -3.48182 -3.64397 0
M  V30 6193 H 560.115 -3.20176 -1.93296 0
M  V30 6194 H 562.407 -5.06591 -4.49857 0
M  V30 6195 H 563.35 -6.17938 -3.45771 0
M  V30 6196 H 563.758 -4.43814 -3.48841 0
M  V30 6197 N 563.156 0.464375 -1.50603 0
M  V30 6198 C 564.572 0.798684 -1.38178 0
M  V30 6199 C 564.772 1.96568 -0.44308 0
M  V30 6200 O 563.828 2.52252 0.111814 0
M  V30 6201 C 565.141 1.10444 -2.79683 0
M  V30 6202 C 566.689 1.2105 -2.88645 0
M  V30 6203 C 567.164 1.54934 -4.30998 0
M  V30 6204 N 568.655 1.61913 -4.3398 0
M  V30 6205 C 569.39 1.8965 -5.41129 0
M  V30 6206 N 568.886 2.15361 -6.58477 0
M  V30 6207 N 570.679 1.91207 -5.28579 0
M  V30 6208 H 562.83 -0.304603 -2.10204 0
M  V30 6209 H 565.093 -0.0737804 -0.945125 0
M  V30 6210 H 564.799 0.319934 -3.50242 0
M  V30 6211 H 564.673 2.03896 -3.17342 0
M  V30 6212 H 567.06 1.98567 -2.18301 0
M  V30 6213 H 567.141 0.255613 -2.5452 0
M  V30 6214 H 566.785 0.779549 -5.01882 0
M  V30 6215 H 566.715 2.51584 -4.62615 0
M  V30 6216 H 569.206 1.44055 -3.49366 0
M  V30 6217 H 569.519 2.35818 -7.35941 0
M  V30 6218 H 567.864 2.1274 -6.6164 0
M  V30 6219 H 571.055 1.70622 -4.35897 0
M  V30 6220 H 571.228 2.12488 -6.12171 0
M  V30 6221 N 564.634 1.40294 0.718013 0
M  V30 6222 C 565.859 1.41941 1.5122 0
M  V30 6223 C 566.284 0.0202371 1.88089 0
M  V30 6224 O 565.642 -0.971078 1.53101 0
M  V30 6225 C 565.69 2.3141 2.76554 0
M  V30 6226 O 564.794 1.75567 3.73162 0
M  V30 6227 H 564.135 0.482644 0.456016 0
M  V30 6228 H 566.665 1.84494 0.884478 0
M  V30 6229 H 566.675 2.46513 3.25108 0
M  V30 6230 H 565.35 3.33085 2.49053 0
M  V30 6231 H 563.927 1.69798 3.31999 0
M  V30 6232 N 566.112 -0.949982 1.2575 0
M  V30 6233 C 567.36 -1.6918 1.10555 0
M  V30 6234 C 567.681 -1.91773 -0.353298 0
M  V30 6235 O 566.951 -1.50814 -1.25027 0
M  V30 6236 H 565.531 -0.626952 0.406129 0
M  V30 6237 H 568.193 -1.1419 1.57945 0
M  V30 6238 H 567.289 -2.66915 1.61749 0
M  V30 6239 N 567.59 -1.07411 -1.15328 0
M  V30 6240 C 568.5 -0.706438 -2.23711 0
M  V30 6241 C 569.516 0.282586 -1.7169 0
M  V30 6242 O 570.692 0.129066 -2.00986 0
M  V30 6243 C 567.757 -0.11048 -3.46524 0
M  V30 6244 C 566.818 -1.15282 -4.13532 0
M  V30 6245 C 566.051 -0.585205 -5.30482 0
M  V30 6246 O 566.274 0.598549 -5.67251 0
M  V30 6247 O 565.208 -1.33039 -5.87013 0
M  V30 6248 H 569.034 -1.61031 -2.57493 0
M  V30 6249 H 566.619 -0.847113 -1.23062 0
M  V30 6250 H 568.501 0.21957 -4.20828 0
M  V30 6251 H 567.176 0.766703 -3.14489 0
M  V30 6252 H 566.083 -1.53523 -3.41147 0
M  V30 6253 H 567.416 -2.00192 -4.49649 0
M  V30 6254 N 569.068 1.32177 -0.85831 0
M  V30 6255 C 570.018 2.26307 -0.277307 0
M  V30 6256 C 571.002 1.50123 0.578946 0
M  V30 6257 O 572.194 1.71754 0.427731 0
M  V30 6258 C 569.323 3.39181 0.530232 0
M  V30 6259 C 568.409 4.22746 -0.338613 0
M  V30 6260 N 568.8 4.85265 -1.4266 0
M  V30 6261 C 567.098 4.45813 -0.129 0
M  V30 6262 C 567.799 5.47634 -1.96142 0
M  V30 6263 N 566.775 5.28794 -1.26007 0
M  V30 6264 H 570.577 2.72173 -1.10902 0
M  V30 6265 H 568.091 1.46308 -0.704816 0
M  V30 6266 H 570.088 4.05628 0.962904 0
M  V30 6267 H 568.748 2.9486 1.35969 0
M  V30 6268 H 569.759 4.85259 -1.80953 0
M  V30 6269 H 566.436 4.12163 0.665451 0
M  V30 6270 H 567.826 6.0735 -2.8736 0
M  V30 6271 N 570.547 0.616602 1.45037 0
M  V30 6272 C 571.497 -0.118543 2.27692 0
M  V30 6273 C 572.481 -0.830025 1.37838 0
M  V30 6274 O 573.673 -0.718528 1.6176 0
M  V30 6275 C 570.802 -1.10924 3.24886 0
M  V30 6276 C 569.888 -0.398134 4.22227 0
M  V30 6277 N 570.279 0.565233 5.02632 0
M  V30 6278 C 568.577 -0.644506 4.41319 0
M  V30 6279 C 569.278 0.984043 5.73316 0
M  V30 6280 N 568.254 0.325879 5.42622 0
M  V30 6281 H 572.056 0.621239 2.87259 0
M  V30 6282 H 569.57 0.440968 1.56299 0
M  V30 6283 H 571.567 -1.65038 3.82842 0
M  V30 6284 H 570.227 -1.84948 2.66879 0
M  V30 6285 H 571.238 0.942395 5.09254 0
M  V30 6286 H 567.915 -1.36873 3.94426 0
M  V30 6287 H 569.305 1.77911 6.47918 0
M  V30 6288 N 572.025 -1.5352 0.356285 0
M  V30 6289 C 573.436 -1.86282 -0.12492 0
M  V30 6290 C 573.787 -1.27717 -1.48939 0
M  V30 6291 O 572.912 -0.595614 -2.08042 0
M  V30 6292 C 573.507 -3.37995 -0.23345 0
M  V30 6293 C 572.066 -3.70588 -0.658899 0
M  V30 6294 C 571.213 -2.76581 0.199596 0
M  V30 6295 H 574.164 -1.47901 0.575423 0
M  V30 6296 H 574.185 -3.65475 -1.0587 0
M  V30 6297 H 573.697 -3.8059 0.759776 0
M  V30 6298 H 571.798 -3.33544 -1.66069 0
M  V30 6299 H 571.911 -4.77076 -0.439957 0
M  V30 6300 H 570.275 -2.52552 -0.330076 0
M  V30 6301 H 571.058 -3.22008 1.19019 0
M  V30 6302 N 573.503 -0.0852151 -1.57369 0
M  V30 6303 C 574.433 0.874556 -2.16503 0
M  V30 6304 C 575.414 1.30111 -1.09568 0
M  V30 6305 O 576.599 1.36977 -1.37662 0
M  V30 6306 C 573.729 2.13731 -2.73745 0
M  V30 6307 C 572.683 1.84971 -3.85966 0
M  V30 6308 C 572.009 3.17991 -4.29867 0
M  V30 6309 C 573.309 1.14442 -5.09608 0
M  V30 6310 H 575.003 0.381899 -2.96954 0
M  V30 6311 H 572.549 0.18225 -1.42842 0
M  V30 6312 H 574.502 2.81302 -3.13763 0
M  V30 6313 H 573.226 2.65263 -1.90534 0
M  V30 6314 H 571.885 1.19801 -3.46473 0
M  V30 6315 H 571.533 3.6739 -3.4356 0
M  V30 6316 H 571.233 2.99534 -5.05523 0
M  V30 6317 H 572.757 3.86737 -4.72511 0
M  V30 6318 H 574.171 1.72105 -5.46857 0
M  V30 6319 H 572.568 1.06197 -5.90629 0
M  V30 6320 H 573.638 0.12559 -4.84737 0
M  V30 6321 N 574.981 1.5647 0.188427 0
M  V30 6322 C 576.221 1.82803 0.914469 0
M  V30 6323 C 576.585 0.663681 1.80165 0
M  V30 6324 O 577.786 0.807059 2.56398 0
M  V30 6325 C 576.057 3.14187 1.70357 0
M  V30 6326 S 577.616 3.61947 2.48072 0
M  V30 6327 H 574.434 0.641497 0.306599 0
M  V30 6328 H 577.036 1.94694 0.177361 0
M  V30 6329 H 575.74 3.96937 1.04255 0
M  V30 6330 H 575.271 3.05192 2.48237 0
M  V30 6331 H 577.286 3.27913 3.72407 0
M  V30 6332 N 576.459 -0.456382 1.50847 0
M  V30 6333 C 577.875 -0.791345 1.386 0
M  V30 6334 C 578.075 -1.9633 0.453498 0
M  V30 6335 O 577.131 -2.52308 -0.0984353 0
M  V30 6336 C 578.444 -1.08959 2.80265 0
M  V30 6337 C 579.992 -1.19517 2.89283 0
M  V30 6338 C 580.467 -1.52647 4.31814 0
M  V30 6339 N 581.958 -1.59609 4.34832 0
M  V30 6340 C 582.693 -1.86777 5.42127 0
M  V30 6341 N 582.189 -2.11866 6.59609 0
M  V30 6342 N 583.982 -1.88402 5.29586 0
M  V30 6343 H 576.133 0.315746 2.1004 0
M  V30 6344 H 578.396 0.0787916 0.94472 0
M  V30 6345 H 578.102 -0.301355 3.50407 0
M  V30 6346 H 577.976 -2.02211 3.18419 0
M  V30 6347 H 580.363 -1.97406 2.19351 0
M  V30 6348 H 580.444 -0.242111 2.54652 0
M  V30 6349 H 580.088 -0.752922 5.02288 0
M  V30 6350 H 580.018 -2.49127 4.63943 0
M  V30 6351 H 582.509 -1.42201 3.50125 0
M  V30 6352 H 582.822 -2.31912 7.37182 0
M  V30 6353 H 581.167 -2.09228 6.62758 0
M  V30 6354 H 584.358 -1.68307 4.36795 0
M  V30 6355 H 584.531 -2.09238 6.13289 0
M  V30 6356 N 577.937 -1.40673 -0.710563 0
M  V30 6357 C 578.887 -1.37812 -1.81636 0
M  V30 6358 C 579.871 -0.254853 -1.58869 0
M  V30 6359 O 581.063 -0.494356 -1.69956 0
M  V30 6360 C 578.192 -1.24802 -3.19811 0
M  V30 6361 C 577.278 -2.41931 -3.48325 0
M  V30 6362 N 577.669 -3.67411 -3.47625 0
M  V30 6363 C 575.967 -2.35419 -3.78806 0
M  V30 6364 C 576.668 -4.45008 -3.74623 0
M  V30 6365 N 575.644 -3.74916 -3.93623 0
M  V30 6366 H 579.446 -2.32766 -1.79436 0
M  V30 6367 H 576.96 -1.34516 -0.909909 0
M  V30 6368 H 578.957 -1.20835 -3.99004 0
M  V30 6369 H 577.617 -0.308202 -3.23234 0
M  V30 6370 H 578.628 -4.00503 -3.28356 0
M  V30 6371 H 575.305 -1.4983 -3.89689 0
M  V30 6372 H 576.695 -5.53884 -3.80344 0
M  V30 6373 N 579.415 0.9433 -1.26252 0
M  V30 6374 C 580.643 1.72367 -1.14443 0
M  V30 6375 C 581.058 1.86392 0.300572 0
M  V30 6376 O 580.415 1.36978 1.20596 0
M  V30 6377 C 580.466 3.13155 -1.806 0
M  V30 6378 O 580.187 2.99803 -3.19452 0
M  V30 6379 C 581.688 4.07417 -1.74717 0
M  V30 6380 H 578.908 0.539758 -0.398626 0
M  V30 6381 H 581.452 1.18268 -1.66832 0
M  V30 6382 H 579.607 3.64162 -1.32154 0
M  V30 6383 H 580.021 3.88697 -3.52158 0
M  V30 6384 H 581.495 5.03773 -2.25647 0
M  V30 6385 H 581.972 4.3337 -0.713244 0
M  V30 6386 H 582.578 3.6233 -2.22704 0
M  V30 6387 N 580.893 1.08022 1.14757 0
M  V30 6388 C 581.843 0.676345 2.17737 0
M  V30 6389 C 582.827 -0.302018 1.5804 0
M  V30 6390 O 584.019 -0.11466 1.76628 0
M  V30 6391 C 581.148 0.082984 3.432 0
M  V30 6392 C 580.234 1.0869 4.09936 0
M  V30 6393 N 580.625 2.26891 4.52055 0
M  V30 6394 C 578.923 0.921768 4.36371 0
M  V30 6395 C 579.624 2.90636 5.0389 0
M  V30 6396 N 578.6 2.18266 4.97856 0
M  V30 6397 H 582.402 1.5765 2.4804 0
M  V30 6398 H 579.916 0.954374 1.31398 0
M  V30 6399 H 581.913 -0.224289 4.16296 0
M  V30 6400 H 580.573 -0.812206 3.14378 0
M  V30 6401 H 581.584 2.6457 4.45223 0
M  V30 6402 H 578.261 0.0800499 4.17423 0
M  V30 6403 H 579.651 3.9104 5.46386 0
M  V30 6404 N 582.371 -1.3172 0.865308 0
M  V30 6405 C 583.319 -2.30569 0.306674 0
M  V30 6406 C 584.313 -1.59317 -0.575724 0
M  V30 6407 O 585.519 -1.73961 -0.462343 0
M  V30 6408 H 581.894 -0.747681 0.0804834 0
M  V30 6409 H 583.865 -2.75165 1.15441 0
M  V30 6410 C 582.614 -3.44358 -0.480952 0
M  V30 6411 H 581.937 -3.99354 0.18876 0
M  V30 6412 H 583.377 -4.15652 -0.837241 0
M  V30 6413 C 581.836 -2.92574 -1.67039 0
M  V30 6414 O 582.366 -2.90954 -2.76964 0
M  V30 6415 N 580.572 -2.48835 -1.50097 0
M  V30 6416 H 580.119 -2.50353 -0.606738 0
M  V30 6417 H 580.077 -2.14543 -2.29823 0
M  V30 6418 N 583.85 -0.624285 -1.44708 0
M  V30 6419 C 584.782 0.12305 -2.28869 0
M  V30 6420 C 585.795 0.81557 -1.40898 0
M  V30 6421 O 586.984 0.678162 -1.65116 0
M  V30 6422 C 584.084 1.19612 -3.1709 0
M  V30 6423 C 583.257 0.587452 -4.33437 0
M  V30 6424 C 582.316 1.55358 -5.02743 0
M  V30 6425 O 581.341 1.07338 -5.58988 0
M  V30 6426 N 582.543 2.88798 -5.03563 0
M  V30 6427 H 585.308 -0.599193 -2.93649 0
M  V30 6428 H 582.87 -0.464954 -1.5508 0
M  V30 6429 H 584.861 1.84261 -3.60319 0
M  V30 6430 H 583.432 1.82067 -2.54107 0
M  V30 6431 H 582.652 -0.237509 -3.93484 0
M  V30 6432 H 583.94 0.161326 -5.08544 0
M  V30 6433 H 583.338 3.30399 -4.59188 0
M  V30 6434 H 581.894 3.48826 -5.50603 0
M  V30 6435 N 585.328 1.53329 -0.364422 0
M  V30 6436 C 586.605 1.93557 0.281962 0
M  V30 6437 C 586.985 1.29786 1.6649 0
M  V30 6438 O 586.333 0.456512 2.23893 0
M  V30 6439 C 586.543 3.47405 0.333331 0
M  V30 6440 C 587.891 4.20699 0.574231 0
M  V30 6441 O 588.915 3.53779 0.414588 0
M  V30 6442 O 587.774 5.39287 0.885002 0
M  V30 6443 H 584.868 0.809573 0.168881 0
M  V30 6444 H 587.414 1.64494 -0.417121 0
M  V30 6445 H 586.186 3.86091 -0.636326 0
M  V30 6446 H 585.809 3.82697 1.07836 0
M  V30 6447 N 586.806 0.0935595 1.57322 0
M  V30 6448 C 588.031 -0.582324 1.99057 0
M  V30 6449 C 588.456 -1.61025 0.972242 0
M  V30 6450 O 587.814 -1.81202 -0.0594622 0
M  V30 6451 C 587.862 -1.20799 3.39765 0
M  V30 6452 O 586.966 -2.32382 3.40694 0
M  V30 6453 H 586.307 -0.147884 0.647323 0
M  V30 6454 H 588.837 0.174516 2.03854 0
M  V30 6455 H 588.847 -1.54966 3.77425 0
M  V30 6456 H 587.522 -0.454914 4.13405 0
M  V30 6457 H 586.099 -1.99845 3.14827 0
M  V30 6458 N 588.284 -1.56567 -0.180126 0
M  V30 6459 C 589.524 -1.83285 -0.904761 0
M  V30 6460 C 589.888 -0.673226 -1.7981 0
M  V30 6461 O 591.089 -0.820645 -2.55967 0
M  V30 6462 C 589.36 -3.15086 -1.68688 0
M  V30 6463 S 590.919 -3.63258 -2.46149 0
M  V30 6464 H 587.737 -0.643114 -0.303193 0
M  V30 6465 H 590.339 -1.94785 -0.167034 0
M  V30 6466 H 589.043 -3.97484 -1.02148 0
M  V30 6467 H 588.574 -3.06504 -2.46615 0
M  V30 6468 H 590.589 -3.29884 -3.70663 0
M  V30 6469 N 589.762 0.448376 -1.51087 0
M  V30 6470 C 591.178 0.783984 -1.39017 0
M  V30 6471 C 591.378 1.96087 -0.463904 0
M  V30 6472 O 590.434 2.52357 0.0850534 0
M  V30 6473 C 591.747 1.07471 -2.80839 0
M  V30 6474 C 593.295 1.17981 -2.89913 0
M  V30 6475 C 593.77 1.50354 -4.32617 0
M  V30 6476 N 595.261 1.57301 -4.35673 0
M  V30 6477 C 595.996 1.839 -5.4311 0
M  V30 6478 N 595.492 2.08365 -6.60724 0
M  V30 6479 N 597.285 1.8559 -5.30578 0
M  V30 6480 H 589.436 -0.326881 -2.0987 0
M  V30 6481 H 591.699 -0.0838006 -0.944289 0
M  V30 6482 H 591.405 0.282768 -3.50561 0
M  V30 6483 H 591.279 2.00519 -3.19487 0
M  V30 6484 H 593.666 1.9624 -2.20395 0
M  V30 6485 H 593.747 0.228603 -2.54776 0
M  V30 6486 H 593.391 0.726273 -5.0268 0
M  V30 6487 H 593.321 2.46663 -4.65258 0
M  V30 6488 H 595.812 1.40342 -3.50874 0
M  V30 6489 H 596.125 2.27999 -7.38401 0
M  V30 6490 H 594.47 2.0571 -6.63859 0
M  V30 6491 H 597.661 1.65989 -4.37682 0
M  V30 6492 H 597.834 2.05983 -6.1439 0
M  V30 6493 N 591.24 1.41047 0.703093 0
M  V30 6494 C 592.656 1.23351 1.01275 0
M  V30 6495 C 592.856 0.11754 2.01157 0
M  V30 6496 O 591.912 -0.520518 2.47077 0
M  V30 6497 C 593.225 2.58001 1.54454 0
M  V30 6498 C 594.773 2.65119 1.66376 0
M  V30 6499 C 595.248 4.00067 2.22958 0
M  V30 6500 N 596.739 4.01875 2.30328 0
M  V30 6501 C 597.474 5.03087 2.75119 0
M  V30 6502 N 596.97 6.14692 3.19571 0
M  V30 6503 N 598.763 4.90451 2.74616 0
M  V30 6504 H 590.914 2.1236 0.0412686 0
M  V30 6505 H 593.177 0.944543 0.08089 0
M  V30 6506 H 592.883 3.40378 0.88521 0
M  V30 6507 H 592.757 2.79962 2.52786 0
M  V30 6508 H 595.144 1.83106 2.31422 0
M  V30 6509 H 595.225 2.46975 0.666089 0
M  V30 6510 H 594.869 4.82526 1.58529 0
M  V30 6511 H 594.799 4.15547 3.23462 0
M  V30 6512 H 597.29 3.21291 1.98949 0
M  V30 6513 H 597.603 6.87799 3.52352 0
M  V30 6514 H 595.948 6.18239 3.17498 0
M  V30 6515 H 599.139 4.0235 2.39233 0
M  V30 6516 H 599.312 5.6947 3.09206 0
M  V30 6517 N 592.718 -0.936591 1.26751 0
M  V30 6518 C 593.964 -1.6858 1.12733 0
M  V30 6519 C 594.297 -1.91414 -0.327745 0
M  V30 6520 O 593.572 -1.49812 -1.24043 0
M  V30 6521 C 593.855 -3.05779 1.90187 0
M  V30 6522 C 593.708 -2.90242 3.43627 0
M  V30 6523 C 595.027 -4.0597 1.69931 0
M  V30 6524 H 592.146 -0.61182 0.410908 0
M  V30 6525 H 594.788 -1.08747 1.55801 0
M  V30 6526 H 592.938 -3.56853 1.53584 0
M  V30 6527 H 594.61 -2.46354 3.9001 0
M  V30 6528 H 592.853 -2.2577 3.70419 0
M  V30 6529 H 593.524 -3.87572 3.93055 0
M  V30 6530 H 596 -3.63874 2.0183 0
M  V30 6531 H 594.876 -4.99974 2.26534 0
M  V30 6532 H 595.137 -4.37369 0.64502 0
M  V30 6533 N 594.196 -1.08629 -1.14182 0
M  V30 6534 C 595.612 -0.814363 -1.3726 0
M  V30 6535 C 595.812 0.575271 -1.93114 0
M  V30 6536 O 594.868 1.33165 -2.1453 0
M  V30 6537 C 596.181 -1.8989 -2.33157 0
M  V30 6538 C 597.729 -1.92518 -2.46791 0
M  V30 6539 C 598.204 -3.00092 -3.45989 0
M  V30 6540 N 599.695 -2.99279 -3.53534 0
M  V30 6541 C 600.43 -3.79158 -4.30147 0
M  V30 6542 N 599.926 -4.68923 -5.09983 0
M  V30 6543 N 601.719 -3.67451 -4.25366 0
M  V30 6544 H 593.87 -1.98232 -0.762758 0
M  V30 6545 H 596.133 -0.860383 -0.398051 0
M  V30 6546 H 595.839 -2.89809 -1.99257 0
M  V30 6547 H 595.713 -1.77013 -3.33086 0
M  V30 6548 H 598.1 -0.932425 -2.79982 0
M  V30 6549 H 598.181 -2.09473 -1.46816 0
M  V30 6550 H 597.825 -3.99575 -3.13532 0
M  V30 6551 H 597.755 -2.80382 -4.45751 0
M  V30 6552 H 600.246 -2.3422 -2.96563 0
M  V30 6553 H 600.559 -5.26475 -5.65724 0
M  V30 6554 H 598.904 -4.72964 -5.09244 0
M  V30 6555 H 602.095 -2.9669 -3.62067 0
M  V30 6556 H 602.268 -4.29944 -4.84822 0
M  V30 6557 N 595.674 1.31259 -0.872281 0
M  V30 6558 C 596.923 1.95893 -0.480493 0
M  V30 6559 C 597.236 1.697 0.972688 0
M  V30 6560 O 598.442 2.28214 1.47073 0
M  V30 6561 C 596.898 3.50705 -0.808342 0
M  V30 6562 C 596.506 3.85735 -2.27844 0
M  V30 6563 C 598.25 4.21719 -0.485136 0
M  V30 6564 C 596.157 5.33668 -2.54858 0
M  V30 6565 H 595.087 0.733182 -0.175955 0
M  V30 6566 H 597.738 1.49396 -1.0655 0
M  V30 6567 H 596.12 3.95706 -0.152558 0
M  V30 6568 H 597.294 3.51686 -2.97748 0
M  V30 6569 H 595.609 3.27792 -2.56791 0
M  V30 6570 H 598.206 5.30559 -0.664166 0
M  V30 6571 H 598.549 4.12316 0.574592 0
M  V30 6572 H 599.082 3.82359 -1.09756 0
M  V30 6573 H 595.821 5.48109 -3.59523 0
M  V30 6574 H 595.341 5.69061 -1.8955 0
M  V30 6575 H 597.02 6.00958 -2.39706 0
M  V30 6576 N 597.152 0.631951 1.44375 0
M  V30 6577 C 598.084 -0.110911 2.28931 0
M  V30 6578 C 599.097 -0.808086 1.41329 0
M  V30 6579 O 600.286 -0.669396 1.65473 0
M  V30 6580 C 597.386 -1.17928 3.1772 0
M  V30 6581 C 596.559 -0.564458 4.33743 0
M  V30 6582 C 595.618 -1.5269 5.0356 0
M  V30 6583 O 594.644 -1.04372 5.59549 0
M  V30 6584 N 595.846 -2.86123 5.05088 0
M  V30 6585 H 598.611 0.614758 2.93327 0
M  V30 6586 H 596.172 0.473171 1.54831 0
M  V30 6587 H 598.164 -1.82348 3.61291 0
M  V30 6588 H 596.734 -1.80717 2.55069 0
M  V30 6589 H 595.954 0.258373 3.93352 0
M  V30 6590 H 597.242 -0.134355 5.08623 0
M  V30 6591 H 596.64 -3.27959 4.60933 0
M  V30 6592 H 595.197 -3.45901 5.52445 0
M  V30 6593 N 598.631 -1.53133 0.372548 0
M  V30 6594 C 599.856 -2.0625 -0.218098 0
M  V30 6595 C 600.281 -1.24375 -1.41111 0
M  V30 6596 O 599.639 -0.264554 -1.79359 0
M  V30 6597 C 599.687 -3.55858 -0.582876 0
M  V30 6598 O 598.791 -3.76667 -1.67917 0
M  V30 6599 H 598.132 -0.663317 -0.030104 0
M  V30 6600 H 600.662 -1.97477 0.535169 0
M  V30 6601 H 600.672 -3.99007 -0.851925 0
M  V30 6602 H 599.347 -4.14892 0.289428 0
M  V30 6603 H 597.924 -3.45413 -1.40513 0
M  V30 6604 N 600.109 -0.101901 -1.5727 0
M  V30 6605 C 601.386 0.602832 -1.86079 0
M  V30 6606 C 601.766 1.85912 -1 0
M  V30 6607 O 601.114 2.28379 -0.0742488 0
M  V30 6608 C 601.324 0.911694 -3.36881 0
M  V30 6609 C 602.672 1.2722 -4.05093 0
M  V30 6610 O 603.696 1.0025 -3.41802 0
M  V30 6611 O 602.555 1.7776 -5.16782 0
M  V30 6612 H 599.649 0.302366 -0.769743 0
M  V30 6613 H 602.195 -0.135113 -1.69161 0
M  V30 6614 H 600.967 0.0207256 -3.91295 0
M  V30 6615 H 600.59 1.70538 -3.59169 0
M  V30 6616 N 601.587 1.56661 0.17182 0
M  V30 6617 C 602.497 1.99604 1.2327 0
M  V30 6618 C 603.513 0.907333 1.4847 0
M  V30 6619 O 604.689 1.21492 1.60629 0
M  V30 6620 C 601.754 2.34685 2.55194 0
M  V30 6621 C 600.815 3.57381 2.3786 0
M  V30 6622 C 600.048 3.90779 3.63494 0
M  V30 6623 O 600.271 3.25152 4.6865 0
M  V30 6624 O 599.205 4.84129 3.57634 0
M  V30 6625 H 603.031 2.90114 0.898192 0
M  V30 6626 H 600.616 1.44522 0.378647 0
M  V30 6627 H 602.498 2.5822 3.33017 0
M  V30 6628 H 601.173 1.47336 2.88225 0
M  V30 6629 H 600.08 3.39064 1.5807 0
M  V30 6630 H 601.413 4.45268 2.09754 0
M  V30 6631 N 603.065 -0.440357 1.51323 0
M  V30 6632 C 603.995 -1.54174 1.75364 0
M  V30 6633 C 604.976 -1.59039 0.603375 0
M  V30 6634 O 606.161 -1.74815 0.845774 0
M  V30 6635 C 603.291 -2.92277 1.87593 0
M  V30 6636 C 602.245 -3.02274 3.03009 0
M  V30 6637 C 601.571 -4.42327 3.00418 0
M  V30 6638 C 602.871 -2.76634 4.43024 0
M  V30 6639 H 604.565 -1.34307 2.67585 0
M  V30 6640 H 602.111 -0.644678 1.28763 0
M  V30 6641 H 604.064 -3.69284 2.02995 0
M  V30 6642 H 602.788 -3.13369 0.920179 0
M  V30 6643 H 601.447 -2.27706 2.87307 0
M  V30 6644 H 601.095 -4.60382 2.02626 0
M  V30 6645 H 600.795 -4.49946 3.77918 0
M  V30 6646 H 602.319 -5.21312 3.17909 0
M  V30 6647 H 603.733 -3.43376 4.59093 0
M  V30 6648 H 602.13 -2.95666 5.22208 0
M  V30 6649 H 603.2 -1.72262 4.5327 0
M  V30 6650 N 604.543 -1.41418 -0.695603 0
M  V30 6651 C 605.82 -1.31264 -1.45014 0
M  V30 6652 C 606.2 0.0597994 -2.11015 0
M  V30 6653 O 605.548 1.07403 -2.01685 0
M  V30 6654 C 605.758 -2.466 -2.4696 0
M  V30 6655 C 607.106 -2.87763 -3.12214 0
M  V30 6656 O 608.13 -2.46339 -2.57285 0
M  V30 6657 O 606.989 -3.59395 -4.11701 0
M  V30 6658 H 604.083 -0.516576 -0.645816 0
M  V30 6659 H 606.629 -1.53382 -0.726084 0
M  V30 6660 H 605.401 -3.38183 -1.96845 0
M  V30 6661 H 605.024 -2.26358 -3.26876 0
M  V30 6662 N 606.021 0.929856 -1.27246 0
M  V30 6663 C 607.298 1.65544 -1.04186 0
M  V30 6664 C 607.678 2.06796 0.424097 0
M  V30 6665 O 607.026 1.80053 1.40688 0
M  V30 6666 C 607.236 2.85912 -2.00138 0
M  V30 6667 C 608.584 3.57305 -2.29387 0
M  V30 6668 O 609.608 2.96036 -1.98094 0
M  V30 6669 O 608.467 4.67688 -2.82719 0
M  V30 6670 H 605.561 0.725473 -0.397011 0
M  V30 6671 H 608.107 0.980583 -1.38501 0
M  V30 6672 H 606.879 2.52403 -2.99013 0
M  V30 6673 H 606.502 3.61118 -1.66371 0
M  V30 6674 N 607.499 1.09233 1.13605 0
M  V30 6675 C 608.409 0.741939 2.22559 0
M  V30 6676 C 609.425 -0.255236 1.72118 0
M  V30 6677 O 610.601 -0.0970747 2.01166 0
M  V30 6678 C 607.666 0.165595 3.46304 0
M  V30 6679 C 606.727 1.21846 4.11645 0
M  V30 6680 C 605.96 0.669526 5.29484 0
M  V30 6681 O 606.183 -0.508228 5.68131 0
M  V30 6682 O 605.117 1.42361 5.84822 0
M  V30 6683 H 608.943 1.65107 2.54899 0
M  V30 6684 H 606.528 0.866584 1.21699 0
M  V30 6685 H 608.41 -0.152592 4.21124 0
M  V30 6686 H 607.085 -0.716573 3.15669 0
M  V30 6687 H 605.992 1.58931 3.38662 0
M  V30 6688 H 607.325 2.07321 4.46407 0
M  V30 6689 N 608.977 -1.30795 0.87923 0
M  V30 6690 C 609.907 -2.30742 0.357796 0
M  V30 6691 C 610.888 -1.60747 -0.556283 0
M  V30 6692 O 612.073 -1.88393 -0.47135 0
M  V30 6693 C 609.203 -3.44583 -0.433555 0
M  V30 6694 C 608.157 -4.26235 0.388251 0
M  V30 6695 C 607.483 -5.32073 -0.529352 0
M  V30 6696 C 608.783 -4.96303 1.62729 0
M  V30 6697 H 610.477 -2.74605 1.19299 0
M  V30 6698 H 608.023 -1.32017 0.575104 0
M  V30 6699 H 609.976 -4.13563 -0.808934 0
M  V30 6700 H 608.7 -2.99511 -1.30234 0
M  V30 6701 H 607.359 -3.58936 0.745695 0
M  V30 6702 H 607.007 -4.83249 -1.39569 0
M  V30 6703 H 606.707 -5.87598 0.0166741 0
M  V30 6704 H 608.231 -6.0391 -0.901373 0
M  V30 6705 H 609.645 -5.5783 1.32283 0
M  V30 6706 H 608.042 -5.61666 2.11309 0
M  V30 6707 H 609.112 -4.22758 2.37494 0
M  V30 6708 N 610.455 -0.639598 -1.44038 0
M  V30 6709 C 611.68 -0.153117 -2.06834 0
M  V30 6710 C 612.105 1.16676 -1.47541 0
M  V30 6711 O 611.463 1.71769 -0.580093 0
M  V30 6712 C 611.511 -0.0609169 -3.60549 0
M  V30 6713 O 610.615 0.98071 -4.00569 0
M  V30 6714 H 609.956 -0.0886402 -0.658057 0
M  V30 6715 H 612.486 -0.878674 -1.84771 0
M  V30 6716 H 612.496 0.126892 -4.07803 0
M  V30 6717 H 611.171 -1.0245 -4.03084 0
M  V30 6718 H 609.748 0.766789 -3.64931 0
M  V30 6719 N 611.933 1.52934 -0.380664 0
M  V30 6720 C 613.344 1.86457 0.0952684 0
M  V30 6721 C 613.695 1.3007 1.46889 0
M  V30 6722 O 612.82 0.628636 2.07068 0
M  V30 6723 C 613.415 3.38323 0.179648 0
M  V30 6724 C 611.974 3.71589 0.599858 0
M  V30 6725 C 611.121 2.76228 -0.243572 0
M  V30 6726 H 614.072 1.46966 -0.59888 0
M  V30 6727 H 614.093 3.67113 1.00042 0
M  V30 6728 H 613.605 3.79333 -0.820228 0
M  V30 6729 H 611.706 3.36144 1.60742 0
M  V30 6730 H 611.819 4.77715 0.364003 0
M  V30 6731 H 610.183 2.53045 0.289855 0
M  V30 6732 H 610.966 3.20074 -1.24127 0
M  V30 6733 N 613.412 0.11024 1.57214 0
M  V30 6734 C 614.322 -0.857077 2.18383 0
M  V30 6735 C 615.338 -1.29915 1.1575 0
M  V30 6736 O 616.514 -1.36394 1.48184 0
M  V30 6737 C 613.579 -2.09264 2.76423 0
M  V30 6738 C 612.64 -1.70333 3.94063 0
M  V30 6739 C 611.873 -2.87999 4.49324 0
M  V30 6740 O 612.096 -4.0317 4.03497 0
M  V30 6741 O 611.03 -2.6559 5.40135 0
M  V30 6742 H 614.856 -0.366561 3.0148 0
M  V30 6743 H 612.441 -0.114914 1.48957 0
M  V30 6744 H 614.323 -2.81644 3.13456 0
M  V30 6745 H 612.998 -2.57339 1.96363 0
M  V30 6746 H 611.905 -0.950864 3.61814 0
M  V30 6747 H 613.238 -1.27007 4.75531 0
M  V30 6748 N 614.89 -1.56749 -0.16351 0
M  V30 6749 C 615.853 -1.96121 -1.18613 0
M  V30 6750 C 616.853 -0.845765 -1.36761 0
M  V30 6751 O 618.043 -1.11268 -1.34033 0
M  V30 6752 C 615.175 -2.26282 -2.54969 0
M  V30 6753 H 616.368 -2.87639 -0.848764 0
M  V30 6754 H 613.921 -1.50928 -0.406251 0
M  V30 6755 H 614.656 -1.37504 -2.93706 0
M  V30 6756 H 614.441 -3.07595 -2.43162 0
M  V30 6757 H 615.931 -2.57638 -3.28653 0
M  V30 6758 N 616.368 0.432326 -1.51554 0
M  V30 6759 C 617.3 1.54357 -1.6943 0
M  V30 6760 C 618.313 1.52311 -0.574897 0
M  V30 6761 O 619.502 1.56997 -0.849369 0
M  V30 6762 C 616.602 2.93273 -1.69836 0
M  V30 6763 C 615.775 3.19768 -2.98442 0
M  V30 6764 C 614.834 4.38433 -2.90969 0
M  V30 6765 O 613.86 4.36842 -3.64908 0
M  V30 6766 N 615.062 5.42276 -2.07163 0
M  V30 6767 H 617.827 1.39426 -2.65293 0
M  V30 6768 H 615.388 0.621331 -1.49503 0
M  V30 6769 H 617.38 3.70687 -1.62399 0
M  V30 6770 H 615.95 3.01777 -0.815456 0
M  V30 6771 H 615.17 2.30607 -3.19709 0
M  V30 6772 H 616.458 3.343 -3.83563 0
M  V30 6773 H 615.856 5.46407 -1.46477 0
M  V30 6774 H 614.413 6.18524 -2.05601 0
M  V30 6775 N 617.846 1.41785 0.688094 0
M  V30 6776 C 619.262 1.24419 0.999608 0
M  V30 6777 C 619.462 0.138868 2.01021 0
M  V30 6778 O 618.518 -0.494283 2.47615 0
M  V30 6779 C 619.831 2.59625 1.51709 0
M  V30 6780 C 621.379 2.66869 1.63554 0
M  V30 6781 C 621.854 4.0241 2.18702 0
M  V30 6782 N 623.345 4.04295 2.26053 0
M  V30 6783 C 624.08 5.05977 2.69768 0
M  V30 6784 N 623.576 6.18047 3.13033 0
M  V30 6785 N 625.369 4.93336 2.69398 0
M  V30 6786 H 617.52 2.12392 0.0187427 0
M  V30 6787 H 619.783 0.945347 0.0708673 0
M  V30 6788 H 619.489 3.41297 0.849059 0
M  V30 6789 H 619.363 2.82628 2.49803 0
M  V30 6790 H 621.75 1.8555 2.29467 0
M  V30 6791 H 621.831 2.47668 0.639857 0
M  V30 6792 H 621.475 4.8418 1.53402 0
M  V30 6793 H 621.405 4.18955 3.19037 0
M  V30 6794 H 623.896 3.23383 1.9553 0
M  V30 6795 H 624.209 6.91498 3.45038 0
M  V30 6796 H 622.554 6.21572 3.10923 0
M  V30 6797 H 625.745 4.04865 2.34952 0
M  V30 6798 H 625.918 5.72717 3.03148 0
M  V30 6799 N 619.324 -0.923095 1.27737 0
M  V30 6800 C 620.287 -2.00587 1.10894 0
M  V30 6801 C 621.287 -1.60718 0.0514927 0
M  V30 6802 O 622.477 -1.71658 0.296481 0
M  V30 6803 C 619.609 -3.33829 0.690717 0
M  V30 6804 H 620.802 -2.16959 2.07048 0
M  V30 6805 H 618.355 -1.10451 1.1059 0
M  V30 6806 H 619.09 -3.23157 -0.272 0
M  V30 6807 H 618.875 -3.64125 1.45448 0
M  V30 6808 H 620.365 -4.13336 0.595252 0
M  V30 6809 N 620.802 -1.09834 -1.13024 0
M  V30 6810 C 622.051 -0.831806 -1.83749 0
M  V30 6811 C 622.364 0.644763 -1.84668 0
M  V30 6812 O 623.57 1.02697 -2.51327 0
M  V30 6813 C 622.026 -1.43817 -3.29916 0
M  V30 6814 C 621.634 -2.94759 -3.37374 0
M  V30 6815 C 623.378 -1.25077 -4.05655 0
M  V30 6816 C 621.285 -3.48461 -4.77838 0
M  V30 6817 H 620.215 -0.30751 -0.688443 0
M  V30 6818 H 622.866 -1.32156 -1.27307 0
M  V30 6819 H 621.248 -0.876106 -3.86187 0
M  V30 6820 H 622.422 -3.57228 -2.91076 0
M  V30 6821 H 620.737 -3.12581 -2.75103 0
M  V30 6822 H 623.334 -1.62649 -5.09362 0
M  V30 6823 H 623.677 -0.191782 -4.15858 0
M  V30 6824 H 624.21 -1.78057 -3.55725 0
M  V30 6825 H 620.949 -4.53998 -4.72828 0
M  V30 6826 H 620.469 -2.90757 -5.24615 0
M  V30 6827 H 622.148 -3.45914 -5.46766 0
M  V30 6828 N 622.28 1.30327 -0.886154 0
M  V30 6829 C 623.557 1.90922 -0.425217 0
M  V30 6830 C 623.937 1.80533 1.09413 0
M  V30 6831 O 623.285 1.2233 1.92996 0
M  V30 6832 C 623.495 3.36529 -0.924638 0
M  V30 6833 C 624.843 4.13598 -0.960305 0
M  V30 6834 O 625.867 3.45377 -0.871382 0
M  V30 6835 O 624.726 5.35482 -1.09184 0
M  V30 6836 H 621.82 0.81668 -0.130238 0
M  V30 6837 H 624.366 1.38886 -0.975132 0
M  V30 6838 H 623.138 3.38181 -1.96849 0
M  V30 6839 H 622.761 3.96021 -0.353955 0
M  V30 6840 N 623.758 0.647228 1.43697 0
M  V30 6841 C 624.721 -0.0385101 2.29168 0
M  V30 6842 C 625.721 -0.756487 1.41894 0
M  V30 6843 O 626.911 -0.598641 1.63591 0
M  V30 6844 C 624.043 -1.06524 3.23829 0
M  V30 6845 H 625.236 0.713445 2.9129 0
M  V30 6846 H 622.789 0.408153 1.50877 0
M  V30 6847 H 623.524 -1.84664 2.66589 0
M  V30 6848 H 623.309 -0.554147 3.88164 0
M  V30 6849 H 624.799 -1.54432 3.87996 0
M  V30 6850 N 625.236 -1.5273 0.388769 0
M  V30 6851 C 626.485 -2.00757 -0.194833 0
M  V30 6852 C 626.798 -1.27951 -1.47946 0
M  V30 6853 O 628.004 -1.66686 -2.14308 0
M  V30 6854 C 626.46 -3.57695 -0.397762 0
M  V30 6855 C 626.068 -4.394 0.873583 0
M  V30 6856 C 627.812 -4.14012 -0.937759 0
M  V30 6857 C 625.719 -5.87938 0.638962 0
M  V30 6858 H 624.649 -0.750101 -0.0765845 0
M  V30 6859 H 627.3 -1.76239 0.511086 0
M  V30 6860 H 625.682 -3.7846 -1.16552 0
M  V30 6861 H 626.856 -4.30403 1.64591 0
M  V30 6862 H 625.171 -3.94301 1.33849 0
M  V30 6863 H 627.768 -5.22645 -1.12899 0
M  V30 6864 H 628.111 -3.7007 -1.90666 0
M  V30 6865 H 628.644 -3.97137 -0.229588 0
M  V30 6866 H 625.383 -6.36202 1.57885 0
M  V30 6867 H 624.903 -5.99726 -0.094443 0
M  V30 6868 H 626.582 -6.46423 0.273299 0
M  V30 6869 N 626.714 -0.118576 -1.57153 0
M  V30 6870 C 627.624 0.845484 -2.18835 0
M  V30 6871 C 628.64 1.29299 -1.16438 0
M  V30 6872 O 629.816 1.35607 -1.48905 0
M  V30 6873 C 626.881 2.07795 -2.77529 0
M  V30 6874 C 625.942 1.6824 -3.9496 0
M  V30 6875 C 625.175 2.85612 -4.50845 0
M  V30 6876 O 625.398 4.01025 -4.05629 0
M  V30 6877 O 624.332 2.62721 -5.41536 0
M  V30 6878 H 628.158 0.350568 -3.0167 0
M  V30 6879 H 625.743 0.107013 -1.49016 0
M  V30 6880 H 627.625 2.79978 -3.14945 0
M  V30 6881 H 626.3 2.56294 -1.97725 0
M  V30 6882 H 625.207 0.931663 -3.62313 0
M  V30 6883 H 626.54 1.24484 -4.76198 0
M  V30 6884 N 628.193 1.56834 0.155195 0
M  V30 6885 C 629.44 1.82898 0.869179 0
M  V30 6886 C 629.768 0.698194 1.81537 0
M  V30 6887 O 629.023 -0.313404 1.93174 0
M  V30 6888 C 629.322 3.15239 1.68402 0
M  V30 6889 C 628.988 4.42123 0.885341 0
M  V30 6890 C 627.65 4.76583 0.664971 0
M  V30 6891 C 630.002 5.20178 0.326234 0
M  V30 6892 C 627.33 5.86566 -0.125346 0
M  V30 6893 C 629.682 6.3099 -0.45108 0
M  V30 6894 C 628.346 6.64006 -0.682102 0
M  V30 6895 H 627.616 0.66927 0.318055 0
M  V30 6896 H 630.263 1.91036 0.133241 0
M  V30 6897 H 628.568 3.02515 2.48982 0
M  V30 6898 H 630.265 3.32618 2.23978 0
M  V30 6899 H 626.855 4.15102 1.06716 0
M  V30 6900 H 631.039 4.93936 0.483787 0
M  V30 6901 H 626.295 6.10594 -0.313915 0
M  V30 6902 H 630.469 6.9067 -0.89149 0
M  V30 6903 H 628.096 7.49065 -1.29636 0
M  V30 6904 N 629.671 -0.424282 1.51781 0
M  V30 6905 C 630.92 -1.16961 1.64326 0
M  V30 6906 C 631.233 -1.92035 0.371749 0
M  V30 6907 O 632.439 -2.68873 0.37676 0
M  V30 6908 C 630.895 -2.12782 2.90262 0
M  V30 6909 C 630.503 -1.43295 4.24465 0
M  V30 6910 C 632.247 -2.87667 3.12166 0
M  V30 6911 C 630.154 -2.37676 5.41538 0
M  V30 6912 H 629.084 -0.440293 0.612093 0
M  V30 6913 H 631.735 -0.435431 1.78259 0
M  V30 6914 H 630.117 -2.8969 2.69992 0
M  V30 6915 H 631.291 -0.718564 4.55163 0
M  V30 6916 H 629.606 -0.805118 4.08542 0
M  V30 6917 H 632.203 -3.58395 3.96808 0
M  V30 6918 H 632.546 -3.49758 2.25776 0
M  V30 6919 H 633.079 -2.17863 3.32837 0
M  V30 6920 H 629.818 -1.80255 6.30229 0
M  V30 6921 H 629.338 -3.07132 5.15199 0
M  V30 6922 H 631.017 -2.98529 5.74012 0
M  V30 6923 N 631.149 -1.42148 -0.680565 0
M  V30 6924 C 632.377 -1.45696 -1.46902 0
M  V30 6925 C 632.792 -0.0665858 -1.88683 0
M  V30 6926 O 632.149 0.917436 -1.57764 0
M  V30 6927 C 632.2 -2.37898 -2.72188 0
M  V30 6928 O 631.921 -3.71526 -2.32163 0
M  V30 6929 C 633.422 -2.50407 -3.65802 0
M  V30 6930 H 630.642 -0.495729 -0.45221 0
M  V30 6931 H 633.186 -1.866 -0.836709 0
M  V30 6932 H 631.341 -2.00263 -3.31622 0
M  V30 6933 H 631.755 -4.20849 -3.13027 0
M  V30 6934 H 633.229 -3.19056 -4.50452 0
M  V30 6935 H 633.706 -1.5401 -4.11312 0
M  V30 6936 H 634.312 -2.8874 -3.12265 0
M  V30 6937 N 632.627 0.916307 -1.28225 0
M  V30 6938 C 633.537 2.05165 -1.13775 0
M  V30 6939 C 634.553 1.73879 -0.0649418 0
M  V30 6940 O 635.729 1.99531 -0.273722 0
M  V30 6941 C 632.794 3.37385 -0.798267 0
M  V30 6942 C 631.855 3.82296 -1.95316 0
M  V30 6943 C 631.088 5.08206 -1.62978 0
M  V30 6944 O 631.311 5.6781 -0.542948 0
M  V30 6945 O 630.245 5.48768 -2.47261 0
M  V30 6946 H 634.071 2.20273 -2.09078 0
M  V30 6947 H 631.656 1.0373 -1.07519 0
M  V30 6948 H 633.538 4.16773 -0.62278 0
M  V30 6949 H 632.213 3.23458 0.125139 0
M  V30 6950 H 631.12 3.03746 -2.18378 0
M  V30 6951 H 632.453 4.00782 -2.85718 0
M  V30 6952 N 634.105 1.10431 1.1244 0
M  V30 6953 C 635.053 0.747974 2.20246 0
M  V30 6954 C 636.047 -0.255848 1.67457 0
M  V30 6955 O 637.253 -0.116221 1.79624 0
M  V30 6956 H 633.628 0.223946 0.71788 0
M  V30 6957 H 635.599 1.6661 2.47556 0
M  V30 6958 C 634.348 0.195957 3.47147 0
M  V30 6959 H 633.671 0.959606 3.88113 0
M  V30 6960 H 635.111 -0.0153154 4.23997 0
M  V30 6961 C 633.57 -1.07132 3.19413 0
M  V30 6962 O 634.1 -2.15284 3.3914 0
M  V30 6963 N 632.306 -0.98994 2.73219 0
M  V30 6964 H 631.853 -0.109736 2.57366 0
M  V30 6965 H 631.811 -1.83856 2.55038 0
M  V30 6966 N 635.583 -1.29855 0.893053 0
M  V30 6967 C 636.999 -1.48366 0.588199 0
M  V30 6968 C 637.199 -1.81654 -0.872018 0
M  V30 6969 O 636.255 -1.909 -1.65268 0
M  V30 6970 C 637.568 -2.60136 1.5083 0
M  V30 6971 C 639.116 -2.74014 1.51279 0
M  V30 6972 C 639.591 -3.88905 2.41902 0
M  V30 6973 N 641.082 -3.96228 2.39911 0
M  V30 6974 C 641.817 -4.84458 3.06738 0
M  V30 6975 N 641.313 -5.77426 3.8282 0
M  V30 6976 N 643.106 -4.77894 2.95929 0
M  V30 6977 H 635.257 -1.06522 1.83757 0
M  V30 6978 H 637.52 -0.528495 0.787018 0
M  V30 6979 H 637.226 -2.42383 2.54839 0
M  V30 6980 H 637.1 -3.56793 1.22388 0
M  V30 6981 H 639.487 -2.91167 0.480179 0
M  V30 6982 H 639.568 -1.77952 1.83757 0
M  V30 6983 H 639.212 -3.72508 3.45253 0
M  V30 6984 H 639.142 -4.84322 2.06737 0
M  V30 6985 H 641.633 -3.29728 1.84629 0
M  V30 6986 H 641.946 -6.41529 4.30883 0
M  V30 6987 H 640.291 -5.77332 3.86927 0
M  V30 6988 H 643.482 -4.04248 2.36012 0
M  V30 6989 H 643.655 -5.46444 3.48286 0
M  V30 6990 N 637.061 -0.65484 -1.43351 0
M  V30 6991 C 638.477 -0.32255 -1.56307 0
M  V30 6992 C 638.677 1.17324 -1.63821 0
M  V30 6993 O 637.733 1.95813 -1.59417 0
M  V30 6994 C 639.046 -1.03533 -2.82314 0
M  V30 6995 C 640.594 -1.01574 -2.9606 0
M  V30 6996 C 641.069 -1.70945 -4.24902 0
M  V30 6997 N 642.56 -1.67716 -4.3177 0
M  V30 6998 C 643.295 -2.18265 -5.30234 0
M  V30 6999 N 642.791 -2.7711 -6.34966 0
M  V30 7000 N 644.584 -2.08756 -5.21898 0
M  V30 7001 H 636.735 -1.62549 -1.36717 0
M  V30 7002 H 638.998 -0.683676 -0.656727 0
M  V30 7003 H 638.704 -2.09045 -2.8283 0
M  V30 7004 H 638.578 -0.587913 -3.7259 0
M  V30 7005 H 640.965 0.0309834 -2.95084 0
M  V30 7006 H 641.046 -1.50186 -2.07069 0
M  V30 7007 H 640.69 -2.75574 -4.26639 0
M  V30 7008 H 640.62 -1.19797 -5.12793 0
M  V30 7009 H 643.111 -1.24777 -3.56706 0
M  V30 7010 H 643.424 -3.13353 -7.06421 0
M  V30 7011 H 641.769 -2.81171 -6.35585 0
M  V30 7012 H 644.96 -1.62488 -4.38994 0
M  V30 7013 H 645.133 -2.48459 -5.98475 0
M  V30 7014 N 638.539 1.52521 -0.396863 0
M  V30 7015 C 639.816 1.94112 0.240842 0
M  V30 7016 C 640.196 1.33288 1.637 0
M  V30 7017 O 639.544 0.503901 2.22875 0
M  V30 7018 C 639.754 3.48033 0.259567 0
M  V30 7019 C 641.102 4.21822 0.484866 0
M  V30 7020 O 642.126 3.54579 0.339453 0
M  V30 7021 O 640.985 5.41042 0.770412 0
M  V30 7022 H 638.079 0.812973 0.151671 0
M  V30 7023 H 640.625 1.63572 -0.451918 0
M  V30 7024 H 639.397 3.84655 -0.718078 0
M  V30 7025 H 639.02 3.84899 0.996937 0
M  V30 7026 N 640.017 0.126909 1.57088 0
M  V30 7027 C 640.927 -0.833867 2.1928 0
M  V30 7028 C 641.943 -1.2868 1.17122 0
M  V30 7029 O 643.119 -1.34815 1.49622 0
M  V30 7030 C 640.184 -2.0632 2.78627 0
M  V30 7031 C 639.245 -1.66143 3.95847 0
M  V30 7032 C 638.478 -2.83217 4.52354 0
M  V30 7033 O 638.701 -3.98868 4.0775 0
M  V30 7034 O 637.635 -2.59846 5.42922 0
M  V30 7035 H 641.461 -0.334564 3.01852 0
M  V30 7036 H 639.046 -0.0991091 1.49071 0
M  V30 7037 H 640.928 -2.78304 3.16425 0
M  V30 7038 H 639.603 -2.55242 1.99082 0
M  V30 7039 H 638.51 -0.912435 3.62802 0
M  V30 7040 H 639.843 -1.21957 4.76852 0
M  V30 7041 N 641.495 -1.56914 -0.146875 0
M  V30 7042 C 642.405 -2.0154 -1.20079 0
M  V30 7043 C 643.421 -0.930838 -1.47008 0
M  V30 7044 O 644.597 -1.24032 -1.58676 0
M  V30 7045 C 641.662 -2.38715 -2.51428 0
M  V30 7046 C 640.723 -3.6112 -2.32145 0
M  V30 7047 C 639.956 -3.96512 -3.57231 0
M  V30 7048 O 640.179 -3.32566 -4.63418 0
M  V30 7049 O 639.113 -4.89758 -3.49887 0
M  V30 7050 H 642.939 -2.91506 -0.851924 0
M  V30 7051 H 640.524 -1.45106 -0.355607 0
M  V30 7052 H 642.406 -2.63485 -3.28867 0
M  V30 7053 H 641.081 -1.51903 -2.85845 0
M  V30 7054 H 639.988 -3.41536 -1.52656 0
M  V30 7055 H 641.321 -4.48549 -2.02644 0
M  V30 7056 N 642.974 0.416227 -1.52004 0
M  V30 7057 C 644.223 1.16088 -1.64944 0
M  V30 7058 C 644.536 1.91835 -0.381928 0
M  V30 7059 O 645.742 2.6867 -0.391013 0
M  V30 7060 C 644.198 2.1124 -2.91386 0
M  V30 7061 C 643.806 1.41042 -4.25219 0
M  V30 7062 C 645.55 2.86008 -3.13688 0
M  V30 7063 C 643.457 2.34801 -5.42791 0
M  V30 7064 H 642.387 0.437041 -0.61442 0
M  V30 7065 H 645.038 0.425971 -1.78487 0
M  V30 7066 H 643.42 2.88254 -2.71525 0
M  V30 7067 H 644.594 0.694416 -4.55538 0
M  V30 7068 H 642.909 0.78344 -4.08964 0
M  V30 7069 H 645.506 3.56286 -3.98703 0
M  V30 7070 H 645.849 3.48556 -2.27628 0
M  V30 7071 H 646.382 2.16095 -3.33988 0
M  V30 7072 H 643.121 1.7691 -6.31176 0
M  V30 7073 H 642.641 3.04395 -5.16821 0
M  V30 7074 H 644.32 2.9548 -5.75587 0
M  V30 7075 N 644.452 1.42507 0.673017 0
M  V30 7076 C 645.68 1.46473 1.46128 0
M  V30 7077 C 646.095 0.0765912 1.88645 0
M  V30 7078 O 645.452 -0.909057 1.58248 0
M  V30 7079 C 645.503 2.39339 2.70923 0
M  V30 7080 O 645.224 3.72752 2.3019 0
M  V30 7081 C 646.725 2.52343 3.64469 0
M  V30 7082 H 643.945 0.49812 0.449575 0
M  V30 7083 H 646.489 1.87041 0.826802 0
M  V30 7084 H 644.644 2.02019 3.30556 0
M  V30 7085 H 645.058 4.22503 3.10791 0
M  V30 7086 H 646.532 3.2144 4.48754 0
M  V30 7087 H 647.009 1.56189 4.1049 0
M  V30 7088 H 647.615 2.90392 3.10729 0
M  V30 7089 N 645.93 -0.909495 1.28709 0
M  V30 7090 C 646.877 -2.01245 1.13 0
M  V30 7091 C 647.847 -1.6608 0.0259684 0
M  V30 7092 O 649.032 -1.89835 0.191687 0
M  V30 7093 C 646.172 -3.35644 0.802315 0
M  V30 7094 C 645.285 -3.83653 1.98582 0
M  V30 7095 C 644.42 -5.06582 1.59837 0
M  V30 7096 C 643.459 -5.46934 2.74827 0
M  V30 7097 N 642.596 -6.61053 2.36546 0
M  V30 7098 H 647.436 -2.14013 2.0737 0
M  V30 7099 H 644.973 -1.0482 1.03205 0
M  V30 7100 H 646.931 -4.12963 0.593057 0
M  V30 7101 H 645.561 -3.22631 -0.104457 0
M  V30 7102 H 644.613 -3.02454 2.30708 0
M  V30 7103 H 645.925 -4.09515 2.84779 0
M  V30 7104 H 645.079 -5.91457 1.35143 0
M  V30 7105 H 643.818 -4.82537 0.707753 0
M  V30 7106 H 642.823 -4.60599 3.00215 0
M  V30 7107 H 644.048 -5.72965 3.64538 0
M  V30 7108 H 641.994 -6.3863 1.49959 0
M  V30 7109 H 641.911 -6.86662 3.16277 0
M  V30 7110 H 643.179 -7.49221 2.15146 0
M  V30 7111 N 647.408 -1.11026 -1.11852 0
M  V30 7112 C 648.34 -0.72249 -2.17515 0
M  V30 7113 C 649.353 0.243782 -1.60964 0
M  V30 7114 O 650.542 0.0273252 -1.78479 0
M  V30 7115 C 647.642 -0.0463979 -3.38868 0
M  V30 7116 C 646.815 -1.0384 -4.24895 0
M  V30 7117 C 645.874 -0.392659 -5.24733 0
M  V30 7118 O 644.9 -1.0453 -5.5952 0
M  V30 7119 N 646.102 0.846296 -5.74298 0
M  V30 7120 H 648.867 -1.63161 -2.51393 0
M  V30 7121 H 646.428 -0.999899 -1.27333 0
M  V30 7122 H 648.42 0.397215 -4.02746 0
M  V30 7123 H 646.99 0.765231 -3.03089 0
M  V30 7124 H 646.21 -1.6601 -3.57539 0
M  V30 7125 H 647.498 -1.70968 -4.79215 0
M  V30 7126 H 646.896 1.39578 -5.4821 0
M  V30 7127 H 645.453 1.23296 -6.40032 0
M  V30 7128 N 648.886 1.2938 -0.899927 0
M  V30 7129 C 650.133 1.9555 -0.525963 0
M  V30 7130 C 650.461 1.70945 0.927789 0
M  V30 7131 O 649.716 1.01545 1.67293 0
M  V30 7132 C 650.015 3.49114 -0.765113 0
M  V30 7133 C 649.681 3.93796 -2.19626 0
M  V30 7134 C 648.343 4.05707 -2.58758 0
M  V30 7135 C 650.695 4.16883 -3.12823 0
M  V30 7136 C 648.023 4.38074 -3.90267 0
M  V30 7137 C 650.375 4.50725 -4.4388 0
M  V30 7138 C 649.039 4.60845 -4.82885 0
M  V30 7139 H 648.309 0.715569 -0.192463 0
M  V30 7140 H 650.956 1.53972 -1.13863 0
M  V30 7141 H 649.261 3.91738 -0.069531 0
M  V30 7142 H 650.958 3.98409 -0.455144 0
M  V30 7143 H 647.548 3.85042 -1.88256 0
M  V30 7144 H 651.732 4.07147 -2.83804 0
M  V30 7145 H 646.988 4.44112 -4.20207 0
M  V30 7146 H 651.162 4.67538 -5.16121 0
M  V30 7147 H 648.789 4.85681 -5.84823 0
M  V30 7148 N 650.364 0.662433 1.43002 0
M  V30 7149 C 651.78 0.330835 1.56133 0
M  V30 7150 C 651.98 -1.16454 1.64441 0
M  V30 7151 O 651.036 -1.94964 1.60453 0
M  V30 7152 C 652.349 1.05029 2.81761 0
M  V30 7153 C 653.897 1.03142 2.95518 0
M  V30 7154 C 654.372 1.73196 4.2399 0
M  V30 7155 N 655.863 1.70004 4.30875 0
M  V30 7156 C 656.598 2.21074 5.29069 0
M  V30 7157 N 656.094 2.80473 6.33488 0
M  V30 7158 N 657.887 2.1152 5.20784 0
M  V30 7159 H 650.038 1.63272 1.35853 0
M  V30 7160 H 652.301 0.687149 0.653092 0
M  V30 7161 H 652.007 2.10542 2.81718 0
M  V30 7162 H 651.881 0.607664 3.72273 0
M  V30 7163 H 654.268 -0.0153339 2.95096 0
M  V30 7164 H 654.349 1.51282 2.0627 0
M  V30 7165 H 653.993 2.77833 4.25172 0
M  V30 7166 H 653.923 1.22515 5.1215 0
M  V30 7167 H 656.414 1.26667 3.56039 0
M  V30 7168 H 656.727 3.17094 7.04749 0
M  V30 7169 H 655.072 2.84538 6.34085 0
M  V30 7170 H 658.263 1.64814 4.38126 0
M  V30 7171 H 658.436 2.51629 5.97149 0
M  V30 7172 N 651.842 -1.52309 0.404946 0
M  V30 7173 C 653.119 -1.94237 -0.230544 0
M  V30 7174 C 653.499 -1.34154 -1.6299 0
M  V30 7175 O 652.847 -0.515713 -2.22604 0
M  V30 7176 C 653.057 -3.48166 -0.241106 0
M  V30 7177 C 654.405 -4.22074 -0.462488 0
M  V30 7178 O 655.429 -3.54754 -0.320644 0
M  V30 7179 O 654.288 -5.41443 -0.741708 0
M  V30 7180 H 651.382 -0.813766 -0.147358 0
M  V30 7181 H 653.928 -1.6333 0.460587 0
M  V30 7182 H 652.7 -3.84269 0.738467 0
M  V30 7183 H 652.323 -3.85422 -0.97651 0
M  V30 7184 N 653.32 -0.135238 -1.57019 0
M  V30 7185 C 654.597 0.563227 -1.87316 0
M  V30 7186 C 654.977 1.83749 -1.03921 0
M  V30 7187 O 654.325 2.2817 -0.122675 0
M  V30 7188 C 654.535 0.840031 -3.3874 0
M  V30 7189 C 655.883 1.18598 -4.077 0
M  V30 7190 O 656.907 0.92977 -3.43851 0
M  V30 7191 O 655.766 1.66758 -5.20436 0
M  V30 7192 H 652.86 0.285971 -0.775983 0
M  V30 7193 H 655.406 -0.170965 -1.68837 0
M  V30 7194 H 654.178 -0.0622785 -3.9125 0
M  V30 7195 H 653.801 1.62882 -3.62706 0
M  V30 7196 N 654.798 1.5699 0.138552 0
M  V30 7197 C 656.044 1.84966 0.846116 0
M  V30 7198 C 656.399 0.72038 1.78405 0
M  V30 7199 O 655.692 -0.281076 1.89527 0
M  V30 7200 C 655.886 3.17007 1.65049 0
M  V30 7201 C 655.715 4.42672 0.79194 0
M  V30 7202 C 654.485 5.03254 0.454293 0
M  V30 7203 C 656.683 5.14164 0.118419 0
M  V30 7204 N 654.665 6.12482 -0.416964 0
M  V30 7205 C 656.036 6.16966 -0.61263 0
M  V30 7206 C 658.091 4.97884 0.0399671 0
M  V30 7207 C 656.794 7.0525 -1.41473 0
M  V30 7208 C 658.82 5.86639 -0.748901 0
M  V30 7209 C 658.182 6.88929 -1.4682 0
M  V30 7210 H 654.281 0.727362 0.287172 0
M  V30 7211 H 656.865 1.94383 0.110972 0
M  V30 7212 H 655.036 3.08722 2.35681 0
M  V30 7213 H 656.768 3.3286 2.30187 0
M  V30 7214 H 653.523 4.6693 0.792038 0
M  V30 7215 H 653.947 6.7172 -0.843865 0
M  V30 7216 H 658.589 4.18779 0.581728 0
M  V30 7217 H 656.307 7.83777 -1.96772 0
M  V30 7218 H 659.893 5.7611 -0.811705 0
M  V30 7219 H 658.773 7.56419 -2.06882 0
M  V30 7220 N 656.276 -0.40816 1.52223 0
M  V30 7221 C 657.223 -1.49737 1.75635 0
M  V30 7222 C 658.193 -1.5493 0.598824 0
M  V30 7223 O 659.378 -1.71487 0.83648 0
M  V30 7224 C 656.518 -2.87174 1.91376 0
M  V30 7225 C 655.631 -2.91283 3.19027 0
M  V30 7226 C 654.766 -4.20026 3.25195 0
M  V30 7227 C 653.805 -4.18113 4.47044 0
M  V30 7228 N 652.942 -5.38429 4.50598 0
M  V30 7229 H 657.782 -1.29075 2.68596 0
M  V30 7230 H 655.319 -0.626518 1.33091 0
M  V30 7231 H 657.277 -3.66959 1.98486 0
M  V30 7232 H 655.907 -3.06329 1.01795 0
M  V30 7233 H 654.959 -2.03984 3.21084 0
M  V30 7234 H 656.271 -2.85734 4.08849 0
M  V30 7235 H 655.425 -5.08204 3.31382 0
M  V30 7236 H 654.164 -4.28271 2.33313 0
M  V30 7237 H 653.169 -3.28325 4.41002 0
M  V30 7238 H 654.394 -4.11507 5.40221 0
M  V30 7239 H 652.34 -5.4734 3.616 0
M  V30 7240 H 652.257 -5.34879 5.34266 0
M  V30 7241 H 653.525 -6.28557 4.61016 0
M  V30 7242 N 657.755 -1.42862 -0.66545 0
M  V30 7243 C 659.002 -1.4383 -1.42546 0
M  V30 7244 C 659.33 -0.0581114 -1.94413 0
M  V30 7245 O 658.585 0.935002 -1.71919 0
M  V30 7246 C 658.884 -2.4175 -2.63233 0
M  V30 7247 C 658.55 -3.87915 -2.29854 0
M  V30 7248 C 657.212 -4.27726 -2.20463 0
M  V30 7249 C 659.564 -4.80074 -2.02924 0
M  V30 7250 C 656.892 -5.57666 -1.82279 0
M  V30 7251 C 659.244 -6.10366 -1.66242 0
M  V30 7252 C 657.908 -6.49167 -1.55367 0
M  V30 7253 H 657.178 -0.52631 -0.521612 0
M  V30 7254 H 659.825 -1.75863 -0.757914 0
M  V30 7255 H 658.13 -2.03077 -3.35063 0
M  V30 7256 H 659.827 -2.39759 -3.21429 0
M  V30 7257 H 656.417 -3.564 -2.3807 0
M  V30 7258 H 660.601 -4.50097 -2.09108 0
M  V30 7259 H 655.857 -5.8658 -1.72436 0
M  V30 7260 H 660.031 -6.81258 -1.44432 0
M  V30 7261 H 657.658 -7.49761 -1.2555 0
M  V30 7262 N 659.233 0.902656 -1.29189 0
M  V30 7263 C 660.482 1.6475 -1.16362 0
M  V30 7264 C 660.795 1.93517 0.284682 0
M  V30 7265 O 662.001 2.66192 0.534229 0
M  V30 7266 C 660.457 2.96848 -2.03493 0
M  V30 7267 C 660.065 2.75687 -3.5313 0
M  V30 7268 C 661.809 3.74762 -1.99383 0
M  V30 7269 C 659.716 4.03492 -4.32375 0
M  V30 7270 H 658.646 0.618041 -0.431904 0
M  V30 7271 H 661.297 1.0008 -1.53806 0
M  V30 7272 H 659.679 3.62715 -1.58916 0
M  V30 7273 H 660.853 2.18431 -4.05739 0
M  V30 7274 H 659.168 2.11171 -3.58881 0
M  V30 7275 H 661.765 4.69515 -2.5585 0
M  V30 7276 H 662.108 4.04767 -0.973123 0
M  V30 7277 H 662.641 3.15732 -2.41988 0
M  V30 7278 H 659.38 3.78656 -5.3507 0
M  V30 7279 H 658.9 4.60318 -3.84535 0
M  V30 7280 H 660.579 4.71662 -4.42881 0
M  V30 7281 N 660.711 1.11618 1.11262 0
M  V30 7282 C 661.674 0.779447 2.15539 0
M  V30 7283 C 662.674 -0.202081 1.59525 0
M  V30 7284 O 663.864 0.0226356 1.74185 0
M  V30 7285 C 660.996 0.15674 3.40539 0
M  V30 7286 H 662.189 1.70324 2.4684 0
M  V30 7287 H 659.742 0.918298 1.26479 0
M  V30 7288 H 660.477 -0.777186 3.1485 0
M  V30 7289 H 660.262 0.863308 3.82478 0
M  V30 7290 H 661.752 -0.062661 4.17553 0
M  V30 7291 N 662.189 -1.289 0.906776 0
M  V30 7292 C 663.414 -1.99939 0.551303 0
M  V30 7293 C 663.839 -1.67366 -0.858496 0
M  V30 7294 O 663.197 -0.902176 -1.57259 0
M  V30 7295 C 663.245 -3.52523 0.758937 0
M  V30 7296 O 662.349 -4.11983 -0.185308 0
M  V30 7297 H 661.69 -0.628376 0.214568 0
M  V30 7298 H 664.22 -1.64225 1.2203 0
M  V30 7299 H 664.23 -4.02522 0.666329 0
M  V30 7300 H 662.905 -3.75566 1.78671 0
M  V30 7301 H 661.482 -3.72873 -0.0445577 0
M  V30 7302 N 663.667 -0.670007 -1.42649 0
M  V30 7303 C 664.913 -0.190568 -2.01903 0
M  V30 7304 C 665.246 1.19817 -1.52832 0
M  V30 7305 O 664.521 1.80342 -0.728485 0
M  V30 7306 C 664.804 -0.21991 -3.59428 0
M  V30 7307 C 664.657 -1.64376 -4.18689 0
M  V30 7308 C 665.976 0.434519 -4.3795 0
M  V30 7309 H 663.095 -0.0707219 -0.733599 0
M  V30 7310 H 665.737 -0.853883 -1.69732 0
M  V30 7311 H 663.887 0.344894 -3.86966 0
M  V30 7312 H 665.559 -2.26044 -4.02122 0
M  V30 7313 H 663.802 -2.18591 -3.747 0
M  V30 7314 H 664.473 -1.61601 -5.27815 0
M  V30 7315 H 666.949 -0.0462156 -4.16074 0
M  V30 7316 H 665.825 0.38333 -5.4756 0
M  V30 7317 H 666.086 1.51135 -4.15464 0
M  V30 7318 N 665.145 1.52092 -0.413018 0
M  V30 7319 C 666.391 2.02154 0.161737 0
M  V30 7320 C 666.724 1.29789 1.44459 0
M  V30 7321 O 665.999 0.405378 1.90229 0
M  V30 7322 C 666.282 3.5781 0.405463 0
M  V30 7323 C 666.135 4.40819 -0.894335 0
M  V30 7324 C 667.454 4.23821 1.18591 0
M  V30 7325 H 664.573 0.734769 0.0573077 0
M  V30 7326 H 667.215 1.81948 -0.547247 0
M  V30 7327 H 665.365 3.75158 1.0094 0
M  V30 7328 H 667.037 4.35175 -1.53039 0
M  V30 7329 H 665.28 4.06877 -1.50444 0
M  V30 7330 H 665.951 5.47819 -0.678144 0
M  V30 7331 H 668.427 4.10596 0.674573 0
M  V30 7332 H 667.303 5.32663 1.3252 0
M  V30 7333 H 667.564 3.83038 2.20758 0
M  V30 7334 N 666.623 0.143563 1.56945 0
M  V30 7335 C 667.9 -0.553285 1.87612 0
M  V30 7336 C 668.28 -1.83195 1.04894 0
M  V30 7337 O 667.628 -2.28102 0.134773 0
M  V30 7338 C 667.838 -0.822055 3.3918 0
M  V30 7339 C 669.186 -1.16435 4.08324 0
M  V30 7340 O 670.21 -0.911522 3.4434 0
M  V30 7341 O 669.069 -1.63996 5.21313 0
M  V30 7342 H 666.163 -0.281851 0.777489 0
M  V30 7343 H 668.709 0.179916 1.68744 0
M  V30 7344 H 667.481 0.0830265 3.91212 0
M  V30 7345 H 667.104 -1.60956 3.63564 0
M  V30 7346 N 668.101 -1.57061 -0.130224 0
M  V30 7347 C 669.517 -1.52103 -0.483413 0
M  V30 7348 C 669.717 -0.854752 -1.82473 0
M  V30 7349 O 668.773 -0.432342 -2.48771 0
M  V30 7350 C 670.086 -2.96872 -0.47825 0
M  V30 7351 C 671.634 -3.07902 -0.562592 0
M  V30 7352 C 672.109 -4.54211 -0.587929 0
M  V30 7353 N 673.6 -4.58621 -0.649684 0
M  V30 7354 C 674.335 -5.69227 -0.690551 0
M  V30 7355 N 673.831 -6.89358 -0.689743 0
M  V30 7356 N 675.624 -5.57304 -0.732708 0
M  V30 7357 H 667.775 -1.98764 0.748779 0
M  V30 7358 H 670.038 -0.907248 0.274965 0
M  V30 7359 H 669.744 -3.48944 0.439444 0
M  V30 7360 H 669.618 -3.53716 -1.31013 0
M  V30 7361 H 672.005 -2.5584 -1.47071 0
M  V30 7362 H 672.086 -2.54073 0.296764 0
M  V30 7363 H 671.73 -5.06915 0.316096 0
M  V30 7364 H 671.66 -5.0584 -1.46401 0
M  V30 7365 H 674.151 -3.72146 -0.656927 0
M  V30 7366 H 674.464 -7.69408 -0.723239 0
M  V30 7367 H 672.809 -6.91884 -0.657347 0
M  V30 7368 H 676 -4.62363 -0.730625 0
M  V30 7369 H 676.173 -6.43515 -0.76109 0
M  V30 7370 N 669.579 0.400081 -1.52437 0
M  V30 7371 C 670.826 1.14619 -1.6694 0
M  V30 7372 C 671.154 1.90262 -0.403797 0
M  V30 7373 O 670.409 1.85835 0.61351 0
M  V30 7374 C 670.708 2.15914 -2.84808 0
M  V30 7375 C 670.374 1.57011 -4.2268 0
M  V30 7376 C 669.036 1.40672 -4.60179 0
M  V30 7377 C 671.388 1.14081 -5.08562 0
M  V30 7378 C 668.716 0.799335 -5.81229 0
M  V30 7379 C 671.068 0.547573 -6.30226 0
M  V30 7380 C 669.732 0.371389 -6.66466 0
M  V30 7381 H 669.002 0.419419 -0.610875 0
M  V30 7382 H 671.649 0.432227 -1.86558 0
M  V30 7383 H 669.954 2.93488 -2.59561 0
M  V30 7384 H 671.651 2.73533 -2.93225 0
M  V30 7385 H 668.241 1.70713 -3.93135 0
M  V30 7386 H 672.425 1.2551 -4.80168 0
M  V30 7387 H 667.681 0.65093 -6.07925 0
M  V30 7388 H 671.855 0.206575 -6.96094 0
M  V30 7389 H 669.482 -0.10135 -7.60132 0
M  V30 7390 N 671.057 1.43213 0.657864 0
M  V30 7391 C 671.987 1.50815 1.78262 0
M  V30 7392 C 672.968 0.363211 1.66177 0
M  V30 7393 O 674.153 0.579806 1.85343 0
M  V30 7394 C 671.283 1.42625 3.16663 0
M  V30 7395 C 670.237 2.5532 3.43505 0
M  V30 7396 C 669.563 2.32184 4.81658 0
M  V30 7397 C 670.863 3.97583 3.38711 0
M  V30 7398 H 672.557 2.44954 1.72157 0
M  V30 7399 H 670.103 1.17896 0.82683 0
M  V30 7400 H 672.056 1.46548 3.95097 0
M  V30 7401 H 670.78 0.449877 3.23487 0
M  V30 7402 H 669.439 2.50742 2.6744 0
M  V30 7403 H 669.087 1.32801 4.85153 0
M  V30 7404 H 668.787 3.07724 5.00579 0
M  V30 7405 H 670.311 2.37883 5.62356 0
M  V30 7406 H 671.725 4.03673 4.07089 0
M  V30 7407 H 670.122 4.73112 3.69168 0
M  V30 7408 H 671.192 4.23049 2.36976 0
M  V30 7409 N 672.536 -0.895792 1.29666 0
M  V30 7410 C 673.466 -2.01673 1.17688 0
M  V30 7411 C 674.447 -1.69955 0.0701317 0
M  V30 7412 O 675.632 -1.9258 0.250289 0
M  V30 7413 C 672.762 -3.36568 0.856681 0
M  V30 7414 C 671.716 -3.82509 1.92017 0
M  V30 7415 C 671.042 -5.14574 1.4532 0
M  V30 7416 C 672.342 -4.02409 3.32963 0
M  V30 7417 H 674.036 -2.11953 2.11463 0
M  V30 7418 H 671.582 -1.01839 1.01807 0
M  V30 7419 H 673.535 -4.14498 0.759577 0
M  V30 7420 H 672.259 -3.26391 -0.116763 0
M  V30 7421 H 670.918 -3.068 2.00673 0
M  V30 7422 H 670.566 -5.00815 0.468325 0
M  V30 7423 H 670.266 -5.46283 2.16447 0
M  V30 7424 H 671.79 -5.9504 1.36968 0
M  V30 7425 H 673.204 -4.70808 3.27127 0
M  V30 7426 H 671.601 -4.45478 4.02082 0
M  V30 7427 H 672.671 -3.06616 3.75652 0
M  V30 7428 N 674.014 -1.12206 -1.10668 0
M  V30 7429 C 675.244 -0.897332 -1.86095 0
M  V30 7430 C 675.652 0.556778 -1.80822 0
M  V30 7431 O 674.995 1.39658 -1.19337 0
M  V30 7432 C 675.057 -1.29095 -3.35522 0
M  V30 7433 C 674.721 -2.75586 -3.64556 0
M  V30 7434 C 675.718 -3.73785 -3.6136 0
M  V30 7435 C 673.403 -3.12432 -3.93309 0
M  V30 7436 C 675.397 -5.06845 -3.86506 0
M  V30 7437 C 673.084 -4.45675 -4.18111 0
M  V30 7438 C 674.082 -5.42691 -4.147 0
M  V30 7439 O 673.77 -6.73532 -4.38873 0
M  V30 7440 H 673.502 -0.320704 -0.595084 0
M  V30 7441 H 676.056 -1.49517 -1.40833 0
M  V30 7442 H 674.286 -0.636299 -3.81429 0
M  V30 7443 H 675.975 -1.04073 -3.92331 0
M  V30 7444 H 676.741 -3.46664 -3.39189 0
M  V30 7445 H 672.62 -2.3753 -3.95096 0
M  V30 7446 H 676.164 -5.82559 -3.83758 0
M  V30 7447 H 672.061 -4.72526 -4.39761 0
M  V30 7448 H 672.829 -6.79442 -4.564 0
M  V30 7449 N 675.492 1.28418 -0.913599 0
M  V30 7450 C 676.74 1.94596 -0.545594 0
M  V30 7451 C 677.061 1.7227 0.913668 0
M  V30 7452 O 676.331 1.06233 1.64595 0
M  V30 7453 H 674.911 0.720065 -0.198783 0
M  V30 7454 H 677.573 1.56404 -1.16292 0
M  V30 7455 H 676.669 3.03202 -0.739911 0
M  V30 7456 N 676.97 0.677563 1.42291 0
M  V30 7457 C 678.217 0.200975 2.015 0
M  V30 7458 C 678.545 -1.19342 1.53583 0
M  V30 7459 O 677.8 -1.81579 0.7299 0
M  V30 7460 C 678.099 0.187229 3.56909 0
M  V30 7461 C 677.765 1.52667 4.24268 0
M  V30 7462 C 676.427 1.89341 4.42384 0
M  V30 7463 C 678.779 2.40869 4.62203 0
M  V30 7464 C 676.107 3.13836 4.95705 0
M  V30 7465 C 678.459 3.64679 5.16906 0
M  V30 7466 C 677.123 4.01519 5.33234 0
M  V30 7467 H 676.393 0.0735418 0.737342 0
M  V30 7468 H 679.04 0.873095 1.70439 0
M  V30 7469 H 677.345 -0.568407 3.87655 0
M  V30 7470 H 679.042 -0.198773 4.00507 0
M  V30 7471 H 675.632 1.23138 4.1053 0
M  V30 7472 H 679.816 2.1382 4.47878 0
M  V30 7473 H 675.072 3.42396 5.06532 0
M  V30 7474 H 679.246 4.33224 5.45243 0
M  V30 7475 H 676.873 4.98062 5.74316 0
M  V30 7476 N 678.448 -1.51871 0.421078 0
M  V30 7477 C 679.695 -2.01938 -0.15079 0
M  V30 7478 C 680.023 -1.30611 -1.44121 0
M  V30 7479 O 679.278 -0.404631 -1.91471 0
M  V30 7480 C 679.577 -3.54764 -0.433292 0
M  V30 7481 C 679.243 -4.44288 0.76936 0
M  V30 7482 C 677.905 -4.68477 1.09921 0
M  V30 7483 C 680.257 -4.96915 1.57242 0
M  V30 7484 C 677.585 -5.4254 2.2331 0
M  V30 7485 C 679.937 -5.7222 2.69716 0
M  V30 7486 C 678.601 -5.94678 3.03174 0
M  V30 7487 H 677.871 -0.738943 -0.0551781 0
M  V30 7488 H 680.518 -1.82977 0.564945 0
M  V30 7489 H 678.823 -3.71968 -1.23074 0
M  V30 7490 H 680.52 -3.91023 -0.888922 0
M  V30 7491 H 677.11 -4.25646 0.502305 0
M  V30 7492 H 681.294 -4.78125 1.3308 0
M  V30 7493 H 676.55 -5.58146 2.49565 0
M  V30 7494 H 680.724 -6.11992 3.32323 0
M  V30 7495 H 678.351 -6.51848 3.9115 0
M  V30 7496 N 679.926 -0.151884 -1.56866 0
M  V30 7497 C 681.174 0.497021 -1.95893 0
M  V30 7498 C 681.495 1.65078 -1.03799 0
M  V30 7499 O 680.765 1.95642 -0.10049 0
M  V30 7500 H 679.345 0.186603 -0.723318 0
M  V30 7501 H 682.007 -0.228525 -1.93556 0
M  V30 7502 H 681.103 0.869933 -2.99731 0
M  V30 7503 N 681.404 1.57128 0.121893 0
M  V30 7504 C 682.367 1.99197 1.13372 0
M  V30 7505 C 683.367 0.881728 1.3447 0
M  V30 7506 O 684.557 1.14783 1.31036 0
M  V30 7507 C 681.689 2.32963 2.4888 0
M  V30 7508 H 682.882 2.89788 0.772204 0
M  V30 7509 H 680.435 1.51952 0.366093 0
M  V30 7510 H 681.17 1.45243 2.89957 0
M  V30 7511 H 680.955 3.13934 2.34921 0
M  V30 7512 H 682.445 2.66261 3.21706 0
M  V30 7513 N 682.882 -0.391992 1.52647 0
M  V30 7514 C 684.11 -1.1586 1.71418 0
M  V30 7515 C 684.525 -1.8381 0.431216 0
M  V30 7516 O 683.882 -1.7256 -0.594085 0
M  V30 7517 C 683.933 -2.20888 2.86165 0
M  V30 7518 O 683.654 -1.5571 4.09495 0
M  V30 7519 C 685.155 -3.103 3.1659 0
M  V30 7520 H 682.375 -0.347494 0.574011 0
M  V30 7521 H 684.919 -0.458972 1.99283 0
M  V30 7522 H 683.074 -2.86492 2.6077 0
M  V30 7523 H 683.488 -2.25474 4.73563 0
M  V30 7524 H 684.962 -3.8003 4.00351 0
M  V30 7525 H 685.439 -3.73639 2.30848 0
M  V30 7526 H 686.045 -2.50345 3.43813 0
M  V30 7527 N 684.36 -1.4356 -0.65026 0
M  V30 7528 C 685.606 -1.45549 -1.41221 0
M  V30 7529 C 685.939 -0.0805472 -1.94033 0
M  V30 7530 O 685.214 0.899043 -1.72475 0
M  V30 7531 C 685.497 -2.50028 -2.59148 0
M  V30 7532 C 685.35 -3.96808 -2.1181 0
M  V30 7533 C 686.669 -2.51212 -3.61359 0
M  V30 7534 H 683.788 -0.529967 -0.512156 0
M  V30 7535 H 686.43 -1.75127 -0.736933 0
M  V30 7536 H 684.58 -2.24937 -3.16758 0
M  V30 7537 H 686.252 -4.32966 -1.59178 0
M  V30 7538 H 684.495 -4.09498 -1.43156 0
M  V30 7539 H 685.166 -4.6553 -2.96625 0
M  V30 7540 H 687.642 -2.73583 -3.13515 0
M  V30 7541 H 686.518 -3.26252 -4.41419 0
M  V30 7542 H 686.779 -1.54701 -4.1415 0
M  V30 7543 N 685.838 0.888903 -1.30139 0
M  V30 7544 C 687.086 1.63713 -1.18501 0
M  V30 7545 C 687.407 1.9324 0.261399 0
M  V30 7546 O 686.677 1.56608 1.17689 0
M  V30 7547 H 685.257 0.606861 -0.435579 0
M  V30 7548 H 687.919 1.06525 -1.63213 0
M  V30 7549 H 687.015 2.58894 -1.743 0
M  V30 7550 N 687.317 1.12792 1.10072 0
M  V30 7551 C 688.565 0.883796 1.81751 0
M  V30 7552 C 688.886 -0.591891 1.858 0
M  V30 7553 O 688.156 -1.43017 1.33876 0
M  V30 7554 H 686.736 0.323978 0.673088 0
M  V30 7555 H 689.398 1.42314 1.33164 0
M  V30 7556 H 688.494 1.26863 2.85153 0
M  V30 7557 N 688.795 -1.27931 0.920396 0
M  V30 7558 C 690.023 -1.98805 0.573087 0
M  V30 7559 C 690.438 -1.68724 -0.847201 0
M  V30 7560 O 689.795 -0.943699 -1.56207 0
M  V30 7561 C 689.846 -3.52971 0.780633 0
M  V30 7562 O 689.567 -3.81994 2.14504 0
M  V30 7563 C 691.068 -4.411 0.44105 0
M  V30 7564 H 688.288 -0.634651 0.21785 0
M  V30 7565 H 690.832 -1.62965 1.23542 0
M  V30 7566 H 688.987 -3.87048 0.165204 0
M  V30 7567 H 689.401 -4.76609 2.18962 0
M  V30 7568 H 690.875 -5.48312 0.637006 0
M  V30 7569 H 691.352 -4.34758 -0.62306 0
M  V30 7570 H 691.958 -4.12532 1.0343 0
M  V30 7571 N 690.273 -0.685099 -1.4193 0
M  V30 7572 C 691.522 -0.208816 -2.00616 0
M  V30 7573 C 691.835 1.19506 -1.54847 0
M  V30 7574 O 693.041 1.76826 -2.06021 0
M  V30 7575 C 691.497 -0.322446 -3.58453 0
M  V30 7576 C 691.105 -1.73102 -4.13206 0
M  V30 7577 C 692.849 0.0945979 -4.24395 0
M  V30 7578 C 690.756 -1.79687 -5.63442 0
M  V30 7579 H 689.686 -0.0743092 -0.750329 0
M  V30 7580 H 692.337 -0.851778 -1.62533 0
M  V30 7581 H 690.719 0.388588 -3.94089 0
M  V30 7582 H 691.893 -2.46997 -3.8901 0
M  V30 7583 H 690.208 -2.09682 -3.59753 0
M  V30 7584 H 692.805 0.0656937 -5.3466 0
M  V30 7585 H 693.148 1.1316 -4.00625 0
M  V30 7586 H 693.681 -0.56579 -3.93756 0
M  V30 7587 H 690.42 -2.81404 -5.92024 0
M  V30 7588 H 689.94 -1.10162 -5.89597 0
M  V30 7589 H 691.619 -1.55498 -6.28036 0
M  V30 7590 N 691.751 1.51645 -0.429126 0
M  V30 7591 C 692.999 2.01616 0.139802 0
M  V30 7592 C 693.32 1.31568 1.43927 0
M  V30 7593 O 692.59 0.447688 1.90716 0
M  V30 7594 H 691.17 0.744998 0.054654 0
M  V30 7595 H 693.832 1.8638 -0.569952 0
M  V30 7596 H 692.928 3.10439 0.321609 0
M  V30 7597 N 693.229 0.160201 1.56784 0
M  V30 7598 C 694.478 -0.487619 1.95717 0
M  V30 7599 C 694.791 -1.65136 1.0483 0
M  V30 7600 O 695.997 -2.36468 1.33398 0
M  V30 7601 C 694.453 -0.91888 3.47972 0
M  V30 7602 C 694.061 0.218655 4.47466 0
M  V30 7603 C 695.805 -1.53575 3.95746 0
M  V30 7604 C 693.712 -0.231614 5.90946 0
M  V30 7605 H 692.642 -0.185939 0.730714 0
M  V30 7606 H 695.293 0.246657 1.81835 0
M  V30 7607 H 693.675 -1.70881 3.57234 0
M  V30 7608 H 694.849 0.995825 4.49911 0
M  V30 7609 H 693.164 0.744767 4.09685 0
M  V30 7610 H 695.761 -1.88448 5.00391 0
M  V30 7611 H 696.104 -2.42959 3.38048 0
M  V30 7612 H 696.637 -0.810467 3.89456 0
M  V30 7613 H 693.376 0.62718 6.52493 0
M  V30 7614 H 692.896 -0.974379 5.91833 0
M  V30 7615 H 694.575 -0.67922 6.43425 0
M  V30 7616 N 694.707 -1.5719 -0.113559 0
M  V30 7617 C 695.956 -1.84325 -0.818984 0
M  V30 7618 C 696.269 -0.746685 -1.80787 0
M  V30 7619 O 697.475 -0.904596 -2.55987 0
M  V30 7620 C 695.931 -3.26818 -1.50724 0
M  V30 7621 C 695.539 -4.44498 -0.559065 0
M  V30 7622 C 697.283 -3.63196 -2.19748 0
M  V30 7623 C 695.19 -5.7802 -1.25086 0
M  V30 7624 H 694.12 -0.687507 -0.309596 0
M  V30 7625 H 696.771 -1.8336 -0.0717621 0
M  V30 7626 H 695.153 -3.22269 -2.30128 0
M  V30 7627 H 696.327 -4.60356 0.202146 0
M  V30 7628 H 694.642 -4.16393 0.024495 0
M  V30 7629 H 697.239 -4.60226 -2.72206 0
M  V30 7630 H 697.582 -2.90899 -2.97798 0
M  V30 7631 H 698.115 -3.69553 -1.47226 0
M  V30 7632 H 694.854 -6.53501 -0.511539 0
M  V30 7633 H 694.374 -5.66038 -1.98395 0
M  V30 7634 H 696.053 -6.2196 -1.78253 0
M  V30 7635 N 696.185 0.383891 -1.52853 0
M  V30 7636 C 697.432 1.12842 -1.68146 0
M  V30 7637 C 697.76 1.89823 -0.423954 0
M  V30 7638 O 697.015 1.86475 0.593765 0
M  V30 7639 C 697.314 2.12881 -2.87082 0
M  V30 7640 C 696.98 1.52519 -4.24322 0
M  V30 7641 C 695.642 1.35783 -4.61645 0
M  V30 7642 C 697.994 1.0868 -5.09743 0
M  V30 7643 C 695.322 0.737643 -5.82044 0
M  V30 7644 C 697.674 0.480699 -6.30771 0
M  V30 7645 C 696.338 0.300681 -6.66822 0
M  V30 7646 H 695.608 0.412917 -0.615289 0
M  V30 7647 H 698.255 0.412416 -1.87006 0
M  V30 7648 H 696.56 2.90719 -2.62659 0
M  V30 7649 H 698.257 2.70408 -2.96109 0
M  V30 7650 H 694.847 1.66534 -3.94923 0
M  V30 7651 H 699.031 1.2041 -4.81472 0
M  V30 7652 H 694.287 0.586415 -6.08581 0
M  V30 7653 H 698.461 0.132733 -6.96273 0
M  V30 7654 H 696.088 -0.181966 -7.59982 0
M  V30 7655 N 697.663 1.43903 0.642637 0
M  V30 7656 C 698.891 1.4954 1.42988 0
M  V30 7657 C 699.306 0.116588 1.8844 0
M  V30 7658 O 698.663 -0.875285 1.60141 0
M  V30 7659 C 698.714 2.45031 2.65785 0
M  V30 7660 O 698.435 3.77551 2.22232 0
M  V30 7661 C 699.936 2.60017 3.59035 0
M  V30 7662 H 697.156 0.507544 0.438907 0
M  V30 7663 H 699.7 1.88752 0.786942 0
M  V30 7664 H 697.855 2.08985 3.26196 0
M  V30 7665 H 698.269 4.29001 3.01759 0
M  V30 7666 H 699.743 3.30887 4.41835 0
M  V30 7667 H 700.22 1.64861 4.07084 0
M  V30 7668 H 700.826 2.96918 3.045 0
M  V30 7669 N 699.141 -0.881989 1.30609 0
M  V30 7670 C 700.104 -1.96957 1.1722 0
M  V30 7671 C 701.104 -1.60472 0.102598 0
M  V30 7672 O 702.294 -1.70628 0.350943 0
M  V30 7673 C 699.426 -3.31463 0.796572 0
M  V30 7674 H 700.619 -2.10262 2.13846 0
M  V30 7675 H 698.172 -1.06877 1.14048 0
M  V30 7676 H 698.907 -3.23859 -0.169053 0
M  V30 7677 H 698.692 -3.59314 1.56959 0
M  V30 7678 H 700.182 -4.11233 0.72645 0
M  V30 7679 N 700.619 -1.13374 -1.09472 0
M  V30 7680 C 702.03 -0.90801 -1.63132 0
M  V30 7681 C 702.381 0.555576 -1.8817 0
M  V30 7682 O 701.506 1.42218 -1.63104 0
M  V30 7683 C 702.101 -1.64182 -2.96361 0
M  V30 7684 C 700.66 -1.46197 -3.46848 0
M  V30 7685 C 699.807 -1.67134 -2.21273 0
M  V30 7686 H 702.758 -1.2871 -0.928411 0
M  V30 7687 H 702.779 -1.09863 -3.64294 0
M  V30 7688 H 702.291 -2.707 -2.78106 0
M  V30 7689 H 700.392 -0.419788 -3.70228 0
M  V30 7690 H 700.505 -2.22472 -4.24315 0
M  V30 7691 H 698.869 -1.09616 -2.29905 0
M  V30 7692 H 699.652 -2.74971 -2.05538 0
M  V30 7693 N 702.098 1.27442 -0.927168 0
M  V30 7694 C 703.323 1.99036 -0.583042 0
M  V30 7695 C 703.748 1.68711 0.83176 0
M  V30 7696 O 703.106 0.927081 1.55804 0
M  V30 7697 C 703.154 3.51271 -0.814925 0
M  V30 7698 O 702.258 4.12226 0.119742 0
M  V30 7699 H 701.599 0.624883 -0.224538 0
M  V30 7700 H 704.129 1.62263 -1.24628 0
M  V30 7701 H 704.139 4.01411 -0.730282 0
M  V30 7702 H 702.814 3.72676 -1.84623 0
M  V30 7703 H 701.391 3.72897 -0.0147688 0
M  V30 7704 N 703.576 0.692616 1.41565 0
M  V30 7705 C 704.822 0.222664 2.01574 0
M  V30 7706 C 705.155 -1.1737 1.54719 0
M  V30 7707 O 704.43 -1.79161 0.757084 0
M  V30 7708 C 704.713 0.277064 3.59033 0
M  V30 7709 C 704.566 1.71016 4.16021 0
M  V30 7710 C 705.885 -0.36479 4.38586 0
M  V30 7711 H 703.004 0.0823839 0.732381 0
M  V30 7712 H 705.646 0.880778 1.68352 0
M  V30 7713 H 703.796 -0.283288 3.87466 0
M  V30 7714 H 705.468 2.32413 3.98475 0
M  V30 7715 H 703.711 2.24525 3.71175 0
M  V30 7716 H 704.382 1.69978 5.25178 0
M  V30 7717 H 706.858 0.112404 4.15948 0
M  V30 7718 H 705.734 -0.296169 5.481 0
M  V30 7719 H 705.995 -1.44506 4.17816 0
M  V30 7720 N 705.054 -1.51416 0.437162 0
M  V30 7721 C 706.301 -2.02086 -0.129364 0
M  V30 7722 C 706.629 -1.32133 -1.42728 0
M  V30 7723 O 705.884 -0.424916 -1.91031 0
M  V30 7724 C 706.183 -3.55203 -0.39564 0
M  V30 7725 C 705.849 -4.43447 0.81644 0
M  V30 7726 C 704.511 -4.67285 1.14884 0
M  V30 7727 C 706.863 -4.95219 1.62503 0
M  V30 7728 C 704.191 -5.40141 2.29052 0
M  V30 7729 C 706.543 -5.69327 2.7577 0
M  V30 7730 C 705.207 -5.91429 3.09464 0
M  V30 7731 H 704.477 -0.739486 -0.0473375 0
M  V30 7732 H 707.124 -1.82368 0.584321 0
M  V30 7733 H 705.429 -3.73252 -1.19121 0
M  V30 7734 H 707.126 -3.91944 -0.847399 0
M  V30 7735 H 703.716 -4.2509 0.547422 0
M  V30 7736 H 707.9 -4.76686 1.38144 0
M  V30 7737 H 703.156 -5.55468 2.55471 0
M  V30 7738 H 707.33 -6.08433 3.38795 0
M  V30 7739 H 704.957 -6.47662 3.98042 0
M  V30 7740 N 706.532 -0.168513 -1.56696 0
M  V30 7741 C 707.442 0.775435 -2.21414 0
M  V30 7742 C 708.458 1.25529 -1.20492 0
M  V30 7743 O 709.634 1.30801 -1.53144 0
M  V30 7744 C 706.699 1.9886 -2.83999 0
M  V30 7745 C 705.76 1.5559 -4.00113 0
M  V30 7746 C 704.993 2.71124 -4.59704 0
M  V30 7747 O 705.216 3.87917 -4.18182 0
M  V30 7748 O 704.15 2.4536 -5.4962 0
M  V30 7749 H 707.976 0.254416 -3.02632 0
M  V30 7750 H 705.561 0.0595507 -1.49281 0
M  V30 7751 H 707.443 2.69816 -3.23693 0
M  V30 7752 H 706.118 2.49874 -2.05779 0
M  V30 7753 H 705.025 0.815924 -3.65094 0
M  V30 7754 H 706.358 1.09271 -4.79917 0
M  V30 7755 N 708.01 1.57248 0.105221 0
M  V30 7756 C 709.238 1.89768 0.82437 0
M  V30 7757 C 709.653 0.761192 1.72775 0
M  V30 7758 O 709.01 -0.267342 1.80531 0
M  V30 7759 C 709.061 3.2184 1.64625 0
M  V30 7760 O 708.782 4.31115 0.779217 0
M  V30 7761 C 710.283 3.68155 2.46935 0
M  V30 7762 H 707.503 0.628031 0.236259 0
M  V30 7763 H 710.047 2.04321 0.085485 0
M  V30 7764 H 708.202 3.08915 2.33775 0
M  V30 7765 H 708.616 5.06897 1.34745 0
M  V30 7766 H 710.09 4.6329 3.00111 0
M  V30 7767 H 710.567 2.95492 3.24932 0
M  V30 7768 H 711.173 3.83914 1.83002 0
M  V30 7769 N 709.488 -0.375779 1.53054 0
M  V30 7770 C 710.735 -1.11948 1.68742 0
M  V30 7771 C 711.063 -1.89596 0.434015 0
M  V30 7772 O 710.318 -1.86787 -0.583867 0
M  V30 7773 C 710.617 -2.11356 2.88207 0
M  V30 7774 C 710.283 -1.50266 4.25124 0
M  V30 7775 C 708.945 -1.33333 4.62359 0
M  V30 7776 C 711.297 -1.05976 5.10312 0
M  V30 7777 C 708.625 -0.706765 5.82427 0
M  V30 7778 C 710.977 -0.447241 6.31017 0
M  V30 7779 C 709.641 -0.265314 6.66973 0
M  V30 7780 H 708.911 -0.409648 0.61747 0
M  V30 7781 H 711.558 -0.402492 1.87222 0
M  V30 7782 H 709.863 -2.89322 2.64197 0
M  V30 7783 H 711.56 -2.68833 2.97539 0
M  V30 7784 H 708.15 -1.64437 3.95801 0
M  V30 7785 H 712.334 -1.17855 4.82104 0
M  V30 7786 H 707.59 -0.554132 6.08884 0
M  V30 7787 H 711.764 -0.0958064 6.96334 0
M  V30 7788 H 709.391 0.222267 7.59875 0
M  V30 7789 N 710.966 -1.44241 -0.634997 0
M  V30 7790 C 712.243 -1.37296 -1.39317 0
M  V30 7791 C 712.623 -0.0297532 -2.11079 0
M  V30 7792 O 711.971 0.987524 -2.06059 0
M  V30 7793 C 712.181 -2.56853 -2.36279 0
M  V30 7794 C 713.529 -3.00747 -2.99728 0
M  V30 7795 O 714.553 -2.5703 -2.46605 0
M  V30 7796 O 713.412 -3.76533 -3.96087 0
M  V30 7797 H 710.506 -0.543503 -0.623325 0
M  V30 7798 H 713.052 -1.56324 -0.660376 0
M  V30 7799 H 711.824 -3.46228 -1.82324 0
M  V30 7800 H 711.447 -2.40019 -3.16981 0
M  V30 7801 N 712.444 0.87505 -1.31075 0
M  V30 7802 C 713.354 2.01441 -1.20244 0
M  V30 7803 C 714.37 1.73584 -0.120227 0
M  V30 7804 O 715.546 1.98559 -0.337063 0
M  V30 7805 C 712.611 3.34675 -0.905199 0
M  V30 7806 C 711.672 3.75889 -2.0738 0
M  V30 7807 C 710.905 5.02764 -1.79064 0
M  V30 7808 O 711.128 5.65795 -0.723318 0
M  V30 7809 O 710.062 5.40623 -2.64594 0
M  V30 7810 H 713.888 2.13509 -2.1598 0
M  V30 7811 H 711.473 1.00257 -1.10765 0
M  V30 7812 H 713.355 4.1458 -0.755057 0
M  V30 7813 H 712.03 3.23692 0.0221695 0
M  V30 7814 H 710.937 2.96645 -2.27931 0
M  V30 7815 H 712.27 3.91489 -2.98324 0
M  V30 7816 N 713.922 1.13953 1.08869 0
M  V30 7817 C 714.87 0.817664 2.17754 0
M  V30 7818 C 715.864 -0.202444 1.68186 0
M  V30 7819 O 717.07 -0.0590159 1.79903 0
M  V30 7820 H 713.445 0.246671 0.710392 0
M  V30 7821 H 715.416 1.74401 2.4213 0
M  V30 7822 C 714.165 0.3063 3.46348 0
M  V30 7823 H 713.488 1.08259 3.84864 0
M  V30 7824 H 714.928 0.119584 4.23831 0
M  V30 7825 C 713.387 -0.969158 3.22659 0
M  V30 7826 O 713.917 -2.04386 3.45817 0
M  V30 7827 N 712.123 -0.902516 2.7623 0
M  V30 7828 H 711.67 -0.027801 2.57585 0
M  V30 7829 H 711.628 -1.75649 2.60758 0
M  V30 7830 N 715.4 -1.26948 0.933913 0
M  V30 7831 C 716.363 -2.24889 0.442457 0
M  V30 7832 C 717.363 -1.54594 -0.442426 0
M  V30 7833 O 718.553 -1.72502 -0.242629 0
M  V30 7834 C 715.685 -3.3896 -0.363173 0
M  V30 7835 H 716.878 -2.69879 1.30787 0
M  V30 7836 H 714.431 -1.38978 0.715187 0
M  V30 7837 H 715.166 -2.99361 -1.24714 0
M  V30 7838 H 714.951 -3.9116 0.271366 0
M  V30 7839 H 716.441 -4.11739 -0.697186 0
M  V30 7840 N 716.879 -0.700114 -1.41195 0
M  V30 7841 C 718.107 -0.242179 -2.05478 0
M  V30 7842 C 718.522 1.11029 -1.52702 0
M  V30 7843 O 717.879 1.69473 -0.677127 0
M  V30 7844 C 717.93 -0.196271 -3.60967 0
M  V30 7845 O 717.651 -1.49532 -4.11791 0
M  V30 7846 C 719.152 0.282102 -4.42401 0
M  V30 7847 H 716.372 -0.111749 -0.661629 0
M  V30 7848 H 718.916 -0.953975 -1.80885 0
M  V30 7849 H 717.071 0.46638 -3.84582 0
M  V30 7850 H 717.485 -1.38545 -5.05871 0
M  V30 7851 H 718.959 0.263093 -5.51373 0
M  V30 7852 H 719.436 1.32174 -4.1884 0
M  V30 7853 H 720.042 -0.349712 -4.2386 0
M  V30 7854 N 718.357 1.51182 -0.445186 0
M  V30 7855 C 719.287 2.30821 0.352686 0
M  V30 7856 C 720.268 1.36576 1.01395 0
M  V30 7857 O 721.453 1.65497 1.01609 0
M  V30 7858 C 718.583 3.15593 1.44976 0
M  V30 7859 C 717.537 4.1818 0.911553 0
M  V30 7860 C 716.863 4.91523 2.10497 0
M  V30 7861 C 718.163 5.22266 -0.059418 0
M  V30 7862 H 719.857 2.97771 -0.311936 0
M  V30 7863 H 717.403 1.43201 -0.151461 0
M  V30 7864 H 719.356 3.70091 2.01521 0
M  V30 7865 H 718.08 2.4648 2.14278 0
M  V30 7866 H 716.739 3.64746 0.368264 0
M  V30 7867 H 716.387 4.18906 2.78437 0
M  V30 7868 H 716.087 5.60898 1.7512 0
M  V30 7869 H 717.611 5.48847 2.6758 0
M  V30 7870 H 719.025 5.71789 0.415985 0
M  V30 7871 H 717.422 5.99213 -0.326152 0
M  V30 7872 H 718.492 4.7461 -0.993631 0
M  V30 7873 N 719.835 0.176821 1.56605 0
M  V30 7874 C 721.081 -0.467406 1.9734 0
M  V30 7875 C 721.414 -1.62523 1.06301 0
M  V30 7876 O 720.689 -1.94182 0.11125 0
M  V30 7877 C 720.972 -0.945106 3.47476 0
M  V30 7878 C 720.825 0.213273 4.49294 0
M  V30 7879 C 722.144 -1.8169 4.00845 0
M  V30 7880 H 719.263 -0.168426 0.717497 0
M  V30 7881 H 721.905 0.264065 1.88156 0
M  V30 7882 H 720.055 -1.56841 3.55434 0
M  V30 7883 H 721.727 0.850508 4.53392 0
M  V30 7884 H 719.97 0.867918 4.25029 0
M  V30 7885 H 720.641 -0.163187 5.51759 0
M  V30 7886 H 723.117 -1.29139 3.95553 0
M  V30 7887 H 721.993 -2.12015 5.06301 0
M  V30 7888 H 722.254 -2.76463 3.44994 0
M  V30 7889 N 721.313 -1.57302 -0.09688 0
M  V30 7890 C 722.26 -2.01933 -1.11766 0
M  V30 7891 C 723.23 -0.895329 -1.39904 0
M  V30 7892 O 724.415 -1.16119 -1.51397 0
M  V30 7893 C 721.555 -2.44726 -2.43317 0
M  V30 7894 C 720.668 -3.70639 -2.21925 0
M  V30 7895 C 719.803 -4.02318 -3.46862 0
M  V30 7896 C 718.842 -5.21346 -3.20725 0
M  V30 7897 N 717.979 -5.48787 -4.37924 0
M  V30 7898 H 722.819 -2.88919 -0.730075 0
M  V30 7899 H 720.356 -1.42901 -0.348962 0
M  V30 7900 H 722.314 -2.6758 -3.20088 0
M  V30 7901 H 720.944 -1.60753 -2.79926 0
M  V30 7902 H 719.996 -3.55271 -1.35965 0
M  V30 7903 H 721.308 -4.57557 -1.98603 0
M  V30 7904 H 720.462 -4.25939 -4.32042 0
M  V30 7905 H 719.201 -3.13918 -3.73238 0
M  V30 7906 H 718.206 -4.97547 -2.33938 0
M  V30 7907 H 719.431 -6.11343 -2.95697 0
M  V30 7908 H 717.377 -4.63346 -4.64378 0
M  V30 7909 H 717.294 -6.30073 -4.17785 0
M  V30 7910 H 718.562 -5.76943 -5.24173 0
M  V30 7911 N 722.791 0.367657 -1.53252 0
M  V30 7912 C 723.721 1.45632 -1.8252 0
M  V30 7913 C 724.702 1.55979 -0.678568 0
M  V30 7914 O 725.887 1.70581 -0.928217 0
M  V30 7915 C 723.017 2.82994 -2.01325 0
M  V30 7916 C 721.971 2.87473 -3.17086 0
M  V30 7917 C 721.297 4.2749 -3.21179 0
M  V30 7918 C 722.597 2.55182 -4.55719 0
M  V30 7919 H 724.291 1.21387 -2.73689 0
M  V30 7920 H 721.837 0.58251 -1.31692 0
M  V30 7921 H 723.79 3.59179 -2.20383 0
M  V30 7922 H 722.514 3.08622 -1.06864 0
M  V30 7923 H 721.173 2.13739 -2.97844 0
M  V30 7924 H 720.821 4.5019 -2.24361 0
M  V30 7925 H 720.521 4.31403 -3.98955 0
M  V30 7926 H 722.045 5.0555 -3.42419 0
M  V30 7927 H 723.459 3.21081 -4.74953 0
M  V30 7928 H 721.856 2.70414 -5.3572 0
M  V30 7929 H 722.926 1.5044 -4.60973 0
M  V30 7930 N 724.269 1.44576 0.627338 0
M  V30 7931 C 725.216 1.51734 1.73912 0
M  V30 7932 C 726.186 0.364745 1.62046 0
M  V30 7933 O 727.371 0.575503 1.81914 0
M  V30 7934 C 724.511 1.47116 3.12171 0
M  V30 7935 C 723.624 2.72778 3.34986 0
M  V30 7936 C 722.759 2.59968 4.63239 0
M  V30 7937 C 721.798 3.80776 4.79245 0
M  V30 7938 N 720.935 3.66618 5.98778 0
M  V30 7939 H 725.775 2.46722 1.6713 0
M  V30 7940 H 723.312 1.22444 0.815224 0
M  V30 7941 H 725.27 1.42429 3.92135 0
M  V30 7942 H 723.9 0.556928 3.17959 0
M  V30 7943 H 722.952 2.87637 2.48936 0
M  V30 7944 H 724.264 3.62441 3.42692 0
M  V30 7945 H 723.418 2.53135 5.51369 0
M  V30 7946 H 722.157 1.67872 4.57898 0
M  V30 7947 H 721.162 3.87989 3.89544 0
M  V30 7948 H 722.387 4.73913 4.86398 0
M  V30 7949 H 720.333 2.77277 5.9452 0
M  V30 7950 H 720.25 4.499 6.07557 0
M  V30 7951 H 721.518 3.63684 6.89459 0
M  V30 7952 N 725.747 -0.868086 1.31537 0
M  V30 7953 C 726.679 -1.98165 1.15166 0
M  V30 7954 C 727.692 -1.6255 0.0902335 0
M  V30 7955 O 728.881 -1.75272 0.33791 0
M  V30 7956 C 725.981 -3.30772 0.737776 0
M  V30 7957 C 725.154 -3.94716 1.88462 0
M  V30 7958 C 724.213 -5.05641 1.45648 0
M  V30 7959 O 723.239 -5.2636 2.16642 0
M  V30 7960 N 724.441 -5.79474 0.34493 0
M  V30 7961 H 727.206 -2.12754 2.11083 0
M  V30 7962 H 724.767 -1.04217 1.23897 0
M  V30 7963 H 726.759 -4.02366 0.434032 0
M  V30 7964 H 725.329 -3.1233 -0.129834 0
M  V30 7965 H 724.549 -3.16079 2.35558 0
M  V30 7966 H 725.837 -4.34175 2.65273 0
M  V30 7967 H 725.235 -5.65164 -0.246259 0
M  V30 7968 H 723.792 -6.51722 0.100728 0
M  V30 7969 N 727.225 -1.14528 -1.08264 0
M  V30 7970 C 728.155 -0.856356 -2.1723 0
M  V30 7971 C 729.136 0.189251 -1.69044 0
M  V30 7972 O 730.321 0.0456119 -1.94146 0
M  V30 7973 C 727.451 -0.334662 -3.45684 0
M  V30 7974 C 726.405 -1.31588 -4.0727 0
M  V30 7975 C 725.731 -0.653428 -5.30692 0
M  V30 7976 C 727.031 -2.67866 -4.48381 0
M  V30 7977 H 728.725 -1.76755 -2.41657 0
M  V30 7978 H 726.271 -0.851287 -1.16143 0
M  V30 7979 H 728.224 -0.120128 -4.21229 0
M  V30 7980 H 726.948 0.611967 -3.20815 0
M  V30 7981 H 725.607 -1.51661 -3.33758 0
M  V30 7982 H 725.255 0.299054 -5.0211 0
M  V30 7983 H 724.955 -1.30817 -5.72853 0
M  V30 7984 H 726.479 -0.448453 -6.08951 0
M  V30 7985 H 727.893 -2.51692 -5.15096 0
M  V30 7986 H 726.29 -3.29627 -5.01464 0
M  V30 7987 H 727.36 -3.24632 -3.60198 0
M  V30 7988 N 728.703 1.26451 -0.940633 0
M  V30 7989 C 729.933 1.97581 -0.603766 0
M  V30 7990 C 730.341 1.70246 0.825395 0
M  V30 7991 O 729.684 0.967001 1.56188 0
M  V30 7992 C 729.746 3.51256 -0.765463 0
M  V30 7993 C 729.41 4.0224 -2.16915 0
M  V30 7994 C 730.407 4.1402 -3.14457 0
M  V30 7995 C 728.092 4.36263 -2.48958 0
M  V30 7996 C 730.086 4.59117 -4.42143 0
M  V30 7997 C 727.773 4.81048 -3.76877 0
M  V30 7998 C 728.771 4.92436 -4.73282 0
M  V30 7999 O 728.459 5.36234 -5.98923 0
M  V30 8000 H 728.191 0.636948 -0.226436 0
M  V30 8001 H 730.745 1.61941 -1.2635 0
M  V30 8002 H 728.975 3.86669 -0.0485956 0
M  V30 8003 H 730.664 4.03597 -0.431738 0
M  V30 8004 H 731.43 3.87981 -2.91026 0
M  V30 8005 H 727.309 4.26634 -1.74656 0
M  V30 8006 H 730.853 4.6792 -5.17394 0
M  V30 8007 H 726.75 5.06531 -4.00121 0
M  V30 8008 H 727.518 5.54456 -6.02097 0
M  V30 8009 N 730.181 0.707592 1.40822 0
M  V30 8010 C 731.458 0.171172 1.9485 0
M  V30 8011 C 731.838 -1.32143 1.64625 0
M  V30 8012 O 731.186 -2.07372 0.959647 0
M  V30 8013 C 731.396 0.475334 3.45748 0
M  V30 8014 C 732.744 0.409625 4.22619 0
M  V30 8015 O 733.768 0.410934 3.53822 0
M  V30 8016 O 732.627 0.380185 5.45176 0
M  V30 8017 H 729.721 0.022015 0.826707 0
M  V30 8018 H 732.267 0.784577 1.50474 0
M  V30 8019 H 731.039 1.50801 3.61075 0
M  V30 8020 H 730.662 -0.168439 3.97243 0
M  V30 8021 N 731.66 -1.50943 0.453197 0
M  V30 8022 C 732.593 -2.24742 -0.395787 0
M  V30 8023 C 733.571 -1.27316 -1.01141 0
M  V30 8024 O 734.755 -1.56494 -1.05081 0
M  V30 8025 C 731.882 -3.00999 -1.55298 0
M  V30 8026 C 730.928 -4.13207 -1.0565 0
M  V30 8027 S 731.761 -5.35498 0.01435 0
M  V30 8028 C 732.917 -6.15298 -1.14714 0
M  V30 8029 H 733.15 -2.96403 0.23071 0
M  V30 8030 H 730.683 -1.52557 0.237874 0
M  V30 8031 H 732.641 -3.45529 -2.2163 0
M  V30 8032 H 731.302 -2.28896 -2.15094 0
M  V30 8033 H 730.495 -4.65901 -1.9223 0
M  V30 8034 H 730.097 -3.7102 -0.471182 0
M  V30 8035 H 732.389 -6.45346 -2.06239 0
M  V30 8036 H 733.332 -7.05019 -0.659842 0
M  V30 8037 H 733.74 -5.47046 -1.39288 0
M  V30 8038 N 733.138 -0.185124 -1.56509 0
M  V30 8039 C 734.386 0.455357 -1.96903 0
M  V30 8040 C 734.707 1.62839 -1.07277 0
M  V30 8041 O 733.977 1.95385 -0.141966 0
M  V30 8042 H 732.557 0.171218 -0.727113 0
M  V30 8043 H 735.219 -0.26953 -1.93027 0
M  V30 8044 H 734.315 0.80616 -3.01509 0
M  V30 8045 N 734.616 1.57351 0.0885366 0
M  V30 8046 C 735.546 2.05561 1.10757 0
M  V30 8047 C 736.527 0.945789 1.41382 0
M  V30 8048 O 737.712 1.21747 1.51299 0
M  V30 8049 C 734.842 2.48554 2.42566 0
M  V30 8050 C 733.796 3.63259 2.26334 0
M  V30 8051 C 733.122 3.9225 3.63378 0
M  V30 8052 C 734.422 4.93913 1.69844 0
M  V30 8053 H 736.116 2.90946 0.706468 0
M  V30 8054 H 733.662 1.39968 0.338385 0
M  V30 8055 H 735.615 2.8089 3.14132 0
M  V30 8056 H 734.339 1.60176 2.84625 0
M  V30 8057 H 732.998 3.31179 1.57213 0
M  V30 8058 H 732.646 3.0103 4.02976 0
M  V30 8059 H 732.346 4.69478 3.53362 0
M  V30 8060 H 733.87 4.27067 4.36401 0
M  V30 8061 H 735.284 5.24588 2.31258 0
M  V30 8062 H 733.681 5.75349 1.70569 0
M  V30 8063 H 734.751 4.80409 0.65843 0
M  V30 8064 N 736.094 -0.359525 1.53444 0
M  V30 8065 C 737.057 -1.42357 1.7963 0
M  V30 8066 C 738.057 -1.46319 0.666884 0
M  V30 8067 O 739.247 -1.46974 0.935113 0
M  V30 8068 C 736.379 -2.81425 1.92387 0
M  V30 8069 H 737.572 -1.20409 2.74666 0
M  V30 8070 H 735.125 -0.593007 1.44614 0
M  V30 8071 H 735.86 -3.08679 0.994384 0
M  V30 8072 H 735.645 -2.79947 2.74539 0
M  V30 8073 H 737.135 -3.5847 2.14218 0
M  V30 8074 N 737.572 -1.44907 -0.619662 0
M  V30 8075 C 738.52 -1.52971 -1.75222 0
M  V30 8076 C 739.514 -0.400531 -1.64597 0
M  V30 8077 O 740.72 -0.575952 -1.70537 0
M  V30 8078 H 737.095 -0.480241 -0.578682 0
M  V30 8079 H 739.066 -2.48269 -1.65545 0
M  V30 8080 C 737.815 -1.50204 -3.13583 0
M  V30 8081 H 737.138 -2.36412 -3.22412 0
M  V30 8082 H 738.578 -1.59905 -3.92691 0
M  V30 8083 C 737.037 -0.22455 -3.36151 0
M  V30 8084 O 737.567 0.700574 -3.95544 0
M  V30 8085 N 735.773 -0.124052 -2.90335 0
M  V30 8086 H 735.32 -0.87774 -2.42185 0
M  V30 8087 H 735.278 0.729914 -3.0581 0
M  V30 8088 N 739.05 0.861098 -1.31996 0
M  V30 8089 C 740.327 1.59788 -1.12814 0
M  V30 8090 C 740.707 2.08753 0.313882 0
M  V30 8091 O 740.055 1.87258 1.30946 0
M  V30 8092 C 740.265 2.74901 -2.15012 0
M  V30 8093 C 741.613 3.44643 -2.48004 0
M  V30 8094 O 742.637 2.85119 -2.13508 0
M  V30 8095 O 741.496 4.52044 -3.07113 0
M  V30 8096 H 738.59 0.703408 -0.434909 0
M  V30 8097 H 741.136 0.905788 -1.43505 0
M  V30 8098 H 739.908 2.36198 -3.11971 0
M  V30 8099 H 739.531 3.51792 -1.85279 0
M  V30 8100 N 740.528 1.15101 1.07655 0
M  V30 8101 C 741.756 0.947731 1.83918 0
M  V30 8102 C 742.171 -0.503927 1.81951 0
M  V30 8103 O 741.528 -1.34941 1.2287 0
M  V30 8104 C 741.579 1.4503 3.31132 0
M  V30 8105 O 741.3 2.84508 3.33146 0
M  V30 8106 C 742.801 1.28806 4.24174 0
M  V30 8107 H 740.021 0.336786 0.580358 0
M  V30 8108 H 742.565 1.52799 1.35914 0
M  V30 8109 H 740.72 0.912632 3.76497 0
M  V30 8110 H 741.134 3.0723 4.251 0
M  V30 8111 H 742.608 1.6882 5.25551 0
M  V30 8112 H 743.085 0.231851 4.38588 0
M  V30 8113 H 743.691 1.81465 3.84643 0
M  V30 8114 N 742.006 -1.2595 0.947325 0
M  V30 8115 C 743.252 -1.9375 0.599064 0
M  V30 8116 C 743.585 -1.74088 -0.860632 0
M  V30 8117 O 742.86 -1.08158 -1.61654 0
M  V30 8118 C 743.143 -3.47353 0.949634 0
M  V30 8119 C 742.996 -3.76273 2.46452 0
M  V30 8120 C 744.315 -4.37589 0.469442 0
M  V30 8121 H 741.434 -0.703674 0.219115 0
M  V30 8122 H 744.076 -1.48705 1.18266 0
M  V30 8123 H 742.226 -3.8585 0.453008 0
M  V30 8124 H 743.898 -3.47455 3.03435 0
M  V30 8125 H 742.141 -3.22135 2.90537 0
M  V30 8126 H 742.812 -4.83664 2.66032 0
M  V30 8127 H 745.288 -4.06353 0.89534 0
M  V30 8128 H 744.164 -5.43841 0.7435 0
M  V30 8129 H 744.425 -4.37579 -0.630618 0
M  V30 8130 N 743.484 -0.715051 -1.40445 0
M  V30 8131 C 744.414 -0.0768699 -2.33373 0
M  V30 8132 C 745.395 0.746109 -1.52863 0
M  V30 8133 O 746.58 0.695142 -1.81332 0
M  V30 8134 C 743.71 0.846014 -3.36838 0
M  V30 8135 C 742.664 0.128694 -4.27806 0
M  V30 8136 C 741.99 1.16726 -5.21804 0
M  V30 8137 C 743.29 -1.01679 -5.12307 0
M  V30 8138 H 744.984 -0.853061 -2.8699 0
M  V30 8139 H 742.53 -0.41167 -1.3799 0
M  V30 8140 H 744.483 1.30185 -4.00786 0
M  V30 8141 H 743.207 1.6541 -2.81615 0
M  V30 8142 H 741.866 -0.307314 -3.6531 0
M  V30 8143 H 741.514 1.96838 -4.62887 0
M  V30 8144 H 741.214 0.692188 -5.83509 0
M  V30 8145 H 742.738 1.62321 -5.88629 0
M  V30 8146 H 744.152 -0.640337 -5.69713 0
M  V30 8147 H 742.549 -1.4202 -5.83053 0
M  V30 8148 H 743.619 -1.84769 -4.48317 0
M  V30 8149 N 744.962 1.50701 -0.461195 0
M  V30 8150 C 746.21 2.01867 0.0970051 0
M  V30 8151 C 746.531 1.34591 1.41104 0
M  V30 8152 O 745.801 0.488041 1.89723 0
M  V30 8153 H 744.381 0.74599 0.0388392 0
M  V30 8154 H 747.043 1.85129 -0.609357 0
M  V30 8155 H 746.139 3.11051 0.255688 0
M  V30 8156 N 746.441 0.193421 1.56409 0
M  V30 8157 C 747.69 -0.445995 1.96707 0
M  V30 8158 C 748.003 -1.62876 1.08309 0
M  V30 8159 O 749.209 -2.33586 1.38383 0
M  V30 8160 C 747.665 -0.844863 3.49843 0
M  V30 8161 C 747.273 0.31352 4.46902 0
M  V30 8162 C 749.017 -1.45146 3.98915 0
M  V30 8163 C 746.924 -0.106214 5.91305 0
M  V30 8164 H 745.854 -0.170398 0.734493 0
M  V30 8165 H 748.505 0.285172 1.81271 0
M  V30 8166 H 746.887 -1.63265 3.60778 0
M  V30 8167 H 748.061 1.09103 4.47698 0
M  V30 8168 H 746.376 0.8315 4.08014 0
M  V30 8169 H 748.973 -1.77792 5.04276 0
M  V30 8170 H 749.316 -2.35734 3.43126 0
M  V30 8171 H 749.849 -0.727675 3.91088 0
M  V30 8172 H 746.588 0.765442 6.51016 0
M  V30 8173 H 746.108 -0.848623 5.93766 0
M  V30 8174 H 747.787 -0.542588 6.44721 0
M  V30 8175 N 747.919 -1.57396 -0.0801906 0
M  V30 8176 C 749.166 -1.86836 -0.780927 0
M  V30 8177 C 749.494 -0.784012 -1.77999 0
M  V30 8178 O 748.749 0.220881 -1.94449 0
M  V30 8179 C 749.048 -3.22915 -1.53169 0
M  V30 8180 C 748.714 -4.45843 -0.67339 0
M  V30 8181 C 747.376 -4.79213 -0.436829 0
M  V30 8182 C 749.728 -5.21142 -0.0776786 0
M  V30 8183 C 747.056 -5.853 0.405062 0
M  V30 8184 C 749.408 -6.28119 0.751619 0
M  V30 8185 C 748.072 -6.59995 0.998131 0
M  V30 8186 H 747.342 -0.683682 -0.285761 0
M  V30 8187 H 749.989 -1.91454 -0.0419435 0
M  V30 8188 H 748.294 -3.14049 -2.34265 0
M  V30 8189 H 749.991 -3.42926 -2.07853 0
M  V30 8190 H 746.581 -4.19721 -0.867891 0
M  V30 8191 H 750.765 -4.95682 -0.247572 0
M  V30 8192 H 746.021 -6.084 0.60488 0
M  V30 8193 H 750.195 -6.8563 1.22 0
M  V30 8194 H 747.822 -7.42027 1.65227 0
M  V30 8195 O 749.436 0.223936 -1.5994 0
M  V30 8196 H 750.127 0.865318 -1.73297 0
M  V30 END ATOM
M  V30 BEGIN BOND
M  V30 END BOND
M  V30 END CTAB
M  END
$$$$
