drugbank_target|Q27738 Dihydropteroate synthetase (DB00359; DB00664; DB01145; DB01299; DB06147; DB08798)
 OpenBabel12092120103D

  0  0  0     0  0            999 V3000
M  V30 BEGIN CTAB
M  V30 COUNTS 6157 6214 0 0 0
M  V30 BEGIN ATOM
M  V30 1 H -0.908 1.98254 -0.117106 0
M  V30 2 N 0 1.576 0 0
M  V30 3 C 1.249 1.89747 0.684041 0
M  V30 4 C 1.562 0.87501 1.74937 0
M  V30 5 O 2.768 1.0867 2.48803 0
M  V30 6 C 1.224 3.36829 1.26783 0
M  V30 7 C 0.832 4.47371 0.237329 0
M  V30 8 C 2.576 3.78085 1.93007 0
M  V30 9 C 0.483 5.85531 0.831114 0
M  V30 10 H -0.587 0.708028 0.259253 0
M  V30 11 H 2.064 1.834 -0.060544 0
M  V30 12 H 0.446 3.38013 2.06309 0
M  V30 13 H 1.62 4.57703 -0.53333 0
M  V30 14 H -0.065 4.15134 -0.324463 0
M  V30 15 H 2.532 4.78644 2.38337 0
M  V30 16 H 2.875 3.116 2.76063 0
M  V30 17 H 3.408 3.79201 1.20215 0
M  V30 18 H 0.147 6.55488 0.0393298 0
M  V30 19 H -0.333 5.78862 1.57093 0
M  V30 20 H 1.346 6.33188 1.32975 0
M  V30 21 N 1.4781 -0.272755 1.55222 0
M  V30 22 C 2.8891 -0.84378 1.66545 0
M  V30 23 C 3.2401 -1.87035 0.592641 0
M  V30 24 O 2.3651 -2.14761 -0.265818 0
M  V30 25 C 2.9601 -1.53723 3.01918 0
M  V30 26 C 1.5191 -2.05628 3.15268 0
M  V30 27 C 0.6661 -0.898424 2.62343 0
M  V30 28 H 3.6171 -0.0490998 1.58624 0
M  V30 29 H 3.6381 -2.40421 2.94921 0
M  V30 30 H 3.1501 -0.78983 3.79978 0
M  V30 31 H 1.2511 -2.83329 2.41983 0
M  V30 32 H 1.3641 -2.27142 4.21833 0
M  V30 33 H -0.2719 -1.29186 2.19506 0
M  V30 34 H 0.5111 -0.164528 3.42906 0
M  V30 35 N 2.9562 -1.48159 -0.537278 0
M  V30 36 C 3.8662 -1.64807 -1.6696 0
M  V30 37 C 4.8822 -0.530651 -1.65711 0
M  V30 38 O 6.0582 -0.800784 -1.84796 0
M  V30 39 C 3.1232 -1.67708 -3.03438 0
M  V30 40 C 2.1842 -2.91025 -3.156 0
M  V30 41 C 1.4172 -2.93778 -4.45567 0
M  V30 42 O 1.6402 -2.05153 -5.3223 0
M  V30 43 O 0.5742 -3.85868 -4.61941 0
M  V30 44 H 4.4002 -2.6066 -1.55853 0
M  V30 45 H 1.9852 -1.31475 -0.709549 0
M  V30 46 H 3.8672 -1.7218 -3.84619 0
M  V30 47 H 2.5422 -0.750278 -3.14885 0
M  V30 48 H 1.4492 -2.92089 -2.33741 0
M  V30 49 H 2.7822 -3.83065 -3.09066 0
M  V30 50 N 4.4343 0.785586 -1.36625 0
M  V30 51 C 5.6643 1.5722 -1.34036 0
M  V30 52 C 6.0723 1.89033 0.0795062 0
M  V30 53 O 5.4153 1.50881 1.04789 0
M  V30 54 C 5.4773 2.91759 -2.10041 0
M  V30 55 C 5.1413 2.82654 -3.59104 0
M  V30 56 C 6.1383 2.54634 -4.53274 0
M  V30 57 C 3.8233 3.01111 -4.02042 0
M  V30 58 C 5.8173 2.45177 -5.88359 0
M  V30 59 C 3.5043 2.91276 -5.37216 0
M  V30 60 C 4.5023 2.63348 -6.30188 0
M  V30 61 O 4.1903 2.53514 -7.6288 0
M  V30 62 H 3.9223 0.494177 -0.461265 0
M  V30 63 H 6.4763 0.982632 -1.8037 0
M  V30 64 H 4.7063 3.52781 -1.58375 0
M  V30 65 H 6.3953 3.53059 -2.00261 0
M  V30 66 H 7.1613 2.40073 -4.21414 0
M  V30 67 H 3.0403 3.21854 -3.30047 0
M  V30 68 H 6.5843 2.23299 -6.60896 0
M  V30 69 H 2.4813 3.054 -5.68684 0
M  V30 70 H 3.2493 2.68967 -7.73045 0
M  V30 71 N 5.9124 1.20967 1.01018 0
M  V30 72 C 6.8594 0.964281 2.09691 0
M  V30 73 C 7.8294 -0.107853 1.65749 0
M  V30 74 O 9.0144 0.0381987 1.90762 0
M  V30 75 C 6.1544 0.52943 3.41015 0
M  V30 76 C 5.2674 1.67043 3.98398 0
M  V30 77 C 4.4024 1.18525 5.17808 0
M  V30 78 C 3.4414 2.29892 5.67288 0
M  V30 79 N 2.5784 1.82546 6.77954 0
M  V30 80 H 7.4184 1.89463 2.30017 0
M  V30 81 H 4.9554 0.944289 1.1279 0
M  V30 82 H 6.9134 0.258588 4.16398 0
M  V30 83 H 5.5434 -0.363919 3.20742 0
M  V30 84 H 4.5954 2.05603 3.20049 0
M  V30 85 H 5.9074 2.50877 4.31117 0
M  V30 86 H 5.0614 0.870762 6.00419 0
M  V30 87 H 3.8004 0.316887 4.86669 0
M  V30 88 H 2.8054 2.6215 4.83278 0
M  V30 89 H 4.0304 3.17216 6.00459 0
M  V30 90 H 1.9764 0.980454 6.48632 0
M  V30 91 H 1.8934 2.59956 7.09901 0
M  V30 92 H 3.1614 1.54115 7.64113 0
M  V30 93 N 7.3905 -1.2043 1.01659 0
M  V30 94 C 8.3405 -2.21076 0.557623 0
M  V30 95 C 9.3245 -1.56176 -0.387029 0
M  V30 96 O 10.5165 -1.7575 -0.209996 0
M  V30 97 C 7.6455 -3.43146 -0.102707 0
M  V30 98 C 6.7315 -4.15213 0.863652 0
M  V30 99 N 7.1225 -4.63662 2.02117 0
M  V30 100 C 5.4205 -4.40716 0.684472 0
M  V30 101 C 6.1215 -5.18868 2.62966 0
M  V30 102 N 5.0975 -5.0893 1.91027 0
M  V30 103 H 8.8995 -2.56201 1.44008 0
M  V30 104 H 6.4135 -1.36366 0.881931 0
M  V30 105 H 8.4105 -4.14475 -0.449054 0
M  V30 106 H 7.0705 -3.09526 -0.981003 0
M  V30 107 H 8.0815 -4.58877 2.40109 0
M  V30 108 H 4.7585 -4.17245 -0.14577 0
M  V30 109 H 6.1485 -5.6673 3.60924 0
M  V30 110 N 8.8686 -0.792821 -1.36206 0
M  V30 111 C 9.8166 -0.181555 -2.3189 0
M  V30 112 C 10.8106 0.661025 -1.55971 0
M  V30 113 O 12.0166 0.555728 -1.71206 0
M  V30 114 H 8.3916 -0.0399382 -0.750939 0
M  V30 115 H 10.3626 -1.00394 -2.81005 0
M  V30 116 C 9.1116 0.666444 -3.41253 0
M  V30 117 H 8.4346 0.0274489 -3.99791 0
M  V30 118 H 9.8746 1.06076 -4.10517 0
M  V30 119 C 8.3336 1.82614 -2.83114 0
M  V30 120 O 8.8636 2.9229 -2.75553 0
M  V30 121 N 7.0696 1.63333 -2.40356 0
M  V30 122 H 6.6166 0.741217 -2.46706 0
M  V30 123 H 6.5746 2.41087 -2.01803 0
M  V30 124 N 10.3467 1.47872 -0.545128 0
M  V30 125 C 11.5927 2.02793 -0.0166104 0
M  V30 126 C 11.9257 1.41987 1.32489 0
M  V30 127 O 11.2007 0.571045 1.85928 0
M  V30 128 C 11.4837 3.59989 0.0893294 0
M  V30 129 C 11.3367 4.3125 -1.27841 0
M  V30 130 C 12.6557 4.32606 0.808724 0
M  V30 131 H 9.7747 0.736962 -0.00751035 0
M  V30 132 H 12.4167 1.76433 -0.705085 0
M  V30 133 H 10.5667 3.82579 0.675681 0
M  V30 134 H 12.2387 4.20035 -1.90704 0
M  V30 135 H 10.4817 3.92076 -1.85632 0
M  V30 136 H 11.1527 5.39736 -1.15713 0
M  V30 137 H 13.6287 4.14936 0.310992 0
M  V30 138 H 12.5047 5.42251 0.851782 0
M  V30 139 H 12.7657 4.00963 1.86229 0
M  V30 140 N 11.8248 0.280983 1.55075 0
M  V30 141 C 12.7548 -0.597469 2.25727 0
M  V30 142 C 13.7358 -1.15417 1.24952 0
M  V30 143 O 14.9208 -1.18722 1.53684 0
M  V30 144 C 12.0508 -1.7789 2.98283 0
M  V30 145 C 11.0048 -1.35347 4.06036 0
M  V30 146 C 10.3308 -2.61846 4.66198 0
M  V30 147 C 11.6308 -0.499354 5.19907 0
M  V30 148 H 13.3248 -0.00824265 2.99399 0
M  V30 149 H 10.8708 -0.0025244 1.44 0
M  V30 150 H 12.8238 -2.39937 3.46422 0
M  V30 151 H 11.5478 -2.39405 2.22155 0
M  V30 152 H 10.2068 -0.756156 3.58717 0
M  V30 153 H 9.8548 -3.21632 3.86732 0
M  V30 154 H 9.5548 -2.3409 5.38958 0
M  V30 155 H 11.0788 -3.24732 5.1709 0
M  V30 156 H 12.4928 -1.02498 5.64063 0
M  V30 157 H 10.8898 -0.316424 5.99265 0
M  V30 158 H 11.9598 0.480459 4.82514 0
M  V30 159 N 13.3029 -1.57598 0.00835791 0
M  V30 160 C 14.2509 -2.10078 -0.998508 0
M  V30 161 C 15.2449 -1.02262 -1.35051 0
M  V30 162 O 16.4509 -1.20719 -1.33518 0
M  V30 163 H 12.8259 -0.670903 -0.339696 0
M  V30 164 H 14.7969 -2.93648 -0.530398 0
M  V30 165 C 13.5459 -2.62615 -2.27879 0
M  V30 166 H 12.8689 -3.45213 -2.01662 0
M  V30 167 H 14.3089 -3.03004 -2.96588 0
M  V30 168 C 12.7679 -1.54407 -2.99433 0
M  V30 169 O 13.2979 -0.931812 -3.90743 0
M  V30 170 N 11.5039 -1.2695 -2.61404 0
M  V30 171 H 11.0509 -1.76924 -1.87232 0
M  V30 172 H 11.0089 -0.547704 -3.09593 0
M  V30 173 N 14.781 0.264519 -1.55364 0
M  V30 174 C 15.729 1.34702 -1.89626 0
M  V30 175 C 16.723 1.50712 -0.773459 0
M  V30 176 O 17.929 1.52395 -0.957897 0
M  V30 177 H 14.304 0.450682 -0.601988 0
M  V30 178 H 16.275 1.0306 -2.80038 0
M  V30 179 C 15.024 2.6989 -2.19214 0
M  V30 180 H 14.347 2.58365 -3.05103 0
M  V30 181 H 15.787 3.44553 -2.47102 0
M  V30 182 C 14.246 3.21637 -1.00254 0
M  V30 183 O 14.776 4.00973 -0.241501 0
M  V30 184 N 12.982 2.7943 -0.797938 0
M  V30 185 H 12.529 2.15026 -1.4185 0
M  V30 186 H 12.487 3.144 -0.00363422 0
M  V30 187 N 16.2591 1.48442 0.529413 0
M  V30 188 C 17.4871 1.60151 1.30994 0
M  V30 189 C 17.9021 0.261985 1.86973 0
M  V30 190 O 17.2591 -0.748805 1.66431 0
M  V30 191 C 17.3101 2.64854 2.46038 0
M  V30 192 O 17.0311 3.93608 1.92365 0
M  V30 193 C 18.5321 2.87007 3.37849 0
M  V30 194 H 15.7521 0.539971 0.398338 0
M  V30 195 H 18.2961 1.94273 0.638597 0
M  V30 196 H 16.4511 2.33589 3.09055 0
M  V30 197 H 16.8651 4.51055 2.67675 0
M  V30 198 H 18.3391 3.64068 4.14919 0
M  V30 199 H 18.8161 1.95852 3.93114 0
M  V30 200 H 19.4221 3.19579 2.80623 0
M  V30 201 N 17.7372 -0.778329 1.37039 0
M  V30 202 C 18.9862 -1.53189 1.3121 0
M  V30 203 C 19.2992 -1.95328 -0.103095 0
M  V30 204 O 20.5052 -2.70012 -0.283826 0
M  V30 205 C 18.9612 -2.76591 2.30272 0
M  V30 206 C 18.5692 -2.41577 3.77286 0
M  V30 207 C 20.3132 -3.5455 2.33441 0
M  V30 208 C 18.2202 -3.61441 4.68096 0
M  V30 209 H 17.1502 -0.5751 0.487622 0
M  V30 210 H 19.8012 -0.853101 1.62464 0
M  V30 211 H 18.1832 -3.46326 1.92027 0
M  V30 212 H 19.3572 -1.79668 4.2433 0
M  V30 213 H 17.6722 -1.76806 3.76999 0
M  V30 214 H 20.2692 -4.43628 2.98493 0
M  V30 215 H 20.6122 -3.93936 1.34611 0
M  V30 216 H 21.1452 -2.91805 2.7036 0
M  V30 217 H 17.8842 -3.27142 5.6803 0
M  V30 218 H 17.4042 -4.22478 4.25761 0
M  V30 219 H 19.0832 -4.28335 4.8491 0
M  V30 220 N 19.2153 -1.21501 -1.00376 0
M  V30 221 C 20.6313 -0.972629 -1.26539 0
M  V30 222 C 20.8313 0.340257 -1.98606 0
M  V30 223 O 19.8873 1.06561 -2.28913 0
M  V30 224 C 21.2003 -2.16404 -2.08781 0
M  V30 225 C 22.7483 -2.20643 -2.22004 0
M  V30 226 C 23.2233 -3.39306 -3.07629 0
M  V30 227 N 24.7143 -3.39401 -3.15217 0
M  V30 228 C 25.4493 -4.27867 -3.81729 0
M  V30 229 N 24.9453 -5.26533 -4.5026 0
M  V30 230 N 26.7383 -4.15672 -3.78382 0
M  V30 231 H 18.8893 -2.05929 -0.520281 0
M  V30 232 H 21.1523 -0.901803 -0.292328 0
M  V30 233 H 20.8583 -3.11554 -1.63178 0
M  V30 234 H 20.7323 -2.15567 -3.09533 0
M  V30 235 H 23.1193 -1.26048 -2.66825 0
M  V30 236 H 23.2003 -2.25523 -1.20718 0
M  V30 237 H 22.8443 -4.34195 -2.63509 0
M  V30 238 H 22.7743 -3.31665 -4.09031 0
M  V30 239 H 25.2653 -2.67997 -2.66432 0
M  V30 240 H 25.5783 -5.90337 -4.98721 0
M  V30 241 H 23.9233 -5.30457 -4.49044 0
M  V30 242 H 27.1143 -3.3785 -3.23998 0
M  V30 243 H 27.2873 -4.84825 -4.2994 0
M  V30 244 N 20.6934 1.19889 -1.02296 0
M  V30 245 C 21.9334 1.91125 -0.724602 0
M  V30 246 C 22.2974 1.77464 0.732835 0
M  V30 247 O 23.4984 2.43241 1.144 0
M  V30 248 C 21.7694 3.38187 -1.15604 0
M  V30 249 S 23.3284 4.27702 -0.980621 0
M  V30 250 H 20.1464 0.66018 -0.263976 0
M  V30 251 H 22.7484 1.44978 -1.31155 0
M  V30 252 H 21.4524 3.45653 -2.21251 0
M  V30 253 H 20.9834 3.89363 -0.562131 0
M  V30 254 H 22.9984 4.96073 0.112225 0
M  V30 255 N 22.1715 0.800033 1.35784 0
M  V30 256 C 23.1015 0.220184 2.3246 0
M  V30 257 C 24.0825 -0.65073 1.57161 0
M  V30 258 O 25.2675 -0.582359 1.85263 0
M  V30 259 C 22.3975 -0.637353 3.41402 0
M  V30 260 C 21.3515 0.134531 4.27789 0
M  V30 261 C 20.6775 -0.844285 5.27992 0
M  V30 262 C 21.9775 1.32979 5.05088 0
M  V30 263 H 23.6715 1.02787 2.81203 0
M  V30 264 H 21.2175 0.495717 1.35199 0
M  V30 265 H 23.1705 -1.05302 4.08031 0
M  V30 266 H 21.8945 -1.47785 2.91251 0
M  V30 267 H 20.5535 0.531296 3.6273 0
M  V30 268 H 20.2015 -1.68011 4.74111 0
M  V30 269 H 19.9015 -0.332184 5.8666 0
M  V30 270 H 21.4255 -1.2583 5.97494 0
M  V30 271 H 22.8395 0.98934 5.64699 0
M  V30 272 H 21.2365 1.77593 5.7322 0
M  V30 273 H 22.3065 2.11978 4.36111 0
M  V30 274 N 23.6496 -1.47581 0.552962 0
M  V30 275 C 24.8796 -2.06575 0.0320091 0
M  V30 276 C 25.2876 -1.4067 -1.26525 0
M  V30 277 O 24.6306 -0.495808 -1.76883 0
M  V30 278 C 24.6926 -3.58705 -0.238913 0
M  V30 279 C 24.3566 -4.46625 0.968272 0
M  V30 280 C 25.3536 -4.85 1.87274 0
M  V30 281 C 23.0386 -4.88201 1.18175 0
M  V30 282 C 25.0326 -5.63745 2.9744 0
M  V30 283 C 22.7196 -5.66712 2.28651 0
M  V30 284 C 23.7176 -6.04394 3.18114 0
M  V30 285 O 23.4056 -6.81324 4.26676 0
M  V30 286 H 23.1376 -0.674763 0.0408689 0
M  V30 287 H 25.6916 -1.90634 0.764719 0
M  V30 288 H 23.9216 -3.72844 -1.02588 0
M  V30 289 H 25.6106 -3.99735 -0.704731 0
M  V30 290 H 26.3766 -4.53482 1.71984 0
M  V30 291 H 22.2556 -4.58339 0.494593 0
M  V30 292 H 25.7996 -5.93077 3.67296 0
M  V30 293 H 21.6966 -5.97642 2.43915 0
M  V30 294 H 22.4646 -6.99712 4.24671 0
M  V30 295 N 25.1277 -0.289203 -1.54924 0
M  V30 296 C 26.0757 0.607966 -2.24514 0
M  V30 297 C 27.0697 1.14655 -1.24702 0
M  V30 298 O 28.2757 1.09856 -1.4259 0
M  V30 299 H 24.6507 0.21464 -0.720718 0
M  V30 300 H 26.6217 -0.00164182 -2.984 0
M  V30 301 C 25.3707 1.77406 -2.99036 0
M  V30 302 H 24.6937 1.36884 -3.75637 0
M  V30 303 H 26.1337 2.37814 -3.51028 0
M  V30 304 C 24.5927 2.67107 -2.05318 0
M  V30 305 O 25.1227 3.6787 -1.61353 0
M  V30 306 N 23.3287 2.34582 -1.71521 0
M  V30 307 H 22.8757 1.52688 -2.07471 0
M  V30 308 H 22.8337 2.94867 -1.0909 0
M  V30 309 N 26.6058 1.57591 -0.0167156 0
M  V30 310 C 27.5528 2.09462 0.969251 0
M  V30 311 C 28.5228 0.99381 1.33089 0
M  V30 312 O 29.7078 1.26726 1.42636 0
M  V30 313 C 26.8478 2.61622 2.25051 0
M  V30 314 C 25.9608 3.85666 1.94642 0
M  V30 315 C 25.0958 4.26266 3.16972 0
M  V30 316 C 24.1348 5.43101 2.82326 0
M  V30 317 N 23.2718 5.78915 3.97243 0
M  V30 318 H 28.1118 2.93428 0.519997 0
M  V30 319 H 25.6488 1.45044 0.245087 0
M  V30 320 H 27.6068 2.89949 2.99976 0
M  V30 321 H 26.2368 1.80505 2.67615 0
M  V30 322 H 25.2888 3.64145 1.10013 0
M  V30 323 H 26.6008 4.70678 1.65117 0
M  V30 324 H 25.7548 4.55963 4.00228 0
M  V30 325 H 24.4938 3.39996 3.49648 0
M  V30 326 H 23.4988 5.1311 1.97479 0
M  V30 327 H 24.7238 6.3106 2.50879 0
M  V30 328 H 22.6698 4.95602 4.29785 0
M  V30 329 H 22.5868 6.58539 3.71299 0
M  V30 330 H 23.8548 6.13212 4.81239 0
M  V30 331 N 28.0839 -0.256276 1.55502 0
M  V30 332 C 29.3139 -1.00196 1.80677 0
M  V30 333 C 29.7219 -1.79805 0.588797 0
M  V30 334 O 29.0649 -1.78055 -0.451883 0
M  V30 335 C 29.1269 -1.99515 2.99055 0
M  V30 336 C 28.7909 -1.38688 4.35448 0
M  V30 337 C 29.7879 -0.794079 5.138 0
M  V30 338 C 27.4729 -1.40906 4.82132 0
M  V30 339 C 29.4669 -0.231562 6.36979 0
M  V30 340 C 27.1539 -0.842684 6.05262 0
M  V30 341 C 28.1519 -0.254953 6.82524 0
M  V30 342 O 27.8399 0.3027 8.0333 0
M  V30 343 H 27.5719 -0.300919 0.60533 0
M  V30 344 H 30.1259 -0.287307 2.03381 0
M  V30 345 H 28.3559 -2.74785 2.72084 0
M  V30 346 H 30.0449 -2.60349 3.11405 0
M  V30 347 H 30.8109 -0.769519 4.78856 0
M  V30 348 H 26.6899 -1.85591 4.21992 0
M  V30 349 H 30.2339 0.227816 6.97228 0
M  V30 350 H 26.1309 -0.86454 6.39684 0
M  V30 351 H 26.8989 0.193662 8.18271 0
M  V30 352 N 29.562 -1.4872 -0.521534 0
M  V30 353 C 30.808 -1.574 -1.27879 0
M  V30 354 C 31.141 -0.250817 -1.92573 0
M  V30 355 O 30.416 0.743934 -1.79711 0
M  V30 356 C 30.699 -2.71843 -2.36164 0
M  V30 357 C 30.552 -4.13893 -1.76105 0
M  V30 358 C 31.871 -2.82008 -3.37875 0
M  V30 359 H 28.99 -0.572941 -0.463581 0
M  V30 360 H 31.632 -1.80927 -0.580119 0
M  V30 361 H 29.782 -2.51914 -2.95756 0
M  V30 362 H 31.454 -4.45284 -1.20499 0
M  V30 363 H 29.697 -4.20498 -1.06601 0
M  V30 364 H 30.368 -4.89804 -2.5455 0
M  V30 365 H 32.844 -3.00086 -2.88249 0
M  V30 366 H 31.72 -3.63796 -4.11028 0
M  V30 367 H 31.981 -1.90511 -3.98946 0
M  V30 368 N 31.0401 0.771051 -1.3745 0
M  V30 369 C 32.2651 1.56529 -1.36065 0
M  V30 370 C 32.6901 1.88029 0.0515859 0
M  V30 371 O 32.0481 1.49282 1.02882 0
M  V30 372 C 32.0961 2.85187 -2.20683 0
M  V30 373 O 31.2001 3.79593 -1.61193 0
M  V30 374 H 30.5411 0.47411 -0.464883 0
M  V30 375 H 33.0711 0.954269 -1.80983 0
M  V30 376 H 33.0811 3.34283 -2.33921 0
M  V30 377 H 31.7561 2.61588 -3.23334 0
M  V30 378 H 30.3331 3.38239 -1.56999 0
M  V30 379 N 32.5182 1.22032 0.997298 0
M  V30 380 C 33.9342 0.979326 1.26021 0
M  V30 381 C 34.1342 -0.32972 1.98784 0
M  V30 382 O 33.1902 -1.05345 2.29475 0
M  V30 383 C 34.5032 2.17509 2.07631 0
M  V30 384 C 36.0512 2.21817 2.2083 0
M  V30 385 C 36.5262 3.40933 3.05825 0
M  V30 386 N 38.0172 3.41067 3.13412 0
M  V30 387 C 38.7522 4.29885 3.79455 0
M  V30 388 N 38.2482 5.28914 4.47462 0
M  V30 389 N 40.0412 4.17673 3.76173 0
M  V30 390 H 32.1922 2.06202 0.509352 0
M  V30 391 H 34.4552 0.90334 0.287541 0
M  V30 392 H 34.1612 3.12415 1.61524 0
M  V30 393 H 34.0352 2.17206 3.08385 0
M  V30 394 H 36.4222 1.27462 2.66153 0
M  V30 395 H 36.5032 2.2616 1.1952 0
M  V30 396 H 36.1472 4.35586 2.61203 0
M  V30 397 H 36.0772 3.33829 4.07266 0
M  V30 398 H 38.5682 2.69406 2.65007 0
M  V30 399 H 38.8812 5.92973 4.95583 0
M  V30 400 H 37.2262 5.32831 4.46224 0
M  V30 401 H 40.4172 3.39564 3.22202 0
M  V30 402 H 40.5902 4.87098 4.27363 0
M  V30 403 N 33.9963 -1.19345 1.0293 0
M  V30 404 C 34.9293 -2.21347 0.555029 0
M  V30 405 C 35.9073 -1.57492 -0.404351 0
M  V30 406 O 37.0913 -1.85741 -0.321352 0
M  V30 407 C 34.2183 -3.38163 -0.19064 0
M  V30 408 C 33.2643 -4.20375 0.720236 0
M  V30 409 S 34.0973 -4.88371 2.19668 0
M  V30 410 C 35.2533 -6.08597 1.46153 0
M  V30 411 H 35.4863 -2.61235 1.41929 0
M  V30 412 H 33.0193 -1.29598 0.839272 0
M  V30 413 H 34.9773 -4.05871 -0.614724 0
M  V30 414 H 33.6383 -2.9671 -1.03063 0
M  V30 415 H 32.8313 -5.03793 0.14455 0
M  V30 416 H 32.4333 -3.57987 1.08266 0
M  V30 417 H 34.7253 -6.73354 0.748357 0
M  V30 418 H 35.6683 -6.7065 2.27233 0
M  V30 419 H 36.0763 -5.56297 0.958842 0
M  V30 420 N 35.4744 -0.807222 -1.35358 0
M  V30 421 C 36.4214 -0.216037 -2.29787 0
M  V30 422 C 37.3914 0.650278 -1.52842 0
M  V30 423 O 38.5764 0.595227 -1.81278 0
M  V30 424 C 35.7164 0.628893 -3.39321 0
M  V30 425 C 34.8294 -0.257927 -4.31229 0
M  V30 426 C 33.9644 0.595069 -5.27856 0
M  V30 427 C 33.0034 -0.292111 -6.11403 0
M  V30 428 N 32.1404 0.520895 -7.00165 0
M  V30 429 H 36.9804 -1.02671 -2.79755 0
M  V30 430 H 34.5174 -0.517839 -1.37684 0
M  V30 431 H 36.4754 1.13393 -4.01494 0
M  V30 432 H 35.1054 1.40482 -2.90628 0
M  V30 433 H 34.1574 -0.881076 -3.70056 0
M  V30 434 H 35.4694 -0.940759 -4.89848 0
M  V30 435 H 34.6234 1.16522 -5.95405 0
M  V30 436 H 33.3624 1.31146 -4.69736 0
M  V30 437 H 32.3674 -0.874525 -5.428 0
M  V30 438 H 33.5924 -1.00638 -6.71602 0
M  V30 439 H 31.5384 1.22125 -6.44532 0
M  V30 440 H 31.4554 -0.103877 -7.55929 0
M  V30 441 H 32.7234 1.0743 -7.72062 0
M  V30 442 N 36.9525 1.47285 -0.560781 0
M  V30 443 C 37.8625 2.33846 0.187954 0
M  V30 444 C 38.8785 1.48412 0.908293 0
M  V30 445 O 40.0545 1.81332 0.876388 0
M  V30 446 C 37.1195 3.25178 1.2025 0
M  V30 447 C 36.1805 4.26504 0.489208 0
M  V30 448 C 35.4135 5.13472 1.45542 0
M  V30 449 O 35.6365 5.02959 2.6905 0
M  V30 450 O 34.5705 5.93902 0.977963 0
M  V30 451 H 38.3965 2.99177 -0.522177 0
M  V30 452 H 35.9815 1.45903 -0.321364 0
M  V30 453 H 37.8635 3.81584 1.78805 0
M  V30 454 H 36.5385 2.6247 1.89449 0
M  V30 455 H 35.4455 3.73847 -0.137627 0
M  V30 456 H 36.7785 4.91935 -0.161399 0
M  V30 457 N 38.4306 0.297415 1.54768 0
M  V30 458 C 39.3626 -0.613881 2.20826 0
M  V30 459 C 40.3756 -1.10032 1.19987 0
M  V30 460 O 41.5646 -1.01839 1.46598 0
M  V30 461 C 38.6646 -1.852 2.83821 0
M  V30 462 C 37.8376 -1.50865 4.10559 0
M  V30 463 C 36.8966 -2.60154 4.57391 0
M  V30 464 O 35.9226 -2.25398 5.2267 0
M  V30 465 N 37.1246 -3.90629 4.29406 0
M  V30 466 H 39.8896 -0.048389 2.99661 0
M  V30 467 H 37.4506 0.11946 1.61459 0
M  V30 468 H 39.4426 -2.57652 3.12086 0
M  V30 469 H 38.0126 -2.32597 2.08847 0
M  V30 470 H 37.2326 -0.616925 3.89343 0
M  V30 471 H 38.5206 -1.25458 4.9309 0
M  V30 472 H 37.9186 -4.21677 3.77101 0
M  V30 473 H 36.4756 -4.59391 4.62388 0
M  V30 474 N 39.9087 -1.5758 0.0250728 0
M  V30 475 C 41.1387 -1.95646 -0.663783 0
M  V30 476 C 41.5467 -0.899935 -1.66427 0
M  V30 477 O 40.8897 0.127191 -1.83259 0
M  V30 478 C 40.9517 -3.29835 -1.43 0
M  V30 479 C 40.6157 -4.53197 -0.588305 0
M  V30 480 C 41.6127 -5.19726 0.13469 0
M  V30 481 C 39.2977 -4.99529 -0.526897 0
M  V30 482 C 41.2917 -6.30902 0.90781 0
M  V30 483 C 38.9787 -6.10589 0.24993 0
M  V30 484 C 39.9767 -6.76134 0.965994 0
M  V30 485 O 39.6647 -7.85062 1.7301 0
M  V30 486 H 39.3967 -0.649282 -0.188174 0
M  V30 487 H 41.9507 -2.05245 0.0799006 0
M  V30 488 H 40.1807 -3.16716 -2.21873 0
M  V30 489 H 41.8697 -3.52833 -2.00658 0
M  V30 490 H 42.6357 -4.84904 0.0965562 0
M  V30 491 H 38.5147 -4.48319 -1.07381 0
M  V30 492 H 42.0587 -6.81995 1.46724 0
M  V30 493 H 37.9557 -6.44849 0.289795 0
M  V30 494 H 38.7237 -8.01708 1.64944 0
M  V30 495 N 41.3868 0.248026 -1.55636 0
M  V30 496 C 42.3348 1.32683 -1.91045 0
M  V30 497 C 43.3288 1.49883 -0.789401 0
M  V30 498 O 44.5348 1.51371 -0.974007 0
M  V30 499 H 40.9098 0.444272 -0.606734 0
M  V30 500 H 42.8808 1.00085 -2.81115 0
M  V30 501 C 41.6298 2.6755 -2.22064 0
M  V30 502 H 40.9528 2.55114 -3.07826 0
M  V30 503 H 42.3928 3.41912 -2.50743 0
M  V30 504 C 40.8518 3.20556 -1.0366 0
M  V30 505 O 41.3818 4.00695 -0.284016 0
M  V30 506 N 39.5878 2.78568 -0.82753 0
M  V30 507 H 39.1348 2.1351 -1.44123 0
M  V30 508 H 39.0928 3.14378 -0.0369803 0
M  V30 509 N 42.8649 1.48995 0.513639 0
M  V30 510 C 44.1139 1.57093 1.2651 0
M  V30 511 C 44.4269 0.257091 1.93903 0
M  V30 512 O 45.6329 0.216478 2.70636 0
M  V30 513 C 44.0889 2.77118 2.29638 0
M  V30 514 C 43.6969 4.15209 1.68241 0
M  V30 515 C 45.4409 2.94538 3.05692 0
M  V30 516 C 43.3479 5.26474 2.69406 0
M  V30 517 H 42.2779 0.584876 0.475854 0
M  V30 518 H 44.9289 1.7536 0.540487 0
M  V30 519 H 43.3109 2.52319 3.05207 0
M  V30 520 H 44.4849 4.50094 0.987505 0
M  V30 521 H 42.7999 4.03042 1.04623 0
M  V30 522 H 45.3969 3.74832 3.8132 0
M  V30 523 H 45.7399 2.04614 3.62545 0
M  V30 524 H 46.2729 3.19316 2.37238 0
M  V30 525 H 43.0119 6.18417 2.17351 0
M  V30 526 H 42.5319 4.96058 3.37175 0
M  V30 527 H 44.2109 5.55277 3.32078 0
M  V30 528 N 44.343 -0.763751 1.37857 0
M  V30 529 C 45.291 -1.89864 1.34367 0
M  V30 530 C 46.285 -1.67816 0.231143 0
M  V30 531 O 47.491 -1.75508 0.399617 0
M  V30 532 H 43.866 -0.624501 0.41893 0
M  V30 533 H 45.837 -1.89925 2.30155 0
M  V30 534 C 44.586 -3.27227 1.1755 0
M  V30 535 H 43.909 -3.44773 2.02414 0
M  V30 536 H 45.349 -4.06911 1.1916 0
M  V30 537 C 43.808 -3.36692 -0.118311 0
M  V30 538 O 44.338 -3.86374 -1.09902 0
M  V30 539 N 42.544 -2.90092 -0.171717 0
M  V30 540 H 42.091 -2.49853 0.627012 0
M  V30 541 H 42.049 -2.96806 -1.03699 0
M  V30 542 N 45.8211 -1.22559 -0.990812 0
M  V30 543 C 47.0701 -1.04553 -1.72486 0
M  V30 544 C 47.3831 0.419349 -1.91052 0
M  V30 545 O 48.5891 0.719121 -2.61803 0
M  V30 546 C 47.0451 -1.82231 -3.10355 0
M  V30 547 C 46.6531 -3.32981 -2.99713 0
M  V30 548 C 48.3971 -1.7268 -3.87791 0
M  V30 549 C 46.3041 -4.03091 -4.32748 0
M  V30 550 H 45.2341 -0.387614 -0.646739 0
M  V30 551 H 47.8851 -1.46429 -1.10593 0
M  V30 552 H 46.2671 -1.33155 -3.72942 0
M  V30 553 H 47.4411 -3.89466 -2.46278 0
M  V30 554 H 45.7561 -3.43231 -2.35758 0
M  V30 555 H 48.3531 -2.22381 -4.86262 0
M  V30 556 H 48.6961 -0.687607 -4.10582 0
M  V30 557 H 49.2291 -2.1931 -3.31885 0
M  V30 558 H 45.9681 -5.07273 -4.15156 0
M  V30 559 H 45.4881 -3.51394 -4.86089 0
M  V30 560 H 47.1671 -4.08804 -5.01486 0
M  V30 561 N 47.2992 1.18797 -1.03562 0
M  V30 562 C 48.2462 2.22253 -0.622259 0
M  V30 563 C 49.2162 1.61987 0.36736 0
M  V30 564 O 50.4012 1.88986 0.262492 0
M  V30 565 C 47.5412 3.45097 0.0138462 0
M  V30 566 C 46.6542 4.19722 -1.02263 0
M  V30 567 C 45.7892 5.30009 -0.355573 0
M  V30 568 C 44.8282 5.96399 -1.37749 0
M  V30 569 N 43.9652 6.98234 -0.735766 0
M  V30 570 H 48.8052 2.56968 -1.50903 0
M  V30 571 H 46.3422 1.26245 -0.755017 0
M  V30 572 H 48.3002 4.15279 0.399948 0
M  V30 573 H 46.9302 3.11018 0.864158 0
M  V30 574 H 45.9822 3.48418 -1.52673 0
M  V30 575 H 47.2942 4.65227 -1.79903 0
M  V30 576 H 46.4482 6.0664 0.0850095 0
M  V30 577 H 45.1872 4.85592 0.452967 0
M  V30 578 H 44.1922 5.18512 -1.82826 0
M  V30 579 H 45.4172 6.42899 -2.18764 0
M  V30 580 H 43.3632 6.55979 0.0525597 0
M  V30 581 H 43.2802 7.41965 -1.44995 0
M  V30 582 H 44.5482 7.78845 -0.31941 0
M  V30 583 N 48.7773 0.814389 1.34928 0
M  V30 584 C 49.6873 0.231978 2.3345 0
M  V30 585 C 50.7033 -0.629139 1.62228 0
M  V30 586 O 51.8793 -0.539052 1.94052 0
M  V30 587 C 48.9443 -0.603482 3.41407 0
M  V30 588 C 48.0053 0.279037 4.28392 0
M  V30 589 C 47.2383 -0.516643 5.31193 0
M  V30 590 O 47.4613 -1.75068 5.4287 0
M  V30 591 O 46.3953 0.0965652 6.01823 0
M  V30 592 H 50.2213 1.04721 2.85074 0
M  V30 593 H 47.8063 0.576343 1.37836 0
M  V30 594 H 49.6883 -1.07908 4.0735 0
M  V30 595 H 48.3633 -1.39618 2.92042 0
M  V30 596 H 47.2703 0.801948 3.65403 0
M  V30 597 H 48.6033 1.03588 4.81176 0
M  V30 598 N 50.2554 -1.46986 0.568584 0
M  V30 599 C 51.2034 -2.31858 -0.185649 0
M  V30 600 C 52.1974 -1.43624 -0.898249 0
M  V30 601 O 53.4034 -1.60327 -0.818242 0
M  V30 602 H 49.7784 -0.747866 -0.0787399 0
M  V30 603 H 51.7494 -2.93303 0.549191 0
M  V30 604 C 50.4984 -3.26513 -1.19519 0
M  V30 605 H 49.8214 -3.94377 -0.656285 0
M  V30 606 H 51.2614 -3.88707 -1.6936 0
M  V30 607 C 49.7204 -2.50847 -2.24894 0
M  V30 608 O 50.2504 -2.26119 -3.32014 0
M  V30 609 N 48.4564 -2.11656 -1.99124 0
M  V30 610 H 48.0034 -2.31966 -1.12024 0
M  V30 611 H 47.9614 -1.61347 -2.69842 0
M  V30 612 N 51.7335 -0.305618 -1.54608 0
M  V30 613 C 52.6815 0.584119 -2.25146 0
M  V30 614 C 53.6755 1.13326 -1.25911 0
M  V30 615 O 54.8815 1.08337 -1.43747 0
M  V30 616 H 51.2565 0.206983 -0.722954 0
M  V30 617 H 53.2275 -0.033291 -2.98381 0
M  V30 618 C 51.9765 1.74225 -3.009 0
M  V30 619 H 51.2995 1.32892 -3.77067 0
M  V30 620 H 52.7395 2.34077 -3.53531 0
M  V30 621 C 51.1985 2.64914 -2.0814 0
M  V30 622 O 51.7285 3.66137 -1.65246 0
M  V30 623 N 49.9345 2.3275 -1.74 0
M  V30 624 H 49.4815 1.50479 -2.09078 0
M  V30 625 H 49.4395 2.93694 -1.12211 0
M  V30 626 N 53.2116 1.57565 -0.0334293 0
M  V30 627 C 54.1586 2.10478 0.946981 0
M  V30 628 C 55.1286 1.00787 1.32027 0
M  V30 629 O 56.3136 1.28232 1.41284 0
M  V30 630 C 53.4536 2.63994 2.22263 0
M  V30 631 C 52.5666 3.87709 1.90541 0
M  V30 632 C 51.7016 4.29604 3.12433 0
M  V30 633 C 50.7406 5.46065 2.76549 0
M  V30 634 N 49.8776 5.83096 3.9108 0
M  V30 635 H 54.7176 2.93963 0.488846 0
M  V30 636 H 52.2546 1.45296 0.22969 0
M  V30 637 H 54.2126 2.93114 2.96884 0
M  V30 638 H 52.8426 1.83333 2.65685 0
M  V30 639 H 51.8946 3.65291 1.06144 0
M  V30 640 H 53.2066 4.72403 1.60116 0
M  V30 641 H 52.3606 4.60182 3.9537 0
M  V30 642 H 51.0996 3.43685 3.46023 0
M  V30 643 H 50.1046 5.15176 1.92026 0
M  V30 644 H 51.3296 6.33685 2.44171 0
M  V30 645 H 49.2756 5.00132 4.24504 0
M  V30 646 H 49.1926 6.6244 3.64293 0
M  V30 647 H 50.4606 6.18282 4.74708 0
M  V30 648 N 54.6897 -0.239769 1.55765 0
M  V30 649 C 56.1057 -0.588624 1.48349 0
M  V30 650 C 56.3057 -1.88005 0.72502 0
M  V30 651 O 55.3617 -2.51186 0.257269 0
M  V30 652 C 56.6747 -0.68474 2.928 0
M  V30 653 C 58.2227 -0.77659 3.03213 0
M  V30 654 C 58.6977 -0.904207 4.48986 0
M  V30 655 N 60.1887 -0.968896 4.52953 0
M  V30 656 C 60.9237 -1.08703 5.63002 0
M  V30 657 N 60.4197 -1.17026 6.82845 0
M  V30 658 N 62.2127 -1.12074 5.50814 0
M  V30 659 H 54.3637 0.607911 2.03515 0
M  V30 660 H 56.6267 0.21083 0.924259 0
M  V30 661 H 56.3327 0.194284 3.51163 0
M  V30 662 H 56.2067 -1.55435 3.43686 0
M  V30 663 H 58.5937 -1.64606 2.44926 0
M  V30 664 H 58.6747 0.118315 2.55526 0
M  V30 665 H 58.3187 -0.0392633 5.07885 0
M  V30 666 H 58.2487 -1.81426 4.9436 0
M  V30 667 H 60.7397 -0.915633 3.6664 0
M  V30 668 H 61.0527 -1.25966 7.62465 0
M  V30 669 H 59.3977 -1.13971 6.85591 0
M  V30 670 H 62.5887 -1.05226 4.5612 0
M  V30 671 H 62.7617 -1.20936 6.36615 0
M  V30 672 N 56.1678 -1.49265 -0.50573 0
M  V30 673 C 57.4168 -1.57761 -1.25675 0
M  V30 674 C 57.7298 -0.267371 -1.93764 0
M  V30 675 O 58.9358 -0.230827 -2.70517 0
M  V30 676 C 57.3918 -2.78332 -2.28165 0
M  V30 677 C 56.9998 -4.16096 -1.66037 0
M  V30 678 C 58.7438 -2.96155 -3.04125 0
M  V30 679 C 56.6508 -5.27895 -2.6661 0
M  V30 680 H 55.5808 -0.587391 -0.472745 0
M  V30 681 H 58.2318 -1.75644 -0.53118 0
M  V30 682 H 56.6138 -2.53934 -3.03865 0
M  V30 683 H 57.7878 -4.50612 -0.963622 0
M  V30 684 H 56.1028 -4.03591 -1.02484 0
M  V30 685 H 58.6998 -3.76849 -3.79327 0
M  V30 686 H 59.0428 -2.06534 -3.61455 0
M  V30 687 H 59.5758 -3.2057 -2.35541 0
M  V30 688 H 56.3148 -6.1956 -2.14068 0
M  V30 689 H 55.8348 -4.97839 -3.34539 0
M  V30 690 H 57.5138 -5.57031 -3.29129 0
M  V30 691 N 57.6459 0.756429 -1.3826 0
M  V30 692 C 58.8759 1.54341 -1.3734 0
M  V30 693 C 59.2839 1.89159 0.0393917 0
M  V30 694 O 58.6269 1.5307 1.01565 0
M  V30 695 C 58.6889 2.87238 -2.16182 0
M  V30 696 C 58.3529 2.74973 -3.65019 0
M  V30 697 C 59.3499 2.44962 -4.58574 0
M  V30 698 C 57.0349 2.92515 -4.08338 0
M  V30 699 C 59.0289 2.32642 -5.93428 0
M  V30 700 C 56.7159 2.79815 -5.43274 0
M  V30 701 C 57.7139 2.49921 -6.35632 0
M  V30 702 O 57.4019 2.37275 -7.68086 0
M  V30 703 H 57.1339 0.484281 -0.471643 0
M  V30 704 H 59.6879 0.944152 -1.82414 0
M  V30 705 H 57.9179 3.49342 -1.65822 0
M  V30 706 H 59.6069 3.48731 -2.07705 0
M  V30 707 H 60.3729 2.31081 -4.26412 0
M  V30 708 H 56.2519 3.14781 -3.368 0
M  V30 709 H 59.7959 2.0923 -6.65484 0
M  V30 710 H 55.6929 2.93269 -5.75034 0
M  V30 711 H 56.4609 2.52509 -7.78577 0
M  V30 712 N 59.124 1.23083 0.984299 0
M  V30 713 C 60.37 1.06214 1.72761 0
M  V30 714 C 60.703 -0.400584 1.90024 0
M  V30 715 O 59.978 -1.29672 1.44967 0
M  V30 716 C 60.261 1.78375 3.12817 0
M  V30 717 C 60.114 3.32296 3.03149 0
M  V30 718 C 61.433 1.54309 4.12161 0
M  V30 719 H 58.552 0.387251 0.627061 0
M  V30 720 H 61.194 1.51536 1.14616 0
M  V30 721 H 59.344 1.39848 3.62457 0
M  V30 722 H 61.016 3.8032 2.61064 0
M  V30 723 H 59.259 3.6153 2.39747 0
M  V30 724 H 59.93 3.77972 4.02295 0
M  V30 725 H 62.406 1.87791 3.71314 0
M  V30 726 H 61.282 2.07281 5.08258 0
M  V30 727 H 61.543 0.477572 4.39513 0
M  V30 728 N 60.6021 -1.18246 1.0419 0
M  V30 729 C 61.5321 -2.24127 0.654914 0
M  V30 730 C 62.5131 -1.66617 -0.342451 0
M  V30 731 O 63.6981 -1.92924 -0.222277 0
M  V30 732 C 60.8281 -3.47295 0.0183757 0
M  V30 733 C 59.7821 -4.17563 0.939414 0
M  V30 734 C 59.1081 -5.34438 0.167286 0
M  V30 735 C 60.4081 -4.70917 2.25908 0
M  V30 736 H 62.1021 -2.56753 1.54007 0
M  V30 737 H 59.6481 -1.23414 0.74195 0
M  V30 738 H 61.6011 -4.20572 -0.264082 0
M  V30 739 H 60.3251 -3.13907 -0.901664 0
M  V30 740 H 58.9841 -3.46186 1.20628 0
M  V30 741 H 58.6321 -4.97298 -0.7552 0
M  V30 742 H 58.3321 -5.82388 0.780901 0
M  V30 743 H 59.8561 -6.10504 -0.108125 0
M  V30 744 H 61.2701 -5.35882 2.03724 0
M  V30 745 H 59.6671 -5.29406 2.82577 0
M  V30 746 H 60.7371 -3.88272 2.9047 0
M  V30 747 N 62.0802 -0.821533 -1.34494 0
M  V30 748 C 63.0272 -0.240397 -2.29545 0
M  V30 749 C 63.9972 0.634031 -1.53523 0
M  V30 750 O 65.1822 0.575966 -1.81899 0
M  V30 751 C 62.3222 0.592869 -3.39969 0
M  V30 752 C 61.4352 -0.30365 -4.30932 0
M  V30 753 C 60.5702 0.539049 -5.28458 0
M  V30 754 C 59.6092 -0.356942 -6.11058 0
M  V30 755 N 58.7462 0.446603 -7.00678 0
M  V30 756 H 63.5862 -1.05632 -2.7865 0
M  V30 757 H 61.1232 -0.532413 -1.37127 0
M  V30 758 H 63.0812 1.09129 -4.02675 0
M  V30 759 H 61.7112 1.37392 -2.92102 0
M  V30 760 H 60.7632 -0.920276 -3.691 0
M  V30 761 H 62.0752 -0.992661 -4.88823 0
M  V30 762 H 61.2292 1.102 -5.96608 0
M  V30 763 H 59.9682 1.26157 -4.71101 0
M  V30 764 H 58.9732 -0.932047 -5.41842 0
M  V30 765 H 60.1982 -1.07755 -6.70497 0
M  V30 766 H 58.1442 1.15282 -6.45791 0
M  V30 767 H 58.0612 -0.184048 -7.55776 0
M  V30 768 H 59.3292 0.992352 -7.73158 0
M  V30 769 N 63.5583 1.46682 -0.576371 0
M  V30 770 C 64.8353 1.95599 0.00703437 0
M  V30 771 C 65.2153 1.51904 1.46589 0
M  V30 772 O 64.5633 0.766755 2.15251 0
M  V30 773 C 64.7733 3.4864 -0.158404 0
M  V30 774 C 66.1213 4.24594 -0.0229439 0
M  V30 775 O 67.1453 3.56094 -0.0869173 0
M  V30 776 O 66.0043 5.46373 0.118015 0
M  V30 777 H 63.0983 0.825275 0.053384 0
M  V30 778 H 65.6443 1.56996 -0.644244 0
M  V30 779 H 64.4163 3.7331 -1.17282 0
M  V30 780 H 64.0393 3.94057 0.5296 0
M  V30 781 N 65.0364 0.313813 1.54444 0
M  V30 782 C 66.4524 -0.0391619 1.59552 0
M  V30 783 C 66.6524 -1.51322 1.33056 0
M  V30 784 O 65.7084 -2.26782 1.11022 0
M  V30 785 C 67.0214 0.370302 2.98411 0
M  V30 786 C 68.5694 0.320139 3.11358 0
M  V30 787 C 69.0444 0.704617 4.52547 0
M  V30 788 N 70.5354 0.657645 4.58508 0
M  V30 789 C 71.2704 0.927453 5.6585 0
M  V30 790 N 70.7664 1.26389 6.81174 0
M  V30 791 N 72.5594 0.853662 5.5558 0
M  V30 792 H 64.7104 1.27433 1.69925 0
M  V30 793 H 66.9734 0.517511 0.794284 0
M  V30 794 H 66.6794 1.39694 3.22767 0
M  V30 795 H 66.5534 -0.269619 3.76235 0
M  V30 796 H 68.9404 -0.697275 2.86744 0
M  V30 797 H 69.0214 0.99486 2.35661 0
M  V30 798 H 68.6654 1.7199 4.77893 0
M  V30 799 H 68.5954 0.00768843 5.26599 0
M  V30 800 H 71.0864 0.409067 3.75679 0
M  V30 801 H 71.3994 1.4554 7.58972 0
M  V30 802 H 69.7444 1.30206 6.82694 0
M  V30 803 H 72.9354 0.590383 4.64362 0
M  V30 804 H 73.1084 1.0673 6.3915 0
M  V30 805 N 66.5145 -1.57545 0.0417849 0
M  V30 806 C 67.7635 -1.91494 -0.633492 0
M  V30 807 C 68.0765 -0.921084 -1.72556 0
M  V30 808 O 69.2825 -1.15228 -2.45835 0
M  V30 809 C 67.7385 -3.40072 -1.17808 0
M  V30 810 C 67.3465 -4.47843 -0.118633 0
M  V30 811 C 69.0905 -3.8307 -1.82915 0
M  V30 812 C 66.9975 -5.87529 -0.675578 0
M  V30 813 H 65.9275 -0.714653 -0.24039 0
M  V30 814 H 68.5785 -1.83175 0.109148 0
M  V30 815 H 66.9605 -3.43364 -1.97274 0
M  V30 816 H 68.1345 -4.56128 0.654494 0
M  V30 817 H 66.4495 -4.14128 0.434414 0
M  V30 818 H 69.0465 -4.84794 -2.25563 0
M  V30 819 H 69.3895 -3.1881 -2.67705 0
M  V30 820 H 69.9225 -3.82255 -1.10119 0
M  V30 821 H 66.6615 -6.55362 0.134475 0
M  V30 822 H 66.1815 -5.82824 -1.4169 0
M  V30 823 H 67.8605 -6.36491 -1.1614 0
M  V30 824 N 67.9926 0.231505 -1.5589 0
M  V30 825 C 69.2176 0.978689 -1.82856 0
M  V30 826 C 69.6426 1.77559 -0.620846 0
M  V30 827 O 69.0006 1.76119 0.430305 0
M  V30 828 C 69.0486 1.87997 -3.07716 0
M  V30 829 O 68.1526 2.97393 -2.85712 0
M  V30 830 H 67.4936 0.277663 -0.603158 0
M  V30 831 H 70.0236 0.24783 -2.03093 0
M  V30 832 H 70.0336 2.2917 -3.37558 0
M  V30 833 H 68.7086 1.29417 -3.95252 0
M  V30 834 H 67.2856 2.60238 -2.67078 0
M  V30 835 N 69.4707 1.49531 0.497807 0
M  V30 836 C 70.7007 1.62657 1.27382 0
M  V30 837 C 71.1087 0.298488 1.86831 0
M  V30 838 O 70.4517 -0.72647 1.68725 0
M  V30 839 C 70.5137 2.6393 2.44093 0
M  V30 840 C 70.1777 4.08195 2.05489 0
M  V30 841 C 71.1747 4.949 1.59279 0
M  V30 842 C 68.8597 4.53948 2.15026 0
M  V30 843 C 70.8537 6.25397 1.23113 0
M  V30 844 C 68.5407 5.84458 1.78473 0
M  V30 845 C 69.5387 6.70006 1.32591 0
M  V30 846 O 69.2267 7.98083 0.965327 0
M  V30 847 H 68.9587 0.550429 0.392434 0
M  V30 848 H 71.5127 1.96325 0.603801 0
M  V30 849 H 69.7427 2.25449 3.14181 0
M  V30 850 H 71.4317 2.66552 3.06113 0
M  V30 851 H 72.1977 4.60779 1.51354 0
M  V30 852 H 68.0767 3.87525 2.4969 0
M  V30 853 H 71.6207 6.92125 0.872299 0
M  V30 854 H 67.5177 6.18107 1.86048 0
M  V30 855 H 68.2857 8.11122 1.09652 0
M  V30 856 N 70.9488 -0.749086 1.3866 0
M  V30 857 C 71.8788 -1.8764 1.38973 0
M  V30 858 C 72.8598 -1.68178 0.255004 0
M  V30 859 O 74.0448 -1.88704 0.458754 0
M  V30 860 C 71.1748 -3.25222 1.21851 0
M  V30 861 C 70.1288 -3.59295 2.32575 0
M  V30 862 C 69.4548 -4.95663 2.00555 0
M  V30 863 C 70.7548 -3.63709 3.7485 0
M  V30 864 H 72.4488 -1.87635 2.3331 0
M  V30 865 H 69.9948 -0.901329 1.12303 0
M  V30 866 H 71.9478 -4.03746 1.20695 0
M  V30 867 H 70.6718 -3.25719 0.239775 0
M  V30 868 H 69.3308 -2.83093 2.32925 0
M  V30 869 H 68.9788 -4.92724 1.01154 0
M  V30 870 H 68.6788 -5.19429 2.74714 0
M  V30 871 H 70.2028 -5.7656 2.01024 0
M  V30 872 H 71.6168 -4.32338 3.76506 0
M  V30 873 H 70.0138 -3.98986 4.48252 0
M  V30 874 H 71.0838 -2.63834 4.06841 0
M  V30 875 N 72.4269 -1.23603 -0.977757 0
M  V30 876 C 73.3739 -1.01954 -2.07061 0
M  V30 877 C 74.3439 0.0638697 -1.65977 0
M  V30 878 O 75.5289 -0.0887624 -1.90593 0
M  V30 879 C 72.6689 -0.619658 -3.39491 0
M  V30 880 C 71.7819 -1.77547 -3.93829 0
M  V30 881 C 70.9169 -1.32212 -5.14484 0
M  V30 882 C 69.9559 -2.44852 -5.60994 0
M  V30 883 N 69.0929 -2.00456 -6.72876 0
M  V30 884 H 73.9329 -1.95495 -2.24913 0
M  V30 885 H 71.4699 -0.973861 -1.10247 0
M  V30 886 H 73.4279 -0.368898 -4.15566 0
M  V30 887 H 72.0579 0.278752 -3.21594 0
M  V30 888 H 71.1099 -2.14016 -3.14486 0
M  V30 889 H 72.4219 -2.62219 -4.24314 0
M  V30 890 H 71.5759 -1.02965 -5.97899 0
M  V30 891 H 70.3149 -0.445808 -4.85658 0
M  V30 892 H 69.3199 -2.74871 -4.76157 0
M  V30 893 H 70.5449 -3.33024 -5.91837 0
M  V30 894 H 68.4909 -1.15208 -6.45804 0
M  V30 895 H 68.4079 -2.78687 -7.02759 0
M  V30 896 H 69.6759 -1.7432 -7.59758 0
M  V30 897 N 73.905 1.17692 -1.04816 0
M  V30 898 C 74.815 2.25229 -0.65643 0
M  V30 899 C 75.831 1.71018 0.320761 0
M  V30 900 O 77.007 2.00649 0.173805 0
M  V30 901 C 74.072 3.46684 -0.0332629 0
M  V30 902 C 73.133 4.15997 -1.06042 0
M  V30 903 C 72.366 5.31654 -0.466893 0
M  V30 904 O 72.589 5.65777 0.724758 0
M  V30 905 O 71.523 5.89831 -1.1993 0
M  V30 906 H 75.349 2.61016 -1.55255 0
M  V30 907 H 72.934 1.24919 -0.81949 0
M  V30 908 H 74.816 4.20234 0.313256 0
M  V30 909 H 73.491 3.12703 0.836566 0
M  V30 910 H 72.398 3.44482 -1.45886 0
M  V30 911 H 73.731 4.53996 -1.90127 0
M  V30 912 N 75.3831 0.828654 1.34056 0
M  V30 913 C 76.3301 0.252567 2.29414 0
M  V30 914 C 77.3001 -0.62588 1.53857 0
M  V30 915 O 78.4851 -0.566312 1.82202 0
M  V30 916 C 75.6251 -0.574831 3.40279 0
M  V30 917 C 74.7381 0.326499 4.30764 0
M  V30 918 C 73.8731 -0.511016 5.28736 0
M  V30 919 C 72.9121 0.389342 6.1086 0
M  V30 920 N 72.0491 -0.409439 7.00905 0
M  V30 921 H 76.8891 1.07108 2.78086 0
M  V30 922 H 74.4261 0.539677 1.36843 0
M  V30 923 H 76.3841 -1.06992 4.03248 0
M  V30 924 H 75.0141 -1.35841 2.92826 0
M  V30 925 H 74.0661 0.939837 3.68607 0
M  V30 926 H 75.3781 1.01857 4.88289 0
M  V30 927 H 74.5321 -1.07035 5.97184 0
M  V30 928 H 73.2711 -1.23657 4.71763 0
M  V30 929 H 72.2761 0.960769 5.4134 0
M  V30 930 H 73.5011 1.1131 6.69916 0
M  V30 931 H 71.4471 -1.11856 6.46393 0
M  V30 932 H 71.3641 0.224126 7.55668 0
M  V30 933 H 72.6321 -0.951336 7.73673 0
M  V30 934 N 76.8612 -1.46375 0.584142 0
M  V30 935 C 78.0892 -2.06761 0.0759296 0
M  V30 936 C 78.5042 -1.43266 -1.22965 0
M  V30 937 O 77.8612 -0.538458 -1.74376 0
M  V30 938 C 77.9122 -3.61375 -0.0950384 0
M  V30 939 O 77.6332 -4.22495 1.15887 0
M  V30 940 C 79.1342 -4.38693 -0.637434 0
M  V30 941 H 76.3542 -0.668479 0.0581075 0
M  V30 942 H 78.8982 -1.8798 0.805218 0
M  V30 943 H 77.0532 -3.79578 -0.774554 0
M  V30 944 H 77.4672 -5.15385 0.973598 0
M  V30 945 H 78.9412 -5.47464 -0.706237 0
M  V30 946 H 79.4182 -4.06836 -1.65472 0
M  V30 947 H 80.0242 -4.25299 0.00725967 0
M  V30 948 N 78.3393 -0.321999 -1.54275 0
M  V30 949 C 79.2873 0.560206 -2.25753 0
M  V30 950 C 80.2813 1.11984 -1.27106 0
M  V30 951 O 81.4873 1.06806 -1.44888 0
M  V30 952 H 77.8623 0.199304 -0.725108 0
M  V30 953 H 79.8333 -0.0649365 -2.98329 0
M  V30 954 C 78.5823 1.71023 -3.02731 0
M  V30 955 H 77.9053 1.28885 -3.78456 0
M  V30 956 H 79.3453 2.30314 -3.55993 0
M  V30 957 C 77.8043 2.62692 -2.10938 0
M  V30 958 O 78.3343 3.64364 -1.6912 0
M  V30 959 N 76.5403 2.30891 -1.76459 0
M  V30 960 H 76.0873 1.48253 -2.10663 0
M  V30 961 H 76.0453 2.92487 -1.1532 0
M  V30 962 N 79.8174 1.5752 -0.0501392 0
M  V30 963 C 81.0664 1.91827 0.623328 0
M  V30 964 C 81.3794 0.930222 1.72065 0
M  V30 965 O 82.5854 1.1653 2.4522 0
M  V30 966 C 81.0414 3.40692 1.16003 0
M  V30 967 C 80.6494 4.479 0.0948811 0
M  V30 968 C 82.3934 3.84034 1.80881 0
M  V30 969 C 80.3004 5.87879 0.644411 0
M  V30 970 H 79.2304 0.715918 0.236596 0
M  V30 971 H 81.8814 1.83115 -0.118861 0
M  V30 972 H 80.2634 3.44405 1.9545 0
M  V30 973 H 81.4374 4.55775 -0.678675 0
M  V30 974 H 79.7524 4.13892 -0.45637 0
M  V30 975 H 82.3494 4.85984 2.22988 0
M  V30 976 H 82.6924 3.20225 2.6601 0
M  V30 977 H 83.2254 3.82833 1.0809 0
M  V30 978 H 79.9644 6.55282 -0.169229 0
M  V30 979 H 79.4844 5.83567 1.38598 0
M  V30 980 H 81.1634 6.37098 1.12763 0
M  V30 981 N 81.2955 -0.223234 1.56011 0
M  V30 982 C 82.5415 -0.949279 1.79211 0
M  V30 983 C 82.8745 -1.84054 0.619494 0
M  V30 984 O 82.1495 -1.90726 -0.381317 0
M  V30 985 C 82.4325 -1.78965 3.12479 0
M  V30 986 C 82.2855 -0.924997 4.40186 0
M  V30 987 C 83.6045 -2.76774 3.42175 0
M  V30 988 H 80.7235 -0.343676 0.651963 0
M  V30 989 H 83.3655 -0.218253 1.88742 0
M  V30 990 H 81.5155 -2.41291 3.04485 0
M  V30 991 H 83.1875 -0.318615 4.60198 0
M  V30 992 H 81.4305 -0.230344 4.33188 0
M  V30 993 H 82.1015 -1.54735 5.29869 0
M  V30 994 H 84.5775 -2.24584 3.50287 0
M  V30 995 H 83.4535 -3.32678 4.36597 0
M  V30 996 H 83.7145 -3.54429 2.64258 0
M  V30 997 N 82.7736 -1.49793 -0.48987 0
M  V30 998 C 84.0216 -1.59525 -1.24081 0
M  V30 999 C 84.3426 -0.288953 -1.92847 0
M  V30 1000 O 83.6126 0.692436 -1.83254 0
M  V30 1001 H 82.1926 -0.587796 -0.460983 0
M  V30 1002 H 84.8546 -1.86477 -0.566778 0
M  V30 1003 H 83.9506 -2.39696 -1.99881 0
M  V30 1004 N 84.2517 0.741722 -1.39055 0
M  V30 1005 C 85.5007 1.49656 -1.35225 0
M  V30 1006 C 85.8137 1.95533 0.0512708 0
M  V30 1007 O 87.0197 2.7067 0.212138 0
M  V30 1008 C 85.4757 2.70389 -2.37525 0
M  V30 1009 C 85.0837 2.31489 -3.83558 0
M  V30 1010 C 86.8277 3.48236 -2.42759 0
M  V30 1011 C 84.7347 3.48903 -4.77515 0
M  V30 1012 H 83.6647 0.56197 -0.502699 0
M  V30 1013 H 86.3157 0.809727 -1.64668 0
M  V30 1014 H 84.6977 3.41113 -2.01142 0
M  V30 1015 H 85.8717 1.68354 -4.28945 0
M  V30 1016 H 84.1867 1.66749 -3.81554 0
M  V30 1017 H 86.7837 4.35558 -3.1015 0
M  V30 1018 H 87.1267 3.90229 -1.45008 0
M  V30 1019 H 87.6597 2.84535 -2.78002 0
M  V30 1020 H 84.3987 3.11966 -5.76504 0
M  V30 1021 H 83.9187 4.11041 -4.36813 0
M  V30 1022 H 85.5977 4.15328 -4.96096 0
M  V30 1023 N 85.7298 1.2412 0.971189 0
M  V30 1024 C 86.6598 1.05508 2.08304 0
M  V30 1025 C 87.6408 -0.0308864 1.70072 0
M  V30 1026 O 88.8258 0.135521 1.93727 0
M  V30 1027 C 85.9558 0.655365 3.4106 0
M  V30 1028 C 84.9098 1.68971 3.93234 0
M  V30 1029 C 84.2358 1.14516 5.22293 0
M  V30 1030 C 85.5358 3.08487 4.21465 0
M  V30 1031 H 87.2298 1.98507 2.24132 0
M  V30 1032 H 84.7758 0.955821 1.07704 0
M  V30 1033 H 86.7288 0.51217 4.18276 0
M  V30 1034 H 85.4528 -0.31032 3.25122 0
M  V30 1035 H 84.1118 1.82106 3.18171 0
M  V30 1036 H 83.7598 0.170189 5.02712 0
M  V30 1037 H 83.4598 1.83635 5.58168 0
M  V30 1038 H 84.9838 1.01401 6.02121 0
M  V30 1039 H 86.3978 2.98601 4.89398 0
M  V30 1040 H 84.7948 3.74926 4.68562 0
M  V30 1041 H 85.8648 3.56787 3.28376 0
M  V30 1042 N 87.2079 -1.17134 1.05439 0
M  V30 1043 C 88.1559 -2.23289 0.651511 0
M  V30 1044 C 89.1499 -1.66186 -0.328411 0
M  V30 1045 O 90.3559 -1.78949 -0.194206 0
M  V30 1046 H 86.7309 -0.726938 0.192523 0
M  V30 1047 H 88.7019 -2.54565 1.55689 0
M  V30 1048 C 87.4509 -3.47671 0.0448436 0
M  V30 1049 H 86.7739 -3.91918 0.78996 0
M  V30 1050 H 88.2139 -4.2353 -0.19964 0
M  V30 1051 C 86.6729 -3.14453 -1.20918 0
M  V30 1052 O 87.2029 -3.29459 -2.29825 0
M  V30 1053 N 85.4089 -2.68657 -1.10779 0
M  V30 1054 H 84.9559 -2.56646 -0.221526 0
M  V30 1055 H 84.9139 -2.46804 -1.9477 0
M  V30 1056 N 88.686 -0.835752 -1.33615 0
M  V30 1057 C 89.932 -0.430596 -1.98176 0
M  V30 1058 C 90.265 1.00684 -1.66061 0
M  V30 1059 O 89.54 1.70339 -0.938877 0
M  V30 1060 C 89.823 -0.648065 -3.5422 0
M  V30 1061 C 89.676 -2.13255 -3.96033 0
M  V30 1062 C 90.995 -0.0922113 -4.40003 0
M  V30 1063 H 88.114 -0.157924 -0.719881 0
M  V30 1064 H 90.756 -1.05069 -1.58305 0
M  V30 1065 H 88.906 -0.120237 -3.88314 0
M  V30 1066 H 90.578 -2.725 -3.72211 0
M  V30 1067 H 88.821 -2.61823 -3.45878 0
M  V30 1068 H 89.492 -2.23547 -5.04708 0
M  V30 1069 H 91.968 -0.543343 -4.12537 0
M  V30 1070 H 90.844 -0.274083 -5.48215 0
M  V30 1071 H 91.105 1.00378 -4.30554 0
M  V30 1072 N 90.1641 1.46063 -0.591896 0
M  V30 1073 C 91.1121 2.32124 0.148739 0
M  V30 1074 C 92.1061 1.45035 0.875286 0
M  V30 1075 O 93.3121 1.61609 0.792632 0
M  V30 1076 H 89.6871 0.749024 0.066832 0
M  V30 1077 H 91.6581 2.92392 -0.595783 0
M  V30 1078 C 90.4071 3.28373 1.1431 0
M  V30 1079 H 89.7301 3.95371 0.59346 0
M  V30 1080 H 91.1701 3.91352 1.63155 0
M  V30 1081 C 89.6291 2.54393 2.20875 0
M  V30 1082 O 90.1591 2.31373 3.28374 0
M  V30 1083 N 88.3651 2.14797 1.95731 0
M  V30 1084 H 87.9121 2.33719 1.08319 0
M  V30 1085 H 87.8701 1.65619 2.67241 0
M  V30 1086 N 91.6422 0.330177 1.54103 0
M  V30 1087 C 92.8722 -0.271784 2.04805 0
M  V30 1088 C 93.2802 -1.45816 1.20559 0
M  V30 1089 O 92.6232 -1.82247 0.2306 0
M  V30 1090 C 92.6852 -0.763238 3.51305 0
M  V30 1091 C 92.3492 0.301705 4.56003 0
M  V30 1092 C 93.3462 1.13999 5.07248 0
M  V30 1093 C 91.0312 0.451793 5.00264 0
M  V30 1094 C 93.0252 2.11402 6.01322 0
M  V30 1095 C 90.7122 1.42924 5.94151 0
M  V30 1096 C 91.7102 2.25882 6.44567 0
M  V30 1097 O 91.3982 3.21965 7.3661 0
M  V30 1098 H 91.1302 -0.058693 0.673447 0
M  V30 1099 H 93.6842 0.476395 1.99799 0
M  V30 1100 H 91.9142 -1.56244 3.5373 0
M  V30 1101 H 93.6032 -1.28427 3.85047 0
M  V30 1102 H 94.3692 1.03505 4.73827 0
M  V30 1103 H 90.2482 -0.184044 4.60632 0
M  V30 1104 H 93.7922 2.76192 6.40596 0
M  V30 1105 H 89.6892 1.53479 6.26988 0
M  V30 1106 H 90.4572 3.17281 7.54503 0
M  V30 1107 N 93.1203 -1.57491 0.0584922 0
M  V30 1108 C 94.3973 -1.84346 -0.653918 0
M  V30 1109 C 94.7773 -0.948355 -1.88599 0
M  V30 1110 O 94.1253 -0.0112403 -2.28497 0
M  V30 1111 C 94.3353 -3.34239 -1.00425 0
M  V30 1112 C 95.6833 -4.01431 -1.38342 0
M  V30 1113 O 96.7073 -3.38907 -1.09637 0
M  V30 1114 O 95.5663 -5.11683 -1.91943 0
M  V30 1115 H 92.6603 -0.761112 -0.323478 0
M  V30 1116 H 95.2063 -1.6947 0.0884125 0
M  V30 1117 H 93.9783 -3.91089 -0.128625 0
M  V30 1118 H 93.6013 -3.54329 -1.80378 0
M  V30 1119 N 94.5984 0.214957 -1.56127 0
M  V30 1120 C 95.8234 0.95924 -1.83884 0
M  V30 1121 C 96.2484 1.7689 -0.639644 0
M  V30 1122 O 95.6064 1.76566 0.411601 0
M  V30 1123 C 95.6544 1.84723 -3.09693 0
M  V30 1124 O 94.7584 2.94346 -2.8885 0
M  V30 1125 H 94.0994 0.27125 -0.606069 0
M  V30 1126 H 96.6294 0.226276 -2.03345 0
M  V30 1127 H 96.6394 2.25576 -3.39969 0
M  V30 1128 H 95.3144 1.25218 -3.96602 0
M  V30 1129 H 93.8914 2.57391 -2.69823 0
M  V30 1130 N 96.0765 1.50051 0.48192 0
M  V30 1131 C 97.3235 1.60498 1.23477 0
M  V30 1132 C 97.6515 0.300331 1.92167 0
M  V30 1133 O 96.9065 -0.713094 1.82246 0
M  V30 1134 C 97.2055 2.72717 2.30998 0
M  V30 1135 C 96.8715 4.13572 1.79636 0
M  V30 1136 C 95.5335 4.519 1.65348 0
M  V30 1137 C 97.8855 5.01649 1.41412 0
M  V30 1138 C 95.2135 5.76057 1.11244 0
M  V30 1139 C 97.5655 6.26343 0.887538 0
M  V30 1140 C 96.2295 6.63483 0.731207 0
M  V30 1141 H 95.4995 0.587303 0.451836 0
M  V30 1142 H 98.1465 1.83948 0.532468 0
M  V30 1143 H 96.4515 2.43312 3.07094 0
M  V30 1144 H 98.1485 2.78006 2.88988 0
M  V30 1145 H 94.7385 3.83329 1.91721 0
M  V30 1146 H 98.9225 4.72679 1.51289 0
M  V30 1147 H 94.1785 6.03516 0.978686 0
M  V30 1148 H 98.3525 6.93958 0.582654 0
M  V30 1149 H 95.9795 7.59568 0.309806 0
M  V30 1150 N 97.5546 -0.734337 1.39446 0
M  V30 1151 C 98.7796 -1.52866 1.40167 0
M  V30 1152 C 99.2046 -1.881 -0.00171513 0
M  V30 1153 O 98.5626 -1.51957 -0.988879 0
M  V30 1154 C 98.6106 -2.79235 2.28167 0
M  V30 1155 O 97.7146 -3.75185 1.71201 0
M  V30 1156 H 97.0556 -0.461618 0.477289 0
M  V30 1157 H 99.5856 -0.905949 1.8345 0
M  V30 1158 H 99.5956 -3.27963 2.42702 0
M  V30 1159 H 98.2706 -2.52923 3.30156 0
M  V30 1160 H 96.8476 -3.33958 1.65912 0
M  V30 1161 N 99.0327 -1.24633 -0.964593 0
M  V30 1162 C 100.31 -0.995809 -1.68354 0
M  V30 1163 C 100.69 0.480964 -2.05548 0
M  V30 1164 O 100.038 1.45599 -1.76105 0
M  V30 1165 C 100.248 -1.92177 -2.91323 0
M  V30 1166 C 101.596 -2.19446 -3.63495 0
M  V30 1167 O 102.62 -1.89855 -3.01386 0
M  V30 1168 O 101.479 -2.69714 -4.75307 0
M  V30 1169 H 98.5727 -0.376854 -0.736146 0
M  V30 1170 H 101.119 -1.35745 -1.0184 0
M  V30 1171 H 99.8907 -2.91938 -2.60553 0
M  V30 1172 H 99.5137 -1.56349 -3.65569 0
M  V30 1173 N 100.511 1.16574 -1.06058 0
M  V30 1174 C 101.759 1.86677 -0.77434 0
M  V30 1175 C 102.08 1.81959 0.701147 0
M  V30 1176 O 101.35 1.2515 1.50713 0
M  V30 1177 H 99.9298 0.691134 -0.283449 0
M  V30 1178 H 102.592 1.41378 -1.34158 0
M  V30 1179 H 101.688 2.92181 -1.09711 0
M  V30 1180 N 101.989 0.842826 1.3317 0
M  V30 1181 C 103.237 0.439577 1.97262 0
M  V30 1182 C 103.558 -1.00548 1.67078 0
M  V30 1183 O 102.828 -1.70098 0.971779 0
M  V30 1184 H 101.408 0.159558 0.72976 0
M  V30 1185 H 104.07 1.07665 1.62463 0
M  V30 1186 H 103.166 0.574886 3.0676 0
M  V30 1187 N 103.467 -1.45747 0.599634 0
M  V30 1188 C 104.716 -2.01502 0.0893511 0
M  V30 1189 C 105.029 -1.4748 -1.28488 0
M  V30 1190 O 106.235 -1.95161 -1.88745 0
M  V30 1191 C 104.691 -3.59735 0.109082 0
M  V30 1192 C 104.299 -4.22754 1.48267 0
M  V30 1193 C 106.043 -4.23085 -0.346374 0
M  V30 1194 C 103.95 -5.73115 1.45921 0
M  V30 1195 H 102.88 -0.753417 0.0296347 0
M  V30 1196 H 105.531 -1.67303 0.753788 0
M  V30 1197 H 103.913 -3.91087 -0.621854 0
M  V30 1198 H 105.087 -4.02987 2.23468 0
M  V30 1199 H 103.402 -3.71567 1.87955 0
M  V30 1200 H 105.999 -5.33327 -0.38298 0
M  V30 1201 H 106.342 -3.93201 -1.36743 0
M  V30 1202 H 106.875 -3.9642 0.331038 0
M  V30 1203 H 103.614 -6.07685 2.45762 0
M  V30 1204 H 103.134 -5.95097 0.749665 0
M  V30 1205 H 104.813 -6.3616 1.17941 0
M  V30 1206 N 104.945 -0.338344 -1.53925 0
M  V30 1207 C 106.192 0.259758 -2.00827 0
M  V30 1208 C 106.52 1.50973 -1.22628 0
M  V30 1209 O 105.775 1.93379 -0.300509 0
M  V30 1210 C 106.074 0.62448 -3.51902 0
M  V30 1211 C 105.74 -0.528006 -4.47798 0
M  V30 1212 C 104.402 -0.844298 -4.73735 0
M  V30 1213 C 106.754 -1.30143 -5.0469 0
M  V30 1214 C 104.082 -1.93648 -5.53821 0
M  V30 1215 C 106.434 -2.38382 -5.85967 0
M  V30 1216 C 105.098 -2.70576 -6.10201 0
M  V30 1217 H 104.368 0.0950523 -0.734878 0
M  V30 1218 H 107.015 -0.465182 -1.85764 0
M  V30 1219 H 105.32 1.43006 -3.64769 0
M  V30 1220 H 107.017 1.09905 -3.85645 0
M  V30 1221 H 103.607 -0.271421 -4.2774 0
M  V30 1222 H 107.791 -1.07033 -4.84621 0
M  V30 1223 H 103.047 -2.19021 -5.70824 0
M  V30 1224 H 107.221 -2.98746 -6.29066 0
M  V30 1225 H 104.848 -3.55333 -6.72044 0
M  V30 1226 N 106.423 1.57458 -0.0668435 0
M  V30 1227 C 107.669 1.93587 0.6043 0
M  V30 1228 C 108.002 0.946722 1.69561 0
M  V30 1229 O 107.277 -0.0248516 1.94484 0
M  V30 1230 C 107.56 3.40014 1.18585 0
M  V30 1231 C 107.413 4.49685 0.101529 0
M  V30 1232 C 108.732 3.87154 2.09284 0
M  V30 1233 H 105.851 0.703958 0.218202 0
M  V30 1234 H 108.493 1.89542 -0.131804 0
M  V30 1235 H 106.643 3.43592 1.81319 0
M  V30 1236 H 108.315 4.5823 -0.531279 0
M  V30 1237 H 106.558 4.30059 -0.568487 0
M  V30 1238 H 107.229 5.49266 0.54874 0
M  V30 1239 H 109.705 3.85551 1.56491 0
M  V30 1240 H 108.581 4.90231 2.46911 0
M  V30 1241 H 108.842 3.2481 2.99918 0
M  V30 1242 N 107.901 -0.206675 1.56239 0
M  V30 1243 C 108.811 -1.27686 1.96808 0
M  V30 1244 C 109.827 -1.50455 0.874035 0
M  V30 1245 O 111.003 -1.63295 1.17884 0
M  V30 1246 C 108.068 -2.60358 2.28942 0
M  V30 1247 C 107.129 -2.45762 3.51994 0
M  V30 1248 C 106.362 -3.72108 3.82585 0
M  V30 1249 O 106.585 -4.75776 3.14631 0
M  V30 1250 O 105.519 -3.6833 4.76043 0
M  V30 1251 H 109.345 -0.962593 2.88041 0
M  V30 1252 H 106.93 -0.410746 1.43643 0
M  V30 1253 H 108.812 -3.38687 2.50737 0
M  V30 1254 H 107.487 -2.91435 1.4088 0
M  V30 1255 H 106.394 -1.65584 3.35459 0
M  V30 1256 H 107.727 -2.19621 4.40486 0
M  V30 1257 N 109.379 -1.50304 -0.473955 0
M  V30 1258 C 110.79 -1.54042 -1.0549 0
M  V30 1259 C 111.141 -0.342248 -1.93192 0
M  V30 1260 O 110.266 0.545157 -2.09421 0
M  V30 1261 C 110.861 -2.79152 -1.91989 0
M  V30 1262 C 109.42 -2.8558 -2.45196 0
M  V30 1263 C 108.567 -2.48295 -1.2347 0
M  V30 1264 H 111.518 -1.5661 -0.256693 0
M  V30 1265 H 111.539 -2.60845 -2.7702 0
M  V30 1266 H 111.051 -3.66339 -1.28131 0
M  V30 1267 H 109.152 -2.02738 -3.12615 0
M  V30 1268 H 109.265 -3.88403 -2.80499 0
M  V30 1269 H 107.629 -2.00669 -1.56856 0
M  V30 1270 H 108.412 -3.37787 -0.612789 0
M  V30 1271 N 110.857 0.726932 -1.39834 0
M  V30 1272 C 111.804 1.841 -1.39197 0
M  V30 1273 C 112.774 1.642 -0.250502 0
M  V30 1274 O 113.959 1.85494 -0.446846 0
M  V30 1275 C 111.099 3.21697 -1.24919 0
M  V30 1276 C 110.212 3.53247 -2.48678 0
M  V30 1277 C 109.347 4.80289 -2.26928 0
M  V30 1278 C 108.386 5.04707 -3.4632 0
M  V30 1279 N 107.523 6.22956 -3.23836 0
M  V30 1280 H 112.363 1.83979 -2.34427 0
M  V30 1281 H 109.9 0.898876 -1.16442 0
M  V30 1282 H 111.858 4.01137 -1.1465 0
M  V30 1283 H 110.488 3.21076 -0.333153 0
M  V30 1284 H 109.54 2.68447 -2.69519 0
M  V30 1285 H 110.852 3.67205 -3.37582 0
M  V30 1286 H 110.006 5.67725 -2.13947 0
M  V30 1287 H 108.745 4.68519 -1.35431 0
M  V30 1288 H 107.75 4.1573 -3.5979 0
M  V30 1289 H 108.975 5.18357 -4.38729 0
M  V30 1290 H 106.921 6.12459 -2.35011 0
M  V30 1291 H 106.838 6.37539 -4.063 0
M  V30 1292 H 108.106 7.1321 -3.14566 0
M  V30 1293 N 112.336 1.25143 0.95797 0
M  V30 1294 C 113.752 1.01892 1.22842 0
M  V30 1295 C 113.952 -0.266311 1.99732 0
M  V30 1296 O 113.008 -0.979913 2.3271 0
M  V30 1297 C 114.321 2.24004 2.00606 0
M  V30 1298 C 115.869 2.28731 2.13662 0
M  V30 1299 C 116.344 3.5049 2.94823 0
M  V30 1300 N 117.835 3.50866 3.02403 0
M  V30 1301 C 118.57 4.4174 3.65586 0
M  V30 1302 N 118.066 5.42882 4.30408 0
M  V30 1303 N 119.859 4.29429 3.62694 0
M  V30 1304 H 112.01 2.07718 0.443493 0
M  V30 1305 H 114.273 0.912031 0.258657 0
M  V30 1306 H 113.979 3.17395 1.51503 0
M  V30 1307 H 113.853 2.26907 3.01319 0
M  V30 1308 H 116.24 1.35865 2.61963 0
M  V30 1309 H 116.321 2.29848 1.12265 0
M  V30 1310 H 115.965 4.43676 2.47213 0
M  V30 1311 H 115.895 3.46617 3.96439 0
M  V30 1312 H 118.386 2.777 2.56302 0
M  V30 1313 H 118.699 6.0844 4.76467 0
M  V30 1314 H 117.044 5.46758 4.29047 0
M  V30 1315 H 120.235 3.49643 3.11236 0
M  V30 1316 H 120.408 5.00448 4.1165 0
M  V30 1317 N 113.814 -1.1601 1.06675 0
M  V30 1318 C 114.777 -2.18724 0.685001 0
M  V30 1319 C 115.777 -1.58496 -0.271246 0
M  V30 1320 O 116.967 -1.74119 -0.0531156 0
M  V30 1321 C 114.099 -3.40899 0.00853648 0
M  V30 1322 H 115.292 -2.54011 1.59431 0
M  V30 1323 H 112.845 -1.30352 0.862441 0
M  V30 1324 H 113.58 -3.11173 -0.913337 0
M  V30 1325 H 113.365 -3.8587 0.696204 0
M  V30 1326 H 114.855 -4.16886 -0.24414 0
M  V30 1327 N 115.292 -0.849877 -1.32721 0
M  V30 1328 C 116.538 -0.451591 -1.97708 0
M  V30 1329 C 116.871 0.989175 -1.6712 0
M  V30 1330 O 116.146 1.69334 -0.956891 0
M  V30 1331 C 116.429 -0.685598 -3.53513 0
M  V30 1332 C 116.282 -2.17444 -3.93749 0
M  V30 1333 C 117.601 -0.138874 -4.39881 0
M  V30 1334 H 114.72 -0.16555 -0.718166 0
M  V30 1335 H 117.362 -1.06742 -1.57182 0
M  V30 1336 H 115.512 -0.161416 -3.88165 0
M  V30 1337 H 117.184 -2.76433 -3.693 0
M  V30 1338 H 115.427 -2.65476 -3.43081 0
M  V30 1339 H 116.098 -2.28888 -5.02309 0
M  V30 1340 H 118.574 -0.587068 -4.11938 0
M  V30 1341 H 117.45 -0.332213 -5.47894 0
M  V30 1342 H 117.711 0.95806 -4.31594 0
M  V30 1343 N 116.77 1.45427 -0.607355 0
M  V30 1344 C 117.702 2.2871 0.149752 0
M  V30 1345 C 118.715 1.39937 0.831958 0
M  V30 1346 O 119.904 1.64313 0.697385 0
M  V30 1347 C 117.004 3.15673 1.23304 0
M  V30 1348 C 116.177 4.32722 0.637996 0
M  V30 1349 C 115.236 5.00895 1.61215 0
M  V30 1350 O 114.262 5.57697 1.13854 0
M  V30 1351 N 115.464 5.00159 2.94655 0
M  V30 1352 H 118.229 2.94328 -0.564882 0
M  V30 1353 H 115.79 1.55612 -0.446823 0
M  V30 1354 H 117.782 3.58144 1.88454 0
M  V30 1355 H 116.352 2.51965 1.8502 0
M  V30 1356 H 115.572 3.93734 -0.191572 0
M  V30 1357 H 116.86 5.08321 0.220665 0
M  V30 1358 H 116.258 4.553 3.35735 0
M  V30 1359 H 114.815 5.46495 3.55228 0
M  V30 1360 N 118.248 0.346503 1.53744 0
M  V30 1361 C 119.664 -0.00530975 1.59599 0
M  V30 1362 C 119.864 -1.48465 1.36236 0
M  V30 1363 O 118.92 -2.24376 1.15808 0
M  V30 1364 C 120.233 0.433516 2.97559 0
M  V30 1365 C 121.781 0.386111 3.10609 0
M  V30 1366 C 122.256 0.800451 4.50951 0
M  V30 1367 N 123.747 0.754753 4.5701 0
M  V30 1368 C 124.482 1.04727 5.63755 0
M  V30 1369 N 123.978 1.4081 6.7834 0
M  V30 1370 N 125.771 0.971316 5.53644 0
M  V30 1371 H 117.922 1.31009 1.67184 0
M  V30 1372 H 120.185 0.534242 0.783128 0
M  V30 1373 H 119.891 1.46509 3.19731 0
M  V30 1374 H 119.765 -0.189753 3.76722 0
M  V30 1375 H 122.152 -0.636295 2.88158 0
M  V30 1376 H 122.233 1.04462 2.33498 0
M  V30 1377 H 121.877 1.82088 4.74137 0
M  V30 1378 H 121.807 0.119386 5.26465 0
M  V30 1379 H 124.298 0.488662 3.74727 0
M  V30 1380 H 124.611 1.61607 7.55714 0
M  V30 1381 H 122.956 1.44657 6.79779 0
M  V30 1382 H 126.147 0.688748 4.63005 0
M  V30 1383 H 126.32 1.20263 6.36742 0
M  V30 1384 N 119.726 -1.57421 0.075193 0
M  V30 1385 C 120.659 -2.08528 -0.926904 0
M  V30 1386 C 121.637 -0.991171 -1.28898 0
M  V30 1387 O 122.821 -1.26479 -1.39769 0
M  V30 1388 C 119.948 -2.54576 -2.23402 0
M  V30 1389 C 118.994 -3.75454 -2.02327 0
M  V30 1390 S 119.827 -5.19989 -1.27951 0
M  V30 1391 C 120.983 -5.69372 -2.59935 0
M  V30 1392 H 121.216 -2.932 -0.492048 0
M  V30 1393 H 118.749 -1.53785 -0.137651 0
M  V30 1394 H 120.707 -2.81767 -2.98526 0
M  V30 1395 H 119.368 -1.70166 -2.64012 0
M  V30 1396 H 118.561 -4.05675 -2.99071 0
M  V30 1397 H 118.163 -3.48654 -1.35339 0
M  V30 1398 H 120.455 -5.76424 -3.56008 0
M  V30 1399 H 121.398 -6.68207 -2.34319 0
M  V30 1400 H 121.806 -4.97205 -2.67296 0
M  V30 1401 N 121.204 0.198386 -1.56346 0
M  V30 1402 C 122.451 0.919286 -1.80431 0
M  V30 1403 C 122.779 1.83393 -0.647866 0
M  V30 1404 O 122.034 1.92236 0.366556 0
M  V30 1405 C 122.333 1.77031 -3.10475 0
M  V30 1406 C 121.999 1.00693 -4.39513 0
M  V30 1407 C 120.661 0.796145 -4.74568 0
M  V30 1408 C 123.013 0.469559 -5.19081 0
M  V30 1409 C 120.341 0.0364588 -5.86689 0
M  V30 1410 C 122.693 -0.2769 -6.31994 0
M  V30 1411 C 121.357 -0.49873 -6.65634 0
M  V30 1412 H 120.627 0.336391 -0.660244 0
M  V30 1413 H 123.274 0.185872 -1.90596 0
M  V30 1414 H 121.579 2.5723 -2.95533 0
M  V30 1415 H 123.276 2.33065 -3.26315 0
M  V30 1416 H 119.866 1.18122 -4.12001 0
M  V30 1417 H 124.05 0.619816 -4.92414 0
M  V30 1418 H 119.306 -0.145412 -6.11227 0
M  V30 1419 H 123.48 -0.700684 -6.92866 0
M  V30 1420 H 121.107 -1.0893 -7.52355 0
M  V30 1421 N 122.682 1.50554 0.465978 0
M  V30 1422 C 123.592 1.72585 1.58907 0
M  V30 1423 C 124.608 0.60911 1.6299 0
M  V30 1424 O 125.784 0.88804 1.80765 0
M  V30 1425 C 122.849 1.81995 2.95091 0
M  V30 1426 C 121.91 3.05751 3.01355 0
M  V30 1427 C 121.143 3.14702 4.31043 0
M  V30 1428 O 121.366 2.30313 5.21835 0
M  V30 1429 O 120.3 4.07468 4.43005 0
M  V30 1430 H 124.126 2.67799 1.43239 0
M  V30 1431 H 121.711 1.34711 0.646013 0
M  V30 1432 H 123.593 1.90335 3.75966 0
M  V30 1433 H 122.268 0.899659 3.10947 0
M  V30 1434 H 121.175 3.02908 2.19539 0
M  V30 1435 H 122.508 3.97375 2.90437 0
M  V30 1436 N 124.16 -0.719506 1.40217 0
M  V30 1437 C 125.093 -1.84298 1.34571 0
M  V30 1438 C 126.071 -1.61149 0.216741 0
M  V30 1439 O 127.255 -1.84212 0.399756 0
M  V30 1440 C 124.382 -3.20568 1.09335 0
M  V30 1441 C 123.428 -3.62551 2.24631 0
M  V30 1442 S 124.261 -3.7012 3.87004 0
M  V30 1443 C 125.417 -5.09154 3.64024 0
M  V30 1444 H 125.65 -1.88807 2.2965 0
M  V30 1445 H 123.183 -0.885901 1.26456 0
M  V30 1446 H 125.141 -3.99246 0.954602 0
M  V30 1447 H 123.802 -3.13696 0.159164 0
M  V30 1448 H 122.995 -4.61483 2.02606 0
M  V30 1449 H 122.597 -2.91119 2.34789 0
M  V30 1450 H 124.889 -5.95955 3.22248 0
M  V30 1451 H 125.832 -5.36213 4.62473 0
M  V30 1452 H 126.24 -4.79562 2.97793 0
M  V30 1453 N 125.638 -1.25649 -0.95132 0
M  V30 1454 C 126.887 -1.09988 -1.69073 0
M  V30 1455 C 127.2 0.358355 -1.92289 0
M  V30 1456 O 128.406 0.635466 -2.63958 0
M  V30 1457 C 126.862 -1.92012 -3.044 0
M  V30 1458 C 126.47 -3.42347 -2.88968 0
M  V30 1459 C 128.214 -1.8493 -3.82101 0
M  V30 1460 C 126.121 -4.16655 -4.19705 0
M  V30 1461 H 125.051 -0.407993 -0.63408 0
M  V30 1462 H 127.702 -1.49873 -1.05879 0
M  V30 1463 H 126.084 -1.44952 -3.68517 0
M  V30 1464 H 127.258 -3.97104 -2.33762 0
M  V30 1465 H 125.573 -3.50557 -2.24719 0
M  V30 1466 H 128.17 -2.37739 -4.78941 0
M  V30 1467 H 128.513 -0.817883 -4.08187 0
M  V30 1468 H 129.046 -2.29758 -3.2474 0
M  V30 1469 H 125.785 -5.20224 -3.98807 0
M  V30 1470 H 125.305 -3.66681 -4.74663 0
M  V30 1471 H 126.984 -4.24551 -4.88227 0
M  V30 1472 N 127.117 1.15442 -1.07289 0
M  V30 1473 C 128.065 2.22225 -0.686952 0
M  V30 1474 C 129.059 1.66688 0.30193 0
M  V30 1475 O 130.265 1.79236 0.165712 0
M  V30 1476 H 126.64 0.723783 -0.204064 0
M  V30 1477 H 128.611 2.52056 -1.5972 0
M  V30 1478 C 127.36 3.47556 -0.100149 0
M  V30 1479 H 126.683 3.90612 -0.852211 0
M  V30 1480 H 128.123 4.23794 0.132235 0
M  V30 1481 C 126.582 3.16337 1.159 0
M  V30 1482 O 127.112 3.33074 2.24555 0
M  V30 1483 N 125.318 2.70385 1.06491 0
M  V30 1484 H 124.865 2.56966 0.180668 0
M  V30 1485 H 124.823 2.49871 1.90819 0
M  V30 1486 N 128.595 0.856903 1.32268 0
M  V30 1487 C 129.505 0.306131 2.32594 0
M  V30 1488 C 130.521 -0.577209 1.64147 0
M  V30 1489 O 131.697 -0.477043 1.95669 0
M  V30 1490 C 128.762 -0.494561 3.43154 0
M  V30 1491 C 127.823 0.415186 4.27288 0
M  V30 1492 C 127.056 -0.347387 5.32568 0
M  V30 1493 O 127.279 -1.57708 5.48165 0
M  V30 1494 O 126.213 0.287982 6.01211 0
M  V30 1495 H 130.039 1.13737 2.81598 0
M  V30 1496 H 127.624 0.619902 1.35932 0
M  V30 1497 H 129.506 -0.948944 4.10576 0
M  V30 1498 H 128.181 -1.30257 2.96336 0
M  V30 1499 H 127.088 0.917793 3.62667 0
M  V30 1500 H 128.421 1.18844 4.77637 0
M  V30 1501 N 130.073 -1.45103 0.615059 0
M  V30 1502 C 131.321 -2.01784 0.112955 0
M  V30 1503 C 131.642 -1.48504 -1.26378 0
M  V30 1504 O 130.912 -0.682245 -1.83636 0
M  V30 1505 H 129.492 -0.745993 0.0387668 0
M  V30 1506 H 132.154 -1.77808 0.798141 0
M  V30 1507 H 131.25 -3.12025 0.0684069 0
M  V30 1508 N 131.551 -0.354651 -1.53558 0
M  V30 1509 C 132.514 0.484566 -2.24019 0
M  V30 1510 C 133.514 1.01861 -1.24422 0
M  V30 1511 O 134.704 0.906097 -1.4878 0
M  V30 1512 C 131.836 1.67615 -2.96847 0
M  V30 1513 H 133.029 -0.131843 -2.9961 0
M  V30 1514 H 130.582 -0.106165 -1.55939 0
M  V30 1515 H 131.317 2.33095 -2.25471 0
M  V30 1516 H 131.102 1.30029 -3.69912 0
M  V30 1517 H 132.592 2.27114 -3.50441 0
M  V30 1518 N 133.029 1.57378 -0.0835403 0
M  V30 1519 C 134.254 1.98682 0.594987 0
M  V30 1520 C 134.679 0.961969 1.61641 0
M  V30 1521 O 134.037 -0.0709989 1.81161 0
M  V30 1522 C 134.085 3.38988 1.2296 0
M  V30 1523 O 133.189 3.39208 2.34546 0
M  V30 1524 H 132.53 0.646368 0.152002 0
M  V30 1525 H 135.06 2.03961 -0.161533 0
M  V30 1526 H 135.07 3.76431 1.57366 0
M  V30 1527 H 133.745 4.13107 0.481228 0
M  V30 1528 H 132.322 3.13548 2.01846 0
M  V30 1529 N 134.507 -0.190092 1.56449 0
M  V30 1530 C 135.753 -0.911052 1.81184 0
M  V30 1531 C 136.086 -1.82699 0.658396 0
M  V30 1532 O 135.361 -1.91491 -0.340775 0
M  V30 1533 C 135.644 -1.72297 3.16205 0
M  V30 1534 C 135.497 -0.831419 4.42049 0
M  V30 1535 C 136.816 -2.69454 3.47969 0
M  V30 1536 H 133.935 -0.32977 0.659106 0
M  V30 1537 H 136.577 -0.178169 1.89163 0
M  V30 1538 H 134.727 -2.34778 3.09534 0
M  V30 1539 H 136.399 -0.220929 4.60771 0
M  V30 1540 H 134.642 -0.138406 4.33579 0
M  V30 1541 H 135.313 -1.43461 5.33032 0
M  V30 1542 H 137.789 -2.17104 3.54972 0
M  V30 1543 H 136.665 -3.23342 4.43555 0
M  V30 1544 H 136.926 -3.48744 2.71717 0
M  V30 1545 N 135.985 -1.50799 -0.457987 0
M  V30 1546 C 137.234 -1.6168 -1.20593 0
M  V30 1547 C 137.547 -0.32888 -1.92815 0
M  V30 1548 O 138.753 -0.316773 -2.69646 0
M  V30 1549 C 137.209 -2.8545 -2.19195 0
M  V30 1550 C 136.817 -4.21168 -1.52715 0
M  V30 1551 C 138.561 -3.05681 -2.94549 0
M  V30 1552 C 136.468 -5.3611 -2.4968 0
M  V30 1553 H 135.398 -0.602134 -0.453818 0
M  V30 1554 H 138.049 -1.77245 -0.475031 0
M  V30 1555 H 136.431 -2.63472 -2.95632 0
M  V30 1556 H 137.605 -4.53449 -0.819775 0
M  V30 1557 H 135.92 -4.06648 -0.895922 0
M  V30 1558 H 138.517 -3.88727 -3.67145 0
M  V30 1559 H 138.86 -2.17929 -3.54701 0
M  V30 1560 H 139.393 -3.27901 -2.25223 0
M  V30 1561 H 136.132 -6.26057 -1.94249 0
M  V30 1562 H 135.652 -5.0823 -3.18532 0
M  V30 1563 H 137.331 -5.6722 -3.11241 0
M  V30 1564 N 137.463 0.71206 -1.40597 0
M  V30 1565 C 138.74 1.46536 -1.29563 0
M  V30 1566 C 139.12 2.10931 0.0844217 0
M  V30 1567 O 138.468 2.00418 1.0975 0
M  V30 1568 C 138.678 2.49821 -2.43701 0
M  V30 1569 C 140.026 3.15551 -2.841 0
M  V30 1570 O 141.05 2.60142 -2.4332 0
M  V30 1571 O 139.909 4.15867 -3.54566 0
M  V30 1572 H 137.003 0.651801 -0.509004 0
M  V30 1573 H 139.549 0.743935 -1.52524 0
M  V30 1574 H 138.321 2.00778 -3.35863 0
M  V30 1575 H 137.944 3.29495 -2.22528 0
M  V30 1576 N 138.941 1.26152 0.944643 0
M  V30 1577 C 140.19 1.10883 1.68487 0
M  V30 1578 C 140.503 -0.348153 1.92477 0
M  V30 1579 O 141.709 -0.621459 2.64292 0
M  V30 1580 C 140.165 1.93624 3.03377 0
M  V30 1581 C 139.773 3.43875 2.87148 0
M  V30 1582 C 141.517 1.86954 3.81115 0
M  V30 1583 C 139.424 4.18875 4.1749 0
M  V30 1584 H 138.354 0.41135 0.631907 0
M  V30 1585 H 141.005 1.50433 1.05082 0
M  V30 1586 H 139.387 1.46904 3.67743 0
M  V30 1587 H 140.561 3.98338 2.31653 0
M  V30 1588 H 138.876 3.51744 2.22856 0
M  V30 1589 H 141.473 2.40275 4.77673 0
M  V30 1590 H 141.816 0.839518 4.07747 0
M  V30 1591 H 142.349 2.31477 3.23517 0
M  V30 1592 H 139.088 5.22332 3.96043 0
M  V30 1593 H 138.608 3.69193 4.72712 0
M  V30 1594 H 140.287 4.27134 4.85968 0
M  V30 1595 N 140.419 -1.14872 1.07899 0
M  V30 1596 C 141.667 -1.85422 0.803941 0
M  V30 1597 C 141.988 -1.83051 -0.67211 0
M  V30 1598 O 141.258 -1.27532 -1.48703 0
M  V30 1599 H 139.838 -0.686537 0.294408 0
M  V30 1600 H 142.5 -1.39226 1.3639 0
M  V30 1601 H 141.596 -2.90399 1.14346 0
M  V30 1602 N 141.898 -0.863906 -1.31812 0
M  V30 1603 C 143.146 -0.470904 -1.96537 0
M  V30 1604 C 143.467 0.978771 -1.68657 0
M  V30 1605 O 142.737 1.6853 -0.998717 0
M  V30 1606 H 141.317 -0.171148 -0.72713 0
M  V30 1607 H 143.979 -1.10236 -1.60729 0
M  V30 1608 H 143.075 -0.623616 -3.05806 0
M  V30 1609 N 143.376 1.44774 -0.622745 0
M  V30 1610 C 144.286 2.34433 0.0886031 0
M  V30 1611 C 145.302 1.52131 0.844529 0
M  V30 1612 O 146.478 1.84886 0.798691 0
M  V30 1613 C 143.543 3.29986 1.0635 0
M  V30 1614 C 142.604 4.28195 0.307873 0
M  V30 1615 C 141.837 5.19183 1.23633 0
M  V30 1616 O 142.06 5.13918 2.47476 0
M  V30 1617 O 140.994 5.97515 0.725189 0
M  V30 1618 H 144.82 2.96693 -0.648599 0
M  V30 1619 H 142.405 1.44408 -0.382957 0
M  V30 1620 H 144.287 3.88825 1.6246 0
M  V30 1621 H 142.962 2.70269 1.78146 0
M  V30 1622 H 141.869 3.72927 -0.296064 0
M  V30 1623 H 143.202 4.90808 -0.3699 0
M  V30 1624 N 144.854 0.36279 1.53368 0
M  V30 1625 C 146.079 -0.231226 2.06107 0
M  V30 1626 C 146.504 -1.419 1.23474 0
M  V30 1627 O 145.862 -1.79524 0.253128 0
M  V30 1628 C 145.91 -0.605523 3.5548 0
M  V30 1629 O 145.014 -1.70312 3.7559 0
M  V30 1630 H 144.355 -0.034327 0.663112 0
M  V30 1631 H 146.885 0.522584 1.97814 0
M  V30 1632 H 146.895 -0.877314 3.98456 0
M  V30 1633 H 145.57 0.263004 4.15068 0
M  V30 1634 H 144.147 -1.4271 3.44512 0
M  V30 1635 N 146.332 -1.57332 0.0918853 0
M  V30 1636 C 147.295 -2.12708 -0.85369 0
M  V30 1637 C 148.295 -1.05561 -1.213 0
M  V30 1638 O 149.485 -1.31461 -1.14296 0
M  V30 1639 C 146.617 -2.64503 -2.15061 0
M  V30 1640 H 147.81 -2.97573 -0.3729 0
M  V30 1641 H 145.363 -1.55509 -0.157072 0
M  V30 1642 H 146.098 -1.83149 -2.67632 0
M  V30 1643 H 145.883 -3.4284 -1.90272 0
M  V30 1644 H 147.373 -3.07351 -2.82711 0
M  V30 1645 N 147.81 0.181792 -1.56548 0
M  V30 1646 C 149.058 0.89832 -1.81038 0
M  V30 1647 C 149.379 1.83232 -0.667164 0
M  V30 1648 O 148.649 1.93372 0.313673 0
M  V30 1649 H 147.229 0.33471 -0.667816 0
M  V30 1650 H 149.891 0.184116 -1.94028 0
M  V30 1651 H 148.987 1.4815 -2.74696 0
M  V30 1652 N 149.288 1.51039 0.449983 0
M  V30 1653 C 150.699 1.557 1.03026 0
M  V30 1654 C 151.05 0.372939 1.92623 0
M  V30 1655 O 150.175 -0.511771 2.10261 0
M  V30 1656 C 150.77 2.82171 1.87523 0
M  V30 1657 C 149.329 2.89444 2.40622 0
M  V30 1658 C 148.476 2.50228 1.19504 0
M  V30 1659 H 151.427 1.56999 0.231745 0
M  V30 1660 H 151.448 2.65219 2.72835 0
M  V30 1661 H 150.96 3.68331 1.22286 0
M  V30 1662 H 149.061 2.07685 3.0935 0
M  V30 1663 H 149.174 3.92816 2.74285 0
M  V30 1664 H 147.538 2.03139 1.53644 0
M  V30 1665 H 148.321 3.38719 0.558972 0
M  V30 1666 N 150.766 -0.704594 1.40972 0
M  V30 1667 C 152.013 -1.46458 1.39844 0
M  V30 1668 C 152.341 -1.94499 0.00447594 0
M  V30 1669 O 151.596 -1.69275 -0.982057 0
M  V30 1670 C 151.895 -2.698 2.34399 0
M  V30 1671 C 151.561 -2.40464 3.81429 0
M  V30 1672 C 150.223 -2.32174 4.21484 0
M  V30 1673 C 152.575 -2.16086 4.74296 0
M  V30 1674 C 149.903 -1.97589 5.52427 0
M  V30 1675 C 152.255 -1.83011 6.05549 0
M  V30 1676 C 150.919 -1.7321 6.44635 0
M  V30 1677 H 150.189 -0.535927 0.511725 0
M  V30 1678 H 152.836 -0.806124 1.73706 0
M  V30 1679 H 151.141 -3.40536 1.93759 0
M  V30 1680 H 152.838 -3.27919 2.30804 0
M  V30 1681 H 149.428 -2.47808 3.49699 0
M  V30 1682 H 153.612 -2.2144 4.4416 0
M  V30 1683 H 148.868 -1.88547 5.81601 0
M  V30 1684 H 153.042 -1.63164 6.77016 0
M  V30 1685 H 150.669 -1.46179 7.46013 0
M  V30 1686 N 152.244 -1.26651 -0.937939 0
M  V30 1687 C 153.49 -1.12553 -1.687 0
M  V30 1688 C 153.823 0.329782 -1.91379 0
M  V30 1689 O 153.098 1.24202 -1.4968 0
M  V30 1690 C 153.381 -1.89862 -3.05981 0
M  V30 1691 C 153.234 -3.43318 -2.90607 0
M  V30 1692 C 154.553 -1.69499 -4.0615 0
M  V30 1693 H 151.672 -0.410257 -0.612257 0
M  V30 1694 H 154.314 -1.55685 -1.08913 0
M  V30 1695 H 152.464 -1.53204 -3.57017 0
M  V30 1696 H 154.136 -3.89747 -2.46769 0
M  V30 1697 H 152.379 -3.70179 -2.26164 0
M  V30 1698 H 153.05 -3.92642 -3.8799 0
M  V30 1699 H 155.526 -2.01442 -3.64088 0
M  V30 1700 H 154.402 -2.26002 -5.00214 0
M  V30 1701 H 154.663 -0.640365 -4.37438 0
M  V30 1702 N 153.722 1.14298 -1.08507 0
M  V30 1703 C 154.971 1.84708 -0.810305 0
M  V30 1704 C 155.284 1.83903 0.666271 0
M  V30 1705 O 156.49 2.50112 1.05624 0
M  V30 1706 C 154.946 3.31572 -1.39957 0
M  V30 1707 C 154.554 3.40791 -2.90801 0
M  V30 1708 C 156.298 4.07087 -1.20334 0
M  V30 1709 C 154.205 4.81872 -3.4286 0
M  V30 1710 H 153.135 0.691985 -0.299454 0
M  V30 1711 H 155.786 1.28841 -1.30661 0
M  V30 1712 H 154.168 3.87183 -0.830976 0
M  V30 1713 H 155.342 2.95225 -3.53806 0
M  V30 1714 H 153.657 2.78732 -3.0935 0
M  V30 1715 H 156.254 5.11225 -1.56693 0
M  V30 1716 H 156.597 4.16054 -0.143237 0
M  V30 1717 H 157.13 3.57779 -1.73893 0
M  V30 1718 H 153.869 4.78094 -4.48449 0
M  V30 1719 H 153.389 5.27972 -2.84615 0
M  V30 1720 H 155.068 5.50765 -3.39509 0
M  V30 1721 N 155.201 0.870884 1.31352 0
M  V30 1722 C 156.612 0.534714 1.78879 0
M  V30 1723 C 156.963 -0.948423 1.71754 0
M  V30 1724 O 156.088 -1.74055 1.28584 0
M  V30 1725 C 156.683 0.963839 3.24801 0
M  V30 1726 C 155.242 0.679311 3.70219 0
M  V30 1727 C 154.389 1.15465 2.52117 0
M  V30 1728 H 157.34 1.05651 1.18421 0
M  V30 1729 H 157.361 0.286892 3.79417 0
M  V30 1730 H 156.873 2.04332 3.29955 0
M  V30 1731 H 154.974 -0.388769 3.70566 0
M  V30 1732 H 155.087 1.25698 4.62317 0
M  V30 1733 H 153.451 0.574383 2.48139 0
M  V30 1734 H 154.234 2.24157 2.60016 0
M  V30 1735 N 156.679 -1.44442 0.630414 0
M  V30 1736 C 157.627 -2.32437 -0.0871428 0
M  V30 1737 C 158.621 -1.47304 -0.836525 0
M  V30 1738 O 159.827 -1.63653 -0.749506 0
M  V30 1739 H 156.202 -0.750533 -0.0469495 0
M  V30 1740 H 158.173 -2.90709 0.673096 0
M  V30 1741 C 156.922 -3.31288 -1.05563 0
M  V30 1742 H 156.245 -3.96805 -0.488426 0
M  V30 1743 H 157.685 -3.9554 -1.52721 0
M  V30 1744 C 156.144 -2.6016 -2.14052 0
M  V30 1745 O 156.674 -2.39997 -3.22124 0
M  V30 1746 N 154.88 -2.19911 -1.89967 0
M  V30 1747 H 154.427 -2.36509 -1.02085 0
M  V30 1748 H 154.385 -1.72646 -2.62756 0
M  V30 1749 N 158.157 -0.370918 -1.53173 0
M  V30 1750 C 159.568 0.107139 -1.86392 0
M  V30 1751 C 159.919 1.47714 -1.29132 0
M  V30 1752 O 159.044 2.07464 -0.615439 0
M  V30 1753 C 159.639 0.201187 -3.38202 0
M  V30 1754 C 158.198 0.623507 -3.712 0
M  V30 1755 C 157.345 -0.225978 -2.76378 0
M  V30 1756 H 160.296 -0.58951 -1.47345 0
M  V30 1757 H 160.317 1.02377 -3.66468 0
M  V30 1758 H 159.829 -0.796058 -3.79848 0
M  V30 1759 H 157.93 1.62879 -3.35114 0
M  V30 1760 H 158.043 0.394414 -4.77474 0
M  V30 1761 H 156.407 0.305962 -2.52856 0
M  V30 1762 H 157.19 -1.22086 -3.20858 0
M  V30 1763 N 159.635 1.57281 -0.100228 0
M  V30 1764 C 160.582 2.14305 0.856858 0
M  V30 1765 C 161.552 1.06296 1.27634 0
M  V30 1766 O 162.737 1.34109 1.35718 0
M  V30 1767 C 159.877 2.73184 2.10866 0
M  V30 1768 C 158.99 3.95442 1.73925 0
M  V30 1769 C 158.125 4.42468 2.93931 0
M  V30 1770 C 157.164 5.57303 2.5314 0
M  V30 1771 N 156.301 5.99158 3.65997 0
M  V30 1772 H 161.141 2.95772 0.363726 0
M  V30 1773 H 158.678 1.46139 0.167858 0
M  V30 1774 H 160.636 3.05442 2.84185 0
M  V30 1775 H 159.266 1.94437 2.57671 0
M  V30 1776 H 158.318 3.69464 0.905554 0
M  V30 1777 H 159.63 4.78769 1.39935 0
M  V30 1778 H 158.784 4.76537 3.75496 0
M  V30 1779 H 157.523 3.58052 3.31134 0
M  V30 1780 H 156.528 5.22857 1.70003 0
M  V30 1781 H 157.753 6.43471 2.17075 0
M  V30 1782 H 155.699 5.17687 4.02909 0
M  V30 1783 H 155.616 6.77295 3.35869 0
M  V30 1784 H 156.884 6.3786 4.48057 0
M  V30 1785 N 161.113 -0.173488 1.56642 0
M  V30 1786 C 162.362 -0.888758 1.81063 0
M  V30 1787 C 162.675 -1.83506 0.67712 0
M  V30 1788 O 163.881 -2.59254 0.806206 0
M  V30 1789 C 162.337 -1.63091 3.20826 0
M  V30 1790 C 161.945 -0.728357 4.4204 0
M  V30 1791 C 163.689 -2.33454 3.54541 0
M  V30 1792 C 161.596 -1.47062 5.72823 0
M  V30 1793 H 160.526 -0.335618 0.675186 0
M  V30 1794 H 163.177 -0.141712 1.82952 0
M  V30 1795 H 161.559 -2.42263 3.13248 0
M  V30 1796 H 162.733 0.0262449 4.60793 0
M  V30 1797 H 161.048 -0.134492 4.16183 0
M  V30 1798 H 163.645 -2.89578 4.49498 0
M  V30 1799 H 163.988 -3.08687 2.79317 0
M  V30 1800 H 164.521 -1.61227 3.63663 0
M  V30 1801 H 161.26 -0.760658 6.51072 0
M  V30 1802 H 160.78 -2.1986 5.58052 0
M  V30 1803 H 162.459 -2.01868 6.14702 0
M  V30 1804 N 162.591 -1.51276 -0.441967 0
M  V30 1805 C 163.816 -1.67799 -1.21895 0
M  V30 1806 C 164.241 -0.372864 -1.84367 0
M  V30 1807 O 163.599 0.666501 -1.68604 0
M  V30 1808 C 163.647 -2.79199 -2.28211 0
M  V30 1809 O 162.751 -2.42479 -3.33583 0
M  V30 1810 H 162.092 -0.559649 -0.357336 0
M  V30 1811 H 164.622 -1.97815 -0.522522 0
M  V30 1812 H 164.632 -3.03146 -2.73069 0
M  V30 1813 H 163.307 -3.73906 -1.82118 0
M  V30 1814 H 161.884 -2.29087 -2.94234 0
M  V30 1815 N 164.069 0.697108 -1.41344 0
M  V30 1816 C 164.979 1.84088 -1.45427 0
M  V30 1817 C 165.995 1.70545 -0.34501 0
M  V30 1818 O 167.171 1.92488 -0.592492 0
M  V30 1819 C 164.236 3.20056 -1.33286 0
M  V30 1820 C 163.297 3.45718 -2.54514 0
M  V30 1821 C 162.53 4.75199 -2.42944 0
M  V30 1822 O 162.753 5.51579 -1.45318 0
M  V30 1823 O 161.687 5.0161 -3.32672 0
M  V30 1824 H 165.513 1.836 -2.41919 0
M  V30 1825 H 163.098 0.849966 -1.22866 0
M  V30 1826 H 164.98 4.01236 -1.28794 0
M  V30 1827 H 163.655 3.2123 -0.39909 0
M  V30 1828 H 162.562 2.64474 -2.64583 0
M  V30 1829 H 163.895 3.49356 -3.46715 0
M  V30 1830 N 165.547 1.27147 0.931209 0
M  V30 1831 C 166.963 1.04475 1.20653 0
M  V30 1832 C 167.163 -0.223885 2.00252 0
M  V30 1833 O 166.219 -0.930332 2.34736 0
M  V30 1834 C 167.532 2.28209 1.95809 0
M  V30 1835 C 169.08 2.33211 2.08762 0
M  V30 1836 C 169.555 3.56665 2.87323 0
M  V30 1837 N 171.046 3.57201 2.94892 0
M  V30 1838 C 171.781 4.49395 3.56134 0
M  V30 1839 N 171.277 5.51889 4.18796 0
M  V30 1840 N 173.07 4.37026 3.53504 0
M  V30 1841 H 165.221 2.08612 0.399333 0
M  V30 1842 H 167.484 0.917312 0.239253 0
M  V30 1843 H 167.19 3.20538 1.44736 0
M  V30 1844 H 167.064 2.33247 2.96438 0
M  V30 1845 H 169.451 1.41391 2.59023 0
M  V30 1846 H 169.532 2.32178 1.07364 0
M  V30 1847 H 169.176 4.4882 2.37746 0
M  V30 1848 H 169.106 3.54948 3.88998 0
M  V30 1849 H 171.597 2.83074 2.50354 0
M  V30 1850 H 171.91 6.18409 4.63454 0
M  V30 1851 H 170.255 5.55735 4.17353 0
M  V30 1852 H 173.446 3.56166 3.03749 0
M  V30 1853 H 173.619 5.09067 4.00942 0
M  V30 1854 N 167.025 -1.13721 1.09112 0
M  V30 1855 C 168.302 -1.81155 0.737706 0
M  V30 1856 C 168.682 -1.96253 -0.777683 0
M  V30 1857 O 168.03 -1.52807 -1.69889 0
M  V30 1858 C 168.24 -3.16392 1.47299 0
M  V30 1859 C 169.588 -3.91787 1.63671 0
M  V30 1860 O 170.612 -3.26005 1.43524 0
M  V30 1861 O 169.471 -5.0977 1.96969 0
M  V30 1862 H 166.565 -0.783518 0.26463 0
M  V30 1863 H 169.111 -1.20676 1.19312 0
M  V30 1864 H 167.883 -3.0061 2.50498 0
M  V30 1865 H 167.506 -3.8457 1.00953 0
M  V30 1866 N 168.503 -0.877838 -1.30888 0
M  V30 1867 C 169.433 -0.35534 -2.3078 0
M  V30 1868 C 170.414 0.557994 -1.60687 0
M  V30 1869 O 171.599 0.473355 -1.88343 0
M  V30 1870 C 168.729 0.437221 -3.44537 0
M  V30 1871 C 167.683 -0.383715 -4.26276 0
M  V30 1872 C 167.009 0.535014 -5.32017 0
M  V30 1873 C 168.309 -1.62201 -4.96476 0
M  V30 1874 H 170.003 -1.19007 -2.74732 0
M  V30 1875 H 167.549 -0.573698 -1.32078 0
M  V30 1876 H 169.502 0.813334 -4.13477 0
M  V30 1877 H 168.226 1.30553 -2.99372 0
M  V30 1878 H 166.885 -0.741874 -3.59015 0
M  V30 1879 H 166.533 1.40083 -4.831 0
M  V30 1880 H 166.233 -0.0104211 -5.87599 0
M  V30 1881 H 167.757 0.907799 -6.03814 0
M  V30 1882 H 169.171 -1.31689 -5.5797 0
M  V30 1883 H 167.568 -2.10711 -5.61891 0
M  V30 1884 H 168.638 -2.37044 -4.23011 0
M  V30 1885 N 169.982 1.44106 -0.638065 0
M  V30 1886 C 171.228 2.02277 -0.145546 0
M  V30 1887 C 171.561 1.50125 1.23191 0
M  V30 1888 O 170.836 0.688133 1.8192 0
M  V30 1889 C 171.119 3.59829 -0.139791 0
M  V30 1890 C 170.972 4.22247 -1.55008 0
M  V30 1891 C 172.291 4.36873 0.531966 0
M  V30 1892 H 169.41 0.734992 -0.0543632 0
M  V30 1893 H 172.052 1.71592 -0.815863 0
M  V30 1894 H 170.202 3.86102 0.431007 0
M  V30 1895 H 171.874 4.07057 -2.1703 0
M  V30 1896 H 170.117 3.79476 -2.10191 0
M  V30 1897 H 170.788 5.31284 -1.49804 0
M  V30 1898 H 173.264 4.16074 0.0464781 0
M  V30 1899 H 172.14 5.4657 0.505206 0
M  V30 1900 H 172.401 4.11995 1.60352 0
M  V30 1901 N 171.46 0.379036 1.52974 0
M  V30 1902 C 172.706 -0.206727 2.01744 0
M  V30 1903 C 173.039 -1.47314 1.26539 0
M  V30 1904 O 172.314 -1.91084 0.362903 0
M  V30 1905 C 172.597 -0.485066 3.56818 0
M  V30 1906 C 172.45 0.795919 4.42702 0
M  V30 1907 C 173.769 -1.28003 4.21074 0
M  V30 1908 H 170.888 -0.0736607 0.73331 0
M  V30 1909 H 173.53 0.506581 1.83122 0
M  V30 1910 H 171.68 -1.09272 3.72816 0
M  V30 1911 H 173.352 1.43307 4.38476 0
M  V30 1912 H 171.595 1.41344 4.10127 0
M  V30 1913 H 172.266 0.555947 5.49193 0
M  V30 1914 H 174.742 -0.765867 4.08991 0
M  V30 1915 H 173.618 -1.44352 5.29579 0
M  V30 1916 H 173.879 -2.29236 3.78026 0
M  V30 1917 N 172.938 -1.57226 0.108567 0
M  V30 1918 C 174.349 -1.8195 -0.418464 0
M  V30 1919 C 174.7 -1.02508 -1.67292 0
M  V30 1920 O 173.825 -0.258496 -2.14851 0
M  V30 1921 C 174.42 -3.30028 -0.765979 0
M  V30 1922 C 172.979 -3.55469 -1.23769 0
M  V30 1923 C 172.126 -2.7625 -0.241106 0
M  V30 1924 H 175.077 -1.55149 0.33384 0
M  V30 1925 H 175.098 -3.44086 -1.62434 0
M  V30 1926 H 174.61 -3.87821 0.147219 0
M  V30 1927 H 172.711 -3.03022 -2.16814 0
M  V30 1928 H 172.824 -4.6408 -1.19022 0
M  V30 1929 H 171.188 -2.44133 -0.72602 0
M  V30 1930 H 171.971 -3.36797 0.665007 0
M  V30 1931 N 174.416 0.165178 -1.56732 0
M  V30 1932 C 175.662 0.882112 -1.82611 0
M  V30 1933 C 175.995 1.81628 -0.687378 0
M  V30 1934 O 175.27 1.92009 0.310267 0
M  V30 1935 C 175.553 1.67245 -3.18906 0
M  V30 1936 C 175.406 0.760987 -4.43316 0
M  V30 1937 C 176.725 2.63884 -3.52212 0
M  V30 1938 H 173.844 0.319242 -0.664269 0
M  V30 1939 H 176.486 0.148052 -1.89422 0
M  V30 1940 H 174.636 2.29824 -3.1323 0
M  V30 1941 H 176.308 0.147596 -4.61064 0
M  V30 1942 H 174.551 0.0694102 -4.33744 0
M  V30 1943 H 175.222 1.34962 -5.35247 0
M  V30 1944 H 177.698 2.11429 -3.58381 0
M  V30 1945 H 176.574 3.16245 -4.48643 0
M  V30 1946 H 176.835 3.44377 -2.77231 0
M  V30 1947 N 175.894 1.51508 0.433938 0
M  V30 1948 C 176.824 1.76016 1.53429 0
M  V30 1949 C 177.805 0.610112 1.58782 0
M  V30 1950 O 178.99 0.853177 1.74455 0
M  V30 1951 C 176.12 1.88831 2.9148 0
M  V30 1952 C 175.074 3.04288 3.00987 0
M  V30 1953 C 174.4 3.0229 4.4105 0
M  V30 1954 C 175.7 4.44193 2.74754 0
M  V30 1955 H 177.394 2.68152 1.33171 0
M  V30 1956 H 174.94 1.29035 0.639214 0
M  V30 1957 H 176.893 2.04559 3.6842 0
M  V30 1958 H 175.617 0.933455 3.12976 0
M  V30 1959 H 174.276 2.8827 2.26486 0
M  V30 1960 H 173.924 2.04576 4.59519 0
M  V30 1961 H 173.624 3.79822 4.4834 0
M  V30 1962 H 175.148 3.20116 5.1996 0
M  V30 1963 H 176.562 4.60544 3.41426 0
M  V30 1964 H 174.959 5.23457 2.9345 0
M  V30 1965 H 176.029 4.53996 1.70339 0
M  V30 1966 N 177.372 -0.689602 1.41712 0
M  V30 1967 C 178.304 -1.815 1.39966 0
M  V30 1968 C 179.317 -1.59995 0.300917 0
M  V30 1969 O 180.506 -1.69387 0.563039 0
M  V30 1970 C 177.606 -3.18364 1.16179 0
M  V30 1971 C 176.779 -3.66847 2.38206 0
M  V30 1972 C 175.838 -4.82398 2.10186 0
M  V30 1973 O 174.864 -4.93706 2.83272 0
M  V30 1974 N 176.066 -5.70064 1.0958 0
M  V30 1975 H 178.831 -1.83488 2.36965 0
M  V30 1976 H 176.392 -0.872149 1.36401 0
M  V30 1977 H 178.384 -3.93301 0.953756 0
M  V30 1978 H 176.954 -3.11365 0.27756 0
M  V30 1979 H 176.174 -2.82751 2.74673 0
M  V30 1980 H 177.462 -3.95978 3.19498 0
M  V30 1981 H 176.86 -5.63565 0.491019 0
M  V30 1982 H 175.417 -6.44874 0.947656 0
M  V30 1983 N 178.85 -1.27639 -0.924453 0
M  V30 1984 C 179.78 -1.13166 -2.04244 0
M  V30 1985 C 180.761 -0.032256 -1.70069 0
M  V30 1986 O 181.946 -0.207328 -1.9309 0
M  V30 1987 C 179.076 -0.781496 -3.38393 0
M  V30 1988 C 178.03 -1.83449 -3.86692 0
M  V30 1989 C 177.356 -1.33822 -5.17683 0
M  V30 1990 C 178.656 -3.23917 -4.09726 0
M  V30 1991 H 180.35 -2.06689 -2.1661 0
M  V30 1992 H 177.896 -0.995136 -1.04082 0
M  V30 1993 H 179.849 -0.667057 -4.16087 0
M  V30 1994 H 178.573 0.189439 -3.2605 0
M  V30 1995 H 177.232 -1.93789 -3.11193 0
M  V30 1996 H 176.88 -0.35665 -5.01734 0
M  V30 1997 H 176.58 -2.04224 -5.50968 0
M  V30 1998 H 178.104 -1.23679 -5.97943 0
M  V30 1999 H 179.518 -3.16559 -4.77978 0
M  V30 2000 H 177.915 -3.92059 -4.54324 0
M  V30 2001 H 178.985 -3.68729 -3.14908 0
M  V30 2002 N 180.328 1.1314 -1.09713 0
M  V30 2003 C 181.575 1.84484 -0.834987 0
M  V30 2004 C 181.903 1.83689 0.639418 0
M  V30 2005 O 181.158 1.2724 1.4869 0
M  V30 2006 C 181.457 3.32167 -1.3191 0
M  V30 2007 C 181.123 3.53139 -2.80363 0
M  V30 2008 C 179.785 3.58571 -3.20905 0
M  V30 2009 C 182.137 3.60866 -3.76065 0
M  V30 2010 C 179.465 3.69267 -4.55916 0
M  V30 2011 C 181.817 3.73089 -5.10869 0
M  V30 2012 C 180.481 3.76775 -5.50996 0
M  V30 2013 H 179.751 0.675073 -0.305544 0
M  V30 2014 H 182.398 1.33554 -1.37243 0
M  V30 2015 H 180.703 3.85469 -0.701517 0
M  V30 2016 H 182.4 3.85821 -1.09284 0
M  V30 2017 H 178.99 3.49569 -2.47991 0
M  V30 2018 H 183.174 3.55946 -3.45855 0
M  V30 2019 H 178.43 3.70388 -4.86438 0
M  V30 2020 H 182.604 3.78011 -5.84877 0
M  V30 2021 H 180.231 3.84815 -6.55608 0
M  V30 2022 N 181.806 0.884767 1.30421 0
M  V30 2023 C 182.738 0.308655 2.27112 0
M  V30 2024 C 183.751 -0.536655 1.53701 0
M  V30 2025 O 184.94 -0.35624 1.74909 0
M  V30 2026 C 182.04 -0.579782 3.33904 0
M  V30 2027 C 181.213 0.236417 4.36761 0
M  V30 2028 C 180.272 -0.582482 5.22966 0
M  V30 2029 O 179.298 -0.00525502 5.692 0
M  V30 2030 N 180.5 -1.89163 5.48815 0
M  V30 2031 H 183.265 1.13964 2.77186 0
M  V30 2032 H 180.826 0.747731 1.43599 0
M  V30 2033 H 182.818 -1.13366 3.88497 0
M  V30 2034 H 181.388 -1.31144 2.83761 0
M  V30 2035 H 180.608 0.97174 3.82035 0
M  V30 2036 H 181.896 0.795924 5.02536 0
M  V30 2037 H 181.294 -2.38352 5.13035 0
M  V30 2038 H 179.851 -2.39296 6.06284 0
M  V30 2039 N 183.284 -1.43765 0.645699 0
M  V30 2040 C 184.231 -2.30745 -0.0504648 0
M  V30 2041 C 185.201 -1.4432 -0.822241 0
M  V30 2042 O 186.386 -1.73202 -0.800358 0
M  V30 2043 C 183.526 -3.29802 -1.0161 0
M  V30 2044 C 182.639 -4.31326 -0.241219 0
M  V30 2045 C 181.774 -5.17469 -1.19998 0
M  V30 2046 C 180.813 -6.10691 -0.415094 0
M  V30 2047 N 179.95 -6.89483 -1.32506 0
M  V30 2048 H 184.79 -2.8973 0.697155 0
M  V30 2049 H 182.327 -1.42738 0.355563 0
M  V30 2050 H 184.285 -3.85734 -1.58949 0
M  V30 2051 H 182.915 -2.72483 -1.73069 0
M  V30 2052 H 181.967 -3.77749 0.448334 0
M  V30 2053 H 183.279 -4.9743 0.369437 0
M  V30 2054 H 182.433 -5.7799 -1.84424 0
M  V30 2055 H 181.172 -4.51473 -1.84455 0
M  V30 2056 H 180.177 -5.49265 0.242565 0
M  V30 2057 H 181.402 -6.78727 0.224966 0
M  V30 2058 H 179.348 -6.26142 -1.95657 0
M  V30 2059 H 179.265 -7.52081 -0.768783 0
M  V30 2060 H 180.533 -7.54516 -1.9577 0
M  V30 2061 N 184.763 -0.387143 -1.52771 0
M  V30 2062 C 185.673 0.456442 -2.30117 0
M  V30 2063 C 186.689 1.07342 -1.36944 0
M  V30 2064 O 187.865 1.07971 -1.70013 0
M  V30 2065 C 184.93 1.56957 -3.09136 0
M  V30 2066 C 183.991 0.977916 -4.18014 0
M  V30 2067 C 183.224 2.038 -4.93256 0
M  V30 2068 O 183.447 3.25271 -4.68567 0
M  V30 2069 O 182.381 1.6565 -5.78657 0
M  V30 2070 H 186.207 -0.17359 -3.03203 0
M  V30 2071 H 183.792 -0.150919 -1.48636 0
M  V30 2072 H 185.674 2.21628 -3.58412 0
M  V30 2073 H 184.349 2.18461 -2.38865 0
M  V30 2074 H 183.256 0.294525 -3.72939 0
M  V30 2075 H 184.589 0.407128 -4.90513 0
M  V30 2076 N 186.241 1.57166 -0.116904 0
M  V30 2077 C 187.487 1.96206 0.536166 0
M  V30 2078 C 187.842 0.99915 1.64422 0
M  V30 2079 O 187.135 0.0288195 1.91578 0
M  V30 2080 C 187.329 3.39508 1.11664 0
M  V30 2081 C 187.158 4.49651 0.0663474 0
M  V30 2082 C 185.928 5.03982 -0.36474 0
M  V30 2083 C 188.126 5.09322 -0.713829 0
M  V30 2084 N 186.108 5.97699 -1.40102 0
M  V30 2085 C 187.479 5.98963 -1.60136 0
M  V30 2086 C 189.534 4.91989 -0.764948 0
M  V30 2087 C 188.237 6.73128 -2.53556 0
M  V30 2088 C 190.263 5.66833 -1.68685 0
M  V30 2089 C 189.625 6.56158 -2.56196 0
M  V30 2090 H 185.724 0.764203 0.165886 0
M  V30 2091 H 188.308 1.93623 -0.204535 0
M  V30 2092 H 186.479 3.42743 1.82707 0
M  V30 2093 H 188.211 3.65677 1.73386 0
M  V30 2094 H 184.966 4.73592 0.027252 0
M  V30 2095 H 185.39 6.49262 -1.91802 0
M  V30 2096 H 190.032 4.22676 -0.102501 0
M  V30 2097 H 187.75 7.41689 -3.20816 0
M  V30 2098 H 191.336 5.55427 -1.73181 0
M  V30 2099 H 190.216 7.13057 -3.26372 0
M  V30 2100 N 187.719 -0.156864 1.56817 0
M  V30 2101 C 188.667 -1.21319 1.98455 0
M  V30 2102 C 189.661 -1.45025 0.875444 0
M  V30 2103 O 190.867 -1.45435 1.0606 0
M  V30 2104 H 187.242 -0.408142 0.631605 0
M  V30 2105 H 189.213 -0.835244 2.86472 0
M  V30 2106 C 187.962 -2.54148 2.37285 0
M  V30 2107 H 187.285 -2.36733 3.22176 0
M  V30 2108 H 188.725 -3.26712 2.70251 0
M  V30 2109 C 187.184 -3.13967 1.22173 0
M  V30 2110 O 187.714 -3.98357 0.517149 0
M  V30 2111 N 185.92 -2.7327 0.988536 0
M  V30 2112 H 185.467 -2.04744 1.56326 0
M  V30 2113 H 185.425 -3.13628 0.220209 0
M  V30 2114 N 189.197 -1.51736 -0.425897 0
M  V30 2115 C 190.474 -1.55519 -1.1863 0
M  V30 2116 C 190.854 -0.326219 -2.08564 0
M  V30 2117 O 190.202 0.688012 -2.17896 0
M  V30 2118 C 190.412 -2.87521 -1.9782 0
M  V30 2119 C 191.76 -3.39899 -2.54468 0
M  V30 2120 O 192.784 -2.89148 -2.08019 0
M  V30 2121 O 191.643 -4.2848 -3.39215 0
M  V30 2122 H 188.737 -0.625739 -0.540721 0
M  V30 2123 H 191.283 -1.64055 -0.434038 0
M  V30 2124 H 190.055 -3.68422 -1.31836 0
M  V30 2125 H 189.678 -2.822 -2.80088 0
M  V30 2126 N 190.675 0.682077 -1.42076 0
M  V30 2127 C 191.924 1.43786 -1.41451 0
M  V30 2128 C 192.237 1.95574 -0.0317074 0
M  V30 2129 O 193.443 2.71326 0.0971462 0
M  V30 2130 C 191.899 2.60071 -2.48779 0
M  V30 2131 C 191.507 2.15013 -3.93031 0
M  V30 2132 C 193.251 3.37626 -2.57311 0
M  V30 2133 C 191.158 3.28336 -4.91883 0
M  V30 2134 H 190.088 0.540143 -0.526082 0
M  V30 2135 H 192.739 0.739157 -1.67955 0
M  V30 2136 H 191.121 3.32275 -2.15429 0
M  V30 2137 H 192.295 1.5001 -4.35699 0
M  V30 2138 H 190.61 1.50416 -3.88284 0
M  V30 2139 H 193.207 4.22012 -3.28345 0
M  V30 2140 H 193.55 3.83727 -1.61429 0
M  V30 2141 H 194.083 2.72488 -2.89819 0
M  V30 2142 H 190.822 2.87234 -5.89217 0
M  V30 2143 H 190.342 3.92145 -4.53853 0
M  V30 2144 H 192.021 3.93913 -5.13265 0
M  V30 2145 N 192.153 1.28127 0.917671 0
M  V30 2146 C 193.1 1.11717 2.0196 0
M  V30 2147 C 194.07 0.0153929 1.66093 0
M  V30 2148 O 195.255 0.179596 1.89953 0
M  V30 2149 C 192.395 0.780927 3.36148 0
M  V30 2150 C 191.508 1.96135 3.84909 0
M  V30 2151 C 190.643 1.56609 5.0759 0
M  V30 2152 C 189.682 2.71339 5.48673 0
M  V30 2153 N 188.819 2.32332 6.62545 0
M  V30 2154 H 193.659 2.06003 2.15329 0
M  V30 2155 H 191.196 1.02535 1.05475 0
M  V30 2156 H 193.154 0.56675 4.13333 0
M  V30 2157 H 191.784 -0.124998 3.22558 0
M  V30 2158 H 190.836 2.28777 3.03916 0
M  V30 2159 H 192.148 2.82165 4.1132 0
M  V30 2160 H 191.302 1.31374 5.92305 0
M  V30 2161 H 190.041 0.677014 4.82978 0
M  V30 2162 H 189.046 2.97276 4.62501 0
M  V30 2163 H 190.271 3.60882 5.75274 0
M  V30 2164 H 188.217 1.45889 6.39572 0
M  V30 2165 H 188.134 3.11899 6.88662 0
M  V30 2166 H 189.402 2.10371 7.50576 0
M  V30 2167 N 193.631 -1.12557 1.10312 0
M  V30 2168 C 194.579 -2.20325 0.745629 0
M  V30 2169 C 195.573 -1.67429 -0.25763 0
M  V30 2170 O 196.779 -1.79612 -0.118132 0
M  V30 2171 H 193.154 -0.718118 0.223182 0
M  V30 2172 H 195.125 -2.47733 1.66346 0
M  V30 2173 C 193.874 -3.47168 0.192262 0
M  V30 2174 H 193.197 -3.88215 0.955475 0
M  V30 2175 H 194.637 -4.23995 -0.0198274 0
M  V30 2176 C 193.096 -3.19298 -1.07472 0
M  V30 2177 O 193.626 -3.3891 -2.15645 0
M  V30 2178 N 191.832 -2.73113 -0.992847 0
M  V30 2179 H 191.379 -2.57354 -0.112474 0
M  V30 2180 H 191.337 -2.54842 -1.84127 0
M  V30 2181 N 195.109 -0.891671 -1.2995 0
M  V30 2182 C 196.056 -0.361736 -2.27948 0
M  V30 2183 C 197.026 0.551761 -1.56668 0
M  V30 2184 O 198.211 0.478736 -1.84696 0
M  V30 2185 C 195.351 0.411825 -3.42634 0
M  V30 2186 C 194.464 -0.531651 -4.28716 0
M  V30 2187 C 193.599 0.258167 -5.30572 0
M  V30 2188 C 192.638 -0.680349 -6.08307 0
M  V30 2189 N 191.775 0.0745613 -7.0206 0
M  V30 2190 H 196.615 -1.20254 -2.72659 0
M  V30 2191 H 194.152 -0.604352 -1.34112 0
M  V30 2192 H 196.11 0.876304 -4.07893 0
M  V30 2193 H 194.74 1.21715 -2.98974 0
M  V30 2194 H 193.792 -1.11463 -3.63703 0
M  V30 2195 H 195.104 -1.25038 -4.82874 0
M  V30 2196 H 194.258 0.784204 -6.0161 0
M  V30 2197 H 192.997 1.01008 -4.77126 0
M  V30 2198 H 192.002 -1.21796 -5.3614 0
M  V30 2199 H 193.227 -1.43145 -6.63842 0
M  V30 2200 H 191.173 0.808883 -6.50994 0
M  V30 2201 H 191.09 -0.584409 -7.53738 0
M  V30 2202 H 192.358 0.581123 -7.77331 0
M  V30 2203 N 196.587 1.43421 -0.653314 0
M  V30 2204 C 197.836 2.01032 -0.164076 0
M  V30 2205 C 198.149 1.52147 1.22926 0
M  V30 2206 O 199.355 2.02031 1.81371 0
M  V30 2207 C 197.811 3.59082 -0.24252 0
M  V30 2208 C 197.419 4.1696 -1.63855 0
M  V30 2209 C 199.163 4.24079 0.18911 0
M  V30 2210 C 197.07 5.67304 -1.67092 0
M  V30 2211 H 196 0.751798 -0.0575769 0
M  V30 2212 H 198.651 1.6439 -0.815362 0
M  V30 2213 H 197.033 3.93125 0.476276 0
M  V30 2214 H 198.207 3.94416 -2.38271 0
M  V30 2215 H 196.522 3.64335 -2.01616 0
M  V30 2216 H 199.119 5.34381 0.184775 0
M  V30 2217 H 199.462 3.98005 1.22056 0
M  V30 2218 H 199.995 3.94918 -0.477938 0
M  V30 2219 H 196.734 5.98145 -2.68146 0
M  V30 2220 H 196.254 5.91904 -0.970014 0
M  V30 2221 H 197.933 6.31344 -1.4147 0
M  V30 2222 N 198.065 0.39524 1.52563 0
M  V30 2223 C 199.311 -0.185318 2.01952 0
M  V30 2224 C 199.644 -1.45964 1.28095 0
M  V30 2225 O 198.919 -1.90689 0.38315 0
M  V30 2226 C 199.202 -0.447193 3.57312 0
M  V30 2227 C 199.055 0.842828 4.41833 0
M  V30 2228 C 200.374 -1.23529 4.22408 0
M  V30 2229 H 197.493 -0.0658788 0.73405 0
M  V30 2230 H 200.135 0.525975 1.82575 0
M  V30 2231 H 198.285 -1.05312 3.73954 0
M  V30 2232 H 199.957 1.4795 4.36931 0
M  V30 2233 H 198.2 1.45686 4.08605 0
M  V30 2234 H 198.871 0.614165 5.48573 0
M  V30 2235 H 201.347 -0.722445 4.0978 0
M  V30 2236 H 200.223 -1.38727 5.3108 0
M  V30 2237 H 200.484 -2.25213 3.80436 0
M  V30 2238 N 199.544 -1.57102 0.125237 0
M  V30 2239 C 200.491 -2.15641 -0.822655 0
M  V30 2240 C 201.461 -1.08313 -1.25927 0
M  V30 2241 O 202.646 -1.36251 -1.33567 0
M  V30 2242 C 199.786 -2.76504 -2.06494 0
M  V30 2243 C 198.899 -3.98158 -1.67612 0
M  V30 2244 C 198.034 -4.47088 -2.86854 0
M  V30 2245 C 197.073 -5.6126 -2.44242 0
M  V30 2246 N 196.21 -6.04905 -3.56419 0
M  V30 2247 H 201.05 -2.96313 -0.316625 0
M  V30 2248 H 198.587 -1.46388 -0.144588 0
M  V30 2249 H 200.545 -3.09925 -2.79289 0
M  V30 2250 H 199.175 -1.98512 -2.54545 0
M  V30 2251 H 198.227 -3.70858 -0.846661 0
M  V30 2252 H 199.539 -4.80934 -1.32301 0
M  V30 2253 H 198.693 -4.82451 -3.67867 0
M  V30 2254 H 197.432 -3.63275 -3.25396 0
M  V30 2255 H 196.437 -5.25495 -1.61663 0
M  V30 2256 H 197.662 -6.46843 -2.0681 0
M  V30 2257 H 195.608 -5.24032 -3.94623 0
M  V30 2258 H 195.525 -6.82552 -3.25051 0
M  V30 2259 H 196.793 -6.44907 -4.37853 0
M  V30 2260 N 201.022 0.148545 -1.56898 0
M  V30 2261 C 202.262 0.86765 -1.85071 0
M  V30 2262 C 202.626 1.78417 -0.709317 0
M  V30 2263 O 203.827 2.54261 -0.872049 0
M  V30 2264 C 202.098 1.62306 -3.1842 0
M  V30 2265 S 203.657 2.3878 -3.68143 0
M  V30 2266 H 200.475 0.290174 -0.649092 0
M  V30 2267 H 203.077 0.127755 -1.95082 0
M  V30 2268 H 201.781 0.941192 -3.99462 0
M  V30 2269 H 201.312 2.4039 -3.1141 0
M  V30 2270 H 203.327 3.63942 -3.37285 0
M  V30 2271 N 202.5 1.5196 0.417844 0
M  V30 2272 C 203.777 1.56146 1.17803 0
M  V30 2273 C 204.157 0.337275 2.08388 0
M  V30 2274 O 203.505 -0.676447 2.18258 0
M  V30 2275 C 203.715 2.88566 1.96293 0
M  V30 2276 C 205.063 3.41244 2.52662 0
M  V30 2277 O 206.087 2.90247 2.06483 0
M  V30 2278 O 204.946 4.30273 3.36938 0
M  V30 2279 H 202.04 0.628598 0.537395 0
M  V30 2280 H 204.586 1.64283 0.425331 0
M  V30 2281 H 203.358 3.69116 1.2988 0
M  V30 2282 H 202.981 2.83681 2.78587 0
M  V30 2283 N 203.978 -0.674533 1.42435 0
M  V30 2284 C 204.941 -1.76986 1.45632 0
M  V30 2285 C 205.941 -1.5708 0.343871 0
M  V30 2286 O 207.131 -1.63367 0.604709 0
M  V30 2287 C 204.263 -3.15623 1.28822 0
M  V30 2288 H 205.456 -1.75539 2.43158 0
M  V30 2289 H 203.009 -0.884189 1.28887 0
M  V30 2290 H 203.744 -3.22696 0.322193 0
M  V30 2291 H 203.529 -3.31475 2.09444 0
M  V30 2292 H 205.019 -3.95537 1.33942 0
M  V30 2293 N 205.456 -1.28612 -0.910864 0
M  V30 2294 C 206.403 -1.12786 -2.01365 0
M  V30 2295 C 207.373 -0.024201 -1.66082 0
M  V30 2296 O 208.558 -0.189667 -1.89855 0
M  V30 2297 C 205.698 -0.798743 -3.35729 0
M  V30 2298 C 204.811 -1.98173 -3.83864 0
M  V30 2299 C 203.946 -1.59298 -5.06752 0
M  V30 2300 C 202.985 -2.74245 -5.47226 0
M  V30 2301 N 202.122 -2.35842 -6.61304 0
M  V30 2302 H 206.962 -2.07142 -2.14234 0
M  V30 2303 H 204.499 -1.03093 -1.0493 0
M  V30 2304 H 206.457 -0.588662 -4.13026 0
M  V30 2305 H 205.087 0.10789 -3.2262 0
M  V30 2306 H 204.139 -2.30386 -3.02699 0
M  V30 2307 H 205.451 -2.84343 -4.09818 0
M  V30 2308 H 204.605 -1.34513 -5.916 0
M  V30 2309 H 203.344 -0.702618 -4.82612 0
M  V30 2310 H 202.349 -2.99725 -4.60918 0
M  V30 2311 H 203.574 -3.63928 -5.73353 0
M  V30 2312 H 201.52 -1.49279 -6.38789 0
M  V30 2313 H 201.437 -3.15546 -6.86998 0
M  V30 2314 H 202.705 -2.14348 -7.4945 0
M  V30 2315 N 206.934 1.1197 -1.10907 0
M  V30 2316 C 208.345 1.65114 -0.871446 0
M  V30 2317 C 208.696 1.86885 0.597353 0
M  V30 2318 O 207.821 1.59896 1.45816 0
M  V30 2319 C 208.416 2.99944 -1.5754 0
M  V30 2320 C 206.975 3.50018 -1.38435 0
M  V30 2321 C 206.122 2.24941 -1.62164 0
M  V30 2322 H 209.073 0.956851 -1.2661 0
M  V30 2323 H 209.094 3.66651 -1.01721 0
M  V30 2324 H 208.606 2.84067 -2.64438 0
M  V30 2325 H 206.707 3.71071 -0.337214 0
M  V30 2326 H 206.82 4.29165 -2.12965 0
M  V30 2327 H 205.184 2.3229 -1.04467 0
M  V30 2328 H 205.967 2.11612 -2.70324 0
M  V30 2329 N 208.412 0.89855 1.29475 0
M  V30 2330 C 209.661 0.519863 1.94885 0
M  V30 2331 C 209.974 -0.9383 1.71625 0
M  V30 2332 O 211.18 -1.42445 2.31131 0
M  V30 2333 C 209.636 0.878836 3.49005 0
M  V30 2334 C 209.244 2.35569 3.81066 0
M  V30 2335 C 210.988 0.570004 4.20656 0
M  V30 2336 C 208.895 2.65558 5.28425 0
M  V30 2337 H 207.825 0.190692 0.729488 0
M  V30 2338 H 210.476 1.09539 1.47219 0
M  V30 2339 H 208.858 0.232253 3.95318 0
M  V30 2340 H 210.032 3.04773 3.45616 0
M  V30 2341 H 208.347 2.63343 3.22552 0
M  V30 2342 H 210.944 0.770925 5.29113 0
M  V30 2343 H 211.287 -0.491404 4.1339 0
M  V30 2344 H 211.82 1.17438 3.8007 0
M  V30 2345 H 208.559 3.70493 5.40754 0
M  V30 2346 H 208.079 2.00977 5.65127 0
M  V30 2347 H 209.758 2.51765 5.96006 0
M  V30 2348 N 209.89 -1.43072 0.660911 0
M  V30 2349 C 211.139 -2.00942 0.174735 0
M  V30 2350 C 211.452 -1.52797 -1.22117 0
M  V30 2351 O 212.658 -2.02991 -1.80297 0
M  V30 2352 C 211.114 -3.58948 0.261559 0
M  V30 2353 C 210.722 -4.16085 1.66064 0
M  V30 2354 C 212.466 -4.24173 -0.166617 0
M  V30 2355 C 210.373 -5.6641 1.70098 0
M  V30 2356 H 209.303 -0.751483 0.0615631 0
M  V30 2357 H 211.954 -1.63955 0.824069 0
M  V30 2358 H 210.336 -3.93372 -0.455421 0
M  V30 2359 H 211.51 -3.93147 2.40359 0
M  V30 2360 H 209.825 -3.6326 2.03546 0
M  V30 2361 H 212.422 -5.34471 -0.156433 0
M  V30 2362 H 212.765 -3.98647 -1.19943 0
M  V30 2363 H 213.298 -3.94659 0.498875 0
M  V30 2364 H 210.037 -5.96715 2.71315 0
M  V30 2365 H 209.557 -5.91382 1.00139 0
M  V30 2366 H 211.236 -6.30585 1.44816 0
M  V30 2367 N 211.368 -0.403325 -1.52352 0
M  V30 2368 C 212.593 0.176499 -2.06648 0
M  V30 2369 C 213.018 1.38577 -1.27193 0
M  V30 2370 O 212.376 1.7879 -0.300637 0
M  V30 2371 C 212.424 0.511061 -3.5696 0
M  V30 2372 O 211.528 1.60294 -3.79973 0
M  V30 2373 H 210.869 0.0167337 -0.663789 0
M  V30 2374 H 213.399 -0.574848 -1.96359 0
M  V30 2375 H 213.409 0.771362 -4.00642 0
M  V30 2376 H 212.084 -0.37296 -4.14224 0
M  V30 2377 H 210.661 1.33526 -3.48174 0
M  V30 2378 N 212.846 1.57033 -0.133567 0
M  V30 2379 C 214.095 1.94861 0.520768 0
M  V30 2380 C 214.408 1.02012 1.66892 0
M  V30 2381 O 215.614 1.29365 2.38699 0
M  V30 2382 C 214.07 3.46362 0.977809 0
M  V30 2383 C 213.678 4.47773 -0.142674 0
M  V30 2384 C 215.422 3.93083 1.60269 0
M  V30 2385 C 213.329 5.90468 0.331883 0
M  V30 2386 H 212.259 0.727453 0.198315 0
M  V30 2387 H 214.91 1.82227 -0.215759 0
M  V30 2388 H 213.292 3.54282 1.7692 0
M  V30 2389 H 214.466 4.51536 -0.919317 0
M  V30 2390 H 212.781 4.10891 -0.675124 0
M  V30 2391 H 215.378 4.97121 1.96914 0
M  V30 2392 H 215.721 3.33876 2.48662 0
M  V30 2393 H 216.254 3.88025 0.876453 0
M  V30 2394 H 212.993 6.53463 -0.516341 0
M  V30 2395 H 212.513 5.90094 1.07469 0
M  V30 2396 H 214.192 6.42179 0.788332 0
M  V30 2397 N 214.325 -0.140222 1.56975 0
M  V30 2398 C 215.602 -0.880769 1.74648 0
M  V30 2399 C 215.982 -1.99036 0.703404 0
M  V30 2400 O 215.33 -2.26821 -0.27648 0
M  V30 2401 C 215.54 -1.417 3.18939 0
M  V30 2402 C 216.888 -1.87774 3.80823 0
M  V30 2403 O 217.912 -1.51427 3.2241 0
M  V30 2404 O 216.771 -2.54827 4.83452 0
M  V30 2405 H 213.865 -0.416713 0.714338 0
M  V30 2406 H 216.411 -0.125618 1.69234 0
M  V30 2407 H 215.183 -0.619902 3.86359 0
M  V30 2408 H 214.806 -2.23546 3.28805 0
M  V30 2409 N 215.803 -1.52179 -0.40978 0
M  V30 2410 C 217.031 -1.70054 -1.17853 0
M  V30 2411 C 217.446 -0.409735 -1.843 0
M  V30 2412 O 216.803 0.614183 -1.71855 0
M  V30 2413 C 216.854 -2.83568 -2.24213 0
M  V30 2414 O 216.575 -4.0765 -1.60478 0
M  V30 2415 C 218.076 -3.12947 -3.13973 0
M  V30 2416 H 215.296 -0.569917 -0.354169 0
M  V30 2417 H 217.84 -1.98734 -0.482198 0
M  V30 2418 H 215.995 -2.57409 -2.89516 0
M  V30 2419 H 216.409 -4.70899 -2.30986 0
M  V30 2420 H 217.883 -3.95889 -3.84677 0
M  V30 2421 H 218.36 -2.26472 -3.76307 0
M  V30 2422 H 218.966 -3.40868 -2.5434 0
M  V30 2423 N 217.281 0.66697 -1.42791 0
M  V30 2424 C 218.53 1.42278 -1.42968 0
M  V30 2425 C 218.843 1.9553 -0.0524489 0
M  V30 2426 O 220.049 2.71414 0.068363 0
M  V30 2427 C 218.505 2.57418 -2.51524 0
M  V30 2428 C 218.113 2.10832 -3.9529 0
M  V30 2429 C 219.857 3.34878 -2.60877 0
M  V30 2430 C 217.764 3.23101 -4.95338 0
M  V30 2431 H 216.694 0.534533 -0.531781 0
M  V30 2432 H 219.345 0.721302 -1.68729 0
M  V30 2433 H 217.727 3.29971 -2.18941 0
M  V30 2434 H 218.901 1.4538 -4.37266 0
M  V30 2435 H 217.216 1.46289 -3.89857 0
M  V30 2436 H 219.813 4.18505 -3.32802 0
M  V30 2437 H 220.156 3.81993 -1.6549 0
M  V30 2438 H 220.689 2.69398 -2.92693 0
M  V30 2439 H 217.428 2.80969 -5.9223 0
M  V30 2440 H 216.948 3.87309 -4.57987 0
M  V30 2441 H 218.627 3.88447 -5.17415 0
M  V30 2442 N 218.759 1.29093 0.90403 0
M  V30 2443 C 219.707 1.13727 2.02901 0
M  V30 2444 C 220.701 0.0539853 1.69314 0
M  V30 2445 O 221.907 0.213469 1.7873 0
M  V30 2446 H 218.282 0.35117 0.664969 0
M  V30 2447 H 220.253 2.08982 2.13001 0
M  V30 2448 C 219.002 0.826066 3.37745 0
M  V30 2449 H 218.325 1.65164 3.64089 0
M  V30 2450 H 219.765 0.758559 4.17159 0
M  V30 2451 C 218.224 -0.470541 3.33598 0
M  V30 2452 O 218.754 -1.49792 3.72727 0
M  V30 2453 N 216.96 -0.474812 2.86695 0
M  V30 2454 H 216.507 0.361692 2.55048 0
M  V30 2455 H 216.465 -1.34236 2.84303 0
M  V30 2456 N 220.237 -1.11381 1.11499 0
M  V30 2457 C 221.467 -1.86663 0.885464 0
M  V30 2458 C 221.875 -1.80464 -0.568281 0
M  V30 2459 O 221.218 -1.18445 -1.40415 0
M  V30 2460 C 221.28 -3.36337 1.26956 0
M  V30 2461 C 220.944 -3.66304 2.73259 0
M  V30 2462 C 221.941 -3.63733 3.71476 0
M  V30 2463 C 219.626 -3.9529 3.09921 0
M  V30 2464 C 221.62 -3.89725 5.04374 0
M  V30 2465 C 219.307 -4.20941 4.43004 0
M  V30 2466 C 220.305 -4.18147 5.40039 0
M  V30 2467 O 219.993 -4.43153 6.70724 0
M  V30 2468 H 219.725 -0.597114 0.316908 0
M  V30 2469 H 222.279 -1.41782 1.48617 0
M  V30 2470 H 220.509 -3.81826 0.611999 0
M  V30 2471 H 222.198 -3.92986 1.01573 0
M  V30 2472 H 222.964 -3.41389 3.44498 0
M  V30 2473 H 218.843 -3.966 2.35009 0
M  V30 2474 H 222.387 -3.8746 5.80104 0
M  V30 2475 H 218.284 -4.42761 4.69716 0
M  V30 2476 H 219.052 -4.60717 6.76522 0
M  V30 2477 N 221.715 -0.905404 -1.28997 0
M  V30 2478 C 222.663 -0.377431 -2.29517 0
M  V30 2479 C 223.657 0.526461 -1.61012 0
M  V30 2480 O 224.863 0.40863 -1.753 0
M  V30 2481 H 221.238 -0.103437 -0.744852 0
M  V30 2482 H 223.209 -1.23848 -2.71485 0
M  V30 2483 C 221.958 0.374833 -3.45674 0
M  V30 2484 H 221.281 -0.311474 -3.98585 0
M  V30 2485 H 222.721 0.70903 -4.1803 0
M  V30 2486 C 221.18 1.57963 -2.97572 0
M  V30 2487 O 221.71 2.67886 -2.99333 0
M  V30 2488 N 219.916 1.42375 -2.53333 0
M  V30 2489 H 219.463 0.529466 -2.521 0
M  V30 2490 H 219.421 2.23117 -2.21509 0
M  V30 2491 N 223.193 1.4272 -0.668489 0
M  V30 2492 C 224.439 2.01923 -0.188419 0
M  V30 2493 C 224.772 1.52704 1.19979 0
M  V30 2494 O 224.047 0.726566 1.8042 0
M  V30 2495 C 224.33 3.59451 -0.216085 0
M  V30 2496 C 224.183 4.18864 -1.6393 0
M  V30 2497 C 225.502 4.37903 0.439179 0
M  V30 2498 H 222.621 0.733674 -0.0699412 0
M  V30 2499 H 225.263 1.69822 -0.852076 0
M  V30 2500 H 223.413 3.86929 0.349012 0
M  V30 2501 H 225.085 4.02362 -2.25616 0
M  V30 2502 H 223.328 3.74933 -2.18193 0
M  V30 2503 H 223.999 5.27987 -1.61039 0
M  V30 2504 H 226.475 4.16079 -0.0417878 0
M  V30 2505 H 225.351 5.47519 0.389157 0
M  V30 2506 H 225.612 4.15303 1.51577 0
M  V30 2507 N 224.671 0.411399 1.52136 0
M  V30 2508 C 225.918 -0.163645 2.01838 0
M  V30 2509 C 226.246 -1.4495 1.29691 0
M  V30 2510 O 225.501 -1.91725 0.392431 0
M  V30 2511 C 225.8 -0.455872 3.54481 0
M  V30 2512 C 225.466 0.741055 4.44769 0
M  V30 2513 C 224.128 1.06936 4.69167 0
M  V30 2514 C 226.48 1.54075 4.97906 0
M  V30 2515 C 223.808 2.19851 5.43951 0
M  V30 2516 C 226.16 2.66067 5.73926 0
M  V30 2517 C 224.824 2.99381 5.96596 0
M  V30 2518 H 224.094 -0.0598821 0.738576 0
M  V30 2519 H 226.741 0.553283 1.83333 0
M  V30 2520 H 225.046 -1.2544 3.71177 0
M  V30 2521 H 226.743 -0.913802 3.90449 0
M  V30 2522 H 223.333 0.475192 4.25958 0
M  V30 2523 H 227.517 1.30033 4.78963 0
M  V30 2524 H 222.773 2.46006 5.59724 0
M  V30 2525 H 226.947 3.28419 6.14096 0
M  V30 2526 H 224.574 3.86992 6.54325 0
M  V30 2527 N 226.149 -1.5696 0.141893 0
M  V30 2528 C 227.096 -2.16501 -0.799737 0
M  V30 2529 C 228.066 -1.09643 -1.24771 0
M  V30 2530 O 229.251 -1.3766 -1.32115 0
M  V30 2531 C 226.391 -2.78679 -2.03549 0
M  V30 2532 C 225.504 -3.99914 -1.6338 0
M  V30 2533 C 224.639 -4.50106 -2.82096 0
M  V30 2534 C 223.678 -5.63819 -2.38275 0
M  V30 2535 N 222.815 -6.08651 -3.49983 0
M  V30 2536 H 227.655 -2.96632 -0.285179 0
M  V30 2537 H 225.192 -1.46533 -0.129053 0
M  V30 2538 H 227.15 -3.1287 -2.75986 0
M  V30 2539 H 225.78 -2.012 -2.52425 0
M  V30 2540 H 224.832 -3.71735 -0.807279 0
M  V30 2541 H 226.144 -4.82311 -1.27192 0
M  V30 2542 H 225.298 -4.86325 -3.62729 0
M  V30 2543 H 224.037 -3.66706 -3.21525 0
M  V30 2544 H 223.042 -5.2718 -1.56081 0
M  V30 2545 H 224.267 -6.49 -1.99938 0
M  V30 2546 H 222.213 -5.28188 -3.89042 0
M  V30 2547 H 222.13 -6.85961 -3.17794 0
M  V30 2548 H 223.398 -6.49515 -4.30988 0
M  V30 2549 N 227.627 0.131896 -1.57047 0
M  V30 2550 C 228.537 1.1815 -2.02676 0
M  V30 2551 C 229.553 1.46113 -0.944824 0
M  V30 2552 O 230.729 1.57485 -1.25541 0
M  V30 2553 C 227.794 2.49139 -2.41103 0
M  V30 2554 C 226.855 2.28688 -3.63318 0
M  V30 2555 C 226.088 3.53431 -3.99903 0
M  V30 2556 O 226.311 4.60223 -3.36973 0
M  V30 2557 O 225.245 3.45198 -4.93074 0
M  V30 2558 H 229.071 0.824069 -2.92306 0
M  V30 2559 H 226.656 0.341745 -1.45439 0
M  V30 2560 H 228.538 3.26338 -2.66611 0
M  V30 2561 H 227.213 2.84382 -1.54624 0
M  V30 2562 H 226.12 1.4939 -3.42977 0
M  V30 2563 H 227.453 1.98355 -4.50462 0
M  V30 2564 N 229.106 1.52395 0.401703 0
M  V30 2565 C 230.346 1.68498 1.15705 0
M  V30 2566 C 230.71 0.409748 1.87577 0
M  V30 2567 O 231.911 0.446983 2.65058 0
M  V30 2568 C 230.182 2.87789 2.11924 0
M  V30 2569 S 231.741 3.24415 2.95466 0
M  V30 2570 H 228.559 0.593267 0.391862 0
M  V30 2571 H 231.161 1.90408 0.443282 0
M  V30 2572 H 229.865 3.7884 1.57824 0
M  V30 2573 H 229.396 2.68175 2.87829 0
M  V30 2574 H 231.411 2.73614 4.13944 0
M  V30 2575 N 230.584 -0.659388 1.43143 0
M  V30 2576 C 231.83 -1.42145 1.44647 0
M  V30 2577 C 232.163 -1.9408 0.0681907 0
M  V30 2578 O 231.438 -1.71899 -0.910007 0
M  V30 2579 C 231.721 -2.60735 2.48373 0
M  V30 2580 C 231.574 -2.14332 3.95451 0
M  V30 2581 C 232.893 -3.62951 2.48906 0
M  V30 2582 H 230.012 -0.51552 0.526696 0
M  V30 2583 H 232.654 -0.748069 1.74654 0
M  V30 2584 H 230.804 -3.18184 2.22916 0
M  V30 2585 H 232.476 -1.61932 4.31944 0
M  V30 2586 H 230.719 -1.4576 4.08578 0
M  V30 2587 H 231.39 -2.99583 4.63631 0
M  V30 2588 H 233.866 -3.1525 2.71582 0
M  V30 2589 H 232.742 -4.43487 3.23435 0
M  V30 2590 H 233.003 -4.15126 1.52061 0
M  V30 2591 N 232.062 -1.29571 -0.897171 0
M  V30 2592 C 233.339 -1.08365 -1.62839 0
M  V30 2593 C 233.719 0.371331 -2.07808 0
M  V30 2594 O 233.067 1.3606 -1.83576 0
M  V30 2595 C 233.277 -2.0735 -2.80726 0
M  V30 2596 C 234.625 -2.38406 -3.51351 0
M  V30 2597 O 235.649 -2.05564 -2.90898 0
M  V30 2598 O 234.508 -2.9453 -4.60341 0
M  V30 2599 H 231.602 -0.415345 -0.715134 0
M  V30 2600 H 234.148 -1.40952 -0.945018 0
M  V30 2601 H 232.92 -3.05339 -2.44711 0
M  V30 2602 H 232.543 -1.75507 -3.56767 0
M  V30 2603 N 233.54 1.10788 -1.12088 0
M  V30 2604 C 234.488 2.19111 -0.780587 0
M  V30 2605 C 235.482 1.67818 0.230961 0
M  V30 2606 O 236.688 1.79777 0.0895427 0
M  V30 2607 H 233.063 0.714477 -0.234578 0
M  V30 2608 H 235.034 2.45055 -1.70266 0
M  V30 2609 C 233.783 3.46818 -0.24747 0
M  V30 2610 H 233.106 3.86646 -1.01712 0
M  V30 2611 H 234.546 4.23973 -0.0476291 0
M  V30 2612 C 233.005 3.20968 1.02378 0
M  V30 2613 O 233.535 3.42298 2.10226 0
M  V30 2614 N 231.741 2.74658 0.949271 0
M  V30 2615 H 231.288 2.57501 0.0715173 0
M  V30 2616 H 231.246 2.57739 1.80049 0
M  V30 2617 N 235.018 0.912232 1.28515 0
M  V30 2618 C 236.295 0.463597 1.90027 0
M  V30 2619 C 236.675 -1.05753 1.82701 0
M  V30 2620 O 236.023 -1.90492 1.26194 0
M  V30 2621 C 236.233 0.992253 3.34597 0
M  V30 2622 C 237.581 1.04344 4.11579 0
M  V30 2623 O 238.605 0.94079 3.43551 0
M  V30 2624 O 237.464 1.1995 5.33174 0
M  V30 2625 H 234.558 0.146666 0.813891 0
M  V30 2626 H 237.104 1.00292 1.36893 0
M  V30 2627 H 235.876 2.03623 3.34146 0
M  V30 2628 H 235.499 0.433672 3.95228 0
M  V30 2629 N 236.496 -1.42363 0.676048 0
M  V30 2630 C 237.426 -2.33497 0.0124832 0
M  V30 2631 C 238.407 -1.50748 -0.787981 0
M  V30 2632 O 239.592 -1.79346 -0.744884 0
M  V30 2633 C 236.722 -3.34377 -0.938582 0
M  V30 2634 C 235.676 -4.27289 -0.246622 0
M  V30 2635 C 235.002 -5.18386 -1.31071 0
M  V30 2636 C 236.302 -5.14916 0.875125 0
M  V30 2637 H 237.996 -2.89233 0.773593 0
M  V30 2638 H 235.542 -1.39073 0.37346 0
M  V30 2639 H 237.495 -3.97044 -1.41188 0
M  V30 2640 H 236.219 -2.76947 -1.73113 0
M  V30 2641 H 234.878 -3.66018 0.206456 0
M  V30 2642 H 234.526 -4.57282 -2.09528 0
M  V30 2643 H 234.226 -5.81378 -0.852839 0
M  V30 2644 H 235.75 -5.83929 -1.78492 0
M  V30 2645 H 237.164 -5.71262 0.482983 0
M  V30 2646 H 235.561 -5.86747 1.25887 0
M  V30 2647 H 236.631 -4.53242 1.72335 0
M  V30 2648 N 237.974 -0.419461 -1.51915 0
M  V30 2649 C 239.22 0.153166 -2.02221 0
M  V30 2650 C 239.553 1.43907 -1.30401 0
M  V30 2651 O 238.828 1.90055 -0.413438 0
M  V30 2652 C 239.111 0.390291 -3.57979 0
M  V30 2653 C 238.964 -0.913014 -4.40436 0
M  V30 2654 C 240.283 1.16794 -4.2432 0
M  V30 2655 H 237.402 0.0541924 -0.735005 0
M  V30 2656 H 240.044 -0.554955 -1.81715 0
M  V30 2657 H 238.194 0.993491 -3.75582 0
M  V30 2658 H 239.866 -1.54882 -4.34522 0
M  V30 2659 H 238.109 -1.52168 -4.06236 0
M  V30 2660 H 238.78 -0.701361 -5.47526 0
M  V30 2661 H 241.256 0.657161 -4.10878 0
M  V30 2662 H 240.132 1.3026 -5.3322 0
M  V30 2663 H 240.393 2.19132 -3.83971 0
M  V30 2664 N 239.452 1.56882 -0.150215 0
M  V30 2665 C 240.729 1.87844 0.545327 0
M  V30 2666 C 241.109 1.0567 1.82749 0
M  V30 2667 O 240.457 0.144442 2.28043 0
M  V30 2668 C 240.667 3.39526 0.80767 0
M  V30 2669 C 242.015 4.08814 1.14703 0
M  V30 2670 O 243.039 3.44723 0.896917 0
M  V30 2671 O 241.898 5.22004 1.61784 0
M  V30 2672 H 238.992 0.778677 0.278553 0
M  V30 2673 H 241.538 1.68666 -0.187068 0
M  V30 2674 H 240.31 3.91173 -0.0996096 0
M  V30 2675 H 239.933 3.64243 1.59413 0
M  V30 2676 N 240.93 -0.123565 1.57115 0
M  V30 2677 C 242.179 -0.830704 1.83799 0
M  V30 2678 C 242.492 -1.81259 0.735158 0
M  V30 2679 O 243.698 -2.56558 0.888278 0
M  V30 2680 C 242.154 -1.52802 3.25852 0
M  V30 2681 C 241.762 -0.587356 4.44133 0
M  V30 2682 C 243.506 -2.22056 3.61789 0
M  V30 2683 C 241.413 -1.28764 5.77212 0
M  V30 2684 H 240.343 -0.313967 0.685522 0
M  V30 2685 H 242.994 -0.0834359 1.8331 0
M  V30 2686 H 241.376 -2.32175 3.20797 0
M  V30 2687 H 242.55 0.172829 4.60476 0
M  V30 2688 H 240.865 -0.00201892 4.164 0
M  V30 2689 H 243.462 -2.75131 4.58483 0
M  V30 2690 H 243.805 -2.99644 2.88997 0
M  V30 2691 H 244.338 -1.49576 3.68608 0
M  V30 2692 H 241.077 -0.55314 6.53162 0
M  V30 2693 H 240.597 -2.01995 5.64764 0
M  V30 2694 H 242.276 -1.8221 6.20813 0
M  V30 2695 N 242.408 -1.52605 -0.393616 0
M  V30 2696 C 243.338 -1.80022 -1.48709 0
M  V30 2697 C 244.319 -0.651995 -1.57108 0
M  V30 2698 O 245.504 -0.89913 -1.72132 0
M  V30 2699 C 242.634 -1.96492 -2.86371 0
M  V30 2700 C 241.588 -3.12161 -2.92813 0
M  V30 2701 C 240.914 -3.13877 -4.3288 0
M  V30 2702 C 242.214 -4.51322 -2.6288 0
M  V30 2703 H 243.908 -2.71589 -1.26015 0
M  V30 2704 H 241.454 -1.30684 -0.604778 0
M  V30 2705 H 243.407 -2.14255 -3.62867 0
M  V30 2706 H 242.131 -1.01611 -3.10391 0
M  V30 2707 H 240.79 -2.94173 -2.18764 0
M  V30 2708 H 240.438 -2.16687 -4.53933 0
M  V30 2709 H 240.138 -3.91576 -4.38112 0
M  V30 2710 H 241.662 -3.33789 -5.1129 0
M  V30 2711 H 243.076 -4.69435 -3.29096 0
M  V30 2712 H 241.473 -5.31053 -2.79468 0
M  V30 2713 H 242.543 -4.58353 -1.58242 0
M  V30 2714 N 243.887 0.651787 -1.4349 0
M  V30 2715 C 244.835 1.78586 -1.49029 0
M  V30 2716 C 245.829 1.65448 -0.363767 0
M  V30 2717 O 247.035 1.71777 -0.537821 0
M  V30 2718 H 243.41 0.589236 -0.467231 0
M  V30 2719 H 245.381 1.71035 -2.44519 0
M  V30 2720 C 244.13 3.16851 -1.43181 0
M  V30 2721 H 243.453 3.27598 -2.29171 0
M  V30 2722 H 244.893 3.96156 -1.51118 0
M  V30 2723 C 243.352 3.36568 -0.149616 0
M  V30 2724 O 243.882 3.93885 0.788509 0
M  V30 2725 N 242.088 2.90539 -0.0593484 0
M  V30 2726 H 241.635 2.4408 -0.823575 0
M  V30 2727 H 241.593 3.04108 0.797853 0
M  V30 2728 N 245.365 1.30045 0.890287 0
M  V30 2729 C 246.642 1.09227 1.62262 0
M  V30 2730 C 247.022 -0.360305 2.08002 0
M  V30 2731 O 246.37 -1.35084 1.84295 0
M  V30 2732 C 246.58 2.08835 2.79623 0
M  V30 2733 C 247.928 2.40266 3.50082 0
M  V30 2734 O 248.952 2.07104 2.89804 0
M  V30 2735 O 247.811 2.96967 4.58773 0
M  V30 2736 H 244.905 0.419132 0.712922 0
M  V30 2737 H 247.451 1.41451 0.937529 0
M  V30 2738 H 246.223 3.06633 2.43089 0
M  V30 2739 H 245.846 1.77397 3.55832 0
M  V30 2740 N 246.843 -1.10192 1.12674 0
M  V30 2741 C 248.092 -1.81573 0.8783 0
M  V30 2742 C 248.405 -1.86249 -0.597557 0
M  V30 2743 O 249.611 -2.5386 -0.962681 0
M  V30 2744 C 248.067 -3.26149 1.52167 0
M  V30 2745 C 247.675 -3.29763 3.03249 0
M  V30 2746 C 249.419 -4.0234 1.3536 0
M  V30 2747 C 247.326 -4.68815 3.60508 0
M  V30 2748 H 246.256 -0.680394 0.324931 0
M  V30 2749 H 248.907 -1.23902 1.35353 0
M  V30 2750 H 247.289 -3.83832 0.974104 0
M  V30 2751 H 248.463 -2.8189 3.6452 0
M  V30 2752 H 246.778 -2.67059 3.19481 0
M  V30 2753 H 249.375 -5.05058 1.75559 0
M  V30 2754 H 249.718 -4.15235 0.297554 0
M  V30 2755 H 250.251 -3.51079 1.87052 0
M  V30 2756 H 246.99 -4.61121 4.65884 0
M  V30 2757 H 246.51 -5.17045 3.04014 0
M  V30 2758 H 248.189 -5.37785 3.59717 0
M  V30 2759 N 248.321 -0.919034 -1.28029 0
M  V30 2760 C 249.546 -0.570357 -1.99403 0
M  V30 2761 C 249.971 0.842486 -1.68178 0
M  V30 2762 O 249.329 1.56391 -0.917141 0
M  V30 2763 C 249.377 -0.792541 -3.51783 0
M  V30 2764 O 248.481 0.145988 -4.12142 0
M  V30 2765 H 247.822 -0.220555 -0.6263 0
M  V30 2766 H 250.352 -1.23592 -1.63053 0
M  V30 2767 H 250.362 -0.704708 -4.01868 0
M  V30 2768 H 249.037 -1.82247 -3.73844 0
M  V30 2769 H 247.614 0.00897528 -3.72899 0
M  V30 2770 N 249.799 1.42003 -0.683588 0
M  V30 2771 C 250.762 2.29191 -0.0198243 0
M  V30 2772 C 251.762 1.43773 0.72013 0
M  V30 2773 O 252.952 1.65061 0.556815 0
M  V30 2774 C 250.084 3.26435 0.982487 0
M  V30 2775 H 251.277 2.8938 -0.787345 0
M  V30 2776 H 248.83 1.49789 -0.446418 0
M  V30 2777 H 249.565 2.71203 1.77819 0
M  V30 2778 H 249.35 3.89449 0.455182 0
M  V30 2779 H 250.84 3.918 1.44508 0
M  V30 2780 N 251.277 0.427512 1.51691 0
M  V30 2781 C 252.517 -0.141524 2.03909 0
M  V30 2782 C 252.881 -1.40811 1.30523 0
M  V30 2783 O 254.082 -2.05676 1.73063 0
M  V30 2784 C 252.353 -0.364962 3.55532 0
M  V30 2785 S 253.912 -0.898812 4.29496 0
M  V30 2786 H 250.73 -0.0364542 0.710065 0
M  V30 2787 H 253.332 0.584659 1.86553 0
M  V30 2788 H 252.036 0.56336 4.06515 0
M  V30 2789 H 251.567 -1.1185 3.77164 0
M  V30 2790 H 253.582 -2.17747 4.45871 0
M  V30 2791 N 252.755 -1.56801 0.158532 0
M  V30 2792 C 253.983 -2.00859 -0.496303 0
M  V30 2793 C 254.398 -1.03871 -1.57659 0
M  V30 2794 O 253.755 -0.0375165 -1.82461 0
M  V30 2795 C 253.806 -3.4479 -1.08638 0
M  V30 2796 O 253.527 -4.38072 -0.0492322 0
M  V30 2797 C 255.028 -4.04185 -1.8207 0
M  V30 2798 H 252.248 -0.65864 -0.128199 0
M  V30 2799 H 254.792 -2.02885 0.256506 0
M  V30 2800 H 252.947 -3.43579 -1.78975 0
M  V30 2801 H 253.361 -5.2227 -0.483102 0
M  V30 2802 H 254.835 -5.06857 -2.18633 0
M  V30 2803 H 255.312 -3.45549 -2.71095 0
M  V30 2804 H 255.918 -4.0906 -1.16405 0
M  V30 2805 N 254.233 0.115231 -1.57178 0
M  V30 2806 C 255.181 1.16014 -2.01602 0
M  V30 2807 C 256.175 1.42653 -0.913587 0
M  V30 2808 O 257.381 1.42571 -1.09879 0
M  V30 2809 H 253.756 0.391252 -0.642204 0
M  V30 2810 H 255.727 0.758998 -2.88586 0
M  V30 2811 C 254.476 2.47767 -2.4394 0
M  V30 2812 H 253.799 2.28108 -3.28339 0
M  V30 2813 H 255.239 3.19432 -2.78818 0
M  V30 2814 C 253.698 3.10617 -1.30455 0
M  V30 2815 O 254.228 3.96846 -0.622585 0
M  V30 2816 N 252.434 2.70553 -1.06064 0
M  V30 2817 H 251.981 2.00527 -1.61699 0
M  V30 2818 H 251.939 3.12934 -0.303284 0
M  V30 2819 N 255.711 1.52812 0.385517 0
M  V30 2820 C 256.659 1.78482 1.49155 0
M  V30 2821 C 257.653 0.652914 1.56312 0
M  V30 2822 O 258.859 0.835464 1.59436 0
M  V30 2823 H 255.234 0.5648 0.496493 0
M  V30 2824 H 257.205 2.71095 1.24699 0
M  V30 2825 C 255.954 1.97378 2.86247 0
M  V30 2826 H 255.277 2.83907 2.81491 0
M  V30 2827 H 256.717 2.19327 3.62866 0
M  V30 2828 C 255.176 0.74728 3.28508 0
M  V30 2829 O 255.706 -0.0736232 4.01633 0
M  V30 2830 N 253.912 0.576396 2.84826 0
M  V30 2831 H 253.459 1.24555 2.25486 0
M  V30 2832 H 253.417 -0.24288 3.1346 0
M  V30 2833 N 257.189 -0.644168 1.43834 0
M  V30 2834 C 258.6 -1.22554 1.40845 0
M  V30 2835 C 258.951 -1.9585 0.117115 0
M  V30 2836 O 258.076 -2.01734 -0.783086 0
M  V30 2837 C 258.671 -2.22907 2.55143 0
M  V30 2838 C 257.23 -2.76501 2.5539 0
M  V30 2839 C 256.377 -1.51287 2.32396 0
M  V30 2840 H 259.328 -0.43563 1.52604 0
M  V30 2841 H 259.349 -3.05259 2.2715 0
M  V30 2842 H 258.861 -1.69533 3.49114 0
M  V30 2843 H 256.962 -3.33914 1.65324 0
M  V30 2844 H 257.075 -3.23429 3.53455 0
M  V30 2845 H 255.439 -1.78957 1.81236 0
M  V30 2846 H 256.222 -0.998336 3.28463 0
M  V30 2847 N 258.668 -1.30515 -0.883378 0
M  V30 2848 C 259.578 -1.18959 -2.02203 0
M  V30 2849 C 260.594 -0.109172 -1.73657 0
M  V30 2850 O 261.77 -0.324413 -1.9877 0
M  V30 2851 C 258.835 -0.883871 -3.35244 0
M  V30 2852 C 257.896 -2.04982 -3.77201 0
M  V30 2853 C 257.129 -1.75859 -5.03894 0
M  V30 2854 O 257.352 -0.687276 -5.66244 0
M  V30 2855 O 256.286 -2.61146 -5.42297 0
M  V30 2856 H 260.112 -2.14616 -2.1488 0
M  V30 2857 H 257.697 -1.10124 -1.0096 0
M  V30 2858 H 259.579 -0.728644 -4.15053 0
M  V30 2859 H 258.254 0.0427798 -3.23672 0
M  V30 2860 H 257.161 -2.26038 -2.9809 0
M  V30 2861 H 258.494 -2.95825 -3.93381 0
M  V30 2862 N 260.146 1.09593 -1.13257 0
M  V30 2863 C 261.395 1.81105 -0.887917 0
M  V30 2864 C 261.708 1.86563 0.587672 0
M  V30 2865 O 262.914 2.54367 0.949204 0
M  V30 2866 C 261.37 3.25338 -1.53895 0
M  V30 2867 C 260.978 3.28151 -3.04994 0
M  V30 2868 C 262.722 4.01617 -1.37492 0
M  V30 2869 C 260.629 4.66897 -3.6299 0
M  V30 2870 H 259.559 0.678661 -0.328534 0
M  V30 2871 H 262.21 1.23183 -1.36008 0
M  V30 2872 H 260.592 3.8331 -0.994446 0
M  V30 2873 H 261.766 2.79953 -3.66009 0
M  V30 2874 H 260.081 2.65361 -3.20893 0
M  V30 2875 H 262.678 5.04119 -1.78235 0
M  V30 2876 H 263.021 4.15072 -0.31957 0
M  V30 2877 H 263.554 3.50082 -1.88912 0
M  V30 2878 H 260.293 4.58643 -4.68323 0
M  V30 2879 H 259.813 5.15426 -3.06752 0
M  V30 2880 H 261.492 5.3587 -3.62563 0
M  V30 2881 N 261.624 0.925811 1.2754 0
M  V30 2882 C 262.873 0.561084 1.93739 0
M  V30 2883 C 263.186 -0.901685 1.73577 0
M  V30 2884 O 264.392 -1.37511 2.34101 0
M  V30 2885 C 262.848 0.952668 3.47062 0
M  V30 2886 C 262.456 2.43599 3.75983 0
M  V30 2887 C 264.2 0.659103 4.19352 0
M  V30 2888 C 262.107 2.76707 5.22673 0
M  V30 2889 H 261.037 0.206122 0.725279 0
M  V30 2890 H 263.688 1.12637 1.44863 0
M  V30 2891 H 262.07 0.316053 3.94737 0
M  V30 2892 H 263.244 3.12035 3.39073 0
M  V30 2893 H 261.559 2.70125 3.16893 0
M  V30 2894 H 264.156 0.882985 5.27359 0
M  V30 2895 H 264.499 -0.403607 4.14339 0
M  V30 2896 H 265.032 1.25473 3.77494 0
M  V30 2897 H 261.771 3.8188 5.32774 0
M  V30 2898 H 261.291 2.12919 5.60737 0
M  V30 2899 H 262.97 2.6435 5.90532 0
M  V30 2900 N 263.102 -1.41638 0.69111 0
M  V30 2901 C 264.049 -2.30789 0.0229705 0
M  V30 2902 C 265.019 -1.46863 -0.775911 0
M  V30 2903 O 266.204 -1.75661 -0.74485 0
M  V30 2904 C 263.344 -3.32868 -0.910666 0
M  V30 2905 C 262.457 -4.31875 -0.103874 0
M  V30 2906 C 261.592 -5.21024 -1.03475 0
M  V30 2907 C 260.631 -6.11702 -0.220598 0
M  V30 2908 N 259.768 -6.93349 -1.10504 0
M  V30 2909 H 264.608 -2.87366 0.788978 0
M  V30 2910 H 262.145 -1.41535 0.400794 0
M  V30 2911 H 264.103 -3.90596 -1.46597 0
M  V30 2912 H 262.733 -2.77851 -1.64312 0
M  V30 2913 H 261.785 -3.76131 0.568285 0
M  V30 2914 H 263.097 -4.96003 0.527504 0
M  V30 2915 H 262.251 -5.83565 -1.65943 0
M  V30 2916 H 260.99 -4.57112 -1.69999 0
M  V30 2917 H 259.995 -5.48215 0.417187 0
M  V30 2918 H 261.22 -6.77668 0.440784 0
M  V30 2919 H 259.166 -6.3205 -1.75638 0
M  V30 2920 H 259.083 -7.54146 -0.529125 0
M  V30 2921 H 260.351 -7.60362 -1.71667 0
M  V30 2922 N 264.58 -0.43555 -1.51462 0
M  V30 2923 C 265.51 0.367376 -2.30592 0
M  V30 2924 C 266.491 1.02263 -1.35928 0
M  V30 2925 O 267.676 1.02661 -1.64847 0
M  V30 2926 C 264.806 1.46983 -3.14664 0
M  V30 2927 C 263.76 0.938161 -4.17591 0
M  V30 2928 C 263.086 2.13622 -4.90173 0
M  V30 2929 C 264.386 -0.0261621 -5.22293 0
M  V30 2930 H 266.08 -0.292969 -2.97963 0
M  V30 2931 H 263.626 -0.14234 -1.43295 0
M  V30 2932 H 265.579 2.03873 -3.688 0
M  V30 2933 H 264.303 2.15843 -2.4511 0
M  V30 2934 H 262.962 0.391481 -3.64504 0
M  V30 2935 H 262.61 2.81098 -4.17124 0
M  V30 2936 H 262.31 1.78688 -5.59772 0
M  V30 2937 H 263.834 2.7107 -5.47132 0
M  V30 2938 H 265.248 0.452384 -5.71512 0
M  V30 2939 H 263.645 -0.287992 -5.99409 0
M  V30 2940 H 264.715 -0.963391 -4.75233 0
M  V30 2941 N 266.058 1.56714 -0.166846 0
M  V30 2942 C 266.988 2.20754 0.760913 0
M  V30 2943 C 267.969 1.16178 1.24244 0
M  V30 2944 O 269.154 1.44592 1.29641 0
M  V30 2945 C 266.284 2.84478 1.99223 0
M  V30 2946 C 265.238 3.95053 1.64672 0
M  V30 2947 C 264.564 4.45805 2.95232 0
M  V30 2948 C 265.864 5.14865 0.878155 0
M  V30 2949 H 267.558 2.98537 0.22713 0
M  V30 2950 H 265.104 1.43596 0.107805 0
M  V30 2951 H 267.057 3.27951 2.64624 0
M  V30 2952 H 265.781 2.04056 2.55007 0
M  V30 2953 H 264.44 3.52228 1.01641 0
M  V30 2954 H 264.088 3.62181 3.49047 0
M  V30 2955 H 263.788 5.204 2.7287 0
M  V30 2956 H 265.312 4.91962 3.6167 0
M  V30 2957 H 266.726 5.55059 1.43466 0
M  V30 2958 H 265.123 5.95348 0.753738 0
M  V30 2959 H 266.193 4.84735 -0.126377 0
M  V30 2960 N 267.536 -0.106894 1.57237 0
M  V30 2961 C 268.483 -1.13049 2.01217 0
M  V30 2962 C 269.453 -1.40471 0.886403 0
M  V30 2963 O 270.638 -1.52133 1.15153 0
M  V30 2964 C 267.778 -2.4487 2.43172 0
M  V30 2965 C 266.891 -2.24281 3.69218 0
M  V30 2966 C 266.026 -3.49417 4.00101 0
M  V30 2967 C 265.065 -3.24038 5.19294 0
M  V30 2968 N 264.202 -4.41409 5.45988 0
M  V30 2969 H 269.042 -0.748456 2.88448 0
M  V30 2970 H 266.579 -0.358054 1.42676 0
M  V30 2971 H 268.537 -3.21786 2.65537 0
M  V30 2972 H 267.167 -2.80944 1.58967 0
M  V30 2973 H 266.219 -1.38224 3.54398 0
M  V30 2974 H 267.531 -2.01512 4.56283 0
M  V30 2975 H 266.685 -4.34746 4.2318 0
M  V30 2976 H 265.424 -3.75229 3.11535 0
M  V30 2977 H 264.429 -2.37102 4.96047 0
M  V30 2978 H 265.654 -2.99584 6.09447 0
M  V30 2979 H 263.6 -4.67319 4.60379 0
M  V30 2980 H 263.517 -4.21788 6.274 0
M  V30 2981 H 264.785 -5.27836 5.73593 0
M  V30 2982 N 269.014 -1.53014 -0.377408 0
M  V30 2983 C 269.961 -1.78616 -1.46168 0
M  V30 2984 C 270.931 -0.629917 -1.53692 0
M  V30 2985 O 272.116 -0.870861 -1.69766 0
M  V30 2986 C 269.256 -1.97123 -2.8326 0
M  V30 2987 C 268.369 -3.24831 -2.84796 0
M  V30 2988 C 267.504 -3.33591 -4.13389 0
M  V30 2989 C 266.543 -4.55377 -4.09021 0
M  V30 2990 N 265.68 -4.61355 -5.29241 0
M  V30 2991 H 270.52 -2.71142 -1.23637 0
M  V30 2992 H 268.057 -1.34326 -0.599577 0
M  V30 2993 H 270.015 -2.05839 -3.62886 0
M  V30 2994 H 268.645 -1.07946 -3.04216 0
M  V30 2995 H 267.697 -3.25128 -1.97474 0
M  V30 2996 H 269.009 -4.14523 -2.77439 0
M  V30 2997 H 268.163 -3.41554 -5.01424 0
M  V30 2998 H 266.902 -2.41894 -4.23484 0
M  V30 2999 H 265.907 -4.47527 -3.19373 0
M  V30 3000 H 267.132 -5.48402 -4.00539 0
M  V30 3001 H 265.078 -3.72554 -5.39944 0
M  V30 3002 H 264.995 -5.44935 -5.24006 0
M  V30 3003 H 266.263 -4.73586 -6.19141 0
M  V30 3004 N 270.492 0.636531 -1.44174 0
M  V30 3005 C 271.439 1.74875 -1.50624 0
M  V30 3006 C 272.409 1.62275 -0.35442 0
M  V30 3007 O 273.594 1.82276 -0.563908 0
M  V30 3008 C 270.734 3.13102 -1.45125 0
M  V30 3009 C 269.847 3.36717 -2.7064 0
M  V30 3010 C 268.982 4.64885 -2.57013 0
M  V30 3011 C 268.021 4.8166 -3.77717 0
M  V30 3012 N 267.158 6.01101 -3.62798 0
M  V30 3013 H 271.998 1.68697 -2.45653 0
M  V30 3014 H 269.535 0.823004 -1.21922 0
M  V30 3015 H 271.493 3.93034 -1.39929 0
M  V30 3016 H 270.123 3.18308 -0.536671 0
M  V30 3017 H 269.175 2.50763 -2.86046 0
M  V30 3018 H 270.487 3.44993 -3.60252 0
M  V30 3019 H 269.641 5.52969 -2.49619 0
M  V30 3020 H 268.38 4.58957 -1.64953 0
M  V30 3021 H 267.385 3.92007 -3.85501 0
M  V30 3022 H 268.61 4.89406 -4.70807 0
M  V30 3023 H 266.556 5.96273 -2.73486 0
M  V30 3024 H 266.473 6.10409 -4.46023 0
M  V30 3025 H 267.741 6.91761 -3.59286 0
M  V30 3026 N 271.97 1.30982 0.876444 0
M  V30 3027 C 272.918 1.18006 2.00443 0
M  V30 3028 C 273.912 0.0898871 1.69161 0
M  V30 3029 O 275.118 0.251333 1.78237 0
M  V30 3030 H 271.493 0.365196 0.65737 0
M  V30 3031 H 273.464 2.13453 2.0852 0
M  V30 3032 C 272.213 0.897521 3.35916 0
M  V30 3033 H 271.536 1.7285 3.60504 0
M  V30 3034 H 272.976 0.846874 4.15456 0
M  V30 3035 C 271.435 -0.399674 3.34521 0
M  V30 3036 O 271.965 -1.41852 3.7582 0
M  V30 3037 N 270.171 -0.413893 2.87637 0
M  V30 3038 H 269.718 0.41571 2.54224 0
M  V30 3039 H 269.676 -1.28175 2.87086 0
M  V30 3040 N 273.449 -1.08991 1.13837 0
M  V30 3041 C 274.396 -2.15748 0.819835 0
M  V30 3042 C 275.366 -1.64636 -0.220026 0
M  V30 3043 O 276.551 -1.90582 -0.0912757 0
M  V30 3044 C 273.691 -3.4382 0.296913 0
M  V30 3045 C 272.804 -4.0881 1.39636 0
M  V30 3046 C 271.939 -5.24655 0.831314 0
M  V30 3047 C 270.978 -5.81575 1.90886 0
M  V30 3048 N 270.115 -6.88774 1.36142 0
M  V30 3049 H 274.955 -2.42338 1.73426 0
M  V30 3050 H 272.492 -1.18935 0.865613 0
M  V30 3051 H 274.45 -4.17193 -0.0244339 0
M  V30 3052 H 273.08 -3.17535 -0.580628 0
M  V30 3053 H 272.132 -3.33258 1.83422 0
M  V30 3054 H 273.444 -4.47141 2.21058 0
M  V30 3055 H 272.598 -6.04942 0.461515 0
M  V30 3056 H 271.337 -4.87698 -0.013932 0
M  V30 3057 H 270.342 -4.99946 2.28767 0
M  V30 3058 H 271.567 -6.20592 2.75758 0
M  V30 3059 H 269.513 -6.53788 0.538254 0
M  V30 3060 H 269.43 -7.25898 2.11208 0
M  V30 3061 H 270.698 -7.72806 1.01933 0
M  V30 3062 N 274.927 -0.932562 -1.27047 0
M  V30 3063 C 276.174 -0.575559 -1.94148 0
M  V30 3064 C 276.502 0.883984 -1.73251 0
M  V30 3065 O 275.757 1.64655 -1.0577 0
M  V30 3066 C 276.056 -0.853713 -3.47054 0
M  V30 3067 C 275.722 -2.29577 -3.88079 0
M  V30 3068 C 274.384 -2.68999 -3.9899 0
M  V30 3069 C 276.736 -3.23331 -4.08787 0
M  V30 3070 C 274.064 -4.01289 -4.28 0
M  V30 3071 C 276.416 -4.55207 -4.39282 0
M  V30 3072 C 275.08 -4.94457 -4.48407 0
M  V30 3073 H 274.35 -0.210612 -0.710439 0
M  V30 3074 H 276.997 -1.17744 -1.51025 0
M  V30 3075 H 275.302 -0.169204 -3.91434 0
M  V30 3076 H 276.999 -0.55639 -3.97121 0
M  V30 3077 H 273.589 -1.97994 -3.80127 0
M  V30 3078 H 277.773 -2.94074 -3.99793 0
M  V30 3079 H 273.029 -4.31374 -4.33275 0
M  V30 3080 H 277.203 -5.27852 -4.54252 0
M  V30 3081 H 274.83 -5.96994 -4.7064 0
M  V30 3082 N 276.405 1.4127 -0.698611 0
M  V30 3083 C 277.635 2.05205 -0.239644 0
M  V30 3084 C 278.043 1.52684 1.11733 0
M  V30 3085 O 277.386 0.671222 1.70998 0
M  V30 3086 C 277.448 3.59289 -0.123126 0
M  V30 3087 C 277.112 4.34619 -1.41263 0
M  V30 3088 C 278.109 4.63701 -2.35111 0
M  V30 3089 C 275.794 4.73837 -1.66684 0
M  V30 3090 C 277.788 5.30966 -3.52639 0
M  V30 3091 C 275.475 5.40837 -2.84498 0
M  V30 3092 C 276.473 5.69329 -3.77298 0
M  V30 3093 O 276.161 6.34949 -4.93047 0
M  V30 3094 H 275.893 0.66723 -0.108537 0
M  V30 3095 H 278.447 1.81974 -0.952602 0
M  V30 3096 H 276.677 3.81272 0.645628 0
M  V30 3097 H 278.366 4.04797 0.299056 0
M  V30 3098 H 279.132 4.33882 -2.16729 0
M  V30 3099 H 275.011 4.51039 -0.953135 0
M  V30 3100 H 278.555 5.53121 -4.25091 0
M  V30 3101 H 274.452 5.70075 -3.02795 0
M  V30 3102 H 275.22 6.53445 -4.92902 0
M  V30 3103 N 277.883 0.443576 1.51229 0
M  V30 3104 C 279.108 -0.121648 2.07043 0
M  V30 3105 C 279.533 -1.35156 1.30823 0
M  V30 3106 O 278.891 -1.7793 0.347934 0
M  V30 3107 C 278.939 -0.41624 3.5819 0
M  V30 3108 O 278.043 -1.50163 3.8409 0
M  V30 3109 H 277.384 0.000871367 0.663999 0
M  V30 3110 H 279.914 0.626706 1.94765 0
M  V30 3111 H 279.924 -0.664867 4.02546 0
M  V30 3112 H 278.599 0.482653 4.1309 0
M  V30 3113 H 277.176 -1.24248 3.51592 0
M  V30 3114 N 279.361 -1.56624 0.175154 0
M  V30 3115 C 280.607 -1.9729 -0.469506 0
M  V30 3116 C 280.94 -1.06128 -1.62636 0
M  V30 3117 O 280.215 -0.109183 -1.94193 0
M  V30 3118 C 280.498 -3.47375 -0.948804 0
M  V30 3119 C 280.351 -4.49317 0.208491 0
M  V30 3120 C 281.67 -4.00652 -1.82116 0
M  V30 3121 H 278.789 -0.717317 -0.16919 0
M  V30 3122 H 281.431 -1.88184 0.262062 0
M  V30 3123 H 279.581 -3.55267 -1.57219 0
M  V30 3124 H 281.253 -4.53482 0.845682 0
M  V30 3125 H 279.496 -4.25121 0.863395 0
M  V30 3126 H 280.167 -5.51741 -0.169059 0
M  V30 3127 H 282.643 -3.95416 -1.2956 0
M  V30 3128 H 281.519 -5.06075 -2.12554 0
M  V30 3129 H 281.78 -3.44699 -2.7683 0
M  V30 3130 N 280.839 0.0985539 -1.57292 0
M  V30 3131 C 282.085 0.803867 -1.86188 0
M  V30 3132 C 282.418 1.78549 -0.763794 0
M  V30 3133 O 281.693 1.93153 0.22855 0
M  V30 3134 C 281.976 1.53568 -3.25713 0
M  V30 3135 C 281.829 0.572277 -4.46145 0
M  V30 3136 C 283.148 2.48708 -3.63087 0
M  V30 3137 H 280.267 0.290781 -0.677211 0
M  V30 3138 H 282.909 0.0675783 -1.8988 0
M  V30 3139 H 281.059 2.16332 -3.22696 0
M  V30 3140 H 282.731 -0.0480894 -4.61275 0
M  V30 3141 H 280.974 -0.114618 -4.33649 0
M  V30 3142 H 281.645 1.12139 -5.40489 0
M  V30 3143 H 284.121 1.96039 -3.67026 0
M  V30 3144 H 282.997 2.96932 -4.61652 0
M  V30 3145 H 283.258 3.32309 -2.91588 0
M  V30 3146 N 282.317 1.53212 0.369288 0
M  V30 3147 C 283.247 1.82365 1.45826 0
M  V30 3148 C 284.228 0.676907 1.56051 0
M  V30 3149 O 285.413 0.926401 1.70679 0
M  V30 3150 C 282.543 2.01023 2.83208 0
M  V30 3151 C 281.497 3.1678 2.8781 0
M  V30 3152 C 280.823 3.20724 4.27832 0
M  V30 3153 C 282.123 4.55447 2.55667 0
M  V30 3154 H 283.817 2.73559 1.21678 0
M  V30 3155 H 281.363 1.3163 0.583911 0
M  V30 3156 H 283.316 2.20001 3.59413 0
M  V30 3157 H 282.04 1.06536 3.08736 0
M  V30 3158 H 280.699 2.97616 2.14056 0
M  V30 3159 H 280.347 2.23882 4.50429 0
M  V30 3160 H 280.047 3.98496 4.31827 0
M  V30 3161 H 281.571 3.41881 5.05915 0
M  V30 3162 H 282.985 4.74611 3.21586 0
M  V30 3163 H 281.382 5.35432 2.70984 0
M  V30 3164 H 282.452 4.60812 1.5093 0
M  V30 3165 N 283.795 -0.628877 1.44509 0
M  V30 3166 C 284.728 -1.75367 1.46019 0
M  V30 3167 C 285.706 -1.59444 0.318787 0
M  V30 3168 O 286.89 -1.81297 0.516099 0
M  V30 3169 C 284.017 -3.12965 1.29501 0
M  V30 3170 C 283.063 -3.47532 2.47233 0
M  V30 3171 S 283.896 -3.44758 4.09758 0
M  V30 3172 C 285.052 -4.84973 3.95667 0
M  V30 3173 H 285.285 -1.7382 2.41193 0
M  V30 3174 H 282.818 -0.803686 1.31834 0
M  V30 3175 H 284.776 -3.92367 1.20658 0
M  V30 3176 H 283.437 -3.12049 0.358341 0
M  V30 3177 H 282.63 -4.47664 2.31544 0
M  V30 3178 H 282.232 -2.75598 2.52828 0
M  V30 3179 H 284.524 -5.74255 3.59496 0
M  V30 3180 H 285.467 -5.05716 4.95638 0
M  V30 3181 H 285.875 -4.59653 3.27688 0
M  V30 3182 N 285.273 -1.31445 -0.869486 0
M  V30 3183 C 286.223 -1.15731 -1.96444 0
M  V30 3184 C 287.207 -0.0681855 -1.60755 0
M  V30 3185 O 288.399 -0.293154 -1.74555 0
M  V30 3186 C 285.528 -0.867255 -3.32165 0
M  V30 3187 C 284.614 -1.99738 -3.74119 0
M  V30 3188 N 285.005 -3.24447 -3.88031 0
M  V30 3189 C 283.303 -1.89723 -4.03635 0
M  V30 3190 C 284.004 -3.98374 -4.23879 0
M  V30 3191 N 282.98 -3.26547 -4.3459 0
M  V30 3192 H 286.782 -2.10296 -2.05312 0
M  V30 3193 H 284.296 -1.23009 -1.06031 0
M  V30 3194 H 286.293 -0.735668 -4.10358 0
M  V30 3195 H 284.953 0.0701614 -3.24624 0
M  V30 3196 H 285.964 -3.59557 -3.72746 0
M  V30 3197 H 282.641 -1.03449 -4.04481 0
M  V30 3198 H 284.031 -5.05844 -4.42235 0
M  V30 3199 N 286.751 1.08385 -1.14413 0
M  V30 3200 C 287.698 2.15311 -0.831265 0
M  V30 3201 C 288.668 1.64751 0.211292 0
M  V30 3202 O 289.853 1.90627 0.0811674 0
M  V30 3203 C 286.993 3.43658 -0.315143 0
M  V30 3204 C 286.106 4.08064 -1.41802 0
M  V30 3205 C 285.241 5.24207 -0.859126 0
M  V30 3206 C 284.28 5.80554 -1.93967 0
M  V30 3207 N 283.417 6.88042 -1.39793 0
M  V30 3208 H 288.257 2.41415 -1.74708 0
M  V30 3209 H 285.794 1.18474 -0.871909 0
M  V30 3210 H 287.752 4.172 0.00230884 0
M  V30 3211 H 286.382 3.17839 0.56378 0
M  V30 3212 H 285.434 3.3228 -1.85187 0
M  V30 3213 H 286.746 4.45962 -2.23427 0
M  V30 3214 H 285.9 6.04689 -0.49359 0
M  V30 3215 H 284.639 4.87699 -0.011932 0
M  V30 3216 H 283.644 4.98725 -2.31415 0
M  V30 3217 H 284.869 6.19121 -2.79046 0
M  V30 3218 H 282.815 6.53493 -0.572919 0
M  V30 3219 H 282.732 7.24767 -2.15054 0
M  V30 3220 H 284 7.72255 -1.0603 0
M  V30 3221 N 288.23 0.939286 1.26551 0
M  V30 3222 C 289.646 0.641304 1.46149 0
M  V30 3223 C 289.846 -0.805964 1.84679 0
M  V30 3224 O 288.902 -1.58278 1.96734 0
M  V30 3225 C 290.215 1.6011 2.54529 0
M  V30 3226 C 291.763 1.6106 2.68382 0
M  V30 3227 C 292.238 2.55765 3.79932 0
M  V30 3228 N 293.729 2.5404 3.87322 0
M  V30 3229 C 294.464 3.24004 4.73085 0
M  V30 3230 N 293.96 4.03388 5.63249 0
M  V30 3231 N 295.753 3.12965 4.66914 0
M  V30 3232 H 287.904 1.87478 0.998285 0
M  V30 3233 H 290.167 0.805559 0.499779 0
M  V30 3234 H 289.873 2.63412 2.33039 0
M  V30 3235 H 289.747 1.35171 3.52149 0
M  V30 3236 H 292.134 0.584835 2.89247 0
M  V30 3237 H 292.215 1.90053 1.71212 0
M  V30 3238 H 291.859 3.58458 3.5982 0
M  V30 3239 H 291.789 2.24063 4.76554 0
M  V30 3240 H 294.28 1.96396 3.22858 0
M  V30 3241 H 294.593 4.5373 6.25579 0
M  V30 3242 H 292.938 4.07489 5.63008 0
M  V30 3243 H 296.129 2.50432 3.95476 0
M  V30 3244 H 296.302 3.67759 5.33533 0
M  V30 3245 N 289.708 -1.40897 0.706093 0
M  V30 3246 C 290.956 -2.00657 0.241054 0
M  V30 3247 C 291.277 -1.56241 -1.16678 0
M  V30 3248 O 290.547 -0.79765 -1.78926 0
M  V30 3249 H 289.127 -0.742018 0.0861308 0
M  V30 3250 H 291.789 -1.72372 0.909604 0
M  V30 3251 H 290.885 -3.10958 0.266705 0
M  V30 3252 N 291.186 -0.45159 -1.50991 0
M  V30 3253 C 292.134 0.366864 -2.29689 0
M  V30 3254 C 293.128 1.00809 -1.36139 0
M  V30 3255 O 294.334 0.941427 -1.53418 0
M  V30 3256 H 290.709 0.137133 -0.739391 0
M  V30 3257 H 292.68 -0.317538 -2.96706 0
M  V30 3258 C 291.429 1.44751 -3.16137 0
M  V30 3259 H 290.752 0.963473 -3.88017 0
M  V30 3260 H 292.192 1.99315 -3.74232 0
M  V30 3261 C 290.651 2.43869 -2.32442 0
M  V30 3262 O 291.181 3.4872 -1.99392 0
M  V30 3263 N 289.387 2.15105 -1.95392 0
M  V30 3264 H 288.934 1.29866 -2.22469 0
M  V30 3265 H 288.892 2.81661 -1.39693 0
M  V30 3266 N 292.664 1.56529 -0.183458 0
M  V30 3267 C 294.075 1.83739 0.331177 0
M  V30 3268 C 294.426 1.10373 1.62211 0
M  V30 3269 O 293.551 0.36071 2.13373 0
M  V30 3270 C 294.146 3.33306 0.607646 0
M  V30 3271 C 292.705 3.60969 1.06668 0
M  V30 3272 C 291.852 2.77086 0.109029 0
M  V30 3273 H 294.803 1.53379 -0.407484 0
M  V30 3274 H 294.824 3.51444 1.45832 0
M  V30 3275 H 294.336 3.86677 -0.332086 0
M  V30 3276 H 292.437 3.13021 2.0211 0
M  V30 3277 H 292.55 4.69231 0.967447 0
M  V30 3278 H 290.914 2.47319 0.608714 0
M  V30 3279 H 291.697 3.33241 -0.82494 0
M  V30 3280 N 294.142 -0.090211 1.57342 0
M  V30 3281 C 295.092 -1.11557 1.98844 0
M  V30 3282 C 296.076 -1.35503 0.867624 0
M  V30 3283 O 297.268 -1.36113 1.13148 0
M  V30 3284 C 294.397 -2.43446 2.42051 0
M  V30 3285 C 293.483 -2.22853 3.60828 0
M  V30 3286 N 293.874 -1.72141 4.75606 0
M  V30 3287 C 292.172 -2.53401 3.67021 0
M  V30 3288 C 292.873 -1.65932 5.57531 0
M  V30 3289 N 291.849 -2.11323 5.00843 0
M  V30 3290 H 295.651 -0.716499 2.85032 0
M  V30 3291 H 293.165 -0.297567 1.59651 0
M  V30 3292 H 295.162 -3.17644 2.70014 0
M  V30 3293 H 293.822 -2.84087 1.57241 0
M  V30 3294 H 294.833 -1.41268 4.98261 0
M  V30 3295 H 291.51 -2.97532 2.92884 0
M  V30 3296 H 292.9 -1.27733 6.59647 0
M  V30 3297 N 295.62 -1.53406 -0.361157 0
M  V30 3298 C 296.848 -1.73717 -1.12383 0
M  V30 3299 C 297.263 -0.468161 -1.82904 0
M  V30 3300 O 296.62 0.559198 -1.73722 0
M  V30 3301 C 296.671 -2.90558 -2.15078 0
M  V30 3302 O 296.392 -4.12549 -1.47428 0
M  V30 3303 C 297.893 -3.22777 -3.03858 0
M  V30 3304 H 295.113 -0.580896 -0.335858 0
M  V30 3305 H 297.657 -2.00167 -0.418728 0
M  V30 3306 H 295.812 -2.66489 -2.8118 0
M  V30 3307 H 296.226 -4.78009 -2.15887 0
M  V30 3308 H 297.7 -4.07927 -3.71887 0
M  V30 3309 H 298.177 -2.38329 -3.68912 0
M  V30 3310 H 298.783 -3.48787 -2.43367 0
M  V30 3311 N 297.098 0.621204 -1.44841 0
M  V30 3312 C 298.031 1.7459 -1.46947 0
M  V30 3313 C 299.009 1.59273 -0.327238 0
M  V30 3314 O 300.193 1.81021 -0.525706 0
M  V30 3315 C 297.32 3.12274 -1.31159 0
M  V30 3316 C 296.366 3.46216 -2.49072 0
M  V30 3317 S 297.199 3.4258 -4.11581 0
M  V30 3318 C 298.355 4.82867 -3.98233 0
M  V30 3319 H 298.588 1.72538 -2.42111 0
M  V30 3320 H 296.121 0.796683 -1.32259 0
M  V30 3321 H 298.079 3.91722 -1.22737 0
M  V30 3322 H 296.74 3.11855 -0.374885 0
M  V30 3323 H 295.933 4.4643 -2.33915 0
M  V30 3324 H 295.535 2.74253 -2.54286 0
M  V30 3325 H 297.827 5.7234 -3.62537 0
M  V30 3326 H 298.77 5.0308 -4.98313 0
M  V30 3327 H 299.178 4.57908 -3.30121 0
M  V30 3328 N 298.576 1.31904 0.862503 0
M  V30 3329 C 299.853 1.12644 1.59908 0
M  V30 3330 C 300.233 -0.316104 2.0872 0
M  V30 3331 O 299.581 -1.31145 1.87118 0
M  V30 3332 C 299.791 2.1472 2.7513 0
M  V30 3333 C 301.139 2.47637 3.44907 0
M  V30 3334 O 302.163 2.13205 2.85346 0
M  V30 3335 O 301.022 3.06632 4.52371 0
M  V30 3336 H 298.116 0.43416 0.703871 0
M  V30 3337 H 300.662 1.43408 0.907314 0
M  V30 3338 H 299.434 3.1172 2.3653 0
M  V30 3339 H 299.057 1.84905 3.51989 0
M  V30 3340 N 300.054 -1.07777 1.14986 0
M  V30 3341 C 301.001 -2.14867 0.842672 0
M  V30 3342 C 301.971 -1.6486 -0.202552 0
M  V30 3343 O 303.156 -1.90668 -0.0710568 0
M  V30 3344 C 300.296 -3.43486 0.333363 0
M  V30 3345 C 299.409 -4.07306 1.43965 0
M  V30 3346 C 298.544 -5.23744 0.886914 0
M  V30 3347 C 297.583 -5.79517 1.97043 0
M  V30 3348 N 296.72 -6.87291 1.4344 0
M  V30 3349 H 301.56 -2.40485 1.75986 0
M  V30 3350 H 299.097 -1.1801 0.878179 0
M  V30 3351 H 301.055 -4.17195 0.0198163 0
M  V30 3352 H 299.685 -3.18133 -0.546916 0
M  V30 3353 H 298.737 -3.31293 1.86946 0
M  V30 3354 H 300.049 -4.44771 2.25788 0
M  V30 3355 H 299.203 -6.04419 0.525651 0
M  V30 3356 H 297.942 -4.87685 0.0377957 0
M  V30 3357 H 296.947 -4.97491 2.34057 0
M  V30 3358 H 298.172 -6.17632 2.82325 0
M  V30 3359 H 296.118 -6.5318 0.607567 0
M  V30 3360 H 296.035 -7.23617 2.18895 0
M  V30 3361 H 297.303 -7.71682 1.10124 0
M  V30 3362 N 301.532 -0.945985 -1.26051 0
M  V30 3363 C 302.462 -0.477172 -2.28572 0
M  V30 3364 C 303.443 0.472032 -1.63419 0
M  V30 3365 O 304.628 0.372853 -1.90587 0
M  V30 3366 C 301.758 0.253975 -3.4637 0
M  V30 3367 C 300.712 -0.609135 -4.23643 0
M  V30 3368 C 300.038 0.252252 -5.34105 0
M  V30 3369 C 301.338 -1.8829 -4.8718 0
M  V30 3370 H 303.032 -1.33402 -2.68038 0
M  V30 3371 H 300.578 -0.642904 -1.28852 0
M  V30 3372 H 302.531 0.593016 -4.17207 0
M  V30 3373 H 301.255 1.145 -3.05871 0
M  V30 3374 H 299.914 -0.931138 -3.54578 0
M  V30 3375 H 299.562 1.14278 -4.89846 0
M  V30 3376 H 299.262 -0.32188 -5.86718 0
M  V30 3377 H 300.786 0.586454 -6.07777 0
M  V30 3378 H 302.2 -1.61081 -5.50205 0
M  V30 3379 H 300.597 -2.40199 -5.49931 0
M  V30 3380 H 301.667 -2.59134 -4.09851 0
M  V30 3381 N 303.011 1.40521 -0.713556 0
M  V30 3382 C 304.239 2.05237 -0.261775 0
M  V30 3383 C 304.654 1.53755 1.09567 0
M  V30 3384 O 304.011 0.693268 1.6882 0
M  V30 3385 C 304.062 3.60763 -0.230706 0
M  V30 3386 O 303.783 4.10345 -1.53455 0
M  V30 3387 C 305.284 4.42651 0.239874 0
M  V30 3388 H 302.504 0.660533 -0.118057 0
M  V30 3389 H 305.048 1.79967 -0.971192 0
M  V30 3390 H 303.203 3.8501 0.429661 0
M  V30 3391 H 303.617 5.04526 -1.43366 0
M  V30 3392 H 305.091 5.51599 0.210468 0
M  V30 3393 H 305.568 4.20082 1.28171 0
M  V30 3394 H 306.174 4.23507 -0.390142 0
M  V30 3395 N 304.489 0.459591 1.5075 0
M  V30 3396 C 305.437 -0.354678 2.2988 0
M  V30 3397 C 306.431 -1.00086 1.36672 0
M  V30 3398 O 307.637 -0.933277 1.53915 0
M  V30 3399 H 304.012 -0.13321 0.740107 0
M  V30 3400 H 305.983 0.333269 2.96533 0
M  V30 3401 C 304.732 -1.43073 3.169 0
M  V30 3402 H 304.055 -0.942882 3.88523 0
M  V30 3403 H 305.495 -1.97328 3.75284 0
M  V30 3404 C 303.954 -2.42633 2.33732 0
M  V30 3405 O 304.484 -3.47658 2.01238 0
M  V30 3406 N 302.69 -2.14066 1.9653 0
M  V30 3407 H 302.237 -1.28685 2.23155 0
M  V30 3408 H 302.195 -2.80917 1.41185 0
M  V30 3409 N 305.967 -1.56429 0.191757 0
M  V30 3410 C 307.197 -2.01574 -0.452928 0
M  V30 3411 C 307.605 -1.07107 -1.55964 0
M  V30 3412 O 306.948 -0.067534 -1.83576 0
M  V30 3413 C 307.01 -3.43121 -1.07278 0
M  V30 3414 C 306.674 -4.56879 -0.105214 0
M  V30 3415 C 307.671 -5.15379 0.684149 0
M  V30 3416 C 305.356 -5.023 0.00489824 0
M  V30 3417 C 307.35 -6.17746 1.57062 0
M  V30 3418 C 305.037 -6.04511 0.894935 0
M  V30 3419 C 306.035 -6.62108 1.67637 0
M  V30 3420 O 305.723 -7.62335 2.55149 0
M  V30 3421 H 305.455 -0.665554 -0.118379 0
M  V30 3422 H 308.009 -2.03245 0.296737 0
M  V30 3423 H 306.239 -3.38425 -1.87097 0
M  V30 3424 H 307.928 -3.72093 -1.62177 0
M  V30 3425 H 308.694 -4.81157 0.609365 0
M  V30 3426 H 304.573 -4.57168 -0.593156 0
M  V30 3427 H 308.117 -6.6263 2.181 0
M  V30 3428 H 304.014 -6.38157 0.970847 0
M  V30 3429 H 304.782 -7.79741 2.48892 0
M  V30 3430 N 307.445 0.0818655 -1.57387 0
M  V30 3431 C 308.722 0.815343 -1.77796 0
M  V30 3432 C 309.102 1.96289 -0.77679 0
M  V30 3433 O 308.45 2.27691 0.192106 0
M  V30 3434 C 308.66 1.29765 -3.23978 0
M  V30 3435 C 310.008 1.7351 -3.8753 0
M  V30 3436 O 311.032 1.39356 -3.27808 0
M  V30 3437 O 309.891 2.36708 -4.92576 0
M  V30 3438 H 306.985 0.389914 -0.729312 0
M  V30 3439 H 309.531 0.0627213 -1.69584 0
M  V30 3440 H 308.303 0.47608 -3.88393 0
M  V30 3441 H 307.926 2.11189 -3.36875 0
M  V30 3442 N 308.923 1.53595 0.353017 0
M  V30 3443 C 309.871 1.81605 1.45335 0
M  V30 3444 C 310.865 0.685923 1.54892 0
M  V30 3445 O 312.071 0.869095 1.57628 0
M  V30 3446 H 308.446 0.575204 0.484401 0
M  V30 3447 H 310.417 2.73679 1.18921 0
M  V30 3448 C 309.166 2.03406 2.81995 0
M  V30 3449 H 308.489 2.89814 2.75405 0
M  V30 3450 H 309.929 2.26975 3.58132 0
M  V30 3451 C 308.388 0.816794 3.26849 0
M  V30 3452 O 308.918 0.0115856 4.01698 0
M  V30 3453 N 307.124 0.636682 2.8354 0
M  V30 3454 H 306.671 1.2931 2.22793 0
M  V30 3455 H 306.629 -0.176336 3.13905 0
M  V30 3456 N 310.401 -0.613514 1.45168 0
M  V30 3457 C 311.331 -1.7354 1.56225 0
M  V30 3458 C 312.312 -1.64981 0.41414 0
M  V30 3459 O 313.497 -1.83472 0.636526 0
M  V30 3460 C 310.627 -3.12128 1.52295 0
M  V30 3461 C 309.581 -3.35491 2.65762 0
M  V30 3462 C 308.907 -4.74291 2.46885 0
M  V30 3463 C 310.207 -3.26325 4.0781 0
M  V30 3464 H 311.901 -1.64543 2.50132 0
M  V30 3465 H 309.447 -0.790185 1.20383 0
M  V30 3466 H 311.4 -3.90404 1.58628 0
M  V30 3467 H 310.124 -3.2195 0.549139 0
M  V30 3468 H 308.783 -2.59603 2.58847 0
M  V30 3469 H 308.431 -4.80839 1.47657 0
M  V30 3470 H 308.131 -4.9088 3.22972 0
M  V30 3471 H 309.655 -5.54775 2.55063 0
M  V30 3472 H 311.069 -3.94483 4.16 0
M  V30 3473 H 309.466 -3.54445 4.8424 0
M  V30 3474 H 310.536 -2.23855 4.30136 0
M  V30 3475 N 311.879 -1.3236 -0.855495 0
M  V30 3476 C 313.125 -1.23054 -1.612 0
M  V30 3477 C 313.458 0.207404 -1.93089 0
M  V30 3478 O 312.733 1.14432 -1.57275 0
M  V30 3479 C 313.016 -2.08937 -2.93287 0
M  V30 3480 C 312.869 -3.61105 -2.68185 0
M  V30 3481 C 314.188 -1.94986 -3.94549 0
M  V30 3482 H 311.307 -0.448364 -0.584926 0
M  V30 3483 H 313.949 -1.62297 -0.987917 0
M  V30 3484 H 312.099 -1.75599 -3.46551 0
M  V30 3485 H 313.771 -4.04652 -2.21483 0
M  V30 3486 H 312.014 -3.83813 -2.02164 0
M  V30 3487 H 312.685 -4.16522 -3.62234 0
M  V30 3488 H 315.161 -2.24189 -3.5054 0
M  V30 3489 H 314.037 -2.57356 -4.84829 0
M  V30 3490 H 314.298 -0.917263 -4.3248 0
M  V30 3491 N 313.357 1.07166 -1.15556 0
M  V30 3492 C 314.587 1.83248 -0.954133 0
M  V30 3493 C 314.995 1.82449 0.500911 0
M  V30 3494 O 314.338 1.23575 1.35923 0
M  V30 3495 C 314.4 3.31393 -1.39351 0
M  V30 3496 C 314.064 3.5591 -2.86666 0
M  V30 3497 C 315.061 3.49695 -3.8472 0
M  V30 3498 C 312.746 3.83515 -3.24379 0
M  V30 3499 C 314.74 3.70737 -5.18491 0
M  V30 3500 C 312.427 4.04209 -4.58321 0
M  V30 3501 C 313.425 3.97815 -5.55186 0
M  V30 3502 O 313.113 4.17954 -6.86709 0
M  V30 3503 H 312.845 0.584941 -0.338851 0
M  V30 3504 H 315.399 1.36169 -1.53777 0
M  V30 3505 H 313.629 3.79292 -0.75329 0
M  V30 3506 H 315.318 3.88945 -1.16089 0
M  V30 3507 H 316.084 3.28368 -3.56931 0
M  V30 3508 H 311.963 3.87605 -2.49567 0
M  V30 3509 H 315.507 3.65663 -5.94085 0
M  V30 3510 H 311.404 4.25023 -4.85825 0
M  V30 3511 H 312.172 4.35291 -6.93155 0
M  V30 3512 N 314.835 0.952656 1.25548 0
M  V30 3513 C 316.112 0.523818 1.88456 0
M  V30 3514 C 316.492 -0.998871 1.85973 0
M  V30 3515 O 315.84 -1.86381 1.3219 0
M  V30 3516 C 316.05 1.0982 3.31271 0
M  V30 3517 C 317.398 1.17385 4.08051 0
M  V30 3518 O 318.422 1.04961 3.40384 0
M  V30 3519 O 317.281 1.36852 5.29088 0
M  V30 3520 H 314.375 0.172485 0.808813 0
M  V30 3521 H 316.921 1.04596 1.33633 0
M  V30 3522 H 315.693 2.1415 3.27499 0
M  V30 3523 H 315.316 0.559191 3.93648 0
M  V30 3524 N 316.313 -1.40141 0.720998 0
M  V30 3525 C 317.562 -2.0002 0.259804 0
M  V30 3526 C 317.875 -1.57839 -1.15526 0
M  V30 3527 O 319.081 -2.10455 -1.71525 0
M  V30 3528 C 317.537 -3.57516 0.413566 0
M  V30 3529 C 317.145 -4.08667 1.83562 0
M  V30 3530 C 318.889 -4.24498 0.0134387 0
M  V30 3531 C 316.796 -5.58686 1.93968 0
M  V30 3532 H 315.726 -0.748195 0.0933806 0
M  V30 3533 H 318.377 -1.60313 0.892866 0
M  V30 3534 H 316.759 -3.9495 -0.288169 0
M  V30 3535 H 317.933 -3.82598 2.56817 0
M  V30 3536 H 316.248 -3.543 2.1877 0
M  V30 3537 H 318.845 -5.34654 0.0703954 0
M  V30 3538 H 319.188 -4.03375 -1.02927 0
M  V30 3539 H 319.721 -3.92188 0.665815 0
M  V30 3540 H 316.46 -5.8467 2.96379 0
M  V30 3541 H 315.98 -5.86602 1.25131 0
M  V30 3542 H 317.659 -6.23875 1.71431 0
M  V30 3543 N 317.792 -0.46758 -1.50504 0
M  V30 3544 C 318.739 0.328413 -2.28452 0
M  V30 3545 C 319.709 0.990313 -1.33349 0
M  V30 3546 O 320.894 1.00343 -1.62284 0
M  V30 3547 C 318.034 1.40648 -3.15138 0
M  V30 3548 C 317.147 0.759709 -4.25267 0
M  V30 3549 C 316.282 1.81537 -4.99217 0
M  V30 3550 C 315.321 1.14866 -6.01226 0
M  V30 3551 N 314.458 2.14702 -6.68467 0
M  V30 3552 H 319.298 -0.342603 -2.96024 0
M  V30 3553 H 316.835 -0.180801 -1.45985 0
M  V30 3554 H 318.793 2.04315 -3.63746 0
M  V30 3555 H 317.423 2.04671 -2.49619 0
M  V30 3556 H 316.475 0.0105671 -3.80399 0
M  V30 3557 H 317.787 0.233243 -4.98254 0
M  V30 3558 H 316.941 2.52793 -5.51526 0
M  V30 3559 H 315.68 2.37564 -4.25928 0
M  V30 3560 H 314.685 0.42171 -5.4818 0
M  V30 3561 H 315.91 0.595334 -6.76485 0
M  V30 3562 H 313.856 2.69752 -5.97972 0
M  V30 3563 H 313.773 1.6703 -7.37317 0
M  V30 3564 H 315.041 2.85348 -7.25394 0
M  V30 3565 N 319.27 1.56325 -0.20005 0
M  V30 3566 C 320.218 2.20666 0.735482 0
M  V30 3567 C 321.212 1.17934 1.21605 0
M  V30 3568 O 322.418 1.36068 1.17837 0
M  V30 3569 H 318.793 0.70725 0.255542 0
M  V30 3570 H 320.764 2.9792 0.169166 0
M  V30 3571 C 319.513 2.88391 1.94232 0
M  V30 3572 H 318.836 3.67185 1.58161 0
M  V30 3573 H 320.276 3.3684 2.57517 0
M  V30 3574 C 318.735 1.89692 2.78421 0
M  V30 3575 O 319.265 1.40032 3.76502 0
M  V30 3576 N 317.471 1.57813 2.44015 0
M  V30 3577 H 317.018 1.9839 1.64314 0
M  V30 3578 H 316.976 0.920325 3.00628 0
M  V30 3579 N 320.748 -0.0735177 1.57428 0
M  V30 3580 C 321.978 -0.78483 1.91112 0
M  V30 3581 C 322.386 -1.71729 0.7941 0
M  V30 3582 O 321.729 -1.82105 -0.241542 0
M  V30 3583 C 321.791 -1.63346 3.20247 0
M  V30 3584 C 321.455 -0.870557 4.48632 0
M  V30 3585 C 322.452 -0.19058 5.19551 0
M  V30 3586 C 320.137 -0.838242 4.95256 0
M  V30 3587 C 322.131 0.511503 6.35344 0
M  V30 3588 C 319.818 -0.132386 6.10957 0
M  V30 3589 C 320.816 0.541288 6.80852 0
M  V30 3590 O 320.504 1.23578 7.94345 0
M  V30 3591 H 320.236 -0.228408 0.636244 0
M  V30 3592 H 322.79 -0.0486039 2.05342 0
M  V30 3593 H 321.02 -2.41245 3.02222 0
M  V30 3594 H 322.709 -2.22329 3.39595 0
M  V30 3595 H 323.475 -0.206864 4.84559 0
M  V30 3596 H 319.354 -1.35206 4.40727 0
M  V30 3597 H 322.898 1.03789 6.89836 0
M  V30 3598 H 318.795 -0.114023 6.45399 0
M  V30 3599 H 319.563 1.14487 8.10454 0
M  V30 3600 N 322.226 -1.5378 -0.344866 0
M  V30 3601 C 323.156 -1.84662 -1.42906 0
M  V30 3602 C 324.137 -0.701648 -1.54955 0
M  V30 3603 O 325.322 -0.953438 -1.69184 0
M  V30 3604 C 322.452 -2.05503 -2.79974 0
M  V30 3605 C 321.406 -3.21318 -2.82734 0
M  V30 3606 C 320.732 -3.2749 -4.22675 0
M  V30 3607 C 322.032 -4.59456 -2.48389 0
M  V30 3608 H 323.726 -2.75461 -1.17311 0
M  V30 3609 H 321.272 -1.32542 -0.562896 0
M  V30 3610 H 323.225 -2.25691 -3.55867 0
M  V30 3611 H 321.949 -1.11434 -3.07002 0
M  V30 3612 H 320.608 -3.00984 -2.09294 0
M  V30 3613 H 320.256 -2.31019 -4.4681 0
M  V30 3614 H 319.956 -4.05316 -4.25433 0
M  V30 3615 H 321.48 -3.49887 -5.00412 0
M  V30 3616 H 322.894 -4.79667 -3.13995 0
M  V30 3617 H 321.291 -5.39675 -2.62432 0
M  V30 3618 H 322.361 -4.63155 -1.4358 0
M  V30 3619 N 323.704 0.605807 -1.45491 0
M  V30 3620 C 324.614 1.74466 -1.56839 0
M  V30 3621 C 325.63 1.68006 -0.452772 0
M  V30 3622 O 326.806 1.8833 -0.713708 0
M  V30 3623 C 323.871 3.10931 -1.53371 0
M  V30 3624 C 322.932 3.28832 -2.75986 0
M  V30 3625 C 322.165 4.58787 -2.72673 0
M  V30 3626 O 322.388 5.4122 -1.80102 0
M  V30 3627 O 321.322 4.79438 -3.63899 0
M  V30 3628 H 325.148 1.67843 -2.53106 0
M  V30 3629 H 322.733 0.770108 -1.28022 0
M  V30 3630 H 324.615 3.92233 -1.54051 0
M  V30 3631 H 323.29 3.18042 -0.602572 0
M  V30 3632 H 322.197 2.47112 -2.80867 0
M  V30 3633 H 323.53 3.26599 -3.68231 0
M  V30 3634 N 325.182 1.32811 0.848464 0
M  V30 3635 C 326.114 1.18095 1.96433 0
M  V30 3636 C 327.127 0.114354 1.62398 0
M  V30 3637 O 328.316 0.363892 1.74751 0
M  V30 3638 C 325.416 0.786798 3.2964 0
M  V30 3639 C 324.589 1.943 3.91875 0
M  V30 3640 C 323.648 1.53138 5.03423 0
M  V30 3641 O 322.674 2.24432 5.23086 0
M  V30 3642 N 323.876 0.430915 5.78898 0
M  V30 3643 H 326.641 2.14218 2.09597 0
M  V30 3644 H 324.202 1.2543 1.02367 0
M  V30 3645 H 326.194 0.493715 4.01677 0
M  V30 3646 H 324.764 -0.0834541 3.12489 0
M  V30 3647 H 323.984 2.40224 3.12547 0
M  V30 3648 H 325.272 2.71689 4.30189 0
M  V30 3649 H 324.67 -0.162333 5.65467 0
M  V30 3650 H 323.227 0.197466 6.51501 0
M  V30 3651 N 326.66 -1.06551 1.16123 0
M  V30 3652 C 328.076 -1.3142 0.905585 0
M  V30 3653 C 328.276 -1.96571 -0.442964 0
M  V30 3654 O 327.332 -2.23068 -1.18308 0
M  V30 3655 C 328.645 -2.19741 2.05267 0
M  V30 3656 C 330.193 -2.33165 2.08813 0
M  V30 3657 C 330.668 -3.24838 3.22868 0
M  V30 3658 N 332.159 -3.32421 3.22568 0
M  V30 3659 C 332.894 -4.0344 4.0746 0
M  V30 3660 N 332.39 -4.77003 5.02434 0
M  V30 3661 N 334.183 -3.99464 3.95456 0
M  V30 3662 H 326.334 -0.626548 2.02949 0
M  V30 3663 H 328.597 -0.338777 0.8854 0
M  V30 3664 H 328.303 -1.79142 3.02657 0
M  V30 3665 H 328.177 -3.20313 1.99198 0
M  V30 3666 H 330.564 -2.73013 1.12018 0
M  V30 3667 H 330.645 -1.3227 2.18948 0
M  V30 3668 H 330.289 -2.85708 4.19921 0
M  V30 3669 H 330.219 -4.25707 3.0997 0
M  V30 3670 H 332.71 -2.79994 2.53795 0
M  V30 3671 H 333.023 -5.28712 5.63634 0
M  V30 3672 H 331.368 -4.75992 5.06415 0
M  V30 3673 H 334.559 -3.4111 3.20564 0
M  V30 3674 H 334.732 -4.54544 4.61837 0
M  V30 3675 N 328.138 -0.959301 -1.25041 0
M  V30 3676 C 329.068 -0.501388 -2.28053 0
M  V30 3677 C 330.049 0.454673 -1.63911 0
M  V30 3678 O 331.234 0.352618 -1.90972 0
M  V30 3679 C 328.364 0.217224 -3.4662 0
M  V30 3680 C 327.318 -0.654034 -4.22973 0
M  V30 3681 C 326.644 0.195589 -5.34342 0
M  V30 3682 C 327.944 -1.93447 -4.85155 0
M  V30 3683 H 329.638 -1.36238 -2.66608 0
M  V30 3684 H 327.184 -0.656534 -1.28163 0
M  V30 3685 H 329.137 0.548732 -4.17812 0
M  V30 3686 H 327.861 1.1125 -3.07068 0
M  V30 3687 H 326.52 -0.968693 -3.5357 0
M  V30 3688 H 326.168 1.09076 -4.91031 0
M  V30 3689 H 325.868 -0.384091 -5.86343 0
M  V30 3690 H 327.392 0.521958 -6.08365 0
M  V30 3691 H 328.806 -1.66908 -5.48466 0
M  V30 3692 H 327.203 -2.46018 -5.47353 0
M  V30 3693 H 328.273 -2.63466 -4.07079 0
M  V30 3694 N 329.616 1.39756 -0.72842 0
M  V30 3695 C 330.564 2.32485 -0.0731849 0
M  V30 3696 C 331.558 1.52717 0.733063 0
M  V30 3697 O 332.764 1.68428 0.634988 0
M  V30 3698 H 329.139 0.751984 -0.00486469 0
M  V30 3699 H 331.11 2.85382 -0.871761 0
M  V30 3700 C 329.859 3.37773 0.824908 0
M  V30 3701 H 329.182 3.99227 0.213915 0
M  V30 3702 H 330.622 4.05121 1.25111 0
M  V30 3703 C 329.081 2.74287 1.95622 0
M  V30 3704 O 329.611 2.61618 3.04826 0
M  V30 3705 N 327.817 2.32475 1.74367 0
M  V30 3706 H 327.364 2.4298 0.855494 0
M  V30 3707 H 327.322 1.90337 2.50238 0
M  V30 3708 N 331.094 0.475555 1.50254 0
M  V30 3709 C 332.341 -0.0778919 2.0235 0
M  V30 3710 C 332.669 -1.39319 1.35722 0
M  V30 3711 O 331.924 -1.89888 0.473395 0
M  V30 3712 C 332.223 -0.305114 3.56095 0
M  V30 3713 C 331.889 0.92903 4.41225 0
M  V30 3714 C 330.551 1.26739 4.6421 0
M  V30 3715 C 332.903 1.75054 4.90923 0
M  V30 3716 C 330.231 2.42724 5.34137 0
M  V30 3717 C 332.583 2.9017 5.62125 0
M  V30 3718 C 331.247 3.24416 5.83362 0
M  V30 3719 H 330.517 -0.0285027 0.740452 0
M  V30 3720 H 333.164 0.630543 1.80821 0
M  V30 3721 H 331.469 -1.09584 3.76163 0
M  V30 3722 H 333.166 -0.747377 3.93974 0
M  V30 3723 H 329.756 0.655428 4.23559 0
M  V30 3724 H 333.94 1.50231 4.73016 0
M  V30 3725 H 329.196 2.69525 5.48786 0
M  V30 3726 H 333.37 3.54169 5.99614 0
M  V30 3727 H 330.997 4.14396 6.37323 0
M  V30 3728 N 332.573 -1.56217 0.208337 0
M  V30 3729 C 333.503 -2.22694 -0.702116 0
M  V30 3730 C 334.484 -1.19432 -1.2112 0
M  V30 3731 O 335.669 -1.47978 -1.25762 0
M  V30 3732 C 332.799 -2.8966 -1.9161 0
M  V30 3733 C 331.753 -3.9928 -1.5414 0
M  V30 3734 C 331.079 -4.53476 -2.83308 0
M  V30 3735 C 332.379 -5.17012 -0.741339 0
M  V30 3736 H 334.073 -2.99034 -0.147898 0
M  V30 3737 H 331.619 -1.43831 -0.0696951 0
M  V30 3738 H 333.572 -3.34852 -2.55836 0
M  V30 3739 H 332.296 -2.10746 -2.49507 0
M  V30 3740 H 330.955 -3.54799 -0.922668 0
M  V30 3741 H 330.603 -3.71308 -3.39322 0
M  V30 3742 H 330.303 -5.27451 -2.58976 0
M  V30 3743 H 331.827 -5.01378 -3.485 0
M  V30 3744 H 333.241 -5.58667 -1.28699 0
M  V30 3745 H 331.638 -5.97137 -0.595627 0
M  V30 3746 H 332.708 -4.8423 0.254851 0
M  V30 3747 N 334.051 0.0651679 -1.57465 0
M  V30 3748 C 335.297 0.764193 -1.87851 0
M  V30 3749 C 335.63 1.76889 -0.801495 0
M  V30 3750 O 334.905 1.93594 0.187528 0
M  V30 3751 C 335.188 1.46625 -3.28897 0
M  V30 3752 C 335.041 0.477515 -4.47258 0
M  V30 3753 C 336.36 2.4095 -3.68281 0
M  V30 3754 H 333.479 0.276351 -0.683227 0
M  V30 3755 H 336.121 0.0272868 -1.8998 0
M  V30 3756 H 334.271 2.09438 -3.27212 0
M  V30 3757 H 335.943 -0.145922 -4.61069 0
M  V30 3758 H 334.186 -0.206576 -4.33308 0
M  V30 3759 H 334.857 1.0065 -5.42746 0
M  V30 3760 H 337.333 1.88209 -3.71102 0
M  V30 3761 H 336.209 2.87072 -4.67847 0
M  V30 3762 H 336.47 3.26049 -2.98571 0
M  V30 3763 N 335.529 1.53961 0.336706 0
M  V30 3764 C 336.459 1.85417 1.41925 0
M  V30 3765 C 337.44 0.709856 1.5458 0
M  V30 3766 O 338.625 0.962396 1.68676 0
M  V30 3767 C 335.755 2.06985 2.78881 0
M  V30 3768 C 334.709 3.22813 2.81026 0
M  V30 3769 C 334.035 3.29727 4.20932 0
M  V30 3770 C 335.335 4.60767 2.45949 0
M  V30 3771 H 337.029 2.76079 1.15848 0
M  V30 3772 H 334.575 1.32839 0.555859 0
M  V30 3773 H 336.528 2.27575 3.54665 0
M  V30 3774 H 335.252 1.13061 3.06406 0
M  V30 3775 H 333.911 3.0209 2.07695 0
M  V30 3776 H 333.559 2.33385 4.45579 0
M  V30 3777 H 333.259 4.07566 4.23277 0
M  V30 3778 H 334.783 3.52536 4.98549 0
M  V30 3779 H 336.197 4.81325 3.11446 0
M  V30 3780 H 334.594 5.4106 2.59566 0
M  V30 3781 H 335.664 4.6391 1.41122 0
M  V30 3782 N 337.007 -0.598083 1.45811 0
M  V30 3783 C 337.955 -1.72932 1.55555 0
M  V30 3784 C 338.949 -1.63984 0.424921 0
M  V30 3785 O 340.155 -1.69663 0.601205 0
M  V30 3786 H 336.53 -0.571489 0.488779 0
M  V30 3787 H 338.501 -1.61842 2.50699 0
M  V30 3788 C 337.25 -3.11318 1.54843 0
M  V30 3789 H 336.573 -3.18867 2.41172 0
M  V30 3790 H 338.013 -3.90274 1.65717 0
M  V30 3791 C 336.472 -3.3578 0.274427 0
M  V30 3792 O 337.002 -3.9654 -0.641778 0
M  V30 3793 N 335.208 -2.90119 0.167139 0
M  V30 3794 H 334.755 -2.40855 0.913596 0
M  V30 3795 H 334.713 -3.0686 -0.684435 0
M  V30 3796 N 338.485 -1.33259 -0.841409 0
M  V30 3797 C 339.733 -1.24326 -1.59334 0
M  V30 3798 C 340.054 0.191564 -1.94057 0
M  V30 3799 O 339.324 1.11967 -1.60749 0
M  V30 3800 H 337.904 -0.457174 -0.590763 0
M  V30 3801 H 340.566 -1.66947 -1.00571 0
M  V30 3802 H 339.662 -1.8352 -2.52442 0
M  V30 3803 N 339.963 1.05934 -1.16686 0
M  V30 3804 C 341.212 1.78188 -0.945085 0
M  V30 3805 C 341.525 1.88338 0.528021 0
M  V30 3806 O 342.731 2.57258 0.867799 0
M  V30 3807 C 341.187 3.20277 -1.64167 0
M  V30 3808 C 340.795 3.18281 -3.15279 0
M  V30 3809 C 342.539 3.97039 -1.502 0
M  V30 3810 C 340.446 4.55112 -3.7766 0
M  V30 3811 H 339.376 0.667866 -0.349959 0
M  V30 3812 H 342.027 1.18794 -1.39858 0
M  V30 3813 H 340.409 3.79952 -1.11589 0
M  V30 3814 H 341.583 2.68167 -3.74731 0
M  V30 3815 H 339.898 2.55018 -3.29173 0
M  V30 3816 H 342.495 4.98194 -1.94183 0
M  V30 3817 H 342.838 4.13845 -0.451461 0
M  V30 3818 H 343.371 3.43894 -1.99954 0
M  V30 3819 H 340.11 4.43512 -4.82677 0
M  V30 3820 H 339.63 5.05406 -3.22994 0
M  V30 3821 H 341.309 5.24064 -3.79428 0
M  V30 3822 N 341.441 0.965919 1.2453 0
M  V30 3823 C 342.852 0.665929 1.7442 0
M  V30 3824 C 343.203 -0.818407 1.78316 0
M  V30 3825 O 342.328 -1.64037 1.41141 0
M  V30 3826 C 342.923 1.20211 3.16757 0
M  V30 3827 C 341.482 0.952059 3.6416 0
M  V30 3828 C 340.629 1.33848 2.42858 0
M  V30 3829 H 343.58 1.14144 1.10258 0
M  V30 3830 H 343.601 0.567544 3.76244 0
M  V30 3831 H 343.113 2.28244 3.13889 0
M  V30 3832 H 341.214 -0.112821 3.72429 0
M  V30 3833 H 341.327 1.59645 4.51719 0
M  V30 3834 H 339.691 0.756864 2.43195 0
M  V30 3835 H 340.474 2.42827 2.42673 0
M  V30 3836 N 342.919 -1.39368 0.735821 0
M  V30 3837 C 344.335 -1.54204 0.411492 0
M  V30 3838 C 344.535 -1.70268 -1.07755 0
M  V30 3839 O 343.591 -1.70364 -1.86366 0
M  V30 3840 C 344.904 -2.75925 1.19523 0
M  V30 3841 C 346.452 -2.89761 1.18354 0
M  V30 3842 C 346.927 -4.14421 1.94986 0
M  V30 3843 N 348.418 -4.21462 1.92156 0
M  V30 3844 C 349.153 -5.16871 2.48258 0
M  V30 3845 N 348.649 -6.18063 3.13001 0
M  V30 3846 N 350.442 -5.09093 2.38287 0
M  V30 3847 H 342.593 -1.27189 1.70108 0
M  V30 3848 H 344.856 -0.616517 0.720147 0
M  V30 3849 H 344.562 -2.70401 2.24892 0
M  V30 3850 H 344.436 -3.68614 0.800222 0
M  V30 3851 H 346.823 -2.94777 0.137975 0
M  V30 3852 H 346.904 -1.98133 1.61793 0
M  V30 3853 H 346.548 -4.10166 2.99543 0
M  V30 3854 H 346.478 -5.05095 1.48953 0
M  V30 3855 H 348.969 -3.48979 1.44991 0
M  V30 3856 H 349.282 -6.87326 3.53275 0
M  V30 3857 H 347.627 -6.18448 3.17091 0
M  V30 3858 H 350.818 -4.28973 1.8735 0
M  V30 3859 H 350.991 -5.83272 2.82308 0
M  V30 3860 N 344.397 -0.483516 -1.5 0
M  V30 3861 C 345.627 0.0643896 -2.065 0
M  V30 3862 C 346.035 1.32949 -1.34615 0
M  V30 3863 O 345.378 1.79003 -0.412756 0
M  V30 3864 C 345.44 0.405983 -3.572 0
M  V30 3865 C 345.104 -0.758875 -4.50655 0
M  V30 3866 C 346.101 -1.64445 -4.93208 0
M  V30 3867 C 343.786 -0.952725 -4.93182 0
M  V30 3868 C 345.78 -2.70818 -5.77006 0
M  V30 3869 C 343.467 -2.01966 -5.76761 0
M  V30 3870 C 344.465 -2.89574 -6.18576 0
M  V30 3871 O 344.153 -3.94429 -7.00486 0
M  V30 3872 H 343.885 -0.00934786 -0.675935 0
M  V30 3873 H 346.439 -0.674959 -1.93993 0
M  V30 3874 H 344.669 1.19869 -3.67652 0
M  V30 3875 H 346.358 0.890433 -3.96013 0
M  V30 3876 H 347.124 -1.50643 -4.61012 0
M  V30 3877 H 343.003 -0.280247 -4.60147 0
M  V30 3878 H 346.547 -3.3923 -6.09565 0
M  V30 3879 H 342.444 -2.1577 -6.0837 0
M  V30 3880 H 343.212 -3.91568 -7.1876 0
M  V30 3881 N 345.875 1.56104 -0.216619 0
M  V30 3882 C 347.291 1.58995 0.13886 0
M  V30 3883 C 347.491 1.23333 1.59346 0
M  V30 3884 O 346.547 0.966234 2.33281 0
M  V30 3885 C 347.86 3.00143 -0.182968 0
M  V30 3886 C 349.408 3.12751 -0.124807 0
M  V30 3887 C 349.883 4.56068 -0.420241 0
M  V30 3888 N 351.374 4.61723 -0.369634 0
M  V30 3889 C 352.109 5.70542 -0.571789 0
M  V30 3890 N 351.605 6.87744 -0.835453 0
M  V30 3891 N 353.398 5.59831 -0.504563 0
M  V30 3892 H 345.549 1.77562 -1.16557 0
M  V30 3893 H 347.812 0.825091 -0.466828 0
M  V30 3894 H 347.518 3.30871 -1.19237 0
M  V30 3895 H 347.392 3.73813 0.504367 0
M  V30 3896 H 349.779 2.81822 0.875223 0
M  V30 3897 H 349.86 2.41421 -0.845544 0
M  V30 3898 H 349.504 4.87713 -1.41769 0
M  V30 3899 H 349.434 5.25617 0.321631 0
M  V30 3900 H 351.925 3.77502 -0.173338 0
M  V30 3901 H 352.238 7.66587 -0.977938 0
M  V30 3902 H 350.583 6.895 -0.872592 0
M  V30 3903 H 353.774 4.67145 -0.298842 0
M  V30 3904 H 353.947 6.44573 -0.665519 0
M  V30 3905 N 347.353 -0.0568162 1.57498 0
M  V30 3906 C 348.602 -0.752001 1.87157 0
M  V30 3907 C 348.915 -1.77978 0.811375 0
M  V30 3908 O 350.121 -2.52559 0.996293 0
M  V30 3909 C 348.577 -1.38844 3.3204 0
M  V30 3910 C 348.185 -0.398456 4.46225 0
M  V30 3911 C 349.929 -2.06512 3.70882 0
M  V30 3912 C 347.836 -1.04166 5.82154 0
M  V30 3913 H 346.766 -0.28461 0.698222 0
M  V30 3914 H 349.417 -0.00561272 1.83499 0
M  V30 3915 H 347.799 -2.1836 3.30356 0
M  V30 3916 H 348.973 0.367977 4.59328 0
M  V30 3917 H 347.288 0.174592 4.16034 0
M  V30 3918 H 349.885 -2.55437 4.6974 0
M  V30 3919 H 350.228 -2.87117 3.01445 0
M  V30 3920 H 350.761 -1.33808 3.7462 0
M  V30 3921 H 347.5 -0.275614 6.5492 0
M  V30 3922 H 347.02 -1.7786 5.72823 0
M  V30 3923 H 348.699 -1.55715 6.27982 0
M  V30 3924 N 348.832 -1.54138 -0.328536 0
M  V30 3925 C 349.762 -1.86167 -1.40939 0
M  V30 3926 C 350.743 -0.718044 -1.54202 0
M  V30 3927 O 351.928 -0.971328 -1.68163 0
M  V30 3928 C 349.058 -2.08461 -2.77779 0
M  V30 3929 C 348.012 -3.24299 -2.7931 0
M  V30 3930 C 347.338 -3.31955 -4.19178 0
M  V30 3931 C 348.638 -4.62065 -2.43502 0
M  V30 3932 H 350.332 -2.76689 -1.14383 0
M  V30 3933 H 347.878 -1.33132 -0.548806 0
M  V30 3934 H 349.831 -2.29453 -3.53454 0
M  V30 3935 H 348.555 -1.14684 -3.05802 0
M  V30 3936 H 347.214 -3.03187 -2.0609 0
M  V30 3937 H 346.862 -2.35745 -4.44335 0
M  V30 3938 H 346.562 -4.09805 -4.2111 0
M  V30 3939 H 348.086 -3.55175 -4.96672 0
M  V30 3940 H 349.5 -4.8297 -3.08889 0
M  V30 3941 H 347.897 -5.42429 -2.56693 0
M  V30 3942 H 348.967 -4.64652 -1.38659 0
M  V30 3943 N 350.31 0.590341 -1.46126 0
M  V30 3944 C 351.557 1.34882 -1.5104 0
M  V30 3945 C 351.885 1.93849 -0.159021 0
M  V30 3946 O 351.14 1.76544 0.844436 0
M  V30 3947 C 351.439 2.5032 -2.55097 0
M  V30 3948 C 351.105 2.09394 -3.99331 0
M  V30 3949 C 349.767 1.97947 -4.38601 0
M  V30 3950 C 352.119 1.77712 -4.89967 0
M  V30 3951 C 349.447 1.53065 -5.66381 0
M  V30 3952 C 351.799 1.34312 -6.18177 0
M  V30 3953 C 350.463 1.21436 -6.56361 0
M  V30 3954 H 349.733 0.493568 -0.552695 0
M  V30 3955 H 352.38 0.665539 -1.79563 0
M  V30 3956 H 350.685 3.24062 -2.20207 0
M  V30 3957 H 352.382 3.08541 -2.56132 0
M  V30 3958 H 348.972 2.19235 -3.68285 0
M  V30 3959 H 353.156 1.85445 -4.60352 0
M  V30 3960 H 348.412 1.41733 -5.94745 0
M  V30 3961 H 352.586 1.08849 -6.87841 0
M  V30 3962 H 350.213 0.864345 -7.5527 0
M  V30 3963 N 351.788 1.33704 0.83433 0
M  V30 3964 C 353.065 1.16011 1.57483 0
M  V30 3965 C 353.445 -0.27176 2.09343 0
M  V30 3966 O 352.793 -1.27146 1.89858 0
M  V30 3967 C 353.003 2.20507 2.70514 0
M  V30 3968 C 354.351 2.54898 3.39577 0
M  V30 3969 O 355.375 2.19209 2.80759 0
M  V30 3970 O 354.234 3.16158 4.45765 0
M  V30 3971 H 351.328 0.448992 0.694503 0
M  V30 3972 H 353.874 1.453 0.876691 0
M  V30 3973 H 352.646 3.16667 2.29865 0
M  V30 3974 H 352.269 1.92329 3.47987 0
M  V30 3975 N 353.266 -1.05314 1.17247 0
M  V30 3976 C 354.515 -1.77685 0.954521 0
M  V30 3977 C 354.828 -1.88616 -0.518025 0
M  V30 3978 O 356.034 -2.57714 -0.854144 0
M  V30 3979 C 354.49 -3.19402 1.65863 0
M  V30 3980 C 354.098 -3.16605 3.16963 0
M  V30 3981 C 355.842 -3.96237 1.52303 0
M  V30 3982 C 353.749 -4.53103 3.80068 0
M  V30 3983 H 352.679 -0.666 0.353496 0
M  V30 3984 H 355.33 -1.1805 1.40486 0
M  V30 3985 H 353.712 -3.79355 1.13602 0
M  V30 3986 H 354.886 -2.66176 3.76148 0
M  V30 3987 H 353.201 -2.53268 3.30521 0
M  V30 3988 H 355.798 -4.97157 1.96822 0
M  V30 3989 H 356.141 -4.136 0.473401 0
M  V30 3990 H 356.674 -3.42829 2.01775 0
M  V30 3991 H 353.413 -4.40946 4.85023 0
M  V30 3992 H 352.933 -5.03686 3.2567 0
M  V30 3993 H 354.612 -5.22045 3.82202 0
M  V30 3994 N 354.744 -0.972509 -1.24016 0
M  V30 3995 C 355.992 -0.635776 -1.91839 0
M  V30 3996 C 356.313 0.832312 -1.76345 0
M  V30 3997 O 355.583 1.5946 -1.13795 0
M  V30 3998 H 354.163 -0.232157 -0.710009 0
M  V30 3999 H 356.825 -1.23462 -1.50809 0
M  V30 4000 H 355.921 -0.880545 -2.99421 0
M  V30 4001 N 356.222 1.38976 -0.743202 0
M  V30 4002 C 357.152 2.33171 -0.123873 0
M  V30 4003 C 358.133 1.54336 0.71516 0
M  V30 4004 O 359.318 1.82696 0.658467 0
M  V30 4005 C 356.448 3.38474 0.777978 0
M  V30 4006 C 355.402 4.27979 0.0424758 0
M  V30 4007 C 354.728 5.2405 1.06189 0
M  V30 4008 C 356.028 5.10155 -1.1198 0
M  V30 4009 H 357.722 2.85213 -0.910709 0
M  V30 4010 H 355.268 1.37133 -0.439388 0
M  V30 4011 H 357.221 4.03328 1.22084 0
M  V30 4012 H 355.945 2.84891 1.59702 0
M  V30 4013 H 354.604 3.64616 -0.380853 0
M  V30 4014 H 354.252 4.66758 1.87472 0
M  V30 4015 H 353.952 5.84785 0.574485 0
M  V30 4016 H 355.476 5.9178 1.50428 0
M  V30 4017 H 356.89 5.68307 -0.75499 0
M  V30 4018 H 355.287 5.80073 -1.53738 0
M  V30 4019 H 356.357 4.44504 -1.93764 0
M  V30 4020 N 357.7 0.491464 1.49741 0
M  V30 4021 C 358.948 -0.0563141 2.02022 0
M  V30 4022 C 359.269 -1.38363 1.37407 0
M  V30 4023 O 358.539 -1.88702 0.526166 0
M  V30 4024 H 357.119 -0.0238014 0.746621 0
M  V30 4025 H 359.781 0.646533 1.83864 0
M  V30 4026 H 358.877 -0.192967 3.11503 0
M  V30 4027 N 359.178 -1.55987 0.224894 0
M  V30 4028 C 360.425 -1.9839 -0.4059 0
M  V30 4029 C 360.753 -1.11261 -1.59535 0
M  V30 4030 O 360.008 -0.158314 -1.95059 0
M  V30 4031 C 360.307 -3.46394 -0.880106 0
M  V30 4032 C 359.973 -4.5046 0.19918 0
M  V30 4033 C 358.635 -4.7864 0.495661 0
M  V30 4034 C 360.987 -5.12855 0.928939 0
M  V30 4035 C 358.315 -5.66497 1.52636 0
M  V30 4036 C 360.667 -6.01828 1.949 0
M  V30 4037 C 359.331 -6.28351 2.25236 0
M  V30 4038 H 358.601 -0.725961 -0.148529 0
M  V30 4039 H 361.248 -1.88668 0.328113 0
M  V30 4040 H 359.553 -3.53337 -1.69294 0
M  V30 4041 H 361.25 -3.76577 -1.37808 0
M  V30 4042 H 357.84 -4.28579 -0.0420526 0
M  V30 4043 H 362.024 -4.9115 0.713129 0
M  V30 4044 H 357.28 -5.8531 1.76698 0
M  V30 4045 H 361.454 -6.49225 2.51951 0
M  V30 4046 H 359.081 -6.96226 3.05244 0
M  V30 4047 N 360.656 0.0484629 -1.57525 0
M  V30 4048 C 361.619 1.03956 -2.04269 0
M  V30 4049 C 362.619 1.30211 -0.943496 0
M  V30 4050 O 363.809 1.25539 -1.20771 0
M  V30 4051 C 360.941 2.37742 -2.44319 0
M  V30 4052 H 362.134 0.636182 -2.93075 0
M  V30 4053 H 359.687 0.294811 -1.53494 0
M  V30 4054 H 360.422 2.82866 -1.5861 0
M  V30 4055 H 360.207 2.20021 -3.24551 0
M  V30 4056 H 361.697 3.08936 -2.80978 0
M  V30 4057 N 362.134 1.5431 0.320358 0
M  V30 4058 C 363.081 1.83918 1.39438 0
M  V30 4059 C 364.051 0.686525 1.51248 0
M  V30 4060 O 365.236 0.933269 1.66417 0
M  V30 4061 C 362.376 2.075 2.75749 0
M  V30 4062 C 361.489 3.35177 2.72544 0
M  V30 4063 C 360.624 3.48704 4.00723 0
M  V30 4064 C 359.663 4.70244 3.91838 0
M  V30 4065 N 358.8 4.80679 5.11754 0
M  V30 4066 H 363.64 2.75544 1.13489 0
M  V30 4067 H 361.177 1.36459 0.549309 0
M  V30 4068 H 363.135 2.19166 3.54996 0
M  V30 4069 H 361.765 1.19163 3 0
M  V30 4070 H 360.817 3.32233 1.85271 0
M  V30 4071 H 362.129 4.24534 2.61863 0
M  V30 4072 H 361.283 3.59928 4.88402 0
M  V30 4073 H 360.022 2.57445 4.14214 0
M  V30 4074 H 359.027 4.59072 3.02544 0
M  V30 4075 H 360.252 5.6289 3.7991 0
M  V30 4076 H 358.198 3.92337 5.25745 0
M  V30 4077 H 358.115 5.64007 5.0342 0
M  V30 4078 H 359.383 4.96239 6.01138 0
M  V30 4079 N 363.613 -0.582584 1.46437 0
M  V30 4080 C 364.56 -1.69164 1.5701 0
M  V30 4081 C 365.53 -1.60847 0.414403 0
M  V30 4082 O 366.715 -1.80058 0.631171 0
M  V30 4083 C 363.855 -3.075 1.56646 0
M  V30 4084 C 362.968 -3.2644 2.82951 0
M  V30 4085 C 362.103 -4.55026 2.7409 0
M  V30 4086 C 361.142 -4.6731 3.95333 0
M  V30 4087 N 360.279 -5.87221 3.84858 0
M  V30 4088 H 365.119 -1.59464 2.51744 0
M  V30 4089 H 362.656 -0.777186 1.24893 0
M  V30 4090 H 364.614 -3.8757 1.5442 0
M  V30 4091 H 363.244 -3.16096 0.654439 0
M  V30 4092 H 362.296 -2.39974 2.95155 0
M  V30 4093 H 363.608 -3.31385 3.72808 0
M  V30 4094 H 362.762 -5.43324 2.6997 0
M  V30 4095 H 361.501 -4.52519 1.81873 0
M  V30 4096 H 360.506 -3.77429 3.99784 0
M  V30 4097 H 361.731 -4.71595 4.88646 0
M  V30 4098 H 359.677 -5.85712 2.95427 0
M  V30 4099 H 359.594 -5.93435 4.6837 0
M  V30 4100 H 360.862 -6.7795 3.84713 0
M  V30 4101 N 365.091 -1.34144 -0.827227 0
M  V30 4102 C 366.041 -1.21923 -1.92663 0
M  V30 4103 C 367.025 -0.119294 -1.60457 0
M  V30 4104 O 368.217 -0.348539 -1.73534 0
M  V30 4105 C 365.346 -0.972492 -3.29238 0
M  V30 4106 C 364.432 -2.1154 -3.67576 0
M  V30 4107 N 364.823 -3.36627 -3.77512 0
M  V30 4108 C 363.121 -2.02468 -3.97395 0
M  V30 4109 C 363.822 -4.11658 -4.1099 0
M  V30 4110 N 362.798 -3.40207 -4.23981 0
M  V30 4111 H 366.6 -2.16721 -1.98517 0
M  V30 4112 H 364.114 -1.2632 -1.02064 0
M  V30 4113 H 366.111 -0.865847 -4.0781 0
M  V30 4114 H 364.771 -0.0331509 -3.24683 0
M  V30 4115 H 365.782 -3.71234 -3.61118 0
M  V30 4116 H 362.459 -1.16265 -4.00985 0
M  V30 4117 H 363.849 -5.19657 -4.25918 0
M  V30 4118 N 366.569 1.04691 -1.17803 0
M  V30 4119 C 367.846 1.7472 -0.879328 0
M  V30 4120 C 368.226 2.01812 0.619271 0
M  V30 4121 O 367.574 1.65824 1.57209 0
M  V30 4122 C 367.784 3.03686 -1.71976 0
M  V30 4123 C 369.132 3.77542 -1.94286 0
M  V30 4124 O 370.156 3.13569 -1.68976 0
M  V30 4125 O 369.015 4.92506 -2.36855 0
M  V30 4126 H 366.109 0.760011 -0.326056 0
M  V30 4127 H 368.655 1.10813 -1.28525 0
M  V30 4128 H 367.427 2.79754 -2.73594 0
M  V30 4129 H 367.05 3.75332 -1.31194 0
M  V30 4130 N 368.047 0.979072 1.23499 0
M  V30 4131 C 368.979 0.476271 2.24197 0
M  V30 4132 C 369.992 -0.421166 1.57258 0
M  V30 4133 O 371.181 -0.225515 1.7707 0
M  V30 4134 C 368.281 -0.330503 3.37285 0
M  V30 4135 C 367.454 0.559744 4.33804 0
M  V30 4136 C 366.513 -0.192954 5.25846 0
M  V30 4137 O 365.539 0.416978 5.67671 0
M  V30 4138 N 366.741 -1.47932 5.61334 0
M  V30 4139 H 369.506 1.34211 2.67969 0
M  V30 4140 H 367.067 0.852189 1.37657 0
M  V30 4141 H 369.059 -0.842361 3.95836 0
M  V30 4142 H 367.629 -1.09734 2.92707 0
M  V30 4143 H 366.849 1.25245 3.73775 0
M  V30 4144 H 368.137 1.1665 4.95248 0
M  V30 4145 H 367.535 -1.9964 5.29302 0
M  V30 4146 H 366.092 -1.93664 6.22364 0
M  V30 4147 N 369.525 -1.3858 0.750561 0
M  V30 4148 C 370.75 -2.04997 0.314812 0
M  V30 4149 C 371.175 -1.56235 -1.04749 0
M  V30 4150 O 370.533 -0.712981 -1.66692 0
M  V30 4151 C 370.581 -3.58961 0.343415 0
M  V30 4152 O 369.685 -4.07025 -0.663628 0
M  V30 4153 H 369.026 -0.649081 0.139962 0
M  V30 4154 H 371.556 -1.77313 1.02084 0
M  V30 4155 H 371.566 -4.07542 0.193233 0
M  V30 4156 H 370.241 -3.93811 1.33738 0
M  V30 4157 H 368.818 -3.6982 -0.478307 0
M  V30 4158 N 371.003 -0.499398 -1.49478 0
M  V30 4159 C 372.252 0.0475259 -2.01644 0
M  V30 4160 C 372.565 1.38195 -1.38425 0
M  V30 4161 O 373.771 2.01547 -1.8191 0
M  V30 4162 C 372.227 0.135164 -3.59646 0
M  V30 4163 C 371.835 -1.19252 -4.31837 0
M  V30 4164 C 373.579 0.632538 -4.19761 0
M  V30 4165 C 371.486 -1.06713 -5.81693 0
M  V30 4166 H 370.416 0.0215349 -0.753692 0
M  V30 4167 H 373.067 -0.638577 -1.7203 0
M  V30 4168 H 371.449 0.885681 -3.85969 0
M  V30 4169 H 372.623 -1.9562 -4.17216 0
M  V30 4170 H 370.938 -1.62321 -3.83459 0
M  V30 4171 H 373.535 0.743833 -5.29501 0
M  V30 4172 H 373.878 1.63098 -3.83021 0
M  V30 4173 H 374.411 -0.0613987 -3.97753 0
M  V30 4174 H 371.15 -2.03979 -6.22955 0
M  V30 4175 H 370.67 -0.344307 -5.98811 0
M  V30 4176 H 372.349 -0.745208 -6.42694 0
M  V30 4177 N 372.481 1.55866 -0.233164 0
M  V30 4178 C 373.428 2.20796 0.67215 0
M  V30 4179 C 374.398 1.16731 1.18166 0
M  V30 4180 O 375.583 1.45129 1.23864 0
M  V30 4181 C 372.723 2.90072 1.86955 0
M  V30 4182 C 371.836 4.08759 1.39786 0
M  V30 4183 C 370.971 4.65787 2.55374 0
M  V30 4184 C 370.01 5.76752 2.04998 0
M  V30 4185 N 369.147 6.28021 3.13901 0
M  V30 4186 H 373.987 2.9779 0.111749 0
M  V30 4187 H 371.524 1.47036 0.0434007 0
M  V30 4188 H 373.482 3.28428 2.57276 0
M  V30 4189 H 372.112 2.15575 2.40265 0
M  V30 4190 H 371.164 3.7581 0.589173 0
M  V30 4191 H 372.476 4.88906 0.98856 0
M  V30 4192 H 371.63 5.06646 3.33758 0
M  V30 4193 H 370.369 3.84828 2.99598 0
M  V30 4194 H 369.374 5.35383 1.25079 0
M  V30 4195 H 370.599 6.59553 1.61759 0
M  V30 4196 H 368.545 5.49971 3.57586 0
M  V30 4197 H 368.462 7.03323 2.7726 0
M  V30 4198 H 369.73 6.73538 3.92386 0
M  V30 4199 N 373.959 -0.0401083 1.57549 0
M  V30 4200 C 374.889 -1.04384 2.08869 0
M  V30 4201 C 375.87 -1.38407 0.988817 0
M  V30 4202 O 377.055 -1.47483 1.26342 0
M  V30 4203 C 374.185 -2.34808 2.55895 0
M  V30 4204 C 373.139 -2.15057 3.70047 0
M  V30 4205 C 372.465 -3.51145 4.03239 0
M  V30 4206 C 373.765 -1.54576 4.98902 0
M  V30 4207 H 375.459 -0.616666 2.92981 0
M  V30 4208 H 373.005 -0.295184 1.40942 0
M  V30 4209 H 374.958 -3.05346 2.90417 0
M  V30 4210 H 373.682 -2.79565 1.68853 0
M  V30 4211 H 372.341 -1.46954 3.35857 0
M  V30 4212 H 371.989 -3.93529 3.13279 0
M  V30 4213 H 371.689 -3.38758 4.80122 0
M  V30 4214 H 373.213 -4.23062 4.40285 0
M  V30 4215 H 374.627 -2.15017 5.31451 0
M  V30 4216 H 373.024 -1.52796 5.80322 0
M  V30 4217 H 374.094 -0.51039 4.82206 0
M  V30 4218 N 375.437 -1.54477 -0.31217 0
M  V30 4219 C 376.367 -1.87652 -1.38957 0
M  V30 4220 C 377.348 -0.734358 -1.53431 0
M  V30 4221 O 378.533 -0.98911 -1.67123 0
M  V30 4222 C 375.663 -2.11396 -2.75552 0
M  V30 4223 C 374.617 -3.27243 -2.75855 0
M  V30 4224 C 373.943 -3.36382 -4.15633 0
M  V30 4225 C 375.243 -4.64622 -2.38587 0
M  V30 4226 H 376.937 -2.77887 -1.11442 0
M  V30 4227 H 374.483 -1.33707 -0.534655 0
M  V30 4228 H 376.436 -2.33189 -3.51 0
M  V30 4229 H 375.16 -1.17921 -3.04569 0
M  V30 4230 H 373.819 -3.05356 -2.02863 0
M  V30 4231 H 373.467 -2.40445 -4.41809 0
M  V30 4232 H 373.167 -4.14249 -4.1674 0
M  V30 4233 H 374.691 -3.60422 -4.92877 0
M  V30 4234 H 376.105 -4.86219 -3.03749 0
M  V30 4235 H 374.502 -5.45121 -2.50925 0
M  V30 4236 H 375.572 -4.66097 -1.33723 0
M  V30 4237 N 376.915 0.57481 -1.46744 0
M  V30 4238 C 377.847 1.69804 -1.53946 0
M  V30 4239 C 378.86 1.57098 -0.427106 0
M  V30 4240 O 380.049 1.64378 -0.695863 0
M  V30 4241 C 377.149 3.08125 -1.4111 0
M  V30 4242 C 376.322 3.46757 -2.66605 0
M  V30 4243 C 375.381 4.6417 -2.47855 0
M  V30 4244 O 374.407 4.69634 -3.21609 0
M  V30 4245 N 375.609 5.59553 -1.54534 0
M  V30 4246 H 378.374 1.64077 -2.50796 0
M  V30 4247 H 375.935 0.761 -1.429 0
M  V30 4248 H 377.927 3.84478 -1.26328 0
M  V30 4249 H 376.497 3.08175 -0.524109 0
M  V30 4250 H 375.717 2.6003 -2.96274 0
M  V30 4251 H 377.005 3.69337 -3.49954 0
M  V30 4252 H 376.403 5.57881 -0.937304 0
M  V30 4253 H 374.96 6.35304 -1.45711 0
M  V30 4254 N 378.394 1.34581 0.820102 0
M  V30 4255 C 379.342 1.26401 1.95258 0
M  V30 4256 C 380.336 0.161553 1.68628 0
M  V30 4257 O 381.542 0.326703 1.7701 0
M  V30 4258 H 377.917 0.392749 0.64129 0
M  V30 4259 H 379.888 2.22105 1.99279 0
M  V30 4260 C 378.637 1.03919 3.31807 0
M  V30 4261 H 377.96 1.87984 3.52848 0
M  V30 4262 H 379.4 1.02232 4.11491 0
M  V30 4263 C 377.859 -0.257433 3.35915 0
M  V30 4264 O 378.389 -1.25784 3.81499 0
M  V30 4265 N 376.595 -0.291524 2.89134 0
M  V30 4266 H 376.142 0.523161 2.52232 0
M  V30 4267 H 376.1 -1.15883 2.92264 0
M  V30 4268 N 379.872 -1.04064 1.18357 0
M  V30 4269 C 381.121 -1.76662 0.973313 0
M  V30 4270 C 381.434 -1.89154 -0.497991 0
M  V30 4271 O 382.64 -2.58606 -0.826762 0
M  V30 4272 C 381.096 -3.17624 1.69242 0
M  V30 4273 C 380.704 -3.13225 3.20303 0
M  V30 4274 C 382.448 -3.946 1.56497 0
M  V30 4275 C 380.355 -4.49046 3.84853 0
M  V30 4276 H 379.285 -0.662214 0.36054 0
M  V30 4277 H 381.936 -1.16553 1.41731 0
M  V30 4278 H 380.318 -3.78129 1.1762 0
M  V30 4279 H 381.492 -2.62172 3.78949 0
M  V30 4280 H 379.807 -2.49749 3.33189 0
M  V30 4281 H 382.404 -4.95042 2.02084 0
M  V30 4282 H 382.747 -4.13074 0.517243 0
M  V30 4283 H 383.28 -3.4067 2.05399 0
M  V30 4284 H 380.019 -4.35777 4.89672 0
M  V30 4285 H 379.539 -5.00203 3.30994 0
M  V30 4286 H 381.218 -5.17961 3.87718 0
M  V30 4287 N 381.35 -0.985608 -1.22978 0
M  V30 4288 C 382.3 -0.50118 -2.22423 0
M  V30 4289 C 383.284 0.426649 -1.5514 0
M  V30 4290 O 384.476 0.254656 -1.75159 0
M  V30 4291 C 381.605 0.190003 -3.42774 0
M  V30 4292 C 380.691 -0.757703 -4.17276 0
M  V30 4293 N 381.082 -1.90251 -4.68656 0
M  V30 4294 C 379.38 -0.57209 -4.42316 0
M  V30 4295 C 380.081 -2.49676 -5.25392 0
M  V30 4296 N 379.057 -1.78013 -5.13627 0
M  V30 4297 H 382.859 -1.37441 -2.59783 0
M  V30 4298 H 380.373 -0.846941 -1.38567 0
M  V30 4299 H 382.37 0.55439 -4.13197 0
M  V30 4300 H 381.03 1.05946 -3.06929 0
M  V30 4301 H 382.041 -2.28354 -4.64839 0
M  V30 4302 H 378.718 0.251909 -4.16739 0
M  V30 4303 H 380.108 -3.46384 -5.75732 0
M  V30 4304 N 382.828 1.3818 -0.7579 0
M  V30 4305 C 384.074 2.00316 -0.316453 0
M  V30 4306 C 384.407 1.60026 1.10025 0
M  V30 4307 O 383.682 0.839835 1.75434 0
M  V30 4308 C 383.965 3.57349 -0.444245 0
M  V30 4309 C 383.818 4.07591 -1.90236 0
M  V30 4310 C 385.137 4.3981 0.1598 0
M  V30 4311 H 382.256 0.727741 -0.116459 0
M  V30 4312 H 384.898 1.6406 -0.958352 0
M  V30 4313 H 383.048 3.88365 0.102233 0
M  V30 4314 H 384.72 3.87199 -2.50748 0
M  V30 4315 H 382.963 3.60297 -2.41595 0
M  V30 4316 H 383.634 5.16677 -1.94291 0
M  V30 4317 H 386.11 4.14971 -0.306314 0
M  V30 4318 H 384.986 5.48885 0.0401675 0
M  V30 4319 H 385.247 4.24102 1.24859 0
M  V30 4320 N 384.306 0.507319 1.49211 0
M  V30 4321 C 385.536 -0.0315292 2.06576 0
M  V30 4322 C 385.944 -1.30791 1.36713 0
M  V30 4323 O 385.287 -1.78324 0.441181 0
M  V30 4324 C 385.349 -0.349104 3.57801 0
M  V30 4325 C 385.013 0.830475 4.49391 0
M  V30 4326 C 386.01 1.72271 4.90529 0
M  V30 4327 C 383.695 1.03107 4.91604 0
M  V30 4328 C 385.689 2.79964 5.72625 0
M  V30 4329 C 383.376 2.11116 5.73475 0
M  V30 4330 C 384.374 2.99379 6.1389 0
M  V30 4331 O 384.062 4.05523 6.94123 0
M  V30 4332 H 383.794 0.0201002 0.675701 0
M  V30 4333 H 386.348 0.705737 1.92895 0
M  V30 4334 H 384.578 -1.14005 3.69513 0
M  V30 4335 H 386.267 -0.827319 3.97379 0
M  V30 4336 H 387.033 1.57958 4.58557 0
M  V30 4337 H 382.912 0.353417 4.59643 0
M  V30 4338 H 386.456 3.48884 6.04091 0
M  V30 4339 H 382.353 2.25421 6.0486 0
M  V30 4340 H 383.121 4.02953 7.1244 0
M  V30 4341 N 385.784 -1.5574 0.241426 0
M  V30 4342 C 387.061 -1.90704 -0.434881 0
M  V30 4343 C 387.441 -1.16145 -1.76277 0
M  V30 4344 O 386.789 -0.277152 -2.26813 0
M  V30 4345 C 386.999 -3.43657 -0.608343 0
M  V30 4346 C 388.347 -4.14806 -0.906725 0
M  V30 4347 O 389.371 -3.49366 -0.694408 0
M  V30 4348 O 388.23 -5.30548 -1.31075 0
M  V30 4349 H 385.324 -0.793592 -0.23268 0
M  V30 4350 H 387.87 -1.67288 0.285086 0
M  V30 4351 H 386.642 -3.89927 0.327505 0
M  V30 4352 H 386.265 -3.72918 -1.37906 0
M  V30 4353 N 387.262 0.0317525 -1.57568 0
M  V30 4354 C 388.172 1.05021 -2.0978 0
M  V30 4355 C 389.188 1.39809 -1.03583 0
M  V30 4356 O 390.364 1.49182 -1.35302 0
M  V30 4357 C 387.429 2.33301 -2.56459 0
M  V30 4358 C 386.49 2.0512 -3.77127 0
M  V30 4359 C 385.723 3.27283 -4.2157 0
M  V30 4360 O 385.946 4.37861 -3.65559 0
M  V30 4361 O 384.88 3.13141 -5.14029 0
M  V30 4362 H 388.706 0.636505 -2.96955 0
M  V30 4363 H 386.291 0.248559 -1.47318 0
M  V30 4364 H 388.173 3.08722 -2.86825 0
M  V30 4365 H 386.848 2.73973 -1.72397 0
M  V30 4366 H 385.755 1.27276 -3.51784 0
M  V30 4367 H 387.088 1.69305 -4.62165 0
M  V30 4368 N 388.74 1.54641 0.303973 0
M  V30 4369 C 389.97 1.77511 1.05705 0
M  V30 4370 C 390.378 0.533228 1.81531 0
M  V30 4371 O 389.721 -0.506423 1.76582 0
M  V30 4372 C 389.783 2.92779 2.08617 0
M  V30 4373 C 389.447 4.30977 1.52013 0
M  V30 4374 C 390.444 5.11115 0.9517 0
M  V30 4375 C 388.129 4.77571 1.55665 0
M  V30 4376 C 390.123 6.35966 0.427327 0
M  V30 4377 C 387.81 6.02384 1.02841 0
M  V30 4378 C 388.808 6.81417 0.464713 0
M  V30 4379 O 388.496 8.03881 -0.0555283 0
M  V30 4380 H 388.228 0.59579 0.319391 0
M  V30 4381 H 390.782 2.02401 0.349712 0
M  V30 4382 H 389.012 2.63506 2.83022 0
M  V30 4383 H 390.701 3.03252 2.69802 0
M  V30 4384 H 391.467 4.76264 0.916407 0
M  V30 4385 H 387.346 4.16085 1.9848 0
M  V30 4386 H 390.89 6.97599 -0.0133062 0
M  V30 4387 H 386.787 6.36723 1.06084 0
M  V30 4388 H 387.555 8.18479 0.0580522 0
M  V30 4389 N 390.218 -0.567019 1.47046 0
M  V30 4390 C 391.629 -1.14916 1.47143 0
M  V30 4391 C 391.98 -1.94954 0.220767 0
M  V30 4392 O 391.105 -2.05602 -0.67505 0
M  V30 4393 C 391.7 -2.09069 2.666 0
M  V30 4394 C 390.259 -2.62575 2.69687 0
M  V30 4395 C 389.406 -1.38755 2.40088 0
M  V30 4396 H 392.357 -0.354126 1.54699 0
M  V30 4397 H 392.378 -2.92789 2.43011 0
M  V30 4398 H 391.89 -1.50789 3.57609 0
M  V30 4399 H 389.991 -3.24681 1.82792 0
M  V30 4400 H 390.104 -3.04239 3.70102 0
M  V30 4401 H 388.468 -1.69098 1.90468 0
M  V30 4402 H 389.251 -0.822822 3.33293 0
M  V30 4403 N 391.696 -1.35014 -0.812953 0
M  V30 4404 C 392.626 -1.30069 -1.93919 0
M  V30 4405 C 393.607 -0.176275 -1.69184 0
M  V30 4406 O 394.792 -0.370227 -1.90638 0
M  V30 4407 C 391.922 -1.06547 -3.30552 0
M  V30 4408 C 390.876 -2.15561 -3.69753 0
M  V30 4409 C 390.202 -1.77214 -5.04479 0
M  V30 4410 C 391.502 -3.57476 -3.808 0
M  V30 4411 H 393.196 -2.24303 -1.98314 0
M  V30 4412 H 390.742 -1.07977 -0.952736 0
M  V30 4413 H 392.695 -1.01729 -4.08937 0
M  V30 4414 H 391.419 -0.0875719 -3.26483 0
M  V30 4415 H 390.078 -2.19466 -2.9365 0
M  V30 4416 H 389.726 -0.780589 -4.96906 0
M  V30 4417 H 389.426 -2.50184 -5.31678 0
M  V30 4418 H 390.95 -1.7391 -5.8531 0
M  V30 4419 H 392.364 -3.55929 -4.4943 0
M  V30 4420 H 390.761 -4.29152 -4.19462 0
M  V30 4421 H 391.831 -3.94091 -2.82525 0
M  V30 4422 N 393.175 1.03435 -1.18907 0
M  V30 4423 C 394.422 1.76743 -0.988334 0
M  V30 4424 C 394.75 1.88447 0.481441 0
M  V30 4425 O 394.005 1.39383 1.37371 0
M  V30 4426 C 394.304 3.19792 -1.59586 0
M  V30 4427 C 393.97 3.28108 -3.09283 0
M  V30 4428 C 392.632 3.30084 -3.5014 0
M  V30 4429 C 394.984 3.27696 -4.05296 0
M  V30 4430 C 392.312 3.29299 -4.85571 0
M  V30 4431 C 394.664 3.28451 -5.4065 0
M  V30 4432 C 393.328 3.28723 -5.80946 0
M  V30 4433 H 392.598 0.64675 -0.361657 0
M  V30 4434 H 395.245 1.21442 -1.48068 0
M  V30 4435 H 393.55 3.78136 -1.02568 0
M  V30 4436 H 395.247 3.75171 -1.41589 0
M  V30 4437 H 391.837 3.27294 -2.76725 0
M  V30 4438 H 396.021 3.25354 -3.74778 0
M  V30 4439 H 391.277 3.2783 -5.16079 0
M  V30 4440 H 395.451 3.27082 -6.14809 0
M  V30 4441 H 393.078 3.27868 -6.85862 0
M  V30 4442 N 394.653 0.992116 1.22453 0
M  V30 4443 C 395.902 0.662992 1.90492 0
M  V30 4444 C 396.215 -0.808407 1.78113 0
M  V30 4445 O 397.421 -1.24908 2.41061 0
M  V30 4446 C 395.877 1.1353 3.41524 0
M  V30 4447 C 395.485 2.63187 3.62542 0
M  V30 4448 C 397.229 0.880465 4.15269 0
M  V30 4449 C 395.136 3.04024 5.0727 0
M  V30 4450 H 394.066 0.244278 0.713333 0
M  V30 4451 H 396.717 1.20157 1.38688 0
M  V30 4452 H 395.099 0.52485 3.92506 0
M  V30 4453 H 396.273 3.2957 3.22056 0
M  V30 4454 H 394.588 2.86543 3.02129 0
M  V30 4455 H 397.185 1.16128 5.21937 0
M  V30 4456 H 397.528 -0.183408 4.15896 0
M  V30 4457 H 398.061 1.45307 3.70312 0
M  V30 4458 H 394.8 4.09584 5.11782 0
M  V30 4459 H 394.32 2.42343 5.48662 0
M  V30 4460 H 395.999 2.95282 5.75689 0
M  V30 4461 N 396.131 -1.37776 0.765217 0
M  V30 4462 C 397.379 -1.99454 0.325943 0
M  V30 4463 C 397.7 -1.61049 -1.09947 0
M  V30 4464 O 396.97 -0.872821 -1.75381 0
M  V30 4465 H 395.55 -0.737697 0.117525 0
M  V30 4466 H 398.212 -1.68359 0.981895 0
M  V30 4467 H 397.308 -3.09547 0.398353 0
M  V30 4468 N 397.609 -0.515225 -1.4894 0
M  V30 4469 C 398.839 0.0205735 -2.0659 0
M  V30 4470 C 399.247 1.30064 -1.37405 0
M  V30 4471 O 398.59 1.78087 -0.450632 0
M  V30 4472 C 398.652 0.330124 -3.57981 0
M  V30 4473 C 398.316 -0.854295 -4.48944 0
M  V30 4474 C 399.313 -1.7487 -4.89609 0
M  V30 4475 C 396.998 -1.05712 -4.9105 0
M  V30 4476 C 398.992 -2.82996 -5.71132 0
M  V30 4477 C 396.679 -2.14154 -5.72347 0
M  V30 4478 C 397.677 -3.0263 -6.12294 0
M  V30 4479 O 397.365 -4.09198 -6.91962 0
M  V30 4480 H 397.097 -0.0236833 -0.675585 0
M  V30 4481 H 399.651 -0.715956 -1.92518 0
M  V30 4482 H 397.881 1.12044 -3.70112 0
M  V30 4483 H 399.57 0.806233 -3.97812 0
M  V30 4484 H 400.336 -1.60388 -4.57712 0
M  V30 4485 H 396.215 -0.377788 -4.59449 0
M  V30 4486 H 399.759 -3.52083 -6.02232 0
M  V30 4487 H 395.656 -2.28626 -6.03656 0
M  V30 4488 H 396.424 -4.06726 -7.10293 0
M  V30 4489 N 399.087 1.5561 -0.249682 0
M  V30 4490 C 400.312 2.03865 0.381305 0
M  V30 4491 C 400.737 1.12769 1.50548 0
M  V30 4492 O 400.095 0.121189 1.80895 0
M  V30 4493 C 400.143 3.50101 0.863816 0
M  V30 4494 O 399.247 3.62132 1.97318 0
M  V30 4495 H 398.588 0.658827 0.0827194 0
M  V30 4496 H 401.118 2.01105 -0.376552 0
M  V30 4497 H 401.128 3.90975 1.1663 0
M  V30 4498 H 399.803 4.1588 0.0411816 0
M  V30 4499 H 398.38 3.33155 1.67517 0
M  V30 4500 N 400.565 -0.0233959 1.57583 0
M  V30 4501 C 401.981 -0.379134 1.55031 0
M  V30 4502 C 402.181 -1.76255 0.976548 0
M  V30 4503 O 401.237 -2.45266 0.600078 0
M  V30 4504 C 402.55 -0.275792 2.99433 0
M  V30 4505 C 404.098 -0.352458 3.11009 0
M  V30 4506 C 404.573 -0.278501 4.57152 0
M  V30 4507 N 406.064 -0.337123 4.61972 0
M  V30 4508 C 406.799 -0.302876 5.726 0
M  V30 4509 N 406.295 -0.220589 6.92449 0
M  V30 4510 N 408.088 -0.353023 5.6099 0
M  V30 4511 H 400.239 0.881869 1.93227 0
M  V30 4512 H 402.502 0.335867 0.886509 0
M  V30 4513 H 402.208 0.675108 3.4516 0
M  V30 4514 H 402.082 -1.06721 3.61788 0
M  V30 4515 H 404.469 -1.29379 2.65226 0
M  V30 4516 H 404.55 0.468409 2.51475 0
M  V30 4517 H 404.194 0.659189 5.03604 0
M  V30 4518 H 404.124 -1.11755 5.14605 0
M  V30 4519 H 406.615 -0.403002 3.75745 0
M  V30 4520 H 406.928 -0.199713 7.72542 0
M  V30 4521 H 405.273 -0.186555 6.9475 0
M  V30 4522 H 408.464 -0.415339 4.66254 0
M  V30 4523 H 408.637 -0.322866 6.47195 0
M  V30 4524 N 402.043 -1.548 -0.295768 0
M  V30 4525 C 402.99 -1.86113 -1.36494 0
M  V30 4526 C 403.96 -0.7105 -1.50137 0
M  V30 4527 O 405.145 -0.959626 -1.64912 0
M  V30 4528 C 402.285 -2.11861 -2.72413 0
M  V30 4529 C 401.398 -3.39471 -2.67177 0
M  V30 4530 C 400.533 -3.55035 -3.95125 0
M  V30 4531 C 399.572 -4.76418 -3.84308 0
M  V30 4532 N 398.709 -4.8876 -5.04042 0
M  V30 4533 H 403.549 -2.77314 -1.09091 0
M  V30 4534 H 401.086 -1.37315 -0.52753 0
M  V30 4535 H 403.044 -2.24786 -3.51464 0
M  V30 4536 H 401.674 -1.2392 -2.98066 0
M  V30 4537 H 400.726 -3.35139 -1.79962 0
M  V30 4538 H 402.038 -4.28646 -2.55076 0
M  V30 4539 H 401.192 -3.67653 -4.82614 0
M  V30 4540 H 399.931 -2.64002 -4.10066 0
M  V30 4541 H 398.936 -4.63827 -2.95202 0
M  V30 4542 H 400.161 -5.68863 -3.70906 0
M  V30 4543 H 398.107 -4.00652 -5.19436 0
M  V30 4544 H 398.024 -5.71945 -4.94384 0
M  V30 4545 H 399.292 -5.0574 -5.93167 0
M  V30 4546 N 403.521 0.559213 -1.47345 0
M  V30 4547 C 404.937 0.884943 -1.32819 0
M  V30 4548 C 405.137 1.98988 -0.317173 0
M  V30 4549 O 404.193 2.51031 0.272011 0
M  V30 4550 C 405.506 1.28007 -2.72093 0
M  V30 4551 C 407.054 1.39161 -2.80363 0
M  V30 4552 C 407.529 1.82031 -4.20272 0
M  V30 4553 N 409.02 1.89185 -4.22804 0
M  V30 4554 C 409.755 2.2368 -5.27973 0
M  V30 4555 N 409.251 2.56802 -6.43447 0
M  V30 4556 N 411.044 2.24436 -5.15349 0
M  V30 4557 H 403.195 -0.170304 -2.11716 0
M  V30 4558 H 405.458 -0.0135247 -0.947904 0
M  V30 4559 H 405.164 0.542027 -3.47498 0
M  V30 4560 H 405.038 2.23665 -3.03733 0
M  V30 4561 H 407.425 2.12048 -2.05231 0
M  V30 4562 H 407.506 0.41696 -2.52379 0
M  V30 4563 H 407.15 1.09715 -4.95908 0
M  V30 4564 H 407.08 2.80495 -4.45679 0
M  V30 4565 H 409.571 1.65982 -3.39497 0
M  V30 4566 H 409.884 2.82144 -7.19454 0
M  V30 4567 H 408.229 2.54387 -6.46771 0
M  V30 4568 H 411.42 1.97998 -4.24163 0
M  V30 4569 H 411.593 2.50989 -5.97418 0
M  V30 4570 N 404.999 1.35443 0.805782 0
M  V30 4571 C 406.246 1.28761 1.56291 0
M  V30 4572 C 406.574 -0.137747 1.94012 0
M  V30 4573 O 405.829 -1.1032 1.61642 0
M  V30 4574 C 406.128 2.14045 2.86216 0
M  V30 4575 C 405.794 3.62826 2.67709 0
M  V30 4576 C 404.456 4.0338 2.6237 0
M  V30 4577 C 406.808 4.57227 2.50186 0
M  V30 4578 C 404.136 5.36501 2.37451 0
M  V30 4579 C 406.488 5.90547 2.26797 0
M  V30 4580 C 405.152 6.30245 2.1988 0
M  V30 4581 H 404.422 0.471171 0.571908 0
M  V30 4582 H 407.069 1.67347 0.930974 0
M  V30 4583 H 405.374 1.68342 3.53791 0
M  V30 4584 H 407.071 2.0621 3.43917 0
M  V30 4585 H 403.661 3.30644 2.72713 0
M  V30 4586 H 407.845 4.2678 2.53323 0
M  V30 4587 H 403.101 5.66259 2.30567 0
M  V30 4588 H 407.275 6.63274 2.12228 0
M  V30 4589 H 404.902 7.33328 2.00333 0
M  V30 4590 N 406.477 -1.02803 1.19454 0
M  V30 4591 C 407.726 -1.7562 0.991996 0
M  V30 4592 C 408.039 -1.89672 -0.477901 0
M  V30 4593 O 409.245 -2.59468 -0.799287 0
M  V30 4594 C 407.701 -3.15812 1.72601 0
M  V30 4595 C 407.309 -3.0981 3.23607 0
M  V30 4596 C 409.053 -3.92918 1.60674 0
M  V30 4597 C 406.96 -4.44939 3.89594 0
M  V30 4598 H 405.89 -0.658352 0.367543 0
M  V30 4599 H 408.541 -1.15044 1.42959 0
M  V30 4600 H 406.923 -3.7686 1.21624 0
M  V30 4601 H 408.097 -2.58138 3.81709 0
M  V30 4602 H 406.412 -2.46201 3.35819 0
M  V30 4603 H 409.009 -4.9287 2.07323 0
M  V30 4604 H 409.352 -4.12502 0.561025 0
M  V30 4605 H 409.885 -3.38472 2.09001 0
M  V30 4606 H 406.624 -4.30559 4.94267 0
M  V30 4607 H 406.144 -4.96664 3.36281 0
M  V30 4608 H 407.823 -5.1382 3.93189 0
M  V30 4609 N 407.956 -0.998596 -1.21925 0
M  V30 4610 C 408.919 -0.558679 -2.22287 0
M  V30 4611 C 409.919 0.361525 -1.56683 0
M  V30 4612 O 411.109 0.152695 -1.73529 0
M  V30 4613 C 408.241 0.18661 -3.40389 0
M  V30 4614 H 409.434 -1.4463 -2.62721 0
M  V30 4615 H 406.987 -0.786413 -1.35075 0
M  V30 4616 H 407.722 1.08996 -3.05435 0
M  V30 4617 H 407.507 -0.474188 -3.89222 0
M  V30 4618 H 408.997 0.482367 -4.14805 0
M  V30 4619 N 409.434 1.37368 -0.772513 0
M  V30 4620 C 410.384 2.27613 -0.132823 0
M  V30 4621 C 411.368 1.46138 0.673247 0
M  V30 4622 O 412.56 1.68686 0.536095 0
M  V30 4623 C 409.689 3.35122 0.744864 0
M  V30 4624 C 408.775 4.24044 -0.0690771 0
M  V30 4625 N 409.166 4.93355 -1.1151 0
M  V30 4626 C 407.464 4.45731 0.154782 0
M  V30 4627 C 408.165 5.59 -1.60917 0
M  V30 4628 N 407.141 5.35737 -0.921222 0
M  V30 4629 H 410.943 2.78675 -0.933681 0
M  V30 4630 H 408.457 1.50494 -0.610342 0
M  V30 4631 H 410.454 3.98683 1.21892 0
M  V30 4632 H 409.114 2.85616 1.54446 0
M  V30 4633 H 410.125 4.95785 -1.49726 0
M  V30 4634 H 406.802 4.07096 0.926224 0
M  V30 4635 H 408.192 6.24395 -2.48153 0
M  V30 4636 N 410.912 0.523116 1.48665 0
M  V30 4637 C 412.152 -0.0115588 2.04397 0
M  V30 4638 C 412.516 -1.32225 1.39214 0
M  V30 4639 O 413.717 -1.94253 1.85793 0
M  V30 4640 C 411.988 -0.138119 3.57133 0
M  V30 4641 S 413.547 -0.623849 4.34343 0
M  V30 4642 H 410.365 0.00877706 0.710946 0
M  V30 4643 H 412.967 0.702116 1.82457 0
M  V30 4644 H 411.671 0.820748 4.02109 0
M  V30 4645 H 411.202 -0.876377 3.83514 0
M  V30 4646 H 413.217 -1.8895 4.58816 0
M  V30 4647 N 412.39 -1.55475 0.257931 0
M  V30 4648 C 413.323 -2.179 -0.677862 0
M  V30 4649 C 414.301 -1.13448 -1.16483 0
M  V30 4650 O 415.485 -1.41889 -1.24095 0
M  V30 4651 C 412.612 -2.78851 -1.92249 0
M  V30 4652 C 411.658 -3.96454 -1.57246 0
M  V30 4653 S 412.491 -5.31349 -0.665501 0
M  V30 4654 C 413.647 -5.9576 -1.91889 0
M  V30 4655 H 413.88 -2.96934 -0.147396 0
M  V30 4656 H 411.413 -1.54342 0.0423023 0
M  V30 4657 H 413.371 -3.14602 -2.63697 0
M  V30 4658 H 412.032 -1.99742 -2.42409 0
M  V30 4659 H 411.225 -4.37731 -2.49814 0
M  V30 4660 H 410.827 -3.62038 -0.938325 0
M  V30 4661 H 413.119 -6.13947 -2.86487 0
M  V30 4662 H 414.062 -6.9094 -1.54942 0
M  V30 4663 H 414.47 -5.2494 -2.076 0
M  V30 4664 N 413.868 0.0150385 -1.57593 0
M  V30 4665 C 414.816 1.02958 -2.08572 0
M  V30 4666 C 415.81 1.36554 -1.00246 0
M  V30 4667 O 417.016 1.35295 -1.18724 0
M  V30 4668 H 413.391 0.349619 -0.665786 0
M  V30 4669 H 415.362 0.573932 -2.92829 0
M  V30 4670 C 414.111 2.31752 -2.59203 0
M  V30 4671 H 413.434 2.06765 -3.42182 0
M  V30 4672 H 414.874 3.01053 -2.98568 0
M  V30 4673 C 413.333 3.01692 -1.49945 0
M  V30 4674 O 413.863 3.92083 -0.873704 0
M  V30 4675 N 412.069 2.6326 -1.23056 0
M  V30 4676 H 411.616 1.89838 -1.74125 0
M  V30 4677 H 411.574 3.10372 -0.501685 0
M  V30 4678 N 415.346 1.54954 0.287554 0
M  V30 4679 C 416.623 1.65569 1.04146 0
M  V30 4680 C 417.003 0.512672 2.0478 0
M  V30 4681 O 416.351 -0.489038 2.23205 0
M  V30 4682 C 416.561 3.04163 1.71131 0
M  V30 4683 C 417.909 3.61429 2.22832 0
M  V30 4684 O 418.933 3.06702 1.81141 0
M  V30 4685 O 417.792 4.57281 2.9926 0
M  V30 4686 H 414.886 0.671881 0.482188 0
M  V30 4687 H 417.432 1.67297 0.28457 0
M  V30 4688 H 416.204 3.78796 0.981303 0
M  V30 4689 H 415.827 3.06271 2.53543 0
M  V30 4690 N 416.824 -0.551391 1.4764 0
M  V30 4691 C 417.756 -1.67333 1.56628 0
M  V30 4692 C 418.769 -1.56398 0.452045 0
M  V30 4693 O 419.958 -1.6325 0.721926 0
M  V30 4694 C 417.058 -3.05841 1.45994 0
M  V30 4695 C 416.231 -3.42472 2.72088 0
M  V30 4696 C 415.29 -4.60168 2.55209 0
M  V30 4697 O 414.316 -4.64458 3.2904 0
M  V30 4698 N 415.518 -5.57024 1.63416 0
M  V30 4699 H 418.283 -1.60066 2.53375 0
M  V30 4700 H 415.844 -0.738169 1.44093 0
M  V30 4701 H 417.836 -3.8242 1.32428 0
M  V30 4702 H 416.406 -3.07302 0.573071 0
M  V30 4703 H 415.626 -2.55284 3.00373 0
M  V30 4704 H 416.914 -3.63723 3.55785 0
M  V30 4705 H 416.312 -5.56319 1.02594 0
M  V30 4706 H 414.869 -6.32906 1.558 0
M  V30 4707 N 418.302 -1.35869 -0.798587 0
M  V30 4708 C 419.25 -1.29491 -1.93222 0
M  V30 4709 C 420.244 -0.18836 -1.6835 0
M  V30 4710 O 421.45 -0.354822 -1.76468 0
M  V30 4711 H 417.825 -0.402901 -0.63496 0
M  V30 4712 H 419.796 -2.25247 -1.9572 0
M  V30 4713 C 418.545 -1.09184 -3.30112 0
M  V30 4714 H 417.868 -1.93574 -3.49813 0
M  V30 4715 H 419.308 -1.08766 -4.09812 0
M  V30 4716 C 417.767 0.203959 -3.36282 0
M  V30 4717 O 418.297 1.19699 -3.83451 0
M  V30 4718 N 416.503 0.245488 -2.89561 0
M  V30 4719 H 416.05 -0.563223 -2.51367 0
M  V30 4720 H 416.008 1.11219 -2.94071 0
M  V30 4721 N 419.78 1.02168 -1.19998 0
M  V30 4722 C 421.026 1.75945 -1.00852 0
M  V30 4723 C 421.359 1.88702 0.458828 0
M  V30 4724 O 420.634 1.40911 1.34069 0
M  V30 4725 C 420.917 3.18154 -1.68671 0
M  V30 4726 C 420.77 3.13224 -3.22817 0
M  V30 4727 C 422.089 4.16711 -1.41561 0
M  V30 4728 H 419.208 0.638673 -0.367785 0
M  V30 4729 H 421.85 1.19222 -1.4794 0
M  V30 4730 H 420 3.66586 -1.28636 0
M  V30 4731 H 421.672 2.72635 -3.72112 0
M  V30 4732 H 419.915 2.50751 -3.53986 0
M  V30 4733 H 420.586 4.13728 -3.65422 0
M  V30 4734 H 423.062 3.76913 -1.76284 0
M  V30 4735 H 421.938 5.14391 -1.91553 0
M  V30 4736 H 422.199 4.40774 -0.342193 0
M  V30 4737 N 421.258 1.00505 1.21394 0
M  V30 4738 C 422.504 0.688793 1.90745 0
M  V30 4739 C 422.837 -0.778486 1.77914 0
M  V30 4740 O 422.112 -1.56433 1.15581 0
M  V30 4741 C 422.395 1.11063 3.42545 0
M  V30 4742 C 422.248 2.63737 3.64367 0
M  V30 4743 C 423.567 0.673059 4.34923 0
M  V30 4744 H 420.686 0.251702 0.692687 0
M  V30 4745 H 423.328 1.25074 1.43026 0
M  V30 4746 H 421.478 0.632508 3.83317 0
M  V30 4747 H 423.15 3.19313 3.32922 0
M  V30 4748 H 421.393 3.05248 3.08231 0
M  V30 4749 H 422.064 2.88305 4.70727 0
M  V30 4750 H 424.54 1.08392 4.01734 0
M  V30 4751 H 423.416 0.996383 5.39781 0
M  V30 4752 H 423.677 -0.425808 4.40045 0
M  V30 4753 N 422.737 -1.36956 0.779787 0
M  V30 4754 C 423.986 -1.98738 0.344405 0
M  V30 4755 C 424.299 -1.62596 -1.08728 0
M  V30 4756 O 425.505 -2.1754 -1.62445 0
M  V30 4757 C 423.961 -3.5544 0.564829 0
M  V30 4758 C 423.569 -4.00514 2.0073 0
M  V30 4759 C 425.313 -4.24059 0.193471 0
M  V30 4760 C 423.22 -5.49957 2.17489 0
M  V30 4761 H 422.15 -0.743561 0.12503 0
M  V30 4762 H 424.801 -1.56381 0.960057 0
M  V30 4763 H 423.183 -3.95817 -0.120397 0
M  V30 4764 H 424.357 -3.71362 2.72814 0
M  V30 4765 H 422.672 -3.44703 2.336 0
M  V30 4766 H 425.269 -5.33874 0.297097 0
M  V30 4767 H 425.612 -4.07378 -0.857263 0
M  V30 4768 H 426.145 -3.89012 0.831556 0
M  V30 4769 H 422.884 -5.71574 3.2091 0
M  V30 4770 H 422.404 -5.80767 1.49899 0
M  V30 4771 H 424.083 -6.16043 1.97738 0
M  V30 4772 N 424.215 -0.530993 -1.48385 0
M  V30 4773 C 425.163 0.244595 -2.3131 0
M  V30 4774 C 426.157 0.93451 -1.41291 0
M  V30 4775 O 427.363 0.85878 -1.58193 0
M  V30 4776 H 423.738 0.0977472 -0.74562 0
M  V30 4777 H 425.709 -0.474369 -2.94605 0
M  V30 4778 C 424.458 1.2779 -3.23365 0
M  V30 4779 H 423.781 0.756439 -3.92579 0
M  V30 4780 H 425.221 1.79198 -3.84271 0
M  V30 4781 C 423.68 2.31205 -2.45042 0
M  V30 4782 O 424.21 3.37661 -2.17596 0
M  V30 4783 N 422.416 2.04446 -2.0652 0
M  V30 4784 H 421.963 1.17891 -2.2904 0
M  V30 4785 H 421.921 2.73861 -1.54427 0
M  V30 4786 N 425.693 1.55336 -0.266172 0
M  V30 4787 C 426.921 2.03801 0.356756 0
M  V30 4788 C 427.336 1.14485 1.50129 0
M  V30 4789 O 426.693 0.163121 1.8177 0
M  V30 4790 C 426.744 3.51455 0.846281 0
M  V30 4791 O 426.465 4.37371 -0.252663 0
M  V30 4792 C 427.966 4.15767 1.53794 0
M  V30 4793 H 425.186 0.665906 0.0825218 0
M  V30 4794 H 427.73 2.00636 -0.39566 0
M  V30 4795 H 425.885 3.55092 1.54881 0
M  V30 4796 H 426.299 5.24358 0.122173 0
M  V30 4797 H 427.773 5.20714 1.83198 0
M  V30 4798 H 428.25 3.63404 2.46646 0
M  V30 4799 H 428.856 4.16107 0.879488 0
M  V30 4800 N 427.171 -0.0066808 1.57599 0
M  V30 4801 C 428.103 -1.02827 2.04839 0
M  V30 4802 C 429.116 -1.31108 0.965113 0
M  V30 4803 O 430.305 -1.28202 1.24203 0
M  V30 4804 C 427.405 -2.36464 2.42771 0
M  V30 4805 C 426.578 -2.27219 3.73751 0
M  V30 4806 C 425.637 -3.43489 3.98625 0
M  V30 4807 O 424.663 -3.21976 4.69382 0
M  V30 4808 N 425.865 -4.66116 3.46 0
M  V30 4809 H 428.63 -0.625455 2.93101 0
M  V30 4810 H 426.191 -0.194198 1.60731 0
M  V30 4811 H 428.183 -3.13008 2.56531 0
M  V30 4812 H 426.753 -2.68512 1.60063 0
M  V30 4813 H 425.973 -1.35629 3.70133 0
M  V30 4814 H 427.261 -2.18208 4.59633 0
M  V30 4815 H 426.659 -4.86493 2.88688 0
M  V30 4816 H 425.216 -5.39949 3.65101 0
M  V30 4817 N 428.649 -1.55105 -0.279332 0
M  V30 4818 C 429.581 -1.83952 -1.36727 0
M  V30 4819 C 430.594 -0.723642 -1.45833 0
M  V30 4820 O 431.783 -1.00141 -1.47763 0
M  V30 4821 C 428.883 -1.98183 -2.74912 0
M  V30 4822 C 428.056 -3.28787 -2.88475 0
M  V30 4823 C 427.115 -3.33162 -4.07295 0
M  V30 4824 O 426.141 -4.06576 -3.98353 0
M  V30 4825 N 427.343 -2.60109 -5.18964 0
M  V30 4826 H 430.108 -2.77853 -1.12328 0
M  V30 4827 H 427.669 -1.54945 -0.469442 0
M  V30 4828 H 429.661 -1.98488 -3.52682 0
M  V30 4829 H 428.231 -1.11177 -2.92162 0
M  V30 4830 H 427.451 -3.41075 -1.97641 0
M  V30 4831 H 428.739 -4.14933 -2.94463 0
M  V30 4832 H 428.137 -2.00136 -5.29115 0
M  V30 4833 H 426.694 -2.66143 -5.94988 0
M  V30 4834 N 430.127 0.543554 -1.4793 0
M  V30 4835 C 431.074 1.64942 -1.6144 0
M  V30 4836 C 432.044 1.59692 -0.456903 0
M  V30 4837 O 433.229 1.78321 -0.678688 0
M  V30 4838 C 430.369 3.03238 -1.64744 0
M  V30 4839 C 429.482 3.18823 -2.91506 0
M  V30 4840 C 428.617 4.47599 -2.86057 0
M  V30 4841 C 427.656 4.56664 -4.07584 0
M  V30 4842 N 426.793 5.76811 -4.00292 0
M  V30 4843 H 431.633 1.52733 -2.55884 0
M  V30 4844 H 429.17 0.7438 -1.2691 0
M  V30 4845 H 431.128 3.83339 -1.64641 0
M  V30 4846 H 429.758 3.1425 -0.738017 0
M  V30 4847 H 428.81 2.32064 -3.01414 0
M  V30 4848 H 430.122 3.21384 -3.81463 0
M  V30 4849 H 429.276 5.35975 -2.84281 0
M  V30 4850 H 428.015 4.47538 -1.93807 0
M  V30 4851 H 427.02 3.66697 -4.09651 0
M  V30 4852 H 428.245 4.58474 -5.00978 0
M  V30 4853 H 426.191 5.77673 -3.10853 0
M  V30 4854 H 426.108 5.80808 -4.8394 0
M  V30 4855 H 427.376 6.67512 -4.02553 0
M  V30 4856 N 431.605 1.3629 0.791371 0
M  V30 4857 C 432.535 1.33137 1.91825 0
M  V30 4858 C 433.516 0.203168 1.68882 0
M  V30 4859 O 434.701 0.400509 1.90025 0
M  V30 4860 C 431.831 1.11793 3.28816 0
M  V30 4861 C 430.785 2.21417 3.66277 0
M  V30 4862 C 430.111 1.85218 5.01596 0
M  V30 4863 C 431.411 3.63489 3.75064 0
M  V30 4864 H 433.105 2.2743 1.9472 0
M  V30 4865 H 430.651 1.09479 0.935437 0
M  V30 4866 H 432.604 1.08222 4.07266 0
M  V30 4867 H 431.328 0.139501 3.26302 0
M  V30 4868 H 429.987 2.2411 2.90121 0
M  V30 4869 H 429.635 0.859544 4.95602 0
M  V30 4870 H 429.335 2.58611 5.27631 0
M  V30 4871 H 430.859 1.832 5.82469 0
M  V30 4872 H 432.273 3.63034 4.43711 0
M  V30 4873 H 430.67 4.35771 4.12582 0
M  V30 4874 H 431.74 3.98536 2.76219 0
M  V30 4875 N 433.083 -1.0153 1.20538 0
M  V30 4876 C 434.033 -2.08482 0.922991 0
M  V30 4877 C 435.017 -1.60469 -0.117702 0
M  V30 4878 O 436.209 -1.76772 0.0898465 0
M  V30 4879 C 433.338 -3.39952 0.478312 0
M  V30 4880 C 432.424 -3.94662 1.5525 0
M  V30 4881 N 432.815 -4.22866 2.77521 0
M  V30 4882 C 431.113 -4.22825 1.41897 0
M  V30 4883 C 431.814 -4.67002 3.4682 0
M  V30 4884 N 430.79 -4.69356 2.74237 0
M  V30 4885 H 434.592 -2.28199 1.85209 0
M  V30 4886 H 432.106 -1.19512 1.09957 0
M  V30 4887 H 434.103 -4.16105 0.257408 0
M  V30 4888 H 432.763 -3.21648 -0.444148 0
M  V30 4889 H 433.774 -4.11732 3.1416 0
M  V30 4890 H 430.451 -4.13714 0.561015 0
M  V30 4891 H 431.841 -4.97632 4.51455 0
M  V30 4892 N 434.561 -1.01147 -1.20859 0
M  V30 4893 C 435.838 -0.613136 -1.85742 0
M  V30 4894 C 436.218 0.909004 -1.90526 0
M  V30 4895 O 435.566 1.79862 -1.40932 0
M  V30 4896 C 435.776 -1.255 -3.25654 0
M  V30 4897 C 437.124 -1.3672 -4.01986 0
M  V30 4898 O 438.148 -1.21082 -3.34989 0
M  V30 4899 O 437.007 -1.6194 -5.21956 0
M  V30 4900 H 434.101 -0.210878 -0.799662 0
M  V30 4901 H 436.647 -1.10853 -1.2849 0
M  V30 4902 H 435.419 -2.29532 -3.16908 0
M  V30 4903 H 435.042 -0.746369 -3.90532 0
M  V30 4904 N 436.039 1.36541 -0.78704 0
M  V30 4905 C 436.949 2.3387 -0.184896 0
M  V30 4906 C 437.965 1.60927 0.661697 0
M  V30 4907 O 439.141 1.92927 0.57804 0
M  V30 4908 C 436.206 3.40122 0.672145 0
M  V30 4909 C 435.267 4.28867 -0.19267 0
M  V30 4910 C 434.5 5.30045 0.623561 0
M  V30 4911 O 434.723 5.39232 1.8597 0
M  V30 4912 O 433.657 6.01895 0.0247068 0
M  V30 4913 H 437.483 2.87126 -0.989562 0
M  V30 4914 H 435.068 1.38969 -0.548455 0
M  V30 4915 H 436.95 4.05093 1.16094 0
M  V30 4916 H 435.625 2.89169 1.45474 0
M  V30 4917 H 434.532 3.66945 -0.728166 0
M  V30 4918 H 435.865 4.83165 -0.938722 0
M  V30 4919 N 437.518 0.538854 1.48102 0
M  V30 4920 C 438.45 -0.256278 2.27763 0
M  V30 4921 C 439.463 -0.89633 1.35904 0
M  V30 4922 O 440.652 -0.773275 1.60881 0
M  V30 4923 C 437.752 -1.37896 3.09577 0
M  V30 4924 C 436.925 -0.839159 4.29275 0
M  V30 4925 C 435.984 -1.84405 4.9283 0
M  V30 4926 O 435.01 -1.39746 5.51779 0
M  V30 4927 N 436.212 -3.17666 4.85869 0
M  V30 4928 H 438.977 0.426968 2.96643 0
M  V30 4929 H 436.538 0.373747 1.57527 0
M  V30 4930 H 438.53 -2.04955 3.48963 0
M  V30 4931 H 437.1 -1.96572 2.4306 0
M  V30 4932 H 436.32 0.00769287 3.94199 0
M  V30 4933 H 437.608 -0.457548 5.06739 0
M  V30 4934 H 437.006 -3.56609 4.39143 0
M  V30 4935 H 435.563 -3.80334 5.29329 0
M  V30 4936 N 438.996 -1.55193 0.274407 0
M  V30 4937 C 439.928 -2.1989 -0.646595 0
M  V30 4938 C 440.941 -1.1834 -1.11801 0
M  V30 4939 O 442.13 -1.4507 -1.04004 0
M  V30 4940 C 439.23 -2.8104 -1.89393 0
M  V30 4941 C 438.403 -4.08274 -1.56943 0
M  V30 4942 C 437.462 -4.53478 -2.66916 0
M  V30 4943 O 436.488 -5.19267 -2.33132 0
M  V30 4944 N 437.69 -4.2356 -3.9696 0
M  V30 4945 H 440.455 -2.99556 -0.0928686 0
M  V30 4946 H 438.016 -1.61618 0.0954783 0
M  V30 4947 H 440.008 -3.08226 -2.62257 0
M  V30 4948 H 438.578 -2.05372 -2.35672 0
M  V30 4949 H 437.798 -3.88384 -0.674655 0
M  V30 4950 H 439.086 -4.91173 -1.32764 0
M  V30 4951 H 438.484 -3.70799 -4.27229 0
M  V30 4952 H 437.041 -4.55518 -4.66205 0
M  V30 4953 N 440.474 -0.00167713 -1.576 0
M  V30 4954 C 441.422 1.0074 -2.09652 0
M  V30 4955 C 442.416 1.35483 -1.01689 0
M  V30 4956 O 443.622 1.34028 -1.20152 0
M  V30 4957 H 439.997 0.342537 -0.669457 0
M  V30 4958 H 441.968 0.542841 -2.93421 0
M  V30 4959 C 440.717 2.2899 -2.61647 0
M  V30 4960 H 440.04 2.03124 -3.44355 0
M  V30 4961 H 441.48 2.9787 -3.01744 0
M  V30 4962 C 439.939 3.00085 -1.53136 0
M  V30 4963 O 440.469 3.91135 -0.91524 0
M  V30 4964 N 438.675 2.6194 -1.25841 0
M  V30 4965 H 438.222 1.8798 -1.76129 0
M  V30 4966 H 438.18 3.09822 -0.534576 0
M  V30 4967 N 441.952 1.55251 0.271103 0
M  V30 4968 C 442.862 1.9136 1.35714 0
M  V30 4969 C 443.878 0.811075 1.5394 0
M  V30 4970 O 445.054 1.11031 1.6803 0
M  V30 4971 C 442.119 2.1798 2.69603 0
M  V30 4972 C 441.18 3.4153 2.60107 0
M  V30 4973 C 440.413 3.66871 3.8761 0
M  V30 4974 O 440.636 2.94689 4.8838 0
M  V30 4975 O 439.57 4.60405 3.87699 0
M  V30 4976 H 443.396 2.83815 1.08088 0
M  V30 4977 H 440.981 1.41821 0.469792 0
M  V30 4978 H 442.863 2.36518 3.48765 0
M  V30 4979 H 441.538 1.28708 2.97012 0
M  V30 4980 H 440.445 3.28325 1.79314 0
M  V30 4981 H 441.778 4.31027 2.37647 0
M  V30 4982 N 443.43 -0.535701 1.48216 0
M  V30 4983 C 444.378 -1.66179 1.62749 0
M  V30 4984 C 445.372 -1.62034 0.49409 0
M  V30 4985 O 446.578 -1.6696 0.672624 0
M  V30 4986 H 442.953 -0.550244 0.512578 0
M  V30 4987 H 444.924 -1.51063 2.57337 0
M  V30 4988 C 443.673 -3.04471 1.67907 0
M  V30 4989 H 442.996 -3.08351 2.54479 0
M  V30 4990 H 444.436 -3.82894 1.82121 0
M  V30 4991 C 442.895 -3.34314 0.416596 0
M  V30 4992 O 443.425 -3.98905 -0.473014 0
M  V30 4993 N 441.631 -2.89149 0.290038 0
M  V30 4994 H 441.178 -2.36764 1.01493 0
M  V30 4995 H 441.136 -3.09486 -0.55367 0
M  V30 4996 N 444.908 -1.36708 -0.784132 0
M  V30 4997 C 445.855 -1.31466 -1.89698 0
M  V30 4998 C 446.825 -0.18239 -1.65096 0
M  V30 4999 O 448.01 -0.369762 -1.87183 0
M  V30 5000 C 445.15 -1.1151 -3.26588 0
M  V30 5001 C 444.263 -2.33859 -3.63227 0
M  V30 5002 C 443.398 -2.06873 -4.89262 0
M  V30 5003 C 442.437 -3.25154 -5.18595 0
M  V30 5004 N 441.574 -2.978 -6.35814 0
M  V30 5005 H 446.414 -2.26619 -1.93515 0
M  V30 5006 H 443.951 -1.12625 -0.946256 0
M  V30 5007 H 445.909 -0.979653 -4.05535 0
M  V30 5008 H 444.539 -0.200103 -3.22179 0
M  V30 5009 H 443.591 -2.58188 -2.79362 0
M  V30 5010 H 444.903 -3.22109 -3.8085 0
M  V30 5011 H 444.057 -1.90289 -5.76086 0
M  V30 5012 H 442.796 -1.15942 -4.73718 0
M  V30 5013 H 441.801 -3.42292 -4.30251 0
M  V30 5014 H 443.026 -4.1692 -5.36055 0
M  V30 5015 H 440.972 -2.09485 -6.21653 0
M  V30 5016 H 440.889 -3.7959 -6.53794 0
M  V30 5017 H 442.157 -2.84805 -7.25607 0
M  V30 5018 N 446.386 1.0089 -1.21074 0
M  V30 5019 C 447.334 2.11707 -0.963476 0
M  V30 5020 C 448.328 1.69172 0.0879032 0
M  V30 5021 O 449.534 1.79889 -0.0631415 0
M  V30 5022 H 445.909 0.692026 -0.294287 0
M  V30 5023 H 447.88 2.29743 -1.90422 0
M  V30 5024 C 446.629 3.43473 -0.540509 0
M  V30 5025 H 445.952 3.76634 -1.34114 0
M  V30 5026 H 447.392 4.22044 -0.406777 0
M  V30 5027 C 445.851 3.2849 0.748079 0
M  V30 5028 O 446.381 3.58883 1.8046 0
M  V30 5029 N 444.587 2.81715 0.713081 0
M  V30 5030 H 444.134 2.5718 -0.146973 0
M  V30 5031 H 444.092 2.72071 1.57558 0
M  V30 5032 N 447.864 1.01787 1.20321 0
M  V30 5033 C 449.113 0.703249 1.89043 0
M  V30 5034 C 449.426 -0.770445 1.79787 0
M  V30 5035 O 450.632 -1.19767 2.43656 0
M  V30 5036 C 449.088 1.20749 3.3904 0
M  V30 5037 C 448.696 2.70817 3.56878 0
M  V30 5038 C 450.44 0.968352 4.13308 0
M  V30 5039 C 448.347 3.14716 5.00708 0
M  V30 5040 H 447.277 0.259354 0.707991 0
M  V30 5041 H 449.928 1.23072 1.36108 0
M  V30 5042 H 448.31 0.607989 3.91305 0
M  V30 5043 H 449.484 3.36327 3.14993 0
M  V30 5044 H 447.799 2.92888 2.95983 0
M  V30 5045 H 450.396 1.27173 5.19356 0
M  V30 5046 H 450.739 -0.095149 4.16191 0
M  V30 5047 H 451.272 1.53129 3.67146 0
M  V30 5048 H 448.011 4.20347 5.02979 0
M  V30 5049 H 447.531 2.53927 5.43398 0
M  V30 5050 H 449.21 3.07426 5.69296 0
M  V30 5051 N 449.342 -1.36122 0.79427 0
M  V30 5052 C 450.588 -1.99406 0.369452 0
M  V30 5053 C 450.921 -1.62886 -1.05743 0
M  V30 5054 O 450.196 -0.886053 -1.73145 0
M  V30 5055 C 450.479 -3.56046 0.538833 0
M  V30 5056 C 450.332 -4.02404 2.00976 0
M  V30 5057 C 451.651 -4.40079 -0.0431359 0
M  V30 5058 H 448.77 -0.724397 0.135712 0
M  V30 5059 H 451.412 -1.61461 1.00151 0
M  V30 5060 H 449.562 -3.885 0.000771004 0
M  V30 5061 H 451.234 -3.80415 2.60926 0
M  V30 5062 H 449.477 -3.53765 2.51063 0
M  V30 5063 H 450.148 -5.11344 2.07922 0
M  V30 5064 H 452.624 -4.14013 0.416228 0
M  V30 5065 H 451.5 -5.48799 0.105374 0
M  V30 5066 H 451.761 -4.27264 -1.13571 0
M  V30 5067 N 450.82 -0.546701 -1.47814 0
M  V30 5068 C 452.097 0.0464413 -1.95545 0
M  V30 5069 C 452.477 1.4962 -1.48919 0
M  V30 5070 O 451.825 2.16752 -0.723232 0
M  V30 5071 C 452.035 -0.0881298 -3.48889 0
M  V30 5072 C 453.383 0.0626059 -4.24554 0
M  V30 5073 O 454.407 -0.0151555 -3.56197 0
M  V30 5074 O 453.266 0.228071 -5.46024 0
M  V30 5075 H 450.36 0.0700004 -0.824032 0
M  V30 5076 H 452.906 -0.612482 -1.58262 0
M  V30 5077 H 451.678 -1.09737 -3.75597 0
M  V30 5078 H 451.301 0.608886 -3.9291 0
M  V30 5079 N 452.299 1.55045 -0.282633 0
M  V30 5080 C 453.246 2.22822 0.601566 0
M  V30 5081 C 454.216 1.20431 1.14392 0
M  V30 5082 O 455.401 1.48996 1.19184 0
M  V30 5083 C 452.541 2.95873 1.77632 0
M  V30 5084 C 451.654 4.12999 1.26711 0
M  V30 5085 C 450.789 4.73676 2.40426 0
M  V30 5086 C 449.828 5.82981 1.86545 0
M  V30 5087 N 448.965 6.3769 2.93762 0
M  V30 5088 H 453.805 2.97995 0.0169528 0
M  V30 5089 H 451.342 1.471 -0.00339964 0
M  V30 5090 H 453.3 3.36447 2.46697 0
M  V30 5091 H 451.93 2.2311 2.33285 0
M  V30 5092 H 450.982 3.77494 0.469314 0
M  V30 5093 H 452.294 4.91803 0.832518 0
M  V30 5094 H 451.448 5.17008 3.17471 0
M  V30 5095 H 450.187 3.94164 2.87203 0
M  V30 5096 H 449.192 5.39092 1.07983 0
M  V30 5097 H 450.417 6.64366 1.40694 0
M  V30 5098 H 448.363 5.61069 3.39908 0
M  V30 5099 H 448.28 7.11788 2.54744 0
M  V30 5100 H 449.548 6.8568 3.7076 0
M  V30 5101 N 453.777 0.010035 1.57597 0
M  V30 5102 C 455.002 -0.687021 1.95691 0
M  V30 5103 C 455.427 -1.65952 0.885519 0
M  V30 5104 O 454.785 -1.80633 -0.15543 0
M  V30 5105 C 454.833 -1.3864 3.32884 0
M  V30 5106 O 453.937 -2.50115 3.27897 0
M  V30 5107 H 453.278 -0.181989 0.638573 0
M  V30 5108 H 455.808 0.0662122 2.04493 0
M  V30 5109 H 455.818 -1.74754 3.6868 0
M  V30 5110 H 454.493 -0.673411 4.10412 0
M  V30 5111 H 453.07 -2.16253 3.03791 0
M  V30 5112 N 455.255 -1.55392 -0.262866 0
M  V30 5113 C 456.205 -1.85355 -1.32768 0
M  V30 5114 C 457.189 -0.713188 -1.44231 0
M  V30 5115 O 458.381 -0.974765 -1.47741 0
M  V30 5116 C 455.51 -2.13781 -2.68612 0
M  V30 5117 C 454.596 -3.34104 -2.61219 0
M  V30 5118 N 454.987 -4.53766 -2.2345 0
M  V30 5119 C 453.285 -3.36895 -2.92263 0
M  V30 5120 C 453.986 -5.35877 -2.26298 0
M  V30 5121 N 452.962 -4.74536 -2.65172 0
M  V30 5122 H 456.764 -2.75413 -1.02591 0
M  V30 5123 H 454.278 -1.55405 -0.471503 0
M  V30 5124 H 456.275 -2.33407 -3.45437 0
M  V30 5125 H 454.935 -1.25013 -2.99669 0
M  V30 5126 H 455.946 -4.79682 -1.95258 0
M  V30 5127 H 452.623 -2.58351 -3.27965 0
M  V30 5128 H 454.013 -6.41577 -1.99572 0
M  V30 5129 N 456.733 0.527833 -1.48498 0
M  V30 5130 C 457.681 1.65313 -1.63628 0
M  V30 5131 C 458.675 1.6177 -0.502676 0
M  V30 5132 O 459.881 1.66601 -0.681469 0
M  V30 5133 H 456.256 0.547518 -0.515488 0
M  V30 5134 H 458.227 1.49696 -2.58135 0
M  V30 5135 C 456.976 3.03576 -1.6952 0
M  V30 5136 H 456.299 3.06997 -2.56111 0
M  V30 5137 H 457.739 3.81923 -1.84149 0
M  V30 5138 C 456.198 3.34089 -0.43432 0
M  V30 5139 O 456.728 3.99151 0.451852 0
M  V30 5140 N 454.934 2.88991 -0.305368 0
M  V30 5141 H 454.481 2.36222 -1.02747 0
M  V30 5142 H 454.439 3.09776 0.537249 0
M  V30 5143 N 458.211 1.37122 0.776871 0
M  V30 5144 C 459.457 1.3325 1.53675 0
M  V30 5145 C 459.812 -0.0839891 1.92217 0
M  V30 5146 O 459.105 -1.04145 1.60824 0
M  V30 5147 C 459.299 2.20068 2.81611 0
M  V30 5148 C 459.128 3.70016 2.55574 0
M  V30 5149 C 457.898 4.39144 2.4996 0
M  V30 5150 C 460.096 4.62996 2.23917 0
M  V30 5151 N 458.078 5.74663 2.15953 0
M  V30 5152 C 459.449 5.86854 2.00005 0
M  V30 5153 C 461.504 4.51433 2.1003 0
M  V30 5154 C 460.207 7.00446 1.63609 0
M  V30 5155 C 462.233 5.64905 1.75033 0
M  V30 5156 C 461.595 6.8781 1.51977 0
M  V30 5157 H 457.694 0.542878 0.562856 0
M  V30 5158 H 460.278 1.72295 0.906784 0
M  V30 5159 H 458.449 1.83248 3.42454 0
M  V30 5160 H 460.181 2.07492 3.47461 0
M  V30 5161 H 456.936 3.92088 2.65639 0
M  V30 5162 H 457.36 6.46268 2.0166 0
M  V30 5163 H 462.002 3.56987 2.26539 0
M  V30 5164 H 459.72 7.94831 1.45837 0
M  V30 5165 H 463.306 5.57926 1.64952 0
M  V30 5166 H 462.186 7.74126 1.25296 0
M  V30 5167 N 459.689 -1.00246 1.21608 0
M  V30 5168 C 460.622 -2.08794 0.920892 0
M  V30 5169 C 461.6 -1.62059 -0.132552 0
M  V30 5170 O 462.784 -1.885 -0.0030366 0
M  V30 5171 C 459.911 -3.36525 0.383226 0
M  V30 5172 C 458.957 -4.02172 1.41987 0
M  V30 5173 S 459.79 -4.44256 2.98994 0
M  V30 5174 C 460.946 -5.7517 2.4684 0
M  V30 5175 H 461.179 -2.33511 1.8401 0
M  V30 5176 H 458.712 -1.13562 1.04609 0
M  V30 5177 H 460.67 -4.10423 0.0795871 0
M  V30 5178 H 459.331 -3.09854 -0.514711 0
M  V30 5179 H 458.524 -4.94114 0.993335 0
M  V30 5180 H 458.126 -3.34559 1.67171 0
M  V30 5181 H 460.418 -6.51042 1.87484 0
M  V30 5182 H 461.361 -6.22638 3.37235 0
M  V30 5183 H 461.769 -5.32112 1.88461 0
M  V30 5184 N 461.167 -1.02423 -1.1978 0
M  V30 5185 C 462.414 -0.717988 -1.89344 0
M  V30 5186 C 462.742 0.753036 -1.79331 0
M  V30 5187 O 461.997 1.56355 -1.17692 0
M  V30 5188 C 462.296 -1.1088 -3.39765 0
M  V30 5189 C 461.962 -2.57731 -3.6998 0
M  V30 5190 C 460.624 -2.97854 -3.77937 0
M  V30 5191 C 462.976 -3.52763 -3.83677 0
M  V30 5192 C 460.304 -4.31931 -3.97054 0
M  V30 5193 C 462.656 -4.86538 -4.04306 0
M  V30 5194 C 461.32 -5.26356 -4.10494 0
M  V30 5195 H 460.59 -0.26273 -0.692859 0
M  V30 5196 H 463.237 -1.28623 -1.41875 0
M  V30 5197 H 461.542 -0.459094 -3.89101 0
M  V30 5198 H 463.239 -0.849432 -3.919 0
M  V30 5199 H 459.829 -2.25646 -3.64393 0
M  V30 5200 H 464.013 -3.2292 -3.76877 0
M  V30 5201 H 459.269 -4.62324 -4.00083 0
M  V30 5202 H 463.443 -5.60093 -4.13846 0
M  V30 5203 H 461.07 -6.3026 -4.2506 0
M  V30 5204 N 462.645 1.35699 -0.801477 0
M  V30 5205 C 463.577 2.28598 -0.166028 0
M  V30 5206 C 464.59 1.50044 0.631721 0
M  V30 5207 O 465.779 1.72339 0.464921 0
M  V30 5208 C 462.879 3.29625 0.787451 0
M  V30 5209 C 462.052 4.37384 0.037171 0
M  V30 5210 C 461.111 5.183 0.908375 0
M  V30 5211 O 460.137 5.68053 0.361189 0
M  V30 5212 N 461.339 5.35912 2.23112 0
M  V30 5213 H 464.104 2.83771 -0.964071 0
M  V30 5214 H 461.665 1.47994 -0.656469 0
M  V30 5215 H 463.657 3.80648 1.37439 0
M  V30 5216 H 462.227 2.75004 1.48632 0
M  V30 5217 H 461.447 3.87364 -0.730935 0
M  V30 5218 H 462.735 5.0653 -0.480109 0
M  V30 5219 H 462.133 4.97125 2.69968 0
M  V30 5220 H 460.69 5.90133 2.76741 0
M  V30 5221 N 464.123 0.554532 1.47522 0
M  V30 5222 C 465.056 -0.242442 2.26908 0
M  V30 5223 C 466.034 -0.922722 1.33883 0
M  V30 5224 O 467.218 -0.942244 1.63261 0
M  V30 5225 C 464.345 -1.34525 3.10839 0
M  V30 5226 C 463.391 -0.773805 4.19422 0
M  V30 5227 S 464.224 0.377525 5.34168 0
M  V30 5228 C 465.38 -0.727164 6.21662 0
M  V30 5229 H 465.613 0.431218 2.94156 0
M  V30 5230 H 463.146 0.3408 1.50592 0
M  V30 5231 H 465.104 -1.97683 3.59766 0
M  V30 5232 H 463.765 -1.99073 2.42958 0
M  V30 5233 H 462.958 -1.60187 4.77866 0
M  V30 5234 H 462.56 -0.218448 3.73361 0
M  V30 5235 H 464.852 -1.61992 6.57849 0
M  V30 5236 H 465.795 -0.180135 7.07871 0
M  V30 5237 H 466.203 -1.01863 5.55233 0
M  V30 5238 N 465.601 -1.54893 0.290851 0
M  V30 5239 C 466.549 -2.24579 -0.605576 0
M  V30 5240 C 467.543 -1.24824 -1.14522 0
M  V30 5241 O 468.749 -1.42706 -1.09704 0
M  V30 5242 H 465.124 -0.720946 -0.213872 0
M  V30 5243 H 467.095 -2.984 0.0048173 0
M  V30 5244 C 465.844 -2.99224 -1.77088 0
M  V30 5245 H 465.167 -3.75782 -1.36484 0
M  V30 5246 H 466.607 -3.51281 -2.3744 0
M  V30 5247 C 465.066 -2.05602 -2.66888 0
M  V30 5248 O 465.596 -1.61745 -3.67698 0
M  V30 5249 N 463.802 -1.71771 -2.34399 0
M  V30 5250 H 463.349 -2.07633 -1.52468 0
M  V30 5251 H 463.307 -1.09403 -2.94751 0
M  V30 5252 N 467.08 -0.0183926 -1.57589 0
M  V30 5253 C 468.31 0.67207 -1.95363 0
M  V30 5254 C 468.718 1.66807 -0.892872 0
M  V30 5255 O 468.061 1.83204 0.134958 0
M  V30 5256 C 468.123 1.44397 -3.29226 0
M  V30 5257 C 467.787 0.607511 -4.52944 0
M  V30 5258 C 468.784 -0.112657 -5.19778 0
M  V30 5259 C 466.469 0.548068 -4.99301 0
M  V30 5260 C 468.463 -0.881057 -6.31281 0
M  V30 5261 C 466.15 -0.224044 -6.10689 0
M  V30 5262 C 467.148 -0.937323 -6.76538 0
M  V30 5263 O 466.836 -1.6968 -7.85789 0
M  V30 5264 H 466.568 0.190925 -0.648478 0
M  V30 5265 H 469.122 -0.0711994 -2.05277 0
M  V30 5266 H 467.352 2.23214 -3.15773 0
M  V30 5267 H 469.041 2.02152 -3.51979 0
M  V30 5268 H 469.807 -0.0759998 -4.8494 0
M  V30 5269 H 465.686 1.09281 -4.4786 0
M  V30 5270 H 469.23 -1.43832 -6.82611 0
M  V30 5271 H 465.127 -0.262457 -6.44966 0
M  V30 5272 H 465.895 -1.61544 -8.024 0
M  V30 5273 N 468.558 1.5553 0.254621 0
M  V30 5274 C 469.491 1.84624 1.34124 0
M  V30 5275 C 470.469 0.700693 1.46728 0
M  V30 5276 O 471.653 0.94564 1.63064 0
M  V30 5277 C 468.78 2.02412 2.71564 0
M  V30 5278 C 467.826 3.25028 2.7615 0
M  V30 5279 S 468.659 4.81893 2.33538 0
M  V30 5280 C 469.815 5.02677 3.72917 0
M  V30 5281 H 470.048 2.76501 1.09245 0
M  V30 5282 H 467.581 1.47537 0.455211 0
M  V30 5283 H 469.539 2.13345 3.50705 0
M  V30 5284 H 468.2 1.11391 2.93685 0
M  V30 5285 H 467.393 3.34418 3.77069 0
M  V30 5286 H 466.995 3.12781 2.05046 0
M  V30 5287 H 469.287 4.89546 4.68349 0
M  V30 5288 H 470.23 6.0468 3.68467 0
M  V30 5289 H 470.638 4.30561 3.65072 0
M  V30 5290 N 470.036 -0.519951 1.48776 0
M  V30 5291 C 471.452 -0.849418 1.35119 0
M  V30 5292 C 471.652 -1.98077 0.36982 0
M  V30 5293 O 470.708 -2.51664 -0.205359 0
M  V30 5294 C 472.021 -1.20748 2.75391 0
M  V30 5295 C 473.569 -1.31679 2.83954 0
M  V30 5296 C 474.044 -1.70824 4.24951 0
M  V30 5297 N 475.535 -1.77908 4.27672 0
M  V30 5298 C 476.27 -2.09603 5.33717 0
M  V30 5299 N 475.766 -2.39652 6.5003 0
M  V30 5300 N 477.559 -2.10694 5.21119 0
M  V30 5301 H 469.71 0.226377 2.1119 0
M  V30 5302 H 471.973 0.0386519 0.947212 0
M  V30 5303 H 471.679 -0.449703 3.48813 0
M  V30 5304 H 471.553 -2.15534 3.09556 0
M  V30 5305 H 473.94 -2.06532 2.10781 0
M  V30 5306 H 474.021 -0.3499 2.53396 0
M  V30 5307 H 473.665 -0.965282 4.98643 0
M  V30 5308 H 473.595 -2.6858 4.52959 0
M  V30 5309 H 476.086 -1.56923 3.43779 0
M  V30 5310 H 476.399 -2.6297 7.26682 0
M  V30 5311 H 474.744 -2.37149 6.53288 0
M  V30 5312 H 477.935 -1.86682 4.29264 0
M  V30 5313 H 478.108 -2.35062 6.03863 0
M  V30 5314 N 471.514 -1.37532 -0.769588 0
M  V30 5315 C 472.461 -1.3347 -1.88293 0
M  V30 5316 C 473.431 -0.199891 -1.64893 0
M  V30 5317 O 474.616 -0.389594 -1.8678 0
M  V30 5318 C 471.756 -1.14968 -3.25387 0
M  V30 5319 C 470.869 -2.37698 -3.60727 0
M  V30 5320 C 470.004 -2.12051 -4.8704 0
M  V30 5321 C 469.043 -3.30636 -5.15117 0
M  V30 5322 N 468.18 -3.04527 -6.3262 0
M  V30 5323 H 473.02 -2.28658 -1.911 0
M  V30 5324 H 470.557 -1.13622 -0.934257 0
M  V30 5325 H 472.515 -1.02261 -4.04473 0
M  V30 5326 H 471.145 -0.234263 -3.21949 0
M  V30 5327 H 470.197 -2.61137 -2.76608 0
M  V30 5328 H 471.509 -3.26131 -3.77413 0
M  V30 5329 H 470.663 -1.96388 -5.74035 0
M  V30 5330 H 469.402 -1.20959 -4.72462 0
M  V30 5331 H 468.407 -3.46836 -4.26597 0
M  V30 5332 H 469.632 -4.22582 -5.31603 0
M  V30 5333 H 467.578 -2.16067 -6.19396 0
M  V30 5334 H 467.495 -3.86503 -6.49732 0
M  V30 5335 H 468.763 -2.92485 -7.22546 0
M  V30 5336 N 472.992 0.995999 -1.22138 0
M  V30 5337 C 474.269 1.70834 -0.952642 0
M  V30 5338 C 474.649 2.04257 0.533119 0
M  V30 5339 O 473.997 1.72343 1.50034 0
M  V30 5340 C 474.207 2.96119 -1.84701 0
M  V30 5341 C 475.555 3.68962 -2.10124 0
M  V30 5342 O 476.579 3.0612 -1.82124 0
M  V30 5343 O 475.438 4.82017 -2.57531 0
M  V30 5344 H 472.532 0.745498 -0.357997 0
M  V30 5345 H 475.078 1.05262 -1.33109 0
M  V30 5346 H 473.85 2.67898 -2.85213 0
M  V30 5347 H 473.473 3.6943 -1.46995 0
M  V30 5348 N 474.47 1.03057 1.19235 0
M  V30 5349 C 475.417 0.612832 2.22515 0
M  V30 5350 C 476.387 -0.374224 1.61829 0
M  V30 5351 O 477.572 -0.270501 1.88873 0
M  V30 5352 C 474.712 -0.028475 3.45088 0
M  V30 5353 C 473.825 1.00483 4.20151 0
M  V30 5354 C 472.96 0.333102 5.30155 0
M  V30 5355 C 471.999 1.3522 5.96977 0
M  V30 5356 N 471.136 0.70616 6.9854 0
M  V30 5357 H 475.976 1.49812 2.57605 0
M  V30 5358 H 473.513 0.749658 1.26564 0
M  V30 5359 H 475.471 -0.417548 4.15105 0
M  V30 5360 H 474.101 -0.877334 3.10649 0
M  V30 5361 H 473.153 1.51194 3.49062 0
M  V30 5362 H 474.465 1.77929 4.65986 0
M  V30 5363 H 473.619 -0.110725 6.06599 0
M  V30 5364 H 472.358 -0.473547 4.85396 0
M  V30 5365 H 471.363 1.80627 5.19282 0
M  V30 5366 H 472.588 2.16037 6.4382 0
M  V30 5367 H 470.534 -0.0803667 6.55951 0
M  V30 5368 H 470.451 1.41848 7.42573 0
M  V30 5369 H 471.719 0.286391 7.78974 0
M  V30 5370 N 475.948 -1.35272 0.808662 0
M  V30 5371 C 477.225 -1.93077 0.313181 0
M  V30 5372 C 477.605 -1.73847 -1.19752 0
M  V30 5373 O 476.953 -1.1087 -1.998 0
M  V30 5374 C 477.163 -3.41347 0.726859 0
M  V30 5375 C 478.511 -4.18493 0.717532 0
M  V30 5376 O 479.535 -3.4987 0.668535 0
M  V30 5377 O 478.394 -5.40937 0.777779 0
M  V30 5378 H 475.488 -0.822885 0.0824018 0
M  V30 5379 H 478.034 -1.44335 0.892499 0
M  V30 5380 H 476.806 -3.49082 1.76797 0
M  V30 5381 H 476.429 -3.97411 0.122461 0
M  V30 5382 N 477.426 -0.562348 -1.47226 0
M  V30 5383 C 478.358 0.220011 -2.28142 0
M  V30 5384 C 479.371 0.874596 -1.37312 0
M  V30 5385 O 480.56 0.747583 -1.62091 0
M  V30 5386 C 477.66 1.32953 -3.11732 0
M  V30 5387 C 476.833 0.770759 -4.30556 0
M  V30 5388 C 475.892 1.76541 -4.95701 0
M  V30 5389 O 474.918 1.3095 -5.53932 0
M  V30 5390 N 476.12 3.09896 -4.90861 0
M  V30 5391 H 478.885 -0.474107 -2.95926 0
M  V30 5392 H 476.446 -0.398761 -1.56912 0
M  V30 5393 H 478.438 1.99378 -3.5218 0
M  V30 5394 H 477.008 1.92681 -2.46156 0
M  V30 5395 H 476.228 -0.0704056 -3.94137 0
M  V30 5396 H 477.516 0.376872 -5.07402 0
M  V30 5397 H 476.914 3.49577 -4.44761 0
M  V30 5398 H 475.471 3.71865 -5.35313 0
M  V30 5399 N 478.904 1.54736 -0.299062 0
M  V30 5400 C 479.834 2.26409 0.571085 0
M  V30 5401 C 480.815 1.2629 1.13951 0
M  V30 5402 O 482 1.55059 1.16921 0
M  V30 5403 C 479.13 3.00338 1.74396 0
M  V30 5404 C 478.084 4.07588 1.30599 0
M  V30 5405 C 477.41 4.69222 2.56387 0
M  V30 5406 C 478.71 5.20455 0.438645 0
M  V30 5407 H 480.404 2.99388 -0.0266991 0
M  V30 5408 H 477.95 1.43993 -0.0142812 0
M  V30 5409 H 479.903 3.49198 2.35878 0
M  V30 5410 H 478.627 2.24934 2.36796 0
M  V30 5411 H 477.286 3.59575 0.71424 0
M  V30 5412 H 476.934 3.9046 3.17097 0
M  V30 5413 H 476.634 5.41653 2.27784 0
M  V30 5414 H 478.158 5.20844 3.18675 0
M  V30 5415 H 479.572 5.65221 0.959085 0
M  V30 5416 H 477.969 5.99594 0.246466 0
M  V30 5417 H 479.039 4.8192 -0.536738 0
M  V30 5418 N 480.382 0.0267497 1.57577 0
M  V30 5419 C 481.312 -0.954308 2.13108 0
M  V30 5420 C 482.293 -1.34088 1.04663 0
M  V30 5421 O 483.478 -1.41992 1.32484 0
M  V30 5422 C 480.608 -2.23744 2.65624 0
M  V30 5423 C 479.562 -1.99168 3.78835 0
M  V30 5424 C 478.888 -3.33726 4.17769 0
M  V30 5425 C 480.188 -1.33277 5.0501 0
M  V30 5426 H 481.882 -0.491848 2.95332 0
M  V30 5427 H 479.428 -0.23514 1.42067 0
M  V30 5428 H 481.381 -2.92754 3.03106 0
M  V30 5429 H 480.105 -2.72151 1.80558 0
M  V30 5430 H 478.764 -1.32577 3.41788 0
M  V30 5431 H 478.412 -3.79888 3.29688 0
M  V30 5432 H 478.112 -3.18089 4.94058 0
M  V30 5433 H 479.636 -4.04008 4.57832 0
M  V30 5434 H 481.05 -1.92283 5.40093 0
M  V30 5435 H 479.447 -1.28045 5.8628 0
M  V30 5436 H 480.517 -0.305411 4.83937 0
M  V30 5437 N 481.861 -1.55662 -0.24637 0
M  V30 5438 C 483.091 -1.81312 -0.990438 0
M  V30 5439 C 483.499 -0.600234 -1.79426 0
M  V30 5440 O 482.842 0.440537 -1.78339 0
M  V30 5441 C 482.904 -3.0032 -1.97607 0
M  V30 5442 C 482.568 -4.36322 -1.35912 0
M  V30 5443 C 483.565 -5.14295 -0.761348 0
M  V30 5444 C 481.25 -4.83019 -1.37833 0
M  V30 5445 C 483.244 -6.37114 -0.190998 0
M  V30 5446 C 480.931 -6.05786 -0.804128 0
M  V30 5447 C 481.929 -6.82672 -0.211489 0
M  V30 5448 O 481.617 -8.03121 0.353845 0
M  V30 5449 H 481.349 -0.607233 -0.297058 0
M  V30 5450 H 483.903 -2.0356 -0.274351 0
M  V30 5451 H 482.133 -2.73829 -2.73047 0
M  V30 5452 H 483.822 -3.13057 -2.58361 0
M  V30 5453 H 484.588 -4.79337 -0.739013 0
M  V30 5454 H 480.467 -4.23165 -1.829 0
M  V30 5455 H 484.011 -6.97069 0.272206 0
M  V30 5456 H 479.908 -6.40222 -0.823792 0
M  V30 5457 H 480.676 -8.18131 0.245761 0
M  V30 5458 N 483.339 0.512053 -1.4905 0
M  V30 5459 C 484.271 1.63121 -1.6101 0
M  V30 5460 C 485.284 1.55145 -0.493352 0
M  V30 5461 O 486.473 1.61278 -0.764955 0
M  V30 5462 C 483.573 3.01863 -1.54052 0
M  V30 5463 C 482.746 3.35138 -2.81072 0
M  V30 5464 C 481.805 4.5324 -2.67319 0
M  V30 5465 O 480.831 4.55571 -3.41238 0
M  V30 5466 N 482.033 5.52495 -1.78127 0
M  V30 5467 H 484.798 1.53292 -2.5753 0
M  V30 5468 H 482.359 0.699706 -1.45999 0
M  V30 5469 H 484.351 3.78774 -1.42521 0
M  V30 5470 H 482.921 3.05675 -0.654345 0
M  V30 5471 H 482.141 2.4723 -3.07036 0
M  V30 5472 H 483.429 3.54162 -3.65304 0
M  V30 5473 H 482.827 5.53403 -1.17308 0
M  V30 5474 H 481.384 6.28553 -1.72525 0
M  V30 5475 N 484.817 1.37938 0.762283 0
M  V30 5476 C 485.764 1.34467 1.87583 0
M  V30 5477 C 486.734 0.208633 1.64785 0
M  V30 5478 O 487.919 0.399494 1.86571 0
M  V30 5479 C 485.059 1.16692 3.24772 0
M  V30 5480 C 484.172 2.39608 3.59461 0
M  V30 5481 C 483.307 2.14631 4.85908 0
M  V30 5482 C 482.346 3.33364 5.13357 0
M  V30 5483 N 481.483 3.07877 6.30996 0
M  V30 5484 H 486.323 2.29669 1.89885 0
M  V30 5485 H 483.86 1.14116 0.928219 0
M  V30 5486 H 485.818 1.04405 4.03925 0
M  V30 5487 H 484.448 0.251333 3.2182 0
M  V30 5488 H 483.5 2.626 2.75219 0
M  V30 5489 H 484.812 3.28128 3.75678 0
M  V30 5490 H 483.966 1.99429 5.72986 0
M  V30 5491 H 482.705 1.23463 4.71814 0
M  V30 5492 H 481.71 3.49094 4.24751 0
M  V30 5493 H 482.935 4.25395 5.29354 0
M  V30 5494 H 480.881 2.19348 6.18241 0
M  V30 5495 H 480.798 3.89944 6.47673 0
M  V30 5496 H 482.066 2.96313 7.20985 0
M  V30 5497 N 486.295 -0.989507 1.22664 0
M  V30 5498 C 487.243 -2.10148 0.997035 0
M  V30 5499 C 488.237 -1.6929 -0.0609783 0
M  V30 5500 O 489.443 -1.79766 0.0917523 0
M  V30 5501 H 485.818 -0.687256 0.305259 0
M  V30 5502 H 487.789 -2.26685 1.94053 0
M  V30 5503 C 486.538 -3.4257 0.595085 0
M  V30 5504 H 485.861 -3.74453 1.40089 0
M  V30 5505 H 487.301 -4.21344 0.473869 0
M  V30 5506 C 485.76 -3.29638 -0.695725 0
M  V30 5507 O 486.29 -3.61709 -1.74727 0
M  V30 5508 N 484.496 -2.82814 -0.668173 0
M  V30 5509 H 484.043 -2.56914 0.18787 0
M  V30 5510 H 484.001 -2.74544 -1.5321 0
M  V30 5511 N 487.773 -1.03688 -1.18687 0
M  V30 5512 C 489.022 -0.733235 -1.879 0
M  V30 5513 C 489.335 0.741745 -1.8099 0
M  V30 5514 O 490.541 1.15875 -2.4553 0
M  V30 5515 C 488.997 -1.26127 -3.37076 0
M  V30 5516 C 488.605 -2.76461 -3.52524 0
M  V30 5517 C 490.349 -1.03398 -4.11715 0
M  V30 5518 C 488.256 -3.22642 -4.95637 0
M  V30 5519 H 487.186 -0.270584 -0.703776 0
M  V30 5520 H 489.837 -1.25222 -1.34133 0
M  V30 5521 H 488.219 -0.670165 -3.90288 0
M  V30 5522 H 489.393 -3.41296 -3.09602 0
M  V30 5523 H 487.708 -2.97559 -2.91286 0
M  V30 5524 H 490.305 -1.3542 -5.17267 0
M  V30 5525 H 490.648 0.0289246 -4.1629 0
M  V30 5526 H 491.181 -1.5895 -3.64664 0
M  V30 5527 H 487.92 -4.28296 -4.96228 0
M  V30 5528 H 487.44 -2.62539 -5.39289 0
M  V30 5529 H 489.119 -3.16444 -5.64333 0
M  V30 5530 N 489.251 1.34841 -0.815825 0
M  V30 5531 C 490.491 2.00321 -0.406297 0
M  V30 5532 C 490.855 1.63293 1.00992 0
M  V30 5533 O 492.056 2.21563 1.52195 0
M  V30 5534 C 490.327 3.52421 -0.594469 0
M  V30 5535 S 491.886 4.37926 -0.276735 0
M  V30 5536 H 488.704 0.694155 -0.153848 0
M  V30 5537 H 491.306 1.64263 -1.06009 0
M  V30 5538 H 490.01 3.76858 -1.625 0
M  V30 5539 H 489.541 3.9333 0.0743157 0
M  V30 5540 H 491.556 4.87743 0.912215 0
M  V30 5541 N 490.729 0.570148 1.46925 0
M  V30 5542 C 491.977 0.0508523 2.02036 0
M  V30 5543 C 492.298 -1.30885 1.44548 0
M  V30 5544 O 491.568 -1.85647 0.625453 0
M  V30 5545 H 490.148 0.0158088 0.746833 0
M  V30 5546 H 492.81 0.743086 1.80178 0
M  V30 5547 H 491.906 -0.027575 3.12088 0
M  V30 5548 N 492.207 -1.54576 0.307264 0
M  V30 5549 C 493.455 -1.99867 -0.299574 0
M  V30 5550 C 493.776 -1.19714 -1.53927 0
M  V30 5551 O 493.046 -0.29472 -1.9367 0
M  V30 5552 H 491.626 -0.738299 -0.113683 0
M  V30 5553 H 494.288 -1.9032 0.420042 0
M  V30 5554 H 493.384 -3.06901 -0.567283 0
M  V30 5555 N 493.685 -0.035106 -1.57561 0
M  V30 5556 C 494.615 0.942993 -2.13612 0
M  V30 5557 C 495.596 1.33531 -1.05373 0
M  V30 5558 O 496.781 1.41287 -1.33235 0
M  V30 5559 C 493.911 2.22332 -2.66807 0
M  V30 5560 C 492.865 1.97156 -3.79886 0
M  V30 5561 C 492.191 3.31506 -4.19533 0
M  V30 5562 C 493.491 1.30596 -5.05709 0
M  V30 5563 H 495.185 0.476179 -2.95589 0
M  V30 5564 H 492.731 0.227602 -1.4219 0
M  V30 5565 H 494.684 2.91142 -3.04654 0
M  V30 5566 H 493.408 2.7119 -1.81999 0
M  V30 5567 H 492.067 1.30763 -3.42486 0
M  V30 5568 H 491.715 3.78134 -3.31698 0
M  V30 5569 H 491.415 3.15465 -4.95738 0
M  V30 5570 H 492.939 4.01574 -4.59968 0
M  V30 5571 H 494.353 1.89416 -5.41105 0
M  V30 5572 H 492.75 1.24934 -5.86951 0
M  V30 5573 H 493.82 0.279742 -4.84092 0
M  V30 5574 N 495.163 1.55791 0.238111 0
M  V30 5575 C 496.126 1.90239 1.27835 0
M  V30 5576 C 497.126 0.779552 1.4064 0
M  V30 5577 O 498.316 1.04747 1.3919 0
M  V30 5578 C 495.448 2.13859 2.65475 0
M  V30 5579 H 496.641 2.83262 0.985034 0
M  V30 5580 H 494.194 1.48818 0.477799 0
M  V30 5581 H 494.929 1.23334 2.99932 0
M  V30 5582 H 494.714 2.95643 2.57561 0
M  V30 5583 H 496.204 2.41664 3.40571 0
M  V30 5584 N 496.642 -0.504142 1.49319 0
M  V30 5585 C 497.891 -1.25507 1.57895 0
M  V30 5586 C 498.204 -1.93735 0.269433 0
M  V30 5587 O 499.41 -2.70492 0.233706 0
M  V30 5588 C 497.866 -2.27869 2.78574 0
M  V30 5589 C 497.474 -1.65594 4.16272 0
M  V30 5590 C 499.218 -3.0381 2.96479 0
M  V30 5591 C 497.125 -2.66048 5.28178 0
M  V30 5592 H 496.055 -0.47212 0.587894 0
M  V30 5593 H 498.706 -0.52931 1.757 0
M  V30 5594 H 497.088 -3.03594 2.54257 0
M  V30 5595 H 498.262 -0.958826 4.50714 0
M  V30 5596 H 496.577 -1.02055 4.037 0
M  V30 5597 H 499.174 -3.78925 3.77253 0
M  V30 5598 H 499.517 -3.61235 2.06918 0
M  V30 5599 H 500.05 -2.352 3.20821 0
M  V30 5600 H 496.789 -2.13408 6.19788 0
M  V30 5601 H 496.309 -3.34009 4.98195 0
M  V30 5602 H 497.988 -3.28536 5.57381 0
M  V30 5603 N 498.12 -1.38341 -0.754957 0
M  V30 5604 C 499.083 -1.35262 -1.85032 0
M  V30 5605 C 500.083 -0.253393 -1.58791 0
M  V30 5606 O 501.273 -0.510205 -1.66561 0
M  V30 5607 C 498.405 -1.10544 -3.22479 0
M  V30 5608 H 499.598 -2.32712 -1.8917 0
M  V30 5609 H 497.151 -1.23614 -0.956515 0
M  V30 5610 H 497.886 -0.136952 -3.24011 0
M  V30 5611 H 497.671 -1.90127 -3.4292 0
M  V30 5612 H 499.161 -1.11082 -4.02555 0
M  V30 5613 N 499.598 0.982988 -1.23187 0
M  V30 5614 C 500.823 1.76455 -1.08988 0
M  V30 5615 C 501.248 1.84726 0.354691 0
M  V30 5616 O 500.606 1.30699 1.25649 0
M  V30 5617 C 500.654 3.17094 -1.71708 0
M  V30 5618 O 499.758 4.00648 -0.977477 0
M  V30 5619 H 499.099 0.542988 -0.382177 0
M  V30 5620 H 501.629 1.23413 -1.63188 0
M  V30 5621 H 501.639 3.67684 -1.76841 0
M  V30 5622 H 500.314 3.10389 -2.76823 0
M  V30 5623 H 498.891 3.59161 -1.0029 0
M  V30 5624 N 501.076 1.04316 1.18135 0
M  V30 5625 C 502.306 0.767003 1.91835 0
M  V30 5626 C 502.714 -0.68002 1.76557 0
M  V30 5627 O 502.057 -1.47548 1.09432 0
M  V30 5628 C 502.119 1.05674 3.43618 0
M  V30 5629 C 501.783 2.49818 3.82675 0
M  V30 5630 C 502.78 3.48003 3.86251 0
M  V30 5631 C 500.465 2.84596 4.13897 0
M  V30 5632 C 502.459 4.79016 4.20503 0
M  V30 5633 C 500.146 4.15813 4.4782 0
M  V30 5634 C 501.144 5.12834 4.51099 0
M  V30 5635 O 500.832 6.41699 4.84229 0
M  V30 5636 H 500.564 0.278948 0.615763 0
M  V30 5637 H 503.118 1.3946 1.50798 0
M  V30 5638 H 501.348 0.372029 3.84906 0
M  V30 5639 H 503.037 0.767994 3.98568 0
M  V30 5640 H 503.803 3.22475 3.62264 0
M  V30 5641 H 499.682 2.09748 4.1052 0
M  V30 5642 H 503.226 5.54739 4.22978 0
M  V30 5643 H 499.123 4.41109 4.71268 0
M  V30 5644 H 499.891 6.46387 5.02121 0
M  V30 5645 N 502.554 -1.34406 0.822964 0
M  V30 5646 C 503.779 -2.0304 0.423034 0
M  V30 5647 C 504.204 -1.61568 -0.963196 0
M  V30 5648 O 503.562 -0.800339 -1.62678 0
M  V30 5649 C 503.61 -3.56636 0.53321 0
M  V30 5650 O 502.714 -4.09971 -0.446939 0
M  V30 5651 H 502.055 -0.64075 0.174171 0
M  V30 5652 H 504.585 -1.71653 1.11339 0
M  V30 5653 H 504.595 -4.05945 0.408991 0
M  V30 5654 H 503.27 -3.86168 1.54425 0
M  V30 5655 H 501.847 -3.71835 -0.281601 0
M  V30 5656 N 504.032 -0.577932 -1.46621 0
M  V30 5657 C 505.262 -0.0670668 -2.06491 0
M  V30 5658 C 505.67 1.24119 -1.42798 0
M  V30 5659 O 505.013 1.76016 -0.525759 0
M  V30 5660 C 505.075 0.177995 -3.59059 0
M  V30 5661 C 504.739 -1.04394 -4.44917 0
M  V30 5662 C 505.736 -1.95479 -4.81751 0
M  V30 5663 C 503.421 -1.26444 -4.86125 0
M  V30 5664 C 505.415 -3.06965 -5.58615 0
M  V30 5665 C 503.102 -2.38237 -5.62749 0
M  V30 5666 C 504.1 -3.28327 -5.98908 0
M  V30 5667 O 503.788 -4.38179 -6.73984 0
M  V30 5668 H 503.52 -0.0523159 -0.673973 0
M  V30 5669 H 506.074 -0.796966 -1.89308 0
M  V30 5670 H 504.304 0.962451 -3.74531 0
M  V30 5671 H 505.993 0.636782 -4.00874 0
M  V30 5672 H 506.759 -1.79657 -4.50498 0
M  V30 5673 H 502.638 -0.572316 -4.57434 0
M  V30 5674 H 506.182 -3.77309 -5.86757 0
M  V30 5675 H 502.079 -2.54023 -5.93416 0
M  V30 5676 H 502.847 -4.36486 -6.92403 0
M  V30 5677 N 505.51 1.54411 -0.315457 0
M  V30 5678 C 506.74 2.04536 0.291315 0
M  V30 5679 C 507.148 1.19162 1.4696 0
M  V30 5680 O 506.491 0.213199 1.82459 0
M  V30 5681 C 506.553 3.5056 0.796725 0
M  V30 5682 C 506.217 4.5627 -0.258178 0
M  V30 5683 C 507.214 5.08312 -1.09153 0
M  V30 5684 C 504.899 5.00672 -0.404036 0
M  V30 5685 C 506.893 6.03312 -2.05655 0
M  V30 5686 C 504.58 5.95488 -1.37248 0
M  V30 5687 C 505.578 6.46693 -2.19721 0
M  V30 5688 O 505.266 7.39648 -3.14921 0
M  V30 5689 H 504.998 0.672856 0.0651165 0
M  V30 5690 H 507.552 2.00244 -0.457308 0
M  V30 5691 H 505.782 3.52223 1.59612 0
M  V30 5692 H 507.471 3.83804 1.32096 0
M  V30 5693 H 508.237 4.74793 -0.98979 0
M  V30 5694 H 504.116 4.60436 0.22799 0
M  V30 5695 H 507.66 6.43203 -2.70067 0
M  V30 5696 H 503.557 6.28424 -1.47489 0
M  V30 5697 H 504.325 7.57496 -3.10067 0
M  V30 5698 N 506.988 0.0434614 1.5754 0
M  V30 5699 C 507.935 -0.93356 2.11077 0
M  V30 5700 C 508.905 -1.31383 1.01626 0
M  V30 5701 O 510.09 -1.40465 1.29129 0
M  V30 5702 C 507.23 -2.20578 2.65404 0
M  V30 5703 C 506.343 -1.88068 3.88914 0
M  V30 5704 C 505.478 -3.09691 4.31584 0
M  V30 5705 C 504.517 -2.73067 5.47815 0
M  V30 5706 N 503.654 -3.87359 5.85574 0
M  V30 5707 H 508.494 -0.470118 2.94268 0
M  V30 5708 H 506.031 -0.220434 1.45439 0
M  V30 5709 H 507.989 -2.95011 2.94999 0
M  V30 5710 H 506.619 -2.64513 1.85021 0
M  V30 5711 H 505.671 -1.03816 3.6596 0
M  V30 5712 H 506.983 -1.57104 4.73413 0
M  V30 5713 H 506.137 -3.92431 4.62691 0
M  V30 5714 H 504.876 -3.43827 3.45882 0
M  V30 5715 H 503.881 -1.88742 5.16388 0
M  V30 5716 H 505.106 -2.40131 6.35227 0
M  V30 5717 H 503.052 -4.21311 5.02825 0
M  V30 5718 H 502.969 -3.60068 6.64746 0
M  V30 5719 H 504.237 -4.70761 6.21292 0
M  V30 5720 N 508.466 -1.55915 -0.229846 0
M  V30 5721 C 509.413 -1.91734 -1.28478 0
M  V30 5722 C 510.383 -0.773539 -1.46988 0
M  V30 5723 O 511.568 -1.02871 -1.60693 0
M  V30 5724 C 508.708 -2.23224 -2.63182 0
M  V30 5725 C 507.821 -3.50497 -2.52539 0
M  V30 5726 C 506.956 -3.71474 -3.79711 0
M  V30 5727 C 505.995 -4.92289 -3.63755 0
M  V30 5728 N 505.132 -5.09698 -4.82858 0
M  V30 5729 H 509.972 -2.81692 -0.972308 0
M  V30 5730 H 507.509 -1.39429 -0.468815 0
M  V30 5731 H 509.467 -2.3949 -3.41614 0
M  V30 5732 H 508.097 -1.36451 -2.92542 0
M  V30 5733 H 507.149 -3.4247 -1.65585 0
M  V30 5734 H 508.461 -4.39079 -2.36666 0
M  V30 5735 H 507.615 -3.87791 -4.66586 0
M  V30 5736 H 506.354 -2.81157 -3.985 0
M  V30 5737 H 505.359 -4.7593 -2.75264 0
M  V30 5738 H 506.584 -5.84083 -3.46445 0
M  V30 5739 H 504.53 -4.22322 -5.01976 0
M  V30 5740 H 504.447 -5.92399 -4.69681 0
M  V30 5741 H 505.715 -5.30443 -5.71183 0
M  V30 5742 N 509.944 0.496216 -1.49584 0
M  V30 5743 C 511.19 1.25189 -1.59548 0
M  V30 5744 C 511.523 1.9212 -0.283466 0
M  V30 5745 O 510.798 1.80947 0.713324 0
M  V30 5746 C 511.081 2.31516 -2.75812 0
M  V30 5747 C 510.934 1.69054 -4.16822 0
M  V30 5748 C 512.253 3.3304 -2.87702 0
M  V30 5749 H 509.372 0.45379 -0.580727 0
M  V30 5750 H 512.014 0.549327 -1.81886 0
M  V30 5751 H 510.164 2.91438 -2.56897 0
M  V30 5752 H 511.836 1.12923 -4.47265 0
M  V30 5753 H 510.079 0.994485 -4.22247 0
M  V30 5754 H 510.75 2.462 -4.94054 0
M  V30 5755 H 513.226 2.83114 -3.04936 0
M  V30 5756 H 512.102 4.04794 -3.7072 0
M  V30 5757 H 512.363 3.95655 -1.97255 0
M  V30 5758 N 511.423 1.38739 0.74761 0
M  V30 5759 C 512.7 1.25791 1.49786 0
M  V30 5760 C 513.08 -0.138075 2.10648 0
M  V30 5761 O 512.428 -1.14815 1.9756 0
M  V30 5762 C 512.638 2.37265 2.55942 0
M  V30 5763 C 513.986 2.75978 3.22679 0
M  V30 5764 O 515.01 2.36621 2.6625 0
M  V30 5765 O 513.869 3.43867 4.24756 0
M  V30 5766 H 510.963 0.492251 0.664543 0
M  V30 5767 H 513.509 1.50582 0.782511 0
M  V30 5768 H 512.281 3.30644 2.0926 0
M  V30 5769 H 511.904 2.14071 3.35051 0
M  V30 5770 N 512.901 -0.976442 1.23707 0
M  V30 5771 C 513.831 -2.08749 1.04624 0
M  V30 5772 C 514.812 -1.70057 -0.0380956 0
M  V30 5773 O 515.997 -1.93782 0.127308 0
M  V30 5774 C 513.127 -3.41335 0.640902 0
M  V30 5775 C 512.081 -3.93947 1.67302 0
M  V30 5776 C 511.407 -5.22774 1.12301 0
M  V30 5777 C 512.707 -4.22769 3.06697 0
M  V30 5778 H 514.401 -2.24972 1.97555 0
M  V30 5779 H 511.947 -1.08108 0.951247 0
M  V30 5780 H 513.9 -4.18489 0.494434 0
M  V30 5781 H 512.624 -3.24988 -0.324099 0
M  V30 5782 H 511.283 -3.18941 1.80755 0
M  V30 5783 H 510.931 -5.0278 0.148877 0
M  V30 5784 H 510.631 -5.58942 1.81267 0
M  V30 5785 H 512.155 -6.02546 0.988479 0
M  V30 5786 H 513.569 -4.90659 2.96524 0
M  V30 5787 H 511.966 -4.70147 3.72937 0
M  V30 5788 H 513.036 -3.29885 3.55392 0
M  V30 5789 N 514.379 -1.04941 -1.1758 0
M  V30 5790 C 515.628 -0.753124 -1.87112 0
M  V30 5791 C 515.941 0.722507 -1.81767 0
M  V30 5792 O 517.147 1.13265 -2.46746 0
M  V30 5793 C 515.603 -1.29695 -3.35719 0
M  V30 5794 C 515.211 -2.80184 -3.49572 0
M  V30 5795 C 516.955 -1.07759 -4.10595 0
M  V30 5796 C 514.862 -3.2788 -4.92187 0
M  V30 5797 H 513.792 -0.278034 -0.700866 0
M  V30 5798 H 516.443 -1.26637 -1.32798 0
M  V30 5799 H 514.825 -0.711522 -3.89555 0
M  V30 5800 H 515.999 -3.44561 -3.05965 0
M  V30 5801 H 514.314 -3.00632 -2.88113 0
M  V30 5802 H 516.911 -1.40899 -5.15802 0
M  V30 5803 H 517.254 -0.0152302 -4.16297 0
M  V30 5804 H 517.787 -1.62809 -3.62957 0
M  V30 5805 H 514.526 -4.33535 -4.91658 0
M  V30 5806 H 514.046 -2.68245 -5.36475 0
M  V30 5807 H 515.725 -3.22412 -5.60945 0
M  V30 5808 N 515.857 1.33968 -0.830081 0
M  V30 5809 C 517.273 1.51003 -0.516742 0
M  V30 5810 C 517.473 1.77286 0.957694 0
M  V30 5811 O 516.529 1.82797 1.74188 0
M  V30 5812 C 517.842 2.67036 -1.38247 0
M  V30 5813 C 519.39 2.80919 -1.38034 0
M  V30 5814 C 519.865 4.00004 -2.23071 0
M  V30 5815 N 521.356 4.07224 -2.20733 0
M  V30 5816 C 522.091 4.98541 -2.83275 0
M  V30 5817 N 521.587 5.95033 -3.54835 0
M  V30 5818 N 523.38 4.91469 -2.72791 0
M  V30 5819 H 515.531 1.15168 -1.78466 0
M  V30 5820 H 517.794 0.565443 -0.760906 0
M  V30 5821 H 517.5 2.54266 -2.42985 0
M  V30 5822 H 517.374 3.62226 -1.05225 0
M  V30 5823 H 519.761 2.93127 -0.340713 0
M  V30 5824 H 519.842 1.86517 -1.75057 0
M  V30 5825 H 519.486 3.88557 -3.27087 0
M  V30 5826 H 519.416 4.93634 -1.83394 0
M  V30 5827 H 521.907 3.38162 -1.68687 0
M  V30 5828 H 522.22 6.61357 -3.99784 0
M  V30 5829 H 520.565 5.95135 -3.58942 0
M  V30 5830 H 523.756 4.15048 -2.16456 0
M  V30 5831 H 523.929 5.62439 -3.21818 0
M  V30 5832 N 517.335 0.585699 1.46312 0
M  V30 5833 C 518.581 0.0725284 2.0267 0
M  V30 5834 C 518.914 -1.28523 1.45586 0
M  V30 5835 O 518.189 -1.84283 0.622101 0
M  V30 5836 C 518.472 0.0099788 3.60099 0
M  V30 5837 C 518.325 1.39685 4.27561 0
M  V30 5838 C 519.644 -0.689117 4.34671 0
M  V30 5839 H 516.763 0.0278307 0.736474 0
M  V30 5840 H 519.405 0.753472 1.74421 0
M  V30 5841 H 517.555 -0.56992 3.84297 0
M  V30 5842 H 519.227 2.02215 4.14617 0
M  V30 5843 H 517.47 1.96374 3.86807 0
M  V30 5844 H 518.141 1.30553 5.36339 0
M  V30 5845 H 520.617 -0.196446 4.15636 0
M  V30 5846 H 519.493 -0.701921 5.44393 0
M  V30 5847 H 519.754 -1.75101 4.05946 0
M  V30 5848 N 518.813 -1.54241 0.323641 0
M  V30 5849 C 519.763 -2.21071 -0.557833 0
M  V30 5850 C 520.747 -1.19126 -1.08157 0
M  V30 5851 O 521.939 -1.44755 -1.01857 0
M  V30 5852 C 519.068 -2.97208 -1.71821 0
M  V30 5853 C 518.154 -4.06491 -1.20936 0
M  V30 5854 N 518.545 -5.04052 -0.420202 0
M  V30 5855 C 516.843 -4.20443 -1.48808 0
M  V30 5856 C 517.544 -5.81516 -0.146413 0
M  V30 5857 N 516.52 -5.38641 -0.732562 0
M  V30 5858 H 520.322 -2.93853 0.0523921 0
M  V30 5859 H 517.836 -1.61883 0.129502 0
M  V30 5860 H 519.833 -3.4357 -2.36146 0
M  V30 5861 H 518.493 -2.25947 -2.33191 0
M  V30 5862 H 519.504 -5.17862 -0.0630401 0
M  V30 5863 H 516.181 -3.60396 -2.10762 0
M  V30 5864 H 517.571 -6.70119 0.488895 0
M  V30 5865 N 520.291 -0.0518155 -1.57515 0
M  V30 5866 C 521.568 0.661727 -1.84067 0
M  V30 5867 C 521.948 1.88999 -0.940351 0
M  V30 5868 O 521.296 2.285 -0.00155404 0
M  V30 5869 C 521.506 1.01841 -3.3381 0
M  V30 5870 C 522.854 1.40043 -4.00841 0
M  V30 5871 O 523.878 1.11073 -3.38439 0
M  V30 5872 O 522.737 1.94111 -5.10865 0
M  V30 5873 H 519.831 0.326702 -0.759733 0
M  V30 5874 H 522.377 -0.0812277 -1.69505 0
M  V30 5875 H 521.149 0.145202 -3.91031 0
M  V30 5876 H 520.772 1.81879 -3.53562 0
M  V30 5877 N 521.769 1.56035 0.221574 0
M  V30 5878 C 523.015 1.79312 0.947372 0
M  V30 5879 C 523.348 0.621453 1.83988 0
M  V30 5880 O 522.623 -0.379287 1.90766 0
M  V30 5881 C 522.906 3.1267 1.78633 0
M  V30 5882 C 522.759 4.40284 0.920312 0
M  V30 5883 C 524.078 3.4247 2.7641 0
M  V30 5884 H 521.197 0.652328 0.342982 0
M  V30 5885 H 523.839 1.88765 0.216244 0
M  V30 5886 H 521.989 3.04741 2.40967 0
M  V30 5887 H 523.661 4.60232 0.313718 0
M  V30 5888 H 521.904 4.33212 0.225734 0
M  V30 5889 H 522.575 5.30033 1.54171 0
M  V30 5890 H 525.051 3.50526 2.24211 0
M  V30 5891 H 523.927 4.3695 3.32213 0
M  V30 5892 H 524.188 2.64635 3.54148 0
M  V30 5893 N 523.247 -0.488276 1.49845 0
M  V30 5894 C 524.177 -1.59675 1.70371 0
M  V30 5895 C 525.158 -1.60878 0.552473 0
M  V30 5896 O 526.343 -1.77417 0.78973 0
M  V30 5897 C 523.473 -2.98098 1.782 0
M  V30 5898 C 522.427 -3.11761 2.93239 0
M  V30 5899 C 521.753 -4.51661 2.86193 0
M  V30 5900 C 523.053 -2.90589 4.33999 0
M  V30 5901 H 524.747 -1.42752 2.63177 0
M  V30 5902 H 522.293 -0.685317 1.26647 0
M  V30 5903 H 524.246 -3.75555 1.91144 0
M  V30 5904 H 522.97 -3.16138 0.820018 0
M  V30 5905 H 521.629 -2.36732 2.79917 0
M  V30 5906 H 521.277 -4.66595 1.87877 0
M  V30 5907 H 520.977 -4.61742 3.63412 0
M  V30 5908 H 522.501 -5.31162 3.01163 0
M  V30 5909 H 523.915 -3.57807 4.47936 0
M  V30 5910 H 522.312 -3.1213 5.12538 0
M  V30 5911 H 523.382 -1.86595 4.4756 0
M  V30 5912 N 524.725 -1.39134 -0.740242 0
M  V30 5913 C 525.635 -1.39697 -1.88473 0
M  V30 5914 C 526.651 -0.292403 -1.71526 0
M  V30 5915 O 527.827 -0.533021 -1.94219 0
M  V30 5916 C 524.892 -1.23382 -3.24003 0
M  V30 5917 C 523.953 -2.43763 -3.53381 0
M  V30 5918 C 523.186 -2.28216 -4.82445 0
M  V30 5919 O 523.409 -1.28288 -5.55786 0
M  V30 5920 O 522.343 -3.1709 -5.11603 0
M  V30 5921 H 526.169 -2.36159 -1.90952 0
M  V30 5922 H 523.754 -1.20194 -0.887346 0
M  V30 5923 H 525.636 -1.16395 -4.05006 0
M  V30 5924 H 524.311 -0.300121 -3.22306 0
M  V30 5925 H 523.218 -2.56325 -2.72485 0
M  V30 5926 H 524.551 -3.35808 -3.59852 0
M  V30 5927 N 526.204 0.969867 -1.24223 0
M  V30 5928 C 527.432 1.74756 -1.10761 0
M  V30 5929 C 527.847 1.85713 0.340041 0
M  V30 5930 O 527.204 1.34389 1.23474 0
M  V30 5931 C 527.255 3.16915 -1.73917 0
M  V30 5932 O 526.976 3.06511 -3.13021 0
M  V30 5933 C 528.477 4.11032 -1.66036 0
M  V30 5934 H 525.697 0.548092 -0.387087 0
M  V30 5935 H 528.241 1.2178 -1.64286 0
M  V30 5936 H 526.396 3.66884 -1.244 0
M  V30 5937 H 526.81 3.96079 -3.43834 0
M  V30 5938 H 528.284 5.08446 -2.14911 0
M  V30 5939 H 528.761 4.34785 -0.621159 0
M  V30 5940 H 529.367 3.66972 -2.14969 0
M  V30 5941 N 527.682 1.05563 1.17022 0
M  V30 5942 C 528.629 0.659893 2.21165 0
M  V30 5943 C 529.599 -0.339813 1.62587 0
M  V30 5944 O 530.784 -0.230378 1.89404 0
M  V30 5945 C 527.924 0.0447297 3.45071 0
M  V30 5946 C 527.037 1.09372 4.17926 0
M  V30 5947 C 526.172 0.445481 5.29329 0
M  V30 5948 C 525.211 1.47852 5.93975 0
M  V30 5949 N 524.348 0.854172 6.96885 0
M  V30 5950 H 529.188 1.55243 2.54369 0
M  V30 5951 H 526.725 0.776336 1.24946 0
M  V30 5952 H 528.683 -0.329404 4.15898 0
M  V30 5953 H 527.313 -0.811244 3.1244 0
M  V30 5954 H 526.365 1.58564 3.45777 0
M  V30 5955 H 527.677 1.87773 4.62107 0
M  V30 5956 H 526.831 0.0179688 6.06697 0
M  V30 5957 H 525.57 -0.370481 4.86291 0
M  V30 5958 H 524.575 1.91601 5.15334 0
M  V30 5959 H 525.8 2.29645 6.39093 0
M  V30 5960 H 523.746 0.0587882 6.55974 0
M  V30 5961 H 523.663 1.57567 7.39397 0
M  V30 5962 H 524.931 0.451559 7.78191 0
M  V30 5963 N 529.16 -1.33526 0.837174 0
M  V30 5964 C 530.385 -2.0258 0.444545 0
M  V30 5965 C 530.81 -1.6258 -0.946006 0
M  V30 5966 O 530.168 -0.817548 -1.6182 0
M  V30 5967 C 530.216 -3.5605 0.571006 0
M  V30 5968 O 529.32 -4.10422 -0.403431 0
M  V30 5969 H 528.661 -0.638866 0.180958 0
M  V30 5970 H 531.191 -1.70462 1.13154 0
M  V30 5971 H 531.201 -4.05488 0.452024 0
M  V30 5972 H 529.876 -3.84509 1.58512 0
M  V30 5973 H 528.453 -3.72113 -0.242147 0
M  V30 5974 N 530.638 -0.59345 -1.46 0
M  V30 5975 C 531.884 -0.0832754 -2.02629 0
M  V30 5976 C 532.217 1.27749 -1.46266 0
M  V30 5977 O 531.492 1.8395 -0.631866 0
M  V30 5978 C 531.775 -0.0290756 -3.60088 0
M  V30 5979 C 531.628 -1.41951 -4.26814 0
M  V30 5980 C 532.947 0.666055 -4.35031 0
M  V30 5981 H 530.066 -0.031736 -0.736316 0
M  V30 5982 H 532.708 -0.762711 -1.74019 0
M  V30 5983 H 530.858 0.549532 -3.84594 0
M  V30 5984 H 532.53 -2.04411 -4.13538 0
M  V30 5985 H 530.773 -1.98422 -3.8576 0
M  V30 5986 H 531.444 -1.33395 -5.3564 0
M  V30 5987 H 533.92 0.174401 -4.15734 0
M  V30 5988 H 532.796 0.673041 -5.44758 0
M  V30 5989 H 533.057 1.72946 -4.06869 0
M  V30 5990 N 532.116 1.54067 -0.331816 0
M  V30 5991 C 533.046 2.27569 0.522932 0
M  V30 5992 C 534.027 1.28679 1.11247 0
M  V30 5993 O 535.212 1.57504 1.13605 0
M  V30 5994 C 532.342 3.0397 1.67987 0
M  V30 5995 C 531.296 4.10267 1.21924 0
M  V30 5996 C 530.622 4.74555 2.46377 0
M  V30 5997 C 531.922 5.21268 0.32815 0
M  V30 5998 H 533.616 2.99264 -0.0901977 0
M  V30 5999 H 531.162 1.4393 -0.044821 0
M  V30 6000 H 533.115 3.54123 2.28418 0
M  V30 6001 H 531.839 2.29906 2.31971 0
M  V30 6002 H 530.498 3.61009 0.637809 0
M  V30 6003 H 530.146 3.97098 3.08743 0
M  V30 6004 H 529.846 5.46363 2.16243 0
M  V30 6005 H 531.37 5.27487 3.07555 0
M  V30 6006 H 532.784 5.67128 0.838978 0
M  V30 6007 H 531.181 5.99982 0.119228 0
M  V30 6008 H 532.251 4.80673 -0.638839 0
M  V30 6009 N 533.594 0.0601682 1.57485 0
M  V30 6010 C 534.871 -0.651956 1.84415 0
M  V30 6011 C 535.251 -1.88498 0.950361 0
M  V30 6012 O 534.599 -2.28496 0.0136719 0
M  V30 6013 C 534.809 -1.00069 3.34346 0
M  V30 6014 C 536.157 -1.37915 4.01578 0
M  V30 6015 O 537.181 -1.09277 3.39024 0
M  V30 6016 O 536.04 -1.91399 5.11887 0
M  V30 6017 H 533.134 -0.322668 0.761455 0
M  V30 6018 H 535.68 0.0902159 1.6946 0
M  V30 6019 H 534.452 -0.124463 3.91102 0
M  V30 6020 H 534.075 -1.80001 3.54521 0
M  V30 6021 N 535.072 -1.5615 -0.213296 0
M  V30 6022 C 536.318 -1.79812 -0.937849 0
M  V30 6023 C 536.651 -0.631201 -1.83656 0
M  V30 6024 O 535.926 0.369165 -1.90964 0
M  V30 6025 C 536.209 -3.13613 -1.76972 0
M  V30 6026 C 536.062 -4.40766 -0.89695 0
M  V30 6027 C 537.381 -3.43931 -2.7459 0
M  V30 6028 H 534.5 -0.654138 -0.339518 0
M  V30 6029 H 537.142 -1.88877 -0.20623 0
M  V30 6030 H 535.292 -3.06015 -2.39347 0
M  V30 6031 H 536.964 -4.60392 -0.289306 0
M  V30 6032 H 535.207 -4.33326 -0.202756 0
M  V30 6033 H 535.878 -5.30843 -1.51358 0
M  V30 6034 H 538.354 -3.5171 -2.22349 0
M  V30 6035 H 537.23 -4.38706 -3.29891 0
M  V30 6036 H 537.491 -2.6651 -3.52739 0
M  V30 6037 N 536.55 0.480323 -1.50102 0
M  V30 6038 C 537.48 1.58769 -1.71215 0
M  V30 6039 C 538.461 1.60583 -0.560997 0
M  V30 6040 O 539.646 1.76996 -0.799127 0
M  V30 6041 C 536.776 2.97148 -1.79778 0
M  V30 6042 C 535.73 3.10201 -2.94888 0
M  V30 6043 C 535.056 4.50137 -2.88584 0
M  V30 6044 C 536.356 2.88283 -4.35534 0
M  V30 6045 H 538.05 1.41354 -2.6393 0
M  V30 6046 H 535.596 0.678591 -1.27008 0
M  V30 6047 H 537.549 3.74536 -1.93133 0
M  V30 6048 H 536.273 3.15699 -0.836772 0
M  V30 6049 H 534.932 2.35244 -2.81169 0
M  V30 6050 H 534.58 4.65593 -1.90349 0
M  V30 6051 H 534.28 4.59808 -3.65856 0
M  V30 6052 H 535.804 5.29558 -3.03976 0
M  V30 6053 H 537.218 3.55427 -4.49827 0
M  V30 6054 H 535.615 3.09408 -5.14186 0
M  V30 6055 H 536.685 1.84219 -4.48544 0
M  V30 6056 N 538.028 1.39524 0.732853 0
M  V30 6057 C 539.256 1.40143 1.52209 0
M  V30 6058 C 539.671 -0.00348836 1.888 0
M  V30 6059 O 539.028 -0.975357 1.5425 0
M  V30 6060 C 539.079 2.27632 2.8083 0
M  V30 6061 O 538.8 3.62654 2.45792 0
M  V30 6062 C 540.301 2.36658 3.74844 0
M  V30 6063 H 537.521 0.478604 0.470297 0
M  V30 6064 H 540.065 1.83366 0.905388 0
M  V30 6065 H 538.22 1.87818 3.38826 0
M  V30 6066 H 538.634 4.08941 3.28431 0
M  V30 6067 H 540.108 3.02118 4.61984 0
M  V30 6068 H 540.585 1.38638 4.16745 0
M  V30 6069 H 541.191 2.76951 3.22766 0
M  V30 6070 N 539.506 -0.963266 1.24736 0
M  V30 6071 C 540.453 -2.05857 1.04363 0
M  V30 6072 C 541.423 -1.6604 -0.0444951 0
M  V30 6073 O 542.608 -1.90477 0.110999 0
M  V30 6074 C 539.748 -3.38745 0.659235 0
M  V30 6075 C 538.861 -3.9173 1.82131 0
M  V30 6076 C 537.996 -5.12906 1.38208 0
M  V30 6077 C 537.035 -5.58098 2.51382 0
M  V30 6078 N 536.172 -6.7049 2.08295 0
M  V30 6079 H 541.012 -2.22616 1.98107 0
M  V30 6080 H 538.549 -1.09103 0.986661 0
M  V30 6081 H 540.507 -4.15107 0.417371 0
M  V30 6082 H 539.137 -3.21898 -0.241201 0
M  V30 6083 H 538.189 -3.11966 2.17672 0
M  V30 6084 H 539.501 -4.21225 2.67153 0
M  V30 6085 H 538.655 -5.96657 1.09935 0
M  V30 6086 H 537.394 -4.85105 0.502456 0
M  V30 6087 H 536.399 -4.72917 2.80409 0
M  V30 6088 H 537.624 -5.87911 3.39909 0
M  V30 6089 H 535.57 -6.44416 1.22737 0
M  V30 6090 H 535.487 -6.99458 2.86869 0
M  V30 6091 H 536.755 -7.57672 1.83175 0
M  V30 6092 N 540.985 -1.06182 -1.16461 0
M  V30 6093 C 542.234 -0.772927 -1.86303 0
M  V30 6094 C 542.547 0.703187 -1.82523 0
M  V30 6095 O 543.753 1.10641 -2.47933 0
M  V30 6096 C 542.209 -1.33249 -3.34324 0
M  V30 6097 C 541.817 -2.83876 -3.46581 0
M  V30 6098 C 543.561 -1.12108 -4.09429 0
M  V30 6099 C 541.468 -3.33082 -4.88682 0
M  V30 6100 H 540.398 -0.285452 -0.697878 0
M  V30 6101 H 543.049 -1.28039 -1.31447 0
M  V30 6102 H 541.431 -0.7528 -3.88779 0
M  V30 6103 H 542.605 -3.47786 -3.02293 0
M  V30 6104 H 540.92 -3.03671 -2.84909 0
M  V30 6105 H 543.517 -1.46361 -5.14279 0
M  V30 6106 H 543.86 -0.0593832 -4.16258 0
M  V30 6107 H 544.393 -1.6665 -3.6121 0
M  V30 6108 H 541.132 -4.38726 -4.87032 0
M  V30 6109 H 540.652 -2.73919 -5.33599 0
M  V30 6110 H 542.331 -3.28344 -5.57494 0
M  V30 6111 N 542.463 1.3308 -0.844243 0
M  V30 6112 C 543.74 1.92178 -0.364261 0
M  V30 6113 C 544.12 1.76961 1.15101 0
M  V30 6114 O 543.468 1.16128 1.9679 0
M  V30 6115 C 543.678 3.393 -0.817106 0
M  V30 6116 C 545.026 4.16444 -0.828236 0
M  V30 6117 O 546.05 3.47975 -0.761062 0
M  V30 6118 O 544.909 5.38685 -0.920926 0
M  V30 6119 H 542.003 0.820411 -0.10419 0
M  V30 6120 H 544.549 1.41918 -0.930453 0
M  V30 6121 H 543.321 3.44272 -1.85991 0
M  V30 6122 H 542.944 3.96947 -0.227785 0
M  V30 6123 N 543.941 0.601185 1.45683 0
M  V30 6124 C 544.873 -0.159446 2.28645 0
M  V30 6125 C 545.886 -0.837882 1.39583 0
M  V30 6126 O 547.075 -0.704344 1.64016 0
M  V30 6127 C 544.175 -1.24641 3.15147 0
M  V30 6128 C 543.348 -0.656334 4.32448 0
M  V30 6129 C 542.407 -1.63337 5.00208 0
M  V30 6130 O 541.433 -1.16217 5.57209 0
M  V30 6131 N 542.635 -2.96773 4.98905 0
M  V30 6132 H 545.4 0.5524 2.94565 0
M  V30 6133 H 542.961 0.440223 1.558 0
M  V30 6134 H 544.953 -1.8997 3.57342 0
M  V30 6135 H 543.523 -1.86087 2.51178 0
M  V30 6136 H 542.743 0.174879 3.93812 0
M  V30 6137 H 544.031 -0.242211 5.08223 0
M  V30 6138 H 543.429 -3.37662 4.53873 0
M  V30 6139 H 541.986 -3.57541 5.44984 0
M  V30 6140 N 545.419 -1.53889 0.339982 0
M  V30 6141 C 546.665 -2.01152 -0.258003 0
M  V30 6142 C 546.998 -1.22749 -1.50487 0
M  V30 6143 O 546.273 -0.314156 -1.91946 0
M  V30 6144 C 546.556 -3.55468 -0.575717 0
M  V30 6145 C 546.409 -4.44584 0.682996 0
M  V30 6146 C 547.728 -4.1768 -1.38677 0
M  V30 6147 H 544.847 -0.731198 -0.0922992 0
M  V30 6148 H 547.489 -1.84352 0.459814 0
M  V30 6149 H 545.639 -3.69914 -1.18725 0
M  V30 6150 H 547.311 -4.41981 1.32102 0
M  V30 6151 H 545.554 -4.13592 1.3086 0
M  V30 6152 H 546.225 -5.5043 0.416001 0
M  V30 6153 H 548.701 -4.0691 -0.869705 0
M  V30 6154 H 547.577 -5.25734 -1.57783 0
M  V30 6155 H 547.838 -3.72069 -2.38782 0
M  V30 6156 O 546.936 -0.208127 -1.60153 0
M  V30 6157 H 547.627 0.374888 -1.90038 0
M  V30 END ATOM
M  V30 BEGIN BOND
M  V30 END BOND
M  V30 END CTAB
M  END
$$$$
