drugbank_target|Q27796 Hypoxanthine-guanine phosphoribosyltransferase (DB01632; DB01942; DB04198; DB04566)
 OpenBabel12092120223D

  0  0  0     0  0            999 V3000
M  V30 BEGIN CTAB
M  V30 COUNTS 3602 3637 0 0 0
M  V30 BEGIN ATOM
M  V30 1 H -0.908 1.98254 -0.117106 0
M  V30 2 N 0 1.576 0 0
M  V30 3 C 0.933 2.03868 1.02534 0
M  V30 4 C 1.911 0.928543 1.3348 0
M  V30 5 O 3.095 1.19667 1.45644 0
M  V30 6 C 0.222 2.43627 2.35294 0
M  V30 7 C -0.732 3.65373 2.2001 0
M  V30 8 S 0.101 5.13292 1.52614 0
M  V30 9 C 1.257 5.56322 2.86805 0
M  V30 10 H 1.49 2.90518 0.631377 0
M  V30 11 H -0.977 1.52953 0.210867 0
M  V30 12 H 0.981 2.67203 3.11629 0
M  V30 13 H -0.358 1.57376 2.7183 0
M  V30 14 H -1.165 3.90944 3.18086 0
M  V30 15 H -1.563 3.418 1.51819 0
M  V30 16 H 0.729 5.58782 3.83104 0
M  V30 17 H 1.672 6.56266 2.65933 0
M  V30 18 H 2.08 4.83886 2.90714 0
M  V30 19 N 1.4781 -0.272755 1.55222 0
M  V30 20 C 2.8891 -0.84378 1.66545 0
M  V30 21 C 3.2401 -1.87035 0.592641 0
M  V30 22 O 2.3651 -2.14761 -0.265818 0
M  V30 23 C 2.9601 -1.53723 3.01918 0
M  V30 24 C 1.5191 -2.05628 3.15268 0
M  V30 25 C 0.6661 -0.898424 2.62343 0
M  V30 26 H 3.6171 -0.0490998 1.58624 0
M  V30 27 H 3.6381 -2.40421 2.94921 0
M  V30 28 H 3.1501 -0.78983 3.79978 0
M  V30 29 H 1.2511 -2.83329 2.41983 0
M  V30 30 H 1.3641 -2.27142 4.21833 0
M  V30 31 H -0.2719 -1.29186 2.19506 0
M  V30 32 H 0.5111 -0.164528 3.42906 0
M  V30 33 N 2.9562 -1.48159 -0.537278 0
M  V30 34 C 4.3722 -1.34118 -0.865129 0
M  V30 35 C 4.5722 -0.346678 -1.98495 0
M  V30 36 O 3.6282 0.234715 -2.51407 0
M  V30 37 C 4.9412 -2.73963 -1.23954 0
M  V30 38 C 6.4892 -2.82397 -1.34984 0
M  V30 39 C 6.9642 -4.22928 -1.75772 0
M  V30 40 N 8.4552 -4.25566 -1.82887 0
M  V30 41 C 9.1902 -5.31235 -2.15817 0
M  V30 42 N 8.6862 -6.47189 -2.47222 0
M  V30 43 N 10.4792 -5.18624 -2.16761 0
M  V30 44 H 2.6302 -2.1144 0.201715 0
M  V30 45 H 4.8932 -0.947598 0.0275949 0
M  V30 46 H 4.5992 -3.48264 -0.490381 0
M  V30 47 H 4.4732 -3.0702 -2.19132 0
M  V30 48 H 6.8602 -2.08356 -2.08978 0
M  V30 49 H 6.9412 -2.5297 -0.379448 0
M  V30 50 H 6.5852 -4.97482 -1.02341 0
M  V30 51 H 6.5152 -4.49794 -2.73848 0
M  V30 52 H 9.0062 -3.41924 -1.60924 0
M  V30 53 H 9.3192 -7.23564 -2.71433 0
M  V30 54 H 7.6642 -6.50476 -2.44757 0
M  V30 55 H 10.8552 -4.27056 -1.91679 0
M  V30 56 H 11.0282 -6.01078 -2.42093 0
M  V30 57 N 4.4343 0.785586 -1.36625 0
M  V30 58 C 5.3443 1.92964 -1.33425 0
M  V30 59 C 6.3603 1.72394 -0.235851 0
M  V30 60 O 7.5363 1.95866 -0.468878 0
M  V30 61 C 4.6013 3.27884 -1.12662 0
M  V30 62 C 3.6623 3.61204 -2.32013 0
M  V30 63 C 2.8953 4.89687 -2.12231 0
M  V30 64 O 3.1183 5.59704 -1.09945 0
M  V30 65 O 2.0523 5.21752 -3.00098 0
M  V30 66 H 5.8783 1.98613 -2.29753 0
M  V30 67 H 3.4633 0.926384 -1.17211 0
M  V30 68 H 5.3453 4.08614 -1.03016 0
M  V30 69 H 4.0203 3.23118 -0.193991 0
M  V30 70 H 2.9273 2.80765 -2.47228 0
M  V30 71 H 4.2603 3.70698 -3.23796 0
M  V30 72 N 5.9124 1.20967 1.01018 0
M  V30 73 C 7.1424 1.04803 1.78044 0
M  V30 74 C 7.5504 -0.405462 1.84804 0
M  V30 75 O 6.8934 -1.2932 1.30468 0
M  V30 76 C 6.9554 1.56377 3.23707 0
M  V30 77 C 6.6194 3.04767 3.40538 0
M  V30 78 C 7.6164 4.02366 3.29239 0
M  V30 79 C 5.3014 3.43862 3.66147 0
M  V30 80 C 7.2954 5.37049 3.43304 0
M  V30 81 C 4.9824 4.78699 3.79855 0
M  V30 82 C 5.9804 5.75101 3.68439 0
M  V30 83 O 5.6684 7.07493 3.81719 0
M  V30 84 H 5.4004 0.368778 0.56655 0
M  V30 85 H 7.9544 1.60642 1.27997 0
M  V30 86 H 6.1844 0.949297 3.74867 0
M  V30 87 H 7.8734 1.36136 3.8239 0
M  V30 88 H 8.6394 3.73506 3.09384 0
M  V30 89 H 4.5184 2.69364 3.74118 0
M  V30 90 H 8.0624 6.12277 3.34309 0
M  V30 91 H 3.9594 5.07247 3.99213 0
M  V30 92 H 4.7274 7.1483 3.98697 0
M  V30 93 N 7.3905 -1.2043 1.01659 0
M  V30 94 C 8.3005 -2.2689 0.596484 0
M  V30 95 C 9.3165 -1.70107 -0.36599 0
M  V30 96 O 10.4925 -2.00117 -0.226942 0
M  V30 97 C 7.5575 -3.4665 -0.0586659 0
M  V30 98 C 6.6185 -4.18662 0.949751 0
M  V30 99 C 5.8515 -5.32705 0.32577 0
M  V30 100 O 6.0745 -5.63656 -0.874509 0
M  V30 101 O 5.0085 -5.92803 1.04249 0
M  V30 102 H 8.8345 -2.65041 1.4828 0
M  V30 103 H 6.4195 -1.27048 0.786082 0
M  V30 104 H 8.3015 -4.19256 -0.424564 0
M  V30 105 H 6.9765 -3.10375 -0.91918 0
M  V30 106 H 5.8835 -3.48229 1.36702 0
M  V30 107 H 7.2165 -4.58878 1.78023 0
M  V30 108 N 8.8686 -0.792821 -1.36206 0
M  V30 109 C 10.1156 -0.366786 -1.99151 0
M  V30 110 C 10.4436 1.06243 -1.62919 0
M  V30 111 O 9.6986 1.74927 -0.877442 0
M  V30 112 C 9.9976 -0.481501 -3.54142 0
M  V30 113 C 9.6636 -1.87202 -4.10203 0
M  V30 114 C 8.3256 -2.25248 -4.25226 0
M  V30 115 C 10.6776 -2.78237 -4.40719 0
M  V30 116 C 8.0056 -3.53723 -4.68078 0
M  V30 117 C 10.3576 -4.06144 -4.85005 0
M  V30 118 C 9.0216 -4.44207 -4.98234 0
M  V30 119 H 8.2916 -0.134217 -0.728743 0
M  V30 120 H 10.9386 -1.01094 -1.62641 0
M  V30 121 H 9.2436 0.246146 -3.91026 0
M  V30 122 H 10.9406 -0.132844 -4.0078 0
M  V30 123 H 7.5306 -1.56639 -3.98951 0
M  V30 124 H 11.7146 -2.50097 -4.28679 0
M  V30 125 H 6.9706 -3.8308 -4.76508 0
M  V30 126 H 11.1446 -4.76796 -5.07581 0
M  V30 127 H 8.7716 -5.43814 -5.31197 0
M  V30 128 N 10.3467 1.47872 -0.545128 0
M  V30 129 C 11.3097 2.28337 0.198717 0
M  V30 130 C 12.3097 1.36255 0.853888 0
M  V30 131 O 13.4997 1.59003 0.711606 0
M  V30 132 C 10.6317 3.15585 1.28915 0
M  V30 133 H 11.8247 2.95567 -0.507941 0
M  V30 134 H 9.3777 1.53362 -0.301616 0
M  V30 135 H 10.1127 2.53019 2.02859 0
M  V30 136 H 9.8977 3.83337 0.824309 0
M  V30 137 H 11.3877 3.76243 1.81194 0
M  V30 138 N 11.8248 0.280983 1.55075 0
M  V30 139 C 12.7348 -0.61388 2.26426 0
M  V30 140 C 13.7508 -1.16521 1.29224 0
M  V30 141 O 14.9268 -1.19426 1.62171 0
M  V30 142 C 11.9918 -1.7788 2.9759 0
M  V30 143 C 11.0528 -1.26355 4.10284 0
M  V30 144 C 10.2858 -2.37295 4.78045 0
M  V30 145 O 10.5088 -3.56777 4.45047 0
M  V30 146 O 9.4428 -2.05119 5.65871 0
M  V30 147 H 13.2688 -0.0356932 3.03679 0
M  V30 148 H 10.8538 0.0481686 1.49322 0
M  V30 149 H 12.7358 -2.45791 3.42293 0
M  V30 150 H 11.4108 -2.34397 2.23249 0
M  V30 151 H 10.3178 -0.550735 3.70024 0
M  V30 152 H 11.6508 -0.744065 4.86543 0
M  V30 153 N 13.3029 -1.57598 0.00835791 0
M  V30 154 C 14.2499 -2.08945 -0.980346 0
M  V30 155 C 15.2199 -0.986738 -1.33614 0
M  V30 156 O 16.4049 -1.25968 -1.43306 0
M  V30 157 C 13.5449 -2.60425 -2.26435 0
M  V30 158 C 12.6579 -3.84628 -1.96685 0
M  V30 159 C 11.7929 -4.24579 -3.19228 0
M  V30 160 C 10.8319 -5.41596 -2.85202 0
M  V30 161 N 9.9689 -5.768 -4.00307 0
M  V30 162 H 14.8089 -2.93148 -0.535551 0
M  V30 163 H 12.3459 -1.44912 -0.252776 0
M  V30 164 H 14.3039 -2.88354 -3.01509 0
M  V30 165 H 12.9339 -1.79083 -2.68568 0
M  V30 166 H 11.9859 -3.63556 -1.11942 0
M  V30 167 H 13.2979 -4.69796 -1.67611 0
M  V30 168 H 12.4519 -4.53834 -4.02641 0
M  V30 169 H 11.1909 -3.38137 -3.51447 0
M  V30 170 H 10.1959 -5.12056 -2.00198 0
M  V30 171 H 11.4209 -6.29721 -2.54222 0
M  V30 172 H 9.3669 -4.93316 -4.32407 0
M  V30 173 H 9.2839 -6.5656 -3.74786 0
M  V30 174 H 10.5519 -6.10652 -4.84484 0
M  V30 175 N 14.781 0.264519 -1.55364 0
M  V30 176 C 16.03 0.992812 -1.75574 0
M  V30 177 C 16.343 1.87142 -0.568979 0
M  V30 178 O 17.549 2.63513 -0.653682 0
M  V30 179 C 16.005 1.81519 -3.10771 0
M  V30 180 C 15.613 0.984839 -4.37041 0
M  V30 181 C 17.357 2.53727 -3.40327 0
M  V30 182 C 15.264 1.80209 -5.63275 0
M  V30 183 H 14.194 0.374412 -0.65447 0
M  V30 184 H 16.845 0.248138 -1.81815 0
M  V30 185 H 15.227 2.60115 -2.98591 0
M  V30 186 H 16.401 0.242455 -4.60162 0
M  V30 187 H 14.716 0.37691 -4.14691 0
M  V30 188 H 17.313 3.15292 -4.3185 0
M  V30 189 H 17.656 3.24447 -2.60845 0
M  V30 190 H 18.189 1.82156 -3.53644 0
M  V30 191 H 14.928 1.13896 -6.45529 0
M  V30 192 H 14.448 2.52022 -5.44284 0
M  V30 193 H 16.127 2.37364 -6.01887 0
M  V30 194 N 16.2591 1.48442 0.529413 0
M  V30 195 C 17.1891 1.65902 1.64313 0
M  V30 196 C 18.1701 0.507897 1.6234 0
M  V30 197 O 19.3551 0.740503 1.79528 0
M  V30 198 C 16.4851 1.69911 3.02898 0
M  V30 199 C 15.4391 2.8453 3.19729 0
M  V30 200 C 14.7651 2.73629 4.59381 0
M  V30 201 C 16.0651 4.25821 3.02447 0
M  V30 202 H 17.7591 2.5914 1.49955 0
M  V30 203 H 15.3051 1.24709 0.719982 0
M  V30 204 H 17.2581 1.80715 3.80684 0
M  V30 205 H 15.9821 0.732524 3.18279 0
M  V30 206 H 14.6411 2.73283 2.44361 0
M  V30 207 H 14.2891 1.74938 4.71599 0
M  V30 208 H 13.9891 3.50541 4.71588 0
M  V30 209 H 15.5131 2.86401 5.39265 0
M  V30 210 H 16.9271 4.37898 3.70024 0
M  V30 211 H 15.3241 5.03735 3.26146 0
M  V30 212 H 16.3941 4.42244 1.98867 0
M  V30 213 N 17.7372 -0.778329 1.37039 0
M  V30 214 C 18.9842 -1.53665 1.31884 0
M  V30 215 C 19.3122 -1.9425 -0.0986303 0
M  V30 216 O 18.5672 -1.63832 -1.07041 0
M  V30 217 C 18.8662 -2.81845 2.19768 0
M  V30 218 C 18.5322 -2.60345 3.68146 0
M  V30 219 C 17.1942 -2.5419 4.08584 0
M  V30 220 C 19.5462 -2.40923 4.62175 0
M  V30 221 C 16.8742 -2.26594 5.41177 0
M  V30 222 C 19.2262 -2.14852 5.94997 0
M  V30 223 C 17.8902 -2.07137 6.34547 0
M  V30 224 H 17.1602 -0.562299 0.482598 0
M  V30 225 H 19.8072 -0.897069 1.69189 0
M  V30 226 H 18.1122 -3.50328 1.75436 0
M  V30 227 H 19.8092 -3.39692 2.13097 0
M  V30 228 H 16.3992 -2.65996 3.36072 0
M  V30 229 H 20.5832 -2.44673 4.31797 0
M  V30 230 H 15.8392 -2.19111 5.70789 0
M  V30 231 H 20.0132 -1.98822 6.67415 0
M  V30 232 H 17.6402 -1.85518 7.37216 0
M  V30 233 N 19.2153 -1.21501 -1.00376 0
M  V30 234 C 20.4433 -1.059 -1.77744 0
M  V30 235 C 20.8583 0.391125 -1.84704 0
M  V30 236 O 20.2153 1.27133 -1.30933 0
M  V30 237 C 20.2663 -1.65111 -3.21591 0
M  V30 238 O 19.9873 -3.0445 -3.15027 0
M  V30 239 C 21.4883 -1.54637 -4.15454 0
M  V30 240 H 18.7083 -0.371825 -0.558558 0
M  V30 241 H 21.2523 -1.60865 -1.26264 0
M  V30 242 H 19.4073 -1.14235 -3.70175 0
M  V30 243 H 19.8213 -3.3278 -4.0541 0
M  V30 244 H 21.2953 -2.00808 -5.14179 0
M  V30 245 H 21.7723 -0.501022 -4.36333 0
M  V30 246 H 22.3783 -2.04767 -3.72761 0
M  V30 247 N 20.6934 1.19889 -1.02296 0
M  V30 248 C 21.6034 2.26571 -0.608508 0
M  V30 249 C 22.6194 1.70299 0.356964 0
M  V30 250 O 23.7954 2.00235 0.216326 0
M  V30 251 C 20.8604 3.46677 0.0402814 0
M  V30 252 C 19.9214 4.18153 -0.97194 0
M  V30 253 C 19.1544 5.32525 -0.354016 0
M  V30 254 O 19.3774 5.64112 0.844604 0
M  V30 255 O 18.3114 5.92242 -1.07391 0
M  V30 256 H 22.1374 2.64251 -1.49684 0
M  V30 257 H 19.7224 1.26629 -0.792809 0
M  V30 258 H 21.6044 4.19475 0.402324 0
M  V30 259 H 20.2794 3.10858 0.902707 0
M  V30 260 H 19.1864 3.47499 -1.38546 0
M  V30 261 H 20.5194 4.57927 -1.80454 0
M  V30 262 N 22.1715 0.800033 1.35784 0
M  V30 263 C 23.0815 0.207204 2.33683 0
M  V30 264 C 24.0975 -0.64631 1.61551 0
M  V30 265 O 25.2735 -0.559604 1.93469 0
M  V30 266 C 22.3385 -0.639659 3.40748 0
M  V30 267 C 21.3995 0.233585 4.28664 0
M  V30 268 C 20.6325 -0.572954 5.30616 0
M  V30 269 O 20.8555 -1.80816 5.40982 0
M  V30 270 O 19.7895 0.0327285 6.01891 0
M  V30 271 H 23.6155 1.01692 2.86169 0
M  V30 272 H 21.2005 0.561691 1.38439 0
M  V30 273 H 23.0825 -1.12223 4.06182 0
M  V30 274 H 21.7575 -1.42708 2.90544 0
M  V30 275 H 20.6645 0.763147 3.66233 0
M  V30 276 H 21.9975 0.984784 4.82248 0
M  V30 277 N 23.6496 -1.47581 0.552962 0
M  V30 278 C 24.5596 -2.33743 -0.200353 0
M  V30 279 C 25.5756 -1.47928 -0.916151 0
M  V30 280 O 26.7516 -1.80865 -0.885993 0
M  V30 281 C 23.8166 -3.24536 -1.21973 0
M  V30 282 C 22.8776 -4.26238 -0.511819 0
M  V30 283 C 22.1106 -5.12693 -1.48263 0
M  V30 284 O 22.3336 -5.01525 -2.71714 0
M  V30 285 O 21.2676 -5.93375 -1.00945 0
M  V30 286 H 25.0936 -2.9945 0.506304 0
M  V30 287 H 22.6786 -1.46071 0.313622 0
M  V30 288 H 24.5606 -3.80631 -1.80827 0
M  V30 289 H 23.2356 -2.61462 -1.90839 0
M  V30 290 H 22.1426 -3.73914 0.117799 0
M  V30 291 H 23.4756 -4.92014 0.135308 0
M  V30 292 N 25.1277 -0.289203 -1.54924 0
M  V30 293 C 26.3767 0.324231 -1.99077 0
M  V30 294 C 26.6897 1.5591 -1.18117 0
M  V30 295 O 27.8957 2.24637 -1.52481 0
M  V30 296 C 26.3517 0.628209 -3.54375 0
M  V30 297 C 25.9597 -0.587647 -4.44129 0
M  V30 298 C 27.7037 1.20349 -4.07083 0
M  V30 299 C 25.6107 -0.257475 -5.90839 0
M  V30 300 H 24.5407 0.124924 -0.743579 0
M  V30 301 H 27.1917 -0.396063 -1.79175 0
M  V30 302 H 25.5737 1.40778 -3.70132 0
M  V30 303 H 26.7477 -1.36418 -4.40144 0
M  V30 304 H 25.0627 -1.08074 -4.0213 0
M  V30 305 H 27.6597 1.46456 -5.14252 0
M  V30 306 H 28.0027 2.14195 -3.56968 0
M  V30 307 H 28.5357 0.485889 -3.94821 0
M  V30 308 H 25.2747 -1.16419 -6.45079 0
M  V30 309 H 24.7947 0.482018 -5.9786 0
M  V30 310 H 26.4737 0.145238 -6.46837 0
M  V30 311 N 26.6058 1.57591 -0.0167156 0
M  V30 312 C 28.0218 1.55946 0.339557 0
M  V30 313 C 28.2218 1.02109 1.73713 0
M  V30 314 O 27.2778 0.662303 2.43659 0
M  V30 315 C 28.5908 3.00037 0.199499 0
M  V30 316 C 30.1388 3.11805 0.273193 0
M  V30 317 C 30.6138 4.57713 0.162068 0
M  V30 318 N 32.1048 4.6268 0.219444 0
M  V30 319 C 32.8398 5.73185 0.157054 0
M  V30 320 N 32.3358 6.92786 0.0442936 0
M  V30 321 N 34.1288 5.61707 0.21014 0
M  V30 322 H 26.2798 1.90921 -0.930758 0
M  V30 323 H 28.5428 0.877674 -0.358319 0
M  V30 324 H 28.2488 3.4333 -0.76273 0
M  V30 325 H 28.1228 3.64387 0.974786 0
M  V30 326 H 30.5098 2.68433 1.22587 0
M  V30 327 H 30.5908 2.50201 -0.532256 0
M  V30 328 H 30.2348 5.01763 -0.78714 0
M  V30 329 H 30.1648 5.17283 0.986222 0
M  V30 330 H 32.6558 3.76649 0.307246 0
M  V30 331 H 32.9688 7.728 0.00304069 0
M  V30 332 H 31.3138 6.94999 0.00968457 0
M  V30 333 H 34.5048 4.6716 0.296546 0
M  V30 334 H 34.6778 6.47807 0.158054 0
M  V30 335 N 28.0839 -0.256276 1.55502 0
M  V30 336 C 29.3119 -1.00342 1.8094 0
M  V30 337 C 29.7269 -1.79307 0.59114 0
M  V30 338 O 29.0839 -1.77114 -0.440081 0
M  V30 339 C 29.1349 -1.94875 3.04476 0
M  V30 340 O 28.8559 -1.19107 4.21598 0
M  V30 341 C 30.3569 -2.81266 3.42644 0
M  V30 342 H 27.5769 -0.295685 0.602338 0
M  V30 343 H 30.1209 -0.281998 2.02546 0
M  V30 344 H 28.2759 -2.62457 2.84947 0
M  V30 345 H 28.6899 -1.82969 4.91551 0
M  V30 346 H 30.1639 -3.43362 4.32211 0
M  V30 347 H 30.6409 -3.51897 2.62802 0
M  V30 348 H 31.2469 -2.1915 3.64491 0
M  V30 349 N 29.562 -1.4872 -0.521534 0
M  V30 350 C 30.978 -1.35028 -0.850855 0
M  V30 351 C 31.178 -0.367712 -1.98116 0
M  V30 352 O 30.234 0.208037 -2.51642 0
M  V30 353 C 31.547 -2.75263 -1.21041 0
M  V30 354 C 33.095 -2.83813 -1.31981 0
M  V30 355 C 33.57 -4.24769 -1.71276 0
M  V30 356 N 35.061 -4.27482 -1.78363 0
M  V30 357 C 35.796 -5.33494 -2.1017 0
M  V30 358 N 35.292 -6.49775 -2.40343 0
M  V30 359 N 37.085 -5.20894 -2.11248 0
M  V30 360 H 29.236 -2.11214 0.22413 0
M  V30 361 H 31.499 -0.947252 0.0376439 0
M  V30 362 H 31.205 -3.48765 -0.453415 0
M  V30 363 H 31.079 -3.09327 -2.15863 0
M  V30 364 H 33.466 -2.10561 -2.06756 0
M  V30 365 H 33.547 -2.53358 -0.352596 0
M  V30 366 H 33.191 -4.9854 -0.970588 0
M  V30 367 H 33.121 -4.52673 -2.69062 0
M  V30 368 H 35.612 -3.43611 -1.57288 0
M  V30 369 H 35.925 -7.26402 -2.63743 0
M  V30 370 H 34.27 -6.53035 -2.37844 0
M  V30 371 H 37.461 -4.29065 -1.87139 0
M  V30 372 H 37.634 -6.03612 -2.35704 0
M  V30 373 N 31.0401 0.771051 -1.3745 0
M  V30 374 C 32.2891 1.52491 -1.3202 0
M  V30 375 C 32.6021 1.9538 0.0927347 0
M  V30 376 O 33.8081 2.70159 0.269503 0
M  V30 377 C 32.2641 2.75366 -2.31736 0
M  V30 378 C 31.8721 2.39573 -3.78562 0
M  V30 379 C 33.6161 3.53307 -2.35318 0
M  V30 380 C 31.5231 3.58954 -4.70007 0
M  V30 381 H 30.4531 0.572506 -0.490666 0
M  V30 382 H 33.1041 0.844474 -1.62914 0
M  V30 383 H 31.4861 3.45303 -1.93861 0
M  V30 384 H 32.6601 1.77415 -4.25277 0
M  V30 385 H 30.9751 1.74805 -3.77932 0
M  V30 386 H 33.5721 4.42039 -3.00842 0
M  V30 387 H 33.9151 3.93217 -1.36698 0
M  V30 388 H 34.4481 2.90367 -2.71904 0
M  V30 389 H 31.1871 3.24125 -5.69757 0
M  V30 390 H 30.7071 4.20214 -4.27996 0
M  V30 391 H 32.3861 4.25758 -4.87175 0
M  V30 392 N 32.5182 1.22032 0.997298 0
M  V30 393 C 33.4512 0.929735 2.08401 0
M  V30 394 C 34.4292 -0.125681 1.62114 0
M  V30 395 O 35.6132 0.00495409 1.88499 0
M  V30 396 C 32.7402 0.397488 3.3636 0
M  V30 397 C 31.7862 1.4369 4.01566 0
M  V30 398 S 32.6192 3.00874 4.42984 0
M  V30 399 C 33.7752 2.49276 5.74119 0
M  V30 400 H 34.0082 1.84998 2.32729 0
M  V30 401 H 31.5412 1.0509 1.13117 0
M  V30 402 H 33.4992 0.0969846 4.10385 0
M  V30 403 H 32.1602 -0.501571 3.10069 0
M  V30 404 H 31.3532 1.01427 4.93689 0
M  V30 405 H 30.9552 1.68588 3.33847 0
M  V30 406 H 33.2472 1.90242 6.50242 0
M  V30 407 H 34.1902 3.39872 6.21203 0
M  V30 408 H 34.5982 1.90714 5.31308 0
M  V30 409 N 33.9963 -1.19345 1.0293 0
M  V30 410 C 34.9063 -2.26245 0.620515 0
M  V30 411 C 35.9223 -1.70486 -0.347928 0
M  V30 412 O 37.0983 -2.00347 -0.205704 0
M  V30 413 C 34.1633 -3.46693 -0.0218957 0
M  V30 414 C 33.2243 -4.17632 0.994102 0
M  V30 415 C 32.4573 -5.32329 0.382253 0
M  V30 416 O 32.6803 -5.64552 -0.814676 0
M  V30 417 O 31.6143 -5.91664 1.10531 0
M  V30 418 H 35.4403 -2.63453 1.51083 0
M  V30 419 H 33.0253 -1.26207 0.799513 0
M  V30 420 H 34.9073 -4.19683 -0.380072 0
M  V30 421 H 33.5823 -3.11333 -0.886209 0
M  V30 422 H 32.4893 -3.4676 1.40387 0
M  V30 423 H 33.8223 -4.56964 1.8288 0
M  V30 424 N 35.4744 -0.807222 -1.35358 0
M  V30 425 C 36.7204 -0.388463 -1.99045 0
M  V30 426 C 37.0534 1.04184 -1.63888 0
M  V30 427 O 36.3284 1.72292 -0.902535 0
M  V30 428 C 36.6114 -0.572783 -3.55515 0
M  V30 429 C 36.4644 -2.04807 -4.00468 0
M  V30 430 C 37.7834 0.00114064 -4.401 0
M  V30 431 H 34.9024 -0.142619 -0.723069 0
M  V30 432 H 37.5444 -1.01687 -1.60498 0
M  V30 433 H 35.6944 -0.0378425 -3.88482 0
M  V30 434 H 37.3664 -2.64544 -3.77908 0
M  V30 435 H 35.6094 -2.54427 -3.51353 0
M  V30 436 H 36.2804 -2.12792 -5.09337 0
M  V30 437 H 38.7564 -0.455716 -4.13597 0
M  V30 438 H 37.6324 -0.157737 -5.48673 0
M  V30 439 H 37.8934 1.09488 -4.28328 0
M  V30 440 N 36.9525 1.47285 -0.560781 0
M  V30 441 C 37.9155 2.28535 0.174488 0
M  V30 442 C 38.9155 1.37153 0.839388 0
M  V30 443 O 40.1055 1.59748 0.694702 0
M  V30 444 C 37.2375 3.16934 1.25561 0
M  V30 445 H 38.4305 2.95012 -0.539262 0
M  V30 446 H 35.9835 1.53034 -0.317865 0
M  V30 447 H 36.7185 2.55157 2.00164 0
M  V30 448 H 36.5035 3.8419 0.783604 0
M  V30 449 H 37.9935 3.78143 1.77193 0
M  V30 450 N 38.4306 0.297415 1.54768 0
M  V30 451 C 39.3776 -0.580276 2.23386 0
M  V30 452 C 40.3476 -1.13238 1.21517 0
M  V30 453 O 41.5326 -1.17757 1.50126 0
M  V30 454 C 38.6726 -1.74801 2.97555 0
M  V30 455 C 37.7856 -1.22764 4.1419 0
M  V30 456 C 36.9206 -2.35895 4.75949 0
M  V30 457 C 35.9596 -1.80974 5.84735 0
M  V30 458 N 35.0966 -2.87664 6.40464 0
M  V30 459 H 39.9366 0.0114833 2.97998 0
M  V30 460 H 37.4736 0.0174361 1.4709 0
M  V30 461 H 39.4316 -2.43475 3.38786 0
M  V30 462 H 38.0616 -2.31145 2.25326 0
M  V30 463 H 37.1136 -0.433271 3.77924 0
M  V30 464 H 38.4256 -0.785551 4.92575 0
M  V30 465 H 37.5796 -3.12523 5.20014 0
M  V30 466 H 36.3186 -2.83429 3.96887 0
M  V30 467 H 35.3236 -1.02834 5.40097 0
M  V30 468 H 36.5486 -1.34348 6.65678 0
M  V30 469 H 34.4946 -3.34538 5.64287 0
M  V30 470 H 34.4116 -2.4794 7.14186 0
M  V30 471 H 35.6796 -3.642 6.89187 0
M  V30 472 N 39.9087 -1.5758 0.0250728 0
M  V30 473 C 41.3247 -1.56124 -0.331282 0
M  V30 474 C 41.5247 -1.03029 -1.73169 0
M  V30 475 O 40.5807 -0.675215 -2.43305 0
M  V30 476 C 41.8937 -3.00139 -0.183584 0
M  V30 477 C 43.4417 -3.11946 -0.256654 0
M  V30 478 C 43.9167 -4.57793 -0.137792 0
M  V30 479 N 45.4077 -4.6279 -0.194904 0
M  V30 480 C 46.1427 -5.7326 -0.126655 0
M  V30 481 N 45.6387 -6.928 -0.00755288 0
M  V30 482 N 47.4317 -5.61811 -0.180348 0
M  V30 483 H 39.5827 -1.90424 0.94087 0
M  V30 484 H 41.8457 -0.875761 0.362968 0
M  V30 485 H 41.5517 -3.4292 0.780927 0
M  V30 486 H 41.4257 -3.64899 -0.955448 0
M  V30 487 H 43.8127 -2.69079 -1.21162 0
M  V30 488 H 43.8937 -2.49915 0.545517 0
M  V30 489 H 43.5377 -5.01339 0.813739 0
M  V30 490 H 43.4677 -5.17798 -0.958775 0
M  V30 491 H 45.9587 -3.76807 -0.287267 0
M  V30 492 H 46.2717 -7.72791 0.0379428 0
M  V30 493 H 44.6167 -6.94995 0.0271731 0
M  V30 494 H 47.8077 -4.6731 -0.271767 0
M  V30 495 H 47.9807 -6.47882 -0.123697 0
M  V30 496 N 41.3868 0.248026 -1.55636 0
M  V30 497 C 42.6358 0.974134 -1.76617 0
M  V30 498 C 42.9488 1.86528 -0.588796 0
M  V30 499 O 44.1548 2.62805 -0.681594 0
M  V30 500 C 42.6108 1.78213 -3.12679 0
M  V30 501 C 42.2188 0.93843 -4.38061 0
M  V30 502 C 43.9628 2.50104 -3.42999 0
M  V30 503 C 41.8698 1.74225 -5.65155 0
M  V30 504 H 40.7998 0.36745 -0.658405 0
M  V30 505 H 43.4508 0.22884 -1.82067 0
M  V30 506 H 41.8328 2.56933 -3.01333 0
M  V30 507 H 43.0068 0.193635 -4.60393 0
M  V30 508 H 41.3218 0.332905 -4.15067 0
M  V30 509 H 43.9188 3.10694 -4.3517 0
M  V30 510 H 44.2618 3.21662 -2.64271 0
M  V30 511 H 44.7948 1.78395 -3.55556 0
M  V30 512 H 41.5338 1.07043 -6.46701 0
M  V30 513 H 41.0538 2.46235 -5.46926 0
M  V30 514 H 42.7328 2.30967 -6.0437 0
M  V30 515 N 42.8649 1.48995 0.513639 0
M  V30 516 C 43.8279 1.64229 1.59879 0
M  V30 517 C 44.8279 0.514696 1.5234 0
M  V30 518 O 46.0179 0.78087 1.55718 0
M  V30 519 C 43.1499 1.62783 2.99524 0
M  V30 520 H 44.3429 2.61004 1.47705 0
M  V30 521 H 41.8959 1.37837 0.736936 0
M  V30 522 H 42.6309 0.675461 3.17188 0
M  V30 523 H 42.4159 2.4466 3.06404 0
M  V30 524 H 43.9059 1.76669 3.78388 0
M  V30 525 N 44.343 -0.763751 1.37857 0
M  V30 526 C 45.62 -1.51244 1.24035 0
M  V30 527 C 46 -2.10472 -0.162649 0
M  V30 528 O 45.348 -1.96206 -1.17112 0
M  V30 529 C 45.558 -2.58694 2.34261 0
M  V30 530 C 46.906 -3.25878 2.72193 0
M  V30 531 O 47.93 -2.68993 2.33497 0
M  V30 532 O 46.789 -4.2874 3.38887 0
M  V30 533 H 43.883 -0.670243 0.484462 0
M  V30 534 H 46.429 -0.800031 1.49658 0
M  V30 535 H 45.201 -2.13105 3.2818 0
M  V30 536 H 44.824 -3.37527 2.10146 0
M  V30 537 N 45.8211 -1.22559 -0.990812 0
M  V30 538 C 47.0981 -0.959875 -1.70428 0
M  V30 539 C 47.4781 0.524455 -2.04481 0
M  V30 540 O 46.8261 1.49302 -1.72977 0
M  V30 541 C 47.0361 -1.85955 -2.95333 0
M  V30 542 C 48.3841 -2.11687 -3.68068 0
M  V30 543 O 49.4081 -1.8342 -3.05345 0
M  V30 544 O 48.2671 -2.59572 -4.80921 0
M  V30 545 H 45.3611 -0.361154 -0.743974 0
M  V30 546 H 47.9071 -1.33554 -1.04697 0
M  V30 547 H 46.6791 -2.86346 -2.66687 0
M  V30 548 H 46.3021 -1.4856 -3.68803 0
M  V30 549 N 47.2992 1.18797 -1.03562 0
M  V30 550 C 48.5292 1.92319 -0.754773 0
M  V30 551 C 48.9372 1.7612 0.691248 0
M  V30 552 O 48.2802 1.08491 1.48241 0
M  V30 553 C 48.3422 3.44284 -1.03484 0
M  V30 554 C 48.0062 3.84258 -2.47376 0
M  V30 555 C 49.0032 3.88459 -3.45537 0
M  V30 556 C 46.6882 4.15701 -2.81954 0
M  V30 557 C 48.6822 4.23545 -4.76328 0
M  V30 558 C 46.3692 4.50458 -4.12954 0
M  V30 559 C 47.3672 4.54356 -5.09951 0
M  V30 560 O 47.0552 4.88305 -6.38603 0
M  V30 561 H 46.7872 0.617527 -0.275021 0
M  V30 562 H 49.3412 1.51683 -1.38497 0
M  V30 563 H 47.5712 3.85135 -0.347513 0
M  V30 564 H 49.2602 3.99049 -0.7426 0
M  V30 565 H 50.0262 3.6431 -3.20162 0
M  V30 566 H 45.9052 4.11847 -2.0713 0
M  V30 567 H 49.4492 4.26502 -5.52035 0
M  V30 568 H 45.3462 4.74067 -4.38099 0
M  V30 569 H 46.1142 5.06227 -6.43177 0
M  V30 570 N 48.7773 0.814389 1.34928 0
M  V30 571 C 49.7243 0.22822 2.29669 0
M  V30 572 C 50.6943 -0.642164 1.53184 0
M  V30 573 O 51.8793 -0.585605 1.81591 0
M  V30 574 C 49.0193 -0.61089 3.3965 0
M  V30 575 C 48.1323 0.280792 4.31086 0
M  V30 576 C 47.2673 -0.567067 5.28165 0
M  V30 577 C 46.3063 0.324531 6.11239 0
M  V30 578 N 45.4433 -0.483756 7.00431 0
M  V30 579 H 50.2833 1.04153 2.79206 0
M  V30 580 H 47.8203 0.525133 1.37407 0
M  V30 581 H 49.7783 -1.11263 4.0209 0
M  V30 582 H 48.4083 -1.38939 2.91369 0
M  V30 583 H 47.4603 0.900688 3.69583 0
M  V30 584 H 48.7723 0.966723 4.89342 0
M  V30 585 H 47.9263 -1.13363 5.96015 0
M  V30 586 H 46.6653 -1.28654 4.70425 0
M  V30 587 H 45.6703 0.903298 5.42329 0
M  V30 588 H 46.8953 1.04198 6.71059 0
M  V30 589 H 44.8413 -1.18706 6.45171 0
M  V30 590 H 44.7583 0.143965 7.55863 0
M  V30 591 H 46.0263 -1.03334 7.7262 0
M  V30 592 N 50.2554 -1.46986 0.568584 0
M  V30 593 C 51.5034 -2.02041 0.0487022 0
M  V30 594 C 51.8244 -1.44408 -1.31039 0
M  V30 595 O 51.0944 -0.623477 -1.85714 0
M  V30 596 H 49.6744 -0.746849 0.015014 0
M  V30 597 H 52.3364 -1.80257 0.741168 0
M  V30 598 H 51.4324 -3.12085 -0.0308961 0
M  V30 599 N 51.7335 -0.305618 -1.54608 0
M  V30 600 C 52.6805 0.568421 -2.23691 0
M  V30 601 C 53.6505 1.12592 -1.22116 0
M  V30 602 O 54.8355 1.16959 -1.50749 0
M  V30 603 C 51.9755 1.7322 -2.98477 0
M  V30 604 C 51.0885 1.20566 -4.14835 0
M  V30 605 C 50.2235 2.33368 -4.77193 0
M  V30 606 C 49.2625 1.7787 -5.85686 0
M  V30 607 N 48.3995 2.84263 -6.4198 0
M  V30 608 H 53.2395 -0.0272867 -2.97988 0
M  V30 609 H 50.7765 -0.0252363 -1.47078 0
M  V30 610 H 52.7345 2.41675 -3.40072 0
M  V30 611 H 51.3645 2.29947 -2.26548 0
M  V30 612 H 50.4165 0.413223 -3.78149 0
M  V30 613 H 51.7285 0.759417 -4.92985 0
M  V30 614 H 50.8825 3.09761 -5.21664 0
M  V30 615 H 49.6215 2.8132 -3.98385 0
M  V30 616 H 48.6265 0.99968 -5.40635 0
M  V30 617 H 49.8515 1.30816 -6.66381 0
M  V30 618 H 47.7975 3.31541 -5.66053 0
M  V30 619 H 47.7145 2.44149 -7.15491 0
M  V30 620 H 48.9825 3.6054 -6.91109 0
M  V30 621 N 53.2116 1.57565 -0.0334293 0
M  V30 622 C 54.4596 1.91598 0.642999 0
M  V30 623 C 54.7806 0.910847 1.7242 0
M  V30 624 O 54.0506 -0.0469931 1.95844 0
M  V30 625 H 52.6306 0.707228 0.240496 0
M  V30 626 H 55.2926 1.94726 -0.0822488 0
M  V30 627 H 54.3886 2.92336 1.09298 0
M  V30 628 N 54.6897 -0.239769 1.55765 0
M  V30 629 C 55.6197 -1.30052 1.9393 0
M  V30 630 C 56.6007 -1.49839 0.805132 0
M  V30 631 O 57.7857 -1.62328 1.06599 0
M  V30 632 C 54.9157 -2.65391 2.2402 0
M  V30 633 C 53.8697 -2.60289 3.39755 0
M  V30 634 C 53.1957 -3.99489 3.55405 0
M  V30 635 C 54.4957 -2.16654 4.75246 0
M  V30 636 H 56.1897 -0.983573 2.82783 0
M  V30 637 H 53.7357 -0.471701 1.36055 0
M  V30 638 H 55.6887 -3.3974 2.49308 0
M  V30 639 H 54.4127 -2.98736 1.32 0
M  V30 640 H 53.0717 -1.88398 3.14487 0
M  V30 641 H 52.7197 -4.30112 2.60793 0
M  V30 642 H 52.4197 -3.96962 4.33238 0
M  V30 643 H 53.9437 -4.75528 3.83022 0
M  V30 644 H 55.3577 -2.80737 4.99859 0
M  V30 645 H 53.7547 -2.25223 5.56232 0
M  V30 646 H 54.8247 -1.11835 4.71827 0
M  V30 647 N 56.1678 -1.49265 -0.50573 0
M  V30 648 C 57.5838 -1.35923 -0.836486 0
M  V30 649 C 57.7838 -0.388704 -1.97715 0
M  V30 650 O 56.8398 0.181336 -2.51848 0
M  V30 651 C 58.1528 -2.76531 -1.18115 0
M  V30 652 C 59.7008 -2.85197 -1.28964 0
M  V30 653 C 60.1758 -4.26561 -1.66761 0
M  V30 654 N 61.6668 -4.2935 -1.73819 0
M  V30 655 C 62.4018 -5.35693 -2.045 0
M  V30 656 N 61.8978 -6.52287 -2.33438 0
M  V30 657 N 63.6908 -5.23105 -2.05711 0
M  V30 658 H 55.8418 -2.10965 0.246519 0
M  V30 659 H 58.1048 -0.9468 0.0476887 0
M  V30 660 H 57.8108 -3.49226 -0.416398 0
M  V30 661 H 57.6848 -3.11599 -2.1257 0
M  V30 662 H 60.0718 -2.12742 -2.04511 0
M  V30 663 H 60.1528 -2.53718 -0.325704 0
M  V30 664 H 59.7968 -4.99541 -0.917656 0
M  V30 665 H 59.7268 -4.55502 -2.64246 0
M  V30 666 H 62.2178 -3.4526 -1.53635 0
M  V30 667 H 62.5308 -7.29158 -2.56024 0
M  V30 668 H 60.8758 -6.55521 -2.30905 0
M  V30 669 H 64.0668 -4.31026 -1.82577 0
M  V30 670 H 64.2398 -6.06078 -2.29289 0
M  V30 671 N 57.6459 0.756429 -1.3826 0
M  V30 672 C 59.0569 1.33359 -1.30661 0
M  V30 673 C 59.4079 1.96161 0.0388875 0
M  V30 674 O 58.5329 1.94874 0.940918 0
M  V30 675 C 59.1279 2.42477 -2.36622 0
M  V30 676 C 57.6869 2.95922 -2.3261 0
M  V30 677 C 56.8339 1.69275 -2.19639 0
M  V30 678 H 59.7849 0.55552 -1.4866 0
M  V30 679 H 59.8059 3.22345 -2.02174 0
M  V30 680 H 59.3179 1.96739 -3.34538 0
M  V30 681 H 57.4189 3.45996 -1.38267 0
M  V30 682 H 57.5319 3.50494 -3.26636 0
M  V30 683 H 55.8959 1.92793 -1.66442 0
M  V30 684 H 56.6789 1.25619 -3.19491 0
M  V30 685 N 59.124 1.23083 0.984299 0
M  V30 686 C 60.354 1.08556 1.75781 0
M  V30 687 C 60.762 -0.366171 1.85623 0
M  V30 688 O 60.105 -1.26524 1.33182 0
M  V30 689 C 60.167 1.63208 3.20318 0
M  V30 690 C 59.831 3.11922 3.33997 0
M  V30 691 C 60.828 4.09259 3.2063 0
M  V30 692 C 58.513 3.51552 3.58771 0
M  V30 693 C 60.507 5.4421 3.31835 0
M  V30 694 C 58.194 4.86649 3.69616 0
M  V30 695 C 59.192 5.82787 3.56157 0
M  V30 696 O 58.88 7.15431 3.66626 0
M  V30 697 H 58.612 0.380713 0.5586 0
M  V30 698 H 61.166 1.63321 1.2456 0
M  V30 699 H 59.396 1.0286 3.72769 0
M  V30 700 H 61.085 1.44216 3.79416 0
M  V30 701 H 61.851 3.79984 3.01392 0
M  V30 702 H 57.73 2.77239 3.6832 0
M  V30 703 H 61.274 6.1923 3.21247 0
M  V30 704 H 57.171 5.15601 3.88363 0
M  V30 705 H 57.939 7.23127 3.83445 0
M  V30 706 N 60.6021 -1.18246 1.0419 0
M  V30 707 C 61.8481 -1.88536 0.747122 0
M  V30 708 C 62.1811 -1.80223 -0.723409 0
M  V30 709 O 61.4561 -1.20337 -1.52804 0
M  V30 710 C 61.7391 -3.38968 1.21544 0
M  V30 711 C 61.5921 -3.56084 2.74816 0
M  V30 712 C 62.9111 -4.32648 0.806482 0
M  V30 713 H 60.0301 -0.684619 0.272883 0
M  V30 714 H 62.6721 -1.39113 1.29413 0
M  V30 715 H 60.8221 -3.8119 0.750081 0
M  V30 716 H 62.4941 -3.22946 3.29399 0
M  V30 717 H 60.7371 -2.98699 3.14582 0
M  V30 718 H 61.4081 -4.61639 3.02644 0
M  V30 719 H 63.8841 -3.98211 1.20695 0
M  V30 720 H 62.7601 -5.36462 1.1619 0
M  V30 721 H 63.0211 -4.41146 -0.29029 0
M  V30 722 N 62.0802 -0.821533 -1.34494 0
M  V30 723 C 63.0282 -0.230702 -2.31453 0
M  V30 724 C 64.0222 0.627793 -1.57338 0
M  V30 725 O 65.2282 0.519288 -1.72347 0
M  V30 726 H 61.6032 -0.0558577 -0.749923 0
M  V30 727 H 63.5742 -1.06332 -2.78812 0
M  V30 728 C 62.3232 0.59391 -3.4259 0
M  V30 729 H 61.6462 -0.0573588 -3.99759 0
M  V30 730 H 63.0862 0.973446 -4.12674 0
M  V30 731 C 61.5452 1.76568 -2.86924 0
M  V30 732 O 62.0752 2.8638 -2.81691 0
M  V30 733 N 60.2812 1.58198 -2.43766 0
M  V30 734 H 59.8282 0.68872 -2.48222 0
M  V30 735 H 59.7862 2.36752 -2.06871 0
M  V30 736 N 63.5583 1.46682 -0.576371 0
M  V30 737 C 64.9693 1.86112 -0.148091 0
M  V30 738 C 65.3203 1.48073 1.2872 0
M  V30 739 O 64.4453 0.892656 1.97131 0
M  V30 740 C 65.0403 3.37786 -0.261982 0
M  V30 741 C 63.5993 3.76235 0.111384 0
M  V30 742 C 62.7463 2.70713 -0.60083 0
M  V30 743 H 65.6973 1.37927 -0.78497 0
M  V30 744 H 65.7183 3.77007 0.514364 0
M  V30 745 H 65.2303 3.6544 -1.30671 0
M  V30 746 H 63.3313 3.54198 1.15649 0
M  V30 747 H 63.4443 4.78391 -0.26052 0
M  V30 748 H 61.8083 2.54666 -0.0417783 0
M  V30 749 H 62.5913 3.01208 -1.64708 0
M  V30 750 N 65.0364 0.313813 1.54444 0
M  V30 751 C 65.9664 -0.549454 2.26943 0
M  V30 752 C 66.9474 -1.12741 1.27372 0
M  V30 753 O 68.1324 -1.15436 1.56167 0
M  V30 754 C 65.2624 -1.71523 3.01989 0
M  V30 755 C 64.2164 -1.26703 4.08816 0
M  V30 756 C 63.5424 -2.51898 4.71647 0
M  V30 757 C 64.8424 -0.388962 5.2085 0
M  V30 758 H 66.5364 0.0552661 2.99349 0
M  V30 759 H 64.0824 0.0280207 1.43973 0
M  V30 760 H 66.0354 -2.32535 3.51433 0
M  V30 761 H 64.7594 -2.34639 2.27183 0
M  V30 762 H 63.4184 -0.679896 3.6024 0
M  V30 763 H 63.0664 -3.13356 3.93468 0
M  V30 764 H 62.7664 -2.22605 5.43802 0
M  V30 765 H 64.2904 -3.1369 5.23861 0
M  V30 766 H 65.7044 -0.905107 5.6611 0
M  V30 767 H 64.1014 -0.18924 5.99802 0
M  V30 768 H 65.1714 0.582699 4.81386 0
M  V30 769 N 66.5145 -1.57545 0.0417849 0
M  V30 770 C 67.7605 -1.92601 -0.635021 0
M  V30 771 C 68.0935 -0.919627 -1.71045 0
M  V30 772 O 67.3685 0.0557892 -1.9442 0
M  V30 773 C 67.6515 -3.38085 -1.23979 0
M  V30 774 C 67.5045 -4.49467 -0.173057 0
M  V30 775 C 68.8235 -3.83776 -2.15416 0
M  V30 776 H 65.9425 -0.700397 -0.229374 0
M  V30 777 H 68.5845 -1.89728 0.101633 0
M  V30 778 H 66.7345 -3.40664 -1.86762 0
M  V30 779 H 68.4065 -4.59018 0.458312 0
M  V30 780 H 66.6495 -4.30909 0.499996 0
M  V30 781 H 67.3205 -5.48323 -0.636054 0
M  V30 782 H 69.7965 -3.83013 -1.62605 0
M  V30 783 H 68.6725 -4.8624 -2.54679 0
M  V30 784 H 68.9335 -3.19998 -3.05047 0
M  V30 785 N 67.9926 0.231505 -1.5589 0
M  V30 786 C 68.9226 1.29022 -1.94617 0
M  V30 787 C 69.9036 1.4941 -0.813067 0
M  V30 788 O 71.0886 1.6176 -1.07459 0
M  V30 789 C 68.2186 2.64199 -2.25424 0
M  V30 790 C 67.1726 2.58484 -3.41131 0
M  V30 791 C 66.4986 3.97599 -3.57518 0
M  V30 792 C 67.7986 2.1413 -4.76388 0
M  V30 793 H 69.4926 0.968563 -2.83301 0
M  V30 794 H 67.0386 0.464479 -1.36303 0
M  V30 795 H 68.9916 3.38413 -2.51107 0
M  V30 796 H 67.7156 2.98032 -1.33583 0
M  V30 797 H 66.3746 1.86727 -3.15481 0
M  V30 798 H 66.0226 4.28723 -2.6307 0
M  V30 799 H 65.7226 3.94659 -4.35337 0
M  V30 800 H 67.2466 4.7349 -3.85538 0
M  V30 801 H 68.6606 2.78083 -5.01341 0
M  V30 802 H 67.0576 2.2227 -5.57419 0
M  V30 803 H 68.1276 1.09331 -4.72414 0
M  V30 804 N 69.4707 1.49531 0.497807 0
M  V30 805 C 70.7197 1.58426 1.24837 0
M  V30 806 C 71.0327 0.277643 1.93619 0
M  V30 807 O 72.2387 0.24517 2.70391 0
M  V30 808 C 70.6947 2.79538 2.26686 0
M  V30 809 C 70.3027 4.16971 1.63828 0
M  V30 810 C 72.0467 2.97764 3.0255 0
M  V30 811 C 69.9537 5.29301 2.63807 0
M  V30 812 H 68.8837 0.58989 0.469623 0
M  V30 813 H 71.5347 1.75923 0.521857 0
M  V30 814 H 69.9167 2.55542 3.02514 0
M  V30 815 H 71.0907 4.51116 0.939711 0
M  V30 816 H 69.4057 4.04129 1.00342 0
M  V30 817 H 72.0027 3.78856 3.77323 0
M  V30 818 H 72.3457 2.08448 3.60354 0
M  V30 819 H 72.8787 3.21815 2.33838 0
M  V30 820 H 69.6177 6.20687 2.10779 0
M  V30 821 H 69.1377 4.99606 3.31894 0
M  V30 822 H 70.8167 5.58768 3.2617 0
M  V30 823 N 70.9488 -0.749086 1.3866 0
M  V30 824 C 72.1738 -1.54344 1.38538 0
M  V30 825 C 72.5988 -1.88088 -0.0216655 0
M  V30 826 O 71.9568 -1.50899 -1.00494 0
M  V30 827 C 72.0048 -2.8164 2.25192 0
M  V30 828 O 71.1088 -3.7698 1.67212 0
M  V30 829 H 70.4498 -0.466654 0.472367 0
M  V30 830 H 72.9798 -0.925355 1.82478 0
M  V30 831 H 72.9898 -3.30519 2.3921 0
M  V30 832 H 71.6648 -2.56411 3.27454 0
M  V30 833 H 70.2418 -3.35699 1.6236 0
M  V30 834 N 72.4269 -1.23603 -0.977757 0
M  V30 835 C 73.6729 -1.07129 -1.72195 0
M  V30 836 C 74.0059 0.390501 -1.90233 0
M  V30 837 O 73.2809 1.28902 -1.45653 0
M  V30 838 C 73.5639 -1.80031 -3.11867 0
M  V30 839 C 73.4169 -3.33899 -3.01383 0
M  V30 840 C 74.7359 -1.56492 -4.11337 0
M  V30 841 H 71.8549 -0.390571 -0.624999 0
M  V30 842 H 74.4969 -1.52142 -1.13811 0
M  V30 843 H 72.6469 -1.41768 -3.6171 0
M  V30 844 H 74.3189 -3.81699 -2.59043 0
M  V30 845 H 72.5619 -3.62796 -2.37827 0
M  V30 846 H 73.2329 -3.801 -4.00285 0
M  V30 847 H 75.7089 -1.89757 -3.70313 0
M  V30 848 H 74.5849 -2.09973 -5.07151 0
M  V30 849 H 74.8459 -0.500874 -4.39254 0
M  V30 850 N 73.905 1.17692 -1.04816 0
M  V30 851 C 74.835 2.23777 -0.666791 0
M  V30 852 C 75.816 1.66796 0.33361 0
M  V30 853 O 77.001 1.93039 0.212042 0
M  V30 854 C 74.131 3.47281 -0.0367933 0
M  V30 855 C 73.085 4.17059 -0.961546 0
M  V30 856 C 72.411 5.34342 -0.195626 0
M  V30 857 C 73.711 4.69713 -2.28402 0
M  V30 858 H 75.405 2.55933 -1.55367 0
M  V30 859 H 72.951 1.23019 -0.748484 0
M  V30 860 H 74.904 4.20706 0.241775 0
M  V30 861 H 73.628 3.14381 0.885004 0
M  V30 862 H 72.287 3.45541 -1.22462 0
M  V30 863 H 71.935 4.97692 0.728816 0
M  V30 864 H 71.635 5.81966 -0.811775 0
M  V30 865 H 73.159 6.10553 0.0757473 0
M  V30 866 H 74.573 5.34794 -2.06563 0
M  V30 867 H 72.97 5.279 -2.8538 0
M  V30 868 H 74.04 3.86726 -2.92525 0
M  V30 869 N 75.3831 0.828654 1.34056 0
M  V30 870 C 76.3301 0.252567 2.29414 0
M  V30 871 C 77.3001 -0.62588 1.53857 0
M  V30 872 O 78.4851 -0.566312 1.82202 0
M  V30 873 C 75.6251 -0.574831 3.40279 0
M  V30 874 C 74.7381 0.326499 4.30764 0
M  V30 875 C 73.8731 -0.511016 5.28736 0
M  V30 876 C 72.9121 0.389342 6.1086 0
M  V30 877 N 72.0491 -0.409439 7.00905 0
M  V30 878 H 76.8891 1.07108 2.78086 0
M  V30 879 H 74.4261 0.539677 1.36843 0
M  V30 880 H 76.3841 -1.06992 4.03248 0
M  V30 881 H 75.0141 -1.35841 2.92826 0
M  V30 882 H 74.0661 0.939837 3.68607 0
M  V30 883 H 75.3781 1.01857 4.88289 0
M  V30 884 H 74.5321 -1.07035 5.97184 0
M  V30 885 H 73.2711 -1.23657 4.71763 0
M  V30 886 H 72.2761 0.960769 5.4134 0
M  V30 887 H 73.5011 1.1131 6.69916 0
M  V30 888 H 71.4471 -1.11856 6.46393 0
M  V30 889 H 71.3641 0.224126 7.55668 0
M  V30 890 H 72.6321 -0.951336 7.73673 0
M  V30 891 N 76.8612 -1.46375 0.584142 0
M  V30 892 C 78.1092 -2.01978 0.0701287 0
M  V30 893 C 78.4302 -1.4579 -1.295 0
M  V30 894 O 77.7002 -0.64314 -1.85042 0
M  V30 895 H 76.2802 -0.746648 0.0229345 0
M  V30 896 H 78.9422 -1.79461 0.760245 0
M  V30 897 H 78.0382 -3.121 0.0022064 0
M  V30 898 N 78.3393 -0.321999 -1.54275 0
M  V30 899 C 79.5643 0.285791 -2.05422 0
M  V30 900 C 79.9893 1.45124 -1.19669 0
M  V30 901 O 79.3473 1.80132 -0.205441 0
M  V30 902 C 79.3953 0.69956 -3.53749 0
M  V30 903 O 78.4993 1.8021 -3.70942 0
M  V30 904 H 77.8403 0.0518962 -0.661969 0
M  V30 905 H 80.3703 -0.469954 -1.9913 0
M  V30 906 H 80.3803 0.982649 -3.9599 0
M  V30 907 H 79.0553 -0.152864 -4.15619 0
M  V30 908 H 77.6323 1.51794 -3.40607 0
M  V30 909 N 79.8174 1.5752 -0.0501392 0
M  V30 910 C 81.0644 1.9265 0.623874 0
M  V30 911 C 81.3924 0.928411 1.70912 0
M  V30 912 O 80.6474 -0.0594525 1.9561 0
M  V30 913 C 80.9464 3.34467 1.25963 0
M  V30 914 C 80.6124 4.49883 0.302689 0
M  V30 915 C 79.2744 4.81184 0.0393636 0
M  V30 916 C 81.6264 5.20002 -0.353205 0
M  V30 917 C 78.9544 5.79951 -0.887308 0
M  V30 918 C 81.3064 6.1976 -1.26806 0
M  V30 919 C 79.9704 6.49491 -1.54007 0
M  V30 920 H 79.2404 0.704957 0.228292 0
M  V30 921 H 81.8874 1.91146 -0.116398 0
M  V30 922 H 80.1924 3.32333 2.07514 0
M  V30 923 H 81.8894 3.58928 1.78806 0
M  V30 924 H 78.4794 4.25457 0.518109 0
M  V30 925 H 82.6634 4.96033 -0.162854 0
M  V30 926 H 77.9194 6.01322 -1.10553 0
M  V30 927 H 82.0934 6.73205 -1.78236 0
M  V30 928 H 79.7204 7.25837 -2.25976 0
M  V30 929 N 81.2955 -0.223234 1.56011 0
M  V30 930 C 82.2285 -1.30377 1.87289 0
M  V30 931 C 83.2065 -1.45286 0.730112 0
M  V30 932 O 84.3905 -1.61126 0.978302 0
M  V30 933 C 81.5175 -2.67431 2.07843 0
M  V30 934 C 80.5635 -2.69546 3.30526 0
M  V30 935 S 81.3965 -2.23781 4.865 0
M  V30 936 C 82.5525 -3.62714 5.10088 0
M  V30 937 H 82.7855 -1.03652 2.78646 0
M  V30 938 H 80.3185 -0.425393 1.48424 0
M  V30 939 H 82.2765 -3.46336 2.20368 0
M  V30 940 H 80.9375 -2.91381 1.17285 0
M  V30 941 H 80.1305 -3.70255 3.41947 0
M  V30 942 H 79.7325 -1.98703 3.16849 0
M  V30 943 H 82.0245 -4.58391 4.98883 0
M  V30 944 H 82.9675 -3.5621 6.11981 0
M  V30 945 H 83.3755 -3.56323 4.37829 0
M  V30 946 N 82.7736 -1.49793 -0.48987 0
M  V30 947 C 84.0206 -1.59841 -1.24327 0
M  V30 948 C 84.3486 -0.290135 -1.92324 0
M  V30 949 O 83.6036 0.722749 -1.81865 0
M  V30 950 C 83.9026 -2.71488 -2.32441 0
M  V30 951 C 83.5686 -4.12614 -1.81826 0
M  V30 952 C 82.2306 -4.51017 -1.67742 0
M  V30 953 C 84.5826 -5.00892 -1.4407 0
M  V30 954 C 81.9106 -5.75459 -1.14297 0
M  V30 955 C 84.2626 -6.25863 -0.920742 0
M  V30 956 C 82.9266 -6.63086 -0.766383 0
M  V30 957 H 82.1966 -0.584899 -0.454944 0
M  V30 958 H 84.8436 -1.83663 -0.542215 0
M  V30 959 H 83.1486 -2.4168 -3.0838 0
M  V30 960 H 84.8456 -2.76469 -2.90458 0
M  V30 961 H 81.4356 -3.82307 -1.93751 0
M  V30 962 H 85.6196 -4.7187 -1.53794 0
M  V30 963 H 80.8756 -6.02989 -1.01068 0
M  V30 964 H 85.0496 -6.9364 -0.619448 0
M  V30 965 H 82.6766 -7.59393 -0.350083 0
M  V30 966 N 84.2517 0.741722 -1.39055 0
M  V30 967 C 85.4797 1.53098 -1.39171 0
M  V30 968 C 85.8947 1.88794 0.0155099 0
M  V30 969 O 85.2517 1.53626 0.985159 0
M  V30 970 C 85.3027 2.82274 -2.2584 0
M  V30 971 O 85.0237 2.48097 -3.61081 0
M  V30 972 C 86.5247 3.76343 -2.34266 0
M  V30 973 H 83.7447 0.473335 -0.4756 0
M  V30 974 H 86.2887 0.917045 -1.82785 0
M  V30 975 H 84.4437 3.40015 -1.85656 0
M  V30 976 H 84.8577 3.31029 -4.06842 0
M  V30 977 H 86.3317 4.63898 -2.9917 0
M  V30 978 H 86.8087 4.17619 -1.35982 0
M  V30 979 H 87.4147 3.24523 -2.74891 0
M  V30 980 N 85.7298 1.2412 0.971189 0
M  V30 981 C 86.6928 1.03156 2.04674 0
M  V30 982 C 87.6928 -0.00990322 1.60797 0
M  V30 983 O 88.8828 0.230729 1.72665 0
M  V30 984 C 86.0148 0.562765 3.36223 0
M  V30 985 H 87.2078 1.98614 2.24705 0
M  V30 986 H 84.7608 1.06293 1.14593 0
M  V30 987 H 85.4958 -0.395176 3.21883 0
M  V30 988 H 85.2808 1.31441 3.69413 0
M  V30 989 H 86.7708 0.437015 4.15307 0
M  V30 990 N 87.2079 -1.17134 1.05439 0
M  V30 991 C 88.4849 -1.83411 0.679699 0
M  V30 992 C 88.8649 -1.9368 -0.839726 0
M  V30 993 O 88.2129 -1.47325 -1.74664 0
M  V30 994 C 88.4229 -3.20918 1.37159 0
M  V30 995 C 89.7709 -3.96796 1.51123 0
M  V30 996 O 90.7949 -3.30406 1.3308 0
M  V30 997 O 89.6539 -5.15778 1.80651 0
M  V30 998 H 86.7479 -0.79154 0.239569 0
M  V30 999 H 89.2939 -1.24411 1.15413 0
M  V30 1000 H 88.0659 -3.08428 2.40807 0
M  V30 1001 H 87.6889 -3.87587 0.886674 0
M  V30 1002 N 88.686 -0.835752 -1.33615 0
M  V30 1003 C 89.616 -0.281739 -2.31794 0
M  V30 1004 C 90.597 0.608833 -1.58831 0
M  V30 1005 O 91.782 0.533035 -1.86741 0
M  V30 1006 C 88.912 0.546612 -3.42971 0
M  V30 1007 C 87.866 -0.247904 -4.27281 0
M  V30 1008 C 87.192 0.704001 -5.30045 0
M  V30 1009 C 88.492 -1.46324 -5.01385 0
M  V30 1010 H 90.186 -1.10206 -2.78379 0
M  V30 1011 H 87.732 -0.531388 -1.33837 0
M  V30 1012 H 89.685 0.944467 -4.1068 0
M  V30 1013 H 88.409 1.40011 -2.95067 0
M  V30 1014 H 87.068 -0.627281 -3.61194 0
M  V30 1015 H 86.716 1.55381 -4.78399 0
M  V30 1016 H 86.416 0.176524 -5.87335 0
M  V30 1017 H 87.94 1.09944 -6.0062 0
M  V30 1018 H 89.354 -1.13871 -5.61877 0
M  V30 1019 H 87.751 -1.92728 -5.6831 0
M  V30 1020 H 88.821 -2.23467 -4.30338 0
M  V30 1021 N 90.1641 1.46063 -0.591896 0
M  V30 1022 C 91.4041 2.04228 -0.0838014 0
M  V30 1023 C 91.7681 1.45231 1.25587 0
M  V30 1024 O 92.9691 1.94653 1.85375 0
M  V30 1025 C 91.2401 3.57389 -0.0286282 0
M  V30 1026 S 92.7991 4.3678 0.420557 0
M  V30 1027 H 89.6171 0.709762 -0.0419319 0
M  V30 1028 H 92.2191 1.78983 -0.786465 0
M  V30 1029 H 90.9231 3.97843 -1.00743 0
M  V30 1030 H 90.4541 3.87185 0.69652 0
M  V30 1031 H 92.4691 4.67131 1.67341 0
M  V30 1032 N 91.6422 0.330177 1.54103 0
M  V30 1033 C 93.0582 -0.0222371 1.59585 0
M  V30 1034 C 93.2582 -1.49902 1.34654 0
M  V30 1035 O 92.3142 -2.25592 1.13421 0
M  V30 1036 C 93.6272 0.401932 2.98002 0
M  V30 1037 C 95.1752 0.353145 3.11001 0
M  V30 1038 C 95.6502 0.752576 4.51775 0
M  V30 1039 N 97.1412 0.706239 4.57784 0
M  V30 1040 C 97.8762 0.987417 5.64834 0
M  V30 1041 N 97.3722 1.33607 6.79795 0
M  V30 1042 N 99.1652 0.91254 5.54643 0
M  V30 1043 H 91.3162 1.29228 1.68564 0
M  V30 1044 H 93.5792 0.525906 0.78875 0
M  V30 1045 H 93.2852 1.4311 3.21267 0
M  V30 1046 H 93.1592 -0.229699 3.765 0
M  V30 1047 H 95.5462 -0.666822 2.87467 0
M  V30 1048 H 95.6272 1.0198 2.34593 0
M  V30 1049 H 95.2712 1.77049 4.76042 0
M  V30 1050 H 95.2012 0.0635409 5.26562 0
M  V30 1051 H 97.6922 0.44889 3.75224 0
M  V30 1052 H 98.0052 1.53582 7.57385 0
M  V30 1053 H 96.3502 1.37439 6.81275 0
M  V30 1054 H 99.5412 0.639601 4.6371 0
M  V30 1055 H 99.7142 1.13503 6.37982 0
M  V30 1056 N 93.1203 -1.57491 0.0584922 0
M  V30 1057 C 94.0833 -2.1085 -0.898617 0
M  V30 1058 C 95.0833 -1.02964 -1.23511 0
M  V30 1059 O 96.2733 -1.29007 -1.17059 0
M  V30 1060 C 93.4053 -2.59881 -2.20623 0
M  V30 1061 H 94.5983 -2.96715 -0.435936 0
M  V30 1062 H 92.1513 -1.55141 -0.190023 0
M  V30 1063 H 92.8863 -1.77431 -2.71457 0
M  V30 1064 H 92.6713 -3.38727 -1.97501 0
M  V30 1065 H 94.1613 -3.01285 -2.89166 0
M  V30 1066 N 94.5984 0.214957 -1.56127 0
M  V30 1067 C 95.5284 1.2695 -1.95974 0
M  V30 1068 C 96.5094 1.48539 -0.828868 0
M  V30 1069 O 97.6944 1.60611 -1.09168 0
M  V30 1070 C 94.8244 2.61794 -2.28214 0
M  V30 1071 C 93.7784 2.54851 -3.43853 0
M  V30 1072 C 93.1044 3.93785 -3.61715 0
M  V30 1073 C 94.4044 2.09065 -4.78632 0
M  V30 1074 H 96.0984 0.93846 -2.84312 0
M  V30 1075 H 93.6444 0.449996 -1.36788 0
M  V30 1076 H 95.5974 3.35731 -2.54682 0
M  V30 1077 H 94.3214 2.96599 -1.36736 0
M  V30 1078 H 92.9804 1.8337 -3.17444 0
M  V30 1079 H 92.6284 4.25908 -2.67602 0
M  V30 1080 H 92.3284 3.90019 -4.39498 0
M  V30 1081 H 93.8524 4.69374 -3.90539 0
M  V30 1082 H 95.2664 2.7275 -5.04262 0
M  V30 1083 H 93.6634 2.16346 -5.59745 0
M  V30 1084 H 94.7334 1.04315 -4.73547 0
M  V30 1085 N 96.0765 1.50051 0.48192 0
M  V30 1086 C 97.3015 1.64508 1.26301 0
M  V30 1087 C 97.7265 0.323851 1.85291 0
M  V30 1088 O 97.0845 -0.710969 1.66778 0
M  V30 1089 C 97.1325 2.7305 2.35533 0
M  V30 1090 O 96.2365 2.3355 3.39895 0
M  V30 1091 H 95.5775 0.549978 0.372048 0
M  V30 1092 H 98.1075 1.9636 0.574786 0
M  V30 1093 H 98.1175 2.95799 2.8101 0
M  V30 1094 H 96.7925 3.68946 1.91967 0
M  V30 1095 H 95.3695 2.21205 3.00204 0
M  V30 1096 N 97.5546 -0.734337 1.39446 0
M  V30 1097 C 98.8316 -1.48579 1.27215 0
M  V30 1098 C 99.2116 -2.1077 -0.117968 0
M  V30 1099 O 98.5596 -1.98646 -1.12924 0
M  V30 1100 C 98.7696 -2.53667 2.39696 0
M  V30 1101 C 100.118 -3.20031 2.79044 0
M  V30 1102 O 101.142 -2.6398 2.39151 0
M  V30 1103 O 100.001 -4.21455 3.47905 0
M  V30 1104 H 97.0946 -0.659816 0.49857 0
M  V30 1105 H 99.6406 -0.768106 1.51322 0
M  V30 1106 H 98.4126 -2.06096 3.32626 0
M  V30 1107 H 98.0356 -3.32994 2.17258 0
M  V30 1108 N 99.0327 -1.24633 -0.964593 0
M  V30 1109 C 100.28 -1.08788 -1.70796 0
M  V30 1110 C 100.608 0.372783 -1.90894 0
M  V30 1111 O 99.8627 1.29167 -1.47018 0
M  V30 1112 C 100.162 -1.7763 -3.10133 0
M  V30 1113 C 99.8277 -3.27557 -3.09866 0
M  V30 1114 C 98.4897 -3.6846 -3.09501 0
M  V30 1115 C 100.842 -4.23389 -3.03959 0
M  V30 1116 C 98.1697 -5.03624 -3.00965 0
M  V30 1117 C 100.522 -5.58565 -2.96965 0
M  V30 1118 C 99.1857 -5.98809 -2.9493 0
M  V30 1119 H 98.4557 -0.398084 -0.624988 0
M  V30 1120 H 101.103 -1.54777 -1.12767 0
M  V30 1121 H 99.4077 -1.24044 -3.71645 0
M  V30 1122 H 101.105 -1.62832 -3.66451 0
M  V30 1123 H 97.6947 -2.95006 -3.10917 0
M  V30 1124 H 101.879 -3.92787 -3.03368 0
M  V30 1125 H 97.1347 -5.33998 -2.97752 0
M  V30 1126 H 101.309 -6.32523 -2.91354 0
M  V30 1127 H 98.9357 -7.03505 -2.88071 0
M  V30 1128 N 100.511 1.16574 -1.06058 0
M  V30 1129 C 101.459 2.22941 -0.663343 0
M  V30 1130 C 102.453 1.66358 0.319593 0
M  V30 1131 O 103.659 1.7905 0.184713 0
M  V30 1132 H 100.034 0.725907 -0.196376 0
M  V30 1133 H 102.005 2.53736 -1.57037 0
M  V30 1134 C 100.754 3.47642 -0.0632808 0
M  V30 1135 H 100.077 3.91493 -0.810733 0
M  V30 1136 H 101.517 4.2363 0.177177 0
M  V30 1137 C 99.9758 3.1509 1.19248 0
M  V30 1138 O 100.506 3.30673 2.28075 0
M  V30 1139 N 98.7118 2.6924 1.09353 0
M  V30 1140 H 98.2588 2.5676 0.207912 0
M  V30 1141 H 98.2168 2.47833 1.93458 0
M  V30 1142 N 101.989 0.842826 1.3317 0
M  V30 1143 C 103.235 0.441099 1.97945 0
M  V30 1144 C 103.568 -0.998024 1.66593 0
M  V30 1145 O 102.843 -1.69839 0.947898 0
M  V30 1146 C 103.126 0.666841 3.53872 0
M  V30 1147 C 102.979 2.15352 3.94897 0
M  V30 1148 C 104.298 0.115544 4.39948 0
M  V30 1149 H 101.417 0.161739 0.719034 0
M  V30 1150 H 104.059 1.05907 1.57746 0
M  V30 1151 H 102.209 0.140828 3.88245 0
M  V30 1152 H 103.881 2.7447 3.70761 0
M  V30 1153 H 102.124 2.63653 3.44484 0
M  V30 1154 H 102.795 2.26221 5.03516 0
M  V30 1155 H 105.271 0.565213 4.12243 0
M  V30 1156 H 104.147 0.303152 5.48062 0
M  V30 1157 H 104.408 -0.980935 4.3108 0
M  V30 1158 N 103.467 -1.45747 0.599634 0
M  V30 1159 C 104.878 -1.85853 0.177681 0
M  V30 1160 C 105.229 -1.50102 -1.26348 0
M  V30 1161 O 104.354 -0.923905 -1.95686 0
M  V30 1162 C 104.949 -3.37326 0.315688 0
M  V30 1163 C 103.508 -3.76365 -0.0515144 0
M  V30 1164 C 102.655 -2.69722 0.643822 0
M  V30 1165 H 105.606 -1.36661 0.806814 0
M  V30 1166 H 105.627 -3.77778 -0.454321 0
M  V30 1167 H 105.139 -3.63315 1.36468 0
M  V30 1168 H 103.24 -3.55993 -1.09999 0
M  V30 1169 H 103.353 -4.77916 0.336594 0
M  V30 1170 H 101.717 -2.54567 0.0822881 0
M  V30 1171 H 102.5 -2.98549 1.6948 0
M  V30 1172 N 104.945 -0.338344 -1.53925 0
M  V30 1173 C 106.191 0.260143 -2.01125 0
M  V30 1174 C 106.524 1.50617 -1.22589 0
M  V30 1175 O 105.799 1.91979 -0.312113 0
M  V30 1176 C 106.082 0.579499 -3.55407 0
M  V30 1177 C 105.935 -0.678264 -4.44657 0
M  V30 1178 C 107.254 1.39122 -4.17532 0
M  V30 1179 H 104.373 0.0930772 -0.731099 0
M  V30 1180 H 107.015 -0.457852 -1.84401 0
M  V30 1181 H 105.165 1.19118 -3.69788 0
M  V30 1182 H 106.837 -1.31631 -4.42121 0
M  V30 1183 H 105.08 -1.3042 -4.13731 0
M  V30 1184 H 105.751 -0.410143 -5.50474 0
M  V30 1185 H 108.227 0.874035 -4.06817 0
M  V30 1186 H 107.103 1.58342 -5.25565 0
M  V30 1187 H 107.364 2.39178 -3.71815 0
M  V30 1188 N 106.423 1.57458 -0.0668435 0
M  V30 1189 C 107.839 1.56947 0.289772 0
M  V30 1190 C 108.039 1.07584 1.70376 0
M  V30 1191 O 107.095 0.739486 2.41429 0
M  V30 1192 C 108.408 3.0052 0.103943 0
M  V30 1193 C 109.956 3.12517 0.173857 0
M  V30 1194 C 110.431 4.57997 0.0163682 0
M  V30 1195 N 111.922 4.63144 0.0721352 0
M  V30 1196 C 112.657 5.73394 -0.0253794 0
M  V30 1197 N 112.153 6.92576 -0.176133 0
M  V30 1198 N 113.946 5.62091 0.0313305 0
M  V30 1199 H 106.097 1.87863 -0.991027 0
M  V30 1200 H 108.36 0.86583 -0.38606 0
M  V30 1201 H 108.066 3.40729 -0.871572 0
M  V30 1202 H 107.94 3.67304 0.858366 0
M  V30 1203 H 110.327 2.72197 1.13985 0
M  V30 1204 H 110.408 2.48381 -0.611586 0
M  V30 1205 H 110.052 4.99005 -0.946374 0
M  V30 1206 H 109.982 5.20158 0.821153 0
M  V30 1207 H 112.473 3.77436 0.187263 0
M  V30 1208 H 112.786 7.72418 -0.242821 0
M  V30 1209 H 111.131 6.94678 -0.211429 0
M  V30 1210 H 114.322 4.67867 0.147773 0
M  V30 1211 H 114.495 6.47982 -0.048121 0
M  V30 1212 N 107.901 -0.206675 1.56239 0
M  V30 1213 C 108.834 -1.28383 1.88661 0
M  V30 1214 C 109.812 -1.44504 0.745481 0
M  V30 1215 O 110.996 -1.60079 0.995336 0
M  V30 1216 C 108.123 -2.65211 2.10667 0
M  V30 1217 C 107.169 -2.66025 3.33366 0
M  V30 1218 S 108.002 -2.18609 4.88846 0
M  V30 1219 C 109.158 -3.57283 5.13906 0
M  V30 1220 H 109.391 -1.00691 2.7973 0
M  V30 1221 H 106.924 -0.409627 1.48867 0
M  V30 1222 H 108.882 -3.43979 2.24029 0
M  V30 1223 H 107.543 -2.90121 1.20369 0
M  V30 1224 H 106.736 -3.66607 3.45855 0
M  V30 1225 H 106.338 -1.95331 3.18938 0
M  V30 1226 H 108.63 -4.53074 5.03717 0
M  V30 1227 H 109.573 -3.49699 6.15724 0
M  V30 1228 H 109.981 -3.51659 4.41583 0
M  V30 1229 N 109.379 -1.50304 -0.473955 0
M  V30 1230 C 110.289 -1.7174 -1.5982 0
M  V30 1231 C 111.305 -0.600457 -1.63311 0
M  V30 1232 O 112.481 -0.878441 -1.81233 0
M  V30 1233 C 109.546 -1.80427 -2.96052 0
M  V30 1234 C 108.607 -3.04148 -3.02972 0
M  V30 1235 C 107.84 -3.12411 -4.32706 0
M  V30 1236 O 108.063 -2.27542 -5.23049 0
M  V30 1237 O 106.997 -4.05113 -4.45159 0
M  V30 1238 H 110.823 -2.67035 -1.44657 0
M  V30 1239 H 108.408 -1.34366 -0.653148 0
M  V30 1240 H 110.29 -1.88338 -3.7697 0
M  V30 1241 H 108.965 -0.883156 -3.11419 0
M  V30 1242 H 107.872 -3.0174 -2.21142 0
M  V30 1243 H 109.205 -3.95829 -2.92541 0
M  V30 1244 N 110.857 0.726932 -1.39834 0
M  V30 1245 C 112.104 1.48664 -1.37496 0
M  V30 1246 C 112.432 1.94482 0.0264678 0
M  V30 1247 O 111.687 1.67692 1.00886 0
M  V30 1248 C 111.986 2.73495 -2.30077 0
M  V30 1249 C 111.652 2.46502 -3.77555 0
M  V30 1250 C 110.314 2.3885 -4.17737 0
M  V30 1251 C 112.666 2.23604 -4.70798 0
M  V30 1252 C 109.994 2.06352 -5.49214 0
M  V30 1253 C 112.346 1.92622 -6.02561 0
M  V30 1254 C 111.01 1.83444 -6.41798 0
M  V30 1255 H 110.28 0.544001 -0.503135 0
M  V30 1256 H 112.927 0.833657 -1.72402 0
M  V30 1257 H 111.232 3.43575 -1.88317 0
M  V30 1258 H 112.929 3.31549 -2.25558 0
M  V30 1259 H 109.519 2.5334 -3.45712 0
M  V30 1260 H 113.703 2.28479 -4.40581 0
M  V30 1261 H 108.959 1.97776 -5.78528 0
M  V30 1262 H 113.133 1.73914 -6.74334 0
M  V30 1263 H 110.76 1.58029 -7.43593 0
M  V30 1264 N 112.336 1.25143 0.95797 0
M  V30 1265 C 113.585 1.0909 1.69654 0
M  V30 1266 C 113.898 -0.368548 1.92097 0
M  V30 1267 O 115.104 -0.649455 2.63618 0
M  V30 1268 C 113.56 1.90395 3.05414 0
M  V30 1269 C 113.168 3.4081 2.90779 0
M  V30 1270 C 114.912 1.82901 3.83076 0
M  V30 1271 C 112.819 4.14423 4.21909 0
M  V30 1272 H 111.749 0.404625 0.636235 0
M  V30 1273 H 114.4 1.4931 1.06672 0
M  V30 1274 H 112.782 1.42996 3.69281 0
M  V30 1275 H 113.956 3.95859 2.35865 0
M  V30 1276 H 112.271 3.49361 2.26575 0
M  V30 1277 H 114.868 2.35196 4.80195 0
M  V30 1278 H 115.211 0.796224 4.08615 0
M  V30 1279 H 115.744 2.28033 3.25954 0
M  V30 1280 H 112.483 5.18102 4.01561 0
M  V30 1281 H 112.003 3.64159 4.76601 0
M  V30 1282 H 113.682 4.21956 4.90471 0
M  V30 1283 N 113.814 -1.1601 1.06675 0
M  V30 1284 C 115.054 -1.88304 0.795037 0
M  V30 1285 C 115.418 -1.80062 -0.666466 0
M  V30 1286 O 116.619 -2.47319 -1.05293 0
M  V30 1287 C 114.89 -3.33664 1.28076 0
M  V30 1288 S 116.449 -4.23768 1.13868 0
M  V30 1289 H 113.267 -0.649928 0.288296 0
M  V30 1290 H 115.869 -1.4001 1.36445 0
M  V30 1291 H 114.573 -3.37203 2.33927 0
M  V30 1292 H 114.104 -3.87009 0.706253 0
M  V30 1293 H 116.119 -4.96148 0.0719668 0
M  V30 1294 N 115.292 -0.849877 -1.32721 0
M  V30 1295 C 116.538 -0.451591 -1.97708 0
M  V30 1296 C 116.871 0.989175 -1.6712 0
M  V30 1297 O 116.146 1.69334 -0.956891 0
M  V30 1298 C 116.429 -0.685598 -3.53513 0
M  V30 1299 C 116.282 -2.17444 -3.93749 0
M  V30 1300 C 117.601 -0.138874 -4.39881 0
M  V30 1301 H 114.72 -0.16555 -0.718166 0
M  V30 1302 H 117.362 -1.06742 -1.57182 0
M  V30 1303 H 115.512 -0.161416 -3.88165 0
M  V30 1304 H 117.184 -2.76433 -3.693 0
M  V30 1305 H 115.427 -2.65476 -3.43081 0
M  V30 1306 H 116.098 -2.28888 -5.02309 0
M  V30 1307 H 118.574 -0.587068 -4.11938 0
M  V30 1308 H 117.45 -0.332213 -5.47894 0
M  V30 1309 H 117.711 0.95806 -4.31594 0
M  V30 1310 N 116.77 1.45427 -0.607355 0
M  V30 1311 C 117.995 2.07124 -0.107006 0
M  V30 1312 C 118.42 1.44906 1.19933 0
M  V30 1313 O 117.778 0.541687 1.73019 0
M  V30 1314 C 117.826 3.60595 0.0194119 0
M  V30 1315 O 116.93 3.98285 1.0697 0
M  V30 1316 H 116.271 0.659868 -0.0739597 0
M  V30 1317 H 118.801 1.86683 -0.837297 0
M  V30 1318 H 118.811 4.07419 0.2177 0
M  V30 1319 H 117.486 4.05266 -0.934453 0
M  V30 1320 H 116.063 3.63133 0.847889 0
M  V30 1321 N 118.248 0.346503 1.53744 0
M  V30 1322 C 119.473 -0.253074 2.0585 0
M  V30 1323 C 119.898 -1.43202 1.21962 0
M  V30 1324 O 119.256 -1.79783 0.234073 0
M  V30 1325 C 119.304 -0.643193 3.54817 0
M  V30 1326 O 118.408 -1.74286 3.73762 0
M  V30 1327 H 117.749 -0.0413583 0.662711 0
M  V30 1328 H 120.279 0.501574 1.98357 0
M  V30 1329 H 120.289 -0.919526 3.97503 0
M  V30 1330 H 118.964 0.218966 4.15323 0
M  V30 1331 H 117.541 -1.46356 3.42979 0
M  V30 1332 N 119.726 -1.57421 0.075193 0
M  V30 1333 C 120.956 -1.97659 -0.601203 0
M  V30 1334 C 121.364 -0.952427 -1.63479 0
M  V30 1335 O 120.707 0.0688241 -1.83571 0
M  V30 1336 C 120.769 -3.34218 -1.32434 0
M  V30 1337 C 120.433 -4.5484 -0.443826 0
M  V30 1338 C 121.43 -5.19034 0.299969 0
M  V30 1339 C 119.115 -5.00952 -0.367709 0
M  V30 1340 C 121.109 -6.27695 1.10807 0
M  V30 1341 C 118.796 -6.09484 0.444058 0
M  V30 1342 C 119.794 -6.72719 1.18061 0
M  V30 1343 O 119.482 -7.79161 1.97898 0
M  V30 1344 H 119.214 -0.65494 -0.167422 0
M  V30 1345 H 121.768 -2.04886 0.145157 0
M  V30 1346 H 119.998 -3.23615 -2.11685 0
M  V30 1347 H 121.687 -3.59038 -1.89331 0
M  V30 1348 H 122.453 -4.84351 0.250776 0
M  V30 1349 H 118.332 -4.51509 -0.930638 0
M  V30 1350 H 121.876 -6.76982 1.68347 0
M  V30 1351 H 117.773 -6.43601 0.494803 0
M  V30 1352 H 118.541 -7.96055 1.90367 0
M  V30 1353 N 121.204 0.198386 -1.56346 0
M  V30 1354 C 122.452 0.91747 -1.80075 0
M  V30 1355 C 122.773 1.83929 -0.647692 0
M  V30 1356 O 122.043 1.93029 0.334166 0
M  V30 1357 H 120.623 0.341774 -0.664228 0
M  V30 1358 H 123.285 0.204684 -1.93822 0
M  V30 1359 H 122.381 1.51055 -2.7311 0
M  V30 1360 N 122.682 1.50554 0.465978 0
M  V30 1361 C 123.592 1.72585 1.58907 0
M  V30 1362 C 124.608 0.60911 1.6299 0
M  V30 1363 O 125.784 0.88804 1.80765 0
M  V30 1364 C 122.849 1.81995 2.95091 0
M  V30 1365 C 121.91 3.05751 3.01355 0
M  V30 1366 C 121.143 3.14702 4.31043 0
M  V30 1367 O 121.366 2.30313 5.21835 0
M  V30 1368 O 120.3 4.07468 4.43005 0
M  V30 1369 H 124.126 2.67799 1.43239 0
M  V30 1370 H 121.711 1.34711 0.646013 0
M  V30 1371 H 123.593 1.90335 3.75966 0
M  V30 1372 H 122.268 0.899659 3.10947 0
M  V30 1373 H 121.175 3.02908 2.19539 0
M  V30 1374 H 122.508 3.97375 2.90437 0
M  V30 1375 N 124.16 -0.719506 1.40217 0
M  V30 1376 C 125.408 -1.47641 1.3801 0
M  V30 1377 C 125.729 -1.94992 -0.018145 0
M  V30 1378 O 124.999 -1.70073 -0.972207 0
M  V30 1379 H 123.579 -0.547744 0.507923 0
M  V30 1380 H 126.241 -0.853187 1.75233 0
M  V30 1381 H 125.337 -2.35112 2.05253 0
M  V30 1382 N 125.638 -1.25649 -0.95132 0
M  V30 1383 C 126.884 -1.10757 -1.69884 0
M  V30 1384 C 127.217 0.350061 -1.91019 0
M  V30 1385 O 126.492 1.25783 -1.48354 0
M  V30 1386 C 126.775 -1.86606 -3.07978 0
M  V30 1387 C 126.628 -3.40217 -2.94232 0
M  V30 1388 C 127.947 -1.65182 -4.07925 0
M  V30 1389 H 125.066 -0.40374 -0.616574 0
M  V30 1390 H 127.708 -1.54521 -1.10558 0
M  V30 1391 H 125.858 -1.49409 -3.58621 0
M  V30 1392 H 127.53 -3.87108 -2.50889 0
M  V30 1393 H 125.773 -3.67759 -2.30078 0
M  V30 1394 H 126.444 -3.88505 -3.92133 0
M  V30 1395 H 128.92 -1.9757 -3.66204 0
M  V30 1396 H 127.796 -2.20683 -5.02583 0
M  V30 1397 H 128.057 -0.593933 -4.38092 0
M  V30 1398 N 127.117 1.15442 -1.07289 0
M  V30 1399 C 128.345 1.90096 -0.81676 0
M  V30 1400 C 128.76 1.7798 0.629966 0
M  V30 1401 O 128.117 1.1313 1.43206 0
M  V30 1402 C 128.168 3.40466 -1.21512 0
M  V30 1403 O 127.889 3.52232 -2.60508 0
M  V30 1404 C 129.39 4.32145 -0.988198 0
M  V30 1405 H 126.61 0.602495 -0.295366 0
M  V30 1406 H 129.154 1.4627 -1.42918 0
M  V30 1407 H 127.309 3.81958 -0.647039 0
M  V30 1408 H 127.723 4.45549 -2.76742 0
M  V30 1409 H 129.197 5.36072 -1.31645 0
M  V30 1410 H 129.674 4.39135 0.0755063 0
M  V30 1411 H 130.28 3.96395 -1.54115 0
M  V30 1412 N 128.595 0.856903 1.32268 0
M  V30 1413 C 129.82 0.474569 2.01897 0
M  V30 1414 C 130.245 -0.921766 1.63967 0
M  V30 1415 O 129.603 -1.60589 0.84148 0
M  V30 1416 C 129.651 0.623799 3.55164 0
M  V30 1417 O 128.755 -0.342459 4.10976 0
M  V30 1418 H 128.096 0.190422 0.63611 0
M  V30 1419 H 130.626 1.15672 1.68764 0
M  V30 1420 H 130.636 0.512169 4.04773 0
M  V30 1421 H 129.311 1.64202 3.82113 0
M  V30 1422 H 127.888 -0.18688 3.72431 0
M  V30 1423 N 130.073 -1.45103 0.615059 0
M  V30 1424 C 131.298 -2.07064 0.117988 0
M  V30 1425 C 131.723 -1.4554 -1.19163 0
M  V30 1426 O 131.081 -0.550855 -1.72729 0
M  V30 1427 C 131.129 -3.606 -0.000288387 0
M  V30 1428 O 130.233 -3.98847 -1.04856 0
M  V30 1429 H 129.574 -0.659467 0.0774581 0
M  V30 1430 H 132.104 -1.86236 0.847186 0
M  V30 1431 H 132.114 -4.07529 -0.196091 0
M  V30 1432 H 130.789 -4.04765 0.955932 0
M  V30 1433 H 129.366 -3.63577 -0.828619 0
M  V30 1434 N 131.551 -0.354651 -1.53558 0
M  V30 1435 C 132.799 0.237972 -2.00694 0
M  V30 1436 C 133.12 1.50173 -1.24391 0
M  V30 1437 O 132.39 1.92673 -0.354135 0
M  V30 1438 H 130.97 0.0909256 -0.741446 0
M  V30 1439 H 133.632 -0.478368 -1.88938 0
M  V30 1440 H 132.728 0.47264 -3.085 0
M  V30 1441 N 133.029 1.57378 -0.0835403 0
M  V30 1442 C 133.961 2.10389 0.909338 0
M  V30 1443 C 134.974 1.03858 1.25369 0
M  V30 1444 O 136.163 1.31338 1.20882 0
M  V30 1445 C 133.263 2.55908 2.2218 0
M  V30 1446 C 132.436 3.86145 2.05453 0
M  V30 1447 C 131.495 4.17633 3.20108 0
M  V30 1448 O 130.521 4.87043 2.94581 0
M  V30 1449 N 131.723 3.72113 4.45547 0
M  V30 1450 H 134.488 2.962 0.456657 0
M  V30 1451 H 132.049 1.61579 0.101877 0
M  V30 1452 H 134.041 2.74027 2.97811 0
M  V30 1453 H 132.611 1.75171 2.58909 0
M  V30 1454 H 131.831 3.7729 1.1422 0
M  V30 1455 H 133.119 4.7137 1.91541 0
M  V30 1456 H 132.517 3.16062 4.69171 0
M  V30 1457 H 131.074 3.95409 5.18165 0
M  V30 1458 N 134.507 -0.190092 1.56449 0
M  V30 1459 C 135.753 -0.911052 1.81184 0
M  V30 1460 C 136.086 -1.82699 0.658396 0
M  V30 1461 O 135.361 -1.91491 -0.340775 0
M  V30 1462 C 135.644 -1.72297 3.16205 0
M  V30 1463 C 135.497 -0.831419 4.42049 0
M  V30 1464 C 136.816 -2.69454 3.47969 0
M  V30 1465 H 133.935 -0.32977 0.659106 0
M  V30 1466 H 136.577 -0.178169 1.89163 0
M  V30 1467 H 134.727 -2.34778 3.09534 0
M  V30 1468 H 136.399 -0.220929 4.60771 0
M  V30 1469 H 134.642 -0.138406 4.33579 0
M  V30 1470 H 135.313 -1.43461 5.33032 0
M  V30 1471 H 137.789 -2.17104 3.54972 0
M  V30 1472 H 136.665 -3.23342 4.43555 0
M  V30 1473 H 136.926 -3.48744 2.71717 0
M  V30 1474 N 135.985 -1.50799 -0.457987 0
M  V30 1475 C 137.401 -1.38515 -0.792819 0
M  V30 1476 C 137.601 -0.451409 -1.96379 0
M  V30 1477 O 136.657 0.10112 -2.52297 0
M  V30 1478 C 137.97 -2.80149 -1.09258 0
M  V30 1479 C 139.518 -2.89156 -1.19825 0
M  V30 1480 C 139.993 -4.31651 -1.53106 0
M  V30 1481 N 141.484 -4.34662 -1.60072 0
M  V30 1482 C 142.219 -5.41928 -1.87354 0
M  V30 1483 N 141.715 -6.59384 -2.12568 0
M  V30 1484 N 143.508 -5.29385 -1.88965 0
M  V30 1485 H 135.659 -2.10073 0.313511 0
M  V30 1486 H 137.922 -0.944803 0.0777862 0
M  V30 1487 H 137.628 -3.50374 -0.305084 0
M  V30 1488 H 137.502 -3.18204 -2.02549 0
M  V30 1489 H 139.889 -2.19141 -1.97639 0
M  V30 1490 H 139.97 -2.54626 -0.244821 0
M  V30 1491 H 139.614 -5.02208 -0.758266 0
M  V30 1492 H 139.544 -4.63678 -2.49621 0
M  V30 1493 H 142.035 -3.49973 -1.42573 0
M  V30 1494 H 142.348 -7.36934 -2.32696 0
M  V30 1495 H 140.693 -6.62535 -2.09933 0
M  V30 1496 H 143.884 -4.36616 -1.68772 0
M  V30 1497 H 144.057 -6.13066 -2.09891 0
M  V30 1498 N 137.463 0.71206 -1.40597 0
M  V30 1499 C 138.396 1.83582 -1.35546 0
M  V30 1500 C 139.374 1.61032 -0.225284 0
M  V30 1501 O 140.558 1.83998 -0.409519 0
M  V30 1502 C 137.685 3.19983 -1.11034 0
M  V30 1503 C 136.731 3.61355 -2.2655 0
M  V30 1504 S 137.564 3.68062 -3.88961 0
M  V30 1505 C 138.72 5.07216 -3.66719 0
M  V30 1506 H 138.953 1.87586 -2.30648 0
M  V30 1507 H 136.486 0.879182 -1.26924 0
M  V30 1508 H 138.444 3.98734 -0.975761 0
M  V30 1509 H 137.105 3.13608 -0.175798 0
M  V30 1510 H 136.298 4.60403 -2.0505 0
M  V30 1511 H 135.9 2.8987 -2.36329 0
M  V30 1512 H 138.192 5.94238 -3.25404 0
M  V30 1513 H 139.135 5.33753 -4.6531 0
M  V30 1514 H 139.543 4.77976 -3.00332 0
M  V30 1515 N 138.941 1.26152 0.944643 0
M  V30 1516 C 139.871 1.09902 2.06019 0
M  V30 1517 C 140.852 0.00519538 1.70099 0
M  V30 1518 O 142.037 0.176583 1.93396 0
M  V30 1519 C 139.167 0.727562 3.39594 0
M  V30 1520 C 138.121 1.77274 3.89561 0
M  V30 1521 C 137.447 1.25569 5.19747 0
M  V30 1522 C 138.747 3.17357 4.14827 0
M  V30 1523 H 140.441 2.03217 2.19871 0
M  V30 1524 H 137.987 0.978452 1.05652 0
M  V30 1525 H 139.94 0.600777 4.17095 0
M  V30 1526 H 138.664 -0.241287 3.25707 0
M  V30 1527 H 137.323 1.88814 3.14237 0
M  V30 1528 H 136.971 0.276783 5.02238 0
M  V30 1529 H 136.671 1.95433 5.54148 0
M  V30 1530 H 138.195 1.1415 5.99835 0
M  V30 1531 H 139.609 3.08914 4.82954 0
M  V30 1532 H 138.006 3.84781 4.60504 0
M  V30 1533 H 139.076 3.63673 3.20734 0
M  V30 1534 N 140.419 -1.14872 1.07899 0
M  V30 1535 C 141.349 -2.2193 0.725887 0
M  V30 1536 C 142.33 -1.67622 -0.28927 0
M  V30 1537 O 143.515 -1.93533 -0.160787 0
M  V30 1538 C 140.645 -3.47061 0.128856 0
M  V30 1539 C 139.599 -4.14363 1.07178 0
M  V30 1540 C 138.925 -5.33636 0.337229 0
M  V30 1541 C 140.225 -4.63492 2.40775 0
M  V30 1542 H 141.919 -2.51724 1.62097 0
M  V30 1543 H 139.465 -1.20991 0.780838 0
M  V30 1544 H 141.418 -4.21199 -0.130147 0
M  V30 1545 H 140.142 -3.16617 -0.80134 0
M  V30 1546 H 138.801 -3.42173 1.3158 0
M  V30 1547 H 138.449 -4.99449 -0.596606 0
M  V30 1548 H 138.149 -5.79609 0.965788 0
M  V30 1549 H 139.673 -6.10539 0.0861567 0
M  V30 1550 H 141.087 -5.2913 2.20669 0
M  V30 1551 H 139.484 -5.20148 2.99276 0
M  V30 1552 H 140.554 -3.78834 3.02676 0
M  V30 1553 N 141.898 -0.863906 -1.31812 0
M  V30 1554 C 143.175 -0.39275 -1.91616 0
M  V30 1555 C 143.555 1.12461 -1.7865 0
M  V30 1556 O 142.903 1.95045 -1.19037 0
M  V30 1557 C 143.113 -0.867385 -3.38049 0
M  V30 1558 C 144.461 -0.889966 -4.15168 0
M  V30 1559 O 145.485 -0.812635 -3.46806 0
M  V30 1560 O 144.344 -1.00079 -5.37258 0
M  V30 1561 H 141.438 -0.116358 -0.818773 0
M  V30 1562 H 143.984 -0.951418 -1.40521 0
M  V30 1563 H 142.756 -1.91081 -3.41473 0
M  V30 1564 H 142.379 -0.286687 -3.96565 0
M  V30 1565 N 143.376 1.44774 -0.622745 0
M  V30 1566 C 144.604 2.06487 -0.130722 0
M  V30 1567 C 145.019 1.46476 1.19123 0
M  V30 1568 O 144.376 0.584502 1.72887 0
M  V30 1569 C 144.427 3.615 -0.000807207 0
M  V30 1570 O 144.148 4.19274 -1.27048 0
M  V30 1571 C 145.649 4.40229 0.520898 0
M  V30 1572 H 142.869 0.666704 -0.0758106 0
M  V30 1573 H 145.413 1.85779 -0.854774 0
M  V30 1574 H 143.568 3.81498 0.673643 0
M  V30 1575 H 143.982 5.12622 -1.1099 0
M  V30 1576 H 145.456 5.49144 0.560838 0
M  V30 1577 H 145.933 4.1108 1.54627 0
M  V30 1578 H 146.539 4.25131 -0.120018 0
M  V30 1579 N 144.854 0.36279 1.53368 0
M  V30 1580 C 146.27 0.0116182 1.59596 0
M  V30 1581 C 146.47 -1.47012 1.37803 0
M  V30 1582 O 145.526 -2.23136 1.18181 0
M  V30 1583 C 146.839 0.465052 2.97082 0
M  V30 1584 C 148.387 0.419033 3.10182 0
M  V30 1585 C 148.862 0.848235 4.50077 0
M  V30 1586 N 150.353 0.803183 4.56183 0
M  V30 1587 C 151.088 1.107 5.62613 0
M  V30 1588 N 150.584 1.47996 6.76808 0
M  V30 1589 N 152.377 1.02998 5.52583 0
M  V30 1590 H 144.528 1.32775 1.65785 0
M  V30 1591 H 146.791 0.542518 0.777417 0
M  V30 1592 H 146.497 1.49892 3.18159 0
M  V30 1593 H 146.371 -0.149786 3.76902 0
M  V30 1594 H 148.758 -0.605696 2.88817 0
M  V30 1595 H 148.839 1.06933 2.32377 0
M  V30 1596 H 148.483 1.87107 4.7218 0
M  V30 1597 H 148.413 0.175218 5.26308 0
M  V30 1598 H 150.904 0.52838 3.74188 0
M  V30 1599 H 151.217 1.69613 7.53957 0
M  V30 1600 H 149.562 1.51859 6.78206 0
M  V30 1601 H 152.753 0.737817 4.62249 0
M  V30 1602 H 152.926 1.2701 6.35431 0
M  V30 1603 N 146.332 -1.57332 0.0918853 0
M  V30 1604 C 147.282 -2.10385 -0.87876 0
M  V30 1605 C 148.266 -1.01814 -1.24591 0
M  V30 1606 O 149.458 -1.28093 -1.22152 0
M  V30 1607 C 146.587 -2.68517 -2.13901 0
M  V30 1608 C 145.673 -3.84126 -1.79744 0
M  V30 1609 N 146.064 -4.92288 -1.1613 0
M  V30 1610 C 144.362 -3.93801 -2.09373 0
M  V30 1611 C 145.063 -5.7295 -1.00513 0
M  V30 1612 N 144.039 -5.21876 -1.5214 0
M  V30 1613 H 147.841 -2.91395 -0.38293 0
M  V30 1614 H 145.355 -1.62017 -0.111423 0
M  V30 1615 H 147.352 -3.04852 -2.84378 0
M  V30 1616 H 146.012 -1.88961 -2.64053 0
M  V30 1617 H 147.023 -5.1123 -0.828504 0
M  V30 1618 H 143.7 -3.25249 -2.61762 0
M  V30 1619 H 145.09 -6.69978 -0.507902 0
M  V30 1620 N 147.81 0.181792 -1.56548 0
M  V30 1621 C 149.035 0.920019 -1.85877 0
M  V30 1622 C 149.46 1.75494 -0.677021 0
M  V30 1623 O 148.818 1.77399 0.374056 0
M  V30 1624 C 148.866 1.78112 -3.13542 0
M  V30 1625 O 147.97 2.88152 -2.95029 0
M  V30 1626 H 147.311 0.258334 -0.611686 0
M  V30 1627 H 149.841 0.183092 -2.03779 0
M  V30 1628 H 149.851 2.18314 -3.44678 0
M  V30 1629 H 148.526 1.16777 -3.99169 0
M  V30 1630 H 147.103 2.51609 -2.75222 0
M  V30 1631 N 149.288 1.51039 0.449983 0
M  V30 1632 C 150.537 1.62317 1.19733 0
M  V30 1633 C 150.85 0.339101 1.92638 0
M  V30 1634 O 152.056 0.331069 2.69474 0
M  V30 1635 C 150.512 2.86608 2.17678 0
M  V30 1636 C 150.12 4.21972 1.50479 0
M  V30 1637 C 151.864 3.07239 2.92924 0
M  V30 1638 C 149.771 5.37426 2.46834 0
M  V30 1639 H 148.701 0.604532 0.450619 0
M  V30 1640 H 151.352 1.77494 0.465625 0
M  V30 1641 H 149.734 2.65037 2.94231 0
M  V30 1642 H 150.908 4.53878 0.795716 0
M  V30 1643 H 149.223 4.07117 0.874344 0
M  V30 1644 H 151.82 3.90668 3.65079 0
M  V30 1645 H 152.163 2.19807 3.5354 0
M  V30 1646 H 152.696 3.29091 2.23481 0
M  V30 1647 H 149.435 6.27079 1.90926 0
M  V30 1648 H 148.955 5.09912 3.15832 0
M  V30 1649 H 150.634 5.68862 3.08228 0
M  V30 1650 N 150.766 -0.704594 1.40972 0
M  V30 1651 C 151.676 -1.84856 1.44448 0
M  V30 1652 C 152.692 -1.70726 0.335961 0
M  V30 1653 O 153.868 -1.92799 0.582276 0
M  V30 1654 C 150.933 -3.20758 1.31587 0
M  V30 1655 C 149.994 -3.47063 2.52677 0
M  V30 1656 C 149.227 -4.76481 2.4042 0
M  V30 1657 O 149.45 -5.52341 1.42391 0
M  V30 1658 O 148.384 -5.03367 3.30007 0
M  V30 1659 H 152.21 -1.8488 2.40942 0
M  V30 1660 H 149.795 -0.85647 1.22413 0
M  V30 1661 H 151.677 -4.01913 1.26665 0
M  V30 1662 H 150.352 -3.21438 0.382049 0
M  V30 1663 H 149.259 -2.65873 2.63177 0
M  V30 1664 H 150.592 -3.5119 3.44858 0
M  V30 1665 N 152.244 -1.26651 -0.937939 0
M  V30 1666 C 153.492 -1.12165 -1.68118 0
M  V30 1667 C 153.813 0.334983 -1.92101 0
M  V30 1668 O 153.083 1.23583 -1.52 0
M  V30 1669 H 151.663 -0.412093 -0.623048 0
M  V30 1670 H 154.325 -1.59027 -1.12678 0
M  V30 1671 H 153.421 -1.64289 -2.6536 0
M  V30 1672 N 153.722 1.14298 -1.08507 0
M  V30 1673 C 154.672 2.17449 -0.685569 0
M  V30 1674 C 155.656 1.58167 0.295315 0
M  V30 1675 O 156.848 1.76675 0.107172 0
M  V30 1676 C 153.977 3.43161 -0.0975318 0
M  V30 1677 C 153.063 4.09471 -1.10426 0
M  V30 1678 N 153.454 4.51089 -2.28806 0
M  V30 1679 C 151.752 4.35976 -0.940258 0
M  V30 1680 C 152.453 5.02654 -2.9277 0
M  V30 1681 N 151.429 4.96927 -2.20374 0
M  V30 1682 H 155.231 2.47369 -1.587 0
M  V30 1683 H 152.745 1.30992 -0.959936 0
M  V30 1684 H 154.742 4.16388 0.20664 0
M  V30 1685 H 153.402 3.14719 0.798872 0
M  V30 1686 H 154.413 4.44097 -2.66455 0
M  V30 1687 H 151.09 4.17386 -0.0977441 0
M  V30 1688 H 152.48 5.44723 -3.93352 0
M  V30 1689 N 155.201 0.870884 1.31352 0
M  V30 1690 C 156.151 0.298889 2.26032 0
M  V30 1691 C 157.135 -0.564595 1.50669 0
M  V30 1692 O 158.327 -0.411323 1.72154 0
M  V30 1693 C 155.456 -0.497842 3.39671 0
M  V30 1694 C 154.542 0.378937 4.22404 0
M  V30 1695 N 154.933 1.47284 4.83881 0
M  V30 1696 C 153.231 0.171535 4.4567 0
M  V30 1697 C 153.932 2.01359 5.45738 0
M  V30 1698 N 152.908 1.31047 5.27568 0
M  V30 1699 H 156.71 1.13494 2.71102 0
M  V30 1700 H 154.224 0.718745 1.45629 0
M  V30 1701 H 156.221 -0.924155 4.06528 0
M  V30 1702 H 154.881 -1.33149 2.96144 0
M  V30 1703 H 155.892 1.85575 4.8351 0
M  V30 1704 H 152.569 -0.626091 4.12779 0
M  V30 1705 H 153.959 2.93143 6.0458 0
M  V30 1706 N 156.679 -1.44442 0.630414 0
M  V30 1707 C 157.925 -2.02351 0.134816 0
M  V30 1708 C 158.258 -1.4947 -1.23986 0
M  V30 1709 O 157.533 -0.678475 -1.82283 0
M  V30 1710 C 157.816 -3.59898 0.120707 0
M  V30 1711 C 157.669 -4.23063 1.52767 0
M  V30 1712 C 158.988 -4.36585 -0.555127 0
M  V30 1713 H 156.107 -0.73527 0.0504646 0
M  V30 1714 H 158.749 -1.72022 0.806751 0
M  V30 1715 H 156.899 -3.85868 -0.451477 0
M  V30 1716 H 158.571 -4.08202 2.14869 0
M  V30 1717 H 156.814 -3.80586 2.08175 0
M  V30 1718 H 157.485 -5.32071 1.46984 0
M  V30 1719 H 159.961 -4.16044 -0.0685429 0
M  V30 1720 H 158.837 -5.46294 -0.534185 0
M  V30 1721 H 159.098 -4.11138 -1.62535 0
M  V30 1722 N 158.157 -0.370918 -1.53173 0
M  V30 1723 C 159.087 0.464847 -2.28826 0
M  V30 1724 C 160.068 1.07936 -1.31468 0
M  V30 1725 O 161.253 1.0956 -1.60344 0
M  V30 1726 C 158.383 1.60196 -3.08147 0
M  V30 1727 C 157.337 1.11443 -4.13237 0
M  V30 1728 C 156.663 2.3422 -4.80672 0
M  V30 1729 C 157.963 0.195384 -5.21934 0
M  V30 1730 H 159.657 -0.166329 -2.98938 0
M  V30 1731 H 157.203 -0.0814359 -1.4377 0
M  V30 1732 H 159.156 2.19332 -3.59822 0
M  V30 1733 H 157.88 2.26045 -2.35735 0
M  V30 1734 H 156.539 0.545727 -3.62515 0
M  V30 1735 H 156.187 2.98537 -4.04827 0
M  V30 1736 H 155.887 2.02269 -5.51689 0
M  V30 1737 H 157.411 2.94032 -5.35143 0
M  V30 1738 H 158.825 0.694375 -5.69079 0
M  V30 1739 H 157.222 -0.0335027 -6.00091 0
M  V30 1740 H 158.292 -0.760961 -4.78892 0
M  V30 1741 N 159.635 1.57281 -0.100228 0
M  V30 1742 C 160.884 1.93713 0.561984 0
M  V30 1743 C 161.197 0.984492 1.69018 0
M  V30 1744 O 162.403 1.24273 2.41389 0
M  V30 1745 C 160.859 3.4421 1.05106 0
M  V30 1746 C 160.467 4.47975 -0.0476628 0
M  V30 1747 C 162.211 3.89595 1.68571 0
M  V30 1748 C 160.118 5.89631 0.457055 0
M  V30 1749 H 159.048 0.723082 0.2137 0
M  V30 1750 H 161.699 1.82644 -0.177057 0
M  V30 1751 H 160.081 3.50449 1.84395 0
M  V30 1752 H 161.255 4.53385 -0.823333 0
M  V30 1753 H 159.57 4.1223 -0.587816 0
M  V30 1754 H 162.167 4.92832 2.07414 0
M  V30 1755 H 162.51 3.28526 2.55688 0
M  V30 1756 H 163.043 3.86078 0.958562 0
M  V30 1757 H 159.782 6.54411 -0.377616 0
M  V30 1758 H 159.302 5.87681 1.19962 0
M  V30 1759 H 160.981 6.40363 0.92437 0
M  V30 1760 N 161.113 -0.173488 1.56642 0
M  V30 1761 C 162.359 -0.891784 1.8214 0
M  V30 1762 C 162.692 -1.8199 0.677736 0
M  V30 1763 O 161.967 -1.91842 -0.320446 0
M  V30 1764 C 162.25 -1.68933 3.18015 0
M  V30 1765 C 162.103 -0.784487 4.42906 0
M  V30 1766 C 163.422 -2.65748 3.50808 0
M  V30 1767 H 160.541 -0.322761 0.662567 0
M  V30 1768 H 163.183 -0.158095 1.89341 0
M  V30 1769 H 161.333 -2.31482 3.12007 0
M  V30 1770 H 163.005 -0.172046 4.60979 0
M  V30 1771 H 161.248 -0.0924117 4.33702 0
M  V30 1772 H 161.919 -1.37799 5.34524 0
M  V30 1773 H 164.395 -2.13327 3.57255 0
M  V30 1774 H 163.271 -3.18619 4.4696 0
M  V30 1775 H 163.532 -3.45842 2.75401 0
M  V30 1776 N 162.591 -1.51276 -0.441967 0
M  V30 1777 C 163.501 -1.75092 -1.56141 0
M  V30 1778 C 164.517 -0.634963 -1.62001 0
M  V30 1779 O 165.693 -0.916686 -1.79329 0
M  V30 1780 C 162.758 -1.86666 -2.92158 0
M  V30 1781 C 161.819 -3.10506 -2.96453 0
M  V30 1782 C 161.052 -3.21519 -4.25982 0
M  V30 1783 O 161.275 -2.38586 -5.18105 0
M  V30 1784 O 160.209 -4.14465 -4.36466 0
M  V30 1785 H 164.035 -2.70044 -1.38961 0
M  V30 1786 H 161.62 -1.35722 -0.624499 0
M  V30 1787 H 163.502 -1.96292 -3.72891 0
M  V30 1788 H 162.177 -0.949014 -3.09476 0
M  V30 1789 H 161.084 -3.06363 -2.14692 0
M  V30 1790 H 162.417 -4.01945 -2.84079 0
M  V30 1791 N 164.069 0.697108 -1.41344 0
M  V30 1792 C 165.346 1.45154 -1.31109 0
M  V30 1793 C 165.726 2.11009 0.0620449 0
M  V30 1794 O 165.074 2.01571 1.07618 0
M  V30 1795 C 165.284 2.47223 -2.46337 0
M  V30 1796 C 166.632 3.1252 -2.87431 0
M  V30 1797 O 167.656 2.57547 -2.46065 0
M  V30 1798 O 166.515 4.12083 -3.58957 0
M  V30 1799 H 163.609 0.646365 -0.515889 0
M  V30 1800 H 166.155 0.727716 -1.53305 0
M  V30 1801 H 164.927 1.97204 -3.37974 0
M  V30 1802 H 164.55 3.27116 -2.2601 0
M  V30 1803 N 165.547 1.27147 0.931209 0
M  V30 1804 C 166.796 1.12664 1.67302 0
M  V30 1805 C 167.109 -0.327718 1.92835 0
M  V30 1806 O 168.315 -0.593392 2.64936 0
M  V30 1807 C 166.771 1.9683 3.01307 0
M  V30 1808 C 166.379 3.46901 2.83485 0
M  V30 1809 C 168.123 1.90985 3.79111 0
M  V30 1810 C 166.03 4.23279 4.13024 0
M  V30 1811 H 164.96 0.41803 0.627509 0
M  V30 1812 H 167.611 1.51539 1.03481 0
M  V30 1813 H 165.993 1.50797 3.66164 0
M  V30 1814 H 167.167 4.00773 2.27415 0
M  V30 1815 H 165.482 3.54088 2.19113 0
M  V30 1816 H 168.079 2.45328 4.75098 0
M  V30 1817 H 168.422 0.882718 4.06834 0
M  V30 1818 H 168.955 2.34895 3.21044 0
M  V30 1819 H 165.694 5.26503 3.90481 0
M  V30 1820 H 165.214 3.74186 4.6877 0
M  V30 1821 H 166.893 4.32265 4.81411 0
M  V30 1822 N 167.025 -1.13721 1.09112 0
M  V30 1823 C 168.271 -1.85198 0.826414 0
M  V30 1824 C 168.604 -1.83129 -0.646319 0
M  V30 1825 O 167.879 -1.2671 -1.47563 0
M  V30 1826 C 168.162 -3.33507 1.35812 0
M  V30 1827 C 168.015 -3.44108 2.89672 0
M  V30 1828 C 169.334 -4.28838 0.989256 0
M  V30 1829 H 166.453 -0.67243 0.301675 0
M  V30 1830 H 169.095 -1.33499 1.35197 0
M  V30 1831 H 167.245 -3.77666 0.911082 0
M  V30 1832 H 168.917 -3.08684 3.428 0
M  V30 1833 H 167.16 -2.85087 3.26967 0
M  V30 1834 H 167.831 -4.48388 3.21951 0
M  V30 1835 H 170.307 -3.92734 1.37475 0
M  V30 1836 H 169.183 -5.31051 1.38838 0
M  V30 1837 H 169.444 -4.4198 -0.102924 0
M  V30 1838 N 168.503 -0.877838 -1.30888 0
M  V30 1839 C 169.78 -0.413052 -1.91189 0
M  V30 1840 C 170.16 1.1056 -1.79832 0
M  V30 1841 O 169.508 1.93771 -1.21099 0
M  V30 1842 C 169.718 -0.903191 -3.3711 0
M  V30 1843 C 171.066 -0.93395 -4.14201 0
M  V30 1844 O 172.09 -0.849373 -3.45925 0
M  V30 1845 O 170.949 -1.05772 -5.36167 0
M  V30 1846 H 168.043 -0.125035 -0.817493 0
M  V30 1847 H 170.589 -0.966269 -1.39504 0
M  V30 1848 H 169.361 -1.94692 -3.39427 0
M  V30 1849 H 168.984 -0.328732 -3.96239 0
M  V30 1850 N 169.982 1.44106 -0.638065 0
M  V30 1851 C 171.21 2.06336 -0.152615 0
M  V30 1852 C 171.625 1.47731 1.17563 0
M  V30 1853 O 170.982 0.602806 1.72257 0
M  V30 1854 C 171.033 3.61479 -0.0391491 0
M  V30 1855 O 170.754 4.17903 -1.31487 0
M  V30 1856 C 172.255 4.40757 0.474176 0
M  V30 1857 H 169.475 0.665862 -0.0828776 0
M  V30 1858 H 172.019 1.84862 -0.87443 0
M  V30 1859 H 170.174 3.82191 0.633142 0
M  V30 1860 H 170.588 5.11416 -1.16421 0
M  V30 1861 H 172.062 5.49707 0.502562 0
M  V30 1862 H 172.539 4.12697 1.50258 0
M  V30 1863 H 173.145 4.24979 -0.165102 0
M  V30 1864 N 171.46 0.379036 1.52974 0
M  V30 1865 C 172.423 -0.448865 2.24762 0
M  V30 1866 C 173.423 -0.998689 1.26027 0
M  V30 1867 O 174.613 -0.882313 1.50203 0
M  V30 1868 C 171.745 -1.62872 2.99476 0
M  V30 1869 H 172.938 0.179491 2.99362 0
M  V30 1870 H 170.491 0.13096 1.5575 0
M  V30 1871 H 171.226 -2.29479 2.29151 0
M  V30 1872 H 171.011 -1.24128 3.71934 0
M  V30 1873 H 172.501 -2.2151 3.5401 0
M  V30 1874 N 172.938 -1.57226 0.108567 0
M  V30 1875 C 173.868 -2.17778 -0.84232 0
M  V30 1876 C 174.849 -1.11487 -1.2847 0
M  V30 1877 O 176.034 -1.39681 -1.34918 0
M  V30 1878 C 173.164 -2.76888 -2.09644 0
M  V30 1879 C 172.118 -3.88669 -1.79221 0
M  V30 1880 C 171.444 -4.34541 -3.11574 0
M  V30 1881 C 172.744 -5.11251 -1.06864 0
M  V30 1882 H 174.438 -2.97489 -0.337774 0
M  V30 1883 H 171.984 -1.43097 -0.161025 0
M  V30 1884 H 173.937 -3.17904 -2.76614 0
M  V30 1885 H 172.661 -1.94451 -2.62405 0
M  V30 1886 H 171.32 -3.48213 -1.14644 0
M  V30 1887 H 170.968 -3.48977 -3.62249 0
M  V30 1888 H 170.668 -5.09914 -2.91996 0
M  V30 1889 H 172.192 -4.782 -3.7968 0
M  V30 1890 H 173.606 -5.49352 -1.63968 0
M  V30 1891 H 172.003 -5.9214 -0.974178 0
M  V30 1892 H 173.073 -4.8487 -0.0536168 0
M  V30 1893 N 174.416 0.165178 -1.56732 0
M  V30 1894 C 175.644 0.896218 -1.86482 0
M  V30 1895 C 176.059 1.75555 -0.694675 0
M  V30 1896 O 175.416 1.79379 0.33607 0
M  V30 1897 C 175.467 1.76792 -3.1532 0
M  V30 1898 O 175.188 0.943239 -4.27825 0
M  V30 1899 C 176.689 2.6081 -3.58459 0
M  V30 1900 H 173.909 0.260064 -0.618553 0
M  V30 1901 H 176.453 0.163428 -2.03846 0
M  V30 1902 H 174.608 2.45398 -2.99764 0
M  V30 1903 H 175.022 1.53998 -5.01383 0
M  V30 1904 H 176.496 3.17579 -4.51495 0
M  V30 1905 H 176.973 3.35977 -2.82872 0
M  V30 1906 H 177.579 1.97526 -3.76648 0
M  V30 1907 N 175.894 1.51508 0.433938 0
M  V30 1908 C 176.824 1.76016 1.53429 0
M  V30 1909 C 177.805 0.610112 1.58782 0
M  V30 1910 O 178.99 0.853177 1.74455 0
M  V30 1911 C 176.12 1.88831 2.9148 0
M  V30 1912 C 175.074 3.04288 3.00987 0
M  V30 1913 C 174.4 3.0229 4.4105 0
M  V30 1914 C 175.7 4.44193 2.74754 0
M  V30 1915 H 177.394 2.68152 1.33171 0
M  V30 1916 H 174.94 1.29035 0.639214 0
M  V30 1917 H 176.893 2.04559 3.6842 0
M  V30 1918 H 175.617 0.933455 3.12976 0
M  V30 1919 H 174.276 2.8827 2.26486 0
M  V30 1920 H 173.924 2.04576 4.59519 0
M  V30 1921 H 173.624 3.79822 4.4834 0
M  V30 1922 H 175.148 3.20116 5.1996 0
M  V30 1923 H 176.562 4.60544 3.41426 0
M  V30 1924 H 174.959 5.23457 2.9345 0
M  V30 1925 H 176.029 4.53996 1.70339 0
M  V30 1926 N 177.372 -0.689602 1.41712 0
M  V30 1927 C 178.32 -1.82475 1.44242 0
M  V30 1928 C 179.314 -1.66354 0.319774 0
M  V30 1929 O 180.52 -1.73143 0.492089 0
M  V30 1930 H 176.895 -0.601416 0.451445 0
M  V30 1931 H 178.866 -1.77458 2.39899 0
M  V30 1932 C 177.615 -3.20535 1.3473 0
M  V30 1933 H 176.938 -3.33559 2.20405 0
M  V30 1934 H 178.378 -4.00023 1.40562 0
M  V30 1935 C 176.837 -3.36846 0.0603281 0
M  V30 1936 O 177.367 -3.91656 -0.892663 0
M  V30 1937 N 175.573 -2.90595 -0.0177039 0
M  V30 1938 H 175.12 -2.46178 0.758572 0
M  V30 1939 H 175.078 -3.01886 -0.878201 0
M  V30 1940 N 178.85 -1.27639 -0.924453 0
M  V30 1941 C 180.08 -1.16819 -1.70402 0
M  V30 1942 C 180.488 0.277191 -1.87158 0
M  V30 1943 O 179.831 1.20025 -1.39067 0
M  V30 1944 C 179.893 -1.78305 -3.12166 0
M  V30 1945 C 179.557 -3.27502 -3.18734 0
M  V30 1946 C 180.554 -4.2409 -3.00738 0
M  V30 1947 C 178.239 -3.68269 -3.4159 0
M  V30 1948 C 180.233 -5.59422 -3.05492 0
M  V30 1949 C 177.92 -5.0373 -3.45977 0
M  V30 1950 C 178.918 -5.99116 -3.27946 0
M  V30 1951 O 178.606 -7.32108 -3.32074 0
M  V30 1952 H 178.338 -0.406931 -0.539799 0
M  V30 1953 H 180.892 -1.69078 -1.16626 0
M  V30 1954 H 179.122 -1.20528 -3.67437 0
M  V30 1955 H 180.811 -1.62154 -3.72103 0
M  V30 1956 H 181.577 -3.93931 -2.82919 0
M  V30 1957 H 177.456 -2.94496 -3.54673 0
M  V30 1958 H 181 -6.33852 -2.91337 0
M  V30 1959 H 176.897 -5.33543 -3.63321 0
M  V30 1960 H 177.665 -7.40598 -3.48507 0
M  V30 1961 N 180.328 1.1314 -1.09713 0
M  V30 1962 C 181.258 2.20748 -0.761102 0
M  V30 1963 C 182.239 1.68061 0.262566 0
M  V30 1964 O 183.424 1.93765 0.129977 0
M  V30 1965 C 180.554 3.46812 -0.184054 0
M  V30 1966 C 179.508 4.12606 -1.13757 0
M  V30 1967 C 178.834 5.33031 -0.422083 0
M  V30 1968 C 180.134 4.59603 -2.48118 0
M  V30 1969 H 181.828 2.49113 -1.66082 0
M  V30 1970 H 179.374 1.19734 -0.799987 0
M  V30 1971 H 181.327 4.21353 0.0631215 0
M  V30 1972 H 180.051 3.17851 0.750868 0
M  V30 1973 H 178.71 3.40036 -1.37007 0
M  V30 1974 H 178.358 5.00335 0.517072 0
M  V30 1975 H 178.058 5.77999 -1.05788 0
M  V30 1976 H 179.582 6.10325 -0.183277 0
M  V30 1977 H 180.996 5.25552 -2.29059 0
M  V30 1978 H 179.393 5.15321 -3.07514 0
M  V30 1979 H 180.463 3.73971 -3.08665 0
M  V30 1980 N 181.806 0.884767 1.30421 0
M  V30 1981 C 183.036 0.517293 2.00019 0
M  V30 1982 C 183.444 -0.898632 1.66497 0
M  V30 1983 O 182.787 -1.60245 0.898181 0
M  V30 1984 C 182.849 0.612025 3.54252 0
M  V30 1985 C 182.513 1.99222 4.1129 0
M  V30 1986 C 183.51 2.9616 4.273 0
M  V30 1987 C 181.195 2.29755 4.46674 0
M  V30 1988 C 183.189 4.21764 4.77906 0
M  V30 1989 C 180.876 3.55606 4.96979 0
M  V30 1990 C 181.874 4.51425 5.12547 0
M  V30 1991 O 181.562 5.75043 5.61766 0
M  V30 1992 H 181.294 0.198529 0.64619 0
M  V30 1993 H 183.848 1.1919 1.67281 0
M  V30 1994 H 182.078 -0.119561 3.86515 0
M  V30 1995 H 183.767 0.255859 4.05093 0
M  V30 1996 H 184.533 2.73882 4.00267 0
M  V30 1997 H 180.412 1.55942 4.33824 0
M  V30 1998 H 183.956 4.96561 4.89972 0
M  V30 1999 H 179.853 3.7772 5.23448 0
M  V30 2000 H 180.621 5.77422 5.80109 0
M  V30 2001 N 183.284 -1.43765 0.645699 0
M  V30 2002 C 184.234 -2.27884 -0.0726442 0
M  V30 2003 C 185.218 -1.39483 -0.802086 0
M  V30 2004 O 186.41 -1.63174 -0.685791 0
M  V30 2005 C 183.539 -3.27055 -1.04356 0
M  V30 2006 C 182.625 -4.22944 -0.312985 0
M  V30 2007 N 183.016 -5.01391 0.666386 0
M  V30 2008 C 181.314 -4.42528 -0.55546 0
M  V30 2009 C 182.015 -5.71217 1.09935 0
M  V30 2010 N 180.991 -5.41856 0.435137 0
M  V30 2011 H 184.793 -2.85949 0.678988 0
M  V30 2012 H 182.307 -1.55378 0.472368 0
M  V30 2013 H 184.304 -3.86089 -1.57292 0
M  V30 2014 H 182.964 -2.70551 -1.79534 0
M  V30 2015 H 183.975 -5.07252 1.04481 0
M  V30 2016 H 180.652 -3.97104 -1.28899 0
M  V30 2017 H 182.042 -6.44202 1.90929 0
M  V30 2018 N 184.763 -0.387143 -1.52771 0
M  V30 2019 C 185.696 0.493123 -2.22808 0
M  V30 2020 C 186.674 1.0658 -1.22798 0
M  V30 2021 O 187.858 1.11785 -1.51777 0
M  V30 2022 C 184.985 1.68238 -2.93962 0
M  V30 2023 C 184.031 1.23515 -4.08223 0
M  V30 2024 S 184.864 0.21848 -5.35054 0
M  V30 2025 C 186.02 1.41357 -6.09729 0
M  V30 2026 H 186.253 -0.101625 -2.97126 0
M  V30 2027 H 183.786 -0.171323 -1.53447 0
M  V30 2028 H 185.744 2.36443 -3.35567 0
M  V30 2029 H 184.405 2.24842 -2.19328 0
M  V30 2030 H 183.598 2.12304 -4.57103 0
M  V30 2031 H 183.2 0.632044 -3.68621 0
M  V30 2032 H 185.492 2.34101 -6.3577 0
M  V30 2033 H 186.435 0.965736 -7.01484 0
M  V30 2034 H 186.843 1.6294 -5.40473 0
M  V30 2035 N 186.241 1.57166 -0.116904 0
M  V30 2036 C 187.471 1.99184 0.548586 0
M  V30 2037 C 187.879 0.995436 1.60897 0
M  V30 2038 O 187.222 -0.0201293 1.83689 0
M  V30 2039 C 187.284 3.37611 1.23526 0
M  V30 2040 C 186.948 4.55857 0.323077 0
M  V30 2041 C 187.945 5.18056 -0.437476 0
M  V30 2042 C 185.63 5.01751 0.234761 0
M  V30 2043 C 187.624 6.24536 -1.2741 0
M  V30 2044 C 185.311 6.08093 -0.605496 0
M  V30 2045 C 186.309 6.69352 -1.35856 0
M  V30 2046 O 185.997 7.7364 -2.18487 0
M  V30 2047 H 185.729 0.659148 0.149999 0
M  V30 2048 H 188.283 2.0443 -0.199428 0
M  V30 2049 H 186.513 3.29113 2.0303 0
M  V30 2050 H 188.202 3.63932 1.79745 0
M  V30 2051 H 188.968 4.83516 -0.379105 0
M  V30 2052 H 184.847 4.53817 0.810601 0
M  V30 2053 H 188.391 6.72281 -1.86237 0
M  V30 2054 H 184.288 6.42063 -0.665268 0
M  V30 2055 H 185.056 7.90727 -2.11406 0
M  V30 2056 N 187.719 -0.156864 1.56817 0
M  V30 2057 C 188.966 -0.871125 1.82805 0
M  V30 2058 C 189.294 -1.81611 0.696262 0
M  V30 2059 O 188.549 -1.93141 -0.315459 0
M  V30 2060 C 188.848 -1.68737 3.1506 0
M  V30 2061 C 188.514 -0.890045 4.42028 0
M  V30 2062 C 187.176 -0.670042 4.76512 0
M  V30 2063 C 189.528 -0.331769 5.20143 0
M  V30 2064 C 186.856 0.119104 5.86579 0
M  V30 2065 C 189.208 0.444365 6.31037 0
M  V30 2066 C 187.872 0.675035 6.64078 0
M  V30 2067 H 187.142 -0.318767 0.668931 0
M  V30 2068 H 189.789 -0.135274 1.91022 0
M  V30 2069 H 188.094 -2.49304 3.0225 0
M  V30 2070 H 189.791 -2.24331 3.3238 0
M  V30 2071 H 186.381 -1.07157 4.14988 0
M  V30 2072 H 190.565 -0.489043 4.93885 0
M  V30 2073 H 185.821 0.307417 6.10627 0
M  V30 2074 H 189.995 0.884139 6.90765 0
M  V30 2075 H 187.622 1.28839 7.49203 0
M  V30 2076 N 189.197 -1.51736 -0.425897 0
M  V30 2077 C 190.425 -1.68794 -1.1965 0
M  V30 2078 C 190.84 -0.390164 -1.84725 0
M  V30 2079 O 190.197 0.632376 -1.71194 0
M  V30 2080 C 190.248 -2.81174 -2.27208 0
M  V30 2081 O 189.969 -4.05925 -1.64793 0
M  V30 2082 C 191.47 -3.09599 -3.17275 0
M  V30 2083 H 188.69 -0.566128 -0.360194 0
M  V30 2084 H 191.234 -1.98211 -0.503249 0
M  V30 2085 H 189.389 -2.54324 -2.9223 0
M  V30 2086 H 189.803 -4.68423 -2.35967 0
M  V30 2087 H 191.277 -3.91786 -3.88854 0
M  V30 2088 H 191.754 -2.22468 -3.78688 0
M  V30 2089 H 192.36 -3.38151 -2.57941 0
M  V30 2090 N 190.675 0.682077 -1.42076 0
M  V30 2091 C 192.091 0.994324 -1.24841 0
M  V30 2092 C 192.291 2.0096 -0.147389 0
M  V30 2093 O 191.347 2.47822 0.483782 0
M  V30 2094 C 192.66 1.50607 -2.60265 0
M  V30 2095 C 194.208 1.62421 -2.6756 0
M  V30 2096 C 194.683 2.16994 -4.03333 0
M  V30 2097 N 196.174 2.24337 -4.0525 0
M  V30 2098 C 196.909 2.67621 -5.07116 0
M  V30 2099 N 196.405 3.1041 -6.19368 0
M  V30 2100 N 198.198 2.67305 -4.94474 0
M  V30 2101 H 190.349 0.00973908 -2.12398 0
M  V30 2102 H 192.612 0.0668593 -0.945639 0
M  V30 2103 H 192.318 0.834583 -3.41654 0
M  V30 2104 H 192.192 2.48602 -2.83684 0
M  V30 2105 H 194.579 2.28678 -1.86521 0
M  V30 2106 H 194.66 0.629352 -2.47937 0
M  V30 2107 H 194.304 1.51349 -4.84826 0
M  V30 2108 H 194.234 3.17258 -4.20304 0
M  V30 2109 H 196.725 1.94158 -3.24209 0
M  V30 2110 H 197.038 3.42103 -6.92954 0
M  V30 2111 H 195.383 3.08286 -6.22884 0
M  V30 2112 H 198.574 2.33233 -4.05857 0
M  V30 2113 H 198.747 3.00718 -5.73997 0
M  V30 2114 N 192.153 1.28127 0.917671 0
M  V30 2115 C 193.569 1.05749 1.19538 0
M  V30 2116 C 193.769 -0.202633 2.00479 0
M  V30 2117 O 192.825 -0.905382 2.3571 0
M  V30 2118 C 194.138 2.30273 1.93378 0
M  V30 2119 C 195.686 2.35412 2.06277 0
M  V30 2120 C 196.161 3.59692 2.83524 0
M  V30 2121 N 197.652 3.60309 2.91087 0
M  V30 2122 C 198.387 4.53147 3.51348 0
M  V30 2123 N 197.883 5.563 4.12919 0
M  V30 2124 N 199.676 4.40751 3.48849 0
M  V30 2125 H 191.827 2.09024 0.377184 0
M  V30 2126 H 194.09 0.919798 0.22951 0
M  V30 2127 H 193.796 3.22055 1.41328 0
M  V30 2128 H 193.67 2.36378 2.93947 0
M  V30 2129 H 196.057 1.4413 2.57508 0
M  V30 2130 H 196.138 2.33304 1.04895 0
M  V30 2131 H 195.782 4.51316 2.32973 0
M  V30 2132 H 195.712 3.59054 3.85211 0
M  V30 2133 H 198.203 2.85714 2.47338 0
M  V30 2134 H 198.516 6.2329 4.56869 0
M  V30 2135 H 196.861 5.60131 4.11435 0
M  V30 2136 H 200.052 3.59367 2.99955 0
M  V30 2137 H 200.225 5.13291 3.9552 0
M  V30 2138 N 193.631 -1.12557 1.10312 0
M  V30 2139 C 195.042 -1.65574 0.862678 0
M  V30 2140 C 195.393 -1.86566 -0.607256 0
M  V30 2141 O 194.518 -1.59121 -1.46662 0
M  V30 2142 C 195.113 -3.00776 1.55947 0
M  V30 2143 C 193.672 -3.50748 1.36576 0
M  V30 2144 C 192.819 -2.25797 1.60968 0
M  V30 2145 H 195.77 -0.963552 1.26101 0
M  V30 2146 H 195.791 -3.67185 0.997753 0
M  V30 2147 H 195.303 -2.85465 2.62928 0
M  V30 2148 H 193.404 -3.71245 0.317531 0
M  V30 2149 H 193.517 -4.30289 2.10686 0
M  V30 2150 H 191.881 -2.32841 1.03234 0
M  V30 2151 H 192.664 -2.13043 2.69198 0
M  V30 2152 N 195.109 -0.891671 -1.2995 0
M  V30 2153 C 196.072 -0.36828 -2.26222 0
M  V30 2154 C 197.072 0.493014 -1.53056 0
M  V30 2155 O 198.262 0.299213 -1.71611 0
M  V30 2156 C 195.394 0.47442 -3.37583 0
M  V30 2157 H 196.587 -1.21844 -2.74033 0
M  V30 2158 H 194.14 -0.669107 -1.41254 0
M  V30 2159 H 194.875 1.34489 -2.95099 0
M  V30 2160 H 194.66 -0.142615 -3.91841 0
M  V30 2161 H 196.15 0.83218 -4.09224 0
M  V30 2162 N 196.587 1.43421 -0.653314 0
M  V30 2163 C 197.812 2.06678 -0.172846 0
M  V30 2164 C 198.237 1.48648 1.15262 0
M  V30 2165 O 197.595 0.596457 1.71208 0
M  V30 2166 C 197.643 3.60474 -0.0953184 0
M  V30 2167 O 196.747 4.01487 0.942442 0
M  V30 2168 H 196.088 0.657181 -0.0949155 0
M  V30 2169 H 198.618 1.83925 -0.896265 0
M  V30 2170 H 198.628 4.07905 0.0879728 0
M  V30 2171 H 197.303 4.02088 -1.06291 0
M  V30 2172 H 195.88 3.65646 0.731932 0
M  V30 2173 N 198.065 0.39524 1.52563 0
M  V30 2174 C 198.995 -0.428384 2.29537 0
M  V30 2175 C 199.976 -1.05831 1.33169 0
M  V30 2176 O 201.161 -1.06995 1.62067 0
M  V30 2177 C 198.291 -1.55274 3.10656 0
M  V30 2178 C 197.245 -1.04855 4.14957 0
M  V30 2179 C 196.571 -2.26543 4.84337 0
M  V30 2180 C 197.871 -0.112324 5.22179 0
M  V30 2181 H 199.565 0.213867 2.98635 0
M  V30 2182 H 197.111 0.104298 1.43622 0
M  V30 2183 H 199.064 -2.1358 3.63265 0
M  V30 2184 H 197.788 -2.22266 2.39302 0
M  V30 2185 H 196.447 -0.487985 3.63338 0
M  V30 2186 H 196.095 -2.92059 4.09525 0
M  V30 2187 H 195.795 -1.93466 5.54837 0
M  V30 2188 H 197.319 -2.85481 5.39753 0
M  V30 2189 H 198.733 -0.603752 5.70112 0
M  V30 2190 H 197.13 0.128968 5.99961 0
M  V30 2191 H 198.2 0.837052 4.77621 0
M  V30 2192 N 199.544 -1.57102 0.125237 0
M  V30 2193 C 200.491 -2.15641 -0.822655 0
M  V30 2194 C 201.461 -1.08313 -1.25927 0
M  V30 2195 O 202.646 -1.36251 -1.33567 0
M  V30 2196 C 199.786 -2.76504 -2.06494 0
M  V30 2197 C 198.899 -3.98158 -1.67612 0
M  V30 2198 C 198.034 -4.47088 -2.86854 0
M  V30 2199 C 197.073 -5.6126 -2.44242 0
M  V30 2200 N 196.21 -6.04905 -3.56419 0
M  V30 2201 H 201.05 -2.96313 -0.316625 0
M  V30 2202 H 198.587 -1.46388 -0.144588 0
M  V30 2203 H 200.545 -3.09925 -2.79289 0
M  V30 2204 H 199.175 -1.98512 -2.54545 0
M  V30 2205 H 198.227 -3.70858 -0.846661 0
M  V30 2206 H 199.539 -4.80934 -1.32301 0
M  V30 2207 H 198.693 -4.82451 -3.67867 0
M  V30 2208 H 197.432 -3.63275 -3.25396 0
M  V30 2209 H 196.437 -5.25495 -1.61663 0
M  V30 2210 H 197.662 -6.46843 -2.0681 0
M  V30 2211 H 195.608 -5.24032 -3.94623 0
M  V30 2212 H 195.525 -6.82552 -3.25051 0
M  V30 2213 H 196.793 -6.44907 -4.37853 0
M  V30 2214 N 201.022 0.148545 -1.56898 0
M  V30 2215 C 202.25 0.876389 -1.87422 0
M  V30 2216 C 202.665 1.74809 -0.713256 0
M  V30 2217 O 202.022 1.79725 0.317025 0
M  V30 2218 C 202.073 1.73438 -3.17178 0
M  V30 2219 O 201.794 0.897809 -4.28802 0
M  V30 2220 C 203.295 2.56993 -3.61205 0
M  V30 2221 H 200.515 0.253489 -0.621277 0
M  V30 2222 H 203.059 0.141798 -2.04008 0
M  V30 2223 H 201.214 2.42205 -3.0235 0
M  V30 2224 H 201.628 1.48672 -5.02988 0
M  V30 2225 H 203.102 3.12773 -4.54838 0
M  V30 2226 H 203.579 3.32958 -2.86419 0
M  V30 2227 H 204.185 1.9352 -3.78722 0
M  V30 2228 N 202.5 1.5196 0.417844 0
M  V30 2229 C 203.746 1.65836 1.16732 0
M  V30 2230 C 204.079 0.382881 1.90388 0
M  V30 2231 O 203.354 -0.618368 1.84408 0
M  V30 2232 C 203.637 2.87466 2.16876 0
M  V30 2233 C 203.49 4.25041 1.47174 0
M  V30 2234 C 204.809 3.04613 3.17646 0
M  V30 2235 H 201.928 0.603515 0.423011 0
M  V30 2236 H 204.57 1.84494 0.454105 0
M  V30 2237 H 202.72 2.71689 2.777 0
M  V30 2238 H 204.392 4.52527 0.895376 0
M  V30 2239 H 202.635 4.26843 0.773806 0
M  V30 2240 H 203.306 5.06176 2.20204 0
M  V30 2241 H 205.782 3.1923 2.66892 0
M  V30 2242 H 204.658 3.91247 3.8499 0
M  V30 2243 H 204.919 2.17541 3.84874 0
M  V30 2244 N 203.978 -0.674533 1.42435 0
M  V30 2245 C 205.224 -1.43671 1.43131 0
M  V30 2246 C 205.557 -1.94142 0.0476021 0
M  V30 2247 O 204.832 -1.70924 -0.928188 0
M  V30 2248 C 205.115 -2.63355 2.45594 0
M  V30 2249 C 204.968 -2.18514 3.93156 0
M  V30 2250 C 206.287 -3.65571 2.45043 0
M  V30 2251 H 203.406 -0.521077 0.521198 0
M  V30 2252 H 206.048 -0.766551 1.7385 0
M  V30 2253 H 204.198 -3.2053 2.19528 0
M  V30 2254 H 205.87 -1.66504 4.30202 0
M  V30 2255 H 204.113 -1.50086 4.07009 0
M  V30 2256 H 204.784 -3.04484 4.60428 0
M  V30 2257 H 207.26 -3.18113 2.68223 0
M  V30 2258 H 206.136 -4.46893 3.18713 0
M  V30 2259 H 206.397 -4.16716 1.47649 0
M  V30 2260 N 205.456 -1.28612 -0.910864 0
M  V30 2261 C 206.386 -1.15326 -2.03032 0
M  V30 2262 C 207.367 -0.0502924 -1.70026 0
M  V30 2263 O 208.552 -0.227797 -1.92859 0
M  V30 2264 C 205.682 -0.817343 -3.37545 0
M  V30 2265 C 204.636 -1.8754 -3.84724 0
M  V30 2266 C 203.962 -1.39305 -5.16235 0
M  V30 2267 C 205.262 -3.28244 -4.06267 0
M  V30 2268 H 206.956 -2.08975 -2.14406 0
M  V30 2269 H 204.502 -1.00612 -1.03021 0
M  V30 2270 H 206.455 -0.711151 -4.15356 0
M  V30 2271 H 205.179 0.154846 -3.26233 0
M  V30 2272 H 203.838 -1.97079 -3.09121 0
M  V30 2273 H 203.486 -0.409846 -5.01328 0
M  V30 2274 H 203.186 -2.10057 -5.48771 0
M  V30 2275 H 204.71 -1.30014 -5.96598 0
M  V30 2276 H 206.124 -3.21611 -4.74594 0
M  V30 2277 H 204.521 -3.96855 -4.5014 0
M  V30 2278 H 205.591 -3.72048 -3.10979 0
M  V30 2279 N 206.934 1.1197 -1.10907 0
M  V30 2280 C 207.864 2.19928 -0.784473 0
M  V30 2281 C 208.845 1.6833 0.244726 0
M  V30 2282 O 210.03 1.93892 0.109418 0
M  V30 2283 C 207.16 3.46597 -0.220827 0
M  V30 2284 C 206.114 4.11376 -1.18127 0
M  V30 2285 C 205.44 5.32554 -0.478594 0
M  V30 2286 C 206.74 4.56945 -2.52979 0
M  V30 2287 H 208.434 2.47337 -1.68715 0
M  V30 2288 H 205.98 1.18879 -0.812642 0
M  V30 2289 H 207.933 4.21396 0.0184278 0
M  V30 2290 H 206.657 3.1863 0.717113 0
M  V30 2291 H 205.316 3.38564 -1.40606 0
M  V30 2292 H 204.964 5.00856 0.463976 0
M  V30 2293 H 204.664 5.76844 -1.11912 0
M  V30 2294 H 206.188 6.10096 -0.248 0
M  V30 2295 H 207.602 5.23093 -2.3462 0
M  V30 2296 H 205.999 5.1203 -3.12962 0
M  V30 2297 H 207.069 3.70676 -3.12614 0
M  V30 2298 N 208.412 0.89855 1.29475 0
M  V30 2299 C 209.689 0.443416 1.90508 0
M  V30 2300 C 210.069 -1.07685 1.81569 0
M  V30 2301 O 209.417 -1.9182 1.24166 0
M  V30 2302 C 209.627 0.956708 3.35631 0
M  V30 2303 C 210.975 0.999728 4.12663 0
M  V30 2304 O 211.999 0.904299 3.4453 0
M  V30 2305 O 210.858 1.14289 5.34416 0
M  V30 2306 H 207.952 0.138025 0.815401 0
M  V30 2307 H 210.498 0.98834 1.37949 0
M  V30 2308 H 209.27 2.00067 3.36287 0
M  V30 2309 H 208.893 0.391728 3.95666 0
M  V30 2310 N 209.89 -1.43072 0.660911 0
M  V30 2311 C 210.837 -2.30785 -0.0259884 0
M  V30 2312 C 211.807 -1.45184 -0.806888 0
M  V30 2313 O 212.992 -1.74041 -0.781943 0
M  V30 2314 C 210.132 -3.30861 -0.981067 0
M  V30 2315 C 209.245 -4.31558 -0.195458 0
M  V30 2316 C 208.38 -5.18712 -1.14503 0
M  V30 2317 C 207.419 -6.11097 -0.350299 0
M  V30 2318 N 206.556 -6.90849 -1.25186 0
M  V30 2319 H 211.396 -2.88975 0.727846 0
M  V30 2320 H 208.933 -1.42353 0.370682 0
M  V30 2321 H 210.891 -3.87399 -1.54849 0
M  V30 2322 H 209.521 -2.74304 -1.70169 0
M  V30 2323 H 208.573 -3.77252 0.488374 0
M  V30 2324 H 209.885 -4.9701 0.422176 0
M  V30 2325 H 209.039 -5.79914 -1.78284 0
M  V30 2326 H 207.778 -4.53404 -1.79656 0
M  V30 2327 H 206.783 -5.48976 0.300808 0
M  V30 2328 H 208.008 -6.7845 0.296941 0
M  V30 2329 H 205.954 -6.28182 -1.89005 0
M  V30 2330 H 205.871 -7.52854 -0.688971 0
M  V30 2331 H 207.139 -7.5655 -1.87757 0
M  V30 2332 N 211.368 -0.403325 -1.52352 0
M  V30 2333 C 212.784 -0.0539281 -1.59509 0
M  V30 2334 C 212.984 1.43307 -1.41652 0
M  V30 2335 O 212.04 2.19924 -1.24056 0
M  V30 2336 C 213.353 -0.543654 -2.95745 0
M  V30 2337 C 214.901 -0.501125 -3.08962 0
M  V30 2338 C 215.376 -0.967267 -4.47669 0
M  V30 2339 N 216.867 -0.923849 -4.53893 0
M  V30 2340 C 217.602 -1.25578 -5.5948 0
M  V30 2341 N 217.098 -1.65889 -6.72646 0
M  V30 2342 N 218.891 -1.17613 -5.49658 0
M  V30 2343 H 211.042 -1.37123 -1.62206 0
M  V30 2344 H 213.305 -0.56294 -0.76276 0
M  V30 2345 H 213.011 -1.58275 -3.14073 0
M  V30 2346 H 212.885 0.0498042 -3.77167 0
M  V30 2347 H 215.272 0.528909 -2.90321 0
M  V30 2348 H 215.353 -1.13056 -2.2946 0
M  V30 2349 H 214.997 -1.9956 -4.67053 0
M  V30 2350 H 214.927 -0.314698 -5.25659 0
M  V30 2351 H 217.418 -0.627403 -3.72655 0
M  V30 2352 H 217.731 -1.89543 -7.49195 0
M  V30 2353 H 216.076 -1.69787 -6.73942 0
M  V30 2354 H 219.267 -0.860115 -4.6013 0
M  V30 2355 H 219.44 -1.43812 -6.3184 0
M  V30 2356 N 212.846 1.57033 -0.133567 0
M  V30 2357 C 213.756 2.19632 0.824564 0
M  V30 2358 C 214.772 1.17666 1.28182 0
M  V30 2359 O 215.948 1.50193 1.3418 0
M  V30 2360 C 213.013 2.79499 2.05137 0
M  V30 2361 C 212.074 3.96548 1.64464 0
M  V30 2362 C 211.307 4.5355 2.81297 0
M  V30 2363 O 211.53 4.09438 3.97136 0
M  V30 2364 O 210.464 5.44018 2.57542 0
M  V30 2365 H 214.29 3.01991 0.321766 0
M  V30 2366 H 211.875 1.49112 0.0927889 0
M  V30 2367 H 213.757 3.17602 2.7696 0
M  V30 2368 H 212.432 2.00162 2.54395 0
M  V30 2369 H 211.339 3.63186 0.897048 0
M  V30 2370 H 212.672 4.77364 1.19934 0
M  V30 2371 N 214.325 -0.140222 1.56975 0
M  V30 2372 C 215.573 -0.850005 1.83356 0
M  V30 2373 C 215.894 -1.81399 0.71551 0
M  V30 2374 O 215.164 -1.94136 -0.262294 0
M  V30 2375 H 213.744 -0.316886 0.676456 0
M  V30 2376 H 216.406 -0.132608 1.94448 0
M  V30 2377 H 215.502 -1.40814 2.78528 0
M  V30 2378 N 215.803 -1.52179 -0.40978 0
M  V30 2379 C 217.219 -1.40968 -0.74835 0
M  V30 2380 C 217.419 -0.513657 -1.94843 0
M  V30 2381 O 216.475 0.0208026 -2.52491 0
M  V30 2382 C 217.788 -2.83483 -1.0029 0
M  V30 2383 C 219.336 -2.92821 -1.10565 0
M  V30 2384 C 219.811 -4.36303 -1.39296 0
M  V30 2385 N 221.302 -4.39535 -1.46162 0
M  V30 2386 C 222.037 -5.47614 -1.70018 0
M  V30 2387 N 221.533 -6.65812 -1.91483 0
M  V30 2388 N 223.326 -5.35129 -1.72027 0
M  V30 2389 H 215.477 -2.0897 0.380186 0
M  V30 2390 H 217.74 -0.94185 0.107805 0
M  V30 2391 H 217.446 -3.51168 -0.193461 0
M  V30 2392 H 217.32 -3.24487 -1.92323 0
M  V30 2393 H 219.707 -2.25318 -1.90568 0
M  V30 2394 H 219.788 -2.55276 -0.16369 0
M  V30 2395 H 219.432 -5.04366 -0.598109 0
M  V30 2396 H 219.362 -4.71385 -2.34743 0
M  V30 2397 H 221.853 -3.54332 -1.31367 0
M  V30 2398 H 222.166 -7.43964 -2.09134 0
M  V30 2399 H 220.511 -6.68879 -1.88749 0
M  V30 2400 H 223.702 -4.41764 -1.54796 0
M  V30 2401 H 223.875 -6.19433 -1.9028 0
M  V30 2402 N 217.281 0.66697 -1.42791 0
M  V30 2403 C 218.697 0.981027 -1.25889 0
M  V30 2404 C 218.897 2.00793 -0.168695 0
M  V30 2405 O 217.953 2.48321 0.45747 0
M  V30 2406 C 219.266 1.47838 -2.61848 0
M  V30 2407 C 220.814 1.59575 -2.69267 0
M  V30 2408 C 221.289 2.12704 -4.05612 0
M  V30 2409 N 222.78 2.20026 -4.07606 0
M  V30 2410 C 223.515 2.62227 -5.09926 0
M  V30 2411 N 223.011 3.03824 -6.22626 0
M  V30 2412 N 224.804 2.62045 -4.97281 0
M  V30 2413 H 216.955 -0.0127891 -2.12396 0
M  V30 2414 H 219.218 0.0568258 -0.946295 0
M  V30 2415 H 218.924 0.798299 -3.4252 0
M  V30 2416 H 218.798 2.45579 -2.86305 0
M  V30 2417 H 221.185 2.26687 -1.88936 0
M  V30 2418 H 221.266 0.60302 -2.48591 0
M  V30 2419 H 220.91 1.46198 -4.86404 0
M  V30 2420 H 220.84 3.12782 -4.23645 0
M  V30 2421 H 223.331 1.90708 -3.2625 0
M  V30 2422 H 223.644 3.34734 -6.96544 0
M  V30 2423 H 221.989 3.01662 -6.26119 0
M  V30 2424 H 225.18 2.28916 -4.08308 0
M  V30 2425 H 225.353 2.94613 -5.77154 0
M  V30 2426 N 218.759 1.29093 0.90403 0
M  V30 2427 C 220.005 1.16986 1.65656 0
M  V30 2428 C 220.338 -0.278925 1.92186 0
M  V30 2429 O 219.613 -1.2019 1.5292 0
M  V30 2430 C 219.896 1.97908 3.0084 0
M  V30 2431 C 219.749 3.50903 2.81403 0
M  V30 2432 C 221.068 1.80208 4.01513 0
M  V30 2433 H 218.187 0.426346 0.601164 0
M  V30 2434 H 220.829 1.58518 1.04747 0
M  V30 2435 H 218.979 1.62616 3.52829 0
M  V30 2436 H 220.651 3.96153 2.36348 0
M  V30 2437 H 218.894 3.76045 2.1627 0
M  V30 2438 H 219.565 4.02791 3.77443 0
M  V30 2439 H 222.041 2.11025 3.58619 0
M  V30 2440 H 220.917 2.39184 4.94047 0
M  V30 2441 H 221.178 0.756119 4.35586 0
M  V30 2442 N 220.237 -1.11381 1.11499 0
M  V30 2443 C 221.648 -1.6465 0.880191 0
M  V30 2444 C 221.999 -1.87199 -0.587434 0
M  V30 2445 O 221.124 -1.60667 -1.44966 0
M  V30 2446 C 221.719 -2.99105 1.59128 0
M  V30 2447 C 220.278 -3.49279 1.40289 0
M  V30 2448 C 219.425 -2.24077 1.63354 0
M  V30 2449 H 222.376 -0.950123 1.27116 0
M  V30 2450 H 222.397 -3.66107 1.03664 0
M  V30 2451 H 221.909 -2.82661 2.65941 0
M  V30 2452 H 220.01 -3.70887 0.356888 0
M  V30 2453 H 220.123 -4.2803 2.15238 0
M  V30 2454 H 218.487 -2.31733 1.05698 0
M  V30 2455 H 219.27 -2.10175 2.71443 0
M  V30 2456 N 221.715 -0.905404 -1.28997 0
M  V30 2457 C 222.962 -0.534248 -1.95325 0
M  V30 2458 C 223.29 0.920535 -1.71337 0
M  V30 2459 O 222.545 1.66861 -1.02254 0
M  V30 2460 C 222.844 -0.779906 -3.48787 0
M  V30 2461 C 222.51 -2.21293 -3.92861 0
M  V30 2462 C 221.172 -2.60475 -4.04606 0
M  V30 2463 C 223.524 -3.14587 -4.15553 0
M  V30 2464 C 220.852 -3.9212 -4.36416 0
M  V30 2465 C 223.204 -4.45787 -4.48839 0
M  V30 2466 C 221.868 -4.84834 -4.58794 0
M  V30 2467 H 221.138 -0.195495 -0.714747 0
M  V30 2468 H 223.785 -1.14514 -1.53488 0
M  V30 2469 H 222.09 -0.0861365 -3.91705 0
M  V30 2470 H 223.787 -0.472029 -3.98212 0
M  V30 2471 H 220.377 -1.89887 -3.84241 0
M  V30 2472 H 224.561 -2.85528 -4.0594 0
M  V30 2473 H 219.817 -4.22086 -4.42327 0
M  V30 2474 H 223.991 -5.18098 -4.65346 0
M  V30 2475 H 221.618 -5.86877 -4.83197 0
M  V30 2476 N 223.193 1.4272 -0.668489 0
M  V30 2477 C 224.418 2.06484 -0.194758 0
M  V30 2478 C 224.843 1.49862 1.13679 0
M  V30 2479 O 224.201 0.614582 1.70565 0
M  V30 2480 C 224.249 3.60353 -0.133546 0
M  V30 2481 O 223.353 4.02464 0.899806 0
M  V30 2482 H 222.694 0.656137 -0.10188 0
M  V30 2483 H 225.224 1.82964 -0.915722 0
M  V30 2484 H 225.234 4.07976 0.0447041 0
M  V30 2485 H 223.909 4.00938 -1.1055 0
M  V30 2486 H 222.486 3.66402 0.693109 0
M  V30 2487 N 224.671 0.411399 1.52136 0
M  V30 2488 C 225.634 -0.401089 2.25663 0
M  V30 2489 C 226.634 -0.971732 1.28117 0
M  V30 2490 O 227.824 -0.850254 1.52041 0
M  V30 2491 C 224.956 -1.56483 3.02863 0
M  V30 2492 H 226.149 0.24295 2.98914 0
M  V30 2493 H 223.702 0.163968 1.55438 0
M  V30 2494 H 224.437 -2.24567 2.33967 0
M  V30 2495 H 224.222 -1.16211 3.74483 0
M  V30 2496 H 225.712 -2.13951 3.58629 0
M  V30 2497 N 226.149 -1.5696 0.141893 0
M  V30 2498 C 227.426 -1.87553 -0.555281 0
M  V30 2499 C 227.806 -1.04699 -1.83306 0
M  V30 2500 O 227.154 -0.132346 -2.28116 0
M  V30 2501 C 227.364 -3.39093 -0.825664 0
M  V30 2502 C 228.712 -4.08199 -1.16869 0
M  V30 2503 O 229.736 -3.44242 -0.915185 0
M  V30 2504 O 228.595 -5.21139 -1.6455 0
M  V30 2505 H 225.689 -0.777188 -0.282679 0
M  V30 2506 H 228.235 -1.68763 0.17812 0
M  V30 2507 H 227.007 -3.91221 0.0788633 0
M  V30 2508 H 226.63 -3.63393 -1.61343 0
M  V30 2509 N 227.627 0.131896 -1.57047 0
M  V30 2510 C 228.857 0.855219 -1.88068 0
M  V30 2511 C 229.265 1.74557 -0.729817 0
M  V30 2512 O 228.608 1.81083 0.308962 0
M  V30 2513 C 228.67 1.75119 -3.13964 0
M  V30 2514 C 228.334 1.03646 -4.45091 0
M  V30 2515 C 229.331 0.383276 -5.18485 0
M  V30 2516 C 227.016 1.02148 -4.91804 0
M  V30 2517 C 229.01 -0.275347 -6.36805 0
M  V30 2518 C 226.697 0.359047 -6.10044 0
M  V30 2519 C 227.695 -0.288222 -6.82392 0
M  V30 2520 O 227.383 -0.94011 -7.98384 0
M  V30 2521 H 227.115 0.251864 -0.627328 0
M  V30 2522 H 229.669 0.124782 -2.05021 0
M  V30 2523 H 227.899 2.52295 -2.9306 0
M  V30 2524 H 229.588 2.3478 -3.31109 0
M  V30 2525 H 230.354 0.386562 -4.83457 0
M  V30 2526 H 226.233 1.5147 -4.35405 0
M  V30 2527 H 229.777 -0.781148 -6.93213 0
M  V30 2528 H 225.674 0.35348 -6.44531 0
M  V30 2529 H 226.442 -0.84329 -8.14144 0
M  V30 2530 N 229.106 1.52395 0.401703 0
M  V30 2531 C 230.352 1.67065 1.14966 0
M  V30 2532 C 230.685 0.403052 1.89971 0
M  V30 2533 O 229.96 -0.598774 1.85054 0
M  V30 2534 C 230.243 2.8975 2.13815 0
M  V30 2535 C 230.096 4.26578 1.42658 0
M  V30 2536 C 231.415 3.07965 3.14397 0
M  V30 2537 H 228.534 0.607968 0.416587 0
M  V30 2538 H 231.176 1.84965 0.434511 0
M  V30 2539 H 229.326 2.74619 2.74803 0
M  V30 2540 H 230.998 4.53451 0.847329 0
M  V30 2541 H 229.241 4.27639 0.72849 0
M  V30 2542 H 229.912 5.08483 2.14823 0
M  V30 2543 H 232.388 3.22043 2.63491 0
M  V30 2544 H 231.264 3.95308 3.80819 0
M  V30 2545 H 231.525 2.21611 3.82545 0
M  V30 2546 N 230.584 -0.659388 1.43143 0
M  V30 2547 C 231.83 -1.42145 1.44647 0
M  V30 2548 C 232.163 -1.9408 0.0681907 0
M  V30 2549 O 231.438 -1.71899 -0.910007 0
M  V30 2550 C 231.721 -2.60735 2.48373 0
M  V30 2551 C 231.574 -2.14332 3.95451 0
M  V30 2552 C 232.893 -3.62951 2.48906 0
M  V30 2553 H 230.012 -0.51552 0.526696 0
M  V30 2554 H 232.654 -0.748069 1.74654 0
M  V30 2555 H 230.804 -3.18184 2.22916 0
M  V30 2556 H 232.476 -1.61932 4.31944 0
M  V30 2557 H 230.719 -1.4576 4.08578 0
M  V30 2558 H 231.39 -2.99583 4.63631 0
M  V30 2559 H 233.866 -3.1525 2.71582 0
M  V30 2560 H 232.742 -4.43487 3.23435 0
M  V30 2561 H 233.003 -4.15126 1.52061 0
M  V30 2562 N 232.062 -1.29571 -0.897171 0
M  V30 2563 C 233.025 -1.14913 -1.98312 0
M  V30 2564 C 234.025 -0.0838629 -1.60581 0
M  V30 2565 O 235.215 -0.331006 -1.71026 0
M  V30 2566 C 232.347 -0.757835 -3.3237 0
M  V30 2567 H 233.54 -2.11377 -2.12743 0
M  V30 2568 H 231.093 -1.12793 -1.08201 0
M  V30 2569 H 231.828 0.206837 -3.2364 0
M  V30 2570 H 231.613 -1.52755 -3.61121 0
M  V30 2571 H 233.103 -0.678408 -4.12053 0
M  V30 2572 N 233.54 1.10788 -1.12088 0
M  V30 2573 C 234.488 2.19111 -0.780587 0
M  V30 2574 C 235.482 1.67818 0.230961 0
M  V30 2575 O 236.688 1.79777 0.0895427 0
M  V30 2576 H 233.063 0.714477 -0.234578 0
M  V30 2577 H 235.034 2.45055 -1.70266 0
M  V30 2578 C 233.783 3.46818 -0.24747 0
M  V30 2579 H 233.106 3.86646 -1.01712 0
M  V30 2580 H 234.546 4.23973 -0.0476291 0
M  V30 2581 C 233.005 3.20968 1.02378 0
M  V30 2582 O 233.535 3.42298 2.10226 0
M  V30 2583 N 231.741 2.74658 0.949271 0
M  V30 2584 H 231.288 2.57501 0.0715173 0
M  V30 2585 H 231.246 2.57739 1.80049 0
M  V30 2586 N 235.018 0.912232 1.28515 0
M  V30 2587 C 236.267 0.540504 1.94323 0
M  V30 2588 C 236.58 -0.920044 1.72611 0
M  V30 2589 O 237.786 -1.39986 2.32629 0
M  V30 2590 C 236.242 0.915803 3.48053 0
M  V30 2591 C 235.85 2.39598 3.78546 0
M  V30 2592 C 237.594 0.614588 4.20027 0
M  V30 2593 C 235.501 2.71148 5.25578 0
M  V30 2594 H 234.431 0.198418 0.727424 0
M  V30 2595 H 237.082 1.11094 1.46049 0
M  V30 2596 H 235.464 0.274168 3.9505 0
M  V30 2597 H 236.638 3.08422 3.42364 0
M  V30 2598 H 234.953 2.66749 3.1974 0
M  V30 2599 H 237.55 0.827002 5.28266 0
M  V30 2600 H 237.893 -0.447531 4.13887 0
M  V30 2601 H 238.426 1.21462 3.78803 0
M  V30 2602 H 235.165 3.76207 5.36794 0
M  V30 2603 H 234.685 2.0696 5.62963 0
M  V30 2604 H 236.364 2.58072 5.93302 0
M  V30 2605 N 236.496 -1.42363 0.676048 0
M  V30 2606 C 237.907 -1.84649 0.275948 0
M  V30 2607 C 238.258 -1.56588 -1.18214 0
M  V30 2608 O 237.383 -1.02634 -1.90513 0
M  V30 2609 C 237.978 -3.35178 0.494053 0
M  V30 2610 C 236.537 -3.76109 0.148061 0
M  V30 2611 C 235.684 -2.65931 0.785891 0
M  V30 2612 H 238.635 -1.32192 0.878121 0
M  V30 2613 H 238.656 -3.79655 -0.25343 0
M  V30 2614 H 238.168 -3.55571 1.55535 0
M  V30 2615 H 236.269 -3.61323 -0.909742 0
M  V30 2616 H 236.382 -4.7546 0.589454 0
M  V30 2617 H 234.746 -2.53773 0.217113 0
M  V30 2618 H 235.529 -2.89146 1.85067 0
M  V30 2619 N 237.974 -0.419461 -1.51915 0
M  V30 2620 C 238.922 0.415502 -2.28859 0
M  V30 2621 C 239.916 1.03674 -1.3397 0
M  V30 2622 O 241.122 0.973757 -1.51387 0
M  V30 2623 H 237.497 0.152786 -0.736315 0
M  V30 2624 H 239.468 -0.254531 -2.97312 0
M  V30 2625 C 238.217 1.51425 -3.12995 0
M  V30 2626 H 237.54 1.04556 -3.85886 0
M  V30 2627 H 238.98 2.07208 -3.6992 0
M  V30 2628 C 237.439 2.48745 -2.27217 0
M  V30 2629 O 237.969 3.52871 -1.9195 0
M  V30 2630 N 236.175 2.19202 -1.90785 0
M  V30 2631 H 235.722 1.34556 -2.19664 0
M  V30 2632 H 235.68 2.84561 -1.33687 0
M  V30 2633 N 239.452 1.56882 -0.150215 0
M  V30 2634 C 240.415 2.1573 0.774157 0
M  V30 2635 C 241.415 1.0999 1.17298 0
M  V30 2636 O 242.605 1.35613 1.09338 0
M  V30 2637 C 239.737 2.72302 2.05096 0
M  V30 2638 H 240.93 2.98752 0.262201 0
M  V30 2639 H 238.483 1.55985 0.099248 0
M  V30 2640 H 239.218 1.92956 2.6065 0
M  V30 2641 H 239.003 3.49665 1.77416 0
M  V30 2642 H 240.493 3.17632 2.71109 0
M  V30 2643 N 240.93 -0.123565 1.57115 0
M  V30 2644 C 242.177 -0.832153 1.84612 0
M  V30 2645 C 242.505 -1.80093 0.734627 0
M  V30 2646 O 241.76 -1.93766 -0.27442 0
M  V30 2647 C 242.059 -1.62016 3.18568 0
M  V30 2648 C 241.725 -0.796084 4.43817 0
M  V30 2649 C 240.387 -0.568816 4.77826 0
M  V30 2650 C 242.739 -0.221364 5.2073 0
M  V30 2651 C 240.067 0.243499 5.86194 0
M  V30 2652 C 242.419 0.578117 6.29953 0
M  V30 2653 C 241.083 0.815744 6.62497 0
M  V30 2654 H 240.353 -0.304507 0.675542 0
M  V30 2655 H 243 -0.0947248 1.91266 0
M  V30 2656 H 241.305 -2.42837 3.0747 0
M  V30 2657 H 243.002 -2.17231 3.37064 0
M  V30 2658 H 239.592 -0.983307 4.17168 0
M  V30 2659 H 243.776 -0.384173 4.94811 0
M  V30 2660 H 239.032 0.436871 6.09837 0
M  V30 2661 H 243.206 1.03046 6.88734 0
M  V30 2662 H 240.833 1.44701 7.46301 0
M  V30 2663 N 242.408 -1.52605 -0.393616 0
M  V30 2664 C 243.654 -1.67672 -1.14079 0
M  V30 2665 C 243.987 -0.413121 -1.89755 0
M  V30 2666 O 243.262 0.588952 -1.85369 0
M  V30 2667 C 243.545 -2.9088 -2.12276 0
M  V30 2668 C 243.398 -4.27329 -1.40394 0
M  V30 2669 C 244.717 -3.09628 -3.12759 0
M  V30 2670 H 241.836 -0.610168 -0.413356 0
M  V30 2671 H 244.478 -1.85193 -0.424696 0
M  V30 2672 H 242.628 -2.76073 -2.73342 0
M  V30 2673 H 244.3 -4.53894 -0.82327 0
M  V30 2674 H 242.543 -4.2802 -0.705801 0
M  V30 2675 H 243.214 -5.09615 -2.12123 0
M  V30 2676 H 245.69 -3.23436 -2.61779 0
M  V30 2677 H 244.566 -3.97322 -3.78717 0
M  V30 2678 H 244.827 -2.23637 -3.81365 0
M  V30 2679 N 243.887 0.651787 -1.4349 0
M  V30 2680 C 245.136 1.40754 -1.44469 0
M  V30 2681 C 245.449 1.95463 -0.0731845 0
M  V30 2682 O 246.655 2.71471 0.0395721 0
M  V30 2683 C 245.111 2.54735 -2.5424 0
M  V30 2684 C 244.719 2.06628 -3.97504 0
M  V30 2685 C 246.463 3.32092 -2.64414 0
M  V30 2686 C 244.37 3.17829 -4.98737 0
M  V30 2687 H 243.3 0.528862 -0.53742 0
M  V30 2688 H 245.951 0.703365 -1.69485 0
M  V30 2689 H 244.333 3.2763 -2.22428 0
M  V30 2690 H 245.507 1.40734 -4.38783 0
M  V30 2691 H 243.822 1.42146 -3.91387 0
M  V30 2692 H 246.419 4.14952 -3.37223 0
M  V30 2693 H 246.762 3.80217 -1.69532 0
M  V30 2694 H 247.295 2.66279 -2.95534 0
M  V30 2695 H 244.034 2.74671 -5.95177 0
M  V30 2696 H 243.554 3.82429 -4.62069 0
M  V30 2697 H 245.233 3.82937 -5.21505 0
M  V30 2698 N 245.365 1.30045 0.890287 0
M  V30 2699 C 246.613 1.18327 1.63839 0
M  V30 2700 C 246.934 -0.263455 1.93212 0
M  V30 2701 O 246.204 -1.17856 1.56482 0
M  V30 2702 H 244.784 0.434933 0.607324 0
M  V30 2703 H 247.446 1.631 1.06698 0
M  V30 2704 H 246.542 1.74024 2.59079 0
M  V30 2705 N 246.843 -1.10192 1.12674 0
M  V30 2706 C 248.073 -1.85713 0.905213 0
M  V30 2707 C 248.481 -1.81056 -0.549108 0
M  V30 2708 O 247.824 -1.19927 -1.39151 0
M  V30 2709 C 247.886 -3.34972 1.30516 0
M  V30 2710 C 247.55 -3.63385 2.77129 0
M  V30 2711 C 248.547 -3.59772 3.75313 0
M  V30 2712 C 246.232 -3.91981 3.14096 0
M  V30 2713 C 248.226 -3.84354 5.08479 0
M  V30 2714 C 245.913 -4.16218 4.47443 0
M  V30 2715 C 246.911 -4.12395 5.44444 0
M  V30 2716 O 246.599 -4.36014 6.75387 0
M  V30 2717 H 246.331 -0.593719 0.323223 0
M  V30 2718 H 248.885 -1.40198 1.50112 0
M  V30 2719 H 247.115 -3.81156 0.652463 0
M  V30 2720 H 248.804 -3.91886 1.05736 0
M  V30 2721 H 249.57 -3.37716 3.48099 0
M  V30 2722 H 245.449 -3.94085 2.39202 0
M  V30 2723 H 248.993 -3.81285 5.84181 0
M  V30 2724 H 244.89 -4.37754 4.74386 0
M  V30 2725 H 245.658 -4.53516 6.8137 0
M  V30 2726 N 248.321 -0.919034 -1.28029 0
M  V30 2727 C 249.569 -0.553838 -1.94363 0
M  V30 2728 C 249.89 0.906357 -1.72656 0
M  V30 2729 O 249.16 1.64143 -1.0693 0
M  V30 2730 H 247.74 -0.201834 -0.719216 0
M  V30 2731 H 250.402 -1.16954 -1.55909 0
M  V30 2732 H 249.498 -0.752758 -3.02886 0
M  V30 2733 N 249.799 1.42003 -0.683588 0
M  V30 2734 C 250.729 2.33487 -0.024866 0
M  V30 2735 C 251.71 1.51163 0.779975 0
M  V30 2736 O 252.895 1.79739 0.735362 0
M  V30 2737 C 250.025 3.3487 0.920836 0
M  V30 2738 C 248.979 4.27414 0.223958 0
M  V30 2739 C 248.305 5.19074 1.2832 0
M  V30 2740 C 249.605 5.14445 -0.90242 0
M  V30 2741 H 251.299 2.88819 -0.788921 0
M  V30 2742 H 248.845 1.38873 -0.38083 0
M  V30 2743 H 250.798 3.97787 1.39081 0
M  V30 2744 H 249.522 2.77861 1.71642 0
M  V30 2745 H 248.181 3.65904 -0.225864 0
M  V30 2746 H 247.829 4.58387 2.071 0
M  V30 2747 H 247.529 5.81822 0.821995 0
M  V30 2748 H 249.053 5.84867 1.75392 0
M  V30 2749 H 250.467 5.70998 -0.513272 0
M  V30 2750 H 248.864 5.86072 -1.28997 0
M  V30 2751 H 249.934 4.52322 -1.74737 0
M  V30 2752 N 251.277 0.427512 1.51691 0
M  V30 2753 C 252.554 -0.201684 1.94557 0
M  V30 2754 C 252.934 -1.60981 1.36559 0
M  V30 2755 O 252.282 -2.21814 0.548702 0
M  V30 2756 C 252.492 -0.189394 3.48486 0
M  V30 2757 C 253.84 -0.39978 4.22714 0
M  V30 2758 O 254.864 -0.267945 3.55191 0
M  V30 2759 O 253.723 -0.661249 5.42485 0
M  V30 2760 H 250.817 -0.135261 0.815864 0
M  V30 2761 H 253.363 0.484782 1.62628 0
M  V30 2762 H 252.135 0.795431 3.8313 0
M  V30 2763 H 251.758 -0.919187 3.86829 0
M  V30 2764 N 252.755 -1.56801 0.158532 0
M  V30 2765 C 253.985 -2.00568 -0.495583 0
M  V30 2766 C 254.393 -1.03774 -1.58201 0
M  V30 2767 O 253.736 -0.0285797 -1.83678 0
M  V30 2768 C 253.798 -3.40768 -1.14532 0
M  V30 2769 C 253.462 -4.56553 -0.202101 0
M  V30 2770 C 254.459 -5.16714 0.574675 0
M  V30 2771 C 252.144 -5.02197 -0.101648 0
M  V30 2772 C 254.138 -6.20939 1.43924 0
M  V30 2773 C 251.825 -6.06274 0.766508 0
M  V30 2774 C 252.823 -6.65515 1.53555 0
M  V30 2775 O 252.511 -7.67575 2.38922 0
M  V30 2776 H 252.243 -0.662893 -0.13247 0
M  V30 2777 H 254.797 -2.03829 0.253559 0
M  V30 2778 H 253.027 -3.34381 -1.94233 0
M  V30 2779 H 254.716 -3.6857 -1.70033 0
M  V30 2780 H 255.482 -4.82341 0.507167 0
M  V30 2781 H 251.361 -4.55807 -0.689994 0
M  V30 2782 H 254.905 -6.67107 2.03996 0
M  V30 2783 H 250.802 -6.40073 0.835266 0
M  V30 2784 H 251.57 -7.84844 2.32296 0
M  V30 2785 N 254.233 0.115231 -1.57178 0
M  V30 2786 C 255.51 0.852873 -1.76027 0
M  V30 2787 C 255.89 1.97892 -0.73498 0
M  V30 2788 O 255.238 2.27232 0.24036 0
M  V30 2789 C 255.448 1.36608 -3.21153 0
M  V30 2790 C 256.796 1.81692 -3.83762 0
M  V30 2791 O 257.82 1.46278 -3.24779 0
M  V30 2792 O 256.679 2.47104 -4.87444 0
M  V30 2793 H 253.773 0.405296 -0.720877 0
M  V30 2794 H 256.319 0.0986785 -1.69413 0
M  V30 2795 H 255.091 0.558357 -3.87296 0
M  V30 2796 H 254.714 2.18287 -3.3232 0
M  V30 2797 N 255.711 1.52812 0.385517 0
M  V30 2798 C 256.988 1.5861 1.14465 0
M  V30 2799 C 257.368 0.381402 2.07626 0
M  V30 2800 O 256.716 -0.629999 2.19643 0
M  V30 2801 C 256.926 2.92664 1.90128 0
M  V30 2802 C 258.274 3.46526 2.45367 0
M  V30 2803 O 259.298 2.94562 2.0028 0
M  V30 2804 O 258.157 4.37323 3.27736 0
M  V30 2805 H 255.251 0.639855 0.523941 0
M  V30 2806 H 257.797 1.65149 0.390389 0
M  V30 2807 H 256.569 3.71788 1.22022 0
M  V30 2808 H 256.192 2.89527 2.72507 0
M  V30 2809 N 257.189 -0.644168 1.43834 0
M  V30 2810 C 258.417 -1.43147 1.49387 0
M  V30 2811 C 258.832 -1.88452 0.114583 0
M  V30 2812 O 258.189 -1.60047 -0.876989 0
M  V30 2813 C 258.24 -2.66046 2.44748 0
M  V30 2814 O 257.961 -2.22633 3.77314 0
M  V30 2815 C 259.462 -3.59311 2.59635 0
M  V30 2816 H 256.682 -0.439447 0.507077 0
M  V30 2817 H 259.226 -0.78895 1.88669 0
M  V30 2818 H 257.381 -3.26418 2.08638 0
M  V30 2819 H 257.795 -3.02216 4.28679 0
M  V30 2820 H 259.269 -4.42187 3.30416 0
M  V30 2821 H 259.746 -4.07259 1.64427 0
M  V30 2822 H 260.352 -3.04816 2.96593 0
M  V30 2823 N 258.668 -1.30515 -0.883378 0
M  V30 2824 C 259.898 -1.22182 -1.66599 0
M  V30 2825 C 260.306 0.217507 -1.87946 0
M  V30 2826 O 259.649 1.1554 -1.42815 0
M  V30 2827 C 259.711 -1.88146 -3.06335 0
M  V30 2828 C 259.375 -3.37476 -3.08154 0
M  V30 2829 C 260.372 -4.33443 -2.87094 0
M  V30 2830 C 258.057 -3.7895 -3.29701 0
M  V30 2831 C 260.051 -5.68858 -2.8754 0
M  V30 2832 C 257.738 -5.14482 -3.29776 0
M  V30 2833 C 258.736 -6.09246 -3.0872 0
M  V30 2834 O 258.424 -7.42302 -3.08615 0
M  V30 2835 H 258.156 -0.423898 -0.52658 0
M  V30 2836 H 260.71 -1.72703 -1.11188 0
M  V30 2837 H 258.94 -1.32157 -3.63416 0
M  V30 2838 H 260.629 -1.7391 -3.66756 0
M  V30 2839 H 261.395 -4.02733 -2.70243 0
M  V30 2840 H 257.274 -3.05631 -3.45124 0
M  V30 2841 H 260.818 -6.428 -2.71024 0
M  V30 2842 H 256.715 -5.44832 -3.46163 0
M  V30 2843 H 257.483 -7.5131 -3.24769 0
M  V30 2844 N 260.146 1.09593 -1.13257 0
M  V30 2845 C 261.562 1.33775 -0.870423 0
M  V30 2846 C 261.762 1.95327 0.494926 0
M  V30 2847 O 260.818 2.19853 1.2418 0
M  V30 2848 C 262.131 2.25106 -1.99369 0
M  V30 2849 C 263.679 2.3862 -2.02558 0
M  V30 2850 C 264.154 3.33285 -3.14142 0
M  V30 2851 N 265.645 3.40857 -3.13641 0
M  V30 2852 C 266.38 4.14101 -3.96621 0
M  V30 2853 N 265.876 4.90157 -4.8961 0
M  V30 2854 N 267.669 4.09808 -3.84726 0
M  V30 2855 H 259.82 0.680136 -2.01216 0
M  V30 2856 H 262.083 0.362133 -0.876107 0
M  V30 2857 H 261.789 1.87103 -2.97801 0
M  V30 2858 H 261.663 3.25481 -1.90635 0
M  V30 2859 H 264.05 2.75887 -1.0474 0
M  V30 2860 H 264.131 1.38028 -2.15364 0
M  V30 2861 H 263.775 2.96741 -4.12198 0
M  V30 2862 H 263.705 4.33776 -2.98574 0
M  V30 2863 H 266.196 2.86624 -2.46282 0
M  V30 2864 H 266.509 5.4347 -5.49418 0
M  V30 2865 H 264.854 4.89251 -4.93617 0
M  V30 2866 H 268.045 3.4949 -3.11408 0
M  V30 2867 H 268.218 4.66629 -4.49623 0
M  V30 2868 N 261.624 0.925811 1.2754 0
M  V30 2869 C 262.534 0.428993 2.30644 0
M  V30 2870 C 263.55 -0.489387 1.66976 0
M  V30 2871 O 264.726 -0.372653 1.97922 0
M  V30 2872 C 261.791 -0.311967 3.45294 0
M  V30 2873 C 260.852 0.641098 4.24486 0
M  V30 2874 C 260.085 -0.0645955 5.33661 0
M  V30 2875 O 260.308 -1.28429 5.55754 0
M  V30 2876 O 259.242 0.606265 5.98839 0
M  V30 2877 H 263.068 1.28504 2.75173 0
M  V30 2878 H 260.653 0.691086 1.32455 0
M  V30 2879 H 262.535 -0.729972 4.15029 0
M  V30 2880 H 261.21 -1.14365 3.02824 0
M  V30 2881 H 260.117 1.10874 3.57292 0
M  V30 2882 H 261.45 1.43995 4.70666 0
M  V30 2883 N 263.102 -1.41638 0.69111 0
M  V30 2884 C 264.032 -2.3347 0.037248 0
M  V30 2885 C 265.013 -1.51575 -0.771947 0
M  V30 2886 O 266.198 -1.80126 -0.72582 0
M  V30 2887 C 263.328 -3.35354 -0.903064 0
M  V30 2888 C 262.282 -4.27526 -0.201288 0
M  V30 2889 C 261.608 -5.19747 -1.25565 0
M  V30 2890 C 262.908 -5.13959 0.929689 0
M  V30 2891 H 264.602 -2.88397 0.804227 0
M  V30 2892 H 262.148 -1.38669 0.388189 0
M  V30 2893 H 264.101 -3.98519 -1.36969 0
M  V30 2894 H 262.825 -2.78767 -1.70166 0
M  V30 2895 H 261.484 -3.65779 0.245265 0
M  V30 2896 H 261.132 -4.59479 -2.04666 0
M  V30 2897 H 260.832 -5.8225 -0.791128 0
M  V30 2898 H 262.356 -5.85789 -1.72288 0
M  V30 2899 H 263.77 -5.70718 0.543546 0
M  V30 2900 H 262.167 -5.85379 1.32103 0
M  V30 2901 H 263.237 -4.51389 1.77133 0
M  V30 2902 N 264.58 -0.43555 -1.51462 0
M  V30 2903 C 265.996 -0.0877501 -1.59359 0
M  V30 2904 C 266.196 1.4027 -1.4466 0
M  V30 2905 O 265.252 2.17243 -1.28693 0
M  V30 2906 C 266.565 -0.606264 -2.94525 0
M  V30 2907 C 268.113 -0.566548 -3.0783 0
M  V30 2908 C 268.588 -1.06201 -4.45517 0
M  V30 2909 N 270.079 -1.01992 -4.51832 0
M  V30 2910 C 270.814 -1.37417 -5.5669 0
M  V30 2911 N 270.31 -1.80119 -6.68976 0
M  V30 2912 N 272.103 -1.29245 -5.47039 0
M  V30 2913 H 264.254 -1.40533 -1.59261 0
M  V30 2914 H 266.517 -0.578992 -0.750648 0
M  V30 2915 H 266.223 -1.64901 -3.10645 0
M  V30 2916 H 266.097 -0.0302097 -3.77188 0
M  V30 2917 H 268.484 0.467208 -2.91378 0
M  V30 2918 H 268.565 -1.17898 -2.2701 0
M  V30 2919 H 268.209 -2.09422 -4.62715 0
M  V30 2920 H 268.139 -0.426127 -5.24873 0
M  V30 2921 H 270.63 -0.706308 -3.71241 0
M  V30 2922 H 270.943 -2.05392 -7.45006 0
M  V30 2923 H 269.288 -1.84044 -6.70189 0
M  V30 2924 H 272.479 -0.957522 -4.58202 0
M  V30 2925 H 272.652 -1.57182 -6.28648 0
M  V30 2926 N 266.058 1.56714 -0.166846 0
M  V30 2927 C 267.335 1.88412 0.525373 0
M  V30 2928 C 267.715 1.07602 1.81618 0
M  V30 2929 O 267.063 0.168621 2.27877 0
M  V30 2930 C 267.273 3.40363 0.771613 0
M  V30 2931 C 268.621 4.10007 1.1036 0
M  V30 2932 O 269.645 3.45655 0.860304 0
M  V30 2933 O 268.504 5.2369 1.56239 0
M  V30 2934 H 265.598 0.781587 0.270278 0
M  V30 2935 H 268.144 1.68458 -0.204946 0
M  V30 2936 H 266.916 3.91046 -0.141093 0
M  V30 2937 H 266.539 3.65914 1.55541 0
M  V30 2938 N 267.536 -0.106894 1.57237 0
M  V30 2939 C 268.785 -0.811163 1.8467 0
M  V30 2940 C 269.098 -1.80469 0.754342 0
M  V30 2941 O 270.304 -2.55601 0.915439 0
M  V30 2942 C 268.76 -1.49337 3.27454 0
M  V30 2943 C 268.368 -0.540217 4.44731 0
M  V30 2944 C 270.112 -2.18206 3.64124 0
M  V30 2945 C 268.019 -1.22634 5.78545 0
M  V30 2946 H 266.949 -0.306679 0.688813 0
M  V30 2947 H 269.6 -0.0639887 1.83388 0
M  V30 2948 H 267.982 -2.2876 3.23241 0
M  V30 2949 H 269.156 0.221659 4.60267 0
M  V30 2950 H 267.471 0.042146 4.16379 0
M  V30 2951 H 270.068 -2.70253 4.61376 0
M  V30 2952 H 270.411 -2.96562 2.92158 0
M  V30 2953 H 270.944 -1.45658 3.70174 0
M  V30 2954 H 267.683 -0.483832 6.53712 0
M  V30 2955 H 267.203 -1.95993 5.66874 0
M  V30 2956 H 268.882 -1.75615 6.2271 0
M  V30 2957 N 269.014 -1.53014 -0.377408 0
M  V30 2958 C 270.26 -1.68872 -1.12294 0
M  V30 2959 C 270.593 -0.433224 -1.89306 0
M  V30 2960 O 269.868 0.569258 -1.85983 0
M  V30 2961 C 270.151 -2.93115 -2.09179 0
M  V30 2962 C 270.004 -4.28794 -1.35853 0
M  V30 2963 C 271.323 -3.12928 -3.09458 0
M  V30 2964 H 268.442 -0.614518 -0.406862 0
M  V30 2965 H 271.084 -1.85633 -0.40503 0
M  V30 2966 H 269.234 -2.78956 -2.70399 0
M  V30 2967 H 270.906 -4.54742 -0.775082 0
M  V30 2968 H 269.149 -4.28744 -0.660364 0
M  V30 2969 H 269.82 -5.11837 -2.06706 0
M  V30 2970 H 272.296 -3.26194 -2.58334 0
M  V30 2971 H 271.172 -4.01316 -3.74482 0
M  V30 2972 H 271.433 -2.27669 -3.78971 0
M  V30 2973 N 270.492 0.636531 -1.44174 0
M  V30 2974 C 271.738 1.39826 -1.4689 0
M  V30 2975 C 272.071 1.93947 -0.0990585 0
M  V30 2976 O 271.346 1.73325 0.882544 0
M  V30 2977 C 271.629 2.56751 -2.5249 0
M  V30 2978 C 271.482 2.08014 -3.98811 0
M  V30 2979 C 272.801 3.58946 -2.54649 0
M  V30 2980 H 269.92 0.507075 -0.53483 0
M  V30 2981 H 272.562 0.720188 -1.75822 0
M  V30 2982 H 270.712 3.14597 -2.2795 0
M  V30 2983 H 272.384 1.5504 -4.34466 0
M  V30 2984 H 270.627 1.39242 -4.10846 0
M  V30 2985 H 271.298 2.92169 -4.68339 0
M  V30 2986 H 273.774 3.1089 -2.76563 0
M  V30 2987 H 272.65 4.38286 -3.3045 0
M  V30 2988 H 272.911 4.12655 -1.58646 0
M  V30 2989 N 271.97 1.30982 0.876444 0
M  V30 2990 C 272.9 1.20668 1.99903 0
M  V30 2991 C 273.881 0.095354 1.69833 0
M  V30 2992 O 275.066 0.27885 1.92188 0
M  V30 2993 C 272.196 0.90655 3.3526 0
M  V30 2994 C 271.15 1.97675 3.79617 0
M  V30 2995 C 270.476 1.52943 5.1236 0
M  V30 2996 C 271.776 3.389 3.97422 0
M  V30 2997 H 273.47 2.14586 2.0879 0
M  V30 2998 H 271.016 1.03308 1.00317 0
M  V30 2999 H 272.969 0.821025 4.13324 0
M  V30 3000 H 271.693 -0.0682969 3.26529 0
M  V30 3001 H 270.352 2.05205 3.03787 0
M  V30 3002 H 270 0.54262 5.00065 0
M  V30 3003 H 269.7 2.24532 5.43009 0
M  V30 3004 H 271.224 1.45786 5.92941 0
M  V30 3005 H 272.638 3.34081 4.659 0
M  V30 3006 H 271.035 4.0865 4.3946 0
M  V30 3007 H 272.105 3.80163 3.01006 0
M  V30 3008 N 273.449 -1.08991 1.13837 0
M  V30 3009 C 274.865 -1.33312 0.877506 0
M  V30 3010 C 275.065 -1.95587 -0.48456 0
M  V30 3011 O 274.121 -2.20509 -1.23013 0
M  V30 3012 C 275.434 -2.24045 2.0056 0
M  V30 3013 C 276.982 -2.37542 2.03821 0
M  V30 3014 C 277.457 -3.31614 3.15905 0
M  V30 3015 N 278.948 -3.39189 3.15445 0
M  V30 3016 C 279.683 -4.11992 3.98811 0
M  V30 3017 N 279.179 -4.87553 4.92203 0
M  V30 3018 N 280.972 -4.07762 3.86894 0
M  V30 3019 H 273.123 -0.669456 2.01574 0
M  V30 3020 H 275.386 -0.357482 0.878015 0
M  V30 3021 H 275.092 -1.85521 2.98789 0
M  V30 3022 H 274.966 -3.24466 1.92359 0
M  V30 3023 H 277.353 -2.75327 1.06202 0
M  V30 3024 H 277.434 -1.36884 2.16093 0
M  V30 3025 H 277.078 -2.94551 4.13766 0
M  V30 3026 H 277.008 -4.32186 3.0087 0
M  V30 3027 H 279.499 -2.85314 2.47799 0
M  V30 3028 H 279.812 -5.40549 5.52292 0
M  V30 3029 H 278.157 -4.86627 4.96205 0
M  V30 3030 H 281.348 -3.47833 3.13257 0
M  V30 3031 H 281.521 -4.64238 4.52092 0
M  V30 3032 N 274.927 -0.932562 -1.27047 0
M  V30 3033 C 276.338 -0.619451 -1.76124 0
M  V30 3034 C 276.689 0.865397 -1.76083 0
M  V30 3035 O 275.814 1.67722 -1.36742 0
M  V30 3036 C 276.409 -1.11771 -3.19832 0
M  V30 3037 C 274.968 -0.855174 -3.66557 0
M  V30 3038 C 274.115 -1.27362 -2.46321 0
M  V30 3039 H 277.066 -1.11181 -1.13245 0
M  V30 3040 H 277.087 -0.46759 -3.77616 0
M  V30 3041 H 276.599 -2.19842 -3.1983 0
M  V30 3042 H 274.7 0.211524 -3.71999 0
M  V30 3043 H 274.813 -1.47613 -4.55793 0
M  V30 3044 H 273.177 -0.692119 -2.45116 0
M  V30 3045 H 273.96 -2.36307 -2.49025 0
M  V30 3046 N 276.405 1.4127 -0.698611 0
M  V30 3047 C 277.315 2.34573 -0.0357891 0
M  V30 3048 C 278.331 1.56393 0.762701 0
M  V30 3049 O 279.507 1.8886 0.699564 0
M  V30 3050 C 276.572 3.35159 0.887089 0
M  V30 3051 C 275.633 4.29225 0.0804634 0
M  V30 3052 C 274.866 5.25006 0.959387 0
M  V30 3053 O 275.089 5.26314 2.19886 0
M  V30 3054 O 274.023 6.00519 0.407439 0
M  V30 3055 H 277.849 2.92838 -0.804957 0
M  V30 3056 H 275.434 1.42175 -0.458966 0
M  V30 3057 H 277.316 3.9689 1.41621 0
M  V30 3058 H 275.991 2.79333 1.6357 0
M  V30 3059 H 274.898 3.70833 -0.493328 0
M  V30 3060 H 276.231 4.88157 -0.629547 0
M  V30 3061 N 277.883 0.443576 1.51229 0
M  V30 3062 C 279.129 -0.120975 2.02439 0
M  V30 3063 C 279.462 -1.41815 1.32674 0
M  V30 3064 O 278.737 -1.89373 0.443622 0
M  V30 3065 C 279.02 -0.333291 3.58554 0
M  V30 3066 C 278.873 0.982968 4.38928 0
M  V30 3067 C 280.192 -1.10028 4.26124 0
M  V30 3068 H 277.311 -0.0424923 0.735774 0
M  V30 3069 H 279.953 0.583794 1.80809 0
M  V30 3070 H 278.103 -0.933614 3.77115 0
M  V30 3071 H 279.775 1.61775 4.32003 0
M  V30 3072 H 278.018 1.58611 4.03763 0
M  V30 3073 H 278.689 0.788379 5.46341 0
M  V30 3074 H 281.165 -0.591711 4.11871 0
M  V30 3075 H 280.041 -1.21761 5.35225 0
M  V30 3076 H 280.302 -2.12996 3.87408 0
M  V30 3077 N 279.361 -1.56624 0.175154 0
M  V30 3078 C 280.591 -2.01082 -0.474283 0
M  V30 3079 C 280.999 -1.05447 -1.57091 0
M  V30 3080 O 280.342 -0.0480595 -1.83637 0
M  V30 3081 C 280.404 -3.41963 -1.10911 0
M  V30 3082 C 280.068 -4.56742 -0.153666 0
M  V30 3083 C 281.065 -5.16076 0.629448 0
M  V30 3084 C 278.75 -5.02277 -0.0483776 0
M  V30 3085 C 280.744 -6.19377 1.50501 0
M  V30 3086 C 278.431 -6.05427 0.830768 0
M  V30 3087 C 279.429 -6.63849 1.60605 0
M  V30 3088 O 279.117 -7.64998 2.47049 0
M  V30 3089 H 278.849 -0.664261 -0.125432 0
M  V30 3090 H 281.403 -2.03549 0.275163 0
M  V30 3091 H 279.633 -3.36422 -1.90676 0
M  V30 3092 H 281.322 -3.70352 -1.66114 0
M  V30 3093 H 282.088 -4.81776 0.558297 0
M  V30 3094 H 277.967 -4.56513 -0.641611 0
M  V30 3095 H 281.511 -6.64906 2.1106 0
M  V30 3096 H 277.408 -6.39151 0.903107 0
M  V30 3097 H 278.176 -7.82336 2.40607 0
M  V30 3098 N 280.839 0.0985539 -1.57292 0
M  V30 3099 C 281.802 1.10402 -2.00858 0
M  V30 3100 C 282.802 1.33146 -0.901593 0
M  V30 3101 O 283.992 1.29318 -1.16716 0
M  V30 3102 C 281.124 2.45394 -2.36632 0
M  V30 3103 H 282.317 0.729099 -2.90902 0
M  V30 3104 H 279.87 0.343495 -1.52479 0
M  V30 3105 H 280.605 2.87769 -1.49531 0
M  V30 3106 H 280.39 2.30235 -3.17387 0
M  V30 3107 H 281.88 3.17718 -2.71007 0
M  V30 3108 N 282.317 1.53212 0.369288 0
M  V30 3109 C 283.227 1.82342 1.47609 0
M  V30 3110 C 284.243 0.711532 1.58787 0
M  V30 3111 O 285.419 1.0012 1.74751 0
M  V30 3112 C 282.484 2.00393 2.8292 0
M  V30 3113 C 281.545 3.24297 2.81301 0
M  V30 3114 C 280.778 3.41478 4.10157 0
M  V30 3115 O 281.001 2.63033 5.06132 0
M  V30 3116 O 279.935 4.34817 4.16194 0
M  V30 3117 H 283.761 2.76366 1.25918 0
M  V30 3118 H 281.346 1.38547 0.559034 0
M  V30 3119 H 283.228 2.13859 3.63101 0
M  V30 3120 H 281.903 1.09559 3.04596 0
M  V30 3121 H 280.81 3.16257 1.99831 0
M  V30 3122 H 282.143 4.15041 2.64578 0
M  V30 3123 N 283.795 -0.628877 1.44509 0
M  V30 3124 C 285.211 -0.947305 1.28446 0
M  V30 3125 C 285.411 -2.00275 0.221872 0
M  V30 3126 O 284.467 -2.49447 -0.391471 0
M  V30 3127 C 285.78 -1.40843 2.65676 0
M  V30 3128 C 287.328 -1.52379 2.73404 0
M  V30 3129 C 287.803 -2.01875 4.11109 0
M  V30 3130 N 289.294 -2.09142 4.13296 0
M  V30 3131 C 290.029 -2.48615 5.16699 0
M  V30 3132 N 289.525 -2.87209 6.30462 0
M  V30 3133 N 291.318 -2.48768 5.04054 0
M  V30 3134 H 283.469 0.0690977 2.12288 0
M  V30 3135 H 285.732 -0.0317164 0.947469 0
M  V30 3136 H 285.438 -0.707206 3.44516 0
M  V30 3137 H 285.312 -2.37902 2.92716 0
M  V30 3138 H 287.699 -2.21598 1.9488 0
M  V30 3139 H 287.78 -0.536898 2.50102 0
M  V30 3140 H 287.424 -1.3325 4.90109 0
M  V30 3141 H 287.354 -3.0144 4.31789 0
M  V30 3142 H 289.845 -1.81991 3.31191 0
M  V30 3143 H 290.158 -3.16149 7.05174 0
M  V30 3144 H 288.503 -2.84955 6.33897 0
M  V30 3145 H 291.694 -2.18009 4.14234 0
M  V30 3146 H 291.867 -2.79207 5.84763 0
M  V30 3147 N 285.273 -1.31445 -0.869486 0
M  V30 3148 C 286.183 -1.21097 -2.0093 0
M  V30 3149 C 287.199 -0.127584 -1.73532 0
M  V30 3150 O 288.375 -0.345477 -1.98415 0
M  V30 3151 C 285.44 -0.919378 -3.34288 0
M  V30 3152 C 284.501 -2.08971 -3.75006 0
M  V30 3153 C 283.734 -1.81194 -5.02001 0
M  V30 3154 O 283.957 -0.747296 -5.65484 0
M  V30 3155 O 282.891 -2.66883 -5.39497 0
M  V30 3156 H 286.717 -2.16883 -2.12592 0
M  V30 3157 H 284.302 -1.11189 -0.997868 0
M  V30 3158 H 286.184 -0.772625 -4.14257 0
M  V30 3159 H 284.859 0.00844772 -3.23699 0
M  V30 3160 H 283.766 -2.29187 -2.95676 0
M  V30 3161 H 285.099 -2.9998 -3.90221 0
M  V30 3162 N 286.751 1.08385 -1.14413 0
M  V30 3163 C 287.714 2.13486 -0.834048 0
M  V30 3164 C 288.714 1.59988 0.161418 0
M  V30 3165 O 289.904 1.74071 -0.0669575 0
M  V30 3166 C 287.036 3.4003 -0.243354 0
M  V30 3167 H 288.229 2.42425 -1.7655 0
M  V30 3168 H 285.782 1.24101 -0.950189 0
M  V30 3169 H 286.517 3.16726 0.696807 0
M  V30 3170 H 286.302 3.80157 -0.960367 0
M  V30 3171 H 287.792 4.17577 -0.0436242 0
M  V30 3172 N 288.23 0.939286 1.26551 0
M  V30 3173 C 289.193 0.451987 2.24699 0
M  V30 3174 C 290.193 -0.435869 1.5478 0
M  V30 3175 O 291.383 -0.235314 1.72603 0
M  V30 3176 C 288.515 -0.348801 3.39111 0
M  V30 3177 H 289.708 1.3193 2.69322 0
M  V30 3178 H 287.261 0.721072 1.38673 0
M  V30 3179 H 287.996 -1.23444 2.99887 0
M  V30 3180 H 287.781 0.287945 3.91041 0
M  V30 3181 H 289.271 -0.679726 4.12031 0
M  V30 3182 N 289.708 -1.40897 0.706093 0
M  V30 3183 C 291.124 -1.55042 0.37869 0
M  V30 3184 C 291.324 -1.67944 -1.11342 0
M  V30 3185 O 290.38 -1.66372 -1.89938 0
M  V30 3186 C 291.693 -2.78398 1.13643 0
M  V30 3187 C 293.241 -2.92206 1.12181 0
M  V30 3188 C 293.716 -4.18463 1.86152 0
M  V30 3189 N 295.207 -4.25443 1.83173 0
M  V30 3190 C 295.942 -5.2202 2.37239 0
M  V30 3191 N 295.438 -6.24563 2.99821 0
M  V30 3192 N 297.231 -5.14033 2.27435 0
M  V30 3193 H 289.382 -1.30769 1.67372 0
M  V30 3194 H 291.645 -0.631653 0.706907 0
M  V30 3195 H 291.351 -2.7511 2.19106 0
M  V30 3196 H 291.225 -3.70228 0.721853 0
M  V30 3197 H 293.612 -2.95004 0.0754171 0
M  V30 3198 H 293.693 -2.01521 1.57554 0
M  V30 3199 H 293.337 -4.16427 2.90776 0
M  V30 3200 H 293.267 -5.08141 1.38206 0
M  V30 3201 H 295.758 -3.51976 1.37556 0
M  V30 3202 H 296.071 -6.94665 3.38616 0
M  V30 3203 H 294.416 -6.25035 3.03902 0
M  V30 3204 H 297.607 -4.3285 1.78208 0
M  V30 3205 H 297.78 -5.89129 2.69873 0
M  V30 3206 N 291.186 -0.45159 -1.50991 0
M  V30 3207 C 292.118 0.388634 -2.25881 0
M  V30 3208 C 293.131 0.974041 -1.30446 0
M  V30 3209 O 294.32 0.865758 -1.56099 0
M  V30 3210 C 291.42 1.5571 -3.01011 0
M  V30 3211 C 290.593 1.08801 -4.23652 0
M  V30 3212 C 289.652 2.12825 -4.8124 0
M  V30 3213 O 288.678 1.71678 -5.42693 0
M  V30 3214 N 289.88 3.45453 -4.66522 0
M  V30 3215 H 292.645 -0.25329 -2.98628 0
M  V30 3216 H 290.206 -0.281268 -1.59438 0
M  V30 3217 H 292.198 2.24952 -3.3642 0
M  V30 3218 H 290.768 2.10409 -2.31186 0
M  V30 3219 H 289.988 0.22215 -3.93574 0
M  V30 3220 H 291.276 0.752213 -5.03209 0
M  V30 3221 H 290.674 3.81605 -4.17605 0
M  V30 3222 H 289.231 4.10549 -5.06254 0
M  V30 3223 N 292.664 1.56529 -0.183458 0
M  V30 3224 C 293.611 2.18546 0.742055 0
M  V30 3225 C 294.581 1.12912 1.2182 0
M  V30 3226 O 295.766 1.41115 1.28418 0
M  V30 3227 C 292.906 2.83977 1.96089 0
M  V30 3228 C 292.019 4.04105 1.52719 0
M  V30 3229 C 291.154 4.57427 2.70063 0
M  V30 3230 C 290.193 5.69938 2.23243 0
M  V30 3231 N 289.33 6.17717 3.33722 0
M  V30 3232 H 294.17 2.97284 0.206432 0
M  V30 3233 H 291.707 1.46823 0.0901571 0
M  V30 3234 H 293.665 3.20077 2.67594 0
M  V30 3235 H 292.295 2.07822 2.47002 0
M  V30 3236 H 291.347 3.73745 0.708436 0
M  V30 3237 H 292.659 4.85513 1.1436 0
M  V30 3238 H 291.813 4.95772 3.49708 0
M  V30 3239 H 290.552 3.75101 3.11689 0
M  V30 3240 H 289.557 5.31133 1.42048 0
M  V30 3241 H 290.782 6.54073 1.82661 0
M  V30 3242 H 288.728 5.38317 3.74902 0
M  V30 3243 H 288.645 6.94146 2.99495 0
M  V30 3244 H 289.913 6.60713 4.13616 0
M  V30 3245 N 294.142 -0.090211 1.57342 0
M  V30 3246 C 295.089 -1.10909 2.02405 0
M  V30 3247 C 296.059 -1.39523 0.901252 0
M  V30 3248 O 297.244 -1.50903 1.1676 0
M  V30 3249 C 294.384 -2.42277 2.45755 0
M  V30 3250 C 293.497 -2.20352 3.71576 0
M  V30 3251 C 292.632 -3.45154 4.03785 0
M  V30 3252 C 291.671 -3.18512 5.22701 0
M  V30 3253 N 290.808 -4.35593 5.50639 0
M  V30 3254 H 295.648 -0.71782 2.89225 0
M  V30 3255 H 293.185 -0.342901 1.43048 0
M  V30 3256 H 295.143 -3.18951 2.68935 0
M  V30 3257 H 293.773 -2.79242 1.61938 0
M  V30 3258 H 292.825 -1.34458 3.55844 0
M  V30 3259 H 294.137 -1.96661 4.58395 0
M  V30 3260 H 293.291 -4.30233 4.27767 0
M  V30 3261 H 292.03 -3.71904 3.15498 0
M  V30 3262 H 291.035 -2.31827 4.98534 0
M  V30 3263 H 292.26 -2.93103 6.12591 0
M  V30 3264 H 290.206 -4.6241 4.6531 0
M  V30 3265 H 290.123 -4.1511 6.31838 0
M  V30 3266 H 291.391 -5.21723 5.7916 0
M  V30 3267 N 295.62 -1.53406 -0.361157 0
M  V30 3268 C 296.552 -1.76446 -1.46286 0
M  V30 3269 C 297.565 -0.645322 -1.49464 0
M  V30 3270 O 298.754 -0.921681 -1.52864 0
M  V30 3271 C 295.854 -1.83332 -2.85031 0
M  V30 3272 C 295.027 -3.13033 -3.05498 0
M  V30 3273 C 294.086 -3.11104 -4.24383 0
M  V30 3274 O 293.112 -3.84888 -4.19344 0
M  V30 3275 N 294.314 -2.32234 -5.32022 0
M  V30 3276 H 297.079 -2.71508 -1.26899 0
M  V30 3277 H 294.64 -1.52238 -0.550915 0
M  V30 3278 H 296.632 -1.79514 -3.62708 0
M  V30 3279 H 295.202 -0.955342 -2.97644 0
M  V30 3280 H 294.422 -3.30119 -2.15442 0
M  V30 3281 H 295.71 -3.9874 -3.16044 0
M  V30 3282 H 295.108 -1.71807 -5.38979 0
M  V30 3283 H 293.665 -2.3423 -6.08259 0
M  V30 3284 N 297.098 0.621204 -1.44841 0
M  V30 3285 C 298.514 0.94048 -1.28946 0
M  V30 3286 C 298.714 2.00154 -0.23249 0
M  V30 3287 O 297.77 2.49651 0.378237 0
M  V30 3288 C 299.083 1.39433 -2.66419 0
M  V30 3289 C 300.631 1.50927 -2.74208 0
M  V30 3290 C 301.106 1.99692 -4.12174 0
M  V30 3291 N 302.597 2.06947 -4.144 0
M  V30 3292 C 303.332 2.45871 -5.1801 0
M  V30 3293 N 302.828 2.83862 -6.31977 0
M  V30 3294 N 304.621 2.46092 -5.05366 0
M  V30 3295 H 296.772 -0.0803548 -2.12248 0
M  V30 3296 H 299.035 0.0266913 -0.947624 0
M  V30 3297 H 298.741 0.688925 -3.44887 0
M  V30 3298 H 298.615 2.36347 -2.93973 0
M  V30 3299 H 301.002 2.20561 -1.96053 0
M  V30 3300 H 301.083 0.523627 -2.50383 0
M  V30 3301 H 300.727 1.30649 -4.90809 0
M  V30 3302 H 300.657 2.99146 -4.33381 0
M  V30 3303 H 303.148 1.80232 -3.32152 0
M  V30 3304 H 303.461 3.12405 -7.0684 0
M  V30 3305 H 301.806 2.8159 -6.35399 0
M  V30 3306 H 304.997 2.1581 -4.15384 0
M  V30 3307 H 305.17 2.76102 -5.86235 0
M  V30 3308 N 298.576 1.31904 0.862503 0
M  V30 3309 C 299.539 1.20131 1.95195 0
M  V30 3310 C 300.539 0.126409 1.60302 0
M  V30 3311 O 301.729 0.376234 1.70089 0
M  V30 3312 C 298.861 0.845691 3.30244 0
M  V30 3313 H 300.054 2.16943 2.07064 0
M  V30 3314 H 297.607 1.15622 1.05172 0
M  V30 3315 H 298.342 -0.120957 3.24074 0
M  V30 3316 H 298.127 1.62276 3.56944 0
M  V30 3317 H 299.617 0.787418 4.10109 0
M  V30 3318 N 300.054 -1.07777 1.14986 0
M  V30 3319 C 301.303 -1.79669 0.916617 0
M  V30 3320 C 301.616 -1.87474 -0.557917 0
M  V30 3321 O 302.822 -2.55845 -0.908617 0
M  V30 3322 C 301.278 -3.22848 1.59051 0
M  V30 3323 C 300.886 -3.23257 3.10176 0
M  V30 3324 C 302.63 -3.99379 1.43864 0
M  V30 3325 C 300.537 -4.61063 3.70372 0
M  V30 3326 H 299.467 -0.673349 0.33929 0
M  V30 3327 H 302.118 -1.21003 1.37951 0
M  V30 3328 H 300.5 -3.8168 1.0553 0
M  V30 3329 H 301.674 -2.74095 3.70417 0
M  V30 3330 H 299.989 -2.60222 3.25074 0
M  V30 3331 H 302.586 -5.0122 1.86232 0
M  V30 3332 H 302.929 -4.14511 0.385564 0
M  V30 3333 H 303.462 -3.47032 1.94457 0
M  V30 3334 H 300.201 -4.51135 4.7556 0
M  V30 3335 H 299.721 -5.1048 3.14913 0
M  V30 3336 H 301.4 -5.30034 3.71043 0
M  V30 3337 N 301.532 -0.945985 -1.26051 0
M  V30 3338 C 302.78 -0.594941 -1.93145 0
M  V30 3339 C 303.101 0.86953 -1.7454 0
M  V30 3340 O 302.371 1.61838 -1.10387 0
M  V30 3341 H 300.951 -0.217044 -0.714773 0
M  V30 3342 H 303.613 -1.20235 -1.53393 0
M  V30 3343 H 302.709 -0.816835 -3.01221 0
M  V30 3344 N 303.011 1.40521 -0.713556 0
M  V30 3345 C 304.236 2.05759 -0.26035 0
M  V30 3346 C 304.661 1.53403 1.08854 0
M  V30 3347 O 304.019 0.668535 1.68524 0
M  V30 3348 C 304.067 3.59745 -0.248122 0
M  V30 3349 O 303.171 4.05123 0.77131 0
M  V30 3350 H 302.512 0.652564 -0.122703 0
M  V30 3351 H 305.042 1.79958 -0.973467 0
M  V30 3352 H 305.052 4.07911 -0.0851129 0
M  V30 3353 H 303.727 3.97218 -1.2325 0
M  V30 3354 H 302.304 3.68422 0.57619 0
M  V30 3355 N 304.489 0.459591 1.5075 0
M  V30 3356 C 305.452 -0.329093 2.26825 0
M  V30 3357 C 306.452 -0.930481 1.31144 0
M  V30 3358 O 307.642 -0.801453 1.54669 0
M  V30 3359 C 304.774 -1.46768 3.07688 0
M  V30 3360 H 305.967 0.337924 2.9799 0
M  V30 3361 H 303.52 0.213336 1.54837 0
M  V30 3362 H 304.255 -2.17009 2.40993 0
M  V30 3363 H 304.04 -1.04238 3.77991 0
M  V30 3364 H 305.53 -2.02433 3.65254 0
M  V30 3365 N 305.967 -1.56429 0.191757 0
M  V30 3366 C 307.244 -1.89224 -0.495332 0
M  V30 3367 C 307.624 -1.10478 -1.79883 0
M  V30 3368 O 306.972 -0.204852 -2.2758 0
M  V30 3369 C 307.182 -3.41548 -0.717367 0
M  V30 3370 C 308.53 -4.11711 -1.03823 0
M  V30 3371 O 309.554 -3.4698 -0.805204 0
M  V30 3372 O 308.413 -5.2611 -1.47887 0
M  V30 3373 H 305.507 -0.785788 -0.25781 0
M  V30 3374 H 308.053 -1.68111 0.231721 0
M  V30 3375 H 306.825 -3.90772 0.203287 0
M  V30 3376 H 306.448 -3.68342 -1.497 0
M  V30 3377 N 307.445 0.0818655 -1.57387 0
M  V30 3378 C 308.673 0.796108 -1.9097 0
M  V30 3379 C 309.088 1.71626 -0.786757 0
M  V30 3380 O 308.445 1.80908 0.240513 0
M  V30 3381 C 308.496 1.59829 -3.24248 0
M  V30 3382 O 308.217 0.715131 -4.32224 0
M  V30 3383 C 309.718 2.41442 -3.7178 0
M  V30 3384 H 306.938 0.22691 -0.631469 0
M  V30 3385 H 309.482 0.0551439 -2.04426 0
M  V30 3386 H 307.637 2.29163 -3.12351 0
M  V30 3387 H 308.051 1.27205 -5.08841 0
M  V30 3388 H 309.525 2.932 -4.67694 0
M  V30 3389 H 310.002 3.2051 -3.00283 0
M  V30 3390 H 310.608 1.77283 -3.86589 0
M  V30 3391 N 308.923 1.53595 0.353017 0
M  V30 3392 C 310.2 1.61002 1.11075 0
M  V30 3393 C 310.58 0.425356 2.0677 0
M  V30 3394 O 309.928 -0.583267 2.2093 0
M  V30 3395 C 310.138 2.96631 1.83877 0
M  V30 3396 C 311.486 3.51653 2.37961 0
M  V30 3397 O 312.51 2.98743 1.93987 0
M  V30 3398 O 311.369 4.44177 3.18386 0
M  V30 3399 H 308.463 0.650825 0.510251 0
M  V30 3400 H 311.009 1.6594 0.35527 0
M  V30 3401 H 309.781 3.74293 1.14108 0
M  V30 3402 H 309.404 2.95242 2.66304 0
M  V30 3403 N 310.401 -0.613514 1.45168 0
M  V30 3404 C 311.817 -0.933629 1.29443 0
M  V30 3405 C 312.017 -2.00028 0.243101 0
M  V30 3406 O 311.073 -2.49848 -0.364992 0
M  V30 3407 C 312.386 -1.38018 2.67155 0
M  V30 3408 C 313.934 -1.49471 2.75004 0
M  V30 3409 C 314.409 -1.97503 4.13227 0
M  V30 3410 N 315.9 -2.04746 4.15491 0
M  V30 3411 C 316.635 -2.43121 5.19307 0
M  V30 3412 N 316.131 -2.80506 6.33473 0
M  V30 3413 N 317.924 -2.43408 5.06664 0
M  V30 3414 H 310.075 0.0916097 2.12202 0
M  V30 3415 H 312.338 -0.0216655 0.947752 0
M  V30 3416 H 312.044 -0.670625 3.45247 0
M  V30 3417 H 311.918 -2.34784 2.95222 0
M  V30 3418 H 314.305 -2.19519 1.9722 0
M  V30 3419 H 314.386 -0.510342 2.50657 0
M  V30 3420 H 314.03 -1.28045 4.91495 0
M  V30 3421 H 313.96 -2.96843 4.34962 0
M  V30 3422 H 316.451 -1.78468 3.33103 0
M  V30 3423 H 316.764 -3.08652 7.08487 0
M  V30 3424 H 315.109 -2.78216 6.36884 0
M  V30 3425 H 318.3 -2.13604 4.16523 0
M  V30 3426 H 318.473 -2.72989 5.87691 0
M  V30 3427 N 311.879 -1.3236 -0.855495 0
M  V30 3428 C 313.156 -1.13491 -1.59309 0
M  V30 3429 C 313.536 0.30503 -2.08885 0
M  V30 3430 O 312.884 1.30151 -1.87811 0
M  V30 3431 C 313.094 -2.16176 -2.73987 0
M  V30 3432 C 314.442 -2.49463 -3.43589 0
M  V30 3433 O 315.466 -2.14715 -2.84211 0
M  V30 3434 O 314.325 -3.09027 -4.50738 0
M  V30 3435 H 311.419 -0.437887 -0.701559 0
M  V30 3436 H 313.965 -1.43887 -0.899696 0
M  V30 3437 H 312.737 -3.1297 -2.34873 0
M  V30 3438 H 312.36 -1.86769 -3.51003 0
M  V30 3439 N 313.357 1.07166 -1.15556 0
M  V30 3440 C 314.32 2.12589 -0.856644 0
M  V30 3441 C 315.32 1.6015 0.14444 0
M  V30 3442 O 316.51 1.7399 -0.0854163 0
M  V30 3443 C 313.642 3.39753 -0.279405 0
M  V30 3444 H 314.835 2.40539 -1.79112 0
M  V30 3445 H 312.388 1.23086 -0.963298 0
M  V30 3446 H 313.123 3.17447 0.663174 0
M  V30 3447 H 312.908 3.79117 -1.00063 0
M  V30 3448 H 314.398 4.17507 -0.0879113 0
M  V30 3449 N 314.835 0.952656 1.25548 0
M  V30 3450 C 315.782 0.47008 2.25962 0
M  V30 3451 C 316.752 -0.476384 1.59122 0
M  V30 3452 O 317.937 -0.39007 1.8677 0
M  V30 3453 C 315.077 -0.247881 3.44209 0
M  V30 3454 C 314.19 0.735591 4.25691 0
M  V30 3455 C 313.325 -0.0047306 5.312 0
M  V30 3456 C 312.364 0.969805 6.04368 0
M  V30 3457 N 311.501 0.260486 7.01617 0
M  V30 3458 H 316.341 1.33126 2.66611 0
M  V30 3459 H 313.878 0.66765 1.31076 0
M  V30 3460 H 315.836 -0.680695 4.1161 0
M  V30 3461 H 314.466 -1.07312 3.0444 0
M  V30 3462 H 313.518 1.28689 3.57971 0
M  V30 3463 H 314.83 1.47934 4.76358 0
M  V30 3464 H 313.984 -0.496275 6.04667 0
M  V30 3465 H 312.723 -0.781282 4.81401 0
M  V30 3466 H 311.728 1.47237 5.29718 0
M  V30 3467 H 312.953 1.74655 6.56256 0
M  V30 3468 H 310.899 -0.497364 6.54112 0
M  V30 3469 H 310.816 0.943362 7.50091 0
M  V30 3470 H 312.084 -0.209587 7.79218 0
M  V30 3471 N 316.313 -1.40141 0.720998 0
M  V30 3472 C 317.729 -1.54632 0.395113 0
M  V30 3473 C 317.929 -1.69115 -1.09555 0
M  V30 3474 O 316.985 -1.68377 -1.88163 0
M  V30 3475 C 318.298 -2.77177 1.1659 0
M  V30 3476 C 319.846 -2.91 1.15274 0
M  V30 3477 C 320.321 -4.16465 1.90579 0
M  V30 3478 N 321.812 -4.23476 1.87675 0
M  V30 3479 C 322.547 -5.19475 2.42762 0
M  V30 3480 N 322.043 -6.21348 3.06428 0
M  V30 3481 N 323.836 -5.11592 2.32874 0
M  V30 3482 H 315.987 -1.28986 1.68749 0
M  V30 3483 H 318.25 -0.62412 0.713567 0
M  V30 3484 H 317.956 -2.72771 2.22011 0
M  V30 3485 H 317.83 -3.69442 0.76108 0
M  V30 3486 H 320.217 -2.94907 0.106702 0
M  V30 3487 H 320.298 -1.99838 1.59682 0
M  V30 3488 H 319.942 -4.1332 2.95176 0
M  V30 3489 H 319.872 -5.06646 1.43587 0
M  V30 3490 H 322.363 -3.50497 1.41281 0
M  V30 3491 H 322.676 -6.91034 3.45965 0
M  V30 3492 H 321.021 -6.21777 3.10514 0
M  V30 3493 H 324.212 -4.30936 1.82789 0
M  V30 3494 H 324.385 -5.86233 2.76106 0
M  V30 3495 N 317.792 -0.46758 -1.50504 0
M  V30 3496 C 318.702 0.33382 -2.32213 0
M  V30 3497 C 319.718 0.999323 -1.42441 0
M  V30 3498 O 320.894 0.988068 -1.75497 0
M  V30 3499 C 317.959 1.4035 -3.17022 0
M  V30 3500 C 317.02 0.754961 -4.2261 0
M  V30 3501 C 316.253 1.77367 -5.03365 0
M  V30 3502 O 316.476 2.99976 -4.8515 0
M  V30 3503 O 315.41 1.34744 -5.86624 0
M  V30 3504 H 319.236 -0.334067 -3.01857 0
M  V30 3505 H 316.821 -0.229496 -1.47627 0
M  V30 3506 H 318.703 2.02318 -3.69656 0
M  V30 3507 H 317.378 2.05492 -2.5011 0
M  V30 3508 H 316.285 0.0964244 -3.73976 0
M  V30 3509 H 317.618 0.146545 -4.91982 0
M  V30 3510 N 319.27 1.56325 -0.20005 0
M  V30 3511 C 320.517 1.97719 0.437411 0
M  V30 3512 C 320.845 1.08709 1.61284 0
M  V30 3513 O 320.1 0.127261 1.95286 0
M  V30 3514 C 320.399 3.4495 0.935103 0
M  V30 3515 C 320.065 4.5072 -0.12749 0
M  V30 3516 C 318.727 4.79368 -0.419451 0
M  V30 3517 C 321.079 5.14268 -0.847231 0
M  V30 3518 C 318.407 5.68854 -1.43604 0
M  V30 3519 C 320.759 6.04852 -1.85301 0
M  V30 3520 C 319.423 6.31855 -2.15211 0
M  V30 3521 H 318.693 0.723507 0.16006 0
M  V30 3522 H 321.34 1.89166 -0.298056 0
M  V30 3523 H 319.645 3.50599 1.74894 0
M  V30 3524 H 321.342 3.74337 1.43781 0
M  V30 3525 H 317.932 4.28458 0.11023 0
M  V30 3526 H 322.116 4.92222 -0.634901 0
M  V30 3527 H 317.372 5.88047 -1.67364 0
M  V30 3528 H 321.546 6.53152 -2.41591 0
M  V30 3529 H 319.173 7.00994 -2.94129 0
M  V30 3530 N 320.748 -0.0735177 1.57428 0
M  V30 3531 C 321.698 -1.09442 2.00016 0
M  V30 3532 C 322.682 -1.34575 0.881947 0
M  V30 3533 O 323.874 -1.34905 1.14585 0
M  V30 3534 C 321.003 -2.40865 2.4462 0
M  V30 3535 C 320.089 -2.19014 3.63172 0
M  V30 3536 N 320.48 -1.67087 4.77405 0
M  V30 3537 C 318.778 -2.49494 3.69688 0
M  V30 3538 C 319.479 -1.6001 5.5926 0
M  V30 3539 N 318.455 -2.05999 5.03056 0
M  V30 3540 H 322.257 -0.686227 2.85776 0
M  V30 3541 H 319.771 -0.280617 1.59957 0
M  V30 3542 H 321.768 -3.14763 2.73368 0
M  V30 3543 H 320.428 -2.82403 1.60246 0
M  V30 3544 H 321.439 -1.35975 4.99731 0
M  V30 3545 H 318.116 -2.94409 2.96023 0
M  V30 3546 H 319.506 -1.2073 6.60964 0
M  V30 3547 N 322.226 -1.5378 -0.344866 0
M  V30 3548 C 323.451 -1.75211 -1.10977 0
M  V30 3549 C 323.876 -0.48936 -1.81623 0
M  V30 3550 O 323.234 0.557925 -1.72502 0
M  V30 3551 C 323.282 -2.93147 -2.09993 0
M  V30 3552 O 322.386 -2.63203 -3.17487 0
M  V30 3553 H 321.727 -0.581241 -0.321021 0
M  V30 3554 H 324.257 -2.00738 -0.395661 0
M  V30 3555 H 324.267 -3.19898 -2.53237 0
M  V30 3556 H 322.942 -3.84731 -1.5797 0
M  V30 3557 H 321.519 -2.47336 -2.79069 0
M  V30 3558 N 323.704 0.605807 -1.45491 0
M  V30 3559 C 324.651 1.7164 -1.54299 0
M  V30 3560 C 325.621 1.61486 -0.388761 0
M  V30 3561 O 326.806 1.81039 -0.602445 0
M  V30 3562 C 323.946 3.09953 -1.51734 0
M  V30 3563 C 323.059 3.309 -2.77721 0
M  V30 3564 C 322.194 4.59329 -2.66816 0
M  V30 3565 C 321.233 4.7354 -3.87848 0
M  V30 3566 N 320.37 5.9327 -3.75467 0
M  V30 3567 H 325.21 1.63449 -2.49176 0
M  V30 3568 H 322.747 0.796957 -1.23641 0
M  V30 3569 H 324.705 3.89977 -1.48235 0
M  V30 3570 H 323.335 3.17098 -0.604068 0
M  V30 3571 H 322.387 2.44639 -2.913 0
M  V30 3572 H 323.699 3.37274 -3.67488 0
M  V30 3573 H 322.853 5.4755 -2.61292 0
M  V30 3574 H 321.592 4.55355 -1.74651 0
M  V30 3575 H 320.597 3.83741 -3.93729 0
M  V30 3576 H 321.822 4.79309 -4.81082 0
M  V30 3577 H 319.768 5.90338 -2.86072 0
M  V30 3578 H 319.685 6.00811 -4.5887 0
M  V30 3579 H 320.953 6.83984 -3.73879 0
M  V30 3580 N 325.182 1.32811 0.848464 0
M  V30 3581 C 326.412 1.26556 1.63301 0
M  V30 3582 C 326.82 -0.1676 1.88456 0
M  V30 3583 O 326.163 -1.11713 1.45828 0
M  V30 3584 C 326.225 1.96202 3.01239 0
M  V30 3585 C 325.889 3.45528 2.99098 0
M  V30 3586 C 326.886 4.40903 2.75501 0
M  V30 3587 C 324.571 3.87558 3.19537 0
M  V30 3588 C 326.565 5.76282 2.72356 0
M  V30 3589 C 324.252 5.23044 3.16019 0
M  V30 3590 C 325.25 6.17217 2.92458 0
M  V30 3591 O 324.938 7.50223 2.88825 0
M  V30 3592 H 324.67 0.43771 0.515156 0
M  V30 3593 H 327.224 1.7559 1.0657 0
M  V30 3594 H 325.454 1.41746 3.59785 0
M  V30 3595 H 327.143 1.83573 3.62016 0
M  V30 3596 H 327.909 4.09756 2.5947 0
M  V30 3597 H 323.788 3.14674 3.369 0
M  V30 3598 H 327.332 6.4976 2.53886 0
M  V30 3599 H 323.229 5.53818 3.31596 0
M  V30 3600 H 323.997 7.59657 3.04735 0
M  V30 3601 O 326.699 -0.985968 1.2791 0
M  V30 3602 H 327.39 -1.60943 1.07783 0
M  V30 END ATOM
M  V30 BEGIN BOND
M  V30 END BOND
M  V30 END CTAB
M  END
$$$$
