drugbank_target|Q2G0P0 50S ribosomal protein L1 (DB01190)
 OpenBabel12092121213D

  0  0  0     0  0            999 V3000
M  V30 BEGIN CTAB
M  V30 COUNTS 3513 3538 0 0 0
M  V30 BEGIN ATOM
M  V30 1 H -0.908 1.98254 -0.117106 0
M  V30 2 N 0 1.576 0 0
M  V30 3 C 0.933 2.03868 1.02534 0
M  V30 4 C 1.911 0.928543 1.3348 0
M  V30 5 O 3.095 1.19667 1.45644 0
M  V30 6 C 0.222 2.43627 2.35294 0
M  V30 7 C -0.732 3.65373 2.2001 0
M  V30 8 S 0.101 5.13292 1.52614 0
M  V30 9 C 1.257 5.56322 2.86805 0
M  V30 10 H 1.49 2.90518 0.631377 0
M  V30 11 H -0.977 1.52953 0.210867 0
M  V30 12 H 0.981 2.67203 3.11629 0
M  V30 13 H -0.358 1.57376 2.7183 0
M  V30 14 H -1.165 3.90944 3.18086 0
M  V30 15 H -1.563 3.418 1.51819 0
M  V30 16 H 0.729 5.58782 3.83104 0
M  V30 17 H 1.672 6.56266 2.65933 0
M  V30 18 H 2.08 4.83886 2.90714 0
M  V30 19 N 1.4781 -0.272755 1.55222 0
M  V30 20 C 2.4411 -1.32041 1.87344 0
M  V30 21 C 3.4411 -1.42342 0.74803 0
M  V30 22 O 4.6311 -1.41488 1.0162 0
M  V30 23 C 1.7631 -2.70173 2.07893 0
M  V30 24 H 2.9561 -1.04789 2.80997 0
M  V30 25 H 0.5091 -0.51083 1.47717 0
M  V30 26 H 1.2441 -3.02605 1.16622 0
M  V30 27 H 1.0291 -2.64082 2.89833 0
M  V30 28 H 2.5191 -3.45869 2.34017 0
M  V30 29 N 2.9562 -1.48159 -0.537278 0
M  V30 30 C 3.9032 -1.62138 -1.64256 0
M  V30 31 C 4.8732 -0.463668 -1.59497 0
M  V30 32 O 6.0582 -0.686241 -1.78032 0
M  V30 33 C 3.1982 -1.66028 -3.02537 0
M  V30 34 C 2.3112 -2.92855 -3.17585 0
M  V30 35 C 1.4462 -2.87952 -4.46382 0
M  V30 36 C 0.4852 -4.09516 -4.54932 0
M  V30 37 N -0.3778 -4.02733 -5.75109 0
M  V30 38 H 4.4622 -2.56529 -1.51647 0
M  V30 39 H 1.9992 -1.27224 -0.738414 0
M  V30 40 H 3.9572 -1.66265 -3.82638 0
M  V30 41 H 2.5872 -0.751331 -3.13934 0
M  V30 42 H 1.6392 -3.02395 -2.30784 0
M  V30 43 H 2.9512 -3.82822 -3.19764 0
M  V30 44 H 2.1052 -2.8655 -5.34765 0
M  V30 45 H 0.8442 -1.95702 -4.46712 0
M  V30 46 H -0.1508 -4.11201 -3.64957 0
M  V30 47 H 1.0742 -5.02917 -4.56346 0
M  V30 48 H -0.9798 -3.13299 -5.76351 0
M  V30 49 H -1.0628 -4.86397 -5.78752 0
M  V30 50 H 0.2052 -4.05379 -6.65799 0
M  V30 51 N 4.4343 0.785586 -1.36625 0
M  V30 52 C 5.3813 1.89838 -1.31264 0
M  V30 53 C 6.3513 1.65115 -0.180633 0
M  V30 54 O 7.5363 1.87222 -0.36777 0
M  V30 55 C 4.6763 3.26706 -1.11163 0
M  V30 56 C 3.7893 3.63476 -2.33472 0
M  V30 57 C 2.9243 4.89481 -2.06353 0
M  V30 58 C 1.9633 5.18941 -3.24602 0
M  V30 59 N 1.1003 6.36131 -2.97123 0
M  V30 60 H 5.9403 1.93756 -2.26413 0
M  V30 61 H 3.4773 0.947454 -1.12524 0
M  V30 62 H 5.4353 4.05639 -0.975337 0
M  V30 63 H 4.0653 3.222 -0.196674 0
M  V30 64 H 3.1173 2.79636 -2.57891 0
M  V30 65 H 4.4293 3.81193 -3.21704 0
M  V30 66 H 3.5833 5.76288 -1.89675 0
M  V30 67 H 2.3223 4.73841 -1.15437 0
M  V30 68 H 1.3273 4.30615 -3.41834 0
M  V30 69 H 2.5523 5.36498 -4.16349 0
M  V30 70 H 0.4983 6.21875 -2.08823 0
M  V30 71 H 0.4153 6.54198 -3.78894 0
M  V30 72 H 1.6833 7.2591 -2.84033 0
M  V30 73 N 5.9124 1.20967 1.01018 0
M  V30 74 C 7.1604 1.02172 1.74371 0
M  V30 75 C 7.4814 -0.446414 1.89821 0
M  V30 76 O 6.7514 -1.32234 1.44537 0
M  V30 77 H 5.3314 0.375066 0.646014 0
M  V30 78 H 7.9934 1.52187 1.21758 0
M  V30 79 H 7.0894 1.48538 2.74487 0
M  V30 80 N 7.3905 -1.2043 1.01659 0
M  V30 81 C 8.3375 -2.23215 0.586822 0
M  V30 82 C 9.3075 -1.61382 -0.393085 0
M  V30 83 O 10.4925 -1.88544 -0.292525 0
M  V30 84 C 7.6325 -3.45032 -0.0687464 0
M  V30 85 C 6.7455 -4.21296 0.955724 0
M  V30 86 C 5.8805 -5.30507 0.271208 0
M  V30 87 C 4.9195 -5.98515 1.28244 0
M  V30 88 N 4.0565 -6.99316 0.62459 0
M  V30 89 H 8.8965 -2.59336 1.46796 0
M  V30 90 H 6.4335 -1.27431 0.734836 0
M  V30 91 H 8.3915 -4.1459 -0.465965 0
M  V30 92 H 7.0215 -3.09604 -0.913529 0
M  V30 93 H 6.0735 -3.50803 1.4711 0
M  V30 94 H 7.3855 -4.6803 1.72479 0
M  V30 95 H 6.5395 -6.06428 -0.18151 0
M  V30 96 H 5.2785 -4.8481 -0.530163 0
M  V30 97 H 4.2835 -5.21355 1.74554 0
M  V30 98 H 5.5085 -6.46298 2.08509 0
M  V30 99 H 3.4545 -6.55812 -0.156914 0
M  V30 100 H 3.3715 -7.44178 1.33172 0
M  V30 101 H 4.6395 -7.79255 0.195462 0
M  V30 102 N 8.8686 -0.792821 -1.36206 0
M  V30 103 C 9.8156 -0.191653 -2.30003 0
M  V30 104 C 10.7856 0.666453 -1.52143 0
M  V30 105 O 11.9706 0.61442 -1.80636 0
M  V30 106 C 9.1106 0.664848 -3.38635 0
M  V30 107 C 8.2236 -0.212175 -4.31479 0
M  V30 108 C 7.3586 0.651022 -5.27196 0
M  V30 109 C 6.3976 -0.227247 -6.11678 0
M  V30 110 N 5.5346 0.595127 -6.99573 0
M  V30 111 H 10.3746 -0.996978 -2.80828 0
M  V30 112 H 7.9116 -0.503206 -1.38225 0
M  V30 113 H 9.8696 1.17645 -4.00269 0
M  V30 114 H 8.4996 1.43557 -2.89122 0
M  V30 115 H 7.5516 -0.841777 -3.70969 0
M  V30 116 H 8.8636 -0.888751 -4.90818 0
M  V30 117 H 8.0176 1.2283 -5.94136 0
M  V30 118 H 6.7566 1.36121 -4.68319 0
M  V30 119 H 5.7616 -0.816904 -5.43697 0
M  V30 120 H 6.9866 -0.93509 -6.72631 0
M  V30 121 H 4.9326 1.28955 -6.432 0
M  V30 122 H 4.8496 -0.0236952 -7.55996 0
M  V30 123 H 6.1176 1.15613 -7.70879 0
M  V30 124 N 10.3467 1.47872 -0.545128 0
M  V30 125 C 11.5767 2.06589 -0.0210534 0
M  V30 126 C 11.9847 1.39997 1.27269 0
M  V30 127 O 11.3277 0.486421 1.77143 0
M  V30 128 C 11.3897 3.58574 0.257933 0
M  V30 129 C 11.0537 4.47132 -0.944573 0
M  V30 130 C 12.0507 4.85986 -1.84699 0
M  V30 131 C 9.7357 4.88821 -1.15584 0
M  V30 132 C 11.7297 5.65314 -2.94446 0
M  V30 133 C 9.4167 5.67916 -2.25642 0
M  V30 134 C 10.4147 6.06073 -3.14905 0
M  V30 135 O 10.1027 6.83578 -4.23057 0
M  V30 136 H 9.8347 0.674971 -0.0372899 0
M  V30 137 H 12.3887 1.91037 -0.754599 0
M  V30 138 H 10.6187 3.72295 1.04564 0
M  V30 139 H 12.3077 3.99356 0.72592 0
M  V30 140 H 13.0737 4.54388 -1.69577 0
M  V30 141 H 8.9527 4.58595 -0.470279 0
M  V30 142 H 12.4967 5.95016 -3.64145 0
M  V30 143 H 8.3937 5.98927 -2.40742 0
M  V30 144 H 9.1617 7.01954 -4.20954 0
M  V30 145 N 11.8248 0.280983 1.55075 0
M  V30 146 C 12.7568 -0.637268 2.20163 0
M  V30 147 C 13.7698 -1.11298 1.18813 0
M  V30 148 O 14.9588 -1.03388 1.4551 0
M  V30 149 C 12.0588 -1.88199 2.81841 0
M  V30 150 C 11.2318 -1.55211 4.08936 0
M  V30 151 C 10.2908 -2.64991 4.54606 0
M  V30 152 O 9.3168 -2.30929 5.2025 0
M  V30 153 N 10.5188 -3.95161 4.25238 0
M  V30 154 H 13.2838 -0.0801694 2.99593 0
M  V30 155 H 10.8448 0.102329 1.61576 0
M  V30 156 H 12.8368 -2.60948 3.09335 0
M  V30 157 H 11.4068 -2.34799 2.06369 0
M  V30 158 H 10.6268 -0.658185 3.88666 0
M  V30 159 H 11.9148 -1.30681 4.91732 0
M  V30 160 H 11.3128 -4.25653 3.72607 0
M  V30 161 H 9.8698 -4.6427 4.5749 0
M  V30 162 N 13.3029 -1.57598 0.00835791 0
M  V30 163 C 14.2129 -2.12385 -0.996487 0
M  V30 164 C 15.2289 -1.07108 -1.37127 0
M  V30 165 O 16.4049 -1.39055 -1.4569 0
M  V30 166 C 13.4699 -2.62314 -2.26699 0
M  V30 167 C 12.5309 -3.82225 -1.95456 0
M  V30 168 C 11.7639 -4.29763 -3.16449 0
M  V30 169 O 11.9869 -3.76584 -4.28416 0
M  V30 170 O 10.9209 -5.21832 -2.99958 0
M  V30 171 H 14.7469 -2.98479 -0.560725 0
M  V30 172 H 12.3319 -1.47903 -0.210987 0
M  V30 173 H 14.2139 -2.94589 -3.01322 0
M  V30 174 H 12.8889 -1.79313 -2.69497 0
M  V30 175 H 11.7959 -3.54909 -1.18282 0
M  V30 176 H 13.1289 -4.66324 -1.57489 0
M  V30 177 N 14.781 0.264519 -1.55364 0
M  V30 178 C 15.744 1.31046 -1.88042 0
M  V30 179 C 16.744 1.41943 -0.755569 0
M  V30 180 O 17.934 1.40947 -1.02369 0
M  V30 181 C 15.066 2.69067 -2.09323 0
M  V30 182 H 16.259 1.03297 -2.81549 0
M  V30 183 H 13.812 0.502989 -1.47986 0
M  V30 184 H 14.547 3.01982 -1.18226 0
M  V30 185 H 14.332 2.62542 -2.91229 0
M  V30 186 H 15.822 3.44623 -2.35848 0
M  V30 187 N 16.2591 1.48442 0.529413 0
M  V30 188 C 17.2221 1.62524 1.61612 0
M  V30 189 C 18.2221 0.498509 1.52877 0
M  V30 190 O 19.4121 0.76431 1.56537 0
M  V30 191 C 16.5441 1.59597 3.01233 0
M  V30 192 H 17.7371 2.59423 1.50465 0
M  V30 193 H 15.2901 1.37047 0.751514 0
M  V30 194 H 16.0251 0.641781 3.17886 0
M  V30 195 H 15.8101 2.41397 3.08982 0
M  V30 196 H 17.3001 1.72646 3.80241 0
M  V30 197 N 17.7372 -0.778329 1.37039 0
M  V30 198 C 18.9622 -1.57248 1.35233 0
M  V30 199 C 19.3872 -1.87999 -0.0615568 0
M  V30 200 O 18.7452 -1.48734 -1.03672 0
M  V30 201 C 18.7932 -2.86353 2.19167 0
M  V30 202 O 17.8972 -3.80442 1.59178 0
M  V30 203 H 17.2382 -0.476569 0.462362 0
M  V30 204 H 19.7682 -0.963853 1.80474 0
M  V30 205 H 19.7782 -3.35519 2.32145 0
M  V30 206 H 18.4532 -2.63299 3.21942 0
M  V30 207 H 17.0302 -3.39067 1.55203 0
M  V30 208 N 19.2153 -1.21501 -1.00376 0
M  V30 209 C 20.1623 -0.975387 -2.09177 0
M  V30 210 C 21.1323 0.0990615 -1.65804 0
M  V30 211 O 22.3173 -0.0483147 -1.90739 0
M  V30 212 C 19.4573 -0.547507 -3.40729 0
M  V30 213 C 18.5703 -1.69153 -3.97506 0
M  V30 214 C 17.7053 -1.2127 -5.17172 0
M  V30 215 C 16.7443 -2.32897 -5.66061 0
M  V30 216 N 15.8813 -1.86138 -6.76976 0
M  V30 217 H 20.7213 -1.9068 -2.29009 0
M  V30 218 H 18.2583 -0.950257 -1.12288 0
M  V30 219 H 20.2163 -0.280667 -4.16255 0
M  V30 220 H 18.8463 0.346904 -3.20931 0
M  V30 221 H 17.8983 -2.07298 -3.18954 0
M  V30 222 H 19.2103 -2.5316 -4.29781 0
M  V30 223 H 18.3643 -0.902591 -5.99948 0
M  V30 224 H 17.1033 -0.342692 -4.86495 0
M  V30 225 H 16.1083 -2.64709 -4.81881 0
M  V30 226 H 17.3333 -3.20396 -5.98768 0
M  V30 227 H 15.2793 -1.01484 -6.48103 0
M  V30 228 H 15.1963 -2.63717 -7.08512 0
M  V30 229 H 16.4643 -1.58165 -7.63285 0
M  V30 230 N 20.6934 1.19889 -1.02296 0
M  V30 231 C 21.9394 1.89701 -0.717033 0
M  V30 232 C 22.2724 1.7905 0.751989 0
M  V30 233 O 21.5474 1.17891 1.547 0
M  V30 234 C 21.8304 3.40858 -1.16136 0
M  V30 235 C 21.6834 3.60411 -2.69117 0
M  V30 236 C 23.0024 4.33876 -0.737549 0
M  V30 237 H 20.1214 0.688874 -0.261957 0
M  V30 238 H 22.7634 1.41154 -1.27183 0
M  V30 239 H 20.9134 3.82335 -0.689342 0
M  V30 240 H 22.5854 3.28145 -3.2422 0
M  V30 241 H 20.8284 3.03665 -3.0979 0
M  V30 242 H 21.4994 4.66396 -2.95261 0
M  V30 243 H 23.9754 4.00081 -1.14344 0
M  V30 244 H 22.8514 5.38242 -1.0764 0
M  V30 245 H 23.1124 4.40628 0.360436 0
M  V30 246 N 22.1715 0.800033 1.35784 0
M  V30 247 C 23.4485 0.30088 1.93272 0
M  V30 248 C 23.8285 -1.20857 1.73081 0
M  V30 249 O 23.1765 -2.00502 1.09596 0
M  V30 250 C 23.3865 0.70511 3.41803 0
M  V30 251 C 24.7345 0.690871 4.18942 0
M  V30 252 O 25.7585 0.646244 3.50289 0
M  V30 253 O 24.6175 0.74332 5.41421 0
M  V30 254 H 21.7115 0.0771605 0.823393 0
M  V30 255 H 24.2575 0.88329 1.449 0
M  V30 256 H 23.0295 1.74571 3.50201 0
M  V30 257 H 22.6525 0.0971541 3.97481 0
M  V30 258 N 23.6496 -1.47581 0.552962 0
M  V30 259 C 25.0656 -1.5818 0.212424 0
M  V30 260 C 25.2656 -1.55213 -1.28496 0
M  V30 261 O 24.3216 -1.45329 -2.06484 0
M  V30 262 C 25.6346 -2.88865 0.835318 0
M  V30 263 C 27.1826 -3.0244 0.806156 0
M  V30 264 C 27.6576 -4.35819 1.40804 0
M  V30 265 N 29.1486 -4.42444 1.37103 0
M  V30 266 C 29.8836 -5.44202 1.80641 0
M  V30 267 N 29.3796 -6.52795 2.32015 0
M  V30 268 N 31.1726 -5.35222 1.71738 0
M  V30 269 H 23.3236 -1.47753 1.52587 0
M  V30 270 H 25.5866 -0.702941 0.636064 0
M  V30 271 H 25.2926 -2.9676 1.88749 0
M  V30 272 H 25.1666 -3.7579 0.325848 0
M  V30 273 H 27.5536 -2.94144 -0.237317 0
M  V30 274 H 27.6346 -2.17068 1.35334 0
M  V30 275 H 27.2786 -4.44871 2.45056 0
M  V30 276 H 27.2086 -5.19916 0.836338 0
M  V30 277 H 29.6996 -3.6456 0.995202 0
M  V30 278 H 30.0126 -7.26609 2.63171 0
M  V30 279 H 28.3576 -6.53696 2.36023 0
M  V30 280 H 31.5486 -4.49284 1.31382 0
M  V30 281 H 31.7216 -6.14389 2.05987 0
M  V30 282 N 25.1277 -0.289203 -1.54924 0
M  V30 283 C 26.3557 0.326463 -2.04308 0
M  V30 284 C 26.7707 1.48413 -1.16701 0
M  V30 285 O 26.1277 1.81507 -0.190087 0
M  V30 286 C 26.1787 0.794014 -3.52672 0
M  V30 287 O 25.8997 -0.317564 -4.36948 0
M  V30 288 C 27.4007 1.47605 -4.18004 0
M  V30 289 H 24.6207 0.0726272 -0.667058 0
M  V30 290 H 27.1647 -0.425401 -2.00026 0
M  V30 291 H 25.3197 1.49593 -3.57352 0
M  V30 292 H 25.7337 0.0443186 -5.24481 0
M  V30 293 H 27.2077 1.75447 -5.23376 0
M  V30 294 H 27.6847 2.41224 -3.67025 0
M  V30 295 H 28.2907 0.81762 -4.17367 0
M  V30 296 N 26.6058 1.57591 -0.0167156 0
M  V30 297 C 27.5378 2.06343 0.997753 0
M  V30 298 C 28.5508 0.984469 1.29661 0
M  V30 299 O 29.7398 1.26093 1.26344 0
M  V30 300 C 26.8398 2.46255 2.32834 0
M  V30 301 C 26.0128 3.77083 2.21646 0
M  V30 302 C 25.0718 4.0368 3.37534 0
M  V30 303 O 24.0978 4.7411 3.14973 0
M  V30 304 N 25.2998 3.52881 4.60929 0
M  V30 305 H 28.0648 2.93997 0.581875 0
M  V30 306 H 25.6258 1.61002 0.170316 0
M  V30 307 H 27.6178 2.61149 3.09166 0
M  V30 308 H 26.1878 1.64032 2.66106 0
M  V30 309 H 25.4078 3.72106 1.30119 0
M  V30 310 H 26.6958 4.62822 2.11361 0
M  V30 311 H 26.0938 2.95878 4.82154 0
M  V30 312 H 24.6508 3.73076 5.34469 0
M  V30 313 N 28.0839 -0.256276 1.55502 0
M  V30 314 C 29.0339 -1.31981 1.85916 0
M  V30 315 C 30.0179 -1.43927 0.719296 0
M  V30 316 O 31.2099 -1.47326 0.981019 0
M  V30 317 C 28.3389 -2.67703 2.14918 0
M  V30 318 C 27.4249 -2.59801 3.35208 0
M  V30 319 N 27.8159 -2.21524 4.54709 0
M  V30 320 C 26.1139 -2.90832 3.38131 0
M  V30 321 C 26.8149 -2.24024 5.36832 0
M  V30 322 N 25.7909 -2.63158 4.75656 0
M  V30 323 H 29.5929 -1.01423 2.75845 0
M  V30 324 H 27.1069 -0.464911 1.55603 0
M  V30 325 H 29.1039 -3.44445 2.34869 0
M  V30 326 H 27.7639 -2.99137 1.26282 0
M  V30 327 H 28.7749 -1.93223 4.80505 0
M  V30 328 H 25.4519 -3.26867 2.59739 0
M  V30 329 H 26.8419 -1.9685 6.42417 0
M  V30 330 N 29.562 -1.4872 -0.521534 0
M  V30 331 C 30.792 -1.6061 -1.29954 0
M  V30 332 C 31.2 -0.268728 -1.87282 0
M  V30 333 O 30.543 0.753221 -1.67548 0
M  V30 334 C 30.605 -2.60013 -2.48261 0
M  V30 335 C 30.269 -4.04874 -2.11957 0
M  V30 336 C 31.266 -4.92304 -1.67132 0
M  V30 337 C 28.951 -4.5047 -2.22221 0
M  V30 338 C 30.945 -6.2336 -1.33047 0
M  V30 339 C 28.632 -5.81544 -1.87748 0
M  V30 340 C 29.63 -6.67812 -1.43234 0
M  V30 341 O 29.318 -7.96446 -1.09217 0
M  V30 342 H 29.05 -0.544116 -0.401141 0
M  V30 343 H 31.604 -1.95339 -0.634958 0
M  V30 344 H 29.834 -2.20422 -3.17728 0
M  V30 345 H 31.523 -2.61648 -3.10315 0
M  V30 346 H 32.289 -4.58312 -1.58665 0
M  V30 347 H 28.168 -3.83504 -2.55823 0
M  V30 348 H 31.712 -6.90649 -0.982299 0
M  V30 349 H 27.609 -6.15069 -1.95858 0
M  V30 350 H 28.377 -8.09275 -1.22542 0
M  V30 351 N 31.0401 0.771051 -1.3745 0
M  V30 352 C 32.2651 1.56529 -1.36065 0
M  V30 353 C 32.6901 1.88029 0.0515859 0
M  V30 354 O 32.0481 1.49282 1.02882 0
M  V30 355 C 32.0961 2.85187 -2.20683 0
M  V30 356 O 31.2001 3.79593 -1.61193 0
M  V30 357 H 30.5411 0.47411 -0.464883 0
M  V30 358 H 33.0711 0.954269 -1.80983 0
M  V30 359 H 33.0811 3.34283 -2.33921 0
M  V30 360 H 31.7561 2.61588 -3.23334 0
M  V30 361 H 30.3331 3.38239 -1.56999 0
M  V30 362 N 32.5182 1.22032 0.997298 0
M  V30 363 C 33.7642 1.04376 1.73878 0
M  V30 364 C 34.0972 -0.420716 1.89588 0
M  V30 365 O 33.3722 -1.31202 1.43583 0
M  V30 366 C 33.6552 1.75047 3.14691 0
M  V30 367 C 33.5082 3.29062 3.06656 0
M  V30 368 C 34.8272 1.49928 4.13775 0
M  V30 369 H 31.9462 0.380578 0.631133 0
M  V30 370 H 34.5882 1.50312 1.16217 0
M  V30 371 H 32.7382 1.35996 3.63919 0
M  V30 372 H 34.4102 3.7753 2.65083 0
M  V30 373 H 32.6532 3.58967 2.43568 0
M  V30 374 H 33.3242 3.73683 4.06282 0
M  V30 375 H 35.8002 1.83842 3.73285 0
M  V30 376 H 34.6762 2.01878 5.10428 0
M  V30 377 H 34.9372 0.430929 4.39995 0
M  V30 378 N 33.9963 -1.19345 1.0293 0
M  V30 379 C 34.9063 -2.26245 0.620515 0
M  V30 380 C 35.9223 -1.70486 -0.347928 0
M  V30 381 O 37.0983 -2.00347 -0.205704 0
M  V30 382 C 34.1633 -3.46693 -0.0218957 0
M  V30 383 C 33.2243 -4.17632 0.994102 0
M  V30 384 C 32.4573 -5.32329 0.382253 0
M  V30 385 O 32.6803 -5.64552 -0.814676 0
M  V30 386 O 31.6143 -5.91664 1.10531 0
M  V30 387 H 35.4403 -2.63453 1.51083 0
M  V30 388 H 33.0253 -1.26207 0.799513 0
M  V30 389 H 34.9073 -4.19683 -0.380072 0
M  V30 390 H 33.5823 -3.11333 -0.886209 0
M  V30 391 H 32.4893 -3.4676 1.40387 0
M  V30 392 H 33.8223 -4.56964 1.8288 0
M  V30 393 N 35.4744 -0.807222 -1.35358 0
M  V30 394 C 36.3844 -0.219594 -2.3357 0
M  V30 395 C 37.4004 0.637734 -1.61892 0
M  V30 396 O 38.5764 0.549336 -1.93763 0
M  V30 397 C 35.6414 0.62158 -3.41083 0
M  V30 398 C 34.7024 -0.256315 -4.28534 0
M  V30 399 C 33.9354 0.544807 -5.30912 0
M  V30 400 O 34.1584 1.77944 -5.41934 0
M  V30 401 O 33.0924 -0.0646478 -6.01865 0
M  V30 402 H 36.9184 -1.03208 -2.85625 0
M  V30 403 H 34.5034 -0.569025 -1.38139 0
M  V30 404 H 36.3854 1.10067 -4.06772 0
M  V30 405 H 35.0604 1.41165 -2.91297 0
M  V30 406 H 33.9674 -0.782559 -3.65823 0
M  V30 407 H 35.3004 -1.01034 -4.81719 0
M  V30 408 N 36.9525 1.47285 -0.560781 0
M  V30 409 C 37.9155 2.28535 0.174488 0
M  V30 410 C 38.9155 1.37153 0.839388 0
M  V30 411 O 40.1055 1.59748 0.694702 0
M  V30 412 C 37.2375 3.16934 1.25561 0
M  V30 413 H 38.4305 2.95012 -0.539262 0
M  V30 414 H 35.9835 1.53034 -0.317865 0
M  V30 415 H 36.7185 2.55157 2.00164 0
M  V30 416 H 36.5035 3.8419 0.783604 0
M  V30 417 H 37.9935 3.78143 1.77193 0
M  V30 418 N 38.4306 0.297415 1.54768 0
M  V30 419 C 39.6796 -0.313669 1.99246 0
M  V30 420 C 39.9926 -1.55281 1.18942 0
M  V30 421 O 41.1986 -2.23825 1.5367 0
M  V30 422 C 39.6546 -0.609407 3.54703 0
M  V30 423 C 39.2626 0.611192 4.43811 0
M  V30 424 C 41.0066 -1.18188 4.07715 0
M  V30 425 C 38.9136 0.288805 5.90694 0
M  V30 426 H 37.8436 -0.120979 0.744231 0
M  V30 427 H 40.4946 0.40556 1.78962 0
M  V30 428 H 38.8766 -1.38813 3.70873 0
M  V30 429 H 40.0506 1.3875 4.39414 0
M  V30 430 H 38.3656 1.10205 4.01552 0
M  V30 431 H 40.9626 -1.43727 5.15021 0
M  V30 432 H 41.3056 -2.12299 3.58099 0
M  V30 433 H 41.8386 -0.464944 3.95074 0
M  V30 434 H 38.5776 1.19838 6.44453 0
M  V30 435 H 38.0976 -0.450305 5.98107 0
M  V30 436 H 39.7766 -0.110933 6.46905 0
M  V30 437 N 39.9087 -1.5758 0.0250728 0
M  V30 438 C 40.8557 -2.09973 -0.958129 0
M  V30 439 C 41.8257 -1.00085 -1.3256 0
M  V30 440 O 43.0107 -1.27481 -1.41962 0
M  V30 441 C 40.1507 -2.62812 -2.2366 0
M  V30 442 C 39.2637 -3.86693 -1.92594 0
M  V30 443 C 38.3987 -4.27941 -3.14707 0
M  V30 444 C 37.4377 -5.44591 -2.79442 0
M  V30 445 N 36.5747 -5.81014 -3.94167 0
M  V30 446 H 41.4147 -2.937 -0.504428 0
M  V30 447 H 38.9517 -1.45172 -0.237392 0
M  V30 448 H 40.9097 -2.91536 -2.98434 0
M  V30 449 H 39.5397 -1.81922 -2.66654 0
M  V30 450 H 38.5917 -3.64723 -1.0808 0
M  V30 451 H 39.9037 -4.71547 -1.62619 0
M  V30 452 H 39.0577 -4.58079 -3.97804 0
M  V30 453 H 37.7967 -3.41845 -3.4784 0
M  V30 454 H 36.8017 -5.1415 -1.94755 0
M  V30 455 H 38.0267 -6.32382 -2.47528 0
M  V30 456 H 35.9727 -4.97874 -4.2715 0
M  V30 457 H 35.8897 -6.60498 -3.67801 0
M  V30 458 H 37.1577 -6.15756 -4.7798 0
M  V30 459 N 41.3868 0.248026 -1.55636 0
M  V30 460 C 42.3168 1.31079 -1.93237 0
M  V30 461 C 43.2978 1.50264 -0.797174 0
M  V30 462 O 44.4828 1.62891 -1.05737 0
M  V30 463 C 41.6128 2.66575 -2.22609 0
M  V30 464 C 40.5668 2.62087 -3.3837 0
M  V30 465 C 39.8928 4.01369 -3.53281 0
M  V30 466 C 41.1928 2.19171 -4.7409 0
M  V30 467 H 42.8868 0.998556 -2.82257 0
M  V30 468 H 40.4328 0.47891 -1.35803 0
M  V30 469 H 42.3858 3.41057 -2.47503 0
M  V30 470 H 41.1098 2.99432 -1.30414 0
M  V30 471 H 39.7688 1.90063 -3.13483 0
M  V30 472 H 39.4168 4.31489 -2.58508 0
M  V30 473 H 39.1168 3.99254 -4.31127 0
M  V30 474 H 40.6408 4.77552 -3.80495 0
M  V30 475 H 42.0548 2.83384 -4.98363 0
M  V30 476 H 40.4518 2.2817 -5.5503 0
M  V30 477 H 41.5218 1.14336 -4.71227 0
M  V30 478 N 42.8649 1.48995 0.513639 0
M  V30 479 C 43.8279 1.64229 1.59879 0
M  V30 480 C 44.8279 0.514696 1.5234 0
M  V30 481 O 46.0179 0.78087 1.55718 0
M  V30 482 C 43.1499 1.62783 2.99524 0
M  V30 483 H 44.3429 2.61004 1.47705 0
M  V30 484 H 41.8959 1.37837 0.736936 0
M  V30 485 H 42.6309 0.675461 3.17188 0
M  V30 486 H 42.4159 2.4466 3.06404 0
M  V30 487 H 43.9059 1.76669 3.78388 0
M  V30 488 N 44.343 -0.763751 1.37857 0
M  V30 489 C 45.29 -1.87726 1.34267 0
M  V30 490 C 46.26 -1.64807 0.206879 0
M  V30 491 O 47.445 -1.86613 0.397508 0
M  V30 492 C 44.585 -3.24896 1.16346 0
M  V30 493 C 43.698 -3.59716 2.39225 0
M  V30 494 C 42.833 -4.86137 2.14114 0
M  V30 495 C 41.872 -5.13711 3.32817 0
M  V30 496 N 41.009 -6.31323 3.07206 0
M  V30 497 H 45.849 -1.90129 2.29466 0
M  V30 498 H 43.386 -0.929433 1.14017 0
M  V30 499 H 45.344 -4.04036 1.03975 0
M  V30 500 H 43.974 -3.21847 0.247909 0
M  V30 501 H 43.026 -2.75498 2.62307 0
M  V30 502 H 44.338 -3.76027 3.27728 0
M  V30 503 H 43.492 -5.73198 1.9882 0
M  V30 504 H 42.231 -4.71945 1.22961 0
M  V30 505 H 41.236 -4.25123 3.48641 0
M  V30 506 H 42.461 -5.29807 4.24832 0
M  V30 507 H 40.407 -6.18474 2.1869 0
M  V30 508 H 40.324 -6.48087 3.89254 0
M  V30 509 H 41.592 -7.213 2.95546 0
M  V30 510 N 45.8211 -1.22559 -0.990812 0
M  V30 511 C 46.7311 -1.01394 -2.11557 0
M  V30 512 C 47.7471 0.0383962 -1.73958 0
M  V30 513 O 48.9231 -0.154787 -2.00804 0
M  V30 514 C 45.9881 -0.596569 -3.41529 0
M  V30 515 C 45.0491 -1.72276 -3.93217 0
M  V30 516 C 44.2821 -1.32521 -5.16985 0
M  V30 517 O 44.5051 -0.204909 -5.70032 0
M  V30 518 O 43.4391 -2.14247 -5.62478 0
M  V30 519 H 47.2651 -1.95633 -2.32296 0
M  V30 520 H 44.8501 -1.01172 -1.0993 0
M  V30 521 H 46.7321 -0.374263 -4.19735 0
M  V30 522 H 45.4071 0.316939 -3.22145 0
M  V30 523 H 44.3141 -1.99961 -3.16174 0
M  V30 524 H 45.6471 -2.61421 -4.17037 0
M  V30 525 N 47.2992 1.18797 -1.03562 0
M  V30 526 C 48.5272 1.92599 -0.755869 0
M  V30 527 C 48.9422 1.75886 0.686271 0
M  V30 528 O 48.2992 1.08517 1.46732 0
M  V30 529 C 48.3502 3.44159 -1.10619 0
M  V30 530 O 48.0712 3.60341 -2.4917 0
M  V30 531 C 49.5722 4.3507 -0.850214 0
M  V30 532 H 46.7922 0.611587 -0.276048 0
M  V30 533 H 49.3362 1.50742 -1.38192 0
M  V30 534 H 47.4912 3.83823 -0.525194 0
M  V30 535 H 47.9052 4.54128 -2.62427 0
M  V30 536 H 49.3792 5.39989 -1.14523 0
M  V30 537 H 49.8562 4.38673 0.215176 0
M  V30 538 H 50.4622 4.01097 -1.41426 0
M  V30 539 N 48.7773 0.814389 1.34928 0
M  V30 540 C 50.0023 0.410097 2.03305 0
M  V30 541 C 50.4273 -0.973464 1.60951 0
M  V30 542 O 49.7853 -1.63185 0.789964 0
M  V30 543 C 49.8333 0.51049 3.56968 0
M  V30 544 O 48.9373 -0.473035 4.09678 0
M  V30 545 H 48.2783 0.170088 0.641846 0
M  V30 546 H 50.8083 1.10244 1.72358 0
M  V30 547 H 50.8183 0.383135 4.06197 0
M  V30 548 H 49.4933 1.51963 3.87144 0
M  V30 549 H 48.0703 -0.305272 3.71648 0
M  V30 550 N 50.2554 -1.46986 0.568584 0
M  V30 551 C 51.5044 -2.01646 0.0465894 0
M  V30 552 C 51.8174 -1.44721 -1.31587 0
M  V30 553 O 53.0234 -1.91113 -1.92842 0
M  V30 554 C 51.4794 -3.59885 0.032752 0
M  V30 555 C 51.0874 -4.25804 1.39266 0
M  V30 556 C 52.8314 -4.22255 -0.436038 0
M  V30 557 C 50.7384 -5.76081 1.33732 0
M  V30 558 H 49.6684 -0.753876 0.013647 0
M  V30 559 H 52.3194 -1.68864 0.718131 0
M  V30 560 H 50.7014 -3.8968 -0.704669 0
M  V30 561 H 51.8754 -4.07637 2.1487 0
M  V30 562 H 50.1904 -3.7547 1.80032 0
M  V30 563 H 52.7874 -5.32394 -0.49602 0
M  V30 564 H 53.1304 -3.90212 -1.45053 0
M  V30 565 H 53.6634 -3.97033 0.246877 0
M  V30 566 H 50.4024 -6.12761 2.32817 0
M  V30 567 H 49.9224 -5.96553 0.623267 0
M  V30 568 H 51.6014 -6.38518 1.0442 0
M  V30 569 N 51.7335 -0.305618 -1.54608 0
M  V30 570 C 52.6965 0.555591 -2.22364 0
M  V30 571 C 53.6965 1.05768 -1.21119 0
M  V30 572 O 54.8865 0.952972 -1.45822 0
M  V30 573 C 52.0185 1.76974 -2.91364 0
M  V30 574 H 53.2115 -0.0364572 -2.99878 0
M  V30 575 H 50.7645 -0.0565007 -1.56198 0
M  V30 576 H 51.4995 2.40151 -2.17941 0
M  V30 577 H 51.2845 1.41732 -3.65588 0
M  V30 578 H 52.7745 2.38148 -3.43038 0
M  V30 579 N 53.2116 1.57565 -0.0334293 0
M  V30 580 C 54.1596 2.1164 0.96496 0
M  V30 581 C 55.1536 1.04398 1.33407 0
M  V30 582 O 56.3596 1.22828 1.3158 0
M  V30 583 H 52.7346 0.676222 0.32898 0
M  V30 584 H 54.7056 2.94455 0.483614 0
M  V30 585 C 53.4546 2.66207 2.23672 0
M  V30 586 H 52.7776 3.48378 1.96145 0
M  V30 587 H 54.2176 3.07685 2.9173 0
M  V30 588 C 52.6766 1.59151 2.96939 0
M  V30 589 O 53.2066 0.993858 3.89211 0
M  V30 590 N 51.4126 1.31093 2.59351 0
M  V30 591 H 50.9596 1.7988 1.84393 0
M  V30 592 H 50.9176 0.596889 3.08682 0
M  V30 593 N 54.6897 -0.239769 1.55765 0
M  V30 594 C 55.9367 -0.966801 1.7793 0
M  V30 595 C 56.2647 -1.85046 0.599015 0
M  V30 596 O 55.5197 -1.91197 -0.417395 0
M  V30 597 C 55.8187 -1.852 3.05672 0
M  V30 598 C 55.4847 -1.1231 4.36689 0
M  V30 599 C 54.1467 -0.921689 4.72291 0
M  V30 600 C 56.4987 -0.607019 5.17653 0
M  V30 601 C 53.8267 -0.191996 5.86386 0
M  V30 602 C 56.1787 0.109241 6.32506 0
M  V30 603 C 54.8427 0.322073 6.66723 0
M  V30 604 H 54.1127 -0.353778 0.651093 0
M  V30 605 H 56.7597 -0.23634 1.90036 0
M  V30 606 H 55.0647 -2.64975 2.8861 0
M  V30 607 H 56.7617 -2.41635 3.20021 0
M  V30 608 H 53.3517 -1.29004 4.08725 0
M  V30 609 H 57.5357 -0.750153 4.90598 0
M  V30 610 H 52.7917 -0.0166949 6.11398 0
M  V30 611 H 56.9657 0.516737 6.9448 0
M  V30 612 H 54.5927 0.88944 7.54979 0
M  V30 613 N 56.1678 -1.49265 -0.50573 0
M  V30 614 C 57.4448 -1.49012 -1.26707 0
M  V30 615 C 57.8248 -0.215205 -2.1 0
M  V30 616 O 57.1728 0.802547 -2.13943 0
M  V30 617 C 57.3828 -2.7663 -2.12783 0
M  V30 618 C 58.7308 -3.25932 -2.72127 0
M  V30 619 O 59.7548 -2.77715 -2.23054 0
M  V30 620 O 58.6138 -4.09897 -3.61451 0
M  V30 621 H 55.7078 -0.596197 -0.57313 0
M  V30 622 H 58.2538 -1.61524 -0.52039 0
M  V30 623 H 57.0258 -3.60916 -1.5118 0
M  V30 624 H 56.6488 -2.66956 -2.94653 0
M  V30 625 N 57.6459 0.756429 -1.3826 0
M  V30 626 C 58.6089 1.85176 -1.35065 0
M  V30 627 C 59.6089 1.58818 -0.251703 0
M  V30 628 O 60.7989 1.66615 -0.508433 0
M  V30 629 C 57.9309 3.22596 -1.10201 0
M  V30 630 H 59.1239 1.89417 -2.3251 0
M  V30 631 H 56.6769 0.95783 -1.23512 0
M  V30 632 H 57.4119 3.24025 -0.133504 0
M  V30 633 H 57.1969 3.43122 -1.89762 0
M  V30 634 H 58.6869 4.02673 -1.10654 0
M  V30 635 N 59.124 1.23083 0.984299 0
M  V30 636 C 60.349 1.088 1.76571 0
M  V30 637 C 60.774 -0.356657 1.84688 0
M  V30 638 O 60.132 -1.25788 1.30565 0
M  V30 639 C 60.18 1.71371 3.17277 0
M  V30 640 O 59.284 0.973213 4.00752 0
M  V30 641 H 58.625 0.381599 0.543395 0
M  V30 642 H 61.155 1.63057 1.23587 0
M  V30 643 H 61.165 1.76449 3.67872 0
M  V30 644 H 59.84 2.76493 3.10684 0
M  V30 645 H 58.417 0.999078 3.59267 0
M  V30 646 N 60.6021 -1.18246 1.0419 0
M  V30 647 C 61.8481 -1.88536 0.747122 0
M  V30 648 C 62.1811 -1.80223 -0.723409 0
M  V30 649 O 61.4561 -1.20337 -1.52804 0
M  V30 650 C 61.7391 -3.38968 1.21544 0
M  V30 651 C 61.5921 -3.56084 2.74816 0
M  V30 652 C 62.9111 -4.32648 0.806482 0
M  V30 653 H 60.0301 -0.684619 0.272883 0
M  V30 654 H 62.6721 -1.39113 1.29413 0
M  V30 655 H 60.8221 -3.8119 0.750081 0
M  V30 656 H 62.4941 -3.22946 3.29399 0
M  V30 657 H 60.7371 -2.98699 3.14582 0
M  V30 658 H 61.4081 -4.61639 3.02644 0
M  V30 659 H 63.8841 -3.98211 1.20695 0
M  V30 660 H 62.7601 -5.36462 1.1619 0
M  V30 661 H 63.0211 -4.41146 -0.29029 0
M  V30 662 N 62.0802 -0.821533 -1.34494 0
M  V30 663 C 62.9902 -0.244355 -2.33324 0
M  V30 664 C 64.0062 0.620527 -1.62559 0
M  V30 665 O 65.1822 0.528754 -1.94335 0
M  V30 666 C 62.2472 0.585368 -3.41723 0
M  V30 667 C 61.3082 -0.301752 -4.28238 0
M  V30 668 C 60.5412 0.488466 -5.3146 0
M  V30 669 O 60.7642 1.72186 -5.4379 0
M  V30 670 O 59.6982 -0.12848 -6.01763 0
M  V30 671 H 63.5242 -1.06231 -2.84515 0
M  V30 672 H 61.1092 -0.583645 -1.37528 0
M  V30 673 H 62.9912 1.05747 -4.07916 0
M  V30 674 H 61.6662 1.38068 -2.92778 0
M  V30 675 H 60.5732 -0.821315 -3.64973 0
M  V30 676 H 61.9062 -1.06138 -4.8062 0
M  V30 677 N 63.5583 1.46682 -0.576371 0
M  V30 678 C 64.8043 2.02712 -0.0596221 0
M  V30 679 C 65.1373 1.44765 1.29448 0
M  V30 680 O 64.4123 0.610355 1.84675 0
M  V30 681 C 64.6953 3.60098 0.0129503 0
M  V30 682 C 64.5483 4.28441 -1.3696 0
M  V30 683 C 65.8673 4.34224 0.71678 0
M  V30 684 H 62.9863 0.736637 -0.0231407 0
M  V30 685 H 65.6283 1.74898 -0.742351 0
M  V30 686 H 63.7783 3.83926 0.594378 0
M  V30 687 H 65.4503 4.15896 -1.9957 0
M  V30 688 H 63.6933 3.8805 -1.93907 0
M  V30 689 H 64.3643 5.3716 -1.27135 0
M  V30 690 H 66.8403 4.15503 0.222908 0
M  V30 691 H 65.7163 5.43936 0.73657 0
M  V30 692 H 65.9773 4.04823 1.77682 0
M  V30 693 N 65.0364 0.313813 1.54444 0
M  V30 694 C 65.9994 -0.54379 2.22656 0
M  V30 695 C 66.9994 -1.05124 1.21678 0
M  V30 696 O 68.1894 -0.945225 1.46325 0
M  V30 697 C 65.3214 -1.75427 2.92298 0
M  V30 698 H 66.5144 0.0523599 2.99854 0
M  V30 699 H 64.0674 0.0647834 1.56166 0
M  V30 700 H 64.8024 -2.38991 2.19211 0
M  V30 701 H 64.5874 -1.39791 3.66334 0
M  V30 702 H 66.0774 -2.36325 3.44297 0
M  V30 703 N 66.5145 -1.57545 0.0417849 0
M  V30 704 C 67.7615 -1.92317 -0.634082 0
M  V30 705 C 68.0895 -0.919334 -1.71402 0
M  V30 706 O 67.3445 0.0698253 -1.95575 0
M  V30 707 C 67.6435 -3.33794 -1.27735 0
M  V30 708 C 67.3095 -4.49716 -0.326543 0
M  V30 709 C 65.9715 -4.81156 -0.0648814 0
M  V30 710 C 68.3235 -5.20182 0.325623 0
M  V30 711 C 65.6515 -5.80414 0.856539 0
M  V30 712 C 68.0035 -6.20424 1.23518 0
M  V30 713 C 66.6675 -6.50298 1.5056 0
M  V30 714 H 65.9375 -0.703736 -0.232027 0
M  V30 715 H 68.5845 -1.91205 0.106259 0
M  V30 716 H 66.8895 -3.31228 -2.09274 0
M  V30 717 H 68.5865 -3.57975 -1.80707 0
M  V30 718 H 65.1765 -4.25176 -0.540665 0
M  V30 719 H 69.3605 -4.96112 0.136546 0
M  V30 720 H 64.6165 -6.019 1.07363 0
M  V30 721 H 68.7905 -6.74141 1.74664 0
M  V30 722 H 66.4175 -7.27025 2.22123 0
M  V30 723 N 67.9926 0.231505 -1.5589 0
M  V30 724 C 69.4086 0.580748 -1.48659 0
M  V30 725 C 69.6086 1.87617 -0.73498 0
M  V30 726 O 68.6646 2.51046 -0.270586 0
M  V30 727 C 69.9776 0.669202 -2.93159 0
M  V30 728 C 71.5256 0.760499 -3.03621 0
M  V30 729 C 72.0006 0.880383 -4.49459 0
M  V30 730 N 73.4916 0.944861 -4.53461 0
M  V30 731 C 74.2266 1.05716 -5.63571 0
M  V30 732 N 73.7226 1.13403 -6.83456 0
M  V30 733 N 75.5156 1.09152 -5.514 0
M  V30 734 H 67.6666 -0.618695 -2.03189 0
M  V30 735 H 69.9296 -0.215728 -0.923128 0
M  V30 736 H 69.6356 -0.212904 -3.51055 0
M  V30 737 H 69.5096 1.5361 -3.44505 0
M  V30 738 H 71.8966 1.63305 -2.45796 0
M  V30 739 H 71.9776 -0.131864 -2.5546 0
M  V30 740 H 71.6216 0.0123284 -5.07899 0
M  V30 741 H 71.5516 1.78802 -4.95316 0
M  V30 742 H 74.0426 0.896176 -3.6712 0
M  V30 743 H 74.3556 1.21921 -7.63122 0
M  V30 744 H 72.7006 1.10333 -6.86186 0
M  V30 745 H 75.8916 1.02805 -4.56671 0
M  V30 746 H 76.0646 1.17558 -6.37247 0
M  V30 747 N 69.4707 1.49531 0.497807 0
M  V30 748 C 70.4007 1.6935 1.60757 0
M  V30 749 C 71.3817 0.542218 1.61227 0
M  V30 750 O 72.5667 0.778417 1.77917 0
M  V30 751 C 69.6967 1.76298 2.99226 0
M  V30 752 C 68.6507 2.91248 3.13622 0
M  V30 753 C 67.9767 2.83312 4.53474 0
M  V30 754 C 69.2767 4.3214 2.93346 0
M  V30 755 H 70.9707 2.62263 1.44425 0
M  V30 756 H 68.5167 1.26208 0.693367 0
M  V30 757 H 70.4697 1.88749 3.76765 0
M  V30 758 H 69.1937 0.799871 3.16654 0
M  V30 759 H 67.8527 2.78404 2.38509 0
M  V30 760 H 67.5007 1.84902 4.67782 0
M  V30 761 H 67.2007 3.60465 4.64046 0
M  V30 762 H 68.7247 2.97775 5.33069 0
M  V30 763 H 70.1387 4.45649 3.60652 0
M  V30 764 H 68.5357 5.1054 3.15387 0
M  V30 765 H 69.6057 4.46363 1.89441 0
M  V30 766 N 70.9488 -0.749086 1.3866 0
M  V30 767 C 72.1968 -1.50535 1.34847 0
M  V30 768 C 72.5178 -1.94909 -0.0595016 0
M  V30 769 O 71.7878 -1.67973 -1.00806 0
M  V30 770 H 70.3678 -0.558395 0.49619 0
M  V30 771 H 73.0298 -0.890165 1.73384 0
M  V30 772 H 72.1258 -2.39413 2.00219 0
M  V30 773 N 72.4269 -1.23603 -0.977757 0
M  V30 774 C 73.6759 -1.06377 -1.71368 0
M  V30 775 C 73.9889 0.399062 -1.91486 0
M  V30 776 O 75.1949 0.691312 -2.62551 0
M  V30 777 C 73.6509 -1.85512 -3.08404 0
M  V30 778 C 73.2589 -3.36141 -2.96164 0
M  V30 779 C 75.0029 -1.76783 -3.85938 0
M  V30 780 C 72.9099 -4.07659 -4.28449 0
M  V30 781 H 71.8399 -0.394452 -0.642591 0
M  V30 782 H 74.4909 -1.47594 -1.09034 0
M  V30 783 H 72.8729 -1.37103 -3.71509 0
M  V30 784 H 74.0469 -3.92056 -2.42133 0
M  V30 785 H 72.3619 -3.45712 -2.32104 0
M  V30 786 H 74.9589 -2.27526 -4.83876 0
M  V30 787 H 75.3019 -0.731116 -4.0983 0
M  V30 788 H 75.8349 -2.22818 -3.2954 0
M  V30 789 H 72.5739 -5.11648 -4.09752 0
M  V30 790 H 72.0939 -3.5653 -4.82334 0
M  V30 791 H 73.7729 -4.141 -4.97122 0
M  V30 792 N 73.905 1.17692 -1.04816 0
M  V30 793 C 75.182 1.83768 -0.669963 0
M  V30 794 C 75.562 1.93232 0.849986 0
M  V30 795 O 74.91 1.46397 1.75443 0
M  V30 796 C 75.12 3.21641 -1.35455 0
M  V30 797 C 76.468 3.97592 -1.49017 0
M  V30 798 O 77.492 3.31107 -1.31326 0
M  V30 799 O 76.351 5.16729 -1.77914 0
M  V30 800 H 73.445 0.792799 -0.235368 0
M  V30 801 H 75.991 1.25021 -1.14751 0
M  V30 802 H 74.763 3.097 -2.39168 0
M  V30 803 H 74.386 3.88052 -0.866107 0
M  V30 804 N 75.3831 0.828654 1.34056 0
M  V30 805 C 76.6111 0.43262 2.02326 0
M  V30 806 C 77.0261 -0.963147 1.62385 0
M  V30 807 O 76.3831 -1.62425 0.832121 0
M  V30 808 C 76.4341 0.53182 3.57567 0
M  V30 809 O 76.1551 1.87258 3.96063 0
M  V30 810 C 77.6561 0.131422 4.43105 0
M  V30 811 H 74.8761 0.172923 0.648335 0
M  V30 812 H 77.4201 1.1184 1.71208 0
M  V30 813 H 75.5751 -0.105938 3.87255 0
M  V30 814 H 75.9891 1.85087 4.90758 0
M  V30 815 H 77.4631 0.251904 5.51425 0
M  V30 816 H 77.9401 -0.925645 4.29335 0
M  V30 817 H 78.5461 0.743207 4.18756 0
M  V30 818 N 76.8612 -1.46375 0.584142 0
M  V30 819 C 78.2772 -1.57694 0.245929 0
M  V30 820 C 78.4772 -1.57903 -1.25175 0
M  V30 821 O 77.5332 -1.49676 -2.03355 0
M  V30 822 C 78.8462 -2.87028 0.896402 0
M  V30 823 C 80.3942 -3.00662 0.870127 0
M  V30 824 C 80.8692 -4.32734 1.50017 0
M  V30 825 N 82.3602 -4.39436 1.46458 0
M  V30 826 C 83.0952 -5.40248 1.92144 0
M  V30 827 N 82.5912 -6.47726 2.4581 0
M  V30 828 N 84.3842 -5.31459 1.83052 0
M  V30 829 H 76.5352 -1.44483 1.55687 0
M  V30 830 H 78.7982 -0.689291 0.650831 0
M  V30 831 H 78.5042 -2.9269 1.95002 0
M  V30 832 H 78.3782 -3.75014 0.405486 0
M  V30 833 H 80.7652 -2.94581 -0.174871 0
M  V30 834 H 80.8462 -2.14148 1.39908 0
M  V30 835 H 80.4902 -4.39573 2.54437 0
M  V30 836 H 80.4202 -5.18025 0.946432 0
M  V30 837 H 82.9112 -3.62367 1.07231 0
M  V30 838 H 83.2242 -7.20863 2.78525 0
M  V30 839 H 81.5692 -6.48542 2.49836 0
M  V30 840 H 84.7602 -4.46396 1.40883 0
M  V30 841 H 84.9332 -6.09881 2.18973 0
M  V30 842 N 78.3393 -0.321999 -1.54275 0
M  V30 843 C 79.2863 0.544664 -2.24281 0
M  V30 844 C 80.2563 1.1129 -1.23303 0
M  V30 845 O 81.4413 1.15354 -1.51981 0
M  V30 846 C 78.5813 1.70045 -3.00298 0
M  V30 847 C 77.6943 1.16159 -4.1609 0
M  V30 848 C 76.8293 2.28293 -4.79641 0
M  V30 849 C 75.8683 1.71648 -5.8754 0
M  V30 850 N 75.0053 2.77438 -6.44959 0
M  V30 851 H 79.8453 -0.0588907 -2.97942 0
M  V30 852 H 77.3823 -0.0408345 -1.47043 0
M  V30 853 H 79.3403 2.38054 -3.42616 0
M  V30 854 H 77.9703 2.27531 -2.28975 0
M  V30 855 H 77.0223 0.373092 -3.78566 0
M  V30 856 H 78.3343 0.707087 -4.93763 0
M  V30 857 H 77.4883 3.0421 -5.2492 0
M  V30 858 H 76.2273 2.77079 -4.01346 0
M  V30 859 H 75.2323 0.942282 -5.41665 0
M  V30 860 H 76.4573 1.23741 -6.67731 0
M  V30 861 H 74.4033 3.25519 -5.69538 0
M  V30 862 H 74.3203 2.36547 -7.1804 0
M  V30 863 H 75.5883 3.53189 -6.94894 0
M  V30 864 N 79.8174 1.5752 -0.0501392 0
M  V30 865 C 80.7654 2.12651 0.942459 0
M  V30 866 C 81.7594 1.05807 1.32292 0
M  V30 867 O 82.9654 1.24217 1.3027 0
M  V30 868 H 79.3404 0.679673 0.321789 0
M  V30 869 H 81.3114 2.94951 0.452356 0
M  V30 870 C 80.0604 2.68565 2.20836 0
M  V30 871 H 79.3834 3.50439 1.92439 0
M  V30 872 H 80.8234 3.10761 2.8845 0
M  V30 873 C 79.2824 1.62291 2.95234 0
M  V30 874 O 79.8124 1.03508 3.88135 0
M  V30 875 N 78.0184 1.33836 2.57946 0
M  V30 876 H 77.5654 1.81826 1.82475 0
M  V30 877 H 77.5234 0.629595 3.08032 0
M  V30 878 N 81.2955 -0.223234 1.56011 0
M  V30 879 C 82.5725 -0.972108 1.69733 0
M  V30 880 C 82.9525 -2.02485 0.59691 0
M  V30 881 O 82.3005 -2.25037 -0.396324 0
M  V30 882 C 82.5105 -1.58407 3.10979 0
M  V30 883 C 83.8585 -2.07696 3.70334 0
M  V30 884 O 84.8825 -1.68304 3.1393 0
M  V30 885 O 83.7415 -2.80096 4.69264 0
M  V30 886 H 80.8355 -0.453993 0.691245 0
M  V30 887 H 83.3815 -0.215149 1.68331 0
M  V30 888 H 82.1535 -0.823831 3.82529 0
M  V30 889 H 81.7765 -2.40661 3.16493 0
M  V30 890 N 82.7736 -1.49793 -0.48987 0
M  V30 891 C 83.7056 -1.63413 -1.60713 0
M  V30 892 C 84.7186 -0.516329 -1.54395 0
M  V30 893 O 85.9076 -0.788812 -1.60125 0
M  V30 894 C 83.0076 -1.58516 -2.99543 0
M  V30 895 C 82.1806 -2.86016 -3.30928 0
M  V30 896 C 81.2396 -2.74018 -4.49222 0
M  V30 897 O 80.2656 -3.47964 -4.50455 0
M  V30 898 N 81.4676 -1.86309 -5.4979 0
M  V30 899 H 84.2326 -2.59777 -1.49452 0
M  V30 900 H 81.7936 -1.47022 -0.677955 0
M  V30 901 H 83.7856 -1.48128 -3.76617 0
M  V30 902 H 82.3556 -0.69965 -3.0467 0
M  V30 903 H 81.5756 -3.10672 -2.42645 0
M  V30 904 H 82.8636 -3.70521 -3.487 0
M  V30 905 H 82.2616 -1.2551 -5.51601 0
M  V30 906 H 80.8186 -1.81837 -6.25922 0
M  V30 907 N 84.2517 0.741722 -1.39055 0
M  V30 908 C 85.1837 1.8657 -1.33133 0
M  V30 909 C 86.1967 1.61001 -0.241329 0
M  V30 910 O 87.3857 1.7136 -0.499784 0
M  V30 911 C 84.4857 3.22457 -1.04283 0
M  V30 912 C 83.6587 3.75435 -2.24427 0
M  V30 913 C 82.7177 4.89867 -1.92138 0
M  V30 914 O 81.7437 5.03879 -2.64754 0
M  V30 915 N 82.9457 5.73738 -0.88347 0
M  V30 916 H 85.7107 1.92156 -2.29991 0
M  V30 917 H 83.2717 0.922172 -1.3307 0
M  V30 918 H 85.2637 3.9657 -0.807128 0
M  V30 919 H 83.8337 3.12181 -0.161807 0
M  V30 920 H 83.0537 2.92751 -2.6399 0
M  V30 921 H 84.3417 4.07563 -3.04581 0
M  V30 922 H 83.7397 5.64999 -0.281517 0
M  V30 923 H 82.2967 6.47947 -0.707662 0
M  V30 924 N 85.7298 1.2412 0.971189 0
M  V30 925 C 86.9788 1.07284 1.70801 0
M  V30 926 C 87.2918 -0.388902 1.91695 0
M  V30 927 O 88.4978 -0.677379 2.62914 0
M  V30 928 C 86.9538 1.87145 3.07416 0
M  V30 929 C 86.5618 3.37707 2.94377 0
M  V30 930 C 88.3058 1.78828 3.84995 0
M  V30 931 C 86.2128 4.09925 4.26281 0
M  V30 932 H 85.1428 0.397854 0.64049 0
M  V30 933 H 87.7938 1.4817 1.0825 0
M  V30 934 H 86.1758 1.39071 3.70777 0
M  V30 935 H 87.3498 3.93335 2.4005 0
M  V30 936 H 85.6648 3.46938 2.30267 0
M  V30 937 H 88.2618 2.30089 4.82662 0
M  V30 938 H 88.6048 0.75284 4.09436 0
M  V30 939 H 89.1378 2.24563 3.28354 0
M  V30 940 H 85.8768 5.13813 4.07033 0
M  V30 941 H 85.3968 3.59083 4.80437 0
M  V30 942 H 87.0758 4.1673 4.94919 0
M  V30 943 N 87.2079 -1.17134 1.05439 0
M  V30 944 C 88.6239 -1.39454 0.776201 0
M  V30 945 C 88.8239 -1.91454 -0.628307 0
M  V30 946 O 87.8799 -2.10777 -1.39031 0
M  V30 947 C 89.1929 -2.38305 1.83388 0
M  V30 948 C 90.7409 -2.52006 1.85639 0
M  V30 949 C 91.2159 -3.54133 2.90437 0
M  V30 950 N 92.7069 -3.61653 2.89415 0
M  V30 951 C 93.4419 -4.4044 3.67152 0
M  V30 952 N 92.9379 -5.22721 4.54681 0
M  V30 953 N 94.7309 -4.35337 3.55581 0
M  V30 954 H 86.8819 -0.817134 1.96053 0
M  V30 955 H 89.1449 -0.421626 0.849079 0
M  V30 956 H 88.8509 -2.07173 2.84204 0
M  V30 957 H 88.7249 -3.37841 1.67761 0
M  V30 958 H 91.1119 -2.82447 0.85486 0
M  V30 959 H 91.1929 -1.52537 2.05344 0
M  V30 960 H 90.8369 -3.24431 3.90777 0
M  V30 961 H 90.7669 -4.53313 2.67983 0
M  V30 962 H 93.2579 -3.02909 2.25952 0
M  V30 963 H 93.5709 -5.80027 5.10674 0
M  V30 964 H 91.9159 -5.22093 4.58741 0
M  V30 965 H 95.1069 -3.70112 2.86592 0
M  V30 966 H 95.2799 -4.96494 4.1641 0
M  V30 967 N 88.686 -0.835752 -1.33615 0
M  V30 968 C 89.934 -0.429109 -1.97492 0
M  V30 969 C 90.255 1.01433 -1.66543 0
M  V30 970 O 89.525 1.70611 -0.962744 0
M  V30 971 H 88.105 -0.155686 -0.730596 0
M  V30 972 H 90.767 -1.06802 -1.63031 0
M  V30 973 H 89.863 -0.55861 -3.0706 0
M  V30 974 N 90.1641 1.46063 -0.591896 0
M  V30 975 C 91.1271 2.28854 0.125973 0
M  V30 976 C 92.1271 1.38903 0.810107 0
M  V30 977 O 93.3171 1.61186 0.66066 0
M  V30 978 C 90.4491 3.19526 1.1881 0
M  V30 979 H 91.6421 2.93802 -0.601717 0
M  V30 980 H 89.1951 1.52325 -0.350254 0
M  V30 981 H 89.9301 2.59345 1.94707 0
M  V30 982 H 89.7151 3.85766 0.701936 0
M  V30 983 H 91.2051 3.81817 1.69132 0
M  V30 984 N 91.6422 0.330177 1.54103 0
M  V30 985 C 92.8882 -0.270806 2.00984 0
M  V30 986 C 93.2212 -1.51265 1.21789 0
M  V30 987 O 92.4962 -1.92142 0.301927 0
M  V30 988 C 92.7792 -0.598339 3.55094 0
M  V30 989 C 92.6322 0.654674 4.4501 0
M  V30 990 C 93.9512 -1.41334 4.16789 0
M  V30 991 H 91.0702 -0.0969531 0.730595 0
M  V30 992 H 93.7122 0.448066 1.84641 0
M  V30 993 H 91.8622 -1.21078 3.69151 0
M  V30 994 H 93.5342 1.29285 4.42813 0
M  V30 995 H 91.7772 1.28224 4.14416 0
M  V30 996 H 92.4482 0.380944 5.50684 0
M  V30 997 H 94.9242 -0.895597 4.06347 0
M  V30 998 H 93.8002 -1.61127 5.24718 0
M  V30 999 H 94.0612 -2.41146 3.70541 0
M  V30 1000 N 93.1203 -1.57491 0.0584922 0
M  V30 1001 C 94.3663 -1.93264 -0.614558 0
M  V30 1002 C 94.6993 -0.937717 -1.7006 0
M  V30 1003 O 93.9743 0.0351652 -1.94468 0
M  V30 1004 C 94.2573 -3.3938 -1.20386 0
M  V30 1005 C 94.1103 -4.49625 -0.125375 0
M  V30 1006 C 95.4293 -3.86039 -2.11334 0
M  V30 1007 H 92.5483 -0.702791 -0.221933 0
M  V30 1008 H 95.1903 -1.8961 0.12175 0
M  V30 1009 H 93.3403 -3.42626 -1.83139 0
M  V30 1010 H 95.0123 -4.58506 0.506971 0
M  V30 1011 H 93.2553 -4.30354 0.545672 0
M  V30 1012 H 93.9263 -5.48967 -0.577861 0
M  V30 1013 H 96.4023 -3.84716 -1.58534 0
M  V30 1014 H 95.2783 -4.88914 -2.49507 0
M  V30 1015 H 95.5393 -3.23215 -3.01636 0
M  V30 1016 N 94.5984 0.214957 -1.56127 0
M  V30 1017 C 95.5284 1.2695 -1.95974 0
M  V30 1018 C 96.5094 1.48539 -0.828868 0
M  V30 1019 O 97.6944 1.60611 -1.09168 0
M  V30 1020 C 94.8244 2.61794 -2.28214 0
M  V30 1021 C 93.7784 2.54851 -3.43853 0
M  V30 1022 C 93.1044 3.93785 -3.61715 0
M  V30 1023 C 94.4044 2.09065 -4.78632 0
M  V30 1024 H 96.0984 0.93846 -2.84312 0
M  V30 1025 H 93.6444 0.449996 -1.36788 0
M  V30 1026 H 95.5974 3.35731 -2.54682 0
M  V30 1027 H 94.3214 2.96599 -1.36736 0
M  V30 1028 H 92.9804 1.8337 -3.17444 0
M  V30 1029 H 92.6284 4.25908 -2.67602 0
M  V30 1030 H 92.3284 3.90019 -4.39498 0
M  V30 1031 H 93.8524 4.69374 -3.90539 0
M  V30 1032 H 95.2664 2.7275 -5.04262 0
M  V30 1033 H 93.6634 2.16346 -5.59745 0
M  V30 1034 H 94.7334 1.04315 -4.73547 0
M  V30 1035 N 96.0765 1.50051 0.48192 0
M  V30 1036 C 97.4875 1.5348 1.06305 0
M  V30 1037 C 97.8385 0.331997 1.93371 0
M  V30 1038 O 96.9635 -0.556256 2.09129 0
M  V30 1039 C 97.5585 2.7813 1.93466 0
M  V30 1040 C 96.1175 2.84275 2.46707 0
M  V30 1041 C 95.2645 2.47637 1.24785 0
M  V30 1042 H 98.2155 1.56472 0.264995 0
M  V30 1043 H 98.2365 2.59372 2.78399 0
M  V30 1044 H 97.7485 3.65654 1.30072 0
M  V30 1045 H 95.8495 2.01077 3.13686 0
M  V30 1046 H 95.9625 3.8691 2.82555 0
M  V30 1047 H 94.3265 1.99835 1.57918 0
M  V30 1048 H 95.1095 3.37457 0.630694 0
M  V30 1049 N 97.5546 -0.734337 1.39446 0
M  V30 1050 C 98.5026 -1.86971 1.38364 0
M  V30 1051 C 99.4966 -1.67288 0.266687 0
M  V30 1052 O 100.703 -1.74621 0.436755 0
M  V30 1053 H 97.0776 -0.615474 0.432082 0
M  V30 1054 H 99.0486 -1.85 2.34132 0
M  V30 1055 C 97.7976 -3.2466 1.24465 0
M  V30 1056 H 97.1206 -3.40402 2.09682 0
M  V30 1057 H 98.5606 -4.04292 1.27764 0
M  V30 1058 C 97.0196 -3.36867 -0.0468674 0
M  V30 1059 O 97.5496 -3.88618 -1.01681 0
M  V30 1060 N 95.7556 -2.90391 -0.110145 0
M  V30 1061 H 95.3026 -2.48466 0.679868 0
M  V30 1062 H 95.2606 -2.98939 -0.973799 0
M  V30 1063 N 99.0327 -1.24633 -0.964593 0
M  V30 1064 C 100.281 -1.08573 -1.70459 0
M  V30 1065 C 100.602 0.375655 -1.91347 0
M  V30 1066 O 99.8717 1.26779 -1.49345 0
M  V30 1067 H 98.4517 -0.398784 -0.631649 0
M  V30 1068 H 101.114 -1.56601 -1.16026 0
M  V30 1069 H 100.21 -1.58623 -2.68785 0
M  V30 1070 N 100.511 1.16574 -1.06058 0
M  V30 1071 C 101.739 1.90952 -0.796552 0
M  V30 1072 C 102.154 1.77302 0.648808 0
M  V30 1073 O 101.511 1.11605 1.44397 0
M  V30 1074 C 101.562 3.41736 -1.17894 0
M  V30 1075 O 101.283 3.54975 -2.56758 0
M  V30 1076 C 102.784 4.33169 -0.942308 0
M  V30 1077 H 100.004 0.605594 -0.288959 0
M  V30 1078 H 102.548 1.47777 -1.41358 0
M  V30 1079 H 100.703 3.82623 -0.606491 0
M  V30 1080 H 101.117 4.4846 -2.72 0
M  V30 1081 H 102.591 5.37439 -1.25952 0
M  V30 1082 H 103.068 4.3903 0.122078 0
M  V30 1083 H 103.674 3.98007 -1.49902 0
M  V30 1084 N 101.989 0.842826 1.3317 0
M  V30 1085 C 103.237 0.439577 1.97262 0
M  V30 1086 C 103.558 -1.00548 1.67078 0
M  V30 1087 O 102.828 -1.70098 0.971779 0
M  V30 1088 H 101.408 0.159558 0.72976 0
M  V30 1089 H 104.07 1.07665 1.62463 0
M  V30 1090 H 103.166 0.574886 3.0676 0
M  V30 1091 N 103.467 -1.45747 0.599634 0
M  V30 1092 C 104.414 -2.30467 -0.123849 0
M  V30 1093 C 105.384 -1.41632 -0.86774 0
M  V30 1094 O 106.569 -1.70568 -0.855056 0
M  V30 1095 C 103.709 -3.26402 -1.12051 0
M  V30 1096 C 102.822 -4.3034 -0.37832 0
M  V30 1097 C 101.957 -5.13389 -1.364 0
M  V30 1098 C 100.996 -6.09061 -0.609171 0
M  V30 1099 N 100.133 -6.84918 -1.54374 0
M  V30 1100 H 104.973 -2.91802 0.604627 0
M  V30 1101 H 102.51 -1.43797 0.309972 0
M  V30 1102 H 104.468 -3.80482 -1.7114 0
M  V30 1103 H 103.098 -2.66839 -1.8165 0
M  V30 1104 H 102.15 -3.78984 0.327929 0
M  V30 1105 H 103.462 -4.98354 0.210997 0
M  V30 1106 H 102.616 -5.7183 -2.02719 0
M  V30 1107 H 101.355 -4.45376 -1.98725 0
M  V30 1108 H 100.36 -5.49758 0.0676979 0
M  V30 1109 H 101.585 -6.79099 0.00891991 0
M  V30 1110 H 99.531 -6.19601 -2.15478 0
M  V30 1111 H 99.448 -7.49254 -1.00766 0
M  V30 1112 H 100.716 -7.47906 -2.19676 0
M  V30 1113 N 104.945 -0.338344 -1.53925 0
M  V30 1114 C 106.17 0.263987 -2.05713 0
M  V30 1115 C 106.595 1.43847 -1.21201 0
M  V30 1116 O 105.953 1.79904 -0.224535 0
M  V30 1117 C 106.001 0.662 -3.54471 0
M  V30 1118 O 105.105 1.76265 -3.72833 0
M  V30 1119 H 104.446 0.0448722 -0.662482 0
M  V30 1120 H 106.976 -0.491048 -1.9862 0
M  V30 1121 H 106.986 0.940594 -3.9701 0
M  V30 1122 H 105.661 -0.196937 -4.15433 0
M  V30 1123 H 104.238 1.48173 -3.42198 0
M  V30 1124 N 106.423 1.57458 -0.0668435 0
M  V30 1125 C 107.355 2.09413 0.931601 0
M  V30 1126 C 108.368 1.02522 1.26464 0
M  V30 1127 O 109.557 1.30049 1.22269 0
M  V30 1128 C 106.657 2.53537 2.24882 0
M  V30 1129 C 105.83 3.83944 2.09537 0
M  V30 1130 C 104.889 4.14214 3.2452 0
M  V30 1131 O 103.915 4.83891 2.9973 0
M  V30 1132 N 105.117 3.67367 4.49469 0
M  V30 1133 H 107.882 2.95699 0.488048 0
M  V30 1134 H 105.443 1.61462 0.119009 0
M  V30 1135 H 107.435 2.70853 3.00701 0
M  V30 1136 H 106.005 1.72415 2.60753 0
M  V30 1137 H 105.225 3.76057 1.18215 0
M  V30 1138 H 106.513 4.69312 1.96529 0
M  V30 1139 H 105.911 3.11068 4.72497 0
M  V30 1140 H 104.468 3.89891 5.2233 0
M  V30 1141 N 107.901 -0.206675 1.56239 0
M  V30 1142 C 109.126 -0.949474 1.8439 0
M  V30 1143 C 109.551 -1.76549 0.649016 0
M  V30 1144 O 108.909 -1.76782 -0.402231 0
M  V30 1145 C 108.957 -1.83078 3.10668 0
M  V30 1146 O 108.061 -2.9281 2.90407 0
M  V30 1147 H 107.402 -0.268033 0.607499 0
M  V30 1148 H 109.932 -0.215488 2.03462 0
M  V30 1149 H 109.942 -2.2377 3.41161 0
M  V30 1150 H 108.617 -1.23112 3.97261 0
M  V30 1151 H 107.194 -2.55956 2.71184 0
M  V30 1152 N 109.379 -1.50304 -0.473955 0
M  V30 1153 C 110.625 -1.61389 -1.22806 0
M  V30 1154 C 110.958 -0.311955 -1.91678 0
M  V30 1155 O 110.233 0.686384 -1.81986 0
M  V30 1156 C 110.516 -2.79219 -2.27396 0
M  V30 1157 C 110.369 -4.19286 -1.62848 0
M  V30 1158 C 111.688 -2.92614 -3.28732 0
M  V30 1159 H 108.807 -0.587399 -0.445119 0
M  V30 1160 H 111.449 -1.82681 -0.522265 0
M  V30 1161 H 109.599 -2.61195 -2.87592 0
M  V30 1162 H 111.271 -4.48892 -1.06271 0
M  V30 1163 H 109.514 -4.23677 -0.931693 0
M  V30 1164 H 110.185 -4.97655 -2.38838 0
M  V30 1165 H 112.661 -3.09105 -2.78556 0
M  V30 1166 H 111.537 -3.76688 -3.99246 0
M  V30 1167 H 111.798 -2.03107 -3.92683 0
M  V30 1168 N 110.857 0.726932 -1.39834 0
M  V30 1169 C 111.787 1.85405 -1.41941 0
M  V30 1170 C 112.768 1.67751 -0.281728 0
M  V30 1171 O 113.953 1.8795 -0.488717 0
M  V30 1172 C 111.083 3.23243 -1.2701 0
M  V30 1173 C 110.037 3.55549 -2.38262 0
M  V30 1174 C 109.363 4.9241 -2.08415 0
M  V30 1175 C 110.663 3.577 -3.80589 0
M  V30 1176 H 112.357 1.83899 -2.36266 0
M  V30 1177 H 109.903 0.883349 -1.13723 0
M  V30 1178 H 111.856 4.01775 -1.27103 0
M  V30 1179 H 110.58 3.25296 -0.291564 0
M  V30 1180 H 109.239 2.79351 -2.37399 0
M  V30 1181 H 108.887 4.91052 -1.0898 0
M  V30 1182 H 108.587 5.14992 -2.82943 0
M  V30 1183 H 110.111 5.73289 -2.10171 0
M  V30 1184 H 111.525 4.26293 -3.83337 0
M  V30 1185 H 109.922 3.91804 -4.54543 0
M  V30 1186 H 110.992 2.57328 -4.10987 0
M  V30 1187 N 112.336 1.25143 0.95797 0
M  V30 1188 C 113.582 1.09855 1.70469 0
M  V30 1189 C 113.915 -0.360187 1.90831 0
M  V30 1190 O 113.19 -1.26568 1.47685 0
M  V30 1191 C 113.473 1.8497 3.08963 0
M  V30 1192 C 113.326 3.38652 2.96032 0
M  V30 1193 C 114.645 1.63016 4.08795 0
M  V30 1194 H 111.764 0.400465 0.618706 0
M  V30 1195 H 114.406 1.53933 1.11376 0
M  V30 1196 H 112.556 1.47505 3.59409 0
M  V30 1197 H 114.228 3.85772 2.52938 0
M  V30 1198 H 112.471 3.66534 2.32025 0
M  V30 1199 H 113.142 3.8642 3.94187 0
M  V30 1200 H 115.618 1.95625 3.67247 0
M  V30 1201 H 114.494 2.18015 5.03747 0
M  V30 1202 H 114.755 0.570692 4.38401 0
M  V30 1203 N 113.814 -1.1601 1.06675 0
M  V30 1204 C 115.061 -1.86633 0.785781 0
M  V30 1205 C 115.389 -1.81929 -0.687896 0
M  V30 1206 O 114.644 -1.23253 -1.52011 0
M  V30 1207 C 114.943 -3.35547 1.23057 0
M  V30 1208 C 114.609 -3.60448 2.70902 0
M  V30 1209 C 113.271 -3.66954 3.11285 0
M  V30 1210 C 115.623 -3.7071 3.66365 0
M  V30 1211 C 112.951 -3.81225 4.45965 0
M  V30 1212 C 115.303 -3.86503 5.00797 0
M  V30 1213 C 113.967 -3.91252 5.40813 0
M  V30 1214 H 113.237 -0.682937 0.287538 0
M  V30 1215 H 115.884 -1.37146 1.33654 0
M  V30 1216 H 114.189 -3.87193 0.59907 0
M  V30 1217 H 115.886 -3.88583 0.990163 0
M  V30 1218 H 112.476 -3.56021 2.38636 0
M  V30 1219 H 116.66 -3.64991 3.36296 0
M  V30 1220 H 111.916 -3.83155 4.76447 0
M  V30 1221 H 116.09 -3.93385 5.74649 0
M  V30 1222 H 113.717 -4.02062 6.45174 0
M  V30 1223 N 115.292 -0.849877 -1.32721 0
M  V30 1224 C 116.255 -0.296122 -2.27279 0
M  V30 1225 C 117.255 0.541458 -1.5141 0
M  V30 1226 O 118.445 0.353658 -1.70572 0
M  V30 1227 C 115.577 0.581579 -3.35902 0
M  V30 1228 H 116.77 -1.13064 -2.77771 0
M  V30 1229 H 114.323 -0.62383 -1.43311 0
M  V30 1230 H 115.058 1.43809 -2.9067 0
M  V30 1231 H 114.843 -0.0178814 -3.92096 0
M  V30 1232 H 116.333 0.961951 -4.0637 0
M  V30 1233 N 116.77 1.45427 -0.607355 0
M  V30 1234 C 117.717 2.3053 0.111625 0
M  V30 1235 C 118.687 1.4209 0.860216 0
M  V30 1236 O 119.872 1.71019 0.845998 0
M  V30 1237 C 117.012 3.26992 1.10319 0
M  V30 1238 C 116.125 4.30535 0.355493 0
M  V30 1239 C 115.26 5.14105 1.33676 0
M  V30 1240 C 114.299 6.09376 0.576862 0
M  V30 1241 N 113.436 6.85727 1.5074 0
M  V30 1242 H 118.276 2.91477 -0.620093 0
M  V30 1243 H 115.813 1.43631 -0.317594 0
M  V30 1244 H 117.771 3.81385 1.6912 0
M  V30 1245 H 116.401 2.67799 1.80232 0
M  V30 1246 H 115.453 3.78805 -0.348023 0
M  V30 1247 H 116.765 4.98235 -0.237423 0
M  V30 1248 H 115.919 5.72897 1.99684 0
M  V30 1249 H 114.658 4.46423 1.9636 0
M  V30 1250 H 113.663 5.49715 -0.0968519 0
M  V30 1251 H 114.888 6.79085 -0.0449341 0
M  V30 1252 H 112.834 6.20735 2.12189 0
M  V30 1253 H 112.751 7.49778 0.967913 0
M  V30 1254 H 114.019 7.4906 2.15706 0
M  V30 1255 N 118.248 0.346503 1.53744 0
M  V30 1256 C 119.496 -0.248612 2.00565 0
M  V30 1257 C 119.817 -1.5083 1.23593 0
M  V30 1258 O 119.087 -1.92858 0.343912 0
M  V30 1259 H 117.667 -0.0948564 0.740953 0
M  V30 1260 H 120.329 0.468341 1.89189 0
M  V30 1261 H 119.425 -0.488994 3.08245 0
M  V30 1262 N 119.726 -1.57421 0.075193 0
M  V30 1263 C 121.003 -1.85029 -0.634329 0
M  V30 1264 C 121.383 -0.968305 -1.87582 0
M  V30 1265 O 120.731 -0.0354749 -2.28472 0
M  V30 1266 C 120.941 -3.35286 -0.968742 0
M  V30 1267 C 122.289 -4.02875 -1.34077 0
M  V30 1268 O 123.313 -3.40051 -1.06037 0
M  V30 1269 O 122.172 -5.13691 -1.86506 0
M  V30 1270 H 119.266 -0.7645 -0.315387 0
M  V30 1271 H 121.812 -1.69366 0.106382 0
M  V30 1272 H 120.584 -3.91203 -0.0871376 0
M  V30 1273 H 120.207 -3.56223 -1.7661 0
M  V30 1274 N 121.204 0.198386 -1.56346 0
M  V30 1275 C 122.151 1.24589 -1.94284 0
M  V30 1276 C 123.121 1.454 -0.802997 0
M  V30 1277 O 124.306 1.58588 -1.06087 0
M  V30 1278 C 121.446 2.58631 -2.28482 0
M  V30 1279 C 120.559 2.45426 -3.55514 0
M  V30 1280 C 119.694 3.7215 -3.79049 0
M  V30 1281 C 118.733 3.53763 -4.99518 0
M  V30 1282 N 117.87 4.72491 -5.19323 0
M  V30 1283 H 122.71 0.915356 -2.83593 0
M  V30 1284 H 120.247 0.440629 -1.40346 0
M  V30 1285 H 122.205 3.3672 -2.46324 0
M  V30 1286 H 120.835 2.89734 -1.42317 0
M  V30 1287 H 119.887 1.58652 -3.45737 0
M  V30 1288 H 121.199 2.27772 -4.43758 0
M  V30 1289 H 120.353 4.58679 -3.97113 0
M  V30 1290 H 119.092 3.92754 -2.89129 0
M  V30 1291 H 118.097 2.65619 -4.8138 0
M  V30 1292 H 119.322 3.34607 -5.90944 0
M  V30 1293 H 117.268 4.93365 -4.3235 0
M  V30 1294 H 117.185 4.5765 -6.01741 0
M  V30 1295 H 118.453 5.6038 -5.41843 0
M  V30 1296 N 122.682 1.50554 0.465978 0
M  V30 1297 C 123.931 1.61038 1.21448 0
M  V30 1298 C 124.244 0.31865 1.92987 0
M  V30 1299 O 125.45 0.302469 2.6981 0
M  V30 1300 C 123.906 2.84283 2.20706 0
M  V30 1301 C 123.514 4.20352 1.54946 0
M  V30 1302 C 125.258 3.04115 2.96166 0
M  V30 1303 C 123.165 5.34778 2.5252 0
M  V30 1304 H 122.095 0.599718 0.457005 0
M  V30 1305 H 124.746 1.7699 0.484424 0
M  V30 1306 H 123.128 2.61901 2.97025 0
M  V30 1307 H 124.302 4.53008 0.843811 0
M  V30 1308 H 122.617 4.06167 0.917475 0
M  V30 1309 H 125.214 3.86774 3.69202 0
M  V30 1310 H 125.557 2.16045 3.55852 0
M  V30 1311 H 126.09 3.26702 2.26959 0
M  V30 1312 H 122.829 6.25018 1.97566 0
M  V30 1313 H 122.349 5.06534 3.21222 0
M  V30 1314 H 124.028 5.65561 3.14245 0
M  V30 1315 N 124.16 -0.719506 1.40217 0
M  V30 1316 C 125.123 -1.8153 1.39927 0
M  V30 1317 C 126.123 -1.58095 0.293723 0
M  V30 1318 O 127.313 -1.65209 0.552429 0
M  V30 1319 C 124.445 -3.19561 1.18716 0
M  V30 1320 H 125.638 -1.83186 2.37451 0
M  V30 1321 H 123.191 -0.924746 1.26008 0
M  V30 1322 H 123.926 -3.23557 0.219366 0
M  V30 1323 H 123.711 -3.3797 1.98793 0
M  V30 1324 H 125.201 -3.99598 1.21291 0
M  V30 1325 N 125.638 -1.25649 -0.95132 0
M  V30 1326 C 126.548 -1.08073 -2.08224 0
M  V30 1327 C 127.564 -0.0169666 -1.73992 0
M  V30 1328 O 128.74 -0.218593 -2.0021 0
M  V30 1329 C 125.805 -0.704922 -3.39458 0
M  V30 1330 C 124.866 -1.84699 -3.87537 0
M  V30 1331 C 124.099 -1.48902 -5.12508 0
M  V30 1332 O 124.322 -0.386156 -5.69091 0
M  V30 1333 O 123.256 -2.32033 -5.55378 0
M  V30 1334 H 127.082 -2.02924 -2.25954 0
M  V30 1335 H 124.667 -1.04618 -1.06656 0
M  V30 1336 H 126.549 -0.507609 -4.18332 0
M  V30 1337 H 125.224 0.214291 -3.2299 0
M  V30 1338 H 124.131 -2.09919 -3.09653 0
M  V30 1339 H 125.464 -2.74557 -4.08509 0
M  V30 1340 N 127.117 1.15442 -1.07289 0
M  V30 1341 C 128.08 2.18358 -0.696591 0
M  V30 1342 C 129.08 1.58637 0.262837 0
M  V30 1343 O 130.27 1.74145 0.0438809 0
M  V30 1344 C 127.402 3.4089 -0.0266151 0
M  V30 1345 H 128.595 2.53162 -1.60776 0
M  V30 1346 H 126.148 1.29893 -0.869342 0
M  V30 1347 H 126.883 3.11653 0.896822 0
M  V30 1348 H 126.668 3.85495 -0.716657 0
M  V30 1349 H 128.158 4.17009 0.222028 0
M  V30 1350 N 128.595 0.856903 1.32268 0
M  V30 1351 C 129.505 0.306131 2.32594 0
M  V30 1352 C 130.521 -0.577209 1.64147 0
M  V30 1353 O 131.697 -0.477043 1.95669 0
M  V30 1354 C 128.762 -0.494561 3.43154 0
M  V30 1355 C 127.823 0.415186 4.27288 0
M  V30 1356 C 127.056 -0.347387 5.32568 0
M  V30 1357 O 127.279 -1.57708 5.48165 0
M  V30 1358 O 126.213 0.287982 6.01211 0
M  V30 1359 H 130.039 1.13737 2.81598 0
M  V30 1360 H 127.624 0.619902 1.35932 0
M  V30 1361 H 129.506 -0.948944 4.10576 0
M  V30 1362 H 128.181 -1.30257 2.96336 0
M  V30 1363 H 127.088 0.917793 3.62667 0
M  V30 1364 H 128.421 1.18844 4.77637 0
M  V30 1365 N 130.073 -1.45103 0.615059 0
M  V30 1366 C 131.036 -2.29025 -0.0895485 0
M  V30 1367 C 132.036 -1.40174 -0.787906 0
M  V30 1368 O 133.226 -1.62217 -0.634933 0
M  V30 1369 C 130.358 -3.21376 -1.13711 0
M  V30 1370 H 131.551 -2.92807 0.648382 0
M  V30 1371 H 129.104 -1.51749 0.374444 0
M  V30 1372 H 129.839 -2.6241 -1.90556 0
M  V30 1373 H 129.624 -3.86834 -0.640475 0
M  V30 1374 H 131.114 -3.84459 -1.63036 0
M  V30 1375 N 131.551 -0.354651 -1.53558 0
M  V30 1376 C 132.514 0.484566 -2.24019 0
M  V30 1377 C 133.514 1.01861 -1.24422 0
M  V30 1378 O 134.704 0.906097 -1.4878 0
M  V30 1379 C 131.836 1.67615 -2.96847 0
M  V30 1380 H 133.029 -0.131843 -2.9961 0
M  V30 1381 H 130.582 -0.106165 -1.55939 0
M  V30 1382 H 131.317 2.33095 -2.25471 0
M  V30 1383 H 131.102 1.30029 -3.69912 0
M  V30 1384 H 132.592 2.27114 -3.50441 0
M  V30 1385 N 133.029 1.57378 -0.0835403 0
M  V30 1386 C 134.277 1.93547 0.581718 0
M  V30 1387 C 134.598 0.96524 1.69435 0
M  V30 1388 O 133.868 0.0153369 1.95894 0
M  V30 1389 H 132.448 0.714521 0.217874 0
M  V30 1390 H 135.11 1.94366 -0.144158 0
M  V30 1391 H 134.206 2.95665 0.999423 0
M  V30 1392 N 134.507 -0.190092 1.56449 0
M  V30 1393 C 135.47 -1.21925 1.9408 0
M  V30 1394 C 136.47 -1.38176 0.822431 0
M  V30 1395 O 137.66 -1.35903 1.08977 0
M  V30 1396 C 134.792 -2.58773 2.21922 0
M  V30 1397 H 135.985 -0.897464 2.86157 0
M  V30 1398 H 133.538 -0.43181 1.50217 0
M  V30 1399 H 134.273 -2.95998 1.32499 0
M  V30 1400 H 134.058 -2.48348 3.03424 0
M  V30 1401 H 135.548 -3.32978 2.52022 0
M  V30 1402 N 135.985 -1.50799 -0.457987 0
M  V30 1403 C 137.262 -1.52968 -1.21902 0
M  V30 1404 C 137.642 -0.281906 -2.09209 0
M  V30 1405 O 136.99 0.734076 -2.16388 0
M  V30 1406 C 137.2 -2.8326 -2.03875 0
M  V30 1407 C 138.548 -3.34425 -2.6162 0
M  V30 1408 O 139.572 -2.8467 -2.14106 0
M  V30 1409 O 138.431 -4.21188 -3.48228 0
M  V30 1410 H 135.525 -0.614129 -0.553873 0
M  V30 1411 H 138.071 -1.63098 -0.468739 0
M  V30 1412 H 136.843 -3.65543 -1.39621 0
M  V30 1413 H 136.466 -2.76195 -2.8601 0
M  V30 1414 N 137.463 0.71206 -1.40597 0
M  V30 1415 C 138.693 1.49894 -1.42181 0
M  V30 1416 C 139.101 1.89189 -0.0208078 0
M  V30 1417 O 138.444 1.56223 0.966436 0
M  V30 1418 C 138.506 2.80215 -2.25211 0
M  V30 1419 C 138.17 2.63221 -3.73582 0
M  V30 1420 C 139.167 2.30249 -4.66135 0
M  V30 1421 C 136.852 2.79376 -4.17438 0
M  V30 1422 C 138.846 2.13645 -6.00529 0
M  V30 1423 C 136.533 2.6239 -5.51901 0
M  V30 1424 C 137.531 2.29573 -6.43262 0
M  V30 1425 O 137.219 2.12719 -7.75246 0
M  V30 1426 H 136.951 0.469031 -0.486812 0
M  V30 1427 H 139.505 0.88564 -1.85326 0
M  V30 1428 H 137.735 3.4389 -1.76852 0
M  V30 1429 H 139.424 3.41947 -2.18694 0
M  V30 1430 H 140.19 2.17398 -4.33547 0
M  V30 1431 H 136.069 3.03906 -3.46644 0
M  V30 1432 H 139.613 1.87953 -6.71803 0
M  V30 1433 H 135.51 2.74826 -5.84073 0
M  V30 1434 H 136.278 2.27611 -7.86216 0
M  V30 1435 N 138.941 1.26152 0.944643 0
M  V30 1436 C 140.187 1.11657 1.69294 0
M  V30 1437 C 140.52 -0.339926 1.91202 0
M  V30 1438 O 139.795 -1.24994 1.49019 0
M  V30 1439 C 140.078 1.88236 3.06984 0
M  V30 1440 C 139.931 3.41772 2.92424 0
M  V30 1441 C 141.25 1.67343 4.07043 0
M  V30 1442 H 138.369 0.407004 0.614424 0
M  V30 1443 H 141.011 1.55106 1.09737 0
M  V30 1444 H 139.161 1.51308 3.57824 0
M  V30 1445 H 140.833 3.88433 2.48832 0
M  V30 1446 H 139.076 3.68974 2.28124 0
M  V30 1447 H 139.747 3.90579 3.90067 0
M  V30 1448 H 142.223 1.99509 3.65151 0
M  V30 1449 H 141.099 2.23346 5.01406 0
M  V30 1450 H 141.36 0.617158 4.37771 0
M  V30 1451 N 140.419 -1.14872 1.07899 0
M  V30 1452 C 141.667 -1.85422 0.803941 0
M  V30 1453 C 141.988 -1.83051 -0.67211 0
M  V30 1454 O 141.258 -1.27532 -1.48703 0
M  V30 1455 H 139.838 -0.686537 0.294408 0
M  V30 1456 H 142.5 -1.39226 1.3639 0
M  V30 1457 H 141.596 -2.90399 1.14346 0
M  V30 1458 N 141.898 -0.863906 -1.31812 0
M  V30 1459 C 142.808 -0.318461 -2.32428 0
M  V30 1460 C 143.824 0.568496 -1.64451 0
M  V30 1461 O 145 0.46666 -1.95919 0
M  V30 1462 C 142.065 0.476355 -3.43412 0
M  V30 1463 C 141.126 -0.43784 -4.27061 0
M  V30 1464 C 140.359 0.319138 -5.32745 0
M  V30 1465 O 140.582 1.54799 -5.48993 0
M  V30 1466 O 139.516 -0.319861 -6.01049 0
M  V30 1467 H 143.342 -1.15229 -2.80991 0
M  V30 1468 H 140.927 -0.627103 -1.35602 0
M  V30 1469 H 142.809 0.927156 -4.11074 0
M  V30 1470 H 141.484 1.28683 -2.97022 0
M  V30 1471 H 140.391 -0.937013 -3.62175 0
M  V30 1472 H 141.724 -1.21375 -4.77 0
M  V30 1473 N 143.376 1.44774 -0.622745 0
M  V30 1474 C 144.339 2.29069 0.0774015 0
M  V30 1475 C 145.339 1.4059 0.780461 0
M  V30 1476 O 146.529 1.62551 0.626322 0
M  V30 1477 C 143.661 3.21974 1.12006 0
M  V30 1478 H 144.854 2.92459 -0.663901 0
M  V30 1479 H 142.407 1.51548 -0.382486 0
M  V30 1480 H 143.142 2.63417 1.89162 0
M  V30 1481 H 142.927 3.87168 0.619951 0
M  V30 1482 H 144.417 3.85318 1.60995 0
M  V30 1483 N 144.854 0.36279 1.53368 0
M  V30 1484 C 145.764 -0.492994 2.29362 0
M  V30 1485 C 146.78 -1.09507 1.35219 0
M  V30 1486 O 147.956 -1.10662 1.68273 0
M  V30 1487 C 145.021 -1.61855 3.066 0
M  V30 1488 C 144.082 -1.04429 4.16405 0
M  V30 1489 C 143.315 -2.11621 4.89951 0
M  V30 1490 O 143.538 -3.32684 4.63333 0
M  V30 1491 O 142.472 -1.74835 5.75948 0
M  V30 1492 H 146.298 0.125331 3.03441 0
M  V30 1493 H 143.883 0.127253 1.48857 0
M  V30 1494 H 145.765 -2.27302 3.54841 0
M  V30 1495 H 144.44 -2.22233 2.3536 0
M  V30 1496 H 143.347 -0.353819 3.72423 0
M  V30 1497 H 144.68 -0.485113 4.89804 0
M  V30 1498 N 146.332 -1.57332 0.0918853 0
M  V30 1499 C 147.562 -1.98286 -0.580205 0
M  V30 1500 C 147.97 -0.969713 -1.6246 0
M  V30 1501 O 147.313 0.0493501 -1.83634 0
M  V30 1502 C 147.375 -3.35603 -1.28882 0
M  V30 1503 C 147.039 -4.55285 -0.395559 0
M  V30 1504 C 148.036 -5.18687 0.355002 0
M  V30 1505 C 145.721 -5.01314 -0.314556 0
M  V30 1506 C 147.715 -6.26484 1.17458 0
M  V30 1507 C 145.402 -6.08979 0.508677 0
M  V30 1508 C 146.4 -6.71429 1.2519 0
M  V30 1509 O 146.088 -7.77018 2.06151 0
M  V30 1510 H 145.82 -0.656678 -0.160466 0
M  V30 1511 H 148.374 -2.04721 0.16688 0
M  V30 1512 H 146.604 -3.25842 -2.08241 0
M  V30 1513 H 148.293 -3.61026 -1.85512 0
M  V30 1514 H 149.059 -4.84058 0.302134 0
M  V30 1515 H 144.938 -4.5247 -0.882697 0
M  V30 1516 H 148.482 -6.75159 1.75518 0
M  V30 1517 H 144.379 -6.4304 0.563037 0
M  V30 1518 H 145.147 -7.93991 1.98799 0
M  V30 1519 N 147.81 0.181792 -1.56548 0
M  V30 1520 C 149.056 0.901431 -1.81665 0
M  V30 1521 C 149.389 1.82347 -0.668075 0
M  V30 1522 O 148.664 1.91669 0.330615 0
M  V30 1523 C 148.947 1.70618 -3.17115 0
M  V30 1524 C 148.8 0.807964 -4.42484 0
M  V30 1525 C 150.119 2.67605 -3.49393 0
M  V30 1526 H 147.238 0.32627 -0.660846 0
M  V30 1527 H 149.88 0.168134 -1.89255 0
M  V30 1528 H 148.03 2.33133 -3.10775 0
M  V30 1529 H 149.702 0.19649 -4.60881 0
M  V30 1530 H 147.945 0.115411 -4.33646 0
M  V30 1531 H 148.616 1.40632 -5.33785 0
M  V30 1532 H 151.092 2.15218 -3.56118 0
M  V30 1533 H 149.968 3.20985 -4.45264 0
M  V30 1534 H 150.229 3.47298 -2.73563 0
M  V30 1535 N 149.288 1.51039 0.449983 0
M  V30 1536 C 150.22 1.67617 1.56324 0
M  V30 1537 C 151.233 0.557083 1.52972 0
M  V30 1538 O 152.422 0.830989 1.57977 0
M  V30 1539 C 149.522 1.66402 2.95235 0
M  V30 1540 C 148.695 2.9469 3.23229 0
M  V30 1541 C 147.754 2.85832 4.41799 0
M  V30 1542 O 146.78 3.59785 4.41071 0
M  V30 1543 N 147.982 2.00821 5.44657 0
M  V30 1544 H 150.747 2.63648 1.42512 0
M  V30 1545 H 148.308 1.48767 0.638737 0
M  V30 1546 H 150.3 1.58062 3.72557 0
M  V30 1547 H 148.87 0.780182 3.02708 0
M  V30 1548 H 148.09 3.16996 2.34323 0
M  V30 1549 H 149.378 3.79636 3.38754 0
M  V30 1550 H 148.776 1.40091 5.48079 0
M  V30 1551 H 147.333 1.98368 6.20881 0
M  V30 1552 N 150.766 -0.704594 1.40972 0
M  V30 1553 C 151.713 -1.81862 1.42109 0
M  V30 1554 C 152.683 -1.63781 0.276593 0
M  V30 1555 O 153.868 -1.84759 0.4763 0
M  V30 1556 C 151.008 -3.19669 1.30022 0
M  V30 1557 C 150.121 -3.49246 2.54267 0
M  V30 1558 C 149.256 -4.76618 2.3454 0
M  V30 1559 C 148.295 -4.99133 3.54306 0
M  V30 1560 N 147.432 -6.17726 3.33706 0
M  V30 1561 H 152.272 -1.80226 2.37324 0
M  V30 1562 H 149.809 -0.880238 1.17857 0
M  V30 1563 H 151.767 -3.99263 1.21018 0
M  V30 1564 H 150.397 -3.20506 0.384192 0
M  V30 1565 H 149.449 -2.64125 2.73756 0
M  V30 1566 H 150.761 -3.61788 3.43381 0
M  V30 1567 H 149.915 -5.64249 2.22952 0
M  V30 1568 H 148.654 -4.66305 1.42867 0
M  V30 1569 H 147.659 -4.09953 3.66359 0
M  V30 1570 H 148.884 -5.11311 4.4692 0
M  V30 1571 H 146.83 -6.08642 2.44725 0
M  V30 1572 H 146.747 -6.30995 4.16391 0
M  V30 1573 H 148.015 -7.08115 3.25873 0
M  V30 1574 N 152.244 -1.26651 -0.937939 0
M  V30 1575 C 153.493 -1.11775 -1.67897 0
M  V30 1576 C 153.806 0.33794 -1.92659 0
M  V30 1577 O 155.012 0.607434 -2.64618 0
M  V30 1578 C 153.468 -1.9523 -3.02346 0
M  V30 1579 C 153.076 -3.45393 -2.8532 0
M  V30 1580 C 154.82 -1.88972 -3.80118 0
M  V30 1581 C 152.727 -4.21083 -4.15263 0
M  V30 1582 H 151.657 -0.414696 -0.629717 0
M  V30 1583 H 154.308 -1.50988 -1.04283 0
M  V30 1584 H 152.69 -1.48853 -3.66959 0
M  V30 1585 H 153.864 -3.99561 -2.29537 0
M  V30 1586 H 152.179 -3.52921 -2.20988 0
M  V30 1587 H 154.776 -2.42805 -4.76392 0
M  V30 1588 H 155.119 -0.86113 -4.07296 0
M  V30 1589 H 155.652 -2.33189 -3.22285 0
M  V30 1590 H 152.391 -5.24425 -3.93267 0
M  V30 1591 H 151.911 -3.71695 -4.70747 0
M  V30 1592 H 153.59 -4.29706 -4.83696 0
M  V30 1593 N 153.722 1.14298 -1.08507 0
M  V30 1594 C 154.654 2.1907 -0.673859 0
M  V30 1595 C 155.667 1.60381 0.279577 0
M  V30 1596 O 156.856 1.78374 0.0670754 0
M  V30 1597 C 153.956 3.38888 0.0290979 0
M  V30 1598 C 153.129 4.27103 -0.943494 0
M  V30 1599 C 152.188 5.25477 -0.275676 0
M  V30 1600 O 151.214 5.61709 -0.920401 0
M  V30 1601 N 152.416 5.7227 0.974013 0
M  V30 1602 H 155.181 2.54965 -1.57521 0
M  V30 1603 H 152.742 1.29528 -0.971287 0
M  V30 1604 H 154.734 4.01761 0.48683 0
M  V30 1605 H 153.304 3.01309 0.832555 0
M  V30 1606 H 152.524 3.61149 -1.58004 0
M  V30 1607 H 153.812 4.82905 -1.60251 0
M  V30 1608 H 153.21 5.44965 1.51755 0
M  V30 1609 H 151.767 6.37127 1.37522 0
M  V30 1610 N 155.201 0.870884 1.31352 0
M  V30 1611 C 156.133 0.28455 2.27427 0
M  V30 1612 C 157.146 -0.552927 1.53123 0
M  V30 1613 O 158.335 -0.374771 1.74521 0
M  V30 1614 C 155.435 -0.615164 3.3327 0
M  V30 1615 C 154.608 0.190079 4.36987 0
M  V30 1616 C 153.667 -0.637917 5.22319 0
M  V30 1617 O 152.693 -0.065626 5.69162 0
M  V30 1618 N 153.895 -1.94973 5.46778 0
M  V30 1619 H 156.66 1.11017 2.7838 0
M  V30 1620 H 154.221 0.732458 1.44384 0
M  V30 1621 H 156.213 -1.1748 3.87273 0
M  V30 1622 H 154.783 -1.34146 2.82354 0
M  V30 1623 H 154.003 0.931165 3.83044 0
M  V30 1624 H 155.291 0.742579 5.03352 0
M  V30 1625 H 154.689 -2.4378 5.10478 0
M  V30 1626 H 153.246 -2.45713 6.03712 0
M  V30 1627 N 156.679 -1.44442 0.630414 0
M  V30 1628 C 157.927 -2.01653 0.134351 0
M  V30 1629 C 158.248 -1.49836 -1.24796 0
M  V30 1630 O 157.518 -0.701684 -1.82902 0
M  V30 1631 H 156.098 -0.74554 0.0466769 0
M  V30 1632 H 158.76 -1.76952 0.816955 0
M  V30 1633 H 157.856 -3.11935 0.101498 0
M  V30 1634 N 158.157 -0.370918 -1.53173 0
M  V30 1635 C 159.403 0.209976 -2.02313 0
M  V30 1636 C 159.758 1.45987 -1.25322 0
M  V30 1637 O 159.051 1.8856 -0.339965 0
M  V30 1638 C 159.245 0.549696 -3.53147 0
M  V30 1639 C 159.074 -0.665721 -4.44745 0
M  V30 1640 C 157.844 -1.17942 -4.91343 0
M  V30 1641 C 160.042 -1.53255 -4.90935 0
M  V30 1642 N 158.024 -2.35431 -5.66962 0
M  V30 1643 C 159.395 -2.55403 -5.64951 0
M  V30 1644 C 161.45 -1.5548 -4.73002 0
M  V30 1645 C 160.153 -3.5964 -6.22938 0
M  V30 1646 C 162.179 -2.58613 -5.31858 0
M  V30 1647 C 161.541 -3.59485 -6.05764 0
M  V30 1648 H 157.64 0.0394095 -0.781006 0
M  V30 1649 H 160.224 -0.516666 -1.8772 0
M  V30 1650 H 158.395 1.24541 -3.67891 0
M  V30 1651 H 160.127 1.11614 -3.89004 0
M  V30 1652 H 156.882 -0.743228 -4.67732 0
M  V30 1653 H 157.306 -2.94827 -6.09431 0
M  V30 1654 H 161.948 -0.788457 -4.15383 0
M  V30 1655 H 159.666 -4.37153 -6.79649 0
M  V30 1656 H 163.252 -2.61195 -5.19873 0
M  V30 1657 H 162.132 -4.3798 -6.50495 0
M  V30 1658 N 159.635 1.57281 -0.100228 0
M  V30 1659 C 160.882 1.94537 0.562268 0
M  V30 1660 C 161.21 0.982315 1.67871 0
M  V30 1661 O 160.465 0.00280936 1.957 0
M  V30 1662 C 160.764 3.38305 1.15259 0
M  V30 1663 C 160.43 4.50618 0.159409 0
M  V30 1664 C 159.092 4.81066 -0.113741 0
M  V30 1665 C 161.444 5.18615 -0.518461 0
M  V30 1666 C 158.772 5.76835 -1.07137 0
M  V30 1667 C 161.124 6.15412 -1.46459 0
M  V30 1668 C 159.788 6.44262 -1.74592 0
M  V30 1669 H 159.058 0.711863 0.205748 0
M  V30 1670 H 161.705 1.90679 -0.17715 0
M  V30 1671 H 160.01 3.38766 1.96836 0
M  V30 1672 H 161.707 3.64435 1.67297 0
M  V30 1673 H 158.297 4.2689 0.382491 0
M  V30 1674 H 162.481 4.95264 -0.320581 0
M  V30 1675 H 157.737 5.975 -1.29628 0
M  V30 1676 H 161.911 6.67194 -1.99564 0
M  V30 1677 H 159.538 7.1828 -2.48953 0
M  V30 1678 N 161.113 -0.173488 1.56642 0
M  V30 1679 C 162.39 -0.917617 1.7274 0
M  V30 1680 C 162.77 -2.00484 0.661027 0
M  V30 1681 O 162.118 -2.26184 -0.32453 0
M  V30 1682 C 162.328 -1.48433 3.15862 0
M  V30 1683 C 163.676 -1.95809 3.76754 0
M  V30 1684 O 164.7 -1.58231 3.19126 0
M  V30 1685 O 163.559 -2.65024 4.77938 0
M  V30 1686 H 160.653 -0.431772 0.705338 0
M  V30 1687 H 163.199 -0.161487 1.6893 0
M  V30 1688 H 161.971 -0.701715 3.84957 0
M  V30 1689 H 161.594 -2.30471 3.23989 0
M  V30 1690 N 162.591 -1.51276 -0.441967 0
M  V30 1691 C 163.838 -1.63715 -1.19179 0
M  V30 1692 C 164.166 -0.351175 -1.91303 0
M  V30 1693 O 163.421 0.664524 -1.84072 0
M  V30 1694 C 163.72 -2.78746 -2.23686 0
M  V30 1695 C 163.386 -4.18189 -1.68607 0
M  V30 1696 C 162.048 -4.56125 -1.53308 0
M  V30 1697 C 164.4 -5.05222 -1.28062 0
M  V30 1698 C 161.728 -5.78804 -0.959317 0
M  V30 1699 C 164.08 -6.28476 -0.721162 0
M  V30 1700 C 162.744 -6.65188 -0.55504 0
M  V30 1701 H 162.014 -0.599076 -0.436106 0
M  V30 1702 H 164.661 -1.85296 -0.48351 0
M  V30 1703 H 162.966 -2.51369 -3.00535 0
M  V30 1704 H 164.663 -2.8557 -2.81515 0
M  V30 1705 H 161.253 -3.88277 -1.8149 0
M  V30 1706 H 165.437 -4.76524 -1.38704 0
M  V30 1707 H 160.693 -6.05899 -0.81833 0
M  V30 1708 H 164.867 -6.95259 -0.398458 0
M  V30 1709 H 162.494 -7.60123 -0.108311 0
M  V30 1710 N 164.069 0.697108 -1.41344 0
M  V30 1711 C 165.346 1.45154 -1.31109 0
M  V30 1712 C 165.726 2.11009 0.0620449 0
M  V30 1713 O 165.074 2.01571 1.07618 0
M  V30 1714 C 165.284 2.47223 -2.46337 0
M  V30 1715 C 166.632 3.1252 -2.87431 0
M  V30 1716 O 167.656 2.57547 -2.46065 0
M  V30 1717 O 166.515 4.12083 -3.58957 0
M  V30 1718 H 163.609 0.646365 -0.515889 0
M  V30 1719 H 166.155 0.727716 -1.53305 0
M  V30 1720 H 164.927 1.97204 -3.37974 0
M  V30 1721 H 164.55 3.27116 -2.2601 0
M  V30 1722 N 165.547 1.27147 0.931209 0
M  V30 1723 C 166.793 1.13446 1.68101 0
M  V30 1724 C 167.126 -0.319628 1.91552 0
M  V30 1725 O 166.401 -1.23407 1.50336 0
M  V30 1726 C 166.684 1.91482 3.0497 0
M  V30 1727 C 166.537 3.44855 2.88782 0
M  V30 1728 C 167.856 1.71651 4.05246 0
M  V30 1729 H 164.975 0.413498 0.610072 0
M  V30 1730 H 167.617 1.56261 1.08086 0
M  V30 1731 H 165.767 1.55095 3.56199 0
M  V30 1732 H 167.439 3.9105 2.44698 0
M  V30 1733 H 165.682 3.71373 2.24198 0
M  V30 1734 H 166.353 3.94694 3.85902 0
M  V30 1735 H 168.829 2.0337 3.63015 0
M  V30 1736 H 167.705 2.28651 4.99009 0
M  V30 1737 H 167.966 0.663555 4.37092 0
M  V30 1738 N 167.025 -1.13721 1.09112 0
M  V30 1739 C 168.271 -1.85198 0.826414 0
M  V30 1740 C 168.604 -1.83129 -0.646319 0
M  V30 1741 O 167.879 -1.2671 -1.47563 0
M  V30 1742 C 168.162 -3.33507 1.35812 0
M  V30 1743 C 168.015 -3.44108 2.89672 0
M  V30 1744 C 169.334 -4.28838 0.989256 0
M  V30 1745 H 166.453 -0.67243 0.301675 0
M  V30 1746 H 169.095 -1.33499 1.35197 0
M  V30 1747 H 167.245 -3.77666 0.911082 0
M  V30 1748 H 168.917 -3.08684 3.428 0
M  V30 1749 H 167.16 -2.85087 3.26967 0
M  V30 1750 H 167.831 -4.48388 3.21951 0
M  V30 1751 H 170.307 -3.92734 1.37475 0
M  V30 1752 H 169.183 -5.31051 1.38838 0
M  V30 1753 H 169.444 -4.4198 -0.102924 0
M  V30 1754 N 168.503 -0.877838 -1.30888 0
M  V30 1755 C 169.749 -0.493426 -1.96706 0
M  V30 1756 C 170.082 0.953504 -1.6918 0
M  V30 1757 O 169.357 1.67266 -0.992594 0
M  V30 1758 C 169.64 -0.760429 -3.51979 0
M  V30 1759 C 169.493 -2.25747 -3.89048 0
M  V30 1760 C 170.812 -0.232148 -4.39487 0
M  V30 1761 H 167.931 -0.180746 -0.714493 0
M  V30 1762 H 170.573 -1.10052 -1.54882 0
M  V30 1763 H 168.723 -0.243715 -3.87735 0
M  V30 1764 H 170.395 -2.84204 -3.63354 0
M  V30 1765 H 168.638 -2.72694 -3.37373 0
M  V30 1766 H 169.309 -2.39491 -4.97341 0
M  V30 1767 H 171.785 -0.674314 -4.106 0
M  V30 1768 H 170.661 -0.448355 -5.47066 0
M  V30 1769 H 170.922 0.866297 -4.33529 0
M  V30 1770 N 169.982 1.44106 -0.638065 0
M  V30 1771 C 170.945 2.29138 0.0531013 0
M  V30 1772 C 171.945 1.41409 0.765506 0
M  V30 1773 O 173.135 1.63206 0.609046 0
M  V30 1774 C 170.267 3.23144 1.08584 0
M  V30 1775 H 171.46 2.91739 -0.694883 0
M  V30 1776 H 169.013 1.51134 -0.398538 0
M  V30 1777 H 169.748 2.65408 1.86357 0
M  V30 1778 H 169.533 3.87804 0.578852 0
M  V30 1779 H 171.023 3.87004 1.56899 0
M  V30 1780 N 171.46 0.379036 1.52974 0
M  V30 1781 C 172.688 -0.20679 2.05864 0
M  V30 1782 C 173.103 -1.41356 1.25155 0
M  V30 1783 O 172.46 -1.8009 0.295588 0
M  V30 1784 C 172.511 -0.587045 3.56702 0
M  V30 1785 O 172.232 0.571776 4.34353 0
M  V30 1786 C 173.733 -1.22983 4.25899 0
M  V30 1787 H 170.953 -0.0336123 0.670158 0
M  V30 1788 H 173.497 0.541298 1.97206 0
M  V30 1789 H 171.652 -1.28504 3.65466 0
M  V30 1790 H 172.066 0.261544 5.23847 0
M  V30 1791 H 173.54 -1.44635 5.32715 0
M  V30 1792 H 174.017 -2.19416 3.80465 0
M  V30 1793 H 174.623 -0.572892 4.21424 0
M  V30 1794 N 172.938 -1.57226 0.108567 0
M  V30 1795 C 174.349 -1.8195 -0.418464 0
M  V30 1796 C 174.7 -1.02508 -1.67292 0
M  V30 1797 O 173.825 -0.258496 -2.14851 0
M  V30 1798 C 174.42 -3.30028 -0.765979 0
M  V30 1799 C 172.979 -3.55469 -1.23769 0
M  V30 1800 C 172.126 -2.7625 -0.241106 0
M  V30 1801 H 175.077 -1.55149 0.33384 0
M  V30 1802 H 175.098 -3.44086 -1.62434 0
M  V30 1803 H 174.61 -3.87821 0.147219 0
M  V30 1804 H 172.711 -3.03022 -2.16814 0
M  V30 1805 H 172.824 -4.6408 -1.19022 0
M  V30 1806 H 171.188 -2.44133 -0.72602 0
M  V30 1807 H 171.971 -3.36797 0.665007 0
M  V30 1808 N 174.416 0.165178 -1.56732 0
M  V30 1809 C 175.693 0.908443 -1.73224 0
M  V30 1810 C 176.073 2.0013 -0.67165 0
M  V30 1811 O 175.421 2.26353 0.31253 0
M  V30 1812 C 175.631 1.46756 -3.16644 0
M  V30 1813 C 176.979 1.93809 -3.77787 0
M  V30 1814 O 178.003 1.56537 -3.1996 0
M  V30 1815 O 176.862 2.62486 -4.79336 0
M  V30 1816 H 173.956 0.428025 -0.707618 0
M  V30 1817 H 176.502 0.152526 -1.69013 0
M  V30 1818 H 175.274 0.68129 -3.85323 0
M  V30 1819 H 174.897 2.28749 -3.25207 0
M  V30 1820 N 175.894 1.51508 0.433938 0
M  V30 1821 C 176.827 1.67756 1.54704 0
M  V30 1822 C 177.805 0.525127 1.53887 0
M  V30 1823 O 178.989 0.749393 1.72963 0
M  V30 1824 C 176.116 1.69424 2.9328 0
M  V30 1825 C 175.162 2.90673 3.12108 0
M  V30 1826 S 175.995 4.51431 2.88046 0
M  V30 1827 C 177.151 4.55849 4.28897 0
M  V30 1828 H 177.384 2.61904 1.40689 0
M  V30 1829 H 174.917 1.41235 0.62386 0
M  V30 1830 H 176.875 1.7107 3.73156 0
M  V30 1831 H 175.536 0.764464 3.04655 0
M  V30 1832 H 174.729 2.88251 4.13434 0
M  V30 1833 H 174.331 2.86786 2.40062 0
M  V30 1834 H 176.623 4.31699 5.22152 0
M  V30 1835 H 177.566 5.57676 4.36351 0
M  V30 1836 H 177.974 3.85137 4.12711 0
M  V30 1837 N 177.372 -0.689602 1.41712 0
M  V30 1838 C 178.305 -1.81403 1.3845 0
M  V30 1839 C 179.283 -1.60653 0.250874 0
M  V30 1840 O 180.467 -1.83323 0.43874 0
M  V30 1841 C 177.594 -3.18176 1.1611 0
M  V30 1842 C 176.64 -3.57705 2.3227 0
M  V30 1843 S 177.473 -3.61827 3.94767 0
M  V30 1844 C 178.629 -5.01318 3.74742 0
M  V30 1845 H 178.862 -1.83893 2.33603 0
M  V30 1846 H 176.395 -0.858878 1.28307 0
M  V30 1847 H 178.353 -3.97132 1.03907 0
M  V30 1848 H 177.014 -3.13288 0.225668 0
M  V30 1849 H 176.207 -4.57082 2.12349 0
M  V30 1850 H 175.809 -2.86073 2.40911 0
M  V30 1851 H 178.101 -5.88986 3.34817 0
M  V30 1852 H 179.044 -5.26283 4.73743 0
M  V30 1853 H 179.452 -4.73138 3.07898 0
M  V30 1854 N 178.85 -1.27639 -0.924453 0
M  V30 1855 C 180.098 -1.13941 -1.66918 0
M  V30 1856 C 180.419 0.314589 -1.92446 0
M  V30 1857 O 179.689 1.21964 -1.53303 0
M  V30 1858 H 178.269 -0.418678 -0.618642 0
M  V30 1859 H 180.931 -1.60213 -1.10985 0
M  V30 1860 H 180.027 -1.67094 -2.63602 0
M  V30 1861 N 180.328 1.1314 -1.09713 0
M  V30 1862 C 181.238 2.22242 -0.751367 0
M  V30 1863 C 182.254 1.72224 0.247938 0
M  V30 1864 O 183.43 2.01205 0.0885463 0
M  V30 1865 C 180.495 3.46231 -0.180274 0
M  V30 1866 C 179.556 4.11125 -1.2359 0
M  V30 1867 C 178.789 5.29195 -0.691966 0
M  V30 1868 O 179.012 5.68342 0.48414 0
M  V30 1869 O 177.946 5.84214 -1.44838 0
M  V30 1870 H 181.772 2.54197 -1.66186 0
M  V30 1871 H 179.357 1.21331 -0.871735 0
M  V30 1872 H 181.239 4.21185 0.134739 0
M  V30 1873 H 179.914 3.1597 0.703185 0
M  V30 1874 H 178.821 3.37985 -1.60366 0
M  V30 1875 H 180.154 4.45524 -2.09211 0
M  V30 1876 N 181.806 0.884767 1.30421 0
M  V30 1877 C 183.052 0.503851 1.96441 0
M  V30 1878 C 183.385 -0.944518 1.69684 0
M  V30 1879 O 182.66 -1.66737 1.00145 0
M  V30 1880 C 182.943 0.779085 3.51571 0
M  V30 1881 C 182.796 2.27807 3.87846 0
M  V30 1882 C 184.115 0.255452 4.39358 0
M  V30 1883 H 181.234 0.184533 0.713524 0
M  V30 1884 H 183.876 1.10872 1.54297 0
M  V30 1885 H 182.026 0.264274 3.876 0
M  V30 1886 H 183.698 2.86127 3.61841 0
M  V30 1887 H 181.941 2.74479 3.35922 0
M  V30 1888 H 182.612 2.42125 4.96064 0
M  V30 1889 H 185.088 0.696079 4.10236 0
M  V30 1890 H 183.964 0.477361 5.4682 0
M  V30 1891 H 184.225 -0.843293 4.33983 0
M  V30 1892 N 183.284 -1.43765 0.645699 0
M  V30 1893 C 184.532 -2.01499 0.155731 0
M  V30 1894 C 184.853 -1.51151 -1.232 0
M  V30 1895 O 184.123 -0.721044 -1.82148 0
M  V30 1896 H 182.703 -0.745003 0.0545817 0
M  V30 1897 H 185.365 -1.76075 0.835677 0
M  V30 1898 H 184.461 -3.1181 0.134577 0
M  V30 1899 N 184.763 -0.387143 -1.52771 0
M  V30 1900 C 185.71 0.449048 -2.26389 0
M  V30 1901 C 186.68 1.05961 -1.27912 0
M  V30 1902 O 187.865 1.08804 -1.56737 0
M  V30 1903 C 185.005 1.57155 -3.0724 0
M  V30 1904 C 184.118 0.984066 -4.20643 0
M  V30 1905 C 183.253 2.07745 -4.88892 0
M  V30 1906 C 182.292 1.46574 -5.94292 0
M  V30 1907 N 181.429 2.49834 -6.56146 0
M  V30 1908 H 186.269 -0.185205 -2.97424 0
M  V30 1909 H 183.806 -0.103164 -1.46738 0
M  V30 1910 H 185.764 2.23309 -3.52405 0
M  V30 1911 H 184.394 2.17615 -2.38419 0
M  V30 1912 H 183.446 0.212193 -3.79808 0
M  V30 1913 H 184.758 0.497029 -4.96318 0
M  V30 1914 H 183.912 2.81673 -5.3735 0
M  V30 1915 H 182.651 2.59807 -4.12737 0
M  V30 1916 H 181.656 0.711696 -5.45174 0
M  V30 1917 H 182.881 0.953088 -6.72379 0
M  V30 1918 H 180.827 3.0107 -5.82832 0
M  V30 1919 H 180.744 2.05879 -7.27427 0
M  V30 1920 H 182.012 3.23399 -7.09249 0
M  V30 1921 N 186.241 1.57166 -0.116904 0
M  V30 1922 C 187.171 2.18222 0.830759 0
M  V30 1923 C 188.152 1.12167 1.27877 0
M  V30 1924 O 189.337 1.40394 1.34176 0
M  V30 1925 C 186.467 2.77996 2.08172 0
M  V30 1926 C 185.421 3.89614 1.77157 0
M  V30 1927 C 184.747 4.36187 3.09265 0
M  V30 1928 C 186.047 5.1181 1.04151 0
M  V30 1929 H 187.741 2.97664 0.321992 0
M  V30 1930 H 185.287 1.4318 0.153434 0
M  V30 1931 H 187.24 3.19366 2.74924 0
M  V30 1932 H 185.964 1.9584 2.6137 0
M  V30 1933 H 184.623 3.48816 1.12796 0
M  V30 1934 H 184.271 3.50893 3.60393 0
M  V30 1935 H 183.971 5.11455 2.89288 0
M  V30 1936 H 185.495 4.80207 3.77139 0
M  V30 1937 H 186.909 5.50214 1.61052 0
M  V30 1938 H 185.306 5.92648 0.942762 0
M  V30 1939 H 186.376 4.84892 0.0279022 0
M  V30 1940 N 187.719 -0.156864 1.56817 0
M  V30 1941 C 188.967 -0.869404 1.82444 0
M  V30 1942 C 189.288 -1.82147 0.69623 0
M  V30 1943 O 188.558 -1.93847 -0.28287 0
M  V30 1944 H 187.138 -0.324043 0.673056 0
M  V30 1945 H 189.8 -0.153224 1.94297 0
M  V30 1946 H 188.896 -1.43761 2.77019 0
M  V30 1947 N 189.197 -1.51736 -0.425897 0
M  V30 1948 C 190.613 -1.40166 -0.76326 0
M  V30 1949 C 190.813 -0.492962 -1.95377 0
M  V30 1950 O 189.869 0.0475815 -2.52455 0
M  V30 1951 C 191.182 -2.82403 -1.03291 0
M  V30 1952 C 192.73 -2.91632 -1.13665 0
M  V30 1953 C 193.205 -4.34801 -1.43916 0
M  V30 1954 N 194.696 -4.3796 -1.50816 0
M  V30 1955 C 195.431 -5.4578 -1.75817 0
M  V30 1956 N 194.927 -6.63744 -1.98534 0
M  V30 1957 N 196.72 -5.33274 -1.77694 0
M  V30 1958 H 188.871 -2.09361 0.358 0
M  V30 1959 H 191.134 -0.942941 0.0978094 0
M  V30 1960 H 190.84 -3.50943 -0.230696 0
M  V30 1961 H 190.714 -3.22428 -1.95754 0
M  V30 1962 H 193.101 -2.23284 -1.92947 0
M  V30 1963 H 193.182 -2.55088 -0.190756 0
M  V30 1964 H 192.826 -5.03703 -0.65157 0
M  V30 1965 H 192.756 -4.68868 -2.39729 0
M  V30 1966 H 195.247 -3.52919 -1.35118 0
M  V30 1967 H 195.56 -7.41704 -2.17013 0
M  V30 1968 H 193.905 -6.66839 -1.95832 0
M  V30 1969 H 197.096 -4.40098 -1.59473 0
M  V30 1970 H 197.269 -6.1738 -1.9684 0
M  V30 1971 N 190.675 0.682077 -1.42076 0
M  V30 1972 C 191.921 1.44428 -1.42367 0
M  V30 1973 C 192.254 1.94164 -0.0373056 0
M  V30 1974 O 191.529 1.70429 0.937239 0
M  V30 1975 C 191.812 2.64654 -2.44194 0
M  V30 1976 C 191.665 2.20596 -3.91991 0
M  V30 1977 C 192.984 3.66865 -2.431 0
M  V30 1978 H 190.103 0.523834 -0.518428 0
M  V30 1979 H 192.745 0.77576 -1.73442 0
M  V30 1980 H 190.895 3.2169 -2.17826 0
M  V30 1981 H 192.567 1.68783 -4.29313 0
M  V30 1982 H 190.81 1.52242 -4.06208 0
M  V30 1983 H 191.481 3.06921 -4.58807 0
M  V30 1984 H 193.957 3.19531 -2.66532 0
M  V30 1985 H 192.833 4.48577 -3.16339 0
M  V30 1986 H 193.094 4.17493 -1.45437 0
M  V30 1987 N 192.153 1.28127 0.917671 0
M  V30 1988 C 193.083 1.14248 2.03641 0
M  V30 1989 C 194.064 0.0412748 1.7005 0
M  V30 1990 O 195.249 0.217566 1.92977 0
M  V30 1991 C 192.379 0.799431 3.37974 0
M  V30 1992 C 191.333 1.85497 3.85713 0
M  V30 1993 C 190.659 1.36565 5.16966 0
M  V30 1994 C 191.959 3.26085 4.08002 0
M  V30 1995 H 193.653 2.07835 2.15511 0
M  V30 1996 H 191.199 1.00064 1.03553 0
M  V30 1997 H 193.152 0.689114 4.15727 0
M  V30 1998 H 191.876 -0.172145 3.26146 0
M  V30 1999 H 190.535 1.95437 3.10161 0
M  V30 2000 H 190.183 0.383253 5.01538 0
M  V30 2001 H 189.883 2.07143 5.49878 0
M  V30 2002 H 191.407 1.26848 5.97279 0
M  V30 2003 H 192.821 3.19089 4.76293 0
M  V30 2004 H 191.218 3.94462 4.52238 0
M  V30 2005 H 192.288 3.70394 3.12948 0
M  V30 2006 N 193.631 -1.12557 1.10312 0
M  V30 2007 C 194.879 -1.83675 0.843091 0
M  V30 2008 C 195.2 -1.84435 -0.633131 0
M  V30 2009 O 194.47 -1.30657 -1.45964 0
M  V30 2010 H 193.05 -0.680138 0.308904 0
M  V30 2011 H 195.712 -1.36301 1.39313 0
M  V30 2012 H 194.808 -2.87908 1.2048 0
M  V30 2013 N 195.109 -0.891671 -1.2995 0
M  V30 2014 C 196.52 -0.563104 -1.78006 0
M  V30 2015 C 196.871 0.920978 -1.73241 0
M  V30 2016 O 195.996 1.71987 -1.31337 0
M  V30 2017 C 196.591 -1.01539 -3.23226 0
M  V30 2018 C 195.15 -0.738124 -3.69092 0
M  V30 2019 C 194.297 -1.19461 -2.50249 0
M  V30 2020 H 197.248 -1.07522 -1.16725 0
M  V30 2021 H 197.269 -0.347217 -3.78912 0
M  V30 2022 H 196.781 -2.09555 -3.26662 0
M  V30 2023 H 194.882 0.329766 -3.71138 0
M  V30 2024 H 194.995 -1.33037 -4.60259 0
M  V30 2025 H 193.359 -0.613787 -2.47194 0
M  V30 2026 H 194.142 -2.28265 -2.56417 0
M  V30 2027 N 196.587 1.43421 -0.653314 0
M  V30 2028 C 197.534 2.30768 0.0382271 0
M  V30 2029 C 198.504 1.44755 0.814576 0
M  V30 2030 O 199.689 1.73624 0.791162 0
M  V30 2031 C 196.829 3.30336 0.998599 0
M  V30 2032 C 195.942 4.31448 0.218342 0
M  V30 2033 C 195.077 5.18098 1.17252 0
M  V30 2034 C 194.116 6.10902 0.382702 0
M  V30 2035 N 193.253 6.90176 1.28848 0
M  V30 2036 H 198.093 2.89357 -0.712511 0
M  V30 2037 H 195.63 1.42548 -0.363128 0
M  V30 2038 H 197.588 3.86572 1.56901 0
M  V30 2039 H 196.218 2.73397 1.71621 0
M  V30 2040 H 195.27 3.77506 -0.46836 0
M  V30 2041 H 196.582 4.97227 -0.395812 0
M  V30 2042 H 195.736 5.7896 1.81356 0
M  V30 2043 H 194.475 4.52444 1.82058 0
M  V30 2044 H 193.48 5.49128 -0.27169 0
M  V30 2045 H 194.705 6.78598 -0.260957 0
M  V30 2046 H 192.651 6.27171 1.92334 0
M  V30 2047 H 192.568 7.52478 0.728887 0
M  V30 2048 H 193.836 7.55543 1.91766 0
M  V30 2049 N 198.065 0.39524 1.52563 0
M  V30 2050 C 199.313 -0.184678 2.01254 0
M  V30 2051 C 199.634 -1.46822 1.28329 0
M  V30 2052 O 198.904 -1.91666 0.405094 0
M  V30 2053 H 197.484 -0.0712355 0.743596 0
M  V30 2054 H 200.146 0.528293 1.87603 0
M  V30 2055 H 199.242 -0.390681 3.09645 0
M  V30 2056 N 199.544 -1.57102 0.125237 0
M  V30 2057 C 200.474 -2.18659 -0.819174 0
M  V30 2058 C 201.455 -1.12843 -1.27281 0
M  V30 2059 O 202.64 -1.41104 -1.33429 0
M  V30 2060 C 199.77 -2.79096 -2.06695 0
M  V30 2061 C 198.724 -3.90548 -1.75088 0
M  V30 2062 C 198.05 -4.37821 -3.06948 0
M  V30 2063 C 199.35 -5.12356 -1.01435 0
M  V30 2064 H 201.044 -2.9783 -0.306202 0
M  V30 2065 H 198.59 -1.4326 -0.145839 0
M  V30 2066 H 200.543 -3.2082 -2.73226 0
M  V30 2067 H 199.267 -1.97223 -2.60328 0
M  V30 2068 H 197.926 -3.49409 -1.10944 0
M  V30 2069 H 197.574 -3.52799 -3.58527 0
M  V30 2070 H 197.274 -5.12982 -2.86571 0
M  V30 2071 H 198.798 -4.822 -3.74587 0
M  V30 2072 H 200.212 -5.5106 -1.58132 0
M  V30 2073 H 198.609 -5.9314 -0.911319 0
M  V30 2074 H 199.679 -4.849 -0.00218681 0
M  V30 2075 N 201.022 0.148545 -1.56898 0
M  V30 2076 C 201.955 1.21293 -1.93296 0
M  V30 2077 C 202.933 1.41637 -0.798599 0
M  V30 2078 O 204.117 1.56275 -1.05406 0
M  V30 2079 C 201.244 2.5721 -2.20365 0
M  V30 2080 C 200.29 2.53469 -3.4301 0
M  V30 2081 S 201.123 2.00315 -4.96623 0
M  V30 2082 C 202.279 3.37964 -5.26812 0
M  V30 2083 H 202.512 0.902393 -2.83274 0
M  V30 2084 H 200.045 0.354094 -1.50285 0
M  V30 2085 H 202.003 3.35427 -2.36641 0
M  V30 2086 H 200.664 2.85454 -1.31054 0
M  V30 2087 H 199.857 3.53518 -3.59223 0
M  V30 2088 H 199.459 1.83359 -3.25968 0
M  V30 2089 H 201.751 4.34066 -5.20185 0
M  V30 2090 H 202.694 3.26606 -6.28279 0
M  V30 2091 H 203.102 3.35028 -4.54331 0
M  V30 2092 N 202.5 1.5196 0.417844 0
M  V30 2093 C 203.911 1.57851 0.997 0
M  V30 2094 C 204.262 0.413714 1.91789 0
M  V30 2095 O 203.387 -0.467057 2.113 0
M  V30 2096 C 203.982 2.86085 1.81496 0
M  V30 2097 C 202.541 2.94483 2.34428 0
M  V30 2098 C 201.688 2.52707 1.14169 0
M  V30 2099 H 204.639 1.57455 0.198392 0
M  V30 2100 H 204.66 2.70947 2.67148 0
M  V30 2101 H 204.172 3.70842 1.14446 0
M  V30 2102 H 202.273 2.142 3.04875 0
M  V30 2103 H 202.386 3.98546 2.65891 0
M  V30 2104 H 200.75 2.06353 1.49301 0
M  V30 2105 H 201.533 3.39828 0.486999 0
M  V30 2106 N 203.978 -0.674533 1.42435 0
M  V30 2107 C 204.926 -1.80934 1.46169 0
M  V30 2108 C 205.92 -1.66006 0.3374 0
M  V30 2109 O 207.126 -1.72611 0.510425 0
M  V30 2110 H 203.501 -0.596594 0.457798 0
M  V30 2111 H 205.472 -1.74903 2.41767 0
M  V30 2112 C 204.221 -3.19088 1.38123 0
M  V30 2113 H 203.544 -3.31203 2.23931 0
M  V30 2114 H 204.984 -3.9851 1.44797 0
M  V30 2115 C 203.443 -3.36763 0.0960517 0
M  V30 2116 O 203.973 -3.92581 -0.851073 0
M  V30 2117 N 202.179 -2.90597 0.0131186 0
M  V30 2118 H 201.726 -2.45359 0.784639 0
M  V30 2119 H 201.684 -3.028 -0.846133 0
M  V30 2120 N 205.456 -1.28612 -0.910864 0
M  V30 2121 C 206.867 -1.14406 -1.47541 0
M  V30 2122 C 207.218 0.264901 -1.94403 0
M  V30 2123 O 206.343 1.15942 -1.82719 0
M  V30 2124 C 206.938 -2.07073 -2.68153 0
M  V30 2125 C 205.497 -1.96923 -3.20778 0
M  V30 2126 C 204.644 -1.98646 -1.93481 0
M  V30 2127 H 207.595 -1.41259 -0.723291 0
M  V30 2128 H 207.616 -1.63642 -3.43514 0
M  V30 2129 H 207.128 -3.09611 -2.34015 0
M  V30 2130 H 205.229 -0.97433 -3.59635 0
M  V30 2131 H 205.342 -2.84026 -3.85832 0
M  V30 2132 H 203.706 -1.43093 -2.10705 0
M  V30 2133 H 204.489 -3.02868 -1.61634 0
M  V30 2134 N 206.934 1.1197 -1.10907 0
M  V30 2135 C 207.881 2.17846 -0.762345 0
M  V30 2136 C 208.851 1.63995 0.263599 0
M  V30 2137 O 210.036 1.90273 0.141773 0
M  V30 2138 C 207.176 3.44487 -0.205651 0
M  V30 2139 C 206.289 4.12369 -1.28748 0
M  V30 2140 C 205.424 5.26674 -0.691919 0
M  V30 2141 C 204.463 5.86431 -1.75399 0
M  V30 2142 N 203.6 6.92142 -1.17833 0
M  V30 2143 H 208.44 2.46851 -1.6694 0
M  V30 2144 H 205.977 1.21188 -0.833776 0
M  V30 2145 H 207.935 4.16981 0.135037 0
M  V30 2146 H 206.565 3.15884 0.664613 0
M  V30 2147 H 205.617 3.38003 -1.74522 0
M  V30 2148 H 206.929 4.52844 -2.09125 0
M  V30 2149 H 206.083 6.05953 -0.300963 0
M  V30 2150 H 204.822 4.8749 0.143232 0
M  V30 2151 H 203.827 5.05835 -2.15432 0
M  V30 2152 H 205.052 6.27685 -2.59208 0
M  V30 2153 H 202.998 6.54985 -0.364725 0
M  V30 2154 H 202.915 7.31242 -1.91887 0
M  V30 2155 H 204.183 7.75237 -0.81408 0
M  V30 2156 N 208.412 0.89855 1.29475 0
M  V30 2157 C 209.64 0.539261 1.99749 0
M  V30 2158 C 210.055 -0.875716 1.67262 0
M  V30 2159 O 209.412 -1.57786 0.917049 0
M  V30 2160 C 209.463 0.72061 3.54245 0
M  V30 2161 O 209.184 2.07989 3.8558 0
M  V30 2162 C 210.685 0.366118 4.41786 0
M  V30 2163 H 207.905 0.207047 0.638258 0
M  V30 2164 H 210.449 1.20758 1.65039 0
M  V30 2165 H 208.604 0.0994862 3.87272 0
M  V30 2166 H 209.018 2.10841 4.80257 0
M  V30 2167 H 210.492 0.543848 5.49314 0
M  V30 2168 H 210.969 -0.696763 4.33638 0
M  V30 2169 H 211.575 0.964135 4.14228 0
M  V30 2170 N 209.89 -1.43072 0.660911 0
M  V30 2171 C 211.138 -2.01323 0.177094 0
M  V30 2172 C 211.459 -1.5245 -1.2159 0
M  V30 2173 O 210.729 -0.740322 -1.81373 0
M  V30 2174 H 209.309 -0.744382 0.0624804 0
M  V30 2175 H 211.971 -1.75179 0.854305 0
M  V30 2176 H 211.067 -3.11649 0.167641 0
M  V30 2177 N 211.368 -0.403325 -1.52352 0
M  V30 2178 C 212.596 0.174012 -2.06167 0
M  V30 2179 C 213.011 1.39347 -1.27388 0
M  V30 2180 O 212.368 1.79597 -0.324201 0
M  V30 2181 C 212.419 0.530223 -3.5759 0
M  V30 2182 O 212.14 -0.640806 -4.33388 0
M  V30 2183 C 213.641 1.16192 -4.27802 0
M  V30 2184 H 210.861 0.0229464 -0.670608 0
M  V30 2185 H 213.405 -0.572604 -1.9632 0
M  V30 2186 H 211.56 1.22673 -3.67464 0
M  V30 2187 H 211.974 -0.344851 -5.23365 0
M  V30 2188 H 213.448 1.36141 -5.34948 0
M  V30 2189 H 213.925 2.13335 -3.83907 0
M  V30 2190 H 214.531 0.505775 -4.22282 0
M  V30 2191 N 212.846 1.57033 -0.133567 0
M  V30 2192 C 214.092 1.95976 0.521649 0
M  V30 2193 C 214.425 1.01779 1.65393 0
M  V30 2194 O 213.7 0.0576581 1.94415 0
M  V30 2195 C 213.983 3.44738 1.04057 0
M  V30 2196 C 213.836 4.49711 -0.0892897 0
M  V30 2197 C 215.155 3.95682 1.92675 0
M  V30 2198 H 212.274 0.712579 0.188149 0
M  V30 2199 H 214.916 1.88813 -0.212076 0
M  V30 2200 H 213.066 3.50973 1.66583 0
M  V30 2201 H 214.738 4.55565 -0.725152 0
M  V30 2202 H 212.981 4.27261 -0.750378 0
M  V30 2203 H 213.652 5.51099 0.315284 0
M  V30 2204 H 216.128 3.91841 1.39998 0
M  V30 2205 H 215.004 5.00262 2.25897 0
M  V30 2206 H 215.265 3.37239 2.85872 0
M  V30 2207 N 214.325 -0.140222 1.56975 0
M  V30 2208 C 215.553 -0.866437 1.87884 0
M  V30 2209 C 215.968 -1.74428 0.722517 0
M  V30 2210 O 215.325 -1.79891 -0.30749 0
M  V30 2211 C 215.376 -1.71753 3.18093 0
M  V30 2212 O 215.097 -0.875056 4.29272 0
M  V30 2213 C 216.598 -2.55074 3.62563 0
M  V30 2214 H 213.818 -0.25019 0.622612 0
M  V30 2215 H 216.362 -0.130977 2.0408 0
M  V30 2216 H 214.517 -2.40598 3.03631 0
M  V30 2217 H 214.931 -1.46002 5.03769 0
M  V30 2218 H 216.405 -3.10356 4.5649 0
M  V30 2219 H 216.882 -3.31434 2.88181 0
M  V30 2220 H 217.488 -1.91509 3.79743 0
M  V30 2221 N 215.803 -1.52179 -0.40978 0
M  V30 2222 C 216.736 -1.70196 -1.52015 0
M  V30 2223 C 217.714 -0.549542 -1.53032 0
M  V30 2224 O 218.898 -0.776815 -1.71749 0
M  V30 2225 C 216.025 -1.74069 -2.90547 0
M  V30 2226 C 215.071 -2.95601 -3.07445 0
M  V30 2227 S 215.904 -4.55956 -2.80827 0
M  V30 2228 C 217.06 -4.62614 -4.21591 0
M  V30 2229 H 217.293 -2.64109 -1.36504 0
M  V30 2230 H 214.826 -1.4221 -0.601312 0
M  V30 2231 H 216.784 -1.76985 -3.70387 0
M  V30 2232 H 215.445 -0.812835 -3.034 0
M  V30 2233 H 214.638 -2.94791 -4.08796 0
M  V30 2234 H 214.24 -2.90569 -2.35469 0
M  V30 2235 H 216.532 -4.39951 -5.15218 0
M  V30 2236 H 217.475 -5.64548 -4.27424 0
M  V30 2237 H 217.883 -3.91654 -4.06531 0
M  V30 2238 N 217.281 0.66697 -1.42791 0
M  V30 2239 C 218.558 1.4234 -1.34159 0
M  V30 2240 C 218.938 2.11093 0.0172729 0
M  V30 2241 O 218.286 2.03808 1.03318 0
M  V30 2242 C 218.496 2.41942 -2.51526 0
M  V30 2243 C 219.844 3.06353 -2.93995 0
M  V30 2244 O 220.868 2.52269 -2.51473 0
M  V30 2245 O 219.727 4.04376 -3.67617 0
M  V30 2246 H 216.821 0.635277 -0.529483 0
M  V30 2247 H 219.367 0.695034 -1.54814 0
M  V30 2248 H 218.139 1.89991 -3.42081 0
M  V30 2249 H 217.762 3.22249 -2.32898 0
M  V30 2250 N 218.759 1.29093 0.90403 0
M  V30 2251 C 220.005 1.16986 1.65656 0
M  V30 2252 C 220.338 -0.278925 1.92186 0
M  V30 2253 O 219.613 -1.2019 1.5292 0
M  V30 2254 C 219.896 1.97908 3.0084 0
M  V30 2255 C 219.749 3.50903 2.81403 0
M  V30 2256 C 221.068 1.80208 4.01513 0
M  V30 2257 H 218.187 0.426346 0.601164 0
M  V30 2258 H 220.829 1.58518 1.04747 0
M  V30 2259 H 218.979 1.62616 3.52829 0
M  V30 2260 H 220.651 3.96153 2.36348 0
M  V30 2261 H 218.894 3.76045 2.1627 0
M  V30 2262 H 219.565 4.02791 3.77443 0
M  V30 2263 H 222.041 2.11025 3.58619 0
M  V30 2264 H 220.917 2.39184 4.94047 0
M  V30 2265 H 221.178 0.756119 4.35586 0
M  V30 2266 N 220.237 -1.11381 1.11499 0
M  V30 2267 C 221.184 -2.17439 0.773887 0
M  V30 2268 C 222.154 -1.64132 -0.254899 0
M  V30 2269 O 223.339 -1.90345 -0.13168 0
M  V30 2270 C 220.479 -3.44373 0.223917 0
M  V30 2271 C 219.592 -4.1168 1.30934 0
M  V30 2272 C 218.727 -5.263 0.71984 0
M  V30 2273 C 217.766 -5.85493 1.78507 0
M  V30 2274 N 216.903 -6.91507 1.21502 0
M  V30 2275 H 221.743 -2.45962 1.68246 0
M  V30 2276 H 219.28 -1.20744 0.840191 0
M  V30 2277 H 221.238 -4.17047 -0.112921 0
M  V30 2278 H 219.868 -3.16232 -0.647851 0
M  V30 2279 H 218.92 -3.37073 1.76312 0
M  V30 2280 H 220.232 -4.51729 2.11524 0
M  V30 2281 H 219.386 -6.05785 0.333094 0
M  V30 2282 H 218.125 -4.87559 -0.117377 0
M  V30 2283 H 217.13 -5.04686 2.18111 0
M  V30 2284 H 218.355 -6.26301 2.62533 0
M  V30 2285 H 216.301 -6.54783 0.399455 0
M  V30 2286 H 216.218 -7.30214 1.95763 0
M  V30 2287 H 217.486 -7.74795 0.855181 0
M  V30 2288 N 221.715 -0.905404 -1.28997 0
M  V30 2289 C 222.662 -0.385892 -2.27551 0
M  V30 2290 C 223.632 0.535113 -1.57244 0
M  V30 2291 O 224.817 0.459119 -1.85194 0
M  V30 2292 C 221.957 0.375461 -3.43051 0
M  V30 2293 C 221.07 -0.577092 -4.28128 0
M  V30 2294 C 220.205 0.201879 -5.30816 0
M  V30 2295 C 219.244 -0.744829 -6.07551 0
M  V30 2296 N 218.381 9.42587e-05 -7.021 0
M  V30 2297 H 223.221 -1.23139 -2.71368 0
M  V30 2298 H 220.758 -0.618542 -1.33463 0
M  V30 2299 H 222.716 0.832992 -4.088 0
M  V30 2300 H 221.346 1.18537 -3.00248 0
M  V30 2301 H 220.398 -1.15315 -3.62501 0
M  V30 2302 H 221.71 -1.30152 -4.8152 0
M  V30 2303 H 220.864 0.720351 -6.02408 0
M  V30 2304 H 219.603 0.959413 -4.7817 0
M  V30 2305 H 218.608 -1.27475 -5.34818 0
M  V30 2306 H 219.833 -1.50178 -6.62286 0
M  V30 2307 H 217.779 0.739791 -6.51815 0
M  V30 2308 H 217.696 -0.664321 -7.53076 0
M  V30 2309 H 218.964 0.498644 -7.77903 0
M  V30 2310 N 223.193 1.4272 -0.668489 0
M  V30 2311 C 224.156 2.292 0.00448567 0
M  V30 2312 C 225.156 1.43001 0.735339 0
M  V30 2313 O 226.346 1.64461 0.57429 0
M  V30 2314 C 223.478 3.25375 1.01705 0
M  V30 2315 H 224.671 2.90199 -0.756608 0
M  V30 2316 H 222.224 1.50254 -0.430506 0
M  V30 2317 H 222.959 2.69301 1.80686 0
M  V30 2318 H 222.744 3.88944 0.496463 0
M  V30 2319 H 224.234 3.90245 1.48655 0
M  V30 2320 N 224.671 0.411399 1.52136 0
M  V30 2321 C 225.917 -0.163888 2.02137 0
M  V30 2322 C 226.25 -1.44597 1.29636 0
M  V30 2323 O 225.525 -1.90272 0.403353 0
M  V30 2324 C 225.808 -0.40927 3.57767 0
M  V30 2325 C 225.661 0.889643 4.40914 0
M  V30 2326 C 226.98 -1.19042 4.23694 0
M  V30 2327 H 224.099 -0.0580896 0.734707 0
M  V30 2328 H 226.741 0.54531 1.82007 0
M  V30 2329 H 224.891 -1.0134 3.7505 0
M  V30 2330 H 226.563 1.52575 4.35337 0
M  V30 2331 H 224.806 1.50011 4.07037 0
M  V30 2332 H 225.477 0.672314 5.4789 0
M  V30 2333 H 227.953 -0.678942 4.10524 0
M  V30 2334 H 226.829 -1.33086 5.32522 0
M  V30 2335 H 227.09 -2.21166 3.82803 0
M  V30 2336 N 226.149 -1.5696 0.141893 0
M  V30 2337 C 227.059 -2.20066 -0.812905 0
M  V30 2338 C 228.075 -1.18344 -1.27557 0
M  V30 2339 O 229.251 -1.50902 -1.33381 0
M  V30 2340 C 226.316 -2.80583 -2.03652 0
M  V30 2341 C 225.377 -3.97414 -1.62359 0
M  V30 2342 C 224.61 -4.55036 -2.78887 0
M  V30 2343 O 224.833 -4.11538 -3.94959 0
M  V30 2344 O 223.767 -5.45376 -2.54653 0
M  V30 2345 H 227.593 -3.02157 -0.305746 0
M  V30 2346 H 225.178 -1.49159 -0.0848799 0
M  V30 2347 H 227.06 -3.19067 -2.75272 0
M  V30 2348 H 225.735 -2.01508 -2.5333 0
M  V30 2349 H 224.642 -3.63656 -0.877775 0
M  V30 2350 H 225.975 -4.77994 -1.17401 0
M  V30 2351 N 227.627 0.131896 -1.57047 0
M  V30 2352 C 228.537 1.1815 -2.02676 0
M  V30 2353 C 229.553 1.46113 -0.944824 0
M  V30 2354 O 230.729 1.57485 -1.25541 0
M  V30 2355 C 227.794 2.49139 -2.41103 0
M  V30 2356 C 226.855 2.28688 -3.63318 0
M  V30 2357 C 226.088 3.53431 -3.99903 0
M  V30 2358 O 226.311 4.60223 -3.36973 0
M  V30 2359 O 225.245 3.45198 -4.93074 0
M  V30 2360 H 229.071 0.824069 -2.92306 0
M  V30 2361 H 226.656 0.341745 -1.45439 0
M  V30 2362 H 228.538 3.26338 -2.66611 0
M  V30 2363 H 227.213 2.84382 -1.54624 0
M  V30 2364 H 226.12 1.4939 -3.42977 0
M  V30 2365 H 227.453 1.98355 -4.50462 0
M  V30 2366 N 229.106 1.52395 0.401703 0
M  V30 2367 C 230.355 1.66044 1.14509 0
M  V30 2368 C 230.668 0.400216 1.91462 0
M  V30 2369 O 231.874 0.416632 2.68284 0
M  V30 2370 C 230.33 2.93388 2.0845 0
M  V30 2371 C 229.938 4.26545 1.36978 0
M  V30 2372 C 231.682 3.16402 2.83001 0
M  V30 2373 C 229.589 5.45007 2.29611 0
M  V30 2374 H 228.519 0.618562 0.431158 0
M  V30 2375 H 231.17 1.78886 0.40892 0
M  V30 2376 H 229.552 2.74263 2.8565 0
M  V30 2377 H 230.726 4.56179 0.650916 0
M  V30 2378 H 229.041 4.09692 0.74438 0
M  V30 2379 H 231.638 4.02085 3.52465 0
M  V30 2380 H 231.981 2.30943 3.46368 0
M  V30 2381 H 232.514 3.36034 2.12898 0
M  V30 2382 H 229.253 6.32835 1.70879 0
M  V30 2383 H 228.773 5.19702 2.9945 0
M  V30 2384 H 230.452 5.7838 2.89974 0
M  V30 2385 N 230.584 -0.659388 1.43143 0
M  V30 2386 C 231.531 -1.77249 1.47822 0
M  V30 2387 C 232.501 -1.62818 0.328558 0
M  V30 2388 O 233.686 -1.83151 0.534838 0
M  V30 2389 C 230.826 -3.15371 1.40126 0
M  V30 2390 C 229.939 -3.4098 2.65249 0
M  V30 2391 C 229.074 -4.68915 2.49584 0
M  V30 2392 C 228.113 -4.87608 3.70006 0
M  V30 2393 N 227.25 -6.06796 3.53189 0
M  V30 2394 H 232.09 -1.72584 2.42938 0
M  V30 2395 H 229.627 -0.842297 1.20598 0
M  V30 2396 H 231.585 -3.9521 1.33659 0
M  V30 2397 H 230.215 -3.19121 0.485964 0
M  V30 2398 H 229.267 -2.55282 2.8202 0
M  V30 2399 H 230.579 -3.50681 3.54717 0
M  V30 2400 H 229.733 -5.56871 2.4079 0
M  V30 2401 H 228.472 -4.61524 1.5763 0
M  V30 2402 H 227.477 -3.9809 3.79215 0
M  V30 2403 H 228.702 -4.96834 4.62961 0
M  V30 2404 H 226.648 -6.00549 2.63965 0
M  V30 2405 H 226.565 -6.17428 4.36255 0
M  V30 2406 H 227.833 -6.9739 3.48236 0
M  V30 2407 N 232.062 -1.29571 -0.897171 0
M  V30 2408 C 233.025 -1.14913 -1.98312 0
M  V30 2409 C 234.025 -0.0838629 -1.60581 0
M  V30 2410 O 235.215 -0.331006 -1.71026 0
M  V30 2411 C 232.347 -0.757835 -3.3237 0
M  V30 2412 H 233.54 -2.11377 -2.12743 0
M  V30 2413 H 231.093 -1.12793 -1.08201 0
M  V30 2414 H 231.828 0.206837 -3.2364 0
M  V30 2415 H 231.613 -1.52755 -3.61121 0
M  V30 2416 H 233.103 -0.678408 -4.12053 0
M  V30 2417 N 233.54 1.10788 -1.12088 0
M  V30 2418 C 234.788 1.8231 -0.872205 0
M  V30 2419 C 235.109 1.85419 0.603709 0
M  V30 2420 O 234.379 1.32963 1.43867 0
M  V30 2421 H 232.959 0.675137 -0.319686 0
M  V30 2422 H 235.621 1.34068 -1.41463 0
M  V30 2423 H 234.717 2.85955 -1.25045 0
M  V30 2424 N 235.018 0.912232 1.28515 0
M  V30 2425 C 235.965 0.397954 2.27343 0
M  V30 2426 C 236.935 -0.526766 1.57526 0
M  V30 2427 O 238.12 -0.449292 1.85435 0
M  V30 2428 C 235.26 -0.357263 3.43246 0
M  V30 2429 C 234.373 0.599788 4.27816 0
M  V30 2430 C 233.508 -0.173725 5.30916 0
M  V30 2431 C 232.547 0.777039 6.07148 0
M  V30 2432 N 231.684 0.0371398 7.0209 0
M  V30 2433 H 236.524 1.24577 2.70711 0
M  V30 2434 H 234.061 0.625612 1.33133 0
M  V30 2435 H 236.019 -0.8113 4.09236 0
M  V30 2436 H 234.649 -1.16943 3.00872 0
M  V30 2437 H 233.701 1.17235 3.61884 0
M  V30 2438 H 235.013 1.32704 4.80823 0
M  V30 2439 H 234.167 -0.688394 6.02782 0
M  V30 2440 H 232.906 -0.934041 4.78672 0
M  V30 2441 H 231.911 1.3031 5.34134 0
M  V30 2442 H 233.136 1.53689 6.61481 0
M  V30 2443 H 231.082 -0.705213 6.52198 0
M  V30 2444 H 230.999 0.704249 7.52713 0
M  V30 2445 H 232.267 -0.457383 7.78157 0
M  V30 2446 N 236.496 -1.42363 0.676048 0
M  V30 2447 C 237.742 -2.0182 0.199125 0
M  V30 2448 C 238.075 -1.53339 -1.19168 0
M  V30 2449 O 237.35 -0.736124 -1.80032 0
M  V30 2450 C 237.633 -3.59331 0.235144 0
M  V30 2451 C 237.486 -4.17989 1.66149 0
M  V30 2452 C 238.805 -4.3813 -0.41595 0
M  V30 2453 H 235.924 -0.733293 0.0738311 0
M  V30 2454 H 238.566 -1.69368 0.86107 0
M  V30 2455 H 236.716 -3.87109 -0.328487 0
M  V30 2456 H 238.388 -4.0116 2.27747 0
M  V30 2457 H 236.631 -3.7377 2.20178 0
M  V30 2458 H 237.302 -5.27126 1.63837 0
M  V30 2459 H 239.778 -4.16051 0.0638529 0
M  V30 2460 H 238.654 -5.47717 -0.360115 0
M  V30 2461 H 238.915 -4.16101 -1.49373 0
M  V30 2462 N 237.974 -0.419461 -1.51915 0
M  V30 2463 C 238.884 0.407528 -2.31033 0
M  V30 2464 C 239.9 1.04413 -1.3919 0
M  V30 2465 O 241.076 1.0434 -1.72265 0
M  V30 2466 C 238.141 1.50365 -3.12396 0
M  V30 2467 C 237.202 0.889029 -4.19994 0
M  V30 2468 C 236.435 1.93291 -4.97468 0
M  V30 2469 O 236.658 3.15259 -4.75361 0
M  V30 2470 O 235.592 1.53339 -5.8204 0
M  V30 2471 H 239.418 -0.237865 -3.02767 0
M  V30 2472 H 237.003 -0.182413 -1.48282 0
M  V30 2473 H 238.885 2.13975 -3.63032 0
M  V30 2474 H 237.56 2.13345 -2.43445 0
M  V30 2475 H 236.467 0.215353 -3.7348 0
M  V30 2476 H 237.8 0.302991 -4.91267 0
M  V30 2477 N 239.452 1.56882 -0.150215 0
M  V30 2478 C 240.682 2.00302 0.506213 0
M  V30 2479 C 241.09 1.02934 1.58749 0
M  V30 2480 O 240.433 0.0188384 1.8369 0
M  V30 2481 C 240.495 3.40156 1.16337 0
M  V30 2482 C 240.159 4.56439 0.226311 0
M  V30 2483 C 241.156 5.17012 -0.547265 0
M  V30 2484 C 238.841 5.02136 0.128279 0
M  V30 2485 C 240.835 6.21693 -1.40629 0
M  V30 2486 C 238.522 6.06672 -0.734345 0
M  V30 2487 C 239.52 6.6632 -1.50023 0
M  V30 2488 O 239.208 7.68831 -2.34848 0
M  V30 2489 H 238.94 0.662182 0.135984 0
M  V30 2490 H 241.494 2.03961 -0.242746 0
M  V30 2491 H 239.724 3.33346 1.96004 0
M  V30 2492 H 241.413 3.67663 1.71985 0
M  V30 2493 H 242.179 4.82603 -0.48158 0
M  V30 2494 H 238.058 4.55435 0.714157 0
M  V30 2495 H 241.602 6.68179 -2.00455 0
M  V30 2496 H 237.499 6.40507 -0.801309 0
M  V30 2497 H 238.267 7.86065 -2.28131 0
M  V30 2498 N 240.93 -0.123565 1.57115 0
M  V30 2499 C 242.346 -0.476961 1.52306 0
M  V30 2500 C 242.546 -1.82109 0.86248 0
M  V30 2501 O 241.602 -2.48586 0.442884 0
M  V30 2502 C 242.915 -0.465661 2.97073 0
M  V30 2503 C 244.463 -0.549534 3.08138 0
M  V30 2504 C 244.938 -0.568669 4.54456 0
M  V30 2505 N 246.429 -0.630237 4.58892 0
M  V30 2506 C 247.164 -0.666415 5.69514 0
M  V30 2507 N 246.66 -0.660514 6.89644 0
M  V30 2508 N 248.453 -0.709077 5.5761 0
M  V30 2509 H 240.604 0.757198 1.98445 0
M  V30 2510 H 242.867 0.278808 0.906074 0
M  V30 2511 H 242.573 0.454232 3.48754 0
M  V30 2512 H 242.447 -1.29513 3.54269 0
M  V30 2513 H 244.834 -1.45985 2.56461 0
M  V30 2514 H 244.915 0.307532 2.53945 0
M  V30 2515 H 244.559 0.337581 5.06777 0
M  V30 2516 H 244.489 -1.44256 5.06456 0
M  V30 2517 H 246.98 -0.641146 3.72421 0
M  V30 2518 H 247.293 -0.690616 7.69708 0
M  V30 2519 H 245.638 -0.628012 6.92157 0
M  V30 2520 H 248.829 -0.711019 4.62668 0
M  V30 2521 H 249.002 -0.733804 6.43832 0
M  V30 2522 N 242.408 -1.52605 -0.393616 0
M  V30 2523 C 243.371 -1.76415 -1.46323 0
M  V30 2524 C 244.371 -0.634126 -1.47768 0
M  V30 2525 O 245.561 -0.902142 -1.4902 0
M  V30 2526 C 242.693 -1.8607 -2.85641 0
M  V30 2527 H 243.886 -2.71916 -1.26498 0
M  V30 2528 H 241.439 -1.43257 -0.625073 0
M  V30 2529 H 242.174 -0.925378 -3.10817 0
M  V30 2530 H 241.959 -2.68235 -2.85993 0
M  V30 2531 H 243.449 -2.06179 -3.63153 0
M  V30 2532 N 243.887 0.651787 -1.4349 0
M  V30 2533 C 244.797 1.79368 -1.5121 0
M  V30 2534 C 245.813 1.69361 -0.399093 0
M  V30 2535 O 246.989 1.90505 -0.653431 0
M  V30 2536 C 244.054 3.15653 -1.43401 0
M  V30 2537 C 243.115 3.37446 -2.65384 0
M  V30 2538 C 242.348 4.67229 -2.57939 0
M  V30 2539 O 242.571 5.46676 -1.62792 0
M  V30 2540 O 241.505 4.90773 -3.48462 0
M  V30 2541 H 245.331 1.7581 -2.47638 0
M  V30 2542 H 242.916 0.810447 -1.25507 0
M  V30 2543 H 244.798 3.96935 -1.41494 0
M  V30 2544 H 243.473 3.19798 -0.501085 0
M  V30 2545 H 242.38 2.55923 -2.72863 0
M  V30 2546 H 243.713 3.38148 -3.57654 0
M  V30 2547 N 245.365 1.30045 0.890287 0
M  V30 2548 C 246.312 1.15976 1.99545 0
M  V30 2549 C 247.282 0.0506202 1.66023 0
M  V30 2550 O 248.467 0.219847 1.89529 0
M  V30 2551 C 245.607 0.852054 3.34416 0
M  V30 2552 C 244.72 2.04255 3.80662 0
M  V30 2553 C 243.855 1.6734 5.04154 0
M  V30 2554 C 242.894 2.82916 5.42794 0
M  V30 2555 N 242.031 2.46333 6.57468 0
M  V30 2556 H 246.871 2.10524 2.10911 0
M  V30 2557 H 244.408 1.04749 1.03276 0
M  V30 2558 H 246.366 0.654296 4.12037 0
M  V30 2559 H 244.996 -0.0565502 3.2275 0
M  V30 2560 H 244.048 2.35172 2.98995 0
M  V30 2561 H 245.36 2.90826 4.05242 0
M  V30 2562 H 244.514 1.43908 5.89386 0
M  V30 2563 H 243.253 0.779308 4.81433 0
M  V30 2564 H 242.258 3.0702 4.56091 0
M  V30 2565 H 243.483 3.73004 5.6749 0
M  V30 2566 H 241.429 1.59423 6.36334 0
M  V30 2567 H 241.346 3.26436 6.81891 0
M  V30 2568 H 242.614 2.26244 7.45945 0
M  V30 2569 N 246.843 -1.10192 1.12674 0
M  V30 2570 C 247.806 -2.14786 0.799979 0
M  V30 2571 C 248.806 -1.59711 -0.18685 0
M  V30 2572 O 249.996 -1.74156 0.0392558 0
M  V30 2573 C 247.128 -3.40374 0.189228 0
M  V30 2574 H 248.321 -2.45203 1.72671 0
M  V30 2575 H 245.874 -1.25597 0.930326 0
M  V30 2576 H 246.609 -3.15577 -0.747107 0
M  V30 2577 H 246.394 -3.81637 0.899766 0
M  V30 2578 H 247.884 -4.17594 -0.0228143 0
M  V30 2579 N 248.321 -0.919034 -1.28029 0
M  V30 2580 C 249.569 -0.553838 -1.94363 0
M  V30 2581 C 249.89 0.906357 -1.72656 0
M  V30 2582 O 249.16 1.64143 -1.0693 0
M  V30 2583 H 247.74 -0.201834 -0.719216 0
M  V30 2584 H 250.402 -1.16954 -1.55909 0
M  V30 2585 H 249.498 -0.752758 -3.02886 0
M  V30 2586 N 249.799 1.42003 -0.683588 0
M  V30 2587 C 251.048 2.00638 -0.206681 0
M  V30 2588 C 251.361 1.5472 1.19671 0
M  V30 2589 O 252.567 2.05833 1.77045 0
M  V30 2590 C 251.023 3.58487 -0.318632 0
M  V30 2591 C 250.631 4.1339 -1.72663 0
M  V30 2592 C 252.375 4.24384 0.0991141 0
M  V30 2593 C 250.282 5.63633 -1.79087 0
M  V30 2594 H 249.212 0.750408 -0.0735107 0
M  V30 2595 H 251.863 1.62624 -0.850048 0
M  V30 2596 H 250.245 3.94047 0.392781 0
M  V30 2597 H 251.419 3.89273 -2.46583 0
M  V30 2598 H 249.734 3.59976 -2.09299 0
M  V30 2599 H 252.331 5.34652 0.0713833 0
M  V30 2600 H 252.674 4.00505 1.13586 0
M  V30 2601 H 253.207 3.93816 -0.561599 0
M  V30 2602 H 249.946 5.92323 -2.80774 0
M  V30 2603 H 249.466 5.89714 -1.09535 0
M  V30 2604 H 251.145 6.28201 -1.5483 0
M  V30 2605 N 251.277 0.427512 1.51691 0
M  V30 2606 C 252.523 -0.142439 2.02299 0
M  V30 2607 C 252.856 -1.43214 1.31162 0
M  V30 2608 O 252.131 -1.89833 0.423511 0
M  V30 2609 C 252.414 -0.371301 3.58181 0
M  V30 2610 C 252.267 0.936358 4.39946 0
M  V30 2611 C 253.586 -1.14542 4.24933 0
M  V30 2612 H 250.705 -0.0502937 0.735282 0
M  V30 2613 H 253.347 0.564584 1.81418 0
M  V30 2614 H 251.497 -0.973559 3.76104 0
M  V30 2615 H 253.169 1.57184 4.33694 0
M  V30 2616 H 251.412 1.5432 4.05423 0
M  V30 2617 H 252.083 0.730388 5.47147 0
M  V30 2618 H 254.559 -0.635362 4.11221 0
M  V30 2619 H 253.435 -1.27431 5.33903 0
M  V30 2620 H 253.696 -2.17093 3.85127 0
M  V30 2621 N 252.755 -1.56801 0.158532 0
M  V30 2622 C 253.705 -2.13923 -0.788738 0
M  V30 2623 C 254.689 -1.07006 -1.2016 0
M  V30 2624 O 255.881 -1.33159 -1.1661 0
M  V30 2625 C 253.01 -2.77348 -2.02319 0
M  V30 2626 C 252.096 -3.91404 -1.6329 0
M  V30 2627 N 252.487 -4.9677 -0.951463 0
M  V30 2628 C 250.785 -4.02326 -1.92482 0
M  V30 2629 C 251.486 -5.76698 -0.761221 0
M  V30 2630 N 250.462 -5.27859 -1.29869 0
M  V30 2631 H 254.264 -2.92757 -0.258995 0
M  V30 2632 H 251.778 -1.62344 -0.0426055 0
M  V30 2633 H 253.775 -3.16639 -2.71192 0
M  V30 2634 H 252.435 -1.99991 -2.558 0
M  V30 2635 H 253.446 -5.14284 -0.610928 0
M  V30 2636 H 250.123 -3.36059 -2.47732 0
M  V30 2637 H 251.513 -6.71529 -0.223284 0
M  V30 2638 N 254.233 0.115231 -1.57178 0
M  V30 2639 C 255.196 1.12526 -1.99676 0
M  V30 2640 C 256.196 1.34095 -0.88742 0
M  V30 2641 O 257.386 1.30548 -1.15337 0
M  V30 2642 C 254.518 2.4789 -2.34015 0
M  V30 2643 H 255.711 0.759912 -2.90113 0
M  V30 2644 H 253.264 0.359648 -1.52106 0
M  V30 2645 H 253.999 2.89339 -1.4647 0
M  V30 2646 H 253.784 2.33588 -3.14927 0
M  V30 2647 H 255.274 3.20575 -2.67622 0
M  V30 2648 N 255.711 1.52812 0.385517 0
M  V30 2649 C 256.936 1.72207 1.15583 0
M  V30 2650 C 257.361 0.441034 1.82857 0
M  V30 2651 O 256.719 -0.603465 1.70962 0
M  V30 2652 C 256.767 2.87476 2.17692 0
M  V30 2653 O 255.871 2.54693 3.24354 0
M  V30 2654 H 255.212 0.572526 0.336319 0
M  V30 2655 H 257.742 1.99618 0.448744 0
M  V30 2656 H 257.752 3.13072 2.6163 0
M  V30 2657 H 256.427 3.80408 1.68115 0
M  V30 2658 H 255.004 2.3985 2.85529 0
M  V30 2659 N 257.189 -0.644168 1.43834 0
M  V30 2660 C 258.438 -1.39985 1.45214 0
M  V30 2661 C 258.751 -1.95421 0.0835494 0
M  V30 2662 O 259.957 -2.71488 -0.0251748 0
M  V30 2663 C 258.413 -2.53384 2.55587 0
M  V30 2664 C 258.021 -2.04517 3.98594 0
M  V30 2665 C 259.765 -3.30685 2.66172 0
M  V30 2666 C 257.672 -3.1518 5.00416 0
M  V30 2667 H 256.602 -0.526005 0.540218 0
M  V30 2668 H 259.253 -0.694367 1.69855 0
M  V30 2669 H 257.635 -3.26446 2.24163 0
M  V30 2670 H 258.809 -1.38405 4.39523 0
M  V30 2671 H 257.124 -1.40068 3.92135 0
M  V30 2672 H 259.721 -4.13158 3.39418 0
M  V30 2673 H 260.064 -3.79312 1.71546 0
M  V30 2674 H 260.597 -2.64708 2.96942 0
M  V30 2675 H 257.336 -2.71511 5.96625 0
M  V30 2676 H 256.856 -3.79974 4.64091 0
M  V30 2677 H 258.535 -3.80166 5.23529 0
M  V30 2678 N 258.668 -1.30515 -0.883378 0
M  V30 2679 C 259.916 -1.19194 -1.63209 0
M  V30 2680 C 260.237 0.253205 -1.93349 0
M  V30 2681 O 259.507 1.17025 -1.57105 0
M  V30 2682 H 258.087 -0.438148 -0.605009 0
M  V30 2683 H 260.749 -1.63663 -1.05832 0
M  V30 2684 H 259.845 -1.75396 -2.58153 0
M  V30 2685 N 260.146 1.09593 -1.13257 0
M  V30 2686 C 261.093 2.1618 -0.808381 0
M  V30 2687 C 262.063 1.64517 0.228754 0
M  V30 2688 O 263.248 1.9053 0.101381 0
M  V30 2689 C 260.388 3.43973 -0.278675 0
M  V30 2690 C 259.501 4.09545 -1.37466 0
M  V30 2691 C 258.636 5.25088 -0.803479 0
M  V30 2692 C 257.675 5.82579 -1.87799 0
M  V30 2693 N 256.812 6.89486 -1.32488 0
M  V30 2694 H 261.652 2.43254 -1.72138 0
M  V30 2695 H 259.189 1.19392 -0.859294 0
M  V30 2696 H 261.147 4.17174 0.0465583 0
M  V30 2697 H 259.777 3.17223 0.597459 0
M  V30 2698 H 258.829 3.34226 -1.81652 0
M  V30 2699 H 260.141 4.48307 -2.18684 0
M  V30 2700 H 259.295 6.05178 -0.429427 0
M  V30 2701 H 258.034 4.87684 0.0397956 0
M  V30 2702 H 257.039 5.01152 -2.26113 0
M  V30 2703 H 258.264 6.22045 -2.72463 0
M  V30 2704 H 256.21 6.54064 -0.503575 0
M  V30 2705 H 256.127 7.27007 -2.07355 0
M  V30 2706 H 257.395 7.73336 -0.978336 0
M  V30 2707 N 261.624 0.925811 1.2754 0
M  V30 2708 C 262.87 0.566092 1.94739 0
M  V30 2709 C 263.203 -0.890057 1.72603 0
M  V30 2710 O 262.478 -1.63467 1.05399 0
M  V30 2711 C 262.761 0.89054 3.48915 0
M  V30 2712 C 262.614 2.4003 3.80402 0
M  V30 2713 C 263.933 0.395101 4.38323 0
M  V30 2714 H 261.052 0.20714 0.707292 0
M  V30 2715 H 263.694 1.15725 1.50691 0
M  V30 2716 H 261.844 0.387452 3.86563 0
M  V30 2717 H 263.516 2.97494 3.52555 0
M  V30 2718 H 261.759 2.85028 3.2702 0
M  V30 2719 H 262.43 2.57785 4.8811 0
M  V30 2720 H 264.906 0.826241 4.07814 0
M  V30 2721 H 263.782 0.651086 5.45025 0
M  V30 2722 H 264.043 -0.704798 4.36446 0
M  V30 2723 N 263.102 -1.41638 0.69111 0
M  V30 2724 C 264.327 -2.06148 0.227583 0
M  V30 2725 C 264.752 -1.51652 -1.11281 0
M  V30 2726 O 264.11 -0.64164 -1.69566 0
M  V30 2727 C 264.158 -3.60095 0.190858 0
M  V30 2728 O 263.262 -4.03845 -0.835664 0
M  V30 2729 H 262.603 -0.654434 0.112306 0
M  V30 2730 H 265.133 -1.81484 0.944714 0
M  V30 2731 H 265.143 -4.07995 0.020207 0
M  V30 2732 H 263.818 -3.99129 1.16915 0
M  V30 2733 H 262.395 -3.67458 -0.63473 0
M  V30 2734 N 264.58 -0.43555 -1.51462 0
M  V30 2735 C 265.827 0.131514 -2.02072 0
M  V30 2736 C 266.155 1.42868 -1.31981 0
M  V30 2737 O 265.41 1.91076 -0.422883 0
M  V30 2738 C 265.709 0.39942 -3.55161 0
M  V30 2739 C 265.375 -0.81172 -4.43533 0
M  V30 2740 C 264.037 -1.14387 -4.67407 0
M  V30 2741 C 266.389 -1.61976 -4.95392 0
M  V30 2742 C 263.717 -2.28477 -5.40384 0
M  V30 2743 C 266.069 -2.75164 -5.6962 0
M  V30 2744 C 264.733 -3.08835 -5.91758 0
M  V30 2745 H 264.003 0.0481244 -0.739436 0
M  V30 2746 H 266.65 -0.58238 -1.8243 0
M  V30 2747 H 264.955 1.19519 -3.73125 0
M  V30 2748 H 266.652 0.85157 -3.91854 0
M  V30 2749 H 263.242 -0.542898 -4.25148 0
M  V30 2750 H 267.426 -1.37637 -4.76833 0
M  V30 2751 H 262.682 -2.5488 -5.55739 0
M  V30 2752 H 266.856 -3.38147 -6.08793 0
M  V30 2753 H 264.483 -3.97353 -6.48086 0
M  V30 2754 N 266.058 1.56714 -0.166846 0
M  V30 2755 C 267.286 2.0112 0.485644 0
M  V30 2756 C 267.701 1.04705 1.57106 0
M  V30 2757 O 267.058 0.0471923 1.82439 0
M  V30 2758 C 267.109 3.45361 1.06808 0
M  V30 2759 O 266.83 4.38092 0.0259995 0
M  V30 2760 C 268.331 4.05145 1.79924 0
M  V30 2761 H 265.551 0.65931 0.124704 0
M  V30 2762 H 268.095 2.02746 -0.267262 0
M  V30 2763 H 266.25 3.44524 1.7715 0
M  V30 2764 H 266.664 5.22519 0.455398 0
M  V30 2765 H 268.138 5.08009 2.15942 0
M  V30 2766 H 268.615 3.46982 2.69258 0
M  V30 2767 H 269.221 4.09672 1.14234 0
M  V30 2768 N 267.536 -0.106894 1.57237 0
M  V30 2769 C 268.813 -0.843526 1.76477 0
M  V30 2770 C 269.193 -1.97499 0.745464 0
M  V30 2771 O 268.541 -2.27357 -0.228306 0
M  V30 2772 C 268.751 -1.34903 3.21873 0
M  V30 2773 C 270.099 -1.79654 3.8472 0
M  V30 2774 O 271.123 -1.44554 3.2555 0
M  V30 2775 O 269.982 -2.44515 4.88748 0
M  V30 2776 H 267.076 -0.401468 0.723016 0
M  V30 2777 H 269.622 -0.0896927 1.69463 0
M  V30 2778 H 268.394 -0.53781 3.87586 0
M  V30 2779 H 268.017 -2.16522 3.33473 0
M  V30 2780 N 269.014 -1.53014 -0.377408 0
M  V30 2781 C 269.924 -1.81557 -1.48574 0
M  V30 2782 C 270.94 -0.703102 -1.59162 0
M  V30 2783 O 272.116 -0.99192 -1.75279 0
M  V30 2784 C 269.181 -1.9889 -2.83978 0
M  V30 2785 C 268.242 -3.22801 -2.83016 0
M  V30 2786 C 267.475 -3.39298 -4.11962 0
M  V30 2787 O 267.698 -2.60345 -5.0752 0
M  V30 2788 O 266.632 -4.32604 -4.18494 0
M  V30 2789 H 270.458 -2.75695 -1.27382 0
M  V30 2790 H 268.043 -1.38248 -0.566373 0
M  V30 2791 H 269.925 -2.11931 -3.6423 0
M  V30 2792 H 268.6 -1.07942 -3.05172 0
M  V30 2793 H 267.507 -3.15193 -2.01505 0
M  V30 2794 H 268.84 -4.13632 -2.66775 0
M  V30 2795 N 270.492 0.636531 -1.44174 0
M  V30 2796 C 271.424 1.7618 -1.46606 0
M  V30 2797 C 272.437 1.58768 -0.360091 0
M  V30 2798 O 273.626 1.67181 -0.625518 0
M  V30 2799 C 270.726 3.13833 -1.27915 0
M  V30 2800 C 269.899 3.57753 -2.51658 0
M  V30 2801 C 268.958 4.74265 -2.27945 0
M  V30 2802 O 267.984 4.82852 -3.01401 0
M  V30 2803 N 269.186 5.65604 -1.30662 0
M  V30 2804 H 271.951 1.74567 -2.43612 0
M  V30 2805 H 269.512 0.820924 -1.39544 0
M  V30 2806 H 271.504 3.8949 -1.09907 0
M  V30 2807 H 270.074 3.10121 -0.39293 0
M  V30 2808 H 269.294 2.72362 -2.84978 0
M  V30 2809 H 270.582 3.83847 -3.33974 0
M  V30 2810 H 269.98 5.61354 -0.699844 0
M  V30 2811 H 268.537 6.40913 -1.18634 0
M  V30 2812 N 271.97 1.30982 0.876444 0
M  V30 2813 C 272.9 1.20668 1.99903 0
M  V30 2814 C 273.881 0.095354 1.69833 0
M  V30 2815 O 275.066 0.27885 1.92188 0
M  V30 2816 C 272.196 0.90655 3.3526 0
M  V30 2817 C 271.15 1.97675 3.79617 0
M  V30 2818 C 270.476 1.52943 5.1236 0
M  V30 2819 C 271.776 3.389 3.97422 0
M  V30 2820 H 273.47 2.14586 2.0879 0
M  V30 2821 H 271.016 1.03308 1.00317 0
M  V30 2822 H 272.969 0.821025 4.13324 0
M  V30 2823 H 271.693 -0.0682969 3.26529 0
M  V30 2824 H 270.352 2.05205 3.03787 0
M  V30 2825 H 270 0.54262 5.00065 0
M  V30 2826 H 269.7 2.24532 5.43009 0
M  V30 2827 H 271.224 1.45786 5.92941 0
M  V30 2828 H 272.638 3.34081 4.659 0
M  V30 2829 H 271.035 4.0865 4.3946 0
M  V30 2830 H 272.105 3.80163 3.01006 0
M  V30 2831 N 273.449 -1.08991 1.13837 0
M  V30 2832 C 274.698 -1.80631 0.897509 0
M  V30 2833 C 275.011 -1.86872 -0.57777 0
M  V30 2834 O 276.217 -2.54866 -0.935701 0
M  V30 2835 C 274.673 -3.24517 1.55618 0
M  V30 2836 C 274.281 -3.26529 3.0673 0
M  V30 2837 C 276.025 -4.00882 1.3962 0
M  V30 2838 C 273.932 -4.64965 3.65461 0
M  V30 2839 H 272.862 -0.67691 0.332129 0
M  V30 2840 H 275.513 -1.2246 1.3666 0
M  V30 2841 H 273.895 -3.82778 1.01476 0
M  V30 2842 H 275.069 -2.78008 3.67489 0
M  V30 2843 H 273.384 -2.63656 3.22296 0
M  V30 2844 H 275.981 -5.03167 1.80906 0
M  V30 2845 H 276.324 -4.14896 0.341578 0
M  V30 2846 H 276.857 -3.49075 1.90766 0
M  V30 2847 H 273.596 -4.56153 4.70749 0
M  V30 2848 H 273.116 -5.13792 3.09481 0
M  V30 2849 H 274.795 -5.3394 3.654 0
M  V30 2850 N 274.927 -0.932562 -1.27047 0
M  V30 2851 C 275.837 -0.441219 -2.30414 0
M  V30 2852 C 276.853 0.480525 -1.67233 0
M  V30 2853 O 278.029 0.362151 -1.98117 0
M  V30 2854 C 275.094 0.293651 -3.45454 0
M  V30 2855 C 274.155 -0.663601 -4.2414 0
M  V30 2856 C 273.388 0.0362932 -5.33688 0
M  V30 2857 O 273.611 1.2548 -5.56427 0
M  V30 2858 O 272.545 -0.638015 -5.98509 0
M  V30 2859 H 276.371 -1.29962 -2.74488 0
M  V30 2860 H 273.956 -0.6981 -1.32087 0
M  V30 2861 H 275.838 0.707951 -4.15411 0
M  V30 2862 H 274.513 1.12758 -3.03426 0
M  V30 2863 H 273.42 -1.12768 -3.56699 0
M  V30 2864 H 274.753 -1.46489 -4.69896 0
M  V30 2865 N 276.405 1.4127 -0.698611 0
M  V30 2866 C 277.353 2.32588 -0.023855 0
M  V30 2867 C 278.347 1.51128 0.765292 0
M  V30 2868 O 279.553 1.67043 0.670571 0
M  V30 2869 H 275.928 0.751918 0.0110871 0
M  V30 2870 H 277.899 2.87167 -0.811031 0
M  V30 2871 C 276.648 3.35947 0.896369 0
M  V30 2872 H 275.971 3.98684 0.298548 0
M  V30 2873 H 277.411 4.02376 1.33676 0
M  V30 2874 C 275.87 2.70076 2.01396 0
M  V30 2875 O 276.4 2.55093 3.10307 0
M  V30 2876 N 274.606 2.28724 1.79259 0
M  V30 2877 H 274.153 2.4111 0.906841 0
M  V30 2878 H 274.111 1.84986 2.54219 0
M  V30 2879 N 277.883 0.443576 1.51229 0
M  V30 2880 C 279.13 -0.120796 2.02139 0
M  V30 2881 C 279.458 -1.42166 1.32736 0
M  V30 2882 O 278.713 -1.90849 0.43301 0
M  V30 2883 C 279.012 -0.380579 3.55368 0
M  V30 2884 C 278.678 0.83523 4.43097 0
M  V30 2885 C 277.34 1.16864 4.66794 0
M  V30 2886 C 279.692 1.64601 4.94526 0
M  V30 2887 C 277.02 2.31339 5.39165 0
M  V30 2888 C 279.372 2.78181 5.68153 0
M  V30 2889 C 278.036 3.11969 5.90112 0
M  V30 2890 H 277.306 -0.0442023 0.73968 0
M  V30 2891 H 279.953 0.592046 1.82118 0
M  V30 2892 H 278.258 -1.17538 3.73754 0
M  V30 2893 H 279.955 -0.830777 3.923 0
M  V30 2894 H 276.545 0.565437 4.24854 0
M  V30 2895 H 280.729 1.40163 4.76097 0
M  V30 2896 H 275.985 2.57823 5.5438 0
M  V30 2897 H 280.159 3.41371 6.06992 0
M  V30 2898 H 277.786 4.00784 6.45969 0
M  V30 2899 N 279.361 -1.56624 0.175154 0
M  V30 2900 C 280.309 -2.19468 -0.770495 0
M  V30 2901 C 281.303 -1.15985 -1.23466 0
M  V30 2902 O 282.509 -1.34176 -1.19987 0
M  V30 2903 H 278.884 -0.703095 -0.266761 0
M  V30 2904 H 280.855 -2.97613 -0.216542 0
M  V30 2905 C 279.604 -2.85264 -1.98796 0
M  V30 2906 H 278.927 -3.64623 -1.63983 0
M  V30 2907 H 280.367 -3.327 -2.62843 0
M  V30 2908 C 278.826 -1.85239 -2.81404 0
M  V30 2909 O 279.356 -1.34024 -3.78682 0
M  V30 2910 N 277.562 -1.53911 -2.46495 0
M  V30 2911 H 277.109 -1.95751 -1.67449 0
M  V30 2912 H 277.067 -0.872382 -3.02054 0
M  V30 2913 N 280.839 0.0985539 -1.57292 0
M  V30 2914 C 282.067 0.816318 -1.90115 0
M  V30 2915 C 282.482 1.72451 -0.768509 0
M  V30 2916 O 281.839 1.80643 0.259687 0
M  V30 2917 C 281.89 1.63259 -3.22535 0
M  V30 2918 O 281.611 0.760934 -4.31441 0
M  V30 2919 C 283.112 2.45372 -3.69199 0
M  V30 2920 H 280.332 0.233595 -0.629027 0
M  V30 2921 H 282.876 0.0768229 -2.04356 0
M  V30 2922 H 281.031 2.32463 -3.09903 0
M  V30 2923 H 281.445 1.32595 -5.07463 0
M  V30 2924 H 282.919 2.98144 -4.64558 0
M  V30 2925 H 283.396 3.23677 -2.96867 0
M  V30 2926 H 284.002 1.81373 -3.84687 0
M  V30 2927 N 282.317 1.53212 0.369288 0
M  V30 2928 C 283.247 1.82365 1.45826 0
M  V30 2929 C 284.228 0.676907 1.56051 0
M  V30 2930 O 285.413 0.926401 1.70679 0
M  V30 2931 C 282.543 2.01023 2.83208 0
M  V30 2932 C 281.497 3.1678 2.8781 0
M  V30 2933 C 280.823 3.20724 4.27832 0
M  V30 2934 C 282.123 4.55447 2.55667 0
M  V30 2935 H 283.817 2.73559 1.21678 0
M  V30 2936 H 281.363 1.3163 0.583911 0
M  V30 2937 H 283.316 2.20001 3.59413 0
M  V30 2938 H 282.04 1.06536 3.08736 0
M  V30 2939 H 280.699 2.97616 2.14056 0
M  V30 2940 H 280.347 2.23882 4.50429 0
M  V30 2941 H 280.047 3.98496 4.31827 0
M  V30 2942 H 281.571 3.41881 5.05915 0
M  V30 2943 H 282.985 4.74611 3.21586 0
M  V30 2944 H 281.382 5.35432 2.70984 0
M  V30 2945 H 282.452 4.60812 1.5093 0
M  V30 2946 N 283.795 -0.628877 1.44509 0
M  V30 2947 C 284.727 -1.754 1.47538 0
M  V30 2948 C 285.74 -1.58575 0.368506 0
M  V30 2949 O 286.929 -1.66847 0.634376 0
M  V30 2950 C 284.029 -3.1315 1.29577 0
M  V30 2951 C 283.202 -3.56413 2.53551 0
M  V30 2952 C 282.261 -4.7305 2.30457 0
M  V30 2953 O 281.287 -4.81247 3.03957 0
M  V30 2954 N 282.489 -5.64903 1.3366 0
M  V30 2955 H 285.254 -1.73272 2.44534 0
M  V30 2956 H 282.815 -0.813512 1.39977 0
M  V30 2957 H 284.807 -3.88902 1.11971 0
M  V30 2958 H 283.377 -3.09908 0.409371 0
M  V30 2959 H 282.597 -2.70847 2.86419 0
M  V30 2960 H 283.885 -3.82071 3.36005 0
M  V30 2961 H 283.283 -5.60975 0.729604 0
M  V30 2962 H 281.84 -6.40275 1.22032 0
M  V30 2963 N 285.273 -1.31445 -0.869486 0
M  V30 2964 C 286.55 -1.11795 -1.60503 0
M  V30 2965 C 286.93 0.327168 -2.08549 0
M  V30 2966 O 286.278 1.32135 -1.8642 0
M  V30 2967 C 286.488 -2.13258 -2.76265 0
M  V30 2968 C 287.836 -2.45805 -3.46215 0
M  V30 2969 O 288.86 -2.11688 -2.86473 0
M  V30 2970 O 287.719 -3.04228 -4.5399 0
M  V30 2971 H 284.813 -0.430421 -0.706163 0
M  V30 2972 H 287.359 -1.42925 -0.914907 0
M  V30 2973 H 286.131 -3.10461 -2.3818 0
M  V30 2974 H 285.754 -1.83035 -3.52964 0
M  V30 2975 N 286.751 1.08385 -1.14413 0
M  V30 2976 C 287.997 1.81044 -0.913834 0
M  V30 2977 C 288.33 1.86004 0.558209 0
M  V30 2978 O 287.605 1.33606 1.4135 0
M  V30 2979 C 287.888 3.26648 -1.51569 0
M  V30 2980 C 287.741 3.29895 -3.0576 0
M  V30 2981 C 289.06 4.23629 -1.19273 0
M  V30 2982 H 286.179 0.65727 -0.333414 0
M  V30 2983 H 288.821 1.26896 -1.41412 0
M  V30 2984 H 286.971 3.72889 -1.09023 0
M  V30 2985 H 288.643 2.91977 -3.57137 0
M  V30 2986 H 286.886 2.69163 -3.40197 0
M  V30 2987 H 287.557 4.32516 -3.42977 0
M  V30 2988 H 290.033 3.85727 -1.56057 0
M  V30 2989 H 288.909 5.23822 -1.64017 0
M  V30 2990 H 289.17 4.41968 -0.108068 0
M  V30 2991 N 288.23 0.939286 1.26551 0
M  V30 2992 C 289.16 0.465044 2.28822 0
M  V30 2993 C 290.141 -0.480692 1.63167 0
M  V30 2994 O 291.326 -0.382955 1.90387 0
M  V30 2995 C 288.456 -0.27234 3.46231 0
M  V30 2996 C 287.41 0.58666 4.2396 0
M  V30 2997 C 286.736 -0.280573 5.33963 0
M  V30 2998 C 288.036 1.85704 4.88171 0
M  V30 2999 H 289.73 1.31979 2.68741 0
M  V30 3000 H 287.276 0.636061 1.29191 0
M  V30 3001 H 289.229 -0.615133 4.16886 0
M  V30 3002 H 287.953 -1.16121 3.0526 0
M  V30 3003 H 286.612 0.91232 3.55067 0
M  V30 3004 H 286.26 -1.16874 4.89234 0
M  V30 3005 H 285.96 0.29076 5.8688 0
M  V30 3006 H 287.484 -0.618678 6.07458 0
M  V30 3007 H 288.898 1.58161 5.51052 0
M  V30 3008 H 287.295 2.37279 5.51197 0
M  V30 3009 H 288.365 2.56957 4.11219 0
M  V30 3010 N 289.708 -1.40897 0.706093 0
M  V30 3011 C 290.671 -2.29131 0.0562841 0
M  V30 3012 C 291.671 -1.44901 -0.697166 0
M  V30 3013 O 292.861 -1.65926 -0.530484 0
M  V30 3014 C 289.993 -3.27957 -0.93043 0
M  V30 3015 H 291.186 -2.88091 0.833284 0
M  V30 3016 H 288.739 -1.4906 0.470192 0
M  V30 3017 H 289.474 -2.73997 -1.73482 0
M  V30 3018 H 289.259 -3.90124 -0.393166 0
M  V30 3019 H 290.749 -3.94049 -1.38256 0
M  V30 3020 N 291.186 -0.45159 -1.50991 0
M  V30 3021 C 292.133 0.352625 -2.2809 0
M  V30 3022 C 293.103 1.0044 -1.32291 0
M  V30 3023 O 294.288 1.02058 -1.6121 0
M  V30 3024 C 291.428 1.43983 -3.13629 0
M  V30 3025 C 290.541 0.804772 -4.24438 0
M  V30 3026 C 289.676 1.86822 -4.97263 0
M  V30 3027 C 288.715 1.21236 -5.99973 0
M  V30 3028 N 287.852 2.2178 -6.66152 0
M  V30 3029 H 292.692 -0.311186 -2.96371 0
M  V30 3030 H 290.229 -0.165308 -1.46168 0
M  V30 3031 H 292.187 2.08161 -3.61559 0
M  V30 3032 H 290.817 2.07307 -2.47434 0
M  V30 3033 H 289.869 0.0509129 -3.80366 0
M  V30 3034 H 291.181 0.286076 -4.97979 0
M  V30 3035 H 290.335 2.58628 -5.48813 0
M  V30 3036 H 289.074 2.42068 -4.23385 0
M  V30 3037 H 288.079 0.479828 -5.47702 0
M  V30 3038 H 289.304 0.667051 -6.75816 0
M  V30 3039 H 287.25 2.76079 -5.95077 0
M  V30 3040 H 287.167 1.74841 -7.35504 0
M  V30 3041 H 288.435 2.93026 -7.22327 0
M  V30 3042 N 292.664 1.56529 -0.183458 0
M  V30 3043 C 293.627 2.17324 0.728223 0
M  V30 3044 C 294.627 1.12453 1.14939 0
M  V30 3045 O 295.817 1.37902 1.06437 0
M  V30 3046 C 292.949 2.76591 1.99274 0
M  V30 3047 H 294.142 2.99241 0.198772 0
M  V30 3048 H 291.695 1.5616 0.0661391 0
M  V30 3049 H 292.43 1.98441 2.56499 0
M  V30 3050 H 292.215 3.5335 1.69959 0
M  V30 3051 H 293.705 3.23311 2.6431 0
M  V30 3052 N 294.142 -0.090211 1.57342 0
M  V30 3053 C 295.089 -1.10909 2.02405 0
M  V30 3054 C 296.059 -1.39523 0.901252 0
M  V30 3055 O 297.244 -1.50903 1.1676 0
M  V30 3056 C 294.384 -2.42277 2.45755 0
M  V30 3057 C 293.497 -2.20352 3.71576 0
M  V30 3058 C 292.632 -3.45154 4.03785 0
M  V30 3059 C 291.671 -3.18512 5.22701 0
M  V30 3060 N 290.808 -4.35593 5.50639 0
M  V30 3061 H 295.648 -0.71782 2.89225 0
M  V30 3062 H 293.185 -0.342901 1.43048 0
M  V30 3063 H 295.143 -3.18951 2.68935 0
M  V30 3064 H 293.773 -2.79242 1.61938 0
M  V30 3065 H 292.825 -1.34458 3.55844 0
M  V30 3066 H 294.137 -1.96661 4.58395 0
M  V30 3067 H 293.291 -4.30233 4.27767 0
M  V30 3068 H 292.03 -3.71904 3.15498 0
M  V30 3069 H 291.035 -2.31827 4.98534 0
M  V30 3070 H 292.26 -2.93103 6.12591 0
M  V30 3071 H 290.206 -4.6241 4.6531 0
M  V30 3072 H 290.123 -4.1511 6.31838 0
M  V30 3073 H 291.391 -5.21723 5.7916 0
M  V30 3074 N 295.62 -1.53406 -0.361157 0
M  V30 3075 C 297.031 -1.61442 -0.937728 0
M  V30 3076 C 297.382 -0.48461 -1.90121 0
M  V30 3077 O 296.507 0.388312 -2.12888 0
M  V30 3078 C 297.102 -2.92624 -1.70753 0
M  V30 3079 C 295.661 -3.02981 -2.23337 0
M  V30 3080 C 294.808 -2.5677 -1.04712 0
M  V30 3081 H 297.759 -1.58083 -0.139816 0
M  V30 3082 H 297.78 -2.80675 -2.56908 0
M  V30 3083 H 297.292 -3.74834 -1.00604 0
M  V30 3084 H 295.393 -2.25368 -2.96715 0
M  V30 3085 H 295.506 -4.0814 -2.50916 0
M  V30 3086 H 293.87 -2.11752 -1.41539 0
M  V30 3087 H 294.653 -3.41402 -0.360539 0
M  V30 3088 N 297.098 0.621204 -1.44841 0
M  V30 3089 C 298.323 1.41244 -1.51871 0
M  V30 3090 C 298.748 1.87519 -0.147764 0
M  V30 3091 O 298.106 1.59334 0.865 0
M  V30 3092 C 298.154 2.60221 -2.49634 0
M  V30 3093 O 297.258 3.60395 -2.00473 0
M  V30 3094 H 296.599 0.42223 -0.512463 0
M  V30 3095 H 299.129 0.757305 -1.90069 0
M  V30 3096 H 299.139 3.0764 -2.67996 0
M  V30 3097 H 297.814 2.25887 -3.4921 0
M  V30 3098 H 296.391 3.19717 -1.91925 0
M  V30 3099 N 298.576 1.31904 0.862503 0
M  V30 3100 C 299.801 1.25135 1.65397 0
M  V30 3101 C 300.226 -0.179 1.87246 0
M  V30 3102 O 299.584 -1.1277 1.4196 0
M  V30 3103 C 299.632 2.00832 2.99498 0
M  V30 3104 O 298.736 1.35075 3.89652 0
M  V30 3105 H 298.077 0.431655 0.504549 0
M  V30 3106 H 300.607 1.74094 1.07483 0
M  V30 3107 H 300.617 2.10709 3.49379 0
M  V30 3108 H 299.292 3.04847 2.82916 0
M  V30 3109 H 297.869 1.33696 3.48109 0
M  V30 3110 N 300.054 -1.07777 1.14986 0
M  V30 3111 C 301.017 -2.13041 0.845358 0
M  V30 3112 C 302.017 -1.60071 -0.152931 0
M  V30 3113 O 303.207 -1.74033 0.0761879 0
M  V30 3114 C 300.339 -3.39896 0.261383 0
M  V30 3115 H 301.532 -2.41485 1.77834 0
M  V30 3116 H 299.085 -1.23595 0.956757 0
M  V30 3117 H 299.82 -3.17091 -0.68 0
M  V30 3118 H 299.605 -3.79642 0.980514 0
M  V30 3119 H 301.095 -4.17548 0.0657687 0
M  V30 3120 N 301.532 -0.945985 -1.26051 0
M  V30 3121 C 302.479 -0.45809 -2.26208 0
M  V30 3122 C 303.449 0.484816 -1.58867 0
M  V30 3123 O 304.634 0.399969 -1.86561 0
M  V30 3124 C 301.774 0.266131 -3.44072 0
M  V30 3125 C 300.887 -0.713005 -4.26075 0
M  V30 3126 C 300.022 0.0329013 -5.3119 0
M  V30 3127 C 299.061 -0.93774 -6.04874 0
M  V30 3128 N 298.198 -0.223274 -7.01745 0
M  V30 3129 H 303.038 -1.3171 -2.67313 0
M  V30 3130 H 300.575 -0.66069 -1.31428 0
M  V30 3131 H 302.533 0.702514 -4.11243 0
M  V30 3132 H 301.163 1.08925 -3.03867 0
M  V30 3133 H 300.215 -1.26789 -3.58648 0
M  V30 3134 H 301.527 -1.45406 -4.77136 0
M  V30 3135 H 300.681 0.528335 -6.04395 0
M  V30 3136 H 299.42 0.806801 -4.8098 0
M  V30 3137 H 298.425 -1.44425 -5.30492 0
M  V30 3138 H 299.65 -1.71172 -6.57173 0
M  V30 3139 H 297.596 0.532046 -6.53839 0
M  V30 3140 H 297.513 -0.90357 -7.50581 0
M  V30 3141 H 298.781 0.250907 -7.79096 0
M  V30 3142 N 303.011 1.40521 -0.713556 0
M  V30 3143 C 304.259 2.00527 -0.251692 0
M  V30 3144 C 304.58 1.56857 1.15848 0
M  V30 3145 O 303.85 0.807127 1.785 0
M  V30 3146 H 302.43 0.741551 -0.0900646 0
M  V30 3147 H 305.092 1.71887 -0.918733 0
M  V30 3148 H 304.188 3.10813 -0.283192 0
M  V30 3149 N 304.489 0.459591 1.5075 0
M  V30 3150 C 305.717 -0.0973749 2.06671 0
M  V30 3151 C 306.132 -1.34524 1.32472 0
M  V30 3152 O 305.489 -1.7827 0.390634 0
M  V30 3153 C 305.54 -0.39714 3.59312 0
M  V30 3154 O 305.261 0.801214 4.30711 0
M  V30 3155 C 306.762 -1.00234 4.31819 0
M  V30 3156 H 303.982 0.00195854 0.670997 0
M  V30 3157 H 306.526 0.645072 1.94059 0
M  V30 3158 H 304.681 -1.08951 3.71764 0
M  V30 3159 H 305.095 0.538857 5.21725 0
M  V30 3160 H 306.569 -1.16193 5.39632 0
M  V30 3161 H 307.046 -1.98939 3.91561 0
M  V30 3162 H 307.652 -0.348699 4.23868 0
M  V30 3163 N 305.967 -1.56429 0.191757 0
M  V30 3164 C 307.197 -2.01574 -0.452928 0
M  V30 3165 C 307.605 -1.07107 -1.55964 0
M  V30 3166 O 306.948 -0.067534 -1.83576 0
M  V30 3167 C 307.01 -3.43121 -1.07278 0
M  V30 3168 C 306.674 -4.56879 -0.105214 0
M  V30 3169 C 307.671 -5.15379 0.684149 0
M  V30 3170 C 305.356 -5.023 0.00489824 0
M  V30 3171 C 307.35 -6.17746 1.57062 0
M  V30 3172 C 305.037 -6.04511 0.894935 0
M  V30 3173 C 306.035 -6.62108 1.67637 0
M  V30 3174 O 305.723 -7.62335 2.55149 0
M  V30 3175 H 305.455 -0.665554 -0.118379 0
M  V30 3176 H 308.009 -2.03245 0.296737 0
M  V30 3177 H 306.239 -3.38425 -1.87097 0
M  V30 3178 H 307.928 -3.72093 -1.62177 0
M  V30 3179 H 308.694 -4.81157 0.609365 0
M  V30 3180 H 304.573 -4.57168 -0.593156 0
M  V30 3181 H 308.117 -6.6263 2.181 0
M  V30 3182 H 304.014 -6.38157 0.970847 0
M  V30 3183 H 304.782 -7.79741 2.48892 0
M  V30 3184 N 307.445 0.0818655 -1.57387 0
M  V30 3185 C 308.692 0.782914 -1.86753 0
M  V30 3186 C 309.02 1.78082 -0.782118 0
M  V30 3187 O 308.275 1.94426 0.22295 0
M  V30 3188 C 308.574 1.53513 -3.22752 0
M  V30 3189 C 308.24 0.678134 -4.45771 0
M  V30 3190 C 306.902 0.441929 -4.79166 0
M  V30 3191 C 309.254 0.0832243 -5.21134 0
M  V30 3192 C 306.582 -0.398833 -5.85343 0
M  V30 3193 C 308.934 -0.744935 -6.28199 0
M  V30 3194 C 307.598 -0.991107 -6.60101 0
M  V30 3195 H 306.868 0.286489 -0.683378 0
M  V30 3196 H 309.515 0.0439808 -1.91449 0
M  V30 3197 H 307.82 2.34599 -3.138 0
M  V30 3198 H 309.517 2.08218 -3.42705 0
M  V30 3199 H 306.107 0.872357 -4.19628 0
M  V30 3200 H 310.291 0.252847 -4.95655 0
M  V30 3201 H 305.547 -0.598405 -6.08465 0
M  V30 3202 H 309.721 -1.21271 -6.8576 0
M  V30 3203 H 307.348 -1.64437 -7.42202 0
M  V30 3204 N 308.923 1.53595 0.353017 0
M  V30 3205 C 309.87 1.80919 1.43308 0
M  V30 3206 C 310.84 0.654288 1.5267 0
M  V30 3207 O 312.025 0.897759 1.6836 0
M  V30 3208 C 309.165 2.01605 2.80089 0
M  V30 3209 C 308.278 3.29321 2.79593 0
M  V30 3210 C 307.413 3.40125 4.0803 0
M  V30 3211 C 306.452 4.61826 4.01725 0
M  V30 3212 N 305.589 4.69716 5.21834 0
M  V30 3213 H 310.429 2.73074 1.19308 0
M  V30 3214 H 307.966 1.35263 0.578131 0
M  V30 3215 H 309.924 2.11586 3.59565 0
M  V30 3216 H 308.554 1.12772 3.0246 0
M  V30 3217 H 307.606 3.28229 1.92276 0
M  V30 3218 H 308.918 4.18884 2.70809 0
M  V30 3219 H 308.072 3.49488 4.95927 0
M  V30 3220 H 306.811 2.48601 4.19582 0
M  V30 3221 H 305.816 4.52552 3.12213 0
M  V30 3222 H 307.041 5.54705 3.91764 0
M  V30 3223 H 304.987 3.81097 5.33948 0
M  V30 3224 H 304.904 5.53202 5.1527 0
M  V30 3225 H 306.172 4.83376 6.11529 0
M  V30 3226 N 310.401 -0.613514 1.45168 0
M  V30 3227 C 311.626 -1.40437 1.52618 0
M  V30 3228 C 312.051 -1.87438 0.157707 0
M  V30 3229 O 311.409 -1.59791 -0.856537 0
M  V30 3230 C 311.457 -2.58894 2.51011 0
M  V30 3231 O 310.561 -3.59326 2.02382 0
M  V30 3232 H 309.902 -0.419506 0.514695 0
M  V30 3233 H 312.432 -0.747215 1.90467 0
M  V30 3234 H 312.442 -3.06214 2.69624 0
M  V30 3235 H 311.117 -2.24032 3.50403 0
M  V30 3236 H 309.694 -3.18695 1.93618 0
M  V30 3237 N 311.879 -1.3236 -0.855495 0
M  V30 3238 C 313.125 -1.23054 -1.612 0
M  V30 3239 C 313.458 0.207404 -1.93089 0
M  V30 3240 O 312.733 1.14432 -1.57275 0
M  V30 3241 C 313.016 -2.08937 -2.93287 0
M  V30 3242 C 312.869 -3.61105 -2.68185 0
M  V30 3243 C 314.188 -1.94986 -3.94549 0
M  V30 3244 H 311.307 -0.448364 -0.584926 0
M  V30 3245 H 313.949 -1.62297 -0.987917 0
M  V30 3246 H 312.099 -1.75599 -3.46551 0
M  V30 3247 H 313.771 -4.04652 -2.21483 0
M  V30 3248 H 312.014 -3.83813 -2.02164 0
M  V30 3249 H 312.685 -4.16522 -3.62234 0
M  V30 3250 H 315.161 -2.24189 -3.5054 0
M  V30 3251 H 314.037 -2.57356 -4.84829 0
M  V30 3252 H 314.298 -0.917263 -4.3248 0
M  V30 3253 N 313.357 1.07166 -1.15556 0
M  V30 3254 C 314.32 2.12589 -0.856644 0
M  V30 3255 C 315.32 1.6015 0.14444 0
M  V30 3256 O 316.51 1.7399 -0.0854163 0
M  V30 3257 C 313.642 3.39753 -0.279405 0
M  V30 3258 H 314.835 2.40539 -1.79112 0
M  V30 3259 H 312.388 1.23086 -0.963298 0
M  V30 3260 H 313.123 3.17447 0.663174 0
M  V30 3261 H 312.908 3.79117 -1.00063 0
M  V30 3262 H 314.398 4.17507 -0.0879113 0
M  V30 3263 N 314.835 0.952656 1.25548 0
M  V30 3264 C 316.081 0.607272 1.93494 0
M  V30 3265 C 316.414 -0.853245 1.74452 0
M  V30 3266 O 315.689 -1.61194 1.08843 0
M  V30 3267 C 315.972 0.96435 3.46947 0
M  V30 3268 C 315.825 2.48045 3.75225 0
M  V30 3269 C 317.144 0.487987 4.37386 0
M  V30 3270 H 314.263 0.222096 0.702739 0
M  V30 3271 H 316.905 1.18895 1.48203 0
M  V30 3272 H 315.055 0.469361 3.85654 0
M  V30 3273 H 316.727 3.04905 3.46166 0
M  V30 3274 H 314.97 2.919 3.209 0
M  V30 3275 H 315.641 2.6808 4.82532 0
M  V30 3276 H 318.117 0.912558 4.0597 0
M  V30 3277 H 316.993 0.766547 5.43521 0
M  V30 3278 H 317.254 -0.612063 4.37843 0
M  V30 3279 N 316.313 -1.40141 0.720998 0
M  V30 3280 C 317.541 -2.05096 0.272656 0
M  V30 3281 C 317.956 -1.54334 -1.0875 0
M  V30 3282 O 317.313 -0.702211 -1.6845 0
M  V30 3283 C 317.364 -3.60636 0.249835 0
M  V30 3284 O 317.085 -4.09526 1.55629 0
M  V30 3285 C 318.586 -4.42772 -0.216396 0
M  V30 3286 H 315.806 -0.659897 0.121558 0
M  V30 3287 H 318.35 -1.79449 0.980723 0
M  V30 3288 H 316.505 -3.85232 -0.409237 0
M  V30 3289 H 316.919 -5.03758 1.4604 0
M  V30 3290 H 318.393 -5.51702 -0.181212 0
M  V30 3291 H 318.87 -4.20756 -1.25941 0
M  V30 3292 H 319.476 -4.23294 0.412596 0
M  V30 3293 N 317.792 -0.46758 -1.50504 0
M  V30 3294 C 319.02 0.0864133 -2.06719 0
M  V30 3295 C 319.435 1.33819 -1.33184 0
M  V30 3296 O 318.792 1.78061 -0.400083 0
M  V30 3297 C 318.843 0.378079 -3.59517 0
M  V30 3298 O 318.564 -0.824044 -4.3028 0
M  V30 3299 C 320.065 0.979426 -4.32345 0
M  V30 3300 H 317.285 -0.00551697 -0.670977 0
M  V30 3301 H 319.829 -0.655354 -1.93715 0
M  V30 3302 H 317.984 1.06977 -3.72337 0
M  V30 3303 H 318.398 -0.566518 -5.21432 0
M  V30 3304 H 319.872 1.1333 -5.40241 0
M  V30 3305 H 320.349 1.9686 -3.9261 0
M  V30 3306 H 320.955 0.326216 -4.24047 0
M  V30 3307 N 319.27 1.56325 -0.20005 0
M  V30 3308 C 320.498 2.02105 0.442874 0
M  V30 3309 C 320.913 1.08014 1.5485 0
M  V30 3310 O 320.27 0.0858797 1.82298 0
M  V30 3311 C 320.321 3.47549 0.994583 0
M  V30 3312 O 320.042 4.38049 -0.0669322 0
M  V30 3313 C 321.543 4.0887 1.7129 0
M  V30 3314 H 318.763 0.661807 0.110691 0
M  V30 3315 H 321.307 2.02134 -0.310207 0
M  V30 3316 H 319.462 3.48204 1.69803 0
M  V30 3317 H 319.876 5.23368 0.344462 0
M  V30 3318 H 321.35 5.12475 2.05118 0
M  V30 3319 H 321.827 3.52615 2.61838 0
M  V30 3320 H 322.433 4.12002 1.05518 0
M  V30 3321 N 320.748 -0.0735177 1.57428 0
M  V30 3322 C 321.681 -1.11932 1.98863 0
M  V30 3323 C 322.659 -1.37666 0.865266 0
M  V30 3324 O 323.843 -1.51068 1.12742 0
M  V30 3325 C 320.97 -2.46403 2.32386 0
M  V30 3326 C 320.016 -2.36815 3.54713 0
M  V30 3327 S 320.849 -1.76392 5.05614 0
M  V30 3328 C 322.005 -3.12444 5.42337 0
M  V30 3329 H 322.238 -0.766212 2.87257 0
M  V30 3330 H 319.771 -0.281987 1.51803 0
M  V30 3331 H 321.729 -3.23755 2.52375 0
M  V30 3332 H 320.39 -2.78876 1.44524 0
M  V30 3333 H 319.583 -3.35977 3.7568 0
M  V30 3334 H 319.185 -1.67598 3.34345 0
M  V30 3335 H 321.477 -4.08753 5.40303 0
M  V30 3336 H 322.42 -2.96258 6.43146 0
M  V30 3337 H 322.828 -3.1297 4.69798 0
M  V30 3338 N 322.226 -1.5378 -0.344866 0
M  V30 3339 C 323.474 -1.70625 -1.08311 0
M  V30 3340 C 323.795 -0.471447 -1.89215 0
M  V30 3341 O 323.065 0.514616 -1.8902 0
M  V30 3342 H 321.645 -0.629058 -0.402859 0
M  V30 3343 H 324.307 -1.9103 -0.386459 0
M  V30 3344 H 323.403 -2.57656 -1.76124 0
M  V30 3345 N 323.704 0.605807 -1.45491 0
M  V30 3346 C 325.115 1.18777 -1.44045 0
M  V30 3347 C 325.466 1.95471 -0.169001 0
M  V30 3348 O 324.591 2.0374 0.729324 0
M  V30 3349 C 325.186 2.16064 -2.60963 0
M  V30 3350 C 323.745 2.69633 -2.62631 0
M  V30 3351 C 322.892 1.45072 -2.36325 0
M  V30 3352 H 325.843 0.395017 -1.53705 0
M  V30 3353 H 325.864 2.9913 -2.35163 0
M  V30 3354 H 325.376 1.60217 -3.53486 0
M  V30 3355 H 323.477 3.29414 -1.74119 0
M  V30 3356 H 323.59 3.13944 -3.61906 0
M  V30 3357 H 321.954 1.74089 -1.85917 0
M  V30 3358 H 322.737 0.910899 -3.30995 0
M  V30 3359 N 325.182 1.32811 0.848464 0
M  V30 3360 C 326.43 1.23479 1.59991 0
M  V30 3361 C 326.751 -0.201853 1.93952 0
M  V30 3362 O 326.021 -1.12818 1.60153 0
M  V30 3363 H 324.601 0.454034 0.593179 0
M  V30 3364 H 327.263 1.66412 1.01455 0
M  V30 3365 H 326.359 1.82178 2.53412 0
M  V30 3366 N 326.66 -1.06551 1.16123 0
M  V30 3367 C 327.906 -1.79567 0.94252 0
M  V30 3368 C 328.239 -1.86869 -0.528547 0
M  V30 3369 O 327.514 -1.35838 -1.39206 0
M  V30 3370 C 327.797 -3.24195 1.56747 0
M  V30 3371 C 327.65 -3.24989 3.10969 0
M  V30 3372 C 328.969 -4.21678 1.25998 0
M  V30 3373 H 326.088 -0.651883 0.343828 0
M  V30 3374 H 328.73 -1.2463 1.43413 0
M  V30 3375 H 326.88 -3.71107 1.14942 0
M  V30 3376 H 328.552 -2.86258 3.61737 0
M  V30 3377 H 326.795 -2.63716 3.44436 0
M  V30 3378 H 327.466 -4.27005 3.49815 0
M  V30 3379 H 329.942 -3.83196 1.62174 0
M  V30 3380 H 328.818 -5.21146 1.7233 0
M  V30 3381 H 329.079 -4.4174 0.178367 0
M  V30 3382 N 328.138 -0.959301 -1.25041 0
M  V30 3383 C 329.085 -0.482057 -2.2571 0
M  V30 3384 C 330.055 0.467939 -1.59372 0
M  V30 3385 O 331.24 0.380159 -1.86974 0
M  V30 3386 C 328.38 0.229623 -3.44335 0
M  V30 3387 C 327.493 -0.758156 -4.25295 0
M  V30 3388 C 326.628 -0.0234403 -5.31195 0
M  V30 3389 C 325.667 -1.00184 -6.03846 0
M  V30 3390 N 324.804 -0.29769 -7.01469 0
M  V30 3391 H 329.644 -1.34538 -2.65901 0
M  V30 3392 H 327.181 -0.674592 -1.3072 0
M  V30 3393 H 329.139 0.658856 -4.11965 0
M  V30 3394 H 327.769 1.05696 -3.05005 0
M  V30 3395 H 326.821 -1.30586 -3.57284 0
M  V30 3396 H 328.133 -1.50458 -4.75567 0
M  V30 3397 H 327.287 0.464201 -6.04922 0
M  V30 3398 H 326.026 0.755741 -4.81809 0
M  V30 3399 H 325.031 -1.50044 -5.2893 0
M  V30 3400 H 326.256 -1.78133 -6.55321 0
M  V30 3401 H 324.202 0.462668 -6.54366 0
M  V30 3402 H 324.119 -0.983128 -7.4958 0
M  V30 3403 H 325.387 0.16826 -7.79318 0
M  V30 3404 N 329.616 1.39756 -0.72842 0
M  V30 3405 C 330.865 1.99879 -0.270407 0
M  V30 3406 C 331.178 1.58449 1.14688 0
M  V30 3407 O 332.384 2.11362 1.70407 0
M  V30 3408 C 330.84 3.57292 -0.43252 0
M  V30 3409 C 330.448 4.07688 -1.85727 0
M  V30 3410 C 332.192 4.24485 -0.0359507 0
M  V30 3411 C 330.099 5.5765 -1.96928 0
M  V30 3412 H 329.029 0.747689 -0.0973472 0
M  V30 3413 H 331.68 1.59837 -0.901355 0
M  V30 3414 H 330.062 3.95097 0.267219 0
M  V30 3415 H 331.236 3.81231 -2.58843 0
M  V30 3416 H 329.551 3.53135 -2.20646 0
M  V30 3417 H 332.148 5.34609 -0.0987484 0
M  V30 3418 H 332.491 4.03915 1.00787 0
M  V30 3419 H 333.024 3.9183 -0.686604 0
M  V30 3420 H 329.763 5.8309 -2.99476 0
M  V30 3421 H 329.283 5.8593 -1.28241 0
M  V30 3422 H 330.962 6.22957 -1.74737 0
M  V30 3423 N 331.094 0.475555 1.50254 0
M  V30 3424 C 332.371 -0.139685 1.95101 0
M  V30 3425 C 332.751 -1.56555 1.41611 0
M  V30 3426 O 332.099 -2.19956 0.618993 0
M  V30 3427 C 332.309 -0.0784298 3.48912 0
M  V30 3428 C 333.657 -0.265095 4.23772 0
M  V30 3429 O 334.681 -0.154808 3.55863 0
M  V30 3430 O 333.54 -0.488327 5.44314 0
M  V30 3431 H 330.634 -0.109236 0.819754 0
M  V30 3432 H 333.18 0.536276 1.61004 0
M  V30 3433 H 331.952 0.916918 3.80405 0
M  V30 3434 H 331.575 -0.795655 3.89558 0
M  V30 3435 N 332.573 -1.56217 0.208337 0
M  V30 3436 C 333.801 -2.02337 -0.43215 0
M  V30 3437 C 334.216 -1.08834 -1.54275 0
M  V30 3438 O 333.573 -0.0955462 -1.8225 0
M  V30 3439 C 333.624 -3.48072 -0.976138 0
M  V30 3440 O 333.345 -4.38007 0.0901621 0
M  V30 3441 C 334.846 -4.09773 -1.69119 0
M  V30 3442 H 332.066 -0.662385 -0.10718 0
M  V30 3443 H 334.61 -2.01966 0.320923 0
M  V30 3444 H 332.765 -3.49099 -1.67954 0
M  V30 3445 H 333.179 -5.23543 -0.316701 0
M  V30 3446 H 334.653 -5.13556 -2.02397 0
M  V30 3447 H 335.13 -3.53999 -2.59964 0
M  V30 3448 H 335.736 -4.12556 -1.03332 0
M  V30 3449 N 334.051 0.0651679 -1.57465 0
M  V30 3450 C 335.014 1.06117 -2.03155 0
M  V30 3451 C 336.014 1.31204 -0.929632 0
M  V30 3452 O 337.204 1.26813 -1.19432 0
M  V30 3453 C 334.336 2.4032 -2.41783 0
M  V30 3454 H 335.529 0.667231 -2.92383 0
M  V30 3455 H 333.082 0.311075 -1.53173 0
M  V30 3456 H 333.817 2.84532 -1.55601 0
M  V30 3457 H 333.602 2.23451 -3.22199 0
M  V30 3458 H 335.092 3.11898 -2.77685 0
M  V30 3459 N 335.529 1.53961 0.336706 0
M  V30 3460 C 336.754 1.75797 1.10046 0
M  V30 3461 C 337.179 0.498985 1.81361 0
M  V30 3462 O 336.537 -0.548769 1.72795 0
M  V30 3463 C 336.585 2.94257 2.08436 0
M  V30 3464 O 335.689 2.64883 3.16087 0
M  V30 3465 H 335.03 0.582936 0.317934 0
M  V30 3466 H 337.56 2.00945 0.38501 0
M  V30 3467 H 337.57 3.21237 2.51537 0
M  V30 3468 H 336.245 3.85564 1.55927 0
M  V30 3469 H 334.822 2.48812 2.77753 0
M  V30 3470 N 337.007 -0.598083 1.45811 0
M  V30 3471 C 338.254 -1.35681 1.50323 0
M  V30 3472 C 338.582 -1.9393 0.148739 0
M  V30 3473 O 337.837 -1.76094 -0.853787 0
M  V30 3474 C 338.136 -2.51669 2.53766 0
M  V30 3475 C 337.802 -2.11508 3.98215 0
M  V30 3476 C 336.464 -2.0027 4.37545 0
M  V30 3477 C 338.816 -1.80308 4.89018 0
M  V30 3478 C 336.144 -1.56067 5.65562 0
M  V30 3479 C 338.496 -1.37589 6.17456 0
M  V30 3480 C 337.16 -1.24916 6.55708 0
M  V30 3481 H 336.43 -0.496492 0.550069 0
M  V30 3482 H 339.077 -0.675052 1.79207 0
M  V30 3483 H 337.382 -3.25225 2.18486 0
M  V30 3484 H 339.079 -3.09895 2.54492 0
M  V30 3485 H 335.669 -2.21185 3.67117 0
M  V30 3486 H 339.853 -1.87884 4.59362 0
M  V30 3487 H 335.109 -1.44886 5.93985 0
M  V30 3488 H 339.283 -1.12495 6.87254 0
M  V30 3489 H 336.91 -0.904386 7.54801 0
M  V30 3490 N 338.485 -1.33259 -0.841409 0
M  V30 3491 C 339.432 -1.23302 -1.95103 0
M  V30 3492 C 340.402 -0.112204 -1.65721 0
M  V30 3493 O 341.587 -0.290038 -1.88583 0
M  V30 3494 C 338.727 -0.975583 -3.31023 0
M  V30 3495 C 337.84 -2.18243 -3.72819 0
M  V30 3496 C 336.975 -1.85936 -4.97595 0
M  V30 3497 C 336.014 -3.02866 -5.3192 0
M  V30 3498 N 335.151 -2.70565 -6.47873 0
M  V30 3499 H 339.991 -2.18207 -2.02952 0
M  V30 3500 H 337.528 -1.0851 -0.993173 0
M  V30 3501 H 339.486 -0.80677 -4.09325 0
M  V30 3502 H 338.116 -0.0632755 -3.22738 0
M  V30 3503 H 337.168 -2.46107 -2.90061 0
M  V30 3504 H 338.48 -3.05666 -3.94169 0
M  V30 3505 H 337.634 -1.65684 -5.83638 0
M  V30 3506 H 336.373 -0.957452 -4.78209 0
M  V30 3507 H 335.378 -3.23736 -4.44382 0
M  V30 3508 H 336.603 -3.93809 -5.53255 0
M  V30 3509 H 334.549 -1.8293 -6.29978 0
M  V30 3510 H 334.466 -3.51519 -6.69306 0
M  V30 3511 H 335.734 -2.53774 -7.37034 0
M  V30 3512 O 340.002 0.979171 -1.28431 0
M  V30 3513 H 340.693 1.60369 -1.08635 0
M  V30 END ATOM
M  V30 BEGIN BOND
M  V30 END BOND
M  V30 END CTAB
M  END
$$$$
