drugbank_target|Q2RJ67 5-methyltetrahydrofolate--homocysteine S-methyltransferase (DB02667)
 OpenBabel12092120253D

  0  0  0     0  0            999 V3000
M  V30 BEGIN CTAB
M  V30 COUNTS 3138 3157 0 0 0
M  V30 BEGIN ATOM
M  V30 1 H -0.908 1.98254 -0.117106 0
M  V30 2 N 0 1.576 0 0
M  V30 3 C 0.933 2.03868 1.02534 0
M  V30 4 C 1.911 0.928543 1.3348 0
M  V30 5 O 3.095 1.19667 1.45644 0
M  V30 6 C 0.222 2.43627 2.35294 0
M  V30 7 C -0.732 3.65373 2.2001 0
M  V30 8 S 0.101 5.13292 1.52614 0
M  V30 9 C 1.257 5.56322 2.86805 0
M  V30 10 H 1.49 2.90518 0.631377 0
M  V30 11 H -0.977 1.52953 0.210867 0
M  V30 12 H 0.981 2.67203 3.11629 0
M  V30 13 H -0.358 1.57376 2.7183 0
M  V30 14 H -1.165 3.90944 3.18086 0
M  V30 15 H -1.563 3.418 1.51819 0
M  V30 16 H 0.729 5.58782 3.83104 0
M  V30 17 H 1.672 6.56266 2.65933 0
M  V30 18 H 2.08 4.83886 2.90714 0
M  V30 19 N 1.4781 -0.272755 1.55222 0
M  V30 20 C 2.8891 -0.84378 1.66545 0
M  V30 21 C 3.2401 -1.87035 0.592641 0
M  V30 22 O 2.3651 -2.14761 -0.265818 0
M  V30 23 C 2.9601 -1.53723 3.01918 0
M  V30 24 C 1.5191 -2.05628 3.15268 0
M  V30 25 C 0.6661 -0.898424 2.62343 0
M  V30 26 H 3.6171 -0.0490998 1.58624 0
M  V30 27 H 3.6381 -2.40421 2.94921 0
M  V30 28 H 3.1501 -0.78983 3.79978 0
M  V30 29 H 1.2511 -2.83329 2.41983 0
M  V30 30 H 1.3641 -2.27142 4.21833 0
M  V30 31 H -0.2719 -1.29186 2.19506 0
M  V30 32 H 0.5111 -0.164528 3.42906 0
M  V30 33 N 2.9562 -1.48159 -0.537278 0
M  V30 34 C 4.1842 -1.59454 -1.31841 0
M  V30 35 C 4.5992 -0.252065 -1.8711 0
M  V30 36 O 3.9562 0.757621 -1.66031 0
M  V30 37 C 4.0072 -2.63546 -2.47439 0
M  V30 38 O 3.7282 -3.92583 -1.94449 0
M  V30 39 C 5.2292 -2.85212 -3.39366 0
M  V30 40 H 2.4492 -0.53785 -0.401196 0
M  V30 41 H 4.9932 -1.93932 -0.648891 0
M  V30 42 H 3.1482 -2.31946 -3.1029 0
M  V30 43 H 3.5622 -4.49629 -2.70063 0
M  V30 44 H 5.0362 -3.61863 -4.16844 0
M  V30 45 H 5.5132 -1.93765 -3.94147 0
M  V30 46 H 6.1192 -3.18086 -2.82314 0
M  V30 47 N 4.4343 0.785586 -1.36625 0
M  V30 48 C 5.6643 1.5722 -1.34036 0
M  V30 49 C 6.0723 1.89033 0.0795062 0
M  V30 50 O 5.4153 1.50881 1.04789 0
M  V30 51 C 5.4773 2.91759 -2.10041 0
M  V30 52 C 5.1413 2.82654 -3.59104 0
M  V30 53 C 6.1383 2.54634 -4.53274 0
M  V30 54 C 3.8233 3.01111 -4.02042 0
M  V30 55 C 5.8173 2.45177 -5.88359 0
M  V30 56 C 3.5043 2.91276 -5.37216 0
M  V30 57 C 4.5023 2.63348 -6.30188 0
M  V30 58 O 4.1903 2.53514 -7.6288 0
M  V30 59 H 3.9223 0.494177 -0.461265 0
M  V30 60 H 6.4763 0.982632 -1.8037 0
M  V30 61 H 4.7063 3.52781 -1.58375 0
M  V30 62 H 6.3953 3.53059 -2.00261 0
M  V30 63 H 7.1613 2.40073 -4.21414 0
M  V30 64 H 3.0403 3.21854 -3.30047 0
M  V30 65 H 6.5843 2.23299 -6.60896 0
M  V30 66 H 2.4813 3.054 -5.68684 0
M  V30 67 H 3.2493 2.68967 -7.73045 0
M  V30 68 N 5.9124 1.20967 1.01018 0
M  V30 69 C 6.8224 0.980157 2.13143 0
M  V30 70 C 7.8384 -0.0660665 1.73875 0
M  V30 71 O 9.0144 0.122821 2.01025 0
M  V30 72 C 6.0794 0.54216 3.42435 0
M  V30 73 C 5.1404 1.65999 3.95908 0
M  V30 74 C 4.3734 1.2428 5.19028 0
M  V30 75 O 4.5964 0.114196 5.70286 0
M  V30 76 O 3.5304 2.05271 5.65816 0
M  V30 77 H 7.3564 1.91913 2.35379 0
M  V30 78 H 4.9414 0.994099 1.11526 0
M  V30 79 H 6.8234 0.30744 4.20277 0
M  V30 80 H 5.4984 -0.36815 3.216 0
M  V30 81 H 4.4054 1.94906 3.19316 0
M  V30 82 H 5.7384 2.54753 4.21143 0
M  V30 83 N 7.3905 -1.2043 1.01659 0
M  V30 84 C 8.3005 -2.2689 0.596484 0
M  V30 85 C 9.3165 -1.70107 -0.36599 0
M  V30 86 O 10.4925 -2.00117 -0.226942 0
M  V30 87 C 7.5575 -3.4665 -0.0586659 0
M  V30 88 C 6.6185 -4.18662 0.949751 0
M  V30 89 C 5.8515 -5.32705 0.32577 0
M  V30 90 O 6.0745 -5.63656 -0.874509 0
M  V30 91 O 5.0085 -5.92803 1.04249 0
M  V30 92 H 8.8345 -2.65041 1.4828 0
M  V30 93 H 6.4195 -1.27048 0.786082 0
M  V30 94 H 8.3015 -4.19256 -0.424564 0
M  V30 95 H 6.9765 -3.10375 -0.91918 0
M  V30 96 H 5.8835 -3.48229 1.36702 0
M  V30 97 H 7.2165 -4.58878 1.78023 0
M  V30 98 N 8.8686 -0.792821 -1.36206 0
M  V30 99 C 9.7986 -0.207853 -2.32573 0
M  V30 100 C 10.7796 0.659055 -1.56813 0
M  V30 101 O 11.9646 0.592176 -1.84951 0
M  V30 102 C 9.0946 0.655449 -3.41059 0
M  V30 103 C 8.0486 -0.111842 -4.27854 0
M  V30 104 C 7.3746 0.872274 -5.27537 0
M  V30 105 C 8.6746 -1.30299 -5.05786 0
M  V30 106 H 10.3686 -1.01294 -2.81744 0
M  V30 107 H 7.9146 -0.48854 -1.3546 0
M  V30 108 H 9.8676 1.07464 -4.07467 0
M  V30 109 H 8.5916 1.49328 -2.90463 0
M  V30 110 H 7.2506 -0.512053 -3.63006 0
M  V30 111 H 6.8986 1.70523 -4.73214 0
M  V30 112 H 6.5986 0.363291 -5.86476 0
M  V30 113 H 8.1226 1.28996 -5.96818 0
M  V30 114 H 9.5366 -0.959379 -5.65216 0
M  V30 115 H 7.9336 -1.7455 -5.74154 0
M  V30 116 H 9.0036 -2.09663 -4.37229 0
M  V30 117 N 10.3467 1.47872 -0.545128 0
M  V30 118 C 11.5717 2.07391 -0.0190611 0
M  V30 119 C 11.9967 1.39688 1.25971 0
M  V30 120 O 11.3547 0.467816 1.7516 0
M  V30 121 C 11.4027 3.60188 0.172335 0
M  V30 122 O 10.5067 3.9339 1.23766 0
M  V30 123 H 9.8477 0.662411 -0.0459059 0
M  V30 124 H 12.3777 1.90066 -0.757365 0
M  V30 125 H 12.3877 4.06129 0.390305 0
M  V30 126 H 11.0627 4.08865 -0.761725 0
M  V30 127 H 9.6397 3.5921 1.00114 0
M  V30 128 N 11.8248 0.280983 1.55075 0
M  V30 129 C 12.7568 -0.637268 2.20163 0
M  V30 130 C 13.7698 -1.11298 1.18813 0
M  V30 131 O 14.9588 -1.03388 1.4551 0
M  V30 132 C 12.0588 -1.88199 2.81841 0
M  V30 133 C 11.2318 -1.55211 4.08936 0
M  V30 134 C 10.2908 -2.64991 4.54606 0
M  V30 135 O 9.3168 -2.30929 5.2025 0
M  V30 136 N 10.5188 -3.95161 4.25238 0
M  V30 137 H 13.2838 -0.0801694 2.99593 0
M  V30 138 H 10.8448 0.102329 1.61576 0
M  V30 139 H 12.8368 -2.60948 3.09335 0
M  V30 140 H 11.4068 -2.34799 2.06369 0
M  V30 141 H 10.6268 -0.658185 3.88666 0
M  V30 142 H 11.9148 -1.30681 4.91732 0
M  V30 143 H 11.3128 -4.25653 3.72607 0
M  V30 144 H 9.8698 -4.6427 4.5749 0
M  V30 145 N 13.3029 -1.57598 0.00835791 0
M  V30 146 C 14.2659 -2.07884 -0.965242 0
M  V30 147 C 15.2659 -0.989825 -1.26725 0
M  V30 148 O 16.4559 -1.25218 -1.21104 0
M  V30 149 C 13.5879 -2.52731 -2.28779 0
M  V30 150 H 14.7809 -2.95178 -0.530112 0
M  V30 151 H 12.3339 -1.54458 -0.239283 0
M  V30 152 H 13.0689 -1.68705 -2.76964 0
M  V30 153 H 12.8539 -3.32272 -2.08177 0
M  V30 154 H 14.3439 -2.91933 -2.98605 0
M  V30 155 N 14.781 0.264519 -1.55364 0
M  V30 156 C 16.027 0.99646 -1.76631 0
M  V30 157 C 16.36 1.85632 -0.570478 0
M  V30 158 O 15.635 1.89647 0.43175 0
M  V30 159 C 15.918 1.87187 -3.07625 0
M  V30 160 C 15.771 1.04138 -4.37579 0
M  V30 161 C 17.09 2.85749 -3.34717 0
M  V30 162 H 14.209 0.360841 -0.642622 0
M  V30 163 H 16.851 0.268218 -1.88097 0
M  V30 164 H 15.001 2.49279 -2.9798 0
M  V30 165 H 16.673 0.440517 -4.59192 0
M  V30 166 H 14.916 0.345115 -4.32425 0
M  V30 167 H 15.587 1.68729 -5.2558 0
M  V30 168 H 18.063 2.33793 -3.4421 0
M  V30 169 H 16.939 3.44136 -4.27623 0
M  V30 170 H 17.2 3.61311 -2.54768 0
M  V30 171 N 16.2591 1.48442 0.529413 0
M  V30 172 C 17.5061 1.56488 1.28521 0
M  V30 173 C 17.8341 0.239042 1.93025 0
M  V30 174 O 17.0891 -0.770713 1.79885 0
M  V30 175 C 17.3881 2.6523 2.39558 0
M  V30 176 C 17.0541 4.07648 1.92702 0
M  V30 177 C 15.7161 4.46411 1.79641 0
M  V30 178 C 18.0681 4.96896 1.573 0
M  V30 179 C 15.3961 5.72226 1.29514 0
M  V30 180 C 17.7481 6.23202 1.08636 0
M  V30 181 C 16.4121 6.60821 0.941919 0
M  V30 182 H 15.6821 0.572631 0.470292 0
M  V30 183 H 18.3291 1.82161 0.59072 0
M  V30 184 H 16.6341 2.33419 3.14679 0
M  V30 185 H 18.3311 2.68671 2.97686 0
M  V30 186 H 14.9211 3.77036 2.03819 0
M  V30 187 H 19.1051 4.67626 1.66251 0
M  V30 188 H 14.3611 6.00097 1.17019 0
M  V30 189 H 18.5351 6.91753 0.803136 0
M  V30 190 H 16.1621 7.58198 0.5513 0
M  V30 191 N 17.7372 -0.778329 1.37039 0
M  V30 192 C 18.6472 -1.92253 1.34446 0
M  V30 193 C 19.6632 -1.72267 0.244991 0
M  V30 194 O 20.8392 -1.95615 0.479258 0
M  V30 195 C 17.9042 -3.27282 1.144 0
M  V30 196 C 16.9652 -3.59969 2.33925 0
M  V30 197 C 16.1982 -4.88555 2.14825 0
M  V30 198 O 16.4212 -5.59113 1.12912 0
M  V30 199 O 15.3552 -5.20153 3.02861 0
M  V30 200 H 19.1812 -1.97392 2.30803 0
M  V30 201 H 16.7662 -0.920154 1.17701 0
M  V30 202 H 18.6482 -4.08062 1.05182 0
M  V30 203 H 17.3232 -3.23011 0.211124 0
M  V30 204 H 16.2302 -2.7945 2.48714 0
M  V30 205 H 17.5632 -3.68976 3.25757 0
M  V30 206 N 19.2153 -1.21501 -1.00376 0
M  V30 207 C 20.4633 -1.03095 -1.73827 0
M  V30 208 C 20.7843 0.436341 -1.90055 0
M  V30 209 O 20.0543 1.31466 -1.45236 0
M  V30 210 H 18.6343 -0.378487 -0.644016 0
M  V30 211 H 21.2963 -1.52831 -1.20949 0
M  V30 212 H 20.3923 -1.49991 -2.73695 0
M  V30 213 N 20.6934 1.19889 -1.02296 0
M  V30 214 C 21.9704 1.85148 -0.630832 0
M  V30 215 C 22.3504 1.91385 0.890782 0
M  V30 216 O 21.6984 1.42642 1.78509 0
M  V30 217 C 21.9084 3.24442 -1.28602 0
M  V30 218 C 23.2564 4.00663 -1.4055 0
M  V30 219 O 24.2804 3.33818 -1.24273 0
M  V30 220 O 23.1394 5.20387 -1.66913 0
M  V30 221 H 20.2334 0.797613 -0.218499 0
M  V30 222 H 22.7794 1.27427 -1.12074 0
M  V30 223 H 21.5514 3.14704 -2.32545 0
M  V30 224 H 21.1744 3.89802 -0.7836 0
M  V30 225 N 22.1715 0.800033 1.35784 0
M  V30 226 C 23.0815 0.207204 2.33683 0
M  V30 227 C 24.0975 -0.64631 1.61551 0
M  V30 228 O 25.2735 -0.559604 1.93469 0
M  V30 229 C 22.3385 -0.639659 3.40748 0
M  V30 230 C 21.3995 0.233585 4.28664 0
M  V30 231 C 20.6325 -0.572954 5.30616 0
M  V30 232 O 20.8555 -1.80816 5.40982 0
M  V30 233 O 19.7895 0.0327285 6.01891 0
M  V30 234 H 23.6155 1.01692 2.86169 0
M  V30 235 H 21.2005 0.561691 1.38439 0
M  V30 236 H 23.0825 -1.12223 4.06182 0
M  V30 237 H 21.7575 -1.42708 2.90544 0
M  V30 238 H 20.6645 0.763147 3.66233 0
M  V30 239 H 21.9975 0.984784 4.82248 0
M  V30 240 N 23.6496 -1.47581 0.552962 0
M  V30 241 C 24.6126 -2.28439 -0.186605 0
M  V30 242 C 25.6126 -1.36706 -0.84665 0
M  V30 243 O 26.8026 -1.59378 -0.703164 0
M  V30 244 C 23.9346 -3.16264 -1.2724 0
M  V30 245 H 25.1276 -2.95294 0.523609 0
M  V30 246 H 22.6806 -1.532 0.309745 0
M  V30 247 H 23.4156 -2.54091 -2.01514 0
M  V30 248 H 23.2006 -3.83769 -0.803968 0
M  V30 249 H 24.6906 -3.77198 -1.79196 0
M  V30 250 N 25.1277 -0.289203 -1.54924 0
M  V30 251 C 26.0597 0.625583 -2.20497 0
M  V30 252 C 27.0727 1.10667 -1.19402 0
M  V30 253 O 28.2617 1.02615 -1.46056 0
M  V30 254 C 25.3617 1.86702 -2.82835 0
M  V30 255 C 24.5347 1.5304 -4.09753 0
M  V30 256 C 23.5937 2.62576 -4.56005 0
M  V30 257 O 22.6197 2.28167 -5.21468 0
M  V30 258 N 23.8217 3.92901 -4.27328 0
M  V30 259 H 26.5867 0.0642801 -2.99631 0
M  V30 260 H 24.1477 -0.110896 -1.6152 0
M  V30 261 H 26.1397 2.59304 -3.10715 0
M  V30 262 H 24.7097 2.33702 -2.07611 0
M  V30 263 H 23.9297 0.637564 -3.8901 0
M  V30 264 H 25.2177 1.28072 -4.92418 0
M  V30 265 H 24.6157 4.23671 -3.74859 0
M  V30 266 H 23.1727 4.61837 -4.59946 0
M  V30 267 N 26.6058 1.57591 -0.0167156 0
M  V30 268 C 27.8518 1.91567 0.665582 0
M  V30 269 C 28.1848 0.892298 1.72487 0
M  V30 270 O 27.4598 -0.0867127 1.94307 0
M  V30 271 C 27.7428 3.36069 1.29342 0
M  V30 272 C 27.5958 4.49135 0.244541 0
M  V30 273 C 28.9148 3.803 2.21495 0
M  V30 274 H 26.0338 0.69666 0.240488 0
M  V30 275 H 28.6758 1.89866 -0.0714356 0
M  V30 276 H 26.8258 3.3765 1.92158 0
M  V30 277 H 28.4978 4.59689 -0.385228 0
M  V30 278 H 26.7408 4.3165 -0.431379 0
M  V30 279 H 27.4118 5.47242 0.723207 0
M  V30 280 H 29.8878 3.80377 1.68678 0
M  V30 281 H 28.7638 4.82127 2.62382 0
M  V30 282 H 29.0248 3.15104 3.101 0
M  V30 283 N 28.0839 -0.256276 1.55502 0
M  V30 284 C 29.3299 -0.987079 1.77157 0
M  V30 285 C 29.6629 -1.85327 0.580315 0
M  V30 286 O 28.9379 -1.89874 -0.421686 0
M  V30 287 C 29.2209 -1.85553 3.08613 0
M  V30 288 C 29.0739 -1.01816 4.38125 0
M  V30 289 C 30.3929 -2.8397 3.36228 0
M  V30 290 H 27.5119 -0.357428 0.644526 0
M  V30 291 H 30.1539 -0.258239 1.88237 0
M  V30 292 H 28.3039 -2.47695 2.99298 0
M  V30 293 H 29.9759 -0.416159 4.59419 0
M  V30 294 H 28.2189 -0.322178 4.32602 0
M  V30 295 H 28.8899 -1.65939 5.26468 0
M  V30 296 H 31.3659 -2.31964 3.45445 0
M  V30 297 H 30.2419 -3.41864 4.29442 0
M  V30 298 H 30.5029 -3.59955 2.56681 0
M  V30 299 N 29.562 -1.4872 -0.521534 0
M  V30 300 C 30.472 -1.66569 -1.65203 0
M  V30 301 C 31.488 -0.548197 -1.65139 0
M  V30 302 O 32.664 -0.820339 -1.83936 0
M  V30 303 C 29.729 -1.70917 -3.01642 0
M  V30 304 C 28.79 -2.94356 -3.12495 0
M  V30 305 C 28.023 -2.98487 -4.42426 0
M  V30 306 O 28.246 -2.10786 -5.30024 0
M  V30 307 O 27.18 -3.90746 -4.57822 0
M  V30 308 H 31.006 -2.62298 -1.5308 0
M  V30 309 H 28.591 -1.3222 -0.695565 0
M  V30 310 H 30.473 -1.7625 -3.82771 0
M  V30 311 H 29.148 -0.783633 -3.14071 0
M  V30 312 H 28.055 -2.94552 -2.3063 0
M  V30 313 H 29.388 -3.86322 -3.04986 0
M  V30 314 N 31.0401 0.771051 -1.3745 0
M  V30 315 C 31.9701 1.89827 -1.3597 0
M  V30 316 C 32.9511 1.68562 -0.228216 0
M  V30 317 O 34.1361 1.8941 -0.428675 0
M  V30 318 C 31.2661 3.2712 -1.16662 0
M  V30 319 C 30.2201 3.6295 -2.2683 0
M  V30 320 C 29.5461 4.98791 -1.92644 0
M  V30 321 C 30.8461 3.69627 -3.69017 0
M  V30 322 H 32.5401 1.91323 -2.30295 0
M  V30 323 H 30.0861 0.919082 -1.10855 0
M  V30 324 H 32.0391 4.05615 -1.14256 0
M  V30 325 H 30.7631 3.26059 -0.187926 0
M  V30 326 H 29.4221 2.86763 -2.28392 0
M  V30 327 H 29.0701 4.94271 -0.933021 0
M  V30 328 H 28.7701 5.23733 -2.66416 0
M  V30 329 H 30.2941 5.79685 -1.91826 0
M  V30 330 H 31.7081 4.38273 -3.69581 0
M  V30 331 H 30.1051 4.06067 -4.41848 0
M  V30 332 H 31.1751 2.70273 -4.02592 0
M  V30 333 N 32.5182 1.22032 0.997298 0
M  V30 334 C 33.7462 1.06841 1.7718 0
M  V30 335 C 34.1612 -0.381325 1.84909 0
M  V30 336 O 33.5182 -1.26437 1.31605 0
M  V30 337 C 33.5692 1.66814 3.20711 0
M  V30 338 O 33.2902 3.06116 3.13408 0
M  V30 339 C 34.7912 1.56838 4.14628 0
M  V30 340 H 32.0112 0.374782 0.556578 0
M  V30 341 H 34.5552 1.61532 1.2541 0
M  V30 342 H 32.7102 1.16196 3.69564 0
M  V30 343 H 33.1242 3.34926 4.0364 0
M  V30 344 H 34.5982 2.03532 5.13107 0
M  V30 345 H 35.0752 0.524155 4.36061 0
M  V30 346 H 35.6812 2.06741 3.7167 0
M  V30 347 N 33.9963 -1.19345 1.0293 0
M  V30 348 C 35.4123 -1.41069 0.746446 0
M  V30 349 C 35.6123 -1.90078 -0.668776 0
M  V30 350 O 34.6683 -2.0778 -1.4347 0
M  V30 351 C 35.9813 -2.42141 1.78292 0
M  V30 352 C 37.5293 -2.55887 1.80252 0
M  V30 353 C 38.0043 -3.60214 2.8286 0
M  V30 354 N 39.4953 -3.67711 2.81679 0
M  V30 355 C 40.2303 -4.48128 3.57727 0
M  V30 356 N 39.7263 -5.32248 4.43491 0
M  V30 357 N 41.5193 -4.42782 3.46267 0
M  V30 358 H 33.6703 -0.858536 1.94275 0
M  V30 359 H 35.9333 -0.439541 0.839945 0
M  V30 360 H 35.6393 -2.13155 2.79746 0
M  V30 361 H 35.5133 -3.41323 1.60557 0
M  V30 362 H 37.9003 -2.84196 0.794757 0
M  V30 363 H 37.9813 -1.56858 2.02062 0
M  V30 364 H 37.6253 -3.32647 3.83807 0
M  V30 365 H 37.5553 -4.58895 2.58307 0
M  V30 366 H 40.0463 -3.07634 2.19476 0
M  V30 367 H 40.3593 -5.90729 4.98256 0
M  V30 368 H 38.7043 -5.31707 4.47564 0
M  V30 369 H 41.8953 -3.76107 2.78677 0
M  V30 370 H 42.0683 -5.05215 4.05785 0
M  V30 371 N 35.4744 -0.807222 -1.35358 0
M  V30 372 C 36.6994 -0.399309 -2.0352 0
M  V30 373 C 37.1244 0.981986 -1.60433 0
M  V30 374 O 36.4824 1.63601 -0.781299 0
M  V30 375 C 36.5304 -0.491552 -3.57234 0
M  V30 376 O 35.6344 0.494754 -4.09421 0
M  V30 377 H 34.9754 -0.166682 -0.642739 0
M  V30 378 H 37.5054 -1.09328 -1.72941 0
M  V30 379 H 37.5154 -0.361588 -4.06395 0
M  V30 380 H 36.1904 -1.49907 -3.87944 0
M  V30 381 H 34.7674 0.324977 -3.71481 0
M  V30 382 N 36.9525 1.47285 -0.560781 0
M  V30 383 C 37.8825 2.32857 0.173105 0
M  V30 384 C 38.8635 1.44009 0.905281 0
M  V30 385 O 40.0485 1.7286 0.885046 0
M  V30 386 C 37.1785 3.25861 1.20133 0
M  V30 387 C 36.1325 4.23978 0.585388 0
M  V30 388 C 35.4585 5.06332 1.7185 0
M  V30 389 C 36.7585 5.20242 -0.463178 0
M  V30 390 H 38.4525 2.94466 -0.541307 0
M  V30 391 H 35.9985 1.41601 -0.261764 0
M  V30 392 H 37.9515 3.84569 1.72293 0
M  V30 393 H 36.6755 2.62315 1.94573 0
M  V30 394 H 35.3345 3.66501 0.085054 0
M  V30 395 H 34.9825 4.39186 2.45203 0
M  V30 396 H 34.6825 5.72762 1.31213 0
M  V30 397 H 36.2065 5.67899 2.24329 0
M  V30 398 H 37.6205 5.73293 -0.027502 0
M  V30 399 H 36.0175 5.94896 -0.788627 0
M  V30 400 H 37.0875 4.65504 -1.35773 0
M  V30 401 N 38.4306 0.297415 1.54768 0
M  V30 402 C 39.3606 -0.573494 2.26348 0
M  V30 403 C 40.3416 -1.14085 1.26169 0
M  V30 404 O 41.5266 -1.17086 1.54934 0
M  V30 405 C 38.6566 -1.74716 3.00153 0
M  V30 406 C 37.6106 -1.31032 4.07449 0
M  V30 407 C 36.9366 -2.56887 4.68949 0
M  V30 408 C 38.2366 -0.444183 5.20408 0
M  V30 409 H 39.9306 0.0235131 2.99391 0
M  V30 410 H 37.4766 0.0127488 1.43994 0
M  V30 411 H 39.4296 -2.3625 3.48947 0
M  V30 412 H 38.1536 -2.37035 2.24682 0
M  V30 413 H 36.8126 -0.718066 3.59499 0
M  V30 414 H 36.4606 -3.17512 3.90122 0
M  V30 415 H 36.1606 -2.2836 5.41411 0
M  V30 416 H 37.6846 -3.19229 5.20505 0
M  V30 417 H 39.0986 -0.9651 5.65118 0
M  V30 418 H 37.4956 -0.252846 5.99567 0
M  V30 419 H 38.5656 0.531609 4.81977 0
M  V30 420 N 39.9087 -1.5758 0.0250728 0
M  V30 421 C 41.1337 -1.96337 -0.668317 0
M  V30 422 C 41.5587 -0.901314 -1.651 0
M  V30 423 O 40.9167 0.138187 -1.80773 0
M  V30 424 C 40.9647 -3.34191 -1.35457 0
M  V30 425 O 40.0687 -3.30269 -2.46974 0
M  V30 426 H 39.4097 -0.640281 -0.175887 0
M  V30 427 H 41.9397 -2.0442 0.0857224 0
M  V30 428 H 41.9497 -3.70331 -1.71228 0
M  V30 429 H 40.6247 -4.11036 -0.634218 0
M  V30 430 H 39.2017 -3.05841 -2.13344 0
M  V30 431 N 41.3868 0.248026 -1.55636 0
M  V30 432 C 42.6348 0.974295 -1.77065 0
M  V30 433 C 42.9558 1.85897 -0.588849 0
M  V30 434 O 42.2258 1.91868 0.395407 0
M  V30 435 H 40.8058 0.362733 -0.653019 0
M  V30 436 H 43.4678 0.266244 -1.93073 0
M  V30 437 H 42.5638 1.59667 -2.68166 0
M  V30 438 N 42.8649 1.48995 0.513639 0
M  V30 439 C 44.1129 1.57531 1.26604 0
M  V30 440 C 44.4339 0.258236 1.93283 0
M  V30 441 O 43.7039 -0.721502 1.8213 0
M  V30 442 H 42.2839 0.580387 0.470276 0
M  V30 443 H 44.9459 1.85552 0.596373 0
M  V30 444 H 44.0419 2.36486 2.03669 0
M  V30 445 N 44.343 -0.763751 1.37857 0
M  V30 446 C 45.306 -1.85889 1.34081 0
M  V30 447 C 46.306 -1.58949 0.243277 0
M  V30 448 O 47.496 -1.66882 0.499589 0
M  V30 449 C 44.628 -3.23176 1.08489 0
M  V30 450 H 45.821 -1.90648 2.31502 0
M  V30 451 H 43.374 -0.964367 1.23003 0
M  V30 452 H 44.109 -3.24091 0.116318 0
M  V30 453 H 43.894 -3.44124 1.8794 0
M  V30 454 H 45.384 -4.03254 1.08517 0
M  V30 455 N 45.8211 -1.22559 -0.990812 0
M  V30 456 C 46.7311 -1.01394 -2.11557 0
M  V30 457 C 47.7471 0.0383962 -1.73958 0
M  V30 458 O 48.9231 -0.154787 -2.00804 0
M  V30 459 C 45.9881 -0.596569 -3.41529 0
M  V30 460 C 45.0491 -1.72276 -3.93217 0
M  V30 461 C 44.2821 -1.32521 -5.16985 0
M  V30 462 O 44.5051 -0.204909 -5.70032 0
M  V30 463 O 43.4391 -2.14247 -5.62478 0
M  V30 464 H 47.2651 -1.95633 -2.32296 0
M  V30 465 H 44.8501 -1.01172 -1.0993 0
M  V30 466 H 46.7321 -0.374263 -4.19735 0
M  V30 467 H 45.4071 0.316939 -3.22145 0
M  V30 468 H 44.3141 -1.99961 -3.16174 0
M  V30 469 H 45.6471 -2.61421 -4.17037 0
M  V30 470 N 47.2992 1.18797 -1.03562 0
M  V30 471 C 48.7102 1.70322 -0.764676 0
M  V30 472 C 49.0612 1.82708 0.714996 0
M  V30 473 O 48.1862 1.50299 1.55689 0
M  V30 474 C 48.7812 3.09356 -1.38145 0
M  V30 475 C 47.3402 3.58114 -1.15895 0
M  V30 476 C 46.4872 2.34798 -1.4753 0
M  V30 477 H 49.4382 1.03543 -1.20268 0
M  V30 478 H 49.4592 3.72378 -0.781977 0
M  V30 479 H 48.9712 3.00309 -2.45837 0
M  V30 480 H 47.0722 3.72464 -0.100544 0
M  V30 481 H 47.1852 4.4184 -1.8524 0
M  V30 482 H 45.5492 2.38464 -0.894829 0
M  V30 483 H 46.3322 2.28375 -2.56319 0
M  V30 484 N 48.7773 0.814389 1.34928 0
M  V30 485 C 49.7073 0.244827 2.32213 0
M  V30 486 C 50.6883 -0.634024 1.57842 0
M  V30 487 O 51.8733 -0.562676 1.8587 0
M  V30 488 C 49.0033 -0.601106 3.42058 0
M  V30 489 C 47.9573 0.179896 4.27622 0
M  V30 490 C 47.2833 -0.788237 5.28858 0
M  V30 491 C 48.5833 1.38329 5.03649 0
M  V30 492 H 50.2773 1.05763 2.80097 0
M  V30 493 H 47.8233 0.510029 1.34665 0
M  V30 494 H 49.7763 -1.00968 4.09125 0
M  V30 495 H 48.5003 -1.44688 2.92802 0
M  V30 496 H 47.1593 0.569739 3.62146 0
M  V30 497 H 46.8073 -1.62973 4.75866 0
M  V30 498 H 46.5073 -0.269942 5.8698 0
M  V30 499 H 48.0313 -1.19485 5.98795 0
M  V30 500 H 49.4453 1.04918 5.63618 0
M  V30 501 H 47.8423 1.83662 5.71304 0
M  V30 502 H 48.9123 2.16592 4.33839 0
M  V30 503 N 50.2554 -1.46986 0.568584 0
M  V30 504 C 51.1654 -2.33942 -0.17555 0
M  V30 505 C 52.1814 -1.48891 -0.90041 0
M  V30 506 O 53.3574 -1.81794 -0.86676 0
M  V30 507 C 50.4224 -3.25811 -1.18524 0
M  V30 508 C 49.4834 -4.26757 -0.466582 0
M  V30 509 C 48.7164 -5.14236 -1.42817 0
M  V30 510 O 48.9394 -5.04379 -2.66379 0
M  V30 511 O 47.8734 -5.94412 -0.946453 0
M  V30 512 H 51.6994 -2.98896 0.538036 0
M  V30 513 H 49.2844 -1.4573 0.329097 0
M  V30 514 H 51.1664 -3.82527 -1.76779 0
M  V30 515 H 49.8414 -2.63471 -1.88055 0
M  V30 516 H 48.7484 -3.73769 0.157451 0
M  V30 517 H 50.0814 -4.91843 0.187485 0
M  V30 518 N 51.7335 -0.305618 -1.54608 0
M  V30 519 C 52.9795 0.302746 -2.00528 0
M  V30 520 C 53.3125 1.53184 -1.19367 0
M  V30 521 O 52.5875 1.92598 -0.271321 0
M  V30 522 C 52.8705 0.654756 -3.54097 0
M  V30 523 C 52.7235 -0.583793 -4.45995 0
M  V30 524 C 54.0425 1.47947 -4.14487 0
M  V30 525 H 51.1615 0.108564 -0.72896 0
M  V30 526 H 53.8035 -0.418634 -1.85331 0
M  V30 527 H 51.9535 1.26935 -3.67178 0
M  V30 528 H 53.6255 -1.22224 -4.44814 0
M  V30 529 H 51.8685 -1.21615 -4.16404 0
M  V30 530 H 52.5395 -0.293287 -5.5122 0
M  V30 531 H 55.0155 0.96013 -4.04871 0
M  V30 532 H 53.8915 1.69454 -5.22088 0
M  V30 533 H 54.1525 2.47011 -3.66658 0
M  V30 534 N 53.2116 1.57565 -0.0334293 0
M  V30 535 C 54.4606 1.91155 0.643639 0
M  V30 536 C 54.7736 0.91192 1.73042 0
M  V30 537 O 55.9796 1.13923 2.46442 0
M  V30 538 C 54.4356 3.39443 1.1961 0
M  V30 539 C 54.0436 4.47774 0.142381 0
M  V30 540 C 55.7876 3.82094 1.84944 0
M  V30 541 C 53.6946 5.87162 0.706727 0
M  V30 542 H 52.6246 0.713368 0.244176 0
M  V30 543 H 55.2756 1.8323 -0.0994323 0
M  V30 544 H 53.6576 3.42313 1.99092 0
M  V30 545 H 54.8316 4.56469 -0.630296 0
M  V30 546 H 53.1466 4.14352 -0.412446 0
M  V30 547 H 55.7436 4.83591 2.2813 0
M  V30 548 H 56.0866 3.17386 2.69392 0
M  V30 549 H 56.6196 3.81665 1.12145 0
M  V30 550 H 53.3586 6.55424 -0.0997178 0
M  V30 551 H 52.8786 5.82064 1.44779 0
M  V30 552 H 54.5576 6.35866 1.19514 0
M  V30 553 N 54.6897 -0.239769 1.55765 0
M  V30 554 C 55.6377 -1.31668 1.91745 0
M  V30 555 C 56.6317 -1.49462 0.797338 0
M  V30 556 O 57.8377 -1.50852 0.982021 0
M  V30 557 H 54.2127 -0.441048 0.609082 0
M  V30 558 H 56.1837 -0.985923 2.81642 0
M  V30 559 C 54.9327 -2.66368 2.2348 0
M  V30 560 H 54.2557 -2.53478 3.09175 0
M  V30 561 H 55.6957 -3.40578 2.52553 0
M  V30 562 C 54.1547 -3.20002 1.05359 0
M  V30 563 O 54.6847 -4.00538 0.305261 0
M  V30 564 N 52.8907 -2.78126 0.842292 0
M  V30 565 H 52.4377 -2.12742 1.45253 0
M  V30 566 H 52.3957 -3.14354 0.053652 0
M  V30 567 N 56.1678 -1.49265 -0.50573 0
M  V30 568 C 57.1148 -1.65585 -1.6078 0
M  V30 569 C 58.0848 -0.497396 -1.58478 0
M  V30 570 O 59.2698 -0.72385 -1.76536 0
M  V30 571 C 56.4098 -1.72408 -2.98948 0
M  V30 572 C 55.5228 -2.99525 -3.11301 0
M  V30 573 C 54.6578 -2.97356 -4.40174 0
M  V30 574 C 53.6968 -4.19074 -4.46143 0
M  V30 575 N 52.8338 -4.14841 -5.66437 0
M  V30 576 H 57.6738 -2.59688 -1.46172 0
M  V30 577 H 55.2108 -1.28761 -0.711261 0
M  V30 578 H 57.1688 -1.74344 -3.79025 0
M  V30 579 H 55.7988 -0.817753 -3.1227 0
M  V30 580 H 54.8508 -3.07222 -2.24318 0
M  V30 581 H 56.1628 -3.89518 -3.11572 0
M  V30 582 H 55.3168 -2.97829 -5.28567 0
M  V30 583 H 54.0558 -2.05133 -4.42461 0
M  V30 584 H 53.0608 -4.1885 -3.56153 0
M  V30 585 H 54.2858 -5.12483 -4.45575 0
M  V30 586 H 52.2318 -3.25453 -5.69575 0
M  V30 587 H 52.1488 -4.98564 -5.68304 0
M  V30 588 H 53.4168 -4.1941 -6.57051 0
M  V30 589 N 57.6459 0.756429 -1.3826 0
M  V30 590 C 58.8939 1.51248 -1.34047 0
M  V30 591 C 59.2149 1.94875 0.0698372 0
M  V30 592 O 58.4849 1.67436 1.01696 0
M  V30 593 H 57.0649 0.561018 -0.493222 0
M  V30 594 H 59.7269 0.899347 -1.7291 0
M  V30 595 H 58.8229 2.40472 -1.98947 0
M  V30 596 N 59.124 1.23083 0.984299 0
M  V30 597 C 60.054 1.03292 2.09411 0
M  V30 598 C 61.035 -0.048923 1.7003 0
M  V30 599 O 62.22 0.114967 1.93859 0
M  V30 600 C 59.35 0.619155 3.41736 0
M  V30 601 C 58.304 1.64791 3.95004 0
M  V30 602 C 57.63 1.0897 5.23478 0
M  V30 603 C 58.93 3.03999 4.24714 0
M  V30 604 H 60.624 1.96119 2.26225 0
M  V30 605 H 58.17 0.944344 1.08711 0
M  V30 606 H 60.123 0.467777 4.18796 0
M  V30 607 H 58.847 -0.344786 3.24775 0
M  V30 608 H 57.506 1.78721 3.20085 0
M  V30 609 H 57.154 0.11686 5.02864 0
M  V30 610 H 56.854 1.77704 5.60085 0
M  V30 611 H 58.378 0.950093 6.03163 0
M  V30 612 H 59.792 2.93393 4.92538 0
M  V30 613 H 58.189 3.69936 4.72512 0
M  V30 614 H 59.259 3.53285 3.32142 0
M  V30 615 N 60.6021 -1.18246 1.0419 0
M  V30 616 C 61.8511 -1.87588 0.741194 0
M  V30 617 C 62.1641 -1.81303 -0.734066 0
M  V30 618 O 63.3701 -2.46019 -1.14834 0
M  V30 619 C 61.8261 -3.36538 1.27555 0
M  V30 620 C 61.4341 -3.51349 2.77953 0
M  V30 621 C 63.1781 -4.11273 1.05143 0
M  V30 622 C 61.0851 -4.94265 3.2474 0
M  V30 623 H 60.0151 -0.702622 0.273565 0
M  V30 624 H 62.6661 -1.33601 1.25789 0
M  V30 625 H 61.0481 -3.9 0.686703 0
M  V30 626 H 62.2221 -3.08153 3.42605 0
M  V30 627 H 60.5371 -2.90022 2.98791 0
M  V30 628 H 63.1341 -5.16689 1.37611 0
M  V30 629 H 63.4771 -4.16298 -0.0112774 0
M  V30 630 H 64.0101 -3.63987 1.60495 0
M  V30 631 H 60.7491 -4.94408 4.30396 0
M  V30 632 H 60.2691 -5.38172 2.64823 0
M  V30 633 H 61.9481 -5.62987 3.18834 0
M  V30 634 N 62.0802 -0.821533 -1.34494 0
M  V30 635 C 63.0432 -0.247847 -2.27856 0
M  V30 636 C 64.0432 0.573453 -1.50227 0
M  V30 637 O 65.2332 0.389759 -1.69784 0
M  V30 638 C 62.3652 0.652698 -3.34593 0
M  V30 639 H 63.5582 -1.07146 -2.80107 0
M  V30 640 H 61.1112 -0.593291 -1.44602 0
M  V30 641 H 61.8462 1.49943 -2.87555 0
M  V30 642 H 61.6312 0.065292 -3.92046 0
M  V30 643 H 63.1212 1.04793 -4.04238 0
M  V30 644 N 63.5583 1.46682 -0.576371 0
M  V30 645 C 64.8063 2.02013 -0.0594163 0
M  V30 646 C 65.1273 1.45101 1.30271 0
M  V30 647 O 64.3973 0.633317 1.8538 0
M  V30 648 H 62.9773 0.746759 -0.0189745 0
M  V30 649 H 65.6393 1.79862 -0.750717 0
M  V30 650 H 64.7353 3.12097 0.014345 0
M  V30 651 N 65.0364 0.313813 1.54444 0
M  V30 652 C 65.9694 -0.598866 2.20202 0
M  V30 653 C 66.9474 -1.12318 1.17573 0
M  V30 654 O 68.1314 -1.18899 1.46271 0
M  V30 655 C 65.2584 -1.82071 2.85601 0
M  V30 656 C 64.3044 -1.42851 4.01865 0
M  V30 657 S 65.1374 -0.473512 5.33402 0
M  V30 658 C 66.2934 -1.70286 6.0229 0
M  V30 659 H 66.5264 -0.0402532 2.97273 0
M  V30 660 H 64.0594 0.0979165 1.54089 0
M  V30 661 H 66.0174 -2.52184 3.23904 0
M  V30 662 H 64.6784 -2.3505 2.08351 0
M  V30 663 H 63.8714 -2.33871 4.46453 0
M  V30 664 H 63.4734 -0.807198 3.65185 0
M  V30 665 H 65.7654 -2.64168 6.23876 0
M  V30 666 H 66.7084 -1.29932 6.96077 0
M  V30 667 H 67.1164 -1.88541 5.32083 0
M  V30 668 N 66.5145 -1.57545 0.0417849 0
M  V30 669 C 67.7915 -1.83642 -0.673433 0
M  V30 670 C 68.1715 -0.928298 -1.89594 0
M  V30 671 O 67.5195 0.0129955 -2.28496 0
M  V30 672 C 67.7295 -3.33155 -1.03964 0
M  V30 673 C 69.0775 -3.99941 -1.42592 0
M  V30 674 O 70.1015 -3.37725 -1.13226 0
M  V30 675 O 68.9605 -5.09619 -1.9736 0
M  V30 676 H 66.0545 -0.757638 -0.331533 0
M  V30 677 H 68.6005 -1.69554 0.070433 0
M  V30 678 H 67.3725 -3.9093 -0.170098 0
M  V30 679 H 66.9955 -3.52396 -1.84126 0
M  V30 680 N 67.9926 0.231505 -1.5589 0
M  V30 681 C 69.4086 0.580748 -1.48659 0
M  V30 682 C 69.6086 1.87617 -0.73498 0
M  V30 683 O 68.6646 2.51046 -0.270586 0
M  V30 684 C 69.9776 0.669202 -2.93159 0
M  V30 685 C 71.5256 0.760499 -3.03621 0
M  V30 686 C 72.0006 0.880383 -4.49459 0
M  V30 687 N 73.4916 0.944861 -4.53461 0
M  V30 688 C 74.2266 1.05716 -5.63571 0
M  V30 689 N 73.7226 1.13403 -6.83456 0
M  V30 690 N 75.5156 1.09152 -5.514 0
M  V30 691 H 67.6666 -0.618695 -2.03189 0
M  V30 692 H 69.9296 -0.215728 -0.923128 0
M  V30 693 H 69.6356 -0.212904 -3.51055 0
M  V30 694 H 69.5096 1.5361 -3.44505 0
M  V30 695 H 71.8966 1.63305 -2.45796 0
M  V30 696 H 71.9776 -0.131864 -2.5546 0
M  V30 697 H 71.6216 0.0123284 -5.07899 0
M  V30 698 H 71.5516 1.78802 -4.95316 0
M  V30 699 H 74.0426 0.896176 -3.6712 0
M  V30 700 H 74.3556 1.21921 -7.63122 0
M  V30 701 H 72.7006 1.10333 -6.86186 0
M  V30 702 H 75.8916 1.02805 -4.56671 0
M  V30 703 H 76.0646 1.17558 -6.37247 0
M  V30 704 N 69.4707 1.49531 0.497807 0
M  V30 705 C 70.7167 1.59415 1.25358 0
M  V30 706 C 71.0497 0.281422 1.9215 0
M  V30 707 O 70.3247 -0.715249 1.80871 0
M  V30 708 C 70.6077 2.75566 2.3181 0
M  V30 709 C 70.4607 4.16642 1.69498 0
M  V30 710 C 71.7797 2.87347 3.33346 0
M  V30 711 H 68.8987 0.580244 0.454408 0
M  V30 712 H 71.5407 1.81827 0.551262 0
M  V30 713 H 69.6907 2.56587 2.91711 0
M  V30 714 H 71.3627 4.47145 1.13399 0
M  V30 715 H 69.6057 4.22141 0.998978 0
M  V30 716 H 70.2767 4.93792 2.46725 0
M  V30 717 H 72.7527 3.04634 2.83438 0
M  V30 718 H 71.6287 3.70289 4.05188 0
M  V30 719 H 71.8897 1.96834 3.95865 0
M  V30 720 N 70.9488 -0.749086 1.3866 0
M  V30 721 C 72.1968 -1.50535 1.34847 0
M  V30 722 C 72.5178 -1.94909 -0.0595016 0
M  V30 723 O 71.7878 -1.67973 -1.00806 0
M  V30 724 H 70.3678 -0.558395 0.49619 0
M  V30 725 H 73.0298 -0.890165 1.73384 0
M  V30 726 H 72.1258 -2.39413 2.00219 0
M  V30 727 N 72.4269 -1.23603 -0.977757 0
M  V30 728 C 73.6729 -1.07129 -1.72195 0
M  V30 729 C 74.0059 0.390501 -1.90233 0
M  V30 730 O 73.2809 1.28902 -1.45653 0
M  V30 731 C 73.5639 -1.80031 -3.11867 0
M  V30 732 C 73.4169 -3.33899 -3.01383 0
M  V30 733 C 74.7359 -1.56492 -4.11337 0
M  V30 734 H 71.8549 -0.390571 -0.624999 0
M  V30 735 H 74.4969 -1.52142 -1.13811 0
M  V30 736 H 72.6469 -1.41768 -3.6171 0
M  V30 737 H 74.3189 -3.81699 -2.59043 0
M  V30 738 H 72.5619 -3.62796 -2.37827 0
M  V30 739 H 73.2329 -3.801 -4.00285 0
M  V30 740 H 75.7089 -1.89757 -3.70313 0
M  V30 741 H 74.5849 -2.09973 -5.07151 0
M  V30 742 H 74.8459 -0.500874 -4.39254 0
M  V30 743 N 73.905 1.17692 -1.04816 0
M  V30 744 C 74.835 2.23777 -0.666791 0
M  V30 745 C 75.816 1.66796 0.33361 0
M  V30 746 O 77.001 1.93039 0.212042 0
M  V30 747 C 74.131 3.47281 -0.0367933 0
M  V30 748 C 73.085 4.17059 -0.961546 0
M  V30 749 C 72.411 5.34342 -0.195626 0
M  V30 750 C 73.711 4.69713 -2.28402 0
M  V30 751 H 75.405 2.55933 -1.55367 0
M  V30 752 H 72.951 1.23019 -0.748484 0
M  V30 753 H 74.904 4.20706 0.241775 0
M  V30 754 H 73.628 3.14381 0.885004 0
M  V30 755 H 72.287 3.45541 -1.22462 0
M  V30 756 H 71.935 4.97692 0.728816 0
M  V30 757 H 71.635 5.81966 -0.811775 0
M  V30 758 H 73.159 6.10553 0.0757473 0
M  V30 759 H 74.573 5.34794 -2.06563 0
M  V30 760 H 72.97 5.279 -2.8538 0
M  V30 761 H 74.04 3.86726 -2.92525 0
M  V30 762 N 75.3831 0.828654 1.34056 0
M  V30 763 C 76.6301 0.419458 1.98108 0
M  V30 764 C 76.9581 -1.01886 1.65679 0
M  V30 765 O 76.2131 -1.72539 0.923512 0
M  V30 766 C 76.5121 0.575226 3.52741 0
M  V30 767 C 76.1781 1.98012 4.05095 0
M  V30 768 C 74.8401 2.36442 4.19104 0
M  V30 769 C 77.1921 2.89824 4.33188 0
M  V30 770 C 74.5201 3.66009 4.58535 0
M  V30 771 C 76.8721 4.1886 4.74066 0
M  V30 772 C 75.5361 4.5726 4.86281 0
M  V30 773 H 74.8061 0.153491 0.724929 0
M  V30 774 H 77.4531 1.05371 1.59904 0
M  V30 775 H 75.7581 -0.142385 3.91541 0
M  V30 776 H 77.4551 0.239057 4.00287 0
M  V30 777 H 74.0451 1.67162 3.94658 0
M  V30 778 H 78.2291 2.61375 4.21897 0
M  V30 779 H 73.4851 3.95579 4.66184 0
M  V30 780 H 77.6591 4.90086 4.94761 0
M  V30 781 H 75.2861 5.57707 5.16592 0
M  V30 782 N 76.8612 -1.46375 0.584142 0
M  V30 783 C 77.8082 -2.30323 -0.148286 0
M  V30 784 C 78.7782 -1.40703 -0.882713 0
M  V30 785 O 79.9632 -1.69651 -0.873099 0
M  V30 786 C 77.1032 -3.25196 -1.15507 0
M  V30 787 C 76.2162 -4.29915 -0.423943 0
M  V30 788 C 75.3512 -5.11914 -1.41838 0
M  V30 789 C 74.3902 -6.08381 -0.673736 0
M  V30 790 N 73.5272 -6.83242 -1.6163 0
M  V30 791 H 78.3672 -2.92427 0.573644 0
M  V30 792 H 75.9042 -1.44118 0.294703 0
M  V30 793 H 77.8622 -3.78646 -1.75166 0
M  V30 794 H 76.4922 -2.64898 -1.8447 0
M  V30 795 H 75.5442 -3.7931 0.287714 0
M  V30 796 H 76.8562 -4.98549 0.158128 0
M  V30 797 H 76.0102 -5.69648 -2.08773 0
M  V30 798 H 74.7492 -4.43243 -2.03438 0
M  V30 799 H 73.7542 -5.49799 0.00938483 0
M  V30 800 H 74.9792 -6.79071 -0.0631082 0
M  V30 801 H 72.9252 -6.1728 -2.22038 0
M  V30 802 H 72.8422 -7.48144 -1.08707 0
M  V30 803 H 74.1102 -7.45534 -2.27596 0
M  V30 804 N 78.3393 -0.321999 -1.54275 0
M  V30 805 C 79.2873 0.560206 -2.25753 0
M  V30 806 C 80.2813 1.11984 -1.27106 0
M  V30 807 O 81.4873 1.06806 -1.44888 0
M  V30 808 H 77.8623 0.199304 -0.725108 0
M  V30 809 H 79.8333 -0.0649365 -2.98329 0
M  V30 810 C 78.5823 1.71023 -3.02731 0
M  V30 811 H 77.9053 1.28885 -3.78456 0
M  V30 812 H 79.3453 2.30314 -3.55993 0
M  V30 813 C 77.8043 2.62692 -2.10938 0
M  V30 814 O 78.3343 3.64364 -1.6912 0
M  V30 815 N 76.5403 2.30891 -1.76459 0
M  V30 816 H 76.0873 1.48253 -2.10663 0
M  V30 817 H 76.0453 2.92487 -1.1532 0
M  V30 818 N 79.8174 1.5752 -0.0501392 0
M  V30 819 C 80.7654 2.12651 0.942459 0
M  V30 820 C 81.7594 1.05807 1.32292 0
M  V30 821 O 82.9654 1.24217 1.3027 0
M  V30 822 H 79.3404 0.679673 0.321789 0
M  V30 823 H 81.3114 2.94951 0.452356 0
M  V30 824 C 80.0604 2.68565 2.20836 0
M  V30 825 H 79.3834 3.50439 1.92439 0
M  V30 826 H 80.8234 3.10761 2.8845 0
M  V30 827 C 79.2824 1.62291 2.95234 0
M  V30 828 O 79.8124 1.03508 3.88135 0
M  V30 829 N 78.0184 1.33836 2.57946 0
M  V30 830 H 77.5654 1.81826 1.82475 0
M  V30 831 H 77.5234 0.629595 3.08032 0
M  V30 832 N 81.2955 -0.223234 1.56011 0
M  V30 833 C 82.2055 -1.29766 1.95443 0
M  V30 834 C 83.2215 -1.51373 0.858028 0
M  V30 835 O 84.3975 -1.64536 1.16146 0
M  V30 836 C 81.4625 -2.62772 2.26167 0
M  V30 837 C 80.5235 -2.49482 3.49367 0
M  V30 838 C 79.7565 -3.76145 3.78616 0
M  V30 839 O 79.9795 -4.79087 3.09568 0
M  V30 840 O 78.9135 -3.73358 4.72109 0
M  V30 841 H 82.7395 -0.99309 2.87004 0
M  V30 842 H 80.3245 -0.425958 1.43199 0
M  V30 843 H 82.2065 -3.41327 2.47131 0
M  V30 844 H 80.8815 -2.92913 1.37781 0
M  V30 845 H 79.7885 -1.69133 3.33684 0
M  V30 846 H 81.1215 -2.2428 4.38131 0
M  V30 847 N 82.7736 -1.49793 -0.48987 0
M  V30 848 C 83.7066 -1.61898 -1.60823 0
M  V30 849 C 84.6846 -0.467651 -1.5573 0
M  V30 850 O 85.8686 -0.684682 -1.75626 0
M  V30 851 C 82.9956 -1.58422 -2.99366 0
M  V30 852 C 82.0416 -2.78889 -3.22682 0
M  V30 853 S 82.8746 -4.40429 -3.04602 0
M  V30 854 C 84.0306 -4.39617 -4.4552 0
M  V30 855 H 84.2636 -2.56502 -1.50312 0
M  V30 856 H 81.7966 -1.38822 -0.675849 0
M  V30 857 H 83.7546 -1.57103 -3.79248 0
M  V30 858 H 82.4156 -0.650866 -3.07283 0
M  V30 859 H 81.6086 -2.72708 -4.23847 0
M  V30 860 H 81.2106 -2.77678 -2.50541 0
M  V30 861 H 83.5026 -4.12022 -5.37814 0
M  V30 862 H 84.4456 -5.41097 -4.56749 0
M  V30 863 H 84.8536 -3.69554 -4.2672 0
M  V30 864 N 84.2517 0.741722 -1.39055 0
M  V30 865 C 85.4987 1.50114 -1.35912 0
M  V30 866 C 85.8267 1.94443 0.0470937 0
M  V30 867 O 85.0817 1.66612 1.02659 0
M  V30 868 C 85.3807 2.7592 -2.27163 0
M  V30 869 C 85.0467 2.50493 -3.74919 0
M  V30 870 C 83.7087 2.43267 -4.1518 0
M  V30 871 C 86.0607 2.28585 -4.684 0
M  V30 872 C 83.3887 2.12166 -5.46994 0
M  V30 873 C 85.7407 1.99002 -6.00484 0
M  V30 874 C 84.4047 1.90241 -6.39816 0
M  V30 875 H 83.6747 0.549306 -0.497336 0
M  V30 876 H 86.3217 0.851896 -1.71508 0
M  V30 877 H 84.6267 3.45553 -1.84663 0
M  V30 878 H 86.3237 3.33923 -2.22028 0
M  V30 879 H 82.9137 2.56992 -3.43006 0
M  V30 880 H 87.0977 2.33139 -4.38132 0
M  V30 881 H 82.3537 2.03901 -5.76398 0
M  V30 882 H 86.5277 1.81057 -6.72452 0
M  V30 883 H 84.1547 1.65907 -7.41875 0
M  V30 884 N 85.7298 1.2412 0.971189 0
M  V30 885 C 86.9758 1.08041 1.71625 0
M  V30 886 C 87.3088 -0.380407 1.90438 0
M  V30 887 O 86.5838 -1.28127 1.46334 0
M  V30 888 C 86.8668 1.81682 3.10908 0
M  V30 889 C 86.7198 3.35493 2.99608 0
M  V30 890 C 88.0388 1.58671 4.10501 0
M  V30 891 H 85.1578 0.39388 0.622919 0
M  V30 892 H 87.7998 1.52743 1.13003 0
M  V30 893 H 85.9498 1.43684 3.60953 0
M  V30 894 H 87.6218 3.83068 2.57015 0
M  V30 895 H 85.8648 3.64052 2.35899 0
M  V30 896 H 86.5358 3.82217 3.98264 0
M  V30 897 H 89.0118 1.91719 3.69301 0
M  V30 898 H 87.8878 2.1266 5.06031 0
M  V30 899 H 88.1488 0.524161 4.38982 0
M  V30 900 N 87.2079 -1.17134 1.05439 0
M  V30 901 C 88.6189 -1.69084 0.791676 0
M  V30 902 C 88.9699 -1.83822 -0.685839 0
M  V30 903 O 88.0949 -1.52757 -1.53278 0
M  V30 904 C 88.6899 -3.07119 1.4305 0
M  V30 905 C 87.2489 -3.56225 1.21577 0
M  V30 906 C 86.3959 -2.32421 1.51247 0
M  V30 907 H 89.3469 -1.01617 1.219 0
M  V30 908 H 89.3679 -3.71087 0.84112 0
M  V30 909 H 88.8799 -2.9636 2.50584 0
M  V30 910 H 86.9809 -3.72257 0.159787 0
M  V30 911 H 87.0939 -4.38837 1.92246 0
M  V30 912 H 85.4579 -2.3701 0.932653 0
M  V30 913 H 86.2409 -2.24268 2.5992 0
M  V30 914 N 88.686 -0.835752 -1.33615 0
M  V30 915 C 89.596 -0.269088 -2.33052 0
M  V30 916 C 90.612 0.603251 -1.63208 0
M  V30 917 O 91.788 0.508112 -1.94885 0
M  V30 918 C 88.853 0.549091 -3.42324 0
M  V30 919 C 87.914 -0.347156 -4.27894 0
M  V30 920 C 87.147 0.43207 -5.31948 0
M  V30 921 O 87.37 1.66409 -5.45586 0
M  V30 922 O 86.304 -0.192298 -6.01593 0
M  V30 923 H 90.13 -1.09243 -2.83372 0
M  V30 924 H 87.715 -0.598198 -1.36901 0
M  V30 925 H 89.597 1.01414 -4.09015 0
M  V30 926 H 88.272 1.34955 -2.94226 0
M  V30 927 H 87.179 -0.859979 -3.64081 0
M  V30 928 H 88.512 -1.1123 -4.79467 0
M  V30 929 N 90.1641 1.46063 -0.591896 0
M  V30 930 C 91.4101 2.02638 -0.0811191 0
M  V30 931 C 91.7431 1.4613 1.27905 0
M  V30 932 O 91.0181 0.629908 1.84017 0
M  V30 933 C 91.3011 3.60091 -0.0252436 0
M  V30 934 C 91.1541 4.26965 -1.41496 0
M  V30 935 C 92.4731 4.3496 0.670685 0
M  V30 936 H 89.5921 0.73635 -0.0309524 0
M  V30 937 H 92.2341 1.741 -0.760859 0
M  V30 938 H 90.3841 3.84535 0.553624 0
M  V30 939 H 92.0561 4.13756 -2.0397 0
M  V30 940 H 90.2991 3.85971 -1.98011 0
M  V30 941 H 90.9701 5.35781 -1.32825 0
M  V30 942 H 93.4461 4.15716 0.178825 0
M  V30 943 H 92.3221 5.44686 0.678837 0
M  V30 944 H 92.5831 4.06685 1.73379 0
M  V30 945 N 91.6422 0.330177 1.54103 0
M  V30 946 C 92.5722 -0.525353 2.27513 0
M  V30 947 C 93.5532 -1.11383 1.2856 0
M  V30 948 O 94.7382 -1.13773 1.57383 0
M  V30 949 C 91.8682 -1.6831 3.03791 0
M  V30 950 C 90.8222 -1.2236 4.10137 0
M  V30 951 C 90.1482 -2.46882 4.74293 0
M  V30 952 C 91.4482 -0.333697 5.21233 0
M  V30 953 H 93.1422 0.087013 2.99274 0
M  V30 954 H 90.6882 0.0432893 1.43935 0
M  V30 955 H 92.6412 -2.28795 3.5388 0
M  V30 956 H 91.3652 -2.32216 2.29659 0
M  V30 957 H 90.0242 -0.64165 3.60941 0
M  V30 958 H 89.6722 -3.09165 3.96769 0
M  V30 959 H 89.3722 -2.16825 5.46133 0
M  V30 960 H 90.8962 -3.08117 5.27159 0
M  V30 961 H 92.3102 -0.845013 5.67038 0
M  V30 962 H 90.7072 -0.125612 5.99969 0
M  V30 963 H 91.7772 0.633724 4.80741 0
M  V30 964 N 93.1203 -1.57491 0.0584922 0
M  V30 965 C 94.0533 -2.07533 -0.948969 0
M  V30 966 C 95.0313 -0.977444 -1.29942 0
M  V30 967 O 96.2153 -1.2499 -1.41102 0
M  V30 968 C 93.3423 -2.52192 -2.2609 0
M  V30 969 C 92.3883 -3.73287 -2.06298 0
M  V30 970 S 93.2213 -5.18603 -1.33459 0
M  V30 971 C 94.3773 -5.66583 -2.65959 0
M  V30 972 H 94.6103 -2.92662 -0.523118 0
M  V30 973 H 92.1433 -1.53631 -0.153954 0
M  V30 974 H 94.1013 -2.78585 -3.01498 0
M  V30 975 H 92.7623 -1.67356 -2.65802 0
M  V30 976 H 91.9553 -4.0248 -3.03357 0
M  V30 977 H 91.5573 -3.47199 -1.39029 0
M  V30 978 H 93.8493 -5.72616 -3.62101 0
M  V30 979 H 94.7923 -6.65684 -2.41393 0
M  V30 980 H 95.2003 -4.94342 -2.72554 0
M  V30 981 N 94.5984 0.214957 -1.56127 0
M  V30 982 C 95.8234 0.95924 -1.83884 0
M  V30 983 C 96.2484 1.7689 -0.639644 0
M  V30 984 O 95.6064 1.76566 0.411601 0
M  V30 985 C 95.6544 1.84723 -3.09693 0
M  V30 986 O 94.7584 2.94346 -2.8885 0
M  V30 987 H 94.0994 0.27125 -0.606069 0
M  V30 988 H 96.6294 0.226276 -2.03345 0
M  V30 989 H 96.6394 2.25576 -3.39969 0
M  V30 990 H 95.3144 1.25218 -3.96602 0
M  V30 991 H 93.8914 2.57391 -2.69823 0
M  V30 992 N 96.0765 1.50051 0.48192 0
M  V30 993 C 97.0395 1.67584 1.5636 0
M  V30 994 C 98.0395 0.546894 1.51214 0
M  V30 995 O 99.2295 0.813725 1.54026 0
M  V30 996 C 96.3615 1.691 2.96003 0
M  V30 997 H 97.5545 2.64078 1.42136 0
M  V30 998 H 95.1075 1.39369 0.707533 0
M  V30 999 H 95.8425 0.742589 3.15684 0
M  V30 1000 H 95.6275 2.51105 3.01146 0
M  V30 1001 H 97.1175 1.84656 3.74556 0
M  V30 1002 N 97.5546 -0.734337 1.39446 0
M  V30 1003 C 98.5026 -1.86971 1.38364 0
M  V30 1004 C 99.4966 -1.67288 0.266687 0
M  V30 1005 O 100.703 -1.74621 0.436755 0
M  V30 1006 H 97.0776 -0.615474 0.432082 0
M  V30 1007 H 99.0486 -1.85 2.34132 0
M  V30 1008 C 97.7976 -3.2466 1.24465 0
M  V30 1009 H 97.1206 -3.40402 2.09682 0
M  V30 1010 H 98.5606 -4.04292 1.27764 0
M  V30 1011 C 97.0196 -3.36867 -0.0468674 0
M  V30 1012 O 97.5496 -3.88618 -1.01681 0
M  V30 1013 N 95.7556 -2.90391 -0.110145 0
M  V30 1014 H 95.3026 -2.48466 0.679868 0
M  V30 1015 H 95.2606 -2.98939 -0.973799 0
M  V30 1016 N 99.0327 -1.24633 -0.964593 0
M  V30 1017 C 99.9957 -1.0424 -2.04124 0
M  V30 1018 C 100.996 0.00137563 -1.608 0
M  V30 1019 O 102.186 -0.239883 -1.7254 0
M  V30 1020 C 99.3177 -0.580588 -3.3592 0
M  V30 1021 H 100.511 -1.99803 -2.23649 0
M  V30 1022 H 98.0637 -1.06899 -1.14027 0
M  V30 1023 H 98.7987 0.3781 -3.22088 0
M  V30 1024 H 98.5837 -1.33398 -3.6871 0
M  V30 1025 H 100.074 -0.459034 -4.15069 0
M  V30 1026 N 100.511 1.16574 -1.06058 0
M  V30 1027 C 101.444 2.19798 -0.61352 0
M  V30 1028 C 102.422 1.58509 0.362453 0
M  V30 1029 O 103.606 1.86527 0.271994 0
M  V30 1030 C 100.733 3.3855 0.100915 0
M  V30 1031 C 99.7788 4.18317 -0.831438 0
M  V30 1032 S 100.612 4.82375 -2.32539 0
M  V30 1033 C 101.768 6.04508 -1.62238 0
M  V30 1034 H 102.001 2.5738 -1.48805 0
M  V30 1035 H 99.5338 1.27327 -0.873338 0
M  V30 1036 H 101.492 4.07358 0.506898 0
M  V30 1037 H 100.153 2.99338 0.951604 0
M  V30 1038 H 99.3458 5.03232 -0.278071 0
M  V30 1039 H 98.9478 3.5499 -1.17719 0
M  V30 1040 H 101.24 6.71133 -0.926622 0
M  V30 1041 H 102.183 6.64389 -2.44934 0
M  V30 1042 H 102.591 5.53559 -1.106 0
M  V30 1043 N 101.989 0.842826 1.3317 0
M  V30 1044 C 102.937 0.267495 2.31057 0
M  V30 1045 C 103.931 -0.602682 1.58316 0
M  V30 1046 O 105.137 -0.491803 1.73151 0
M  V30 1047 H 101.512 0.0677813 0.748939 0
M  V30 1048 H 103.483 1.10754 2.77085 0
M  V30 1049 C 102.232 -0.539331 3.43492 0
M  V30 1050 H 101.555 0.12095 3.99617 0
M  V30 1051 H 102.995 -0.90767 4.14171 0
M  V30 1052 C 101.454 -1.71981 2.89697 0
M  V30 1053 O 101.984 -2.81862 2.86211 0
M  V30 1054 N 100.19 -1.54299 2.46252 0
M  V30 1055 H 99.7369 -0.649143 2.49287 0
M  V30 1056 H 99.6949 -2.33431 2.10612 0
M  V30 1057 N 103.467 -1.45747 0.599634 0
M  V30 1058 C 104.43 -2.28917 -0.113835 0
M  V30 1059 C 105.43 -1.3933 -0.802729 0
M  V30 1060 O 106.62 -1.61534 -0.652103 0
M  V30 1061 C 103.752 -3.20152 -1.17114 0
M  V30 1062 H 104.945 -2.93478 0.617289 0
M  V30 1063 H 102.498 -1.52137 0.358327 0
M  V30 1064 H 103.233 -2.60374 -1.93329 0
M  V30 1065 H 103.018 -3.86133 -0.681468 0
M  V30 1066 H 104.508 -3.82708 -1.67105 0
M  V30 1067 N 104.945 -0.338344 -1.53925 0
M  V30 1068 C 106.193 0.259245 -2.0043 0
M  V30 1069 C 106.514 1.51484 -1.22791 0
M  V30 1070 O 105.784 1.93037 -0.33368 0
M  V30 1071 H 104.364 0.0987845 -0.740439 0
M  V30 1072 H 107.026 -0.458302 -1.89435 0
M  V30 1073 H 106.122 0.505334 -3.07982 0
M  V30 1074 N 106.423 1.57458 -0.0668435 0
M  V30 1075 C 107.669 1.93587 0.6043 0
M  V30 1076 C 108.002 0.946722 1.69561 0
M  V30 1077 O 107.277 -0.0248516 1.94484 0
M  V30 1078 C 107.56 3.40014 1.18585 0
M  V30 1079 C 107.413 4.49685 0.101529 0
M  V30 1080 C 108.732 3.87154 2.09284 0
M  V30 1081 H 105.851 0.703958 0.218202 0
M  V30 1082 H 108.493 1.89542 -0.131804 0
M  V30 1083 H 106.643 3.43592 1.81319 0
M  V30 1084 H 108.315 4.5823 -0.531279 0
M  V30 1085 H 106.558 4.30059 -0.568487 0
M  V30 1086 H 107.229 5.49266 0.54874 0
M  V30 1087 H 109.705 3.85551 1.56491 0
M  V30 1088 H 108.581 4.90231 2.46911 0
M  V30 1089 H 108.842 3.2481 2.99918 0
M  V30 1090 N 107.901 -0.206675 1.56239 0
M  V30 1091 C 108.811 -1.27686 1.96808 0
M  V30 1092 C 109.827 -1.50455 0.874035 0
M  V30 1093 O 111.003 -1.63295 1.17884 0
M  V30 1094 C 108.068 -2.60358 2.28942 0
M  V30 1095 C 107.129 -2.45762 3.51994 0
M  V30 1096 C 106.362 -3.72108 3.82585 0
M  V30 1097 O 106.585 -4.75776 3.14631 0
M  V30 1098 O 105.519 -3.6833 4.76043 0
M  V30 1099 H 109.345 -0.962593 2.88041 0
M  V30 1100 H 106.93 -0.410746 1.43643 0
M  V30 1101 H 108.812 -3.38687 2.50737 0
M  V30 1102 H 107.487 -2.91435 1.4088 0
M  V30 1103 H 106.394 -1.65584 3.35459 0
M  V30 1104 H 107.727 -2.19621 4.40486 0
M  V30 1105 N 109.379 -1.50304 -0.473955 0
M  V30 1106 C 110.625 -1.61389 -1.22806 0
M  V30 1107 C 110.958 -0.311955 -1.91678 0
M  V30 1108 O 110.233 0.686384 -1.81986 0
M  V30 1109 C 110.516 -2.79219 -2.27396 0
M  V30 1110 C 110.369 -4.19286 -1.62848 0
M  V30 1111 C 111.688 -2.92614 -3.28732 0
M  V30 1112 H 108.807 -0.587399 -0.445119 0
M  V30 1113 H 111.449 -1.82681 -0.522265 0
M  V30 1114 H 109.599 -2.61195 -2.87592 0
M  V30 1115 H 111.271 -4.48892 -1.06271 0
M  V30 1116 H 109.514 -4.23677 -0.931693 0
M  V30 1117 H 110.185 -4.97655 -2.38838 0
M  V30 1118 H 112.661 -3.09105 -2.78556 0
M  V30 1119 H 111.537 -3.76688 -3.99246 0
M  V30 1120 H 111.798 -2.03107 -3.92683 0
M  V30 1121 N 110.857 0.726932 -1.39834 0
M  V30 1122 C 112.103 1.48884 -1.377 0
M  V30 1123 C 112.436 1.94185 0.0244852 0
M  V30 1124 O 111.711 1.67361 0.990986 0
M  V30 1125 C 111.994 2.72288 -2.3565 0
M  V30 1126 C 111.847 2.32956 -3.84775 0
M  V30 1127 C 113.166 3.74414 -2.31306 0
M  V30 1128 H 110.285 0.540062 -0.5015 0
M  V30 1129 H 112.927 0.830547 -1.70886 0
M  V30 1130 H 111.077 3.28457 -2.07481 0
M  V30 1131 H 112.749 1.82356 -4.23726 0
M  V30 1132 H 110.992 1.65088 -4.01159 0
M  V30 1133 H 111.663 3.21362 -4.4881 0
M  V30 1134 H 114.139 3.27849 -2.56231 0
M  V30 1135 H 113.015 4.58414 -3.01907 0
M  V30 1136 H 113.276 4.21909 -1.32081 0
M  V30 1137 N 112.336 1.25143 0.95797 0
M  V30 1138 C 113.283 1.05235 2.05412 0
M  V30 1139 C 114.253 -0.0374561 1.66058 0
M  V30 1140 O 115.438 0.119073 1.90428 0
M  V30 1141 C 112.578 0.673589 3.38462 0
M  V30 1142 C 111.691 1.8379 3.90954 0
M  V30 1143 C 110.826 1.40381 5.12315 0
M  V30 1144 C 109.865 2.53746 5.57027 0
M  V30 1145 N 109.002 2.11136 6.69601 0
M  V30 1146 H 113.842 1.99048 2.21774 0
M  V30 1147 H 111.379 0.991277 1.08683 0
M  V30 1148 H 113.337 0.434964 4.14926 0
M  V30 1149 H 111.967 -0.227554 3.21997 0
M  V30 1150 H 111.019 2.18992 3.11041 0
M  V30 1151 H 112.331 2.68937 4.20089 0
M  V30 1152 H 111.485 1.12464 5.96185 0
M  V30 1153 H 110.224 0.523015 4.84887 0
M  V30 1154 H 109.229 2.82412 4.71724 0
M  V30 1155 H 110.454 3.42398 5.86464 0
M  V30 1156 H 108.4 1.25468 6.4389 0
M  V30 1157 H 108.317 2.89832 6.98236 0
M  V30 1158 H 109.585 1.86385 7.56889 0
M  V30 1159 N 113.814 -1.1601 1.06675 0
M  V30 1160 C 114.746 -2.20115 0.638921 0
M  V30 1161 C 115.759 -1.59916 -0.305057 0
M  V30 1162 O 116.948 -1.78245 -0.0954446 0
M  V30 1163 C 114.048 -3.38798 -0.0830083 0
M  V30 1164 C 113.221 -4.2855 0.875426 0
M  V30 1165 C 112.28 -5.25849 0.192042 0
M  V30 1166 O 111.306 -5.63102 0.830921 0
M  V30 1167 N 112.508 -5.70648 -1.06493 0
M  V30 1168 H 115.273 -2.57439 1.53444 0
M  V30 1169 H 112.834 -1.31057 0.950557 0
M  V30 1170 H 114.826 -4.00936 -0.550685 0
M  V30 1171 H 113.396 -2.99947 -0.880386 0
M  V30 1172 H 112.616 -3.63617 1.52238 0
M  V30 1173 H 113.904 -4.85393 1.52548 0
M  V30 1174 H 113.302 -5.42482 -1.60405 0
M  V30 1175 H 111.859 -6.34859 -1.47641 0
M  V30 1176 N 115.292 -0.849877 -1.32721 0
M  V30 1177 C 116.517 -0.463856 -2.02146 0
M  V30 1178 C 116.942 0.930449 -1.63476 0
M  V30 1179 O 116.3 1.61033 -0.832952 0
M  V30 1180 C 116.348 -0.604955 -3.55489 0
M  V30 1181 O 115.452 0.36425 -4.10788 0
M  V30 1182 H 114.793 -0.187046 -0.637111 0
M  V30 1183 H 117.323 -1.14775 -1.69375 0
M  V30 1184 H 117.333 -0.490696 -4.05038 0
M  V30 1185 H 116.008 -1.62174 -3.82978 0
M  V30 1186 H 114.585 0.206628 -3.72327 0
M  V30 1187 N 116.77 1.45427 -0.607355 0
M  V30 1188 C 117.702 2.2871 0.149752 0
M  V30 1189 C 118.715 1.39937 0.831958 0
M  V30 1190 O 119.904 1.64313 0.697385 0
M  V30 1191 C 117.004 3.15673 1.23304 0
M  V30 1192 C 116.177 4.32722 0.637996 0
M  V30 1193 C 115.236 5.00895 1.61215 0
M  V30 1194 O 114.262 5.57697 1.13854 0
M  V30 1195 N 115.464 5.00159 2.94655 0
M  V30 1196 H 118.229 2.94328 -0.564882 0
M  V30 1197 H 115.79 1.55612 -0.446823 0
M  V30 1198 H 117.782 3.58144 1.88454 0
M  V30 1199 H 116.352 2.51965 1.8502 0
M  V30 1200 H 115.572 3.93734 -0.191572 0
M  V30 1201 H 116.86 5.08321 0.220665 0
M  V30 1202 H 116.258 4.553 3.35735 0
M  V30 1203 H 114.815 5.46495 3.55228 0
M  V30 1204 N 118.248 0.346503 1.53744 0
M  V30 1205 C 119.18 -0.543316 2.22667 0
M  V30 1206 C 120.193 -1.06159 1.23427 0
M  V30 1207 O 121.382 -0.971235 1.49764 0
M  V30 1208 C 118.482 -1.76076 2.89569 0
M  V30 1209 C 117.655 -1.37727 4.15151 0
M  V30 1210 C 116.714 -2.45471 4.65436 0
M  V30 1211 O 115.74 -2.08655 5.29577 0
M  V30 1212 N 116.942 -3.7677 4.41616 0
M  V30 1213 H 119.707 0.0469703 2.99663 0
M  V30 1214 H 117.268 0.170766 1.60997 0
M  V30 1215 H 119.26 -2.47593 3.20125 0
M  V30 1216 H 117.83 -2.25835 2.16142 0
M  V30 1217 H 117.05 -0.492746 3.91108 0
M  V30 1218 H 118.338 -1.09708 4.96832 0
M  V30 1219 H 117.736 -4.09467 3.90325 0
M  V30 1220 H 116.293 -4.44448 4.7677 0
M  V30 1221 N 119.726 -1.57421 0.075193 0
M  V30 1222 C 120.689 -2.11791 -0.876203 0
M  V30 1223 C 121.689 -1.04268 -1.22412 0
M  V30 1224 O 122.879 -1.30242 -1.15684 0
M  V30 1225 C 120.011 -2.62207 -2.17854 0
M  V30 1226 H 121.204 -2.9716 -0.40444 0
M  V30 1227 H 118.757 -1.55333 -0.173557 0
M  V30 1228 H 119.492 -1.803 -2.6956 0
M  V30 1229 H 119.277 -3.40802 -1.93897 0
M  V30 1230 H 120.767 -3.04335 -2.85955 0
M  V30 1231 N 121.204 0.198386 -1.56346 0
M  V30 1232 C 122.451 0.919286 -1.80431 0
M  V30 1233 C 122.779 1.83393 -0.647866 0
M  V30 1234 O 122.034 1.92236 0.366556 0
M  V30 1235 C 122.333 1.77031 -3.10475 0
M  V30 1236 C 121.999 1.00693 -4.39513 0
M  V30 1237 C 120.661 0.796145 -4.74568 0
M  V30 1238 C 123.013 0.469559 -5.19081 0
M  V30 1239 C 120.341 0.0364588 -5.86689 0
M  V30 1240 C 122.693 -0.2769 -6.31994 0
M  V30 1241 C 121.357 -0.49873 -6.65634 0
M  V30 1242 H 120.627 0.336391 -0.660244 0
M  V30 1243 H 123.274 0.185872 -1.90596 0
M  V30 1244 H 121.579 2.5723 -2.95533 0
M  V30 1245 H 123.276 2.33065 -3.26315 0
M  V30 1246 H 119.866 1.18122 -4.12001 0
M  V30 1247 H 124.05 0.619816 -4.92414 0
M  V30 1248 H 119.306 -0.145412 -6.11227 0
M  V30 1249 H 123.48 -0.700684 -6.92866 0
M  V30 1250 H 121.107 -1.0893 -7.52355 0
M  V30 1251 N 122.682 1.50554 0.465978 0
M  V30 1252 C 123.959 1.5232 1.22712 0
M  V30 1253 C 124.339 0.270807 2.09356 0
M  V30 1254 O 123.687 -0.745541 2.15995 0
M  V30 1255 C 123.897 2.82175 2.05374 0
M  V30 1256 C 125.245 3.33033 2.6339 0
M  V30 1257 O 126.269 2.83531 2.15612 0
M  V30 1258 O 125.128 4.19336 3.50456 0
M  V30 1259 H 122.222 0.611183 0.557122 0
M  V30 1260 H 124.768 1.62847 0.477381 0
M  V30 1261 H 123.54 3.64797 1.41558 0
M  V30 1262 H 123.163 2.74675 2.87471 0
M  V30 1263 N 124.16 -0.719506 1.40217 0
M  V30 1264 C 125.093 -1.84298 1.34571 0
M  V30 1265 C 126.071 -1.61149 0.216741 0
M  V30 1266 O 127.255 -1.84212 0.399756 0
M  V30 1267 C 124.382 -3.20568 1.09335 0
M  V30 1268 C 123.428 -3.62551 2.24631 0
M  V30 1269 S 124.261 -3.7012 3.87004 0
M  V30 1270 C 125.417 -5.09154 3.64024 0
M  V30 1271 H 125.65 -1.88807 2.2965 0
M  V30 1272 H 123.183 -0.885901 1.26456 0
M  V30 1273 H 125.141 -3.99246 0.954602 0
M  V30 1274 H 123.802 -3.13696 0.159164 0
M  V30 1275 H 122.995 -4.61483 2.02606 0
M  V30 1276 H 122.597 -2.91119 2.34789 0
M  V30 1277 H 124.889 -5.95955 3.22248 0
M  V30 1278 H 125.832 -5.36213 4.62473 0
M  V30 1279 H 126.24 -4.79562 2.97793 0
M  V30 1280 N 125.638 -1.25649 -0.95132 0
M  V30 1281 C 127.049 -1.09654 -1.51106 0
M  V30 1282 C 127.4 0.326615 -1.93462 0
M  V30 1283 O 126.525 1.21697 -1.78938 0
M  V30 1284 C 127.12 -1.98437 -2.74605 0
M  V30 1285 C 125.679 -1.86618 -3.2688 0
M  V30 1286 C 124.826 -1.9239 -1.99703 0
M  V30 1287 H 127.777 -1.38887 -0.767865 0
M  V30 1288 H 127.798 -1.5263 -3.48546 0
M  V30 1289 H 127.31 -3.02009 -2.43746 0
M  V30 1290 H 125.411 -0.859421 -3.62553 0
M  V30 1291 H 125.524 -2.71607 -3.94673 0
M  V30 1292 H 123.888 -1.36317 -2.15151 0
M  V30 1293 H 124.671 -2.97573 -1.71188 0
M  V30 1294 N 127.117 1.15442 -1.07289 0
M  V30 1295 C 128.342 1.90638 -0.816828 0
M  V30 1296 C 128.767 1.77445 0.624083 0
M  V30 1297 O 128.125 1.10671 1.43602 0
M  V30 1298 C 128.173 3.39008 -1.22906 0
M  V30 1299 O 127.277 4.10701 -0.373975 0
M  V30 1300 H 126.618 0.593555 -0.297638 0
M  V30 1301 H 129.148 1.46198 -1.43134 0
M  V30 1302 H 129.158 3.89801 -1.20497 0
M  V30 1303 H 127.833 3.47929 -2.27856 0
M  V30 1304 H 126.41 3.70046 -0.460499 0
M  V30 1305 N 128.595 0.856903 1.32268 0
M  V30 1306 C 129.841 0.462069 1.97466 0
M  V30 1307 C 130.174 -0.980298 1.67642 0
M  V30 1308 O 129.449 -1.68824 0.965858 0
M  V30 1309 C 129.732 0.704336 3.53145 0
M  V30 1310 C 129.585 2.19529 3.9259 0
M  V30 1311 C 130.904 0.1622 4.39801 0
M  V30 1312 H 128.023 0.169357 0.717278 0
M  V30 1313 H 130.665 1.07574 1.56614 0
M  V30 1314 H 128.815 0.181999 3.88073 0
M  V30 1315 H 130.487 2.78387 3.67829 0
M  V30 1316 H 128.73 2.67292 3.41668 0
M  V30 1317 H 129.401 2.31549 5.01088 0
M  V30 1318 H 131.877 0.608905 4.11621 0
M  V30 1319 H 130.753 0.361265 5.4771 0
M  V30 1320 H 131.014 -0.935158 4.32096 0
M  V30 1321 N 130.073 -1.45103 0.615059 0
M  V30 1322 C 131.321 -2.01784 0.112955 0
M  V30 1323 C 131.642 -1.48504 -1.26378 0
M  V30 1324 O 130.912 -0.682245 -1.83636 0
M  V30 1325 H 129.492 -0.745993 0.0387668 0
M  V30 1326 H 132.154 -1.77808 0.798141 0
M  V30 1327 H 131.25 -3.12025 0.0684069 0
M  V30 1328 N 131.551 -0.354651 -1.53558 0
M  V30 1329 C 132.498 0.496968 -2.25386 0
M  V30 1330 C 133.468 1.0865 -1.25636 0
M  V30 1331 O 134.653 1.12104 -1.54394 0
M  V30 1332 C 131.793 1.63637 -3.03837 0
M  V30 1333 C 130.906 1.07307 -4.18461 0
M  V30 1334 C 130.041 2.18068 -4.84376 0
M  V30 1335 C 129.08 1.59147 -5.91049 0
M  V30 1336 N 128.217 2.63695 -6.50699 0
M  V30 1337 H 133.057 -0.122075 -2.9775 0
M  V30 1338 H 130.594 -0.0720154 -1.46924 0
M  V30 1339 H 132.552 2.30734 -3.47589 0
M  V30 1340 H 131.182 2.22623 -2.33749 0
M  V30 1341 H 130.234 0.292708 -3.79272 0
M  V30 1342 H 131.546 0.602193 -4.95152 0
M  V30 1343 H 130.7 2.93007 -5.31255 0
M  V30 1344 H 129.439 2.68504 -4.07133 0
M  V30 1345 H 128.444 0.827175 -5.43542 0
M  V30 1346 H 129.669 1.09549 -6.70206 0
M  V30 1347 H 127.615 3.13365 -5.76315 0
M  V30 1348 H 127.532 2.21263 -7.22896 0
M  V30 1349 H 128.8 3.3837 -7.02229 0
M  V30 1350 N 133.029 1.57378 -0.0835403 0
M  V30 1351 C 134.278 1.93106 0.582498 0
M  V30 1352 C 134.591 0.96651 1.70053 0
M  V30 1353 O 135.797 1.21705 2.42693 0
M  V30 1354 C 134.253 3.43076 1.08751 0
M  V30 1355 C 133.861 4.48 -0.000146404 0
M  V30 1356 C 135.605 3.87785 1.72694 0
M  V30 1357 C 133.512 5.89113 0.519568 0
M  V30 1358 H 132.442 0.720775 0.221358 0
M  V30 1359 H 135.093 1.82821 -0.157675 0
M  V30 1360 H 133.475 3.48474 1.88101 0
M  V30 1361 H 134.649 4.54233 -0.775199 0
M  V30 1362 H 132.964 4.1283 -0.54406 0
M  V30 1363 H 135.561 4.90604 2.1263 0
M  V30 1364 H 135.904 3.25796 2.59158 0
M  V30 1365 H 136.437 3.8504 0.999457 0
M  V30 1366 H 133.176 6.54775 -0.308186 0
M  V30 1367 H 132.696 5.86376 1.26188 0
M  V30 1368 H 134.375 6.39346 0.992237 0
M  V30 1369 N 134.507 -0.190092 1.56449 0
M  V30 1370 C 135.753 -0.911052 1.81184 0
M  V30 1371 C 136.086 -1.82699 0.658396 0
M  V30 1372 O 135.361 -1.91491 -0.340775 0
M  V30 1373 C 135.644 -1.72297 3.16205 0
M  V30 1374 C 135.497 -0.831419 4.42049 0
M  V30 1375 C 136.816 -2.69454 3.47969 0
M  V30 1376 H 133.935 -0.32977 0.659106 0
M  V30 1377 H 136.577 -0.178169 1.89163 0
M  V30 1378 H 134.727 -2.34778 3.09534 0
M  V30 1379 H 136.399 -0.220929 4.60771 0
M  V30 1380 H 134.642 -0.138406 4.33579 0
M  V30 1381 H 135.313 -1.43461 5.33032 0
M  V30 1382 H 137.789 -2.17104 3.54972 0
M  V30 1383 H 136.665 -3.23342 4.43555 0
M  V30 1384 H 136.926 -3.48744 2.71717 0
M  V30 1385 N 135.985 -1.50799 -0.457987 0
M  V30 1386 C 136.915 -1.73553 -1.5621 0
M  V30 1387 C 137.896 -0.584774 -1.59732 0
M  V30 1388 O 139.081 -0.825314 -1.7579 0
M  V30 1389 C 136.211 -1.84169 -2.94447 0
M  V30 1390 C 135.165 -2.99461 -3.0579 0
M  V30 1391 C 134.491 -2.95235 -4.45803 0
M  V30 1392 C 135.791 -4.39766 -2.81786 0
M  V30 1393 H 137.485 -2.66 -1.37421 0
M  V30 1394 H 135.031 -1.28002 -0.659662 0
M  V30 1395 H 136.984 -1.98672 -3.71628 0
M  V30 1396 H 135.708 -0.883545 -3.14422 0
M  V30 1397 H 134.367 -2.8463 -2.31044 0
M  V30 1398 H 134.015 -1.97239 -4.62715 0
M  V30 1399 H 133.715 -3.72642 -4.54326 0
M  V30 1400 H 135.239 -3.11803 -5.24987 0
M  V30 1401 H 136.653 -4.55054 -3.4871 0
M  V30 1402 H 135.05 -5.18722 -3.0174 0
M  V30 1403 H 136.12 -4.51229 -1.7754 0
M  V30 1404 N 137.463 0.71206 -1.40597 0
M  V30 1405 C 138.711 1.46907 -1.38791 0
M  V30 1406 C 139.032 1.94998 0.00780391 0
M  V30 1407 O 138.302 1.70587 0.963174 0
M  V30 1408 H 136.882 0.545043 -0.51082 0
M  V30 1409 H 139.544 0.843882 -1.75683 0
M  V30 1410 H 138.64 2.34021 -2.06496 0
M  V30 1411 N 138.941 1.26152 0.944643 0
M  V30 1412 C 140.169 1.14259 1.72489 0
M  V30 1413 C 140.584 -0.302555 1.8636 0
M  V30 1414 O 139.941 -1.20741 1.36849 0
M  V30 1415 C 139.992 1.80266 3.13347 0
M  V30 1416 O 139.713 3.19133 3.00143 0
M  V30 1417 C 141.214 1.74283 4.07603 0
M  V30 1418 H 138.434 0.398051 0.540181 0
M  V30 1419 H 140.978 1.66706 1.18446 0
M  V30 1420 H 139.133 1.31766 3.64303 0
M  V30 1421 H 139.547 3.51744 3.89071 0
M  V30 1422 H 141.021 2.25111 5.04013 0
M  V30 1423 H 141.498 0.708631 4.33446 0
M  V30 1424 H 142.104 2.22319 3.62567 0
M  V30 1425 N 140.419 -1.14872 1.07899 0
M  V30 1426 C 141.665 -1.86064 0.806725 0
M  V30 1427 C 141.998 -1.82434 -0.665706 0
M  V30 1428 O 141.273 -1.25138 -1.48899 0
M  V30 1429 C 141.556 -3.34929 1.32267 0
M  V30 1430 C 141.409 -3.47161 2.86006 0
M  V30 1431 C 142.728 -4.29863 0.943717 0
M  V30 1432 H 139.847 -0.675591 0.294526 0
M  V30 1433 H 142.489 -1.34925 1.33773 0
M  V30 1434 H 140.639 -3.78611 0.870974 0
M  V30 1435 H 142.311 -3.12302 3.39507 0
M  V30 1436 H 140.554 -2.88539 3.23925 0
M  V30 1437 H 141.225 -4.51777 3.17177 0
M  V30 1438 H 143.701 -3.9417 1.33302 0
M  V30 1439 H 142.577 -5.32494 1.33198 0
M  V30 1440 H 142.838 -4.41846 -0.149796 0
M  V30 1441 N 141.898 -0.863906 -1.31812 0
M  V30 1442 C 142.845 -0.313303 -2.28664 0
M  V30 1443 C 143.815 0.584868 -1.55462 0
M  V30 1444 O 145 0.517805 -1.83639 0
M  V30 1445 C 142.14 0.48441 -3.41683 0
M  V30 1446 C 141.253 -0.440594 -4.29747 0
M  V30 1447 C 140.388 0.370652 -5.29905 0
M  V30 1448 C 139.427 -0.551164 -6.09613 0
M  V30 1449 N 138.564 0.223462 -7.01744 0
M  V30 1450 H 143.404 -1.14444 -2.75148 0
M  V30 1451 H 140.941 -0.575769 -1.35364 0
M  V30 1452 H 142.899 0.962627 -4.05943 0
M  V30 1453 H 141.529 1.28029 -2.96325 0
M  V30 1454 H 140.581 -1.03724 -3.65986 0
M  V30 1455 H 141.893 -1.14767 -4.85417 0
M  V30 1456 H 141.047 0.911638 -5.99812 0
M  V30 1457 H 139.786 1.11105 -4.74876 0
M  V30 1458 H 138.791 -1.10396 -5.38603 0
M  V30 1459 H 140.016 -1.29032 -6.66729 0
M  V30 1460 H 137.962 0.946787 -6.49132 0
M  V30 1461 H 137.879 -0.424399 -7.54808 0
M  V30 1462 H 139.147 0.745876 -7.75923 0
M  V30 1463 N 143.376 1.44774 -0.622745 0
M  V30 1464 C 144.624 2.01721 -0.123655 0
M  V30 1465 C 144.945 1.49172 1.25589 0
M  V30 1466 O 144.215 0.691974 1.83272 0
M  V30 1467 H 142.795 0.745777 -0.0427225 0
M  V30 1468 H 145.457 1.77382 -0.807559 0
M  V30 1469 H 144.553 3.11984 -0.0849534 0
M  V30 1470 N 144.854 0.36279 1.53368 0
M  V30 1471 C 146.131 -0.284021 1.93527 0
M  V30 1472 C 146.511 -1.66628 1.29608 0
M  V30 1473 O 145.859 -2.23942 0.45413 0
M  V30 1474 C 146.069 -0.337028 3.47369 0
M  V30 1475 C 147.417 -0.578708 4.20638 0
M  V30 1476 O 148.441 -0.418352 3.53735 0
M  V30 1477 O 147.3 -0.89074 5.39192 0
M  V30 1478 H 144.394 -0.169743 0.809393 0
M  V30 1479 H 146.94 0.41537 1.64538 0
M  V30 1480 H 145.712 0.632217 3.86159 0
M  V30 1481 H 145.335 -1.08243 3.82582 0
M  V30 1482 N 146.332 -1.57332 0.0918853 0
M  V30 1483 C 147.262 -2.16872 -0.865371 0
M  V30 1484 C 148.243 -1.10118 -1.29646 0
M  V30 1485 O 149.428 -1.38242 -1.36392 0
M  V30 1486 C 146.558 -2.74649 -2.12569 0
M  V30 1487 C 145.512 -3.86747 -1.83333 0
M  V30 1488 C 144.838 -4.31212 -3.16166 0
M  V30 1489 C 146.138 -5.10089 -1.1228 0
M  V30 1490 H 147.832 -2.97114 -0.369307 0
M  V30 1491 H 145.378 -1.42918 -0.176194 0
M  V30 1492 H 147.331 -3.14952 -2.7997 0
M  V30 1493 H 146.055 -1.91657 -2.64452 0
M  V30 1494 H 144.714 -3.46978 -1.18331 0
M  V30 1495 H 144.362 -3.45115 -3.6593 0
M  V30 1496 H 144.062 -5.06788 -2.97388 0
M  V30 1497 H 145.586 -4.74146 -3.84731 0
M  V30 1498 H 147 -5.47582 -1.69785 0
M  V30 1499 H 145.397 -5.91073 -1.03693 0
M  V30 1500 H 146.467 -4.84786 -0.105041 0
M  V30 1501 N 147.81 0.181792 -1.56548 0
M  V30 1502 C 148.76 1.22961 -1.92002 0
M  V30 1503 C 149.744 1.40331 -0.787146 0
M  V30 1504 O 150.936 1.42478 -1.05019 0
M  V30 1505 C 148.065 2.57144 -2.27446 0
M  V30 1506 C 147.151 2.43512 -3.47222 0
M  V30 1507 N 147.542 1.99577 -4.64761 0
M  V30 1508 C 145.84 2.74368 -3.51622 0
M  V30 1509 C 146.541 1.98156 -5.46909 0
M  V30 1510 N 145.517 2.40164 -4.8767 0
M  V30 1511 H 149.319 0.881462 -2.8037 0
M  V30 1512 H 146.833 0.390141 -1.57644 0
M  V30 1513 H 148.83 3.32847 -2.51035 0
M  V30 1514 H 147.49 2.92771 -1.40411 0
M  V30 1515 H 148.501 1.70078 -4.89177 0
M  V30 1516 H 145.178 3.14102 -2.75038 0
M  V30 1517 H 146.568 1.65975 -6.51077 0
M  V30 1518 N 149.288 1.51039 0.449983 0
M  V30 1519 C 150.565 1.53612 1.21089 0
M  V30 1520 C 150.945 0.292997 2.09057 0
M  V30 1521 O 150.293 -0.72259 2.16774 0
M  V30 1522 C 150.503 2.84337 2.0237 0
M  V30 1523 C 151.851 3.35807 2.59843 0
M  V30 1524 O 152.875 2.85802 2.12593 0
M  V30 1525 O 151.734 4.23029 3.45989 0
M  V30 1526 H 148.828 0.617057 0.550608 0
M  V30 1527 H 151.374 1.63344 0.460082 0
M  V30 1528 H 150.146 3.66278 1.37681 0
M  V30 1529 H 149.769 2.77708 2.84542 0
M  V30 1530 N 150.766 -0.704594 1.40972 0
M  V30 1531 C 152.015 -1.46018 1.39146 0
M  V30 1532 C 152.328 -1.956 0.000589254 0
M  V30 1533 O 153.534 -2.71137 -0.1403 0
M  V30 1534 C 151.99 -2.63996 2.4461 0
M  V30 1535 C 151.598 -2.21238 3.89561 0
M  V30 1536 C 153.342 -3.41677 2.51907 0
M  V30 1537 C 151.249 -3.3612 4.86598 0
M  V30 1538 H 150.179 -0.548444 0.517422 0
M  V30 1539 H 152.83 -0.765784 1.66757 0
M  V30 1540 H 151.212 -3.3566 2.10115 0
M  V30 1541 H 152.386 -1.56923 4.33257 0
M  V30 1542 H 150.701 -1.56574 3.85841 0
M  V30 1543 H 153.298 -4.27182 3.2159 0
M  V30 1544 H 153.641 -3.86247 1.55303 0
M  V30 1545 H 154.174 -2.77064 2.85448 0
M  V30 1546 H 150.913 -2.96572 5.84573 0
M  V30 1547 H 150.433 -3.99315 4.47557 0
M  V30 1548 H 152.112 -4.02029 5.06934 0
M  V30 1549 N 152.244 -1.26651 -0.937939 0
M  V30 1550 C 153.492 -1.12165 -1.68118 0
M  V30 1551 C 153.813 0.334983 -1.92101 0
M  V30 1552 O 153.083 1.23583 -1.52 0
M  V30 1553 H 151.663 -0.412093 -0.623048 0
M  V30 1554 H 154.325 -1.59027 -1.12678 0
M  V30 1555 H 153.421 -1.64289 -2.6536 0
M  V30 1556 N 153.722 1.14298 -1.08507 0
M  V30 1557 C 154.669 2.19414 -0.715965 0
M  V30 1558 C 155.639 1.63399 0.298326 0
M  V30 1559 O 156.824 1.89929 0.182101 0
M  V30 1560 C 153.964 3.44845 -0.132534 0
M  V30 1561 C 153.077 4.15007 -1.19973 0
M  V30 1562 C 152.212 5.28024 -0.580048 0
M  V30 1563 C 151.251 5.9002 -1.62921 0
M  V30 1564 N 150.388 6.94485 -1.03125 0
M  V30 1565 H 155.228 2.50336 -1.61666 0
M  V30 1566 H 152.765 1.2293 -0.807882 0
M  V30 1567 H 154.723 4.16601 0.223454 0
M  V30 1568 H 153.353 3.14403 0.731467 0
M  V30 1569 H 152.405 3.41629 -1.67313 0
M  V30 1570 H 153.717 4.57178 -1.99473 0
M  V30 1571 H 152.871 6.06455 -0.172364 0
M  V30 1572 H 151.61 4.87076 0.246603 0
M  V30 1573 H 150.615 5.10291 -2.04654 0
M  V30 1574 H 151.84 6.33042 -2.45835 0
M  V30 1575 H 149.786 6.55612 -0.225711 0
M  V30 1576 H 149.703 7.35148 -1.76334 0
M  V30 1577 H 150.971 7.7679 -0.649458 0
M  V30 1578 N 155.201 0.870884 1.31352 0
M  V30 1579 C 156.149 0.316445 2.30437 0
M  V30 1580 C 157.143 -0.568965 1.59559 0
M  V30 1581 O 158.349 -0.454964 1.74155 0
M  V30 1582 H 154.724 0.0836521 0.747333 0
M  V30 1583 H 156.695 1.16606 2.74673 0
M  V30 1584 C 155.444 -0.46635 3.44558 0
M  V30 1585 H 154.767 0.205687 3.99271 0
M  V30 1586 H 156.207 -0.819614 4.16003 0
M  V30 1587 C 154.666 -1.65797 2.9328 0
M  V30 1588 O 155.196 -2.75728 2.92125 0
M  V30 1589 N 153.402 -1.49041 2.4947 0
M  V30 1590 H 152.949 -0.59612 2.50608 0
M  V30 1591 H 152.907 -2.28911 2.15516 0
M  V30 1592 N 156.679 -1.44442 0.630414 0
M  V30 1593 C 157.609 -2.33418 -0.0618083 0
M  V30 1594 C 158.59 -1.48165 -0.835541 0
M  V30 1595 O 159.775 -1.76886 -0.801564 0
M  V30 1596 C 156.905 -3.31222 -1.04449 0
M  V30 1597 C 155.859 -4.26288 -0.382436 0
M  V30 1598 C 155.185 -5.13954 -1.47497 0
M  V30 1599 C 156.485 -5.1744 0.710865 0
M  V30 1600 H 158.179 -2.91548 0.681184 0
M  V30 1601 H 155.725 -1.40191 0.329026 0
M  V30 1602 H 157.678 -3.92351 -1.53748 0
M  V30 1603 H 156.402 -2.71299 -1.81836 0
M  V30 1604 H 155.061 -3.6649 0.0899054 0
M  V30 1605 H 154.709 -4.50385 -2.2397 0
M  V30 1606 H 154.409 -5.7837 -1.03737 0
M  V30 1607 H 155.933 -5.77955 -1.96979 0
M  V30 1608 H 157.347 -5.72509 0.300996 0
M  V30 1609 H 155.744 -5.90455 1.07156 0
M  V30 1610 H 156.814 -4.58496 1.57829 0
M  V30 1611 N 158.157 -0.370918 -1.53173 0
M  V30 1612 C 159.403 0.217423 -2.01631 0
M  V30 1613 C 159.736 1.47983 -1.25756 0
M  V30 1614 O 159.011 1.91274 -0.352764 0
M  V30 1615 C 159.294 0.503982 -3.56556 0
M  V30 1616 C 159.147 -0.77243 -4.43118 0
M  V30 1617 C 160.466 1.30234 -4.20389 0
M  V30 1618 H 157.585 0.0775486 -0.732909 0
M  V30 1619 H 160.227 -0.496863 -1.83388 0
M  V30 1620 H 158.377 1.11248 -3.72231 0
M  V30 1621 H 160.049 -1.4098 -4.39229 0
M  V30 1622 H 158.292 -1.39167 -4.10871 0
M  V30 1623 H 158.963 -0.526815 -5.4948 0
M  V30 1624 H 161.439 0.787546 -4.08579 0
M  V30 1625 H 160.315 1.47158 -5.28806 0
M  V30 1626 H 160.576 2.31237 -3.76805 0
M  V30 1627 N 159.635 1.57281 -0.100228 0
M  V30 1628 C 160.598 2.13158 0.842398 0
M  V30 1629 C 161.598 1.06202 1.20738 0
M  V30 1630 O 162.788 1.32066 1.13597 0
M  V30 1631 C 159.92 2.65639 2.13655 0
M  V30 1632 H 161.113 2.97766 0.357114 0
M  V30 1633 H 158.666 1.5559 0.148823 0
M  V30 1634 H 159.401 1.84566 2.66657 0
M  V30 1635 H 159.186 3.43844 1.88451 0
M  V30 1636 H 160.676 3.08846 2.81077 0
M  V30 1637 N 161.113 -0.173488 1.56642 0
M  V30 1638 C 162.046 -1.24353 1.91342 0
M  V30 1639 C 163.024 -1.4289 0.775965 0
M  V30 1640 O 164.208 -1.57932 1.02907 0
M  V30 1641 C 161.335 -2.60683 2.16245 0
M  V30 1642 C 160.381 -2.58894 3.38934 0
M  V30 1643 S 161.214 -2.0819 4.93373 0
M  V30 1644 C 162.37 -3.46302 5.21369 0
M  V30 1645 H 162.603 -0.947345 2.81803 0
M  V30 1646 H 160.136 -0.377958 1.49703 0
M  V30 1647 H 162.094 -3.39149 2.31275 0
M  V30 1648 H 160.755 -2.87502 1.26496 0
M  V30 1649 H 159.948 -3.59188 3.53553 0
M  V30 1650 H 159.55 -1.88522 3.2301 0
M  V30 1651 H 161.842 -4.42287 5.13214 0
M  V30 1652 H 162.785 -3.3656 6.23003 0
M  V30 1653 H 163.193 -3.42214 4.48943 0
M  V30 1654 N 162.591 -1.51276 -0.441967 0
M  V30 1655 C 163.524 -1.66933 -1.55591 0
M  V30 1656 C 164.502 -0.516958 -1.54163 0
M  V30 1657 O 165.686 -0.740209 -1.73358 0
M  V30 1658 C 162.813 -1.67866 -2.94174 0
M  V30 1659 C 161.859 -2.89013 -3.13646 0
M  V30 1660 S 162.692 -4.49897 -2.90436 0
M  V30 1661 C 163.848 -4.53568 -4.31308 0
M  V30 1662 H 164.081 -2.61155 -1.42076 0
M  V30 1663 H 161.614 -1.40902 -0.631341 0
M  V30 1664 H 163.572 -1.69089 -3.74058 0
M  V30 1665 H 162.233 -0.748296 -3.05056 0
M  V30 1666 H 161.426 -2.86054 -4.14957 0
M  V30 1667 H 161.028 -2.85509 -2.4158 0
M  V30 1668 H 163.32 -4.28924 -5.24434 0
M  V30 1669 H 164.263 -5.55355 -4.39303 0
M  V30 1670 H 164.671 -3.82943 -4.14747 0
M  V30 1671 N 164.069 0.697108 -1.41344 0
M  V30 1672 C 164.999 1.82353 -1.45841 0
M  V30 1673 C 165.98 1.67115 -0.317247 0
M  V30 1674 O 167.165 1.86871 -0.528474 0
M  V30 1675 C 164.295 3.20476 -1.33838 0
M  V30 1676 C 163.249 3.50415 -2.4575 0
M  V30 1677 C 162.575 4.87878 -2.18813 0
M  V30 1678 C 163.875 3.49546 -3.88091 0
M  V30 1679 H 165.569 1.78846 -2.40113 0
M  V30 1680 H 163.115 0.859028 -1.15571 0
M  V30 1681 H 165.068 3.98988 -1.35596 0
M  V30 1682 H 163.792 3.24604 -0.360498 0
M  V30 1683 H 162.451 2.74253 -2.43271 0
M  V30 1684 H 162.099 4.8863 -1.19371 0
M  V30 1685 H 161.799 5.08875 -2.93803 0
M  V30 1686 H 163.323 5.68702 -2.22284 0
M  V30 1687 H 164.737 4.18066 -3.92293 0
M  V30 1688 H 163.134 3.82075 -4.62751 0
M  V30 1689 H 164.204 2.48552 -4.16353 0
M  V30 1690 N 165.547 1.27147 0.931209 0
M  V30 1691 C 166.457 1.11372 2.06478 0
M  V30 1692 C 167.473 0.044645 1.73943 0
M  V30 1693 O 168.649 0.250417 1.99837 0
M  V30 1694 C 165.714 0.758838 3.38294 0
M  V30 1695 C 164.775 1.90841 3.84549 0
M  V30 1696 C 164.008 1.57036 5.10074 0
M  V30 1697 O 164.231 0.476645 5.68405 0
M  V30 1698 O 163.165 2.40839 5.51616 0
M  V30 1699 H 166.991 2.06493 2.22698 0
M  V30 1700 H 164.576 1.06301 1.04978 0
M  V30 1701 H 166.458 0.574098 4.17471 0
M  V30 1702 H 165.133 -0.162879 3.2329 0
M  V30 1703 H 164.04 2.14819 3.06274 0
M  V30 1704 H 165.373 2.81021 4.04089 0
M  V30 1705 N 167.025 -1.13721 1.09112 0
M  V30 1706 C 168.25 -1.89314 0.847053 0
M  V30 1707 C 168.675 -1.78416 -0.595774 0
M  V30 1708 O 168.033 -1.12942 -1.41823 0
M  V30 1709 C 168.081 -3.3701 1.28284 0
M  V30 1710 O 167.185 -4.10054 0.439267 0
M  V30 1711 H 166.526 -0.588745 0.307044 0
M  V30 1712 H 169.056 -1.43902 1.45442 0
M  V30 1713 H 169.066 -3.87834 1.26683 0
M  V30 1714 H 167.741 -3.4426 2.33363 0
M  V30 1715 H 166.318 -3.69266 0.519312 0
M  V30 1716 N 168.503 -0.877838 -1.30888 0
M  V30 1717 C 169.751 -0.491723 -1.96027 0
M  V30 1718 C 170.072 0.960827 -1.69685 0
M  V30 1719 O 169.342 1.67462 -1.01654 0
M  V30 1720 H 167.922 -0.17885 -0.725273 0
M  V30 1721 H 170.584 -1.11935 -1.59551 0
M  V30 1722 H 169.68 -0.656016 -3.05128 0
M  V30 1723 N 169.982 1.44106 -0.638065 0
M  V30 1724 C 171.23 2.01579 -0.145043 0
M  V30 1725 C 171.551 1.50496 1.24 0
M  V30 1726 O 170.821 0.711374 1.82527 0
M  V30 1727 H 169.401 0.745282 -0.05063 0
M  V30 1728 H 172.063 1.76516 -0.826327 0
M  V30 1729 H 171.159 3.11877 -0.118039 0
M  V30 1730 N 171.46 0.379036 1.52974 0
M  V30 1731 C 172.707 -0.206421 2.01445 0
M  V30 1732 C 173.035 -1.47668 1.26587 0
M  V30 1733 O 172.29 -1.92514 0.351675 0
M  V30 1734 C 172.589 -0.53096 3.53434 0
M  V30 1735 C 172.255 0.646546 4.46241 0
M  V30 1736 C 170.917 0.969604 4.7133 0
M  V30 1737 C 173.269 1.43479 5.01062 0
M  V30 1738 C 170.597 2.08263 5.48492 0
M  V30 1739 C 172.949 2.53834 5.7944 0
M  V30 1740 C 171.613 2.86659 6.02812 0
M  V30 1741 H 170.883 -0.0755349 0.73714 0
M  V30 1742 H 173.53 0.514271 1.84465 0
M  V30 1743 H 171.835 -1.33285 3.68432 0
M  V30 1744 H 173.532 -0.996417 3.88423 0
M  V30 1745 H 170.122 0.384734 4.2687 0
M  V30 1746 H 174.306 1.19844 4.81613 0
M  V30 1747 H 169.562 2.34078 5.64816 0
M  V30 1748 H 173.736 3.15319 6.20924 0
M  V30 1749 H 171.363 3.73026 6.62387 0
M  V30 1750 N 172.938 -1.57226 0.108567 0
M  V30 1751 C 174.166 -1.99179 -0.559954 0
M  V30 1752 C 174.581 -0.988022 -1.60884 0
M  V30 1753 O 173.938 0.0205512 -1.82488 0
M  V30 1754 C 173.989 -3.41159 -1.19552 0
M  V30 1755 O 173.71 -4.37694 -0.188577 0
M  V30 1756 C 175.211 -3.98188 -1.94837 0
M  V30 1757 H 172.431 -0.654228 -0.149088 0
M  V30 1758 H 174.975 -2.03598 0.19183 0
M  V30 1759 H 173.13 -3.37711 -1.89815 0
M  V30 1760 H 173.544 -5.20469 -0.649014 0
M  V30 1761 H 175.018 -4.99644 -2.34648 0
M  V30 1762 H 175.495 -3.3675 -2.81951 0
M  V30 1763 H 176.101 -4.0515 -1.2936 0
M  V30 1764 N 174.416 0.165178 -1.56732 0
M  V30 1765 C 175.662 0.882112 -1.82611 0
M  V30 1766 C 175.995 1.81628 -0.687378 0
M  V30 1767 O 175.27 1.92009 0.310267 0
M  V30 1768 C 175.553 1.67245 -3.18906 0
M  V30 1769 C 175.406 0.760987 -4.43316 0
M  V30 1770 C 176.725 2.63884 -3.52212 0
M  V30 1771 H 173.844 0.319242 -0.664269 0
M  V30 1772 H 176.486 0.148052 -1.89422 0
M  V30 1773 H 174.636 2.29824 -3.1323 0
M  V30 1774 H 176.308 0.147596 -4.61064 0
M  V30 1775 H 174.551 0.0694102 -4.33744 0
M  V30 1776 H 175.222 1.34962 -5.35247 0
M  V30 1777 H 177.698 2.11429 -3.58381 0
M  V30 1778 H 176.574 3.16245 -4.48643 0
M  V30 1779 H 176.835 3.44377 -2.77231 0
M  V30 1780 N 175.894 1.51508 0.433938 0
M  V30 1781 C 177.124 1.67914 1.20369 0
M  V30 1782 C 177.532 0.377461 1.85397 0
M  V30 1783 O 176.875 -0.654255 1.71654 0
M  V30 1784 C 176.937 2.74045 2.32679 0
M  V30 1785 C 176.601 4.16543 1.87991 0
M  V30 1786 C 177.598 5.01211 1.38145 0
M  V30 1787 C 175.283 4.6266 1.95579 0
M  V30 1788 C 177.277 6.30056 0.964774 0
M  V30 1789 C 174.964 5.91501 1.53523 0
M  V30 1790 C 175.962 6.75027 1.04055 0
M  V30 1791 O 175.65 8.01459 0.625964 0
M  V30 1792 H 175.382 0.566578 0.368735 0
M  V30 1793 H 177.936 1.98709 0.51999 0
M  V30 1794 H 176.166 2.38572 3.04336 0
M  V30 1795 H 177.855 2.79295 2.94532 0
M  V30 1796 H 178.621 4.66783 1.31675 0
M  V30 1797 H 174.5 3.97767 2.33029 0
M  V30 1798 H 178.044 6.95202 0.57796 0
M  V30 1799 H 173.941 6.25442 1.59665 0
M  V30 1800 H 174.709 8.15043 0.751509 0
M  V30 1801 N 177.372 -0.689602 1.41712 0
M  V30 1802 C 178.32 -1.82475 1.44242 0
M  V30 1803 C 179.314 -1.66354 0.319774 0
M  V30 1804 O 180.52 -1.73143 0.492089 0
M  V30 1805 H 176.895 -0.601416 0.451445 0
M  V30 1806 H 178.866 -1.77458 2.39899 0
M  V30 1807 C 177.615 -3.20535 1.3473 0
M  V30 1808 H 176.938 -3.33559 2.20405 0
M  V30 1809 H 178.378 -4.00023 1.40562 0
M  V30 1810 C 176.837 -3.36846 0.0603281 0
M  V30 1811 O 177.367 -3.91656 -0.892663 0
M  V30 1812 N 175.573 -2.90595 -0.0177039 0
M  V30 1813 H 175.12 -2.46178 0.758572 0
M  V30 1814 H 175.078 -3.01886 -0.878201 0
M  V30 1815 N 178.85 -1.27639 -0.924453 0
M  V30 1816 C 179.78 -1.13166 -2.04244 0
M  V30 1817 C 180.761 -0.032256 -1.70069 0
M  V30 1818 O 181.946 -0.207328 -1.9309 0
M  V30 1819 C 179.076 -0.781496 -3.38393 0
M  V30 1820 C 178.03 -1.83449 -3.86692 0
M  V30 1821 C 177.356 -1.33822 -5.17683 0
M  V30 1822 C 178.656 -3.23917 -4.09726 0
M  V30 1823 H 180.35 -2.06689 -2.1661 0
M  V30 1824 H 177.896 -0.995136 -1.04082 0
M  V30 1825 H 179.849 -0.667057 -4.16087 0
M  V30 1826 H 178.573 0.189439 -3.2605 0
M  V30 1827 H 177.232 -1.93789 -3.11193 0
M  V30 1828 H 176.88 -0.35665 -5.01734 0
M  V30 1829 H 176.58 -2.04224 -5.50968 0
M  V30 1830 H 178.104 -1.23679 -5.97943 0
M  V30 1831 H 179.518 -3.16559 -4.77978 0
M  V30 1832 H 177.915 -3.92059 -4.54324 0
M  V30 1833 H 178.985 -3.68729 -3.14908 0
M  V30 1834 N 180.328 1.1314 -1.09713 0
M  V30 1835 C 181.576 1.84119 -0.833338 0
M  V30 1836 C 181.897 1.84097 0.642904 0
M  V30 1837 O 181.167 1.29881 1.46655 0
M  V30 1838 H 179.747 0.681766 -0.305293 0
M  V30 1839 H 182.409 1.37038 -1.38588 0
M  V30 1840 H 181.505 2.88543 -1.18951 0
M  V30 1841 N 181.806 0.884767 1.30421 0
M  V30 1842 C 183.052 0.503851 1.96441 0
M  V30 1843 C 183.385 -0.944518 1.69684 0
M  V30 1844 O 182.66 -1.66737 1.00145 0
M  V30 1845 C 182.943 0.779085 3.51571 0
M  V30 1846 C 182.796 2.27807 3.87846 0
M  V30 1847 C 184.115 0.255452 4.39358 0
M  V30 1848 H 181.234 0.184533 0.713524 0
M  V30 1849 H 183.876 1.10872 1.54297 0
M  V30 1850 H 182.026 0.264274 3.876 0
M  V30 1851 H 183.698 2.86127 3.61841 0
M  V30 1852 H 181.941 2.74479 3.35922 0
M  V30 1853 H 182.612 2.42125 4.96064 0
M  V30 1854 H 185.088 0.696079 4.10236 0
M  V30 1855 H 183.964 0.477361 5.4682 0
M  V30 1856 H 184.225 -0.843293 4.33983 0
M  V30 1857 N 183.284 -1.43765 0.645699 0
M  V30 1858 C 184.561 -1.9541 0.0862963 0
M  V30 1859 C 184.941 -1.58725 -1.39175 0
M  V30 1860 O 184.289 -0.868581 -2.11348 0
M  V30 1861 C 184.499 -3.47488 0.324565 0
M  V30 1862 C 185.847 -4.24001 0.225497 0
M  V30 1863 O 186.871 -3.55274 0.256715 0
M  V30 1864 O 185.73 -5.46313 0.142801 0
M  V30 1865 H 182.824 -0.826882 -0.0139483 0
M  V30 1866 H 185.37 -1.53743 0.718415 0
M  V30 1867 H 184.142 -3.67289 1.3496 0
M  V30 1868 H 183.765 -3.96135 -0.340987 0
M  V30 1869 N 184.763 -0.387143 -1.52771 0
M  V30 1870 C 186.012 0.19697 -2.00736 0
M  V30 1871 C 186.325 1.48082 -1.27793 0
M  V30 1872 O 187.531 2.14485 -1.66458 0
M  V30 1873 C 185.987 0.401568 -3.57653 0
M  V30 1874 C 185.595 -0.868907 -4.39493 0
M  V30 1875 C 187.339 0.942164 -4.13912 0
M  V30 1876 C 185.246 -0.632705 -5.88006 0
M  V30 1877 H 184.176 0.0773827 -0.750019 0
M  V30 1878 H 186.827 -0.50921 -1.76293 0
M  V30 1879 H 185.209 1.16954 -3.78335 0
M  V30 1880 H 186.383 -1.64133 -4.30577 0
M  V30 1881 H 184.698 -1.33429 -3.94443 0
M  V30 1882 H 187.295 1.13455 -5.22525 0
M  V30 1883 H 187.638 1.9106 -3.69867 0
M  V30 1884 H 188.171 0.233814 -3.97112 0
M  V30 1885 H 184.91 -1.57208 -6.36369 0
M  V30 1886 H 184.43 0.100825 -5.99715 0
M  V30 1887 H 186.109 -0.26642 -6.46451 0
M  V30 1888 N 186.241 1.57166 -0.116904 0
M  V30 1889 C 187.151 2.18745 0.847812 0
M  V30 1890 C 188.167 1.163 1.29423 0
M  V30 1891 O 189.343 1.48761 1.35765 0
M  V30 1892 C 186.408 2.77307 2.0809 0
M  V30 1893 C 185.469 3.94781 1.68661 0
M  V30 1894 C 184.702 4.50541 2.86091 0
M  V30 1895 O 184.925 4.05202 4.01456 0
M  V30 1896 O 183.859 5.41256 2.63298 0
M  V30 1897 H 187.685 3.01632 0.353778 0
M  V30 1898 H 185.27 1.49005 0.108599 0
M  V30 1899 H 187.152 3.14647 2.80313 0
M  V30 1900 H 185.827 1.97452 2.56504 0
M  V30 1901 H 184.734 3.62214 0.935518 0
M  V30 1902 H 186.067 4.76065 1.24991 0
M  V30 1903 N 187.719 -0.156864 1.56817 0
M  V30 1904 C 189.13 -0.717916 1.72345 0
M  V30 1905 C 189.481 -1.82124 0.729747 0
M  V30 1906 O 188.606 -2.16141 -0.105781 0
M  V30 1907 C 189.201 -1.30904 3.12489 0
M  V30 1908 C 187.76 -1.81676 3.29653 0
M  V30 1909 C 186.907 -0.701349 2.68284 0
M  V30 1910 H 189.858 0.0686989 1.58551 0
M  V30 1911 H 189.879 -2.17882 3.11942 0
M  V30 1912 H 189.391 -0.505796 3.8479 0
M  V30 1913 H 187.492 -2.64598 2.62333 0
M  V30 1914 H 187.605 -1.95226 4.3752 0
M  V30 1915 H 185.969 -1.12548 2.28484 0
M  V30 1916 H 186.752 0.0902846 3.43181 0
M  V30 1917 N 189.197 -1.51736 -0.425897 0
M  V30 1918 C 190.445 -1.64644 -1.17204 0
M  V30 1919 C 190.766 -0.370486 -1.91448 0
M  V30 1920 O 190.036 0.614088 -1.86026 0
M  V30 1921 H 188.616 -0.606819 -0.435638 0
M  V30 1922 H 191.278 -1.88713 -0.487177 0
M  V30 1923 H 190.374 -2.47958 -1.89534 0
M  V30 1924 N 190.675 0.682077 -1.42076 0
M  V30 1925 C 191.622 1.79578 -1.44984 0
M  V30 1926 C 192.592 1.6332 -0.302614 0
M  V30 1927 O 193.777 1.83978 -0.505633 0
M  V30 1928 C 190.917 3.1756 -1.35091 0
M  V30 1929 C 190.03 3.45156 -2.59791 0
M  V30 1930 C 189.165 4.72826 -2.42093 0
M  V30 1931 C 188.204 4.93433 -3.62202 0
M  V30 1932 N 187.341 6.12338 -3.43491 0
M  V30 1933 H 192.181 1.76427 -2.40161 0
M  V30 1934 H 189.718 0.861376 -1.19242 0
M  V30 1935 H 191.676 3.97287 -1.27354 0
M  V30 1936 H 190.306 3.19854 -0.435133 0
M  V30 1937 H 189.358 2.59736 -2.77923 0
M  V30 1938 H 190.67 3.5628 -3.49094 0
M  V30 1939 H 189.824 5.60631 -2.319 0
M  V30 1940 H 188.563 4.63973 -1.50268 0
M  V30 1941 H 187.568 4.04073 -3.72834 0
M  V30 1942 H 188.793 5.04136 -4.54998 0
M  V30 1943 H 186.739 6.04672 -2.54377 0
M  V30 1944 H 186.656 6.2429 -4.26377 0
M  V30 1945 H 187.924 7.02841 -3.37097 0
M  V30 1946 N 192.153 1.28127 0.917671 0
M  V30 1947 C 193.4 1.15052 1.66641 0
M  V30 1948 C 193.728 -0.301677 1.92146 0
M  V30 1949 O 192.983 -1.23622 1.51711 0
M  V30 1950 C 193.282 1.89018 3.03327 0
M  V30 1951 C 192.948 3.38832 2.97496 0
M  V30 1952 C 191.61 3.79693 2.95613 0
M  V30 1953 C 193.962 4.34378 2.88036 0
M  V30 1954 C 191.29 5.14447 2.82066 0
M  V30 1955 C 193.642 5.69201 2.7603 0
M  V30 1956 C 192.306 6.09343 2.72502 0
M  V30 1957 H 191.576 0.421006 0.609783 0
M  V30 1958 H 194.223 1.58855 1.06945 0
M  V30 1959 H 192.528 1.37752 3.66785 0
M  V30 1960 H 194.225 1.76321 3.60156 0
M  V30 1961 H 190.815 3.06342 2.99754 0
M  V30 1962 H 194.999 4.03775 2.88581 0
M  V30 1963 H 190.255 5.44681 2.77728 0
M  V30 1964 H 194.429 6.42901 2.67678 0
M  V30 1965 H 192.056 7.13712 2.61762 0
M  V30 1966 N 193.631 -1.12557 1.10312 0
M  V30 1967 C 194.877 -1.84311 0.846011 0
M  V30 1968 C 195.21 -1.83805 -0.626859 0
M  V30 1969 O 194.485 -1.28268 -1.46211 0
M  V30 1970 C 194.768 -3.32048 1.39341 0
M  V30 1971 C 194.621 -3.41016 2.93305 0
M  V30 1972 C 195.94 -4.27764 1.03468 0
M  V30 1973 H 193.059 -0.669192 0.30879 0
M  V30 1974 H 195.701 -1.32057 1.36605 0
M  V30 1975 H 193.851 -3.76678 0.951087 0
M  V30 1976 H 195.523 -3.05031 3.46055 0
M  V30 1977 H 193.766 -2.81603 3.29973 0
M  V30 1978 H 194.437 -4.44948 3.26689 0
M  V30 1979 H 196.913 -3.91253 1.41633 0
M  V30 1980 H 195.789 -5.29549 1.44463 0
M  V30 1981 H 196.05 -4.42064 -0.0560404 0
M  V30 1982 N 195.109 -0.891671 -1.2995 0
M  V30 1983 C 196.019 -0.367691 -2.31701 0
M  V30 1984 C 197.035 0.533486 -1.6562 0
M  V30 1985 O 198.211 0.424997 -1.96865 0
M  V30 1986 C 195.276 0.403406 -3.44345 0
M  V30 1987 C 194.337 -0.528328 -4.26037 0
M  V30 1988 C 193.57 0.206063 -5.33302 0
M  V30 1989 O 193.793 1.43119 -5.52153 0
M  V30 1990 O 192.727 -0.447281 -6.00236 0
M  V30 1991 H 196.553 -1.21163 -2.78484 0
M  V30 1992 H 194.138 -0.655725 -1.34241 0
M  V30 1993 H 196.02 0.839753 -4.12948 0
M  V30 1994 H 194.695 1.22354 -2.99685 0
M  V30 1995 H 193.602 -1.01362 -3.60106 0
M  V30 1996 H 194.935 -1.31465 -4.74318 0
M  V30 1997 N 196.587 1.43421 -0.653314 0
M  V30 1998 C 197.55 2.29182 0.0287951 0
M  V30 1999 C 198.55 1.42213 0.750465 0
M  V30 2000 O 199.74 1.63843 0.591701 0
M  V30 2001 C 196.872 3.24278 1.05151 0
M  V30 2002 H 198.065 2.90985 -0.725786 0
M  V30 2003 H 195.618 1.50702 -0.414545 0
M  V30 2004 H 196.353 2.6737 1.83532 0
M  V30 2005 H 196.138 3.88396 0.537687 0
M  V30 2006 H 197.628 3.88647 1.52786 0
M  V30 2007 N 198.065 0.39524 1.52563 0
M  V30 2008 C 199.311 -0.185318 2.01952 0
M  V30 2009 C 199.644 -1.45964 1.28095 0
M  V30 2010 O 198.919 -1.90689 0.38315 0
M  V30 2011 C 199.202 -0.447193 3.57312 0
M  V30 2012 C 199.055 0.842828 4.41833 0
M  V30 2013 C 200.374 -1.23529 4.22408 0
M  V30 2014 H 197.493 -0.0658788 0.73405 0
M  V30 2015 H 200.135 0.525975 1.82575 0
M  V30 2016 H 198.285 -1.05312 3.73954 0
M  V30 2017 H 199.957 1.4795 4.36931 0
M  V30 2018 H 198.2 1.45686 4.08605 0
M  V30 2019 H 198.871 0.614165 5.48573 0
M  V30 2020 H 201.347 -0.722445 4.0978 0
M  V30 2021 H 200.223 -1.38727 5.3108 0
M  V30 2022 H 200.484 -2.25213 3.80436 0
M  V30 2023 N 199.544 -1.57102 0.125237 0
M  V30 2024 C 200.491 -2.15641 -0.822655 0
M  V30 2025 C 201.461 -1.08313 -1.25927 0
M  V30 2026 O 202.646 -1.36251 -1.33567 0
M  V30 2027 C 199.786 -2.76504 -2.06494 0
M  V30 2028 C 198.899 -3.98158 -1.67612 0
M  V30 2029 C 198.034 -4.47088 -2.86854 0
M  V30 2030 C 197.073 -5.6126 -2.44242 0
M  V30 2031 N 196.21 -6.04905 -3.56419 0
M  V30 2032 H 201.05 -2.96313 -0.316625 0
M  V30 2033 H 198.587 -1.46388 -0.144588 0
M  V30 2034 H 200.545 -3.09925 -2.79289 0
M  V30 2035 H 199.175 -1.98512 -2.54545 0
M  V30 2036 H 198.227 -3.70858 -0.846661 0
M  V30 2037 H 199.539 -4.80934 -1.32301 0
M  V30 2038 H 198.693 -4.82451 -3.67867 0
M  V30 2039 H 197.432 -3.63275 -3.25396 0
M  V30 2040 H 196.437 -5.25495 -1.61663 0
M  V30 2041 H 197.662 -6.46843 -2.0681 0
M  V30 2042 H 195.608 -5.24032 -3.94623 0
M  V30 2043 H 195.525 -6.82552 -3.25051 0
M  V30 2044 H 196.793 -6.44907 -4.37853 0
M  V30 2045 N 201.022 0.148545 -1.56898 0
M  V30 2046 C 201.969 1.18345 -1.98149 0
M  V30 2047 C 202.939 1.42772 -0.848848 0
M  V30 2048 O 204.124 1.55132 -1.11079 0
M  V30 2049 C 201.264 2.51231 -2.36594 0
M  V30 2050 C 200.377 2.33991 -3.63142 0
M  V30 2051 C 199.512 3.59902 -3.90697 0
M  V30 2052 C 198.551 3.37692 -5.1052 0
M  V30 2053 N 197.688 4.5573 -5.34092 0
M  V30 2054 H 202.528 0.82467 -2.86362 0
M  V30 2055 H 200.065 0.395756 -1.41676 0
M  V30 2056 H 202.023 3.28713 -2.56912 0
M  V30 2057 H 200.653 2.85059 -1.51463 0
M  V30 2058 H 199.705 1.47572 -3.50609 0
M  V30 2059 H 201.017 2.13539 -4.5078 0
M  V30 2060 H 200.171 4.45813 -4.11505 0
M  V30 2061 H 198.91 3.83357 -3.01477 0
M  V30 2062 H 197.915 2.5017 -4.89587 0
M  V30 2063 H 199.14 3.15637 -6.0129 0
M  V30 2064 H 197.086 4.79361 -4.47827 0
M  V30 2065 H 197.003 4.38274 -6.15996 0
M  V30 2066 H 198.271 5.42858 -5.59397 0
M  V30 2067 N 202.5 1.5196 0.417844 0
M  V30 2068 C 203.73 1.69181 1.18581 0
M  V30 2069 C 204.138 0.397104 1.84986 0
M  V30 2070 O 203.481 -0.636011 1.72339 0
M  V30 2071 C 203.543 2.76497 2.29759 0
M  V30 2072 C 203.207 4.18514 1.83563 0
M  V30 2073 C 204.204 5.02648 1.32821 0
M  V30 2074 C 201.889 4.64708 1.90661 0
M  V30 2075 C 203.883 6.31044 0.897894 0
M  V30 2076 C 201.57 5.93096 1.47241 0
M  V30 2077 C 202.568 6.76093 0.968891 0
M  V30 2078 O 202.256 8.02078 0.540924 0
M  V30 2079 H 201.988 0.570457 0.362705 0
M  V30 2080 H 204.542 1.99249 0.498885 0
M  V30 2081 H 202.772 2.41786 3.01789 0
M  V30 2082 H 204.461 2.82403 2.91553 0
M  V30 2083 H 205.227 4.68154 1.26716 0
M  V30 2084 H 201.106 4.00216 2.28797 0
M  V30 2085 H 204.65 6.95776 0.504192 0
M  V30 2086 H 200.547 6.271 1.53022 0
M  V30 2087 H 201.315 8.15794 0.66502 0
M  V30 2088 N 203.978 -0.674533 1.42435 0
M  V30 2089 C 204.91 -1.80005 1.41883 0
M  V30 2090 C 205.923 -1.59667 0.31787 0
M  V30 2091 O 207.112 -1.68781 0.580973 0
M  V30 2092 C 204.212 -3.17114 1.19549 0
M  V30 2093 C 203.385 -3.64299 2.42084 0
M  V30 2094 C 202.444 -4.80142 2.15291 0
M  V30 2095 O 201.47 -4.90673 2.88493 0
M  V30 2096 N 202.672 -5.68869 1.1562 0
M  V30 2097 H 205.437 -1.80964 2.38898 0
M  V30 2098 H 202.998 -0.857633 1.37318 0
M  V30 2099 H 204.99 -3.92267 0.995417 0
M  V30 2100 H 203.56 -3.11053 0.310569 0
M  V30 2101 H 202.78 -2.79822 2.77657 0
M  V30 2102 H 204.068 -3.92567 3.23679 0
M  V30 2103 H 203.466 -5.63012 0.550765 0
M  V30 2104 H 202.023 -6.43833 1.016 0
M  V30 2105 N 205.456 -1.28612 -0.910864 0
M  V30 2106 C 206.867 -1.14406 -1.47541 0
M  V30 2107 C 207.218 0.264901 -1.94403 0
M  V30 2108 O 206.343 1.15942 -1.82719 0
M  V30 2109 C 206.938 -2.07073 -2.68153 0
M  V30 2110 C 205.497 -1.96923 -3.20778 0
M  V30 2111 C 204.644 -1.98646 -1.93481 0
M  V30 2112 H 207.595 -1.41259 -0.723291 0
M  V30 2113 H 207.616 -1.63642 -3.43514 0
M  V30 2114 H 207.128 -3.09611 -2.34015 0
M  V30 2115 H 205.229 -0.97433 -3.59635 0
M  V30 2116 H 205.342 -2.84026 -3.85832 0
M  V30 2117 H 203.706 -1.43093 -2.10705 0
M  V30 2118 H 204.489 -3.02868 -1.61634 0
M  V30 2119 N 206.934 1.1197 -1.10907 0
M  V30 2120 C 208.211 1.79959 -0.766432 0
M  V30 2121 C 208.591 1.97466 0.746363 0
M  V30 2122 O 207.939 1.55491 1.67436 0
M  V30 2123 C 208.149 3.14009 -1.52314 0
M  V30 2124 C 209.497 3.89134 -1.69883 0
M  V30 2125 O 210.521 3.2368 -1.48692 0
M  V30 2126 O 209.38 5.06572 -2.05054 0
M  V30 2127 H 206.474 0.779208 -0.277062 0
M  V30 2128 H 209.02 1.18762 -1.21217 0
M  V30 2129 H 207.792 2.96587 -2.55249 0
M  V30 2130 H 207.415 3.82915 -1.07059 0
M  V30 2131 N 208.412 0.89855 1.29475 0
M  V30 2132 C 209.661 0.519863 1.94885 0
M  V30 2133 C 209.974 -0.9383 1.71625 0
M  V30 2134 O 211.18 -1.42445 2.31131 0
M  V30 2135 C 209.636 0.878836 3.49005 0
M  V30 2136 C 209.244 2.35569 3.81066 0
M  V30 2137 C 210.988 0.570004 4.20656 0
M  V30 2138 C 208.895 2.65558 5.28425 0
M  V30 2139 H 207.825 0.190692 0.729488 0
M  V30 2140 H 210.476 1.09539 1.47219 0
M  V30 2141 H 208.858 0.232253 3.95318 0
M  V30 2142 H 210.032 3.04773 3.45616 0
M  V30 2143 H 208.347 2.63343 3.22552 0
M  V30 2144 H 210.944 0.770925 5.29113 0
M  V30 2145 H 211.287 -0.491404 4.1339 0
M  V30 2146 H 211.82 1.17438 3.8007 0
M  V30 2147 H 208.559 3.70493 5.40754 0
M  V30 2148 H 208.079 2.00977 5.65127 0
M  V30 2149 H 209.758 2.51765 5.96006 0
M  V30 2150 N 209.89 -1.43072 0.660911 0
M  V30 2151 C 211.136 -2.0202 0.177708 0
M  V30 2152 C 211.469 -1.52066 -1.20787 0
M  V30 2153 O 210.744 -0.716987 -1.80802 0
M  V30 2154 C 211.027 -3.59561 0.197019 0
M  V30 2155 C 210.88 -4.19727 1.61706 0
M  V30 2156 C 212.199 -4.37664 -0.462396 0
M  V30 2157 H 209.318 -0.734034 0.0660494 0
M  V30 2158 H 211.96 -1.70272 0.843058 0
M  V30 2159 H 210.11 -3.86739 -0.369527 0
M  V30 2160 H 211.782 -4.03553 2.23479 0
M  V30 2161 H 210.025 -3.76084 2.16201 0
M  V30 2162 H 210.696 -5.28834 1.58237 0
M  V30 2163 H 213.172 -4.16095 0.0197215 0
M  V30 2164 H 212.048 -5.47305 -0.418188 0
M  V30 2165 H 212.309 -4.14493 -1.53778 0
M  V30 2166 N 211.368 -0.403325 -1.52352 0
M  V30 2167 C 212.616 0.174003 -2.0135 0
M  V30 2168 C 212.937 1.46139 -1.29106 0
M  V30 2169 O 212.207 1.91448 -0.415253 0
M  V30 2170 H 210.787 0.0672911 -0.743963 0
M  V30 2171 H 213.449 -0.538235 -1.87321 0
M  V30 2172 H 212.545 0.374254 -3.09848 0
M  V30 2173 N 212.846 1.57033 -0.133567 0
M  V30 2174 C 213.779 2.11824 0.848872 0
M  V30 2175 C 214.757 1.03833 1.2513 0
M  V30 2176 O 215.941 1.31579 1.34978 0
M  V30 2177 C 213.068 2.62692 2.138 0
M  V30 2178 C 212.114 3.82705 1.88253 0
M  V30 2179 S 212.947 5.2438 1.08563 0
M  V30 2180 C 214.103 5.78627 2.38624 0
M  V30 2181 H 214.336 2.94824 0.38289 0
M  V30 2182 H 211.869 1.5419 0.0804796 0
M  V30 2183 H 213.827 2.92652 2.87863 0
M  V30 2184 H 212.488 1.79847 2.57515 0
M  V30 2185 H 211.681 4.16496 2.83809 0
M  V30 2186 H 211.283 3.53437 1.22305 0
M  V30 2187 H 213.575 5.8924 3.34369 0
M  V30 2188 H 214.518 6.76443 2.09358 0
M  V30 2189 H 214.926 5.06783 2.48658 0
M  V30 2190 N 214.325 -0.140222 1.56975 0
M  V30 2191 C 215.55 -0.870414 1.88251 0
M  V30 2192 C 215.975 -1.73637 0.723312 0
M  V30 2193 O 215.333 -1.78329 -0.32689 0
M  V30 2194 C 215.381 -1.69737 3.18154 0
M  V30 2195 O 214.485 -2.80229 3.02565 0
M  V30 2196 H 213.826 -0.242025 0.61832 0
M  V30 2197 H 216.356 -0.128999 2.04193 0
M  V30 2198 H 216.366 -2.09099 3.50345 0
M  V30 2199 H 215.041 -1.06152 4.02125 0
M  V30 2200 H 213.618 -2.44224 2.81796 0
M  V30 2201 N 215.803 -1.52179 -0.40978 0
M  V30 2202 C 216.766 -1.74853 -1.48186 0
M  V30 2203 C 217.766 -0.618417 -1.48433 0
M  V30 2204 O 218.956 -0.886286 -1.49969 0
M  V30 2205 C 216.088 -1.8303 -2.87598 0
M  V30 2206 H 217.281 -2.70559 -1.29374 0
M  V30 2207 H 214.834 -1.42586 -0.640233 0
M  V30 2208 H 215.569 -0.89236 -3.11781 0
M  V30 2209 H 215.354 -2.65187 -2.88822 0
M  V30 2210 H 216.844 -2.02316 -3.65319 0
M  V30 2211 N 217.281 0.66697 -1.42791 0
M  V30 2212 C 218.211 1.79218 -1.49677 0
M  V30 2213 C 219.192 1.66405 -0.352623 0
M  V30 2214 O 220.377 1.85708 -0.567993 0
M  V30 2215 C 217.507 3.17565 -1.40605 0
M  V30 2216 C 216.461 3.45124 -2.53127 0
M  V30 2217 C 215.787 4.83127 -2.29112 0
M  V30 2218 C 217.087 3.41236 -3.95418 0
M  V30 2219 H 218.781 1.73713 -2.43853 0
M  V30 2220 H 216.327 0.83432 -1.17367 0
M  V30 2221 H 218.28 3.96022 -1.44029 0
M  V30 2222 H 217.004 3.23767 -0.429271 0
M  V30 2223 H 215.663 2.69031 -2.49034 0
M  V30 2224 H 215.311 4.85988 -1.29709 0
M  V30 2225 H 215.011 5.02528 -3.04531 0
M  V30 2226 H 216.535 5.63859 -2.34297 0
M  V30 2227 H 217.949 4.09651 -4.01073 0
M  V30 2228 H 216.346 3.72173 -4.70752 0
M  V30 2229 H 217.416 2.39665 -4.21532 0
M  V30 2230 N 218.759 1.29093 0.90403 0
M  V30 2231 C 219.689 1.16401 2.02418 0
M  V30 2232 C 220.67 0.0593085 1.69997 0
M  V30 2233 O 221.855 0.238021 1.92736 0
M  V30 2234 C 218.985 0.835233 3.37107 0
M  V30 2235 C 217.939 1.89578 3.83724 0
M  V30 2236 C 217.265 1.42041 5.15489 0
M  V30 2237 C 218.565 3.30394 4.04521 0
M  V30 2238 H 220.259 2.10109 2.13295 0
M  V30 2239 H 217.805 1.01157 1.02486 0
M  V30 2240 H 219.758 0.733169 4.14973 0
M  V30 2241 H 218.482 -0.137543 3.2631 0
M  V30 2242 H 217.141 1.98715 3.08071 0
M  V30 2243 H 216.789 0.436426 5.01103 0
M  V30 2244 H 216.489 2.12964 5.4765 0
M  V30 2245 H 218.013 1.33176 5.959 0
M  V30 2246 H 219.427 3.24123 4.72882 0
M  V30 2247 H 217.824 3.99237 4.48029 0
M  V30 2248 H 218.894 3.73692 3.09002 0
M  V30 2249 N 220.237 -1.11381 1.11499 0
M  V30 2250 C 221.465 -1.86934 0.88675 0
M  V30 2251 C 221.88 -1.80195 -0.563476 0
M  V30 2252 O 221.237 -1.18367 -1.38908 0
M  V30 2253 C 221.288 -3.35722 1.34064 0
M  V30 2254 O 221.009 -3.4232 2.73401 0
M  V30 2255 C 222.51 -4.2818 1.14791 0
M  V30 2256 H 219.73 -0.591117 0.317523 0
M  V30 2257 H 222.274 -1.40865 1.48248 0
M  V30 2258 H 220.429 -3.79294 0.788355 0
M  V30 2259 H 220.843 -4.34971 2.93087 0
M  V30 2260 H 222.317 -5.30817 1.5145 0
M  V30 2261 H 222.794 -4.39113 0.0875279 0
M  V30 2262 H 223.4 -3.90402 1.68721 0
M  V30 2263 N 221.715 -0.905404 -1.28997 0
M  V30 2264 C 222.943 -0.549846 -1.9946 0
M  V30 2265 C 223.358 0.866834 -1.67724 0
M  V30 2266 O 222.715 1.57298 -0.925404 0
M  V30 2267 C 222.766 -0.739387 -3.53858 0
M  V30 2268 O 222.487 -2.10031 -3.84472 0
M  V30 2269 C 223.988 -0.389541 -4.41585 0
M  V30 2270 H 221.208 -0.210429 -0.637151 0
M  V30 2271 H 223.752 -1.21632 -1.64396 0
M  V30 2272 H 221.907 -0.120023 -3.87214 0
M  V30 2273 H 222.321 -2.13385 -4.79132 0
M  V30 2274 H 223.795 -0.572972 -5.49018 0
M  V30 2275 H 224.272 0.673756 -4.34001 0
M  V30 2276 H 224.878 -0.986089 -4.1371 0
M  V30 2277 N 223.193 1.4272 -0.668489 0
M  V30 2278 C 224.421 2.05966 -0.196348 0
M  V30 2279 C 224.836 1.50191 1.14403 0
M  V30 2280 O 224.193 0.639208 1.7094 0
M  V30 2281 C 224.244 3.61314 -0.115815 0
M  V30 2282 O 223.965 4.1502 -1.40322 0
M  V30 2283 C 225.466 4.41663 0.380579 0
M  V30 2284 H 222.686 0.663954 -0.0969829 0
M  V30 2285 H 225.23 1.82966 -0.913446 0
M  V30 2286 H 223.385 3.83448 0.551931 0
M  V30 2287 H 223.799 5.08832 -1.27243 0
M  V30 2288 H 225.273 5.5065 0.385848 0
M  V30 2289 H 225.75 4.15792 1.41471 0
M  V30 2290 H 226.356 4.24534 -0.255209 0
M  V30 2291 N 224.671 0.411399 1.52136 0
M  V30 2292 C 225.604 -0.457614 2.23565 0
M  V30 2293 C 226.582 -1.04613 1.24478 0
M  V30 2294 O 227.766 -1.09356 1.53536 0
M  V30 2295 C 224.893 -1.6354 2.96602 0
M  V30 2296 C 223.939 -1.17005 4.10137 0
M  V30 2297 S 224.772 -0.13333 5.35334 0
M  V30 2298 C 225.928 -1.31638 6.119 0
M  V30 2299 H 226.161 0.148883 2.96927 0
M  V30 2300 H 223.694 0.195713 1.53155 0
M  V30 2301 H 225.652 -2.31074 3.39286 0
M  V30 2302 H 224.313 -2.21324 2.22878 0
M  V30 2303 H 223.506 -2.05005 4.60422 0
M  V30 2304 H 223.108 -0.573319 3.6958 0
M  V30 2305 H 225.4 -2.23957 6.39413 0
M  V30 2306 H 226.343 -0.854014 7.02931 0
M  V30 2307 H 226.751 -1.54321 5.42997 0
M  V30 2308 N 226.149 -1.5696 0.141893 0
M  V30 2309 C 227.082 -2.12271 -0.837627 0
M  V30 2310 C 228.06 -1.04495 -1.24578 0
M  V30 2311 O 229.244 -1.32293 -1.34278 0
M  V30 2312 C 226.371 -2.63822 -2.12404 0
M  V30 2313 C 225.417 -3.83698 -1.86221 0
M  V30 2314 S 226.25 -5.24948 -1.05781 0
M  V30 2315 C 227.406 -5.79884 -2.35552 0
M  V30 2316 H 227.639 -2.95023 -0.367249 0
M  V30 2317 H 225.172 -1.54231 -0.0723014 0
M  V30 2318 H 227.13 -2.94175 -2.86307 0
M  V30 2319 H 225.791 -1.8121 -2.56557 0
M  V30 2320 H 224.984 -4.17995 -2.81596 0
M  V30 2321 H 224.586 -3.5408 -1.20429 0
M  V30 2322 H 226.878 -5.91005 -3.31239 0
M  V30 2323 H 227.821 -6.77544 -2.05767 0
M  V30 2324 H 228.229 -5.08095 -2.45967 0
M  V30 2325 N 227.627 0.131896 -1.57047 0
M  V30 2326 C 228.575 1.18146 -2.0036 0
M  V30 2327 C 229.569 1.43614 -0.898406 0
M  V30 2328 O 230.775 1.43729 -1.08361 0
M  V30 2329 H 227.15 0.398042 -0.638018 0
M  V30 2330 H 229.121 0.789564 -2.87765 0
M  V30 2331 C 227.87 2.50341 -2.41298 0
M  V30 2332 H 227.193 2.31578 -3.25902 0
M  V30 2333 H 228.633 3.22371 -2.75414 0
M  V30 2334 C 227.092 3.11984 -1.27153 0
M  V30 2335 O 227.622 3.97484 -0.580459 0
M  V30 2336 N 225.828 2.71662 -1.03189 0
M  V30 2337 H 225.375 2.02231 -1.59564 0
M  V30 2338 H 225.333 3.13238 -0.270077 0
M  V30 2339 N 229.106 1.52395 0.401703 0
M  V30 2340 C 230.039 1.70999 1.51111 0
M  V30 2341 C 231.017 0.55765 1.52738 0
M  V30 2342 O 232.201 0.785912 1.71335 0
M  V30 2343 C 229.328 1.75607 2.8962 0
M  V30 2344 C 228.374 2.97227 3.05873 0
M  V30 2345 S 229.207 4.57439 2.78405 0
M  V30 2346 C 230.363 4.64844 4.19131 0
M  V30 2347 H 230.596 2.6483 1.35102 0
M  V30 2348 H 228.129 1.42527 0.593762 0
M  V30 2349 H 230.087 1.78947 3.69443 0
M  V30 2350 H 228.748 0.828914 3.02965 0
M  V30 2351 H 227.941 2.96955 4.07227 0
M  V30 2352 H 227.543 2.91813 2.33925 0
M  V30 2353 H 229.835 4.42677 5.12877 0
M  V30 2354 H 230.778 5.66807 4.24424 0
M  V30 2355 H 231.186 3.93804 4.04448 0
M  V30 2356 N 230.584 -0.659388 1.43143 0
M  V30 2357 C 231.531 -1.77249 1.47822 0
M  V30 2358 C 232.501 -1.62818 0.328558 0
M  V30 2359 O 233.686 -1.83151 0.534838 0
M  V30 2360 C 230.826 -3.15371 1.40126 0
M  V30 2361 C 229.939 -3.4098 2.65249 0
M  V30 2362 C 229.074 -4.68915 2.49584 0
M  V30 2363 C 228.113 -4.87608 3.70006 0
M  V30 2364 N 227.25 -6.06796 3.53189 0
M  V30 2365 H 232.09 -1.72584 2.42938 0
M  V30 2366 H 229.627 -0.842297 1.20598 0
M  V30 2367 H 231.585 -3.9521 1.33659 0
M  V30 2368 H 230.215 -3.19121 0.485964 0
M  V30 2369 H 229.267 -2.55282 2.8202 0
M  V30 2370 H 230.579 -3.50681 3.54717 0
M  V30 2371 H 229.733 -5.56871 2.4079 0
M  V30 2372 H 228.472 -4.61524 1.5763 0
M  V30 2373 H 227.477 -3.9809 3.79215 0
M  V30 2374 H 228.702 -4.96834 4.62961 0
M  V30 2375 H 226.648 -6.00549 2.63965 0
M  V30 2376 H 226.565 -6.17428 4.36255 0
M  V30 2377 H 227.833 -6.9739 3.48236 0
M  V30 2378 N 232.062 -1.29571 -0.897171 0
M  V30 2379 C 233.287 -1.20705 -1.68656 0
M  V30 2380 C 233.712 0.228582 -1.86706 0
M  V30 2381 O 233.07 1.16494 -1.3892 0
M  V30 2382 C 233.118 -1.9282 -3.04717 0
M  V30 2383 O 232.222 -1.24697 -3.93096 0
M  V30 2384 H 231.563 -0.418126 -0.515816 0
M  V30 2385 H 234.093 -1.71183 -1.12061 0
M  V30 2386 H 234.103 -2.01372 -3.54843 0
M  V30 2387 H 232.778 -2.97239 -2.90899 0
M  V30 2388 H 231.355 -1.2442 -3.51531 0
M  V30 2389 N 233.54 1.10788 -1.12088 0
M  V30 2390 C 234.768 1.86461 -0.896651 0
M  V30 2391 C 235.183 1.80492 0.553912 0
M  V30 2392 O 234.54 1.19102 1.38278 0
M  V30 2393 C 234.591 3.35006 -1.35843 0
M  V30 2394 O 234.312 3.40866 -2.75213 0
M  V30 2395 C 235.813 4.27565 -1.1706 0
M  V30 2396 H 233.033 0.589425 -0.320654 0
M  V30 2397 H 235.577 1.40076 -1.48993 0
M  V30 2398 H 233.732 3.7887 -0.808458 0
M  V30 2399 H 234.146 4.33411 -2.9539 0
M  V30 2400 H 235.62 5.30007 -1.54263 0
M  V30 2401 H 236.097 4.3906 -0.110814 0
M  V30 2402 H 236.703 3.89501 -1.70789 0
M  V30 2403 N 235.018 0.912232 1.28515 0
M  V30 2404 C 236.267 0.540504 1.94323 0
M  V30 2405 C 236.58 -0.920044 1.72611 0
M  V30 2406 O 237.786 -1.39986 2.32629 0
M  V30 2407 C 236.242 0.915803 3.48053 0
M  V30 2408 C 235.85 2.39598 3.78546 0
M  V30 2409 C 237.594 0.614588 4.20027 0
M  V30 2410 C 235.501 2.71148 5.25578 0
M  V30 2411 H 234.431 0.198418 0.727424 0
M  V30 2412 H 237.082 1.11094 1.46049 0
M  V30 2413 H 235.464 0.274168 3.9505 0
M  V30 2414 H 236.638 3.08422 3.42364 0
M  V30 2415 H 234.953 2.66749 3.1974 0
M  V30 2416 H 237.55 0.827002 5.28266 0
M  V30 2417 H 237.893 -0.447531 4.13887 0
M  V30 2418 H 238.426 1.21462 3.78803 0
M  V30 2419 H 235.165 3.76207 5.36794 0
M  V30 2420 H 234.685 2.0696 5.62963 0
M  V30 2421 H 236.364 2.58072 5.93302 0
M  V30 2422 N 236.496 -1.42363 0.676048 0
M  V30 2423 C 237.773 -1.95183 0.127726 0
M  V30 2424 C 238.153 -1.61641 -1.35777 0
M  V30 2425 O 237.501 -0.913216 -2.09458 0
M  V30 2426 C 237.711 -3.46721 0.398199 0
M  V30 2427 C 239.059 -4.23427 0.315383 0
M  V30 2428 O 240.083 -3.54649 0.332016 0
M  V30 2429 O 238.942 -5.45888 0.25865 0
M  V30 2430 H 236.036 -0.826992 0.00359427 0
M  V30 2431 H 238.582 -1.52184 0.750864 0
M  V30 2432 H 237.354 -3.64344 1.4272 0
M  V30 2433 H 236.977 -3.96769 -0.256885 0
M  V30 2434 N 237.974 -0.419461 -1.51915 0
M  V30 2435 C 238.937 0.389116 -2.25873 0
M  V30 2436 C 239.937 0.964924 -1.28631 0
M  V30 2437 O 241.127 0.842179 -1.52489 0
M  V30 2438 C 238.259 1.54874 -3.03689 0
M  V30 2439 H 239.452 -0.258799 -2.98781 0
M  V30 2440 H 237.005 -0.172209 -1.55348 0
M  V30 2441 H 237.74 2.23323 -2.35154 0
M  V30 2442 H 237.525 1.14223 -3.75094 0
M  V30 2443 H 239.015 2.12046 -3.59759 0
M  V30 2444 N 239.452 1.56882 -0.150215 0
M  V30 2445 C 240.382 2.19935 0.784284 0
M  V30 2446 C 241.363 1.14854 1.25469 0
M  V30 2447 O 242.548 1.43209 1.31168 0
M  V30 2448 C 239.678 2.82349 2.02229 0
M  V30 2449 C 238.632 3.93285 1.68853 0
M  V30 2450 C 237.958 4.42649 2.99944 0
M  V30 2451 C 239.258 5.13904 0.932714 0
M  V30 2452 H 240.952 2.9828 0.258781 0
M  V30 2453 H 238.498 1.43473 0.123029 0
M  V30 2454 H 240.451 3.25126 2.68088 0
M  V30 2455 H 239.175 2.0134 2.57157 0
M  V30 2456 H 237.834 3.5113 1.05371 0
M  V30 2457 H 237.482 3.58458 3.52869 0
M  V30 2458 H 237.182 5.17476 2.78374 0
M  V30 2459 H 238.706 4.88099 3.66868 0
M  V30 2460 H 240.12 5.53506 1.49345 0
M  V30 2461 H 238.517 5.94515 0.81684 0
M  V30 2462 H 239.587 4.84842 -0.0749568 0
M  V30 2463 N 240.93 -0.123565 1.57115 0
M  V30 2464 C 242.179 -0.830704 1.83799 0
M  V30 2465 C 242.492 -1.81259 0.735158 0
M  V30 2466 O 243.698 -2.56558 0.888278 0
M  V30 2467 C 242.154 -1.52802 3.25852 0
M  V30 2468 C 241.762 -0.587356 4.44133 0
M  V30 2469 C 243.506 -2.22056 3.61789 0
M  V30 2470 C 241.413 -1.28764 5.77212 0
M  V30 2471 H 240.343 -0.313967 0.685522 0
M  V30 2472 H 242.994 -0.0834359 1.8331 0
M  V30 2473 H 241.376 -2.32175 3.20797 0
M  V30 2474 H 242.55 0.172829 4.60476 0
M  V30 2475 H 240.865 -0.00201892 4.164 0
M  V30 2476 H 243.462 -2.75131 4.58483 0
M  V30 2477 H 243.805 -2.99644 2.88997 0
M  V30 2478 H 244.338 -1.49576 3.68608 0
M  V30 2479 H 241.077 -0.55314 6.53162 0
M  V30 2480 H 240.597 -2.01995 5.64764 0
M  V30 2481 H 242.276 -1.8221 6.20813 0
M  V30 2482 N 242.408 -1.52605 -0.393616 0
M  V30 2483 C 243.371 -1.76415 -1.46323 0
M  V30 2484 C 244.371 -0.634126 -1.47768 0
M  V30 2485 O 245.561 -0.902142 -1.4902 0
M  V30 2486 C 242.693 -1.8607 -2.85641 0
M  V30 2487 H 243.886 -2.71916 -1.26498 0
M  V30 2488 H 241.439 -1.43257 -0.625073 0
M  V30 2489 H 242.174 -0.925378 -3.10817 0
M  V30 2490 H 241.959 -2.68235 -2.85993 0
M  V30 2491 H 243.449 -2.06179 -3.63153 0
M  V30 2492 N 243.887 0.651787 -1.4349 0
M  V30 2493 C 244.85 1.74647 -1.48429 0
M  V30 2494 C 245.85 1.56513 -0.368817 0
M  V30 2495 O 247.04 1.62385 -0.630623 0
M  V30 2496 C 244.172 3.13533 -1.33827 0
M  V30 2497 H 245.365 1.71649 -2.4592 0
M  V30 2498 H 242.918 0.863573 -1.30277 0
M  V30 2499 H 243.653 3.22142 -0.37349 0
M  V30 2500 H 243.438 3.28101 -2.14691 0
M  V30 2501 H 244.928 3.93356 -1.40218 0
M  V30 2502 N 245.365 1.30045 0.890287 0
M  V30 2503 C 246.613 1.18327 1.63839 0
M  V30 2504 C 246.934 -0.263455 1.93212 0
M  V30 2505 O 246.204 -1.17856 1.56482 0
M  V30 2506 H 244.784 0.434933 0.607324 0
M  V30 2507 H 247.446 1.631 1.06698 0
M  V30 2508 H 246.542 1.74024 2.59079 0
M  V30 2509 N 246.843 -1.10192 1.12674 0
M  V30 2510 C 247.773 -2.18652 0.819362 0
M  V30 2511 C 248.754 -1.68698 -0.217915 0
M  V30 2512 O 249.939 -1.94041 -0.0785581 0
M  V30 2513 C 247.069 -3.46202 0.27594 0
M  V30 2514 C 246.023 -4.09444 1.24656 0
M  V30 2515 C 245.349 -5.31725 0.563258 0
M  V30 2516 C 246.649 -4.52863 2.60217 0
M  V30 2517 H 248.343 -2.44622 1.72628 0
M  V30 2518 H 245.889 -1.17571 0.831451 0
M  V30 2519 H 247.842 -4.21372 0.0486149 0
M  V30 2520 H 246.566 -3.1973 -0.666331 0
M  V30 2521 H 245.225 -3.36284 1.45974 0
M  V30 2522 H 244.873 -5.0153 -0.384235 0
M  V30 2523 H 244.573 -5.74991 1.21075 0
M  V30 2524 H 246.097 -6.09624 0.34503 0
M  V30 2525 H 247.511 -5.19294 2.42913 0
M  V30 2526 H 245.908 -5.06986 3.21068 0
M  V30 2527 H 246.978 -3.65656 3.18471 0
M  V30 2528 N 248.321 -0.919034 -1.28029 0
M  V30 2529 C 249.737 -0.617972 -1.4715 0
M  V30 2530 C 249.937 0.835242 -1.83374 0
M  V30 2531 O 248.993 1.61388 -1.94191 0
M  V30 2532 C 250.306 -1.56041 -2.57044 0
M  V30 2533 C 251.854 -1.56769 -2.7091 0
M  V30 2534 C 252.329 -2.49688 -3.83953 0
M  V30 2535 N 253.82 -2.47845 -3.91314 0
M  V30 2536 C 254.555 -3.16437 -4.78179 0
M  V30 2537 N 254.051 -3.94376 -5.69596 0
M  V30 2538 N 255.844 -3.05498 -4.71834 0
M  V30 2539 H 247.995 -1.85866 -1.02798 0
M  V30 2540 H 250.258 -0.797506 -0.512531 0
M  V30 2541 H 249.964 -2.59671 -2.372 0
M  V30 2542 H 249.838 -1.29551 -3.54255 0
M  V30 2543 H 252.225 -0.538745 -2.90141 0
M  V30 2544 H 252.306 -1.87305 -1.74214 0
M  V30 2545 H 251.95 -3.52688 -3.65477 0
M  V30 2546 H 251.88 -2.16453 -4.80058 0
M  V30 2547 H 254.371 -1.91234 -3.25941 0
M  V30 2548 H 254.684 -4.43721 -6.32718 0
M  V30 2549 H 253.029 -3.98481 -5.69419 0
M  V30 2550 H 256.22 -2.44108 -3.99411 0
M  V30 2551 H 256.393 -3.59225 -5.39316 0
M  V30 2552 N 249.799 1.42003 -0.683588 0
M  V30 2553 C 251.076 1.95112 -0.138075 0
M  V30 2554 C 251.456 1.62359 1.34918 0
M  V30 2555 O 250.804 0.924311 2.08971 0
M  V30 2556 C 251.014 3.46505 -0.416581 0
M  V30 2557 C 252.362 4.23254 -0.337834 0
M  V30 2558 O 253.386 3.54468 -0.35082 0
M  V30 2559 O 252.245 5.45743 -0.287596 0
M  V30 2560 H 249.339 0.826961 -0.00797996 0
M  V30 2561 H 251.885 1.51784 -0.758924 0
M  V30 2562 H 250.657 3.63582 -1.4465 0
M  V30 2563 H 250.28 3.969 0.235839 0
M  V30 2564 N 251.277 0.427512 1.51691 0
M  V30 2565 C 252.693 0.0792977 1.59403 0
M  V30 2566 C 252.893 -1.41035 1.43914 0
M  V30 2567 O 251.949 -2.17922 1.27539 0
M  V30 2568 C 253.262 0.590636 2.94842 0
M  V30 2569 C 254.81 0.550215 3.08126 0
M  V30 2570 C 255.285 1.03836 4.46074 0
M  V30 2571 N 256.776 0.995943 4.52366 0
M  V30 2572 C 257.511 1.34463 5.57411 0
M  V30 2573 N 257.007 1.76569 6.69922 0
M  V30 2574 N 258.8 1.26343 5.47717 0
M  V30 2575 H 250.951 1.39687 1.60004 0
M  V30 2576 H 253.214 0.575003 0.753708 0
M  V30 2577 H 252.92 1.63251 3.11516 0
M  V30 2578 H 252.794 0.0102061 3.77199 0
M  V30 2579 H 255.181 -0.482654 2.91126 0
M  V30 2580 H 255.262 1.16693 2.27632 0
M  V30 2581 H 254.906 2.06965 4.63819 0
M  V30 2582 H 254.836 0.398286 5.25092 0
M  V30 2583 H 257.327 0.68661 3.7161 0
M  V30 2584 H 257.64 2.01438 7.46085 0
M  V30 2585 H 255.985 1.80488 6.71155 0
M  V30 2586 H 259.176 0.933209 4.58703 0
M  V30 2587 H 259.349 1.53846 6.29472 0
M  V30 2588 N 252.755 -1.56801 0.158532 0
M  V30 2589 C 254.001 -1.96781 -0.490405 0
M  V30 2590 C 254.334 -1.04397 -1.63753 0
M  V30 2591 O 253.609 -0.0885805 -1.94298 0
M  V30 2592 C 253.892 -3.4635 -0.985594 0
M  V30 2593 C 253.745 -4.49512 0.160824 0
M  V30 2594 C 255.064 -3.98697 -1.86355 0
M  V30 2595 H 252.183 -0.715482 -0.176788 0
M  V30 2596 H 254.825 -1.88451 0.242088 0
M  V30 2597 H 252.975 -3.53579 -1.60978 0
M  V30 2598 H 254.647 -4.54353 0.797537 0
M  V30 2599 H 252.89 -4.26013 0.818256 0
M  V30 2600 H 253.561 -5.51531 -0.227569 0
M  V30 2601 H 256.037 -3.94019 -1.33746 0
M  V30 2602 H 254.913 -5.03792 -2.17909 0
M  V30 2603 H 255.174 -3.41744 -2.8047 0
M  V30 2604 N 254.233 0.115231 -1.57178 0
M  V30 2605 C 255.18 1.14115 -2.00615 0
M  V30 2606 C 256.15 1.40939 -0.878941 0
M  V30 2607 O 257.335 1.52741 -1.14345 0
M  V30 2608 C 254.475 2.46156 -2.4187 0
M  V30 2609 C 253.588 2.26236 -3.68024 0
M  V30 2610 C 252.723 3.51534 -3.98243 0
M  V30 2611 C 251.762 3.26787 -5.17568 0
M  V30 2612 N 250.899 4.44298 -5.43639 0
M  V30 2613 H 255.739 0.763743 -2.88047 0
M  V30 2614 H 253.276 0.365615 -1.42484 0
M  V30 2615 H 255.234 3.23189 -2.63827 0
M  V30 2616 H 253.864 2.81783 -1.57475 0
M  V30 2617 H 252.916 1.40102 -3.5366 0
M  V30 2618 H 254.228 2.03929 -4.55208 0
M  V30 2619 H 253.382 4.36984 -4.20868 0
M  V30 2620 H 252.121 3.76876 -3.09541 0
M  V30 2621 H 251.126 2.39729 -4.94783 0
M  V30 2622 H 252.351 3.02812 -6.0785 0
M  V30 2623 H 250.297 4.69754 -4.57895 0
M  V30 2624 H 250.214 4.25109 -6.25154 0
M  V30 2625 H 251.482 5.3087 -5.70786 0
M  V30 2626 N 255.711 1.52812 0.385517 0
M  V30 2627 C 256.957 1.68275 1.13188 0
M  V30 2628 C 257.29 0.423179 1.89533 0
M  V30 2629 O 256.565 -0.579113 1.85679 0
M  V30 2630 C 256.848 2.92001 2.1073 0
M  V30 2631 C 256.701 4.28067 1.38125 0
M  V30 2632 C 258.02 3.11283 3.11113 0
M  V30 2633 H 255.139 0.612352 0.410115 0
M  V30 2634 H 257.781 1.85415 0.414869 0
M  V30 2635 H 255.931 2.77519 2.71874 0
M  V30 2636 H 257.603 4.54324 0.799187 0
M  V30 2637 H 255.846 4.28388 0.683092 0
M  V30 2638 H 256.517 5.10733 2.09417 0
M  V30 2639 H 258.993 3.2482 2.6006 0
M  V30 2640 H 257.869 3.99325 3.76605 0
M  V30 2641 H 258.13 2.25656 3.80173 0
M  V30 2642 N 257.189 -0.644168 1.43834 0
M  V30 2643 C 258.438 -1.39985 1.45214 0
M  V30 2644 C 258.751 -1.95421 0.0835494 0
M  V30 2645 O 259.957 -2.71488 -0.0251748 0
M  V30 2646 C 258.413 -2.53384 2.55587 0
M  V30 2647 C 258.021 -2.04517 3.98594 0
M  V30 2648 C 259.765 -3.30685 2.66172 0
M  V30 2649 C 257.672 -3.1518 5.00416 0
M  V30 2650 H 256.602 -0.526005 0.540218 0
M  V30 2651 H 259.253 -0.694367 1.69855 0
M  V30 2652 H 257.635 -3.26446 2.24163 0
M  V30 2653 H 258.809 -1.38405 4.39523 0
M  V30 2654 H 257.124 -1.40068 3.92135 0
M  V30 2655 H 259.721 -4.13158 3.39418 0
M  V30 2656 H 260.064 -3.79312 1.71546 0
M  V30 2657 H 260.597 -2.64708 2.96942 0
M  V30 2658 H 257.336 -2.71511 5.96625 0
M  V30 2659 H 256.856 -3.79974 4.64091 0
M  V30 2660 H 258.535 -3.80166 5.23529 0
M  V30 2661 N 258.668 -1.30515 -0.883378 0
M  V30 2662 C 259.914 -1.19607 -1.63774 0
M  V30 2663 C 260.247 0.248314 -1.92606 0
M  V30 2664 O 259.522 1.17742 -1.54813 0
M  V30 2665 C 259.805 -2.02669 -2.97653 0
M  V30 2666 C 259.658 -3.55335 -2.75784 0
M  V30 2667 C 260.977 -1.86573 -3.98596 0
M  V30 2668 H 258.096 -0.435856 -0.594305 0
M  V30 2669 H 260.738 -1.60165 -1.02212 0
M  V30 2670 H 258.888 -1.68208 -3.50197 0
M  V30 2671 H 260.56 -3.99863 -2.30016 0
M  V30 2672 H 258.803 -3.79438 -2.1026 0
M  V30 2673 H 259.474 -4.08745 -3.70988 0
M  V30 2674 H 261.95 -2.16703 -3.55217 0
M  V30 2675 H 260.826 -2.47014 -4.90179 0
M  V30 2676 H 261.087 -0.825321 -4.34328 0
M  V30 2677 N 260.146 1.09593 -1.13257 0
M  V30 2678 C 261.394 1.81375 -0.891492 0
M  V30 2679 C 261.715 1.86049 0.584009 0
M  V30 2680 O 260.985 1.34481 1.42449 0
M  V30 2681 H 259.565 0.671708 -0.326828 0
M  V30 2682 H 262.227 1.3256 -1.42877 0
M  V30 2683 H 261.323 2.84612 -1.28071 0
M  V30 2684 N 261.624 0.925811 1.2754 0
M  V30 2685 C 262.872 0.564138 1.94067 0
M  V30 2686 C 263.193 -0.897188 1.73134 0
M  V30 2687 O 262.463 -1.63573 1.07799 0
M  V30 2688 H 261.043 0.205645 0.718136 0
M  V30 2689 H 263.705 1.1778 1.55287 0
M  V30 2690 H 262.801 0.76881 3.02483 0
M  V30 2691 N 263.102 -1.41638 0.69111 0
M  V30 2692 C 264.065 -2.29178 0.0319786 0
M  V30 2693 C 265.065 -1.44153 -0.712496 0
M  V30 2694 O 266.255 -1.65354 -0.548053 0
M  V30 2695 C 263.387 -3.26952 -0.965161 0
M  V30 2696 H 264.58 -2.88959 0.802681 0
M  V30 2697 H 262.133 -1.4955 0.454356 0
M  V30 2698 H 262.868 -2.72142 -1.76378 0
M  V30 2699 H 262.653 -3.89685 -0.434522 0
M  V30 2700 H 264.143 -3.92561 -1.42428 0
M  V30 2701 N 264.58 -0.43555 -1.51462 0
M  V30 2702 C 265.991 0.0279871 -1.86679 0
M  V30 2703 C 266.342 1.42104 -1.35281 0
M  V30 2704 O 265.467 2.04667 -0.702878 0
M  V30 2705 C 266.062 0.0575626 -3.38751 0
M  V30 2706 C 264.621 0.465507 -3.7351 0
M  V30 2707 C 263.768 -0.342996 -2.75171 0
M  V30 2708 H 266.719 -0.651473 -1.44712 0
M  V30 2709 H 266.74 0.867421 -3.70481 0
M  V30 2710 H 266.252 -0.956448 -3.7613 0
M  V30 2711 H 264.353 1.48519 -3.41721 0
M  V30 2712 H 264.466 0.191546 -4.78717 0
M  V30 2713 H 262.83 0.198442 -2.53926 0
M  V30 2714 H 263.613 -1.35585 -3.15391 0
M  V30 2715 N 266.058 1.56714 -0.166846 0
M  V30 2716 C 266.988 2.20754 0.760913 0
M  V30 2717 C 267.969 1.16178 1.24244 0
M  V30 2718 O 269.154 1.44592 1.29641 0
M  V30 2719 C 266.284 2.84478 1.99223 0
M  V30 2720 C 265.238 3.95053 1.64672 0
M  V30 2721 C 264.564 4.45805 2.95232 0
M  V30 2722 C 265.864 5.14865 0.878155 0
M  V30 2723 H 267.558 2.98537 0.22713 0
M  V30 2724 H 265.104 1.43596 0.107805 0
M  V30 2725 H 267.057 3.27951 2.64624 0
M  V30 2726 H 265.781 2.04056 2.55007 0
M  V30 2727 H 264.44 3.52228 1.01641 0
M  V30 2728 H 264.088 3.62181 3.49047 0
M  V30 2729 H 263.788 5.204 2.7287 0
M  V30 2730 H 265.312 4.91962 3.6167 0
M  V30 2731 H 266.726 5.55059 1.43466 0
M  V30 2732 H 265.123 5.95348 0.753738 0
M  V30 2733 H 266.193 4.84735 -0.126377 0
M  V30 2734 N 267.536 -0.106894 1.57237 0
M  V30 2735 C 268.761 -0.830287 1.90055 0
M  V30 2736 C 269.186 -1.72064 0.75998 0
M  V30 2737 O 268.544 -1.78982 -0.288991 0
M  V30 2738 C 268.592 -1.6295 3.21683 0
M  V30 2739 O 267.696 -2.73748 3.08441 0
M  V30 2740 H 267.037 -0.228855 0.623315 0
M  V30 2741 H 269.567 -0.085658 2.04421 0
M  V30 2742 H 269.577 -2.01621 3.54701 0
M  V30 2743 H 268.252 -0.975989 4.04286 0
M  V30 2744 H 266.829 -2.38192 2.86913 0
M  V30 2745 N 269.014 -1.53014 -0.377408 0
M  V30 2746 C 269.946 -1.74884 -1.48149 0
M  V30 2747 C 270.959 -0.629433 -1.5014 0
M  V30 2748 O 272.148 -0.905416 -1.53833 0
M  V30 2749 C 269.248 -1.80299 -2.86959 0
M  V30 2750 C 268.421 -3.09776 -3.08801 0
M  V30 2751 C 267.48 -3.06586 -4.27658 0
M  V30 2752 O 266.506 -3.80419 -4.23403 0
M  V30 2753 N 267.708 -2.26578 -5.34455 0
M  V30 2754 H 270.473 -2.70147 -1.29771 0
M  V30 2755 H 268.034 -1.51646 -0.56703 0
M  V30 2756 H 270.026 -1.75657 -3.64591 0
M  V30 2757 H 268.596 -0.92372 -2.98641 0
M  V30 2758 H 267.816 -3.27815 -2.18931 0
M  V30 2759 H 269.104 -3.95366 -3.20255 0
M  V30 2760 H 268.502 -1.66081 -5.40771 0
M  V30 2761 H 267.059 -2.27766 -6.10709 0
M  V30 2762 N 270.492 0.636531 -1.44174 0
M  V30 2763 C 271.769 1.39463 -1.37148 0
M  V30 2764 C 272.149 2.11082 -0.027507 0
M  V30 2765 O 271.497 2.05954 0.989716 0
M  V30 2766 C 271.707 2.36552 -2.56601 0
M  V30 2767 C 273.055 3.00048 -3.00427 0
M  V30 2768 O 274.079 2.46878 -2.56767 0
M  V30 2769 O 272.938 3.96488 -3.76111 0
M  V30 2770 H 270.032 0.623903 -0.542839 0
M  V30 2771 H 272.578 0.662039 -1.56253 0
M  V30 2772 H 271.35 1.82692 -3.46034 0
M  V30 2773 H 270.973 3.17236 -2.39681 0
M  V30 2774 N 271.97 1.30982 0.876444 0
M  V30 2775 C 273.217 1.20296 1.62896 0
M  V30 2776 C 273.545 -0.240395 1.93009 0
M  V30 2777 O 272.8 -1.18733 1.55567 0
M  V30 2778 C 273.099 1.98572 2.9716 0
M  V30 2779 C 272.765 3.48125 2.86566 0
M  V30 2780 C 271.427 3.88905 2.83383 0
M  V30 2781 C 273.779 4.43322 2.74071 0
M  V30 2782 C 271.107 5.2316 2.65556 0
M  V30 2783 C 273.459 5.77695 2.57781 0
M  V30 2784 C 272.123 6.17704 2.52979 0
M  V30 2785 H 271.393 0.440193 0.59608 0
M  V30 2786 H 274.04 1.62177 1.01837 0
M  V30 2787 H 272.345 1.49352 3.62217 0
M  V30 2788 H 274.042 1.8769 3.54364 0
M  V30 2789 H 270.632 3.15723 2.89856 0
M  V30 2790 H 274.816 4.12752 2.75589 0
M  V30 2791 H 270.072 5.53241 2.60259 0
M  V30 2792 H 274.246 6.51091 2.47089 0
M  V30 2793 H 271.873 7.21678 2.38924 0
M  V30 2794 N 273.449 -1.08991 1.13837 0
M  V30 2795 C 274.412 -2.13925 0.822715 0
M  V30 2796 C 275.412 -1.599 -0.1699 0
M  V30 2797 O 276.602 -1.74104 0.0577251 0
M  V30 2798 C 273.734 -3.40155 0.225318 0
M  V30 2799 H 274.927 -2.43358 1.75262 0
M  V30 2800 H 272.48 -1.24603 0.943594 0
M  V30 2801 H 273.215 -3.16352 -0.713594 0
M  V30 2802 H 273 -3.80661 0.940193 0
M  V30 2803 H 274.49 -4.17594 0.0214784 0
M  V30 2804 N 274.927 -0.932562 -1.27047 0
M  V30 2805 C 276.204 -0.49377 -1.89265 0
M  V30 2806 C 276.584 1.02833 -1.8436 0
M  V30 2807 O 275.932 1.88461 -1.29209 0
M  V30 2808 C 276.142 -1.04536 -3.32976 0
M  V30 2809 C 277.49 -1.10879 -4.09867 0
M  V30 2810 O 278.514 -0.995327 -3.42011 0
M  V30 2811 O 277.373 -1.28417 -5.31198 0
M  V30 2812 H 274.467 -0.159596 -0.811454 0
M  V30 2813 H 277.013 -1.02457 -1.3528 0
M  V30 2814 H 275.785 -2.08913 -3.30864 0
M  V30 2815 H 275.408 -0.496494 -3.94488 0
M  V30 2816 N 276.405 1.4127 -0.698611 0
M  V30 2817 C 277.315 2.34573 -0.0357891 0
M  V30 2818 C 278.331 1.56393 0.762701 0
M  V30 2819 O 279.507 1.8886 0.699564 0
M  V30 2820 C 276.572 3.35159 0.887089 0
M  V30 2821 C 275.633 4.29225 0.0804634 0
M  V30 2822 C 274.866 5.25006 0.959387 0
M  V30 2823 O 275.089 5.26314 2.19886 0
M  V30 2824 O 274.023 6.00519 0.407439 0
M  V30 2825 H 277.849 2.92838 -0.804957 0
M  V30 2826 H 275.434 1.42175 -0.458966 0
M  V30 2827 H 277.316 3.9689 1.41621 0
M  V30 2828 H 275.991 2.79333 1.6357 0
M  V30 2829 H 274.898 3.70833 -0.493328 0
M  V30 2830 H 276.231 4.88157 -0.629547 0
M  V30 2831 N 277.883 0.443576 1.51229 0
M  V30 2832 C 279.132 -0.122332 2.01329 0
M  V30 2833 C 279.445 -1.43237 1.33201 0
M  V30 2834 O 280.651 -2.0816 1.74304 0
M  V30 2835 C 279.107 -0.268551 3.58897 0
M  V30 2836 C 278.715 1.03142 4.35965 0
M  V30 2837 C 280.459 -0.787894 4.17124 0
M  V30 2838 C 278.366 0.850504 5.85252 0
M  V30 2839 H 277.296 -0.0494929 0.752374 0
M  V30 2840 H 279.947 0.574289 1.74282 0
M  V30 2841 H 278.329 -1.02832 3.82415 0
M  V30 2842 H 279.503 1.80001 4.24189 0
M  V30 2843 H 277.818 1.47977 3.89219 0
M  V30 2844 H 280.415 -0.939841 5.26375 0
M  V30 2845 H 280.758 -1.77201 3.76703 0
M  V30 2846 H 281.291 -0.0862669 3.97706 0
M  V30 2847 H 278.03 1.80718 6.30096 0
M  V30 2848 H 277.55 0.121825 5.99676 0
M  V30 2849 H 279.229 0.506163 6.45017 0
M  V30 2850 N 279.361 -1.56624 0.175154 0
M  V30 2851 C 280.609 -1.96609 -0.467885 0
M  V30 2852 C 280.93 -1.06238 -1.63519 0
M  V30 2853 O 280.2 -0.129523 -1.95471 0
M  V30 2854 H 278.78 -0.726008 -0.175845 0
M  V30 2855 H 281.442 -1.93195 0.257234 0
M  V30 2856 H 280.538 -3.00989 -0.825342 0
M  V30 2857 N 280.839 0.0985539 -1.57292 0
M  V30 2858 C 281.802 1.10402 -2.00858 0
M  V30 2859 C 282.802 1.33146 -0.901593 0
M  V30 2860 O 283.992 1.29318 -1.16716 0
M  V30 2861 C 281.124 2.45394 -2.36632 0
M  V30 2862 H 282.317 0.729099 -2.90902 0
M  V30 2863 H 279.87 0.343495 -1.52479 0
M  V30 2864 H 280.605 2.87769 -1.49531 0
M  V30 2865 H 280.39 2.30235 -3.17387 0
M  V30 2866 H 281.88 3.17718 -2.71007 0
M  V30 2867 N 282.317 1.53212 0.369288 0
M  V30 2868 C 283.594 1.59815 1.12776 0
M  V30 2869 C 283.974 0.403402 2.0721 0
M  V30 2870 O 283.322 -0.606667 2.20299 0
M  V30 2871 C 283.532 2.94664 1.87013 0
M  V30 2872 C 284.88 3.49109 2.41677 0
M  V30 2873 O 285.904 2.96669 1.97144 0
M  V30 2874 O 284.763 4.40775 3.23079 0
M  V30 2875 H 281.857 0.645376 0.517125 0
M  V30 2876 H 284.403 1.65553 0.37285 0
M  V30 2877 H 283.175 3.73061 1.18071 0
M  V30 2878 H 282.798 2.92401 2.69421 0
M  V30 2879 N 283.795 -0.628877 1.44509 0
M  V30 2880 C 285.043 -1.38565 1.4712 0
M  V30 2881 C 285.364 -1.94712 0.105899 0
M  V30 2882 O 284.634 -1.75912 -0.862079 0
M  V30 2883 H 283.214 -0.514333 0.541729 0
M  V30 2884 H 285.876 -0.740018 1.80305 0
M  V30 2885 H 284.972 -2.21583 2.19789 0
M  V30 2886 N 285.273 -1.31445 -0.869486 0
M  V30 2887 C 286.503 -1.23942 -1.65294 0
M  V30 2888 C 286.911 0.197561 -1.88166 0
M  V30 2889 O 286.254 1.14019 -1.44033 0
M  V30 2890 C 286.316 -1.91385 -3.04322 0
M  V30 2891 C 285.98 -3.40726 -3.04557 0
M  V30 2892 C 286.977 -4.36464 -2.82481 0
M  V30 2893 C 284.662 -3.82425 -3.25663 0
M  V30 2894 C 286.656 -5.71876 -2.8149 0
M  V30 2895 C 284.343 -5.1795 -3.243 0
M  V30 2896 C 285.341 -6.12486 -3.02241 0
M  V30 2897 O 285.029 -7.45534 -3.00724 0
M  V30 2898 H 284.761 -0.429459 -0.522054 0
M  V30 2899 H 287.315 -1.73873 -1.0935 0
M  V30 2900 H 285.545 -1.36004 -3.61994 0
M  V30 2901 H 287.234 -1.77791 -3.64891 0
M  V30 2902 H 288 -4.05576 -2.65956 0
M  V30 2903 H 283.879 -3.09274 -3.41863 0
M  V30 2904 H 287.423 -6.45638 -2.64191 0
M  V30 2905 H 283.32 -5.48473 -3.40365 0
M  V30 2906 H 284.088 -7.54713 -3.16782 0
M  V30 2907 N 286.751 1.08385 -1.14413 0
M  V30 2908 C 287.714 2.13486 -0.834048 0
M  V30 2909 C 288.714 1.59988 0.161418 0
M  V30 2910 O 289.904 1.74071 -0.0669575 0
M  V30 2911 C 287.036 3.4003 -0.243354 0
M  V30 2912 H 288.229 2.42425 -1.7655 0
M  V30 2913 H 285.782 1.24101 -0.950189 0
M  V30 2914 H 286.517 3.16726 0.696807 0
M  V30 2915 H 286.302 3.80157 -0.960367 0
M  V30 2916 H 287.792 4.17577 -0.0436242 0
M  V30 2917 N 288.23 0.939286 1.26551 0
M  V30 2918 C 289.641 0.628782 1.75793 0
M  V30 2919 C 289.992 -0.856046 1.7654 0
M  V30 2920 O 289.117 -1.66994 1.3763 0
M  V30 2921 C 289.712 1.13465 3.19235 0
M  V30 2922 C 288.271 0.874601 3.66098 0
M  V30 2923 C 287.418 1.28667 2.45642 0
M  V30 2924 H 290.369 1.1178 1.12654 0
M  V30 2925 H 290.39 0.487609 3.77363 0
M  V30 2926 H 289.902 2.21535 3.1866 0
M  V30 2927 H 288.003 -0.191793 3.72106 0
M  V30 2928 H 288.116 1.50028 4.55004 0
M  V30 2929 H 286.48 0.705109 2.44745 0
M  V30 2930 H 287.263 2.37625 2.47769 0
M  V30 2931 N 289.708 -1.40897 0.706093 0
M  V30 2932 C 290.985 -1.94868 0.169099 0
M  V30 2933 C 291.365 -1.64485 -1.32318 0
M  V30 2934 O 290.713 -0.95744 -2.07474 0
M  V30 2935 C 290.923 -3.45798 0.471654 0
M  V30 2936 C 292.271 -4.22663 0.405127 0
M  V30 2937 O 293.295 -3.53865 0.407168 0
M  V30 2938 O 292.154 -5.45216 0.374383 0
M  V30 2939 H 289.248 -0.82673 0.0211352 0
M  V30 2940 H 291.794 -1.50558 0.782976 0
M  V30 2941 H 290.566 -3.61235 1.50416 0
M  V30 2942 H 290.189 -3.97225 -0.172666 0
M  V30 2943 N 291.186 -0.45159 -1.50991 0
M  V30 2944 C 292.149 0.341117 -2.26647 0
M  V30 2945 C 293.149 0.937422 -1.30649 0
M  V30 2946 O 294.339 0.809644 -1.54241 0
M  V30 2947 C 291.471 1.48398 -3.06905 0
M  V30 2948 H 292.664 -0.322117 -2.98165 0
M  V30 2949 H 290.217 -0.205122 -1.54948 0
M  V30 2950 H 290.952 2.18284 -2.39838 0
M  V30 2951 H 290.737 1.06241 -3.77432 0
M  V30 2952 H 292.227 2.04367 -3.64176 0
M  V30 2953 N 292.664 1.56529 -0.183458 0
M  V30 2954 C 293.627 2.17324 0.728223 0
M  V30 2955 C 294.627 1.12453 1.14939 0
M  V30 2956 O 295.817 1.37902 1.06437 0
M  V30 2957 C 292.949 2.76591 1.99274 0
M  V30 2958 H 294.142 2.99241 0.198772 0
M  V30 2959 H 291.695 1.5616 0.0661391 0
M  V30 2960 H 292.43 1.98441 2.56499 0
M  V30 2961 H 292.215 3.5335 1.69959 0
M  V30 2962 H 293.705 3.23311 2.6431 0
M  V30 2963 N 294.142 -0.090211 1.57342 0
M  V30 2964 C 295.367 -0.810082 1.90925 0
M  V30 2965 C 295.792 -1.71248 0.778187 0
M  V30 2966 O 295.15 -1.79278 -0.269991 0
M  V30 2967 C 295.198 -1.59529 3.23393 0
M  V30 2968 O 294.302 -2.70461 3.11327 0
M  V30 2969 H 293.643 -0.222231 0.625707 0
M  V30 2970 H 296.173 -0.0639716 2.045 0
M  V30 2971 H 296.183 -1.97847 3.5682 0
M  V30 2972 H 294.858 -0.933055 4.05299 0
M  V30 2973 H 293.435 -2.35135 2.89423 0
M  V30 2974 N 295.62 -1.53406 -0.361157 0
M  V30 2975 C 296.583 -1.79479 -1.42548 0
M  V30 2976 C 297.583 -0.665327 -1.4639 0
M  V30 2977 O 298.773 -0.933549 -1.47073 0
M  V30 2978 C 295.905 -1.92087 -2.8163 0
M  V30 2979 H 297.098 -2.74538 -1.20701 0
M  V30 2980 H 294.651 -1.4455 -0.594546 0
M  V30 2981 H 295.386 -0.991099 -3.08784 0
M  V30 2982 H 295.171 -2.74241 -2.80239 0
M  V30 2983 H 296.661 -2.13836 -3.58697 0
M  V30 2984 N 297.098 0.621204 -1.44841 0
M  V30 2985 C 298.326 1.40752 -1.51646 0
M  V30 2986 C 298.741 1.88246 -0.144549 0
M  V30 2987 O 298.098 1.61422 0.851416 0
M  V30 2988 C 298.149 2.62119 -2.4895 0
M  V30 2989 O 297.87 2.16602 -3.80808 0
M  V30 2990 C 299.371 3.55135 -2.65319 0
M  V30 2991 H 296.591 0.431325 -0.514004 0
M  V30 2992 H 299.135 0.758835 -1.899 0
M  V30 2993 H 297.29 3.23058 -2.13805 0
M  V30 2994 H 297.704 2.95358 -4.33433 0
M  V30 2995 H 299.178 4.36874 -3.37409 0
M  V30 2996 H 299.655 4.04592 -1.70886 0
M  V30 2997 H 300.261 3.00058 -3.01405 0
M  V30 2998 N 298.576 1.31904 0.862503 0
M  V30 2999 C 299.486 1.22161 2.00285 0
M  V30 3000 C 300.502 0.136785 1.73462 0
M  V30 3001 O 301.678 0.355994 1.98229 0
M  V30 3002 C 298.743 0.937093 3.33796 0
M  V30 3003 C 297.804 2.10957 3.73893 0
M  V30 3004 C 297.037 1.83853 5.01033 0
M  V30 3005 O 297.26 0.777274 5.65079 0
M  V30 3006 O 296.194 2.69741 5.38074 0
M  V30 3007 H 300.02 2.18008 2.11439 0
M  V30 3008 H 297.605 1.11716 0.991957 0
M  V30 3009 H 299.487 0.794583 4.13841 0
M  V30 3010 H 298.162 0.00871894 3.23699 0
M  V30 3011 H 297.069 2.30752 2.94456 0
M  V30 3012 H 298.402 3.02046 3.88625 0
M  V30 3013 N 300.054 -1.07777 1.14986 0
M  V30 3014 C 300.984 -2.16865 0.865557 0
M  V30 3015 C 301.965 -1.69123 -0.182083 0
M  V30 3016 O 303.15 -1.94164 -0.0373815 0
M  V30 3017 C 300.28 -3.45539 0.349313 0
M  V30 3018 C 299.234 -4.06708 1.33313 0
M  V30 3019 C 298.56 -5.30411 0.675918 0
M  V30 3020 C 299.86 -4.47241 2.69764 0
M  V30 3021 H 301.554 -2.40905 1.77778 0
M  V30 3022 H 299.1 -1.15781 0.856203 0
M  V30 3023 H 301.053 -4.21174 0.137983 0
M  V30 3024 H 299.777 -3.21072 -0.598362 0
M  V30 3025 H 298.436 -3.33112 1.53075 0
M  V30 3026 H 298.084 -5.02232 -0.277767 0
M  V30 3027 H 297.784 -5.72293 1.33244 0
M  V30 3028 H 299.308 -6.08755 0.474262 0
M  V30 3029 H 300.722 -5.14025 2.53873 0
M  V30 3030 H 299.119 -5.00062 3.3175 0
M  V30 3031 H 300.189 -3.58818 3.26156 0
M  V30 3032 N 301.532 -0.945985 -1.26051 0
M  V30 3033 C 302.772 -0.603665 -1.95282 0
M  V30 3034 C 303.136 0.842377 -1.72534 0
M  V30 3035 O 304.337 1.29387 -2.35611 0
M  V30 3036 C 302.608 -0.942292 -3.44754 0
M  V30 3037 S 304.167 -0.711242 -4.32997 0
M  V30 3038 H 300.985 -0.222176 -0.675395 0
M  V30 3039 H 303.587 -1.21832 -1.52896 0
M  V30 3040 H 302.291 -1.99203 -3.58812 0
M  V30 3041 H 301.822 -0.317546 -3.92116 0
M  V30 3042 H 303.837 0.422221 -4.944 0
M  V30 3043 N 303.011 1.40521 -0.713556 0
M  V30 3044 C 304.427 1.54839 -0.386907 0
M  V30 3045 C 304.627 1.68532 1.1045 0
M  V30 3046 O 303.683 1.67377 1.89053 0
M  V30 3047 C 304.996 2.77792 -1.15118 0
M  V30 3048 C 306.544 2.91607 -1.13729 0
M  V30 3049 C 307.019 4.1747 -1.88368 0
M  V30 3050 N 308.51 4.24466 -1.85427 0
M  V30 3051 C 309.245 5.20755 -2.40004 0
M  V30 3052 N 308.741 6.22965 -3.03129 0
M  V30 3053 N 310.534 5.1282 -2.30158 0
M  V30 3054 H 302.685 1.29879 -1.68063 0
M  V30 3055 H 304.948 0.627896 -0.710247 0
M  V30 3056 H 304.654 2.73944 -2.20561 0
M  V30 3057 H 304.528 3.6984 -0.741477 0
M  V30 3058 H 306.915 2.94959 -0.0910608 0
M  V30 3059 H 306.996 2.00682 -1.5862 0
M  V30 3060 H 306.64 4.1488 -2.9298 0
M  V30 3061 H 306.57 5.074 -1.40898 0
M  V30 3062 H 309.061 3.51241 -1.3942 0
M  V30 3063 H 309.374 6.92859 -3.42295 0
M  V30 3064 H 307.719 6.23415 -3.07212 0
M  V30 3065 H 310.91 4.31899 -1.80501 0
M  V30 3066 H 311.083 5.87689 -2.72993 0
M  V30 3067 N 304.489 0.459591 1.5075 0
M  V30 3068 C 305.421 -0.37665 2.26084 0
M  V30 3069 C 306.434 -0.967109 1.30961 0
M  V30 3070 O 307.623 -0.857468 1.56556 0
M  V30 3071 C 304.723 -1.54112 3.01832 0
M  V30 3072 C 303.896 -1.06553 4.24223 0
M  V30 3073 C 302.955 -2.1027 4.82362 0
M  V30 3074 O 301.981 -1.68798 5.43595 0
M  V30 3075 N 303.183 -3.42974 4.68347 0
M  V30 3076 H 305.948 0.269124 2.98489 0
M  V30 3077 H 303.509 0.28972 1.59287 0
M  V30 3078 H 305.501 -2.23165 3.37608 0
M  V30 3079 H 304.071 -2.0918 2.32298 0
M  V30 3080 H 303.291 -0.201274 3.93686 0
M  V30 3081 H 304.579 -0.725516 5.03601 0
M  V30 3082 H 303.977 -3.79385 4.19623 0
M  V30 3083 H 302.534 -4.07858 5.08424 0
M  V30 3084 N 305.967 -1.56429 0.191757 0
M  V30 3085 C 306.897 -2.21937 -0.725696 0
M  V30 3086 C 307.878 -1.1814 -1.2238 0
M  V30 3087 O 309.063 -1.46636 -1.27325 0
M  V30 3088 C 306.193 -2.87611 -1.94672 0
M  V30 3089 C 305.147 -3.97623 -1.58366 0
M  V30 3090 C 304.473 -4.50446 -2.88102 0
M  V30 3091 C 305.773 -5.16197 -0.796133 0
M  V30 3092 H 307.467 -2.98861 -0.179606 0
M  V30 3093 H 305.013 -1.43749 -0.0849464 0
M  V30 3094 H 306.966 -3.3212 -2.59373 0
M  V30 3095 H 305.69 -2.08087 -2.51728 0
M  V30 3096 H 304.349 -3.53801 -0.960247 0
M  V30 3097 H 303.997 -3.67688 -3.43241 0
M  V30 3098 H 303.697 -5.24675 -2.64556 0
M  V30 3099 H 305.221 -4.97654 -3.53798 0
M  V30 3100 H 306.635 -5.57271 -1.34618 0
M  V30 3101 H 305.032 -5.96471 -0.658928 0
M  V30 3102 H 306.102 -4.84473 0.203478 0
M  V30 3103 N 307.445 0.0818655 -1.57387 0
M  V30 3104 C 308.375 1.09885 -2.06028 0
M  V30 3105 C 309.356 1.4098 -0.951774 0
M  V30 3106 O 310.541 1.50781 -1.22387 0
M  V30 3107 C 307.671 2.4151 -2.4958 0
M  V30 3108 C 306.625 2.24792 -3.64215 0
M  V30 3109 C 305.951 3.61712 -3.93787 0
M  V30 3110 C 307.251 1.67749 -4.94629 0
M  V30 3111 H 308.945 0.694128 -2.91243 0
M  V30 3112 H 306.491 0.332448 -1.4011 0
M  V30 3113 H 308.444 3.12939 -2.82219 0
M  V30 3114 H 307.168 2.83943 -1.61381 0
M  V30 3115 H 305.827 1.55807 -3.31843 0
M  V30 3116 H 305.475 4.01697 -3.02735 0
M  V30 3117 H 305.175 3.51368 -4.70971 0
M  V30 3118 H 306.699 4.34587 -4.28913 0
M  V30 3119 H 308.113 2.29032 -5.25564 0
M  V30 3120 H 306.51 1.68128 -5.76067 0
M  V30 3121 H 307.58 0.638059 -4.80684 0
M  V30 3122 N 308.923 1.53595 0.353017 0
M  V30 3123 C 309.833 1.83897 1.45667 0
M  V30 3124 C 310.849 0.728334 1.58023 0
M  V30 3125 O 312.025 1.01968 1.73679 0
M  V30 3126 C 309.09 2.03383 2.80778 0
M  V30 3127 C 308.151 3.27262 2.77845 0
M  V30 3128 C 307.384 3.45809 4.06512 0
M  V30 3129 O 307.607 2.68387 5.03314 0
M  V30 3130 O 306.541 4.39207 4.11559 0
M  V30 3131 H 310.367 2.77686 1.2298 0
M  V30 3132 H 307.952 1.39132 0.544308 0
M  V30 3133 H 309.834 2.17698 3.60812 0
M  V30 3134 H 308.509 1.12783 3.03417 0
M  V30 3135 H 307.416 3.18359 1.96465 0
M  V30 3136 H 308.749 4.17824 2.60161 0
M  V30 3137 O 310.44 -0.498996 1.53598 0
M  V30 3138 H 311.131 -1.15384 1.55584 0
M  V30 END ATOM
M  V30 BEGIN BOND
M  V30 END BOND
M  V30 END CTAB
M  END
$$$$
