drugbank_target|Q30154 HLA class II histocompatibility antigen, DR beta 5 chain (DB05121; DB11294)
 OpenBabel12092120593D

  0  0  0     0  0            999 V3000
M  V30 BEGIN CTAB
M  V30 COUNTS 4183 4234 0 0 0
M  V30 BEGIN ATOM
M  V30 1 H -0.908 1.98254 -0.117106 0
M  V30 2 N 0 1.576 0 0
M  V30 3 C 0.933 2.03868 1.02534 0
M  V30 4 C 1.911 0.928543 1.3348 0
M  V30 5 O 3.095 1.19667 1.45644 0
M  V30 6 C 0.222 2.43627 2.35294 0
M  V30 7 C -0.732 3.65373 2.2001 0
M  V30 8 S 0.101 5.13292 1.52614 0
M  V30 9 C 1.257 5.56322 2.86805 0
M  V30 10 H 1.49 2.90518 0.631377 0
M  V30 11 H -0.977 1.52953 0.210867 0
M  V30 12 H 0.981 2.67203 3.11629 0
M  V30 13 H -0.358 1.57376 2.7183 0
M  V30 14 H -1.165 3.90944 3.18086 0
M  V30 15 H -1.563 3.418 1.51819 0
M  V30 16 H 0.729 5.58782 3.83104 0
M  V30 17 H 1.672 6.56266 2.65933 0
M  V30 18 H 2.08 4.83886 2.90714 0
M  V30 19 N 1.4781 -0.272755 1.55222 0
M  V30 20 C 2.7241 -1.00581 1.761 0
M  V30 21 C 3.0571 -1.85932 0.560625 0
M  V30 22 O 2.3321 -1.89416 -0.441801 0
M  V30 23 C 2.6151 -1.88816 3.06628 0
M  V30 24 C 2.4681 -1.06457 4.37021 0
M  V30 25 C 3.7871 -2.8752 3.33197 0
M  V30 26 H 0.9061 -0.364244 0.640699 0
M  V30 27 H 3.5481 -0.278189 1.87952 0
M  V30 28 H 1.6981 -2.50856 2.96654 0
M  V30 29 H 3.3701 -0.464863 4.58952 0
M  V30 30 H 1.6131 -0.368043 4.32236 0
M  V30 31 H 2.2841 -1.71514 5.24678 0
M  V30 32 H 4.7601 -2.35615 3.42965 0
M  V30 33 H 3.6361 -3.46399 4.25792 0
M  V30 34 H 3.8971 -3.62657 2.52849 0
M  V30 35 N 2.9562 -1.48159 -0.537278 0
M  V30 36 C 4.1962 -1.57397 -1.30405 0
M  V30 37 C 4.5602 -0.239202 -1.90504 0
M  V30 38 O 5.7612 -0.206528 -2.68005 0
M  V30 39 C 4.0322 -2.6754 -2.36974 0
M  V30 40 S 5.5912 -2.96496 -3.23475 0
M  V30 41 H 2.4092 -0.555577 -0.443684 0
M  V30 42 H 5.0112 -1.85644 -0.612912 0
M  V30 43 H 3.7152 -3.63092 -1.91291 0
M  V30 44 H 3.2462 -2.41172 -3.10805 0
M  V30 45 H 5.2612 -2.35234 -4.36897 0
M  V30 46 N 4.4343 0.785586 -1.36625 0
M  V30 47 C 5.3643 1.91259 -1.33949 0
M  V30 48 C 6.3453 1.68795 -0.210325 0
M  V30 49 O 7.5303 1.89854 -0.408561 0
M  V30 50 C 4.6603 3.28339 -1.13186 0
M  V30 51 C 3.6143 3.65335 -2.22967 0
M  V30 52 C 2.9403 5.00806 -1.87342 0
M  V30 53 C 4.2403 3.7352 -3.65075 0
M  V30 54 H 5.9343 1.93755 -2.28253 0
M  V30 55 H 3.4803 0.930788 -1.09874 0
M  V30 56 H 5.4333 4.06804 -1.09948 0
M  V30 57 H 4.1573 3.2624 -0.153332 0
M  V30 58 H 2.8163 2.89169 -2.25337 0
M  V30 59 H 2.4643 4.95233 -0.880545 0
M  V30 60 H 2.1643 5.26529 -2.60846 0
M  V30 61 H 3.6883 5.81687 -1.85667 0
M  V30 62 H 5.1023 4.42168 -3.64911 0
M  V30 63 H 3.4993 4.10731 -4.37516 0
M  V30 64 H 4.5693 2.74527 -3.99703 0
M  V30 65 N 5.9124 1.20967 1.01018 0
M  V30 66 C 6.8594 0.964281 2.09691 0
M  V30 67 C 7.8294 -0.107853 1.65749 0
M  V30 68 O 9.0144 0.0381987 1.90762 0
M  V30 69 C 6.1544 0.52943 3.41015 0
M  V30 70 C 5.2674 1.67043 3.98398 0
M  V30 71 C 4.4024 1.18525 5.17808 0
M  V30 72 C 3.4414 2.29892 5.67288 0
M  V30 73 N 2.5784 1.82546 6.77954 0
M  V30 74 H 7.4184 1.89463 2.30017 0
M  V30 75 H 4.9554 0.944289 1.1279 0
M  V30 76 H 6.9134 0.258588 4.16398 0
M  V30 77 H 5.5434 -0.363919 3.20742 0
M  V30 78 H 4.5954 2.05603 3.20049 0
M  V30 79 H 5.9074 2.50877 4.31117 0
M  V30 80 H 5.0614 0.870762 6.00419 0
M  V30 81 H 3.8004 0.316887 4.86669 0
M  V30 82 H 2.8054 2.6215 4.83278 0
M  V30 83 H 4.0304 3.17216 6.00459 0
M  V30 84 H 1.9764 0.980454 6.48632 0
M  V30 85 H 1.8934 2.59956 7.09901 0
M  V30 86 H 3.1614 1.54115 7.64113 0
M  V30 87 N 7.3905 -1.2043 1.01659 0
M  V30 88 C 8.3205 -2.25466 0.607226 0
M  V30 89 C 9.3015 -1.65853 -0.377716 0
M  V30 90 O 10.4865 -1.92409 -0.263149 0
M  V30 91 C 7.6165 -3.47256 -0.0552949 0
M  V30 92 C 6.5705 -4.19462 0.850632 0
M  V30 93 C 5.8965 -5.34673 0.0538859 0
M  V30 94 C 7.1965 -4.75603 2.15868 0
M  V30 95 H 8.8905 -2.59962 1.48526 0
M  V30 96 H 6.4365 -1.2496 0.715605 0
M  V30 97 H 8.3895 -4.19917 -0.353233 0
M  V30 98 H 7.1135 -3.11924 -0.968045 0
M  V30 99 H 5.7725 -3.48667 1.13257 0
M  V30 100 H 5.4205 -4.95585 -0.860514 0
M  V30 101 H 5.1205 -5.83913 0.657192 0
M  V30 102 H 6.6445 -6.10138 -0.237598 0
M  V30 103 H 8.0585 -5.40083 1.92311 0
M  V30 104 H 6.4555 -5.3528 2.71284 0
M  V30 105 H 7.5255 -3.94346 2.82169 0
M  V30 106 N 8.8686 -0.792821 -1.36206 0
M  V30 107 C 10.2796 -0.429513 -1.81692 0
M  V30 108 C 10.6306 1.04695 -1.65932 0
M  V30 109 O 9.7556 1.81256 -1.18218 0
M  V30 110 C 10.3506 -0.772831 -3.29868 0
M  V30 111 C 8.9096 -0.462307 -3.7355 0
M  V30 112 C 8.0566 -1.00569 -2.5842 0
M  V30 113 H 11.0076 -0.985672 -1.24379 0
M  V30 114 H 11.0286 -0.0651928 -3.80444 0
M  V30 115 H 10.5406 -1.84747 -3.41307 0
M  V30 116 H 8.6416 0.604158 -3.67669 0
M  V30 117 H 8.7546 -0.985299 -4.68859 0
M  V30 118 H 7.1186 -0.428734 -2.51066 0
M  V30 119 H 7.9016 -2.08616 -2.72643 0
M  V30 120 N 10.3467 1.47872 -0.545128 0
M  V30 121 C 11.5947 2.02093 -0.016553 0
M  V30 122 C 11.9157 1.42305 1.3332 0
M  V30 123 O 11.1857 0.593853 1.86682 0
M  V30 124 H 9.7657 0.746993 -0.00313038 0
M  V30 125 H 12.4277 1.81414 -0.712397 0
M  V30 126 H 11.5237 3.11996 0.0805422 0
M  V30 127 N 11.8248 0.280983 1.55075 0
M  V30 128 C 13.0728 -0.333455 1.9933 0
M  V30 129 C 13.3938 -1.55937 1.17085 0
M  V30 130 O 12.6638 -1.94143 0.261805 0
M  V30 131 H 11.2438 -0.126197 0.736263 0
M  V30 132 H 13.9058 0.387678 1.91005 0
M  V30 133 H 13.0018 -0.619292 3.05894 0
M  V30 134 N 13.3029 -1.57598 0.00835791 0
M  V30 135 C 14.5279 -1.95617 -0.689103 0
M  V30 136 C 14.9529 -0.883753 -1.66046 0
M  V30 137 O 14.3109 0.157352 -1.80616 0
M  V30 138 C 14.3589 -3.32736 -1.38994 0
M  V30 139 O 13.4629 -3.27631 -2.50463 0
M  V30 140 H 12.8039 -0.638379 -0.182668 0
M  V30 141 H 15.3339 -2.045 0.064036 0
M  V30 142 H 15.3439 -3.68494 -1.75147 0
M  V30 143 H 14.0189 -4.1034 -0.677778 0
M  V30 144 H 12.5959 -3.03561 -2.16576 0
M  V30 145 N 14.781 0.264519 -1.55364 0
M  V30 146 C 16.011 1.01153 -1.80143 0
M  V30 147 C 16.419 1.80115 -0.579253 0
M  V30 148 O 15.762 1.77813 0.46132 0
M  V30 149 C 15.824 2.01098 -2.97993 0
M  V30 150 C 15.488 1.40995 -4.34706 0
M  V30 151 C 16.485 0.821316 -5.13372 0
M  V30 152 C 14.17 1.43461 -4.81378 0
M  V30 153 C 16.164 0.265339 -6.36847 0
M  V30 154 C 13.851 0.874771 -6.04807 0
M  V30 155 C 14.849 0.291146 -6.82379 0
M  V30 156 O 14.537 -0.260093 -8.03479 0
M  V30 157 H 14.269 0.304125 -0.603725 0
M  V30 158 H 16.823 0.298089 -2.03225 0
M  V30 159 H 15.053 2.76224 -2.70623 0
M  V30 160 H 16.742 2.61997 -3.1002 0
M  V30 161 H 17.508 0.794903 -4.78442 0
M  V30 162 H 13.387 1.87826 -4.21002 0
M  V30 163 H 16.931 -0.190837 -6.97339 0
M  V30 164 H 12.828 0.898452 -6.39217 0
M  V30 165 H 13.596 -0.150265 -8.18362 0
M  V30 166 N 16.2591 1.48442 0.529413 0
M  V30 167 C 17.1921 1.57577 1.65059 0
M  V30 168 C 18.1701 0.426198 1.56915 0
M  V30 169 O 19.3541 0.637877 1.77379 0
M  V30 170 C 16.4811 1.5043 3.03461 0
M  V30 171 C 15.5271 2.70235 3.29962 0
M  V30 172 S 16.3601 4.32198 3.16172 0
M  V30 173 C 17.5161 4.2765 4.57019 0
M  V30 174 H 17.7491 2.52427 1.5706 0
M  V30 175 H 15.2821 1.36982 0.712417 0
M  V30 176 H 17.2401 1.46992 3.8328 0
M  V30 177 H 15.9011 0.569167 3.089 0
M  V30 178 H 15.0941 2.61374 4.30929 0
M  V30 179 H 14.6961 2.70938 2.57815 0
M  V30 180 H 16.9881 3.97618 5.48549 0
M  V30 181 H 17.9311 5.28797 4.70934 0
M  V30 182 H 18.3391 3.5811 4.36368 0
M  V30 183 N 17.7372 -0.778329 1.37039 0
M  V30 184 C 18.7002 -1.87301 1.32102 0
M  V30 185 C 19.7002 -1.59198 0.226405 0
M  V30 186 O 20.8902 -1.67403 0.481861 0
M  V30 187 C 18.0222 -3.24309 1.05055 0
M  V30 188 H 19.2152 -1.93093 2.29467 0
M  V30 189 H 16.7682 -0.977358 1.21973 0
M  V30 190 H 17.5032 -3.24196 0.0819373 0
M  V30 191 H 17.2882 -3.46098 1.84279 0
M  V30 192 H 18.7782 -4.04382 1.04234 0
M  V30 193 N 19.2153 -1.21501 -1.00376 0
M  V30 194 C 20.1623 -0.975387 -2.09177 0
M  V30 195 C 21.1323 0.0990615 -1.65804 0
M  V30 196 O 22.3173 -0.0483147 -1.90739 0
M  V30 197 C 19.4573 -0.547507 -3.40729 0
M  V30 198 C 18.5703 -1.69153 -3.97506 0
M  V30 199 C 17.7053 -1.2127 -5.17172 0
M  V30 200 C 16.7443 -2.32897 -5.66061 0
M  V30 201 N 15.8813 -1.86138 -6.76976 0
M  V30 202 H 20.7213 -1.9068 -2.29009 0
M  V30 203 H 18.2583 -0.950257 -1.12288 0
M  V30 204 H 20.2163 -0.280667 -4.16255 0
M  V30 205 H 18.8463 0.346904 -3.20931 0
M  V30 206 H 17.8983 -2.07298 -3.18954 0
M  V30 207 H 19.2103 -2.5316 -4.29781 0
M  V30 208 H 18.3643 -0.902591 -5.99948 0
M  V30 209 H 17.1033 -0.342692 -4.86495 0
M  V30 210 H 16.1083 -2.64709 -4.81881 0
M  V30 211 H 17.3333 -3.20396 -5.98768 0
M  V30 212 H 15.2793 -1.01484 -6.48103 0
M  V30 213 H 15.1963 -2.63717 -7.08512 0
M  V30 214 H 16.4643 -1.58165 -7.63285 0
M  V30 215 N 20.6934 1.19889 -1.02296 0
M  V30 216 C 21.6234 2.25141 -0.619174 0
M  V30 217 C 22.6044 1.66051 0.368915 0
M  V30 218 O 23.7894 1.92546 0.252941 0
M  V30 219 C 20.9194 3.4728 0.0368783 0
M  V30 220 C 19.8734 4.19005 -0.872865 0
M  V30 221 C 19.1994 5.34637 -0.0822402 0
M  V30 222 C 20.4994 4.74452 -2.18387 0
M  V30 223 H 22.1934 2.59171 -1.49903 0
M  V30 224 H 19.7394 1.24579 -0.722222 0
M  V30 225 H 21.6924 4.20098 0.330958 0
M  V30 226 H 20.4164 3.12433 0.95149 0
M  V30 227 H 19.0754 3.48061 -1.15105 0
M  V30 228 H 18.7234 4.96034 0.83422 0
M  V30 229 H 18.4234 5.83557 -0.688149 0
M  V30 230 H 19.9474 6.10255 0.205238 0
M  V30 231 H 21.3614 5.39055 -1.95172 0
M  V30 232 H 19.7584 5.33834 -2.74119 0
M  V30 233 H 20.8284 3.92844 -2.84257 0
M  V30 234 N 22.1715 0.800033 1.35784 0
M  V30 235 C 23.3995 0.389606 2.03199 0
M  V30 236 C 23.8145 -0.997375 1.60306 0
M  V30 237 O 23.1715 -1.64154 0.797481 0
M  V30 238 C 23.2225 0.455855 3.58614 0
M  V30 239 O 22.9435 1.78815 3.99946 0
M  V30 240 C 24.4445 0.0374032 4.43284 0
M  V30 241 H 21.6645 0.159132 0.651857 0
M  V30 242 H 24.2085 1.08183 1.73541 0
M  V30 243 H 22.3635 -0.188057 3.86943 0
M  V30 244 H 22.7775 1.74636 4.94573 0
M  V30 245 H 24.2515 0.134882 5.51835 0
M  V30 246 H 24.7285 -1.01651 4.27275 0
M  V30 247 H 25.3345 0.654215 4.20238 0
M  V30 248 N 23.6496 -1.47581 0.552962 0
M  V30 249 C 24.8956 -2.02782 0.0273648 0
M  V30 250 C 25.2286 -1.42687 -1.31734 0
M  V30 251 O 24.5036 -0.580897 -1.85623 0
M  V30 252 C 24.7866 -3.60031 -0.0702371 0
M  V30 253 C 24.6396 -4.30566 1.30126 0
M  V30 254 C 25.9586 -4.33028 -0.785771 0
M  V30 255 H 23.0776 -0.736912 0.0114185 0
M  V30 256 H 25.7196 -1.76056 0.714432 0
M  V30 257 H 23.8696 -3.82932 -0.655382 0
M  V30 258 H 25.5416 -4.19018 1.92929 0
M  V30 259 H 23.7846 -3.91086 1.87709 0
M  V30 260 H 24.4556 -5.39114 1.18573 0
M  V30 261 H 26.9316 -4.15095 -0.288982 0
M  V30 262 H 25.8076 -5.42695 -0.823013 0
M  V30 263 H 26.0686 -4.01945 -1.841 0
M  V30 264 N 25.1277 -0.289203 -1.54924 0
M  V30 265 C 26.3557 0.326463 -2.04308 0
M  V30 266 C 26.7707 1.48413 -1.16701 0
M  V30 267 O 26.1277 1.81507 -0.190087 0
M  V30 268 C 26.1787 0.794014 -3.52672 0
M  V30 269 O 25.8997 -0.317564 -4.36948 0
M  V30 270 C 27.4007 1.47605 -4.18004 0
M  V30 271 H 24.6207 0.0726272 -0.667058 0
M  V30 272 H 27.1647 -0.425401 -2.00026 0
M  V30 273 H 25.3197 1.49593 -3.57352 0
M  V30 274 H 25.7337 0.0443186 -5.24481 0
M  V30 275 H 27.2077 1.75447 -5.23376 0
M  V30 276 H 27.6847 2.41224 -3.67025 0
M  V30 277 H 28.2907 0.81762 -4.17367 0
M  V30 278 N 26.6058 1.57591 -0.0167156 0
M  V30 279 C 27.5358 2.12496 0.967858 0
M  V30 280 C 28.5168 1.03807 1.34752 0
M  V30 281 O 29.7018 1.31577 1.42833 0
M  V30 282 C 26.8318 2.64194 2.25431 0
M  V30 283 C 25.7858 3.77559 2.01576 0
M  V30 284 C 25.1118 4.15636 3.36379 0
M  V30 285 C 26.4118 5.04151 1.36489 0
M  V30 286 H 28.1058 2.95013 0.510643 0
M  V30 287 H 25.6518 1.41915 0.244181 0
M  V30 288 H 27.6048 3.01236 2.94678 0
M  V30 289 H 26.3288 1.78821 2.73296 0
M  V30 290 H 24.9878 3.40937 1.34751 0
M  V30 291 H 24.6358 3.27263 3.81979 0
M  V30 292 H 24.3358 4.92022 3.21229 0
M  V30 293 H 25.8598 4.5525 4.06915 0
M  V30 294 H 27.2738 5.38857 1.95718 0
M  V30 295 H 25.6708 5.85453 1.31776 0
M  V30 296 H 26.7408 4.83733 0.336219 0
M  V30 297 N 28.0839 -0.256276 1.55502 0
M  V30 298 C 29.0169 -1.34321 1.84481 0
M  V30 299 C 29.9949 -1.46802 0.699131 0
M  V30 300 O 31.1789 -1.63165 0.943904 0
M  V30 301 C 28.3059 -2.71779 2.02123 0
M  V30 302 C 27.3519 -2.76496 3.24734 0
M  V30 303 S 28.1849 -2.3405 4.81644 0
M  V30 304 C 29.3409 -3.73452 5.02279 0
M  V30 305 H 29.5739 -1.09539 2.76385 0
M  V30 306 H 27.1069 -0.45678 1.47489 0
M  V30 307 H 29.0649 -3.50932 2.12972 0
M  V30 308 H 27.7259 -2.93803 1.11078 0
M  V30 309 H 26.9189 -3.77424 3.34016 0
M  V30 310 H 26.5209 -2.05379 3.12563 0
M  V30 311 H 28.8129 -4.6887 4.89047 0
M  V30 312 H 29.7559 -3.6911 6.04287 0
M  V30 313 H 30.1639 -3.6553 4.30172 0
M  V30 314 N 29.562 -1.4872 -0.521534 0
M  V30 315 C 30.808 -1.574 -1.27879 0
M  V30 316 C 31.141 -0.250817 -1.92573 0
M  V30 317 O 30.416 0.743934 -1.79711 0
M  V30 318 C 30.699 -2.71843 -2.36164 0
M  V30 319 C 30.552 -4.13893 -1.76105 0
M  V30 320 C 31.871 -2.82008 -3.37875 0
M  V30 321 H 28.99 -0.572941 -0.463581 0
M  V30 322 H 31.632 -1.80927 -0.580119 0
M  V30 323 H 29.782 -2.51914 -2.95756 0
M  V30 324 H 31.454 -4.45284 -1.20499 0
M  V30 325 H 29.697 -4.20498 -1.06601 0
M  V30 326 H 30.368 -4.89804 -2.5455 0
M  V30 327 H 32.844 -3.00086 -2.88249 0
M  V30 328 H 31.72 -3.63796 -4.11028 0
M  V30 329 H 31.981 -1.90511 -3.98946 0
M  V30 330 N 31.0401 0.771051 -1.3745 0
M  V30 331 C 31.9701 1.89827 -1.3597 0
M  V30 332 C 32.9511 1.68562 -0.228216 0
M  V30 333 O 34.1361 1.8941 -0.428675 0
M  V30 334 C 31.2661 3.2712 -1.16662 0
M  V30 335 C 30.2201 3.6295 -2.2683 0
M  V30 336 C 29.5461 4.98791 -1.92644 0
M  V30 337 C 30.8461 3.69627 -3.69017 0
M  V30 338 H 32.5401 1.91323 -2.30295 0
M  V30 339 H 30.0861 0.919082 -1.10855 0
M  V30 340 H 32.0391 4.05615 -1.14256 0
M  V30 341 H 30.7631 3.26059 -0.187926 0
M  V30 342 H 29.4221 2.86763 -2.28392 0
M  V30 343 H 29.0701 4.94271 -0.933021 0
M  V30 344 H 28.7701 5.23733 -2.66416 0
M  V30 345 H 30.2941 5.79685 -1.91826 0
M  V30 346 H 31.7081 4.38273 -3.69581 0
M  V30 347 H 30.1051 4.06067 -4.41848 0
M  V30 348 H 31.1751 2.70273 -4.02592 0
M  V30 349 N 32.5182 1.22032 0.997298 0
M  V30 350 C 33.7432 1.06921 1.77715 0
M  V30 351 C 34.1682 -0.376226 1.84299 0
M  V30 352 O 33.5262 -1.27165 1.29223 0
M  V30 353 C 33.5742 1.67996 3.19076 0
M  V30 354 O 32.6782 0.930653 4.01762 0
M  V30 355 H 32.0192 0.375814 0.547412 0
M  V30 356 H 34.5492 1.61737 1.25309 0
M  V30 357 H 34.5592 1.72538 3.69723 0
M  V30 358 H 33.2342 2.73182 3.13599 0
M  V30 359 H 31.8112 0.960917 3.60307 0
M  V30 360 N 33.9963 -1.19345 1.0293 0
M  V30 361 C 35.2213 -1.93538 0.745511 0
M  V30 362 C 35.6463 -1.75007 -0.689511 0
M  V30 363 O 35.0043 -1.05265 -1.47611 0
M  V30 364 C 35.0523 -3.43336 1.10239 0
M  V30 365 O 34.1563 -4.11806 0.221289 0
M  V30 366 H 33.4973 -0.604193 0.275404 0
M  V30 367 H 36.0273 -1.5141 1.37609 0
M  V30 368 H 36.0373 -3.94004 1.05947 0
M  V30 369 H 34.7123 -3.56146 2.14786 0
M  V30 370 H 33.2893 -3.715 0.322842 0
M  V30 371 N 35.4744 -0.807222 -1.35358 0
M  V30 372 C 36.8854 -0.44876 -1.81226 0
M  V30 373 C 37.2364 1.02929 -1.67033 0
M  V30 374 O 36.3614 1.79991 -1.20133 0
M  V30 375 C 36.9564 -0.807774 -3.2903 0
M  V30 376 C 35.5154 -0.501901 -3.73039 0
M  V30 377 C 34.6624 -1.03304 -2.57339 0
M  V30 378 H 37.6134 -0.998808 -1.23327 0
M  V30 379 H 37.6344 -0.10554 -3.80354 0
M  V30 380 H 37.1464 -1.88357 -3.39328 0
M  V30 381 H 35.2474 0.565128 -3.68289 0
M  V30 382 H 35.3604 -1.03497 -4.67787 0
M  V30 383 H 33.7244 -0.455339 -2.50597 0
M  V30 384 H 34.5074 -2.11496 -2.70415 0
M  V30 385 N 36.9525 1.47285 -0.560781 0
M  V30 386 C 37.8825 2.32857 0.173105 0
M  V30 387 C 38.8635 1.44009 0.905281 0
M  V30 388 O 40.0485 1.7286 0.885046 0
M  V30 389 C 37.1785 3.25861 1.20133 0
M  V30 390 C 36.1325 4.23978 0.585388 0
M  V30 391 C 35.4585 5.06332 1.7185 0
M  V30 392 C 36.7585 5.20242 -0.463178 0
M  V30 393 H 38.4525 2.94466 -0.541307 0
M  V30 394 H 35.9985 1.41601 -0.261764 0
M  V30 395 H 37.9515 3.84569 1.72293 0
M  V30 396 H 36.6755 2.62315 1.94573 0
M  V30 397 H 35.3345 3.66501 0.085054 0
M  V30 398 H 34.9825 4.39186 2.45203 0
M  V30 399 H 34.6825 5.72762 1.31213 0
M  V30 400 H 36.2065 5.67899 2.24329 0
M  V30 401 H 37.6205 5.73293 -0.027502 0
M  V30 402 H 36.0175 5.94896 -0.788627 0
M  V30 403 H 37.0875 4.65504 -1.35773 0
M  V30 404 N 38.4306 0.297415 1.54768 0
M  V30 405 C 39.3936 -0.567375 2.22066 0
M  V30 406 C 40.3936 -1.06409 1.20556 0
M  V30 407 O 41.5836 -0.960691 1.45315 0
M  V30 408 C 38.7156 -1.78517 2.90421 0
M  V30 409 H 39.9086 0.0205534 2.99893 0
M  V30 410 H 37.4616 0.0482163 1.56226 0
M  V30 411 H 38.1966 -2.41303 2.16664 0
M  V30 412 H 37.9816 -1.43669 3.64831 0
M  V30 413 H 39.4716 -2.39964 3.41771 0
M  V30 414 N 39.9087 -1.5758 0.0250728 0
M  V30 415 C 40.8387 -2.13007 -0.956575 0
M  V30 416 C 41.8197 -1.0452 -1.342 0
M  V30 417 O 43.0047 -1.32332 -1.42133 0
M  V30 418 C 40.1347 -2.65386 -2.24026 0
M  V30 419 C 39.0887 -3.78623 -1.99571 0
M  V30 420 C 38.4147 -4.17414 -3.3417 0
M  V30 421 C 39.7147 -5.04867 -1.33814 0
M  V30 422 H 41.4087 -2.9528 -0.494991 0
M  V30 423 H 38.9547 -1.42042 -0.236651 0
M  V30 424 H 40.9077 -3.02794 -2.93076 0
M  V30 425 H 39.6317 -1.80268 -2.72343 0
M  V30 426 H 38.2907 -3.41646 -1.32941 0
M  V30 427 H 37.9387 -3.29284 -3.80238 0
M  V30 428 H 37.6387 -4.93719 -3.18615 0
M  V30 429 H 39.1627 -4.57402 -4.04495 0
M  V30 430 H 40.5767 -5.39888 -1.92857 0
M  V30 431 H 38.9737 -5.86144 -1.28669 0
M  V30 432 H 40.0437 -4.83904 -0.310561 0
M  V30 433 N 41.3868 0.248026 -1.55636 0
M  V30 434 C 42.3498 1.29044 -1.89421 0
M  V30 435 C 43.3498 1.41134 -0.770581 0
M  V30 436 O 44.5398 1.39854 -1.03858 0
M  V30 437 C 41.6718 2.66831 -2.12165 0
M  V30 438 H 42.8648 1.00305 -2.82629 0
M  V30 439 H 40.4178 0.487265 -1.48511 0
M  V30 440 H 41.1528 3.00711 -1.21422 0
M  V30 441 H 40.9378 2.59438 -2.93997 0
M  V30 442 H 42.4278 3.42103 -2.3949 0
M  V30 443 N 42.8649 1.48995 0.513639 0
M  V30 444 C 44.1129 1.57531 1.26604 0
M  V30 445 C 44.4339 0.258236 1.93283 0
M  V30 446 O 43.7039 -0.721502 1.8213 0
M  V30 447 H 42.2839 0.580387 0.470276 0
M  V30 448 H 44.9459 1.85552 0.596373 0
M  V30 449 H 44.0419 2.36486 2.03669 0
M  V30 450 N 44.343 -0.763751 1.37857 0
M  V30 451 C 45.62 -1.51244 1.24035 0
M  V30 452 C 46 -2.10472 -0.162649 0
M  V30 453 O 45.348 -1.96206 -1.17112 0
M  V30 454 C 45.558 -2.58694 2.34261 0
M  V30 455 C 46.906 -3.25878 2.72193 0
M  V30 456 O 47.93 -2.68993 2.33497 0
M  V30 457 O 46.789 -4.2874 3.38887 0
M  V30 458 H 43.883 -0.670243 0.484462 0
M  V30 459 H 46.429 -0.800031 1.49658 0
M  V30 460 H 45.201 -2.13105 3.2818 0
M  V30 461 H 44.824 -3.37527 2.10146 0
M  V30 462 N 45.8211 -1.22559 -0.990812 0
M  V30 463 C 47.0491 -1.07779 -1.76611 0
M  V30 464 C 47.4641 0.371513 -1.85109 0
M  V30 465 O 46.8211 1.25737 -1.32274 0
M  V30 466 C 46.8721 -1.68512 -3.19822 0
M  V30 467 O 46.5931 -3.07774 -3.1178 0
M  V30 468 C 48.0941 -1.59035 -4.13791 0
M  V30 469 H 45.3141 -0.377729 -0.554583 0
M  V30 470 H 47.8581 -1.62195 -1.24551 0
M  V30 471 H 46.0131 -1.18154 -3.68942 0
M  V30 472 H 46.4271 -3.37062 -4.01858 0
M  V30 473 H 47.9011 -2.0625 -5.1202 0
M  V30 474 H 48.3781 -0.547273 -4.35777 0
M  V30 475 H 48.9841 -2.08709 -3.70568 0
M  V30 476 N 47.2992 1.18797 -1.03562 0
M  V30 477 C 48.7152 1.40671 -0.753917 0
M  V30 478 C 48.9152 1.9043 0.658686 0
M  V30 479 O 47.9712 2.08538 1.42366 0
M  V30 480 C 49.2842 2.41192 -1.79574 0
M  V30 481 C 50.8322 2.54928 -1.81606 0
M  V30 482 C 51.3072 3.58709 -2.84766 0
M  V30 483 N 52.7982 3.66212 -2.83625 0
M  V30 484 C 53.5332 4.46225 -3.60098 0
M  V30 485 N 53.0292 5.29888 -4.46308 0
M  V30 486 N 54.8222 4.40939 -3.4861 0
M  V30 487 H 46.9732 0.848221 -1.94728 0
M  V30 488 H 49.2362 0.435081 -0.842264 0
M  V30 489 H 48.9422 2.11669 -2.80872 0
M  V30 490 H 48.8162 3.40467 -1.62365 0
M  V30 491 H 51.2032 2.83771 -0.809817 0
M  V30 492 H 51.2842 1.55784 -2.02891 0
M  V30 493 H 50.9282 3.30607 -3.85566 0
M  V30 494 H 50.8582 4.57519 -2.60737 0
M  V30 495 H 53.3492 3.06466 -2.21105 0
M  V30 496 H 53.6622 5.88078 -5.01382 0
M  V30 497 H 52.0072 5.29326 -4.50377 0
M  V30 498 H 55.1982 3.74624 -2.80668 0
M  V30 499 H 55.3712 5.03056 -4.08459 0
M  V30 500 N 48.7773 0.814389 1.34928 0
M  V30 501 C 50.1883 0.458364 1.80986 0
M  V30 502 C 50.5393 -1.02042 1.67577 0
M  V30 503 O 49.6643 -1.79352 1.21086 0
M  V30 504 C 50.2593 0.825212 3.28597 0
M  V30 505 C 48.8183 0.521677 3.72767 0
M  V30 506 C 47.9653 1.04668 2.56788 0
M  V30 507 H 50.9163 1.00533 1.22795 0
M  V30 508 H 50.9373 0.12571 3.80292 0
M  V30 509 H 50.4493 1.90154 3.38324 0
M  V30 510 H 48.5503 -0.545589 3.68584 0
M  V30 511 H 48.6633 1.05977 4.67232 0
M  V30 512 H 47.0273 0.468622 2.50352 0
M  V30 513 H 47.8103 2.12927 2.6929 0
M  V30 514 N 50.2554 -1.46986 0.568584 0
M  V30 515 C 51.6714 -1.57946 0.229189 0
M  V30 516 C 51.8714 -1.56567 -1.26843 0
M  V30 517 O 50.9274 -1.47511 -2.04931 0
M  V30 518 C 52.2404 -2.87963 0.865909 0
M  V30 519 C 53.7884 -3.01568 0.838188 0
M  V30 520 C 54.2634 -4.34301 1.45419 0
M  V30 521 N 55.7544 -4.40965 1.41788 0
M  V30 522 C 56.4894 -5.42256 1.86403 0
M  V30 523 N 55.9854 -6.50297 2.38926 0
M  V30 524 N 57.7784 -5.3337 1.77405 0
M  V30 525 H 49.9294 -1.46126 1.54146 0
M  V30 526 H 52.1924 -0.696156 0.643484 0
M  V30 527 H 51.8984 -2.94742 1.91886 0
M  V30 528 H 51.7724 -3.75423 0.365687 0
M  V30 529 H 54.1594 -2.94379 -0.206106 0
M  V30 530 H 54.2404 -2.1562 1.37629 0
M  V30 531 H 53.8844 -4.42247 2.49761 0
M  V30 532 H 53.8144 -5.19 0.891435 0
M  V30 533 H 56.3054 -3.63484 1.03381 0
M  V30 534 H 56.6184 -7.23777 2.70863 0
M  V30 535 H 54.9634 -6.51155 2.42944 0
M  V30 536 H 58.1544 -4.47865 1.3614 0
M  V30 537 H 58.3274 -6.12169 2.12492 0
M  V30 538 N 51.7335 -0.305618 -1.54608 0
M  V30 539 C 52.9805 0.302298 -2.00231 0
M  V30 540 C 53.3085 1.5354 -1.19398 0
M  V30 541 O 52.5635 1.93973 -0.259423 0
M  V30 542 C 52.8625 0.698983 -3.50498 0
M  V30 543 C 52.5285 -0.432903 -4.48817 0
M  V30 544 C 51.1905 -0.743622 -4.75419 0
M  V30 545 C 53.5425 -1.19409 -5.07337 0
M  V30 546 C 50.8705 -1.81857 -5.57804 0
M  V30 547 C 53.2225 -2.25899 -5.90891 0
M  V30 548 C 51.8865 -2.57572 -6.15803 0
M  V30 549 H 51.1565 0.110619 -0.732697 0
M  V30 550 H 53.8035 -0.425674 -1.86709 0
M  V30 551 H 52.1085 1.50711 -3.61654 0
M  V30 552 H 53.8055 1.1806 -3.83227 0
M  V30 553 H 50.3955 -0.18063 -4.28219 0
M  V30 554 H 54.5795 -0.967295 -4.86782 0
M  V30 555 H 49.8355 -2.06864 -5.75341 0
M  V30 556 H 54.0095 -2.85335 -6.35261 0
M  V30 557 H 51.6365 -3.40998 -6.7943 0
M  V30 558 N 53.2116 1.57565 -0.0334293 0
M  V30 559 C 54.1416 2.13511 0.945265 0
M  V30 560 C 55.1226 1.05231 1.33643 0
M  V30 561 O 56.3076 1.33084 1.41429 0
M  V30 562 C 53.4376 2.6657 2.22616 0
M  V30 563 C 52.3916 3.79676 1.97561 0
M  V30 564 C 51.7176 4.1918 3.31952 0
M  V30 565 C 53.0176 5.0557 1.31135 0
M  V30 566 H 54.7116 2.95538 0.479325 0
M  V30 567 H 52.2576 1.42166 0.229115 0
M  V30 568 H 54.2106 3.04344 2.91466 0
M  V30 569 H 52.9346 1.8171 2.71384 0
M  V30 570 H 51.5936 3.42347 1.31127 0
M  V30 571 H 51.2416 3.31296 3.78487 0
M  V30 572 H 50.9416 4.95402 3.15992 0
M  V30 573 H 52.4656 4.59541 4.02063 0
M  V30 574 H 53.8796 5.40903 1.89992 0
M  V30 575 H 52.2766 5.86818 1.25559 0
M  V30 576 H 53.3466 4.84062 0.284894 0
M  V30 577 N 54.6897 -0.239769 1.55765 0
M  V30 578 C 55.6217 -1.32001 1.87372 0
M  V30 579 C 56.6347 -1.43944 0.760522 0
M  V30 580 O 57.8237 -1.45167 1.0387 0
M  V30 581 C 54.9237 -2.69779 2.05115 0
M  V30 582 C 54.0967 -2.80014 3.36022 0
M  V30 583 C 53.1557 -3.98684 3.4342 0
M  V30 584 O 52.1817 -3.87877 4.16582 0
M  V30 585 N 53.3837 -5.12176 2.73232 0
M  V30 586 H 56.1487 -1.0522 2.80622 0
M  V30 587 H 53.7097 -0.429857 1.56089 0
M  V30 588 H 55.7017 -3.47517 2.07399 0
M  V30 589 H 54.2717 -2.89237 1.18577 0
M  V30 590 H 53.4917 -1.88896 3.45994 0
M  V30 591 H 54.7797 -2.83808 4.22292 0
M  V30 592 H 54.1777 -5.2385 2.13536 0
M  V30 593 H 52.7347 -5.88022 2.81199 0
M  V30 594 N 56.1678 -1.49265 -0.50573 0
M  V30 595 C 57.0998 -1.617 -1.62437 0
M  V30 596 C 58.1128 -0.499924 -1.54934 0
M  V30 597 O 59.3018 -0.771785 -1.60953 0
M  V30 598 C 56.4018 -1.5533 -3.01207 0
M  V30 599 C 55.5748 -2.8249 -3.33943 0
M  V30 600 C 54.6338 -2.69238 -4.52103 0
M  V30 601 O 53.6598 -3.43167 -4.5412 0
M  V30 602 N 54.8618 -1.80468 -5.51735 0
M  V30 603 H 57.6268 -2.58177 -1.52199 0
M  V30 604 H 55.1878 -1.46294 -0.693511 0
M  V30 605 H 57.1798 -1.44125 -3.78167 0
M  V30 606 H 55.7498 -0.667297 -3.05395 0
M  V30 607 H 54.9698 -3.08081 -2.45926 0
M  V30 608 H 56.2578 -3.66802 -3.5261 0
M  V30 609 H 55.6558 -1.19653 -5.52901 0
M  V30 610 H 54.2128 -1.75188 -6.27816 0
M  V30 611 N 57.6459 0.756429 -1.3826 0
M  V30 612 C 58.9229 1.50584 -1.24835 0
M  V30 613 C 59.3029 2.10556 0.151485 0
M  V30 614 O 58.6509 1.96825 1.1607 0
M  V30 615 C 58.8609 2.57448 -2.3563 0
M  V30 616 C 60.2089 3.24429 -2.73917 0
M  V30 617 O 61.2329 2.67751 -2.34921 0
M  V30 618 O 60.0919 4.26937 -3.41156 0
M  V30 619 H 57.1859 0.667664 -0.48801 0
M  V30 620 H 59.7319 0.792083 -1.5008 0
M  V30 621 H 58.5039 2.11362 -3.29305 0
M  V30 622 H 58.1269 3.36408 -2.11933 0
M  V30 623 N 59.124 1.23083 0.984299 0
M  V30 624 C 60.071 1.00854 2.07598 0
M  V30 625 C 61.041 -0.0726709 1.65941 0
M  V30 626 O 62.226 0.0786535 1.90638 0
M  V30 627 C 59.366 0.601645 3.39815 0
M  V30 628 C 58.479 1.75456 3.94765 0
M  V30 629 C 57.614 1.29482 5.15177 0
M  V30 630 C 56.653 2.41873 5.62284 0
M  V30 631 N 55.79 1.96885 6.73929 0
M  V30 632 H 60.63 1.943 2.25946 0
M  V30 633 H 58.167 0.968001 1.10762 0
M  V30 634 H 60.125 0.346854 4.15756 0
M  V30 635 H 58.755 -0.295803 3.21442 0
M  V30 636 H 57.807 2.12346 3.15616 0
M  V30 637 H 59.119 2.59965 4.25699 0
M  V30 638 H 58.273 0.997923 5.98437 0
M  V30 639 H 57.012 0.420046 4.85888 0
M  V30 640 H 56.017 2.72342 4.77608 0
M  V30 641 H 57.242 3.29881 5.93595 0
M  V30 642 H 55.188 1.11782 6.46406 0
M  V30 643 H 55.105 2.74956 7.04227 0
M  V30 644 H 56.373 1.70289 7.60672 0
M  V30 645 N 60.6021 -1.18246 1.0419 0
M  V30 646 C 61.8321 -1.91916 0.764961 0
M  V30 647 C 62.2401 -1.76485 -0.681898 0
M  V30 648 O 61.5831 -1.09275 -1.47664 0
M  V30 649 C 61.6451 -3.4373 1.05309 0
M  V30 650 C 61.3091 -3.8294 2.4941 0
M  V30 651 C 62.3061 -3.86621 3.47592 0
M  V30 652 C 59.9911 -4.142 2.84155 0
M  V30 653 C 61.9851 -4.21013 4.78568 0
M  V30 654 C 59.6721 -4.48262 4.15337 0
M  V30 655 C 60.6701 -4.51645 5.12353 0
M  V30 656 O 60.3581 -4.84911 6.41183 0
M  V30 657 H 60.0901 -0.61606 0.278292 0
M  V30 658 H 62.6441 -1.50947 1.39299 0
M  V30 659 H 60.8741 -3.84946 0.367933 0
M  V30 660 H 62.5631 -3.9865 0.763752 0
M  V30 661 H 63.3291 -3.62607 3.22089 0
M  V30 662 H 59.2081 -4.10743 2.09311 0
M  V30 663 H 62.7521 -4.23568 5.54289 0
M  V30 664 H 58.6491 -4.71737 4.40607 0
M  V30 665 H 59.4171 -5.02809 6.45852 0
M  V30 666 N 62.0802 -0.821533 -1.34494 0
M  V30 667 C 62.9902 -0.244355 -2.33324 0
M  V30 668 C 64.0062 0.620527 -1.62559 0
M  V30 669 O 65.1822 0.528754 -1.94335 0
M  V30 670 C 62.2472 0.585368 -3.41723 0
M  V30 671 C 61.3082 -0.301752 -4.28238 0
M  V30 672 C 60.5412 0.488466 -5.3146 0
M  V30 673 O 60.7642 1.72186 -5.4379 0
M  V30 674 O 59.6982 -0.12848 -6.01763 0
M  V30 675 H 63.5242 -1.06231 -2.84515 0
M  V30 676 H 61.1092 -0.583645 -1.37528 0
M  V30 677 H 62.9912 1.05747 -4.07916 0
M  V30 678 H 61.6662 1.38068 -2.92778 0
M  V30 679 H 60.5732 -0.821315 -3.64973 0
M  V30 680 H 61.9062 -1.06138 -4.8062 0
M  V30 681 N 63.5583 1.46682 -0.576371 0
M  V30 682 C 64.7983 2.04306 -0.0621356 0
M  V30 683 C 65.1623 1.4389 1.2712 0
M  V30 684 O 66.3633 1.92675 1.87429 0
M  V30 685 C 64.6343 3.57399 0.00927922 0
M  V30 686 S 66.1933 4.36309 0.466859 0
M  V30 687 H 63.0113 0.710167 -0.0344016 0
M  V30 688 H 65.6133 1.79807 -0.767437 0
M  V30 689 H 64.3173 3.98889 -0.965178 0
M  V30 690 H 63.8483 3.86424 0.737547 0
M  V30 691 H 65.8633 4.6533 1.72287 0
M  V30 692 N 65.0364 0.313813 1.54444 0
M  V30 693 C 65.9864 -0.571898 2.20711 0
M  V30 694 C 66.9704 -1.08913 1.18435 0
M  V30 695 O 68.1624 -1.02777 1.44104 0
M  V30 696 C 65.2914 -1.7371 2.96108 0
M  V30 697 C 64.3774 -1.23522 4.05713 0
M  V30 698 N 64.7684 -0.452288 5.03774 0
M  V30 699 C 63.0664 -1.51482 4.19487 0
M  V30 700 C 63.7674 -0.183438 5.81411 0
M  V30 701 N 62.7434 -0.766845 5.38164 0
M  V30 702 H 66.5454 0.0336802 2.93881 0
M  V30 703 H 64.0594 0.119192 1.61962 0
M  V30 704 H 66.0564 -2.38329 3.4206 0
M  V30 705 H 64.7164 -2.34625 2.24458 0
M  V30 706 H 65.7274 -0.0960131 5.17811 0
M  V30 707 H 62.4044 -2.13053 3.59047 0
M  V30 708 H 63.7944 0.446216 6.70417 0
M  V30 709 N 66.5145 -1.57545 0.0417849 0
M  V30 710 C 67.7615 -1.92317 -0.634082 0
M  V30 711 C 68.0895 -0.919334 -1.71402 0
M  V30 712 O 67.3445 0.0698253 -1.95575 0
M  V30 713 C 67.6435 -3.33794 -1.27735 0
M  V30 714 C 67.3095 -4.49716 -0.326543 0
M  V30 715 C 65.9715 -4.81156 -0.0648814 0
M  V30 716 C 68.3235 -5.20182 0.325623 0
M  V30 717 C 65.6515 -5.80414 0.856539 0
M  V30 718 C 68.0035 -6.20424 1.23518 0
M  V30 719 C 66.6675 -6.50298 1.5056 0
M  V30 720 H 65.9375 -0.703736 -0.232027 0
M  V30 721 H 68.5845 -1.91205 0.106259 0
M  V30 722 H 66.8895 -3.31228 -2.09274 0
M  V30 723 H 68.5865 -3.57975 -1.80707 0
M  V30 724 H 65.1765 -4.25176 -0.540665 0
M  V30 725 H 69.3605 -4.96112 0.136546 0
M  V30 726 H 64.6165 -6.019 1.07363 0
M  V30 727 H 68.7905 -6.74141 1.74664 0
M  V30 728 H 66.4175 -7.27025 2.22123 0
M  V30 729 N 67.9926 0.231505 -1.5589 0
M  V30 730 C 69.2396 0.957352 -1.78441 0
M  V30 731 C 69.5676 1.84726 -0.60882 0
M  V30 732 O 68.8226 1.91416 0.40725 0
M  V30 733 C 69.1216 1.83577 -3.0665 0
M  V30 734 C 68.7876 1.09993 -4.37278 0
M  V30 735 C 67.4496 0.896629 -4.72773 0
M  V30 736 C 69.8016 0.579558 -5.17968 0
M  V30 737 C 67.1296 0.160896 -5.86479 0
M  V30 738 C 69.4816 -0.142783 -6.32439 0
M  V30 739 C 68.1456 -0.357427 -6.66542 0
M  V30 740 H 67.4156 0.35032 -0.65296 0
M  V30 741 H 70.0626 0.226259 -1.90159 0
M  V30 742 H 68.3676 2.63441 -2.90011 0
M  V30 743 H 70.0646 2.39934 -3.21298 0
M  V30 744 H 66.6546 1.26835 -4.09403 0
M  V30 745 H 70.8386 0.724125 -4.90989 0
M  V30 746 H 66.0946 -0.0157293 -6.11398 0
M  V30 747 H 70.2686 -0.553559 -6.94196 0
M  V30 748 H 67.8956 -0.929466 -7.54497 0
M  V30 749 N 69.4707 1.49531 0.497807 0
M  V30 750 C 70.4187 1.66926 1.61983 0
M  V30 751 C 71.4127 0.535167 1.60724 0
M  V30 752 O 72.6187 0.714896 1.65195 0
M  V30 753 H 68.9937 0.526415 0.537021 0
M  V30 754 H 70.9647 2.61098 1.44465 0
M  V30 755 C 69.7137 1.75602 3.00099 0
M  V30 756 H 69.0367 2.62244 3.01775 0
M  V30 757 H 70.4767 1.91807 3.78135 0
M  V30 758 C 68.9357 0.501543 3.33146 0
M  V30 759 O 69.4657 -0.371342 3.9998 0
M  V30 760 N 67.6717 0.363531 2.88317 0
M  V30 761 H 67.2187 1.07485 2.34104 0
M  V30 762 H 67.1767 -0.474728 3.10795 0
M  V30 763 N 70.9488 -0.749086 1.3866 0
M  V30 764 C 72.1968 -1.50535 1.34847 0
M  V30 765 C 72.5178 -1.94909 -0.0595016 0
M  V30 766 O 71.7878 -1.67973 -1.00806 0
M  V30 767 H 70.3678 -0.558395 0.49619 0
M  V30 768 H 73.0298 -0.890165 1.73384 0
M  V30 769 H 72.1258 -2.39413 2.00219 0
M  V30 770 N 72.4269 -1.23603 -0.977757 0
M  V30 771 C 73.6549 -1.09646 -1.75458 0
M  V30 772 C 74.0699 0.351859 -1.85492 0
M  V30 773 O 73.4269 1.24327 -1.336 0
M  V30 774 C 73.4779 -1.71895 -3.18016 0
M  V30 775 O 73.1989 -3.11063 -3.08498 0
M  V30 776 C 74.6999 -1.63415 -4.12081 0
M  V30 777 H 71.9199 -0.38359 -0.550545 0
M  V30 778 H 74.4639 -1.63507 -1.22824 0
M  V30 779 H 72.6189 -1.22061 -3.67668 0
M  V30 780 H 73.0329 -3.41305 -3.9826 0
M  V30 781 H 74.5069 -2.11669 -5.09804 0
M  V30 782 H 74.9839 -0.593462 -4.35172 0
M  V30 783 H 75.5899 -2.12628 -3.68334 0
M  V30 784 N 73.905 1.17692 -1.04816 0
M  V30 785 C 74.815 2.25229 -0.65643 0
M  V30 786 C 75.831 1.71018 0.320761 0
M  V30 787 O 77.007 2.00649 0.173805 0
M  V30 788 C 74.072 3.46684 -0.0332629 0
M  V30 789 C 73.133 4.15997 -1.06042 0
M  V30 790 C 72.366 5.31654 -0.466893 0
M  V30 791 O 72.589 5.65777 0.724758 0
M  V30 792 O 71.523 5.89831 -1.1993 0
M  V30 793 H 75.349 2.61016 -1.55255 0
M  V30 794 H 72.934 1.24919 -0.81949 0
M  V30 795 H 74.816 4.20234 0.313256 0
M  V30 796 H 73.491 3.12703 0.836566 0
M  V30 797 H 72.398 3.44482 -1.45886 0
M  V30 798 H 73.731 4.53996 -1.90127 0
M  V30 799 N 75.3831 0.828654 1.34056 0
M  V30 800 C 76.7991 0.515135 1.51058 0
M  V30 801 C 76.9991 -0.959581 1.77184 0
M  V30 802 O 76.0551 -1.74382 1.82612 0
M  V30 803 C 77.3681 1.37963 2.67183 0
M  V30 804 C 78.9161 1.37735 2.81066 0
M  V30 805 C 79.3911 2.22645 4.00241 0
M  V30 806 N 80.8821 2.203 4.07458 0
M  V30 807 C 81.6171 2.82744 4.98842 0
M  V30 808 N 81.1131 3.54201 5.9541 0
M  V30 809 N 82.9061 2.72268 4.91759 0
M  V30 810 H 75.0571 1.78343 1.15358 0
M  V30 811 H 77.3201 0.760304 0.566252 0
M  V30 812 H 77.0261 2.42714 2.54525 0
M  V30 813 H 76.9001 1.0484 3.62338 0
M  V30 814 H 79.2871 0.337593 2.93163 0
M  V30 815 H 79.3681 1.74859 1.86703 0
M  V30 816 H 79.0121 3.26674 3.88905 0
M  V30 817 H 78.9421 1.82869 4.93829 0
M  V30 818 H 81.4331 1.68327 3.38341 0
M  V30 819 H 81.7461 3.9908 6.61782 0
M  V30 820 H 80.0911 3.58308 5.95517 0
M  V30 821 H 83.2821 2.16014 4.15278 0
M  V30 822 H 83.4551 3.21219 5.62781 0
M  V30 823 N 76.8612 -1.46375 0.584142 0
M  V30 824 C 78.1072 -2.02678 0.0703716 0
M  V30 825 C 78.4402 -1.4545 -1.28678 0
M  V30 826 O 77.7152 -0.62014 -1.84349 0
M  V30 827 C 77.9982 -3.60099 0.00614674 0
M  V30 828 C 77.8512 -4.27709 1.3923 0
M  V30 829 C 79.1702 -4.34598 -0.693742 0
M  V30 830 H 76.2892 -0.736504 0.027047 0
M  V30 831 H 78.9312 -1.74501 0.751615 0
M  V30 832 H 77.0812 -3.84236 -0.574009 0
M  V30 833 H 78.7532 -4.14832 2.01773 0
M  V30 834 H 76.9962 -3.87016 1.95962 0
M  V30 835 H 77.6672 -5.36478 1.29982 0
M  V30 836 H 80.1432 -4.15615 -0.200869 0
M  V30 837 H 79.0192 -5.44318 -0.707714 0
M  V30 838 H 79.2802 -4.05759 -1.75533 0
M  V30 839 N 78.3393 -0.321999 -1.54275 0
M  V30 840 C 79.7553 0.0306999 -1.5957 0
M  V30 841 C 79.9553 1.50614 -1.33857 0
M  V30 842 O 79.0113 2.2619 -1.12223 0
M  V30 843 C 80.3243 -0.386122 -2.98211 0
M  V30 844 C 81.8723 -0.336647 -3.11184 0
M  V30 845 C 82.3473 -0.728607 -4.52167 0
M  V30 846 N 83.8383 -0.681952 -4.58152 0
M  V30 847 C 84.5733 -0.957449 -5.6535 0
M  V30 848 N 84.0693 -1.3 -6.80494 0
M  V30 849 N 85.8623 -0.883113 -5.55119 0
M  V30 850 H 78.0133 -1.28332 -1.69247 0
M  V30 851 H 80.2763 -0.521716 -0.791528 0
M  V30 852 H 79.9823 -1.41404 -3.22022 0
M  V30 853 H 79.8563 0.249662 -3.76373 0
M  V30 854 H 82.2433 0.682058 -2.8711 0
M  V30 855 H 82.3243 -1.00734 -2.3513 0
M  V30 856 H 81.9683 -1.74522 -4.76974 0
M  V30 857 H 81.8983 -0.0356152 -5.26588 0
M  V30 858 H 84.3893 -0.428985 -3.75457 0
M  V30 859 H 84.7023 -1.49563 -7.58189 0
M  V30 860 H 83.0473 -1.33824 -6.81994 0
M  V30 861 H 86.2383 -0.615001 -4.64042 0
M  V30 862 H 86.4113 -1.10118 -6.38575 0
M  V30 863 N 79.8174 1.5752 -0.0501392 0
M  V30 864 C 81.0644 1.9265 0.623874 0
M  V30 865 C 81.3924 0.928411 1.70912 0
M  V30 866 O 80.6474 -0.0594525 1.9561 0
M  V30 867 C 80.9464 3.34467 1.25963 0
M  V30 868 C 80.6124 4.49883 0.302689 0
M  V30 869 C 79.2744 4.81184 0.0393636 0
M  V30 870 C 81.6264 5.20002 -0.353205 0
M  V30 871 C 78.9544 5.79951 -0.887308 0
M  V30 872 C 81.3064 6.1976 -1.26806 0
M  V30 873 C 79.9704 6.49491 -1.54007 0
M  V30 874 H 79.2404 0.704957 0.228292 0
M  V30 875 H 81.8874 1.91146 -0.116398 0
M  V30 876 H 80.1924 3.32333 2.07514 0
M  V30 877 H 81.8894 3.58928 1.78806 0
M  V30 878 H 78.4794 4.25457 0.518109 0
M  V30 879 H 82.6634 4.96033 -0.162854 0
M  V30 880 H 77.9194 6.01322 -1.10553 0
M  V30 881 H 82.0934 6.73205 -1.78236 0
M  V30 882 H 79.7204 7.25837 -2.25976 0
M  V30 883 N 81.2955 -0.223234 1.56011 0
M  V30 884 C 82.2255 -1.27988 1.95298 0
M  V30 885 C 83.2065 -1.48976 0.820979 0
M  V30 886 O 84.3915 -1.61188 1.08315 0
M  V30 887 C 81.5215 -2.63 2.26822 0
M  V30 888 C 80.4755 -2.56671 3.42497 0
M  V30 889 C 79.8015 -3.95697 3.59622 0
M  V30 890 C 81.1015 -2.11601 4.77517 0
M  V30 891 H 82.7955 -0.953525 2.8381 0
M  V30 892 H 80.3415 -0.457244 1.36548 0
M  V30 893 H 82.2945 -3.37077 2.52898 0
M  V30 894 H 81.0185 -2.9732 1.35161 0
M  V30 895 H 79.6775 -1.85051 3.16467 0
M  V30 896 H 79.3255 -4.27322 2.6534 0
M  V30 897 H 79.0255 -3.92345 4.37424 0
M  V30 898 H 80.5495 -4.71438 3.88044 0
M  V30 899 H 81.9635 -2.7542 5.02809 0
M  V30 900 H 80.3605 -2.19311 5.5859 0
M  V30 901 H 81.4305 -1.06824 4.72987 0
M  V30 902 N 82.7736 -1.49793 -0.48987 0
M  V30 903 C 83.7236 -1.63673 -1.5873 0
M  V30 904 C 84.7076 -0.491956 -1.53195 0
M  V30 905 O 85.8996 -0.745461 -1.60536 0
M  V30 906 C 83.0286 -1.71689 -2.97284 0
M  V30 907 C 82.1146 -2.91781 -3.07774 0
M  V30 908 N 82.5056 -4.15714 -2.88124 0
M  V30 909 C 80.8036 -2.89949 -3.38889 0
M  V30 910 C 81.5046 -4.965 -3.03088 0
M  V30 911 N 80.4806 -4.30083 -3.3246 0
M  V30 912 H 84.2826 -2.57204 -1.42208 0
M  V30 913 H 81.7966 -1.46719 -0.69623 0
M  V30 914 H 83.7936 -1.79732 -3.76168 0
M  V30 915 H 82.4536 -0.793024 -3.14867 0
M  V30 916 H 83.4646 -4.45515 -2.64077 0
M  V30 917 H 80.1416 -2.06987 -3.62578 0
M  V30 918 H 81.5316 -6.04991 -2.92294 0
M  V30 919 N 84.2517 0.741722 -1.39055 0
M  V30 920 C 85.6677 1.04638 -1.20512 0
M  V30 921 C 85.8677 2.01405 -0.0620218 0
M  V30 922 O 84.9237 2.45547 0.588457 0
M  V30 923 C 86.2367 1.6151 -2.53643 0
M  V30 924 C 87.7847 1.73623 -2.6043 0
M  V30 925 C 88.2597 2.33906 -3.93767 0
M  V30 926 N 89.7507 2.41323 -3.9537 0
M  V30 927 C 90.4857 2.88888 -4.95309 0
M  V30 928 N 89.9817 3.36401 -6.05645 0
M  V30 929 N 91.7747 2.88037 -4.82692 0
M  V30 930 H 83.9257 0.0998155 -2.12165 0
M  V30 931 H 86.1887 0.106907 -0.941953 0
M  V30 932 H 85.8947 0.978739 -3.37807 0
M  V30 933 H 85.7687 2.60411 -2.72885 0
M  V30 934 H 88.1557 2.36384 -1.76655 0
M  V30 935 H 88.2367 0.733945 -2.45045 0
M  V30 936 H 87.8807 1.71776 -4.7797 0
M  V30 937 H 87.8107 3.34799 -4.06469 0
M  V30 938 H 90.3017 2.07734 -3.15682 0
M  V30 939 H 90.6147 3.71186 -6.77821 0
M  V30 940 H 88.9597 3.34427 -6.09248 0
M  V30 941 H 92.1507 2.50237 -3.95599 0
M  V30 942 H 92.3237 3.24792 -5.60726 0
M  V30 943 N 85.7298 1.2412 0.971189 0
M  V30 944 C 87.0068 0.986867 1.6888 0
M  V30 945 C 87.3868 -0.491857 2.0529 0
M  V30 946 O 86.7348 -1.46531 1.75331 0
M  V30 947 C 86.9448 1.9063 2.92338 0
M  V30 948 C 88.2928 2.17515 3.64654 0
M  V30 949 O 89.3168 1.88254 3.02388 0
M  V30 950 O 88.1758 2.6719 4.7673 0
M  V30 951 H 85.2698 0.372944 0.738134 0
M  V30 952 H 87.8158 1.35203 1.02559 0
M  V30 953 H 86.5878 2.90552 2.62097 0
M  V30 954 H 86.2108 1.54408 3.66393 0
M  V30 955 N 87.2079 -1.17134 1.05439 0
M  V30 956 C 88.4569 -1.86791 0.761049 0
M  V30 957 C 88.7699 -1.82072 -0.714795 0
M  V30 958 O 89.9759 -2.47223 -1.12218 0
M  V30 959 C 88.4319 -3.35166 1.31117 0
M  V30 960 C 88.0399 -3.48381 2.81664 0
M  V30 961 C 89.7839 -4.10134 1.09499 0
M  V30 962 C 87.6909 -4.90793 3.29964 0
M  V30 963 H 86.6209 -0.699681 0.281002 0
M  V30 964 H 89.2719 -1.3226 1.27199 0
M  V30 965 H 87.6539 -3.8925 0.72803 0
M  V30 966 H 88.8279 -3.04502 3.45855 0
M  V30 967 H 87.1429 -2.86836 3.01851 0
M  V30 968 H 89.7399 -5.152 1.43084 0
M  V30 969 H 90.0829 -4.16287 0.0328772 0
M  V30 970 H 90.6159 -3.62264 1.64346 0
M  V30 971 H 87.3549 -4.89816 4.35616 0
M  V30 972 H 86.8749 -5.35333 2.70516 0
M  V30 973 H 88.5539 -5.59573 3.24787 0
M  V30 974 N 88.686 -0.835752 -1.33615 0
M  V30 975 C 89.916 -0.442701 -2.01801 0
M  V30 976 C 90.324 0.959807 -1.63047 0
M  V30 977 O 89.667 1.63468 -0.838088 0
M  V30 978 C 89.729 -0.480125 -3.56279 0
M  V30 979 C 89.393 -1.8382 -4.18401 0
M  V30 980 C 90.39 -2.80097 -4.37998 0
M  V30 981 C 88.075 -2.13019 -4.54894 0
M  V30 982 C 90.069 -4.03736 -4.9323 0
M  V30 983 C 87.756 -3.36916 -5.09834 0
M  V30 984 C 88.754 -4.32091 -5.28948 0
M  V30 985 O 88.442 -5.53797 -5.82721 0
M  V30 986 H 88.174 -0.17441 -0.653114 0
M  V30 987 H 90.728 -1.129 -1.71589 0
M  V30 988 H 88.958 0.262931 -3.85805 0
M  V30 989 H 90.647 -0.105335 -4.05763 0
M  V30 990 H 91.413 -2.58838 -4.10156 0
M  V30 991 H 87.292 -1.39733 -4.39313 0
M  V30 992 H 90.836 -4.78034 -5.08064 0
M  V30 993 H 86.733 -3.58033 -5.37106 0
M  V30 994 H 87.501 -5.55494 -6.0114 0
M  V30 995 N 90.1641 1.46063 -0.591896 0
M  V30 996 C 91.1121 2.32124 0.148739 0
M  V30 997 C 92.1061 1.45035 0.875286 0
M  V30 998 O 93.3121 1.61609 0.792632 0
M  V30 999 H 89.6871 0.749024 0.066832 0
M  V30 1000 H 91.6581 2.92392 -0.595783 0
M  V30 1001 C 90.4071 3.28373 1.1431 0
M  V30 1002 H 89.7301 3.95371 0.59346 0
M  V30 1003 H 91.1701 3.91352 1.63155 0
M  V30 1004 C 89.6291 2.54393 2.20875 0
M  V30 1005 O 90.1591 2.31373 3.28374 0
M  V30 1006 N 88.3651 2.14797 1.95731 0
M  V30 1007 H 87.9121 2.33719 1.08319 0
M  V30 1008 H 87.8701 1.65619 2.67241 0
M  V30 1009 N 91.6422 0.330177 1.54103 0
M  V30 1010 C 92.5742 -0.566902 2.22079 0
M  V30 1011 C 93.5872 -1.07462 1.22294 0
M  V30 1012 O 94.7762 -0.987065 1.48726 0
M  V30 1013 C 91.8762 -1.79138 2.87685 0
M  V30 1014 C 91.0492 -1.42123 4.13666 0
M  V30 1015 C 90.1082 -2.50394 4.62806 0
M  V30 1016 O 89.1342 -2.14261 5.27334 0
M  V30 1017 N 90.3362 -3.81433 4.37595 0
M  V30 1018 H 93.1012 0.0151844 2.99696 0
M  V30 1019 H 90.6622 0.153681 1.61169 0
M  V30 1020 H 92.6542 -2.50975 3.1748 0
M  V30 1021 H 91.2242 -2.28115 2.13734 0
M  V30 1022 H 90.4442 -0.534201 3.90564 0
M  V30 1023 H 91.7322 -1.14971 4.9564 0
M  V30 1024 H 91.1302 -4.13584 3.8596 0
M  V30 1025 H 89.6872 -4.4948 4.72029 0
M  V30 1026 N 93.1203 -1.57491 0.0584922 0
M  V30 1027 C 94.0303 -2.15448 -0.928414 0
M  V30 1028 C 95.0463 -1.11416 -1.3365 0
M  V30 1029 O 96.2223 -1.4362 -1.41193 0
M  V30 1030 C 93.2873 -2.69393 -2.18239 0
M  V30 1031 C 92.3483 -3.88249 -1.83196 0
M  V30 1032 C 91.5813 -4.39613 -3.02616 0
M  V30 1033 O 91.8043 -3.90023 -4.16219 0
M  V30 1034 O 90.7383 -5.31111 -2.83204 0
M  V30 1035 H 94.5643 -3.00112 -0.465483 0
M  V30 1036 H 92.1493 -1.48499 -0.163826 0
M  V30 1037 H 94.0313 -3.04026 -2.91798 0
M  V30 1038 H 92.7063 -1.87796 -2.63656 0
M  V30 1039 H 91.6133 -3.58492 -1.06931 0
M  V30 1040 H 92.9463 -4.71098 -1.42573 0
M  V30 1041 N 94.5984 0.214957 -1.56127 0
M  V30 1042 C 95.5084 1.28727 -1.96129 0
M  V30 1043 C 96.5244 1.50916 -0.866044 0
M  V30 1044 O 97.7004 1.63918 -1.17016 0
M  V30 1045 C 94.7654 2.61569 -2.27558 0
M  V30 1046 C 93.8264 2.47625 -3.50685 0
M  V30 1047 C 93.0594 3.74132 -3.80606 0
M  V30 1048 O 93.2824 4.77438 -3.12104 0
M  V30 1049 O 92.2164 3.70849 -4.74083 0
M  V30 1050 H 96.0424 0.977855 -2.87527 0
M  V30 1051 H 93.6274 0.418358 -1.43423 0
M  V30 1052 H 95.5094 3.40012 -2.48938 0
M  V30 1053 H 94.1844 2.92178 -1.39332 0
M  V30 1054 H 93.0914 1.67361 -3.34576 0
M  V30 1055 H 94.4244 2.21954 -4.39315 0
M  V30 1056 N 96.0765 1.50051 0.48192 0
M  V30 1057 C 97.3535 1.51009 1.2432 0
M  V30 1058 C 97.7335 0.248587 2.09631 0
M  V30 1059 O 97.0815 -0.768409 2.15192 0
M  V30 1060 C 97.2915 2.79981 2.08355 0
M  V30 1061 C 98.6395 3.3022 2.66908 0
M  V30 1062 O 99.6635 2.81228 2.18607 0
M  V30 1063 O 98.5225 4.15595 3.54884 0
M  V30 1064 H 95.6165 0.605239 0.563573 0
M  V30 1065 H 98.1625 1.62332 0.494627 0
M  V30 1066 H 96.9345 3.63275 1.45419 0
M  V30 1067 H 96.5575 2.7161 2.90368 0
M  V30 1068 N 97.5546 -0.734337 1.39446 0
M  V30 1069 C 98.4846 -1.86155 1.40955 0
M  V30 1070 C 99.4656 -1.67898 0.272827 0
M  V30 1071 O 100.651 -1.88207 0.478743 0
M  V30 1072 C 97.7806 -3.23912 1.25294 0
M  V30 1073 C 96.7346 -3.56808 2.36373 0
M  V30 1074 C 96.0606 -4.93508 2.058 0
M  V30 1075 C 97.3606 -3.59713 3.78687 0
M  V30 1076 H 99.0546 -1.8515 2.35287 0
M  V30 1077 H 96.6006 -0.889367 1.13253 0
M  V30 1078 H 98.5536 -4.02443 1.2497 0
M  V30 1079 H 97.2776 -3.25446 0.274308 0
M  V30 1080 H 95.9366 -2.80606 2.35914 0
M  V30 1081 H 95.5846 -4.91623 1.06374 0
M  V30 1082 H 95.2846 -5.16486 2.80208 0
M  V30 1083 H 96.8086 -5.74396 2.07128 0
M  V30 1084 H 98.2226 -4.2832 3.81071 0
M  V30 1085 H 96.6196 -3.94209 4.52459 0
M  V30 1086 H 97.6896 -2.59504 4.09617 0
M  V30 1087 N 99.0327 -1.24633 -0.964593 0
M  V30 1088 C 100.449 -1.01239 -1.2338 0
M  V30 1089 C 100.649 0.2769 -1.99588 0
M  V30 1090 O 99.7047 0.992241 -2.32187 0
M  V30 1091 C 101.018 -2.22937 -2.01791 0
M  V30 1092 C 102.566 -2.27594 -2.14872 0
M  V30 1093 C 103.041 -3.48921 -2.96678 0
M  V30 1094 N 104.532 -3.49257 -3.04259 0
M  V30 1095 C 105.267 -4.39795 -3.67924 0
M  V30 1096 N 104.763 -5.40591 -4.33281 0
M  V30 1097 N 106.556 -4.275 -3.64966 0
M  V30 1098 H 98.7067 -2.0748 -0.454502 0
M  V30 1099 H 100.97 -0.910647 -0.26349 0
M  V30 1100 H 100.676 -3.16587 -1.53184 0
M  V30 1101 H 100.55 -2.25306 -3.02518 0
M  V30 1102 H 102.937 -1.34473 -2.6268 0
M  V30 1103 H 103.018 -2.2925 -1.13482 0
M  V30 1104 H 102.662 -4.42359 -2.49562 0
M  V30 1105 H 102.592 -3.4451 -3.98272 0
M  V30 1106 H 105.083 -2.76337 -2.57771 0
M  V30 1107 H 105.396 -6.05904 -4.79687 0
M  V30 1108 H 103.741 -5.44475 -4.3194 0
M  V30 1109 H 106.932 -3.47987 -3.13086 0
M  V30 1110 H 107.105 -4.98258 -4.14298 0
M  V30 1111 N 100.511 1.16574 -1.06058 0
M  V30 1112 C 101.758 1.87047 -0.775873 0
M  V30 1113 C 102.086 1.81562 0.697534 0
M  V30 1114 O 101.341 1.22445 1.52662 0
M  V30 1115 C 101.64 3.36195 -1.21275 0
M  V30 1116 C 101.306 3.6188 -2.68986 0
M  V30 1117 C 99.9678 3.68599 -3.09335 0
M  V30 1118 C 102.32 3.72648 -3.64394 0
M  V30 1119 C 99.6478 3.83584 -4.43937 0
M  V30 1120 C 102 3.89154 -4.98741 0
M  V30 1121 C 100.664 3.94114 -5.3873 0
M  V30 1122 H 99.9338 0.684452 -0.283912 0
M  V30 1123 H 102.581 1.37853 -1.32925 0
M  V30 1124 H 100.886 3.87505 -0.578528 0
M  V30 1125 H 102.583 3.89103 -0.969542 0
M  V30 1126 H 99.1728 3.57281 -2.36744 0
M  V30 1127 H 103.357 3.66769 -3.34356 0
M  V30 1128 H 98.6128 3.85677 -4.74409 0
M  V30 1129 H 102.787 3.96427 -5.72554 0
M  V30 1130 H 100.414 4.05478 -6.43033 0
M  V30 1131 N 101.989 0.842826 1.3317 0
M  V30 1132 C 103.266 0.362216 1.92217 0
M  V30 1133 C 103.646 -1.15289 1.76838 0
M  V30 1134 O 102.994 -1.96914 1.15919 0
M  V30 1135 C 103.204 0.813495 3.39387 0
M  V30 1136 C 104.552 0.823804 4.16532 0
M  V30 1137 O 105.576 0.757358 3.48055 0
M  V30 1138 O 104.435 0.915193 5.38782 0
M  V30 1139 H 101.529 0.103317 0.820521 0
M  V30 1140 H 104.075 0.928942 1.42017 0
M  V30 1141 H 102.847 1.85624 3.4447 0
M  V30 1142 H 102.47 0.223561 3.96971 0
M  V30 1143 N 103.467 -1.45747 0.599634 0
M  V30 1144 C 104.692 -2.07178 0.0960198 0
M  V30 1145 C 105.117 -1.44268 -1.207 0
M  V30 1146 O 104.475 -0.532503 -1.73303 0
M  V30 1147 C 104.523 -3.60579 -0.0385348 0
M  V30 1148 O 103.627 -3.97713 -1.0908 0
M  V30 1149 H 102.968 -0.660251 0.0704593 0
M  V30 1150 H 105.498 -1.87124 0.827385 0
M  V30 1151 H 105.508 -4.07298 -0.239304 0
M  V30 1152 H 104.183 -4.05756 0.912947 0
M  V30 1153 H 102.76 -3.62678 -0.867135 0
M  V30 1154 N 104.945 -0.338344 -1.53925 0
M  V30 1155 C 106.222 0.314774 -1.93051 0
M  V30 1156 C 106.602 1.68669 -1.26941 0
M  V30 1157 O 105.95 2.24636 -0.418445 0
M  V30 1158 C 106.16 0.392249 -3.46789 0
M  V30 1159 C 107.508 0.645554 -4.19664 0
M  V30 1160 O 108.532 0.474575 -3.53024 0
M  V30 1161 O 107.391 0.976408 -5.37707 0
M  V30 1162 H 104.485 0.182598 -0.80659 0
M  V30 1163 H 107.031 -0.389141 -1.65178 0
M  V30 1164 H 105.803 -0.570702 -3.87116 0
M  V30 1165 H 105.426 1.14316 -3.80812 0
M  V30 1166 N 106.423 1.57458 -0.0668435 0
M  V30 1167 C 107.669 1.93587 0.6043 0
M  V30 1168 C 108.002 0.946722 1.69561 0
M  V30 1169 O 107.277 -0.0248516 1.94484 0
M  V30 1170 C 107.56 3.40014 1.18585 0
M  V30 1171 C 107.413 4.49685 0.101529 0
M  V30 1172 C 108.732 3.87154 2.09284 0
M  V30 1173 H 105.851 0.703958 0.218202 0
M  V30 1174 H 108.493 1.89542 -0.131804 0
M  V30 1175 H 106.643 3.43592 1.81319 0
M  V30 1176 H 108.315 4.5823 -0.531279 0
M  V30 1177 H 106.558 4.30059 -0.568487 0
M  V30 1178 H 107.229 5.49266 0.54874 0
M  V30 1179 H 109.705 3.85551 1.56491 0
M  V30 1180 H 108.581 4.90231 2.46911 0
M  V30 1181 H 108.842 3.2481 2.99918 0
M  V30 1182 N 107.901 -0.206675 1.56239 0
M  V30 1183 C 109.149 -0.927007 1.79586 0
M  V30 1184 C 109.47 -1.8427 0.637929 0
M  V30 1185 O 108.74 -1.92849 -0.344398 0
M  V30 1186 H 107.32 -0.345292 0.662407 0
M  V30 1187 H 109.982 -0.21496 1.93711 0
M  V30 1188 H 109.078 -1.52501 2.72305 0
M  V30 1189 N 109.379 -1.50304 -0.473955 0
M  V30 1190 C 110.289 -1.7174 -1.5982 0
M  V30 1191 C 111.305 -0.600457 -1.63311 0
M  V30 1192 O 112.481 -0.878441 -1.81233 0
M  V30 1193 C 109.546 -1.80427 -2.96052 0
M  V30 1194 C 108.607 -3.04148 -3.02972 0
M  V30 1195 C 107.84 -3.12411 -4.32706 0
M  V30 1196 O 108.063 -2.27542 -5.23049 0
M  V30 1197 O 106.997 -4.05113 -4.45159 0
M  V30 1198 H 110.823 -2.67035 -1.44657 0
M  V30 1199 H 108.408 -1.34366 -0.653148 0
M  V30 1200 H 110.29 -1.88338 -3.7697 0
M  V30 1201 H 108.965 -0.883156 -3.11419 0
M  V30 1202 H 107.872 -3.0174 -2.21142 0
M  V30 1203 H 109.205 -3.95829 -2.92541 0
M  V30 1204 N 110.857 0.726932 -1.39834 0
M  V30 1205 C 112.087 1.51393 -1.40583 0
M  V30 1206 C 112.495 1.892 -0.000740625 0
M  V30 1207 O 111.838 1.55189 0.982951 0
M  V30 1208 C 111.9 2.82588 -2.22226 0
M  V30 1209 C 111.564 2.67169 -3.70769 0
M  V30 1210 C 112.561 2.3518 -4.63666 0
M  V30 1211 C 110.246 2.83788 -4.14451 0
M  V30 1212 C 112.24 2.20002 -5.98229 0
M  V30 1213 C 109.927 2.68229 -5.49087 0
M  V30 1214 C 110.925 2.36382 -6.4079 0
M  V30 1215 O 110.613 2.2093 -7.72946 0
M  V30 1216 H 110.345 0.474168 -0.48181 0
M  V30 1217 H 112.899 0.905247 -1.84376 0
M  V30 1218 H 111.129 3.45746 -1.73195 0
M  V30 1219 H 112.818 3.44247 -2.15055 0
M  V30 1220 H 113.584 2.21984 -4.31217 0
M  V30 1221 H 109.463 3.07566 -3.43401 0
M  V30 1222 H 113.007 1.95067 -6.69772 0
M  V30 1223 H 108.904 2.81006 -5.81125 0
M  V30 1224 H 109.672 2.35937 -7.83757 0
M  V30 1225 N 112.336 1.25143 0.95797 0
M  V30 1226 C 113.752 1.01892 1.22842 0
M  V30 1227 C 113.952 -0.266311 1.99732 0
M  V30 1228 O 113.008 -0.979913 2.3271 0
M  V30 1229 C 114.321 2.24004 2.00606 0
M  V30 1230 C 115.869 2.28731 2.13662 0
M  V30 1231 C 116.344 3.5049 2.94823 0
M  V30 1232 N 117.835 3.50866 3.02403 0
M  V30 1233 C 118.57 4.4174 3.65586 0
M  V30 1234 N 118.066 5.42882 4.30408 0
M  V30 1235 N 119.859 4.29429 3.62694 0
M  V30 1236 H 112.01 2.07718 0.443493 0
M  V30 1237 H 114.273 0.912031 0.258657 0
M  V30 1238 H 113.979 3.17395 1.51503 0
M  V30 1239 H 113.853 2.26907 3.01319 0
M  V30 1240 H 116.24 1.35865 2.61963 0
M  V30 1241 H 116.321 2.29848 1.12265 0
M  V30 1242 H 115.965 4.43676 2.47213 0
M  V30 1243 H 115.895 3.46617 3.96439 0
M  V30 1244 H 118.386 2.777 2.56302 0
M  V30 1245 H 118.699 6.0844 4.76467 0
M  V30 1246 H 117.044 5.46758 4.29047 0
M  V30 1247 H 120.235 3.49643 3.11236 0
M  V30 1248 H 120.408 5.00448 4.1165 0
M  V30 1249 N 113.814 -1.1601 1.06675 0
M  V30 1250 C 114.777 -2.18724 0.685001 0
M  V30 1251 C 115.777 -1.58496 -0.271246 0
M  V30 1252 O 116.967 -1.74119 -0.0531156 0
M  V30 1253 C 114.099 -3.40899 0.00853648 0
M  V30 1254 H 115.292 -2.54011 1.59431 0
M  V30 1255 H 112.845 -1.30352 0.862441 0
M  V30 1256 H 113.58 -3.11173 -0.913337 0
M  V30 1257 H 113.365 -3.8587 0.696204 0
M  V30 1258 H 114.855 -4.16886 -0.24414 0
M  V30 1259 N 115.292 -0.849877 -1.32721 0
M  V30 1260 C 116.538 -0.451591 -1.97708 0
M  V30 1261 C 116.871 0.989175 -1.6712 0
M  V30 1262 O 116.146 1.69334 -0.956891 0
M  V30 1263 C 116.429 -0.685598 -3.53513 0
M  V30 1264 C 116.282 -2.17444 -3.93749 0
M  V30 1265 C 117.601 -0.138874 -4.39881 0
M  V30 1266 H 114.72 -0.16555 -0.718166 0
M  V30 1267 H 117.362 -1.06742 -1.57182 0
M  V30 1268 H 115.512 -0.161416 -3.88165 0
M  V30 1269 H 117.184 -2.76433 -3.693 0
M  V30 1270 H 115.427 -2.65476 -3.43081 0
M  V30 1271 H 116.098 -2.28888 -5.02309 0
M  V30 1272 H 118.574 -0.587068 -4.11938 0
M  V30 1273 H 117.45 -0.332213 -5.47894 0
M  V30 1274 H 117.711 0.95806 -4.31594 0
M  V30 1275 N 116.77 1.45427 -0.607355 0
M  V30 1276 C 117.998 2.06614 -0.108814 0
M  V30 1277 C 118.413 1.45204 1.2067 0
M  V30 1278 O 117.77 0.566132 1.73497 0
M  V30 1279 C 117.821 3.61481 0.0375347 0
M  V30 1280 O 117.542 4.20598 -1.22593 0
M  V30 1281 C 119.043 4.39652 0.567561 0
M  V30 1282 H 116.263 0.66747 -0.0687351 0
M  V30 1283 H 118.807 1.86675 -0.835022 0
M  V30 1284 H 116.962 3.80762 0.714068 0
M  V30 1285 H 117.376 5.1377 -1.05547 0
M  V30 1286 H 118.85 5.48518 0.61905 0
M  V30 1287 H 119.327 4.09417 1.58978 0
M  V30 1288 H 119.933 4.25234 -0.0749202 0
M  V30 1289 N 118.248 0.346503 1.53744 0
M  V30 1290 C 119.158 -0.517293 2.28826 0
M  V30 1291 C 120.174 -1.10935 1.3405 0
M  V30 1292 O 121.35 -1.1244 1.6709 0
M  V30 1293 C 118.415 -1.65098 3.04866 0
M  V30 1294 C 117.476 -1.0884 4.15274 0
M  V30 1295 C 116.709 -2.16806 4.87679 0
M  V30 1296 O 116.932 -3.3758 4.59778 0
M  V30 1297 O 115.866 -1.80934 5.74061 0
M  V30 1298 H 119.692 0.0931396 3.03557 0
M  V30 1299 H 117.277 0.111458 1.48984 0
M  V30 1300 H 119.159 -2.31053 3.5241 0
M  V30 1301 H 117.834 -2.24717 2.32989 0
M  V30 1302 H 116.741 -0.3933 3.72027 0
M  V30 1303 H 118.074 -0.537036 4.89261 0
M  V30 1304 N 119.726 -1.57421 0.075193 0
M  V30 1305 C 120.656 -2.15942 -0.888324 0
M  V30 1306 C 121.637 -1.08737 -1.30806 0
M  V30 1307 O 122.822 -1.36787 -1.37851 0
M  V30 1308 C 119.952 -2.72379 -2.1547 0
M  V30 1309 C 118.906 -3.8478 -1.87425 0
M  V30 1310 C 118.232 -4.27834 -3.20721 0
M  V30 1311 C 119.532 -5.08869 -1.17684 0
M  V30 1312 H 121.226 -2.96705 -0.400799 0
M  V30 1313 H 118.772 -1.42723 -0.191342 0
M  V30 1314 H 120.725 -3.11965 -2.83295 0
M  V30 1315 H 119.449 -1.88841 -2.6647 0
M  V30 1316 H 118.108 -3.45703 -1.22004 0
M  V30 1317 H 117.756 -3.41214 -3.6957 0
M  V30 1318 H 117.456 -5.03605 -3.02746 0
M  V30 1319 H 118.98 -4.70039 -3.89738 0
M  V30 1320 H 120.394 -5.4575 -1.75584 0
M  V30 1321 H 118.791 -5.8994 -1.09956 0
M  V30 1322 H 119.861 -4.84648 -0.156453 0
M  V30 1323 N 121.204 0.198386 -1.56346 0
M  V30 1324 C 122.452 0.91747 -1.80075 0
M  V30 1325 C 122.773 1.83929 -0.647692 0
M  V30 1326 O 122.043 1.93029 0.334166 0
M  V30 1327 H 120.623 0.341774 -0.664228 0
M  V30 1328 H 123.285 0.204684 -1.93822 0
M  V30 1329 H 122.381 1.51055 -2.7311 0
M  V30 1330 N 122.682 1.50554 0.465978 0
M  V30 1331 C 124.098 1.38093 0.800154 0
M  V30 1332 C 124.298 0.440988 1.96615 0
M  V30 1333 O 123.354 -0.114499 2.5224 0
M  V30 1334 C 124.667 2.79565 1.10742 0
M  V30 1335 C 126.215 2.88516 1.21357 0
M  V30 1336 C 126.69 4.30833 1.55393 0
M  V30 1337 N 128.181 4.33807 1.62375 0
M  V30 1338 C 128.916 5.40927 1.90225 0
M  V30 1339 N 128.412 6.58247 2.16062 0
M  V30 1340 N 130.205 5.28376 1.9177 0
M  V30 1341 H 122.356 2.10237 -0.302366 0
M  V30 1342 H 124.619 0.945203 -0.0727746 0
M  V30 1343 H 124.325 3.50208 0.323661 0
M  V30 1344 H 124.199 3.17125 2.04234 0
M  V30 1345 H 126.586 2.1809 1.98799 0
M  V30 1346 H 126.667 2.54492 0.258321 0
M  V30 1347 H 126.311 5.01799 0.784889 0
M  V30 1348 H 126.241 4.62347 2.52076 0
M  V30 1349 H 128.732 3.49212 1.44427 0
M  V30 1350 H 129.045 7.3569 2.36601 0
M  V30 1351 H 127.39 6.61413 2.13444 0
M  V30 1352 H 130.581 4.35715 1.71085 0
M  V30 1353 H 130.754 6.11944 2.13139 0
M  V30 1354 N 124.16 -0.719506 1.40217 0
M  V30 1355 C 125.571 -1.29848 1.34151 0
M  V30 1356 C 125.922 -1.96196 0.0131349 0
M  V30 1357 O 125.047 -1.973 -0.88892 0
M  V30 1358 C 125.642 -2.36118 2.42968 0
M  V30 1359 C 124.201 -2.8965 2.40374 0
M  V30 1360 C 123.348 -1.63393 2.24049 0
M  V30 1361 H 126.299 -0.51591 1.5008 0
M  V30 1362 H 126.32 -3.16871 2.10649 0
M  V30 1363 H 125.832 -1.878 3.39636 0
M  V30 1364 H 123.933 -3.42208 1.47392 0
M  V30 1365 H 124.046 -3.4171 3.35814 0
M  V30 1366 H 122.41 -1.88312 1.71495 0
M  V30 1367 H 123.193 -1.17104 3.2271 0
M  V30 1368 N 125.638 -1.25649 -0.95132 0
M  V30 1369 C 126.915 -1.01361 -1.67288 0
M  V30 1370 C 127.295 0.459135 -2.06046 0
M  V30 1371 O 126.643 1.43723 -1.7764 0
M  V30 1372 C 126.853 -1.95256 -2.89268 0
M  V30 1373 C 128.201 -2.23289 -3.61147 0
M  V30 1374 O 129.225 -1.93041 -2.99355 0
M  V30 1375 O 128.084 -2.74741 -4.72419 0
M  V30 1376 H 125.178 -0.38464 -0.732107 0
M  V30 1377 H 127.724 -1.36817 -1.00395 0
M  V30 1378 H 126.496 -2.94685 -2.57442 0
M  V30 1379 H 126.119 -1.60218 -3.6389 0
M  V30 1380 N 127.117 1.15442 -1.07289 0
M  V30 1381 C 128.08 2.18358 -0.696591 0
M  V30 1382 C 129.08 1.58637 0.262837 0
M  V30 1383 O 130.27 1.74145 0.0438809 0
M  V30 1384 C 127.402 3.4089 -0.0266151 0
M  V30 1385 H 128.595 2.53162 -1.60776 0
M  V30 1386 H 126.148 1.29893 -0.869342 0
M  V30 1387 H 126.883 3.11653 0.896822 0
M  V30 1388 H 126.668 3.85495 -0.716657 0
M  V30 1389 H 128.158 4.17009 0.222028 0
M  V30 1390 N 128.595 0.856903 1.32268 0
M  V30 1391 C 129.505 0.306131 2.32594 0
M  V30 1392 C 130.521 -0.577209 1.64147 0
M  V30 1393 O 131.697 -0.477043 1.95669 0
M  V30 1394 C 128.762 -0.494561 3.43154 0
M  V30 1395 C 127.823 0.415186 4.27288 0
M  V30 1396 C 127.056 -0.347387 5.32568 0
M  V30 1397 O 127.279 -1.57708 5.48165 0
M  V30 1398 O 126.213 0.287982 6.01211 0
M  V30 1399 H 130.039 1.13737 2.81598 0
M  V30 1400 H 127.624 0.619902 1.35932 0
M  V30 1401 H 129.506 -0.948944 4.10576 0
M  V30 1402 H 128.181 -1.30257 2.96336 0
M  V30 1403 H 127.088 0.917793 3.62667 0
M  V30 1404 H 128.421 1.18844 4.77637 0
M  V30 1405 N 130.073 -1.45103 0.615059 0
M  V30 1406 C 131.303 -2.06254 0.119596 0
M  V30 1407 C 131.711 -1.4591 -1.20445 0
M  V30 1408 O 131.054 -0.570384 -1.7462 0
M  V30 1409 C 131.116 -3.59396 -0.0865591 0
M  V30 1410 C 130.78 -4.42116 1.15683 0
M  V30 1411 C 131.777 -4.7662 2.07676 0
M  V30 1412 C 129.462 -4.82749 1.38775 0
M  V30 1413 C 131.456 -5.50622 3.21082 0
M  V30 1414 C 129.143 -5.56504 2.52481 0
M  V30 1415 C 130.141 -5.90358 3.43463 0
M  V30 1416 O 129.829 -6.62615 4.55189 0
M  V30 1417 H 129.561 -0.672423 0.0694512 0
M  V30 1418 H 132.115 -1.87219 0.844885 0
M  V30 1419 H 130.345 -3.76859 -0.866823 0
M  V30 1420 H 132.034 -4.02365 -0.534555 0
M  V30 1421 H 132.8 -4.4578 1.91063 0
M  V30 1422 H 128.679 -4.55829 0.688545 0
M  V30 1423 H 132.223 -5.76965 3.92119 0
M  V30 1424 H 128.12 -5.86759 2.69043 0
M  V30 1425 H 128.888 -6.81071 4.53966 0
M  V30 1426 N 131.551 -0.354651 -1.53558 0
M  V30 1427 C 132.797 0.231422 -2.02079 0
M  V30 1428 C 133.152 1.47308 -1.23767 0
M  V30 1429 O 132.445 1.8891 -0.319947 0
M  V30 1430 C 132.639 0.587121 -3.52545 0
M  V30 1431 C 132.468 -0.618513 -4.45426 0
M  V30 1432 C 131.238 -1.12724 -4.92566 0
M  V30 1433 C 133.436 -1.48039 -4.92533 0
M  V30 1434 N 131.418 -2.29404 -5.69427 0
M  V30 1435 C 132.789 -2.49397 -5.67628 0
M  V30 1436 C 134.844 -1.50454 -4.74624 0
M  V30 1437 C 133.547 -3.53013 -6.26717 0
M  V30 1438 C 135.573 -2.52958 -5.34571 0
M  V30 1439 C 134.935 -3.5304 -6.09543 0
M  V30 1440 H 131.034 0.0476909 -0.780544 0
M  V30 1441 H 133.618 -0.496727 -1.88257 0
M  V30 1442 H 131.789 1.28436 -3.6655 0
M  V30 1443 H 133.521 1.15734 -3.87799 0
M  V30 1444 H 130.276 -0.693577 -4.68494 0
M  V30 1445 H 130.7 -2.88347 -6.12524 0
M  V30 1446 H 135.342 -0.744356 -4.16196 0
M  V30 1447 H 133.06 -4.2992 -6.84247 0
M  V30 1448 H 136.646 -2.55667 -5.22614 0
M  V30 1449 H 135.526 -4.31056 -6.55103 0
M  V30 1450 N 133.029 1.57378 -0.0835403 0
M  V30 1451 C 133.977 2.14602 0.89714 0
M  V30 1452 C 134.971 1.08589 1.30018 0
M  V30 1453 O 136.177 1.26952 1.27606 0
M  V30 1454 H 132.552 0.686346 0.3073 0
M  V30 1455 H 134.523 2.95845 0.38969 0
M  V30 1456 C 133.272 2.73188 2.15089 0
M  V30 1457 H 132.595 3.54442 1.84962 0
M  V30 1458 H 134.035 3.1681 2.81793 0
M  V30 1459 C 132.494 1.68517 2.91725 0
M  V30 1460 O 133.024 1.11718 3.85852 0
M  V30 1461 N 131.23 1.39277 2.55049 0
M  V30 1462 H 130.777 1.85655 1.78577 0
M  V30 1463 H 130.735 0.694791 3.06627 0
M  V30 1464 N 134.507 -0.190092 1.56449 0
M  V30 1465 C 135.732 -0.929864 1.85387 0
M  V30 1466 C 136.157 -1.7585 0.667704 0
M  V30 1467 O 135.515 -1.77198 -0.383459 0
M  V30 1468 C 135.563 -1.79773 3.12593 0
M  V30 1469 O 134.667 -2.89713 2.93496 0
M  V30 1470 H 134.008 -0.261574 0.610307 0
M  V30 1471 H 136.538 -0.193896 2.03679 0
M  V30 1472 H 136.548 -2.20139 3.43515 0
M  V30 1473 H 135.223 -1.18892 3.98544 0
M  V30 1474 H 133.8 -2.53065 2.73884 0
M  V30 1475 N 135.985 -1.50799 -0.457987 0
M  V30 1476 C 136.917 -1.66786 -1.57211 0
M  V30 1477 C 137.93 -0.548962 -1.53265 0
M  V30 1478 O 139.119 -0.8226 -1.58416 0
M  V30 1479 C 136.219 -1.64834 -2.96113 0
M  V30 1480 C 135.392 -2.92971 -3.24787 0
M  V30 1481 C 134.451 -2.83485 -4.43309 0
M  V30 1482 O 133.477 -3.5744 -4.42973 0
M  V30 1483 N 134.679 -1.97929 -5.45714 0
M  V30 1484 H 137.444 -2.62889 -1.43909 0
M  V30 1485 H 135.005 -1.48427 -0.646617 0
M  V30 1486 H 136.997 -1.56084 -3.7339 0
M  V30 1487 H 135.567 -0.764118 -3.03117 0
M  V30 1488 H 134.787 -3.15749 -2.36 0
M  V30 1489 H 136.075 -3.77834 -3.40762 0
M  V30 1490 H 135.473 -1.37182 -5.48815 0
M  V30 1491 H 134.03 -1.95073 -6.21924 0
M  V30 1492 N 137.463 0.71206 -1.40597 0
M  V30 1493 C 138.41 1.82613 -1.41142 0
M  V30 1494 C 139.38 1.63925 -0.267903 0
M  V30 1495 O 140.565 1.85009 -0.466495 0
M  V30 1496 C 137.705 3.20354 -1.28324 0
M  V30 1497 C 136.818 3.50589 -2.52411 0
M  V30 1498 C 135.953 4.77855 -2.32009 0
M  V30 1499 C 134.992 5.01005 -3.51654 0
M  V30 1500 N 134.129 6.19487 -3.30425 0
M  V30 1501 H 138.969 1.81482 -2.36365 0
M  V30 1502 H 136.506 0.886475 -1.17388 0
M  V30 1503 H 138.464 3.99899 -1.18899 0
M  V30 1504 H 137.094 3.20705 -0.367189 0
M  V30 1505 H 136.146 2.65573 -2.72351 0
M  V30 1506 H 137.458 3.63604 -3.41458 0
M  V30 1507 H 136.612 5.65424 -2.19956 0
M  V30 1508 H 135.351 4.67056 -1.40392 0
M  V30 1509 H 134.356 4.1189 -3.64179 0
M  V30 1510 H 135.581 5.13674 -4.44202 0
M  V30 1511 H 133.527 6.09932 -2.41494 0
M  V30 1512 H 133.444 6.33194 -4.13039 0
M  V30 1513 H 134.712 7.09834 -3.22113 0
M  V30 1514 N 138.941 1.26152 0.944643 0
M  V30 1515 C 140.218 1.02247 1.66748 0
M  V30 1516 C 140.598 -0.448202 2.06287 0
M  V30 1517 O 139.946 -1.42779 1.78399 0
M  V30 1518 C 140.156 1.96788 2.88228 0
M  V30 1519 C 141.504 2.25201 3.59958 0
M  V30 1520 O 142.528 1.94626 2.98327 0
M  V30 1521 O 141.387 2.77242 4.70956 0
M  V30 1522 H 138.481 0.388517 0.730057 0
M  V30 1523 H 141.027 1.37348 0.99668 0
M  V30 1524 H 139.799 2.96047 2.55875 0
M  V30 1525 H 139.422 1.62145 3.63035 0
M  V30 1526 N 140.419 -1.14872 1.07899 0
M  V30 1527 C 141.666 -1.85789 0.805532 0
M  V30 1528 C 141.994 -1.82649 -0.668561 0
M  V30 1529 O 141.249 -1.24858 -1.50695 0
M  V30 1530 C 141.548 -3.34223 1.26609 0
M  V30 1531 C 141.214 -3.57555 2.74709 0
M  V30 1532 C 139.876 -3.63631 3.1516 0
M  V30 1533 C 142.228 -3.66803 3.70277 0
M  V30 1534 C 139.556 -3.76473 4.49983 0
M  V30 1535 C 141.908 -3.8117 5.04869 0
M  V30 1536 C 140.572 -3.85494 5.44932 0
M  V30 1537 H 139.842 -0.679849 0.294765 0
M  V30 1538 H 142.489 -1.3572 1.35101 0
M  V30 1539 H 140.794 -3.86536 0.640103 0
M  V30 1540 H 142.491 -3.87511 1.03132 0
M  V30 1541 H 139.081 -3.5347 2.42398 0
M  V30 1542 H 143.265 -3.61404 3.40149 0
M  V30 1543 H 138.521 -3.7808 4.80484 0
M  V30 1544 H 142.695 -3.87268 5.78789 0
M  V30 1545 H 140.322 -3.95197 6.49403 0
M  V30 1546 N 141.898 -0.863906 -1.31812 0
M  V30 1547 C 142.828 -0.330843 -2.31144 0
M  V30 1548 C 143.809 0.575005 -1.60087 0
M  V30 1549 O 144.994 0.493304 -1.8783 0
M  V30 1550 C 142.124 0.47374 -3.44054 0
M  V30 1551 C 141.078 -0.338481 -4.26659 0
M  V30 1552 C 140.404 0.591412 -5.31419 0
M  V30 1553 C 141.704 -1.56926 -4.98168 0
M  V30 1554 H 143.398 -1.16086 -2.75979 0
M  V30 1555 H 140.944 -0.559657 -1.32679 0
M  V30 1556 H 142.897 0.857143 -4.12591 0
M  V30 1557 H 141.621 1.33721 -2.9797 0
M  V30 1558 H 140.28 -0.703754 -3.59782 0
M  V30 1559 H 139.928 1.45199 -4.81587 0
M  V30 1560 H 139.628 0.0519022 -5.87577 0
M  V30 1561 H 141.152 0.97179 -6.02817 0
M  V30 1562 H 142.566 -1.25764 -5.59336 0
M  V30 1563 H 140.963 -2.04739 -5.64094 0
M  V30 1564 H 142.033 -2.32544 -4.25501 0
M  V30 1565 N 143.376 1.44774 -0.622745 0
M  V30 1566 C 144.286 2.34433 0.0886031 0
M  V30 1567 C 145.302 1.52131 0.844529 0
M  V30 1568 O 146.478 1.84886 0.798691 0
M  V30 1569 C 143.543 3.29986 1.0635 0
M  V30 1570 C 142.604 4.28195 0.307873 0
M  V30 1571 C 141.837 5.19183 1.23633 0
M  V30 1572 O 142.06 5.13918 2.47476 0
M  V30 1573 O 140.994 5.97515 0.725189 0
M  V30 1574 H 144.82 2.96693 -0.648599 0
M  V30 1575 H 142.405 1.44408 -0.382957 0
M  V30 1576 H 144.287 3.88825 1.6246 0
M  V30 1577 H 142.962 2.70269 1.78146 0
M  V30 1578 H 141.869 3.72927 -0.296064 0
M  V30 1579 H 143.202 4.90808 -0.3699 0
M  V30 1580 N 144.854 0.36279 1.53368 0
M  V30 1581 C 146.131 -0.284021 1.93527 0
M  V30 1582 C 146.511 -1.66628 1.29608 0
M  V30 1583 O 145.859 -2.23942 0.45413 0
M  V30 1584 C 146.069 -0.337028 3.47369 0
M  V30 1585 C 147.417 -0.578708 4.20638 0
M  V30 1586 O 148.441 -0.418352 3.53735 0
M  V30 1587 O 147.3 -0.89074 5.39192 0
M  V30 1588 H 144.394 -0.169743 0.809393 0
M  V30 1589 H 146.94 0.41537 1.64538 0
M  V30 1590 H 145.712 0.632217 3.86159 0
M  V30 1591 H 145.335 -1.08243 3.82582 0
M  V30 1592 N 146.332 -1.57332 0.0918853 0
M  V30 1593 C 147.748 -1.57389 -0.264766 0
M  V30 1594 C 147.948 -1.10281 -1.68643 0
M  V30 1595 O 147.004 -0.777801 -2.40222 0
M  V30 1596 C 148.317 -3.00648 -0.0561195 0
M  V30 1597 C 149.865 -3.12754 -0.124116 0
M  V30 1598 C 150.34 -4.57965 0.0564972 0
M  V30 1599 N 151.831 -4.632 0.00155611 0
M  V30 1600 C 152.566 -5.73281 0.116598 0
M  V30 1601 N 152.062 -6.92208 0.286294 0
M  V30 1602 N 153.855 -5.6207 0.0580973 0
M  V30 1603 H 146.006 -1.86262 1.02079 0
M  V30 1604 H 148.269 -0.859579 0.399786 0
M  V30 1605 H 147.975 -3.393 0.925669 0
M  V30 1606 H 147.849 -3.68623 -0.799823 0
M  V30 1607 H 150.236 -2.73976 -1.09641 0
M  V30 1608 H 150.317 -2.47377 0.651024 0
M  V30 1609 H 149.961 -4.97436 1.02564 0
M  V30 1610 H 149.891 -5.21399 -0.738297 0
M  V30 1611 H 152.382 -3.77686 -0.127192 0
M  V30 1612 H 152.695 -7.71934 0.365676 0
M  V30 1613 H 151.04 -6.94254 0.32192 0
M  V30 1614 H 154.231 -4.68043 -0.0733204 0
M  V30 1615 H 154.404 -6.47824 0.151203 0
M  V30 1616 N 147.81 0.181792 -1.56548 0
M  V30 1617 C 149.226 0.53316 -1.50431 0
M  V30 1618 C 149.426 1.85184 -0.794297 0
M  V30 1619 O 148.482 2.50058 -0.350318 0
M  V30 1620 C 149.795 0.575597 -2.9514 0
M  V30 1621 C 151.343 0.663519 -3.05886 0
M  V30 1622 C 151.818 0.736946 -4.52032 0
M  V30 1623 N 153.309 0.800118 -4.56237 0
M  V30 1624 C 154.044 0.877327 -5.66649 0
M  V30 1625 N 153.54 0.916016 -6.86718 0
M  V30 1626 N 155.333 0.915542 -5.54594 0
M  V30 1627 H 147.484 -0.683025 -2.01118 0
M  V30 1628 H 149.747 -0.244988 -0.915797 0
M  V30 1629 H 149.453 -0.324482 -3.502 0
M  V30 1630 H 149.327 1.42572 -3.49218 0
M  V30 1631 H 151.714 1.55403 -2.50867 0
M  V30 1632 H 151.795 -0.21307 -2.54911 0
M  V30 1633 H 151.439 -0.149262 -5.07681 0
M  V30 1634 H 151.369 1.62953 -5.00753 0
M  V30 1635 H 153.86 0.778926 -3.69785 0
M  V30 1636 H 154.173 0.975813 -7.66614 0
M  V30 1637 H 152.518 0.884469 -6.89349 0
M  V30 1638 H 155.709 0.882245 -4.59711 0
M  V30 1639 H 155.882 0.972253 -6.40665 0
M  V30 1640 N 149.288 1.51039 0.449983 0
M  V30 1641 C 150.251 1.70863 1.5277 0
M  V30 1642 C 151.251 0.578846 1.5002 0
M  V30 1643 O 152.441 0.846213 1.52266 0
M  V30 1644 C 149.573 1.75341 2.9235 0
M  V30 1645 H 150.766 2.67034 1.36502 0
M  V30 1646 H 148.319 1.40838 0.677812 0
M  V30 1647 H 149.054 0.809383 3.14037 0
M  V30 1648 H 148.839 2.57436 2.95752 0
M  V30 1649 H 150.329 1.92559 3.70555 0
M  V30 1650 N 150.766 -0.704594 1.40972 0
M  V30 1651 C 151.729 -1.80035 1.41845 0
M  V30 1652 C 152.729 -1.57774 0.310474 0
M  V30 1653 O 153.919 -1.64613 0.56992 0
M  V30 1654 C 151.051 -3.18284 1.22098 0
M  V30 1655 H 152.244 -1.80658 2.3938 0
M  V30 1656 H 149.797 -0.911329 1.26982 0
M  V30 1657 H 150.532 -3.23306 0.253672 0
M  V30 1658 H 150.317 -3.35843 2.02366 0
M  V30 1659 H 151.807 -3.98289 1.25522 0
M  V30 1660 N 152.244 -1.26651 -0.937939 0
M  V30 1661 C 153.49 -1.12553 -1.687 0
M  V30 1662 C 153.823 0.329782 -1.91379 0
M  V30 1663 O 153.098 1.24202 -1.4968 0
M  V30 1664 C 153.381 -1.89862 -3.05981 0
M  V30 1665 C 153.234 -3.43318 -2.90607 0
M  V30 1666 C 154.553 -1.69499 -4.0615 0
M  V30 1667 H 151.672 -0.410257 -0.612257 0
M  V30 1668 H 154.314 -1.55685 -1.08913 0
M  V30 1669 H 152.464 -1.53204 -3.57017 0
M  V30 1670 H 154.136 -3.89747 -2.46769 0
M  V30 1671 H 152.379 -3.70179 -2.26164 0
M  V30 1672 H 153.05 -3.92642 -3.8799 0
M  V30 1673 H 155.526 -2.01442 -3.64088 0
M  V30 1674 H 154.402 -2.26002 -5.00214 0
M  V30 1675 H 154.663 -0.640365 -4.37438 0
M  V30 1676 N 153.722 1.14298 -1.08507 0
M  V30 1677 C 154.999 1.81544 -0.728088 0
M  V30 1678 C 155.379 1.95838 0.78808 0
M  V30 1679 O 154.727 1.51904 1.70697 0
M  V30 1680 C 154.937 3.17169 -1.45619 0
M  V30 1681 C 156.285 3.9265 -1.61591 0
M  V30 1682 O 157.309 3.26762 -1.41793 0
M  V30 1683 O 156.168 5.10807 -1.94263 0
M  V30 1684 H 153.262 0.78491 -0.260471 0
M  V30 1685 H 155.808 1.21307 -1.18671 0
M  V30 1686 H 154.58 3.01934 -2.489 0
M  V30 1687 H 154.203 3.851 -0.989124 0
M  V30 1688 N 155.201 0.870884 1.31352 0
M  V30 1689 C 156.429 0.49677 2.00848 0
M  V30 1690 C 156.844 -0.910998 1.65367 0
M  V30 1691 O 156.201 -1.59696 0.883374 0
M  V30 1692 C 156.252 0.645308 3.55694 0
M  V30 1693 O 155.973 1.99764 3.89905 0
M  V30 1694 C 157.474 0.272326 4.42463 0
M  V30 1695 H 154.694 0.193462 0.642506 0
M  V30 1696 H 157.238 1.1723 1.67563 0
M  V30 1697 H 155.393 0.0173176 3.87396 0
M  V30 1698 H 155.807 2.00607 4.84621 0
M  V30 1699 H 157.281 0.427208 5.50344 0
M  V30 1700 H 157.758 -0.788587 4.32062 0
M  V30 1701 H 158.364 0.876054 4.1618 0
M  V30 1702 N 156.679 -1.44442 0.630414 0
M  V30 1703 C 157.909 -2.06115 0.141465 0
M  V30 1704 C 158.317 -1.47179 -1.1889 0
M  V30 1705 O 157.66 -0.588873 -1.74006 0
M  V30 1706 C 157.722 -3.59467 -0.0484355 0
M  V30 1707 C 157.386 -4.40864 1.20366 0
M  V30 1708 C 158.383 -4.74391 2.12719 0
M  V30 1709 C 156.068 -4.8125 1.43887 0
M  V30 1710 C 158.062 -5.47186 3.26904 0
M  V30 1711 C 155.749 -5.53795 2.5837 0
M  V30 1712 C 156.747 -5.86682 3.49705 0
M  V30 1713 O 156.435 -6.57749 4.62191 0
M  V30 1714 H 156.167 -0.671648 0.0765792 0
M  V30 1715 H 158.721 -1.86312 0.864695 0
M  V30 1716 H 156.951 -3.77758 -0.826803 0
M  V30 1717 H 158.64 -4.02909 -0.491849 0
M  V30 1718 H 159.406 -4.43728 1.95781 0
M  V30 1719 H 155.285 -4.55073 0.736853 0
M  V30 1720 H 158.829 -5.72773 3.98217 0
M  V30 1721 H 154.726 -5.83872 2.75251 0
M  V30 1722 H 155.494 -6.76217 4.61164 0
M  V30 1723 N 158.157 -0.370918 -1.53173 0
M  V30 1724 C 159.397 0.217106 -2.03244 0
M  V30 1725 C 159.761 1.45558 -1.25207 0
M  V30 1726 O 160.962 2.11957 -1.65311 0
M  V30 1727 C 159.233 0.496664 -3.53932 0
M  V30 1728 S 160.792 1.0576 -4.25864 0
M  V30 1729 H 157.61 0.0627827 -0.708223 0
M  V30 1730 H 160.212 -0.515019 -1.88594 0
M  V30 1731 H 158.916 -0.412096 -4.08326 0
M  V30 1732 H 158.447 1.25772 -3.72753 0
M  V30 1733 H 160.462 2.34145 -4.37482 0
M  V30 1734 N 159.635 1.57281 -0.100228 0
M  V30 1735 C 161.051 1.57527 0.256416 0
M  V30 1736 C 161.251 1.11173 1.68056 0
M  V30 1737 O 160.307 0.79053 2.39806 0
M  V30 1738 C 161.62 3.00673 0.0401747 0
M  V30 1739 C 163.168 3.12815 0.107528 0
M  V30 1740 C 163.643 4.57929 -0.0807834 0
M  V30 1741 N 165.134 4.63193 -0.0261207 0
M  V30 1742 C 165.869 5.73212 -0.146999 0
M  V30 1743 N 165.365 6.92047 -0.322999 0
M  V30 1744 N 167.158 5.62031 -0.0879044 0
M  V30 1745 H 159.309 1.85718 -1.03065 0
M  V30 1746 H 161.572 0.857446 -0.404339 0
M  V30 1747 H 161.278 3.38804 -0.943649 0
M  V30 1748 H 161.152 3.69042 0.780262 0
M  V30 1749 H 163.539 2.74554 1.08186 0
M  V30 1750 H 163.62 2.47028 -0.664134 0
M  V30 1751 H 163.264 4.96886 -1.05201 0
M  V30 1752 H 163.194 5.21783 0.710635 0
M  V30 1753 H 165.685 3.77748 0.107161 0
M  V30 1754 H 165.998 7.7173 -0.406608 0
M  V30 1755 H 164.343 6.94074 -0.358733 0
M  V30 1756 H 167.534 4.68075 0.048498 0
M  V30 1757 H 167.707 6.47734 -0.185557 0
M  V30 1758 N 161.113 -0.173488 1.56642 0
M  V30 1759 C 162.063 -1.21941 1.92651 0
M  V30 1760 C 163.047 -1.39912 0.794577 0
M  V30 1761 O 164.239 -1.41919 1.05773 0
M  V30 1762 C 161.368 -2.55935 2.28806 0
M  V30 1763 C 160.454 -2.41667 3.48508 0
M  V30 1764 N 160.845 -1.9711 4.65813 0
M  V30 1765 C 159.143 -2.72499 3.53072 0
M  V30 1766 C 159.844 -1.95253 5.47952 0
M  V30 1767 N 158.82 -2.37575 4.88937 0
M  V30 1768 H 162.622 -0.866581 2.80834 0
M  V30 1769 H 160.136 -0.381776 1.57849 0
M  V30 1770 H 162.133 -3.31511 2.52797 0
M  V30 1771 H 160.793 -2.92022 1.41961 0
M  V30 1772 H 161.804 -1.67481 4.90072 0
M  V30 1773 H 158.481 -3.12639 2.767 0
M  V30 1774 H 159.871 -1.6252 6.51948 0
M  V30 1775 N 162.591 -1.51276 -0.441967 0
M  V30 1776 C 163.539 -1.72823 -1.55676 0
M  V30 1777 C 164.533 -0.59445 -1.58627 0
M  V30 1778 O 165.739 -0.775715 -1.62427 0
M  V30 1779 H 162.114 -0.545983 -0.517113 0
M  V30 1780 H 164.085 -2.6628 -1.34675 0
M  V30 1781 C 162.834 -1.86619 -2.93375 0
M  V30 1782 H 162.157 -2.73264 -2.91834 0
M  V30 1783 H 163.597 -2.05709 -3.70756 0
M  V30 1784 C 162.056 -0.624842 -3.31055 0
M  V30 1785 O 162.586 0.222636 -4.01083 0
M  V30 1786 N 160.792 -0.470288 -2.86769 0
M  V30 1787 H 160.339 -1.161 -2.29953 0
M  V30 1788 H 160.297 0.359051 -3.12343 0
M  V30 1789 N 164.069 0.697108 -1.41344 0
M  V30 1790 C 165.299 1.48377 -1.43763 0
M  V30 1791 C 165.707 1.89156 -0.0408726 0
M  V30 1792 O 165.05 1.57239 0.949812 0
M  V30 1793 C 165.112 2.7781 -2.2817 0
M  V30 1794 C 164.776 2.59244 -3.76353 0
M  V30 1795 C 165.773 2.25292 -4.68551 0
M  V30 1796 C 163.458 2.74933 -4.20378 0
M  V30 1797 C 165.452 2.07264 -6.02761 0
M  V30 1798 C 163.139 2.56521 -5.54653 0
M  V30 1799 C 164.137 2.22737 -6.4566 0
M  V30 1800 O 163.825 2.04485 -7.77458 0
M  V30 1801 H 163.557 0.463842 -0.491759 0
M  V30 1802 H 166.111 0.865934 -1.86255 0
M  V30 1803 H 164.341 3.41995 -1.8049 0
M  V30 1804 H 166.03 3.39608 -2.22309 0
M  V30 1805 H 166.796 2.12787 -4.35829 0
M  V30 1806 H 162.675 3.00213 -3.49848 0
M  V30 1807 H 166.219 1.80817 -6.73759 0
M  V30 1808 H 162.116 2.68616 -5.86955 0
M  V30 1809 H 162.884 2.1926 -7.88586 0
M  V30 1810 N 165.547 1.27147 0.931209 0
M  V30 1811 C 166.795 1.13055 1.6752 0
M  V30 1812 C 167.116 -0.324791 1.92276 0
M  V30 1813 O 166.386 -1.22775 1.52654 0
M  V30 1814 H 164.966 0.415391 0.620854 0
M  V30 1815 H 167.628 1.59623 1.11833 0
M  V30 1816 H 166.724 1.65694 2.64485 0
M  V30 1817 N 167.025 -1.13721 1.09112 0
M  V30 1818 C 168.271 -1.85198 0.826414 0
M  V30 1819 C 168.604 -1.83129 -0.646319 0
M  V30 1820 O 167.879 -1.2671 -1.47563 0
M  V30 1821 C 168.162 -3.33507 1.35812 0
M  V30 1822 C 168.015 -3.44108 2.89672 0
M  V30 1823 C 169.334 -4.28838 0.989256 0
M  V30 1824 H 166.453 -0.67243 0.301675 0
M  V30 1825 H 169.095 -1.33499 1.35197 0
M  V30 1826 H 167.245 -3.77666 0.911082 0
M  V30 1827 H 168.917 -3.08684 3.428 0
M  V30 1828 H 167.16 -2.85087 3.26967 0
M  V30 1829 H 167.831 -4.48388 3.21951 0
M  V30 1830 H 170.307 -3.92734 1.37475 0
M  V30 1831 H 169.183 -5.31051 1.38838 0
M  V30 1832 H 169.444 -4.4198 -0.102924 0
M  V30 1833 N 168.503 -0.877838 -1.30888 0
M  V30 1834 C 169.751 -0.491723 -1.96027 0
M  V30 1835 C 170.072 0.960827 -1.69685 0
M  V30 1836 O 169.342 1.67462 -1.01654 0
M  V30 1837 H 167.922 -0.17885 -0.725273 0
M  V30 1838 H 170.584 -1.11935 -1.59551 0
M  V30 1839 H 169.68 -0.656016 -3.05128 0
M  V30 1840 N 169.982 1.44106 -0.638065 0
M  V30 1841 C 170.892 2.34513 0.0637334 0
M  V30 1842 C 171.908 1.53018 0.828346 0
M  V30 1843 O 173.084 1.85723 0.779036 0
M  V30 1844 C 170.149 3.31095 1.02844 0
M  V30 1845 C 169.21 4.28497 0.26244 0
M  V30 1846 C 168.443 5.20465 1.1812 0
M  V30 1847 O 168.666 5.16514 2.42011 0
M  V30 1848 O 167.6 5.98251 0.661774 0
M  V30 1849 H 171.426 2.95989 -0.68003 0
M  V30 1850 H 169.011 1.43994 -0.398252 0
M  V30 1851 H 170.893 3.90526 1.58327 0
M  V30 1852 H 169.568 2.72144 1.7527 0
M  V30 1853 H 168.475 3.72592 -0.335602 0
M  V30 1854 H 169.808 4.90388 -0.421936 0
M  V30 1855 N 171.46 0.379036 1.52974 0
M  V30 1856 C 172.685 -0.209353 2.06341 0
M  V30 1857 C 173.11 -1.40583 1.24972 0
M  V30 1858 O 172.468 -1.79246 0.272155 0
M  V30 1859 C 172.516 -0.567786 3.56102 0
M  V30 1860 O 171.62 -1.66318 3.77375 0
M  V30 1861 H 170.961 -0.0272919 0.663439 0
M  V30 1862 H 173.491 0.543536 1.97248 0
M  V30 1863 H 173.501 -0.835003 3.99364 0
M  V30 1864 H 172.176 0.307013 4.14765 0
M  V30 1865 H 170.753 -1.39048 3.46006 0
M  V30 1866 N 172.938 -1.57226 0.108567 0
M  V30 1867 C 174.185 -1.94833 -0.551943 0
M  V30 1868 C 174.513 -0.991204 -1.67348 0
M  V30 1869 O 173.768 -0.0131878 -1.95696 0
M  V30 1870 C 174.067 -3.38911 -1.13463 0
M  V30 1871 C 173.733 -4.50696 -0.135509 0
M  V30 1872 C 172.395 -4.80998 0.139252 0
M  V30 1873 C 174.747 -5.18333 0.545957 0
M  V30 1874 C 172.075 -5.76259 1.10194 0
M  V30 1875 C 174.427 -6.14627 1.49721 0
M  V30 1876 C 173.091 -6.43327 1.78006 0
M  V30 1877 H 172.361 -0.712944 -0.20197 0
M  V30 1878 H 175.008 -1.90582 0.18726 0
M  V30 1879 H 173.313 -3.39805 -1.95037 0
M  V30 1880 H 175.01 -3.65317 -1.65362 0
M  V30 1881 H 171.6 -4.27087 -0.359846 0
M  V30 1882 H 175.784 -4.95087 0.346842 0
M  V30 1883 H 171.04 -5.96804 1.32795 0
M  V30 1884 H 175.214 -6.66126 2.03099 0
M  V30 1885 H 172.841 -7.1695 2.52759 0
M  V30 1886 N 174.416 0.165178 -1.56732 0
M  V30 1887 C 175.644 0.896218 -1.86482 0
M  V30 1888 C 176.059 1.75555 -0.694675 0
M  V30 1889 O 175.416 1.79379 0.33607 0
M  V30 1890 C 175.467 1.76792 -3.1532 0
M  V30 1891 O 175.188 0.943239 -4.27825 0
M  V30 1892 C 176.689 2.6081 -3.58459 0
M  V30 1893 H 173.909 0.260064 -0.618553 0
M  V30 1894 H 176.453 0.163428 -2.03846 0
M  V30 1895 H 174.608 2.45398 -2.99764 0
M  V30 1896 H 175.022 1.53998 -5.01383 0
M  V30 1897 H 176.496 3.17579 -4.51495 0
M  V30 1898 H 176.973 3.35977 -2.82872 0
M  V30 1899 H 177.579 1.97526 -3.76648 0
M  V30 1900 N 175.894 1.51508 0.433938 0
M  V30 1901 C 177.14 1.64588 1.18484 0
M  V30 1902 C 177.473 0.362666 1.90784 0
M  V30 1903 O 176.748 -0.637892 1.83742 0
M  V30 1904 C 177.031 2.85149 2.19913 0
M  V30 1905 C 176.884 4.23456 1.51674 0
M  V30 1906 C 178.203 3.01227 3.20858 0
M  V30 1907 H 175.322 0.598994 0.429389 0
M  V30 1908 H 177.964 1.84002 0.473647 0
M  V30 1909 H 176.114 2.68729 2.80566 0
M  V30 1910 H 177.786 4.51552 0.943322 0
M  V30 1911 H 176.029 4.25998 0.819035 0
M  V30 1912 H 176.7 5.03812 2.2556 0
M  V30 1913 H 179.176 3.16382 2.70263 0
M  V30 1914 H 178.052 3.87141 3.89118 0
M  V30 1915 H 178.313 2.13447 3.8716 0
M  V30 1916 N 177.372 -0.689602 1.41712 0
M  V30 1917 C 178.304 -1.815 1.39966 0
M  V30 1918 C 179.317 -1.59995 0.300917 0
M  V30 1919 O 180.506 -1.69387 0.563039 0
M  V30 1920 C 177.606 -3.18364 1.16179 0
M  V30 1921 C 176.779 -3.66847 2.38206 0
M  V30 1922 C 175.838 -4.82398 2.10186 0
M  V30 1923 O 174.864 -4.93706 2.83272 0
M  V30 1924 N 176.066 -5.70064 1.0958 0
M  V30 1925 H 178.831 -1.83488 2.36965 0
M  V30 1926 H 176.392 -0.872149 1.36401 0
M  V30 1927 H 178.384 -3.93301 0.953756 0
M  V30 1928 H 176.954 -3.11365 0.27756 0
M  V30 1929 H 176.174 -2.82751 2.74673 0
M  V30 1930 H 177.462 -3.95978 3.19498 0
M  V30 1931 H 176.86 -5.63565 0.491019 0
M  V30 1932 H 175.417 -6.44874 0.947656 0
M  V30 1933 N 178.85 -1.27639 -0.924453 0
M  V30 1934 C 180.266 -1.05113 -1.20097 0
M  V30 1935 C 180.466 0.213262 -2.00368 0
M  V30 1936 O 179.522 0.91787 -2.35226 0
M  V30 1937 C 180.835 -2.29244 -1.94596 0
M  V30 1938 C 182.383 -2.34315 -2.07522 0
M  V30 1939 C 182.858 -3.58183 -2.85427 0
M  V30 1940 N 184.349 -3.5876 -2.92994 0
M  V30 1941 C 185.084 -4.51277 -3.53746 0
M  V30 1942 N 184.58 -5.54102 -4.15863 0
M  V30 1943 N 186.373 -4.38894 -3.51181 0
M  V30 1944 H 178.524 -2.08821 -0.388264 0
M  V30 1945 H 180.787 -0.918568 -0.234385 0
M  V30 1946 H 180.493 -3.21301 -1.43034 0
M  V30 1947 H 180.367 -2.34816 -2.95197 0
M  V30 1948 H 182.754 -1.42762 -2.58269 0
M  V30 1949 H 182.835 -2.32744 -1.06131 0
M  V30 1950 H 182.479 -4.50074 -2.35363 0
M  V30 1951 H 182.409 -3.57006 -3.8711 0
M  V30 1952 H 184.9 -2.84398 -2.4885 0
M  V30 1953 H 185.213 -6.20859 -4.60168 0
M  V30 1954 H 183.558 -5.57941 -4.144 0
M  V30 1955 H 186.749 -3.57772 -3.01856 0
M  V30 1956 H 186.922 -5.11186 -3.98237 0
M  V30 1957 N 180.328 1.1314 -1.09713 0
M  V30 1958 C 181.744 1.36477 -0.827423 0
M  V30 1959 C 181.944 1.93654 0.556817 0
M  V30 1960 O 181 2.15791 1.31112 0
M  V30 1961 C 182.313 2.31334 -1.92106 0
M  V30 1962 C 183.861 2.44943 -1.94864 0
M  V30 1963 C 184.336 3.4311 -3.0338 0
M  V30 1964 N 185.827 3.50662 -3.02639 0
M  V30 1965 C 186.562 4.2651 -3.83246 0
M  V30 1966 N 186.058 5.05485 -4.73768 0
M  V30 1967 N 187.851 4.2184 -3.71493 0
M  V30 1968 H 180.002 0.743807 -1.9895 0
M  V30 1969 H 182.265 0.389823 -0.864143 0
M  V30 1970 H 181.971 1.96483 -2.91698 0
M  V30 1971 H 181.845 3.31381 -1.80184 0
M  V30 1972 H 184.232 2.79079 -0.959099 0
M  V30 1973 H 184.313 1.4481 -2.10864 0
M  V30 1974 H 183.957 3.09704 -4.02549 0
M  V30 1975 H 183.887 4.43055 -2.84622 0
M  V30 1976 H 186.378 2.94315 -2.37039 0
M  V30 1977 H 186.691 5.60675 -5.3185 0
M  V30 1978 H 185.036 5.04708 -4.77802 0
M  V30 1979 H 188.227 3.5922 -3.00131 0
M  V30 1980 H 188.4 4.80697 -4.3455 0
M  V30 1981 N 181.806 0.884767 1.30421 0
M  V30 1982 C 183.052 0.503851 1.96441 0
M  V30 1983 C 183.385 -0.944518 1.69684 0
M  V30 1984 O 182.66 -1.66737 1.00145 0
M  V30 1985 C 182.943 0.779085 3.51571 0
M  V30 1986 C 182.796 2.27807 3.87846 0
M  V30 1987 C 184.115 0.255452 4.39358 0
M  V30 1988 H 181.234 0.184533 0.713524 0
M  V30 1989 H 183.876 1.10872 1.54297 0
M  V30 1990 H 182.026 0.264274 3.876 0
M  V30 1991 H 183.698 2.86127 3.61841 0
M  V30 1992 H 181.941 2.74479 3.35922 0
M  V30 1993 H 182.612 2.42125 4.96064 0
M  V30 1994 H 185.088 0.696079 4.10236 0
M  V30 1995 H 183.964 0.477361 5.4682 0
M  V30 1996 H 184.225 -0.843293 4.33983 0
M  V30 1997 N 183.284 -1.43765 0.645699 0
M  V30 1998 C 184.194 -2.34544 -0.0512957 0
M  V30 1999 C 185.21 -1.53455 -0.82022 0
M  V30 2000 O 186.386 -1.86133 -0.769176 0
M  V30 2001 C 183.451 -3.31636 -1.01087 0
M  V30 2002 C 182.512 -4.2863 -0.239712 0
M  V30 2003 C 181.745 -5.21084 -1.15358 0
M  V30 2004 O 181.968 -5.1779 -2.39269 0
M  V30 2005 O 180.902 -5.98593 -0.630038 0
M  V30 2006 H 184.728 -2.95624 0.695718 0
M  V30 2007 H 182.313 -1.43781 0.405882 0
M  V30 2008 H 184.195 -3.9136 -1.56254 0
M  V30 2009 H 182.87 -2.73069 -1.73824 0
M  V30 2010 H 181.777 -3.72408 0.355356 0
M  V30 2011 H 183.11 -4.90157 0.447936 0
M  V30 2012 N 184.763 -0.387143 -1.52771 0
M  V30 2013 C 186.174 0.0873634 -1.86495 0
M  V30 2014 C 186.525 1.46336 -1.30691 0
M  V30 2015 O 185.65 2.068 -0.637409 0
M  V30 2016 C 186.245 0.165305 -3.38396 0
M  V30 2017 C 184.804 0.584101 -3.7184 0
M  V30 2018 C 183.951 -0.255279 -2.76122 0
M  V30 2019 H 186.902 -0.605104 -1.46711 0
M  V30 2020 H 186.923 0.984848 -3.67534 0
M  V30 2021 H 186.435 -0.836301 -3.78982 0
M  V30 2022 H 184.536 1.59315 -3.36823 0
M  V30 2023 H 184.649 0.343749 -4.77865 0
M  V30 2024 H 183.013 0.279126 -2.53166 0
M  V30 2025 H 183.796 -1.25482 -3.19545 0
M  V30 2026 N 186.241 1.57166 -0.116904 0
M  V30 2027 C 187.188 2.15202 0.83408 0
M  V30 2028 C 188.158 1.07644 1.26499 0
M  V30 2029 O 189.343 1.35541 1.34288 0
M  V30 2030 C 186.483 2.75405 2.07957 0
M  V30 2031 C 185.596 3.97264 1.69721 0
M  V30 2032 C 184.731 4.45561 2.89221 0
M  V30 2033 C 183.77 5.59956 2.47215 0
M  V30 2034 N 182.907 6.03006 3.59622 0
M  V30 2035 H 187.747 2.96141 0.332335 0
M  V30 2036 H 185.284 1.46309 0.152349 0
M  V30 2037 H 187.242 3.08439 2.80929 0
M  V30 2038 H 185.872 1.97159 2.55594 0
M  V30 2039 H 184.924 3.70404 0.866316 0
M  V30 2040 H 186.236 4.80226 1.34849 0
M  V30 2041 H 185.39 4.80493 3.7042 0
M  V30 2042 H 184.129 3.61544 3.27318 0
M  V30 2043 H 183.134 5.2463 1.64448 0
M  V30 2044 H 184.359 6.45738 2.10238 0
M  V30 2045 H 182.305 5.21931 3.97396 0
M  V30 2046 H 182.222 6.80819 3.28667 0
M  V30 2047 H 183.49 6.42576 4.41267 0
M  V30 2048 N 187.719 -0.156864 1.56817 0
M  V30 2049 C 188.965 -0.872416 1.83076 0
M  V30 2050 C 189.298 -1.81261 0.697001 0
M  V30 2051 O 188.573 -1.92171 -0.30008 0
M  V30 2052 C 188.856 -1.65551 3.19789 0
M  V30 2053 C 188.709 -0.737467 4.43713 0
M  V30 2054 C 190.028 -2.62012 3.53606 0
M  V30 2055 H 187.147 -0.315715 0.665953 0
M  V30 2056 H 189.789 -0.138004 1.89498 0
M  V30 2057 H 187.939 -2.28159 3.14445 0
M  V30 2058 H 189.611 -0.123143 4.61136 0
M  V30 2059 H 187.854 -0.0464067 4.33775 0
M  V30 2060 H 188.525 -1.32122 5.35955 0
M  V30 2061 H 191.001 -2.09525 3.59497 0
M  V30 2062 H 189.877 -3.13861 4.50314 0
M  V30 2063 H 190.138 -3.42902 2.79053 0
M  V30 2064 N 189.197 -1.51736 -0.425897 0
M  V30 2065 C 190.425 -1.68794 -1.1965 0
M  V30 2066 C 190.84 -0.390164 -1.84725 0
M  V30 2067 O 190.197 0.632376 -1.71194 0
M  V30 2068 C 190.248 -2.81174 -2.27208 0
M  V30 2069 O 189.969 -4.05925 -1.64793 0
M  V30 2070 C 191.47 -3.09599 -3.17275 0
M  V30 2071 H 188.69 -0.566128 -0.360194 0
M  V30 2072 H 191.234 -1.98211 -0.503249 0
M  V30 2073 H 189.389 -2.54324 -2.9223 0
M  V30 2074 H 189.803 -4.68423 -2.35967 0
M  V30 2075 H 191.277 -3.91786 -3.88854 0
M  V30 2076 H 191.754 -2.22468 -3.78688 0
M  V30 2077 H 192.36 -3.38151 -2.57941 0
M  V30 2078 N 190.675 0.682077 -1.42076 0
M  V30 2079 C 191.921 1.44428 -1.42367 0
M  V30 2080 C 192.254 1.94164 -0.0373056 0
M  V30 2081 O 191.529 1.70429 0.937239 0
M  V30 2082 C 191.812 2.64654 -2.44194 0
M  V30 2083 C 191.665 2.20596 -3.91991 0
M  V30 2084 C 192.984 3.66865 -2.431 0
M  V30 2085 H 190.103 0.523834 -0.518428 0
M  V30 2086 H 192.745 0.77576 -1.73442 0
M  V30 2087 H 190.895 3.2169 -2.17826 0
M  V30 2088 H 192.567 1.68783 -4.29313 0
M  V30 2089 H 190.81 1.52242 -4.06208 0
M  V30 2090 H 191.481 3.06921 -4.58807 0
M  V30 2091 H 193.957 3.19531 -2.66532 0
M  V30 2092 H 192.833 4.48577 -3.16339 0
M  V30 2093 H 193.094 4.17493 -1.45437 0
M  V30 2094 N 192.153 1.28127 0.917671 0
M  V30 2095 C 193.383 1.17722 1.6978 0
M  V30 2096 C 193.791 -0.267261 1.87303 0
M  V30 2097 O 193.134 -1.19286 1.39702 0
M  V30 2098 C 193.196 1.79958 3.11216 0
M  V30 2099 C 192.86 3.29187 3.16993 0
M  V30 2100 C 193.857 4.25679 2.98485 0
M  V30 2101 C 191.542 3.70075 3.39632 0
M  V30 2102 C 193.536 5.61035 3.02521 0
M  V30 2103 C 191.223 5.05557 3.433 0
M  V30 2104 C 192.221 6.00847 3.24764 0
M  V30 2105 O 191.909 7.33859 3.28187 0
M  V30 2106 H 191.641 0.409788 0.537634 0
M  V30 2107 H 194.195 1.69694 1.15728 0
M  V30 2108 H 192.425 1.22475 3.66793 0
M  V30 2109 H 194.114 1.64125 3.71238 0
M  V30 2110 H 194.88 3.95426 2.80826 0
M  V30 2111 H 190.759 2.96373 3.53106 0
M  V30 2112 H 194.303 6.35388 2.87971 0
M  V30 2113 H 190.2 5.35462 3.60486 0
M  V30 2114 H 190.968 7.42436 3.44575 0
M  V30 2115 N 193.631 -1.12557 1.10312 0
M  V30 2116 C 195.042 -1.65574 0.862678 0
M  V30 2117 C 195.393 -1.86566 -0.607256 0
M  V30 2118 O 194.518 -1.59121 -1.46662 0
M  V30 2119 C 195.113 -3.00776 1.55947 0
M  V30 2120 C 193.672 -3.50748 1.36576 0
M  V30 2121 C 192.819 -2.25797 1.60968 0
M  V30 2122 H 195.77 -0.963552 1.26101 0
M  V30 2123 H 195.791 -3.67185 0.997753 0
M  V30 2124 H 195.303 -2.85465 2.62928 0
M  V30 2125 H 193.404 -3.71245 0.317531 0
M  V30 2126 H 193.517 -4.30289 2.10686 0
M  V30 2127 H 191.881 -2.32841 1.03234 0
M  V30 2128 H 192.664 -2.13043 2.69198 0
M  V30 2129 N 195.109 -0.891671 -1.2995 0
M  V30 2130 C 196.072 -0.36828 -2.26222 0
M  V30 2131 C 197.072 0.493014 -1.53056 0
M  V30 2132 O 198.262 0.299213 -1.71611 0
M  V30 2133 C 195.394 0.47442 -3.37583 0
M  V30 2134 H 196.587 -1.21844 -2.74033 0
M  V30 2135 H 194.14 -0.669107 -1.41254 0
M  V30 2136 H 194.875 1.34489 -2.95099 0
M  V30 2137 H 194.66 -0.142615 -3.91841 0
M  V30 2138 H 196.15 0.83218 -4.09224 0
M  V30 2139 N 196.587 1.43421 -0.653314 0
M  V30 2140 C 198.003 1.56341 -0.320886 0
M  V30 2141 C 198.203 1.63696 1.17499 0
M  V30 2142 O 197.259 1.59208 1.95982 0
M  V30 2143 C 198.572 2.82424 -1.03233 0
M  V30 2144 C 200.12 2.96168 -1.01259 0
M  V30 2145 C 200.595 4.25084 -1.70492 0
M  V30 2146 N 202.086 4.31948 -1.67257 0
M  V30 2147 C 202.821 5.30466 -2.17701 0
M  V30 2148 N 202.317 6.35261 -2.76434 0
M  V30 2149 N 204.11 5.2212 -2.082 0
M  V30 2150 H 196.261 1.3689 -1.62403 0
M  V30 2151 H 198.524 0.657455 -0.682977 0
M  V30 2152 H 198.23 2.83053 -2.08744 0
M  V30 2153 H 198.104 3.72653 -0.583948 0
M  V30 2154 H 200.491 2.9508 0.0341235 0
M  V30 2155 H 200.572 2.07229 -1.49966 0
M  V30 2156 H 200.216 4.26932 -2.7512 0
M  V30 2157 H 200.146 5.1292 -1.19251 0
M  V30 2158 H 202.637 3.56838 -1.24398 0
M  V30 2159 H 202.95 7.06754 -3.12601 0
M  V30 2160 H 201.295 6.35884 -2.80495 0
M  V30 2161 H 204.486 4.39166 -1.62021 0
M  V30 2162 H 204.659 5.98739 -2.47822 0
M  V30 2163 N 198.065 0.39524 1.52563 0
M  V30 2164 C 199.293 -0.184943 2.06072 0
M  V30 2165 C 199.708 -1.40021 1.26647 0
M  V30 2166 O 199.065 -1.79767 0.314672 0
M  V30 2167 C 199.116 -0.549179 3.57304 0
M  V30 2168 O 198.837 0.617813 4.33722 0
M  V30 2169 C 200.338 -1.18459 4.2718 0
M  V30 2170 H 197.558 -0.0265025 0.670476 0
M  V30 2171 H 200.102 0.562184 1.96621 0
M  V30 2172 H 198.257 -1.2462 3.66809 0
M  V30 2173 H 198.671 0.317091 5.23541 0
M  V30 2174 H 200.145 -1.38976 5.34219 0
M  V30 2175 H 200.622 -2.15368 3.82771 0
M  V30 2176 H 201.228 -0.528163 4.22008 0
M  V30 2177 N 199.544 -1.57102 0.125237 0
M  V30 2178 C 200.476 -2.12726 -0.853237 0
M  V30 2179 C 201.489 -1.07145 -1.22571 0
M  V30 2180 O 202.678 -1.34497 -1.17358 0
M  V30 2181 C 199.778 -2.61709 -2.15317 0
M  V30 2182 C 198.951 -3.91456 -1.95143 0
M  V30 2183 C 198.01 -4.25973 -3.08923 0
M  V30 2184 O 197.036 -4.94682 -2.81564 0
M  V30 2185 N 198.238 -3.83795 -4.35524 0
M  V30 2186 H 201.003 -2.97307 -0.377964 0
M  V30 2187 H 198.564 -1.61792 -0.0590011 0
M  V30 2188 H 200.556 -2.81826 -2.90441 0
M  V30 2189 H 199.126 -1.81974 -2.54174 0
M  V30 2190 H 198.346 -3.80185 -1.04177 0
M  V30 2191 H 199.634 -4.76283 -1.78976 0
M  V30 2192 H 199.032 -3.2839 -4.60626 0
M  V30 2193 H 197.589 -4.09008 -5.07499 0
M  V30 2194 N 201.022 0.148545 -1.56898 0
M  V30 2195 C 202.25 0.876389 -1.87422 0
M  V30 2196 C 202.665 1.74809 -0.713256 0
M  V30 2197 O 202.022 1.79725 0.317025 0
M  V30 2198 C 202.073 1.73438 -3.17178 0
M  V30 2199 O 201.794 0.897809 -4.28802 0
M  V30 2200 C 203.295 2.56993 -3.61205 0
M  V30 2201 H 200.515 0.253489 -0.621277 0
M  V30 2202 H 203.059 0.141798 -2.04008 0
M  V30 2203 H 201.214 2.42205 -3.0235 0
M  V30 2204 H 201.628 1.48672 -5.02988 0
M  V30 2205 H 203.102 3.12773 -4.54838 0
M  V30 2206 H 203.579 3.32958 -2.86419 0
M  V30 2207 H 204.185 1.9352 -3.78722 0
M  V30 2208 N 202.5 1.5196 0.417844 0
M  V30 2209 C 203.43 1.77634 1.51554 0
M  V30 2210 C 204.411 0.626918 1.58126 0
M  V30 2211 O 205.596 0.871632 1.7354 0
M  V30 2212 C 202.726 1.91911 2.8946 0
M  V30 2213 C 201.68 3.07463 2.97743 0
M  V30 2214 C 201.006 3.06951 4.37819 0
M  V30 2215 C 202.306 4.47082 2.70027 0
M  V30 2216 H 204 2.6955 1.3032 0
M  V30 2217 H 201.546 1.29706 0.625492 0
M  V30 2218 H 203.499 2.08455 3.6623 0
M  V30 2219 H 202.223 0.966598 3.11969 0
M  V30 2220 H 200.882 2.90656 2.23416 0
M  V30 2221 H 200.53 2.09438 4.57323 0
M  V30 2222 H 200.23 3.84556 4.44286 0
M  V30 2223 H 201.754 3.25613 5.16535 0
M  V30 2224 H 203.168 4.6414 3.36522 0
M  V30 2225 H 201.565 5.2654 2.87881 0
M  V30 2226 H 202.635 4.55777 1.65514 0
M  V30 2227 N 203.978 -0.674533 1.42435 0
M  V30 2228 C 204.91 -1.80005 1.41883 0
M  V30 2229 C 205.923 -1.59667 0.31787 0
M  V30 2230 O 207.112 -1.68781 0.580973 0
M  V30 2231 C 204.212 -3.17114 1.19549 0
M  V30 2232 C 203.385 -3.64299 2.42084 0
M  V30 2233 C 202.444 -4.80142 2.15291 0
M  V30 2234 O 201.47 -4.90673 2.88493 0
M  V30 2235 N 202.672 -5.68869 1.1562 0
M  V30 2236 H 205.437 -1.80964 2.38898 0
M  V30 2237 H 202.998 -0.857633 1.37318 0
M  V30 2238 H 204.99 -3.92267 0.995417 0
M  V30 2239 H 203.56 -3.11053 0.310569 0
M  V30 2240 H 202.78 -2.79822 2.77657 0
M  V30 2241 H 204.068 -3.92567 3.23679 0
M  V30 2242 H 203.466 -5.63012 0.550765 0
M  V30 2243 H 202.023 -6.43833 1.016 0
M  V30 2244 N 205.456 -1.28612 -0.910864 0
M  V30 2245 C 206.406 -1.09423 -2.00026 0
M  V30 2246 C 207.39 -0.0170079 -1.60891 0
M  V30 2247 O 208.582 -0.237472 -1.754 0
M  V30 2248 C 205.711 -0.76114 -3.34756 0
M  V30 2249 C 204.797 -1.87735 -3.80285 0
M  V30 2250 N 205.188 -3.11938 -3.98156 0
M  V30 2251 C 203.486 -1.76786 -4.09467 0
M  V30 2252 C 204.187 -3.84687 -4.36338 0
M  V30 2253 N 203.163 -3.12555 -4.44759 0
M  V30 2254 H 206.965 -2.03658 -2.11898 0
M  V30 2255 H 204.479 -1.19573 -1.09891 0
M  V30 2256 H 206.476 -0.604743 -4.12491 0
M  V30 2257 H 205.136 0.173403 -3.24237 0
M  V30 2258 H 206.147 -3.47516 -3.83996 0
M  V30 2259 H 202.824 -0.905284 -4.07567 0
M  V30 2260 H 204.214 -4.91518 -4.58104 0
M  V30 2261 N 206.934 1.1197 -1.10907 0
M  V30 2262 C 207.884 2.15946 -0.731538 0
M  V30 2263 C 208.868 1.58758 0.261699 0
M  V30 2264 O 210.06 1.76863 0.0696722 0
M  V30 2265 C 207.189 3.42877 -0.170299 0
M  V30 2266 C 206.275 4.07037 -1.19087 0
M  V30 2267 N 206.666 4.46135 -2.38322 0
M  V30 2268 C 204.964 4.33884 -1.03252 0
M  V30 2269 C 205.665 4.96331 -3.03366 0
M  V30 2270 N 204.641 4.9214 -2.30865 0
M  V30 2271 H 208.443 2.43947 -1.63912 0
M  V30 2272 H 205.957 1.28927 -0.987505 0
M  V30 2273 H 207.954 4.16732 0.118271 0
M  V30 2274 H 206.614 3.16343 0.731935 0
M  V30 2275 H 207.625 4.38345 -2.75815 0
M  V30 2276 H 204.302 4.17084 -0.186256 0
M  V30 2277 H 205.692 5.36257 -4.04818 0
M  V30 2278 N 208.412 0.89855 1.29475 0
M  V30 2279 C 209.36 0.365253 2.29714 0
M  V30 2280 C 210.354 -0.534993 1.6073 0
M  V30 2281 O 211.56 -0.417921 1.75081 0
M  V30 2282 H 207.935 0.0994853 0.74539 0
M  V30 2283 H 209.906 1.22406 2.72138 0
M  V30 2284 C 208.655 -0.393159 3.4547 0
M  V30 2285 H 207.978 0.290332 3.98744 0
M  V30 2286 H 209.418 -0.731189 4.17648 0
M  V30 2287 C 207.877 -1.59539 2.9673 0
M  V30 2288 O 208.407 -2.69469 2.97908 0
M  V30 2289 N 206.613 -1.43716 2.52575 0
M  V30 2290 H 206.16 -0.542828 2.51816 0
M  V30 2291 H 206.118 -2.24288 2.20323 0
M  V30 2292 N 209.89 -1.43072 0.660911 0
M  V30 2293 C 210.82 -2.33497 -0.0122829 0
M  V30 2294 C 211.801 -1.49903 -0.803925 0
M  V30 2295 O 212.986 -1.78546 -0.763864 0
M  V30 2296 C 210.116 -3.33363 -0.973994 0
M  V30 2297 C 209.07 -4.27003 -0.291928 0
M  V30 2298 C 208.396 -5.16967 -1.36562 0
M  V30 2299 C 209.696 -5.15816 0.820462 0
M  V30 2300 H 211.39 -2.90038 0.742873 0
M  V30 2301 H 208.936 -1.39461 0.358688 0
M  V30 2302 H 210.889 -3.95524 -1.45392 0
M  V30 2303 H 209.613 -2.75095 -1.7604 0
M  V30 2304 H 208.272 -3.66217 0.167623 0
M  V30 2305 H 207.92 -4.55034 -2.14366 0
M  V30 2306 H 207.62 -5.80441 -0.914454 0
M  V30 2307 H 209.144 -5.82003 -1.84675 0
M  V30 2308 H 210.558 -5.71742 0.422366 0
M  V30 2309 H 208.955 -5.8805 1.19656 0
M  V30 2310 H 210.025 -4.55045 1.67518 0
M  V30 2311 N 211.368 -0.403325 -1.52352 0
M  V30 2312 C 212.298 0.416205 -2.29761 0
M  V30 2313 C 213.279 1.05123 -1.33728 0
M  V30 2314 O 214.464 1.06134 -1.62632 0
M  V30 2315 C 211.594 1.53624 -3.11475 0
M  V30 2316 C 210.548 1.02653 -4.15507 0
M  V30 2317 C 209.874 2.23971 -4.85532 0
M  V30 2318 C 211.174 0.08463 -5.22231 0
M  V30 2319 H 212.868 -0.229701 -2.98518 0
M  V30 2320 H 210.414 -0.111913 -1.43564 0
M  V30 2321 H 212.367 2.1165 -3.64393 0
M  V30 2322 H 211.091 2.20994 -2.40477 0
M  V30 2323 H 209.75 0.46871 -3.63591 0
M  V30 2324 H 209.398 2.89883 -4.11068 0
M  V30 2325 H 209.098 1.90521 -5.55856 0
M  V30 2326 H 210.622 2.82614 -5.41259 0
M  V30 2327 H 212.036 0.573509 -5.70424 0
M  V30 2328 H 210.433 -0.160783 -5.99885 0
M  V30 2329 H 211.503 -0.86237 -4.7717 0
M  V30 2330 N 212.846 1.57033 -0.133567 0
M  V30 2331 C 214.092 1.95976 0.521649 0
M  V30 2332 C 214.425 1.01779 1.65393 0
M  V30 2333 O 213.7 0.0576581 1.94415 0
M  V30 2334 C 213.983 3.44738 1.04057 0
M  V30 2335 C 213.836 4.49711 -0.0892897 0
M  V30 2336 C 215.155 3.95682 1.92675 0
M  V30 2337 H 212.274 0.712579 0.188149 0
M  V30 2338 H 214.916 1.88813 -0.212076 0
M  V30 2339 H 213.066 3.50973 1.66583 0
M  V30 2340 H 214.738 4.55565 -0.725152 0
M  V30 2341 H 212.981 4.27261 -0.750378 0
M  V30 2342 H 213.652 5.51099 0.315284 0
M  V30 2343 H 216.128 3.91841 1.39998 0
M  V30 2344 H 215.004 5.00262 2.25897 0
M  V30 2345 H 215.265 3.37239 2.85872 0
M  V30 2346 N 214.325 -0.140222 1.56975 0
M  V30 2347 C 215.565 -0.857823 1.85528 0
M  V30 2348 C 215.929 -1.78039 0.718768 0
M  V30 2349 O 217.13 -2.53795 0.885521 0
M  V30 2350 C 215.401 -1.60615 3.19277 0
M  V30 2351 S 216.96 -2.36824 3.69405 0
M  V30 2352 H 213.778 -0.286727 0.650622 0
M  V30 2353 H 216.38 -0.117408 1.95147 0
M  V30 2354 H 215.084 -0.919994 3.99955 0
M  V30 2355 H 214.615 -2.38735 3.12681 0
M  V30 2356 H 216.63 -3.62148 3.3921 0
M  V30 2357 N 215.803 -1.52179 -0.40978 0
M  V30 2358 C 217.028 -1.70347 -1.18308 0
M  V30 2359 C 217.453 -0.411887 -1.83535 0
M  V30 2360 O 216.811 0.630587 -1.6998 0
M  V30 2361 C 216.859 -2.83977 -2.22238 0
M  V30 2362 O 215.963 -2.495 -3.28365 0
M  V30 2363 H 215.304 -0.567103 -0.345384 0
M  V30 2364 H 217.834 -1.98879 -0.480445 0
M  V30 2365 H 217.844 -3.0887 -2.66577 0
M  V30 2366 H 216.519 -3.77685 -1.74146 0
M  V30 2367 H 215.096 -2.35277 -2.89308 0
M  V30 2368 N 217.281 0.66697 -1.42791 0
M  V30 2369 C 218.527 1.4291 -1.43891 0
M  V30 2370 C 218.86 1.94114 -0.0578972 0
M  V30 2371 O 218.135 1.71414 0.91911 0
M  V30 2372 C 218.418 2.62049 -2.46987 0
M  V30 2373 C 218.271 2.16426 -3.94309 0
M  V30 2374 C 219.59 3.64266 -2.46978 0
M  V30 2375 H 216.709 0.518306 -0.523954 0
M  V30 2376 H 219.351 0.757321 -1.74255 0
M  V30 2377 H 217.501 3.19361 -2.21225 0
M  V30 2378 H 219.173 1.64221 -4.31079 0
M  V30 2379 H 217.416 1.47925 -4.078 0
M  V30 2380 H 218.087 3.02038 -4.62036 0
M  V30 2381 H 220.563 3.16686 -2.69906 0
M  V30 2382 H 219.439 4.45196 -3.21079 0
M  V30 2383 H 219.7 4.15927 -1.49857 0
M  V30 2384 N 218.759 1.29093 0.90403 0
M  V30 2385 C 219.707 1.13727 2.02901 0
M  V30 2386 C 220.701 0.0539853 1.69314 0
M  V30 2387 O 221.907 0.213469 1.7873 0
M  V30 2388 H 218.282 0.35117 0.664969 0
M  V30 2389 H 220.253 2.08982 2.13001 0
M  V30 2390 C 219.002 0.826066 3.37745 0
M  V30 2391 H 218.325 1.65164 3.64089 0
M  V30 2392 H 219.765 0.758559 4.17159 0
M  V30 2393 C 218.224 -0.470541 3.33598 0
M  V30 2394 O 218.754 -1.49792 3.72727 0
M  V30 2395 N 216.96 -0.474812 2.86695 0
M  V30 2396 H 216.507 0.361692 2.55048 0
M  V30 2397 H 216.465 -1.34236 2.84303 0
M  V30 2398 N 220.237 -1.11381 1.11499 0
M  V30 2399 C 221.485 -1.8277 0.862524 0
M  V30 2400 C 221.806 -1.85097 -0.613534 0
M  V30 2401 O 221.076 -1.32198 -1.4457 0
M  V30 2402 H 219.656 -0.676823 0.316101 0
M  V30 2403 H 222.318 -1.34816 1.4075 0
M  V30 2404 H 221.414 -2.86614 1.23527 0
M  V30 2405 N 221.715 -0.905404 -1.28997 0
M  V30 2406 C 222.962 -0.534248 -1.95325 0
M  V30 2407 C 223.29 0.920535 -1.71337 0
M  V30 2408 O 222.545 1.66861 -1.02254 0
M  V30 2409 C 222.844 -0.779906 -3.48787 0
M  V30 2410 C 222.51 -2.21293 -3.92861 0
M  V30 2411 C 221.172 -2.60475 -4.04606 0
M  V30 2412 C 223.524 -3.14587 -4.15553 0
M  V30 2413 C 220.852 -3.9212 -4.36416 0
M  V30 2414 C 223.204 -4.45787 -4.48839 0
M  V30 2415 C 221.868 -4.84834 -4.58794 0
M  V30 2416 H 221.138 -0.195495 -0.714747 0
M  V30 2417 H 223.785 -1.14514 -1.53488 0
M  V30 2418 H 222.09 -0.0861365 -3.91705 0
M  V30 2419 H 223.787 -0.472029 -3.98212 0
M  V30 2420 H 220.377 -1.89887 -3.84241 0
M  V30 2421 H 224.561 -2.85528 -4.0594 0
M  V30 2422 H 219.817 -4.22086 -4.42327 0
M  V30 2423 H 223.991 -5.18098 -4.65346 0
M  V30 2424 H 221.618 -5.86877 -4.83197 0
M  V30 2425 N 223.193 1.4272 -0.668489 0
M  V30 2426 C 224.423 2.05668 -0.196063 0
M  V30 2427 C 224.831 1.5028 1.14946 0
M  V30 2428 O 224.174 0.6348 1.72383 0
M  V30 2429 C 224.236 3.59469 -0.0468879 0
M  V30 2430 C 223.9 4.37518 -1.32012 0
M  V30 2431 C 224.897 4.68584 -2.25222 0
M  V30 2432 C 222.582 4.77266 -1.56596 0
M  V30 2433 C 224.576 5.38326 -3.41297 0
M  V30 2434 C 222.263 5.4675 -2.72962 0
M  V30 2435 C 223.261 5.77204 -3.65137 0
M  V30 2436 O 222.949 6.45264 -4.79468 0
M  V30 2437 H 222.681 0.669382 -0.0943599 0
M  V30 2438 H 225.235 1.83954 -0.913788 0
M  V30 2439 H 223.465 3.79817 0.726357 0
M  V30 2440 H 225.154 4.04071 0.384852 0
M  V30 2441 H 225.92 4.38382 -2.07477 0
M  V30 2442 H 221.799 4.52959 -0.857249 0
M  V30 2443 H 225.343 5.62014 -4.13263 0
M  V30 2444 H 221.24 5.76369 -2.90635 0
M  V30 2445 H 222.008 6.63753 -4.78931 0
M  V30 2446 N 224.671 0.411399 1.52136 0
M  V30 2447 C 226.082 -0.0576826 1.86611 0
M  V30 2448 C 226.433 -1.44238 1.33003 0
M  V30 2449 O 225.558 -2.05759 0.670228 0
M  V30 2450 C 226.153 -0.111448 3.38617 0
M  V30 2451 C 224.712 -0.52487 3.72723 0
M  V30 2452 C 223.859 0.299176 2.75681 0
M  V30 2453 H 226.81 0.628368 1.4573 0
M  V30 2454 H 226.831 -0.926252 3.69054 0
M  V30 2455 H 226.343 0.896488 3.77604 0
M  V30 2456 H 224.444 -1.53936 3.39315 0
M  V30 2457 H 224.557 -0.267681 4.78352 0
M  V30 2458 H 222.921 -0.238814 2.53578 0
M  V30 2459 H 223.704 1.3055 3.17508 0
M  V30 2460 N 226.149 -1.5696 0.141893 0
M  V30 2461 C 227.397 -1.95573 -0.509484 0
M  V30 2462 C 227.718 -1.02746 -1.65736 0
M  V30 2463 O 226.988 -0.0880311 -1.95702 0
M  V30 2464 H 225.568 -0.722115 -0.191205 0
M  V30 2465 H 228.23 -1.93697 0.216196 0
M  V30 2466 H 227.326 -2.99171 -0.889 0
M  V30 2467 N 227.627 0.131896 -1.57047 0
M  V30 2468 C 228.852 0.860418 -1.8871 0
M  V30 2469 C 229.277 1.73251 -0.73251 0
M  V30 2470 O 228.635 1.785 0.317429 0
M  V30 2471 C 228.683 1.68047 -3.19049 0
M  V30 2472 O 227.787 2.7862 -3.04047 0
M  V30 2473 H 227.128 0.238743 -0.619595 0
M  V30 2474 H 229.658 0.118169 -2.04258 0
M  V30 2475 H 229.668 2.07238 -3.51449 0
M  V30 2476 H 228.343 1.04018 -4.02682 0
M  V30 2477 H 226.92 2.42726 -2.83088 0
M  V30 2478 N 229.106 1.52395 0.401703 0
M  V30 2479 C 230.355 1.66044 1.14509 0
M  V30 2480 C 230.668 0.400216 1.91462 0
M  V30 2481 O 231.874 0.416632 2.68284 0
M  V30 2482 C 230.33 2.93388 2.0845 0
M  V30 2483 C 229.938 4.26545 1.36978 0
M  V30 2484 C 231.682 3.16402 2.83001 0
M  V30 2485 C 229.589 5.45007 2.29611 0
M  V30 2486 H 228.519 0.618562 0.431158 0
M  V30 2487 H 231.17 1.78886 0.40892 0
M  V30 2488 H 229.552 2.74263 2.8565 0
M  V30 2489 H 230.726 4.56179 0.650916 0
M  V30 2490 H 229.041 4.09692 0.74438 0
M  V30 2491 H 231.638 4.02085 3.52465 0
M  V30 2492 H 231.981 2.30943 3.46368 0
M  V30 2493 H 232.514 3.36034 2.12898 0
M  V30 2494 H 229.253 6.32835 1.70879 0
M  V30 2495 H 228.773 5.19702 2.9945 0
M  V30 2496 H 230.452 5.7838 2.89974 0
M  V30 2497 N 230.584 -0.659388 1.43143 0
M  V30 2498 C 231.494 -1.80167 1.50256 0
M  V30 2499 C 232.51 -1.69571 0.390106 0
M  V30 2500 O 233.686 -1.90849 0.643319 0
M  V30 2501 C 230.751 -3.16409 1.41725 0
M  V30 2502 C 229.812 -3.38848 2.63591 0
M  V30 2503 C 229.045 -4.68591 2.55458 0
M  V30 2504 O 229.268 -5.47532 1.59891 0
M  V30 2505 O 228.202 -4.92614 3.45854 0
M  V30 2506 H 232.028 -1.77121 2.46702 0
M  V30 2507 H 229.613 -0.817092 1.25076 0
M  V30 2508 H 231.495 -3.9768 1.39387 0
M  V30 2509 H 230.17 -3.20059 0.484118 0
M  V30 2510 H 229.077 -2.57366 2.71502 0
M  V30 2511 H 230.41 -3.4004 3.55856 0
M  V30 2512 N 232.062 -1.29571 -0.897171 0
M  V30 2513 C 233.308 -1.17863 -1.65034 0
M  V30 2514 C 233.641 0.268729 -1.92332 0
M  V30 2515 O 232.916 1.19378 -1.53555 0
M  V30 2516 C 233.199 -1.995 -2.99786 0
M  V30 2517 C 233.052 -3.5239 -2.79538 0
M  V30 2518 C 234.371 -1.82335 -4.00552 0
M  V30 2519 H 231.49 -0.429528 -0.598895 0
M  V30 2520 H 234.132 -1.59072 -1.03905 0
M  V30 2521 H 232.282 -1.64485 -3.51962 0
M  V30 2522 H 233.954 -3.97401 -2.34244 0
M  V30 2523 H 232.197 -3.77187 -2.14273 0
M  V30 2524 H 232.868 -4.04787 -3.75302 0
M  V30 2525 H 235.344 -2.12924 -3.57495 0
M  V30 2526 H 234.22 -2.41801 -4.92771 0
M  V30 2527 H 234.481 -0.779209 -4.35179 0
M  V30 2528 N 233.54 1.10788 -1.12088 0
M  V30 2529 C 234.956 1.34691 -0.856186 0
M  V30 2530 C 235.156 1.94791 0.515615 0
M  V30 2531 O 234.212 2.18524 1.26505 0
M  V30 2532 C 235.525 2.27208 -1.9697 0
M  V30 2533 C 237.073 2.40755 -2.00016 0
M  V30 2534 C 237.548 3.36598 -3.1059 0
M  V30 2535 N 239.039 3.44164 -3.10008 0
M  V30 2536 C 239.774 4.18284 -3.92206 0
M  V30 2537 N 239.27 4.95322 -4.84384 0
M  V30 2538 N 241.063 4.13865 -3.80357 0
M  V30 2539 H 233.214 0.70144 -2.00483 0
M  V30 2540 H 235.477 0.371405 -0.872217 0
M  V30 2541 H 235.183 1.90251 -2.958 0
M  V30 2542 H 235.057 3.27485 -1.87172 0
M  V30 2543 H 237.444 2.76982 -1.01808 0
M  V30 2544 H 237.525 1.40305 -2.13888 0
M  V30 2545 H 237.169 3.01096 -4.09028 0
M  V30 2546 H 237.099 4.36918 -2.93956 0
M  V30 2547 H 239.59 2.8922 -2.43228 0
M  V30 2548 H 239.903 5.49267 -5.43623 0
M  V30 2549 H 238.248 4.94459 -4.884 0
M  V30 2550 H 241.439 3.52773 -3.07683 0
M  V30 2551 H 241.612 4.71372 -4.44649 0
M  V30 2552 N 235.018 0.912232 1.28515 0
M  V30 2553 C 236.264 0.554851 1.95686 0
M  V30 2554 C 236.619 -0.89138 1.70506 0
M  V30 2555 O 235.912 -1.62529 1.01464 0
M  V30 2556 C 236.106 0.798392 3.48368 0
M  V30 2557 C 235.935 2.26674 3.88393 0
M  V30 2558 C 234.705 2.91657 4.12631 0
M  V30 2559 C 236.903 3.24303 3.99164 0
M  V30 2560 N 234.885 4.28805 4.39317 0
M  V30 2561 C 236.256 4.4661 4.30046 0
M  V30 2562 C 238.311 3.19723 3.81683 0
M  V30 2563 C 237.014 5.64915 4.45268 0
M  V30 2564 C 239.04 4.37325 3.98121 0
M  V30 2565 C 238.402 5.58406 4.29375 0
M  V30 2566 H 234.501 0.252876 0.739985 0
M  V30 2567 H 237.085 1.17565 1.55199 0
M  V30 2568 H 235.256 0.20688 3.87849 0
M  V30 2569 H 236.988 0.405193 4.02666 0
M  V30 2570 H 233.743 2.42393 4.06869 0
M  V30 2571 H 234.167 4.99712 4.56746 0
M  V30 2572 H 238.809 2.27191 3.56573 0
M  V30 2573 H 236.527 6.57927 4.6921 0
M  V30 2574 H 240.113 4.35282 3.86033 0
M  V30 2575 H 238.993 6.47889 4.41825 0
M  V30 2576 N 236.496 -1.42363 0.676048 0
M  V30 2577 C 237.743 -2.01522 0.19883 0
M  V30 2578 C 238.071 -1.53456 -1.19505 0
M  V30 2579 O 237.326 -0.727967 -1.81657 0
M  V30 2580 C 237.625 -3.56929 0.183431 0
M  V30 2581 C 237.291 -4.24431 1.52215 0
M  V30 2582 C 235.953 -4.42585 1.8887 0
M  V30 2583 C 238.305 -4.62459 2.40377 0
M  V30 2584 C 235.633 -4.96039 3.13309 0
M  V30 2585 C 237.985 -5.17294 3.64129 0
M  V30 2586 C 236.649 -5.33661 4.00951 0
M  V30 2587 H 235.919 -0.737419 0.0727571 0
M  V30 2588 H 238.566 -1.70531 0.871281 0
M  V30 2589 H 236.871 -3.87594 -0.572532 0
M  V30 2590 H 238.568 -4.00486 -0.203035 0
M  V30 2591 H 235.158 -4.10661 1.22701 0
M  V30 2592 H 239.342 -4.48105 2.13343 0
M  V30 2593 H 234.598 -5.06896 3.41857 0
M  V30 2594 H 238.772 -5.45704 4.32644 0
M  V30 2595 H 236.399 -5.74845 4.9745 0
M  V30 2596 N 237.974 -0.419461 -1.51915 0
M  V30 2597 C 239.39 -0.0708431 -1.59443 0
M  V30 2598 C 239.59 1.41796 -1.43164 0
M  V30 2599 O 238.646 2.18596 -1.26381 0
M  V30 2600 C 239.959 -0.574991 -2.95151 0
M  V30 2601 C 241.507 -0.533867 -3.08413 0
M  V30 2602 C 241.982 -1.01469 -4.46618 0
M  V30 2603 N 243.473 -0.971939 -4.52888 0
M  V30 2604 C 244.208 -1.31505 -5.58116 0
M  V30 2605 N 243.704 -1.73014 -6.70849 0
M  V30 2606 N 245.497 -1.23436 -5.48379 0
M  V30 2607 H 237.648 -1.38836 -1.60743 0
M  V30 2608 H 239.911 -0.570998 -0.756747 0
M  V30 2609 H 239.617 -1.61597 -3.12377 0
M  V30 2610 H 239.491 0.00979777 -3.77199 0
M  V30 2611 H 241.878 0.498086 -2.90866 0
M  V30 2612 H 241.959 -1.15484 -2.28248 0
M  V30 2613 H 241.603 -2.04502 -4.6491 0
M  V30 2614 H 241.533 -0.370433 -5.25295 0
M  V30 2615 H 244.024 -0.666893 -3.71969 0
M  V30 2616 H 244.337 -1.97479 -7.47143 0
M  V30 2617 H 242.682 -1.76926 -6.72103 0
M  V30 2618 H 245.873 -0.908869 -4.59192 0
M  V30 2619 H 246.046 -1.50506 -6.30279 0
M  V30 2620 N 239.452 1.56882 -0.150215 0
M  V30 2621 C 240.4 2.18214 0.805313 0
M  V30 2622 C 241.394 1.14006 1.25296 0
M  V30 2623 O 242.6 1.3225 1.22107 0
M  V30 2624 H 238.975 0.698762 0.277913 0
M  V30 2625 H 240.946 2.97231 0.263862 0
M  V30 2626 C 239.695 2.82065 2.03309 0
M  V30 2627 H 239.018 3.61968 1.69763 0
M  V30 2628 H 240.458 3.28477 2.68103 0
M  V30 2629 C 238.917 1.80739 2.84315 0
M  V30 2630 O 239.447 1.27983 3.80767 0
M  V30 2631 N 237.653 1.4997 2.48913 0
M  V30 2632 H 237.2 1.93062 1.70542 0
M  V30 2633 H 237.158 0.824217 3.03404 0
M  V30 2634 N 240.93 -0.123565 1.57115 0
M  V30 2635 C 242.155 -0.850398 1.89164 0
M  V30 2636 C 242.58 -1.7286 0.741688 0
M  V30 2637 O 241.938 -1.78665 -0.307958 0
M  V30 2638 C 241.986 -1.66353 3.19936 0
M  V30 2639 O 241.09 -2.77004 3.0552 0
M  V30 2640 H 240.431 -0.235454 0.620852 0
M  V30 2641 H 242.961 -0.107335 2.04318 0
M  V30 2642 H 242.971 -2.05372 3.52543 0
M  V30 2643 H 241.646 -1.01881 4.03228 0
M  V30 2644 H 240.223 -2.41221 2.84371 0
M  V30 2645 N 242.408 -1.52605 -0.393616 0
M  V30 2646 C 243.34 -1.73303 -1.49995 0
M  V30 2647 C 244.353 -0.613473 -1.50799 0
M  V30 2648 O 245.542 -0.889049 -1.54784 0
M  V30 2649 C 242.642 -1.77245 -2.88855 0
M  V30 2650 C 241.815 -3.06483 -3.12069 0
M  V30 2651 C 240.874 -3.02033 -4.30886 0
M  V30 2652 O 239.9 -3.75907 -4.27414 0
M  V30 2653 N 241.102 -2.20897 -5.36828 0
M  V30 2654 H 243.867 -2.68756 -1.32629 0
M  V30 2655 H 241.428 -1.51036 -0.583083 0
M  V30 2656 H 243.42 -1.7178 -3.66434 0
M  V30 2657 H 241.99 -0.891993 -2.99603 0
M  V30 2658 H 241.21 -3.25474 -2.22396 0
M  V30 2659 H 242.498 -3.91947 -3.2443 0
M  V30 2660 H 241.896 -1.60336 -5.42502 0
M  V30 2661 H 240.453 -2.21275 -6.13091 0
M  V30 2662 N 243.887 0.651787 -1.4349 0
M  V30 2663 C 244.797 1.79368 -1.5121 0
M  V30 2664 C 245.813 1.69361 -0.399093 0
M  V30 2665 O 246.989 1.90505 -0.653431 0
M  V30 2666 C 244.054 3.15653 -1.43401 0
M  V30 2667 C 243.115 3.37446 -2.65384 0
M  V30 2668 C 242.348 4.67229 -2.57939 0
M  V30 2669 O 242.571 5.46676 -1.62792 0
M  V30 2670 O 241.505 4.90773 -3.48462 0
M  V30 2671 H 245.331 1.7581 -2.47638 0
M  V30 2672 H 242.916 0.810447 -1.25507 0
M  V30 2673 H 244.798 3.96935 -1.41494 0
M  V30 2674 H 243.473 3.19798 -0.501085 0
M  V30 2675 H 242.38 2.55923 -2.72863 0
M  V30 2676 H 243.713 3.38148 -3.57654 0
M  V30 2677 N 245.365 1.30045 0.890287 0
M  V30 2678 C 246.275 1.17885 2.02831 0
M  V30 2679 C 247.291 0.0999609 1.73713 0
M  V30 2680 O 248.467 0.313867 1.98939 0
M  V30 2681 C 245.532 0.866079 3.35708 0
M  V30 2682 C 244.593 2.02979 3.78283 0
M  V30 2683 C 243.826 1.73184 5.0482 0
M  V30 2684 O 244.049 0.657237 5.66601 0
M  V30 2685 O 242.983 2.58267 5.43674 0
M  V30 2686 H 246.809 2.13474 2.16015 0
M  V30 2687 H 244.394 1.09587 1.01543 0
M  V30 2688 H 246.276 0.706623 4.15433 0
M  V30 2689 H 244.951 -0.0599443 3.23644 0
M  V30 2690 H 243.858 2.24454 2.99285 0
M  V30 2691 H 245.191 2.93734 3.94944 0
M  V30 2692 N 246.843 -1.10192 1.12674 0
M  V30 2693 C 247.79 -2.16606 0.796906 0
M  V30 2694 C 248.76 -1.64394 -0.237476 0
M  V30 2695 O 249.945 -1.90474 -0.111484 0
M  V30 2696 C 247.085 -3.44116 0.26043 0
M  V30 2697 C 246.198 -4.10268 1.35293 0
M  V30 2698 C 245.333 -5.25507 0.775621 0
M  V30 2699 C 244.372 -5.83567 1.84706 0
M  V30 2700 N 243.509 -6.90179 1.28829 0
M  V30 2701 H 248.349 -2.44163 1.70846 0
M  V30 2702 H 245.886 -1.19846 0.85295 0
M  V30 2703 H 247.844 -4.17143 -0.0686814 0
M  V30 2704 H 246.474 -3.16901 -0.614274 0
M  V30 2705 H 245.526 -3.35184 1.79877 0
M  V30 2706 H 246.838 -4.4946 2.16303 0
M  V30 2707 H 245.992 -6.05398 0.397327 0
M  V30 2708 H 244.731 -4.87656 -0.0656581 0
M  V30 2709 H 243.736 -5.02344 2.23452 0
M  V30 2710 H 244.961 -6.23482 2.69161 0
M  V30 2711 H 242.907 -6.54322 0.468881 0
M  V30 2712 H 242.824 -7.28097 2.03497 0
M  V30 2713 H 244.092 -7.73844 0.937311 0
M  V30 2714 N 248.321 -0.919034 -1.28029 0
M  V30 2715 C 249.284 -0.416182 -2.2539 0
M  V30 2716 C 250.284 0.460438 -1.54067 0
M  V30 2717 O 251.474 0.262744 -1.72207 0
M  V30 2718 C 248.606 0.402707 -3.38513 0
M  V30 2719 H 249.799 -1.27629 -2.71387 0
M  V30 2720 H 247.352 -0.698919 -1.39803 0
M  V30 2721 H 248.087 1.282 -2.97885 0
M  V30 2722 H 247.872 -0.225698 -3.9145 0
M  V30 2723 H 249.362 0.745191 -4.10897 0
M  V30 2724 N 249.799 1.42003 -0.683588 0
M  V30 2725 C 251.047 2.01015 -0.209101 0
M  V30 2726 C 251.368 1.54365 1.19149 0
M  V30 2727 O 250.638 0.769083 1.80172 0
M  V30 2728 H 249.218 0.743294 -0.074315 0
M  V30 2729 H 251.88 1.73798 -0.882066 0
M  V30 2730 H 250.976 3.11343 -0.2172 0
M  V30 2731 N 251.277 0.427512 1.51691 0
M  V30 2732 C 252.523 -0.142439 2.02299 0
M  V30 2733 C 252.856 -1.43214 1.31162 0
M  V30 2734 O 252.131 -1.89833 0.423511 0
M  V30 2735 C 252.414 -0.371301 3.58181 0
M  V30 2736 C 252.267 0.936358 4.39946 0
M  V30 2737 C 253.586 -1.14542 4.24933 0
M  V30 2738 H 250.705 -0.0502937 0.735282 0
M  V30 2739 H 253.347 0.564584 1.81418 0
M  V30 2740 H 251.497 -0.973559 3.76104 0
M  V30 2741 H 253.169 1.57184 4.33694 0
M  V30 2742 H 251.412 1.5432 4.05423 0
M  V30 2743 H 252.083 0.730388 5.47147 0
M  V30 2744 H 254.559 -0.635362 4.11221 0
M  V30 2745 H 253.435 -1.27431 5.33903 0
M  V30 2746 H 253.696 -2.17093 3.85127 0
M  V30 2747 N 252.755 -1.56801 0.158532 0
M  V30 2748 C 254.001 -1.96781 -0.490405 0
M  V30 2749 C 254.334 -1.04397 -1.63753 0
M  V30 2750 O 253.609 -0.0885805 -1.94298 0
M  V30 2751 C 253.892 -3.4635 -0.985594 0
M  V30 2752 C 253.745 -4.49512 0.160824 0
M  V30 2753 C 255.064 -3.98697 -1.86355 0
M  V30 2754 H 252.183 -0.715482 -0.176788 0
M  V30 2755 H 254.825 -1.88451 0.242088 0
M  V30 2756 H 252.975 -3.53579 -1.60978 0
M  V30 2757 H 254.647 -4.54353 0.797537 0
M  V30 2758 H 252.89 -4.26013 0.818256 0
M  V30 2759 H 253.561 -5.51531 -0.227569 0
M  V30 2760 H 256.037 -3.94019 -1.33746 0
M  V30 2761 H 254.913 -5.03792 -2.17909 0
M  V30 2762 H 255.174 -3.41744 -2.8047 0
M  V30 2763 N 254.233 0.115231 -1.57178 0
M  V30 2764 C 255.458 0.840354 -1.89612 0
M  V30 2765 C 255.883 1.72464 -0.750845 0
M  V30 2766 O 255.241 1.78826 0.298478 0
M  V30 2767 C 255.289 1.64654 -3.20814 0
M  V30 2768 O 254.393 2.7538 -3.06985 0
M  V30 2769 H 253.734 0.232158 -0.622092 0
M  V30 2770 H 256.264 0.0964977 -2.04372 0
M  V30 2771 H 256.274 2.03499 -3.53627 0
M  V30 2772 H 254.949 0.997416 -4.03763 0
M  V30 2773 H 253.526 2.3971 -2.85646 0
M  V30 2774 N 255.711 1.52812 0.385517 0
M  V30 2775 C 256.939 1.71907 1.15133 0
M  V30 2776 C 257.354 0.439004 1.83625 0
M  V30 2777 O 256.711 -0.586765 1.7281 0
M  V30 2778 C 256.762 2.87099 2.19673 0
M  V30 2779 O 256.483 4.10151 1.53973 0
M  V30 2780 C 257.984 3.17902 3.08955 0
M  V30 2781 H 255.204 0.575479 0.345057 0
M  V30 2782 H 257.748 1.99476 0.45052 0
M  V30 2783 H 255.903 2.61982 2.85384 0
M  V30 2784 H 256.317 4.74514 2.23465 0
M  V30 2785 H 257.791 4.01959 3.7833 0
M  V30 2786 H 258.268 2.3243 3.72657 0
M  V30 2787 H 258.874 3.44871 2.48885 0
M  V30 2788 N 257.189 -0.644168 1.43834 0
M  V30 2789 C 258.437 -1.40117 1.45642 0
M  V30 2790 C 258.758 -1.94814 0.0852413 0
M  V30 2791 O 258.028 -1.74988 -0.880688 0
M  V30 2792 H 256.608 -0.52005 0.536243 0
M  V30 2793 H 259.27 -0.7591 1.7951 0
M  V30 2794 H 258.366 -2.23902 2.17427 0
M  V30 2795 N 258.668 -1.30515 -0.883378 0
M  V30 2796 C 259.598 -1.19607 -2.00541 0
M  V30 2797 C 260.579 -0.086346 -1.69881 0
M  V30 2798 O 261.764 -0.268654 -1.92333 0
M  V30 2799 C 258.894 -0.888758 -3.35736 0
M  V30 2800 C 257.848 -1.95659 -3.8066 0
M  V30 2801 C 257.174 -1.50224 -5.13164 0
M  V30 2802 C 258.474 -3.36788 -3.99213 0
M  V30 2803 H 260.168 -2.13476 -2.09925 0
M  V30 2804 H 257.714 -1.02775 -1.00863 0
M  V30 2805 H 259.667 -0.799094 -4.13754 0
M  V30 2806 H 258.391 0.0856125 -3.26488 0
M  V30 2807 H 257.05 -2.03591 -3.04871 0
M  V30 2808 H 256.698 -0.516092 -5.00345 0
M  V30 2809 H 256.398 -2.2165 -5.44192 0
M  V30 2810 H 257.922 -1.42639 -5.93706 0
M  V30 2811 H 259.336 -3.31605 -4.67665 0
M  V30 2812 H 257.733 -4.06314 -4.41621 0
M  V30 2813 H 258.803 -3.78561 -3.03017 0
M  V30 2814 N 260.146 1.09593 -1.13257 0
M  V30 2815 C 261.395 1.81105 -0.887917 0
M  V30 2816 C 261.708 1.86563 0.587672 0
M  V30 2817 O 262.914 2.54367 0.949204 0
M  V30 2818 C 261.37 3.25338 -1.53895 0
M  V30 2819 C 260.978 3.28151 -3.04994 0
M  V30 2820 C 262.722 4.01617 -1.37492 0
M  V30 2821 C 260.629 4.66897 -3.6299 0
M  V30 2822 H 259.559 0.678661 -0.328534 0
M  V30 2823 H 262.21 1.23183 -1.36008 0
M  V30 2824 H 260.592 3.8331 -0.994446 0
M  V30 2825 H 261.766 2.79953 -3.66009 0
M  V30 2826 H 260.081 2.65361 -3.20893 0
M  V30 2827 H 262.678 5.04119 -1.78235 0
M  V30 2828 H 263.021 4.15072 -0.31957 0
M  V30 2829 H 263.554 3.50082 -1.88912 0
M  V30 2830 H 260.293 4.58643 -4.68323 0
M  V30 2831 H 259.813 5.15426 -3.06752 0
M  V30 2832 H 261.492 5.3587 -3.62563 0
M  V30 2833 N 261.624 0.925811 1.2754 0
M  V30 2834 C 262.556 0.380753 2.26015 0
M  V30 2835 C 263.569 -0.487485 1.5533 0
M  V30 2836 O 264.758 -0.300413 1.75954 0
M  V30 2837 C 261.858 -0.473259 3.35579 0
M  V30 2838 C 261.031 0.375249 4.35787 0
M  V30 2839 C 260.09 -0.415809 5.24555 0
M  V30 2840 O 259.116 0.175834 5.68928 0
M  V30 2841 N 260.318 -1.71607 5.54555 0
M  V30 2842 H 263.083 1.22725 2.73421 0
M  V30 2843 H 260.644 0.793037 1.41147 0
M  V30 2844 H 262.636 -1.00949 3.91907 0
M  V30 2845 H 261.206 -1.2205 2.87789 0
M  V30 2846 H 260.426 1.09279 3.7875 0
M  V30 2847 H 261.714 0.955399 4.99749 0
M  V30 2848 H 261.112 -2.2191 5.20358 0
M  V30 2849 H 259.669 -2.19887 6.1359 0
M  V30 2850 N 263.102 -1.41638 0.69111 0
M  V30 2851 C 264.05 -2.32597 0.0115199 0
M  V30 2852 C 265.044 -1.5072 -0.773296 0
M  V30 2853 O 266.25 -1.66685 -0.67942 0
M  V30 2854 H 262.625 -0.751849 -0.0150746 0
M  V30 2855 H 264.596 -2.87593 0.795791 0
M  V30 2856 C 263.345 -3.35467 -0.914172 0
M  V30 2857 H 262.668 -3.9852 -0.319687 0
M  V30 2858 H 264.108 -4.01662 -1.35808 0
M  V30 2859 C 262.567 -2.69004 -2.02826 0
M  V30 2860 O 263.097 -2.53444 -3.11655 0
M  V30 2861 N 261.303 -2.2777 -1.80469 0
M  V30 2862 H 260.85 -2.40626 -0.919615 0
M  V30 2863 H 260.808 -1.83635 -2.55197 0
M  V30 2864 N 264.58 -0.43555 -1.51462 0
M  V30 2865 C 265.828 0.131254 -2.01673 0
M  V30 2866 C 266.149 1.43368 -1.32177 0
M  V30 2867 O 265.419 1.90524 -0.455769 0
M  V30 2868 H 263.999 0.0514954 -0.745223 0
M  V30 2869 H 266.661 -0.577847 -1.86137 0
M  V30 2870 H 265.757 0.308446 -3.10572 0
M  V30 2871 N 266.058 1.56714 -0.166846 0
M  V30 2872 C 267.335 1.88412 0.525373 0
M  V30 2873 C 267.715 1.07602 1.81618 0
M  V30 2874 O 267.063 0.168621 2.27877 0
M  V30 2875 C 267.273 3.40363 0.771613 0
M  V30 2876 C 268.621 4.10007 1.1036 0
M  V30 2877 O 269.645 3.45655 0.860304 0
M  V30 2878 O 268.504 5.2369 1.56239 0
M  V30 2879 H 265.598 0.781587 0.270278 0
M  V30 2880 H 268.144 1.68458 -0.204946 0
M  V30 2881 H 266.916 3.91046 -0.141093 0
M  V30 2882 H 266.539 3.65914 1.55541 0
M  V30 2883 N 267.536 -0.106894 1.57237 0
M  V30 2884 C 268.782 -0.808678 1.86633 0
M  V30 2885 C 269.137 -1.76917 0.756178 0
M  V30 2886 O 268.43 -1.90055 -0.242834 0
M  V30 2887 C 268.624 -1.58628 3.20268 0
M  V30 2888 C 268.453 -0.702592 4.44178 0
M  V30 2889 C 267.223 -0.352808 5.04067 0
M  V30 2890 C 269.421 -0.0148031 5.14298 0
M  V30 2891 N 267.403 0.540279 6.11518 0
M  V30 2892 C 268.774 0.736809 6.15606 0
M  V30 2893 C 270.829 0.0603524 4.97863 0
M  V30 2894 C 269.532 1.55654 7.02257 0
M  V30 2895 C 271.558 0.866942 5.85011 0
M  V30 2896 C 270.92 1.60671 6.85831 0
M  V30 2897 H 267.019 -0.27246 0.733001 0
M  V30 2898 H 269.603 -0.0717858 1.94568 0
M  V30 2899 H 267.774 -2.29413 3.13408 0
M  V30 2900 H 269.506 -2.23434 3.3743 0
M  V30 2901 H 266.261 -0.697802 4.68431 0
M  V30 2902 H 266.685 0.979029 6.69884 0
M  V30 2903 H 271.327 -0.497236 4.19866 0
M  V30 2904 H 269.045 2.12524 7.79653 0
M  V30 2905 H 272.631 0.927612 5.74358 0
M  V30 2906 H 271.511 2.2208 7.52097 0
M  V30 2907 N 269.014 -1.53014 -0.377408 0
M  V30 2908 C 270.242 -1.72515 -1.14219 0
M  V30 2909 C 270.657 -0.448735 -1.8339 0
M  V30 2910 O 270.014 0.577592 -1.73119 0
M  V30 2911 C 270.065 -2.8826 -2.18148 0
M  V30 2912 O 269.786 -4.10962 -1.51795 0
M  V30 2913 C 271.287 -3.19536 -3.07264 0
M  V30 2914 H 268.507 -0.577301 -0.342001 0
M  V30 2915 H 271.051 -1.99712 -0.439935 0
M  V30 2916 H 269.206 -2.63492 -2.83991 0
M  V30 2917 H 269.62 -4.75693 -2.20945 0
M  V30 2918 H 271.094 -4.03959 -3.76193 0
M  V30 2919 H 271.571 -2.34403 -3.71419 0
M  V30 2920 H 272.177 -3.46186 -2.47053 0
M  V30 2921 N 270.492 0.636531 -1.44174 0
M  V30 2922 C 271.739 1.39619 -1.46672 0
M  V30 2923 C 272.067 1.94257 -0.0972691 0
M  V30 2924 O 271.322 1.73768 0.900175 0
M  V30 2925 C 271.621 2.58309 -2.47005 0
M  V30 2926 C 271.287 2.21992 -3.92467 0
M  V30 2927 C 269.949 2.118 -4.32081 0
M  V30 2928 C 272.301 1.9321 -4.84065 0
M  V30 2929 C 269.629 1.71007 -5.61225 0
M  V30 2930 C 271.981 1.53911 -6.13591 0
M  V30 2931 C 270.645 1.42257 -6.52165 0
M  V30 2932 H 269.915 0.510902 -0.536712 0
M  V30 2933 H 272.562 0.722328 -1.77355 0
M  V30 2934 H 270.867 3.30903 -2.09786 0
M  V30 2935 H 272.564 3.16533 -2.46186 0
M  V30 2936 H 269.154 2.30841 -3.61124 0
M  V30 2937 H 273.338 1.99997 -4.54219 0
M  V30 2938 H 268.594 1.60583 -5.89935 0
M  V30 2939 H 272.768 1.30677 -6.8403 0
M  V30 2940 H 270.395 1.10419 -7.52138 0
M  V30 2941 N 271.97 1.30982 0.876444 0
M  V30 2942 C 272.902 1.13902 1.98894 0
M  V30 2943 C 273.915 0.0798815 1.62604 0
M  V30 2944 O 275.104 0.326743 1.75484 0
M  V30 2945 C 272.204 0.716699 3.31235 0
M  V30 2946 C 271.377 1.85945 3.95908 0
M  V30 2947 C 270.436 1.42426 5.06558 0
M  V30 2948 O 269.462 2.13287 5.27729 0
M  V30 2949 N 270.664 0.308025 5.79682 0
M  V30 2950 H 273.429 2.09724 2.14094 0
M  V30 2951 H 270.99 1.2323 1.05004 0
M  V30 2952 H 272.982 0.408403 4.02634 0
M  V30 2953 H 271.552 -0.149719 3.12241 0
M  V30 2954 H 270.772 2.33541 3.17573 0
M  V30 2955 H 272.06 2.62503 4.35855 0
M  V30 2956 H 271.458 -0.282241 5.64995 0
M  V30 2957 H 270.015 0.0592282 6.51773 0
M  V30 2958 N 273.449 -1.08991 1.13837 0
M  V30 2959 C 274.677 -1.85011 0.926202 0
M  V30 2960 C 275.092 -1.8135 -0.525127 0
M  V30 2961 O 274.449 -1.21287 -1.36366 0
M  V30 2962 C 274.5 -3.32802 1.41155 0
M  V30 2963 O 274.221 -3.36444 2.80601 0
M  V30 2964 C 275.722 -4.25649 1.23847 0
M  V30 2965 H 272.942 -0.584249 0.32999 0
M  V30 2966 H 275.486 -1.37688 1.51202 0
M  V30 2967 H 273.641 -3.77536 0.868631 0
M  V30 2968 H 274.055 -4.28657 3.02248 0
M  V30 2969 H 275.529 -5.27485 1.62675 0
M  V30 2970 H 276.006 -4.38828 0.18065 0
M  V30 2971 H 276.612 -3.86735 1.76964 0
M  V30 2972 N 274.927 -0.932562 -1.27047 0
M  V30 2973 C 275.857 -0.452902 -2.29066 0
M  V30 2974 C 276.838 0.489338 -1.62909 0
M  V30 2975 O 278.023 0.393046 -1.90181 0
M  V30 2976 C 275.153 0.290698 -3.46081 0
M  V30 2977 C 274.107 -0.564168 -4.24265 0
M  V30 2978 C 273.433 0.308886 -5.33807 0
M  V30 2979 C 274.733 -1.83112 -4.89149 0
M  V30 2980 H 276.427 -1.30552 -2.69437 0
M  V30 2981 H 273.973 -0.629201 -1.29526 0
M  V30 2982 H 275.926 0.637233 -4.16554 0
M  V30 2983 H 274.65 1.17738 -3.0464 0
M  V30 2984 H 273.309 -0.893477 -3.55545 0
M  V30 2985 H 272.957 1.19467 -4.88607 0
M  V30 2986 H 272.657 -0.259633 -5.87026 0
M  V30 2987 H 274.181 0.650884 -6.07121 0
M  V30 2988 H 275.595 -1.55236 -5.51883 0
M  V30 2989 H 273.992 -2.34353 -5.52448 0
M  V30 2990 H 275.062 -2.54772 -4.12576 0
M  V30 2991 N 276.405 1.4127 -0.698611 0
M  V30 2992 C 277.651 2.01478 -0.231207 0
M  V30 2993 C 277.984 1.55215 1.16713 0
M  V30 2994 O 277.259 0.764672 1.78838 0
M  V30 2995 C 277.542 3.58912 -0.292281 0
M  V30 2996 C 277.395 4.15293 -1.72778 0
M  V30 2997 C 278.714 4.38736 0.346194 0
M  V30 2998 H 275.833 0.732025 -0.0854878 0
M  V30 2999 H 278.475 1.67977 -0.887906 0
M  V30 3000 H 276.625 3.87582 0.26686 0
M  V30 3001 H 278.297 3.97486 -2.341 0
M  V30 3002 H 276.54 3.7022 -2.26096 0
M  V30 3003 H 277.211 5.24452 -1.72202 0
M  V30 3004 H 279.687 4.15897 -0.130035 0
M  V30 3005 H 278.563 5.48221 0.272932 0
M  V30 3006 H 278.824 4.18425 1.42734 0
M  V30 3007 N 277.883 0.443576 1.51229 0
M  V30 3008 C 278.816 -0.410089 2.24485 0
M  V30 3009 C 279.794 -1.01949 1.26669 0
M  V30 3010 O 280.978 -1.06075 1.55821 0
M  V30 3011 C 278.105 -1.57211 3.00004 0
M  V30 3012 C 277.151 -1.08279 4.12526 0
M  V30 3013 S 277.984 -0.0197476 5.35496 0
M  V30 3014 C 279.14 -1.18629 6.14555 0
M  V30 3015 H 279.373 0.211832 2.96544 0
M  V30 3016 H 276.906 0.228156 1.52705 0
M  V30 3017 H 278.864 -2.23825 3.44111 0
M  V30 3018 H 277.525 -2.16547 2.27522 0
M  V30 3019 H 276.718 -1.95193 4.64667 0
M  V30 3020 H 276.32 -0.494797 3.70713 0
M  V30 3021 H 278.612 -2.10344 6.4402 0
M  V30 3022 H 279.555 -0.70472 7.04584 0
M  V30 3023 H 279.963 -1.42768 5.46148 0
M  V30 3024 N 279.361 -1.56624 0.175154 0
M  V30 3025 C 280.291 -2.21155 -0.749195 0
M  V30 3026 C 281.272 -1.16836 -1.23626 0
M  V30 3027 O 282.457 -1.45277 -1.28873 0
M  V30 3028 C 279.587 -2.8553 -1.97711 0
M  V30 3029 C 278.541 -3.95921 -1.62575 0
M  V30 3030 C 277.867 -4.47365 -2.92864 0
M  V30 3031 C 279.167 -5.15323 -0.850838 0
M  V30 3032 H 280.861 -2.98653 -0.211295 0
M  V30 3033 H 278.407 -1.43651 -0.100188 0
M  V30 3034 H 280.36 -3.2935 -2.62881 0
M  V30 3035 H 279.084 -2.05406 -2.53921 0
M  V30 3036 H 277.743 -3.52762 -0.997719 0
M  V30 3037 H 277.391 -3.64027 -3.47122 0
M  V30 3038 H 277.091 -5.21839 -2.70106 0
M  V30 3039 H 278.615 -4.93873 -3.59056 0
M  V30 3040 H 280.029 -5.55812 -1.40521 0
M  V30 3041 H 278.426 -5.95739 -0.722154 0
M  V30 3042 H 279.496 -4.84661 0.152082 0
M  V30 3043 N 280.839 0.0985539 -1.57292 0
M  V30 3044 C 281.749 1.13824 -2.05137 0
M  V30 3045 C 282.765 1.44076 -0.975604 0
M  V30 3046 O 283.941 1.54786 -1.28853 0
M  V30 3047 C 281.006 2.43969 -2.46333 0
M  V30 3048 C 280.067 2.2093 -3.68087 0
M  V30 3049 C 279.3 3.44869 -4.0731 0
M  V30 3050 O 279.523 4.52972 -3.46659 0
M  V30 3051 O 278.457 3.34661 -5.00285 0
M  V30 3052 H 282.283 0.761881 -2.93988 0
M  V30 3053 H 279.868 0.310818 -1.46131 0
M  V30 3054 H 281.75 3.20609 -2.73473 0
M  V30 3055 H 280.425 2.81038 -1.60621 0
M  V30 3056 H 279.332 1.42081 -3.46069 0
M  V30 3057 H 280.665 1.88755 -4.54568 0
M  V30 3058 N 282.317 1.53212 0.369288 0
M  V30 3059 C 283.545 1.73119 1.13303 0
M  V30 3060 C 283.96 0.458455 1.83149 0
M  V30 3061 O 283.317 -0.568403 1.73423 0
M  V30 3062 C 283.368 2.89413 2.16616 0
M  V30 3063 O 283.089 4.11761 1.49614 0
M  V30 3064 C 284.59 3.21161 3.05566 0
M  V30 3065 H 281.81 0.579107 0.338934 0
M  V30 3066 H 284.354 1.99942 0.429338 0
M  V30 3067 H 282.509 2.64994 2.82589 0
M  V30 3068 H 282.923 4.76858 2.18419 0
M  V30 3069 H 284.397 4.05949 3.74045 0
M  V30 3070 H 284.874 2.36369 3.70171 0
M  V30 3071 H 285.48 3.47492 2.45213 0
M  V30 3072 N 283.795 -0.628877 1.44509 0
M  V30 3073 C 285.041 -1.39045 1.47629 0
M  V30 3074 C 285.374 -1.93892 0.109343 0
M  V30 3075 O 284.649 -1.7379 -0.87334 0
M  V30 3076 C 284.932 -2.55408 2.53848 0
M  V30 3077 C 284.785 -2.05896 3.99909 0
M  V30 3078 C 286.104 -3.5759 2.56549 0
M  V30 3079 H 283.223 -0.504232 0.537512 0
M  V30 3080 H 285.865 -0.710854 1.76201 0
M  V30 3081 H 284.015 -3.13384 2.29615 0
M  V30 3082 H 285.687 -1.52734 4.35282 0
M  V30 3083 H 283.93 -1.37061 4.11578 0
M  V30 3084 H 284.601 -2.89681 4.69882 0
M  V30 3085 H 287.077 -3.09419 2.78207 0
M  V30 3086 H 285.953 -4.36527 3.32769 0
M  V30 3087 H 286.214 -4.11808 1.60832 0
M  V30 3088 N 285.273 -1.31445 -0.869486 0
M  V30 3089 C 286.684 -1.19042 -1.43826 0
M  V30 3090 C 287.035 0.202919 -1.95148 0
M  V30 3091 O 286.16 1.10071 -1.86315 0
M  V30 3092 C 286.755 -2.15499 -2.6143 0
M  V30 3093 C 285.314 -2.07028 -3.14351 0
M  V30 3094 C 284.461 -2.04701 -1.87063 0
M  V30 3095 H 287.412 -1.43489 -0.677984 0
M  V30 3096 H 287.433 -1.74488 -3.38134 0
M  V30 3097 H 286.945 -3.16899 -2.24046 0
M  V30 3098 H 285.046 -1.08825 -3.56354 0
M  V30 3099 H 285.159 -2.96157 -3.766 0
M  V30 3100 H 283.523 -1.49724 -2.06046 0
M  V30 3101 H 284.306 -3.07857 -1.51917 0
M  V30 3102 N 286.751 1.08385 -1.14413 0
M  V30 3103 C 288.167 1.32844 -0.884563 0
M  V30 3104 C 288.367 1.95841 0.474181 0
M  V30 3105 O 287.423 2.21158 1.21842 0
M  V30 3106 C 288.736 2.22978 -2.01745 0
M  V30 3107 C 290.284 2.36458 -2.05077 0
M  V30 3108 C 290.759 3.29934 -3.1766 0
M  V30 3109 N 292.25 3.37511 -3.17239 0
M  V30 3110 C 292.985 4.09871 -4.0099 0
M  V30 3111 N 292.481 4.84936 -4.94781 0
M  V30 3112 N 294.274 4.05704 -3.89051 0
M  V30 3113 H 286.425 0.658756 -2.01926 0
M  V30 3114 H 288.688 0.352821 -0.879899 0
M  V30 3115 H 288.394 1.83934 -2.99769 0
M  V30 3116 H 288.268 3.23441 -1.94077 0
M  V30 3117 H 290.655 2.7476 -1.0766 0
M  V30 3118 H 290.736 1.35736 -2.16816 0
M  V30 3119 H 290.38 2.92352 -4.15322 0
M  V30 3120 H 290.31 4.30584 -3.03158 0
M  V30 3121 H 292.801 2.83996 -2.49308 0
M  V30 3122 H 293.114 5.37612 -5.55151 0
M  V30 3123 H 291.459 4.83988 -4.98779 0
M  V30 3124 H 294.65 3.46167 -3.15097 0
M  V30 3125 H 294.823 4.61834 -4.54547 0
M  V30 3126 N 288.23 0.939286 1.26551 0
M  V30 3127 C 289.455 0.602008 1.98471 0
M  V30 3128 C 289.88 -0.815624 1.69497 0
M  V30 3129 O 289.238 -1.54912 0.941905 0
M  V30 3130 C 289.286 0.848407 3.50477 0
M  V30 3131 O 288.39 -0.0804009 4.12322 0
M  V30 3132 H 287.731 0.23049 0.622712 0
M  V30 3133 H 290.261 1.2617 1.61066 0
M  V30 3134 H 290.271 0.768553 4.00696 0
M  V30 3135 H 288.946 1.88171 3.70897 0
M  V30 3136 H 287.523 0.0503508 3.72866 0
M  V30 3137 N 289.708 -1.40897 0.706093 0
M  V30 3138 C 290.956 -2.00657 0.241054 0
M  V30 3139 C 291.277 -1.56241 -1.16678 0
M  V30 3140 O 290.547 -0.79765 -1.78926 0
M  V30 3141 H 289.127 -0.742018 0.0861308 0
M  V30 3142 H 291.789 -1.72372 0.909604 0
M  V30 3143 H 290.885 -3.10958 0.266705 0
M  V30 3144 N 291.186 -0.45159 -1.50991 0
M  V30 3145 C 292.096 0.358431 -2.31846 0
M  V30 3146 C 293.112 1.01438 -1.41373 0
M  V30 3147 O 294.288 1.00663 -1.74439 0
M  V30 3148 C 291.353 1.43704 -3.15515 0
M  V30 3149 C 290.414 0.799742 -4.21785 0
M  V30 3150 C 289.647 1.82696 -5.01456 0
M  V30 3151 O 289.87 3.05105 -4.81941 0
M  V30 3152 O 288.804 1.40958 -5.85162 0
M  V30 3153 H 292.63 -0.302032 -3.02194 0
M  V30 3154 H 290.215 -0.213825 -1.47862 0
M  V30 3155 H 292.097 2.06227 -3.67489 0
M  V30 3156 H 290.772 2.08133 -2.47916 0
M  V30 3157 H 289.679 0.136084 -3.73852 0
M  V30 3158 H 291.012 0.198718 -4.91799 0
M  V30 3159 N 292.664 1.56529 -0.183458 0
M  V30 3160 C 293.91 1.97537 0.459036 0
M  V30 3161 C 294.243 1.06989 1.62071 0
M  V30 3162 O 293.518 0.11948 1.94133 0
M  V30 3163 C 293.801 3.47874 0.930368 0
M  V30 3164 C 293.654 4.492 -0.232317 0
M  V30 3165 C 294.973 4.01612 1.79989 0
M  V30 3166 H 292.092 0.718204 0.165383 0
M  V30 3167 H 294.734 1.88042 -0.272038 0
M  V30 3168 H 292.884 3.56095 1.55333 0
M  V30 3169 H 294.556 4.53027 -0.86972 0
M  V30 3170 H 292.799 4.24657 -0.885928 0
M  V30 3171 H 293.47 5.51823 0.139796 0
M  V30 3172 H 295.946 3.96097 1.27461 0
M  V30 3173 H 294.822 5.07195 2.09867 0
M  V30 3174 H 295.083 3.46163 2.74998 0
M  V30 3175 N 294.142 -0.090211 1.57342 0
M  V30 3176 C 295.372 -0.805055 1.90269 0
M  V30 3177 C 295.78 -1.72561 0.775842 0
M  V30 3178 O 295.123 -1.81839 -0.260843 0
M  V30 3179 C 295.185 -1.66734 3.18497 0
M  V30 3180 C 294.849 -0.918092 4.47683 0
M  V30 3181 C 295.846 -0.245674 5.19319 0
M  V30 3182 C 293.531 -0.890724 4.94339 0
M  V30 3183 C 295.525 0.444088 6.35851 0
M  V30 3184 C 293.212 -0.197179 6.10782 0
M  V30 3185 C 294.21 0.469044 6.81388 0
M  V30 3186 O 293.898 1.15146 7.95611 0
M  V30 3187 H 293.63 -0.235143 0.633785 0
M  V30 3188 H 296.184 -0.0703805 2.05279 0
M  V30 3189 H 294.414 -2.44437 2.99646 0
M  V30 3190 H 296.103 -2.25919 3.37217 0
M  V30 3191 H 296.869 -0.258246 4.84312 0
M  V30 3192 H 292.748 -1.39873 4.39268 0
M  V30 3193 H 296.292 0.964667 6.90898 0
M  V30 3194 H 292.189 -0.18247 6.45242 0
M  V30 3195 H 292.957 1.05885 8.11622 0
M  V30 3196 N 295.62 -1.53406 -0.361157 0
M  V30 3197 C 296.848 -1.73717 -1.12383 0
M  V30 3198 C 297.263 -0.468161 -1.82904 0
M  V30 3199 O 296.62 0.559198 -1.73722 0
M  V30 3200 C 296.671 -2.90558 -2.15078 0
M  V30 3201 O 296.392 -4.12549 -1.47428 0
M  V30 3202 C 297.893 -3.22777 -3.03858 0
M  V30 3203 H 295.113 -0.580896 -0.335858 0
M  V30 3204 H 297.657 -2.00167 -0.418728 0
M  V30 3205 H 295.812 -2.66489 -2.8118 0
M  V30 3206 H 296.226 -4.78009 -2.15887 0
M  V30 3207 H 297.7 -4.07927 -3.71887 0
M  V30 3208 H 298.177 -2.38329 -3.68912 0
M  V30 3209 H 298.783 -3.48787 -2.43367 0
M  V30 3210 N 297.098 0.621204 -1.44841 0
M  V30 3211 C 298.338 1.39201 -1.49674 0
M  V30 3212 C 298.702 1.91561 -0.129764 0
M  V30 3213 O 299.903 2.68748 -0.0527814 0
M  V30 3214 C 298.174 2.519 -2.53537 0
M  V30 3215 S 299.733 3.39916 -2.77494 0
M  V30 3216 H 296.551 0.474758 -0.529269 0
M  V30 3217 H 299.153 0.718171 -1.81831 0
M  V30 3218 H 297.857 2.11761 -3.51547 0
M  V30 3219 H 297.388 3.241 -2.22986 0
M  V30 3220 H 299.403 4.49646 -2.0984 0
M  V30 3221 N 298.576 1.31904 0.862503 0
M  V30 3222 C 299.508 1.16005 1.97675 0
M  V30 3223 C 300.521 0.0971234 1.6251 0
M  V30 3224 O 301.71 0.345337 1.75128 0
M  V30 3225 C 298.81 0.751791 3.30456 0
M  V30 3226 C 297.983 1.90133 3.93914 0
M  V30 3227 C 297.042 1.4779 5.05019 0
M  V30 3228 O 296.068 2.18872 5.25437 0
M  V30 3229 N 297.27 0.369491 5.79323 0
M  V30 3230 H 300.035 2.11982 2.11857 0
M  V30 3231 H 297.596 1.24337 1.03691 0
M  V30 3232 H 299.588 0.451084 4.02178 0
M  V30 3233 H 298.158 -0.116593 3.12382 0
M  V30 3234 H 297.378 2.36896 3.15078 0
M  V30 3235 H 298.666 2.67111 4.33047 0
M  V30 3236 H 298.064 -0.222299 5.65263 0
M  V30 3237 H 296.621 0.128354 6.51674 0
M  V30 3238 N 300.054 -1.07777 1.14986 0
M  V30 3239 C 301.3 -1.80557 0.923422 0
M  V30 3240 C 301.633 -1.86298 -0.548337 0
M  V30 3241 O 300.908 -1.34354 -1.40639 0
M  V30 3242 C 301.191 -3.25839 1.53299 0
M  V30 3243 C 301.044 -3.28269 3.07505 0
M  V30 3244 C 302.363 -4.22991 1.21518 0
M  V30 3245 H 299.482 -0.655493 0.336894 0
M  V30 3246 H 302.124 -1.26144 1.42083 0
M  V30 3247 H 300.274 -3.72306 1.10999 0
M  V30 3248 H 301.946 -2.90079 3.58681 0
M  V30 3249 H 300.189 -2.67355 3.4162 0
M  V30 3250 H 300.86 -4.30691 3.45266 0
M  V30 3251 H 303.336 -3.84894 1.581 0
M  V30 3252 H 302.212 -5.22945 1.66793 0
M  V30 3253 H 302.473 -4.41904 0.131505 0
M  V30 3254 N 301.532 -0.945985 -1.26051 0
M  V30 3255 C 302.442 -0.465633 -2.29933 0
M  V30 3256 C 303.458 0.462761 -1.67733 0
M  V30 3257 O 304.634 0.341118 -1.9849 0
M  V30 3258 C 301.699 0.256994 -3.45746 0
M  V30 3259 C 300.76 -0.708549 -4.23412 0
M  V30 3260 C 299.993 -0.0203135 -5.33696 0
M  V30 3261 O 300.216 1.19571 -5.57726 0
M  V30 3262 O 299.15 -0.701459 -5.97799 0
M  V30 3263 H 302.976 -1.32866 -2.73094 0
M  V30 3264 H 300.561 -0.712071 -1.31339 0
M  V30 3265 H 302.443 0.663852 -4.16138 0
M  V30 3266 H 301.118 1.09533 -3.04605 0
M  V30 3267 H 300.025 -1.16545 -3.55483 0
M  V30 3268 H 301.358 -1.51465 -4.68315 0
M  V30 3269 N 303.011 1.40521 -0.713556 0
M  V30 3270 C 303.961 2.27971 -0.036165 0
M  V30 3271 C 304.945 1.43151 0.734623 0
M  V30 3272 O 306.137 1.66261 0.607158 0
M  V30 3273 C 303.266 3.31661 0.886331 0
M  V30 3274 C 302.352 4.23955 0.110836 0
M  V30 3275 N 302.743 4.97641 -0.904847 0
M  V30 3276 C 301.041 4.44674 0.343692 0
M  V30 3277 C 301.742 5.65322 -1.37064 0
M  V30 3278 N 300.718 5.39162 -0.693168 0
M  V30 3279 H 304.52 2.82384 -0.814645 0
M  V30 3280 H 302.034 1.52948 -0.545963 0
M  V30 3281 H 304.031 3.93154 1.38692 0
M  V30 3282 H 302.691 2.78808 1.66421 0
M  V30 3283 H 303.702 5.01689 -1.28563 0
M  V30 3284 H 300.379 4.02801 1.09805 0
M  V30 3285 H 301.769 6.34359 -2.21447 0
M  V30 3286 N 304.489 0.459591 1.5075 0
M  V30 3287 C 305.9 0.00171547 1.867 0
M  V30 3288 C 306.251 -1.39934 1.37525 0
M  V30 3289 O 305.376 -2.03523 0.735349 0
M  V30 3290 C 305.971 -0.00366298 3.388 0
M  V30 3291 C 304.53 -0.406026 3.74204 0
M  V30 3292 C 303.677 0.38673 2.7459 0
M  V30 3293 H 306.628 0.674413 1.43657 0
M  V30 3294 H 306.649 -0.808371 3.71814 0
M  V30 3295 H 306.161 1.01617 3.74561 0
M  V30 3296 H 304.262 -1.43063 3.4404 0
M  V30 3297 H 304.375 -0.115362 4.78961 0
M  V30 3298 H 302.739 -0.158019 2.54209 0
M  V30 3299 H 303.522 1.40585 3.13194 0
M  V30 3300 N 305.967 -1.56429 0.191757 0
M  V30 3301 C 307.192 -2.02309 -0.456706 0
M  V30 3302 C 307.617 -1.07103 -1.5463 0
M  V30 3303 O 306.975 -0.0539677 -1.8122 0
M  V30 3304 C 307.023 -3.46654 -0.993159 0
M  V30 3305 O 306.127 -3.54559 -2.10622 0
M  V30 3306 H 305.468 -0.655303 -0.107114 0
M  V30 3307 H 307.998 -2.02364 0.301653 0
M  V30 3308 H 308.008 -3.86377 -1.31061 0
M  V30 3309 H 306.683 -4.1544 -0.195504 0
M  V30 3310 H 305.26 -3.26708 -1.79767 0
M  V30 3311 N 307.445 0.0818655 -1.57387 0
M  V30 3312 C 308.691 0.784074 -1.8703 0
M  V30 3313 C 309.024 1.77729 -0.782689 0
M  V30 3314 O 308.299 1.93384 0.208051 0
M  V30 3315 C 308.582 1.50105 -3.27323 0
M  V30 3316 C 308.435 0.524925 -4.46727 0
M  V30 3317 C 309.754 2.44843 -3.65705 0
M  V30 3318 H 306.873 0.283582 -0.680257 0
M  V30 3319 H 309.515 0.0474352 -1.89941 0
M  V30 3320 H 307.665 2.12897 -3.24972 0
M  V30 3321 H 309.337 -0.0970111 -4.61198 0
M  V30 3322 H 307.58 -0.160606 -4.33503 0
M  V30 3323 H 308.251 1.064 -5.41648 0
M  V30 3324 H 310.727 1.92135 -3.69085 0
M  V30 3325 H 309.603 2.92018 -4.64776 0
M  V30 3326 H 309.864 3.29197 -2.95096 0
M  V30 3327 N 308.923 1.53595 0.353017 0
M  V30 3328 C 310.151 1.74311 1.1146 0
M  V30 3329 C 310.566 0.477854 1.82653 0
M  V30 3330 O 309.923 -0.549977 1.74016 0
M  V30 3331 C 309.974 2.91694 2.13534 0
M  V30 3332 O 309.695 4.13325 1.45238 0
M  V30 3333 C 311.196 3.24384 3.02142 0
M  V30 3334 H 308.416 0.582669 0.332773 0
M  V30 3335 H 310.96 2.00386 0.408107 0
M  V30 3336 H 309.115 2.67977 2.79763 0
M  V30 3337 H 309.529 4.79148 2.13349 0
M  V30 3338 H 311.003 4.09893 3.69718 0
M  V30 3339 H 311.48 2.40282 3.67643 0
M  V30 3340 H 312.086 3.50073 2.41514 0
M  V30 3341 N 310.401 -0.613514 1.45168 0
M  V30 3342 C 311.626 -1.40437 1.52618 0
M  V30 3343 C 312.051 -1.87438 0.157707 0
M  V30 3344 O 311.409 -1.59791 -0.856537 0
M  V30 3345 C 311.457 -2.58894 2.51011 0
M  V30 3346 O 310.561 -3.59326 2.02382 0
M  V30 3347 H 309.902 -0.419506 0.514695 0
M  V30 3348 H 312.432 -0.747215 1.90467 0
M  V30 3349 H 312.442 -3.06214 2.69624 0
M  V30 3350 H 311.117 -2.24032 3.50403 0
M  V30 3351 H 309.694 -3.18695 1.93618 0
M  V30 3352 N 311.879 -1.3236 -0.855495 0
M  V30 3353 C 313.29 -1.2056 -1.42556 0
M  V30 3354 C 313.641 0.182209 -1.95352 0
M  V30 3355 O 312.766 1.08088 -1.87472 0
M  V30 3356 C 313.361 -2.1826 -2.59129 0
M  V30 3357 C 311.92 -2.10351 -3.12137 0
M  V30 3358 C 311.067 -2.06674 -1.84882 0
M  V30 3359 H 314.018 -1.442 -0.662727 0
M  V30 3360 H 314.039 -1.78064 -3.36264 0
M  V30 3361 H 313.551 -3.19257 -2.20673 0
M  V30 3362 H 311.652 -1.12599 -3.55179 0
M  V30 3363 H 311.765 -3.00135 -3.73438 0
M  V30 3364 H 310.129 -1.51901 -2.04446 0
M  V30 3365 H 310.912 -3.09451 -1.48643 0
M  V30 3366 N 313.357 1.07166 -1.15556 0
M  V30 3367 C 314.287 2.16403 -0.877046 0
M  V30 3368 C 315.268 1.69217 0.173111 0
M  V30 3369 O 316.453 1.94181 0.027084 0
M  V30 3370 C 313.583 3.45349 -0.367632 0
M  V30 3371 C 312.537 4.05995 -1.35468 0
M  V30 3372 C 311.863 5.30045 -0.704038 0
M  V30 3373 C 313.163 4.45804 -2.72132 0
M  V30 3374 H 314.857 2.39959 -1.79053 0
M  V30 3375 H 312.403 1.15325 -0.862331 0
M  V30 3376 H 314.356 4.21095 -0.160317 0
M  V30 3377 H 313.08 3.21385 0.581326 0
M  V30 3378 H 311.739 3.32296 -1.54839 0
M  V30 3379 H 311.387 5.02373 0.251128 0
M  V30 3380 H 311.087 5.71579 -1.36277 0
M  V30 3381 H 312.611 6.08495 -0.50654 0
M  V30 3382 H 314.025 5.12671 -2.56595 0
M  V30 3383 H 312.422 4.98296 -3.34397 0
M  V30 3384 H 313.492 3.57083 -3.28054 0
M  V30 3385 N 314.835 0.952656 1.25548 0
M  V30 3386 C 316.063 0.623496 1.97282 0
M  V30 3387 C 316.478 -0.803987 1.70826 0
M  V30 3388 O 315.835 -1.53755 0.983147 0
M  V30 3389 C 315.886 0.870209 3.5087 0
M  V30 3390 O 315.607 2.24156 3.76412 0
M  V30 3391 C 317.108 0.553164 4.39835 0
M  V30 3392 H 314.328 0.233931 0.628902 0
M  V30 3393 H 316.872 1.27649 1.59768 0
M  V30 3394 H 315.027 0.263652 3.86502 0
M  V30 3395 H 315.441 2.31021 4.70882 0
M  V30 3396 H 316.915 0.776342 5.46513 0
M  V30 3397 H 317.392 -0.512215 4.36203 0
M  V30 3398 H 317.998 1.13896 4.09766 0
M  V30 3399 N 316.313 -1.40141 0.720998 0
M  V30 3400 C 317.559 -2.01084 0.263231 0
M  V30 3401 C 317.892 -1.57052 -1.14229 0
M  V30 3402 O 317.167 -0.793027 -1.77599 0
M  V30 3403 C 317.45 -3.58401 0.349344 0
M  V30 3404 C 317.303 -4.12491 1.79363 0
M  V30 3405 C 318.622 -4.39231 -0.276351 0
M  V30 3406 H 315.741 -0.730572 0.0971228 0
M  V30 3407 H 318.383 -1.66543 0.914518 0
M  V30 3408 H 316.533 -3.87958 -0.205165 0
M  V30 3409 H 318.205 -3.93711 2.40394 0
M  V30 3410 H 316.448 -3.66576 2.31958 0
M  V30 3411 H 317.119 -5.21646 1.80524 0
M  V30 3412 H 319.595 -4.15637 0.196184 0
M  V30 3413 H 318.471 -5.48586 -0.185681 0
M  V30 3414 H 318.732 -4.20643 -1.36059 0
M  V30 3415 N 317.792 -0.46758 -1.50504 0
M  V30 3416 C 318.702 0.33382 -2.32213 0
M  V30 3417 C 319.718 0.999323 -1.42441 0
M  V30 3418 O 320.894 0.988068 -1.75497 0
M  V30 3419 C 317.959 1.4035 -3.17022 0
M  V30 3420 C 317.02 0.754961 -4.2261 0
M  V30 3421 C 316.253 1.77367 -5.03365 0
M  V30 3422 O 316.476 2.99976 -4.8515 0
M  V30 3423 O 315.41 1.34744 -5.86624 0
M  V30 3424 H 319.236 -0.334067 -3.01857 0
M  V30 3425 H 316.821 -0.229496 -1.47627 0
M  V30 3426 H 318.703 2.02318 -3.69656 0
M  V30 3427 H 317.378 2.05492 -2.5011 0
M  V30 3428 H 316.285 0.0964244 -3.73976 0
M  V30 3429 H 317.618 0.146545 -4.91982 0
M  V30 3430 N 319.27 1.56325 -0.20005 0
M  V30 3431 C 320.516 1.98772 0.431408 0
M  V30 3432 C 320.871 1.0849 1.58895 0
M  V30 3433 O 320.164 0.130331 1.91156 0
M  V30 3434 C 320.358 3.4495 0.935103 0
M  V30 3435 C 320.187 4.49371 -0.172096 0
M  V30 3436 C 318.957 5.0134 -0.631377 0
M  V30 3437 C 321.155 5.04822 -0.982806 0
M  V30 3438 N 319.137 5.89433 -1.71588 0
M  V30 3439 C 320.508 5.89632 -1.91661 0
M  V30 3440 C 322.563 4.87242 -1.02467 0
M  V30 3441 C 321.266 6.58741 -2.88881 0
M  V30 3442 C 323.292 5.57094 -1.98494 0
M  V30 3443 C 322.654 6.41655 -2.90617 0
M  V30 3444 H 318.753 0.771922 0.125144 0
M  V30 3445 H 321.337 1.92266 -0.306883 0
M  V30 3446 H 319.508 3.51946 1.64282 0
M  V30 3447 H 321.24 3.74354 1.53758 0
M  V30 3448 H 317.995 4.73071 -0.223827 0
M  V30 3449 H 318.419 6.38182 -2.25948 0
M  V30 3450 H 323.061 4.21538 -0.326408 0
M  V30 3451 H 320.779 7.23641 -3.5968 0
M  V30 3452 H 324.365 5.45466 -2.0238 0
M  V30 3453 H 323.245 6.94755 -3.63711 0
M  V30 3454 N 320.748 -0.0735177 1.57428 0
M  V30 3455 C 322.164 -0.428264 1.53747 0
M  V30 3456 C 322.364 -1.79272 0.91998 0
M  V30 3457 O 321.42 -2.47051 0.521745 0
M  V30 3458 C 322.733 -0.370914 2.98404 0
M  V30 3459 C 324.281 -0.451224 3.0973 0
M  V30 3460 C 324.756 -0.4238 4.56035 0
M  V30 3461 N 326.247 -0.483925 4.60665 0
M  V30 3462 C 326.982 -0.484891 5.71346 0
M  V30 3463 N 326.478 -0.440775 6.91396 0
M  V30 3464 N 328.271 -0.531319 5.59583 0
M  V30 3465 H 320.422 0.819949 1.95935 0
M  V30 3466 H 322.685 0.307493 0.896745 0
M  V30 3467 H 322.391 0.564956 3.47133 0
M  V30 3468 H 322.265 -1.18176 3.5821 0
M  V30 3469 H 324.652 -1.37752 2.60976 0
M  V30 3470 H 324.733 0.388167 2.52838 0
M  V30 3471 H 324.377 0.498638 5.05446 0
M  V30 3472 H 324.307 -1.2807 5.10789 0
M  V30 3473 H 326.798 -0.522338 3.74273 0
M  V30 3474 H 327.111 -0.44539 7.71515 0
M  V30 3475 H 325.456 -0.40749 6.93804 0
M  V30 3476 H 328.647 -0.563464 4.64696 0
M  V30 3477 H 328.82 -0.528603 6.4584 0
M  V30 3478 N 322.226 -1.5378 -0.344866 0
M  V30 3479 C 323.189 -1.80981 -1.40637 0
M  V30 3480 C 324.189 -0.680816 -1.45676 0
M  V30 3481 O 325.379 -0.949095 -1.46075 0
M  V30 3482 C 322.511 -1.95063 -2.79577 0
M  V30 3483 H 323.704 -2.75803 -1.17783 0
M  V30 3484 H 321.257 -1.45173 -0.579181 0
M  V30 3485 H 321.992 -1.02379 -3.07716 0
M  V30 3486 H 321.777 -2.77198 -2.77315 0
M  V30 3487 H 323.267 -2.17629 -3.56409 0
M  V30 3488 N 323.704 0.605807 -1.45491 0
M  V30 3489 C 324.636 1.73031 -1.5031 0
M  V30 3490 C 325.649 1.57968 -0.393687 0
M  V30 3491 O 326.838 1.65817 -0.660839 0
M  V30 3492 C 323.938 3.11049 -1.34543 0
M  V30 3493 C 323.111 3.52334 -2.59189 0
M  V30 3494 C 322.17 4.69323 -2.37954 0
M  V30 3495 O 321.196 4.7635 -3.11575 0
M  V30 3496 N 322.398 5.62705 -1.4263 0
M  V30 3497 H 325.163 1.6936 -2.4726 0
M  V30 3498 H 322.724 0.79114 -1.41254 0
M  V30 3499 H 324.716 3.87071 -1.18144 0
M  V30 3500 H 323.286 3.09217 -0.458623 0
M  V30 3501 H 322.506 2.66256 -2.90691 0
M  V30 3502 H 323.794 3.76677 -3.42041 0
M  V30 3503 H 323.192 5.59744 -0.818758 0
M  V30 3504 H 321.749 6.38252 -1.32202 0
M  V30 3505 N 325.182 1.32811 0.848464 0
M  V30 3506 C 326.407 1.26882 1.6406 0
M  V30 3507 C 326.832 -0.15913 1.87426 0
M  V30 3508 O 326.19 -1.11258 1.43148 0
M  V30 3509 C 326.238 2.03997 2.97351 0
M  V30 3510 O 325.342 1.39201 3.88197 0
M  V30 3511 H 324.683 0.436982 0.499943 0
M  V30 3512 H 327.213 1.75224 1.0563 0
M  V30 3513 H 327.223 2.14403 3.47124 0
M  V30 3514 H 325.898 3.0783 2.79666 0
M  V30 3515 H 324.475 1.37381 3.46671 0
M  V30 3516 N 326.66 -1.06551 1.16123 0
M  V30 3517 C 327.57 -2.17484 0.879662 0
M  V30 3518 C 328.586 -1.73377 -0.147104 0
M  V30 3519 O 329.762 -2.01379 0.0289128 0
M  V30 3520 C 326.827 -3.44591 0.381829 0
M  V30 3521 C 325.888 -4.0322 1.4735 0
M  V30 3522 C 325.121 -5.24261 0.999324 0
M  V30 3523 O 325.344 -5.70198 -0.151957 0
M  V30 3524 O 324.278 -5.74775 1.78653 0
M  V30 3525 H 328.104 -2.44075 1.80724 0
M  V30 3526 H 325.689 -1.16042 0.940992 0
M  V30 3527 H 327.571 -4.21254 0.111053 0
M  V30 3528 H 326.246 -3.19532 -0.51777 0
M  V30 3529 H 325.153 -3.2806 1.79798 0
M  V30 3530 H 326.486 -4.32568 2.34831 0
M  V30 3531 N 328.138 -0.959301 -1.25041 0
M  V30 3532 C 329.363 -0.633507 -1.97488 0
M  V30 3533 C 329.788 0.788555 -1.70773 0
M  V30 3534 O 329.146 1.53394 -0.966431 0
M  V30 3535 C 329.194 -0.904057 -3.49083 0
M  V30 3536 O 328.298 0.0147939 -4.12397 0
M  V30 3537 H 327.639 -0.240368 -0.618966 0
M  V30 3538 H 330.169 -1.28717 -1.59038 0
M  V30 3539 H 330.179 -0.832203 -3.99423 0
M  V30 3540 H 328.854 -1.94048 -3.67856 0
M  V30 3541 H 327.431 -0.109664 -3.72739 0
M  V30 3542 N 329.616 1.39756 -0.72842 0
M  V30 3543 C 330.579 2.29012 -0.0927297 0
M  V30 3544 C 331.579 1.45992 0.674025 0
M  V30 3545 O 332.769 1.66749 0.50402 0
M  V30 3546 C 329.901 3.29396 0.878137 0
M  V30 3547 H 331.094 2.86729 -0.879011 0
M  V30 3548 H 328.647 1.48293 -0.493847 0
M  V30 3549 H 329.382 2.76722 1.69101 0
M  V30 3550 H 329.167 3.907 0.331051 0
M  V30 3551 H 330.657 3.96199 1.3197 0
M  V30 3552 N 331.094 0.475555 1.50254 0
M  V30 3553 C 332.026 -0.352649 2.26471 0
M  V30 3554 C 333.039 -0.953165 1.3198 0
M  V30 3555 O 334.228 -0.840815 1.57457 0
M  V30 3556 C 331.328 -1.50902 3.0345 0
M  V30 3557 C 330.501 -1.02047 4.25329 0
M  V30 3558 C 329.56 -2.05142 4.84565 0
M  V30 3559 O 328.586 -1.63023 5.45355 0
M  V30 3560 N 329.788 -3.37987 4.71959 0
M  V30 3561 H 332.553 0.300767 2.98187 0
M  V30 3562 H 330.114 0.306598 1.5897 0
M  V30 3563 H 332.106 -2.19572 3.39956 0
M  V30 3564 H 330.676 -2.06705 2.34504 0
M  V30 3565 H 329.896 -0.159507 3.93877 0
M  V30 3566 H 331.184 -0.672061 5.04342 0
M  V30 3567 H 330.582 -3.74913 4.23623 0
M  V30 3568 H 329.139 -4.02443 5.12721 0
M  V30 3569 N 332.573 -1.56217 0.208337 0
M  V30 3570 C 333.798 -2.02782 -0.435222 0
M  V30 3571 C 334.223 -1.08738 -1.53485 0
M  V30 3572 O 333.581 -0.0731855 -1.81152 0
M  V30 3573 C 333.629 -3.47687 -0.956335 0
M  V30 3574 O 332.733 -3.56773 -2.06849 0
M  V30 3575 H 332.074 -0.656403 -0.100158 0
M  V30 3576 H 334.604 -2.02033 0.3231 0
M  V30 3577 H 334.614 -3.87745 -1.26955 0
M  V30 3578 H 333.289 -4.15624 -0.15143 0
M  V30 3579 H 331.866 -3.28597 -1.76292 0
M  V30 3580 N 334.051 0.0651679 -1.57465 0
M  V30 3581 C 334.998 1.07675 -2.04144 0
M  V30 3582 C 335.968 1.38071 -0.923335 0
M  V30 3583 O 337.153 1.49026 -1.19146 0
M  V30 3584 C 334.293 2.38337 -2.49579 0
M  V30 3585 C 333.406 2.14413 -3.75035 0
M  V30 3586 C 332.541 3.38686 -4.09225 0
M  V30 3587 C 331.58 3.10156 -5.27702 0
M  V30 3588 N 330.717 4.26778 -5.57499 0
M  V30 3589 H 335.557 0.671716 -2.90331 0
M  V30 3590 H 333.094 0.3201 -1.43575 0
M  V30 3591 H 335.052 3.14632 -2.73975 0
M  V30 3592 H 333.682 2.7663 -1.6636 0
M  V30 3593 H 332.734 1.2878 -3.57939 0
M  V30 3594 H 334.046 1.89344 -4.61466 0
M  V30 3595 H 333.2 4.23373 -4.34558 0
M  V30 3596 H 331.939 3.66837 -3.21374 0
M  V30 3597 H 330.944 2.23866 -5.02159 0
M  V30 3598 H 332.169 2.8332 -6.17176 0
M  V30 3599 H 330.115 4.54948 -4.72608 0
M  V30 3600 H 330.032 4.05005 -6.38362 0
M  V30 3601 H 331.3 5.12443 -5.87386 0
M  V30 3602 N 335.529 1.53961 0.336706 0
M  V30 3603 C 336.462 1.77255 1.43722 0
M  V30 3604 C 337.44 0.62193 1.50236 0
M  V30 3605 O 338.624 0.857874 1.67847 0
M  V30 3606 C 335.751 1.87733 2.81912 0
M  V30 3607 C 334.797 3.09933 2.92991 0
M  V30 3608 S 335.63 4.68836 2.58753 0
M  V30 3609 C 336.786 4.82202 3.99039 0
M  V30 3610 H 337.019 2.70322 1.23748 0
M  V30 3611 H 334.552 1.44917 0.532777 0
M  V30 3612 H 336.51 1.94455 3.61521 0
M  V30 3613 H 335.171 0.956666 2.99177 0
M  V30 3614 H 334.364 3.1396 3.94265 0
M  V30 3615 H 333.966 3.01472 2.21338 0
M  V30 3616 H 336.258 4.64032 4.9364 0
M  V30 3617 H 337.201 5.84298 4.00002 0
M  V30 3618 H 337.609 4.10604 3.87382 0
M  V30 3619 N 337.007 -0.598083 1.45811 0
M  V30 3620 C 337.937 -1.71873 1.58057 0
M  V30 3621 C 338.918 -1.64533 0.431615 0
M  V30 3622 O 340.103 -1.82787 0.65595 0
M  V30 3623 C 337.233 -3.10495 1.55597 0
M  V30 3624 C 336.187 -3.32654 2.69305 0
M  V30 3625 C 335.513 -4.71646 2.51902 0
M  V30 3626 C 336.813 -3.21981 4.11248 0
M  V30 3627 H 338.507 -1.61881 2.51863 0
M  V30 3628 H 336.053 -0.777372 1.21214 0
M  V30 3629 H 338.006 -3.88699 1.6276 0
M  V30 3630 H 336.73 -3.2135 0.583255 0
M  V30 3631 H 335.389 -2.56843 2.61586 0
M  V30 3632 H 335.037 -4.79246 1.52748 0
M  V30 3633 H 334.737 -4.87426 3.2816 0
M  V30 3634 H 336.261 -5.52038 2.60933 0
M  V30 3635 H 337.675 -3.90049 4.20161 0
M  V30 3636 H 336.072 -3.49289 4.87972 0
M  V30 3637 H 337.142 -2.1928 4.32486 0
M  V30 3638 N 338.485 -1.33259 -0.841409 0
M  V30 3639 C 339.71 -1.2775 -1.63385 0
M  V30 3640 C 340.135 0.149188 -1.87507 0
M  V30 3641 O 339.493 1.10498 -1.43736 0
M  V30 3642 C 339.541 -2.05571 -2.96265 0
M  V30 3643 O 338.645 -1.41257 -3.87453 0
M  V30 3644 H 337.986 -0.439627 -0.497618 0
M  V30 3645 H 340.516 -1.75782 -1.04699 0
M  V30 3646 H 340.526 -2.16241 -3.45982 0
M  V30 3647 H 339.201 -3.09309 -2.7803 0
M  V30 3648 H 337.778 -1.39217 -3.45938 0
M  V30 3649 N 339.963 1.05934 -1.16686 0
M  V30 3650 C 341.211 1.78447 -0.948744 0
M  V30 3651 C 341.532 1.87813 0.524523 0
M  V30 3652 O 340.802 1.38945 1.38098 0
M  V30 3653 H 339.382 0.660971 -0.348033 0
M  V30 3654 H 342.044 1.27947 -1.47022 0
M  V30 3655 H 341.14 2.80394 -1.37061 0
M  V30 3656 N 341.441 0.965919 1.2453 0
M  V30 3657 C 342.687 0.62776 1.92839 0
M  V30 3658 C 343.02 -0.834694 1.75347 0
M  V30 3659 O 342.295 -1.60031 1.10546 0
M  V30 3660 C 342.578 1.00109 3.45905 0
M  V30 3661 C 342.431 2.52011 3.72573 0
M  V30 3662 C 343.75 0.53435 4.36844 0
M  V30 3663 H 340.869 0.229537 0.700344 0
M  V30 3664 H 343.511 1.2046 1.46933 0
M  V30 3665 H 341.661 0.510238 3.85135 0
M  V30 3666 H 343.333 3.08559 3.42912 0
M  V30 3667 H 341.576 2.95287 3.17786 0
M  V30 3668 H 342.247 2.73183 4.79661 0
M  V30 3669 H 344.723 0.955565 4.04979 0
M  V30 3670 H 343.599 0.824152 5.42678 0
M  V30 3671 H 343.86 -0.565589 4.38467 0
M  V30 3672 N 342.919 -1.39368 0.735821 0
M  V30 3673 C 344.167 -2.00101 0.283562 0
M  V30 3674 C 344.488 -1.5868 -1.13338 0
M  V30 3675 O 343.758 -0.835423 -1.77193 0
M  V30 3676 H 342.338 -0.740024 0.101851 0
M  V30 3677 H 345 -1.70404 0.945962 0
M  V30 3678 H 344.096 -3.10323 0.332604 0
M  V30 3679 N 344.397 -0.483516 -1.5 0
M  V30 3680 C 345.645 0.067027 -2.01989 0
M  V30 3681 C 345.966 1.3909 -1.36671 0
M  V30 3682 O 345.236 1.88978 -0.516152 0
M  V30 3683 H 343.816 0.0277606 -0.746484 0
M  V30 3684 H 346.478 -0.636773 -1.84204 0
M  V30 3685 H 345.574 0.209484 -3.11396 0
M  V30 3686 N 345.875 1.56104 -0.216619 0
M  V30 3687 C 347.122 1.98172 0.416416 0
M  V30 3688 C 347.45 1.10413 1.60122 0
M  V30 3689 O 346.705 0.147967 1.9514 0
M  V30 3690 C 347.004 3.45923 0.898464 0
M  V30 3691 C 346.67 4.50559 -0.175288 0
M  V30 3692 C 345.332 4.78897 -0.470271 0
M  V30 3693 C 347.684 5.1334 -0.901728 0
M  V30 3694 C 345.012 5.67299 -1.4963 0
M  V30 3695 C 347.364 6.02853 -1.91705 0
M  V30 3696 C 346.028 6.29537 -2.21901 0
M  V30 3697 H 345.298 0.725164 0.152377 0
M  V30 3698 H 347.945 1.88839 -0.318103 0
M  V30 3699 H 346.25 3.52434 1.71165 0
M  V30 3700 H 347.947 3.75841 1.39803 0
M  V30 3701 H 344.537 4.28551 0.0647806 0
M  V30 3702 H 348.721 4.91521 -0.687072 0
M  V30 3703 H 343.977 5.86239 -1.73592 0
M  V30 3704 H 348.151 6.50552 -2.48505 0
M  V30 3705 H 345.778 6.97835 -3.01548 0
M  V30 3706 N 347.353 -0.0568162 1.57498 0
M  V30 3707 C 348.599 -0.75422 1.88253 0
M  V30 3708 C 348.932 -1.76461 0.810865 0
M  V30 3709 O 348.207 -1.93691 -0.177259 0
M  V30 3710 C 348.49 -1.44878 3.2967 0
M  V30 3711 C 348.343 -0.453789 4.47505 0
M  V30 3712 C 349.662 -2.38994 3.69554 0
M  V30 3713 H 346.781 -0.272724 0.684683 0
M  V30 3714 H 349.423 -0.0172113 1.89992 0
M  V30 3715 H 347.573 -2.077 3.28318 0
M  V30 3716 H 349.245 0.170371 4.60985 0
M  V30 3717 H 347.488 0.229552 4.33192 0
M  V30 3718 H 348.159 -0.977699 5.43273 0
M  V30 3719 H 350.635 -1.86239 3.72095 0
M  V30 3720 H 349.511 -2.84587 4.69363 0
M  V30 3721 H 349.772 -3.24461 3.00296 0
M  V30 3722 N 348.832 -1.54138 -0.328536 0
M  V30 3723 C 349.762 -1.86167 -1.40939 0
M  V30 3724 C 350.743 -0.718044 -1.54202 0
M  V30 3725 O 351.928 -0.971328 -1.68163 0
M  V30 3726 C 349.058 -2.08461 -2.77779 0
M  V30 3727 C 348.012 -3.24299 -2.7931 0
M  V30 3728 C 347.338 -3.31955 -4.19178 0
M  V30 3729 C 348.638 -4.62065 -2.43502 0
M  V30 3730 H 350.332 -2.76689 -1.14383 0
M  V30 3731 H 347.878 -1.33132 -0.548806 0
M  V30 3732 H 349.831 -2.29453 -3.53454 0
M  V30 3733 H 348.555 -1.14684 -3.05802 0
M  V30 3734 H 347.214 -3.03187 -2.0609 0
M  V30 3735 H 346.862 -2.35745 -4.44335 0
M  V30 3736 H 346.562 -4.09805 -4.2111 0
M  V30 3737 H 348.086 -3.55175 -4.96672 0
M  V30 3738 H 349.5 -4.8297 -3.08889 0
M  V30 3739 H 347.897 -5.42429 -2.56693 0
M  V30 3740 H 348.967 -4.64652 -1.38659 0
M  V30 3741 N 350.31 0.590341 -1.46126 0
M  V30 3742 C 351.558 1.34616 -1.50742 0
M  V30 3743 C 351.879 1.94363 -0.157486 0
M  V30 3744 O 351.149 1.78136 0.815136 0
M  V30 3745 H 349.729 0.499789 -0.555175 0
M  V30 3746 H 352.391 0.691953 -1.82203 0
M  V30 3747 H 351.487 2.15678 -2.25587 0
M  V30 3748 N 351.788 1.33704 0.83433 0
M  V30 3749 C 352.718 1.26967 1.95963 0
M  V30 3750 C 353.699 0.149337 1.69443 0
M  V30 3751 O 354.884 0.339852 1.91203 0
M  V30 3752 C 352.014 1.01275 3.32206 0
M  V30 3753 C 350.968 2.09652 3.73136 0
M  V30 3754 C 350.294 1.69166 5.07235 0
M  V30 3755 C 351.594 3.51372 3.86439 0
M  V30 3756 H 353.288 2.2112 2.01857 0
M  V30 3757 H 350.834 1.06447 0.969793 0
M  V30 3758 H 352.787 0.952106 4.10503 0
M  V30 3759 H 351.511 0.0356203 3.26581 0
M  V30 3760 H 350.17 2.14766 2.97104 0
M  V30 3761 H 349.818 0.701437 4.98085 0
M  V30 3762 H 349.518 2.41694 5.35591 0
M  V30 3763 H 351.042 1.64576 5.88003 0
M  V30 3764 H 352.456 3.48734 4.55036 0
M  V30 3765 H 350.853 4.22425 4.26236 0
M  V30 3766 H 351.923 3.89546 2.88759 0
M  V30 3767 N 353.266 -1.05314 1.17247 0
M  V30 3768 C 354.196 -2.1498 0.911362 0
M  V30 3769 C 355.177 -1.69471 -0.146169 0
M  V30 3770 O 356.362 -1.942 0.003812 0
M  V30 3771 C 353.492 -3.4472 0.422528 0
M  V30 3772 C 352.446 -4.03789 1.4191 0
M  V30 3773 C 351.772 -5.28858 0.788274 0
M  V30 3774 C 353.072 -4.41418 2.7919 0
M  V30 3775 H 354.766 -2.3708 1.82848 0
M  V30 3776 H 352.312 -1.13938 0.880569 0
M  V30 3777 H 354.265 -4.20787 0.227289 0
M  V30 3778 H 352.989 -3.22269 -0.530123 0
M  V30 3779 H 351.648 -3.2979 1.60106 0
M  V30 3780 H 351.296 -5.02709 -0.171173 0
M  V30 3781 H 350.996 -5.69338 1.45353 0
M  V30 3782 H 352.52 -6.07612 0.603282 0
M  V30 3783 H 353.934 -5.08524 2.64719 0
M  V30 3784 H 352.331 -4.92913 3.42282 0
M  V30 3785 H 353.401 -3.51819 3.33693 0
M  V30 3786 N 354.744 -0.972509 -1.24016 0
M  V30 3787 C 355.991 -0.637034 -1.92219 0
M  V30 3788 C 356.319 0.828418 -1.75976 0
M  V30 3789 O 355.574 1.61206 -1.10955 0
M  V30 3790 C 355.873 -0.963694 -3.44162 0
M  V30 3791 C 355.539 -2.41807 -3.80579 0
M  V30 3792 C 354.201 -2.81556 -3.9023 0
M  V30 3793 C 356.553 -3.36172 -3.98293 0
M  V30 3794 C 353.881 -4.14702 -4.15017 0
M  V30 3795 C 356.233 -4.68952 -4.24578 0
M  V30 3796 C 354.897 -5.08472 -4.32449 0
M  V30 3797 H 354.167 -0.233107 -0.703379 0
M  V30 3798 H 356.814 -1.2249 -1.47202 0
M  V30 3799 H 355.119 -0.29365 -3.90698 0
M  V30 3800 H 356.816 -0.682449 -3.9515 0
M  V30 3801 H 353.406 -2.09988 -3.73635 0
M  V30 3802 H 357.59 -3.06644 -3.90234 0
M  V30 3803 H 352.846 -4.4494 -4.19331 0
M  V30 3804 H 357.02 -5.42037 -4.37229 0
M  V30 3805 H 354.647 -6.11665 -4.51409 0
M  V30 3806 N 356.222 1.38976 -0.743202 0
M  V30 3807 C 357.152 2.33171 -0.123873 0
M  V30 3808 C 358.133 1.54336 0.71516 0
M  V30 3809 O 359.318 1.82696 0.658467 0
M  V30 3810 C 356.448 3.38474 0.777978 0
M  V30 3811 C 355.402 4.27979 0.0424758 0
M  V30 3812 C 354.728 5.2405 1.06189 0
M  V30 3813 C 356.028 5.10155 -1.1198 0
M  V30 3814 H 357.722 2.85213 -0.910709 0
M  V30 3815 H 355.268 1.37133 -0.439388 0
M  V30 3816 H 357.221 4.03328 1.22084 0
M  V30 3817 H 355.945 2.84891 1.59702 0
M  V30 3818 H 354.604 3.64616 -0.380853 0
M  V30 3819 H 354.252 4.66758 1.87472 0
M  V30 3820 H 353.952 5.84785 0.574485 0
M  V30 3821 H 355.476 5.9178 1.50428 0
M  V30 3822 H 356.89 5.68307 -0.75499 0
M  V30 3823 H 355.287 5.80073 -1.53738 0
M  V30 3824 H 356.357 4.44504 -1.93764 0
M  V30 3825 N 357.7 0.491464 1.49741 0
M  V30 3826 C 358.948 -0.0563141 2.02022 0
M  V30 3827 C 359.269 -1.38363 1.37407 0
M  V30 3828 O 358.539 -1.88702 0.526166 0
M  V30 3829 H 357.119 -0.0238014 0.746621 0
M  V30 3830 H 359.781 0.646533 1.83864 0
M  V30 3831 H 358.877 -0.192967 3.11503 0
M  V30 3832 N 359.178 -1.55987 0.224894 0
M  V30 3833 C 360.141 -2.19178 -0.670348 0
M  V30 3834 C 361.141 -1.15461 -1.11917 0
M  V30 3835 O 362.331 -1.40675 -1.02743 0
M  V30 3836 C 359.463 -2.81777 -1.9187 0
M  V30 3837 H 360.656 -2.99662 -0.119364 0
M  V30 3838 H 358.209 -1.5628 -0.0247128 0
M  V30 3839 H 358.944 -2.05172 -2.51147 0
M  V30 3840 H 358.729 -3.57732 -1.60531 0
M  V30 3841 H 360.219 -3.30205 -2.55645 0
M  V30 3842 N 360.656 0.0484629 -1.57525 0
M  V30 3843 C 361.904 0.741657 -1.88 0
M  V30 3844 C 362.225 1.76918 -0.820054 0
M  V30 3845 O 361.495 1.95335 0.148661 0
M  V30 3846 H 360.075 0.276908 -0.69378 0
M  V30 3847 H 362.737 0.019013 -1.94891 0
M  V30 3848 H 361.833 1.24336 -2.86264 0
M  V30 3849 N 362.134 1.5431 0.320358 0
M  V30 3850 C 363.064 1.86912 1.3995 0
M  V30 3851 C 364.045 0.726211 1.53819 0
M  V30 3852 O 365.23 0.980233 1.67646 0
M  V30 3853 C 362.36 2.09932 2.7667 0
M  V30 3854 C 361.314 3.25776 2.77586 0
M  V30 3855 C 360.64 3.34173 4.17412 0
M  V30 3856 C 361.94 4.6335 2.41048 0
M  V30 3857 H 363.634 2.77292 1.12914 0
M  V30 3858 H 361.18 1.33421 0.541738 0
M  V30 3859 H 363.133 2.31324 3.52232 0
M  V30 3860 H 361.857 1.16304 3.0519 0
M  V30 3861 H 360.516 3.04276 2.04479 0
M  V30 3862 H 360.164 2.38098 4.43078 0
M  V30 3863 H 359.864 4.12033 4.18931 0
M  V30 3864 H 361.388 3.57803 4.94782 0
M  V30 3865 H 362.802 4.84602 3.06324 0
M  V30 3866 H 361.199 5.43782 2.53813 0
M  V30 3867 H 362.269 4.65381 1.36193 0
M  V30 3868 N 363.613 -0.582584 1.46437 0
M  V30 3869 C 364.86 -1.34079 1.51753 0
M  V30 3870 C 365.188 -1.93762 0.169299 0
M  V30 3871 O 364.443 -1.76989 -0.835062 0
M  V30 3872 C 364.742 -2.48964 2.56421 0
M  V30 3873 C 364.408 -2.07273 4.00436 0
M  V30 3874 C 363.07 -1.95618 4.39644 0
M  V30 3875 C 365.422 -1.75111 4.90903 0
M  V30 3876 C 362.75 -1.5006 5.67185 0
M  V30 3877 C 365.102 -1.31032 6.18881 0
M  V30 3878 C 363.766 -1.17954 6.56996 0
M  V30 3879 H 363.036 -0.49063 0.555304 0
M  V30 3880 H 365.683 -0.656007 1.79913 0
M  V30 3881 H 363.988 -3.22889 2.21923 0
M  V30 3882 H 365.685 -3.07178 2.57765 0
M  V30 3883 H 362.275 -2.17279 3.69443 0
M  V30 3884 H 366.459 -1.83001 4.61329 0
M  V30 3885 H 361.715 -1.38577 5.95488 0
M  V30 3886 H 365.889 -1.052 6.88408 0
M  V30 3887 H 363.516 -0.824279 7.55718 0
M  V30 3888 N 365.091 -1.34144 -0.827227 0
M  V30 3889 C 366.34 -1.25602 -1.5782 0
M  V30 3890 C 366.653 0.173445 -1.94829 0
M  V30 3891 O 367.859 0.380984 -2.68814 0
M  V30 3892 C 366.315 -2.20151 -2.84713 0
M  V30 3893 C 365.923 -3.68331 -2.55021 0
M  V30 3894 C 367.667 -2.20508 -3.62735 0
M  V30 3895 C 365.574 -4.54762 -3.78082 0
M  V30 3896 H 364.504 -0.466573 -0.592306 0
M  V30 3897 H 367.155 -1.59283 -0.911116 0
M  V30 3898 H 365.537 -1.79417 -3.53023 0
M  V30 3899 H 366.711 -4.17577 -1.94849 0
M  V30 3900 H 365.026 -3.7038 -1.90283 0
M  V30 3901 H 367.623 -2.82306 -4.54101 0
M  V30 3902 H 367.966 -1.20322 -3.98533 0
M  V30 3903 H 368.499 -2.59664 -3.01362 0
M  V30 3904 H 365.238 -5.55867 -3.47407 0
M  V30 3905 H 364.758 -4.10254 -4.37552 0
M  V30 3906 H 366.437 -4.69153 -4.45538 0
M  V30 3907 N 366.569 1.04691 -1.17803 0
M  V30 3908 C 367.799 1.81183 -0.992788 0
M  V30 3909 C 368.207 1.8347 0.462098 0
M  V30 3910 O 367.55 1.2643 1.33271 0
M  V30 3911 C 367.612 3.28363 -1.46349 0
M  V30 3912 C 367.276 3.49749 -2.94151 0
M  V30 3913 C 368.273 3.41456 -3.92051 0
M  V30 3914 C 365.958 3.76548 -3.32441 0
M  V30 3915 C 367.952 3.59656 -5.26238 0
M  V30 3916 C 365.639 3.94396 -4.66792 0
M  V30 3917 C 366.637 3.8595 -5.635 0
M  V30 3918 O 366.325 4.03294 -6.9542 0
M  V30 3919 H 366.057 0.577622 -0.351182 0
M  V30 3920 H 368.611 1.32876 -1.5663 0
M  V30 3921 H 366.841 3.77609 -0.833574 0
M  V30 3922 H 368.53 3.86395 -1.24313 0
M  V30 3923 H 369.296 3.20723 -3.63815 0
M  V30 3924 H 365.175 3.82224 -2.57732 0
M  V30 3925 H 368.719 3.52979 -6.01707 0
M  V30 3926 H 364.616 4.14622 -4.94731 0
M  V30 3927 H 365.384 4.2049 -7.02232 0
M  V30 3928 N 368.047 0.979072 1.23499 0
M  V30 3929 C 369.294 0.647219 1.91878 0
M  V30 3930 C 369.622 -0.819074 1.76413 0
M  V30 3931 O 368.877 -1.60616 1.11808 0
M  V30 3932 C 369.176 0.981932 3.43646 0
M  V30 3933 C 368.842 2.43822 3.79291 0
M  V30 3934 C 367.504 2.83622 3.88731 0
M  V30 3935 C 369.856 3.3828 3.96505 0
M  V30 3936 C 367.184 4.16897 4.12812 0
M  V30 3937 C 369.536 4.71197 4.22085 0
M  V30 3938 C 368.2 5.10758 4.29747 0
M  V30 3939 H 367.47 0.236834 0.702133 0
M  V30 3940 H 370.117 1.23268 1.46551 0
M  V30 3941 H 368.422 0.314365 3.90537 0
M  V30 3942 H 370.119 0.703395 3.94783 0
M  V30 3943 H 366.709 2.11966 3.72516 0
M  V30 3944 H 370.893 3.0871 3.88603 0
M  V30 3945 H 366.149 4.47157 4.16966 0
M  V30 3946 H 370.323 5.44348 4.34348 0
M  V30 3947 H 367.95 6.1405 4.48159 0
M  V30 3948 N 369.525 -1.3858 0.750561 0
M  V30 3949 C 370.472 -2.30483 0.120835 0
M  V30 3950 C 371.442 -1.50022 -0.712923 0
M  V30 3951 O 372.627 -1.78662 -0.669676 0
M  V30 3952 C 369.767 -3.36431 -0.768666 0
M  V30 3953 C 368.88 -4.31927 0.0793922 0
M  V30 3954 C 368.015 -5.24944 -0.81283 0
M  V30 3955 C 367.054 -6.12088 0.0390447 0
M  V30 3956 N 366.191 -6.97412 -0.809969 0
M  V30 3957 H 371.031 -2.83761 0.91015 0
M  V30 3958 H 368.568 -1.39707 0.460463 0
M  V30 3959 H 370.526 -3.96462 -1.29898 0
M  V30 3960 H 369.156 -2.8457 -1.5238 0
M  V30 3961 H 368.208 -3.73382 0.727303 0
M  V30 3962 H 369.52 -4.93319 0.737401 0
M  V30 3963 H 368.674 -5.90078 -1.41042 0
M  V30 3964 H 367.413 -4.63911 -1.50458 0
M  V30 3965 H 366.418 -5.45952 0.649328 0
M  V30 3966 H 367.643 -6.75189 0.727809 0
M  V30 3967 H 365.589 -6.38931 -1.48672 0
M  V30 3968 H 365.506 -7.55712 -0.208789 0
M  V30 3969 H 366.774 -7.66959 -1.39263 0
M  V30 3970 N 371.003 -0.499398 -1.49478 0
M  V30 3971 C 371.951 0.293604 -2.3074 0
M  V30 3972 C 372.945 0.96427 -1.39277 0
M  V30 3973 O 374.151 0.892141 -1.56336 0
M  V30 3974 H 370.526 0.113541 -0.743379 0
M  V30 3975 H 372.497 -0.411772 -2.95545 0
M  V30 3976 C 371.246 1.3462 -3.20582 0
M  V30 3977 H 370.569 0.83954 -3.90886 0
M  V30 3978 H 372.009 1.87308 -3.80384 0
M  V30 3979 C 370.468 2.36351 -2.40083 0
M  V30 3980 O 370.998 3.422 -2.10385 0
M  V30 3981 N 369.204 2.0878 -2.02137 0
M  V30 3982 H 368.751 1.22723 -2.26488 0
M  V30 3983 H 368.709 2.77075 -1.48583 0
M  V30 3984 N 372.481 1.55866 -0.233164 0
M  V30 3985 C 373.413 2.18099 0.704668 0
M  V30 3986 C 374.426 1.15334 1.14899 0
M  V30 3987 O 375.615 1.42262 1.07814 0
M  V30 3988 C 372.715 2.7592 1.96777 0
M  V30 3989 C 371.888 4.03969 1.67713 0
M  V30 3990 C 370.947 4.46242 2.78845 0
M  V30 3991 O 369.973 5.12903 2.46818 0
M  V30 3992 N 371.175 4.12886 4.08051 0
M  V30 3993 H 373.94 2.99205 0.172258 0
M  V30 3994 H 371.501 1.61815 -0.0525945 0
M  V30 3995 H 373.493 3.01165 2.70337 0
M  V30 3996 H 372.063 1.99051 2.41034 0
M  V30 3997 H 371.283 3.86459 0.777391 0
M  V30 3998 H 372.571 4.8748 1.4574 0
M  V30 3999 H 371.969 3.59342 4.3691 0
M  V30 4000 H 370.526 4.42997 4.78118 0
M  V30 4001 N 373.959 -0.0401083 1.57549 0
M  V30 4002 C 374.906 -1.04413 2.05831 0
M  V30 4003 C 375.876 -1.36585 0.945184 0
M  V30 4004 O 377.061 -1.47112 1.21502 0
M  V30 4005 C 374.201 -2.34336 2.53339 0
M  V30 4006 C 373.314 -2.08419 3.78398 0
M  V30 4007 C 372.449 -3.32133 4.14561 0
M  V30 4008 C 371.488 -3.01721 5.3257 0
M  V30 4009 N 370.625 -4.17855 5.64218 0
M  V30 4010 H 375.465 -0.625442 2.91363 0
M  V30 4011 H 373.002 -0.297218 1.44066 0
M  V30 4012 H 374.96 -3.10234 2.78946 0
M  V30 4013 H 373.59 -2.73948 1.7074 0
M  V30 4014 H 372.642 -1.23069 3.59942 0
M  V30 4015 H 373.954 -1.81978 4.64419 0
M  V30 4016 H 373.108 -4.16406 4.41238 0
M  V30 4017 H 371.847 -3.61678 3.2717 0
M  V30 4018 H 370.852 -2.15849 5.05657 0
M  V30 4019 H 372.077 -2.73466 6.21605 0
M  V30 4020 H 370.023 -4.47372 4.79786 0
M  V30 4021 H 369.94 -3.94798 6.44725 0
M  V30 4022 H 371.208 -5.03033 5.95465 0
M  V30 4023 N 375.437 -1.54477 -0.31217 0
M  V30 4024 C 376.685 -1.72884 -1.04668 0
M  V30 4025 C 377.006 -0.511477 -1.88173 0
M  V30 4026 O 376.276 0.474407 -1.90069 0
M  V30 4027 H 374.856 -0.637461 -0.389425 0
M  V30 4028 H 377.518 -1.91807 -0.345852 0
M  V30 4029 H 376.614 -2.61334 -1.70619 0
M  V30 4030 N 376.915 0.57481 -1.46744 0
M  V30 4031 C 377.865 1.67838 -1.54319 0
M  V30 4032 C 378.849 1.55759 -0.40346 0
M  V30 4033 O 380.041 1.6454 -0.652347 0
M  V30 4034 C 377.17 3.06624 -1.5439 0
M  V30 4035 C 376.256 3.23971 -2.73685 0
M  V30 4036 N 376.647 3.11447 -3.9854 0
M  V30 4037 C 374.945 3.5493 -2.70075 0
M  V30 4038 C 375.646 3.31011 -4.78337 0
M  V30 4039 N 374.622 3.56533 -4.10348 0
M  V30 4040 H 378.424 1.56698 -2.48642 0
M  V30 4041 H 375.938 0.779071 -1.42493 0
M  V30 4042 H 377.935 3.85839 -1.57905 0
M  V30 4043 H 376.595 3.1889 -0.611493 0
M  V30 4044 H 377.606 2.89145 -4.29669 0
M  V30 4045 H 374.283 3.73832 -1.85893 0
M  V30 4046 H 375.673 3.26445 -5.87268 0
M  V30 4047 N 378.394 1.34581 0.820102 0
M  V30 4048 C 379.619 1.30333 1.61332 0
M  V30 4049 C 380.044 -0.119339 1.87721 0
M  V30 4050 O 379.402 -1.08197 1.45475 0
M  V30 4051 C 379.45 2.10258 2.92957 0
M  V30 4052 O 378.554 1.47404 3.85157 0
M  V30 4053 H 377.895 0.447488 0.490561 0
M  V30 4054 H 380.425 1.77425 1.01889 0
M  V30 4055 H 380.435 2.21718 3.42498 0
M  V30 4056 H 379.11 3.13693 2.73074 0
M  V30 4057 H 377.687 1.44703 3.43679 0
M  V30 4058 N 379.872 -1.04064 1.18357 0
M  V30 4059 C 381.12 -1.76915 0.977013 0
M  V30 4060 C 381.441 -1.88624 -0.494577 0
M  V30 4061 O 380.711 -1.41125 -1.3587 0
M  V30 4062 H 379.291 -0.65535 0.358504 0
M  V30 4063 H 381.953 -1.25592 1.49039 0
M  V30 4064 H 381.049 -2.78178 1.41504 0
M  V30 4065 N 381.35 -0.985608 -1.22978 0
M  V30 4066 C 382.28 -0.549649 -2.26939 0
M  V30 4067 C 383.261 0.419803 -1.64838 0
M  V30 4068 O 384.446 0.31203 -1.91677 0
M  V30 4069 C 381.576 0.143652 -3.47003 0
M  V30 4070 C 380.53 -0.743606 -4.21491 0
M  V30 4071 C 379.856 0.0822027 -5.34637 0
M  V30 4072 C 381.156 -2.03694 -4.80943 0
M  V30 4073 H 382.85 -1.41862 -2.63658 0
M  V30 4074 H 380.396 -0.683571 -1.26741 0
M  V30 4075 H 382.349 0.459985 -4.18882 0
M  V30 4076 H 381.073 1.04711 -3.09359 0
M  V30 4077 H 379.732 -1.04347 -3.51436 0
M  V30 4078 H 379.38 0.986359 -4.93234 0
M  V30 4079 H 379.08 -0.508377 -5.85397 0
M  V30 4080 H 380.604 0.392797 -6.09335 0
M  V30 4081 H 382.018 -1.78504 -5.44802 0
M  V30 4082 H 380.415 -2.57573 -5.42011 0
M  V30 4083 H 381.485 -2.72042 -4.01399 0
M  V30 4084 N 382.828 1.3818 -0.7579 0
M  V30 4085 C 383.778 2.27741 -0.108674 0
M  V30 4086 C 384.762 1.45415 0.688709 0
M  V30 4087 O 385.954 1.68108 0.553956 0
M  V30 4088 C 383.083 3.34313 0.780367 0
M  V30 4089 C 382.169 4.24093 -0.0240977 0
M  V30 4090 N 382.56 4.9451 -1.06271 0
M  V30 4091 C 380.858 4.45542 0.202049 0
M  V30 4092 C 381.559 5.60675 -1.54979 0
M  V30 4093 N 380.535 5.36684 -0.864348 0
M  V30 4094 H 384.337 2.79649 -0.904071 0
M  V30 4095 H 381.851 1.51133 -0.594346 0
M  V30 4096 H 383.848 3.97368 1.26114 0
M  V30 4097 H 382.508 2.83962 1.57467 0
M  V30 4098 H 383.519 4.97345 -1.44459 0
M  V30 4099 H 380.196 4.06091 0.96935 0
M  V30 4100 H 381.586 6.26992 -2.41517 0
M  V30 4101 N 384.306 0.507319 1.49211 0
M  V30 4102 C 385.717 0.0611118 1.866 0
M  V30 4103 C 386.068 -1.35488 1.41907 0
M  V30 4104 O 385.193 -2.0108 0.799726 0
M  V30 4105 C 385.788 0.104125 3.3864 0
M  V30 4106 C 384.347 -0.28677 3.75306 0
M  V30 4107 C 383.494 0.473893 2.73221 0
M  V30 4108 H 386.445 0.719775 1.41439 0
M  V30 4109 H 386.466 -0.689672 3.74198 0
M  V30 4110 H 385.978 1.13482 3.71138 0
M  V30 4111 H 384.079 -1.32046 3.48417 0
M  V30 4112 H 384.192 0.0370745 4.79086 0
M  V30 4113 H 382.556 -0.0770644 2.54583 0
M  V30 4114 H 383.339 1.50478 3.08563 0
M  V30 4115 N 385.784 -1.5574 0.241426 0
M  V30 4116 C 387.012 -2.03208 -0.389134 0
M  V30 4117 C 387.427 -1.12082 -1.51931 0
M  V30 4118 O 386.784 -0.134183 -1.82006 0
M  V30 4119 C 386.835 -3.50064 -0.902087 0
M  V30 4120 O 386.556 -4.37717 0.18305 0
M  V30 4121 C 388.057 -4.13268 -1.60389 0
M  V30 4122 H 385.277 -0.664509 -0.0931053 0
M  V30 4123 H 387.821 -2.0124 0.36369 0
M  V30 4124 H 385.976 -3.52583 -1.60511 0
M  V30 4125 H 386.39 -5.24097 -0.205579 0
M  V30 4126 H 387.864 -5.17733 -1.91458 0
M  V30 4127 H 388.341 -3.59434 -2.52397 0
M  V30 4128 H 388.947 -4.14655 -0.945576 0
M  V30 4129 N 387.262 0.0317525 -1.57568 0
M  V30 4130 C 388.51 0.721676 -1.88776 0
M  V30 4131 C 388.831 1.76039 -0.838772 0
M  V30 4132 O 388.101 1.95482 0.127935 0
M  V30 4133 H 386.681 0.269534 -0.696678 0
M  V30 4134 H 389.343 -0.00165879 -1.949 0
M  V30 4135 H 388.439 1.21293 -2.87566 0
M  V30 4136 N 388.74 1.54641 0.303973 0
M  V30 4137 C 389.67 1.88386 1.3796 0
M  V30 4138 C 390.651 0.742485 1.5304 0
M  V30 4139 O 391.836 0.997959 1.66597 0
M  V30 4140 C 388.966 2.12854 2.74427 0
M  V30 4141 C 387.92 3.28702 2.74115 0
M  V30 4142 C 387.246 3.38582 4.13844 0
M  V30 4143 C 388.546 4.65881 2.3612 0
M  V30 4144 H 390.24 2.78474 1.09966 0
M  V30 4145 H 387.786 1.33988 0.527556 0
M  V30 4146 H 389.739 2.35047 3.49758 0
M  V30 4147 H 388.463 1.19535 3.03939 0
M  V30 4148 H 387.122 3.06428 2.0124 0
M  V30 4149 H 386.77 2.42784 4.40528 0
M  V30 4150 H 386.47 4.16453 4.14537 0
M  V30 4151 H 387.994 3.63031 4.90959 0
M  V30 4152 H 389.408 4.87823 3.01167 0
M  V30 4153 H 387.805 5.46444 2.48031 0
M  V30 4154 H 388.875 4.66799 1.3125 0
M  V30 4155 N 390.218 -0.567019 1.47046 0
M  V30 4156 C 391.464 -1.32658 1.53394 0
M  V30 4157 C 391.797 -1.93254 0.19148 0
M  V30 4158 O 391.072 -1.77338 -0.798844 0
M  V30 4159 C 391.355 -2.44412 2.64452 0
M  V30 4160 C 391.208 -1.88749 4.08282 0
M  V30 4161 C 392.527 -3.46387 2.71485 0
M  V30 4162 H 389.646 -0.48098 0.558415 0
M  V30 4163 H 392.288 -0.635481 1.79058 0
M  V30 4164 H 390.438 -3.03363 2.427 0
M  V30 4165 H 392.11 -1.34134 4.41368 0
M  V30 4166 H 390.353 -1.19481 4.17021 0
M  V30 4167 H 391.024 -2.69491 4.81745 0
M  V30 4168 H 393.5 -2.9734 2.91081 0
M  V30 4169 H 392.376 -4.2202 3.50985 0
M  V30 4170 H 392.637 -4.04616 1.78153 0
M  V30 4171 N 391.696 -1.35014 -0.812953 0
M  V30 4172 C 392.921 -1.31187 -1.60639 0
M  V30 4173 C 393.346 0.109382 -1.87782 0
M  V30 4174 O 392.704 1.07424 -1.46047 0
M  V30 4175 C 392.752 -2.11809 -2.91838 0
M  V30 4176 O 391.856 -1.49444 -3.8437 0
M  V30 4177 H 391.197 -0.450084 -0.488181 0
M  V30 4178 H 393.727 -1.77963 -1.00947 0
M  V30 4179 H 393.737 -2.23531 -3.41318 0
M  V30 4180 H 392.412 -3.15137 -2.71407 0
M  V30 4181 H 390.989 -1.46524 -3.42907 0
M  V30 4182 O 393.213 0.951708 -1.30479 0
M  V30 4183 H 393.904 1.58029 -1.12012 0
M  V30 END ATOM
M  V30 BEGIN BOND
M  V30 END BOND
M  V30 END CTAB
M  END
$$$$
