drugbank_target|Q32MK0 Myosin light chain kinase 3 (DB12010)
 OpenBabel12092121173D

  0  0  0     0  0            999 V3000
M  V30 BEGIN CTAB
M  V30 COUNTS 12335 12473 0 0 0
M  V30 BEGIN ATOM
M  V30 1 H -0.908 1.98254 -0.117106 0
M  V30 2 N 0 1.576 0 0
M  V30 3 C 0.933 2.03868 1.02534 0
M  V30 4 C 1.911 0.928543 1.3348 0
M  V30 5 O 3.095 1.19667 1.45644 0
M  V30 6 C 0.222 2.43627 2.35294 0
M  V30 7 C -0.732 3.65373 2.2001 0
M  V30 8 S 0.101 5.13292 1.52614 0
M  V30 9 C 1.257 5.56322 2.86805 0
M  V30 10 H 1.49 2.90518 0.631377 0
M  V30 11 H -0.977 1.52953 0.210867 0
M  V30 12 H 0.981 2.67203 3.11629 0
M  V30 13 H -0.358 1.57376 2.7183 0
M  V30 14 H -1.165 3.90944 3.18086 0
M  V30 15 H -1.563 3.418 1.51819 0
M  V30 16 H 0.729 5.58782 3.83104 0
M  V30 17 H 1.672 6.56266 2.65933 0
M  V30 18 H 2.08 4.83886 2.90714 0
M  V30 19 N 1.4781 -0.272755 1.55222 0
M  V30 20 C 2.7031 -1.02683 1.80197 0
M  V30 21 C 3.1281 -1.79142 0.573551 0
M  V30 22 O 2.4861 -1.74917 -0.476849 0
M  V30 23 C 2.5341 -1.9609 3.02624 0
M  V30 24 O 1.6381 -3.04863 2.77727 0
M  V30 25 H 0.9791 -0.293557 0.595584 0
M  V30 26 H 3.5091 -0.30159 2.02365 0
M  V30 27 H 3.5191 -2.38039 3.31363 0
M  V30 28 H 2.1941 -1.39851 3.91682 0
M  V30 29 H 0.7711 -2.67228 2.60084 0
M  V30 30 N 2.9562 -1.48159 -0.537278 0
M  V30 31 C 4.2042 -1.55497 -1.29094 0
M  V30 32 C 4.5252 -0.227454 -1.93669 0
M  V30 33 O 3.7952 0.750386 -1.80959 0
M  V30 34 H 2.3752 -0.572832 -0.47945 0
M  V30 35 H 5.0372 -1.84579 -0.625818 0
M  V30 36 H 4.1332 -2.33216 -2.07405 0
M  V30 37 N 4.4343 0.785586 -1.36625 0
M  V30 38 C 5.6623 1.57448 -1.3423 0
M  V30 39 C 6.0773 1.88649 0.0755653 0
M  V30 40 O 5.4343 1.50414 1.03354 0
M  V30 41 C 5.4853 2.89316 -2.16745 0
M  V30 42 O 5.2063 2.59459 -3.53005 0
M  V30 43 C 6.7073 3.83606 -2.22174 0
M  V30 44 H 3.9273 0.488226 -0.4603 0
M  V30 45 H 6.4713 0.974733 -1.79775 0
M  V30 46 H 4.6263 3.4575 -1.74745 0
M  V30 47 H 5.0403 3.43804 -3.96105 0
M  V30 48 H 6.5143 4.73181 -2.8426 0
M  V30 49 H 6.9913 4.21734 -1.22627 0
M  V30 50 H 7.5973 3.33104 -2.64427 0
M  V30 51 N 5.9124 1.20967 1.01018 0
M  V30 52 C 7.1374 1.0503 1.78839 0
M  V30 53 C 7.5624 -0.395752 1.8389 0
M  V30 54 O 6.9204 -1.28529 1.27867 0
M  V30 55 C 6.9684 1.64602 3.2084 0
M  V30 56 O 6.0724 0.887988 4.02726 0
M  V30 57 H 5.4134 0.369987 0.551367 0
M  V30 58 H 7.9434 1.60399 1.27018 0
M  V30 59 H 7.9534 1.68607 3.71532 0
M  V30 60 H 6.6284 2.69841 3.16479 0
M  V30 61 H 5.2054 0.922648 3.61305 0
M  V30 62 N 7.3905 -1.2043 1.01659 0
M  V30 63 C 8.3375 -2.23215 0.586822 0
M  V30 64 C 9.3075 -1.61382 -0.393085 0
M  V30 65 O 10.4925 -1.88544 -0.292525 0
M  V30 66 C 7.6325 -3.45032 -0.0687464 0
M  V30 67 C 6.7455 -4.21296 0.955724 0
M  V30 68 C 5.8805 -5.30507 0.271208 0
M  V30 69 C 4.9195 -5.98515 1.28244 0
M  V30 70 N 4.0565 -6.99316 0.62459 0
M  V30 71 H 8.8965 -2.59336 1.46796 0
M  V30 72 H 6.4335 -1.27431 0.734836 0
M  V30 73 H 8.3915 -4.1459 -0.465965 0
M  V30 74 H 7.0215 -3.09604 -0.913529 0
M  V30 75 H 6.0735 -3.50803 1.4711 0
M  V30 76 H 7.3855 -4.6803 1.72479 0
M  V30 77 H 6.5395 -6.06428 -0.18151 0
M  V30 78 H 5.2785 -4.8481 -0.530163 0
M  V30 79 H 4.2835 -5.21355 1.74554 0
M  V30 80 H 5.5085 -6.46298 2.08509 0
M  V30 81 H 3.4545 -6.55812 -0.156914 0
M  V30 82 H 3.3715 -7.44178 1.33172 0
M  V30 83 H 4.6395 -7.79255 0.195462 0
M  V30 84 N 8.8686 -0.792821 -1.36206 0
M  V30 85 C 9.7786 -0.194808 -2.3379 0
M  V30 86 C 10.7946 0.654869 -1.61206 0
M  V30 87 O 11.9706 0.569856 -1.9317 0
M  V30 88 C 9.0356 0.657721 -3.40404 0
M  V30 89 C 8.0966 -0.210849 -4.28782 0
M  V30 90 C 7.3296 0.601086 -5.30304 0
M  V30 91 O 7.5526 1.83682 -5.40016 0
M  V30 92 O 6.4866 -0.000808277 -6.019 0
M  V30 93 H 10.3126 -1.00172 -2.86704 0
M  V30 94 H 7.8976 -0.554341 -1.38735 0
M  V30 95 H 9.7796 1.14375 -4.05581 0
M  V30 96 H 8.4546 1.44247 -2.89784 0
M  V30 97 H 7.3616 -0.743714 -3.66633 0
M  V30 98 H 8.6946 -0.959195 -4.82763 0
M  V30 99 N 10.3467 1.47872 -0.545128 0
M  V30 100 C 11.5717 2.07391 -0.0190611 0
M  V30 101 C 11.9967 1.39688 1.25971 0
M  V30 102 O 11.3547 0.467816 1.7516 0
M  V30 103 C 11.4027 3.60188 0.172335 0
M  V30 104 O 10.5067 3.9339 1.23766 0
M  V30 105 H 9.8477 0.662411 -0.0459059 0
M  V30 106 H 12.3777 1.90066 -0.757365 0
M  V30 107 H 12.3877 4.06129 0.390305 0
M  V30 108 H 11.0627 4.08865 -0.761725 0
M  V30 109 H 9.6397 3.5921 1.00114 0
M  V30 110 N 11.8248 0.280983 1.55075 0
M  V30 111 C 12.7548 -0.597469 2.25727 0
M  V30 112 C 13.7358 -1.15417 1.24952 0
M  V30 113 O 14.9208 -1.18722 1.53684 0
M  V30 114 C 12.0508 -1.7789 2.98283 0
M  V30 115 C 11.0048 -1.35347 4.06036 0
M  V30 116 C 10.3308 -2.61846 4.66198 0
M  V30 117 C 11.6308 -0.499354 5.19907 0
M  V30 118 H 13.3248 -0.00824265 2.99399 0
M  V30 119 H 10.8708 -0.0025244 1.44 0
M  V30 120 H 12.8238 -2.39937 3.46422 0
M  V30 121 H 11.5478 -2.39405 2.22155 0
M  V30 122 H 10.2068 -0.756156 3.58717 0
M  V30 123 H 9.8548 -3.21632 3.86732 0
M  V30 124 H 9.5548 -2.3409 5.38958 0
M  V30 125 H 11.0788 -3.24732 5.1709 0
M  V30 126 H 12.4928 -1.02498 5.64063 0
M  V30 127 H 10.8898 -0.316424 5.99265 0
M  V30 128 H 11.9598 0.480459 4.82514 0
M  V30 129 N 13.3029 -1.57598 0.00835791 0
M  V30 130 C 14.5509 -1.90551 -0.6734 0
M  V30 131 C 14.8719 -0.883301 -1.73847 0
M  V30 132 O 14.1419 0.0781442 -1.95744 0
M  V30 133 H 12.7219 -0.703312 -0.251717 0
M  V30 134 H 15.3839 -1.94833 0.0512592 0
M  V30 135 H 14.4799 -2.9056 -1.13935 0
M  V30 136 N 14.781 0.264519 -1.55364 0
M  V30 137 C 15.731 1.32966 -1.85214 0
M  V30 138 C 16.715 1.44306 -0.711653 0
M  V30 139 O 17.907 1.47844 -0.973192 0
M  V30 140 C 15.036 2.68839 -2.13495 0
M  V30 141 C 14.122 2.61575 -3.33825 0
M  V30 142 N 14.513 2.23933 -4.53528 0
M  V30 143 C 12.811 2.92621 -3.36584 0
M  V30 144 C 13.512 2.26868 -5.35636 0
M  V30 145 N 12.488 2.65677 -4.74254 0
M  V30 146 H 16.29 1.02884 -2.75304 0
M  V30 147 H 13.804 0.473157 -1.55354 0
M  V30 148 H 15.801 3.45685 -2.33039 0
M  V30 149 H 14.461 2.99802 -1.24694 0
M  V30 150 H 15.472 1.95769 -4.79474 0
M  V30 151 H 12.149 3.2824 -2.58002 0
M  V30 152 H 13.539 2.00254 -6.41364 0
M  V30 153 N 16.2591 1.48442 0.529413 0
M  V30 154 C 17.5071 1.56179 1.28267 0
M  V30 155 C 17.8281 0.237721 1.93546 0
M  V30 156 O 17.0981 -0.740779 1.81354 0
M  V30 157 H 15.6781 0.575367 0.476405 0
M  V30 158 H 18.3401 1.84909 0.61602 0
M  V30 159 H 17.4361 2.34312 2.06165 0
M  V30 160 N 17.7372 -0.778329 1.37039 0
M  V30 161 C 18.9852 -1.53361 1.31623 0
M  V30 162 C 19.3062 -1.94739 -0.100831 0
M  V30 163 O 18.5762 -1.65797 -1.04347 0
M  V30 164 H 17.1562 -0.568794 0.484234 0
M  V30 165 H 19.8182 -0.926742 1.71457 0
M  V30 166 H 18.9142 -2.43606 1.95096 0
M  V30 167 N 19.2153 -1.21501 -1.00376 0
M  V30 168 C 20.1453 -0.999478 -2.11028 0
M  V30 169 C 21.1263 0.0759671 -1.6993 0
M  V30 170 O 22.3113 -0.0841106 -1.94018 0
M  V30 171 C 19.4413 -0.564709 -3.42678 0
M  V30 172 C 18.3953 -1.58486 -3.97576 0
M  V30 173 C 17.7213 -1.00628 -5.25146 0
M  V30 174 C 19.0213 -2.97204 -4.29496 0
M  V30 175 H 20.7153 -1.92495 -2.29317 0
M  V30 176 H 18.2613 -0.92693 -1.102 0
M  V30 177 H 20.2143 -0.401091 -4.19487 0
M  V30 178 H 18.9383 0.396411 -3.24185 0
M  V30 179 H 17.5973 -1.73606 -3.22888 0
M  V30 180 H 17.2453 -0.0368439 -5.02987 0
M  V30 181 H 16.9453 -1.68771 -5.62841 0
M  V30 182 H 18.4693 -0.854015 -6.04598 0
M  V30 183 H 19.8833 -2.8552 -4.97143 0
M  V30 184 H 18.2803 -3.62372 -4.78338 0
M  V30 185 H 19.3503 -3.47956 -3.3772 0
M  V30 186 N 20.6934 1.19889 -1.02296 0
M  V30 187 C 22.1044 1.71124 -0.746568 0
M  V30 188 C 22.4554 1.81939 0.734335 0
M  V30 189 O 21.5804 1.48639 1.57275 0
M  V30 190 C 22.1754 3.10804 -1.34857 0
M  V30 191 C 20.7344 3.59323 -1.1209 0
M  V30 192 C 19.8814 2.3635 -1.45031 0
M  V30 193 H 22.8324 1.04813 -1.19163 0
M  V30 194 H 22.8534 3.73186 -0.742437 0
M  V30 195 H 22.3654 3.029 -2.42638 0
M  V30 196 H 20.4664 3.7255 -0.0610337 0
M  V30 197 H 20.5794 4.4378 -1.80544 0
M  V30 198 H 18.9434 2.39399 -0.869487 0
M  V30 199 H 19.7264 2.31081 -2.53883 0
M  V30 200 N 22.1715 0.800033 1.35784 0
M  V30 201 C 23.4195 0.376597 1.9856 0
M  V30 202 C 23.7405 -1.05812 1.63795 0
M  V30 203 O 23.0105 -1.73103 0.917171 0
M  V30 204 H 21.5905 0.136261 0.734467 0
M  V30 205 H 24.2525 1.02442 1.65806 0
M  V30 206 H 23.3485 0.477002 3.08433 0
M  V30 207 N 23.6496 -1.47581 0.552962 0
M  V30 208 C 24.5796 -2.32762 -0.185451 0
M  V30 209 C 25.5606 -1.43527 -0.912905 0
M  V30 210 O 26.7456 -1.72388 -0.894201 0
M  V30 211 C 23.8756 -3.25219 -1.21859 0
M  V30 212 C 22.8296 -4.23661 -0.607864 0
M  V30 213 C 22.1556 -5.05413 -1.74533 0
M  V30 214 C 23.4556 -5.20481 0.435582 0
M  V30 215 H 25.1496 -2.94749 0.525684 0
M  V30 216 H 22.6956 -1.41738 0.254251 0
M  V30 217 H 24.6486 -3.8365 -1.7433 0
M  V30 218 H 23.3726 -2.61279 -1.95961 0
M  V30 219 H 22.0316 -3.66451 -0.104489 0
M  V30 220 H 21.6796 -4.3788 -2.47529 0
M  V30 221 H 21.3796 -5.72059 -1.34249 0
M  V30 222 H 22.9036 -5.66701 -2.27338 0
M  V30 223 H 24.3176 -5.733 -0.00290157 0
M  V30 224 H 22.7146 -5.95305 0.757067 0
M  V30 225 H 23.7846 -4.66217 1.33303 0
M  V30 226 N 25.1277 -0.289203 -1.54924 0
M  V30 227 C 26.3757 0.322879 -1.99504 0
M  V30 228 C 26.6967 1.55313 -1.1791 0
M  V30 229 O 25.9667 1.94001 -0.272097 0
M  V30 230 H 24.5467 0.122291 -0.736922 0
M  V30 231 H 27.2087 -0.397802 -1.90797 0
M  V30 232 H 26.3047 0.603061 -3.06218 0
M  V30 233 N 26.6058 1.57591 -0.0167156 0
M  V30 234 C 27.5528 2.09462 0.969251 0
M  V30 235 C 28.5228 0.99381 1.33089 0
M  V30 236 O 29.7078 1.26726 1.42636 0
M  V30 237 C 26.8478 2.61622 2.25051 0
M  V30 238 C 25.9608 3.85666 1.94642 0
M  V30 239 C 25.0958 4.26266 3.16972 0
M  V30 240 C 24.1348 5.43101 2.82326 0
M  V30 241 N 23.2718 5.78915 3.97243 0
M  V30 242 H 28.1118 2.93428 0.519997 0
M  V30 243 H 25.6488 1.45044 0.245087 0
M  V30 244 H 27.6068 2.89949 2.99976 0
M  V30 245 H 26.2368 1.80505 2.67615 0
M  V30 246 H 25.2888 3.64145 1.10013 0
M  V30 247 H 26.6008 4.70678 1.65117 0
M  V30 248 H 25.7548 4.55963 4.00228 0
M  V30 249 H 24.4938 3.39996 3.49648 0
M  V30 250 H 23.4988 5.1311 1.97479 0
M  V30 251 H 24.7238 6.3106 2.50879 0
M  V30 252 H 22.6698 4.95602 4.29785 0
M  V30 253 H 22.5868 6.58539 3.71299 0
M  V30 254 H 23.8548 6.13212 4.81239 0
M  V30 255 N 28.0839 -0.256276 1.55502 0
M  V30 256 C 29.3119 -1.00342 1.8094 0
M  V30 257 C 29.7269 -1.79307 0.59114 0
M  V30 258 O 29.0839 -1.77114 -0.440081 0
M  V30 259 C 29.1349 -1.94875 3.04476 0
M  V30 260 O 28.8559 -1.19107 4.21598 0
M  V30 261 C 30.3569 -2.81266 3.42644 0
M  V30 262 H 27.5769 -0.295685 0.602338 0
M  V30 263 H 30.1209 -0.281998 2.02546 0
M  V30 264 H 28.2759 -2.62457 2.84947 0
M  V30 265 H 28.6899 -1.82969 4.91551 0
M  V30 266 H 30.1639 -3.43362 4.32211 0
M  V30 267 H 30.6409 -3.51897 2.62802 0
M  V30 268 H 31.2469 -2.1915 3.64491 0
M  V30 269 N 29.562 -1.4872 -0.521534 0
M  V30 270 C 30.802 -1.58771 -1.28729 0
M  V30 271 C 31.166 -0.259394 -1.9024 0
M  V30 272 O 32.367 -0.234942 -2.67771 0
M  V30 273 C 30.638 -2.70039 -2.34124 0
M  V30 274 S 32.197 -2.9991 -3.20312 0
M  V30 275 H 29.015 -0.560251 -0.437767 0
M  V30 276 H 31.617 -1.86283 -0.593188 0
M  V30 277 H 30.321 -3.65101 -1.87429 0
M  V30 278 H 29.852 -2.44455 -3.08229 0
M  V30 279 H 31.867 -2.39855 -4.34378 0
M  V30 280 N 31.0401 0.771051 -1.3745 0
M  V30 281 C 31.9701 1.89827 -1.3597 0
M  V30 282 C 32.9511 1.68562 -0.228216 0
M  V30 283 O 34.1361 1.8941 -0.428675 0
M  V30 284 C 31.2661 3.2712 -1.16662 0
M  V30 285 C 30.2201 3.6295 -2.2683 0
M  V30 286 C 29.5461 4.98791 -1.92644 0
M  V30 287 C 30.8461 3.69627 -3.69017 0
M  V30 288 H 32.5401 1.91323 -2.30295 0
M  V30 289 H 30.0861 0.919082 -1.10855 0
M  V30 290 H 32.0391 4.05615 -1.14256 0
M  V30 291 H 30.7631 3.26059 -0.187926 0
M  V30 292 H 29.4221 2.86763 -2.28392 0
M  V30 293 H 29.0701 4.94271 -0.933021 0
M  V30 294 H 28.7701 5.23733 -2.66416 0
M  V30 295 H 30.2941 5.79685 -1.91826 0
M  V30 296 H 31.7081 4.38273 -3.69581 0
M  V30 297 H 30.1051 4.06067 -4.41848 0
M  V30 298 H 31.1751 2.70273 -4.02592 0
M  V30 299 N 32.5182 1.22032 0.997298 0
M  V30 300 C 33.7462 1.06841 1.7718 0
M  V30 301 C 34.1612 -0.381325 1.84909 0
M  V30 302 O 33.5182 -1.26437 1.31605 0
M  V30 303 C 33.5692 1.66814 3.20711 0
M  V30 304 O 33.2902 3.06116 3.13408 0
M  V30 305 C 34.7912 1.56838 4.14628 0
M  V30 306 H 32.0112 0.374782 0.556578 0
M  V30 307 H 34.5552 1.61532 1.2541 0
M  V30 308 H 32.7102 1.16196 3.69564 0
M  V30 309 H 33.1242 3.34926 4.0364 0
M  V30 310 H 34.5982 2.03532 5.13107 0
M  V30 311 H 35.0752 0.524155 4.36061 0
M  V30 312 H 35.6812 2.06741 3.7167 0
M  V30 313 N 33.9963 -1.19345 1.0293 0
M  V30 314 C 35.2243 -1.92997 0.745644 0
M  V30 315 C 35.6393 -1.75519 -0.695589 0
M  V30 316 O 34.9963 -1.07737 -1.47306 0
M  V30 317 C 35.0473 -3.44741 1.08792 0
M  V30 318 O 34.7683 -3.61658 2.47256 0
M  V30 319 C 36.2693 -4.35515 0.827129 0
M  V30 320 H 33.4893 -0.613042 0.272801 0
M  V30 321 H 36.0333 -1.51473 1.3739 0
M  V30 322 H 34.1883 -3.84097 0.504832 0
M  V30 323 H 34.6023 -4.55514 2.60015 0
M  V30 324 H 36.0763 -5.40589 1.11658 0
M  V30 325 H 36.5533 -4.38552 -0.238436 0
M  V30 326 H 37.1593 -4.01841 1.39297 0
M  V30 327 N 35.4744 -0.807222 -1.35358 0
M  V30 328 C 36.4074 -0.163572 -2.27613 0
M  V30 329 C 37.3854 0.670817 -1.48118 0
M  V30 330 O 38.5694 0.63796 -1.77376 0
M  V30 331 C 35.6964 0.773015 -3.29761 0
M  V30 332 C 34.7424 0.0181653 -4.26496 0
M  V30 333 S 35.5754 -1.31831 -5.19019 0
M  V30 334 C 36.7314 -0.38619 -6.24707 0
M  V30 335 H 36.9644 -0.945757 -2.81856 0
M  V30 336 H 34.4974 -0.602315 -1.42167 0
M  V30 337 H 36.4554 1.30788 -3.89108 0
M  V30 338 H 35.1164 1.52859 -2.74396 0
M  V30 339 H 34.3094 0.729534 -4.98692 0
M  V30 340 H 33.9114 -0.446761 -3.71322 0
M  V30 341 H 36.2034 0.428295 -6.76145 0
M  V30 342 H 37.1464 -1.07736 -6.99856 0
M  V30 343 H 37.5544 0.018398 -5.64497 0
M  V30 344 N 36.9525 1.47285 -0.560781 0
M  V30 345 C 38.2295 1.9558 0.0277798 0
M  V30 346 C 38.6095 1.5034 1.48192 0
M  V30 347 O 37.9575 0.743882 2.16052 0
M  V30 348 C 38.1675 3.48789 -0.121418 0
M  V30 349 C 39.5155 4.24594 0.0220912 0
M  V30 350 O 40.5395 3.56166 -0.0491439 0
M  V30 351 O 39.3985 5.46217 0.175958 0
M  V30 352 H 36.4925 0.824663 0.0621342 0
M  V30 353 H 39.0385 1.5767 -0.627556 0
M  V30 354 H 37.8105 3.74533 -1.13316 0
M  V30 355 H 37.4335 3.93473 0.571366 0
M  V30 356 N 38.4306 0.297415 1.54768 0
M  V30 357 C 39.6586 -0.315623 2.04478 0
M  V30 358 C 40.0736 -1.47792 1.17486 0
M  V30 359 O 39.4306 -1.81404 0.19971 0
M  V30 360 C 39.4816 -0.7753 3.53088 0
M  V30 361 O 39.2026 0.340732 4.36773 0
M  V30 362 C 40.7036 -1.45386 4.18781 0
M  V30 363 H 37.9236 -0.0690887 0.667434 0
M  V30 364 H 40.4676 0.436003 1.99798 0
M  V30 365 H 38.6226 -1.47696 3.58141 0
M  V30 366 H 39.0366 -0.0165035 5.24497 0
M  V30 367 H 40.5106 -1.72669 5.24299 0
M  V30 368 H 40.9876 -2.39275 3.68299 0
M  V30 369 H 41.5936 -0.795475 4.17795 0
M  V30 370 N 39.9087 -1.5758 0.0250728 0
M  V30 371 C 40.8557 -2.09973 -0.958129 0
M  V30 372 C 41.8257 -1.00085 -1.3256 0
M  V30 373 O 43.0107 -1.27481 -1.41962 0
M  V30 374 C 40.1507 -2.62812 -2.2366 0
M  V30 375 C 39.2637 -3.86693 -1.92594 0
M  V30 376 C 38.3987 -4.27941 -3.14707 0
M  V30 377 C 37.4377 -5.44591 -2.79442 0
M  V30 378 N 36.5747 -5.81014 -3.94167 0
M  V30 379 H 41.4147 -2.937 -0.504428 0
M  V30 380 H 38.9517 -1.45172 -0.237392 0
M  V30 381 H 40.9097 -2.91536 -2.98434 0
M  V30 382 H 39.5397 -1.81922 -2.66654 0
M  V30 383 H 38.5917 -3.64723 -1.0808 0
M  V30 384 H 39.9037 -4.71547 -1.62619 0
M  V30 385 H 39.0577 -4.58079 -3.97804 0
M  V30 386 H 37.7967 -3.41845 -3.4784 0
M  V30 387 H 36.8017 -5.1415 -1.94755 0
M  V30 388 H 38.0267 -6.32382 -2.47528 0
M  V30 389 H 35.9727 -4.97874 -4.2715 0
M  V30 390 H 35.8897 -6.60498 -3.67801 0
M  V30 391 H 37.1577 -6.15756 -4.7798 0
M  V30 392 N 41.3868 0.248026 -1.55636 0
M  V30 393 C 42.3168 1.31079 -1.93237 0
M  V30 394 C 43.2978 1.50264 -0.797174 0
M  V30 395 O 44.4828 1.62891 -1.05737 0
M  V30 396 C 41.6128 2.66575 -2.22609 0
M  V30 397 C 40.5668 2.62087 -3.3837 0
M  V30 398 C 39.8928 4.01369 -3.53281 0
M  V30 399 C 41.1928 2.19171 -4.7409 0
M  V30 400 H 42.8868 0.998556 -2.82257 0
M  V30 401 H 40.4328 0.47891 -1.35803 0
M  V30 402 H 42.3858 3.41057 -2.47503 0
M  V30 403 H 41.1098 2.99432 -1.30414 0
M  V30 404 H 39.7688 1.90063 -3.13483 0
M  V30 405 H 39.4168 4.31489 -2.58508 0
M  V30 406 H 39.1168 3.99254 -4.31127 0
M  V30 407 H 40.6408 4.77552 -3.80495 0
M  V30 408 H 42.0548 2.83384 -4.98363 0
M  V30 409 H 40.4518 2.2817 -5.5503 0
M  V30 410 H 41.5218 1.14336 -4.71227 0
M  V30 411 N 42.8649 1.48995 0.513639 0
M  V30 412 C 43.8129 1.65199 1.63744 0
M  V30 413 C 44.8069 0.51809 1.61283 0
M  V30 414 O 46.0129 0.697335 1.65943 0
M  V30 415 H 42.3879 0.52069 0.542574 0
M  V30 416 H 44.3589 2.59552 1.47226 0
M  V30 417 C 43.1079 1.72409 3.01945 0
M  V30 418 H 42.4309 2.59029 3.04539 0
M  V30 419 H 43.8709 1.87785 3.80148 0
M  V30 420 C 42.3299 0.46618 3.33659 0
M  V30 421 O 42.8599 -0.413744 3.99564 0
M  V30 422 N 41.0659 0.332931 2.88687 0
M  V30 423 H 40.6129 1.04996 2.35231 0
M  V30 424 H 40.5709 -0.507665 3.10274 0
M  V30 425 N 44.343 -0.763751 1.37857 0
M  V30 426 C 45.276 -1.88486 1.28639 0
M  V30 427 C 46.254 -1.61757 0.165363 0
M  V30 428 O 47.438 -1.85391 0.340948 0
M  V30 429 C 44.565 -3.23884 0.990811 0
M  V30 430 C 43.611 -3.69514 2.12983 0
M  V30 431 S 44.444 -3.82244 3.75033 0
M  V30 432 C 45.6 -5.20477 3.47641 0
M  V30 433 H 45.833 -1.96017 2.23527 0
M  V30 434 H 43.366 -0.925684 1.23574 0
M  V30 435 H 45.324 -4.02081 0.827101 0
M  V30 436 H 43.985 -3.14044 0.0592832 0
M  V30 437 H 43.178 -4.67696 1.87821 0
M  V30 438 H 42.78 -2.98441 2.25408 0
M  V30 439 H 45.072 -6.05905 3.03125 0
M  V30 440 H 46.015 -5.50655 4.4518 0
M  V30 441 H 46.423 -4.88793 2.82385 0
M  V30 442 N 45.8211 -1.22559 -0.990812 0
M  V30 443 C 46.7511 -1.0218 -2.09956 0
M  V30 444 C 47.7321 0.0579394 -1.70001 0
M  V30 445 O 48.9171 -0.104684 -1.93918 0
M  V30 446 C 46.0471 -0.601023 -3.4206 0
M  V30 447 C 45.0011 -1.62694 -3.95872 0
M  V30 448 C 44.3271 -1.06193 -5.24049 0
M  V30 449 C 45.6271 -3.01743 -4.2632 0
M  V30 450 H 47.3211 -1.94916 -2.27262 0
M  V30 451 H 44.8671 -0.938566 -1.09211 0
M  V30 452 H 46.8201 -0.445561 -4.19038 0
M  V30 453 H 45.5441 0.362005 -3.24588 0
M  V30 454 H 44.2031 -1.77021 -3.21028 0
M  V30 455 H 43.8511 -0.0901903 -5.02919 0
M  V30 456 H 43.5511 -1.74732 -5.61019 0
M  V30 457 H 45.0751 -0.918092 -6.03658 0
M  V30 458 H 46.4891 -2.90777 -4.94087 0
M  V30 459 H 44.8861 -3.67425 -4.74467 0
M  V30 460 H 45.9561 -3.51518 -3.34011 0
M  V30 461 N 47.2992 1.18797 -1.03562 0
M  V30 462 C 48.2472 2.24297 -0.615905 0
M  V30 463 C 49.2412 1.65643 0.354808 0
M  V30 464 O 50.4472 1.78618 0.22265 0
M  V30 465 H 46.8222 0.729909 -0.180934 0
M  V30 466 H 48.7932 2.5701 -1.5162 0
M  V30 467 C 47.5422 3.47698 0.0104735 0
M  V30 468 H 46.8652 3.93125 -0.727509 0
M  V30 469 H 48.3052 4.23159 0.266995 0
M  V30 470 C 46.7642 3.12489 1.25905 0
M  V30 471 O 47.2942 3.25761 2.35038 0
M  V30 472 N 45.5002 2.6686 1.15039 0
M  V30 473 H 45.0472 2.56261 0.262328 0
M  V30 474 H 45.0052 2.43674 1.98672 0
M  V30 475 N 48.7773 0.814389 1.34928 0
M  V30 476 C 49.6873 0.231978 2.3345 0
M  V30 477 C 50.7033 -0.629139 1.62228 0
M  V30 478 O 51.8793 -0.539052 1.94052 0
M  V30 479 C 48.9443 -0.603482 3.41407 0
M  V30 480 C 48.0053 0.279037 4.28392 0
M  V30 481 C 47.2383 -0.516643 5.31193 0
M  V30 482 O 47.4613 -1.75068 5.4287 0
M  V30 483 O 46.3953 0.0965652 6.01823 0
M  V30 484 H 50.2213 1.04721 2.85074 0
M  V30 485 H 47.8063 0.576343 1.37836 0
M  V30 486 H 49.6883 -1.07908 4.0735 0
M  V30 487 H 48.3633 -1.39618 2.92042 0
M  V30 488 H 47.2703 0.801948 3.65403 0
M  V30 489 H 48.6033 1.03588 4.81176 0
M  V30 490 N 50.2554 -1.46986 0.568584 0
M  V30 491 C 51.2024 -2.30153 -0.172707 0
M  V30 492 C 52.1724 -1.39759 -0.897586 0
M  V30 493 O 53.3574 -1.68716 -0.891044 0
M  V30 494 C 50.4974 -3.23952 -1.1895 0
M  V30 495 C 49.6104 -4.29441 -0.469517 0
M  V30 496 C 48.7454 -5.1038 -1.47259 0
M  V30 497 C 47.7844 -6.07632 -0.738225 0
M  V30 498 N 46.9214 -6.8149 -1.68868 0
M  V30 499 H 51.7614 -2.93019 0.542596 0
M  V30 500 H 49.2984 -1.44422 0.279401 0
M  V30 501 H 51.2564 -3.76767 -1.79173 0
M  V30 502 H 49.8864 -2.62926 -1.87269 0
M  V30 503 H 48.9384 -3.79594 0.247467 0
M  V30 504 H 50.2504 -4.98689 0.105241 0
M  V30 505 H 49.4044 -5.67402 -2.14803 0
M  V30 506 H 48.1434 -4.4106 -2.08128 0
M  V30 507 H 47.1484 -5.49778 -0.0489293 0
M  V30 508 H 48.3734 -6.78966 -0.135129 0
M  V30 509 H 46.3194 -6.14891 -2.28573 0
M  V30 510 H 46.2364 -7.46948 -1.16636 0
M  V30 511 H 47.5044 -7.43078 -2.3549 0
M  V30 512 N 51.7335 -0.305618 -1.54608 0
M  V30 513 C 52.9795 0.302746 -2.00528 0
M  V30 514 C 53.3125 1.53184 -1.19367 0
M  V30 515 O 52.5875 1.92598 -0.271321 0
M  V30 516 C 52.8705 0.654756 -3.54097 0
M  V30 517 C 52.7235 -0.583793 -4.45995 0
M  V30 518 C 54.0425 1.47947 -4.14487 0
M  V30 519 H 51.1615 0.108564 -0.72896 0
M  V30 520 H 53.8035 -0.418634 -1.85331 0
M  V30 521 H 51.9535 1.26935 -3.67178 0
M  V30 522 H 53.6255 -1.22224 -4.44814 0
M  V30 523 H 51.8685 -1.21615 -4.16404 0
M  V30 524 H 52.5395 -0.293287 -5.5122 0
M  V30 525 H 55.0155 0.96013 -4.04871 0
M  V30 526 H 53.8915 1.69454 -5.22088 0
M  V30 527 H 54.1525 2.47011 -3.66658 0
M  V30 528 N 53.2116 1.57565 -0.0334293 0
M  V30 529 C 54.4886 1.83282 0.683163 0
M  V30 530 C 54.8686 0.91823 1.90084 0
M  V30 531 O 54.2166 -0.025113 2.28486 0
M  V30 532 C 54.4266 3.32599 1.0573 0
M  V30 533 C 55.7746 3.99179 1.44711 0
M  V30 534 O 56.7986 3.3712 1.15015 0
M  V30 535 O 55.6576 5.08565 2.0006 0
M  V30 536 H 52.7516 0.755869 0.335546 0
M  V30 537 H 55.2976 1.69589 -0.0614402 0
M  V30 538 H 54.0696 3.90834 0.190828 0
M  V30 539 H 53.6926 3.51415 1.85993 0
M  V30 540 N 54.6897 -0.239769 1.55765 0
M  V30 541 C 55.6217 -1.32001 1.87372 0
M  V30 542 C 56.6347 -1.43944 0.760522 0
M  V30 543 O 57.8237 -1.45167 1.0387 0
M  V30 544 C 54.9237 -2.69779 2.05115 0
M  V30 545 C 54.0967 -2.80014 3.36022 0
M  V30 546 C 53.1557 -3.98684 3.4342 0
M  V30 547 O 52.1817 -3.87877 4.16582 0
M  V30 548 N 53.3837 -5.12176 2.73232 0
M  V30 549 H 56.1487 -1.0522 2.80622 0
M  V30 550 H 53.7097 -0.429857 1.56089 0
M  V30 551 H 55.7017 -3.47517 2.07399 0
M  V30 552 H 54.2717 -2.89237 1.18577 0
M  V30 553 H 53.4917 -1.88896 3.45994 0
M  V30 554 H 54.7797 -2.83808 4.22292 0
M  V30 555 H 54.1777 -5.2385 2.13536 0
M  V30 556 H 52.7347 -5.88022 2.81199 0
M  V30 557 N 56.1678 -1.49265 -0.50573 0
M  V30 558 C 57.0978 -1.68495 -1.61653 0
M  V30 559 C 58.0788 -0.53366 -1.61512 0
M  V30 560 O 59.2638 -0.76897 -1.78327 0
M  V30 561 C 56.3938 -1.74709 -3.00157 0
M  V30 562 C 55.3478 -2.89581 -3.15162 0
M  V30 563 C 54.6738 -2.80903 -4.5497 0
M  V30 564 C 55.9738 -4.30578 -2.95634 0
M  V30 565 H 57.6678 -2.61493 -1.45814 0
M  V30 566 H 55.2138 -1.25838 -0.70005 0
M  V30 567 H 57.1668 -1.86748 -3.77761 0
M  V30 568 H 55.8908 -0.783067 -3.17074 0
M  V30 569 H 54.5498 -2.77136 -2.39982 0
M  V30 570 H 54.1978 -1.82419 -4.68756 0
M  V30 571 H 53.8978 -3.57999 -4.65951 0
M  V30 572 H 55.4218 -2.94944 -5.34641 0
M  V30 573 H 56.8358 -4.4373 -3.63011 0
M  V30 574 H 55.2328 -5.0886 -3.18091 0
M  V30 575 H 56.3028 -4.45352 -1.91806 0
M  V30 576 N 57.6459 0.756429 -1.3826 0
M  V30 577 C 58.5759 1.88374 -1.37976 0
M  V30 578 C 59.5569 1.68311 -0.246082 0
M  V30 579 O 60.7419 1.88944 -0.44874 0
M  V30 580 C 57.8719 3.25864 -1.20125 0
M  V30 581 C 56.8259 3.60523 -2.30666 0
M  V30 582 C 56.1519 4.9672 -1.97923 0
M  V30 583 C 57.4519 3.65692 -3.72916 0
M  V30 584 H 59.1459 1.88869 -2.32312 0
M  V30 585 H 56.6919 0.907272 -1.11824 0
M  V30 586 H 58.6449 4.0438 -1.18552 0
M  V30 587 H 57.3689 3.25841 -0.222498 0
M  V30 588 H 56.0279 2.84324 -2.3142 0
M  V30 589 H 55.6759 4.93253 -0.985393 0
M  V30 590 H 55.3759 5.20878 -2.71955 0
M  V30 591 H 56.8999 5.77618 -1.97964 0
M  V30 592 H 58.3139 4.34328 -3.74208 0
M  V30 593 H 56.7109 4.01358 -4.4613 0
M  V30 594 H 57.7809 2.65987 -4.05436 0
M  V30 595 N 59.124 1.23083 0.984299 0
M  V30 596 C 60.074 0.975749 2.06066 0
M  V30 597 C 61.058 -0.0768251 1.60716 0
M  V30 598 O 62.25 0.134805 1.76486 0
M  V30 599 C 59.379 0.564673 3.38624 0
M  V30 600 C 58.465 1.65244 3.90583 0
M  V30 601 N 58.856 2.88193 4.15666 0
M  V30 602 C 57.154 1.52612 4.19077 0
M  V30 603 C 57.855 3.58593 4.58024 0
M  V30 604 N 56.831 2.86093 4.62225 0
M  V30 605 H 60.633 1.90957 2.23411 0
M  V30 606 H 58.147 1.12963 1.16675 0
M  V30 607 H 60.144 0.36322 4.15315 0
M  V30 608 H 58.804 -0.362147 3.22674 0
M  V30 609 H 59.815 3.24537 4.03604 0
M  V30 610 H 56.492 0.666121 4.12152 0
M  V30 611 H 57.882 4.63974 4.85982 0
M  V30 612 N 60.6021 -1.18246 1.0419 0
M  V30 613 C 61.8491 -1.88257 0.746017 0
M  V30 614 C 62.1771 -1.80429 -0.726331 0
M  V30 615 O 61.4321 -1.2 -1.54591 0
M  V30 616 C 61.7311 -3.38082 1.15911 0
M  V30 617 C 61.3971 -3.66114 2.63195 0
M  V30 618 C 60.0591 -3.73474 3.03432 0
M  V30 619 C 62.4111 -3.78398 3.5842 0
M  V30 620 C 59.7391 -3.90599 4.37778 0
M  V30 621 C 62.0911 -3.97039 4.92487 0
M  V30 622 C 60.7551 -4.02635 5.32392 0
M  V30 623 H 60.0251 -0.688883 0.272987 0
M  V30 624 H 62.6721 -1.3995 1.30715 0
M  V30 625 H 60.9771 -3.88377 0.516806 0
M  V30 626 H 62.6741 -3.90596 0.907516 0
M  V30 627 H 59.2641 -3.61003 2.3103 0
M  V30 628 H 63.4481 -3.72042 3.28479 0
M  V30 629 H 58.7041 -3.93175 4.68213 0
M  V30 630 H 62.8781 -4.05486 5.66175 0
M  V30 631 H 60.5051 -4.15657 6.36501 0
M  V30 632 N 62.0802 -0.821533 -1.34494 0
M  V30 633 C 63.0122 -0.199946 -2.28326 0
M  V30 634 C 64.0252 0.609377 -1.50965 0
M  V30 635 O 65.2142 0.439285 -1.7301 0
M  V30 636 C 62.3142 0.738431 -3.30757 0
M  V30 637 C 61.4872 -0.0277632 -4.37391 0
M  V30 638 C 60.5462 0.831332 -5.19591 0
M  V30 639 O 59.5722 0.276822 -5.68526 0
M  V30 640 N 60.7742 2.15132 -5.39165 0
M  V30 641 H 63.5392 -1.00609 -2.82308 0
M  V30 642 H 61.1002 -0.678366 -1.47003 0
M  V30 643 H 63.0922 1.31773 -3.82646 0
M  V30 644 H 61.6622 1.44533 -2.7718 0
M  V30 645 H 60.8822 -0.788359 -3.86236 0
M  V30 646 H 62.1702 -0.555251 -5.05761 0
M  V30 647 H 61.5682 2.62559 -5.01078 0
M  V30 648 H 60.1252 2.6795 -5.94177 0
M  V30 649 N 63.5583 1.46682 -0.576371 0
M  V30 650 C 64.4683 2.34032 0.163141 0
M  V30 651 C 65.4843 1.49367 0.892501 0
M  V30 652 O 66.6603 1.82252 0.857106 0
M  V30 653 C 63.7253 3.26435 1.16795 0
M  V30 654 C 62.7863 4.26998 0.443944 0
M  V30 655 C 62.0193 5.14986 1.40088 0
M  V30 656 O 62.2423 5.05785 2.637 0
M  V30 657 O 61.1763 5.94906 0.914917 0
M  V30 658 H 65.0023 2.98607 -0.55388 0
M  V30 659 H 62.5873 1.45554 -0.336821 0
M  V30 660 H 64.4693 3.83459 1.74748 0
M  V30 661 H 63.1443 2.64465 1.86655 0
M  V30 662 H 62.0513 3.7368 -0.177271 0
M  V30 663 H 63.3843 4.91736 -0.213566 0
M  V30 664 N 65.0364 0.313813 1.54444 0
M  V30 665 C 66.3134 -0.345447 1.92525 0
M  V30 666 C 66.6934 -1.70667 1.24242 0
M  V30 667 O 66.0414 -2.25273 0.382654 0
M  V30 668 C 66.2514 -0.44737 3.46121 0
M  V30 669 C 67.5994 -0.712238 4.18584 0
M  V30 670 O 68.6234 -0.530678 3.52225 0
M  V30 671 O 67.4824 -1.06183 5.36085 0
M  V30 672 H 64.5764 -0.195407 0.803583 0
M  V30 673 H 67.1224 0.362813 1.65776 0
M  V30 674 H 65.8944 0.509043 3.87975 0
M  V30 675 H 65.5174 -1.20359 3.78945 0
M  V30 676 N 66.5145 -1.57545 0.0417849 0
M  V30 677 C 67.7605 -1.92601 -0.635021 0
M  V30 678 C 68.0935 -0.919627 -1.71045 0
M  V30 679 O 67.3685 0.0557892 -1.9442 0
M  V30 680 C 67.6515 -3.38085 -1.23979 0
M  V30 681 C 67.5045 -4.49467 -0.173057 0
M  V30 682 C 68.8235 -3.83776 -2.15416 0
M  V30 683 H 65.9425 -0.700397 -0.229374 0
M  V30 684 H 68.5845 -1.89728 0.101633 0
M  V30 685 H 66.7345 -3.40664 -1.86762 0
M  V30 686 H 68.4065 -4.59018 0.458312 0
M  V30 687 H 66.6495 -4.30909 0.499996 0
M  V30 688 H 67.3205 -5.48323 -0.636054 0
M  V30 689 H 69.7965 -3.83013 -1.62605 0
M  V30 690 H 68.6725 -4.8624 -2.54679 0
M  V30 691 H 68.9335 -3.19998 -3.05047 0
M  V30 692 N 67.9926 0.231505 -1.5589 0
M  V30 693 C 69.2206 0.974505 -1.82513 0
M  V30 694 C 69.6356 1.78344 -0.619591 0
M  V30 695 O 68.9926 1.77792 0.411848 0
M  V30 696 C 69.0436 1.90007 -3.07538 0
M  V30 697 O 68.7646 1.12385 -4.2344 0
M  V30 698 C 70.2656 2.75779 -3.47075 0
M  V30 699 H 67.4856 0.286065 -0.606966 0
M  V30 700 H 70.0296 0.249739 -2.02969 0
M  V30 701 H 68.1846 2.57891 -2.89086 0
M  V30 702 H 68.5986 1.75125 -4.944 0
M  V30 703 H 70.0726 3.36443 -4.37619 0
M  V30 704 H 70.5496 3.47672 -2.68367 0
M  V30 705 H 71.1556 2.13323 -3.67931 0
M  V30 706 N 69.4707 1.49531 0.497807 0
M  V30 707 C 70.3807 1.69176 1.62532 0
M  V30 708 C 71.3967 0.5744 1.64246 0
M  V30 709 O 72.5727 0.849497 1.82608 0
M  V30 710 C 69.6377 1.75695 2.98885 0
M  V30 711 C 68.6987 2.9929 3.07773 0
M  V30 712 C 67.9317 3.05488 4.37622 0
M  V30 713 O 68.1547 2.19192 5.26603 0
M  V30 714 O 67.0887 3.9798 4.51548 0
M  V30 715 H 70.9147 2.647 1.48887 0
M  V30 716 H 68.4997 1.3331 0.674441 0
M  V30 717 H 70.3817 1.82317 3.79919 0
M  V30 718 H 69.0567 0.8335 3.12785 0
M  V30 719 H 67.9637 2.98183 2.25915 0
M  V30 720 H 69.2967 3.91125 2.98801 0
M  V30 721 N 70.9488 -0.749086 1.3866 0
M  V30 722 C 71.8958 -1.86291 1.36251 0
M  V30 723 C 72.8658 -1.64578 0.224347 0
M  V30 724 O 74.0508 -1.86181 0.417279 0
M  V30 725 C 71.1908 -3.23644 1.19786 0
M  V30 726 C 70.3038 -3.57158 2.43027 0
M  V30 727 C 69.4388 -4.83838 2.19258 0
M  V30 728 C 68.4778 -5.10152 3.38247 0
M  V30 729 N 67.6148 -6.28029 3.13884 0
M  V30 730 H 72.4548 -1.87685 2.3147 0
M  V30 731 H 69.9918 -0.917287 1.14997 0
M  V30 732 H 71.9498 -4.0291 1.08254 0
M  V30 733 H 70.5798 -3.21566 0.282031 0
M  V30 734 H 69.6318 -2.72701 2.65214 0
M  V30 735 H 70.9438 -3.7253 3.31697 0
M  V30 736 H 70.0978 -5.71057 2.04888 0
M  V30 737 H 68.8368 -4.70614 1.2796 0
M  V30 738 H 67.8418 -4.21401 3.53131 0
M  V30 739 H 69.0668 -5.25271 4.30427 0
M  V30 740 H 67.0128 -6.1612 2.25238 0
M  V30 741 H 66.9298 -6.43922 3.96106 0
M  V30 742 H 68.1978 -7.18124 3.03179 0
M  V30 743 N 72.4269 -1.23603 -0.977757 0
M  V30 744 C 73.3569 -1.04401 -2.0886 0
M  V30 745 C 74.3379 0.0399052 -1.70053 0
M  V30 746 O 75.5229 -0.125246 -1.93796 0
M  V30 747 C 72.6529 -0.637269 -3.41403 0
M  V30 748 C 71.6069 -1.66883 -3.94124 0
M  V30 749 C 70.9329 -1.11745 -5.22893 0
M  V30 750 C 72.2329 -3.06247 -4.23096 0
M  V30 751 H 73.9269 -1.97316 -2.25182 0
M  V30 752 H 71.4729 -0.950096 -1.08209 0
M  V30 753 H 73.4259 -0.48998 -4.18542 0
M  V30 754 H 72.1499 0.327557 -3.24953 0
M  V30 755 H 70.8089 -1.80416 -3.19133 0
M  V30 756 H 70.4569 -0.143527 -5.02795 0
M  V30 757 H 70.1569 -1.80672 -5.59134 0
M  V30 758 H 71.6809 -0.982067 -6.02651 0
M  V30 759 H 73.0949 -2.96001 -4.90975 0
M  V30 760 H 71.4919 -3.72436 -4.70544 0
M  V30 761 H 72.5619 -3.55041 -3.30263 0
M  V30 762 N 73.905 1.17692 -1.04816 0
M  V30 763 C 74.837 2.21103 -0.603822 0
M  V30 764 C 75.85 1.59411 0.33046 0
M  V30 765 O 77.039 1.7807 0.12379 0
M  V30 766 C 74.139 3.38623 0.136898 0
M  V30 767 C 73.312 4.29888 -0.807137 0
M  V30 768 C 72.371 5.26088 -0.10836 0
M  V30 769 O 71.397 5.64353 -0.741232 0
M  V30 770 N 72.599 5.68882 1.15558 0
M  V30 771 H 75.364 2.59848 -1.49329 0
M  V30 772 H 72.925 1.32553 -0.929587 0
M  V30 773 H 74.917 4.00009 0.614401 0
M  V30 774 H 73.487 2.98508 0.927993 0
M  V30 775 H 72.707 3.65993 -1.46434 0
M  V30 776 H 73.995 4.87759 -1.44807 0
M  V30 777 H 73.393 5.39861 1.69015 0
M  V30 778 H 71.95 6.32429 1.57722 0
M  V30 779 N 75.3831 0.828654 1.34056 0
M  V30 780 C 76.6081 0.431637 2.02859 0
M  V30 781 C 77.0331 -0.956339 1.61975 0
M  V30 782 O 76.3911 -1.62338 0.807228 0
M  V30 783 C 76.4391 0.548323 3.56407 0
M  V30 784 O 75.5431 -0.429556 4.10157 0
M  V30 785 H 74.8841 0.176886 0.640006 0
M  V30 786 H 77.4141 1.12066 1.71179 0
M  V30 787 H 77.4241 0.426196 4.05768 0
M  V30 788 H 76.0991 1.5606 3.8551 0
M  V30 789 H 74.6761 -0.265836 3.71951 0
M  V30 790 N 76.8612 -1.46375 0.584142 0
M  V30 791 C 77.7942 -2.27351 -0.196676 0
M  V30 792 C 78.7722 -1.35715 -0.895561 0
M  V30 793 O 79.9562 -1.65126 -0.90916 0
M  V30 794 C 77.0832 -3.13486 -1.28235 0
M  V30 795 C 76.1292 -4.20896 -0.689145 0
M  V30 796 S 76.9622 -5.33299 0.48507 0
M  V30 797 C 78.1182 -6.23 -0.601767 0
M  V30 798 H 78.3512 -2.93228 0.490395 0
M  V30 799 H 75.8842 -1.49875 0.371071 0
M  V30 800 H 77.8422 -3.63676 -1.90395 0
M  V30 801 H 76.5032 -2.4692 -1.94138 0
M  V30 802 H 75.6962 -4.80997 -1.50527 0
M  V30 803 H 75.2982 -3.73726 -0.143181 0
M  V30 804 H 77.5902 -6.60979 -1.48705 0
M  V30 805 H 78.5332 -7.0809 -0.0374799 0
M  V30 806 H 78.9412 -5.57173 -0.906557 0
M  V30 807 N 78.3393 -0.321999 -1.54275 0
M  V30 808 C 79.5793 0.281657 -2.0245 0
M  V30 809 C 79.9433 1.49468 -1.20513 0
M  V30 810 O 81.1443 2.17109 -1.58484 0
M  V30 811 C 79.4153 0.609014 -3.52173 0
M  V30 812 S 80.9743 1.19255 -4.22284 0
M  V30 813 H 77.7923 0.0852825 -0.705867 0
M  V30 814 H 80.3943 -0.454758 -1.90137 0
M  V30 815 H 79.0983 -0.281982 -4.0943 0
M  V30 816 H 78.6293 1.37567 -3.68563 0
M  V30 817 H 80.6443 2.47944 -4.29812 0
M  V30 818 N 79.8174 1.5752 -0.0501392 0
M  V30 819 C 81.2334 1.56631 0.306402 0
M  V30 820 C 81.4334 1.0577 1.71508 0
M  V30 821 O 80.4894 0.713837 2.422 0
M  V30 822 C 81.8024 3.00393 0.135811 0
M  V30 823 C 83.3504 3.12315 0.206993 0
M  V30 824 C 83.8254 4.57954 0.064944 0
M  V30 825 N 85.3164 4.63041 0.121254 0
M  V30 826 C 86.0514 5.73389 0.0354381 0
M  V30 827 N 85.5474 6.92724 -0.102666 0
M  V30 828 N 87.3404 5.62026 0.090946 0
M  V30 829 H 79.4914 1.88903 -0.971046 0
M  V30 830 H 81.7544 0.869876 -0.376855 0
M  V30 831 H 81.4604 3.41635 -0.835384 0
M  V30 832 H 81.3344 3.66373 0.897275 0
M  V30 833 H 83.7214 2.70973 1.16866 0
M  V30 834 H 83.8024 2.49016 -0.585208 0
M  V30 835 H 83.4464 4.99981 -0.893394 0
M  V30 836 H 83.3764 5.19258 0.876277 0
M  V30 837 H 85.8674 3.77216 0.227284 0
M  V30 838 H 86.1804 7.72633 -0.160882 0
M  V30 839 H 84.5254 6.94864 -0.137737 0
M  V30 840 H 87.7164 4.67684 0.197388 0
M  V30 841 H 87.8894 6.47997 0.0206089 0
M  V30 842 N 81.2955 -0.223234 1.56011 0
M  V30 843 C 82.5725 -0.972108 1.69733 0
M  V30 844 C 82.9525 -2.02485 0.59691 0
M  V30 845 O 82.3005 -2.25037 -0.396324 0
M  V30 846 C 82.5105 -1.58407 3.10979 0
M  V30 847 C 83.8585 -2.07696 3.70334 0
M  V30 848 O 84.8825 -1.68304 3.1393 0
M  V30 849 O 83.7415 -2.80096 4.69264 0
M  V30 850 H 80.8355 -0.453993 0.691245 0
M  V30 851 H 83.3815 -0.215149 1.68331 0
M  V30 852 H 82.1535 -0.823831 3.82529 0
M  V30 853 H 81.7765 -2.40661 3.16493 0
M  V30 854 N 82.7736 -1.49793 -0.48987 0
M  V30 855 C 83.7066 -1.61898 -1.60823 0
M  V30 856 C 84.6846 -0.467651 -1.5573 0
M  V30 857 O 85.8686 -0.684682 -1.75626 0
M  V30 858 C 82.9956 -1.58422 -2.99366 0
M  V30 859 C 82.0416 -2.78889 -3.22682 0
M  V30 860 S 82.8746 -4.40429 -3.04602 0
M  V30 861 C 84.0306 -4.39617 -4.4552 0
M  V30 862 H 84.2636 -2.56502 -1.50312 0
M  V30 863 H 81.7966 -1.38822 -0.675849 0
M  V30 864 H 83.7546 -1.57103 -3.79248 0
M  V30 865 H 82.4156 -0.650866 -3.07283 0
M  V30 866 H 81.6086 -2.72708 -4.23847 0
M  V30 867 H 81.2106 -2.77678 -2.50541 0
M  V30 868 H 83.5026 -4.12022 -5.37814 0
M  V30 869 H 84.4456 -5.41097 -4.56749 0
M  V30 870 H 84.8536 -3.69554 -4.2672 0
M  V30 871 N 84.2517 0.741722 -1.39055 0
M  V30 872 C 85.4997 1.49818 -1.35643 0
M  V30 873 C 85.8207 1.94938 0.0491642 0
M  V30 874 O 85.0907 1.68505 0.999141 0
M  V30 875 H 83.6707 0.555755 -0.499144 0
M  V30 876 H 86.3327 0.880957 -1.73854 0
M  V30 877 H 85.4287 2.38348 -2.01486 0
M  V30 878 N 85.7298 1.2412 0.971189 0
M  V30 879 C 86.6798 0.997551 2.05019 0
M  V30 880 C 87.6638 -0.0597747 1.60789 0
M  V30 881 O 88.8558 0.153516 1.76333 0
M  V30 882 C 85.9848 0.600557 3.38006 0
M  V30 883 C 85.0708 1.69377 3.88809 0
M  V30 884 N 85.4618 2.92586 4.12586 0
M  V30 885 C 83.7598 1.57048 4.17435 0
M  V30 886 C 84.4608 3.63431 4.54195 0
M  V30 887 N 83.4368 2.90979 4.59165 0
M  V30 888 H 87.2388 1.93316 2.21374 0
M  V30 889 H 84.7528 1.14194 1.1547 0
M  V30 890 H 86.7498 0.40725 4.14906 0
M  V30 891 H 85.4098 -0.327903 3.2304 0
M  V30 892 H 86.4208 3.288 4.00139 0
M  V30 893 H 83.0978 0.709798 4.11422 0
M  V30 894 H 84.4878 4.69102 4.81033 0
M  V30 895 N 87.2079 -1.17134 1.05439 0
M  V30 896 C 88.1379 -2.2342 0.678649 0
M  V30 897 C 89.1189 -1.66971 -0.32476 0
M  V30 898 O 90.3039 -1.93149 -0.201802 0
M  V30 899 C 87.4339 -3.47256 0.0552099 0
M  V30 900 C 86.3879 -4.16543 0.98365 0
M  V30 901 C 85.7139 -5.34231 0.223961 0
M  V30 902 C 87.0139 -4.68495 2.3089 0
M  V30 903 H 88.7079 -2.55105 1.56722 0
M  V30 904 H 86.2539 -1.2262 0.754998 0
M  V30 905 H 88.2069 -4.20828 -0.21946 0
M  V30 906 H 86.9309 -3.14846 -0.868319 0
M  V30 907 H 85.5899 -3.44887 1.24293 0
M  V30 908 H 85.2379 -4.98071 -0.702412 0
M  V30 909 H 84.9379 -5.81527 0.842627 0
M  V30 910 H 86.4619 -6.10585 -0.0433671 0
M  V30 911 H 87.8759 -5.33691 2.09396 0
M  V30 912 H 86.2729 -5.26379 2.88176 0
M  V30 913 H 87.3429 -3.85169 2.94572 0
M  V30 914 N 88.686 -0.835752 -1.33615 0
M  V30 915 C 89.596 -0.269088 -2.33052 0
M  V30 916 C 90.612 0.603251 -1.63208 0
M  V30 917 O 91.788 0.508112 -1.94885 0
M  V30 918 C 88.853 0.549091 -3.42324 0
M  V30 919 C 87.914 -0.347156 -4.27894 0
M  V30 920 C 87.147 0.43207 -5.31948 0
M  V30 921 O 87.37 1.66409 -5.45586 0
M  V30 922 O 86.304 -0.192298 -6.01593 0
M  V30 923 H 90.13 -1.09243 -2.83372 0
M  V30 924 H 87.715 -0.598198 -1.36901 0
M  V30 925 H 89.597 1.01414 -4.09015 0
M  V30 926 H 88.272 1.34955 -2.94226 0
M  V30 927 H 87.179 -0.859979 -3.64081 0
M  V30 928 H 88.512 -1.1123 -4.79467 0
M  V30 929 N 90.1641 1.46063 -0.591896 0
M  V30 930 C 91.5801 1.57561 -0.254288 0
M  V30 931 C 91.7801 1.58565 1.24336 0
M  V30 932 O 90.8361 1.50753 2.02558 0
M  V30 933 C 92.1491 2.86549 -0.911611 0
M  V30 934 C 93.6971 3.00197 -0.886059 0
M  V30 935 C 94.1721 4.31933 -1.5231 0
M  V30 936 N 95.6631 4.38654 -1.48786 0
M  V30 937 C 96.3981 5.39222 -1.95006 0
M  V30 938 N 95.8941 6.46414 -2.49241 0
M  V30 939 N 97.6871 5.3048 -1.85868 0
M  V30 940 H 89.8381 1.43655 -1.56451 0
M  V30 941 H 92.1011 0.68583 -0.654478 0
M  V30 942 H 91.8071 2.91651 -1.96551 0
M  V30 943 H 91.6811 3.74794 -0.425368 0
M  V30 944 H 94.0681 2.9467 0.159246 0
M  V30 945 H 94.1491 2.13403 -1.41041 0
M  V30 946 H 93.7931 4.38217 -2.56765 0
M  V30 947 H 93.7231 5.17516 -0.973891 0
M  V30 948 H 96.2141 3.61793 -1.09151 0
M  V30 949 H 96.5271 7.19376 -2.82344 0
M  V30 950 H 94.8721 6.47208 -2.53272 0
M  V30 951 H 98.0631 4.45643 -1.43248 0
M  V30 952 H 98.2361 6.08711 -2.22204 0
M  V30 953 N 91.6422 0.330177 1.54103 0
M  V30 954 C 92.8902 -0.269871 2.0029 0
M  V30 955 C 93.2112 -1.52133 1.21986 0
M  V30 956 O 92.4812 -1.93212 0.323438 0
M  V30 957 H 91.0612 -0.10271 0.739905 0
M  V30 958 H 93.7232 0.448249 1.89675 0
M  V30 959 H 92.8192 -0.52166 3.07709 0
M  V30 960 N 93.1203 -1.57491 0.0584922 0
M  V30 961 C 94.0503 -2.14988 -0.911178 0
M  V30 962 C 95.0313 -1.07343 -1.31952 0
M  V30 963 O 96.2163 -1.35318 -1.39294 0
M  V30 964 C 93.3463 -2.70078 -2.18347 0
M  V30 965 C 92.3003 -3.82771 -1.91495 0
M  V30 966 C 91.6263 -4.24408 -3.25241 0
M  V30 967 C 92.9263 -5.07592 -1.23075 0
M  V30 968 H 94.6203 -2.96263 -0.432246 0
M  V30 969 H 92.1663 -1.42512 -0.206469 0
M  V30 970 H 94.1193 -3.08943 -2.86587 0
M  V30 971 H 92.8433 -1.86005 -2.68458 0
M  V30 972 H 91.5023 -3.44389 -1.25664 0
M  V30 973 H 91.1503 -3.37275 -3.73168 0
M  V30 974 H 90.8503 -5.00366 -3.08071 0
M  V30 975 H 92.3743 -4.65879 -3.94701 0
M  V30 976 H 93.7883 -5.43857 -1.81362 0
M  V30 977 H 92.1853 -5.88741 -1.16207 0
M  V30 978 H 93.2553 -4.84454 -0.207847 0
M  V30 979 N 94.5984 0.214957 -1.56127 0
M  V30 980 C 95.5484 1.27006 -1.8935 0
M  V30 981 C 96.5324 1.41969 -0.757202 0
M  V30 982 O 97.7244 1.44673 -1.01973 0
M  V30 983 C 94.8534 2.61911 -2.2194 0
M  V30 984 C 93.9394 2.50822 -3.41978 0
M  V30 985 N 94.3304 2.09391 -4.60423 0
M  V30 986 C 92.6284 2.81765 -3.45723 0
M  V30 987 C 93.3294 2.09712 -5.42582 0
M  V30 988 N 92.3054 2.50454 -4.82466 0
M  V30 989 H 96.1074 0.940734 -2.78437 0
M  V30 990 H 93.6214 0.423492 -1.56781 0
M  V30 991 H 95.6184 3.38096 -2.43919 0
M  V30 992 H 94.2784 2.95684 -1.34169 0
M  V30 993 H 95.2894 1.80416 -4.85459 0
M  V30 994 H 91.9664 3.19865 -2.68314 0
M  V30 995 H 93.3564 1.79748 -6.4741 0
M  V30 996 N 96.0765 1.50051 0.48192 0
M  V30 997 C 97.4925 1.37237 0.814756 0
M  V30 998 C 97.6925 0.420109 1.97072 0
M  V30 999 O 96.7485 -0.141246 2.52105 0
M  V30 1000 C 98.0615 2.78375 1.13701 0
M  V30 1001 C 99.6095 2.87213 1.2441 0
M  V30 1002 C 100.084 4.29161 1.59954 0
M  V30 1003 N 101.575 4.32061 1.66967 0
M  V30 1004 C 102.31 5.38879 1.95952 0
M  V30 1005 N 101.806 6.55918 2.23031 0
M  V30 1006 N 103.599 5.26312 1.97363 0
M  V30 1007 H 95.7505 2.10546 -0.28005 0
M  V30 1008 H 98.0135 0.945921 -0.0627454 0
M  V30 1009 H 97.7195 3.49845 0.360787 0
M  V30 1010 H 97.5935 3.14941 2.07586 0
M  V30 1011 H 99.9805 2.15969 2.01101 0
M  V30 1012 H 100.061 2.54204 0.285299 0
M  V30 1013 H 99.7055 5.00938 0.838067 0
M  V30 1014 H 99.6355 4.59648 2.56966 0
M  V30 1015 H 102.126 3.47661 1.48123 0
M  V30 1016 H 102.439 7.33139 2.44391 0
M  V30 1017 H 100.784 6.59112 2.20447 0
M  V30 1018 H 103.975 4.33876 1.75697 0
M  V30 1019 H 104.148 6.09649 2.19618 0
M  V30 1020 N 97.5546 -0.734337 1.39446 0
M  V30 1021 C 98.4846 -1.86155 1.40955 0
M  V30 1022 C 99.4656 -1.67898 0.272827 0
M  V30 1023 O 100.651 -1.88207 0.478743 0
M  V30 1024 C 97.7806 -3.23912 1.25294 0
M  V30 1025 C 96.7346 -3.56808 2.36373 0
M  V30 1026 C 96.0606 -4.93508 2.058 0
M  V30 1027 C 97.3606 -3.59713 3.78687 0
M  V30 1028 H 99.0546 -1.8515 2.35287 0
M  V30 1029 H 96.6006 -0.889367 1.13253 0
M  V30 1030 H 98.5536 -4.02443 1.2497 0
M  V30 1031 H 97.2776 -3.25446 0.274308 0
M  V30 1032 H 95.9366 -2.80606 2.35914 0
M  V30 1033 H 95.5846 -4.91623 1.06374 0
M  V30 1034 H 95.2846 -5.16486 2.80208 0
M  V30 1035 H 96.8086 -5.74396 2.07128 0
M  V30 1036 H 98.2226 -4.2832 3.81071 0
M  V30 1037 H 96.6196 -3.94209 4.52459 0
M  V30 1038 H 97.6896 -2.59504 4.09617 0
M  V30 1039 N 99.0327 -1.24633 -0.964593 0
M  V30 1040 C 99.9427 -1.05859 -2.09359 0
M  V30 1041 C 100.959 0.00148855 -1.74 0
M  V30 1042 O 102.135 -0.197346 -2.00431 0
M  V30 1043 C 99.1997 -0.668879 -3.40187 0
M  V30 1044 C 98.2607 -1.80578 -3.89474 0
M  V30 1045 C 97.4937 -1.43457 -5.14058 0
M  V30 1046 O 97.7167 -0.325775 -5.69469 0
M  V30 1047 O 96.6507 -2.2613 -5.57807 0
M  V30 1048 H 100.477 -2.00516 -2.28094 0
M  V30 1049 H 98.0617 -1.03481 -1.0776 0
M  V30 1050 H 99.9437 -0.463211 -4.18846 0
M  V30 1051 H 98.6187 0.248536 -3.22744 0
M  V30 1052 H 97.5257 -2.06623 -3.11862 0
M  V30 1053 H 98.8587 -2.70208 -4.11398 0
M  V30 1054 N 100.511 1.16574 -1.06058 0
M  V30 1055 C 101.474 2.19085 -0.673392 0
M  V30 1056 C 102.474 1.5835 0.279648 0
M  V30 1057 O 103.664 1.74088 0.0623488 0
M  V30 1058 C 100.796 3.40899 0.00954234 0
M  V30 1059 H 101.989 2.54853 -1.58081 0
M  V30 1060 H 99.5418 1.30808 -0.855516 0
M  V30 1061 H 100.277 3.10684 0.929826 0
M  V30 1062 H 100.062 3.86233 -0.67573 0
M  V30 1063 H 101.552 4.1675 0.266245 0
M  V30 1064 N 101.989 0.842826 1.3317 0
M  V30 1065 C 103.214 0.453129 2.02389 0
M  V30 1066 C 103.639 -0.939105 1.6298 0
M  V30 1067 O 102.997 -1.61472 0.8244 0
M  V30 1068 C 103.045 0.586094 3.55805 0
M  V30 1069 O 102.149 -0.386029 4.10589 0
M  V30 1070 H 101.49 0.183664 0.638094 0
M  V30 1071 H 104.02 1.13875 1.69981 0
M  V30 1072 H 104.03 0.469209 4.05293 0
M  V30 1073 H 102.705 1.6014 3.83833 0
M  V30 1074 H 101.282 -0.226371 3.72212 0
M  V30 1075 N 103.467 -1.45747 0.599634 0
M  V30 1076 C 104.883 -1.57424 0.26264 0
M  V30 1077 C 105.083 -1.59222 -1.23493 0
M  V30 1078 O 104.139 -1.51825 -2.01756 0
M  V30 1079 C 105.452 -2.86061 0.926795 0
M  V30 1080 C 107 -2.99722 0.901967 0
M  V30 1081 C 107.475 -4.31119 1.54598 0
M  V30 1082 N 108.966 -4.37858 1.5111 0
M  V30 1083 C 109.701 -5.3818 1.97863 0
M  V30 1084 N 109.197 -6.45083 2.52666 0
M  V30 1085 N 110.99 -5.29487 1.88679 0
M  V30 1086 H 103.141 -1.42823 1.57211 0
M  V30 1087 H 105.404 -0.68235 0.658105 0
M  V30 1088 H 105.11 -2.90605 1.98095 0
M  V30 1089 H 104.984 -3.74563 0.445238 0
M  V30 1090 H 107.371 -2.9475 -0.143617 0
M  V30 1091 H 107.452 -2.12652 1.42171 0
M  V30 1092 H 107.096 -4.36849 2.59085 0
M  V30 1093 H 107.026 -5.16992 1.00132 0
M  V30 1094 H 109.517 -3.61209 1.11068 0
M  V30 1095 H 109.83 -7.17869 2.86155 0
M  V30 1096 H 108.175 -6.45856 2.56701 0
M  V30 1097 H 111.366 -4.44877 1.4561 0
M  V30 1098 H 111.539 -6.07524 2.25429 0
M  V30 1099 N 104.945 -0.338344 -1.53925 0
M  V30 1100 C 105.908 0.508299 -2.23493 0
M  V30 1101 C 106.908 1.03175 -1.23335 0
M  V30 1102 O 108.098 0.921826 -1.47811 0
M  V30 1103 C 105.23 1.70754 -2.95052 0
M  V30 1104 H 106.423 -0.100058 -2.99733 0
M  V30 1105 H 103.976 -0.0896198 -1.56043 0
M  V30 1106 H 104.711 2.35474 -2.22986 0
M  V30 1107 H 104.496 1.33946 -3.68512 0
M  V30 1108 H 105.986 2.30818 -3.48013 0
M  V30 1109 N 106.423 1.57458 -0.0668435 0
M  V30 1110 C 107.834 1.80776 0.466558 0
M  V30 1111 C 108.185 0.980361 1.69951 0
M  V30 1112 O 107.31 0.201441 2.1546 0
M  V30 1113 C 107.905 3.27881 0.85321 0
M  V30 1114 C 106.464 3.52062 1.3315 0
M  V30 1115 C 105.611 2.75513 0.314264 0
M  V30 1116 H 108.562 1.5598 -0.292588 0
M  V30 1117 H 108.583 3.39659 1.715 0
M  V30 1118 H 108.095 3.88075 -0.0443439 0
M  V30 1119 H 106.196 2.97167 2.24772 0
M  V30 1120 H 106.309 4.60762 1.31285 0
M  V30 1121 H 104.673 2.42123 0.790492 0
M  V30 1122 H 105.456 3.38442 -0.575477 0
M  V30 1123 N 107.901 -0.206675 1.56239 0
M  V30 1124 C 109.149 -0.927007 1.79586 0
M  V30 1125 C 109.47 -1.8427 0.637929 0
M  V30 1126 O 108.74 -1.92849 -0.344398 0
M  V30 1127 H 107.32 -0.345292 0.662407 0
M  V30 1128 H 109.982 -0.21496 1.93711 0
M  V30 1129 H 109.078 -1.52501 2.72305 0
M  V30 1130 N 109.379 -1.50304 -0.473955 0
M  V30 1131 C 110.79 -1.54042 -1.0549 0
M  V30 1132 C 111.141 -0.342248 -1.93192 0
M  V30 1133 O 110.266 0.545157 -2.09421 0
M  V30 1134 C 110.861 -2.79152 -1.91989 0
M  V30 1135 C 109.42 -2.8558 -2.45196 0
M  V30 1136 C 108.567 -2.48295 -1.2347 0
M  V30 1137 H 111.518 -1.5661 -0.256693 0
M  V30 1138 H 111.539 -2.60845 -2.7702 0
M  V30 1139 H 111.051 -3.66339 -1.28131 0
M  V30 1140 H 109.152 -2.02738 -3.12615 0
M  V30 1141 H 109.265 -3.88403 -2.80499 0
M  V30 1142 H 107.629 -2.00669 -1.56856 0
M  V30 1143 H 108.412 -3.37787 -0.612789 0
M  V30 1144 N 110.857 0.726932 -1.39834 0
M  V30 1145 C 112.105 1.4837 -1.37225 0
M  V30 1146 C 112.426 1.94979 0.0284857 0
M  V30 1147 O 111.696 1.69555 0.981213 0
M  V30 1148 H 110.276 0.55043 -0.505011 0
M  V30 1149 H 112.938 0.862468 -1.74778 0
M  V30 1150 H 112.034 2.36198 -2.04003 0
M  V30 1151 N 112.336 1.25143 0.95797 0
M  V30 1152 C 113.584 1.09476 1.69881 0
M  V30 1153 C 113.905 -0.365502 1.91544 0
M  V30 1154 O 113.175 -1.25985 1.50015 0
M  V30 1155 H 111.755 0.402128 0.629525 0
M  V30 1156 H 114.417 1.57214 1.15194 0
M  V30 1157 H 113.513 1.60046 2.6794 0
M  V30 1158 N 113.814 -1.1601 1.06675 0
M  V30 1159 C 114.777 -2.18724 0.685001 0
M  V30 1160 C 115.777 -1.58496 -0.271246 0
M  V30 1161 O 116.967 -1.74119 -0.0531156 0
M  V30 1162 C 114.099 -3.40899 0.00853648 0
M  V30 1163 H 115.292 -2.54011 1.59431 0
M  V30 1164 H 112.845 -1.30352 0.862441 0
M  V30 1165 H 113.58 -3.11173 -0.913337 0
M  V30 1166 H 113.365 -3.8587 0.696204 0
M  V30 1167 H 114.855 -4.16886 -0.24414 0
M  V30 1168 N 115.292 -0.849877 -1.32721 0
M  V30 1169 C 116.569 -0.372405 -1.92022 0
M  V30 1170 C 116.949 1.1435 -1.77447 0
M  V30 1171 O 116.297 1.96296 -1.16962 0
M  V30 1172 C 116.507 -0.831482 -3.3895 0
M  V30 1173 C 117.855 -0.845882 -4.16089 0
M  V30 1174 O 118.879 -0.775806 -3.47649 0
M  V30 1175 O 117.738 -0.943753 -5.38289 0
M  V30 1176 H 114.832 -0.107667 -0.819961 0
M  V30 1177 H 117.378 -0.93646 -1.41522 0
M  V30 1178 H 116.15 -1.87448 -3.4348 0
M  V30 1179 H 115.773 -0.24461 -3.96847 0
M  V30 1180 N 116.77 1.45427 -0.607355 0
M  V30 1181 C 118.018 2.01841 -0.102253 0
M  V30 1182 C 118.339 1.47832 1.27164 0
M  V30 1183 O 117.609 0.672497 1.83995 0
M  V30 1184 H 116.189 0.746188 -0.0348101 0
M  V30 1185 H 118.851 1.78229 -0.7887 0
M  V30 1186 H 117.947 3.12057 -0.0518585 0
M  V30 1187 N 118.248 0.346503 1.53744 0
M  V30 1188 C 119.494 -0.249473 2.0126 0
M  V30 1189 C 119.827 -1.49965 1.23386 0
M  V30 1190 O 119.102 -1.91811 0.32229 0
M  V30 1191 C 119.385 -0.560643 3.55709 0
M  V30 1192 C 119.238 0.701836 4.44291 0
M  V30 1193 C 120.557 -1.36905 4.18264 0
M  V30 1194 H 117.676 -0.0891987 0.731582 0
M  V30 1195 H 120.318 0.467624 1.84156 0
M  V30 1196 H 118.468 -1.17156 3.70414 0
M  V30 1197 H 120.14 1.33974 4.41417 0
M  V30 1198 H 118.383 1.32612 4.13033 0
M  V30 1199 H 119.054 0.43933 5.50249 0
M  V30 1200 H 121.53 -0.852448 4.07275 0
M  V30 1201 H 120.406 -1.55553 5.26398 0
M  V30 1202 H 120.667 -2.37203 3.73078 0
M  V30 1203 N 119.726 -1.57421 0.075193 0
M  V30 1204 C 121.137 -1.81021 -0.456964 0
M  V30 1205 C 121.488 -0.98936 -1.69429 0
M  V30 1206 O 120.613 -0.212865 -2.15351 0
M  V30 1207 C 121.208 -3.28329 -0.83581 0
M  V30 1208 C 119.767 -3.52764 -1.31281 0
M  V30 1209 C 118.914 -2.75676 -0.299648 0
M  V30 1210 H 121.865 -1.55822 0.300856 0
M  V30 1211 H 121.886 -3.40564 -1.69696 0
M  V30 1212 H 121.398 -3.88046 0.0649238 0
M  V30 1213 H 119.499 -2.98355 -2.23193 0
M  V30 1214 H 119.612 -4.61451 -1.28839 0
M  V30 1215 H 117.976 -2.42538 -0.777641 0
M  V30 1216 H 118.759 -3.38132 0.593417 0
M  V30 1217 N 121.204 0.198386 -1.56346 0
M  V30 1218 C 122.154 1.2499 -1.90687 0
M  V30 1219 C 123.138 1.41158 -0.772217 0
M  V30 1220 O 124.33 1.43584 -1.03502 0
M  V30 1221 C 121.459 2.59542 -2.24706 0
M  V30 1222 C 120.545 2.47181 -3.44619 0
M  V30 1223 N 120.936 2.04495 -4.62618 0
M  V30 1224 C 119.234 2.78082 -3.48692 0
M  V30 1225 C 119.935 2.03945 -5.44776 0
M  V30 1226 N 118.911 2.45323 -4.85095 0
M  V30 1227 H 122.713 0.911149 -2.7942 0
M  V30 1228 H 120.227 0.40684 -1.57221 0
M  V30 1229 H 122.224 3.3549 -2.47491 0
M  V30 1230 H 120.884 2.94244 -1.37298 0
M  V30 1231 H 121.895 1.75256 -4.87345 0
M  V30 1232 H 118.572 3.17002 -2.71691 0
M  V30 1233 H 119.962 1.72872 -6.4928 0
M  V30 1234 N 122.682 1.50554 0.465978 0
M  V30 1235 C 123.931 1.61038 1.21448 0
M  V30 1236 C 124.244 0.31865 1.92987 0
M  V30 1237 O 125.45 0.302469 2.6981 0
M  V30 1238 C 123.906 2.84283 2.20706 0
M  V30 1239 C 123.514 4.20352 1.54946 0
M  V30 1240 C 125.258 3.04115 2.96166 0
M  V30 1241 C 123.165 5.34778 2.5252 0
M  V30 1242 H 122.095 0.599718 0.457005 0
M  V30 1243 H 124.746 1.7699 0.484424 0
M  V30 1244 H 123.128 2.61901 2.97025 0
M  V30 1245 H 124.302 4.53008 0.843811 0
M  V30 1246 H 122.617 4.06167 0.917475 0
M  V30 1247 H 125.214 3.86774 3.69202 0
M  V30 1248 H 125.557 2.16045 3.55852 0
M  V30 1249 H 126.09 3.26702 2.26959 0
M  V30 1250 H 122.829 6.25018 1.97566 0
M  V30 1251 H 122.349 5.06534 3.21222 0
M  V30 1252 H 124.028 5.65561 3.14245 0
M  V30 1253 N 124.16 -0.719506 1.40217 0
M  V30 1254 C 125.437 -1.47221 1.28784 0
M  V30 1255 C 125.817 -2.10883 -0.0956067 0
M  V30 1256 O 125.165 -1.99833 -1.10811 0
M  V30 1257 C 125.375 -2.5111 2.42373 0
M  V30 1258 C 126.723 -3.17053 2.82423 0
M  V30 1259 O 127.747 -2.61429 2.41937 0
M  V30 1260 O 126.606 -4.17742 3.52355 0
M  V30 1261 H 123.7 -0.654491 0.50554 0
M  V30 1262 H 126.246 -0.752014 1.52128 0
M  V30 1263 H 125.018 -2.02556 3.34793 0
M  V30 1264 H 124.641 -3.3067 2.20778 0
M  V30 1265 N 125.638 -1.25649 -0.95132 0
M  V30 1266 C 126.866 -1.13343 -1.73092 0
M  V30 1267 C 127.281 0.312434 -1.86197 0
M  V30 1268 O 126.638 1.21465 -1.36207 0
M  V30 1269 C 126.689 -1.78602 -3.14299 0
M  V30 1270 O 126.41 -3.17537 -3.01831 0
M  V30 1271 C 127.911 -1.72119 -4.08522 0
M  V30 1272 H 125.131 -0.395181 -0.542285 0
M  V30 1273 H 127.675 -1.66076 -1.19328 0
M  V30 1274 H 125.83 -1.29832 -3.64996 0
M  V30 1275 H 126.244 -3.49676 -3.90931 0
M  V30 1276 H 127.718 -2.22435 -5.052 0
M  V30 1277 H 128.195 -0.685635 -4.33815 0
M  V30 1278 H 128.801 -2.20393 -3.63741 0
M  V30 1279 N 127.117 1.15442 -1.07289 0
M  V30 1280 C 128.049 2.19773 -0.650585 0
M  V30 1281 C 129.062 1.60076 0.296572 0
M  V30 1282 O 130.251 1.78293 0.0859905 0
M  V30 1283 C 127.351 3.38838 0.0650398 0
M  V30 1284 C 126.524 4.2808 -0.898141 0
M  V30 1285 C 125.583 5.2574 -0.219926 0
M  V30 1286 O 124.609 5.62654 -0.860773 0
M  V30 1287 N 125.811 5.71205 1.03466 0
M  V30 1288 H 128.576 2.56622 -1.54808 0
M  V30 1289 H 126.137 1.30551 -0.957494 0
M  V30 1290 H 128.129 4.01222 0.529415 0
M  V30 1291 H 126.699 3.00409 0.864466 0
M  V30 1292 H 125.919 3.62804 -1.54165 0
M  V30 1293 H 127.207 4.84577 -1.5512 0
M  V30 1294 H 126.605 5.43325 1.57526 0
M  V30 1295 H 125.162 6.35633 1.44272 0
M  V30 1296 N 128.595 0.856903 1.32268 0
M  V30 1297 C 129.558 0.308171 2.27119 0
M  V30 1298 C 130.558 -0.533421 1.51695 0
M  V30 1299 O 131.748 -0.344607 1.70757 0
M  V30 1300 C 128.88 -0.563757 3.36206 0
M  V30 1301 H 130.073 1.14535 2.77167 0
M  V30 1302 H 127.626 0.631421 1.42978 0
M  V30 1303 H 128.361 -1.42266 2.91429 0
M  V30 1304 H 128.146 0.0386749 3.92081 0
M  V30 1305 H 129.636 -0.940386 4.06874 0
M  V30 1306 N 130.073 -1.45103 0.615059 0
M  V30 1307 C 131.321 -2.01784 0.112955 0
M  V30 1308 C 131.642 -1.48504 -1.26378 0
M  V30 1309 O 130.912 -0.682245 -1.83636 0
M  V30 1310 H 129.492 -0.745993 0.0387668 0
M  V30 1311 H 132.154 -1.77808 0.798141 0
M  V30 1312 H 131.25 -3.12025 0.0684069 0
M  V30 1313 N 131.551 -0.354651 -1.53558 0
M  V30 1314 C 132.797 0.231422 -2.02079 0
M  V30 1315 C 133.152 1.47308 -1.23767 0
M  V30 1316 O 132.445 1.8891 -0.319947 0
M  V30 1317 C 132.639 0.587121 -3.52545 0
M  V30 1318 C 132.468 -0.618513 -4.45426 0
M  V30 1319 C 131.238 -1.12724 -4.92566 0
M  V30 1320 C 133.436 -1.48039 -4.92533 0
M  V30 1321 N 131.418 -2.29404 -5.69427 0
M  V30 1322 C 132.789 -2.49397 -5.67628 0
M  V30 1323 C 134.844 -1.50454 -4.74624 0
M  V30 1324 C 133.547 -3.53013 -6.26717 0
M  V30 1325 C 135.573 -2.52958 -5.34571 0
M  V30 1326 C 134.935 -3.5304 -6.09543 0
M  V30 1327 H 131.034 0.0476909 -0.780544 0
M  V30 1328 H 133.618 -0.496727 -1.88257 0
M  V30 1329 H 131.789 1.28436 -3.6655 0
M  V30 1330 H 133.521 1.15734 -3.87799 0
M  V30 1331 H 130.276 -0.693577 -4.68494 0
M  V30 1332 H 130.7 -2.88347 -6.12524 0
M  V30 1333 H 135.342 -0.744356 -4.16196 0
M  V30 1334 H 133.06 -4.2992 -6.84247 0
M  V30 1335 H 136.646 -2.55667 -5.22614 0
M  V30 1336 H 135.526 -4.31056 -6.55103 0
M  V30 1337 N 133.029 1.57378 -0.0835403 0
M  V30 1338 C 134.44 1.81261 0.447358 0
M  V30 1339 C 134.791 0.998331 1.68902 0
M  V30 1340 O 133.916 0.224282 2.15235 0
M  V30 1341 C 134.511 3.28767 0.818386 0
M  V30 1342 C 133.07 3.53455 1.29409 0
M  V30 1343 C 132.217 2.75831 0.285024 0
M  V30 1344 H 135.168 1.5566 -0.309115 0
M  V30 1345 H 135.189 3.41459 1.67887 0
M  V30 1346 H 134.701 3.88006 -0.0855019 0
M  V30 1347 H 132.802 2.99534 2.21608 0
M  V30 1348 H 132.915 4.62128 1.2639 0
M  V30 1349 H 131.279 2.42947 0.764767 0
M  V30 1350 H 132.062 3.37813 -0.611341 0
M  V30 1351 N 134.507 -0.190092 1.56449 0
M  V30 1352 C 135.417 -1.25591 1.98152 0
M  V30 1353 C 136.433 -1.49519 0.889944 0
M  V30 1354 O 137.609 -1.62036 1.19609 0
M  V30 1355 C 134.674 -2.57916 2.3169 0
M  V30 1356 C 133.735 -2.42015 3.5458 0
M  V30 1357 C 132.968 -3.6803 3.8651 0
M  V30 1358 O 133.191 -4.72413 3.1966 0
M  V30 1359 O 132.125 -3.6326 4.79923 0
M  V30 1360 H 135.951 -0.931988 2.89046 0
M  V30 1361 H 133.536 -0.395488 1.4407 0
M  V30 1362 H 135.418 -3.36008 2.54316 0
M  V30 1363 H 134.093 -2.89925 1.43963 0
M  V30 1364 H 133 -1.62017 3.37196 0
M  V30 1365 H 134.333 -2.14937 4.4279 0
M  V30 1366 N 135.985 -1.50799 -0.457987 0
M  V30 1367 C 137.231 -1.62683 -1.21088 0
M  V30 1368 C 137.564 -0.332268 -1.91336 0
M  V30 1369 O 136.839 0.667043 -1.82704 0
M  V30 1370 C 137.122 -2.81615 -2.24422 0
M  V30 1371 C 136.975 -4.20989 -1.58392 0
M  V30 1372 C 138.294 -2.96085 -3.2561 0
M  V30 1373 H 135.413 -0.592087 -0.438864 0
M  V30 1374 H 138.055 -1.83225 -0.50286 0
M  V30 1375 H 136.205 -2.64231 -2.84806 0
M  V30 1376 H 137.877 -4.49994 -1.01504 0
M  V30 1377 H 136.12 -4.24641 -0.886704 0
M  V30 1378 H 136.791 -5.0016 -2.33547 0
M  V30 1379 H 139.267 -3.12042 -2.75262 0
M  V30 1380 H 138.143 -3.80902 -3.95228 0
M  V30 1381 H 138.404 -2.0726 -3.90507 0
M  V30 1382 N 137.463 0.71206 -1.40597 0
M  V30 1383 C 138.393 1.83889 -1.43899 0
M  V30 1384 C 139.374 1.67442 -0.299504 0
M  V30 1385 O 140.559 1.87421 -0.508624 0
M  V30 1386 C 137.689 3.21877 -1.30431 0
M  V30 1387 C 136.643 3.53002 -2.42019 0
M  V30 1388 C 135.969 4.90172 -2.13626 0
M  V30 1389 C 137.269 3.53643 -3.84362 0
M  V30 1390 H 138.963 1.81383 -2.38203 0
M  V30 1391 H 136.509 0.871237 -1.14654 0
M  V30 1392 H 138.462 4.00404 -1.31357 0
M  V30 1393 H 137.186 3.24968 -0.326049 0
M  V30 1394 H 135.845 2.76818 -2.40349 0
M  V30 1395 H 135.493 4.89869 -1.14182 0
M  V30 1396 H 135.193 5.11962 -2.88389 0
M  V30 1397 H 136.717 5.71028 -2.1624 0
M  V30 1398 H 138.131 4.22203 -3.87837 0
M  V30 1399 H 136.528 3.86961 -4.58673 0
M  V30 1400 H 137.598 2.52954 -4.13693 0
M  V30 1401 N 138.941 1.26152 0.944643 0
M  V30 1402 C 139.851 1.09176 2.07648 0
M  V30 1403 C 140.867 0.0261935 1.7398 0
M  V30 1404 O 142.043 0.229208 2.00091 0
M  V30 1405 C 139.108 0.722915 3.39079 0
M  V30 1406 C 138.169 1.86752 3.86552 0
M  V30 1407 C 137.402 1.51617 5.11711 0
M  V30 1408 O 137.625 0.416331 5.68879 0
M  V30 1409 O 136.559 2.34975 5.54139 0
M  V30 1410 H 140.385 2.0412 2.24875 0
M  V30 1411 H 137.97 1.05182 1.061 0
M  V30 1412 H 139.852 0.529787 4.18056 0
M  V30 1413 H 138.527 -0.197159 3.23099 0
M  V30 1414 H 137.434 2.11558 3.08535 0
M  V30 1415 H 138.767 2.76719 4.07047 0
M  V30 1416 N 140.419 -1.14872 1.07899 0
M  V30 1417 C 141.349 -2.2193 0.725887 0
M  V30 1418 C 142.33 -1.67622 -0.28927 0
M  V30 1419 O 143.515 -1.93533 -0.160787 0
M  V30 1420 C 140.645 -3.47061 0.128856 0
M  V30 1421 C 139.599 -4.14363 1.07178 0
M  V30 1422 C 138.925 -5.33636 0.337229 0
M  V30 1423 C 140.225 -4.63492 2.40775 0
M  V30 1424 H 141.919 -2.51724 1.62097 0
M  V30 1425 H 139.465 -1.20991 0.780838 0
M  V30 1426 H 141.418 -4.21199 -0.130147 0
M  V30 1427 H 140.142 -3.16617 -0.80134 0
M  V30 1428 H 138.801 -3.42173 1.3158 0
M  V30 1429 H 138.449 -4.99449 -0.596606 0
M  V30 1430 H 138.149 -5.79609 0.965788 0
M  V30 1431 H 139.673 -6.10539 0.0861567 0
M  V30 1432 H 141.087 -5.2913 2.20669 0
M  V30 1433 H 139.484 -5.20148 2.99276 0
M  V30 1434 H 140.554 -3.78834 3.02676 0
M  V30 1435 N 141.898 -0.863906 -1.31812 0
M  V30 1436 C 143.144 -0.472535 -1.97218 0
M  V30 1437 C 143.477 0.971394 -1.68159 0
M  V30 1438 O 142.752 1.68309 -0.974798 0
M  V30 1439 C 143.035 -0.723054 -3.52766 0
M  V30 1440 C 142.888 -2.21608 -3.91421 0
M  V30 1441 C 144.207 -0.185522 -4.39709 0
M  V30 1442 H 141.326 -0.173158 -0.71637 0
M  V30 1443 H 143.968 -1.08403 -1.56041 0
M  V30 1444 H 142.118 -0.202577 -3.87971 0
M  V30 1445 H 143.79 -2.80334 -3.66347 0
M  V30 1446 H 142.033 -2.691 -3.40246 0
M  V30 1447 H 142.704 -2.34203 -4.99853 0
M  V30 1448 H 145.18 -0.630726 -4.11292 0
M  V30 1449 H 144.056 -0.390306 -5.47511 0
M  V30 1450 H 144.317 0.912229 -4.32586 0
M  V30 1451 N 143.376 1.44774 -0.622745 0
M  V30 1452 C 144.792 1.56986 -0.287652 0
M  V30 1453 C 144.992 1.61167 1.20944 0
M  V30 1454 O 144.048 1.55015 1.99315 0
M  V30 1455 C 145.361 2.84551 -0.972188 0
M  V30 1456 C 146.909 2.9825 -0.949536 0
M  V30 1457 C 147.384 4.28605 -1.61437 0
M  V30 1458 N 148.875 4.35399 -1.58057 0
M  V30 1459 C 149.61 5.34964 -2.064 0
M  V30 1460 N 149.106 6.40981 -2.62897 0
M  V30 1461 N 150.899 5.26419 -1.97078 0
M  V30 1462 H 143.05 1.40304 -1.59463 0
M  V30 1463 H 145.313 0.671794 -0.668878 0
M  V30 1464 H 145.019 2.87417 -2.02693 0
M  V30 1465 H 144.893 3.73807 -0.504771 0
M  V30 1466 H 147.28 2.94941 0.0967067 0
M  V30 1467 H 147.361 2.10364 -1.45536 0
M  V30 1468 H 147.005 4.32672 -2.66002 0
M  V30 1469 H 146.935 5.15334 -1.08344 0
M  V30 1470 H 149.426 3.59397 -1.16801 0
M  V30 1471 H 149.739 7.13225 -2.97539 0
M  V30 1472 H 148.084 6.4169 -2.66943 0
M  V30 1473 H 151.275 4.42504 -1.52669 0
M  V30 1474 H 151.448 6.03861 -2.35066 0
M  V30 1475 N 144.854 0.36279 1.53368 0
M  V30 1476 C 145.817 -0.472679 2.24273 0
M  V30 1477 C 146.817 -1.012 1.24961 0
M  V30 1478 O 148.007 -0.898194 1.49259 0
M  V30 1479 C 145.139 -1.66039 2.97731 0
M  V30 1480 H 146.332 0.14773 2.99536 0
M  V30 1481 H 143.885 0.114434 1.55881 0
M  V30 1482 H 144.62 -2.31896 2.26704 0
M  V30 1483 H 144.405 -1.28066 3.70596 0
M  V30 1484 H 145.895 -2.25252 3.51641 0
M  V30 1485 N 146.332 -1.57332 0.0918853 0
M  V30 1486 C 147.265 -2.09499 -0.904735 0
M  V30 1487 C 148.243 -1.00479 -1.27839 0
M  V30 1488 O 149.427 -1.27954 -1.38419 0
M  V30 1489 C 146.554 -2.56931 -2.2069 0
M  V30 1490 C 145.6 -3.77579 -1.98334 0
M  V30 1491 S 146.433 -5.21317 -1.22428 0
M  V30 1492 C 147.589 -5.72097 -2.53882 0
M  V30 1493 H 147.822 -2.93705 -0.460922 0
M  V30 1494 H 145.355 -1.53923 -0.121332 0
M  V30 1495 H 147.313 -2.84917 -2.95521 0
M  V30 1496 H 145.974 -1.72956 -2.62192 0
M  V30 1497 H 145.167 -4.08824 -2.94752 0
M  V30 1498 H 144.769 -3.5007 -1.31633 0
M  V30 1499 H 147.061 -5.80168 -3.49874 0
M  V30 1500 H 148.004 -6.70654 -2.27219 0
M  V30 1501 H 148.412 -5.00012 -2.62007 0
M  V30 1502 N 147.81 0.181792 -1.56548 0
M  V30 1503 C 148.742 1.24956 -1.92142 0
M  V30 1504 C 149.755 1.41022 -0.813422 0
M  V30 1505 O 150.944 1.41212 -1.09186 0
M  V30 1506 C 148.044 2.61981 -2.14987 0
M  V30 1507 C 147.217 2.6735 -3.46183 0
M  V30 1508 C 146.276 3.85664 -3.5798 0
M  V30 1509 O 145.302 3.72148 -4.30691 0
M  V30 1510 N 146.504 5.01683 -2.92053 0
M  V30 1511 H 149.269 0.947329 -2.84334 0
M  V30 1512 H 146.83 0.371629 -1.57577 0
M  V30 1513 H 148.822 3.3958 -2.20154 0
M  V30 1514 H 147.392 2.84637 -1.2923 0
M  V30 1515 H 146.612 1.75925 -3.52766 0
M  V30 1516 H 147.9 2.67939 -4.32534 0
M  V30 1517 H 147.298 5.15564 -2.32832 0
M  V30 1518 H 145.855 5.77181 -3.0283 0
M  V30 1519 N 149.288 1.51039 0.449983 0
M  V30 1520 C 150.22 1.67617 1.56324 0
M  V30 1521 C 151.233 0.557083 1.52972 0
M  V30 1522 O 152.422 0.830989 1.57977 0
M  V30 1523 C 149.522 1.66402 2.95235 0
M  V30 1524 C 148.695 2.9469 3.23229 0
M  V30 1525 C 147.754 2.85832 4.41799 0
M  V30 1526 O 146.78 3.59785 4.41071 0
M  V30 1527 N 147.982 2.00821 5.44657 0
M  V30 1528 H 150.747 2.63648 1.42512 0
M  V30 1529 H 148.308 1.48767 0.638737 0
M  V30 1530 H 150.3 1.58062 3.72557 0
M  V30 1531 H 148.87 0.780182 3.02708 0
M  V30 1532 H 148.09 3.16996 2.34323 0
M  V30 1533 H 149.378 3.79636 3.38754 0
M  V30 1534 H 148.776 1.40091 5.48079 0
M  V30 1535 H 147.333 1.98368 6.20881 0
M  V30 1536 N 150.766 -0.704594 1.40972 0
M  V30 1537 C 152.043 -1.45847 1.30338 0
M  V30 1538 C 152.423 -2.10973 -0.0732344 0
M  V30 1539 O 151.771 -2.00997 -1.08685 0
M  V30 1540 C 151.981 -2.48525 2.45023 0
M  V30 1541 C 153.329 -3.1404 2.8577 0
M  V30 1542 O 154.353 -2.58848 2.44696 0
M  V30 1543 O 153.212 -4.13981 3.56766 0
M  V30 1544 H 150.306 -0.649092 0.512454 0
M  V30 1545 H 152.852 -0.735836 1.52917 0
M  V30 1546 H 151.624 -1.98994 3.36923 0
M  V30 1547 H 151.247 -3.2831 2.24272 0
M  V30 1548 N 152.244 -1.26651 -0.937939 0
M  V30 1549 C 153.207 -1.08546 -2.01867 0
M  V30 1550 C 154.207 -0.0327327 -1.60767 0
M  V30 1551 O 155.397 -0.276427 -1.71993 0
M  V30 1552 C 152.529 -0.651711 -3.34613 0
M  V30 1553 H 153.722 -2.04502 -2.1936 0
M  V30 1554 H 151.275 -1.09294 -1.11734 0
M  V30 1555 H 152.01 0.309696 -3.22818 0
M  V30 1556 H 151.795 -1.41189 -3.65798 0
M  V30 1557 H 153.285 -0.546973 -4.14002 0
M  V30 1558 N 153.722 1.14298 -1.08507 0
M  V30 1559 C 154.685 2.17607 -0.719711 0
M  V30 1560 C 155.685 1.58907 0.245997 0
M  V30 1561 O 156.875 1.74181 0.0254081 0
M  V30 1562 C 154.007 3.40842 -0.0627695 0
M  V30 1563 H 155.2 2.51443 -1.63452 0
M  V30 1564 H 152.753 1.28963 -0.88307 0
M  V30 1565 H 153.488 3.12587 0.863716 0
M  V30 1566 H 153.273 3.84713 -0.757504 0
M  V30 1567 H 154.763 4.17221 0.177786 0
M  V30 1568 N 155.201 0.870884 1.31352 0
M  V30 1569 C 156.133 0.28455 2.27427 0
M  V30 1570 C 157.146 -0.552927 1.53123 0
M  V30 1571 O 158.335 -0.374771 1.74521 0
M  V30 1572 C 155.435 -0.615164 3.3327 0
M  V30 1573 C 154.608 0.190079 4.36987 0
M  V30 1574 C 153.667 -0.637917 5.22319 0
M  V30 1575 O 152.693 -0.065626 5.69162 0
M  V30 1576 N 153.895 -1.94973 5.46778 0
M  V30 1577 H 156.66 1.11017 2.7838 0
M  V30 1578 H 154.221 0.732458 1.44384 0
M  V30 1579 H 156.213 -1.1748 3.87273 0
M  V30 1580 H 154.783 -1.34146 2.82354 0
M  V30 1581 H 154.003 0.931165 3.83044 0
M  V30 1582 H 155.291 0.742579 5.03352 0
M  V30 1583 H 154.689 -2.4378 5.10478 0
M  V30 1584 H 153.246 -2.45713 6.03712 0
M  V30 1585 N 156.679 -1.44442 0.630414 0
M  V30 1586 C 157.629 -2.27794 -0.0968103 0
M  V30 1587 C 158.613 -1.38624 -0.816834 0
M  V30 1588 O 159.805 -1.62438 -0.70306 0
M  V30 1589 C 156.934 -3.25929 -1.07819 0
M  V30 1590 C 156.02 -4.22588 -0.357826 0
M  V30 1591 N 156.411 -5.0207 0.613169 0
M  V30 1592 C 154.709 -4.41914 -0.602365 0
M  V30 1593 C 155.41 -5.72351 1.03871 0
M  V30 1594 N 154.386 -5.42287 0.377642 0
M  V30 1595 H 158.188 -2.86653 0.648621 0
M  V30 1596 H 155.702 -1.55871 0.455862 0
M  V30 1597 H 157.699 -3.84399 -1.61378 0
M  V30 1598 H 156.359 -2.68631 -1.82393 0
M  V30 1599 H 157.37 -5.08331 0.990947 0
M  V30 1600 H 154.047 -3.95714 -1.33103 0
M  V30 1601 H 155.437 -6.4619 1.84086 0
M  V30 1602 N 158.157 -0.370918 -1.53173 0
M  V30 1603 C 159.405 0.216673 -2.00935 0
M  V30 1604 C 159.726 1.48845 -1.25977 0
M  V30 1605 O 158.996 1.92286 -0.374551 0
M  V30 1606 H 157.576 0.0830565 -0.742368 0
M  V30 1607 H 160.238 -0.49838 -1.8842 0
M  V30 1608 H 159.334 0.439893 -3.08984 0
M  V30 1609 N 159.635 1.57281 -0.100228 0
M  V30 1610 C 160.598 2.13158 0.842398 0
M  V30 1611 C 161.598 1.06202 1.20738 0
M  V30 1612 O 162.788 1.32066 1.13597 0
M  V30 1613 C 159.92 2.65639 2.13655 0
M  V30 1614 H 161.113 2.97766 0.357114 0
M  V30 1615 H 158.666 1.5559 0.148823 0
M  V30 1616 H 159.401 1.84566 2.66657 0
M  V30 1617 H 159.186 3.43844 1.88451 0
M  V30 1618 H 160.676 3.08846 2.81077 0
M  V30 1619 N 161.113 -0.173488 1.56642 0
M  V30 1620 C 162.529 -0.525174 1.50712 0
M  V30 1621 C 162.729 -1.8476 0.804107 0
M  V30 1622 O 161.785 -2.49869 0.363574 0
M  V30 1623 C 163.098 -0.559937 2.95441 0
M  V30 1624 C 164.646 -0.647288 3.06234 0
M  V30 1625 C 165.121 -0.712963 4.52417 0
M  V30 1626 N 166.612 -0.775911 4.56655 0
M  V30 1627 C 167.347 -0.847264 5.67106 0
M  V30 1628 N 166.843 -0.879585 6.87194 0
M  V30 1629 N 168.636 -0.886117 5.55071 0
M  V30 1630 H 160.787 0.693681 2.00753 0
M  V30 1631 H 163.05 0.249841 0.914485 0
M  V30 1632 H 162.756 0.343049 3.50023 0
M  V30 1633 H 162.63 -1.40718 3.49969 0
M  V30 1634 H 165.017 -1.5407 2.51687 0
M  V30 1635 H 165.098 0.226586 2.54794 0
M  V30 1636 H 164.742 0.176183 5.07594 0
M  V30 1637 H 164.672 -1.60295 5.0161 0
M  V30 1638 H 167.163 -0.759304 3.70193 0
M  V30 1639 H 167.476 -0.935144 7.67121 0
M  V30 1640 H 165.821 -0.847898 6.89808 0
M  V30 1641 H 169.012 -0.857853 4.60172 0
M  V30 1642 H 169.185 -0.938263 6.41171 0
M  V30 1643 N 162.591 -1.51276 -0.441967 0
M  V30 1644 C 163.521 -1.752 -1.54361 0
M  V30 1645 C 164.502 -0.601682 -1.59103 0
M  V30 1646 O 165.687 -0.843913 -1.74905 0
M  V30 1647 C 162.817 -1.87282 -2.92477 0
M  V30 1648 C 161.771 -3.02687 -3.02596 0
M  V30 1649 C 161.097 -2.99947 -4.42647 0
M  V30 1650 C 162.397 -4.4273 -2.77106 0
M  V30 1651 H 164.091 -2.67442 -1.34592 0
M  V30 1652 H 161.637 -1.28694 -0.646048 0
M  V30 1653 H 163.59 -2.02602 -3.695 0
M  V30 1654 H 162.314 -0.916844 -3.13467 0
M  V30 1655 H 160.973 -2.87065 -2.28012 0
M  V30 1656 H 160.621 -2.02136 -4.60597 0
M  V30 1657 H 160.321 -3.77439 -4.50348 0
M  V30 1658 H 161.845 -3.17354 -5.2165 0
M  V30 1659 H 163.259 -4.58727 -3.43864 0
M  V30 1660 H 161.656 -5.21893 -2.96222 0
M  V30 1661 H 162.726 -4.53087 -1.72744 0
M  V30 1662 N 164.069 0.697108 -1.41344 0
M  V30 1663 C 164.979 1.84088 -1.45427 0
M  V30 1664 C 165.995 1.70545 -0.34501 0
M  V30 1665 O 167.171 1.92488 -0.592492 0
M  V30 1666 C 164.236 3.20056 -1.33286 0
M  V30 1667 C 163.297 3.45718 -2.54514 0
M  V30 1668 C 162.53 4.75199 -2.42944 0
M  V30 1669 O 162.753 5.51579 -1.45318 0
M  V30 1670 O 161.687 5.0161 -3.32672 0
M  V30 1671 H 165.513 1.836 -2.41919 0
M  V30 1672 H 163.098 0.849966 -1.22866 0
M  V30 1673 H 164.98 4.01236 -1.28794 0
M  V30 1674 H 163.655 3.2123 -0.39909 0
M  V30 1675 H 162.562 2.64474 -2.64583 0
M  V30 1676 H 163.895 3.49356 -3.46715 0
M  V30 1677 N 165.547 1.27147 0.931209 0
M  V30 1678 C 166.51 1.09615 2.01289 0
M  V30 1679 C 167.51 0.0412581 1.60747 0
M  V30 1680 O 168.7 0.285545 1.71844 0
M  V30 1681 C 165.832 0.669447 3.34262 0
M  V30 1682 H 167.025 2.05662 2.18273 0
M  V30 1683 H 164.578 1.09885 1.11153 0
M  V30 1684 H 165.313 -0.292572 3.22978 0
M  V30 1685 H 165.098 1.43127 3.65044 0
M  V30 1686 H 166.588 0.568921 4.13706 0
M  V30 1687 N 167.025 -1.13721 1.09112 0
M  V30 1688 C 167.955 -2.21148 0.749385 0
M  V30 1689 C 168.936 -1.6792 -0.271475 0
M  V30 1690 O 170.121 -1.93693 -0.140251 0
M  V30 1691 C 167.251 -3.46905 0.165659 0
M  V30 1692 C 166.205 -4.13203 1.11567 0
M  V30 1693 C 165.531 -5.33248 0.393809 0
M  V30 1694 C 166.831 -4.60912 2.45678 0
M  V30 1695 H 168.525 -2.4999 1.64758 0
M  V30 1696 H 166.071 -1.20156 0.793626 0
M  V30 1697 H 168.024 -4.21313 -0.085466 0
M  V30 1698 H 166.748 -3.17449 -0.767714 0
M  V30 1699 H 165.407 -3.40758 1.35202 0
M  V30 1700 H 165.055 -5.00054 -0.543599 0
M  V30 1701 H 164.755 -5.78552 1.02721 0
M  V30 1702 H 166.279 -6.10413 0.150908 0
M  V30 1703 H 167.693 -5.26759 2.26269 0
M  V30 1704 H 166.09 -5.16944 3.04776 0
M  V30 1705 H 167.16 -3.75603 3.06677 0
M  V30 1706 N 168.503 -0.877838 -1.30888 0
M  V30 1707 C 169.75 -0.492696 -1.96415 0
M  V30 1708 C 170.078 0.956671 -1.69346 0
M  V30 1709 O 169.333 1.68993 -0.986913 0
M  V30 1710 C 169.632 -0.705748 -3.50363 0
M  V30 1711 C 169.298 -2.1291 -3.97467 0
M  V30 1712 C 167.96 -2.51834 -4.1004 0
M  V30 1713 C 170.312 -3.05702 -4.22132 0
M  V30 1714 C 167.64 -3.82775 -4.44635 0
M  V30 1715 C 169.992 -4.36166 -4.58194 0
M  V30 1716 C 168.656 -4.74993 -4.68975 0
M  V30 1717 H 167.926 -0.18029 -0.718733 0
M  V30 1718 H 170.573 -1.11233 -1.55883 0
M  V30 1719 H 168.878 -0.00303058 -3.918 0
M  V30 1720 H 170.575 -0.387456 -3.99124 0
M  V30 1721 H 167.165 -1.81694 -3.88182 0
M  V30 1722 H 171.349 -2.76853 -4.11906 0
M  V30 1723 H 166.605 -4.12609 -4.51181 0
M  V30 1724 H 170.779 -5.08111 -4.76231 0
M  V30 1725 H 168.406 -5.76495 -4.95537 0
M  V30 1726 N 169.982 1.44106 -0.638065 0
M  V30 1727 C 171.398 1.56672 -0.304286 0
M  V30 1728 C 171.598 1.6244 1.19228 0
M  V30 1729 O 170.654 1.57121 1.9766 0
M  V30 1730 C 171.967 2.83503 -1.00231 0
M  V30 1731 C 173.515 2.97226 -0.981116 0
M  V30 1732 C 173.99 4.26868 -1.65974 0
M  V30 1733 N 175.481 4.33698 -1.62666 0
M  V30 1734 C 176.216 5.32745 -2.12063 0
M  V30 1735 N 175.712 6.38157 -2.6968 0
M  V30 1736 N 177.505 5.24299 -2.02651 0
M  V30 1737 H 169.656 1.38605 -1.60942 0
M  V30 1738 H 171.919 0.664661 -0.675965 0
M  V30 1739 H 171.625 2.85251 -2.0573 0
M  V30 1740 H 171.499 3.73251 -0.54439 0
M  V30 1741 H 173.886 2.95027 0.0654188 0
M  V30 1742 H 173.967 2.08808 -1.47759 0
M  V30 1743 H 173.611 4.29826 -2.70576 0
M  V30 1744 H 173.541 5.14156 -1.13804 0
M  V30 1745 H 176.032 3.58138 -1.20606 0
M  V30 1746 H 176.345 7.10029 -3.05087 0
M  V30 1747 H 174.69 6.38823 -2.73734 0
M  V30 1748 H 177.881 4.4086 -1.57353 0
M  V30 1749 H 178.054 6.01334 -2.41457 0
M  V30 1750 N 171.46 0.379036 1.52974 0
M  V30 1751 C 172.393 -0.504932 2.22544 0
M  V30 1752 C 173.371 -1.0723 1.22231 0
M  V30 1753 O 174.555 -1.12589 1.51182 0
M  V30 1754 C 171.682 -1.69794 2.93066 0
M  V30 1755 C 170.728 -1.25678 4.07563 0
M  V30 1756 S 171.561 -0.246852 5.34931 0
M  V30 1757 C 172.717 -1.44588 6.08971 0
M  V30 1758 H 172.95 0.0858666 2.97176 0
M  V30 1759 H 170.483 0.163183 1.53535 0
M  V30 1760 H 172.441 -2.38219 3.34308 0
M  V30 1761 H 171.102 -2.26002 2.18133 0
M  V30 1762 H 170.295 -2.14725 4.5597 0
M  V30 1763 H 169.897 -0.651584 3.6828 0
M  V30 1764 H 172.189 -2.37469 6.34519 0
M  V30 1765 H 173.132 -1.00292 7.00962 0
M  V30 1766 H 173.54 -1.65804 5.39601 0
M  V30 1767 N 172.938 -1.57226 0.108567 0
M  V30 1768 C 174.184 -1.95121 -0.552761 0
M  V30 1769 C 174.517 -0.991345 -1.66991 0
M  V30 1770 O 173.792 -0.0267211 -1.94482 0
M  V30 1771 C 174.075 -3.43039 -1.09528 0
M  V30 1772 C 173.928 -4.49797 0.0177332 0
M  V30 1773 C 175.247 -3.92567 -1.98945 0
M  V30 1774 H 172.366 -0.709496 -0.199461 0
M  V30 1775 H 175.008 -1.89126 0.182011 0
M  V30 1776 H 173.158 -3.48279 -1.72146 0
M  V30 1777 H 174.83 -4.56661 0.652584 0
M  V30 1778 H 173.073 -4.284 0.682309 0
M  V30 1779 H 173.744 -5.50528 -0.402919 0
M  V30 1780 H 176.22 -3.89565 -1.46214 0
M  V30 1781 H 175.096 -4.96605 -2.33827 0
M  V30 1782 H 175.357 -3.32648 -2.91201 0
M  V30 1783 N 174.416 0.165178 -1.56732 0
M  V30 1784 C 175.379 1.18822 -1.95995 0
M  V30 1785 C 176.379 1.3685 -0.84431 0
M  V30 1786 O 177.569 1.34152 -1.11126 0
M  V30 1787 C 174.701 2.5521 -2.26011 0
M  V30 1788 H 175.894 0.851825 -2.87548 0
M  V30 1789 H 173.447 0.407857 -1.50885 0
M  V30 1790 H 174.182 2.93852 -1.37191 0
M  V30 1791 H 173.967 2.43489 -3.07336 0
M  V30 1792 H 175.457 3.28927 -2.57288 0
M  V30 1793 N 175.894 1.51508 0.433938 0
M  V30 1794 C 176.857 1.72473 1.50949 0
M  V30 1795 C 177.857 0.594725 1.49398 0
M  V30 1796 O 179.047 0.862315 1.5136 0
M  V30 1797 C 176.179 1.78431 2.90474 0
M  V30 1798 H 177.372 2.68467 1.33662 0
M  V30 1799 H 174.925 1.41549 0.662836 0
M  V30 1800 H 175.66 0.842645 3.13161 0
M  V30 1801 H 175.445 2.60558 2.93005 0
M  V30 1802 H 176.935 1.96479 3.68491 0
M  V30 1803 N 177.372 -0.689602 1.41712 0
M  V30 1804 C 178.618 -1.45181 1.41599 0
M  V30 1805 C 178.951 -1.94181 0.0270081 0
M  V30 1806 O 178.226 -1.6993 -0.946265 0
M  V30 1807 C 178.509 -2.65945 2.42787 0
M  V30 1808 C 178.362 -2.22672 3.90816 0
M  V30 1809 C 179.681 -3.68149 2.41151 0
M  V30 1810 H 176.8 -0.526576 0.515642 0
M  V30 1811 H 179.442 -0.784947 1.73028 0
M  V30 1812 H 177.592 -3.2284 2.16116 0
M  V30 1813 H 179.264 -1.71058 4.28412 0
M  V30 1814 H 177.507 -1.54394 4.05395 0
M  V30 1815 H 178.178 -3.0935 4.57172 0
M  V30 1816 H 180.654 -3.2094 2.64834 0
M  V30 1817 H 179.53 -4.50248 3.13955 0
M  V30 1818 H 179.791 -4.18259 1.43221 0
M  V30 1819 N 178.85 -1.27639 -0.924453 0
M  V30 1820 C 180.127 -1.04887 -1.651 0
M  V30 1821 C 180.507 0.415327 -2.06974 0
M  V30 1822 O 179.855 1.39923 -1.80648 0
M  V30 1823 C 180.065 -2.01348 -2.85061 0
M  V30 1824 C 181.413 -2.30899 -3.56329 0
M  V30 1825 O 182.437 -1.99348 -2.95193 0
M  V30 1826 O 181.296 -2.84699 -4.66485 0
M  V30 1827 H 178.39 -0.400083 -0.723784 0
M  V30 1828 H 180.936 -1.38916 -0.974703 0
M  V30 1829 H 179.708 -3.0008 -2.51133 0
M  V30 1830 H 179.331 -1.679 -3.6041 0
M  V30 1831 N 180.328 1.1314 -1.09713 0
M  V30 1832 C 181.744 1.36477 -0.827423 0
M  V30 1833 C 181.944 1.93654 0.556817 0
M  V30 1834 O 181 2.15791 1.31112 0
M  V30 1835 C 182.313 2.31334 -1.92106 0
M  V30 1836 C 183.861 2.44943 -1.94864 0
M  V30 1837 C 184.336 3.4311 -3.0338 0
M  V30 1838 N 185.827 3.50662 -3.02639 0
M  V30 1839 C 186.562 4.2651 -3.83246 0
M  V30 1840 N 186.058 5.05485 -4.73768 0
M  V30 1841 N 187.851 4.2184 -3.71493 0
M  V30 1842 H 180.002 0.743807 -1.9895 0
M  V30 1843 H 182.265 0.389823 -0.864143 0
M  V30 1844 H 181.971 1.96483 -2.91698 0
M  V30 1845 H 181.845 3.31381 -1.80184 0
M  V30 1846 H 184.232 2.79079 -0.959099 0
M  V30 1847 H 184.313 1.4481 -2.10864 0
M  V30 1848 H 183.957 3.09704 -4.02549 0
M  V30 1849 H 183.887 4.43055 -2.84622 0
M  V30 1850 H 186.378 2.94315 -2.37039 0
M  V30 1851 H 186.691 5.60675 -5.3185 0
M  V30 1852 H 185.036 5.04708 -4.77802 0
M  V30 1853 H 188.227 3.5922 -3.00131 0
M  V30 1854 H 188.4 4.80697 -4.3455 0
M  V30 1855 N 181.806 0.884767 1.30421 0
M  V30 1856 C 182.769 0.356277 2.26414 0
M  V30 1857 C 183.769 -0.501124 1.52792 0
M  V30 1858 O 184.959 -0.30831 1.7145 0
M  V30 1859 C 182.091 -0.492316 3.37326 0
M  V30 1860 H 183.284 1.20389 2.74675 0
M  V30 1861 H 180.837 0.661607 1.41607 0
M  V30 1862 H 181.572 -1.36052 2.94381 0
M  V30 1863 H 181.357 0.121832 3.91911 0
M  V30 1864 H 182.847 -0.853871 4.08777 0
M  V30 1865 N 183.284 -1.43765 0.645699 0
M  V30 1866 C 184.533 -2.01116 0.153412 0
M  V30 1867 C 184.846 -1.51493 -1.23731 0
M  V30 1868 O 186.052 -2.01067 -1.8244 0
M  V30 1869 C 184.508 -3.59206 0.223473 0
M  V30 1870 C 184.116 -4.17823 1.61642 0
M  V30 1871 C 185.86 -4.23972 -0.211597 0
M  V30 1872 C 183.767 -5.68183 1.64081 0
M  V30 1873 H 182.697 -0.752093 0.0535891 0
M  V30 1874 H 185.348 -1.6482 0.806633 0
M  V30 1875 H 183.73 -3.92867 -0.497118 0
M  V30 1876 H 184.904 -3.95674 2.36176 0
M  V30 1877 H 183.219 -3.65399 1.99681 0
M  V30 1878 H 185.816 -5.34275 -0.213112 0
M  V30 1879 H 186.159 -3.97352 -1.24165 0
M  V30 1880 H 186.692 -3.95166 0.456988 0
M  V30 1881 H 183.431 -5.99559 2.64971 0
M  V30 1882 H 182.951 -5.9241 0.938611 0
M  V30 1883 H 184.63 -6.32085 1.3812 0
M  V30 1884 N 184.763 -0.387143 -1.52771 0
M  V30 1885 C 185.726 0.436939 -2.24997 0
M  V30 1886 C 186.726 0.991991 -1.26555 0
M  V30 1887 O 187.916 0.874335 -1.50669 0
M  V30 1888 C 185.048 1.61281 -3.00335 0
M  V30 1889 H 186.241 -0.195365 -2.99263 0
M  V30 1890 H 183.794 -0.139218 -1.55679 0
M  V30 1891 H 184.529 2.2826 -2.30364 0
M  V30 1892 H 184.314 1.22154 -3.72587 0
M  V30 1893 H 185.804 2.19629 -3.5518 0
M  V30 1894 N 186.241 1.57166 -0.116904 0
M  V30 1895 C 187.171 2.18222 0.830759 0
M  V30 1896 C 188.152 1.12167 1.27877 0
M  V30 1897 O 189.337 1.40394 1.34176 0
M  V30 1898 C 186.467 2.77996 2.08172 0
M  V30 1899 C 185.421 3.89614 1.77157 0
M  V30 1900 C 184.747 4.36187 3.09265 0
M  V30 1901 C 186.047 5.1181 1.04151 0
M  V30 1902 H 187.741 2.97664 0.321992 0
M  V30 1903 H 185.287 1.4318 0.153434 0
M  V30 1904 H 187.24 3.19366 2.74924 0
M  V30 1905 H 185.964 1.9584 2.6137 0
M  V30 1906 H 184.623 3.48816 1.12796 0
M  V30 1907 H 184.271 3.50893 3.60393 0
M  V30 1908 H 183.971 5.11455 2.89288 0
M  V30 1909 H 185.495 4.80207 3.77139 0
M  V30 1910 H 186.909 5.50214 1.61052 0
M  V30 1911 H 185.306 5.92648 0.942762 0
M  V30 1912 H 186.376 4.84892 0.0279022 0
M  V30 1913 N 187.719 -0.156864 1.56817 0
M  V30 1914 C 188.965 -0.872416 1.83076 0
M  V30 1915 C 189.298 -1.81261 0.697001 0
M  V30 1916 O 188.573 -1.92171 -0.30008 0
M  V30 1917 C 188.856 -1.65551 3.19789 0
M  V30 1918 C 188.709 -0.737467 4.43713 0
M  V30 1919 C 190.028 -2.62012 3.53606 0
M  V30 1920 H 187.147 -0.315715 0.665953 0
M  V30 1921 H 189.789 -0.138004 1.89498 0
M  V30 1922 H 187.939 -2.28159 3.14445 0
M  V30 1923 H 189.611 -0.123143 4.61136 0
M  V30 1924 H 187.854 -0.0464067 4.33775 0
M  V30 1925 H 188.525 -1.32122 5.35955 0
M  V30 1926 H 191.001 -2.09525 3.59497 0
M  V30 1927 H 189.877 -3.13861 4.50314 0
M  V30 1928 H 190.138 -3.42902 2.79053 0
M  V30 1929 N 189.197 -1.51736 -0.425897 0
M  V30 1930 C 190.445 -1.64644 -1.17204 0
M  V30 1931 C 190.766 -0.370486 -1.91448 0
M  V30 1932 O 190.036 0.614088 -1.86026 0
M  V30 1933 H 188.616 -0.606819 -0.435638 0
M  V30 1934 H 191.278 -1.88713 -0.487177 0
M  V30 1935 H 190.374 -2.47958 -1.89534 0
M  V30 1936 N 190.675 0.682077 -1.42076 0
M  V30 1937 C 191.638 1.77756 -1.44691 0
M  V30 1938 C 192.638 1.5726 -0.335535 0
M  V30 1939 O 193.828 1.63686 -0.596037 0
M  V30 1940 C 190.96 3.16301 -1.27146 0
M  V30 1941 H 192.153 1.76826 -2.42224 0
M  V30 1942 H 189.706 0.891012 -1.28416 0
M  V30 1943 H 190.441 3.22862 -0.305075 0
M  V30 1944 H 190.226 3.32581 -2.07683 0
M  V30 1945 H 191.716 3.96241 -1.31843 0
M  V30 1946 N 192.153 1.28127 0.917671 0
M  V30 1947 C 193.381 1.17892 1.70026 0
M  V30 1948 C 193.796 -0.262958 1.8696 0
M  V30 1949 O 193.153 -1.17811 1.3938 0
M  V30 1950 C 193.204 1.86872 3.09453 0
M  V30 1951 O 192.925 3.25428 2.93306 0
M  V30 1952 C 194.426 1.8289 4.03815 0
M  V30 1953 H 191.646 0.40942 0.531617 0
M  V30 1954 H 194.19 1.69181 1.14883 0
M  V30 1955 H 192.345 1.39464 3.61426 0
M  V30 1956 H 192.759 3.59918 3.81523 0
M  V30 1957 H 194.233 2.35751 4.99125 0
M  V30 1958 H 194.71 0.800412 4.31845 0
M  V30 1959 H 195.316 2.29959 3.57769 0
M  V30 1960 N 193.631 -1.12557 1.10312 0
M  V30 1961 C 194.878 -1.84038 0.844759 0
M  V30 1962 C 195.206 -1.84026 -0.629668 0
M  V30 1963 O 194.461 -1.28026 -1.48013 0
M  V30 1964 C 194.76 -3.31462 1.33669 0
M  V30 1965 C 194.426 -3.51647 2.82232 0
M  V30 1966 C 193.088 -3.56864 3.22802 0
M  V30 1967 C 195.44 -3.58867 3.77974 0
M  V30 1968 C 192.768 -3.66844 4.57867 0
M  V30 1969 C 195.12 -3.70375 5.1284 0
M  V30 1970 C 193.784 -3.73848 5.52986 0
M  V30 1971 H 193.054 -0.673444 0.309119 0
M  V30 1972 H 195.701 -1.32824 1.37949 0
M  V30 1973 H 194.006 -3.85091 0.721949 0
M  V30 1974 H 195.703 -3.85236 1.11329 0
M  V30 1975 H 192.293 -3.48249 2.49842 0
M  V30 1976 H 196.477 -3.54107 3.47738 0
M  V30 1977 H 191.733 -3.67804 4.88396 0
M  V30 1978 H 195.907 -3.74904 5.86873 0
M  V30 1979 H 193.534 -3.81333 6.57639 0
M  V30 1980 N 195.109 -0.891671 -1.2995 0
M  V30 1981 C 196.041 -0.320695 -2.26945 0
M  V30 1982 C 197.054 0.528497 -1.53983 0
M  V30 1983 O 198.243 0.346959 -1.75096 0
M  V30 1984 C 195.343 0.562066 -3.34207 0
M  V30 1985 C 194.516 -0.259576 -4.36629 0
M  V30 1986 C 193.575 0.554739 -5.23268 0
M  V30 1987 O 192.601 -0.0249311 -5.69195 0
M  V30 1988 N 193.803 1.8625 -5.4981 0
M  V30 1989 H 196.568 -1.15432 -2.76578 0
M  V30 1990 H 194.129 -0.755336 -1.432 0
M  V30 1991 H 196.121 1.11304 -3.89093 0
M  V30 1992 H 194.691 1.29637 -2.84452 0
M  V30 1993 H 193.911 -0.991986 -3.81514 0
M  V30 1994 H 195.199 -0.822564 -5.02107 0
M  V30 1995 H 194.597 2.35628 -5.14292 0
M  V30 1996 H 193.154 2.36078 -6.07545 0
M  V30 1997 N 196.587 1.43421 -0.653314 0
M  V30 1998 C 197.534 2.30768 0.0382271 0
M  V30 1999 C 198.504 1.44755 0.814576 0
M  V30 2000 O 199.689 1.73624 0.791162 0
M  V30 2001 C 196.829 3.30336 0.998599 0
M  V30 2002 C 195.942 4.31448 0.218342 0
M  V30 2003 C 195.077 5.18098 1.17252 0
M  V30 2004 C 194.116 6.10902 0.382702 0
M  V30 2005 N 193.253 6.90176 1.28848 0
M  V30 2006 H 198.093 2.89357 -0.712511 0
M  V30 2007 H 195.63 1.42548 -0.363128 0
M  V30 2008 H 197.588 3.86572 1.56901 0
M  V30 2009 H 196.218 2.73397 1.71621 0
M  V30 2010 H 195.27 3.77506 -0.46836 0
M  V30 2011 H 196.582 4.97227 -0.395812 0
M  V30 2012 H 195.736 5.7896 1.81356 0
M  V30 2013 H 194.475 4.52444 1.82058 0
M  V30 2014 H 193.48 5.49128 -0.27169 0
M  V30 2015 H 194.705 6.78598 -0.260957 0
M  V30 2016 H 192.651 6.27171 1.92334 0
M  V30 2017 H 192.568 7.52478 0.728887 0
M  V30 2018 H 193.836 7.55543 1.91766 0
M  V30 2019 N 198.065 0.39524 1.52563 0
M  V30 2020 C 199.29 -0.187456 2.06551 0
M  V30 2021 C 199.715 -1.39249 1.26457 0
M  V30 2022 O 199.073 -1.78947 0.291151 0
M  V30 2023 C 199.121 -0.529985 3.56684 0
M  V30 2024 O 198.225 -1.62307 3.79118 0
M  V30 2025 H 197.566 -0.0202537 0.663691 0
M  V30 2026 H 200.096 0.564426 1.96661 0
M  V30 2027 H 200.106 -0.792598 4.00227 0
M  V30 2028 H 198.781 0.350987 4.14416 0
M  V30 2029 H 197.358 -1.3537 3.47461 0
M  V30 2030 N 199.544 -1.57102 0.125237 0
M  V30 2031 C 200.491 -2.15641 -0.822655 0
M  V30 2032 C 201.461 -1.08313 -1.25927 0
M  V30 2033 O 202.646 -1.36251 -1.33567 0
M  V30 2034 C 199.786 -2.76504 -2.06494 0
M  V30 2035 C 198.899 -3.98158 -1.67612 0
M  V30 2036 C 198.034 -4.47088 -2.86854 0
M  V30 2037 C 197.073 -5.6126 -2.44242 0
M  V30 2038 N 196.21 -6.04905 -3.56419 0
M  V30 2039 H 201.05 -2.96313 -0.316625 0
M  V30 2040 H 198.587 -1.46388 -0.144588 0
M  V30 2041 H 200.545 -3.09925 -2.79289 0
M  V30 2042 H 199.175 -1.98512 -2.54545 0
M  V30 2043 H 198.227 -3.70858 -0.846661 0
M  V30 2044 H 199.539 -4.80934 -1.32301 0
M  V30 2045 H 198.693 -4.82451 -3.67867 0
M  V30 2046 H 197.432 -3.63275 -3.25396 0
M  V30 2047 H 196.437 -5.25495 -1.61663 0
M  V30 2048 H 197.662 -6.46843 -2.0681 0
M  V30 2049 H 195.608 -5.24032 -3.94623 0
M  V30 2050 H 195.525 -6.82552 -3.25051 0
M  V30 2051 H 196.793 -6.44907 -4.37853 0
M  V30 2052 N 201.022 0.148545 -1.56898 0
M  V30 2053 C 202.268 0.862694 -1.83536 0
M  V30 2054 C 202.601 1.80889 -0.706604 0
M  V30 2055 O 201.876 1.92328 0.289885 0
M  V30 2056 C 202.159 1.63853 -3.20662 0
M  V30 2057 C 202.012 0.713925 -4.44098 0
M  V30 2058 C 203.331 2.60133 -3.54991 0
M  V30 2059 H 200.45 0.312179 -0.667618 0
M  V30 2060 H 203.092 0.127953 -1.89569 0
M  V30 2061 H 201.242 2.26489 -3.1565 0
M  V30 2062 H 202.914 0.098686 -4.61194 0
M  V30 2063 H 201.157 0.0234019 -4.33794 0
M  V30 2064 H 201.828 1.29278 -5.36648 0
M  V30 2065 H 204.304 2.07616 -3.60603 0
M  V30 2066 H 203.18 3.11468 -4.51972 0
M  V30 2067 H 203.441 3.41417 -2.80868 0
M  V30 2068 N 202.5 1.5196 0.417844 0
M  V30 2069 C 203.463 1.74065 1.49111 0
M  V30 2070 C 204.463 0.610537 1.48758 0
M  V30 2071 O 205.653 0.87832 1.50437 0
M  V30 2072 C 202.785 1.81502 2.88565 0
M  V30 2073 H 203.978 2.69869 1.30807 0
M  V30 2074 H 201.531 1.42244 0.647785 0
M  V30 2075 H 202.266 0.875813 3.1225 0
M  V30 2076 H 202.051 2.63651 2.90225 0
M  V30 2077 H 203.541 2.00376 3.66387 0
M  V30 2078 N 203.978 -0.674533 1.42435 0
M  V30 2079 C 205.255 -1.4305 1.33402 0
M  V30 2080 C 205.635 -2.11081 -0.0284674 0
M  V30 2081 O 204.983 -2.03257 -1.04397 0
M  V30 2082 C 205.193 -2.43272 2.50239 0
M  V30 2083 C 206.541 -3.07907 2.92367 0
M  V30 2084 O 207.565 -2.53599 2.50132 0
M  V30 2085 O 206.424 -4.0632 3.65467 0
M  V30 2086 H 203.518 -0.638076 0.526106 0
M  V30 2087 H 206.064 -0.703235 1.54443 0
M  V30 2088 H 204.836 -1.91803 3.41068 0
M  V30 2089 H 204.459 -3.23479 2.31186 0
M  V30 2090 N 205.456 -1.28612 -0.910864 0
M  V30 2091 C 206.703 -1.15934 -1.66029 0
M  V30 2092 C 207.031 0.291483 -1.92303 0
M  V30 2093 O 206.286 1.22816 -1.52364 0
M  V30 2094 C 206.585 -1.90624 -3.0232 0
M  V30 2095 C 206.251 -3.40405 -2.95695 0
M  V30 2096 C 204.913 -3.81255 -2.93595 0
M  V30 2097 C 207.265 -4.359 -2.85728 0
M  V30 2098 C 204.593 -5.15936 -2.79334 0
M  V30 2099 C 206.945 -5.70657 -2.73007 0
M  V30 2100 C 205.609 -6.10779 -2.69267 0
M  V30 2101 H 204.879 -0.424234 -0.607541 0
M  V30 2102 H 207.526 -1.5942 -1.06101 0
M  V30 2103 H 205.831 -1.39696 -3.6605 0
M  V30 2104 H 207.528 -1.78228 -3.59215 0
M  V30 2105 H 204.118 -3.07927 -2.98125 0
M  V30 2106 H 208.302 -4.053 -2.86436 0
M  V30 2107 H 203.558 -5.46146 -2.74835 0
M  V30 2108 H 207.732 -6.44311 -2.64264 0
M  V30 2109 H 205.359 -7.1509 -2.57974 0
M  V30 2110 N 206.934 1.1197 -1.10907 0
M  V30 2111 C 207.864 2.19928 -0.784473 0
M  V30 2112 C 208.845 1.6833 0.244726 0
M  V30 2113 O 210.03 1.93892 0.109418 0
M  V30 2114 C 207.16 3.46597 -0.220827 0
M  V30 2115 C 206.114 4.11376 -1.18127 0
M  V30 2116 C 205.44 5.32554 -0.478594 0
M  V30 2117 C 206.74 4.56945 -2.52979 0
M  V30 2118 H 208.434 2.47337 -1.68715 0
M  V30 2119 H 205.98 1.18879 -0.812642 0
M  V30 2120 H 207.933 4.21396 0.0184278 0
M  V30 2121 H 206.657 3.1863 0.717113 0
M  V30 2122 H 205.316 3.38564 -1.40606 0
M  V30 2123 H 204.964 5.00856 0.463976 0
M  V30 2124 H 204.664 5.76844 -1.11912 0
M  V30 2125 H 206.188 6.10096 -0.248 0
M  V30 2126 H 207.602 5.23093 -2.3462 0
M  V30 2127 H 205.999 5.1203 -3.12962 0
M  V30 2128 H 207.069 3.70676 -3.12614 0
M  V30 2129 N 208.412 0.89855 1.29475 0
M  V30 2130 C 209.345 0.319981 2.25945 0
M  V30 2131 C 210.323 -0.567189 1.52387 0
M  V30 2132 O 211.507 -0.514254 1.8135 0
M  V30 2133 C 208.634 -0.544013 3.34303 0
M  V30 2134 C 207.68 0.275682 4.25608 0
M  V30 2135 S 208.513 1.67272 5.08704 0
M  V30 2136 C 209.669 0.815621 6.20563 0
M  V30 2137 H 209.902 1.13767 2.74671 0
M  V30 2138 H 207.435 0.69882 1.3768 0
M  V30 2139 H 209.393 -1.03673 3.97193 0
M  V30 2140 H 208.054 -1.33593 2.84274 0
M  V30 2141 H 207.247 -0.384263 5.02533 0
M  V30 2142 H 206.849 0.701496 3.67362 0
M  V30 2143 H 209.141 0.0385042 6.77489 0
M  V30 2144 H 210.084 1.55691 6.90772 0
M  V30 2145 H 210.492 0.370516 5.63283 0
M  V30 2146 N 209.89 -1.43072 0.660911 0
M  V30 2147 C 210.822 -2.29108 -0.0647641 0
M  V30 2148 C 211.835 -1.42928 -0.779448 0
M  V30 2149 O 213.024 -1.66788 -0.635921 0
M  V30 2150 C 210.124 -3.20032 -1.11503 0
M  V30 2151 C 209.297 -4.34792 -0.476955 0
M  V30 2152 C 208.356 -5.06534 -1.42513 0
M  V30 2153 O 207.382 -5.61538 -0.930771 0
M  V30 2154 N 208.584 -5.1075 -2.75889 0
M  V30 2155 H 211.349 -2.92029 0.673731 0
M  V30 2156 H 208.91 -1.53846 0.50427 0
M  V30 2157 H 210.902 -3.64892 -1.75032 0
M  V30 2158 H 209.472 -2.58658 -1.75541 0
M  V30 2159 H 208.692 -3.92752 0.337572 0
M  V30 2160 H 209.98 -5.0879 -0.0318525 0
M  V30 2161 H 209.378 -4.67447 -3.18606 0
M  V30 2162 H 207.935 -5.59302 -3.347 0
M  V30 2163 N 211.368 -0.403325 -1.52352 0
M  V30 2164 C 212.616 0.174003 -2.0135 0
M  V30 2165 C 212.937 1.46139 -1.29106 0
M  V30 2166 O 212.207 1.91448 -0.415253 0
M  V30 2167 H 210.787 0.0672911 -0.743963 0
M  V30 2168 H 213.449 -0.538235 -1.87321 0
M  V30 2169 H 212.545 0.374254 -3.09848 0
M  V30 2170 N 212.846 1.57033 -0.133567 0
M  V30 2171 C 214.262 1.58035 0.222944 0
M  V30 2172 C 214.462 1.14713 1.6566 0
M  V30 2173 O 213.518 0.841218 2.38075 0
M  V30 2174 C 214.831 3.00691 -0.0236116 0
M  V30 2175 C 216.379 3.12973 0.0411512 0
M  V30 2176 C 216.854 4.57654 -0.177899 0
M  V30 2177 N 218.345 4.63033 -0.124365 0
M  V30 2178 C 219.08 5.72771 -0.268553 0
M  V30 2179 N 218.576 6.91206 -0.46972 0
M  V30 2180 N 220.369 5.61718 -0.2071 0
M  V30 2181 H 212.52 1.8349 -1.06981 0
M  V30 2182 H 214.783 0.848677 -0.422436 0
M  V30 2183 H 214.489 3.36726 -1.0153 0
M  V30 2184 H 214.363 3.70614 0.701808 0
M  V30 2185 H 216.75 2.76787 1.02338 0
M  V30 2186 H 216.831 2.45564 -0.716383 0
M  V30 2187 H 216.475 4.94542 -1.15717 0
M  V30 2188 H 216.405 5.23173 0.599797 0
M  V30 2189 H 218.896 3.7789 0.027011 0
M  V30 2190 H 219.209 7.70693 -0.570212 0
M  V30 2191 H 217.554 6.93156 -0.505876 0
M  V30 2192 H 220.745 4.68072 -0.0507986 0
M  V30 2193 H 220.918 6.47195 -0.322909 0
M  V30 2194 N 214.325 -0.140222 1.56975 0
M  V30 2195 C 215.571 -0.852949 1.83991 0
M  V30 2196 C 215.904 -1.80512 0.716187 0
M  V30 2197 O 215.179 -1.92479 -0.279681 0
M  V30 2198 C 215.462 -1.6215 3.21527 0
M  V30 2199 C 215.315 -0.690363 4.4447 0
M  V30 2200 C 216.634 -2.58247 3.56366 0
M  V30 2201 H 213.753 -0.308634 0.669264 0
M  V30 2202 H 216.395 -0.117898 1.89634 0
M  V30 2203 H 214.545 -2.24812 3.16847 0
M  V30 2204 H 216.217 -0.0742264 4.6124 0
M  V30 2205 H 214.46 -0.000396433 4.338 0
M  V30 2206 H 215.131 -1.2643 5.37326 0
M  V30 2207 H 217.607 -2.05701 3.61699 0
M  V30 2208 H 216.483 -3.09067 4.53617 0
M  V30 2209 H 216.744 -3.39923 2.82674 0
M  V30 2210 N 215.803 -1.52179 -0.40978 0
M  V30 2211 C 217.214 -1.58377 -0.988615 0
M  V30 2212 C 217.565 -0.423879 -1.91566 0
M  V30 2213 O 216.69 0.455844 -2.11544 0
M  V30 2214 C 217.285 -2.87044 -1.79976 0
M  V30 2215 C 215.844 -2.95722 -2.32863 0
M  V30 2216 C 214.991 -2.53309 -1.12828 0
M  V30 2217 H 217.942 -1.57558 -0.190039 0
M  V30 2218 H 217.963 -2.7236 -2.65707 0
M  V30 2219 H 217.475 -3.71444 -1.12478 0
M  V30 2220 H 215.576 -2.15814 -3.03735 0
M  V30 2221 H 215.689 -3.99951 -2.63773 0
M  V30 2222 H 214.053 -2.07142 -1.48204 0
M  V30 2223 H 214.836 -3.40082 -0.46897 0
M  V30 2224 N 217.281 0.66697 -1.42791 0
M  V30 2225 C 218.527 1.42754 -1.44889 0
M  V30 2226 C 218.882 1.92283 -0.0669755 0
M  V30 2227 O 218.175 1.68494 0.912154 0
M  V30 2228 C 218.369 2.6349 -2.4147 0
M  V30 2229 C 218.198 2.25776 -3.88915 0
M  V30 2230 C 216.968 2.1476 -4.57391 0
M  V30 2231 C 219.166 1.86927 -4.79127 0
M  V30 2232 N 217.148 1.70232 -5.89826 0
M  V30 2233 C 218.519 1.53378 -6.00729 0
M  V30 2234 C 220.574 1.73989 -4.66511 0
M  V30 2235 C 219.277 1.08187 -7.11117 0
M  V30 2236 C 221.303 1.30203 -5.76889 0
M  V30 2237 C 220.665 0.975818 -6.97608 0
M  V30 2238 H 216.764 0.518559 -0.585338 0
M  V30 2239 H 219.348 0.768906 -1.78874 0
M  V30 2240 H 217.519 3.27033 -2.09533 0
M  V30 2241 H 219.251 3.30123 -2.34096 0
M  V30 2242 H 216.006 2.3408 -4.11708 0
M  V30 2243 H 216.43 1.50369 -6.6009 0
M  V30 2244 H 221.072 1.97853 -3.7365 0
M  V30 2245 H 218.79 0.830701 -8.03819 0
M  V30 2246 H 222.376 1.20701 -5.69142 0
M  V30 2247 H 221.256 0.642157 -7.81566 0
M  V30 2248 N 218.759 1.29093 0.90403 0
M  V30 2249 C 220.175 1.07011 1.1841 0
M  V30 2250 C 220.375 -0.181358 2.00682 0
M  V30 2251 O 219.431 -0.880331 2.36657 0
M  V30 2252 C 220.744 2.32311 1.90924 0
M  V30 2253 C 222.292 2.37587 2.03768 0
M  V30 2254 C 222.767 3.62679 2.79693 0
M  V30 2255 N 224.258 3.63376 2.87249 0
M  V30 2256 C 224.993 4.56848 3.46522 0
M  V30 2257 N 224.489 5.60648 4.06996 0
M  V30 2258 N 226.282 4.44426 3.44154 0
M  V30 2259 H 218.433 2.09412 0.354993 0
M  V30 2260 H 220.696 0.922181 0.219742 0
M  V30 2261 H 220.402 3.23536 1.37905 0
M  V30 2262 H 220.276 2.39483 2.91424 0
M  V30 2263 H 222.663 1.46853 2.55965 0
M  V30 2264 H 222.744 2.34403 1.02415 0
M  V30 2265 H 222.388 4.53762 2.28173 0
M  V30 2266 H 222.318 3.63119 3.81381 0
M  V30 2267 H 224.809 2.88321 2.44293 0
M  V30 2268 H 225.122 6.28101 4.50232 0
M  V30 2269 H 223.467 5.64463 4.05471 0
M  V30 2270 H 226.658 3.62529 2.96126 0
M  V30 2271 H 226.831 5.17457 3.90054 0
M  V30 2272 N 220.237 -1.11381 1.11499 0
M  V30 2273 C 221.653 -1.35143 0.849031 0
M  V30 2274 C 221.853 -1.94515 -0.525938 0
M  V30 2275 O 220.909 -2.1785 -1.27662 0
M  V30 2276 C 222.222 -2.28249 1.95762 0
M  V30 2277 C 223.77 -2.41812 1.98736 0
M  V30 2278 C 224.245 -3.3824 3.088 0
M  V30 2279 N 225.736 -3.45803 3.08179 0
M  V30 2280 C 226.471 -4.20358 3.89982 0
M  V30 2281 N 225.967 -4.97884 4.8175 0
M  V30 2282 N 227.76 -4.15877 3.78157 0
M  V30 2283 H 219.911 -0.712062 2.00109 0
M  V30 2284 H 222.174 -0.376025 0.870235 0
M  V30 2285 H 221.88 -1.91817 2.94787 0
M  V30 2286 H 221.754 -3.28473 1.85433 0
M  V30 2287 H 224.141 -2.77518 1.00338 0
M  V30 2288 H 224.222 -1.41437 2.13141 0
M  V30 2289 H 223.866 -3.03261 4.07425 0
M  V30 2290 H 223.796 -4.38471 2.91635 0
M  V30 2291 H 226.287 -2.90506 2.41691 0
M  V30 2292 H 226.6 -5.52142 5.40702 0
M  V30 2293 H 224.945 -4.97043 4.85771 0
M  V30 2294 H 228.136 -3.544 3.05808 0
M  V30 2295 H 228.309 -4.73723 4.42143 0
M  V30 2296 N 221.715 -0.905404 -1.28997 0
M  V30 2297 C 222.963 -0.533192 -1.9494 0
M  V30 2298 C 223.284 0.924618 -1.71685 0
M  V30 2299 O 222.554 1.65268 -1.05183 0
M  V30 2300 H 221.134 -0.194194 -0.721317 0
M  V30 2301 H 223.796 -1.15294 -1.57141 0
M  V30 2302 H 222.892 -0.72059 -3.03667 0
M  V30 2303 N 223.193 1.4272 -0.668489 0
M  V30 2304 C 224.418 2.06484 -0.194758 0
M  V30 2305 C 224.843 1.49862 1.13679 0
M  V30 2306 O 224.201 0.614582 1.70565 0
M  V30 2307 C 224.249 3.60353 -0.133546 0
M  V30 2308 O 223.353 4.02464 0.899806 0
M  V30 2309 H 222.694 0.656137 -0.10188 0
M  V30 2310 H 225.224 1.82964 -0.915722 0
M  V30 2311 H 225.234 4.07976 0.0447041 0
M  V30 2312 H 223.909 4.00938 -1.1055 0
M  V30 2313 H 222.486 3.66402 0.693109 0
M  V30 2314 N 224.671 0.411399 1.52136 0
M  V30 2315 C 226.082 -0.0576826 1.86611 0
M  V30 2316 C 226.433 -1.44238 1.33003 0
M  V30 2317 O 225.558 -2.05759 0.670228 0
M  V30 2318 C 226.153 -0.111448 3.38617 0
M  V30 2319 C 224.712 -0.52487 3.72723 0
M  V30 2320 C 223.859 0.299176 2.75681 0
M  V30 2321 H 226.81 0.628368 1.4573 0
M  V30 2322 H 226.831 -0.926252 3.69054 0
M  V30 2323 H 226.343 0.896488 3.77604 0
M  V30 2324 H 224.444 -1.53936 3.39315 0
M  V30 2325 H 224.557 -0.267681 4.78352 0
M  V30 2326 H 222.921 -0.238814 2.53578 0
M  V30 2327 H 223.704 1.3055 3.17508 0
M  V30 2328 N 226.149 -1.5696 0.141893 0
M  V30 2329 C 227.397 -1.95573 -0.509484 0
M  V30 2330 C 227.718 -1.02746 -1.65736 0
M  V30 2331 O 226.988 -0.0880311 -1.95702 0
M  V30 2332 H 225.568 -0.722115 -0.191205 0
M  V30 2333 H 228.23 -1.93697 0.216196 0
M  V30 2334 H 227.326 -2.99171 -0.889 0
M  V30 2335 N 227.627 0.131896 -1.57047 0
M  V30 2336 C 228.904 0.871495 -1.75112 0
M  V30 2337 C 229.284 1.9866 -0.713949 0
M  V30 2338 O 228.632 2.26965 0.264447 0
M  V30 2339 C 228.842 1.40007 -3.19686 0
M  V30 2340 C 230.19 1.85752 -3.81813 0
M  V30 2341 O 231.214 1.49715 -3.23209 0
M  V30 2342 O 230.073 2.5226 -4.84796 0
M  V30 2343 H 227.167 0.412919 -0.716538 0
M  V30 2344 H 229.713 0.116641 -1.69299 0
M  V30 2345 H 228.485 0.599404 -3.86682 0
M  V30 2346 H 228.108 2.218 -3.29986 0
M  V30 2347 N 229.106 1.52395 0.401703 0
M  V30 2348 C 230.331 1.70972 1.17403 0
M  V30 2349 C 230.756 0.421615 1.83314 0
M  V30 2350 O 230.114 -0.621564 1.70312 0
M  V30 2351 C 230.162 2.85151 2.20728 0
M  V30 2352 O 229.266 2.51238 3.27037 0
M  V30 2353 H 228.607 0.568927 0.342372 0
M  V30 2354 H 231.137 1.99131 0.469891 0
M  V30 2355 H 231.147 3.10279 2.64936 0
M  V30 2356 H 229.822 3.78603 1.7214 0
M  V30 2357 H 228.399 2.36808 2.88057 0
M  V30 2358 N 230.584 -0.659388 1.43143 0
M  V30 2359 C 231.995 -1.24041 1.39537 0
M  V30 2360 C 232.346 -1.95963 0.0963364 0
M  V30 2361 O 231.471 -2.00892 -0.804438 0
M  V30 2362 C 232.066 -2.25601 2.52764 0
M  V30 2363 C 230.625 -2.79195 2.52443 0
M  V30 2364 C 229.772 -1.53743 2.30778 0
M  V30 2365 H 232.723 -0.451792 1.52133 0
M  V30 2366 H 232.744 -3.07651 2.23899 0
M  V30 2367 H 232.256 -1.73226 3.47296 0
M  V30 2368 H 230.357 -3.35649 1.61773 0
M  V30 2369 H 230.47 -3.2716 3.50004 0
M  V30 2370 H 228.834 -1.80869 1.79328 0
M  V30 2371 H 229.617 -1.03312 3.27386 0
M  V30 2372 N 232.062 -1.29571 -0.897171 0
M  V30 2373 C 232.972 -1.16808 -2.03453 0
M  V30 2374 C 233.988 -0.0907471 -1.73763 0
M  V30 2375 O 235.164 -0.303312 -1.99103 0
M  V30 2376 C 232.229 -0.848264 -3.36163 0
M  V30 2377 C 231.29 -2.0097 -3.79354 0
M  V30 2378 C 230.523 -1.70505 -5.05731 0
M  V30 2379 O 230.746 -0.62718 -5.66941 0
M  V30 2380 O 229.68 -2.5538 -5.45036 0
M  V30 2381 H 233.506 -2.12325 -2.17144 0
M  V30 2382 H 231.091 -1.09047 -1.02123 0
M  V30 2383 H 232.973 -0.684581 -4.15802 0
M  V30 2384 H 231.648 0.0771071 -3.23608 0
M  V30 2385 H 230.555 -2.22863 -3.00471 0
M  V30 2386 H 231.888 -2.91636 -3.96496 0
M  V30 2387 N 233.54 1.10788 -1.12088 0
M  V30 2388 C 234.45 2.20599 -0.798338 0
M  V30 2389 C 235.466 1.72712 0.21135 0
M  V30 2390 O 236.642 2.01348 0.0458477 0
M  V30 2391 C 233.707 3.45771 -0.253674 0
M  V30 2392 C 232.768 4.08411 -1.32283 0
M  V30 2393 C 232.001 5.27608 -0.80406 0
M  V30 2394 O 232.224 5.69241 0.363478 0
M  V30 2395 O 231.158 5.8101 -1.57198 0
M  V30 2396 H 234.984 2.50614 -1.7154 0
M  V30 2397 H 232.569 1.19454 -0.897275 0
M  V30 2398 H 234.451 4.21376 0.0453691 0
M  V30 2399 H 233.126 3.1739 0.636005 0
M  V30 2400 H 232.033 3.34507 -1.67499 0
M  V30 2401 H 233.366 4.40986 -2.18614 0
M  V30 2402 N 235.018 0.912232 1.28515 0
M  V30 2403 C 235.966 0.389597 2.29314 0
M  V30 2404 C 236.96 -0.517915 1.61289 0
M  V30 2405 O 238.166 -0.399328 1.75515 0
M  V30 2406 H 234.541 0.107386 0.744293 0
M  V30 2407 H 236.512 1.25286 2.70825 0
M  V30 2408 C 235.261 -0.356496 3.45868 0
M  V30 2409 H 234.584 0.332608 3.98414 0
M  V30 2410 H 236.024 -0.686851 4.184 0
M  V30 2411 C 234.483 -1.56383 2.98406 0
M  V30 2412 O 235.013 -2.66294 3.00749 0
M  V30 2413 N 233.219 -1.41029 2.54085 0
M  V30 2414 H 232.766 -0.516089 2.52377 0
M  V30 2415 H 232.724 -2.21939 2.22689 0
M  V30 2416 N 236.496 -1.42363 0.676048 0
M  V30 2417 C 237.443 -2.308 -0.00150904 0
M  V30 2418 C 238.413 -1.46032 -0.791444 0
M  V30 2419 O 239.598 -1.74861 -0.76344 0
M  V30 2420 C 236.738 -3.31883 -0.945919 0
M  V30 2421 C 235.851 -4.31741 -0.149675 0
M  V30 2422 C 234.986 -5.19898 -1.08995 0
M  V30 2423 C 234.025 -6.11434 -0.285465 0
M  V30 2424 N 233.162 -6.92138 -1.17851 0
M  V30 2425 H 238.002 -2.88187 0.758455 0
M  V30 2426 H 235.539 -1.41952 0.38576 0
M  V30 2427 H 237.497 -3.89019 -1.50731 0
M  V30 2428 H 236.127 -2.76093 -1.6725 0
M  V30 2429 H 235.179 -3.76713 0.528359 0
M  V30 2430 H 236.491 -4.96534 0.474866 0
M  V30 2431 H 235.645 -5.81772 -1.72123 0
M  V30 2432 H 234.384 -4.55284 -1.74837 0
M  V30 2433 H 233.389 -5.48627 0.359018 0
M  V30 2434 H 234.614 -6.78097 0.368883 0
M  V30 2435 H 232.56 -6.30152 -1.82332 0
M  V30 2436 H 232.477 -7.53542 -0.609082 0
M  V30 2437 H 233.745 -7.58499 -1.79722 0
M  V30 2438 N 237.974 -0.419461 -1.51915 0
M  V30 2439 C 238.884 0.407528 -2.31033 0
M  V30 2440 C 239.9 1.04413 -1.3919 0
M  V30 2441 O 241.076 1.0434 -1.72265 0
M  V30 2442 C 238.141 1.50365 -3.12396 0
M  V30 2443 C 237.202 0.889029 -4.19994 0
M  V30 2444 C 236.435 1.93291 -4.97468 0
M  V30 2445 O 236.658 3.15259 -4.75361 0
M  V30 2446 O 235.592 1.53339 -5.8204 0
M  V30 2447 H 239.418 -0.237865 -3.02767 0
M  V30 2448 H 237.003 -0.182413 -1.48282 0
M  V30 2449 H 238.885 2.13975 -3.63032 0
M  V30 2450 H 237.56 2.13345 -2.43445 0
M  V30 2451 H 236.467 0.215353 -3.7348 0
M  V30 2452 H 237.8 0.302991 -4.91267 0
M  V30 2453 N 239.452 1.56882 -0.150215 0
M  V30 2454 C 240.868 1.58263 0.20617 0
M  V30 2455 C 241.068 1.16464 1.64434 0
M  V30 2456 O 240.124 0.866422 2.3717 0
M  V30 2457 C 241.437 3.00649 -0.0555025 0
M  V30 2458 C 242.985 3.12999 0.00795388 0
M  V30 2459 C 243.46 4.5744 -0.226429 0
M  V30 2460 N 244.951 4.62875 -0.173469 0
M  V30 2461 C 245.686 5.72454 -0.329288 0
M  V30 2462 N 245.182 6.90669 -0.543005 0
M  V30 2463 N 246.975 5.61467 -0.266666 0
M  V30 2464 H 239.126 1.82345 -1.08922 0
M  V30 2465 H 241.389 0.844149 -0.431413 0
M  V30 2466 H 241.095 3.3563 -1.05096 0
M  V30 2467 H 240.969 3.71337 0.66246 0
M  V30 2468 H 243.356 2.77857 0.993966 0
M  V30 2469 H 243.437 2.4479 -0.742388 0
M  V30 2470 H 243.081 4.93287 -1.20956 0
M  V30 2471 H 243.011 5.2378 0.544274 0
M  V30 2472 H 245.502 3.77898 -0.0130709 0
M  V30 2473 H 245.815 7.70045 -0.651922 0
M  V30 2474 H 244.16 6.92581 -0.579366 0
M  V30 2475 H 247.351 4.67992 -0.100441 0
M  V30 2476 H 247.524 6.46816 -0.391535 0
M  V30 2477 N 240.93 -0.123565 1.57115 0
M  V30 2478 C 242.176 -0.833386 1.84885 0
M  V30 2479 C 242.509 -1.79742 0.735292 0
M  V30 2480 O 241.784 -1.92764 -0.25925 0
M  V30 2481 C 242.067 -1.5873 3.23228 0
M  V30 2482 C 241.92 -0.643183 4.45178 0
M  V30 2483 C 243.239 -2.54453 3.59085 0
M  V30 2484 H 240.358 -0.301518 0.6725 0
M  V30 2485 H 243 -0.097778 1.89748 0
M  V30 2486 H 241.15 -2.21438 3.19214 0
M  V30 2487 H 242.822 -0.0253015 4.61293 0
M  V30 2488 H 241.065 0.0456139 4.33776 0
M  V30 2489 H 241.736 -1.20724 5.38637 0
M  V30 2490 H 244.212 -2.01853 3.63861 0
M  V30 2491 H 243.088 -3.04238 4.5687 0
M  V30 2492 H 243.349 -3.36906 2.86264 0
M  V30 2493 N 242.408 -1.52605 -0.393616 0
M  V30 2494 C 243.318 -1.79971 -1.50492 0
M  V30 2495 C 244.334 -0.686181 -1.59899 0
M  V30 2496 O 245.51 -0.973274 -1.76322 0
M  V30 2497 C 242.575 -1.95867 -2.86072 0
M  V30 2498 C 241.636 -3.19781 -2.86424 0
M  V30 2499 C 240.869 -3.34909 -4.15538 0
M  V30 2500 O 241.092 -2.54948 -5.10253 0
M  V30 2501 O 240.026 -4.28141 -4.23059 0
M  V30 2502 H 243.852 -2.74328 -1.30299 0
M  V30 2503 H 241.437 -1.3764 -0.581005 0
M  V30 2504 H 243.319 -2.08056 -3.66457 0
M  V30 2505 H 241.994 -1.04699 -3.063 0
M  V30 2506 H 240.901 -3.13038 -2.04837 0
M  V30 2507 H 242.234 -4.1078 -2.71147 0
M  V30 2508 N 243.887 0.651787 -1.4349 0
M  V30 2509 C 244.797 1.79368 -1.5121 0
M  V30 2510 C 245.813 1.69361 -0.399093 0
M  V30 2511 O 246.989 1.90505 -0.653431 0
M  V30 2512 C 244.054 3.15653 -1.43401 0
M  V30 2513 C 243.115 3.37446 -2.65384 0
M  V30 2514 C 242.348 4.67229 -2.57939 0
M  V30 2515 O 242.571 5.46676 -1.62792 0
M  V30 2516 O 241.505 4.90773 -3.48462 0
M  V30 2517 H 245.331 1.7581 -2.47638 0
M  V30 2518 H 242.916 0.810447 -1.25507 0
M  V30 2519 H 244.798 3.96935 -1.41494 0
M  V30 2520 H 243.473 3.19798 -0.501085 0
M  V30 2521 H 242.38 2.55923 -2.72863 0
M  V30 2522 H 243.713 3.38148 -3.57654 0
M  V30 2523 N 245.365 1.30045 0.890287 0
M  V30 2524 C 246.275 1.17885 2.02831 0
M  V30 2525 C 247.291 0.0999609 1.73713 0
M  V30 2526 O 248.467 0.313867 1.98939 0
M  V30 2527 C 245.532 0.866079 3.35708 0
M  V30 2528 C 244.593 2.02979 3.78283 0
M  V30 2529 C 243.826 1.73184 5.0482 0
M  V30 2530 O 244.049 0.657237 5.66601 0
M  V30 2531 O 242.983 2.58267 5.43674 0
M  V30 2532 H 246.809 2.13474 2.16015 0
M  V30 2533 H 244.394 1.09587 1.01543 0
M  V30 2534 H 246.276 0.706623 4.15433 0
M  V30 2535 H 244.951 -0.0599443 3.23644 0
M  V30 2536 H 243.858 2.24454 2.99285 0
M  V30 2537 H 245.191 2.93734 3.94944 0
M  V30 2538 N 246.843 -1.10192 1.12674 0
M  V30 2539 C 248.091 -1.81845 0.881861 0
M  V30 2540 C 248.412 -1.85737 -0.593867 0
M  V30 2541 O 247.682 -1.33724 -1.4316 0
M  V30 2542 H 246.262 -0.673432 0.323261 0
M  V30 2543 H 248.924 -1.33316 1.42172 0
M  V30 2544 H 248.02 -2.85288 1.2656 0
M  V30 2545 N 248.321 -0.919034 -1.28029 0
M  V30 2546 C 249.569 -0.553838 -1.94363 0
M  V30 2547 C 249.89 0.906357 -1.72656 0
M  V30 2548 O 249.16 1.64143 -1.0693 0
M  V30 2549 H 247.74 -0.201834 -0.719216 0
M  V30 2550 H 250.402 -1.16954 -1.55909 0
M  V30 2551 H 249.498 -0.752758 -3.02886 0
M  V30 2552 N 249.799 1.42003 -0.683588 0
M  V30 2553 C 250.746 2.30798 -0.0107309 0
M  V30 2554 C 251.716 1.4645 0.783688 0
M  V30 2555 O 252.901 1.75263 0.754156 0
M  V30 2556 C 250.041 3.3238 0.928306 0
M  V30 2557 C 249.154 4.31814 0.126776 0
M  V30 2558 C 248.289 5.20468 1.06236 0
M  V30 2559 C 247.328 6.11577 0.253035 0
M  V30 2560 N 246.465 6.92754 1.14179 0
M  V30 2561 H 251.305 2.8778 -0.773727 0
M  V30 2562 H 248.842 1.41745 -0.393283 0
M  V30 2563 H 250.8 3.89813 1.48666 0
M  V30 2564 H 249.43 2.76976 1.65783 0
M  V30 2565 H 248.482 3.76427 -0.54833 0
M  V30 2566 H 249.794 4.96276 -0.501192 0
M  V30 2567 H 248.948 5.82677 1.69035 0
M  V30 2568 H 247.687 4.56204 1.7242 0
M  V30 2569 H 246.692 5.48428 -0.388108 0
M  V30 2570 H 247.917 6.77892 -0.404839 0
M  V30 2571 H 245.863 6.3111 1.78987 0
M  V30 2572 H 245.78 7.53855 0.569111 0
M  V30 2573 H 247.048 7.59441 1.75697 0
M  V30 2574 N 251.277 0.427512 1.51691 0
M  V30 2575 C 252.688 -0.0378867 1.86662 0
M  V30 2576 C 253.039 -1.42819 1.34525 0
M  V30 2577 O 252.164 -2.05037 0.692014 0
M  V30 2578 C 252.759 -0.0755266 3.38716 0
M  V30 2579 C 251.318 -0.485309 3.73258 0
M  V30 2580 C 250.465 0.328399 2.75349 0
M  V30 2581 H 253.416 0.64379 1.45055 0
M  V30 2582 H 253.437 -0.887056 3.70016 0
M  V30 2583 H 252.949 0.936487 3.76632 0
M  V30 2584 H 251.05 -1.50329 3.40928 0
M  V30 2585 H 251.163 -0.21693 4.78609 0
M  V30 2586 H 249.527 -0.211905 2.53817 0
M  V30 2587 H 250.31 1.3391 3.16106 0
M  V30 2588 N 252.755 -1.56801 0.158532 0
M  V30 2589 C 253.702 -2.17337 -0.776729 0
M  V30 2590 C 254.672 -1.1096 -1.23601 0
M  V30 2591 O 255.857 -1.39054 -1.30647 0
M  V30 2592 C 252.997 -2.80822 -2.00582 0
M  V30 2593 C 252.11 -4.01624 -1.59129 0
M  V30 2594 C 251.245 -4.53072 -2.77306 0
M  V30 2595 C 250.284 -5.66314 -2.32282 0
M  V30 2596 N 249.421 -6.12329 -3.43508 0
M  V30 2597 H 254.261 -2.96918 -0.253701 0
M  V30 2598 H 251.798 -1.46661 -0.113504 0
M  V30 2599 H 253.756 -3.15779 -2.72652 0
M  V30 2600 H 252.386 -2.03866 -2.50277 0
M  V30 2601 H 251.438 -3.72571 -0.767806 0
M  V30 2602 H 252.75 -4.83633 -1.2207 0
M  V30 2603 H 251.904 -4.90145 -3.57551 0
M  V30 2604 H 250.643 -3.70095 -3.17617 0
M  V30 2605 H 249.648 -5.28806 -1.5048 0
M  V30 2606 H 250.873 -6.51085 -1.93043 0
M  V30 2607 H 248.819 -5.32284 -3.83418 0
M  V30 2608 H 248.736 -6.89293 -3.105 0
M  V30 2609 H 250.004 -6.5405 -4.24075 0
M  V30 2610 N 254.233 0.115231 -1.57178 0
M  V30 2611 C 255.183 1.14707 -1.97044 0
M  V30 2612 C 256.167 1.36866 -0.845957 0
M  V30 2613 O 257.359 1.37895 -1.10968 0
M  V30 2614 C 254.488 2.47266 -2.38148 0
M  V30 2615 C 253.574 2.28566 -3.57237 0
M  V30 2616 N 253.965 1.79685 -4.72807 0
M  V30 2617 C 252.263 2.59208 -3.62943 0
M  V30 2618 C 252.964 1.74781 -5.54821 0
M  V30 2619 N 251.94 2.19264 -4.97417 0
M  V30 2620 H 255.742 0.761754 -2.83857 0
M  V30 2621 H 253.256 0.322928 -1.59157 0
M  V30 2622 H 255.253 3.219 -2.64927 0
M  V30 2623 H 253.913 2.86552 -1.52702 0
M  V30 2624 H 254.924 1.49177 -4.9595 0
M  V30 2625 H 251.601 3.02154 -2.88113 0
M  V30 2626 H 252.991 1.38212 -6.57531 0
M  V30 2627 N 255.711 1.52812 0.385517 0
M  V30 2628 C 256.957 1.68275 1.13188 0
M  V30 2629 C 257.29 0.423179 1.89533 0
M  V30 2630 O 256.565 -0.579113 1.85679 0
M  V30 2631 C 256.848 2.92001 2.1073 0
M  V30 2632 C 256.701 4.28067 1.38125 0
M  V30 2633 C 258.02 3.11283 3.11113 0
M  V30 2634 H 255.139 0.612352 0.410115 0
M  V30 2635 H 257.781 1.85415 0.414869 0
M  V30 2636 H 255.931 2.77519 2.71874 0
M  V30 2637 H 257.603 4.54324 0.799187 0
M  V30 2638 H 255.846 4.28388 0.683092 0
M  V30 2639 H 256.517 5.10733 2.09417 0
M  V30 2640 H 258.993 3.2482 2.6006 0
M  V30 2641 H 257.869 3.99325 3.76605 0
M  V30 2642 H 258.13 2.25656 3.80173 0
M  V30 2643 N 257.189 -0.644168 1.43834 0
M  V30 2644 C 258.119 -1.76814 1.52509 0
M  V30 2645 C 259.1 -1.65823 0.379052 0
M  V30 2646 O 260.285 -1.84781 0.597466 0
M  V30 2647 C 257.415 -3.15288 1.4564 0
M  V30 2648 C 256.369 -3.41053 2.58586 0
M  V30 2649 C 255.695 -4.79421 2.36769 0
M  V30 2650 C 256.995 -3.34902 4.00797 0
M  V30 2651 H 258.689 -1.69812 2.46586 0
M  V30 2652 H 256.235 -0.815542 1.1868 0
M  V30 2653 H 258.188 -3.93681 1.50311 0
M  V30 2654 H 256.912 -3.23043 0.480725 0
M  V30 2655 H 255.571 -2.65035 2.53282 0
M  V30 2656 H 255.219 -4.83863 1.37424 0
M  V30 2657 H 254.919 -4.9762 3.12487 0
M  V30 2658 H 256.443 -5.6006 2.43238 0
M  V30 2659 H 257.857 -4.03218 4.07539 0
M  V30 2660 H 256.254 -3.64637 4.76613 0
M  V30 2661 H 257.324 -2.32928 4.25291 0
M  V30 2662 N 258.668 -1.30515 -0.883378 0
M  V30 2663 C 259.893 -1.22487 -1.67367 0
M  V30 2664 C 260.318 0.208767 -1.86938 0
M  V30 2665 O 259.676 1.15015 -1.40148 0
M  V30 2666 C 259.724 -1.96041 -3.02655 0
M  V30 2667 O 258.828 -1.28859 -3.91751 0
M  V30 2668 H 258.169 -0.423573 -0.511353 0
M  V30 2669 H 260.699 -1.72362 -1.10239 0
M  V30 2670 H 260.709 -2.05124 -3.52687 0
M  V30 2671 H 259.384 -3.00307 -2.8773 0
M  V30 2672 H 257.961 -1.28141 -3.50192 0
M  V30 2673 N 260.146 1.09593 -1.13257 0
M  V30 2674 C 261.374 1.855 -0.916378 0
M  V30 2675 C 261.789 1.81069 0.534738 0
M  V30 2676 O 261.146 1.20562 1.37007 0
M  V30 2677 C 261.197 3.33546 -1.39388 0
M  V30 2678 O 260.918 3.37927 -2.78813 0
M  V30 2679 C 262.419 4.26299 -1.21588 0
M  V30 2680 H 259.639 0.585991 -0.326887 0
M  V30 2681 H 262.183 1.38488 -1.5047 0
M  V30 2682 H 260.338 3.77992 -0.848597 0
M  V30 2683 H 260.752 4.30254 -2.9997 0
M  V30 2684 H 262.226 5.28341 -1.59876 0
M  V30 2685 H 262.703 4.38918 -0.157376 0
M  V30 2686 H 263.309 3.87668 -1.7491 0
M  V30 2687 N 261.624 0.925811 1.2754 0
M  V30 2688 C 262.849 0.580924 1.99098 0
M  V30 2689 C 263.274 -0.833555 1.68622 0
M  V30 2690 O 262.632 -1.55903 0.925422 0
M  V30 2691 C 262.68 0.811186 3.51358 0
M  V30 2692 O 261.784 -0.124129 4.12213 0
M  V30 2693 H 261.125 0.223873 0.625122 0
M  V30 2694 H 263.655 1.24455 1.62395 0
M  V30 2695 H 263.665 0.72601 4.01489 0
M  V30 2696 H 262.34 1.84227 3.72872 0
M  V30 2697 H 260.917 0.0108006 3.72898 0
M  V30 2698 N 263.102 -1.41638 0.69111 0
M  V30 2699 C 264.35 -2.00902 0.219758 0
M  V30 2700 C 264.671 -1.54994 -1.18329 0
M  V30 2701 O 263.941 -0.778628 -1.79762 0
M  V30 2702 H 262.521 -0.74289 0.0782558 0
M  V30 2703 H 265.183 -1.73327 0.891271 0
M  V30 2704 H 264.279 -3.11224 0.233708 0
M  V30 2705 N 264.58 -0.43555 -1.51462 0
M  V30 2706 C 265.826 0.131709 -2.02372 0
M  V30 2707 C 266.159 1.42516 -1.3192 0
M  V30 2708 O 265.434 1.89606 -0.433573 0
M  V30 2709 C 265.717 0.352301 -3.58373 0
M  V30 2710 C 265.57 -0.959676 -4.39443 0
M  V30 2711 C 266.889 1.12286 -4.25535 0
M  V30 2712 H 264.008 0.0463936 -0.735538 0
M  V30 2713 H 266.65 -0.574197 -1.81116 0
M  V30 2714 H 264.8 0.9536 -3.76615 0
M  V30 2715 H 266.472 -1.59482 -4.32855 0
M  V30 2716 H 264.715 -1.56468 -4.04599 0
M  V30 2717 H 265.386 -0.759394 -5.46752 0
M  V30 2718 H 267.862 0.613545 -4.11552 0
M  V30 2719 H 266.738 1.24598 -5.34571 0
M  V30 2720 H 266.999 2.15048 -3.86273 0
M  V30 2721 N 266.058 1.56714 -0.166846 0
M  V30 2722 C 266.99 2.14914 0.796537 0
M  V30 2723 C 268.003 1.10357 1.19688 0
M  V30 2724 O 269.192 1.37561 1.13751 0
M  V30 2725 C 266.292 2.67326 2.08303 0
M  V30 2726 C 265.465 3.96493 1.84696 0
M  V30 2727 C 264.524 4.34014 2.97521 0
M  V30 2728 O 263.55 5.01973 2.6835 0
M  V30 2729 N 264.752 3.95208 4.25196 0
M  V30 2730 H 267.517 2.98205 0.299006 0
M  V30 2731 H 265.078 1.61892 0.0160839 0
M  V30 2732 H 267.07 2.89428 2.82867 0
M  V30 2733 H 265.64 1.88649 2.4926 0
M  V30 2734 H 264.86 3.82814 0.940602 0
M  V30 2735 H 266.148 4.8086 1.66285 0
M  V30 2736 H 265.546 3.40487 4.51758 0
M  V30 2737 H 264.103 4.2232 4.96477 0
M  V30 2738 N 267.536 -0.106894 1.57237 0
M  V30 2739 C 268.761 -0.830287 1.90055 0
M  V30 2740 C 269.186 -1.72064 0.75998 0
M  V30 2741 O 268.544 -1.78982 -0.288991 0
M  V30 2742 C 268.592 -1.6295 3.21683 0
M  V30 2743 O 267.696 -2.73748 3.08441 0
M  V30 2744 H 267.037 -0.228855 0.623315 0
M  V30 2745 H 269.567 -0.085658 2.04421 0
M  V30 2746 H 269.577 -2.01621 3.54701 0
M  V30 2747 H 268.252 -0.975989 4.04286 0
M  V30 2748 H 266.829 -2.38192 2.86913 0
M  V30 2749 N 269.014 -1.53014 -0.377408 0
M  V30 2750 C 270.291 -1.59215 -1.13622 0
M  V30 2751 C 270.671 -0.392407 -2.07421 0
M  V30 2752 O 270.019 0.618342 -2.19975 0
M  V30 2753 C 270.229 -2.93669 -1.88573 0
M  V30 2754 C 271.577 -3.47822 -2.43526 0
M  V30 2755 O 272.601 -2.9562 -1.98715 0
M  V30 2756 O 271.46 -4.39055 -3.25412 0
M  V30 2757 H 268.554 -0.642625 -0.52054 0
M  V30 2758 H 271.1 -1.65353 -0.381625 0
M  V30 2759 H 269.872 -3.7243 -1.20048 0
M  V30 2760 H 269.495 -2.90968 -2.70968 0
M  V30 2761 N 270.492 0.636531 -1.44174 0
M  V30 2762 C 271.455 1.73063 -1.50273 0
M  V30 2763 C 272.455 1.56113 -0.385397 0
M  V30 2764 O 273.645 1.61707 -0.64781 0
M  V30 2765 C 270.777 3.12096 -1.37145 0
M  V30 2766 H 271.97 1.69031 -2.47727 0
M  V30 2767 H 269.523 0.849706 -1.31186 0
M  V30 2768 H 270.258 3.21728 -0.407636 0
M  V30 2769 H 270.043 3.25805 -2.18159 0
M  V30 2770 H 271.533 3.91846 -1.44382 0
M  V30 2771 N 271.97 1.30982 0.876444 0
M  V30 2772 C 273.386 1.09498 1.16113 0
M  V30 2773 C 273.586 -0.13875 2.01022 0
M  V30 2774 O 272.642 -0.829935 2.38471 0
M  V30 2775 C 273.955 2.36308 1.85954 0
M  V30 2776 C 275.503 2.41856 1.98683 0
M  V30 2777 C 275.978 3.6853 2.71937 0
M  V30 2778 N 277.469 3.69387 2.79477 0
M  V30 2779 C 278.204 4.64096 3.36753 0
M  V30 2780 N 277.7 5.69155 3.95012 0
M  V30 2781 N 279.493 4.51626 3.3465 0
M  V30 2782 H 271.644 2.10118 0.310494 0
M  V30 2783 H 273.907 0.926634 0.200131 0
M  V30 2784 H 273.613 3.26388 1.31011 0
M  V30 2785 H 273.487 2.4561 2.86278 0
M  V30 2786 H 275.874 1.52249 2.52793 0
M  V30 2787 H 275.955 2.36523 0.9742 0
M  V30 2788 H 275.599 4.58499 2.18496 0
M  V30 2789 H 275.529 3.71127 3.73593 0
M  V30 2790 H 278.02 2.93438 2.38123 0
M  V30 2791 H 278.333 6.3751 4.36808 0
M  V30 2792 H 276.678 5.72937 3.93406 0
M  V30 2793 H 279.869 3.68728 2.8837 0
M  V30 2794 H 280.042 5.25614 3.7899 0
M  V30 2795 N 273.449 -1.08991 1.13837 0
M  V30 2796 C 274.359 -2.19301 0.833333 0
M  V30 2797 C 275.375 -1.73026 -0.183847 0
M  V30 2798 O 276.551 -2.01395 -0.0138092 0
M  V30 2799 C 273.616 -3.45323 0.308651 0
M  V30 2800 C 272.677 -4.06255 1.38764 0
M  V30 2801 C 271.91 -5.26262 0.887896 0
M  V30 2802 O 272.133 -5.69747 -0.27287 0
M  V30 2803 O 271.067 -5.78435 1.66421 0
M  V30 2804 H 274.893 -2.47854 1.75506 0
M  V30 2805 H 272.478 -1.18012 0.916166 0
M  V30 2806 H 274.36 -4.21394 0.0216739 0
M  V30 2807 H 273.035 -3.18362 -0.585431 0
M  V30 2808 H 271.942 -3.318 1.72799 0
M  V30 2809 H 273.275 -4.37452 2.25602 0
M  V30 2810 N 274.927 -0.932562 -1.27047 0
M  V30 2811 C 276.338 -0.619451 -1.76124 0
M  V30 2812 C 276.689 0.865397 -1.76083 0
M  V30 2813 O 275.814 1.67722 -1.36742 0
M  V30 2814 C 276.409 -1.11771 -3.19832 0
M  V30 2815 C 274.968 -0.855174 -3.66557 0
M  V30 2816 C 274.115 -1.27362 -2.46321 0
M  V30 2817 H 277.066 -1.11181 -1.13245 0
M  V30 2818 H 277.087 -0.46759 -3.77616 0
M  V30 2819 H 276.599 -2.19842 -3.1983 0
M  V30 2820 H 274.7 0.211524 -3.71999 0
M  V30 2821 H 274.813 -1.47613 -4.55793 0
M  V30 2822 H 273.177 -0.692119 -2.45116 0
M  V30 2823 H 273.96 -2.36307 -2.49025 0
M  V30 2824 N 276.405 1.4127 -0.698611 0
M  V30 2825 C 277.653 2.00782 -0.230409 0
M  V30 2826 C 277.974 1.5562 1.17505 0
M  V30 2827 O 277.244 0.78815 1.79346 0
M  V30 2828 H 275.824 0.742464 -0.0821944 0
M  V30 2829 H 278.486 1.72852 -0.90045 0
M  V30 2830 H 277.582 3.11095 -0.25021 0
M  V30 2831 N 277.883 0.443576 1.51229 0
M  V30 2832 C 278.793 -0.370721 2.31652 0
M  V30 2833 C 279.809 -1.02186 1.40833 0
M  V30 2834 O 280.985 -1.01586 1.73903 0
M  V30 2835 C 278.05 -1.45376 3.14749 0
M  V30 2836 C 277.111 -0.822099 4.21355 0
M  V30 2837 C 276.344 -1.85353 5.0048 0
M  V30 2838 O 276.567 -3.07656 4.80316 0
M  V30 2839 O 275.501 -1.4406 5.84406 0
M  V30 2840 H 279.327 0.286002 3.0235 0
M  V30 2841 H 276.912 0.20598 1.47973 0
M  V30 2842 H 278.794 -2.08173 3.66391 0
M  V30 2843 H 277.469 -2.09445 2.46809 0
M  V30 2844 H 276.376 -0.155909 3.73775 0
M  V30 2845 H 277.709 -0.224797 4.91686 0
M  V30 2846 N 279.361 -1.56624 0.175154 0
M  V30 2847 C 280.271 -2.21741 -0.766042 0
M  V30 2848 C 281.287 -1.21023 -1.25018 0
M  V30 2849 O 282.463 -1.53697 -1.3015 0
M  V30 2850 C 279.528 -2.84839 -1.97655 0
M  V30 2851 C 278.589 -4.00769 -1.53892 0
M  V30 2852 C 277.822 -4.60849 -2.69173 0
M  V30 2853 O 278.045 -4.19823 -3.86141 0
M  V30 2854 O 276.979 -5.50655 -2.43028 0
M  V30 2855 H 280.805 -3.02738 -0.241585 0
M  V30 2856 H 278.39 -1.49305 -0.053222 0
M  V30 2857 H 280.272 -3.24834 -2.68442 0
M  V30 2858 H 278.947 -2.06836 -2.48999 0
M  V30 2859 H 277.854 -3.65436 -0.80044 0
M  V30 2860 H 279.187 -4.80376 -1.07236 0
M  V30 2861 N 280.839 0.0985539 -1.57292 0
M  V30 2862 C 282.064 0.820196 -1.90493 0
M  V30 2863 C 282.489 1.71658 -0.769094 0
M  V30 2864 O 281.847 1.79133 0.279495 0
M  V30 2865 C 281.895 1.61242 -3.22542 0
M  V30 2866 O 280.999 2.72108 -3.09888 0
M  V30 2867 H 280.34 0.225547 -0.62452 0
M  V30 2868 H 282.87 0.0748159 -2.04463 0
M  V30 2869 H 282.88 1.99737 -3.55766 0
M  V30 2870 H 281.555 0.954535 -4.04798 0
M  V30 2871 H 280.132 2.36667 -2.88172 0
M  V30 2872 N 282.317 1.53212 0.369288 0
M  V30 2873 C 283.249 1.75668 1.47219 0
M  V30 2874 C 284.262 0.637387 1.49804 0
M  V30 2875 O 285.451 0.913561 1.5335 0
M  V30 2876 C 282.551 1.81818 2.85999 0
M  V30 2877 C 281.724 3.11409 3.07153 0
M  V30 2878 C 280.783 3.08849 4.26026 0
M  V30 2879 O 279.809 3.82659 4.2138 0
M  V30 2880 N 281.011 2.29409 5.33246 0
M  V30 2881 H 283.776 2.70832 1.28337 0
M  V30 2882 H 281.337 1.51944 0.55898 0
M  V30 2883 H 283.329 1.77588 3.63655 0
M  V30 2884 H 281.899 0.939544 2.98146 0
M  V30 2885 H 281.119 3.28971 2.1719 0
M  V30 2886 H 282.407 3.97059 3.18154 0
M  V30 2887 H 281.805 1.68946 5.39883 0
M  V30 2888 H 280.362 2.31001 6.09493 0
M  V30 2889 N 283.795 -0.628877 1.44509 0
M  V30 2890 C 284.742 -1.74074 1.51549 0
M  V30 2891 C 285.712 -1.62084 0.363021 0
M  V30 2892 O 286.897 -1.81975 0.573567 0
M  V30 2893 C 284.037 -3.12328 1.46784 0
M  V30 2894 C 283.15 -3.35277 2.72422 0
M  V30 2895 C 282.285 -4.63515 2.59475 0
M  V30 2896 C 281.324 -4.7965 3.80266 0
M  V30 2897 N 280.461 -5.99168 3.65981 0
M  V30 2898 H 285.301 -1.67392 2.46544 0
M  V30 2899 H 282.838 -0.816527 1.22357 0
M  V30 2900 H 284.796 -3.92286 1.42012 0
M  V30 2901 H 283.426 -3.18018 0.553544 0
M  V30 2902 H 282.478 -2.49242 2.87372 0
M  V30 2903 H 283.79 -3.43078 3.62076 0
M  V30 2904 H 282.944 -5.51638 2.52548 0
M  V30 2905 H 281.683 -4.58076 1.67384 0
M  V30 2906 H 280.688 -3.89957 3.87574 0
M  V30 2907 H 281.913 -4.86902 4.73395 0
M  V30 2908 H 279.859 -5.94814 2.76644 0
M  V30 2909 H 279.776 -6.08035 4.49254 0
M  V30 2910 H 281.044 -6.89846 3.6295 0
M  V30 2911 N 285.273 -1.31445 -0.869486 0
M  V30 2912 C 286.236 -1.19094 -1.9583 0
M  V30 2913 C 287.236 -0.117906 -1.60367 0
M  V30 2914 O 288.426 -0.367208 -1.70286 0
M  V30 2915 C 285.558 -0.828165 -3.30688 0
M  V30 2916 H 286.751 -2.15842 -2.08212 0
M  V30 2917 H 284.304 -1.15063 -1.05784 0
M  V30 2918 H 285.039 0.138142 -3.24006 0
M  V30 2919 H 284.824 -1.6038 -3.578 0
M  V30 2920 H 286.314 -0.765658 -4.10521 0
M  V30 2921 N 286.751 1.08385 -1.14413 0
M  V30 2922 C 288.028 1.77429 -0.823297 0
M  V30 2923 C 288.408 1.9974 0.683163 0
M  V30 2924 O 287.756 1.60739 1.62405 0
M  V30 2925 C 287.966 3.09004 -1.62227 0
M  V30 2926 C 289.314 3.83532 -1.82177 0
M  V30 2927 O 290.338 3.18786 -1.58915 0
M  V30 2928 O 289.197 4.99792 -2.21067 0
M  V30 2929 H 286.291 0.769999 -0.301712 0
M  V30 2930 H 288.837 1.14846 -1.24934 0
M  V30 2931 H 287.609 2.88316 -2.64555 0
M  V30 2932 H 287.232 3.79316 -1.19187 0
M  V30 2933 N 288.23 0.939286 1.26551 0
M  V30 2934 C 289.476 0.586715 1.94128 0
M  V30 2935 C 289.809 -0.8717 1.73537 0
M  V30 2936 O 289.084 -1.62339 1.07127 0
M  V30 2937 C 289.367 0.927497 3.4795 0
M  V30 2938 C 289.22 2.44052 3.77834 0
M  V30 2939 C 290.539 0.441569 4.37879 0
M  V30 2940 H 287.658 0.21463 0.705055 0
M  V30 2941 H 290.3 1.17316 1.49455 0
M  V30 2942 H 288.45 0.428431 3.8613 0
M  V30 2943 H 290.122 3.01216 3.4938 0
M  V30 2944 H 288.365 2.8848 3.23978 0
M  V30 2945 H 289.036 2.62947 4.85348 0
M  V30 2946 H 291.512 0.869448 4.06915 0
M  V30 2947 H 290.388 0.708856 5.44304 0
M  V30 2948 H 290.649 -0.658467 4.37169 0
M  V30 2949 N 289.708 -1.40897 0.706093 0
M  V30 2950 C 290.638 -2.33418 0.0620085 0
M  V30 2951 C 291.619 -1.52385 -0.755827 0
M  V30 2952 O 292.804 -1.80886 -0.706674 0
M  V30 2953 C 289.934 -3.36293 -0.867445 0
M  V30 2954 C 288.888 -4.27716 -0.155932 0
M  V30 2955 C 288.214 -5.2105 -1.20046 0
M  V30 2956 C 289.514 -5.12944 0.984149 0
M  V30 2957 H 291.208 -2.87527 0.83477 0
M  V30 2958 H 288.754 -1.38249 0.402875 0
M  V30 2959 H 290.707 -3.99949 -1.32735 0
M  V30 2960 H 289.431 -2.80556 -1.67199 0
M  V30 2961 H 288.09 -3.65498 0.284047 0
M  V30 2962 H 287.738 -4.61624 -1.99781 0
M  V30 2963 H 287.438 -5.83056 -0.729328 0
M  V30 2964 H 288.962 -5.87584 -1.66066 0
M  V30 2965 H 290.376 -5.70109 0.604048 0
M  V30 2966 H 288.773 -5.83945 1.38304 0
M  V30 2967 H 289.843 -4.49485 1.81911 0
M  V30 2968 N 291.186 -0.45159 -1.50991 0
M  V30 2969 C 292.096 0.358431 -2.31846 0
M  V30 2970 C 293.112 1.01438 -1.41373 0
M  V30 2971 O 294.288 1.00663 -1.74439 0
M  V30 2972 C 291.353 1.43704 -3.15515 0
M  V30 2973 C 290.414 0.799742 -4.21785 0
M  V30 2974 C 289.647 1.82696 -5.01456 0
M  V30 2975 O 289.87 3.05105 -4.81941 0
M  V30 2976 O 288.804 1.40958 -5.85162 0
M  V30 2977 H 292.63 -0.302032 -3.02194 0
M  V30 2978 H 290.215 -0.213825 -1.47862 0
M  V30 2979 H 292.097 2.06227 -3.67489 0
M  V30 2980 H 290.772 2.08133 -2.47916 0
M  V30 2981 H 289.679 0.136084 -3.73852 0
M  V30 2982 H 291.012 0.198718 -4.91799 0
M  V30 2983 N 292.664 1.56529 -0.183458 0
M  V30 2984 C 293.912 1.96855 0.457452 0
M  V30 2985 C 294.233 1.07104 1.62953 0
M  V30 2986 O 293.503 0.139887 1.954 0
M  V30 2987 H 292.083 0.72693 0.171992 0
M  V30 2988 H 294.745 1.93056 -0.267476 0
M  V30 2989 H 293.841 3.01423 0.809368 0
M  V30 2990 N 294.142 -0.090211 1.57342 0
M  V30 2991 C 295.37 -0.806224 1.90546 0
M  V30 2992 C 295.785 -1.72041 0.777644 0
M  V30 2993 O 295.142 -1.80778 -0.250103 0
M  V30 2994 C 295.193 -1.61546 3.23396 0
M  V30 2995 O 294.914 -0.738043 4.31839 0
M  V30 2996 C 296.415 -2.4341 3.70495 0
M  V30 2997 H 293.635 -0.230256 0.630257 0
M  V30 2998 H 296.179 -0.0659843 2.04394 0
M  V30 2999 H 294.334 -2.30816 3.11131 0
M  V30 3000 H 294.748 -1.29901 5.08159 0
M  V30 3001 H 296.222 -2.95676 4.66133 0
M  V30 3002 H 296.699 -3.22098 2.98579 0
M  V30 3003 H 297.305 -1.79331 3.85643 0
M  V30 3004 N 295.62 -1.53406 -0.361157 0
M  V30 3005 C 296.583 -1.79479 -1.42548 0
M  V30 3006 C 297.583 -0.665327 -1.4639 0
M  V30 3007 O 298.773 -0.933549 -1.47073 0
M  V30 3008 C 295.905 -1.92087 -2.8163 0
M  V30 3009 H 297.098 -2.74538 -1.20701 0
M  V30 3010 H 294.651 -1.4455 -0.594546 0
M  V30 3011 H 295.386 -0.991099 -3.08784 0
M  V30 3012 H 295.171 -2.74241 -2.80239 0
M  V30 3013 H 296.661 -2.13836 -3.58697 0
M  V30 3014 N 297.098 0.621204 -1.44841 0
M  V30 3015 C 298.008 1.7612 -1.5498 0
M  V30 3016 C 299.024 1.68477 -0.434927 0
M  V30 3017 O 300.2 1.89076 -0.693693 0
M  V30 3018 C 297.265 3.1254 -1.50065 0
M  V30 3019 C 296.326 3.31741 -2.72482 0
M  V30 3020 C 295.559 4.61653 -2.67792 0
M  V30 3021 O 295.782 5.431 -1.74352 0
M  V30 3022 O 294.716 4.83271 -3.58794 0
M  V30 3023 H 298.542 1.70518 -2.51311 0
M  V30 3024 H 296.127 0.783643 -1.27198 0
M  V30 3025 H 298.009 3.93844 -1.49882 0
M  V30 3026 H 296.684 3.18663 -0.568806 0
M  V30 3027 H 295.591 2.50077 -2.7823 0
M  V30 3028 H 296.924 3.30486 -3.64746 0
M  V30 3029 N 298.576 1.31904 0.862503 0
M  V30 3030 C 299.992 1.10724 1.14945 0
M  V30 3031 C 300.192 -0.117421 2.01158 0
M  V30 3032 O 299.248 -0.804595 2.39338 0
M  V30 3033 C 300.561 2.38267 1.83437 0
M  V30 3034 C 302.109 2.43949 1.96106 0
M  V30 3035 C 302.584 3.71394 2.68013 0
M  V30 3036 N 304.075 3.72331 2.75543 0
M  V30 3037 C 304.81 4.67641 3.31812 0
M  V30 3038 N 304.306 5.73313 3.88953 0
M  V30 3039 N 306.099 4.5515 3.29841 0
M  V30 3040 H 298.25 2.10436 0.288191 0
M  V30 3041 H 300.513 0.928705 0.190292 0
M  V30 3042 H 300.219 3.27759 1.27542 0
M  V30 3043 H 300.093 2.48633 2.83657 0
M  V30 3044 H 302.48 1.54922 2.51164 0
M  V30 3045 H 302.561 2.37543 0.949059 0
M  V30 3046 H 302.205 4.60791 2.13621 0
M  V30 3047 H 302.135 3.75069 3.69636 0
M  V30 3048 H 304.626 2.95947 2.34997 0
M  V30 3049 H 304.939 6.42107 4.30022 0
M  V30 3050 H 303.284 5.77077 3.87308 0
M  V30 3051 H 306.475 3.71766 2.84443 0
M  V30 3052 H 306.648 5.29604 3.73394 0
M  V30 3053 N 300.054 -1.07777 1.14986 0
M  V30 3054 C 300.984 -2.16865 0.865557 0
M  V30 3055 C 301.965 -1.69123 -0.182083 0
M  V30 3056 O 303.15 -1.94164 -0.0373815 0
M  V30 3057 C 300.28 -3.45539 0.349313 0
M  V30 3058 C 299.234 -4.06708 1.33313 0
M  V30 3059 C 298.56 -5.30411 0.675918 0
M  V30 3060 C 299.86 -4.47241 2.69764 0
M  V30 3061 H 301.554 -2.40905 1.77778 0
M  V30 3062 H 299.1 -1.15781 0.856203 0
M  V30 3063 H 301.053 -4.21174 0.137983 0
M  V30 3064 H 299.777 -3.21072 -0.598362 0
M  V30 3065 H 298.436 -3.33112 1.53075 0
M  V30 3066 H 298.084 -5.02232 -0.277767 0
M  V30 3067 H 297.784 -5.72293 1.33244 0
M  V30 3068 H 299.308 -6.08755 0.474262 0
M  V30 3069 H 300.722 -5.14025 2.53873 0
M  V30 3070 H 299.119 -5.00062 3.3175 0
M  V30 3071 H 300.189 -3.58818 3.26156 0
M  V30 3072 N 301.532 -0.945985 -1.26051 0
M  V30 3073 C 302.943 -0.638096 -1.75457 0
M  V30 3074 C 303.294 0.846672 -1.76991 0
M  V30 3075 O 302.419 1.66262 -1.38513 0
M  V30 3076 C 303.014 -1.15157 -3.18629 0
M  V30 3077 C 301.573 -0.894004 -3.65629 0
M  V30 3078 C 300.72 -1.29967 -2.44957 0
M  V30 3079 H 303.671 -1.12376 -1.1206 0
M  V30 3080 H 303.692 -0.507615 -3.77099 0
M  V30 3081 H 303.204 -2.23222 -3.1748 0
M  V30 3082 H 301.305 0.172057 -3.72203 0
M  V30 3083 H 301.418 -1.52439 -4.54202 0
M  V30 3084 H 299.782 -0.718078 -2.44368 0
M  V30 3085 H 300.565 -2.38935 -2.46505 0
M  V30 3086 N 303.011 1.40521 -0.713556 0
M  V30 3087 C 304.422 1.83853 -0.324807 0
M  V30 3088 C 304.773 1.59667 1.14021 0
M  V30 3089 O 303.898 1.07649 1.87725 0
M  V30 3090 C 304.493 3.33751 -0.582746 0
M  V30 3091 C 303.052 3.75584 -0.247727 0
M  V30 3092 C 302.199 2.63753 -0.856121 0
M  V30 3093 H 305.15 1.29817 -0.91286 0
M  V30 3094 H 305.171 3.80194 0.152682 0
M  V30 3095 H 304.683 3.51322 -1.64908 0
M  V30 3096 H 302.784 3.63608 0.813624 0
M  V30 3097 H 302.897 4.7373 -0.715307 0
M  V30 3098 H 301.261 2.53108 -0.28432 0
M  V30 3099 H 302.044 2.84137 -1.92668 0
M  V30 3100 N 304.489 0.459591 1.5075 0
M  V30 3101 C 305.738 -0.100971 2.01447 0
M  V30 3102 C 306.051 -1.41816 1.34713 0
M  V30 3103 O 307.257 -2.06299 1.76502 0
M  V30 3104 C 305.713 -0.23047 3.59161 0
M  V30 3105 C 305.321 1.0776 4.34847 0
M  V30 3106 C 307.065 -0.743608 4.17936 0
M  V30 3107 C 304.972 0.91253 5.84317 0
M  V30 3108 H 303.902 -0.0415102 0.752856 0
M  V30 3109 H 306.553 0.592742 1.73663 0
M  V30 3110 H 304.935 -0.987703 3.83485 0
M  V30 3111 H 306.109 1.8449 4.22256 0
M  V30 3112 H 304.424 1.52097 3.87628 0
M  V30 3113 H 307.021 -0.883959 5.27343 0
M  V30 3114 H 307.364 -1.73196 3.78562 0
M  V30 3115 H 307.897 -0.04408 3.97776 0
M  V30 3116 H 304.636 1.87391 6.28144 0
M  V30 3117 H 304.156 0.185422 5.99513 0
M  V30 3118 H 305.835 0.574547 6.44444 0
M  V30 3119 N 305.967 -1.56429 0.191757 0
M  V30 3120 C 307.383 -1.58754 -0.164137 0
M  V30 3121 C 307.583 -1.20782 -1.61288 0
M  V30 3122 O 306.639 -0.928999 -2.34789 0
M  V30 3123 C 307.952 -3.00396 0.135195 0
M  V30 3124 C 309.5 -3.1291 0.0750351 0
M  V30 3125 C 309.975 -4.56679 0.347632 0
M  V30 3126 N 311.466 -4.62252 0.296131 0
M  V30 3127 C 312.201 -5.71379 0.480948 0
M  V30 3128 N 311.697 -6.88986 0.725933 0
M  V30 3129 N 313.49 -5.60563 0.415435 0
M  V30 3130 H 305.641 -1.79393 1.13718 0
M  V30 3131 H 307.904 -0.832414 0.453643 0
M  V30 3132 H 307.61 -3.32726 1.13958 0
M  V30 3133 H 307.484 -3.72963 -0.563773 0
M  V30 3134 H 309.871 -2.80394 -0.919948 0
M  V30 3135 H 309.952 -2.42736 0.807029 0
M  V30 3136 H 309.596 -4.89907 1.33992 0
M  V30 3137 H 309.526 -5.25039 -0.405212 0
M  V30 3138 H 312.017 -3.7773 0.113259 0
M  V30 3139 H 312.33 -7.68046 0.855857 0
M  V30 3140 H 310.675 -6.90801 0.762788 0
M  V30 3141 H 313.866 -4.67561 0.224486 0
M  V30 3142 H 314.039 -6.45551 0.562889 0
M  V30 3143 N 307.445 0.0818655 -1.57387 0
M  V30 3144 C 308.408 1.08265 -2.02018 0
M  V30 3145 C 309.408 1.32183 -0.915664 0
M  V30 3146 O 310.598 1.28073 -1.18081 0
M  V30 3147 C 307.73 2.42871 -2.39221 0
M  V30 3148 H 308.923 0.698204 -2.91659 0
M  V30 3149 H 306.476 0.327303 -1.52835 0
M  V30 3150 H 307.211 2.86167 -1.52575 0
M  V30 3151 H 306.996 2.26855 -3.19811 0
M  V30 3152 H 308.486 3.14826 -2.74362 0
M  V30 3153 N 308.923 1.53595 0.353017 0
M  V30 3154 C 310.148 1.7462 1.11904 0
M  V30 3155 C 310.573 0.479721 1.8188 0
M  V30 3156 O 309.931 -0.567066 1.72204 0
M  V30 3157 C 309.979 2.92029 2.11545 0
M  V30 3158 O 309.083 2.61516 3.18878 0
M  V30 3159 H 308.424 0.579531 0.324099 0
M  V30 3160 H 310.954 2.00525 0.406301 0
M  V30 3161 H 310.964 3.18551 2.5493 0
M  V30 3162 H 309.639 3.83888 1.60008 0
M  V30 3163 H 308.216 2.45852 2.80377 0
M  V30 3164 N 310.401 -0.613514 1.45168 0
M  V30 3165 C 311.649 -1.36997 1.48581 0
M  V30 3166 C 311.97 -1.94589 0.126545 0
M  V30 3167 O 311.24 -1.76816 -0.843372 0
M  V30 3168 H 309.82 -0.508558 0.547154 0
M  V30 3169 H 312.482 -0.720853 1.81079 0
M  V30 3170 H 311.578 -2.1924 2.22127 0
M  V30 3171 N 311.879 -1.3236 -0.855495 0
M  V30 3172 C 312.809 -1.23833 -1.97958 0
M  V30 3173 C 313.79 -0.122361 -1.69659 0
M  V30 3174 O 314.975 -0.30939 -1.9172 0
M  V30 3175 C 312.105 -0.959772 -3.33775 0
M  V30 3176 C 311.059 -2.03689 -3.76424 0
M  V30 3177 C 310.385 -1.61075 -5.09862 0
M  V30 3178 C 311.685 -3.4518 -3.9198 0
M  V30 3179 H 313.379 -2.1788 -2.0535 0
M  V30 3180 H 310.925 -1.04891 -0.986605 0
M  V30 3181 H 312.878 -0.886678 -4.11966 0
M  V30 3182 H 311.602 0.0163404 -3.26596 0
M  V30 3183 H 310.261 -2.10012 -3.00484 0
M  V30 3184 H 309.909 -0.622107 -4.99138 0
M  V30 3185 H 309.609 -2.33143 -5.39368 0
M  V30 3186 H 311.133 -1.55201 -5.90546 0
M  V30 3187 H 312.547 -3.4145 -4.60526 0
M  V30 3188 H 310.944 -4.1559 -4.32903 0
M  V30 3189 H 312.014 -3.84903 -2.94919 0
M  V30 3190 N 313.357 1.07166 -1.15556 0
M  V30 3191 C 314.605 1.79443 -0.929764 0
M  V30 3192 C 314.926 1.87246 0.544414 0
M  V30 3193 O 314.196 1.37473 1.39564 0
M  V30 3194 H 312.776 0.664625 -0.341003 0
M  V30 3195 H 315.438 1.29499 -1.45657 0
M  V30 3196 H 314.534 2.81832 -1.34079 0
M  V30 3197 N 314.835 0.952656 1.25548 0
M  V30 3198 C 315.798 0.475794 2.24207 0
M  V30 3199 C 316.798 -0.419428 1.55234 0
M  V30 3200 O 317.988 -0.216994 1.72843 0
M  V30 3201 C 315.12 -0.312814 3.39462 0
M  V30 3202 H 316.313 1.34779 2.67908 0
M  V30 3203 H 313.866 0.735739 1.37901 0
M  V30 3204 H 314.601 -1.20257 3.01179 0
M  V30 3205 H 314.386 0.329404 3.90714 0
M  V30 3206 H 315.876 -0.635986 4.12729 0
M  V30 3207 N 316.313 -1.40141 0.720998 0
M  V30 3208 C 317.59 -1.94677 0.189757 0
M  V30 3209 C 317.97 -1.65879 -1.30566 0
M  V30 3210 O 317.318 -0.979391 -2.06447 0
M  V30 3211 C 317.528 -3.45279 0.508304 0
M  V30 3212 C 318.876 -4.22209 0.449934 0
M  V30 3213 O 319.9 -3.53413 0.444677 0
M  V30 3214 O 318.759 -5.44788 0.432189 0
M  V30 3215 H 315.853 -0.826459 0.0299026 0
M  V30 3216 H 318.399 -1.49719 0.7989 0
M  V30 3217 H 317.171 -3.59619 1.54239 0
M  V30 3218 H 316.794 -3.97386 -0.130525 0
M  V30 3219 N 317.792 -0.46758 -1.50504 0
M  V30 3220 C 319.203 -0.0116166 -1.86696 0
M  V30 3221 C 319.554 1.39202 -1.38265 0
M  V30 3222 O 318.679 2.0313 -0.746132 0
M  V30 3223 C 319.274 -0.0143044 -3.38797 0
M  V30 3224 C 317.833 0.386175 -3.74414 0
M  V30 3225 C 316.98 -0.401287 -2.74381 0
M  V30 3226 H 319.931 -0.682022 -1.43297 0
M  V30 3227 H 319.952 0.788641 -3.72237 0
M  V30 3228 H 319.464 -1.03602 -3.74016 0
M  V30 3229 H 317.565 1.41237 -3.44794 0
M  V30 3230 H 317.678 0.0899596 -4.79016 0
M  V30 3231 H 316.042 0.144536 -2.5429 0
M  V30 3232 H 316.825 -1.42244 -3.12444 0
M  V30 3233 N 319.27 1.56325 -0.20005 0
M  V30 3234 C 320.233 2.18084 0.705132 0
M  V30 3235 C 321.233 1.13666 1.1374 0
M  V30 3236 O 322.423 1.39023 1.04968 0
M  V30 3237 C 319.555 2.78689 1.96329 0
M  V30 3238 H 320.748 2.99435 0.167023 0
M  V30 3239 H 318.301 1.56221 0.0495725 0
M  V30 3240 H 319.036 2.0115 2.5438 0
M  V30 3241 H 318.821 3.55133 1.66202 0
M  V30 3242 H 320.311 3.26096 2.60866 0
M  V30 3243 N 320.748 -0.0735177 1.57428 0
M  V30 3244 C 321.68 -1.11423 2.00294 0
M  V30 3245 C 322.693 -1.35084 0.908637 0
M  V30 3246 O 323.882 -1.33355 1.18654 0
M  V30 3247 C 320.982 -2.46548 2.32523 0
M  V30 3248 C 320.155 -2.42867 3.63778 0
M  V30 3249 C 319.214 -3.60087 3.83697 0
M  V30 3250 O 318.24 -3.41595 4.55304 0
M  V30 3251 N 319.442 -4.80372 3.25919 0
M  V30 3252 H 322.207 -0.749206 2.90184 0
M  V30 3253 H 319.768 -0.262195 1.59763 0
M  V30 3254 H 321.76 -3.23607 2.43024 0
M  V30 3255 H 320.33 -2.75059 1.48531 0
M  V30 3256 H 319.55 -1.51206 3.64047 0
M  V30 3257 H 320.838 -2.37506 4.49965 0
M  V30 3258 H 320.236 -4.983 2.67795 0
M  V30 3259 H 318.793 -5.54948 3.41871 0
M  V30 3260 N 322.226 -1.5378 -0.344866 0
M  V30 3261 C 323.189 -1.80981 -1.40637 0
M  V30 3262 C 324.189 -0.680816 -1.45676 0
M  V30 3263 O 325.379 -0.949095 -1.46075 0
M  V30 3264 C 322.511 -1.95063 -2.79577 0
M  V30 3265 H 323.704 -2.75803 -1.17783 0
M  V30 3266 H 321.257 -1.45173 -0.579181 0
M  V30 3267 H 321.992 -1.02379 -3.07716 0
M  V30 3268 H 321.777 -2.77198 -2.77315 0
M  V30 3269 H 323.267 -2.17629 -3.56409 0
M  V30 3270 N 323.704 0.605807 -1.45491 0
M  V30 3271 C 324.95 1.36679 -1.49823 0
M  V30 3272 C 325.283 1.93693 -0.140175 0
M  V30 3273 O 324.558 1.75158 0.845581 0
M  V30 3274 C 324.841 2.51337 -2.57879 0
M  V30 3275 C 324.694 1.99508 -4.03134 0
M  V30 3276 C 326.013 3.53463 -2.62205 0
M  V30 3277 H 323.132 0.495617 -0.545466 0
M  V30 3278 H 325.774 0.682732 -1.7731 0
M  V30 3279 H 323.924 3.09691 -2.34571 0
M  V30 3280 H 325.596 1.45789 -4.37656 0
M  V30 3281 H 323.839 1.30496 -4.13707 0
M  V30 3282 H 324.51 2.82169 -4.74431 0
M  V30 3283 H 326.986 3.04953 -2.83095 0
M  V30 3284 H 325.862 4.31178 -3.39672 0
M  V30 3285 H 326.123 4.09197 -1.67363 0
M  V30 3286 N 325.182 1.32811 0.848464 0
M  V30 3287 C 326.428 1.23907 1.60546 0
M  V30 3288 C 326.761 -0.197161 1.93197 0
M  V30 3289 O 326.036 -1.13596 1.5788 0
M  V30 3290 C 326.319 2.10489 2.92175 0
M  V30 3291 C 326.172 3.62522 2.66266 0
M  V30 3292 C 327.491 1.97075 3.93509 0
M  V30 3293 H 324.61 0.451459 0.58254 0
M  V30 3294 H 327.252 1.62818 0.979296 0
M  V30 3295 H 325.402 1.77434 3.45614 0
M  V30 3296 H 327.074 4.05821 2.19334 0
M  V30 3297 H 325.317 3.84879 2.00126 0
M  V30 3298 H 325.988 4.18437 3.6002 0
M  V30 3299 H 328.464 2.26045 3.49346 0
M  V30 3300 H 327.34 2.59923 4.83457 0
M  V30 3301 H 327.601 0.940186 4.31987 0
M  V30 3302 N 326.66 -1.06551 1.16123 0
M  V30 3303 C 327.885 -1.83544 0.965735 0
M  V30 3304 C 328.31 -1.81843 -0.481102 0
M  V30 3305 O 327.668 -1.21732 -1.34354 0
M  V30 3306 C 327.716 -3.28169 1.49457 0
M  V30 3307 O 326.82 -4.0643 0.699157 0
M  V30 3308 H 326.161 -0.568026 0.343864 0
M  V30 3309 H 328.691 -1.34362 1.54299 0
M  V30 3310 H 328.701 -3.78992 1.51092 0
M  V30 3311 H 327.376 -3.28722 2.54784 0
M  V30 3312 H 325.953 -3.65216 0.7531 0
M  V30 3313 N 328.138 -0.959301 -1.25041 0
M  V30 3314 C 329.549 -0.65667 -1.74771 0
M  V30 3315 C 329.9 0.827852 -1.77879 0
M  V30 3316 O 329.025 1.64783 -1.40269 0
M  V30 3317 C 329.62 -1.1853 -3.1739 0
M  V30 3318 C 328.179 -0.932734 -3.6466 0
M  V30 3319 C 327.326 -1.32558 -2.43564 0
M  V30 3320 H 330.277 -1.13558 -1.10862 0
M  V30 3321 H 330.298 -0.547582 -3.76539 0
M  V30 3322 H 329.81 -2.26576 -3.15095 0
M  V30 3323 H 327.911 0.13257 -3.72364 0
M  V30 3324 H 328.024 -1.57248 -4.52559 0
M  V30 3325 H 326.388 -0.743956 -2.43593 0
M  V30 3326 H 327.171 -2.41537 -2.43957 0
M  V30 3327 N 329.616 1.39756 -0.72842 0
M  V30 3328 C 330.864 2.00248 -0.272946 0
M  V30 3329 C 331.185 1.58077 1.14178 0
M  V30 3330 O 330.455 0.826014 1.77634 0
M  V30 3331 H 329.035 0.740554 -0.0979247 0
M  V30 3332 H 331.697 1.70903 -0.936912 0
M  V30 3333 H 330.793 3.10495 -0.316142 0
M  V30 3334 N 331.094 0.475555 1.50254 0
M  V30 3335 C 332.026 -0.352649 2.26471 0
M  V30 3336 C 333.039 -0.953165 1.3198 0
M  V30 3337 O 334.228 -0.840815 1.57457 0
M  V30 3338 C 331.328 -1.50902 3.0345 0
M  V30 3339 C 330.501 -1.02047 4.25329 0
M  V30 3340 C 329.56 -2.05142 4.84565 0
M  V30 3341 O 328.586 -1.63023 5.45355 0
M  V30 3342 N 329.788 -3.37987 4.71959 0
M  V30 3343 H 332.553 0.300767 2.98187 0
M  V30 3344 H 330.114 0.306598 1.5897 0
M  V30 3345 H 332.106 -2.19572 3.39956 0
M  V30 3346 H 330.676 -2.06705 2.34504 0
M  V30 3347 H 329.896 -0.159507 3.93877 0
M  V30 3348 H 331.184 -0.672061 5.04342 0
M  V30 3349 H 330.582 -3.74913 4.23623 0
M  V30 3350 H 329.139 -4.02443 5.12721 0
M  V30 3351 N 332.573 -1.56217 0.208337 0
M  V30 3352 C 333.821 -1.97558 -0.426076 0
M  V30 3353 C 334.142 -1.09683 -1.61229 0
M  V30 3354 O 333.412 -0.170956 -1.95153 0
M  V30 3355 H 331.992 -0.729575 -0.160405 0
M  V30 3356 H 334.654 -1.92606 0.298155 0
M  V30 3357 H 333.75 -3.02672 -0.761312 0
M  V30 3358 N 334.051 0.0651679 -1.57465 0
M  V30 3359 C 335.328 0.79644 -1.78651 0
M  V30 3360 C 335.708 1.95454 -0.797566 0
M  V30 3361 O 335.056 2.27882 0.167946 0
M  V30 3362 C 335.266 1.26322 -3.25337 0
M  V30 3363 C 336.614 1.6939 -3.89348 0
M  V30 3364 O 337.638 1.35872 -3.29268 0
M  V30 3365 O 336.497 2.31471 -4.95059 0
M  V30 3366 H 333.591 0.382157 -0.733407 0
M  V30 3367 H 336.137 0.0447311 -1.69641 0
M  V30 3368 H 334.909 0.434859 -3.88876 0
M  V30 3369 H 334.532 2.07604 -3.39096 0
M  V30 3370 N 335.529 1.53961 0.336706 0
M  V30 3371 C 336.777 1.71197 1.07405 0
M  V30 3372 C 337.098 0.481475 1.88962 0
M  V30 3373 O 336.368 -0.504585 1.8929 0
M  V30 3374 H 334.948 0.631185 0.399517 0
M  V30 3375 H 337.61 1.91232 0.376323 0
M  V30 3376 H 336.706 2.58587 1.74755 0
M  V30 3377 N 337.007 -0.598083 1.45811 0
M  V30 3378 C 338.253 -1.35882 1.50545 0
M  V30 3379 C 338.586 -1.93616 0.150445 0
M  V30 3380 O 337.861 -1.75604 -0.83628 0
M  V30 3381 C 338.144 -2.49966 2.59208 0
M  V30 3382 C 337.997 -1.97367 4.04186 0
M  V30 3383 C 339.316 -3.52068 2.64076 0
M  V30 3384 H 336.435 -0.492717 0.548087 0
M  V30 3385 H 339.077 -0.673319 1.77669 0
M  V30 3386 H 337.227 -3.08443 2.3621 0
M  V30 3387 H 338.899 -1.43466 4.38423 0
M  V30 3388 H 337.142 -1.283 4.14393 0
M  V30 3389 H 337.813 -2.79649 4.75921 0
M  V30 3390 H 340.289 -3.03448 2.84708 0
M  V30 3391 H 339.165 -4.2937 3.41954 0
M  V30 3392 H 339.426 -4.08304 1.69531 0
M  V30 3393 N 338.485 -1.33259 -0.841409 0
M  V30 3394 C 339.896 -1.22066 -1.41269 0
M  V30 3395 C 340.247 0.161479 -1.95534 0
M  V30 3396 O 339.372 1.06094 -1.88608 0
M  V30 3397 C 339.967 -2.20996 -2.568 0
M  V30 3398 C 338.526 -2.13649 -3.09888 0
M  V30 3399 C 337.673 -2.08623 -1.82679 0
M  V30 3400 H 340.624 -1.44895 -0.647395 0
M  V30 3401 H 340.645 -1.81621 -3.34356 0
M  V30 3402 H 340.157 -3.2158 -2.17274 0
M  V30 3403 H 338.258 -1.16359 -3.53965 0
M  V30 3404 H 338.371 -3.04079 -3.70234 0
M  V30 3405 H 336.735 -1.54061 -2.02824 0
M  V30 3406 H 337.518 -3.1101 -1.45353 0
M  V30 3407 N 339.963 1.05934 -1.16686 0
M  V30 3408 C 341.211 1.78447 -0.948744 0
M  V30 3409 C 341.532 1.87813 0.524523 0
M  V30 3410 O 340.802 1.38945 1.38098 0
M  V30 3411 H 339.382 0.660971 -0.348033 0
M  V30 3412 H 342.044 1.27947 -1.47022 0
M  V30 3413 H 341.14 2.80394 -1.37061 0
M  V30 3414 N 341.441 0.965919 1.2453 0
M  V30 3415 C 342.852 0.665929 1.7442 0
M  V30 3416 C 343.203 -0.818407 1.78316 0
M  V30 3417 O 342.328 -1.64037 1.41141 0
M  V30 3418 C 342.923 1.20211 3.16757 0
M  V30 3419 C 341.482 0.952059 3.6416 0
M  V30 3420 C 340.629 1.33848 2.42858 0
M  V30 3421 H 343.58 1.14144 1.10258 0
M  V30 3422 H 343.601 0.567544 3.76244 0
M  V30 3423 H 343.113 2.28244 3.13889 0
M  V30 3424 H 341.214 -0.112821 3.72429 0
M  V30 3425 H 341.327 1.59645 4.51719 0
M  V30 3426 H 339.691 0.756864 2.43195 0
M  V30 3427 H 340.474 2.42827 2.42673 0
M  V30 3428 N 342.919 -1.39368 0.735821 0
M  V30 3429 C 343.882 -2.2896 0.104874 0
M  V30 3430 C 344.882 -1.46347 -0.666274 0
M  V30 3431 O 346.072 -1.67014 -0.49517 0
M  V30 3432 C 343.204 -3.29857 -0.860656 0
M  V30 3433 H 344.397 -2.86259 0.894205 0
M  V30 3434 H 341.95 -1.48029 0.501704 0
M  V30 3435 H 342.685 -2.77615 -1.67631 0
M  V30 3436 H 342.47 -3.9087 -0.310327 0
M  V30 3437 H 343.96 -3.96893 -1.29867 0
M  V30 3438 N 344.397 -0.483516 -1.5 0
M  V30 3439 C 345.329 0.340634 -2.26655 0
M  V30 3440 C 346.342 0.946152 -1.32483 0
M  V30 3441 O 347.531 0.832453 -1.579 0
M  V30 3442 C 344.631 1.4929 -3.04246 0
M  V30 3443 C 343.804 0.997903 -4.25865 0
M  V30 3444 C 342.863 2.02569 -4.85646 0
M  V30 3445 O 341.889 1.60128 -5.46212 0
M  V30 3446 N 343.091 3.3548 -4.73744 0
M  V30 3447 H 345.856 -0.316577 -2.98023 0
M  V30 3448 H 343.417 -0.315024 -1.58806 0
M  V30 3449 H 345.409 2.17766 -3.41116 0
M  V30 3450 H 343.979 2.05458 -2.35597 0
M  V30 3451 H 343.199 0.138617 -3.93956 0
M  V30 3452 H 344.487 0.645305 -5.04691 0
M  V30 3453 H 343.885 3.72661 -4.25605 0
M  V30 3454 H 342.442 3.99718 -5.14848 0
M  V30 3455 N 345.875 1.56104 -0.216619 0
M  V30 3456 C 346.838 2.18819 0.681962 0
M  V30 3457 C 347.838 1.14866 1.12528 0
M  V30 3458 O 349.028 1.40128 1.03488 0
M  V30 3459 C 346.16 2.80756 1.93362 0
M  V30 3460 H 347.353 2.99595 0.135254 0
M  V30 3461 H 344.906 1.56265 0.0330003 0
M  V30 3462 H 345.641 2.03837 2.52232 0
M  V30 3463 H 345.426 3.56876 1.62426 0
M  V30 3464 H 346.916 3.28844 2.57393 0
M  V30 3465 N 347.353 -0.0568162 1.57498 0
M  V30 3466 C 348.6 -0.753104 1.87975 0
M  V30 3467 C 348.928 -1.76815 0.81035 0
M  V30 3468 O 348.183 -1.94756 -0.19199 0
M  V30 3469 C 348.482 -1.48359 3.25153 0
M  V30 3470 C 348.148 -0.60713 4.46794 0
M  V30 3471 C 346.81 -0.365642 4.79809 0
M  V30 3472 C 349.162 -0.000305978 5.212 0
M  V30 3473 C 346.49 0.491905 5.84634 0
M  V30 3474 C 348.842 0.844781 6.26934 0
M  V30 3475 C 347.506 1.096 6.58441 0
M  V30 3476 H 346.776 -0.27558 0.687849 0
M  V30 3477 H 349.423 -0.0135173 1.91495 0
M  V30 3478 H 347.728 -2.29577 3.17492 0
M  V30 3479 H 349.425 -2.02739 3.45974 0
M  V30 3480 H 346.015 -0.805487 4.20963 0
M  V30 3481 H 350.199 -0.173961 4.95995 0
M  V30 3482 H 345.455 0.695131 6.07436 0
M  V30 3483 H 349.629 1.32165 6.83744 0
M  V30 3484 H 347.256 1.76224 7.39492 0
M  V30 3485 N 348.832 -1.54138 -0.328536 0
M  V30 3486 C 350.243 -1.63395 -0.903272 0
M  V30 3487 C 350.594 -0.524828 -1.8905 0
M  V30 3488 O 349.719 0.343068 -2.13663 0
M  V30 3489 C 350.314 -2.9618 -1.64507 0
M  V30 3490 C 348.873 -3.0765 -2.1686 0
M  V30 3491 C 348.02 -2.58933 -0.992416 0
M  V30 3492 H 350.971 -1.58344 -0.106253 0
M  V30 3493 H 350.992 -2.86061 -2.50897 0
M  V30 3494 H 350.504 -3.76884 -0.926302 0
M  V30 3495 H 348.605 -2.31611 -2.91868 0
M  V30 3496 H 348.718 -4.1337 -2.42202 0
M  V30 3497 H 347.082 -2.14706 -1.37016 0
M  V30 3498 H 347.865 -3.42089 -0.288041 0
M  V30 3499 N 350.31 0.590341 -1.46126 0
M  V30 3500 C 351.558 1.34616 -1.50742 0
M  V30 3501 C 351.879 1.94363 -0.157486 0
M  V30 3502 O 351.149 1.78136 0.815136 0
M  V30 3503 H 349.729 0.499789 -0.555175 0
M  V30 3504 H 352.391 0.691953 -1.82203 0
M  V30 3505 H 351.487 2.15678 -2.25587 0
M  V30 3506 N 351.788 1.33704 0.83433 0
M  V30 3507 C 352.738 1.20899 1.93306 0
M  V30 3508 C 353.722 0.110783 1.60518 0
M  V30 3509 O 354.914 0.339331 1.73717 0
M  V30 3510 C 352.043 0.955018 3.29749 0
M  V30 3511 C 351.129 2.09587 3.68692 0
M  V30 3512 N 351.52 3.34621 3.79292 0
M  V30 3513 C 349.818 2.00358 3.98463 0
M  V30 3514 C 350.519 4.09472 4.13167 0
M  V30 3515 N 349.495 3.37954 4.25779 0
M  V30 3516 H 353.297 2.15665 1.99664 0
M  V30 3517 H 350.811 1.25777 1.02732 0
M  V30 3518 H 352.808 0.844208 4.08263 0
M  V30 3519 H 351.468 0.0159317 3.24696 0
M  V30 3520 H 352.479 3.69313 3.63082 0
M  V30 3521 H 349.156 1.14137 4.01596 0
M  V30 3522 H 350.546 5.17391 4.28668 0
M  V30 3523 N 353.266 -1.05314 1.17247 0
M  V30 3524 C 354.196 -2.1498 0.911362 0
M  V30 3525 C 355.177 -1.69471 -0.146169 0
M  V30 3526 O 356.362 -1.942 0.003812 0
M  V30 3527 C 353.492 -3.4472 0.422528 0
M  V30 3528 C 352.446 -4.03789 1.4191 0
M  V30 3529 C 351.772 -5.28858 0.788274 0
M  V30 3530 C 353.072 -4.41418 2.7919 0
M  V30 3531 H 354.766 -2.3708 1.82848 0
M  V30 3532 H 352.312 -1.13938 0.880569 0
M  V30 3533 H 354.265 -4.20787 0.227289 0
M  V30 3534 H 352.989 -3.22269 -0.530123 0
M  V30 3535 H 351.648 -3.2979 1.60106 0
M  V30 3536 H 351.296 -5.02709 -0.171173 0
M  V30 3537 H 350.996 -5.69338 1.45353 0
M  V30 3538 H 352.52 -6.07612 0.603282 0
M  V30 3539 H 353.934 -5.08524 2.64719 0
M  V30 3540 H 352.331 -4.92913 3.42282 0
M  V30 3541 H 353.401 -3.51819 3.33693 0
M  V30 3542 N 354.744 -0.972509 -1.24016 0
M  V30 3543 C 356.155 -0.67517 -1.74064 0
M  V30 3544 C 356.506 0.808939 -1.78747 0
M  V30 3545 O 355.631 1.63286 -1.42009 0
M  V30 3546 C 356.226 -1.21889 -3.16115 0
M  V30 3547 C 354.785 -0.971358 -3.6365 0
M  V30 3548 C 353.932 -1.35134 -2.42145 0
M  V30 3549 H 356.883 -1.14727 -1.09651 0
M  V30 3550 H 356.904 -0.587489 -3.75937 0
M  V30 3551 H 356.416 -2.29906 -3.12674 0
M  V30 3552 H 354.517 0.0930686 -3.72484 0
M  V30 3553 H 354.63 -1.62039 -4.50866 0
M  V30 3554 H 352.994 -0.769751 -2.4279 0
M  V30 3555 H 353.777 -2.4411 -2.41381 0
M  V30 3556 N 356.222 1.38976 -0.743202 0
M  V30 3557 C 357.152 2.33171 -0.123873 0
M  V30 3558 C 358.133 1.54336 0.71516 0
M  V30 3559 O 359.318 1.82696 0.658467 0
M  V30 3560 C 356.448 3.38474 0.777978 0
M  V30 3561 C 355.402 4.27979 0.0424758 0
M  V30 3562 C 354.728 5.2405 1.06189 0
M  V30 3563 C 356.028 5.10155 -1.1198 0
M  V30 3564 H 357.722 2.85213 -0.910709 0
M  V30 3565 H 355.268 1.37133 -0.439388 0
M  V30 3566 H 357.221 4.03328 1.22084 0
M  V30 3567 H 355.945 2.84891 1.59702 0
M  V30 3568 H 354.604 3.64616 -0.380853 0
M  V30 3569 H 354.252 4.66758 1.87472 0
M  V30 3570 H 353.952 5.84785 0.574485 0
M  V30 3571 H 355.476 5.9178 1.50428 0
M  V30 3572 H 356.89 5.68307 -0.75499 0
M  V30 3573 H 355.287 5.80073 -1.53738 0
M  V30 3574 H 356.357 4.44504 -1.93764 0
M  V30 3575 N 357.7 0.491464 1.49741 0
M  V30 3576 C 359.111 0.0413169 1.86654 0
M  V30 3577 C 359.462 -1.36985 1.40462 0
M  V30 3578 O 358.587 -2.01917 0.778354 0
M  V30 3579 C 359.182 0.0682023 3.38731 0
M  V30 3580 C 357.741 -0.32656 3.74981 0
M  V30 3581 C 356.888 0.444888 2.73708 0
M  V30 3582 H 359.839 0.704733 1.42194 0
M  V30 3583 H 359.86 -0.729322 3.73445 0
M  V30 3584 H 359.372 1.09539 3.72321 0
M  V30 3585 H 357.473 -1.35734 3.46997 0
M  V30 3586 H 357.586 -0.013741 4.79098 0
M  V30 3587 H 355.95 -0.104062 2.54487 0
M  V30 3588 H 356.733 1.47197 3.10142 0
M  V30 3589 N 359.178 -1.55987 0.224894 0
M  V30 3590 C 360.406 -2.02784 -0.410665 0
M  V30 3591 C 360.821 -1.10464 -1.53112 0
M  V30 3592 O 360.178 -0.114871 -1.82138 0
M  V30 3593 C 360.229 -3.49087 -0.939165 0
M  V30 3594 O 359.95 -4.37887 0.136614 0
M  V30 3595 C 361.451 -4.11543 -1.64763 0
M  V30 3596 H 358.671 -0.663484 -0.100148 0
M  V30 3597 H 361.215 -2.01614 0.342326 0
M  V30 3598 H 359.37 -3.50861 -1.64242 0
M  V30 3599 H 359.784 -5.23849 -0.261155 0
M  V30 3600 H 361.258 -5.15673 -1.96939 0
M  V30 3601 H 361.735 -3.56736 -2.56195 0
M  V30 3602 H 362.341 -4.13629 -0.989503 0
M  V30 3603 N 360.656 0.0484629 -1.57525 0
M  V30 3604 C 361.603 1.05504 -2.05275 0
M  V30 3605 C 362.573 1.37084 -0.937927 0
M  V30 3606 O 363.758 1.47754 -1.2072 0
M  V30 3607 C 360.898 2.35676 -2.52093 0
M  V30 3608 C 360.011 2.10423 -3.77288 0
M  V30 3609 C 359.146 3.34327 -4.12794 0
M  V30 3610 C 358.185 3.04542 -5.30962 0
M  V30 3611 N 357.322 4.20841 -5.61994 0
M  V30 3612 H 362.162 0.640885 -2.91027 0
M  V30 3613 H 359.699 0.304854 -1.43906 0
M  V30 3614 H 361.657 3.11709 -2.77297 0
M  V30 3615 H 360.287 2.7485 -1.69285 0
M  V30 3616 H 359.339 1.24976 -3.59284 0
M  V30 3617 H 360.651 1.84438 -4.63448 0
M  V30 3618 H 359.805 4.1874 -4.39024 0
M  V30 3619 H 358.544 3.63408 -3.25247 0
M  V30 3620 H 357.549 2.18528 -5.04505 0
M  V30 3621 H 358.774 2.76758 -6.20146 0
M  V30 3622 H 356.72 4.4991 -4.77406 0
M  V30 3623 H 356.637 3.98212 -6.42622 0
M  V30 3624 H 357.905 5.06184 -5.92789 0
M  V30 3625 N 362.134 1.5431 0.320358 0
M  V30 3626 C 363.38 1.72924 1.05949 0
M  V30 3627 C 363.713 0.503185 1.87568 0
M  V30 3628 O 362.988 -0.499839 1.87968 0
M  V30 3629 C 363.271 3.00676 1.98156 0
M  V30 3630 C 363.124 4.3354 1.19845 0
M  V30 3631 C 364.443 3.24198 2.9763 0
M  V30 3632 H 361.562 0.629195 0.383774 0
M  V30 3633 H 364.204 1.87008 0.335854 0
M  V30 3634 H 362.354 2.888 2.59859 0
M  V30 3635 H 364.026 4.57305 0.605773 0
M  V30 3636 H 362.269 4.309 0.500784 0
M  V30 3637 H 362.94 5.19156 1.87567 0
M  V30 3638 H 365.416 3.35557 2.4605 0
M  V30 3639 H 364.292 4.14938 3.59329 0
M  V30 3640 H 364.553 2.41577 3.7026 0
M  V30 3641 N 363.613 -0.582584 1.46437 0
M  V30 3642 C 364.523 -1.71949 1.59595 0
M  V30 3643 C 365.539 -1.67264 0.479443 0
M  V30 3644 O 366.715 -1.87171 0.743579 0
M  V30 3645 C 363.78 -3.08452 1.58298 0
M  V30 3646 C 362.841 -3.244 2.81182 0
M  V30 3647 C 362.074 -4.54391 2.79937 0
M  V30 3648 O 362.297 -5.38287 1.8869 0
M  V30 3649 O 361.231 -4.73588 3.71481 0
M  V30 3650 H 365.057 -1.63795 2.55744 0
M  V30 3651 H 362.642 -0.749643 1.29231 0
M  V30 3652 H 364.524 -3.89732 1.60271 0
M  V30 3653 H 363.199 -3.17043 0.653094 0
M  V30 3654 H 362.106 -2.42613 2.84763 0
M  V30 3655 H 363.439 -3.20699 3.7338 0
M  V30 3656 N 365.091 -1.34144 -0.827227 0
M  V30 3657 C 366.054 -1.25264 -1.91942 0
M  V30 3658 C 367.054 -0.168866 -1.59911 0
M  V30 3659 O 368.244 -0.421198 -1.69031 0
M  V30 3660 C 365.376 -0.932952 -3.27885 0
M  V30 3661 H 366.569 -2.22357 -2.0124 0
M  V30 3662 H 364.122 -1.1837 -1.0207 0
M  V30 3663 H 364.857 0.0349917 -3.24281 0
M  V30 3664 H 364.642 -1.71682 -3.52516 0
M  V30 3665 H 366.132 -0.895874 -4.07877 0
M  V30 3666 N 366.569 1.04691 -1.17803 0
M  V30 3667 C 367.516 2.12557 -0.899343 0
M  V30 3668 C 368.486 1.65339 0.158771 0
M  V30 3669 O 369.671 1.90789 0.0204797 0
M  V30 3670 C 366.811 3.42481 -0.424315 0
M  V30 3671 C 365.924 4.03346 -1.54713 0
M  V30 3672 C 365.059 5.21208 -1.02546 0
M  V30 3673 C 364.098 5.74089 -2.12339 0
M  V30 3674 N 363.235 6.83247 -1.61612 0
M  V30 3675 H 368.075 2.35734 -1.823 0
M  V30 3676 H 365.612 1.1564 -0.909159 0
M  V30 3677 H 367.57 4.16996 -0.130421 0
M  V30 3678 H 366.2 3.19471 0.462377 0
M  V30 3679 H 365.252 3.2622 -1.95664 0
M  V30 3680 H 366.564 4.38628 -2.37501 0
M  V30 3681 H 365.718 6.02812 -0.685718 0
M  V30 3682 H 364.457 4.87414 -0.167084 0
M  V30 3683 H 363.462 4.91111 -2.47165 0
M  V30 3684 H 364.687 6.0993 -2.98601 0
M  V30 3685 H 362.633 6.5134 -0.780533 0
M  V30 3686 H 362.55 7.17559 -2.38003 0
M  V30 3687 H 363.818 7.68491 -1.30545 0
M  V30 3688 N 368.047 0.979072 1.23499 0
M  V30 3689 C 369.01 0.523244 2.23147 0
M  V30 3690 C 370.01 -0.386406 1.56088 0
M  V30 3691 O 371.2 -0.180283 1.73265 0
M  V30 3692 C 368.332 -0.240739 3.40049 0
M  V30 3693 H 369.525 1.40432 2.64989 0
M  V30 3694 H 367.078 0.764824 1.36309 0
M  V30 3695 H 367.813 -1.13841 3.03662 0
M  V30 3696 H 367.598 0.412207 3.89927 0
M  V30 3697 H 369.088 -0.548297 4.13985 0
M  V30 3698 N 369.525 -1.3858 0.750561 0
M  V30 3699 C 370.936 -1.82927 0.373438 0
M  V30 3700 C 371.287 -1.62634 -1.09748 0
M  V30 3701 O 370.412 -1.12588 -1.84805 0
M  V30 3702 C 371.007 -3.32088 0.671029 0
M  V30 3703 C 369.566 -3.74795 0.34722 0
M  V30 3704 C 368.713 -2.61391 0.92575 0
M  V30 3705 H 371.664 -1.27351 0.946958 0
M  V30 3706 H 371.685 -3.80465 -0.0518269 0
M  V30 3707 H 371.197 -3.46826 1.74164 0
M  V30 3708 H 369.298 -3.65638 -0.716933 0
M  V30 3709 H 369.411 -4.71667 0.840656 0
M  V30 3710 H 367.775 -2.52265 0.351327 0
M  V30 3711 H 368.558 -2.78929 2.00133 0
M  V30 3712 N 371.003 -0.499398 -1.49478 0
M  V30 3713 C 371.913 0.284489 -2.32869 0
M  V30 3714 C 372.929 0.968885 -1.44529 0
M  V30 3715 O 374.105 0.95062 -1.77553 0
M  V30 3716 C 371.17 1.33594 -3.19928 0
M  V30 3717 C 370.231 0.665149 -4.24116 0
M  V30 3718 C 369.464 1.6665 -5.07014 0
M  V30 3719 O 369.687 2.89618 -4.91404 0
M  V30 3720 O 368.621 1.22271 -5.8935 0
M  V30 3721 H 372.447 -0.39802 -3.01081 0
M  V30 3722 H 370.032 -0.260758 -1.47107 0
M  V30 3723 H 371.914 1.94431 -3.73864 0
M  V30 3724 H 370.589 2.0014 -2.54412 0
M  V30 3725 H 369.496 0.0170769 -3.74096 0
M  V30 3726 H 370.829 0.0421555 -4.92182 0
M  V30 3727 N 372.481 1.55866 -0.233164 0
M  V30 3728 C 373.709 2.02998 0.399905 0
M  V30 3729 C 374.124 1.11274 1.52524 0
M  V30 3730 O 373.481 0.124528 1.82075 0
M  V30 3731 C 373.532 3.4958 0.920639 0
M  V30 3732 O 373.253 4.37808 -0.159834 0
M  V30 3733 C 374.754 4.12411 1.62578 0
M  V30 3734 H 371.974 0.664006 0.0966281 0
M  V30 3735 H 374.518 2.0143 -0.353013 0
M  V30 3736 H 372.673 3.51727 1.62379 0
M  V30 3737 H 373.087 5.23981 0.23337 0
M  V30 3738 H 374.561 5.16711 1.94201 0
M  V30 3739 H 375.038 3.5809 2.54299 0
M  V30 3740 H 375.644 4.14148 0.967553 0
M  V30 3741 N 373.959 -0.0401083 1.57549 0
M  V30 3742 C 375.37 -0.588097 1.77196 0
M  V30 3743 C 375.721 -1.76209 0.862832 0
M  V30 3744 O 374.846 -2.16331 0.0548389 0
M  V30 3745 C 375.441 -1.07363 3.21339 0
M  V30 3746 C 374 -1.56723 3.42221 0
M  V30 3747 C 373.147 -0.50041 2.72747 0
M  V30 3748 H 376.098 0.186119 1.57605 0
M  V30 3749 H 376.119 -1.94143 3.27244 0
M  V30 3750 H 375.631 -0.218975 3.87482 0
M  V30 3751 H 373.732 -2.4441 2.81237 0
M  V30 3752 H 373.845 -1.62234 4.50796 0
M  V30 3753 H 372.209 -0.952894 2.36203 0
M  V30 3754 H 372.992 0.344599 3.41566 0
M  V30 3755 N 375.437 -1.54477 -0.31217 0
M  V30 3756 C 376.662 -1.77526 -1.07235 0
M  V30 3757 C 377.087 -0.527775 -1.80544 0
M  V30 3758 O 376.445 0.52121 -1.73646 0
M  V30 3759 C 376.493 -2.97535 -2.03728 0
M  V30 3760 O 375.597 -2.69878 -3.11833 0
M  V30 3761 H 374.938 -0.58792 -0.30862 0
M  V30 3762 H 377.468 -2.01532 -0.352993 0
M  V30 3763 H 377.478 -3.25198 -2.46395 0
M  V30 3764 H 376.153 -3.87996 -1.49774 0
M  V30 3765 H 374.73 -2.53199 -2.7376 0
M  V30 3766 N 376.915 0.57481 -1.46744 0
M  V30 3767 C 377.825 1.711 -1.60505 0
M  V30 3768 C 378.841 1.67008 -0.488307 0
M  V30 3769 O 380.017 1.86774 -0.753495 0
M  V30 3770 C 377.082 3.07608 -1.59932 0
M  V30 3771 C 376.143 3.22904 -2.82898 0
M  V30 3772 C 375.376 4.529 -2.82343 0
M  V30 3773 O 375.599 5.37278 -1.91542 0
M  V30 3774 O 374.533 4.71611 -3.73987 0
M  V30 3775 H 378.359 1.62436 -2.56609 0
M  V30 3776 H 375.944 0.742779 -1.29627 0
M  V30 3777 H 377.826 3.88877 -1.62336 0
M  V30 3778 H 376.501 3.16692 -0.669898 0
M  V30 3779 H 375.408 2.41099 -2.86046 0
M  V30 3780 H 376.741 3.18715 -3.75076 0
M  V30 3781 N 378.394 1.34581 0.820102 0
M  V30 3782 C 379.342 1.26401 1.95258 0
M  V30 3783 C 380.336 0.161553 1.68628 0
M  V30 3784 O 381.542 0.326703 1.7701 0
M  V30 3785 H 377.917 0.392749 0.64129 0
M  V30 3786 H 379.888 2.22105 1.99279 0
M  V30 3787 C 378.637 1.03919 3.31807 0
M  V30 3788 H 377.96 1.87984 3.52848 0
M  V30 3789 H 379.4 1.02232 4.11491 0
M  V30 3790 C 377.859 -0.257433 3.35915 0
M  V30 3791 O 378.389 -1.25784 3.81499 0
M  V30 3792 N 376.595 -0.291524 2.89134 0
M  V30 3793 H 376.142 0.523161 2.52232 0
M  V30 3794 H 376.1 -1.15883 2.92264 0
M  V30 3795 N 379.872 -1.04064 1.18357 0
M  V30 3796 C 380.802 -2.14001 0.934113 0
M  V30 3797 C 381.783 -1.69616 -0.128186 0
M  V30 3798 O 382.968 -1.94185 0.0244093 0
M  V30 3799 C 380.098 -3.44253 0.459066 0
M  V30 3800 C 379.052 -4.02261 1.46185 0
M  V30 3801 C 378.378 -5.27992 0.844322 0
M  V30 3802 C 379.678 -4.38432 2.83856 0
M  V30 3803 H 381.372 -2.35127 1.85352 0
M  V30 3804 H 378.918 -1.12998 0.892604 0
M  V30 3805 H 380.871 -4.20522 0.271907 0
M  V30 3806 H 379.595 -3.22813 -0.495912 0
M  V30 3807 H 378.254 -3.28074 1.63595 0
M  V30 3808 H 377.902 -5.02862 -0.117845 0
M  V30 3809 H 377.602 -5.67765 1.51384 0
M  V30 3810 H 379.126 -6.06938 0.667693 0
M  V30 3811 H 380.54 -5.05688 2.70098 0
M  V30 3812 H 378.937 -4.89254 3.47491 0
M  V30 3813 H 380.007 -3.4826 3.37406 0
M  V30 3814 N 381.35 -0.985608 -1.22978 0
M  V30 3815 C 382.766 -0.695104 -1.43668 0
M  V30 3816 C 382.966 0.736866 -1.87543 0
M  V30 3817 O 382.022 1.50868 -2.02473 0
M  V30 3818 C 383.335 -1.69447 -2.48412 0
M  V30 3819 C 384.883 -1.70909 -2.62219 0
M  V30 3820 C 385.358 -2.6969 -3.70178 0
M  V30 3821 N 386.849 -2.6824 -3.77626 0
M  V30 3822 C 387.584 -3.41339 -4.60733 0
M  V30 3823 N 387.08 -4.24015 -5.4789 0
M  V30 3824 N 388.873 -3.30079 -4.54977 0
M  V30 3825 H 381.024 -1.91054 -0.928016 0
M  V30 3826 H 383.287 -0.823553 -0.469536 0
M  V30 3827 H 382.993 -2.7188 -2.23102 0
M  V30 3828 H 382.867 -1.48147 -3.46889 0
M  V30 3829 H 385.254 -0.691785 -2.86877 0
M  V30 3830 H 385.335 -1.96276 -1.6404 0
M  V30 3831 H 384.979 -3.71566 -3.46268 0
M  V30 3832 H 384.909 -2.41595 -4.67909 0
M  V30 3833 H 387.4 -2.08243 -3.15346 0
M  V30 3834 H 387.713 -4.76636 -6.08308 0
M  V30 3835 H 386.058 -4.28104 -5.47496 0
M  V30 3836 H 389.249 -2.64937 -3.85909 0
M  V30 3837 H 389.422 -3.87308 -5.19516 0
M  V30 3838 N 382.828 1.3818 -0.7579 0
M  V30 3839 C 384.056 2.04301 -0.326937 0
M  V30 3840 C 384.471 1.57163 1.0462 0
M  V30 3841 O 383.828 0.746626 1.66529 0
M  V30 3842 C 383.879 3.59846 -0.345363 0
M  V30 3843 O 383.6 4.05256 -1.66432 0
M  V30 3844 C 385.101 4.4319 0.098927 0
M  V30 3845 H 382.321 0.656443 -0.139012 0
M  V30 3846 H 384.865 1.76786 -1.02796 0
M  V30 3847 H 383.02 3.86182 0.306955 0
M  V30 3848 H 383.434 4.99709 -1.59345 0
M  V30 3849 H 384.908 5.51989 0.0348745 0
M  V30 3850 H 385.385 4.23947 1.14741 0
M  V30 3851 H 385.991 4.22051 -0.52468 0
M  V30 3852 N 384.306 0.507319 1.49211 0
M  V30 3853 C 385.554 -0.0348839 2.0207 0
M  V30 3854 C 385.875 -1.36898 1.38866 0
M  V30 3855 O 385.145 -1.88133 0.546151 0
M  V30 3856 H 383.725 -0.0158812 0.746831 0
M  V30 3857 H 386.387 0.665998 1.83168 0
M  V30 3858 H 385.483 -0.159917 3.1169 0
M  V30 3859 N 385.784 -1.5574 0.241426 0
M  V30 3860 C 386.714 -2.24133 -0.654722 0
M  V30 3861 C 387.695 -1.21974 -1.1856 0
M  V30 3862 O 388.88 -1.50612 -1.22595 0
M  V30 3863 C 386.01 -2.93659 -1.85423 0
M  V30 3864 C 384.964 -4.0246 -1.45636 0
M  V30 3865 C 384.29 -4.59383 -2.73626 0
M  V30 3866 C 385.59 -5.18468 -0.631506 0
M  V30 3867 H 387.284 -2.99281 -0.0844353 0
M  V30 3868 H 384.83 -1.43947 -0.0391707 0
M  V30 3869 H 386.783 -3.40203 -2.48676 0
M  V30 3870 H 385.507 -2.15991 -2.44981 0
M  V30 3871 H 384.166 -3.56676 -0.847202 0
M  V30 3872 H 383.814 -3.78422 -3.3137 0
M  V30 3873 H 383.514 -5.32826 -2.4773 0
M  V30 3874 H 385.038 -5.08658 -3.37786 0
M  V30 3875 H 386.452 -5.61272 -1.1682 0
M  V30 3876 H 384.849 -5.98266 -0.468831 0
M  V30 3877 H 385.919 -4.8358 0.357506 0
M  V30 3878 N 387.262 0.0317525 -1.57568 0
M  V30 3879 C 388.172 1.05021 -2.0978 0
M  V30 3880 C 389.188 1.39809 -1.03583 0
M  V30 3881 O 390.364 1.49182 -1.35302 0
M  V30 3882 C 387.429 2.33301 -2.56459 0
M  V30 3883 C 386.49 2.0512 -3.77127 0
M  V30 3884 C 385.723 3.27283 -4.2157 0
M  V30 3885 O 385.946 4.37861 -3.65559 0
M  V30 3886 O 384.88 3.13141 -5.14029 0
M  V30 3887 H 388.706 0.636505 -2.96955 0
M  V30 3888 H 386.291 0.248559 -1.47318 0
M  V30 3889 H 388.173 3.08722 -2.86825 0
M  V30 3890 H 386.848 2.73973 -1.72397 0
M  V30 3891 H 385.755 1.27276 -3.51784 0
M  V30 3892 H 387.088 1.69305 -4.62165 0
M  V30 3893 N 388.74 1.54641 0.303973 0
M  V30 3894 C 389.67 1.88386 1.3796 0
M  V30 3895 C 390.651 0.742485 1.5304 0
M  V30 3896 O 391.836 0.997959 1.66597 0
M  V30 3897 C 388.966 2.12854 2.74427 0
M  V30 3898 C 387.92 3.28702 2.74115 0
M  V30 3899 C 387.246 3.38582 4.13844 0
M  V30 3900 C 388.546 4.65881 2.3612 0
M  V30 3901 H 390.24 2.78474 1.09966 0
M  V30 3902 H 387.786 1.33988 0.527556 0
M  V30 3903 H 389.739 2.35047 3.49758 0
M  V30 3904 H 388.463 1.19535 3.03939 0
M  V30 3905 H 387.122 3.06428 2.0124 0
M  V30 3906 H 386.77 2.42784 4.40528 0
M  V30 3907 H 386.47 4.16453 4.14537 0
M  V30 3908 H 387.994 3.63031 4.90959 0
M  V30 3909 H 389.408 4.87823 3.01167 0
M  V30 3910 H 387.805 5.46444 2.48031 0
M  V30 3911 H 388.875 4.66799 1.3125 0
M  V30 3912 N 390.218 -0.567019 1.47046 0
M  V30 3913 C 391.181 -1.65696 1.58359 0
M  V30 3914 C 392.181 -1.54097 0.459441 0
M  V30 3915 O 393.371 -1.58432 0.724225 0
M  V30 3916 C 390.503 -3.05197 1.51879 0
M  V30 3917 H 391.696 -1.57019 2.5551 0
M  V30 3918 H 389.249 -0.786148 1.3509 0
M  V30 3919 H 389.984 -3.19417 0.560673 0
M  V30 3920 H 389.769 -3.15025 2.33455 0
M  V30 3921 H 391.259 -3.84511 1.62913 0
M  V30 3922 N 391.696 -1.35014 -0.812953 0
M  V30 3923 C 393.107 -1.25035 -1.38648 0
M  V30 3924 C 393.458 0.119967 -1.95833 0
M  V30 3925 O 392.583 1.02069 -1.90816 0
M  V30 3926 C 393.178 -2.26394 -2.52054 0
M  V30 3927 C 391.737 -2.20175 -3.05287 0
M  V30 3928 C 390.884 -2.12451 -1.78213 0
M  V30 3929 H 393.835 -1.46235 -0.616516 0
M  V30 3930 H 393.856 -1.88672 -3.30429 0
M  V30 3931 H 393.368 -3.26116 -2.10404 0
M  V30 3932 H 391.469 -1.23841 -3.51417 0
M  V30 3933 H 391.582 -3.11863 -3.63701 0
M  V30 3934 H 389.946 -1.58328 -1.9951 0
M  V30 3935 H 390.729 -3.14024 -1.38723 0
M  V30 3936 N 393.175 1.03435 -1.18907 0
M  V30 3937 C 394.138 2.09756 -0.923844 0
M  V30 3938 C 395.138 1.60528 0.093416 0
M  V30 3939 O 396.328 1.73631 -0.140727 0
M  V30 3940 C 393.46 3.38692 -0.387354 0
M  V30 3941 H 394.653 2.34719 -1.86674 0
M  V30 3942 H 392.206 1.19959 -1.00197 0
M  V30 3943 H 392.941 3.19396 0.561845 0
M  V30 3944 H 392.726 3.75742 -1.12074 0
M  V30 3945 H 394.216 4.17016 -0.220694 0
M  V30 3946 N 394.653 0.992116 1.22453 0
M  V30 3947 C 396.064 0.702776 1.72968 0
M  V30 3948 C 396.415 -0.780399 1.80012 0
M  V30 3949 O 395.54 -1.61007 1.44589 0
M  V30 3950 C 396.135 1.26903 3.14135 0
M  V30 3951 C 394.694 1.02909 3.62059 0
M  V30 3952 C 393.841 1.38969 2.39964 0
M  V30 3953 H 396.792 1.16457 1.07812 0
M  V30 3954 H 396.813 0.647223 3.74955 0
M  V30 3955 H 396.325 2.34851 3.08977 0
M  V30 3956 H 394.426 -0.0337979 3.72585 0
M  V30 3957 H 394.539 1.69191 4.48231 0
M  V30 3958 H 392.903 0.808279 2.41535 0
M  V30 3959 H 393.686 2.4792 2.37467 0
M  V30 3960 N 396.131 -1.37776 0.765217 0
M  V30 3961 C 397.379 -1.99454 0.325943 0
M  V30 3962 C 397.7 -1.61049 -1.09947 0
M  V30 3963 O 396.97 -0.872821 -1.75381 0
M  V30 3964 H 395.55 -0.737697 0.117525 0
M  V30 3965 H 398.212 -1.68359 0.981895 0
M  V30 3966 H 397.308 -3.09547 0.398353 0
M  V30 3967 N 397.609 -0.515225 -1.4894 0
M  V30 3968 C 399.025 -0.172099 -1.58669 0
M  V30 3969 C 399.225 1.32405 -1.51892 0
M  V30 3970 O 398.281 2.10116 -1.40027 0
M  V30 3971 C 399.594 -0.761533 -2.90897 0
M  V30 3972 C 401.142 -0.728926 -3.04394 0
M  V30 3973 C 401.617 -1.29667 -4.39261 0
M  V30 3974 N 403.108 -1.25799 -4.4579 0
M  V30 3975 C 403.843 -1.66733 -5.48623 0
M  V30 3976 N 403.339 -2.15327 -6.58488 0
M  V30 3977 N 405.132 -1.58061 -5.39419 0
M  V30 3978 H 397.283 -1.48778 -1.51588 0
M  V30 3979 H 399.546 -0.617968 -0.718901 0
M  V30 3980 H 399.252 -1.81136 -3.01468 0
M  V30 3981 H 399.126 -0.230106 -3.76497 0
M  V30 3982 H 401.513 0.312098 -2.93445 0
M  V30 3983 H 401.594 -1.29766 -2.20442 0
M  V30 3984 H 401.238 -2.33655 -4.50963 0
M  V30 3985 H 401.168 -0.703752 -5.21876 0
M  V30 3986 H 403.659 -0.902102 -3.66975 0
M  V30 3987 H 403.972 -2.44594 -7.33071 0
M  V30 3988 H 402.317 -2.19311 -6.59491 0
M  V30 3989 H 405.508 -1.19906 -4.52482 0
M  V30 3990 H 405.681 -1.90284 -6.19432 0
M  V30 3991 N 399.087 1.5561 -0.249682 0
M  V30 3992 C 400.333 1.99306 0.374841 0
M  V30 3993 C 400.666 1.13767 1.57387 0
M  V30 3994 O 399.941 0.201711 1.93451 0
M  V30 3995 C 400.224 3.51507 0.781986 0
M  V30 3996 C 400.077 4.4781 -0.422629 0
M  V30 3997 C 401.396 4.08884 1.62793 0
M  V30 3998 H 398.515 0.724572 0.134773 0
M  V30 3999 H 401.157 1.86719 -0.351549 0
M  V30 4000 H 399.307 3.62363 1.4009 0
M  V30 4001 H 400.979 4.48931 -1.06108 0
M  V30 4002 H 399.222 4.20518 -1.06524 0
M  V30 4003 H 399.893 5.51919 -0.0943766 0
M  V30 4004 H 402.369 4.01147 1.10547 0
M  V30 4005 H 401.245 5.1564 1.88166 0
M  V30 4006 H 401.506 3.57515 2.60068 0
M  V30 4007 N 400.565 -0.0233959 1.57583 0
M  V30 4008 C 401.513 -1.04063 2.08023 0
M  V30 4009 C 402.507 -1.37084 0.995204 0
M  V30 4010 O 403.713 -1.35923 1.18004 0
M  V30 4011 H 400.088 -0.353144 0.663922 0
M  V30 4012 H 402.059 -0.589453 2.9252 0
M  V30 4013 C 400.808 -2.33123 2.57971 0
M  V30 4014 H 400.131 -2.08577 3.4108 0
M  V30 4015 H 401.571 -3.02632 2.96967 0
M  V30 4016 C 400.03 -3.02483 1.48342 0
M  V30 4017 O 400.56 -3.92541 0.852898 0
M  V30 4018 N 398.766 -2.63909 1.21658 0
M  V30 4019 H 398.313 -1.90758 1.73116 0
M  V30 4020 H 398.271 -3.10633 0.485218 0
M  V30 4021 N 402.043 -1.548 -0.295768 0
M  V30 4022 C 403.289 -1.74588 -1.03184 0
M  V30 4023 C 403.622 -0.532962 -1.86744 0
M  V30 4024 O 402.897 0.469872 -1.88739 0
M  V30 4025 C 403.18 -3.03791 -1.93347 0
M  V30 4026 C 403.033 -4.35392 -1.12933 0
M  V30 4027 C 404.352 -3.28892 -2.92435 0
M  V30 4028 H 401.471 -0.635221 -0.373715 0
M  V30 4029 H 404.113 -1.87519 -0.30606 0
M  V30 4030 H 402.263 -2.92898 -2.55232 0
M  V30 4031 H 403.935 -4.58211 -0.532943 0
M  V30 4032 H 402.178 -4.31642 -0.432168 0
M  V30 4033 H 402.849 -5.22074 -1.79284 0
M  V30 4034 H 405.325 -3.39429 -2.4068 0
M  V30 4035 H 404.201 -4.20603 -3.52682 0
M  V30 4036 H 404.462 -2.47437 -3.6637 0
M  V30 4037 N 403.521 0.559213 -1.47345 0
M  V30 4038 C 404.767 1.31843 -1.54095 0
M  V30 4039 C 405.1 1.93149 -0.201726 0
M  V30 4040 O 404.375 1.77759 0.789428 0
M  V30 4041 C 404.658 2.43006 -2.65744 0
M  V30 4042 C 404.511 1.86581 -4.09277 0
M  V30 4043 C 405.83 3.44943 -2.73318 0
M  V30 4044 H 402.949 0.478012 -0.560957 0
M  V30 4045 H 405.591 0.625977 -1.79392 0
M  V30 4046 H 403.741 3.02072 -2.44305 0
M  V30 4047 H 405.413 1.31792 -4.42073 0
M  V30 4048 H 403.656 1.17268 -4.17649 0
M  V30 4049 H 404.327 2.66933 -4.83168 0
M  V30 4050 H 406.803 2.95793 -2.92653 0
M  V30 4051 H 405.679 4.20153 -3.53218 0
M  V30 4052 H 405.94 4.03665 -1.80296 0
M  V30 4053 N 404.999 1.35443 0.805782 0
M  V30 4054 C 406.224 1.32037 1.59941 0
M  V30 4055 C 406.649 -0.0994215 1.87837 0
M  V30 4056 O 406.007 -1.06648 1.46615 0
M  V30 4057 C 406.055 2.13354 2.90711 0
M  V30 4058 O 405.159 1.5148 3.83572 0
M  V30 4059 H 404.5 0.452666 0.485787 0
M  V30 4060 H 407.03 1.78496 1.00002 0
M  V30 4061 H 407.04 2.25338 3.40128 0
M  V30 4062 H 405.715 3.16572 2.69732 0
M  V30 4063 H 404.292 1.4834 3.42125 0
M  V30 4064 N 406.477 -1.02803 1.19454 0
M  V30 4065 C 407.888 -1.57667 0.999899 0
M  V30 4066 C 408.239 -1.91041 -0.446956 0
M  V30 4067 O 407.364 -1.70978 -1.32648 0
M  V30 4068 C 407.959 -2.86477 1.80877 0
M  V30 4069 C 406.518 -3.37911 1.65811 0
M  V30 4070 C 405.665 -2.11343 1.79526 0
M  V30 4071 H 408.616 -0.853214 1.33813 0
M  V30 4072 H 408.637 -3.57408 1.30536 0
M  V30 4073 H 408.149 -2.62155 2.86175 0
M  V30 4074 H 406.25 -3.67218 0.63102 0
M  V30 4075 H 406.363 -4.10885 2.46395 0
M  V30 4076 H 404.727 -2.23254 1.22596 0
M  V30 4077 H 405.51 -1.89461 2.86285 0
M  V30 4078 N 407.956 -0.998596 -1.21925 0
M  V30 4079 C 409.181 -0.696015 -1.95372 0
M  V30 4080 C 409.606 0.733826 -1.73195 0
M  V30 4081 O 408.964 1.50242 -1.01474 0
M  V30 4082 C 409.012 -1.01466 -3.4603 0
M  V30 4083 O 408.116 -0.116415 -4.12236 0
M  V30 4084 H 407.457 -0.259938 -0.611006 0
M  V30 4085 H 409.987 -1.33711 -1.54863 0
M  V30 4086 H 409.997 -0.958855 -3.96573 0
M  V30 4087 H 408.672 -2.05653 -3.61497 0
M  V30 4088 H 407.249 -0.228193 -3.72201 0
M  V30 4089 N 409.434 1.37368 -0.772513 0
M  V30 4090 C 410.364 2.32856 -0.173304 0
M  V30 4091 C 411.345 1.55818 0.682262 0
M  V30 4092 O 412.53 1.84052 0.619566 0
M  V30 4093 C 409.66 3.40048 0.706007 0
M  V30 4094 C 408.614 4.27973 -0.0483144 0
M  V30 4095 C 407.94 5.26184 0.950491 0
M  V30 4096 C 409.24 5.07665 -1.22776 0
M  V30 4097 H 410.934 2.83217 -0.971002 0
M  V30 4098 H 408.48 1.3617 -0.468377 0
M  V30 4099 H 410.433 4.05827 1.13501 0
M  V30 4100 H 409.157 2.88214 1.53623 0
M  V30 4101 H 407.816 3.63726 -0.458107 0
M  V30 4102 H 407.464 4.7063 1.77529 0
M  V30 4103 H 407.164 5.85872 0.450314 0
M  V30 4104 H 408.688 5.94838 1.37842 0
M  V30 4105 H 410.102 5.66578 -0.875366 0
M  V30 4106 H 408.499 5.76681 -1.66007 0
M  V30 4107 H 409.569 4.40294 -2.03149 0
M  V30 4108 N 410.912 0.523116 1.48665 0
M  V30 4109 C 411.822 -0.247406 2.33292 0
M  V30 4110 C 412.838 -0.945769 1.46052 0
M  V30 4111 O 414.014 -0.922253 1.79043 0
M  V30 4112 C 411.079 -1.28487 3.22012 0
M  V30 4113 C 410.14 -0.597592 4.2512 0
M  V30 4114 C 409.373 -1.58563 5.09601 0
M  V30 4115 O 409.596 -2.81763 4.95949 0
M  V30 4116 O 408.53 -1.12879 5.91221 0
M  V30 4117 H 412.356 0.445869 3.00409 0
M  V30 4118 H 409.941 0.284128 1.46673 0
M  V30 4119 H 411.823 -1.88459 3.7691 0
M  V30 4120 H 410.498 -1.96068 2.57564 0
M  V30 4121 H 409.405 0.0424407 3.74076 0
M  V30 4122 H 410.738 0.0361517 4.92187 0
M  V30 4123 N 412.39 -1.55475 0.257931 0
M  V30 4124 C 413.636 -1.99502 -0.364266 0
M  V30 4125 C 413.969 -1.146 -1.56782 0
M  V30 4126 O 413.244 -0.211968 -1.93342 0
M  V30 4127 C 413.527 -3.51917 -0.763333 0
M  V30 4128 C 413.38 -4.4758 0.446371 0
M  V30 4129 C 414.699 -4.09742 -1.60623 0
M  V30 4130 H 411.818 -0.725277 -0.130929 0
M  V30 4131 H 414.46 -1.8653 0.361446 0
M  V30 4132 H 412.61 -3.63101 -1.38166 0
M  V30 4133 H 414.282 -4.48362 1.08487 0
M  V30 4134 H 412.525 -4.19947 1.08753 0
M  V30 4135 H 413.196 -5.51862 0.123645 0
M  V30 4136 H 415.672 -4.01727 -1.08418 0
M  V30 4137 H 414.548 -5.16631 -1.85429 0
M  V30 4138 H 414.809 -3.58889 -2.58169 0
M  V30 4139 N 413.868 0.0150385 -1.57593 0
M  V30 4140 C 414.831 0.995996 -2.06428 0
M  V30 4141 C 415.831 1.2818 -0.970903 0
M  V30 4142 O 417.021 1.22949 -1.23406 0
M  V30 4143 C 414.153 2.32506 -2.49307 0
M  V30 4144 H 415.346 0.573873 -2.94358 0
M  V30 4145 H 412.899 0.262186 -1.54085 0
M  V30 4146 H 413.634 2.79438 -1.64575 0
M  V30 4147 H 413.419 2.13087 -3.29145 0
M  V30 4148 H 414.909 3.02906 -2.87468 0
M  V30 4149 N 415.346 1.54954 0.287554 0
M  V30 4150 C 416.757 1.65732 0.859634 0
M  V30 4151 C 417.108 0.574767 1.87592 0
M  V30 4152 O 416.233 -0.286299 2.14498 0
M  V30 4153 C 416.828 3.00438 1.56597 0
M  V30 4154 C 415.387 3.13292 2.08627 0
M  V30 4155 C 414.534 2.61473 0.923416 0
M  V30 4156 H 417.485 1.5857 0.0642338 0
M  V30 4157 H 417.506 2.92613 2.43224 0
M  V30 4158 H 417.018 3.79207 0.826053 0
M  V30 4159 H 415.119 2.39268 2.85625 0
M  V30 4160 H 415.232 4.19647 2.31157 0
M  V30 4161 H 413.596 2.18264 1.31275 0
M  V30 4162 H 414.379 3.42733 0.197241 0
M  V30 4163 N 416.824 -0.551391 1.4764 0
M  V30 4164 C 418.072 -1.30572 1.54258 0
M  V30 4165 C 418.393 -1.93877 0.208963 0
M  V30 4166 O 417.663 -1.80234 -0.767619 0
M  V30 4167 H 416.243 -0.484894 0.568231 0
M  V30 4168 H 418.905 -0.643402 1.83974 0
M  V30 4169 H 418.001 -2.09621 2.31226 0
M  V30 4170 N 418.302 -1.35869 -0.798587 0
M  V30 4171 C 419.265 -1.29307 -1.89242 0
M  V30 4172 C 420.265 -0.202747 -1.59517 0
M  V30 4173 O 421.455 -0.456957 -1.681 0
M  V30 4174 C 418.587 -1.00229 -3.25833 0
M  V30 4175 H 419.78 -2.26576 -1.96478 0
M  V30 4176 H 417.333 -1.20509 -0.995358 0
M  V30 4177 H 418.068 -0.033801 -3.24282 0
M  V30 4178 H 417.853 -1.79121 -3.48795 0
M  V30 4179 H 419.343 -0.98219 -4.05885 0
M  V30 4180 N 419.78 1.02168 -1.19998 0
M  V30 4181 C 421.028 1.75338 -1.00504 0
M  V30 4182 C 421.349 1.89387 0.464506 0
M  V30 4183 O 420.619 1.43268 1.33608 0
M  V30 4184 H 419.199 0.649564 -0.368885 0
M  V30 4185 H 421.861 1.23205 -1.51018 0
M  V30 4186 H 420.957 2.75892 -1.45912 0
M  V30 4187 N 421.258 1.00505 1.21394 0
M  V30 4188 C 422.19 0.52372 2.23136 0
M  V30 4189 C 423.203 -0.387714 1.58116 0
M  V30 4190 O 424.392 -0.187905 1.77508 0
M  V30 4191 C 421.492 -0.258885 3.3791 0
M  V30 4192 C 420.665 0.651634 4.32519 0
M  V30 4193 C 419.724 -0.0813705 5.26137 0
M  V30 4194 O 418.75 0.537295 5.66658 0
M  V30 4195 N 419.952 -1.35992 5.64346 0
M  V30 4196 H 422.717 1.39865 2.65062 0
M  V30 4197 H 420.278 0.881196 1.35818 0
M  V30 4198 H 422.27 -0.758208 3.97534 0
M  V30 4199 H 420.84 -1.035 2.94968 0
M  V30 4200 H 420.06 1.33145 3.71034 0
M  V30 4201 H 421.348 1.27129 4.92662 0
M  V30 4202 H 420.746 -1.88368 5.33417 0
M  V30 4203 H 419.303 -1.8042 6.26332 0
M  V30 4204 N 422.737 -1.36956 0.779787 0
M  V30 4205 C 423.985 -1.99097 0.347079 0
M  V30 4206 C 424.306 -1.62206 -1.08232 0
M  V30 4207 O 423.576 -0.891373 -1.74446 0
M  V30 4208 H 422.156 -0.736409 0.125342 0
M  V30 4209 H 424.818 -1.67308 0.999696 0
M  V30 4210 H 423.914 -3.09107 0.431162 0
M  V30 4211 N 424.215 -0.530993 -1.48385 0
M  V30 4212 C 425.178 0.220497 -2.28137 0
M  V30 4213 C 426.178 0.866851 -1.35434 0
M  V30 4214 O 427.368 0.726746 -1.58316 0
M  V30 4215 C 424.5 1.31921 -3.1434 0
M  V30 4216 H 425.693 -0.479714 -2.96038 0
M  V30 4217 H 423.246 -0.286968 -1.53643 0
M  V30 4218 H 423.981 2.05264 -2.51072 0
M  V30 4219 H 423.766 0.86085 -3.82533 0
M  V30 4220 H 425.256 1.84776 -3.74497 0
M  V30 4221 N 425.693 1.55336 -0.266172 0
M  V30 4222 C 426.918 2.04258 0.359661 0
M  V30 4223 C 427.343 1.14359 1.49344 0
M  V30 4224 O 426.701 0.140369 1.80756 0
M  V30 4225 C 426.749 3.50997 0.826635 0
M  V30 4226 O 425.853 3.64204 1.93466 0
M  V30 4227 H 425.194 0.659668 0.075727 0
M  V30 4228 H 427.724 2.00694 -0.39786 0
M  V30 4229 H 427.734 3.9219 1.12477 0
M  V30 4230 H 426.409 4.159 -0.00293032 0
M  V30 4231 H 424.986 3.34913 1.63974 0
M  V30 4232 N 427.171 -0.0066808 1.57599 0
M  V30 4233 C 428.396 -0.707738 1.94951 0
M  V30 4234 C 428.821 -1.66882 0.867868 0
M  V30 4235 O 428.179 -1.80457 -0.17458 0
M  V30 4236 C 428.227 -1.42162 3.31394 0
M  V30 4237 O 427.331 -2.53578 3.25226 0
M  V30 4238 H 426.672 -0.188752 0.636607 0
M  V30 4239 H 429.202 0.0445193 2.04552 0
M  V30 4240 H 429.212 -1.78655 3.66806 0
M  V30 4241 H 427.887 -0.716903 4.09675 0
M  V30 4242 H 426.464 -2.19463 3.01481 0
M  V30 4243 N 428.649 -1.55105 -0.279332 0
M  V30 4244 C 429.874 -1.7976 -1.03446 0
M  V30 4245 C 430.299 -0.565952 -1.79384 0
M  V30 4246 O 429.657 0.484259 -1.74713 0
M  V30 4247 C 429.705 -3.0179 -1.97371 0
M  V30 4248 O 428.809 -2.76432 -3.06038 0
M  V30 4249 H 428.15 -0.594334 -0.29608 0
M  V30 4250 H 430.68 -2.02235 -0.310165 0
M  V30 4251 H 430.69 -3.30351 -2.39441 0
M  V30 4252 H 429.365 -3.91085 -1.4151 0
M  V30 4253 H 427.942 -2.58949 -2.68328 0
M  V30 4254 N 430.127 0.543554 -1.4793 0
M  V30 4255 C 431.543 0.870806 -1.3375 0
M  V30 4256 C 431.743 1.9864 -0.338261 0
M  V30 4257 O 430.799 2.51305 0.245371 0
M  V30 4258 C 432.112 1.25114 -2.73435 0
M  V30 4259 C 433.66 1.3618 -2.81823 0
M  V30 4260 C 434.135 1.77563 -4.22179 0
M  V30 4261 N 435.626 1.8469 -4.24787 0
M  V30 4262 C 436.361 2.18067 -5.30315 0
M  V30 4263 N 435.857 2.49963 -6.46135 0
M  V30 4264 N 437.65 2.18958 -5.17701 0
M  V30 4265 H 429.801 -0.19275 -2.11524 0
M  V30 4266 H 432.064 -0.0235777 -0.947707 0
M  V30 4267 H 431.77 0.50514 -3.48053 0
M  V30 4268 H 431.644 2.20431 -3.06088 0
M  V30 4269 H 434.031 2.09859 -2.07468 0
M  V30 4270 H 434.112 0.390169 -2.52807 0
M  V30 4271 H 433.756 1.04449 -4.97044 0
M  V30 4272 H 433.686 2.75753 -4.48629 0
M  V30 4273 H 436.177 1.62372 -3.41239 0
M  V30 4274 H 436.49 2.74497 -7.22406 0
M  V30 4275 H 434.835 2.47513 -6.49432 0
M  V30 4276 H 438.026 1.93488 -4.2624 0
M  V30 4277 H 438.199 2.44639 -6.00047 0
M  V30 4278 N 431.605 1.3629 0.791371 0
M  V30 4279 C 433.016 1.27225 1.36641 0
M  V30 4280 C 433.367 -0.0887968 1.95999 0
M  V30 4281 O 432.492 -0.990207 1.92416 0
M  V30 4282 C 433.087 2.30375 2.48421 0
M  V30 4283 C 431.646 2.25004 3.01746 0
M  V30 4284 C 430.793 2.15259 1.7481 0
M  V30 4285 H 433.744 1.47198 0.593173 0
M  V30 4286 H 433.765 1.93905 3.27385 0
M  V30 4287 H 433.277 3.29422 2.05189 0
M  V30 4288 H 431.378 1.29417 3.49403 0
M  V30 4289 H 431.491 3.1761 3.58693 0
M  V30 4290 H 429.855 1.61482 1.96966 0
M  V30 4291 H 430.638 3.16191 1.33709 0
M  V30 4292 N 433.083 -1.0153 1.20538 0
M  V30 4293 C 434.36 -1.72327 0.925343 0
M  V30 4294 C 434.74 -2.03383 -0.565547 0
M  V30 4295 O 434.088 -1.69934 -1.52757 0
M  V30 4296 C 434.298 -2.9902 1.79967 0
M  V30 4297 C 435.646 -3.72258 2.04228 0
M  V30 4298 O 436.67 -3.08979 1.77231 0
M  V30 4299 O 435.529 -4.86053 2.4983 0
M  V30 4300 H 432.623 -0.751099 0.346092 0
M  V30 4301 H 435.169 -1.07366 1.31417 0
M  V30 4302 H 433.941 -2.72402 2.80915 0
M  V30 4303 H 433.564 -3.71721 1.41099 0
M  V30 4304 N 434.561 -1.01147 -1.20859 0
M  V30 4305 C 435.972 -0.730205 -1.71828 0
M  V30 4306 C 436.323 0.751662 -1.8123 0
M  V30 4307 O 435.448 1.58686 -1.47132 0
M  V30 4308 C 436.043 -1.31885 -3.12077 0
M  V30 4309 C 434.602 -1.08656 -3.60376 0
M  V30 4310 C 433.749 -1.42769 -2.37723 0
M  V30 4311 H 436.7 -1.18158 -1.05945 0
M  V30 4312 H 436.721 -0.706793 -3.73878 0
M  V30 4313 H 436.233 -2.39737 -3.05201 0
M  V30 4314 H 434.334 -0.0254814 -3.72591 0
M  V30 4315 H 434.447 -1.76301 -4.45483 0
M  V30 4316 H 432.811 -0.846603 -2.40218 0
M  V30 4317 H 433.594 -2.51666 -2.33493 0
M  V30 4318 N 436.039 1.36541 -0.78704 0
M  V30 4319 C 436.949 2.3387 -0.184896 0
M  V30 4320 C 437.965 1.60927 0.661697 0
M  V30 4321 O 439.141 1.92927 0.57804 0
M  V30 4322 C 436.206 3.40122 0.672145 0
M  V30 4323 C 435.267 4.28867 -0.19267 0
M  V30 4324 C 434.5 5.30045 0.623561 0
M  V30 4325 O 434.723 5.39232 1.8597 0
M  V30 4326 O 433.657 6.01895 0.0247068 0
M  V30 4327 H 437.483 2.87126 -0.989562 0
M  V30 4328 H 435.068 1.38969 -0.548455 0
M  V30 4329 H 436.95 4.05093 1.16094 0
M  V30 4330 H 435.625 2.89169 1.45474 0
M  V30 4331 H 434.532 3.66945 -0.728166 0
M  V30 4332 H 435.865 4.83165 -0.938722 0
M  V30 4333 N 437.518 0.538854 1.48102 0
M  V30 4334 C 438.929 0.100679 1.86428 0
M  V30 4335 C 439.28 -1.32447 1.44749 0
M  V30 4336 O 438.405 -1.99339 0.842199 0
M  V30 4337 C 439 0.175933 3.38343 0
M  V30 4338 C 437.559 -0.207098 3.7583 0
M  V30 4339 C 436.706 0.531741 2.72154 0
M  V30 4340 H 439.657 0.749614 1.3988 0
M  V30 4341 H 439.678 -0.610144 3.75576 0
M  V30 4342 H 439.19 1.21328 3.68648 0
M  V30 4343 H 437.291 -1.24626 3.5114 0
M  V30 4344 H 437.404 0.138687 4.78899 0
M  V30 4345 H 435.768 -0.0230462 2.5469 0
M  V30 4346 H 436.551 1.56989 3.05302 0
M  V30 4347 N 438.996 -1.55193 0.274407 0
M  V30 4348 C 439.926 -2.25471 -0.607032 0
M  V30 4349 C 440.907 -1.24461 -1.15946 0
M  V30 4350 O 442.092 -1.53179 -1.19373 0
M  V30 4351 C 439.222 -2.97526 -1.79153 0
M  V30 4352 C 438.176 -4.05459 -1.37067 0
M  V30 4353 C 437.502 -4.65084 -2.6382 0
M  V30 4354 C 438.802 -5.19691 -0.521389 0
M  V30 4355 H 440.496 -2.99393 -0.0209343 0
M  V30 4356 H 438.042 -1.43997 -0.00862866 0
M  V30 4357 H 439.995 -3.45402 -2.41404 0
M  V30 4358 H 438.719 -2.21138 -2.40344 0
M  V30 4359 H 437.378 -3.58393 -0.771355 0
M  V30 4360 H 437.026 -3.85365 -3.23268 0
M  V30 4361 H 436.726 -5.37961 -2.36372 0
M  V30 4362 H 438.25 -5.15708 -3.26921 0
M  V30 4363 H 439.664 -5.63623 -1.04889 0
M  V30 4364 H 438.061 -5.99126 -0.341825 0
M  V30 4365 H 439.131 -4.82713 0.46 0
M  V30 4366 N 440.474 -0.00167713 -1.576 0
M  V30 4367 C 441.384 1.00548 -2.1196 0
M  V30 4368 C 442.4 1.3758 -1.06526 0
M  V30 4369 O 443.576 1.46278 -1.38436 0
M  V30 4370 C 440.641 2.27809 -2.6135 0
M  V30 4371 C 439.702 1.97074 -3.81393 0
M  V30 4372 C 438.935 3.18267 -4.28417 0
M  V30 4373 O 439.158 4.30009 -3.74765 0
M  V30 4374 O 438.092 3.02167 -5.20556 0
M  V30 4375 H 441.918 0.573373 -2.98238 0
M  V30 4376 H 439.503 0.217255 -1.47812 0
M  V30 4377 H 441.385 3.02568 -2.93309 0
M  V30 4378 H 440.06 2.70254 -1.78169 0
M  V30 4379 H 438.967 1.19785 -3.54404 0
M  V30 4380 H 440.3 1.59464 -4.65652 0
M  V30 4381 N 441.952 1.55251 0.271103 0
M  V30 4382 C 442.862 1.9136 1.35714 0
M  V30 4383 C 443.878 0.811075 1.5394 0
M  V30 4384 O 445.054 1.11031 1.6803 0
M  V30 4385 C 442.119 2.1798 2.69603 0
M  V30 4386 C 441.18 3.4153 2.60107 0
M  V30 4387 C 440.413 3.66871 3.8761 0
M  V30 4388 O 440.636 2.94689 4.8838 0
M  V30 4389 O 439.57 4.60405 3.87699 0
M  V30 4390 H 443.396 2.83815 1.08088 0
M  V30 4391 H 440.981 1.41821 0.469792 0
M  V30 4392 H 442.863 2.36518 3.48765 0
M  V30 4393 H 441.538 1.28708 2.97012 0
M  V30 4394 H 440.445 3.28325 1.79314 0
M  V30 4395 H 441.778 4.31027 2.37647 0
M  V30 4396 N 443.43 -0.535701 1.48216 0
M  V30 4397 C 444.678 -1.28928 1.55634 0
M  V30 4398 C 444.999 -1.93645 0.229514 0
M  V30 4399 O 444.269 -1.81038 -0.74846 0
M  V30 4400 H 442.849 -0.47884 0.573342 0
M  V30 4401 H 445.511 -0.623853 1.84646 0
M  V30 4402 H 444.607 -2.07157 2.33436 0
M  V30 4403 N 444.908 -1.36708 -0.784132 0
M  V30 4404 C 446.136 -1.34398 -1.57305 0
M  V30 4405 C 446.551 0.0735577 -1.88657 0
M  V30 4406 O 445.908 1.03193 -1.50524 0
M  V30 4407 C 445.959 -2.17053 -2.89085 0
M  V30 4408 O 445.68 -3.53281 -2.59083 0
M  V30 4409 C 447.181 -2.22583 -3.83369 0
M  V30 4410 H 444.401 -0.460819 -0.487736 0
M  V30 4411 H 446.945 -1.79879 -0.972819 0
M  V30 4412 H 445.1 -1.75113 -3.45564 0
M  V30 4413 H 445.514 -3.9647 -3.43383 0
M  V30 4414 H 446.988 -2.84763 -4.72878 0
M  V30 4415 H 447.465 -1.23075 -4.21603 0
M  V30 4416 H 448.071 -2.64781 -3.32823 0
M  V30 4417 N 446.386 1.0089 -1.21074 0
M  V30 4418 C 447.802 1.2695 -0.967257 0
M  V30 4419 C 448.002 1.9846 0.348673 0
M  V30 4420 O 447.058 2.28459 1.0753 0
M  V30 4421 C 448.371 2.09697 -2.15517 0
M  V30 4422 C 449.919 2.22937 -2.197 0
M  V30 4423 C 450.394 3.09064 -3.37999 0
M  V30 4424 N 451.885 3.16653 -3.38061 0
M  V30 4425 C 452.62 3.8354 -4.26245 0
M  V30 4426 N 452.116 4.52488 -5.2462 0
M  V30 4427 N 453.909 3.80141 -4.14064 0
M  V30 4428 H 446.06 0.529005 -2.05707 0
M  V30 4429 H 448.323 0.296148 -0.900556 0
M  V30 4430 H 448.029 1.64497 -3.10859 0
M  V30 4431 H 447.903 3.10444 -2.14253 0
M  V30 4432 H 450.29 2.67357 -1.24916 0
M  V30 4433 H 450.371 1.21673 -2.2501 0
M  V30 4434 H 450.015 2.65347 -4.33074 0
M  V30 4435 H 449.945 4.10433 -3.29928 0
M  V30 4436 H 452.436 2.67566 -2.66865 0
M  V30 4437 H 452.749 5.01219 -5.88217 0
M  V30 4438 H 451.094 4.51288 -5.28549 0
M  V30 4439 H 454.285 3.25427 -3.36474 0
M  V30 4440 H 454.458 4.31992 -4.82998 0
M  V30 4441 N 447.864 1.01787 1.20321 0
M  V30 4442 C 448.794 0.609625 2.25401 0
M  V30 4443 C 449.775 -0.375951 1.65893 0
M  V30 4444 O 450.96 -0.261101 1.92437 0
M  V30 4445 C 448.09 -0.0515995 3.47262 0
M  V30 4446 C 447.044 0.855095 4.19371 0
M  V30 4447 C 446.37 0.0595757 5.34667 0
M  V30 4448 C 447.67 2.16374 4.75373 0
M  V30 4449 H 449.364 1.48803 2.59804 0
M  V30 4450 H 446.91 0.716934 1.24884 0
M  V30 4451 H 448.863 -0.348764 4.19954 0
M  V30 4452 H 447.587 -0.964726 3.12027 0
M  V30 4453 H 446.246 1.13628 3.48546 0
M  V30 4454 H 445.894 -0.85524 4.95676 0
M  V30 4455 H 445.594 0.663406 5.83843 0
M  V30 4456 H 447.118 -0.231105 6.10162 0
M  V30 4457 H 448.532 1.92885 5.39878 0
M  V30 4458 H 446.929 2.71853 5.34991 0
M  V30 4459 H 447.999 2.82589 3.94045 0
M  V30 4460 N 449.342 -1.36122 0.79427 0
M  V30 4461 C 450.57 -2.03362 0.380989 0
M  V30 4462 C 450.985 -1.59881 -1.00416 0
M  V30 4463 O 450.342 -0.790515 -1.6449 0
M  V30 4464 C 450.393 -3.58804 0.440649 0
M  V30 4465 O 450.114 -4.007 1.77118 0
M  V30 4466 C 451.615 -4.43296 0.0186117 0
M  V30 4467 H 448.835 -0.652526 0.156367 0
M  V30 4468 H 451.379 -1.73998 1.07447 0
M  V30 4469 H 449.534 -3.8686 -0.204458 0
M  V30 4470 H 449.948 -4.95309 1.72538 0
M  V30 4471 H 451.422 -5.51887 0.111488 0
M  V30 4472 H 451.899 -4.2684 -1.03461 0
M  V30 4473 H 452.505 -4.20512 0.636395 0
M  V30 4474 N 450.82 -0.546701 -1.47814 0
M  V30 4475 C 452.231 -0.110564 -1.86372 0
M  V30 4476 C 452.582 1.31678 -1.45449 0
M  V30 4477 O 451.707 1.98889 -0.852758 0
M  V30 4478 C 452.302 -0.193873 -3.38245 0
M  V30 4479 C 450.861 0.187164 -3.75934 0
M  V30 4480 C 450.008 -0.546166 -2.71868 0
M  V30 4481 H 452.959 -0.757022 -1.39481 0
M  V30 4482 H 452.98 0.590218 -3.75895 0
M  V30 4483 H 452.492 -1.23282 -3.67999 0
M  V30 4484 H 450.593 1.22762 -3.51796 0
M  V30 4485 H 450.706 -0.164083 -4.78819 0
M  V30 4486 H 449.07 0.00953904 -2.54698 0
M  V30 4487 H 449.853 -1.58606 -3.04465 0
M  V30 4488 N 452.299 1.55045 -0.282633 0
M  V30 4489 C 453.547 1.99365 0.331334 0
M  V30 4490 C 453.868 1.1725 1.55812 0
M  V30 4491 O 453.138 0.263871 1.94115 0
M  V30 4492 H 451.718 0.736397 0.125414 0
M  V30 4493 H 454.38 1.90964 -0.389711 0
M  V30 4494 H 453.476 3.0596 0.616036 0
M  V30 4495 N 453.777 0.010035 1.57597 0
M  V30 4496 C 455.188 -0.531426 1.78977 0
M  V30 4497 C 455.539 -1.73375 0.918454 0
M  V30 4498 O 454.664 -2.16047 0.123635 0
M  V30 4499 C 455.259 -0.97086 3.24592 0
M  V30 4500 C 453.818 -1.45756 3.47033 0
M  V30 4501 C 452.965 -0.413384 2.74201 0
M  V30 4502 H 455.916 0.236166 1.56933 0
M  V30 4503 H 455.937 -1.83633 3.33255 0
M  V30 4504 H 455.449 -0.0955893 3.87982 0
M  V30 4505 H 453.55 -2.35339 2.88871 0
M  V30 4506 H 453.663 -1.4781 4.55729 0
M  V30 4507 H 452.027 -0.877266 2.39115 0
M  V30 4508 H 452.81 0.453092 3.40297 0
M  V30 4509 N 455.255 -1.55392 -0.262866 0
M  V30 4510 C 456.503 -1.76127 -0.991147 0
M  V30 4511 C 456.824 -0.571083 -1.8645 0
M  V30 4512 O 456.094 0.413698 -1.91482 0
M  V30 4513 H 454.674 -0.649528 -0.368948 0
M  V30 4514 H 457.336 -1.9281 -0.284655 0
M  V30 4515 H 456.432 -2.6663 -1.62219 0
M  V30 4516 N 456.733 0.527833 -1.48498 0
M  V30 4517 C 458.144 1.10975 -1.50138 0
M  V30 4518 C 458.495 1.943 -0.272378 0
M  V30 4519 O 457.62 2.07319 0.620301 0
M  V30 4520 C 458.215 2.01927 -2.72049 0
M  V30 4521 C 456.774 2.55332 -2.76554 0
M  V30 4522 C 455.921 1.32341 -2.43683 0
M  V30 4523 H 458.872 0.312986 -1.55583 0
M  V30 4524 H 458.893 2.86244 -2.50689 0
M  V30 4525 H 458.405 1.41254 -3.61481 0
M  V30 4526 H 456.506 3.19721 -1.91336 0
M  V30 4527 H 456.619 2.94319 -3.78038 0
M  V30 4528 H 454.983 1.63989 -1.94884 0
M  V30 4529 H 455.766 0.734165 -3.35358 0
M  V30 4530 N 458.211 1.37122 0.776871 0
M  V30 4531 C 459.143 1.28342 1.89897 0
M  V30 4532 C 460.156 0.200277 1.61563 0
M  V30 4533 O 461.345 0.456012 1.72577 0
M  V30 4534 C 458.445 0.960427 3.25006 0
M  V30 4535 C 457.618 2.148 3.81025 0
M  V30 4536 C 456.677 1.79608 4.94598 0
M  V30 4537 O 455.703 2.51845 5.10454 0
M  V30 4538 N 456.905 0.737171 5.758 0
M  V30 4539 H 459.67 2.25027 1.97947 0
M  V30 4540 H 457.231 1.3068 0.955739 0
M  V30 4541 H 459.223 0.705942 3.98495 0
M  V30 4542 H 457.793 0.0823066 3.12492 0
M  V30 4543 H 457.013 2.56454 2.99374 0
M  V30 4544 H 458.301 2.9411 4.15183 0
M  V30 4545 H 457.699 0.137637 5.65533 0
M  V30 4546 H 456.256 0.542534 6.49538 0
M  V30 4547 N 459.689 -1.00246 1.21608 0
M  V30 4548 C 460.929 -1.75589 1.04631 0
M  V30 4549 C 461.293 -1.87513 -0.412648 0
M  V30 4550 O 462.494 -2.59444 -0.703003 0
M  V30 4551 C 460.765 -3.12893 1.72722 0
M  V30 4552 S 462.324 -4.04095 1.71034 0
M  V30 4553 H 459.142 -0.604133 0.374892 0
M  V30 4554 H 461.744 -1.19927 1.54395 0
M  V30 4555 H 460.448 -3.0185 2.78055 0
M  V30 4556 H 459.979 -3.73628 1.23149 0
M  V30 4557 H 461.994 -4.9045 0.753231 0
M  V30 4558 N 461.167 -1.02423 -1.1978 0
M  V30 4559 C 462.578 -0.748389 -1.71044 0
M  V30 4560 C 462.929 0.732398 -1.82017 0
M  V30 4561 O 462.054 1.57116 -1.48807 0
M  V30 4562 C 462.649 -1.35187 -3.1066 0
M  V30 4563 C 461.208 -1.12472 -3.59203 0
M  V30 4564 C 460.355 -1.45283 -2.36195 0
M  V30 4565 H 463.306 -1.19275 -1.04686 0
M  V30 4566 H 463.327 -0.746408 -3.73107 0
M  V30 4567 H 462.839 -2.4296 -3.02642 0
M  V30 4568 H 460.94 -0.0649983 -3.72543 0
M  V30 4569 H 461.053 -1.81016 -4.43588 0
M  V30 4570 H 459.417 -0.872034 -2.39307 0
M  V30 4571 H 460.2 -2.54129 -2.30811 0
M  V30 4572 N 462.645 1.35699 -0.801477 0
M  V30 4573 C 463.893 1.9852 -0.37871 0
M  V30 4574 C 464.214 1.63907 1.05638 0
M  V30 4575 O 463.484 0.919013 1.73006 0
M  V30 4576 H 462.064 0.734322 -0.137042 0
M  V30 4577 H 464.726 1.65697 -1.02619 0
M  V30 4578 H 463.822 3.08382 -0.480284 0
M  V30 4579 N 464.123 0.554532 1.47522 0
M  V30 4580 C 465.534 0.120446 1.86311 0
M  V30 4581 C 465.885 -1.30904 1.46145 0
M  V30 4582 O 465.01 -1.98434 0.863294 0
M  V30 4583 C 465.605 0.211808 3.38137 0
M  V30 4584 C 464.164 -0.167224 3.76028 0
M  V30 4585 C 463.311 0.560576 2.71575 0
M  V30 4586 H 466.262 0.764408 1.39077 0
M  V30 4587 H 466.283 -0.570275 3.76202 0
M  V30 4588 H 465.795 1.25232 3.6734 0
M  V30 4589 H 463.896 -1.20894 3.52442 0
M  V30 4590 H 464.009 0.189473 4.78725 0
M  V30 4591 H 462.373 0.00396836 2.547 0
M  V30 4592 H 463.156 1.60219 3.0362 0
M  V30 4593 N 465.601 -1.54893 0.290851 0
M  V30 4594 C 467.012 -1.85584 -0.203816 0
M  V30 4595 C 467.363 -1.21285 -1.54222 0
M  V30 4596 O 466.488 -0.506841 -2.10381 0
M  V30 4597 C 467.083 -3.367 -0.376595 0
M  V30 4598 C 465.642 -3.6746 -0.815485 0
M  V30 4599 C 464.789 -2.77178 0.0821087 0
M  V30 4600 H 467.74 -1.50208 0.512175 0
M  V30 4601 H 467.761 -3.60656 -1.21275 0
M  V30 4602 H 467.273 -3.8347 0.59767 0
M  V30 4603 H 465.374 -3.26201 -1.80066 0
M  V30 4604 H 465.487 -4.7478 -0.641905 0
M  V30 4605 H 463.851 -2.50925 -0.436895 0
M  V30 4606 H 464.634 -3.26767 1.05254 0
M  V30 4607 N 467.08 -0.0183926 -1.57589 0
M  V30 4608 C 468.328 0.661253 -1.90976 0
M  V30 4609 C 468.649 1.73281 -0.894353 0
M  V30 4610 O 467.919 1.9579 0.0656788 0
M  V30 4611 H 466.499 0.247233 -0.704901 0
M  V30 4612 H 469.161 -0.0636639 -1.94796 0
M  V30 4613 H 468.257 1.12083 -2.9128 0
M  V30 4614 N 468.558 1.5553 0.254621 0
M  V30 4615 C 469.488 1.9268 1.31897 0
M  V30 4616 C 470.469 0.790797 1.506 0
M  V30 4617 O 471.654 1.05045 1.63337 0
M  V30 4618 C 468.784 2.21477 2.67517 0
M  V30 4619 C 467.738 3.37256 2.63519 0
M  V30 4620 C 467.064 3.51576 4.02862 0
M  V30 4621 C 468.364 4.73157 2.21179 0
M  V30 4622 H 470.058 2.81832 1.01051 0
M  V30 4623 H 467.604 1.35599 0.484662 0
M  V30 4624 H 469.557 2.46055 3.42104 0
M  V30 4625 H 468.281 1.29144 2.99982 0
M  V30 4626 H 466.94 3.12675 1.9139 0
M  V30 4627 H 466.588 2.56676 4.32581 0
M  V30 4628 H 466.288 4.2943 4.01078 0
M  V30 4629 H 467.812 3.78467 4.79161 0
M  V30 4630 H 469.226 4.97158 2.85494 0
M  V30 4631 H 467.623 5.54058 2.30521 0
M  V30 4632 H 468.693 4.70739 1.16332 0
M  V30 4633 N 470.036 -0.519951 1.48776 0
M  V30 4634 C 471.447 -1.10177 1.50725 0
M  V30 4635 C 471.798 -1.94153 0.282678 0
M  V30 4636 O 470.923 -2.07645 -0.609298 0
M  V30 4637 C 471.518 -2.00482 2.73116 0
M  V30 4638 C 470.077 -2.53862 2.77905 0
M  V30 4639 C 469.224 -1.31047 2.44381 0
M  V30 4640 H 472.175 -0.30473 1.55747 0
M  V30 4641 H 472.196 -2.8491 2.52203 0
M  V30 4642 H 471.708 -1.39335 3.62225 0
M  V30 4643 H 469.809 -3.18702 1.93029 0
M  V30 4644 H 469.922 -2.9231 3.79594 0
M  V30 4645 H 468.286 -1.62953 1.95751 0
M  V30 4646 H 469.069 -0.71637 3.35743 0
M  V30 4647 N 471.514 -1.37532 -0.769588 0
M  V30 4648 C 472.477 -1.33292 -1.86456 0
M  V30 4649 C 473.477 -0.236537 -1.59051 0
M  V30 4650 O 474.667 -0.492511 -1.67093 0
M  V30 4651 C 471.799 -1.07118 -3.23633 0
M  V30 4652 H 472.992 -2.30692 -1.91628 0
M  V30 4653 H 470.545 -1.22593 -0.969572 0
M  V30 4654 H 471.28 -0.102578 -3.24138 0
M  V30 4655 H 471.065 -1.86479 -3.44917 0
M  V30 4656 H 472.555 -1.06806 -4.03711 0
M  V30 4657 N 472.992 0.995999 -1.22138 0
M  V30 4658 C 473.924 2.08745 -0.946485 0
M  V30 4659 C 474.937 1.62633 0.0737356 0
M  V30 4660 O 476.126 1.77782 -0.159886 0
M  V30 4661 C 473.226 3.36516 -0.401305 0
M  V30 4662 C 472.399 4.11672 -1.47801 0
M  V30 4663 C 471.458 5.17728 -0.940461 0
M  V30 4664 O 470.484 5.45482 -1.62596 0
M  V30 4665 N 471.686 5.80005 0.239723 0
M  V30 4666 H 474.451 2.32908 -1.88611 0
M  V30 4667 H 472.012 1.16152 -1.12785 0
M  V30 4668 H 474.004 4.04691 -0.0270837 0
M  V30 4669 H 472.574 3.0944 0.443354 0
M  V30 4670 H 471.794 3.38171 -2.02568 0
M  V30 4671 H 473.082 4.58657 -2.20253 0
M  V30 4672 H 472.48 5.5982 0.813518 0
M  V30 4673 H 471.037 6.4943 0.555361 0
M  V30 4674 N 474.47 1.03057 1.19235 0
M  V30 4675 C 475.433 0.617418 2.20727 0
M  V30 4676 C 476.433 -0.319856 1.57587 0
M  V30 4677 O 477.623 -0.106633 1.73873 0
M  V30 4678 C 474.755 -0.096296 3.40764 0
M  V30 4679 H 475.948 1.51544 2.58794 0
M  V30 4680 H 473.501 0.821949 1.32942 0
M  V30 4681 H 474.236 -1.00859 3.08217 0
M  V30 4682 H 474.021 0.577217 3.87828 0
M  V30 4683 H 475.511 -0.372219 4.15938 0
M  V30 4684 N 475.948 -1.35272 0.808662 0
M  V30 4685 C 477.364 -1.51806 0.492653 0
M  V30 4686 C 477.564 -1.7574 -0.985778 0
M  V30 4687 O 476.62 -1.80003 -1.77074 0
M  V30 4688 C 477.933 -2.69202 1.33981 0
M  V30 4689 C 479.481 -2.8308 1.33547 0
M  V30 4690 C 479.956 -4.03502 2.16679 0
M  V30 4691 N 481.447 -4.10684 2.14227 0
M  V30 4692 C 482.182 -5.02984 2.75308 0
M  V30 4693 N 481.678 -6.00603 3.45323 0
M  V30 4694 N 483.471 -4.95746 2.64938 0
M  V30 4695 H 475.622 -1.17993 1.76611 0
M  V30 4696 H 477.885 -0.577476 0.751814 0
M  V30 4697 H 477.591 -2.581 2.38909 0
M  V30 4698 H 477.465 -3.63854 0.994491 0
M  V30 4699 H 479.852 -2.93631 0.294036 0
M  V30 4700 H 479.933 -1.89278 1.72068 0
M  V30 4701 H 479.577 -3.93711 3.20864 0
M  V30 4702 H 479.507 -4.96489 1.75517 0
M  V30 4703 H 481.998 -3.40802 1.63285 0
M  V30 4704 H 482.311 -6.67633 3.89212 0
M  V30 4705 H 480.656 -6.0077 3.49428 0
M  V30 4706 H 483.847 -4.18439 2.09825 0
M  V30 4707 H 484.02 -5.67487 3.12829 0
M  V30 4708 N 477.426 -0.562348 -1.47226 0
M  V30 4709 C 478.389 0.172056 -2.28553 0
M  V30 4710 C 479.389 0.837928 -1.37242 0
M  V30 4711 O 480.579 0.693001 -1.59822 0
M  V30 4712 C 477.711 1.25223 -3.17068 0
M  V30 4713 H 478.904 -0.542401 -2.94954 0
M  V30 4714 H 476.457 -0.319493 -1.53 0
M  V30 4715 H 477.192 1.99892 -2.55369 0
M  V30 4716 H 476.977 0.779515 -3.84273 0
M  V30 4717 H 478.467 1.76791 -3.78332 0
M  V30 4718 N 478.904 1.54736 -0.299062 0
M  V30 4719 C 480.132 2.04512 0.313447 0
M  V30 4720 C 480.547 1.17643 1.47667 0
M  V30 4721 O 479.904 0.20164 1.81383 0
M  V30 4722 C 479.955 3.53171 0.771542 0
M  V30 4723 O 479.676 4.36736 -0.345379 0
M  V30 4724 C 481.177 4.18936 1.4494 0
M  V30 4725 H 478.397 0.667507 0.0683784 0
M  V30 4726 H 480.941 1.99752 -0.438129 0
M  V30 4727 H 479.096 3.58298 1.47314 0
M  V30 4728 H 479.51 5.24499 0.0109219 0
M  V30 4729 H 480.984 5.24482 1.72111 0
M  V30 4730 H 481.461 3.68554 2.38883 0
M  V30 4731 H 482.067 4.17879 0.791028 0
M  V30 4732 N 480.382 0.0267497 1.57577 0
M  V30 4733 C 481.332 -0.965003 2.06571 0
M  V30 4734 C 482.316 -1.28694 0.965746 0
M  V30 4735 O 483.508 -1.27345 1.22932 0
M  V30 4736 C 480.637 -2.24821 2.59443 0
M  V30 4737 C 479.723 -1.95474 3.76365 0
M  V30 4738 N 480.114 -1.36387 4.87065 0
M  V30 4739 C 478.412 -2.25478 3.84806 0
M  V30 4740 C 479.113 -1.24119 5.68304 0
M  V30 4741 N 478.089 -1.7359 5.15138 0
M  V30 4742 H 481.891 -0.503095 2.89562 0
M  V30 4743 H 479.405 -0.178322 1.61418 0
M  V30 4744 H 481.402 -2.9674 2.92833 0
M  V30 4745 H 480.062 -2.7164 1.77881 0
M  V30 4746 H 481.073 -1.03919 5.07367 0
M  V30 4747 H 477.75 -2.74987 3.14147 0
M  V30 4748 H 479.14 -0.784504 6.67304 0
M  V30 4749 N 481.861 -1.55662 -0.24637 0
M  V30 4750 C 483.086 -1.81914 -0.996093 0
M  V30 4751 C 483.511 -0.603875 -1.78143 0
M  V30 4752 O 482.869 0.447091 -1.75701 0
M  V30 4753 C 482.917 -3.05908 -1.90925 0
M  V30 4754 O 482.021 -2.82861 -3.00105 0
M  V30 4755 H 481.362 -0.600481 -0.283406 0
M  V30 4756 H 483.892 -2.02848 -0.267199 0
M  V30 4757 H 483.902 -3.35356 -2.3238 0
M  V30 4758 H 482.577 -3.93999 -1.33183 0
M  V30 4759 H 481.154 -2.64583 -2.62775 0
M  V30 4760 N 483.339 0.512053 -1.4905 0
M  V30 4761 C 484.587 1.26436 -1.57665 0
M  V30 4762 C 484.908 1.93255 -0.260293 0
M  V30 4763 O 484.178 1.82206 0.719564 0
M  V30 4764 H 482.758 0.469658 -0.580888 0
M  V30 4765 H 485.42 0.594398 -1.85615 0
M  V30 4766 H 484.516 2.03417 -2.36702 0
M  V30 4767 N 484.817 1.37938 0.762283 0
M  V30 4768 C 486.065 1.33404 1.51815 0
M  V30 4769 C 486.386 -0.0780975 1.94844 0
M  V30 4770 O 485.656 -1.02405 1.67003 0
M  V30 4771 H 484.236 0.490839 0.563104 0
M  V30 4772 H 486.898 1.72527 0.906669 0
M  V30 4773 H 485.994 1.97926 2.41313 0
M  V30 4774 N 486.295 -0.989507 1.22664 0
M  V30 4775 C 487.205 -2.11449 1.01619 0
M  V30 4776 C 488.221 -1.73962 -0.036545 0
M  V30 4777 O 489.397 -2.00788 0.156924 0
M  V30 4778 C 486.462 -3.41465 0.600204 0
M  V30 4779 C 485.523 -3.93033 1.72695 0
M  V30 4780 C 484.756 -5.16844 1.33071 0
M  V30 4781 O 484.979 -5.7001 0.210975 0
M  V30 4782 O 483.913 -5.6225 2.14845 0
M  V30 4783 H 487.739 -2.32088 1.9588 0
M  V30 4784 H 485.324 -1.09823 1.01289 0
M  V30 4785 H 487.206 -4.19695 0.37873 0
M  V30 4786 H 485.881 -3.22178 -0.313511 0
M  V30 4787 H 484.788 -3.15961 2.00298 0
M  V30 4788 H 486.121 -4.16758 2.61865 0
M  V30 4789 N 487.773 -1.03688 -1.18687 0
M  V30 4790 C 489.001 -0.757918 -1.92518 0
M  V30 4791 C 489.416 0.684398 -1.75959 0
M  V30 4792 O 488.773 1.46617 -1.08673 0
M  V30 4793 C 488.824 -1.10985 -3.44042 0
M  V30 4794 O 488.545 -2.49554 -3.60076 0
M  V30 4795 C 490.046 -0.854844 -4.3498 0
M  V30 4796 H 487.266 -0.276699 -0.611293 0
M  V30 4797 H 489.81 -1.38352 -1.50595 0
M  V30 4798 H 487.965 -0.529279 -3.83767 0
M  V30 4799 H 488.379 -2.6291 -4.53849 0
M  V30 4800 H 489.853 -1.15098 -5.39867 0
M  V30 4801 H 490.33 0.210507 -4.38695 0
M  V30 4802 H 490.936 -1.41853 -4.00946 0
M  V30 4803 N 489.251 1.34841 -0.815825 0
M  V30 4804 C 490.662 1.80937 -0.46029 0
M  V30 4805 C 491.013 1.67685 1.01863 0
M  V30 4806 O 490.138 1.21277 1.79223 0
M  V30 4807 C 490.733 3.28509 -0.828708 0
M  V30 4808 C 489.292 3.72712 -0.525644 0
M  V30 4809 C 488.439 2.56676 -1.04941 0
M  V30 4810 H 491.39 1.22688 -1.00664 0
M  V30 4811 H 491.411 3.80279 -0.129757 0
M  V30 4812 H 490.923 3.38122 -1.90513 0
M  V30 4813 H 489.024 3.68642 0.541666 0
M  V30 4814 H 489.137 4.67119 -1.06474 0
M  V30 4815 H 487.501 2.50302 -0.471286 0
M  V30 4816 H 488.284 2.69063 -2.13214 0
M  V30 4817 N 490.729 0.570148 1.46925 0
M  V30 4818 C 492.14 0.1402 1.86173 0
M  V30 4819 C 492.491 -1.29347 1.47526 0
M  V30 4820 O 491.616 -1.97508 0.884292 0
M  V30 4821 C 492.211 0.247661 3.37894 0
M  V30 4822 C 490.77 -0.127332 3.76185 0
M  V30 4823 C 489.917 0.589349 2.70965 0
M  V30 4824 H 492.868 0.779117 1.38259 0
M  V30 4825 H 492.889 -0.530341 3.76786 0
M  V30 4826 H 492.401 1.29121 3.65991 0
M  V30 4827 H 490.502 -1.17149 3.53704 0
M  V30 4828 H 490.615 0.240238 4.78497 0
M  V30 4829 H 488.979 0.0309824 2.54681 0
M  V30 4830 H 489.762 1.6343 3.01903 0
M  V30 4831 N 492.207 -1.54576 0.307264 0
M  V30 4832 C 493.623 -1.59534 -0.0459251 0
M  V30 4833 C 493.823 -1.32414 -1.51884 0
M  V30 4834 O 492.879 -1.1006 -2.27251 0
M  V30 4835 C 494.192 -2.98566 0.357649 0
M  V30 4836 C 495.74 -3.11491 0.306937 0
M  V30 4837 C 496.215 -4.52842 0.685427 0
M  V30 4838 N 497.706 -4.58782 0.638203 0
M  V30 4839 C 498.441 -5.66238 0.903458 0
M  V30 4840 N 497.937 -6.81703 1.23501 0
M  V30 4841 N 499.73 -5.55937 0.830102 0
M  V30 4842 H 491.881 -1.70464 1.26712 0
M  V30 4843 H 494.144 -0.79647 0.514139 0
M  V30 4844 H 493.85 -3.23356 1.38325 0
M  V30 4845 H 493.724 -3.76117 -0.285565 0
M  V30 4846 H 496.111 -2.86446 -0.709424 0
M  V30 4847 H 496.192 -2.36081 0.984861 0
M  V30 4848 H 495.836 -4.78618 1.69963 0
M  V30 4849 H 495.766 -5.26598 -0.0146346 0
M  V30 4850 H 498.257 -3.75849 0.393138 0
M  V30 4851 H 498.57 -7.59582 1.42322 0
M  V30 4852 H 496.915 -6.8324 1.27311 0
M  V30 4853 H 500.106 -4.64608 0.570693 0
M  V30 4854 H 500.279 -6.39597 1.04019 0
M  V30 4855 N 493.685 -0.035106 -1.57561 0
M  V30 4856 C 494.934 0.641604 -1.91223 0
M  V30 4857 C 495.247 1.72944 -0.913761 0
M  V30 4858 O 496.453 2.46321 -1.14185 0
M  V30 4859 C 494.909 1.19249 -3.3957 0
M  V30 4860 C 494.517 0.137616 -4.47789 0
M  V30 4861 C 496.261 1.84537 -3.82291 0
M  V30 4862 C 494.168 0.700478 -5.87237 0
M  V30 4863 H 493.098 0.243417 -0.713627 0
M  V30 4864 H 495.749 -0.101382 -1.8322 0
M  V30 4865 H 494.131 1.98728 -3.42525 0
M  V30 4866 H 495.305 -0.635153 -4.56402 0
M  V30 4867 H 493.62 -0.416855 -4.14308 0
M  V30 4868 H 496.217 2.27616 -4.83834 0
M  V30 4869 H 496.56 2.69054 -3.17672 0
M  V30 4870 H 497.093 1.11739 -3.81784 0
M  V30 4871 H 493.832 -0.106693 -6.55413 0
M  V30 4872 H 493.352 1.4416 -5.82218 0
M  V30 4873 H 495.031 1.18837 -6.35993 0
M  V30 4874 N 495.163 1.55791 0.238111 0
M  V30 4875 C 496.388 1.8244 0.986432 0
M  V30 4876 C 496.813 0.613314 1.7782 0
M  V30 4877 O 496.171 -0.437767 1.75935 0
M  V30 4878 C 496.219 3.06917 1.893 0
M  V30 4879 O 495.323 2.84449 2.98601 0
M  V30 4880 H 494.664 0.601975 0.280218 0
M  V30 4881 H 497.194 2.02987 0.256437 0
M  V30 4882 H 497.204 3.36583 2.30598 0
M  V30 4883 H 495.879 3.947 1.31091 0
M  V30 4884 H 494.456 2.65972 2.61368 0
M  V30 4885 N 496.642 -0.504142 1.49319 0
M  V30 4886 C 497.891 -1.25507 1.57895 0
M  V30 4887 C 498.204 -1.93735 0.269433 0
M  V30 4888 O 499.41 -2.70492 0.233706 0
M  V30 4889 C 497.866 -2.27869 2.78574 0
M  V30 4890 C 497.474 -1.65594 4.16272 0
M  V30 4891 C 499.218 -3.0381 2.96479 0
M  V30 4892 C 497.125 -2.66048 5.28178 0
M  V30 4893 H 496.055 -0.47212 0.587894 0
M  V30 4894 H 498.706 -0.52931 1.757 0
M  V30 4895 H 497.088 -3.03594 2.54257 0
M  V30 4896 H 498.262 -0.958826 4.50714 0
M  V30 4897 H 496.577 -1.02055 4.037 0
M  V30 4898 H 499.174 -3.78925 3.77253 0
M  V30 4899 H 499.517 -3.61235 2.06918 0
M  V30 4900 H 500.05 -2.352 3.20821 0
M  V30 4901 H 496.789 -2.13408 6.19788 0
M  V30 4902 H 496.309 -3.34009 4.98195 0
M  V30 4903 H 497.988 -3.28536 5.57381 0
M  V30 4904 N 498.12 -1.38341 -0.754957 0
M  V30 4905 C 499.07 -1.31964 -1.85929 0
M  V30 4906 C 500.054 -0.204181 -1.59599 0
M  V30 4907 O 501.246 -0.440036 -1.71443 0
M  V30 4908 C 498.375 -1.14565 -3.2362 0
M  V30 4909 C 497.461 -2.30727 -3.55846 0
M  V30 4910 N 497.852 -3.56165 -3.59138 0
M  V30 4911 C 496.15 -2.23249 -3.86104 0
M  V30 4912 C 496.851 -4.32865 -3.88591 0
M  V30 4913 N 495.827 -3.62203 -4.05351 0
M  V30 4914 H 499.629 -2.2694 -1.8675 0
M  V30 4915 H 497.143 -1.31553 -0.952243 0
M  V30 4916 H 499.14 -1.0808 -4.02647 0
M  V30 4917 H 497.8 -0.205212 -3.24051 0
M  V30 4918 H 498.811 -3.89854 -3.40932 0
M  V30 4919 H 495.488 -1.37357 -3.94258 0
M  V30 4920 H 496.878 -5.41504 -3.97773 0
M  V30 4921 N 499.598 0.982988 -1.23187 0
M  V30 4922 C 500.847 1.71817 -1.05649 0
M  V30 4923 C 501.16 1.91315 0.407176 0
M  V30 4924 O 502.366 2.62256 0.702436 0
M  V30 4925 C 500.822 3.09188 -1.84203 0
M  V30 4926 C 500.43 2.97586 -3.34882 0
M  V30 4927 C 502.174 3.86684 -1.75146 0
M  V30 4928 C 500.081 4.30173 -4.05839 0
M  V30 4929 H 499.011 0.644258 -0.391724 0
M  V30 4930 H 501.662 1.09659 -1.4713 0
M  V30 4931 H 500.044 3.72087 -1.35527 0
M  V30 4932 H 501.218 2.43793 -3.91026 0
M  V30 4933 H 499.533 2.33567 -3.44725 0
M  V30 4934 H 502.13 4.84836 -2.25473 0
M  V30 4935 H 502.473 4.10136 -0.713737 0
M  V30 4936 H 503.006 3.30482 -2.21419 0
M  V30 4937 H 499.745 4.11918 -5.09906 0
M  V30 4938 H 499.265 4.83841 -3.54482 0
M  V30 4939 H 500.944 4.98873 -4.11989 0
M  V30 4940 N 501.076 1.04316 1.18135 0
M  V30 4941 C 502.008 0.594444 2.21357 0
M  V30 4942 C 503.021 -0.337215 1.59269 0
M  V30 4943 O 504.21 -0.131337 1.78016 0
M  V30 4944 C 501.31 -0.151251 3.38562 0
M  V30 4945 C 500.483 0.788907 4.30227 0
M  V30 4946 C 499.542 0.0860572 5.2613 0
M  V30 4947 O 498.568 0.717302 5.64662 0
M  V30 4948 N 499.77 -1.17969 5.68387 0
M  V30 4949 H 502.535 1.48227 2.60478 0
M  V30 4950 H 500.096 0.92396 1.32946 0
M  V30 4951 H 502.088 -0.631352 3.99745 0
M  V30 4952 H 500.658 -0.940639 2.98112 0
M  V30 4953 H 499.878 1.44882 3.6661 0
M  V30 4954 H 501.166 1.42738 4.88368 0
M  V30 4955 H 500.564 -1.71302 5.3914 0
M  V30 4956 H 499.121 -1.60402 6.31755 0
M  V30 4957 N 502.554 -1.34406 0.822964 0
M  V30 4958 C 503.464 -2.33298 0.246838 0
M  V30 4959 C 504.48 -1.62625 -0.618797 0
M  V30 4960 O 505.656 -1.94391 -0.526685 0
M  V30 4961 C 502.721 -3.41785 -0.581731 0
M  V30 4962 C 501.782 -4.28206 0.306309 0
M  V30 4963 C 501.015 -5.31512 -0.48281 0
M  V30 4964 O 501.238 -5.43973 -1.71607 0
M  V30 4965 O 500.172 -6.01749 0.134884 0
M  V30 4966 H 503.998 -2.84401 1.06534 0
M  V30 4967 H 501.583 -1.37466 0.585108 0
M  V30 4968 H 503.465 -4.08028 -1.05313 0
M  V30 4969 H 502.14 -2.92925 -1.37756 0
M  V30 4970 H 501.047 -3.64885 0.825199 0
M  V30 4971 H 502.38 -4.80507 1.06649 0
M  V30 4972 N 504.032 -0.577932 -1.46621 0
M  V30 4973 C 504.965 0.206312 -2.27265 0
M  V30 4974 C 505.943 0.901306 -1.35334 0
M  V30 4975 O 507.127 0.916151 -1.64739 0
M  V30 4976 C 504.254 1.29563 -3.1294 0
M  V30 4977 C 503.3 0.706981 -4.206 0
M  V30 4978 S 504.133 -0.462459 -5.33499 0
M  V30 4979 C 505.289 0.628171 -6.2274 0
M  V30 4980 H 505.522 -0.477961 -2.93433 0
M  V30 4981 H 503.055 -0.364715 -1.50031 0
M  V30 4982 H 505.013 1.91935 -3.62865 0
M  V30 4983 H 503.674 1.95183 -2.46095 0
M  V30 4984 H 502.867 1.52565 -4.80354 0
M  V30 4985 H 502.469 0.159022 -3.73662 0
M  V30 4986 H 504.761 1.51506 -6.60342 0
M  V30 4987 H 505.704 0.0674961 -7.08068 0
M  V30 4988 H 506.112 0.930167 -5.56784 0
M  V30 4989 N 505.51 1.54411 -0.315457 0
M  V30 4990 C 506.787 1.92562 0.343398 0
M  V30 4991 C 507.167 1.24423 1.70535 0
M  V30 4992 O 506.515 0.385051 2.25232 0
M  V30 4993 C 506.725 3.46168 0.443687 0
M  V30 4994 C 508.073 4.18659 0.707783 0
M  V30 4995 O 509.097 3.52281 0.52693 0
M  V30 4996 O 507.956 5.36198 1.05612 0
M  V30 4997 H 505.05 0.80379 0.194552 0
M  V30 4998 H 507.596 1.65738 -0.364577 0
M  V30 4999 H 506.368 3.8792 -0.513172 0
M  V30 5000 H 505.991 3.79073 1.19956 0
M  V30 5001 N 506.988 0.0434614 1.5754 0
M  V30 5002 C 508.216 -0.641835 1.96693 0
M  V30 5003 C 508.631 -1.64832 0.920652 0
M  V30 5004 O 507.988 -1.82247 -0.095993 0
M  V30 5005 C 508.039 -1.33557 3.35924 0
M  V30 5006 O 507.76 -0.369403 4.3654 0
M  V30 5007 C 509.261 -2.11135 3.89791 0
M  V30 5008 H 506.481 -0.176013 0.647503 0
M  V30 5009 H 509.025 0.107478 2.04217 0
M  V30 5010 H 507.18 -2.03617 3.29574 0
M  V30 5011 H 507.594 -0.863674 5.1734 0
M  V30 5012 H 509.068 -2.55107 4.89514 0
M  V30 5013 H 509.545 -2.95634 3.24803 0
M  V30 5014 H 510.151 -1.46002 3.99454 0
M  V30 5015 N 508.466 -1.55915 -0.229846 0
M  V30 5016 C 509.877 -1.68809 -0.797531 0
M  V30 5017 C 510.228 -0.643995 -1.8533 0
M  V30 5018 O 509.353 0.206492 -2.15413 0
M  V30 5019 C 509.948 -3.06043 -1.45338 0
M  V30 5020 C 508.507 -3.20819 -1.96856 0
M  V30 5021 C 507.654 -2.6472 -0.825736 0
M  V30 5022 H 510.605 -1.58699 -0.00533733 0
M  V30 5023 H 510.626 -3.01438 -2.32196 0
M  V30 5024 H 510.138 -3.82012 -0.684743 0
M  V30 5025 H 508.239 -2.49704 -2.76548 0
M  V30 5026 H 508.352 -4.27937 -2.15423 0
M  V30 5027 H 506.716 -2.22985 -1.23084 0
M  V30 5028 H 507.499 -3.43229 -0.0699019 0
M  V30 5029 N 509.944 0.496216 -1.49584 0
M  V30 5030 C 511.192 1.24756 -1.58998 0
M  V30 5031 C 511.513 1.92968 -0.280775 0
M  V30 5032 O 510.783 1.82959 0.700198 0
M  V30 5033 H 509.363 0.463471 -0.585836 0
M  V30 5034 H 512.025 0.574678 -1.86235 0
M  V30 5035 H 511.121 2.00895 -2.38847 0
M  V30 5036 N 511.423 1.38739 0.74761 0
M  V30 5037 C 512.333 1.38696 1.89211 0
M  V30 5038 C 513.349 0.283303 1.71678 0
M  V30 5039 O 514.525 0.522713 1.94498 0
M  V30 5040 C 511.59 1.21662 3.24653 0
M  V30 5041 C 510.651 2.41886 3.54669 0
M  V30 5042 C 509.884 2.25655 4.83648 0
M  V30 5043 O 510.107 1.25339 5.56459 0
M  V30 5044 O 509.041 3.14372 5.13277 0
M  V30 5045 H 512.867 2.35143 1.92202 0
M  V30 5046 H 510.452 1.19721 0.893708 0
M  V30 5047 H 512.334 1.14246 4.05618 0
M  V30 5048 H 511.009 0.283024 3.2246 0
M  V30 5049 H 509.916 2.54877 2.73841 0
M  V30 5050 H 511.249 3.33895 3.61628 0
M  V30 5051 N 512.901 -0.976442 1.23707 0
M  V30 5052 C 513.834 -2.06793 0.964973 0
M  V30 5053 C 514.812 -1.62304 -0.0981472 0
M  V30 5054 O 515.996 -1.88464 0.0369477 0
M  V30 5055 C 513.123 -3.35636 0.454522 0
M  V30 5056 C 512.169 -3.99069 1.50485 0
M  V30 5057 S 513.002 -4.37814 3.0835 0
M  V30 5058 C 514.158 -5.69805 2.58985 0
M  V30 5059 H 514.391 -2.29556 1.88922 0
M  V30 5060 H 511.924 -1.11317 1.06995 0
M  V30 5061 H 513.882 -4.10162 0.166626 0
M  V30 5062 H 512.543 -3.10876 -0.448871 0
M  V30 5063 H 511.736 -4.91896 1.09792 0
M  V30 5064 H 511.338 -3.30938 1.7423 0
M  V30 5065 H 513.63 -6.46919 2.01252 0
M  V30 5066 H 514.573 -6.15345 3.50366 0
M  V30 5067 H 514.981 -5.27994 1.99705 0
M  V30 5068 N 514.379 -1.04941 -1.1758 0
M  V30 5069 C 515.309 -0.669172 -2.23706 0
M  V30 5070 C 516.29 0.331835 -1.66832 0
M  V30 5071 O 517.475 0.209988 -1.93061 0
M  V30 5072 C 514.605 -0.0404889 -3.47276 0
M  V30 5073 C 513.559 -0.965983 -4.16957 0
M  V30 5074 C 512.885 -0.201312 -5.34321 0
M  V30 5075 C 514.185 -2.28902 -4.69469 0
M  V30 5076 H 515.879 -1.55639 -2.55767 0
M  V30 5077 H 513.425 -0.749793 -1.22939 0
M  V30 5078 H 515.378 0.237298 -4.20731 0
M  V30 5079 H 514.102 0.881658 -3.14475 0
M  V30 5080 H 512.761 -1.22829 -3.45411 0
M  V30 5081 H 512.409 0.723519 -4.97769 0
M  V30 5082 H 512.109 -0.817968 -5.81879 0
M  V30 5083 H 513.633 0.0692499 -6.10561 0
M  V30 5084 H 515.047 -2.07132 -5.34574 0
M  V30 5085 H 513.444 -2.85942 -5.27596 0
M  V30 5086 H 514.514 -2.92937 -3.86414 0
M  V30 5087 N 515.857 1.33968 -0.830081 0
M  V30 5088 C 516.79 2.27303 -0.202182 0
M  V30 5089 C 517.768 1.49235 0.645581 0
M  V30 5090 O 518.952 1.78433 0.607762 0
M  V30 5091 C 516.079 3.31025 0.716932 0
M  V30 5092 C 515.125 4.26466 -0.0542271 0
M  V30 5093 S 515.958 5.16707 -1.40622 0
M  V30 5094 C 517.114 6.23962 -0.492167 0
M  V30 5095 H 517.347 2.8021 -0.99346 0
M  V30 5096 H 514.88 1.41124 -0.626359 0
M  V30 5097 H 516.838 3.91271 1.24165 0
M  V30 5098 H 515.499 2.76951 1.4818 0
M  V30 5099 H 514.692 4.99858 0.644785 0
M  V30 5100 H 514.294 3.7051 -0.509722 0
M  V30 5101 H 516.586 6.76774 0.31347 0
M  V30 5102 H 517.529 6.97927 -1.19599 0
M  V30 5103 H 517.937 5.64447 -0.0774176 0
M  V30 5104 N 517.335 0.585699 1.46312 0
M  V30 5105 C 518.563 0.0781299 2.06752 0
M  V30 5106 C 518.978 -1.22812 1.43396 0
M  V30 5107 O 518.335 -1.74318 0.540314 0
M  V30 5108 C 518.386 -0.0911927 3.61385 0
M  V30 5109 O 518.107 1.16336 4.22371 0
M  V30 5110 C 519.608 -0.632765 4.38761 0
M  V30 5111 H 516.828 0.0588188 0.668417 0
M  V30 5112 H 519.372 0.807218 1.87894 0
M  V30 5113 H 517.527 -0.770514 3.7966 0
M  V30 5114 H 517.941 0.979082 5.15281 0
M  V30 5115 H 519.415 -0.70041 5.47538 0
M  V30 5116 H 519.892 -1.65039 4.07012 0
M  V30 5117 H 520.498 0.0117856 4.25298 0
M  V30 5118 N 518.813 -1.54241 0.323641 0
M  V30 5119 C 520.061 -2.00174 -0.278359 0
M  V30 5120 C 520.382 -1.2134 -1.52648 0
M  V30 5121 O 519.652 -0.315244 -1.93347 0
M  V30 5122 H 518.232 -0.739463 -0.105845 0
M  V30 5123 H 520.894 -1.89864 0.440204 0
M  V30 5124 H 519.99 -3.07486 -0.5347 0
M  V30 5125 N 520.291 -0.0518155 -1.57515 0
M  V30 5126 C 521.707 0.304735 -1.56664 0
M  V30 5127 C 521.907 1.71395 -1.05953 0
M  V30 5128 O 520.963 2.42123 -0.716414 0
M  V30 5129 C 522.276 0.132614 -3.00407 0
M  V30 5130 C 523.824 0.20367 -3.12337 0
M  V30 5131 C 524.299 0.0600706 -4.57961 0
M  V30 5132 N 525.79 0.116326 -4.63054 0
M  V30 5133 C 526.525 0.0293363 -5.73392 0
M  V30 5134 N 526.021 -0.110038 -6.92713 0
M  V30 5135 N 527.814 0.0849651 -5.62036 0
M  V30 5136 H 519.965 -0.973056 -1.888 0
M  V30 5137 H 522.228 -0.377781 -0.869474 0
M  V30 5138 H 521.934 -0.839019 -3.41546 0
M  V30 5139 H 521.808 0.893376 -3.66468 0
M  V30 5140 H 524.195 1.16578 -2.71097 0
M  V30 5141 H 524.276 -0.587857 -2.48954 0
M  V30 5142 H 523.92 -0.898715 -4.99886 0
M  V30 5143 H 523.85 0.87075 -5.19351 0
M  V30 5144 H 526.341 0.22327 -3.7724 0
M  V30 5145 H 526.654 -0.169104 -7.72615 0
M  V30 5146 H 524.999 -0.145132 -6.94848 0
M  V30 5147 H 528.19 0.192411 -4.67704 0
M  V30 5148 H 528.363 0.0137131 -6.47999 0
M  V30 5149 N 521.769 1.56035 0.221574 0
M  V30 5150 C 523.017 1.78693 0.944102 0
M  V30 5151 C 523.338 0.620317 1.8487 0
M  V30 5152 O 522.608 -0.362784 1.92512 0
M  V30 5153 H 521.188 0.659082 0.351597 0
M  V30 5154 H 523.85 1.93497 0.233435 0
M  V30 5155 H 522.946 2.70837 1.55093 0
M  V30 5156 N 523.247 -0.488276 1.49845 0
M  V30 5157 C 524.472 -1.26997 1.63971 0
M  V30 5158 C 524.897 -1.85427 0.315994 0
M  V30 5159 O 524.255 -1.66475 -0.718032 0
M  V30 5160 C 524.303 -2.36689 2.72049 0
M  V30 5161 O 523.407 -3.40882 2.32107 0
M  V30 5162 H 522.748 -0.374376 0.548396 0
M  V30 5163 H 525.278 -0.583104 1.96115 0
M  V30 5164 H 525.288 -2.82262 2.94605 0
M  V30 5165 H 523.963 -1.93529 3.68129 0
M  V30 5166 H 522.54 -3.01139 2.19931 0
M  V30 5167 N 524.725 -1.39134 -0.740242 0
M  V30 5168 C 525.655 -1.40165 -1.86751 0
M  V30 5169 C 526.636 -0.265708 -1.68012 0
M  V30 5170 O 527.821 -0.47076 -1.88408 0
M  V30 5171 C 524.951 -1.2392 -3.2444 0
M  V30 5172 C 523.905 -2.34858 -3.57807 0
M  V30 5173 C 523.231 -2.03707 -4.94376 0
M  V30 5174 C 524.531 -3.77159 -3.61315 0
M  V30 5175 H 526.225 -2.345 -1.86145 0
M  V30 5176 H 523.771 -1.12875 -0.89416 0
M  V30 5177 H 525.724 -1.23263 -4.02969 0
M  V30 5178 H 524.448 -0.26051 -3.25559 0
M  V30 5179 H 523.107 -2.34723 -2.81604 0
M  V30 5180 H 522.755 -1.04289 -4.9207 0
M  V30 5181 H 522.455 -2.78016 -5.17669 0
M  V30 5182 H 523.979 -2.04691 -5.75268 0
M  V30 5183 H 525.393 -3.79252 -4.29931 0
M  V30 5184 H 523.79 -4.50784 -3.96124 0
M  V30 5185 H 524.86 -4.08513 -2.61238 0
M  V30 5186 N 526.204 0.969867 -1.24223 0
M  V30 5187 C 527.452 1.70918 -1.0785 0
M  V30 5188 C 527.773 1.91186 0.383763 0
M  V30 5189 O 527.043 1.48806 1.27411 0
M  V30 5190 H 525.623 0.633334 -0.396103 0
M  V30 5191 H 528.285 1.16689 -1.56108 0
M  V30 5192 H 527.381 2.69455 -1.57482 0
M  V30 5193 N 527.682 1.05563 1.17022 0
M  V30 5194 C 529.093 0.793475 1.69 0
M  V30 5195 C 529.444 -0.683882 1.83895 0
M  V30 5196 O 528.569 -1.53116 1.5292 0
M  V30 5197 C 529.164 1.43376 3.06967 0
M  V30 5198 C 527.723 1.21956 3.56095 0
M  V30 5199 C 526.87 1.51494 2.3226 0
M  V30 5200 H 529.821 1.22008 1.01487 0
M  V30 5201 H 529.842 0.845068 3.70997 0
M  V30 5202 H 529.354 2.50899 2.96093 0
M  V30 5203 H 527.455 0.163749 3.7224 0
M  V30 5204 H 527.568 1.92713 4.38633 0
M  V30 5205 H 525.932 0.935175 2.3691 0
M  V30 5206 H 526.715 2.60159 2.23992 0
M  V30 5207 N 529.16 -1.33526 0.837174 0
M  V30 5208 C 530.388 -2.02047 0.445494 0
M  V30 5209 C 530.803 -1.62995 -0.952788 0
M  V30 5210 O 530.16 -0.842447 -1.61892 0
M  V30 5211 C 530.211 -3.57221 0.554577 0
M  V30 5212 O 529.932 -3.94863 1.89776 0
M  V30 5213 C 531.433 -4.43012 0.159634 0
M  V30 5214 H 528.653 -0.647221 0.177048 0
M  V30 5215 H 531.197 -1.70492 1.12928 0
M  V30 5216 H 529.352 -3.87315 -0.0812781 0
M  V30 5217 H 529.766 -4.89569 1.88208 0
M  V30 5218 H 531.24 -5.51253 0.28701 0
M  V30 5219 H 531.717 -4.29916 -0.898289 0
M  V30 5220 H 532.323 -4.18274 0.769855 0
M  V30 5221 N 530.638 -0.59345 -1.46 0
M  V30 5222 C 531.568 0.121192 -2.33185 0
M  V30 5223 C 532.549 0.872977 -1.4599 0
M  V30 5224 O 533.734 0.846321 -1.74789 0
M  V30 5225 C 530.864 1.12844 -3.28456 0
M  V30 5226 C 529.818 0.4908 -4.25177 0
M  V30 5227 C 529.144 1.60529 -5.10034 0
M  V30 5228 C 530.444 -0.578949 -5.19081 0
M  V30 5229 H 532.138 -0.606767 -2.93187 0
M  V30 5230 H 529.684 -0.293242 -1.40983 0
M  V30 5231 H 531.637 1.63684 -3.88311 0
M  V30 5232 H 530.361 1.88681 -2.66584 0
M  V30 5233 H 529.02 0.00339328 -3.666 0
M  V30 5234 H 528.668 2.35359 -4.44539 0
M  V30 5235 H 528.368 1.18422 -5.75543 0
M  V30 5236 H 529.892 2.11623 -5.72755 0
M  V30 5237 H 531.306 -0.155199 -5.7309 0
M  V30 5238 H 529.703 -0.920947 -5.92991 0
M  V30 5239 H 530.773 -1.46109 -4.62364 0
M  V30 5240 N 532.116 1.54067 -0.331816 0
M  V30 5241 C 533.344 2.05131 0.269996 0
M  V30 5242 C 533.759 1.20749 1.45138 0
M  V30 5243 O 533.116 0.240069 1.80914 0
M  V30 5244 C 533.167 3.54728 0.696456 0
M  V30 5245 O 532.888 4.35906 -0.43794 0
M  V30 5246 C 534.389 4.21916 1.36021 0
M  V30 5247 H 531.609 0.668807 0.0542042 0
M  V30 5248 H 534.153 1.98777 -0.4804 0
M  V30 5249 H 532.308 3.61342 1.39681 0
M  V30 5250 H 532.722 5.24404 -0.100334 0
M  V30 5251 H 534.196 5.28015 1.60947 0
M  V30 5252 H 534.673 3.73538 2.31011 0
M  V30 5253 H 535.279 4.19463 0.702212 0
M  V30 5254 N 533.594 0.0601682 1.57485 0
M  V30 5255 C 534.822 -0.620937 1.97363 0
M  V30 5256 C 535.237 -1.63846 0.938082 0
M  V30 5257 O 534.594 -1.82339 -0.0766578 0
M  V30 5258 C 534.645 -1.29987 3.37321 0
M  V30 5259 O 534.366 -0.323081 4.36907 0
M  V30 5260 C 535.867 -2.06989 3.92008 0
M  V30 5261 H 533.087 -0.169135 0.649334 0
M  V30 5262 H 535.631 0.129132 2.04092 0
M  V30 5263 H 533.786 -2.0011 3.31715 0
M  V30 5264 H 534.2 -0.808754 5.18227 0
M  V30 5265 H 535.674 -2.49901 4.92192 0
M  V30 5266 H 536.151 -2.92173 3.2792 0
M  V30 5267 H 536.757 -1.41757 4.0098 0
M  V30 5268 N 535.072 -1.5615 -0.213296 0
M  V30 5269 C 535.982 -1.96265 -1.28519 0
M  V30 5270 C 536.998 -0.86765 -1.50824 0
M  V30 5271 O 538.174 -1.17191 -1.63793 0
M  V30 5272 C 535.239 -2.27836 -2.61327 0
M  V30 5273 C 534.3 -3.50949 -2.47252 0
M  V30 5274 C 533.533 -3.81004 -3.73727 0
M  V30 5275 O 533.756 -3.12612 -4.77106 0
M  V30 5276 O 532.69 -4.74477 -3.70344 0
M  V30 5277 H 536.516 -2.87631 -0.974795 0
M  V30 5278 H 534.101 -1.43467 -0.416832 0
M  V30 5279 H 535.983 -2.49299 -3.39747 0
M  V30 5280 H 534.658 -1.39643 -2.9203 0
M  V30 5281 H 533.565 -3.34754 -1.67004 0
M  V30 5282 H 534.898 -4.39551 -2.21486 0
M  V30 5283 N 536.55 0.480323 -1.50102 0
M  V30 5284 C 537.513 1.56181 -1.6775 0
M  V30 5285 C 538.513 1.51156 -0.548503 0
M  V30 5286 O 539.703 1.5394 -0.815363 0
M  V30 5287 C 536.835 2.95823 -1.69415 0
M  V30 5288 H 538.028 1.41855 -2.6423 0
M  V30 5289 H 535.581 0.70605 -1.39444 0
M  V30 5290 H 536.316 3.15604 -0.745948 0
M  V30 5291 H 536.101 3.00878 -2.51425 0
M  V30 5292 H 537.591 3.74359 -1.85054 0
M  V30 5293 N 538.028 1.39524 0.732853 0
M  V30 5294 C 539.439 1.32905 1.31122 0
M  V30 5295 C 539.79 -0.00558708 1.96199 0
M  V30 5296 O 538.915 -0.907706 1.96443 0
M  V30 5297 C 539.51 2.40704 2.38426 0
M  V30 5298 C 538.069 2.37599 2.91931 0
M  V30 5299 C 537.216 2.2248 1.65523 0
M  V30 5300 H 540.167 1.49581 0.530207 0
M  V30 5301 H 540.188 2.07616 3.18867 0
M  V30 5302 H 539.7 3.37829 1.91033 0
M  V30 5303 H 537.801 1.44119 3.43599 0
M  V30 5304 H 537.914 3.32538 3.44899 0
M  V30 5305 H 536.278 1.69691 1.8994 0
M  V30 5306 H 537.061 3.21577 1.20178 0
M  V30 5307 N 539.506 -0.963266 1.24736 0
M  V30 5308 C 540.469 -2.04013 1.04457 0
M  V30 5309 C 541.469 -1.608 0.000335555 0
M  V30 5310 O 542.659 -1.72515 0.241719 0
M  V30 5311 C 539.791 -3.35858 0.584162 0
M  V30 5312 H 540.984 -2.23436 2.00041 0
M  V30 5313 H 538.537 -1.13914 1.07021 0
M  V30 5314 H 539.272 -3.22128 -0.374673 0
M  V30 5315 H 539.057 -3.68568 1.3379 0
M  V30 5316 H 540.547 -4.1502 0.463451 0
M  V30 5317 N 540.985 -1.06182 -1.16461 0
M  V30 5318 C 541.948 -0.675723 -2.19013 0
M  V30 5319 C 542.948 0.277963 -1.58379 0
M  V30 5320 O 544.138 0.0604962 -1.74095 0
M  V30 5321 C 541.27 0.00591459 -3.40899 0
M  V30 5322 H 542.463 -1.58353 -2.54685 0
M  V30 5323 H 540.016 -0.856908 -1.30716 0
M  V30 5324 H 540.751 0.92652 -3.10783 0
M  V30 5325 H 540.536 -0.67984 -3.86161 0
M  V30 5326 H 542.026 0.26181 -4.16778 0
M  V30 5327 N 542.463 1.3308 -0.844243 0
M  V30 5328 C 543.426 2.27403 -0.286485 0
M  V30 5329 C 544.426 1.51179 0.547872 0
M  V30 5330 O 545.616 1.70421 0.360886 0
M  V30 5331 C 542.748 3.35653 0.595813 0
M  V30 5332 H 543.941 2.78248 -1.11885 0
M  V30 5333 H 541.494 1.43574 -0.617749 0
M  V30 5334 H 542.229 2.90058 1.4504 0
M  V30 5335 H 542.014 3.921 -0.00125994 0
M  V30 5336 H 543.504 4.05958 0.979168 0
M  V30 5337 N 543.941 0.601185 1.45683 0
M  V30 5338 C 544.873 -0.159446 2.28645 0
M  V30 5339 C 545.886 -0.837882 1.39583 0
M  V30 5340 O 547.075 -0.704344 1.64016 0
M  V30 5341 C 544.175 -1.24641 3.15147 0
M  V30 5342 C 543.348 -0.656334 4.32448 0
M  V30 5343 C 542.407 -1.63337 5.00208 0
M  V30 5344 O 541.433 -1.16217 5.57209 0
M  V30 5345 N 542.635 -2.96773 4.98905 0
M  V30 5346 H 545.4 0.5524 2.94565 0
M  V30 5347 H 542.961 0.440223 1.558 0
M  V30 5348 H 544.953 -1.8997 3.57342 0
M  V30 5349 H 543.523 -1.86087 2.51178 0
M  V30 5350 H 542.743 0.174879 3.93812 0
M  V30 5351 H 544.031 -0.242211 5.08223 0
M  V30 5352 H 543.429 -3.37662 4.53873 0
M  V30 5353 H 541.986 -3.57541 5.44984 0
M  V30 5354 N 545.419 -1.53889 0.339982 0
M  V30 5355 C 546.83 -1.86139 -0.144671 0
M  V30 5356 C 547.181 -1.2613 -1.50285 0
M  V30 5357 O 546.306 -0.573515 -2.08662 0
M  V30 5358 C 546.901 -3.37728 -0.269285 0
M  V30 5359 C 545.46 -3.69868 -0.698168 0
M  V30 5360 C 544.607 -2.76777 0.170249 0
M  V30 5361 H 547.558 -1.48503 0.559704 0
M  V30 5362 H 547.579 -3.64331 -1.0974 0
M  V30 5363 H 547.091 -3.81375 0.719366 0
M  V30 5364 H 545.192 -3.31764 -1.69597 0
M  V30 5365 H 545.305 -4.76582 -0.490533 0
M  V30 5366 H 543.669 -2.52188 -0.356844 0
M  V30 5367 H 544.452 -3.23253 1.15597 0
M  V30 5368 N 546.897 -0.0685191 -1.57451 0
M  V30 5369 C 548.145 0.60016 -1.92983 0
M  V30 5370 C 548.466 1.70348 -0.949028 0
M  V30 5371 O 547.736 1.959 0.00335647 0
M  V30 5372 H 546.316 0.224682 -0.712409 0
M  V30 5373 H 548.978 -0.125605 -1.94495 0
M  V30 5374 H 548.074 1.02759 -2.94698 0
M  V30 5375 N 548.375 1.56261 0.205012 0
M  V30 5376 C 549.322 1.93754 1.25411 0
M  V30 5377 C 550.292 0.796826 1.45739 0
M  V30 5378 O 551.477 1.05414 1.59036 0
M  V30 5379 C 548.617 2.27383 2.59598 0
M  V30 5380 C 547.73 3.5447 2.46931 0
M  V30 5381 C 546.865 3.77468 3.73753 0
M  V30 5382 C 545.904 4.98014 3.55877 0
M  V30 5383 N 545.041 5.17316 4.74688 0
M  V30 5384 H 549.881 2.83203 0.92737 0
M  V30 5385 H 547.418 1.40158 0.446574 0
M  V30 5386 H 549.376 2.44895 3.37761 0
M  V30 5387 H 548.006 1.41088 2.90335 0
M  V30 5388 H 547.058 3.45061 1.60116 0
M  V30 5389 H 548.37 4.42789 2.29651 0
M  V30 5390 H 547.524 3.95165 4.60358 0
M  V30 5391 H 546.263 2.87461 3.93976 0
M  V30 5392 H 545.268 4.80249 2.67657 0
M  V30 5393 H 546.493 5.8952 3.37109 0
M  V30 5394 H 544.439 4.30255 4.95194 0
M  V30 5395 H 544.356 5.99796 4.60197 0
M  V30 5396 H 545.624 5.39463 5.62672 0
M  V30 5397 N 549.853 -0.472356 1.50355 0
M  V30 5398 C 550.785 -1.58795 1.65278 0
M  V30 5399 C 551.798 -1.53782 0.534313 0
M  V30 5400 O 552.987 -1.59193 0.807446 0
M  V30 5401 C 550.087 -2.97672 1.62001 0
M  V30 5402 C 549.26 -3.27568 2.89859 0
M  V30 5403 C 548.319 -4.45993 2.79242 0
M  V30 5404 O 547.345 -4.46364 3.53197 0
M  V30 5405 N 548.547 -5.47578 1.92713 0
M  V30 5406 H 551.312 -1.46411 2.61503 0
M  V30 5407 H 548.873 -0.660751 1.47803 0
M  V30 5408 H 550.865 -3.74862 1.52513 0
M  V30 5409 H 549.435 -3.03832 0.735159 0
M  V30 5410 H 548.655 -2.39003 3.13483 0
M  V30 5411 H 549.943 -3.44352 3.74565 0
M  V30 5412 H 549.341 -5.50099 1.31939 0
M  V30 5413 H 547.898 -6.23757 1.8913 0
M  V30 5414 N 551.331 -1.39911 -0.725443 0
M  V30 5415 C 552.579 -1.37382 -1.48224 0
M  V30 5416 C 552.9 0.0264107 -1.94982 0
M  V30 5417 O 552.17 0.979408 -1.6966 0
M  V30 5418 H 550.75 -0.505596 -0.549892 0
M  V30 5419 H 553.412 -1.7487 -0.860608 0
M  V30 5420 H 552.508 -2.04254 -2.3598 0
M  V30 5421 N 552.809 0.956637 -1.25245 0
M  V30 5422 C 554.22 1.51569 -1.09012 0
M  V30 5423 C 554.571 1.93322 0.334813 0
M  V30 5424 O 553.696 1.78421 1.22454 0
M  V30 5425 C 554.291 2.75444 -1.97271 0
M  V30 5426 C 552.85 3.27669 -1.8523 0
M  V30 5427 C 551.997 2.00517 -1.91542 0
M  V30 5428 H 554.948 0.773746 -1.3856 0
M  V30 5429 H 554.969 3.4919 -1.51151 0
M  V30 5430 H 554.481 2.45024 -3.00973 0
M  V30 5431 H 552.582 3.62914 -0.844045 0
M  V30 5432 H 552.695 3.9582 -2.69932 0
M  V30 5433 H 551.059 2.15727 -1.35404 0
M  V30 5434 H 551.842 1.72448 -2.96844 0
M  V30 5435 N 554.287 1.06798 1.15896 0
M  V30 5436 C 555.698 0.811355 1.68149 0
M  V30 5437 C 556.049 -0.664339 1.8461 0
M  V30 5438 O 555.174 -1.51485 1.54535 0
M  V30 5439 C 555.769 1.46624 3.05429 0
M  V30 5440 C 554.328 1.25726 3.54781 0
M  V30 5441 C 553.475 1.53949 2.3064 0
M  V30 5442 H 556.426 1.23078 1.00187 0
M  V30 5443 H 556.447 0.88437 3.7008 0
M  V30 5444 H 555.959 2.54025 2.93416 0
M  V30 5445 H 554.06 0.20322 3.72045 0
M  V30 5446 H 554.173 1.97354 4.36564 0
M  V30 5447 H 552.537 0.96025 2.35905 0
M  V30 5448 H 553.32 2.6252 2.2122 0
M  V30 5449 N 555.766 -1.3263 0.851289 0
M  V30 5450 C 557.014 -1.96978 0.452128 0
M  V30 5451 C 557.335 -1.67715 -0.99482 0
M  V30 5452 O 556.605 -0.98259 -1.69476 0
M  V30 5453 H 555.185 -0.72873 0.164202 0
M  V30 5454 H 557.847 -1.61774 1.08698 0
M  V30 5455 H 556.943 -3.06387 0.594407 0
M  V30 5456 N 557.244 -0.608902 -1.45362 0
M  V30 5457 C 558.472 -0.111013 -2.06602 0
M  V30 5458 C 558.887 1.20516 -1.45332 0
M  V30 5459 O 558.244 1.73437 -0.567978 0
M  V30 5460 C 558.295 0.033688 -3.61484 0
M  V30 5461 O 558.016 -1.23041 -4.20467 0
M  V30 5462 C 559.517 0.562882 -4.39712 0
M  V30 5463 H 556.737 -0.0694453 -0.667397 0
M  V30 5464 H 559.281 -0.837008 -1.86586 0
M  V30 5465 H 557.436 0.710016 -3.80838 0
M  V30 5466 H 557.85 -1.06094 -5.13658 0
M  V30 5467 H 559.324 0.613213 -5.48583 0
M  V30 5468 H 559.801 1.58543 -4.09586 0
M  V30 5469 H 560.407 -0.0794454 -4.25226 0
M  V30 5470 N 558.722 1.53707 -0.348139 0
M  V30 5471 C 559.97 2.00591 0.246478 0
M  V30 5472 C 560.291 1.23753 1.50699 0
M  V30 5473 O 559.561 0.345964 1.92821 0
M  V30 5474 H 558.141 0.741053 0.0940679 0
M  V30 5475 H 560.803 1.89139 -0.470354 0
M  V30 5476 H 559.899 3.08297 0.485714 0
M  V30 5477 N 560.2 0.0768682 1.57412 0
M  V30 5478 C 561.616 -0.279772 1.57129 0
M  V30 5479 C 561.816 -1.69688 1.08666 0
M  V30 5480 O 560.872 -2.40953 0.754843 0
M  V30 5481 C 562.185 -0.0848055 3.0058 0
M  V30 5482 C 563.733 -0.153954 3.12621 0
M  V30 5483 C 564.208 0.0127946 4.57998 0
M  V30 5484 N 565.699 -0.0426435 4.6318 0
M  V30 5485 C 566.434 0.0618892 5.73367 0
M  V30 5486 N 565.93 0.220229 6.9245 0
M  V30 5487 N 567.723 0.00446072 5.621 0
M  V30 5488 H 559.874 1.00297 1.87228 0
M  V30 5489 H 562.137 0.391565 0.863354 0
M  V30 5490 H 561.843 0.89325 3.40168 0
M  V30 5491 H 561.717 -0.834961 3.67843 0
M  V30 5492 H 564.104 -1.1225 2.72917 0
M  V30 5493 H 564.185 0.627389 2.47987 0
M  V30 5494 H 563.829 0.978128 4.98392 0
M  V30 5495 H 563.759 -0.788016 5.20671 0
M  V30 5496 H 566.25 -0.163226 3.77547 0
M  V30 5497 H 566.563 0.291999 7.72248 0
M  V30 5498 H 564.908 0.255658 6.9453 0
M  V30 5499 H 568.099 -0.117979 4.67951 0
M  V30 5500 H 568.272 0.0893796 6.47938 0
M  V30 5501 N 561.678 -1.56367 -0.196722 0
M  V30 5502 C 562.918 -1.82315 -0.92415 0
M  V30 5503 C 563.282 -0.654117 -1.80514 0
M  V30 5504 O 564.483 -0.79345 -2.56823 0
M  V30 5505 C 562.754 -3.13279 -1.72021 0
M  V30 5506 S 564.313 -3.60627 -2.49988 0
M  V30 5507 H 561.131 -0.639862 -0.309997 0
M  V30 5508 H 563.733 -1.94597 -0.187684 0
M  V30 5509 H 562.437 -3.96379 -1.06358 0
M  V30 5510 H 561.968 -3.03871 -2.49852 0
M  V30 5511 H 563.983 -3.25934 -3.74141 0
M  V30 5512 N 563.156 0.464375 -1.50603 0
M  V30 5513 C 564.086 1.56944 -1.72889 0
M  V30 5514 C 565.067 1.59979 -0.577997 0
M  V30 5515 O 566.252 1.76138 -0.817855 0
M  V30 5516 C 563.382 2.95225 -1.8292 0
M  V30 5517 C 562.336 3.07056 -2.98162 0
M  V30 5518 C 561.662 4.47051 -2.93343 0
M  V30 5519 C 562.962 2.83648 -4.38567 0
M  V30 5520 H 564.656 1.38547 -2.65415 0
M  V30 5521 H 562.202 0.665082 -1.27721 0
M  V30 5522 H 564.155 3.72467 -1.97095 0
M  V30 5523 H 562.879 3.14793 -0.870209 0
M  V30 5524 H 561.538 2.32248 -2.83648 0
M  V30 5525 H 561.186 4.63547 -1.95276 0
M  V30 5526 H 560.886 4.55902 -3.70712 0
M  V30 5527 H 562.41 5.26304 -3.09575 0
M  V30 5528 H 563.824 3.50636 -4.53572 0
M  V30 5529 H 562.221 3.03937 -5.17438 0
M  V30 5530 H 563.291 1.79451 -4.50472 0
M  V30 5531 N 564.634 1.40294 0.718013 0
M  V30 5532 C 565.566 1.36281 1.84283 0
M  V30 5533 C 566.579 0.268621 1.60569 0
M  V30 5534 O 567.768 0.528798 1.70487 0
M  V30 5535 C 564.868 1.09741 3.2064 0
M  V30 5536 C 564.041 2.30767 3.71571 0
M  V30 5537 C 563.1 2.00424 4.86535 0
M  V30 5538 O 562.126 2.73268 4.99313 0
M  V30 5539 N 563.328 0.980724 5.72156 0
M  V30 5540 H 566.093 2.3322 1.88225 0
M  V30 5541 H 563.654 1.34616 0.899453 0
M  V30 5542 H 565.646 0.874322 3.95143 0
M  V30 5543 H 564.216 0.214771 3.11861 0
M  V30 5544 H 563.436 2.68921 2.88228 0
M  V30 5545 H 564.724 3.11455 4.02335 0
M  V30 5546 H 564.122 0.377375 5.6444 0
M  V30 5547 H 562.679 0.817538 6.46653 0
M  V30 5548 N 566.112 -0.949982 1.2575 0
M  V30 5549 C 567.075 -2.02894 1.06615 0
M  V30 5550 C 568.075 -1.60791 0.0173905 0
M  V30 5551 O 569.265 -1.72249 0.260003 0
M  V30 5552 C 566.397 -3.35219 0.619751 0
M  V30 5553 H 567.59 -2.21302 2.02399 0
M  V30 5554 H 565.143 -1.12772 1.08223 0
M  V30 5555 H 565.878 -3.22508 -0.340486 0
M  V30 5556 H 565.663 -3.67129 1.37692 0
M  V30 5557 H 567.153 -4.14505 0.507443 0
M  V30 5558 N 567.59 -1.07411 -1.15328 0
M  V30 5559 C 569.001 -0.820261 -1.67716 0
M  V30 5560 C 569.352 0.654539 -1.8496 0
M  V30 5561 O 568.477 1.50664 -1.55337 0
M  V30 5562 C 569.072 -1.48242 -3.04647 0
M  V30 5563 C 567.631 -1.27606 -3.5411 0
M  V30 5564 C 566.778 -1.5517 -2.29821 0
M  V30 5565 H 569.729 -1.23608 -0.995332 0
M  V30 5566 H 569.75 -0.903984 -3.69606 0
M  V30 5567 H 569.262 -2.55578 -2.92064 0
M  V30 5568 H 567.363 -0.222948 -3.71932 0
M  V30 5569 H 567.476 -1.99667 -4.35511 0
M  V30 5570 H 565.84 -0.972747 -2.35393 0
M  V30 5571 H 566.623 -2.63689 -2.19824 0
M  V30 5572 N 569.068 1.32177 -0.85831 0
M  V30 5573 C 570.316 1.96735 -0.462568 0
M  V30 5574 C 570.637 1.6824 0.985911 0
M  V30 5575 O 569.907 0.991564 1.68952 0
M  V30 5576 H 568.487 0.727849 -0.168064 0
M  V30 5577 H 571.149 1.61195 -1.09554 0
M  V30 5578 H 570.245 3.06068 -0.610647 0
M  V30 5579 N 570.547 0.616602 1.45037 0
M  V30 5580 C 571.775 0.121968 2.0654 0
M  V30 5581 C 572.19 -1.19743 1.45969 0
M  V30 5582 O 571.547 -1.73133 0.577168 0
M  V30 5583 C 571.598 -0.0145171 3.61497 0
M  V30 5584 O 571.319 1.25269 4.19809 0
M  V30 5585 C 572.82 -0.539555 4.40004 0
M  V30 5586 H 570.04 0.0729837 0.667019 0
M  V30 5587 H 572.584 0.846891 1.8614 0
M  V30 5588 H 570.739 -0.689809 3.81209 0
M  V30 5589 H 571.153 1.08816 5.13088 0
M  V30 5590 H 572.627 -0.584112 5.48901 0
M  V30 5591 H 573.104 -1.56368 4.10421 0
M  V30 5592 H 573.71 0.101995 4.25178 0
M  V30 5593 N 572.025 -1.5352 0.356285 0
M  V30 5594 C 572.935 -2.29151 -0.502712 0
M  V30 5595 C 573.951 -1.34753 -1.1008 0
M  V30 5596 O 575.127 -1.67803 -1.11374 0
M  V30 5597 C 572.192 -3.05911 -1.63154 0
M  V30 5598 C 571.253 -4.15958 -1.06194 0
M  V30 5599 C 570.486 -4.8905 -2.13696 0
M  V30 5600 O 570.709 -4.61919 -3.34645 0
M  V30 5601 O 569.643 -5.75202 -1.77275 0
M  V30 5602 H 573.469 -3.03492 0.112466 0
M  V30 5603 H 571.054 -1.4891 0.120942 0
M  V30 5604 H 572.936 -3.53874 -2.28804 0
M  V30 5605 H 571.611 -2.34415 -2.23229 0
M  V30 5606 H 570.518 -3.7227 -0.369603 0
M  V30 5607 H 571.851 -4.89593 -0.505872 0
M  V30 5608 N 573.503 -0.0852151 -1.57369 0
M  V30 5609 C 574.914 0.445428 -1.81309 0
M  V30 5610 C 575.265 1.68795 -1.00013 0
M  V30 5611 O 574.39 2.15211 -0.226573 0
M  V30 5612 C 574.985 0.814887 -3.28854 0
M  V30 5613 C 573.544 1.29032 -3.53592 0
M  V30 5614 C 572.691 0.282089 -2.75861 0
M  V30 5615 H 575.642 -0.310771 -1.55627 0
M  V30 5616 H 575.663 1.67524 -3.41637 0
M  V30 5617 H 575.175 -0.0896309 -3.87996 0
M  V30 5618 H 573.276 2.21289 -2.9977 0
M  V30 5619 H 573.389 1.25898 -4.62262 0
M  V30 5620 H 571.753 0.762182 -2.43029 0
M  V30 5621 H 572.536 -0.614936 -3.37748 0
M  V30 5622 N 574.981 1.5647 0.188427 0
M  V30 5623 C 576.229 1.80655 0.905986 0
M  V30 5624 C 576.55 0.659391 1.83513 0
M  V30 5625 O 575.82 -0.321868 1.93238 0
M  V30 5626 H 574.4 0.666391 0.337538 0
M  V30 5627 H 577.062 1.93949 0.192339 0
M  V30 5628 H 576.158 2.74066 1.49313 0
M  V30 5629 N 576.459 -0.456382 1.50847 0
M  V30 5630 C 577.369 -1.57805 1.73594 0
M  V30 5631 C 578.385 -1.62599 0.619476 0
M  V30 5632 O 579.561 -1.80195 0.899532 0
M  V30 5633 C 576.626 -2.93926 1.8387 0
M  V30 5634 C 575.687 -2.99402 3.07663 0
M  V30 5635 C 574.92 -4.29031 3.1744 0
M  V30 5636 O 575.143 -5.20358 2.33631 0
M  V30 5637 O 574.077 -4.40401 4.10281 0
M  V30 5638 H 577.903 -1.41531 2.68705 0
M  V30 5639 H 575.488 -0.637422 1.3512 0
M  V30 5640 H 577.37 -3.74747 1.92725 0
M  V30 5641 H 576.045 -3.10368 0.91944 0
M  V30 5642 H 574.952 -2.17606 3.043 0
M  V30 5643 H 576.285 -2.87901 3.99216 0
M  V30 5644 N 577.937 -1.40673 -0.710563 0
M  V30 5645 C 578.869 -1.37256 -1.83558 0
M  V30 5646 C 579.882 -0.277133 -1.60424 0
M  V30 5647 O 581.071 -0.537831 -1.70205 0
M  V30 5648 C 578.171 -1.1144 -3.20054 0
M  V30 5649 C 577.344 -2.32734 -3.70342 0
M  V30 5650 C 576.403 -2.03002 -4.85465 0
M  V30 5651 O 575.429 -2.75912 -4.97857 0
M  V30 5652 N 576.631 -1.01105 -5.71627 0
M  V30 5653 H 579.396 -2.34215 -1.86985 0
M  V30 5654 H 576.957 -1.35091 -0.892301 0
M  V30 5655 H 578.949 -0.895265 -3.94673 0
M  V30 5656 H 577.519 -0.231307 -3.11743 0
M  V30 5657 H 576.739 -2.70446 -2.86798 0
M  V30 5658 H 578.027 -3.13584 -4.00678 0
M  V30 5659 H 577.425 -0.407303 -5.64232 0
M  V30 5660 H 575.982 -0.85182 -6.4621 0
M  V30 5661 N 579.415 0.9433 -1.26252 0
M  V30 5662 C 580.643 1.72367 -1.14443 0
M  V30 5663 C 581.058 1.86392 0.300572 0
M  V30 5664 O 580.415 1.36978 1.20596 0
M  V30 5665 C 580.466 3.13155 -1.806 0
M  V30 5666 O 580.187 2.99803 -3.19452 0
M  V30 5667 C 581.688 4.07417 -1.74717 0
M  V30 5668 H 578.908 0.539758 -0.398626 0
M  V30 5669 H 581.452 1.18268 -1.66832 0
M  V30 5670 H 579.607 3.64162 -1.32154 0
M  V30 5671 H 580.021 3.88697 -3.52158 0
M  V30 5672 H 581.495 5.03773 -2.25647 0
M  V30 5673 H 581.972 4.3337 -0.713244 0
M  V30 5674 H 582.578 3.6233 -2.22704 0
M  V30 5675 N 580.893 1.08022 1.14757 0
M  V30 5676 C 582.304 0.829144 1.67279 0
M  V30 5677 C 582.655 -0.644721 1.85305 0
M  V30 5678 O 581.78 -1.49838 1.56133 0
M  V30 5679 C 582.375 1.49855 3.03857 0
M  V30 5680 C 580.934 1.29482 3.53428 0
M  V30 5681 C 580.081 1.56386 2.28995 0
M  V30 5682 H 583.032 1.24134 0.988762 0
M  V30 5683 H 583.053 0.923572 3.69121 0
M  V30 5684 H 582.565 2.57123 2.90705 0
M  V30 5685 H 580.666 0.242669 3.71809 0
M  V30 5686 H 580.779 2.01974 4.34446 0
M  V30 5687 H 579.143 0.985217 2.34874 0
M  V30 5688 H 579.926 2.64851 2.18423 0
M  V30 5689 N 582.371 -1.3172 0.865308 0
M  V30 5690 C 583.281 -2.32394 0.320935 0
M  V30 5691 C 584.297 -1.64511 -0.566746 0
M  V30 5692 O 585.473 -1.95969 -0.464575 0
M  V30 5693 C 582.538 -3.43462 -0.472701 0
M  V30 5694 C 581.599 -4.27015 0.442385 0
M  V30 5695 C 580.832 -5.32779 -0.313469 0
M  V30 5696 O 581.055 -5.49158 -1.54214 0
M  V30 5697 O 579.989 -6.01015 0.326257 0
M  V30 5698 H 583.815 -2.80868 1.15528 0
M  V30 5699 H 581.4 -1.35535 0.628545 0
M  V30 5700 H 583.282 -4.11172 -0.922781 0
M  V30 5701 H 581.957 -2.97159 -1.28367 0
M  V30 5702 H 580.864 -3.62075 0.940866 0
M  V30 5703 H 582.197 -4.76871 1.21882 0
M  V30 5704 N 583.85 -0.624285 -1.44708 0
M  V30 5705 C 585.098 -0.125802 -2.01708 0
M  V30 5706 C 585.418 1.2543 -1.49306 0
M  V30 5707 O 584.689 1.83198 -0.693924 0
M  V30 5708 H 583.269 -0.0435161 -0.745731 0
M  V30 5709 H 585.931 -0.809446 -1.77296 0
M  V30 5710 H 585.027 -0.0882734 -3.11975 0
M  V30 5711 N 585.328 1.53329 -0.364422 0
M  V30 5712 C 586.291 2.24323 0.470292 0
M  V30 5713 C 587.291 1.25068 1.01067 0
M  V30 5714 O 588.481 1.49354 0.896605 0
M  V30 5715 C 585.613 2.97908 1.65722 0
M  V30 5716 H 586.806 2.9952 -0.150917 0
M  V30 5717 H 584.359 1.55868 -0.116092 0
M  V30 5718 H 585.094 2.2695 2.31655 0
M  V30 5719 H 584.879 3.70732 1.27671 0
M  V30 5720 H 586.369 3.5188 2.24878 0
M  V30 5721 N 586.806 0.0935595 1.57322 0
M  V30 5722 C 588.222 -0.263091 1.57417 0
M  V30 5723 C 588.422 -1.68526 1.1046 0
M  V30 5724 O 587.478 -2.40139 0.780357 0
M  V30 5725 C 588.791 -0.0529201 3.00653 0
M  V30 5726 C 590.339 -0.120788 3.12767 0
M  V30 5727 C 590.814 0.0613707 4.57959 0
M  V30 5728 N 592.305 0.00648534 4.632 0
M  V30 5729 C 593.04 0.122699 5.73269 0
M  V30 5730 N 592.536 0.29366 6.92177 0
M  V30 5731 N 594.329 0.0640787 5.62063 0
M  V30 5732 H 586.48 1.02277 1.86154 0
M  V30 5733 H 588.743 0.4007 0.859153 0
M  V30 5734 H 588.449 0.929279 3.39201 0
M  V30 5735 H 588.323 -0.795899 3.68708 0
M  V30 5736 H 590.71 -1.09349 2.74093 0
M  V30 5737 H 590.791 0.653656 2.47307 0
M  V30 5738 H 590.435 1.03093 4.97327 0
M  V30 5739 H 590.365 -0.732748 5.21477 0
M  V30 5740 H 592.856 -0.123173 3.77699 0
M  V30 5741 H 593.169 0.37389 7.71895 0
M  V30 5742 H 591.514 0.329307 6.94219 0
M  V30 5743 H 594.705 -0.0683396 4.6805 0
M  V30 5744 H 594.878 0.158097 6.47807 0
M  V30 5745 N 588.284 -1.56567 -0.180126 0
M  V30 5746 C 589.194 -1.98947 -1.24327 0
M  V30 5747 C 590.21 -0.899446 -1.4895 0
M  V30 5748 O 591.386 -1.20639 -1.61271 0
M  V30 5749 C 588.451 -2.33328 -2.56435 0
M  V30 5750 C 587.512 -3.56114 -2.39752 0
M  V30 5751 C 586.745 -3.88845 -3.65561 0
M  V30 5752 O 586.968 -3.22662 -4.70368 0
M  V30 5753 O 585.902 -4.82226 -3.60197 0
M  V30 5754 H 589.728 -2.89634 -0.913565 0
M  V30 5755 H 587.313 -1.44319 -0.386306 0
M  V30 5756 H 589.195 -2.5645 -3.34382 0
M  V30 5757 H 587.87 -1.45806 -2.89002 0
M  V30 5758 H 586.777 -3.38221 -1.59866 0
M  V30 5759 H 588.11 -4.4415 -2.12113 0
M  V30 5760 N 589.762 0.448376 -1.51087 0
M  V30 5761 C 590.692 1.55102 -1.74544 0
M  V30 5762 C 591.673 1.59357 -0.594932 0
M  V30 5763 O 592.858 1.75261 -0.836491 0
M  V30 5764 C 589.988 2.93268 -1.86041 0
M  V30 5765 C 588.942 3.03877 -3.01402 0
M  V30 5766 C 588.268 4.43914 -2.98068 0
M  V30 5767 C 589.568 2.7898 -4.41551 0
M  V30 5768 H 591.262 1.35724 -2.66869 0
M  V30 5769 H 588.808 0.651498 -1.28419 0
M  V30 5770 H 590.761 3.70356 -2.01034 0
M  V30 5771 H 589.485 3.13853 -0.903548 0
M  V30 5772 H 588.144 2.29227 -2.86096 0
M  V30 5773 H 587.792 4.6145 -2.00182 0
M  V30 5774 H 587.492 4.51944 -3.75527 0
M  V30 5775 H 589.016 5.22991 -3.1514 0
M  V30 5776 H 590.43 3.45805 -4.57265 0
M  V30 5777 H 588.827 2.98431 -5.20633 0
M  V30 5778 H 589.897 1.74663 -4.5235 0
M  V30 5779 N 591.24 1.41047 0.703093 0
M  V30 5780 C 592.465 1.43537 1.49706 0
M  V30 5781 C 592.89 0.0401853 1.88057 0
M  V30 5782 O 592.248 -0.954785 1.54122 0
M  V30 5783 C 592.296 2.3433 2.74084 0
M  V30 5784 O 591.4 1.79515 3.71279 0
M  V30 5785 H 590.741 0.487454 0.450871 0
M  V30 5786 H 593.271 1.85422 0.86486 0
M  V30 5787 H 593.281 2.49947 3.22476 0
M  V30 5788 H 591.956 3.35708 2.45506 0
M  V30 5789 H 590.533 1.7331 3.30179 0
M  V30 5790 N 592.718 -0.936591 1.26751 0
M  V30 5791 C 594.129 -1.49816 1.1141 0
M  V30 5792 C 594.48 -1.9383 -0.304015 0
M  V30 5793 O 593.605 -1.80346 -1.196 0
M  V30 5794 C 594.2 -2.72271 2.01629 0
M  V30 5795 C 592.759 -3.2468 1.9042 0
M  V30 5796 C 591.906 -1.97444 1.94708 0
M  V30 5797 H 594.857 -0.751604 1.39773 0
M  V30 5798 H 594.878 -3.46741 1.56688 0
M  V30 5799 H 594.39 -2.40205 3.04833 0
M  V30 5800 H 592.491 -3.61525 0.901674 0
M  V30 5801 H 592.604 -3.91476 2.76195 0
M  V30 5802 H 590.968 -2.13545 1.38818 0
M  V30 5803 H 591.751 -1.67703 2.9955 0
M  V30 5804 N 594.196 -1.08629 -1.14182 0
M  V30 5805 C 595.126 -0.740003 -2.21464 0
M  V30 5806 C 596.107 0.278591 -1.67803 0
M  V30 5807 O 597.292 0.148461 -1.93632 0
M  V30 5808 C 594.422 -0.150952 -3.46972 0
M  V30 5809 C 593.376 -1.09815 -4.13672 0
M  V30 5810 C 592.702 -0.3712 -5.3341 0
M  V30 5811 C 594.002 -2.43722 -4.61949 0
M  V30 5812 H 595.696 -1.63697 -2.50686 0
M  V30 5813 H 593.242 -0.788526 -1.20492 0
M  V30 5814 H 595.195 0.103325 -4.21273 0
M  V30 5815 H 593.919 0.781164 -3.1712 0
M  V30 5816 H 592.578 -1.33756 -3.41328 0
M  V30 5817 H 592.226 0.564792 -4.99819 0
M  V30 5818 H 591.926 -1.00267 -5.78982 0
M  V30 5819 H 593.45 -0.12503 -6.10472 0
M  V30 5820 H 594.864 -2.24034 -5.27714 0
M  V30 5821 H 593.261 -3.02582 -5.18232 0
M  V30 5822 H 594.331 -3.05082 -3.76899 0
M  V30 5823 N 595.674 1.31259 -0.872281 0
M  V30 5824 C 596.606 2.27396 -0.28697 0
M  V30 5825 C 597.619 1.53181 0.551297 0
M  V30 5826 O 598.808 1.74561 0.372914 0
M  V30 5827 C 595.908 3.33335 0.611617 0
M  V30 5828 C 595.081 4.36966 -0.194729 0
M  V30 5829 C 594.14 5.22387 0.632358 0
M  V30 5830 O 593.166 5.69169 0.0595691 0
M  V30 5831 N 594.368 5.46985 1.94391 0
M  V30 5832 H 597.133 2.78261 -1.11314 0
M  V30 5833 H 594.694 1.44306 -0.733994 0
M  V30 5834 H 596.686 3.87398 1.17068 0
M  V30 5835 H 595.256 2.82496 1.33846 0
M  V30 5836 H 594.476 3.82945 -0.935241 0
M  V30 5837 H 595.764 5.03273 -0.747935 0
M  V30 5838 H 595.162 5.10737 2.43237 0
M  V30 5839 H 593.719 6.03973 2.45071 0
M  V30 5840 N 597.152 0.631951 1.44375 0
M  V30 5841 C 598.062 -0.073674 2.34484 0
M  V30 5842 C 599.078 -0.834825 1.52665 0
M  V30 5843 O 600.254 -0.786902 1.85391 0
M  V30 5844 C 597.319 -1.04247 3.30656 0
M  V30 5845 C 596.38 -0.280602 4.28382 0
M  V30 5846 C 595.613 -1.20325 5.19959 0
M  V30 5847 O 595.836 -2.44199 5.15484 0
M  V30 5848 O 594.77 -0.687128 5.97965 0
M  V30 5849 H 598.596 0.667477 2.96274 0
M  V30 5850 H 596.181 0.392144 1.44162 0
M  V30 5851 H 598.063 -1.59981 3.89851 0
M  V30 5852 H 596.738 -1.76422 2.71398 0
M  V30 5853 H 595.645 0.319804 3.72731 0
M  V30 5854 H 596.978 0.401144 4.90563 0
M  V30 5855 N 598.631 -1.53133 0.372548 0
M  V30 5856 C 599.856 -2.0625 -0.218098 0
M  V30 5857 C 600.281 -1.24375 -1.41111 0
M  V30 5858 O 599.639 -0.264554 -1.79359 0
M  V30 5859 C 599.687 -3.55858 -0.582876 0
M  V30 5860 O 598.791 -3.76667 -1.67917 0
M  V30 5861 H 598.132 -0.663317 -0.030104 0
M  V30 5862 H 600.662 -1.97477 0.535169 0
M  V30 5863 H 600.672 -3.99007 -0.851925 0
M  V30 5864 H 599.347 -4.14892 0.289428 0
M  V30 5865 H 597.924 -3.45413 -1.40513 0
M  V30 5866 N 600.109 -0.101901 -1.5727 0
M  V30 5867 C 601.334 0.571759 -1.99363 0
M  V30 5868 C 601.759 1.60507 -0.980768 0
M  V30 5869 O 601.117 1.81231 0.0498517 0
M  V30 5870 C 601.165 1.18996 -3.404 0
M  V30 5871 O 600.269 2.30572 -3.41922 0
M  V30 5872 H 599.61 0.144449 -0.648098 0
M  V30 5873 H 602.14 -0.185325 -2.03759 0
M  V30 5874 H 602.15 1.52962 -3.78241 0
M  V30 5875 H 600.825 0.432984 -4.1364 0
M  V30 5876 H 599.402 1.98173 -3.15883 0
M  V30 5877 N 601.587 1.56661 0.17182 0
M  V30 5878 C 602.812 1.86459 0.908165 0
M  V30 5879 C 603.237 0.688181 1.75059 0
M  V30 5880 O 602.595 -0.362753 1.77634 0
M  V30 5881 C 602.643 3.14669 1.76112 0
M  V30 5882 O 601.747 2.96858 2.86268 0
M  V30 5883 H 601.088 0.613318 0.254434 0
M  V30 5884 H 603.618 2.03892 0.170113 0
M  V30 5885 H 603.628 3.46061 2.16115 0
M  V30 5886 H 602.303 3.99905 1.14233 0
M  V30 5887 H 600.88 2.76819 2.49852 0
M  V30 5888 N 603.065 -0.440357 1.51323 0
M  V30 5889 C 604.476 -1.02032 1.56353 0
M  V30 5890 C 604.827 -1.92382 0.385197 0
M  V30 5891 O 603.952 -2.10583 -0.498373 0
M  V30 5892 C 604.547 -1.85723 2.83359 0
M  V30 5893 C 603.106 -2.38774 2.90971 0
M  V30 5894 C 602.253 -1.17908 2.50984 0
M  V30 5895 H 605.204 -0.221744 1.57143 0
M  V30 5896 H 605.225 -2.71141 2.66951 0
M  V30 5897 H 604.737 -1.19939 3.69102 0
M  V30 5898 H 602.838 -3.08021 2.09651 0
M  V30 5899 H 602.951 -2.71778 3.94555 0
M  V30 5900 H 601.315 -1.52347 2.04114 0
M  V30 5901 H 602.098 -0.537393 3.39068 0
M  V30 5902 N 604.543 -1.41418 -0.695603 0
M  V30 5903 C 605.791 -1.40496 -1.45277 0
M  V30 5904 C 606.112 -0.0149538 -1.94994 0
M  V30 5905 O 605.382 0.9432 -1.71699 0
M  V30 5906 H 603.962 -0.517147 -0.539044 0
M  V30 5907 H 606.624 -1.76656 -0.823321 0
M  V30 5908 H 605.72 -2.09214 -2.31595 0
M  V30 5909 N 606.021 0.929856 -1.27246 0
M  V30 5910 C 607.269 1.674 -1.13233 0
M  V30 5911 C 607.59 1.92311 0.322744 0
M  V30 5912 O 606.86 1.52784 1.22612 0
M  V30 5913 H 605.44 0.620411 -0.416052 0
M  V30 5914 H 608.102 1.11663 -1.59741 0
M  V30 5915 H 607.198 2.64308 -1.65975 0
M  V30 5916 N 607.499 1.09233 1.13605 0
M  V30 5917 C 608.745 0.828385 1.8511 0
M  V30 5918 C 609.078 -0.64437 1.83198 0
M  V30 5919 O 608.353 -1.47428 1.26867 0
M  V30 5920 C 608.636 1.36167 3.33363 0
M  V30 5921 C 608.489 2.90038 3.438 0
M  V30 5922 C 609.808 0.993819 4.28732 0
M  V30 5923 H 606.927 0.30239 0.672108 0
M  V30 5924 H 609.569 1.35339 1.33355 0
M  V30 5925 H 607.719 0.9151 3.77569 0
M  V30 5926 H 609.391 3.43128 3.08319 0
M  V30 5927 H 607.634 3.27271 2.84739 0
M  V30 5928 H 608.305 3.22428 4.48045 0
M  V30 5929 H 610.781 1.37893 3.92587 0
M  V30 5930 H 609.657 1.39403 5.30903 0
M  V30 5931 H 609.918 -0.0982206 4.41991 0
M  V30 5932 N 608.977 -1.30795 0.87923 0
M  V30 5933 C 609.924 -2.28282 0.339968 0
M  V30 5934 C 610.894 -1.56134 -0.566685 0
M  V30 5935 O 612.079 -1.84231 -0.496338 0
M  V30 5936 C 609.219 -3.42225 -0.444501 0
M  V30 5937 C 608.332 -4.29204 0.490717 0
M  V30 5938 C 607.467 -5.30302 -0.308784 0
M  V30 5939 C 606.506 -6.08929 0.622272 0
M  V30 5940 N 605.643 -7.01957 -0.14155 0
M  V30 5941 H 610.483 -2.73794 1.17647 0
M  V30 5942 H 608.02 -1.34682 0.591527 0
M  V30 5943 H 609.978 -4.07038 -0.915186 0
M  V30 5944 H 608.608 -2.97799 -1.24562 0
M  V30 5945 H 607.66 -3.6475 1.07988 0
M  V30 5946 H 608.972 -4.84045 1.20425 0
M  V30 5947 H 608.126 -6.00835 -0.841575 0
M  V30 5948 H 606.865 -4.7614 -1.05556 0
M  V30 5949 H 605.87 -5.37278 1.16674 0
M  V30 5950 H 607.095 -6.65178 1.36804 0
M  V30 5951 H 605.041 -6.50192 -0.870966 0
M  V30 5952 H 604.958 -7.54261 0.51246 0
M  V30 5953 H 606.226 -7.76741 -0.655271 0
M  V30 5954 N 610.455 -0.639598 -1.44038 0
M  V30 5955 C 611.418 0.0506628 -2.29144 0
M  V30 5956 C 612.418 0.764001 -1.41491 0
M  V30 5957 O 613.608 0.607309 -1.63271 0
M  V30 5958 C 610.74 1.0824 -3.2326 0
M  V30 5959 H 611.933 -0.697987 -2.91664 0
M  V30 5960 H 609.486 -0.400146 -1.51091 0
M  V30 5961 H 610.221 1.86075 -2.65606 0
M  V30 5962 H 610.006 0.574725 -3.87865 0
M  V30 5963 H 611.496 1.56487 -3.87171 0
M  V30 5964 N 611.933 1.52934 -0.380664 0
M  V30 5965 C 612.843 2.29921 0.466192 0
M  V30 5966 C 613.859 1.36488 1.07922 0
M  V30 5967 O 615.035 1.69553 1.0869 0
M  V30 5968 C 612.1 3.08468 1.58266 0
M  V30 5969 C 611.161 4.17595 0.995627 0
M  V30 5970 C 610.394 4.92387 2.05889 0
M  V30 5971 O 610.617 4.67184 3.27254 0
M  V30 5972 O 609.551 5.77949 1.68102 0
M  V30 5973 H 613.377 3.03274 -0.160735 0
M  V30 5974 H 610.962 1.48698 -0.144617 0
M  V30 5975 H 612.844 3.57469 2.23145 0
M  V30 5976 H 611.519 2.37937 2.19471 0
M  V30 5977 H 610.426 3.72811 0.310332 0
M  V30 5978 H 611.759 4.90336 0.427918 0
M  V30 5979 N 613.412 0.11024 1.57214 0
M  V30 5980 C 614.322 -0.857077 2.18383 0
M  V30 5981 C 615.338 -1.29915 1.1575 0
M  V30 5982 O 616.514 -1.36394 1.48184 0
M  V30 5983 C 613.579 -2.09264 2.76423 0
M  V30 5984 C 612.64 -1.70333 3.94063 0
M  V30 5985 C 611.873 -2.87999 4.49324 0
M  V30 5986 O 612.096 -4.0317 4.03497 0
M  V30 5987 O 611.03 -2.6559 5.40135 0
M  V30 5988 H 614.856 -0.366561 3.0148 0
M  V30 5989 H 612.441 -0.114914 1.48957 0
M  V30 5990 H 614.323 -2.81644 3.13456 0
M  V30 5991 H 612.998 -2.57339 1.96363 0
M  V30 5992 H 611.905 -0.950864 3.61814 0
M  V30 5993 H 613.238 -1.27007 4.75531 0
M  V30 5994 N 614.89 -1.56749 -0.16351 0
M  V30 5995 C 615.8 -2.00255 -1.2221 0
M  V30 5996 C 616.816 -0.915194 -1.47987 0
M  V30 5997 O 617.992 -1.22342 -1.59982 0
M  V30 5998 C 615.057 -2.36035 -2.53946 0
M  V30 5999 C 614.118 -3.58637 -2.35962 0
M  V30 6000 C 613.351 -3.92701 -3.61416 0
M  V30 6001 O 613.574 -3.27632 -4.66919 0
M  V30 6002 O 612.508 -4.86019 -3.55062 0
M  V30 6003 H 616.334 -2.90586 -0.882794 0
M  V30 6004 H 613.919 -1.44721 -0.370978 0
M  V30 6005 H 615.801 -2.59982 -3.31643 0
M  V30 6006 H 614.476 -1.48863 -2.8744 0
M  V30 6007 H 613.383 -3.39898 -1.5627 0
M  V30 6008 H 614.716 -4.46374 -2.0739 0
M  V30 6009 N 616.368 0.432326 -1.51554 0
M  V30 6010 C 617.3 1.54357 -1.6943 0
M  V30 6011 C 618.313 1.52311 -0.574897 0
M  V30 6012 O 619.502 1.56997 -0.849369 0
M  V30 6013 C 616.602 2.93273 -1.69836 0
M  V30 6014 C 615.775 3.19768 -2.98442 0
M  V30 6015 C 614.834 4.38433 -2.90969 0
M  V30 6016 O 613.86 4.36842 -3.64908 0
M  V30 6017 N 615.062 5.42276 -2.07163 0
M  V30 6018 H 617.827 1.39426 -2.65293 0
M  V30 6019 H 615.388 0.621331 -1.49503 0
M  V30 6020 H 617.38 3.70687 -1.62399 0
M  V30 6021 H 615.95 3.01777 -0.815456 0
M  V30 6022 H 615.17 2.30607 -3.19709 0
M  V30 6023 H 616.458 3.343 -3.83563 0
M  V30 6024 H 615.856 5.46407 -1.46477 0
M  V30 6025 H 614.413 6.18524 -2.05601 0
M  V30 6026 N 617.846 1.41785 0.688094 0
M  V30 6027 C 619.262 1.24419 0.999608 0
M  V30 6028 C 619.462 0.138868 2.01021 0
M  V30 6029 O 618.518 -0.494283 2.47615 0
M  V30 6030 C 619.831 2.59625 1.51709 0
M  V30 6031 C 621.379 2.66869 1.63554 0
M  V30 6032 C 621.854 4.0241 2.18702 0
M  V30 6033 N 623.345 4.04295 2.26053 0
M  V30 6034 C 624.08 5.05977 2.69768 0
M  V30 6035 N 623.576 6.18047 3.13033 0
M  V30 6036 N 625.369 4.93336 2.69398 0
M  V30 6037 H 617.52 2.12392 0.0187427 0
M  V30 6038 H 619.783 0.945347 0.0708673 0
M  V30 6039 H 619.489 3.41297 0.849059 0
M  V30 6040 H 619.363 2.82628 2.49803 0
M  V30 6041 H 621.75 1.8555 2.29467 0
M  V30 6042 H 621.831 2.47668 0.639857 0
M  V30 6043 H 621.475 4.8418 1.53402 0
M  V30 6044 H 621.405 4.18955 3.19037 0
M  V30 6045 H 623.896 3.23383 1.9553 0
M  V30 6046 H 624.209 6.91498 3.45038 0
M  V30 6047 H 622.554 6.21572 3.10923 0
M  V30 6048 H 625.745 4.04865 2.34952 0
M  V30 6049 H 625.918 5.72717 3.03148 0
M  V30 6050 N 619.324 -0.923095 1.27737 0
M  V30 6051 C 620.287 -2.00587 1.10894 0
M  V30 6052 C 621.287 -1.60718 0.0514927 0
M  V30 6053 O 622.477 -1.71658 0.296481 0
M  V30 6054 C 619.609 -3.33829 0.690717 0
M  V30 6055 H 620.802 -2.16959 2.07048 0
M  V30 6056 H 618.355 -1.10451 1.1059 0
M  V30 6057 H 619.09 -3.23157 -0.272 0
M  V30 6058 H 618.875 -3.64125 1.45448 0
M  V30 6059 H 620.365 -4.13336 0.595252 0
M  V30 6060 N 620.802 -1.09834 -1.13024 0
M  V30 6061 C 622.05 -0.835297 -1.8403 0
M  V30 6062 C 622.371 0.640944 -1.84165 0
M  V30 6063 O 621.641 1.46517 -1.30037 0
M  V30 6064 H 620.221 -0.306018 -0.681441 0
M  V30 6065 H 622.883 -1.38734 -1.36891 0
M  V30 6066 H 621.979 -1.19258 -2.88416 0
M  V30 6067 N 622.28 1.30327 -0.886154 0
M  V30 6068 C 623.243 2.26376 -0.358687 0
M  V30 6069 C 624.243 1.52845 0.499498 0
M  V30 6070 O 625.433 1.71483 0.306485 0
M  V30 6071 C 622.565 3.37379 0.488726 0
M  V30 6072 H 623.758 2.74547 -1.20681 0
M  V30 6073 H 621.311 1.41536 -0.663113 0
M  V30 6074 H 622.046 2.94526 1.35739 0
M  V30 6075 H 621.831 3.91897 -0.126003 0
M  V30 6076 H 623.321 4.08868 0.84952 0
M  V30 6077 N 623.758 0.647228 1.43697 0
M  V30 6078 C 624.668 -0.0487997 2.34549 0
M  V30 6079 C 625.684 -0.818586 1.53542 0
M  V30 6080 O 626.86 -0.767195 1.86215 0
M  V30 6081 C 623.925 -1.00734 3.31743 0
M  V30 6082 C 622.986 -0.23515 4.28655 0
M  V30 6083 C 622.219 -1.14803 5.21206 0
M  V30 6084 O 622.442 -2.38717 5.18045 0
M  V30 6085 O 621.376 -0.623667 5.9866 0
M  V30 6086 H 625.202 0.698863 2.9555 0
M  V30 6087 H 622.787 0.407412 1.43738 0
M  V30 6088 H 624.669 -1.55837 3.91526 0
M  V30 6089 H 623.344 -1.73534 2.73254 0
M  V30 6090 H 622.251 0.359319 3.7237 0
M  V30 6091 H 623.584 0.453152 4.9011 0
M  V30 6092 N 625.236 -1.5273 0.388769 0
M  V30 6093 C 626.647 -1.86505 -0.0853788 0
M  V30 6094 C 626.998 -1.30847 -1.46197 0
M  V30 6095 O 626.123 -0.639609 -2.06732 0
M  V30 6096 C 626.718 -3.38414 -0.161703 0
M  V30 6097 C 625.277 -3.71902 -0.580144 0
M  V30 6098 C 624.424 -2.76095 0.258218 0
M  V30 6099 H 627.375 -1.46647 0.606665 0
M  V30 6100 H 627.396 -3.67638 -0.980936 0
M  V30 6101 H 626.908 -3.78893 0.840333 0
M  V30 6102 H 625.009 -3.36992 -1.58957 0
M  V30 6103 H 625.122 -4.77902 -0.338663 0
M  V30 6104 H 623.486 -2.53195 -0.276432 0
M  V30 6105 H 624.269 -3.19411 1.25822 0
M  V30 6106 N 626.714 -0.118576 -1.57153 0
M  V30 6107 C 627.962 0.538461 -1.94795 0
M  V30 6108 C 628.283 1.67243 -1.00274 0
M  V30 6109 O 627.553 1.95811 -0.0589692 0
M  V30 6110 H 626.133 0.201904 -0.719197 0
M  V30 6111 H 628.795 -0.187418 -1.93997 0
M  V30 6112 H 627.891 0.933315 -2.97818 0
M  V30 6113 N 628.193 1.56834 0.155195 0
M  V30 6114 C 629.421 1.87049 0.884326 0
M  V30 6115 C 629.836 0.705839 1.7511 0
M  V30 6116 O 629.193 -0.324641 1.79589 0
M  V30 6117 C 629.244 3.1644 1.74781 0
M  V30 6118 O 628.965 4.28417 0.915978 0
M  V30 6119 C 630.466 3.60113 2.58522 0
M  V30 6120 H 627.686 0.620196 0.25612 0
M  V30 6121 H 630.23 2.03946 0.150445 0
M  V30 6122 H 628.385 3.01321 2.43484 0
M  V30 6123 H 628.799 5.02353 1.50803 0
M  V30 6124 H 630.273 4.53508 3.14698 0
M  V30 6125 H 630.75 2.85005 3.34169 0
M  V30 6126 H 631.356 3.77898 1.95124 0
M  V30 6127 N 629.671 -0.424282 1.51781 0
M  V30 6128 C 631.087 -0.761768 1.40247 0
M  V30 6129 C 631.287 -1.95324 0.495041 0
M  V30 6130 O 630.343 -2.5246 -0.0448949 0
M  V30 6131 C 631.656 -1.0299 2.82513 0
M  V30 6132 C 633.204 -1.13354 2.91753 0
M  V30 6133 C 633.679 -1.43453 4.34954 0
M  V30 6134 N 635.17 -1.5035 4.3812 0
M  V30 6135 C 635.905 -1.75236 5.45967 0
M  V30 6136 N 635.401 -1.97827 6.63955 0
M  V30 6137 N 637.194 -1.77126 5.33463 0
M  V30 6138 H 629.345 0.360228 2.09323 0
M  V30 6139 H 631.608 0.0988128 0.942836 0
M  V30 6140 H 631.314 -0.226961 3.50967 0
M  V30 6141 H 631.188 -1.95411 3.22637 0
M  V30 6142 H 633.575 -1.92709 2.23489 0
M  V30 6143 H 633.656 -0.188041 2.55108 0
M  V30 6144 H 633.3 -0.646209 5.03772 0
M  V30 6145 H 633.23 -2.3923 4.69123 0
M  V30 6146 H 635.721 -1.34742 3.53062 0
M  V30 6147 H 636.034 -2.16223 7.41935 0
M  V30 6148 H 634.379 -1.95123 6.67047 0
M  V30 6149 H 637.57 -1.59005 4.40267 0
M  V30 6150 H 637.743 -1.96182 6.17589 0
M  V30 6151 N 631.149 -1.42148 -0.680565 0
M  V30 6152 C 632.56 -1.3768 -1.26099 0
M  V30 6153 C 632.911 -0.0672348 -1.96085 0
M  V30 6154 O 632.036 0.834172 -1.99676 0
M  V30 6155 C 632.631 -2.49387 -2.29328 0
M  V30 6156 C 631.19 -2.4827 -2.82911 0
M  V30 6157 C 630.337 -2.2847 -1.57152 0
M  V30 6158 H 633.288 -1.51446 -0.474326 0
M  V30 6159 H 633.309 -2.19307 -3.10941 0
M  V30 6160 H 632.821 -3.44686 -1.78363 0
M  V30 6161 H 630.922 -1.56773 -3.38013 0
M  V30 6162 H 631.035 -3.45109 -3.3232 0
M  V30 6163 H 629.399 -1.76623 -1.83511 0
M  V30 6164 H 630.182 -3.25816 -1.0816 0
M  V30 6165 N 632.627 0.916307 -1.28225 0
M  V30 6166 C 633.852 1.7043 -1.18188 0
M  V30 6167 C 634.277 1.86346 0.256274 0
M  V30 6168 O 633.635 1.37175 1.18544 0
M  V30 6169 C 633.683 3.07546 -1.88275 0
M  V30 6170 O 632.787 3.94904 -1.18848 0
M  V30 6171 H 632.128 0.521967 -0.410423 0
M  V30 6172 H 634.658 1.14589 -1.69501 0
M  V30 6173 H 634.668 3.57793 -1.96082 0
M  V30 6174 H 633.343 2.95279 -2.92887 0
M  V30 6175 H 631.92 3.53339 -1.19187 0
M  V30 6176 N 634.105 1.10431 1.1244 0
M  V30 6177 C 635.035 0.775143 2.20258 0
M  V30 6178 C 636.016 -0.25186 1.68225 0
M  V30 6179 O 637.201 -0.117637 1.93843 0
M  V30 6180 C 634.331 0.206133 3.46688 0
M  V30 6181 C 633.285 1.16382 4.11873 0
M  V30 6182 C 632.611 0.456014 5.32752 0
M  V30 6183 C 633.911 2.5104 4.58013 0
M  V30 6184 H 635.605 1.67665 2.4805 0
M  V30 6185 H 633.151 0.807595 1.19222 0
M  V30 6186 H 635.104 -0.036291 4.21384 0
M  V30 6187 H 633.828 -0.730614 3.18323 0
M  V30 6188 H 632.487 1.39169 3.39157 0
M  V30 6189 H 632.135 -0.485203 5.00654 0
M  V30 6190 H 631.835 1.09466 5.77314 0
M  V30 6191 H 633.359 0.222135 6.10196 0
M  V30 6192 H 634.773 2.32401 5.24083 0
M  V30 6193 H 633.17 3.10789 5.13352 0
M  V30 6194 H 634.24 3.11039 3.71998 0
M  V30 6195 N 635.583 -1.29855 0.893053 0
M  V30 6196 C 636.546 -2.26183 0.370687 0
M  V30 6197 C 637.546 -1.53108 -0.491385 0
M  V30 6198 O 638.736 -1.71643 -0.297386 0
M  V30 6199 C 635.868 -3.37633 -0.470827 0
M  V30 6200 H 637.061 -2.73903 1.22135 0
M  V30 6201 H 634.614 -1.41183 0.67061 0
M  V30 6202 H 635.349 -2.95241 -1.34175 0
M  V30 6203 H 635.134 -3.91825 0.146784 0
M  V30 6204 H 636.624 -4.09313 -0.827825 0
M  V30 6205 N 637.061 -0.65484 -1.43351 0
M  V30 6206 C 638.477 -0.32255 -1.56307 0
M  V30 6207 C 638.677 1.17324 -1.63821 0
M  V30 6208 O 637.733 1.95813 -1.59417 0
M  V30 6209 C 639.046 -1.03533 -2.82314 0
M  V30 6210 C 640.594 -1.01574 -2.9606 0
M  V30 6211 C 641.069 -1.70945 -4.24902 0
M  V30 6212 N 642.56 -1.67716 -4.3177 0
M  V30 6213 C 643.295 -2.18265 -5.30234 0
M  V30 6214 N 642.791 -2.7711 -6.34966 0
M  V30 6215 N 644.584 -2.08756 -5.21898 0
M  V30 6216 H 636.735 -1.62549 -1.36717 0
M  V30 6217 H 638.998 -0.683676 -0.656727 0
M  V30 6218 H 638.704 -2.09045 -2.8283 0
M  V30 6219 H 638.578 -0.587913 -3.7259 0
M  V30 6220 H 640.965 0.0309834 -2.95084 0
M  V30 6221 H 641.046 -1.50186 -2.07069 0
M  V30 6222 H 640.69 -2.75574 -4.26639 0
M  V30 6223 H 640.62 -1.19797 -5.12793 0
M  V30 6224 H 643.111 -1.24777 -3.56706 0
M  V30 6225 H 643.424 -3.13353 -7.06421 0
M  V30 6226 H 641.769 -2.81171 -6.35585 0
M  V30 6227 H 644.96 -1.62488 -4.38994 0
M  V30 6228 H 645.133 -2.48459 -5.98475 0
M  V30 6229 N 638.539 1.52521 -0.396863 0
M  V30 6230 C 639.764 2.06571 0.185258 0
M  V30 6231 C 640.189 1.26605 1.39115 0
M  V30 6232 O 639.547 0.293055 1.78916 0
M  V30 6233 C 639.595 3.5674 0.526189 0
M  V30 6234 O 638.699 3.7929 1.61903 0
M  V30 6235 H 638.04 0.663712 0.0195474 0
M  V30 6236 H 640.57 1.966 -0.566519 0
M  V30 6237 H 640.58 4.00311 0.788338 0
M  V30 6238 H 639.255 4.14379 -0.355397 0
M  V30 6239 H 637.832 3.47605 1.35 0
M  V30 6240 N 640.017 0.126909 1.57088 0
M  V30 6241 C 641.294 -0.573152 1.87014 0
M  V30 6242 C 641.674 -1.84297 1.02945 0
M  V30 6243 O 641.022 -2.28232 0.110573 0
M  V30 6244 C 641.232 -0.857984 3.38289 0
M  V30 6245 C 642.58 -1.20759 4.07066 0
M  V30 6246 O 643.604 -0.947992 3.43353 0
M  V30 6247 O 642.463 -1.69516 5.19545 0
M  V30 6248 H 639.557 -0.290082 0.774456 0
M  V30 6249 H 642.103 0.162008 1.68925 0
M  V30 6250 H 640.875 0.0415286 3.91278 0
M  V30 6251 H 640.498 -1.64803 3.61837 0
M  V30 6252 N 641.495 -1.56914 -0.146875 0
M  V30 6253 C 642.772 -1.74273 -0.888165 0
M  V30 6254 C 643.152 -0.69496 -1.99333 0
M  V30 6255 O 642.5 0.286093 -2.26702 0
M  V30 6256 C 642.71 -3.18336 -1.43051 0
M  V30 6257 C 644.058 -3.80024 -1.89387 0
M  V30 6258 O 645.082 -3.21765 -1.52792 0
M  V30 6259 O 643.941 -4.82367 -2.56874 0
M  V30 6260 H 641.035 -0.712565 -0.419738 0
M  V30 6261 H 643.581 -1.6918 -0.132791 0
M  V30 6262 H 642.353 -3.86092 -0.636274 0
M  V30 6263 H 641.976 -3.27854 -2.24938 0
M  V30 6264 N 642.974 0.416227 -1.52004 0
M  V30 6265 C 643.922 1.5272 -1.7544 0
M  V30 6266 C 644.916 1.57596 -0.621289 0
M  V30 6267 O 646.122 1.61087 -0.803172 0
M  V30 6268 H 642.497 0.507772 -0.554682 0
M  V30 6269 H 644.468 1.30136 -2.68528 0
M  V30 6270 C 643.217 2.90165 -1.91571 0
M  V30 6271 H 642.54 2.87154 -2.78178 0
M  V30 6272 H 643.98 3.67211 -2.11972 0
M  V30 6273 C 642.439 3.29947 -0.680942 0
M  V30 6274 O 642.969 4.01403 0.154527 0
M  V30 6275 N 641.175 2.8593 -0.518894 0
M  V30 6276 H 640.722 2.2795 -1.19986 0
M  V30 6277 H 640.68 3.12907 0.305985 0
M  V30 6278 N 644.452 1.42507 0.673017 0
M  V30 6279 C 645.729 1.33554 1.42908 0
M  V30 6280 C 646.109 -0.0262211 2.11084 0
M  V30 6281 O 645.457 -1.04181 2.03368 0
M  V30 6282 C 645.667 2.50498 2.43006 0
M  V30 6283 C 647.015 2.92694 3.07596 0
M  V30 6284 O 648.039 2.50401 2.53333 0
M  V30 6285 O 646.898 3.65899 4.05931 0
M  V30 6286 H 643.992 0.526785 0.637516 0
M  V30 6287 H 646.538 1.54518 0.701591 0
M  V30 6288 H 645.31 3.41272 1.9144 0
M  V30 6289 H 644.933 2.3153 3.23233 0
M  V30 6290 N 645.93 -0.909495 1.28709 0
M  V30 6291 C 646.88 -1.9991 1.09636 0
M  V30 6292 C 647.864 -1.60889 0.01872 0
M  V30 6293 O 649.056 -1.75374 0.239338 0
M  V30 6294 C 646.185 -3.34675 0.764702 0
M  V30 6295 C 645.271 -3.80085 1.8814 0
M  V30 6296 N 645.662 -3.97824 3.12361 0
M  V30 6297 C 643.96 -4.09278 1.77221 0
M  V30 6298 C 644.661 -4.35928 3.85151 0
M  V30 6299 N 643.637 -4.44426 3.13028 0
M  V30 6300 H 647.439 -2.11681 2.03883 0
M  V30 6301 H 644.953 -1.09763 1.1969 0
M  V30 6302 H 646.95 -4.12426 0.609132 0
M  V30 6303 H 645.61 -3.24255 -0.169952 0
M  V30 6304 H 646.621 -3.83626 3.47925 0
M  V30 6305 H 643.298 -4.0747 0.909621 0
M  V30 6306 H 644.688 -4.57581 4.92006 0
M  V30 6307 N 647.408 -1.11026 -1.11852 0
M  V30 6308 C 648.318 -0.777252 -2.2135 0
M  V30 6309 C 649.334 0.227821 -1.72502 0
M  V30 6310 O 650.51 0.0650587 -2.01295 0
M  V30 6311 C 647.575 -0.220668 -3.45997 0
M  V30 6312 C 646.636 -1.2838 -4.09655 0
M  V30 6313 C 645.869 -0.753678 -5.28352 0
M  V30 6314 O 646.092 0.417779 -5.68868 0
M  V30 6315 O 645.026 -1.51647 -5.82483 0
M  V30 6316 H 648.852 -1.69141 -2.5224 0
M  V30 6317 H 646.437 -0.885836 -1.20305 0
M  V30 6318 H 648.319 0.0855756 -4.21313 0
M  V30 6319 H 646.994 0.666262 -3.16769 0
M  V30 6320 H 645.901 -1.64299 -3.3609 0
M  V30 6321 H 647.234 -2.14396 -4.43052 0
M  V30 6322 N 648.886 1.2938 -0.899927 0
M  V30 6323 C 650.132 1.9584 -0.526742 0
M  V30 6324 C 650.465 1.70774 0.924651 0
M  V30 6325 O 649.74 1.02084 1.65557 0
M  V30 6326 C 650.023 3.50638 -0.820062 0
M  V30 6327 C 649.876 3.85161 -2.32317 0
M  V30 6328 C 651.195 4.3903 -0.30671 0
M  V30 6329 H 648.314 0.711322 -0.192848 0
M  V30 6330 H 650.956 1.52992 -1.12665 0
M  V30 6331 H 649.106 3.87265 -0.309491 0
M  V30 6332 H 650.778 3.58477 -2.9033 0
M  V30 6333 H 649.021 3.32696 -2.78381 0
M  V30 6334 H 649.692 4.93204 -2.47898 0
M  V30 6335 H 652.168 4.09396 -0.743908 0
M  V30 6336 H 651.044 5.46226 -0.541144 0
M  V30 6337 H 651.305 4.34937 0.792588 0
M  V30 6338 N 650.364 0.662433 1.43002 0
M  V30 6339 C 651.612 0.179237 2.01304 0
M  V30 6340 C 651.933 -1.21428 1.52579 0
M  V30 6341 O 651.203 -1.81294 0.742252 0
M  V30 6342 H 649.783 0.0632725 0.744316 0
M  V30 6343 H 652.445 0.856169 1.75088 0
M  V30 6344 H 651.541 0.170957 3.11631 0
M  V30 6345 N 651.842 -1.52309 0.404946 0
M  V30 6346 C 652.805 -2.25491 -0.410651 0
M  V30 6347 C 653.805 -1.27704 -0.977154 0
M  V30 6348 O 654.995 -1.51679 -0.856691 0
M  V30 6349 C 652.127 -3.02197 -1.57765 0
M  V30 6350 H 653.32 -2.99015 0.230277 0
M  V30 6351 H 650.873 -1.55506 0.157377 0
M  V30 6352 H 651.608 -2.33013 -2.25556 0
M  V30 6353 H 651.393 -3.73987 -1.17797 0
M  V30 6354 H 652.883 -3.57719 -2.15469 0
M  V30 6355 N 653.32 -0.135238 -1.57019 0
M  V30 6356 C 654.25 0.805235 -2.19176 0
M  V30 6357 C 655.231 1.2656 -1.13651 0
M  V30 6358 O 656.416 1.32528 -1.4195 0
M  V30 6359 C 653.546 2.04914 -2.80406 0
M  V30 6360 C 652.5 1.72598 -3.91655 0
M  V30 6361 C 651.826 3.04154 -4.39766 0
M  V30 6362 C 653.126 0.981709 -5.12991 0
M  V30 6363 H 654.82 0.287232 -2.98019 0
M  V30 6364 H 652.366 0.136714 -1.4335 0
M  V30 6365 H 654.319 2.71178 -3.22553 0
M  V30 6366 H 653.043 2.59067 -1.98877 0
M  V30 6367 H 651.702 1.08717 -3.50109 0
M  V30 6368 H 651.35 3.56274 -3.55075 0
M  V30 6369 H 651.05 2.83299 -5.14796 0
M  V30 6370 H 652.574 3.71509 -4.84576 0
M  V30 6371 H 653.988 1.5462 -5.52056 0
M  V30 6372 H 652.385 0.873533 -5.93708 0
M  V30 6373 H 653.455 -0.0286887 -4.84892 0
M  V30 6374 N 654.798 1.5699 0.138552 0
M  V30 6375 C 656.046 1.83446 0.848053 0
M  V30 6376 C 656.367 0.71744 1.81322 0
M  V30 6377 O 655.637 -0.260228 1.94164 0
M  V30 6378 H 654.217 0.676792 0.316166 0
M  V30 6379 H 656.879 1.94462 0.130538 0
M  V30 6380 H 655.975 2.78677 1.40518 0
M  V30 6381 N 656.276 -0.40816 1.52223 0
M  V30 6382 C 657.206 -1.5042 1.78595 0
M  V30 6383 C 658.187 -1.57723 0.636974 0
M  V30 6384 O 659.372 -1.72982 0.882664 0
M  V30 6385 C 656.502 -2.88232 1.93751 0
M  V30 6386 C 655.456 -2.95779 3.09352 0
M  V30 6387 C 654.782 -4.35855 3.09732 0
M  V30 6388 C 656.082 -2.67175 4.48793 0
M  V30 6389 H 657.776 -1.28601 2.70374 0
M  V30 6390 H 655.322 -0.617221 1.30101 0
M  V30 6391 H 657.275 -3.64895 2.10783 0
M  V30 6392 H 655.999 -3.11347 0.986443 0
M  V30 6393 H 654.658 -2.21561 2.92072 0
M  V30 6394 H 654.306 -4.55981 2.12346 0
M  V30 6395 H 654.006 -4.41829 3.87377 0
M  V30 6396 H 655.53 -5.14451 3.28895 0
M  V30 6397 H 656.944 -3.3356 4.66273 0
M  V30 6398 H 655.341 -2.84523 5.28362 0
M  V30 6399 H 656.411 -1.62609 4.56822 0
M  V30 6400 N 657.755 -1.42862 -0.66545 0
M  V30 6401 C 658.687 -1.43026 -1.79098 0
M  V30 6402 C 659.7 -0.32803 -1.59461 0
M  V30 6403 O 660.889 -0.591709 -1.68407 0
M  V30 6404 C 657.989 -1.21566 -3.16346 0
M  V30 6405 C 657.162 -2.44399 -3.62751 0
M  V30 6406 C 656.221 -2.18344 -4.78761 0
M  V30 6407 O 655.247 -2.91611 -4.88827 0
M  V30 6408 N 656.449 -1.1924 -5.68122 0
M  V30 6409 H 659.214 -2.40045 -1.79439 0
M  V30 6410 H 656.775 -1.37861 -0.848872 0
M  V30 6411 H 658.767 -1.02037 -3.91625 0
M  V30 6412 H 657.337 -0.330368 -3.10849 0
M  V30 6413 H 656.557 -2.79433 -2.78048 0
M  V30 6414 H 657.845 -3.26173 -3.90498 0
M  V30 6415 H 657.243 -0.586603 -5.6265 0
M  V30 6416 H 655.8 -1.05698 -6.43173 0
M  V30 6417 N 659.233 0.902656 -1.29189 0
M  V30 6418 C 660.165 2.01149 -1.09872 0
M  V30 6419 C 661.178 1.62732 -0.0471046 0
M  V30 6420 O 662.367 1.76107 -0.29132 0
M  V30 6421 C 659.467 3.32612 -0.649818 0
M  V30 6422 C 658.64 3.99574 -1.7793 0
M  V30 6423 C 657.699 5.09325 -1.32191 0
M  V30 6424 O 656.725 5.31919 -2.02611 0
M  V30 6425 N 657.927 5.80185 -0.191171 0
M  V30 6426 H 660.692 2.18276 -2.05368 0
M  V30 6427 H 658.253 1.07466 -1.2109 0
M  V30 6428 H 660.245 4.03375 -0.327199 0
M  V30 6429 H 658.815 3.11876 0.212597 0
M  V30 6430 H 658.035 3.22213 -2.27095 0
M  V30 6431 H 659.323 4.41056 -2.53668 0
M  V30 6432 H 658.721 5.64312 0.396016 0
M  V30 6433 H 657.278 6.5176 0.0721001 0
M  V30 6434 N 660.711 1.11618 1.11262 0
M  V30 6435 C 661.959 0.864469 1.82678 0
M  V30 6436 C 662.28 -0.611564 1.85162 0
M  V30 6437 O 661.55 -1.44429 1.32352 0
M  V30 6438 H 660.13 0.316821 0.676486 0
M  V30 6439 H 662.792 1.40894 1.34666 0
M  V30 6440 H 661.888 1.23832 2.86482 0
M  V30 6441 N 662.189 -1.289 0.906776 0
M  V30 6442 C 663.136 -2.2751 0.388313 0
M  V30 6443 C 664.106 -1.57301 -0.533439 0
M  V30 6444 O 665.291 -1.85243 -0.457148 0
M  V30 6445 C 662.431 -3.43091 -0.37181 0
M  V30 6446 C 661.544 -4.28066 0.581647 0
M  V30 6447 C 660.679 -5.30837 -0.19623 0
M  V30 6448 C 659.718 -6.07472 0.751294 0
M  V30 6449 N 658.855 -7.021 0.00737727 0
M  V30 6450 H 663.695 -2.71237 1.23428 0
M  V30 6451 H 661.232 -1.33397 0.619962 0
M  V30 6452 H 663.19 -4.08888 -0.828641 0
M  V30 6453 H 661.82 -3.00374 -1.18218 0
M  V30 6454 H 660.872 -3.62378 1.157 0
M  V30 6455 H 662.184 -4.81382 1.30665 0
M  V30 6456 H 661.338 -6.02485 -0.71394 0
M  V30 6457 H 660.077 -4.78272 -0.954324 0
M  V30 6458 H 659.082 -5.34682 1.28044 0
M  V30 6459 H 660.307 -6.62126 1.50883 0
M  V30 6460 H 658.253 -6.51894 -0.732854 0
M  V30 6461 H 658.17 -7.53004 0.672334 0
M  V30 6462 H 659.438 -7.77956 -0.490365 0
M  V30 6463 N 663.667 -0.670007 -1.42649 0
M  V30 6464 C 664.892 -0.196955 -2.06463 0
M  V30 6465 C 665.317 1.1352 -1.49983 0
M  V30 6466 O 664.675 1.705 -0.616397 0
M  V30 6467 C 664.723 -0.137381 -3.60338 0
M  V30 6468 O 663.827 0.895523 -4.02559 0
M  V30 6469 H 663.168 -0.102579 -0.656029 0
M  V30 6470 H 665.698 -0.917669 -1.82866 0
M  V30 6471 H 665.708 0.0403625 -4.0798 0
M  V30 6472 H 664.383 -1.10977 -4.0082 0
M  V30 6473 H 662.96 0.689209 -3.66476 0
M  V30 6474 N 665.145 1.52092 -0.413018 0
M  V30 6475 C 666.556 1.86617 0.0556967 0
M  V30 6476 C 666.907 1.33156 1.44097 0
M  V30 6477 O 666.032 0.672417 2.05688 0
M  V30 6478 C 666.627 3.38628 0.107844 0
M  V30 6479 C 665.186 3.72778 0.520904 0
M  V30 6480 C 664.333 2.75649 -0.302109 0
M  V30 6481 H 667.284 1.45663 -0.629919 0
M  V30 6482 H 667.305 3.69152 0.922324 0
M  V30 6483 H 666.817 3.77508 -0.900506 0
M  V30 6484 H 664.918 3.39478 1.53575 0
M  V30 6485 H 665.031 4.7838 0.262591 0
M  V30 6486 H 663.395 2.53603 0.236115 0
M  V30 6487 H 664.178 3.17369 -1.30888 0
M  V30 6488 N 666.623 0.143563 1.56945 0
M  V30 6489 C 667.871 -0.507402 1.95627 0
M  V30 6490 C 668.192 -1.65626 1.02922 0
M  V30 6491 O 667.462 -1.95693 0.0901136 0
M  V30 6492 H 666.042 -0.190436 0.722318 0
M  V30 6493 H 668.704 0.218257 1.93674 0
M  V30 6494 H 667.8 -0.885816 2.99265 0
M  V30 6495 N 668.101 -1.57061 -0.130224 0
M  V30 6496 C 669.064 -1.98593 -1.14426 0
M  V30 6497 C 670.064 -0.874584 -1.34936 0
M  V30 6498 O 671.254 -1.14086 -1.31643 0
M  V30 6499 C 668.386 -2.31639 -2.50112 0
M  V30 6500 H 669.579 -2.89374 -0.787561 0
M  V30 6501 H 667.132 -1.51756 -0.374146 0
M  V30 6502 H 667.867 -1.43703 -2.90723 0
M  V30 6503 H 667.652 -3.12684 -2.36583 0
M  V30 6504 H 669.142 -2.64551 -3.23114 0
M  V30 6505 N 669.579 0.400081 -1.52437 0
M  V30 6506 C 670.827 1.14392 -1.6661 0
M  V30 6507 C 671.148 1.90792 -0.402927 0
M  V30 6508 O 670.418 1.87042 0.582425 0
M  V30 6509 H 668.998 0.425275 -0.614125 0
M  V30 6510 H 671.66 0.455076 -1.89513 0
M  V30 6511 H 670.756 1.85298 -2.51139 0
M  V30 6512 N 671.057 1.43213 0.657864 0
M  V30 6513 C 672.005 1.48271 1.79216 0
M  V30 6514 C 672.999 0.35675 1.65601 0
M  V30 6515 O 674.205 0.530535 1.72004 0
M  V30 6516 H 670.58 0.464729 0.591211 0
M  V30 6517 H 672.551 2.43792 1.7207 0
M  V30 6518 C 671.3 1.41837 3.17455 0
M  V30 6519 H 670.623 2.27781 3.28567 0
M  V30 6520 H 672.063 1.49438 3.96793 0
M  V30 6521 C 670.522 0.135347 3.36628 0
M  V30 6522 O 671.052 -0.805199 3.93547 0
M  V30 6523 N 669.258 0.0470316 2.90562 0
M  V30 6524 H 668.805 0.813221 2.44427 0
M  V30 6525 H 668.763 -0.810737 3.03767 0
M  V30 6526 N 672.536 -0.895792 1.29666 0
M  V30 6527 C 673.947 -1.46195 1.1612 0
M  V30 6528 C 674.298 -1.94699 -0.242195 0
M  V30 6529 O 673.423 -1.8406 -1.13802 0
M  V30 6530 C 674.018 -2.65718 2.10189 0
M  V30 6531 C 672.577 -3.18458 2.00653 0
M  V30 6532 C 671.724 -1.91149 2.00891 0
M  V30 6533 H 674.675 -0.706756 1.42094 0
M  V30 6534 H 674.696 -3.4158 1.6764 0
M  V30 6535 H 674.208 -2.30386 3.12321 0
M  V30 6536 H 672.309 -3.58474 1.01623 0
M  V30 6537 H 672.422 -3.82491 2.88509 0
M  V30 6538 H 670.786 -2.09021 1.45542 0
M  V30 6539 H 671.569 -1.58089 3.04734 0
M  V30 6540 N 674.014 -1.12206 -1.10668 0
M  V30 6541 C 674.924 -0.800686 -2.20513 0
M  V30 6542 C 675.94 0.209512 -1.72734 0
M  V30 6543 O 677.116 0.043705 -2.01353 0
M  V30 6544 C 674.181 -0.257353 -3.45744 0
M  V30 6545 C 673.242 -1.32718 -4.0827 0
M  V30 6546 C 672.475 -0.809674 -5.27522 0
M  V30 6547 O 672.698 0.35742 -5.69279 0
M  V30 6548 O 671.632 -1.57816 -5.80842 0
M  V30 6549 H 675.458 -1.71807 -2.50432 0
M  V30 6550 H 673.043 -0.898546 -1.19359 0
M  V30 6551 H 674.925 0.0408849 -4.2138 0
M  V30 6552 H 673.6 0.632627 -3.17458 0
M  V30 6553 H 672.507 -1.67855 -3.34329 0
M  V30 6554 H 673.84 -2.19083 -4.40753 0
M  V30 6555 N 675.492 1.28418 -0.913599 0
M  V30 6556 C 676.903 1.77024 -0.593237 0
M  V30 6557 C 677.254 1.74779 0.891441 0
M  V30 6558 O 676.379 1.34237 1.69733 0
M  V30 6559 C 676.974 3.21456 -1.07011 0
M  V30 6560 C 675.533 3.67786 -0.800664 0
M  V30 6561 C 674.68 2.48185 -1.23691 0
M  V30 6562 H 677.631 1.14883 -1.09487 0
M  V30 6563 H 677.652 3.78269 -0.411481 0
M  V30 6564 H 677.164 3.23058 -2.1507 0
M  V30 6565 H 675.265 3.71644 0.266725 0
M  V30 6566 H 675.378 4.57934 -1.4083 0
M  V30 6567 H 673.742 2.46116 -0.655655 0
M  V30 6568 H 674.525 2.52506 -2.32585 0
M  V30 6569 N 676.97 0.677563 1.42291 0
M  V30 6570 C 677.88 0.000962654 2.346 0
M  V30 6571 C 678.896 -0.785833 1.55244 0
M  V30 6572 O 680.072 -0.727523 1.87801 0
M  V30 6573 C 677.137 -0.936746 3.33805 0
M  V30 6574 C 676.198 -0.144173 4.29058 0
M  V30 6575 C 675.431 -1.03722 5.23524 0
M  V30 6576 O 675.654 -2.27675 5.22992 0
M  V30 6577 O 674.588 -0.496542 5.99848 0
M  V30 6578 H 678.414 0.761397 2.94001 0
M  V30 6579 H 675.999 0.43781 1.42841 0
M  V30 6580 H 677.881 -1.47497 3.94744 0
M  V30 6581 H 676.556 -1.67698 2.76874 0
M  V30 6582 H 675.463 0.438224 3.71524 0
M  V30 6583 H 676.796 0.55701 4.89038 0
M  V30 6584 N 678.448 -1.51871 0.421078 0
M  V30 6585 C 679.38 -2.25052 -0.434065 0
M  V30 6586 C 680.393 -1.28458 -1.00013 0
M  V30 6587 O 681.582 -1.54323 -0.897033 0
M  V30 6588 C 678.682 -2.97813 -1.61743 0
M  V30 6589 C 677.855 -4.21374 -1.17315 0
M  V30 6590 C 676.914 -4.76854 -2.22478 0
M  V30 6591 O 675.94 -5.39123 -1.82577 0
M  V30 6592 N 677.142 -4.59467 -3.54782 0
M  V30 6593 H 679.907 -2.99077 0.193073 0
M  V30 6594 H 677.468 -1.59972 0.249088 0
M  V30 6595 H 679.46 -3.3182 -2.31685 0
M  V30 6596 H 678.03 -2.26899 -2.15024 0
M  V30 6597 H 677.25 -3.93046 -0.3014 0
M  V30 6598 H 678.538 -5.01591 -0.853444 0
M  V30 6599 H 677.936 -4.09832 -3.89941 0
M  V30 6600 H 676.493 -4.9788 -4.20665 0
M  V30 6601 N 679.926 -0.151884 -1.56866 0
M  V30 6602 C 681.203 0.543328 -1.87902 0
M  V30 6603 C 681.583 1.82636 -1.05864 0
M  V30 6604 O 680.931 2.28028 -0.146868 0
M  V30 6605 C 681.141 0.804056 -3.39611 0
M  V30 6606 C 682.489 1.14267 -4.08935 0
M  V30 6607 O 683.513 0.893248 -3.44818 0
M  V30 6608 O 682.372 1.61229 -5.22176 0
M  V30 6609 H 679.466 0.277724 -0.778973 0
M  V30 6610 H 682.012 -0.188862 -1.68646 0
M  V30 6611 H 680.784 -0.103772 -3.91162 0
M  V30 6612 H 680.407 1.59025 -3.64413 0
M  V30 6613 N 681.404 1.57128 0.121893 0
M  V30 6614 C 682.644 1.86517 0.836113 0
M  V30 6615 C 683.008 0.739497 1.77188 0
M  V30 6616 O 684.209 0.91508 2.52744 0
M  V30 6617 C 682.48 3.21129 1.56878 0
M  V30 6618 S 684.039 3.72143 2.32497 0
M  V30 6619 H 680.857 0.653923 0.279115 0
M  V30 6620 H 683.459 1.95271 0.0946254 0
M  V30 6621 H 682.163 4.01002 0.873255 0
M  V30 6622 H 681.694 3.15446 2.35069 0
M  V30 6623 H 683.709 3.43413 3.58164 0
M  V30 6624 N 682.882 -0.391992 1.52647 0
M  V30 6625 C 683.845 -1.46135 1.7657 0
M  V30 6626 C 684.845 -1.47701 0.635698 0
M  V30 6627 O 686.035 -1.48924 0.903728 0
M  V30 6628 C 683.167 -2.85443 1.86374 0
M  V30 6629 H 684.36 -1.26208 2.72051 0
M  V30 6630 H 681.913 -0.623549 1.43323 0
M  V30 6631 H 682.648 -3.10718 0.928685 0
M  V30 6632 H 682.433 -2.85708 2.68539 0
M  V30 6633 H 683.923 -3.62933 2.06566 0
M  V30 6634 N 684.36 -1.4356 -0.65026 0
M  V30 6635 C 685.323 -1.48615 -1.74489 0
M  V30 6636 C 686.323 -0.370483 -1.56474 0
M  V30 6637 O 687.513 -0.632351 -1.62317 0
M  V30 6638 C 684.645 -1.34161 -3.13391 0
M  V30 6639 H 685.838 -2.46103 -1.71387 0
M  V30 6640 H 683.391 -1.30369 -0.862186 0
M  V30 6641 H 684.126 -0.376918 -3.22102 0
M  V30 6642 H 683.911 -2.1504 -3.27872 0
M  V30 6643 H 685.401 -1.40637 -3.93206 0
M  V30 6644 N 685.838 0.888903 -1.30139 0
M  V30 6645 C 687.254 1.17153 -1.08385 0
M  V30 6646 C 687.454 2.0088 0.157925 0
M  V30 6647 O 686.51 2.37668 0.852652 0
M  V30 6648 C 687.823 1.882 -2.34523 0
M  V30 6649 C 689.371 2.00981 -2.39949 0
M  V30 6650 C 689.846 2.75441 -3.65918 0
M  V30 6651 N 691.337 2.82989 -3.66704 0
M  V30 6652 C 692.072 3.41167 -4.60861 0
M  V30 6653 N 691.568 4.00425 -5.6536 0
M  V30 6654 N 693.361 3.38944 -4.48412 0
M  V30 6655 H 685.512 0.33053 -2.09812 0
M  V30 6656 H 687.775 0.208964 -0.924683 0
M  V30 6657 H 687.481 1.34119 -3.25123 0
M  V30 6658 H 687.355 2.88609 -2.42868 0
M  V30 6659 H 689.742 2.54234 -1.4983 0
M  V30 6660 H 689.823 0.996725 -2.35582 0
M  V30 6661 H 689.467 2.22861 -4.56394 0
M  V30 6662 H 689.397 3.77118 -3.67546 0
M  V30 6663 H 691.888 2.40912 -2.91153 0
M  V30 6664 H 692.201 4.42871 -6.33313 0
M  V30 6665 H 690.546 3.98856 -5.69157 0
M  V30 6666 H 693.737 2.91875 -3.6596 0
M  V30 6667 H 693.91 3.83989 -5.21974 0
M  V30 6668 N 687.317 1.12792 1.10072 0
M  V30 6669 C 688.28 0.802264 2.14701 0
M  V30 6670 C 689.28 -0.18515 1.59731 0
M  V30 6671 O 690.47 0.041109 1.74151 0
M  V30 6672 C 687.602 0.19285 3.40354 0
M  V30 6673 H 688.795 1.72932 2.45019 0
M  V30 6674 H 686.348 0.931662 1.25498 0
M  V30 6675 H 687.083 -0.743748 3.15656 0
M  V30 6676 H 686.868 0.903827 3.81541 0
M  V30 6677 H 688.358 -0.0183704 4.17596 0
M  V30 6678 N 688.795 -1.27931 0.920396 0
M  V30 6679 C 690.206 -1.76707 0.602616 0
M  V30 6680 C 690.557 -1.75249 -0.882159 0
M  V30 6681 O 689.682 -1.35135 -1.69019 0
M  V30 6682 C 690.277 -3.20884 1.08714 0
M  V30 6683 C 688.836 -3.67356 0.820157 0
M  V30 6684 C 687.983 -2.47525 1.25006 0
M  V30 6685 H 690.934 -1.14301 1.10095 0
M  V30 6686 H 690.955 -3.78045 0.431535 0
M  V30 6687 H 690.467 -3.21913 2.1678 0
M  V30 6688 H 688.568 -3.7178 -0.247012 0
M  V30 6689 H 688.681 -4.57181 1.43257 0
M  V30 6690 H 687.045 -2.45765 0.668698 0
M  V30 6691 H 687.828 -2.51269 2.3392 0
M  V30 6692 N 690.273 -0.685099 -1.4193 0
M  V30 6693 C 691.519 -0.211971 -2.01689 0
M  V30 6694 C 691.852 1.18189 -1.54094 0
M  V30 6695 O 691.127 1.79559 -0.747572 0
M  V30 6696 C 691.41 -0.258019 -3.59174 0
M  V30 6697 C 691.263 -1.68807 -4.16922 0
M  V30 6698 C 692.582 0.388044 -4.38386 0
M  V30 6699 H 689.701 -0.0784987 -0.732808 0
M  V30 6700 H 692.343 -0.871837 -1.68816 0
M  V30 6701 H 690.493 0.303832 -3.8731 0
M  V30 6702 H 692.165 -2.30296 -3.99702 0
M  V30 6703 H 690.408 -2.22553 -3.72361 0
M  V30 6704 H 691.079 -1.6719 -5.26072 0
M  V30 6705 H 693.555 -0.0903432 -4.16002 0
M  V30 6706 H 692.431 0.325232 -5.47936 0
M  V30 6707 H 692.692 1.4672 -4.17044 0
M  V30 6708 N 691.751 1.51645 -0.429126 0
M  V30 6709 C 693.167 1.59394 -0.080994 0
M  V30 6710 C 693.367 1.44064 1.40882 0
M  V30 6711 O 692.423 1.27771 2.17786 0
M  V30 6712 C 693.736 2.94779 -0.593773 0
M  V30 6713 C 695.284 3.08067 -0.553494 0
M  V30 6714 C 695.759 4.45963 -1.04311 0
M  V30 6715 N 697.25 4.5226 -1.00076 0
M  V30 6716 C 697.985 5.57268 -1.35056 0
M  V30 6717 N 697.481 6.69734 -1.77282 0
M  V30 6718 N 699.274 5.47582 -1.26925 0
M  V30 6719 H 691.425 1.59856 -1.39857 0
M  V30 6720 H 693.688 0.753095 -0.575805 0
M  V30 6721 H 693.394 3.11342 -1.63583 0
M  V30 6722 H 693.268 3.77197 -0.0142202 0
M  V30 6723 H 695.655 2.91177 0.479556 0
M  V30 6724 H 695.736 2.27508 -1.16935 0
M  V30 6725 H 695.38 4.63598 -2.07459 0
M  V30 6726 H 695.31 5.25049 -0.403873 0
M  V30 6727 H 697.801 3.71537 -0.690564 0
M  V30 6728 H 698.114 7.4587 -2.02232 0
M  V30 6729 H 696.459 6.70963 -1.81202 0
M  V30 6730 H 699.65 4.58604 -0.93809 0
M  V30 6731 H 699.823 6.29308 -1.54516 0
M  V30 6732 N 693.229 0.160201 1.56784 0
M  V30 6733 C 694.192 -0.760405 2.16219 0
M  V30 6734 C 695.192 -1.16595 1.10735 0
M  V30 6735 O 696.382 -1.08472 1.36306 0
M  V30 6736 C 693.514 -2.03358 2.73603 0
M  V30 6737 H 694.707 -0.243173 2.98912 0
M  V30 6738 H 692.26 -0.0893139 1.56045 0
M  V30 6739 H 692.995 -2.59416 1.94612 0
M  V30 6740 H 692.78 -1.75186 3.50788 0
M  V30 6741 H 694.27 -2.69081 3.19351 0
M  V30 6742 N 694.707 -1.5719 -0.113559 0
M  V30 6743 C 695.617 -2.04041 -1.15777 0
M  V30 6744 C 696.633 -0.961812 -1.45001 0
M  V30 6745 O 697.809 -1.2737 -1.56009 0
M  V30 6746 C 694.874 -2.43994 -2.46308 0
M  V30 6747 C 693.935 -3.65962 -2.24433 0
M  V30 6748 C 693.168 -4.04 -3.4874 0
M  V30 6749 O 693.391 -3.42321 -4.56259 0
M  V30 6750 O 692.325 -4.97069 -3.3942 0
M  V30 6751 H 696.151 -2.93248 -0.789899 0
M  V30 6752 H 693.736 -1.45828 -0.324748 0
M  V30 6753 H 695.618 -2.70401 -3.23204 0
M  V30 6754 H 694.293 -1.57932 -2.82558 0
M  V30 6755 H 693.2 -3.44697 -1.45377 0
M  V30 6756 H 694.533 -4.52746 -1.93084 0
M  V30 6757 N 696.185 0.383891 -1.52853 0
M  V30 6758 C 697.148 1.45197 -1.77343 0
M  V30 6759 C 698.148 1.47362 -0.643522 0
M  V30 6760 O 699.338 1.48443 -0.911613 0
M  V30 6761 C 696.47 2.8445 -1.87885 0
M  V30 6762 H 697.663 1.24764 -2.72716 0
M  V30 6763 H 695.216 0.615939 -1.43652 0
M  V30 6764 H 695.951 3.10222 -0.94515 0
M  V30 6765 H 695.736 2.8428 -2.70051 0
M  V30 6766 H 697.226 3.61832 -2.08488 0
M  V30 6767 N 697.663 1.43903 0.642637 0
M  V30 6768 C 698.909 1.46296 1.40447 0
M  V30 6769 C 699.242 0.0908361 1.93987 0
M  V30 6770 O 698.517 -0.889884 1.72949 0
M  V30 6771 C 698.8 2.51399 2.57819 0
M  V30 6772 C 698.653 3.97926 2.09702 0
M  V30 6773 C 699.972 2.53125 3.60022 0
M  V30 6774 H 697.091 0.532676 0.509338 0
M  V30 6775 H 699.733 1.75515 0.727635 0
M  V30 6776 H 697.883 2.26614 3.1556 0
M  V30 6777 H 699.555 4.33804 1.5688 0
M  V30 6778 H 697.798 4.10252 1.40982 0
M  V30 6779 H 698.469 4.67096 2.94152 0
M  V30 6780 H 700.945 2.75242 3.12059 0
M  V30 6781 H 699.821 3.28589 4.39682 0
M  V30 6782 H 700.082 1.56895 4.13324 0
M  V30 6783 N 699.141 -0.881989 1.30609 0
M  V30 6784 C 700.557 -1.16576 1.09005 0
M  V30 6785 C 700.757 -2.00961 -0.14727 0
M  V30 6786 O 699.813 -2.38117 -0.840036 0
M  V30 6787 C 701.126 -1.86954 2.35518 0
M  V30 6788 C 702.674 -1.99706 2.41011 0
M  V30 6789 C 703.149 -2.73497 3.67374 0
M  V30 6790 N 704.64 -2.8104 3.68199 0
M  V30 6791 C 705.375 -3.38718 4.62664 0
M  V30 6792 N 704.871 -3.97421 5.67475 0
M  V30 6793 N 706.664 -3.36561 4.50203 0
M  V30 6794 H 698.815 -0.319398 2.09985 0
M  V30 6795 H 701.078 -0.204058 0.925778 0
M  V30 6796 H 700.784 -1.32393 3.2583 0
M  V30 6797 H 700.658 -2.87317 2.44395 0
M  V30 6798 H 703.045 -2.53436 1.51176 0
M  V30 6799 H 703.126 -0.984218 2.36108 0
M  V30 6800 H 702.77 -2.20438 4.57569 0
M  V30 6801 H 702.7 -3.75163 3.6954 0
M  V30 6802 H 705.191 -2.39365 2.92426 0
M  V30 6803 H 705.504 -4.39507 6.35652 0
M  V30 6804 H 703.849 -3.95832 5.71264 0
M  V30 6805 H 707.04 -2.8993 3.67503 0
M  V30 6806 H 707.213 -3.81215 5.24003 0
M  V30 6807 N 700.619 -1.13374 -1.09472 0
M  V30 6808 C 702.035 -0.871846 -1.33682 0
M  V30 6809 C 702.235 0.492847 -1.9538 0
M  V30 6810 O 701.291 1.23946 -2.19985 0
M  V30 6811 C 702.604 -1.99608 -2.24893 0
M  V30 6812 C 704.152 -2.02812 -2.38404 0
M  V30 6813 C 704.627 -3.14497 -3.3295 0
M  V30 6814 N 706.118 -3.14004 -3.40523 0
M  V30 6815 C 706.853 -3.97061 -4.13679 0
M  V30 6816 N 706.349 -4.90131 -4.89636 0
M  V30 6817 N 708.142 -3.85162 -4.09398 0
M  V30 6818 H 700.293 -2.01288 -0.677995 0
M  V30 6819 H 702.556 -0.876492 -0.361201 0
M  V30 6820 H 702.262 -2.98 -1.86786 0
M  V30 6821 H 702.136 -1.90981 -3.25278 0
M  V30 6822 H 704.523 -1.05034 -2.75775 0
M  V30 6823 H 704.604 -2.15511 -1.37799 0
M  V30 6824 H 704.248 -4.12514 -2.96302 0
M  V30 6825 H 704.178 -2.99035 -4.33458 0
M  V30 6826 H 706.669 -2.46587 -2.86362 0
M  V30 6827 H 706.982 -5.49996 -5.42885 0
M  V30 6828 H 705.327 -4.94138 -4.88726 0
M  V30 6829 H 708.518 -3.11779 -3.49158 0
M  V30 6830 H 708.691 -4.5012 -4.6615 0
M  V30 6831 N 702.098 1.27442 -0.927168 0
M  V30 6832 C 703.031 2.25177 -0.370232 0
M  V30 6833 C 704.009 1.53612 0.533103 0
M  V30 6834 O 705.193 1.8245 0.47373 0
M  V30 6835 C 702.32 3.35431 0.469411 0
M  V30 6836 C 701.366 4.24888 -0.370419 0
M  V30 6837 S 702.199 5.04852 -1.78562 0
M  V30 6838 C 703.355 6.18592 -0.953651 0
M  V30 6839 H 703.588 2.72069 -1.19858 0
M  V30 6840 H 701.121 1.36089 -0.729316 0
M  V30 6841 H 703.079 3.99404 0.947992 0
M  V30 6842 H 701.74 2.87179 1.27228 0
M  V30 6843 H 700.933 5.03264 0.272226 0
M  V30 6844 H 700.535 3.65709 -0.783153 0
M  V30 6845 H 702.827 6.77235 -0.189408 0
M  V30 6846 H 703.77 6.87132 -1.7104 0
M  V30 6847 H 704.178 5.62318 -0.495897 0
M  V30 6848 N 703.576 0.692616 1.41565 0
M  V30 6849 C 704.987 0.297478 1.84315 0
M  V30 6850 C 705.338 -1.16379 1.57957 0
M  V30 6851 O 704.463 -1.89303 1.0485 0
M  V30 6852 C 705.058 0.533136 3.34579 0
M  V30 6853 C 703.617 0.191944 3.7591 0
M  V30 6854 C 702.764 0.816873 2.64995 0
M  V30 6855 H 705.715 0.893488 1.31158 0
M  V30 6856 H 705.736 -0.209105 3.79925 0
M  V30 6857 H 705.248 1.59674 3.53731 0
M  V30 6858 H 703.349 -0.867512 3.6236 0
M  V30 6859 H 703.462 0.644902 4.7474 0
M  V30 6860 H 701.826 0.246715 2.53502 0
M  V30 6861 H 702.609 1.88429 2.86966 0
M  V30 6862 N 705.054 -1.51416 0.437162 0
M  V30 6863 C 706.465 -1.86682 -0.0260005 0
M  V30 6864 C 706.816 -1.35432 -1.4196 0
M  V30 6865 O 705.941 -0.705055 -2.04592 0
M  V30 6866 C 706.536 -3.38757 -0.0539577 0
M  V30 6867 C 705.095 -3.7356 -0.461532 0
M  V30 6868 C 704.242 -2.75134 0.345924 0
M  V30 6869 H 707.193 -1.44642 0.653013 0
M  V30 6870 H 707.214 -3.70573 -0.863478 0
M  V30 6871 H 706.726 -3.76028 0.96045 0
M  V30 6872 H 704.827 -3.41878 -1.48155 0
M  V30 6873 H 704.94 -4.78737 -0.186451 0
M  V30 6874 H 703.304 -2.53947 -0.195739 0
M  V30 6875 H 704.087 -3.15247 1.35921 0
M  V30 6876 N 706.532 -0.168513 -1.56696 0
M  V30 6877 C 707.78 0.476216 -1.96409 0
M  V30 6878 C 708.101 1.63968 -1.05544 0
M  V30 6879 O 707.371 1.95525 -0.121235 0
M  V30 6880 H 705.951 0.178921 -0.725256 0
M  V30 6881 H 708.613 -0.249042 -1.93302 0
M  V30 6882 H 707.709 0.838094 -3.00637 0
M  V30 6883 N 708.01 1.57248 0.105221 0
M  V30 6884 C 708.973 2.00388 1.11252 0
M  V30 6885 C 709.973 0.89594 1.33527 0
M  V30 6886 O 711.163 1.16166 1.29811 0
M  V30 6887 C 708.295 2.35589 2.46395 0
M  V30 6888 H 709.488 2.90591 0.741424 0
M  V30 6889 H 707.041 1.52332 0.349956 0
M  V30 6890 H 707.776 1.4831 2.884 0
M  V30 6891 H 707.561 3.16408 2.31578 0
M  V30 6892 H 709.051 2.69658 3.18864 0
M  V30 6893 N 709.488 -0.375779 1.53054 0
M  V30 6894 C 710.398 -1.48381 1.81715 0
M  V30 6895 C 711.414 -1.59087 0.704795 0
M  V30 6896 O 712.59 -1.75174 0.993785 0
M  V30 6897 C 709.655 -2.83767 1.99192 0
M  V30 6898 C 708.716 -2.82673 3.23102 0
M  V30 6899 C 707.949 -4.11601 3.39736 0
M  V30 6900 O 708.172 -5.07243 2.60885 0
M  V30 6901 O 707.106 -4.18034 4.33049 0
M  V30 6902 H 710.932 -1.27089 2.7583 0
M  V30 6903 H 708.517 -0.564902 1.38308 0
M  V30 6904 H 710.399 -3.64004 2.12318 0
M  V30 6905 H 709.074 -3.05057 1.08267 0
M  V30 6906 H 707.981 -2.0117 3.15407 0
M  V30 6907 H 709.314 -2.66335 4.13916 0
M  V30 6908 N 710.966 -1.44241 -0.634997 0
M  V30 6909 C 711.929 -1.50457 -1.72903 0
M  V30 6910 C 712.929 -0.387058 -1.56072 0
M  V30 6911 O 714.119 -0.649531 -1.61638 0
M  V30 6912 C 711.251 -1.37477 -3.1195 0
M  V30 6913 H 712.444 -2.47907 -1.68767 0
M  V30 6914 H 709.997 -1.31276 -0.84831 0
M  V30 6915 H 710.732 -0.41106 -3.21684 0
M  V30 6916 H 710.517 -2.18506 -3.25573 0
M  V30 6917 H 712.007 -1.44799 -3.91692 0
M  V30 6918 N 712.444 0.87505 -1.31075 0
M  V30 6919 C 713.692 1.62447 -1.20231 0
M  V30 6920 C 714.013 1.93506 0.240888 0
M  V30 6921 O 713.283 1.57847 1.16022 0
M  V30 6922 H 711.863 0.602207 -0.441991 0
M  V30 6923 H 714.525 1.04788 -1.64334 0
M  V30 6924 H 713.621 2.57031 -1.77036 0
M  V30 6925 N 713.922 1.13953 1.08869 0
M  V30 6926 C 715.147 0.928559 1.85452 0
M  V30 6927 C 715.572 -0.517642 1.80837 0
M  V30 6928 O 714.93 -1.36779 1.19001 0
M  V30 6929 C 714.978 1.42814 3.31114 0
M  V30 6930 O 714.082 0.617129 4.07756 0
M  V30 6931 H 713.423 0.33235 0.574839 0
M  V30 6932 H 715.953 1.5156 1.37443 0
M  V30 6933 H 715.963 1.43425 3.8196 0
M  V30 6934 H 714.638 2.48109 3.33788 0
M  V30 6935 H 713.215 0.679365 3.66659 0
M  V30 6936 N 715.4 -1.26948 0.933913 0
M  V30 6937 C 716.646 -1.94374 0.57848 0
M  V30 6938 C 716.979 -1.73166 -0.879048 0
M  V30 6939 O 716.254 -1.06438 -1.62792 0
M  V30 6940 C 716.537 -3.4834 0.912739 0
M  V30 6941 C 716.39 -3.78866 2.42448 0
M  V30 6942 C 717.709 -4.38062 0.423003 0
M  V30 6943 H 714.828 -0.705959 0.211639 0
M  V30 6944 H 717.47 -1.49951 1.16682 0
M  V30 6945 H 715.62 -3.86309 0.412058 0
M  V30 6946 H 717.292 -3.50654 2.99733 0
M  V30 6947 H 715.535 -3.25198 2.87104 0
M  V30 6948 H 716.206 -4.86458 2.60887 0
M  V30 6949 H 718.682 -4.0728 0.852191 0
M  V30 6950 H 717.558 -5.44599 0.685776 0
M  V30 6951 H 717.819 -4.36886 -0.676994 0
M  V30 6952 N 716.879 -0.700114 -1.41195 0
M  V30 6953 C 718.125 -0.233351 -2.01453 0
M  V30 6954 C 718.458 1.16548 -1.55339 0
M  V30 6955 O 717.733 1.78756 -0.766575 0
M  V30 6956 C 718.016 -0.2961 -3.58881 0
M  V30 6957 C 717.869 -1.7322 -4.15108 0
M  V30 6958 C 719.188 0.341525 -4.38773 0
M  V30 6959 H 716.307 -0.0862667 -0.731934 0
M  V30 6960 H 718.949 -0.889693 -1.67882 0
M  V30 6961 H 717.099 0.262736 -3.87611 0
M  V30 6962 H 718.771 -2.34523 -3.97236 0
M  V30 6963 H 717.014 -2.2649 -3.69979 0
M  V30 6964 H 717.685 -1.7276 -5.24269 0
M  V30 6965 H 720.161 -0.134461 -4.15883 0
M  V30 6966 H 719.037 0.267098 -5.4825 0
M  V30 6967 H 719.298 1.42289 -4.18577 0
M  V30 6968 N 718.357 1.51182 -0.445186 0
M  V30 6969 C 719.287 2.30821 0.352686 0
M  V30 6970 C 720.268 1.36576 1.01395 0
M  V30 6971 O 721.453 1.65497 1.01609 0
M  V30 6972 C 718.583 3.15593 1.44976 0
M  V30 6973 C 717.537 4.1818 0.911553 0
M  V30 6974 C 716.863 4.91523 2.10497 0
M  V30 6975 C 718.163 5.22266 -0.059418 0
M  V30 6976 H 719.857 2.97771 -0.311936 0
M  V30 6977 H 717.403 1.43201 -0.151461 0
M  V30 6978 H 719.356 3.70091 2.01521 0
M  V30 6979 H 718.08 2.4648 2.14278 0
M  V30 6980 H 716.739 3.64746 0.368264 0
M  V30 6981 H 716.387 4.18906 2.78437 0
M  V30 6982 H 716.087 5.60898 1.7512 0
M  V30 6983 H 717.611 5.48847 2.6758 0
M  V30 6984 H 719.025 5.71789 0.415985 0
M  V30 6985 H 717.422 5.99213 -0.326152 0
M  V30 6986 H 718.492 4.7461 -0.993631 0
M  V30 6987 N 719.835 0.176821 1.56605 0
M  V30 6988 C 721.112 -0.513365 1.88743 0
M  V30 6989 C 721.492 -1.80929 1.08757 0
M  V30 6990 O 720.84 -2.27765 0.183127 0
M  V30 6991 C 721.05 -0.749925 3.40848 0
M  V30 6992 C 722.398 -1.07747 4.10701 0
M  V30 6993 O 723.422 -0.838277 3.46196 0
M  V30 6994 O 722.281 -1.52901 5.24675 0
M  V30 6995 H 719.375 -0.265296 0.783292 0
M  V30 6996 H 721.921 0.215669 1.68324 0
M  V30 6997 H 720.693 0.16599 3.90948 0
M  V30 6998 H 720.316 -1.53208 3.66897 0
M  V30 6999 N 721.313 -1.57302 -0.09688 0
M  V30 7000 C 722.59 -1.7701 -0.832272 0
M  V30 7001 C 722.97 -0.758025 -1.97021 0
M  V30 7002 O 722.318 0.213824 -2.27497 0
M  V30 7003 C 722.528 -3.22725 -1.32851 0
M  V30 7004 C 723.876 -3.85856 -1.772 0
M  V30 7005 O 724.9 -3.26464 -1.42478 0
M  V30 7006 O 723.759 -4.90295 -2.41398 0
M  V30 7007 H 720.853 -0.725558 -0.396856 0
M  V30 7008 H 723.399 -1.69516 -0.0789005 0
M  V30 7009 H 722.171 -3.87921 -0.51312 0
M  V30 7010 H 721.794 -3.34845 -2.14394 0
M  V30 7011 N 722.791 0.367657 -1.53252 0
M  V30 7012 C 724.016 1.13566 -1.73544 0
M  V30 7013 C 724.441 1.82329 -0.462344 0
M  V30 7014 O 723.799 1.71655 0.583472 0
M  V30 7015 C 723.847 2.14322 -2.89997 0
M  V30 7016 O 722.951 3.21359 -2.58461 0
M  V30 7017 H 722.292 0.329614 -0.576412 0
M  V30 7018 H 724.822 0.425417 -2.00128 0
M  V30 7019 H 724.832 2.57958 -3.16104 0
M  V30 7020 H 723.507 1.63664 -3.82344 0
M  V30 7021 H 722.084 2.8271 -2.43165 0
M  V30 7022 N 724.269 1.44576 0.627338 0
M  V30 7023 C 725.68 1.42266 1.20902 0
M  V30 7024 C 726.031 0.139964 1.957 0
M  V30 7025 O 725.156 -0.759489 2.02634 0
M  V30 7026 C 725.751 2.57727 2.19914 0
M  V30 7027 C 724.31 2.58599 2.73502 0
M  V30 7028 C 723.457 2.34145 1.48564 0
M  V30 7029 H 726.408 1.53102 0.417791 0
M  V30 7030 H 726.429 2.30697 3.02588 0
M  V30 7031 H 725.941 3.51068 1.65447 0
M  V30 7032 H 724.042 1.6921 3.31962 0
M  V30 7033 H 724.155 3.57205 3.19282 0
M  V30 7034 H 722.519 1.83313 1.76829 0
M  V30 7035 H 723.302 3.29606 0.959935 0
M  V30 7036 N 725.747 -0.868086 1.31537 0
M  V30 7037 C 726.71 -1.95703 1.19302 0
M  V30 7038 C 727.71 -1.60355 0.119612 0
M  V30 7039 O 728.9 -1.70247 0.36902 0
M  V30 7040 C 726.032 -3.30599 0.831684 0
M  V30 7041 H 727.225 -2.07982 2.16064 0
M  V30 7042 H 724.778 -1.05661 1.15176 0
M  V30 7043 H 725.513 -3.2402 -0.134694 0
M  V30 7044 H 725.298 -3.57629 1.60761 0
M  V30 7045 H 726.788 -4.10439 0.770026 0
M  V30 7046 N 727.225 -1.14528 -1.08264 0
M  V30 7047 C 728.636 -0.925261 -1.6216 0
M  V30 7048 C 728.987 0.535587 -1.88748 0
M  V30 7049 O 728.112 1.4048 -1.64604 0
M  V30 7050 C 728.707 -1.67316 -2.94603 0
M  V30 7051 C 727.266 -1.49868 -3.45278 0
M  V30 7052 C 726.413 -1.69471 -2.19487 0
M  V30 7053 H 729.364 -1.29687 -0.914707 0
M  V30 7054 H 729.385 -1.13721 -3.63109 0
M  V30 7055 H 728.897 -2.73635 -2.75219 0
M  V30 7056 H 726.998 -0.459032 -3.69762 0
M  V30 7057 H 727.111 -2.2696 -4.21931 0
M  V30 7058 H 725.475 -1.12048 -2.2873 0
M  V30 7059 H 726.258 -2.77136 -2.0261 0
M  V30 7060 N 728.703 1.26451 -0.940633 0
M  V30 7061 C 730.114 1.75726 -0.630653 0
M  V30 7062 C 730.465 1.76631 0.854167 0
M  V30 7063 O 729.59 1.37807 1.66848 0
M  V30 7064 C 730.185 3.19114 -1.13805 0
M  V30 7065 C 728.744 3.66005 -0.878497 0
M  V30 7066 C 727.891 2.45505 -1.28928 0
M  V30 7067 H 730.842 1.12535 -1.119 0
M  V30 7068 H 730.863 3.77311 -0.491625 0
M  V30 7069 H 730.375 3.18424 -2.21874 0
M  V30 7070 H 728.476 3.72126 0.187833 0
M  V30 7071 H 728.589 4.54844 -1.50512 0
M  V30 7072 H 726.953 2.4467 -0.707713 0
M  V30 7073 H 727.736 2.47516 -2.37888 0
M  V30 7074 N 730.181 0.707592 1.40822 0
M  V30 7075 C 731.144 0.0587224 2.29125 0
M  V30 7076 C 732.144 -0.695624 1.44975 0
M  V30 7077 O 733.334 -0.528718 1.65983 0
M  V30 7078 C 730.466 -0.926939 3.28056 0
M  V30 7079 H 731.659 0.836349 2.88002 0
M  V30 7080 H 729.212 0.471778 1.4901 0
M  V30 7081 H 729.947 -1.7319 2.74182 0
M  V30 7082 H 729.732 -0.389015 3.90165 0
M  V30 7083 H 731.222 -1.37837 3.94196 0
M  V30 7084 N 731.66 -1.50943 0.453197 0
M  V30 7085 C 733.071 -1.86699 -0.00619892 0
M  V30 7086 C 733.422 -1.3693 -1.40515 0
M  V30 7087 O 732.547 -0.726715 -2.03833 0
M  V30 7088 C 733.142 -3.38795 -0.018025 0
M  V30 7089 C 731.701 -3.74028 -0.421885 0
M  V30 7090 C 730.848 -2.74752 0.375087 0
M  V30 7091 H 733.799 -1.43942 0.668317 0
M  V30 7092 H 733.82 -3.71468 -0.824125 0
M  V30 7093 H 733.332 -3.74988 1.00028 0
M  V30 7094 H 731.433 -3.43431 -1.44521 0
M  V30 7095 H 731.546 -4.78908 -0.135664 0
M  V30 7096 H 729.91 -2.5414 -0.168794 0
M  V30 7097 H 730.693 -3.13787 1.39256 0
M  V30 7098 N 733.138 -0.185124 -1.56509 0
M  V30 7099 C 734.385 0.456258 -1.97293 0
M  V30 7100 C 734.713 1.62314 -1.07165 0
M  V30 7101 O 733.968 1.95398 -0.108621 0
M  V30 7102 C 734.267 0.967977 -3.44042 0
M  V30 7103 C 733.933 -0.084476 -4.50821 0
M  V30 7104 C 732.595 -0.373689 -4.79747 0
M  V30 7105 C 734.947 -0.79812 -5.15053 0
M  V30 7106 C 732.275 -1.3817 -5.70198 0
M  V30 7107 C 734.627 -1.79521 -6.06593 0
M  V30 7108 C 733.291 -2.09172 -6.3388 0
M  V30 7109 H 732.561 0.166957 -0.721946 0
M  V30 7110 H 735.208 -0.279992 -1.89442 0
M  V30 7111 H 733.513 1.78231 -3.48914 0
M  V30 7112 H 735.21 1.47347 -3.72948 0
M  V30 7113 H 731.8 0.15111 -4.28334 0
M  V30 7114 H 735.984 -0.587903 -4.92806 0
M  V30 7115 H 731.24 -1.61745 -5.89617 0
M  V30 7116 H 735.414 -2.35347 -6.55427 0
M  V30 7117 H 733.041 -2.87427 -7.03768 0
M  V30 7118 N 734.616 1.57351 0.0885366 0
M  V30 7119 C 735.526 2.05858 1.12516 0
M  V30 7120 C 736.542 0.984758 1.43452 0
M  V30 7121 O 737.718 1.29836 1.53963 0
M  V30 7122 C 734.783 2.47882 2.42395 0
M  V30 7123 C 733.844 3.69487 2.18582 0
M  V30 7124 C 733.077 4.09497 3.42268 0
M  V30 7125 O 733.3 3.49536 4.50755 0
M  V30 7126 O 732.234 5.02406 3.31469 0
M  V30 7127 H 736.06 2.94467 0.743146 0
M  V30 7128 H 733.645 1.46326 0.301507 0
M  V30 7129 H 735.527 2.75509 3.18862 0
M  V30 7130 H 734.202 1.62408 2.8001 0
M  V30 7131 H 733.109 3.46967 1.39875 0
M  V30 7132 H 734.442 4.55761 1.85857 0
M  V30 7133 N 736.094 -0.359525 1.53444 0
M  V30 7134 C 737.044 -1.441 1.7669 0
M  V30 7135 C 738.028 -1.48408 0.621599 0
M  V30 7136 O 739.22 -1.53547 0.880468 0
M  V30 7137 C 736.349 -2.81455 1.96566 0
M  V30 7138 C 735.435 -2.81601 3.17115 0
M  V30 7139 N 735.826 -2.51388 4.38905 0
M  V30 7140 C 734.124 -3.12758 3.1796 0
M  V30 7141 C 734.825 -2.59365 5.20677 0
M  V30 7142 N 733.801 -2.94328 4.57025 0
M  V30 7143 H 737.603 -1.19613 2.68458 0
M  V30 7144 H 735.117 -0.567761 1.52152 0
M  V30 7145 H 737.114 -3.59357 2.11348 0
M  V30 7146 H 735.774 -3.06901 1.06029 0
M  V30 7147 H 736.785 -2.24873 4.66533 0
M  V30 7148 H 733.462 -3.43479 2.37336 0
M  V30 7149 H 734.852 -2.39301 6.27841 0
M  V30 7150 N 737.572 -1.44907 -0.619662 0
M  V30 7151 C 738.988 -1.29046 -0.939107 0
M  V30 7152 C 739.188 -0.23462 -2.00129 0
M  V30 7153 O 738.244 0.37558 -2.49691 0
M  V30 7154 C 739.557 -2.66567 -1.39149 0
M  V30 7155 C 741.105 -2.74368 -1.50635 0
M  V30 7156 C 741.58 -4.12386 -1.99253 0
M  V30 7157 N 743.071 -4.1462 -2.06506 0
M  V30 7158 C 743.806 -5.18272 -2.4532 0
M  V30 7159 N 743.302 -6.32278 -2.83189 0
M  V30 7160 N 745.095 -5.05628 -2.45554 0
M  V30 7161 H 737.246 -2.12239 0.0826135 0
M  V30 7162 H 739.509 -0.947652 -0.0256829 0
M  V30 7163 H 739.215 -3.4496 -0.685254 0
M  V30 7164 H 739.089 -2.94224 -2.36034 0
M  V30 7165 H 741.476 -1.96287 -2.20353 0
M  V30 7166 H 741.557 -2.50439 -0.520963 0
M  V30 7167 H 741.201 -4.90947 -1.30127 0
M  V30 7168 H 741.131 -4.33699 -2.98684 0
M  V30 7169 H 743.622 -3.32343 -1.79878 0
M  V30 7170 H 743.935 -7.07172 -3.11652 0
M  V30 7171 H 742.28 -6.35699 -2.80913 0
M  V30 7172 H 745.471 -4.15613 -2.15367 0
M  V30 7173 H 745.644 -5.86529 -2.75478 0
M  V30 7174 N 739.05 0.861098 -1.31996 0
M  V30 7175 C 740.296 1.61721 -1.22369 0
M  V30 7176 C 740.629 1.93 0.215587 0
M  V30 7177 O 739.904 1.56789 1.15098 0
M  V30 7178 C 740.187 2.9417 -2.07691 0
M  V30 7179 C 740.04 2.69714 -3.59965 0
M  V30 7180 C 741.359 3.95372 -1.93312 0
M  V30 7181 H 738.478 0.586822 -0.44588 0
M  V30 7182 H 741.12 0.994788 -1.61876 0
M  V30 7183 H 739.27 3.47292 -1.74128 0
M  V30 7184 H 740.942 2.23196 -4.03709 0
M  V30 7185 H 739.185 2.03789 -3.82952 0
M  V30 7186 H 739.856 3.63996 -4.14983 0
M  V30 7187 H 742.332 3.51487 -2.22701 0
M  V30 7188 H 741.208 4.85916 -2.55298 0
M  V30 7189 H 741.469 4.32865 -0.898922 0
M  V30 7190 N 740.528 1.15101 1.07655 0
M  V30 7191 C 741.774 0.925343 1.80458 0
M  V30 7192 C 742.107 -0.546354 1.86356 0
M  V30 7193 O 741.382 -1.40496 1.34503 0
M  V30 7194 C 741.665 1.53646 3.25676 0
M  V30 7195 C 741.518 3.07854 3.27942 0
M  V30 7196 C 742.837 1.21968 4.22861 0
M  V30 7197 H 739.956 0.337592 0.655134 0
M  V30 7198 H 742.598 1.42217 1.25993 0
M  V30 7199 H 740.748 1.11395 3.72187 0
M  V30 7200 H 742.42 3.58989 2.89697 0
M  V30 7201 H 740.663 3.41904 2.66991 0
M  V30 7202 H 741.334 3.45725 4.30324 0
M  V30 7203 H 743.81 1.5851 3.84726 0
M  V30 7204 H 742.686 1.67349 5.22767 0
M  V30 7205 H 742.947 0.136207 4.4189 0
M  V30 7206 N 742.006 -1.2595 0.947325 0
M  V30 7207 C 743.231 -1.98083 0.614633 0
M  V30 7208 C 743.656 -1.70013 -0.804815 0
M  V30 7209 O 743.014 -0.95175 -1.54309 0
M  V30 7210 C 743.062 -3.4993 0.870706 0
M  V30 7211 O 742.166 -4.12364 -0.0541451 0
M  V30 7212 H 741.507 -0.621232 0.234451 0
M  V30 7213 H 744.037 -1.60259 1.27193 0
M  V30 7214 H 744.047 -4.00198 0.794051 0
M  V30 7215 H 742.722 -3.69691 1.90529 0
M  V30 7216 H 741.299 -3.72826 0.0740917 0
M  V30 7217 N 743.484 -0.715051 -1.40445 0
M  V30 7218 C 744.73 -0.254705 -2.01194 0
M  V30 7219 C 745.063 1.14894 -1.56567 0
M  V30 7220 O 744.338 1.77933 -0.785491 0
M  V30 7221 C 744.621 -0.334148 -3.58546 0
M  V30 7222 C 744.474 -1.77613 -4.13248 0
M  V30 7223 C 745.793 0.294968 -4.3911 0
M  V30 7224 H 742.912 -0.094025 -0.730978 0
M  V30 7225 H 745.554 -0.907449 -1.66929 0
M  V30 7226 H 743.704 0.221609 -3.87867 0
M  V30 7227 H 745.376 -2.38723 -3.94727 0
M  V30 7228 H 743.619 -2.30402 -3.67556 0
M  V30 7229 H 744.29 -1.78311 -5.22407 0
M  V30 7230 H 746.766 -0.178563 -4.15717 0
M  V30 7231 H 745.642 0.208934 -5.48502 0
M  V30 7232 H 745.903 1.37841 -4.20062 0
M  V30 7233 N 744.962 1.50701 -0.461195 0
M  V30 7234 C 745.909 2.2831 0.338094 0
M  V30 7235 C 746.879 1.32928 0.995957 0
M  V30 7236 O 748.064 1.61857 1.0103 0
M  V30 7237 C 745.204 3.14539 1.41983 0
M  V30 7238 C 744.317 4.24942 0.77773 0
M  V30 7239 C 743.452 4.98443 1.83652 0
M  V30 7240 C 742.491 6.00733 1.17413 0
M  V30 7241 N 741.628 6.6755 2.17533 0
M  V30 7242 H 746.468 2.96167 -0.330051 0
M  V30 7243 H 744.005 1.4606 -0.174611 0
M  V30 7244 H 745.963 3.62877 2.05855 0
M  V30 7245 H 744.593 2.48749 2.05727 0
M  V30 7246 H 743.645 3.80391 0.0266924 0
M  V30 7247 H 744.957 4.98151 0.254362 0
M  V30 7248 H 744.111 5.50449 2.55129 0
M  V30 7249 H 742.85 4.24917 2.39367 0
M  V30 7250 H 741.855 5.47997 0.444944 0
M  V30 7251 H 743.08 6.76227 0.624006 0
M  V30 7252 H 741.026 5.96823 2.72284 0
M  V30 7253 H 740.943 7.36603 1.70154 0
M  V30 7254 H 742.211 7.24178 2.88421 0
M  V30 7255 N 746.441 0.193421 1.56409 0
M  V30 7256 C 747.351 -0.740112 2.2262 0
M  V30 7257 C 748.367 -1.23597 1.22474 0
M  V30 7258 O 749.543 -1.28348 1.55206 0
M  V30 7259 C 746.608 -1.94317 2.87127 0
M  V30 7260 C 745.669 -1.49205 4.02538 0
M  V30 7261 C 744.902 -2.63776 4.63959 0
M  V30 7262 O 745.125 -3.81215 4.24301 0
M  V30 7263 O 744.059 -2.36585 5.53454 0
M  V30 7264 H 747.885 -0.206238 3.02999 0
M  V30 7265 H 745.47 -0.0357938 1.49357 0
M  V30 7266 H 747.352 -2.64633 3.27944 0
M  V30 7267 H 746.027 -2.46568 2.09728 0
M  V30 7268 H 744.934 -0.757738 3.66346 0
M  V30 7269 H 746.267 -1.01622 4.81595 0
M  V30 7270 N 747.919 -1.57396 -0.0801906 0
M  V30 7271 C 749.147 -1.91055 -0.794075 0
M  V30 7272 C 749.562 -0.788583 -1.71542 0
M  V30 7273 O 748.919 0.238587 -1.80934 0
M  V30 7274 C 748.97 -3.24418 -1.59484 0
M  V30 7275 O 748.691 -4.323 -0.710532 0
M  V30 7276 C 750.192 -3.72037 -2.41046 0
M  V30 7277 H 747.412 -0.63171 -0.226238 0
M  V30 7278 H 749.956 -2.04431 -0.0529685 0
M  V30 7279 H 748.111 -3.12595 -2.2883 0
M  V30 7280 H 748.525 -5.08976 -1.26663 0
M  V30 7281 H 749.999 -4.68006 -2.92702 0
M  V30 7282 H 750.476 -3.00624 -3.2019 0
M  V30 7283 H 751.082 -3.86777 -1.76871 0
M  V30 7284 N 749.397 0.351382 -1.53633 0
M  V30 7285 C 750.622 1.11718 -1.74739 0
M  V30 7286 C 751.047 1.81829 -0.481657 0
M  V30 7287 O 750.405 1.72264 0.565233 0
M  V30 7288 C 750.453 2.11234 -2.92254 0
M  V30 7289 O 749.557 3.186 -2.61855 0
M  V30 7290 H 748.898 0.323482 -0.579875 0
M  V30 7291 H 751.428 0.404167 -2.00568 0
M  V30 7292 H 751.438 2.54591 -3.18822 0
M  V30 7293 H 750.113 1.59599 -3.84058 0
M  V30 7294 H 748.69 2.80115 -2.4615 0
M  V30 7295 N 750.875 1.45233 0.611969 0
M  V30 7296 C 752.124 1.48296 1.36716 0
M  V30 7297 C 752.437 0.12706 1.95187 0
M  V30 7298 O 753.643 0.0353066 2.71477 0
M  V30 7299 C 752.099 2.61168 2.47627 0
M  V30 7300 C 751.707 4.03051 1.95587 0
M  V30 7301 C 753.451 2.73472 3.24674 0
M  V30 7302 C 751.358 5.07312 3.03954 0
M  V30 7303 H 750.288 0.5518 0.513841 0
M  V30 7304 H 752.939 1.7136 0.656359 0
M  V30 7305 H 751.321 2.31379 3.21372 0
M  V30 7306 H 752.495 4.42497 1.2858 0
M  V30 7307 H 750.81 3.95158 1.31298 0
M  V30 7308 H 753.407 3.48537 4.05494 0
M  V30 7309 H 753.75 1.79953 3.75397 0
M  V30 7310 H 754.283 3.02765 2.58028 0
M  V30 7311 H 751.022 6.02525 2.58154 0
M  V30 7312 H 750.542 4.7244 3.69541 0
M  V30 7313 H 752.221 5.31867 3.6841 0
M  V30 7314 N 752.353 -0.854086 1.3245 0
M  V30 7315 C 753.578 -1.64597 1.26185 0
M  V30 7316 C 754.003 -1.87357 -0.167074 0
M  V30 7317 O 753.361 -1.42675 -1.11864 0
M  V30 7318 C 753.409 -2.98213 2.02734 0
M  V30 7319 O 752.513 -3.88784 1.37554 0
M  V30 7320 H 751.854 -0.50179 0.434859 0
M  V30 7321 H 754.384 -1.06372 1.74775 0
M  V30 7322 H 754.394 -3.4803 2.1293 0
M  V30 7323 H 753.069 -2.80969 3.06642 0
M  V30 7324 H 751.646 -3.4725 1.3591 0
M  V30 7325 N 753.831 -1.1567 -1.07043 0
M  V30 7326 C 754.794 -0.858906 -2.12498 0
M  V30 7327 C 755.794 0.142735 -1.60165 0
M  V30 7328 O 756.984 -0.0872678 -1.73981 0
M  V30 7329 C 754.116 -0.283021 -3.39723 0
M  V30 7330 H 755.309 -1.79368 -2.40348 0
M  V30 7331 H 752.862 -0.964608 -1.22984 0
M  V30 7332 H 753.597 0.659796 -3.17517 0
M  V30 7333 H 753.382 -1.00467 -3.7901 0
M  V30 7334 H 754.872 -0.0923543 -4.17498 0
M  V30 7335 N 755.309 1.25446 -0.953992 0
M  V30 7336 C 756.557 1.92762 -0.607227 0
M  V30 7337 C 756.878 1.7509 0.858399 0
M  V30 7338 O 756.148 1.11416 1.61132 0
M  V30 7339 H 754.728 0.713377 -0.221591 0
M  V30 7340 H 757.39 1.52625 -1.21209 0
M  V30 7341 H 756.486 3.00695 -0.835998 0
M  V30 7342 N 756.787 0.722489 1.40064 0
M  V30 7343 C 758.017 0.274439 2.04769 0
M  V30 7344 C 758.425 -1.09125 1.54559 0
M  V30 7345 O 757.768 -1.69834 0.700149 0
M  V30 7346 C 757.83 0.184091 3.59028 0
M  V30 7347 C 757.494 1.48619 4.32159 0
M  V30 7348 C 758.491 2.42947 4.59644 0
M  V30 7349 C 756.176 1.74703 4.7094 0
M  V30 7350 C 758.17 3.616 5.24904 0
M  V30 7351 C 755.857 2.93636 5.3593 0
M  V30 7352 C 756.855 3.86907 5.62843 0
M  V30 7353 O 756.543 5.03753 6.26489 0
M  V30 7354 H 756.275 0.119847 0.665292 0
M  V30 7355 H 758.829 0.983352 1.80331 0
M  V30 7356 H 757.059 -0.580821 3.82313 0
M  V30 7357 H 758.748 -0.230306 4.05246 0
M  V30 7358 H 759.514 2.24062 4.30141 0
M  V30 7359 H 755.393 1.02955 4.49356 0
M  V30 7360 H 758.937 4.34418 5.45827 0
M  V30 7361 H 754.834 3.12428 5.64853 0
M  V30 7362 H 755.602 5.03922 6.44984 0
M  V30 7363 N 758.265 -1.50454 0.469181 0
M  V30 7364 C 759.175 -2.32248 -0.331349 0
M  V30 7365 C 760.191 -1.42548 -0.997807 0
M  V30 7366 O 761.367 -1.75602 -0.9862 0
M  V30 7367 C 758.432 -3.17171 -1.40012 0
M  V30 7368 C 757.493 -4.2269 -0.750463 0
M  V30 7369 C 756.726 -5.03554 -1.76831 0
M  V30 7370 O 756.949 -4.85469 -2.99459 0
M  V30 7371 O 755.883 -5.86767 -1.3412 0
M  V30 7372 H 759.709 -3.01821 0.337279 0
M  V30 7373 H 757.294 -1.47602 0.231066 0
M  V30 7374 H 759.176 -3.69871 -2.01924 0
M  V30 7375 H 757.851 -2.50328 -2.05226 0
M  V30 7376 H 756.758 -3.73986 -0.0924446 0
M  V30 7377 H 758.091 -4.91997 -0.14131 0
M  V30 7378 N 759.743 -0.201713 -1.56304 0
M  V30 7379 C 760.989 0.435952 -1.98059 0
M  V30 7380 C 761.322 1.60811 -1.08873 0
M  V30 7381 O 760.597 1.9398 -0.142128 0
M  V30 7382 C 760.88 0.889706 -3.48936 0
M  V30 7383 C 760.733 -0.284725 -4.48898 0
M  V30 7384 C 762.052 1.7529 -4.03685 0
M  V30 7385 H 759.171 0.15699 -0.720085 0
M  V30 7386 H 761.813 -0.293965 -1.87712 0
M  V30 7387 H 759.963 1.51166 -3.57884 0
M  V30 7388 H 761.635 -0.922531 -4.51981 0
M  V30 7389 H 759.878 -0.935427 -4.23594 0
M  V30 7390 H 760.549 0.0753865 -5.51949 0
M  V30 7391 H 763.025 1.2283 -3.97558 0
M  V30 7392 H 761.901 2.03933 -5.0961 0
M  V30 7393 H 762.162 2.70939 -3.49348 0
M  V30 7394 N 761.222 1.57436 0.0718424 0
M  V30 7395 C 762.462 1.89082 0.776351 0
M  V30 7396 C 762.826 0.795494 1.74745 0
M  V30 7397 O 764.027 0.995025 2.49705 0
M  V30 7398 C 762.298 3.25958 1.46582 0
M  V30 7399 S 763.857 3.79352 2.2054 0
M  V30 7400 H 760.675 0.662472 0.25817 0
M  V30 7401 H 763.277 1.95473 0.0324536 0
M  V30 7402 H 761.981 4.03577 0.745237 0
M  V30 7403 H 761.512 3.22764 2.24915 0
M  V30 7404 H 763.527 3.54634 3.47058 0
M  V30 7405 N 762.7 -0.34323 1.53817 0
M  V30 7406 C 763.632 -1.44216 1.78141 0
M  V30 7407 C 764.645 -1.48701 0.662721 0
M  V30 7408 O 765.834 -1.51778 0.939458 0
M  V30 7409 C 762.934 -2.82872 1.86646 0
M  V30 7410 C 762.107 -3.01824 3.16577 0
M  V30 7411 C 761.166 -4.20723 3.16036 0
M  V30 7412 O 760.192 -4.14824 3.89756 0
M  V30 7413 N 761.394 -5.29276 2.38427 0
M  V30 7414 H 764.159 -1.23721 2.72971 0
M  V30 7415 H 761.72 -0.53311 1.52871 0
M  V30 7416 H 763.712 -3.60588 1.83735 0
M  V30 7417 H 762.282 -2.96509 0.990014 0
M  V30 7418 H 761.502 -2.11575 3.3261 0
M  V30 7419 H 762.79 -3.11369 4.02402 0
M  V30 7420 H 762.188 -5.36938 1.78085 0
M  V30 7421 H 760.745 -6.05484 2.41313 0
M  V30 7422 N 764.178 -1.45556 -0.604258 0
M  V30 7423 C 765.128 -1.50906 -1.70913 0
M  V30 7424 C 766.112 -0.371996 -1.56541 0
M  V30 7425 O 767.304 -0.619064 -1.65821 0
M  V30 7426 C 764.433 -1.48181 -3.09673 0
M  V30 7427 C 763.519 -2.67102 -3.2942 0
M  V30 7428 N 763.91 -3.92184 -3.19414 0
M  V30 7429 C 762.208 -2.6287 -3.60299 0
M  V30 7430 C 762.909 -4.71571 -3.40581 0
M  V30 7431 N 761.885 -4.03081 -3.64728 0
M  V30 7432 H 765.687 -2.45435 -1.61675 0
M  V30 7433 H 763.201 -1.40894 -0.807622 0
M  V30 7434 H 765.198 -1.501 -3.88942 0
M  V30 7435 H 763.858 -0.54712 -3.20057 0
M  V30 7436 H 764.869 -4.23756 -2.97743 0
M  V30 7437 H 761.546 -1.78324 -3.77501 0
M  V30 7438 H 762.936 -5.80571 -3.38211 0
M  V30 7439 N 765.656 0.84705 -1.32902 0
M  V30 7440 C 766.566 1.98845 -1.2449 0
M  V30 7441 C 767.582 1.7329 -0.15702 0
M  V30 7442 O 768.758 1.978 -0.379104 0
M  V30 7443 C 765.823 3.32679 -0.975985 0
M  V30 7444 C 764.884 3.71405 -2.15306 0
M  V30 7445 C 764.117 4.98853 -1.89688 0
M  V30 7446 O 764.34 5.64134 -0.843168 0
M  V30 7447 O 763.274 5.34889 -2.76002 0
M  V30 7448 H 767.1 2.0888 -2.2046 0
M  V30 7449 H 764.685 0.978852 -1.12867 0
M  V30 7450 H 766.567 4.12885 -0.842826 0
M  V30 7451 H 765.242 3.23667 -0.0464954 0
M  V30 7452 H 764.149 2.91743 -2.34172 0
M  V30 7453 H 765.482 3.85073 -3.06561 0
M  V30 7454 N 767.134 1.16236 1.06428 0
M  V30 7455 C 768.38 0.944431 1.79467 0
M  V30 7456 C 768.713 -0.526558 1.86925 0
M  V30 7457 O 767.988 -1.39061 1.35986 0
M  V30 7458 C 768.271 1.57092 3.24028 0
M  V30 7459 C 768.124 3.11315 3.24658 0
M  V30 7460 C 769.443 1.26447 4.21544 0
M  V30 7461 H 766.562 0.344521 0.651517 0
M  V30 7462 H 769.204 1.43545 1.24478 0
M  V30 7463 H 767.354 1.15337 3.70985 0
M  V30 7464 H 769.026 3.62042 2.85873 0
M  V30 7465 H 767.269 3.44716 2.6335 0
M  V30 7466 H 767.94 3.50269 4.26633 0
M  V30 7467 H 770.416 1.62581 3.83023 0
M  V30 7468 H 769.292 1.72885 5.20963 0
M  V30 7469 H 769.553 0.183068 4.41721 0
M  V30 7470 N 768.612 -1.24939 0.960631 0
M  V30 7471 C 769.542 -2.28 0.503815 0
M  V30 7472 C 770.523 -1.63959 -0.452928 0
M  V30 7473 O 771.708 -1.91009 -0.350585 0
M  V30 7474 C 768.838 -3.46643 -0.213535 0
M  V30 7475 C 767.792 -4.22903 0.658535 0
M  V30 7476 C 767.118 -5.34363 -0.189902 0
M  V30 7477 C 768.418 -4.84949 1.93963 0
M  V30 7478 H 770.112 -2.66462 1.36521 0
M  V30 7479 H 767.658 -1.28093 0.657897 0
M  V30 7480 H 769.611 -4.1787 -0.544286 0
M  V30 7481 H 768.335 -3.07187 -1.10923 0
M  V30 7482 H 766.994 -3.53467 0.972455 0
M  V30 7483 H 766.642 -4.91147 -1.08553 0
M  V30 7484 H 766.342 -5.86302 0.390331 0
M  V30 7485 H 767.866 -6.0842 -0.515484 0
M  V30 7486 H 769.28 -5.48288 1.67491 0
M  V30 7487 H 767.677 -5.47091 2.46601 0
M  V30 7488 H 768.747 -4.06799 2.639 0
M  V30 7489 N 770.09 -0.729906 -1.39679 0
M  V30 7490 C 771.338 -0.275077 -2.00219 0
M  V30 7491 C 771.659 1.1401 -1.58199 0
M  V30 7492 O 770.929 1.77546 -0.827904 0
M  V30 7493 H 769.509 -0.0987127 -0.740449 0
M  V30 7494 H 772.171 -0.93873 -1.70804 0
M  V30 7495 H 771.267 -0.319446 -3.10461 0
M  V30 7496 N 771.568 1.50203 -0.477153 0
M  V30 7497 C 772.816 2.01959 0.0755889 0
M  V30 7498 C 773.137 1.3608 1.39668 0
M  V30 7499 O 772.407 0.508136 1.89195 0
M  V30 7500 H 770.987 0.74636 0.0309248 0
M  V30 7501 H 773.649 1.84473 -0.628959 0
M  V30 7502 H 772.745 3.11305 0.222683 0
M  V30 7503 N 773.046 0.209999 1.56195 0
M  V30 7504 C 774.294 -0.423974 1.97603 0
M  V30 7505 C 774.615 -1.61112 1.09854 0
M  V30 7506 O 773.885 -1.95134 0.173032 0
M  V30 7507 H 772.465 -0.159629 0.729745 0
M  V30 7508 H 775.127 0.300205 1.92574 0
M  V30 7509 H 774.223 -0.75809 3.02753 0
M  V30 7510 N 774.524 -1.57472 -0.0634922 0
M  V30 7511 C 775.94 -1.54016 -0.418466 0
M  V30 7512 C 776.14 -0.931376 -1.78683 0
M  V30 7513 O 775.196 -0.537465 -2.46714 0
M  V30 7514 C 776.509 -2.98634 -0.351906 0
M  V30 7515 C 778.057 -3.10012 -0.431494 0
M  V30 7516 C 778.532 -4.56296 -0.394754 0
M  V30 7517 N 780.023 -4.60964 -0.454583 0
M  V30 7518 C 780.758 -5.71643 -0.448501 0
M  V30 7519 N 780.254 -6.91663 -0.396742 0
M  V30 7520 N 782.047 -5.5991 -0.495677 0
M  V30 7521 H 774.198 -1.95409 0.832408 0
M  V30 7522 H 776.461 -0.894769 0.313197 0
M  V30 7523 H 776.167 -3.46766 0.587048 0
M  V30 7524 H 776.041 -3.58955 -1.15893 0
M  V30 7525 H 778.428 -2.61848 -1.36087 0
M  V30 7526 H 778.509 -2.52585 0.404258 0
M  V30 7527 H 778.153 -5.05119 0.530811 0
M  V30 7528 H 778.083 -5.11594 -1.24815 0
M  V30 7529 H 780.574 -3.74598 -0.498496 0
M  V30 7530 H 780.887 -7.71783 -0.396256 0
M  V30 7531 H 779.232 -6.9405 -0.363304 0
M  V30 7532 H 782.423 -4.65046 -0.533864 0
M  V30 7533 H 782.596 -6.46164 -0.487469 0
M  V30 7534 N 776.003 0.335068 -1.53997 0
M  V30 7535 C 777.25 1.07435 -1.71651 0
M  V30 7536 C 777.578 1.88378 -0.48413 0
M  V30 7537 O 776.833 1.8827 0.534139 0
M  V30 7538 C 777.132 2.0364 -2.9371 0
M  V30 7539 C 776.798 1.38942 -4.28959 0
M  V30 7540 C 775.46 1.21027 -4.65732 0
M  V30 7541 C 777.812 0.924083 -5.12943 0
M  V30 7542 C 775.14 0.552097 -5.84097 0
M  V30 7543 C 777.492 0.27978 -6.31981 0
M  V30 7544 C 776.156 0.0883843 -6.67441 0
M  V30 7545 H 775.426 0.393133 -0.628114 0
M  V30 7546 H 778.073 0.352712 -1.88224 0
M  V30 7547 H 776.378 2.82215 -2.71775 0
M  V30 7548 H 778.075 2.6085 -3.04562 0
M  V30 7549 H 774.665 1.53885 -4.00022 0
M  V30 7550 H 778.849 1.05032 -4.85059 0
M  V30 7551 H 774.105 0.392502 -6.10139 0
M  V30 7552 H 778.279 -0.0888479 -6.96343 0
M  V30 7553 H 775.906 -0.423657 -7.59019 0
M  V30 7554 N 777.481 1.45874 0.596531 0
M  V30 7555 C 778.729 1.5017 1.35253 0
M  V30 7556 C 779.05 0.149246 1.94428 0
M  V30 7557 O 778.32 -0.82268 1.77789 0
M  V30 7558 H 776.9 0.553052 0.502138 0
M  V30 7559 H 779.562 1.81908 0.699671 0
M  V30 7560 H 778.658 2.24671 2.16632 0
M  V30 7561 N 778.959 -0.83999 1.33349 0
M  V30 7562 C 779.891 -1.95678 1.19344 0
M  V30 7563 C 780.904 -1.62322 0.124692 0
M  V30 7564 O 782.093 -1.74516 0.375012 0
M  V30 7565 C 779.193 -3.29133 0.807771 0
M  V30 7566 C 778.366 -3.9063 1.96792 0
M  V30 7567 C 777.425 -5.02438 1.56341 0
M  V30 7568 O 776.451 -5.21646 2.27759 0
M  V30 7569 N 777.653 -5.78612 0.467767 0
M  V30 7570 H 780.418 -2.08229 2.15548 0
M  V30 7571 H 777.979 -1.01566 1.26079 0
M  V30 7572 H 779.971 -4.01355 0.519282 0
M  V30 7573 H 778.541 -3.12535 -0.063555 0
M  V30 7574 H 777.761 -3.11011 2.4221 0
M  V30 7575 H 779.049 -4.2845 2.74422 0
M  V30 7576 H 778.447 -5.65559 -0.126324 0
M  V30 7577 H 777.004 -6.51362 0.238945 0
M  V30 7578 N 780.437 -1.16799 -1.0581 0
M  V30 7579 C 781.683 -0.953935 -1.78963 0
M  V30 7580 C 782.016 0.516638 -1.87202 0
M  V30 7581 O 781.291 1.38338 -1.36721 0
M  V30 7582 C 781.574 -1.58808 -3.23191 0
M  V30 7583 C 781.427 -3.13032 -3.23003 0
M  V30 7584 C 782.746 -1.2868 -4.20867 0
M  V30 7585 H 779.865 -0.347972 -0.64968 0
M  V30 7586 H 782.507 -1.44204 -1.23715 0
M  V30 7587 H 780.657 -1.17303 -3.70368 0
M  V30 7588 H 782.329 -3.63553 -2.83949 0
M  V30 7589 H 780.572 -3.46108 -2.61518 0
M  V30 7590 H 781.243 -3.52527 -4.24769 0
M  V30 7591 H 783.719 -1.6461 -3.82155 0
M  V30 7592 H 782.595 -1.75645 -5.20038 0
M  V30 7593 H 782.856 -0.206491 -4.41618 0
M  V30 7594 N 781.915 1.24427 -0.967243 0
M  V30 7595 C 782.865 2.23143 -0.468106 0
M  V30 7596 C 783.849 1.5449 0.449633 0
M  V30 7597 O 785.041 1.74761 0.28063 0
M  V30 7598 C 782.17 3.42454 0.240867 0
M  V30 7599 C 781.256 4.18355 -0.695674 0
M  V30 7600 N 781.647 4.71428 -1.83273 0
M  V30 7601 C 779.945 4.43116 -0.506365 0
M  V30 7602 C 780.646 5.29041 -2.41849 0
M  V30 7603 N 779.622 5.16213 -1.70369 0
M  V30 7604 H 783.424 2.61795 -1.3357 0
M  V30 7605 H 780.938 1.39809 -0.826277 0
M  V30 7606 H 782.935 4.12329 0.615668 0
M  V30 7607 H 781.595 3.05323 1.10491 0
M  V30 7608 H 782.606 4.68177 -2.21428 0
M  V30 7609 H 779.283 4.16319 0.313747 0
M  V30 7610 H 780.673 5.80811 -3.37799 0
M  V30 7611 N 783.393 0.737304 1.3929 0
M  V30 7612 C 784.809 0.413132 1.5416 0
M  V30 7613 C 785.009 -1.07574 1.70382 0
M  V30 7614 O 784.065 -1.86185 1.70562 0
M  V30 7615 C 785.378 1.19817 2.75798 0
M  V30 7616 C 786.926 1.18662 2.89635 0
M  V30 7617 C 787.401 1.95427 4.14213 0
M  V30 7618 N 788.892 1.92605 4.21257 0
M  V30 7619 C 789.627 2.48808 5.16606 0
M  V30 7620 N 789.123 3.13659 6.1773 0
M  V30 7621 N 790.916 2.38829 5.08839 0
M  V30 7622 H 783.067 1.70243 1.27008 0
M  V30 7623 H 785.33 0.720802 0.61575 0
M  V30 7624 H 785.036 2.25179 2.70161 0
M  V30 7625 H 784.91 0.804144 3.68529 0
M  V30 7626 H 787.297 0.141112 2.94762 0
M  V30 7627 H 787.378 1.62003 1.97961 0
M  V30 7628 H 787.022 2.9998 4.09847 0
M  V30 7629 H 786.952 1.4949 5.04936 0
M  V30 7630 H 789.443 1.45362 3.48824 0
M  V30 7631 H 789.756 3.54006 6.8695 0
M  V30 7632 H 788.101 3.17749 6.1811 0
M  V30 7633 H 791.292 1.87806 4.28773 0
M  V30 7634 H 791.465 2.82929 5.82971 0
M  V30 7635 N 784.871 -1.49948 0.485112 0
M  V30 7636 C 786.111 -2.04301 -0.0635728 0
M  V30 7637 C 786.475 -1.35804 -1.35725 0
M  V30 7638 O 787.676 -1.80789 -1.98919 0
M  V30 7639 C 785.947 -3.56666 -0.228962 0
M  V30 7640 S 787.506 -4.32614 -0.734185 0
M  V30 7641 H 784.324 -0.710939 -0.00931895 0
M  V30 7642 H 786.926 -1.84185 0.655455 0
M  V30 7643 H 785.63 -4.04068 0.718148 0
M  V30 7644 H 785.161 -3.8116 -0.973696 0
M  V30 7645 H 787.176 -4.53859 -2.00565 0
M  V30 7646 N 786.349 -0.21828 -1.56081 0
M  V30 7647 C 787.577 0.419258 -2.02608 0
M  V30 7648 C 787.992 1.53578 -1.09814 0
M  V30 7649 O 787.349 1.82185 -0.107149 0
M  V30 7650 C 787.4 0.953955 -3.48686 0
M  V30 7651 O 787.121 -0.11805 -4.37941 0
M  V30 7652 C 788.622 1.66506 -4.10841 0
M  V30 7653 H 785.842 0.10296 -0.663054 0
M  V30 7654 H 788.386 -0.333776 -2.01758 0
M  V30 7655 H 786.541 1.65727 -3.50162 0
M  V30 7656 H 786.955 0.283359 -5.23734 0
M  V30 7657 H 788.429 1.99123 -5.14834 0
M  V30 7658 H 788.906 2.57705 -3.55647 0
M  V30 7659 H 789.512 1.00703 -4.13206 0
M  V30 7660 N 787.827 1.57504 0.0551401 0
M  V30 7661 C 788.737 2.08198 1.08124 0
M  V30 7662 C 789.753 1.01496 1.41331 0
M  V30 7663 O 790.929 1.33073 1.51174 0
M  V30 7664 C 787.994 2.52968 2.37083 0
M  V30 7665 C 787.055 3.7404 2.10696 0
M  V30 7666 C 786.288 4.16665 3.33505 0
M  V30 7667 O 786.511 3.59019 4.4324 0
M  V30 7668 O 785.445 5.09324 3.20737 0
M  V30 7669 H 789.271 2.95977 0.680518 0
M  V30 7670 H 786.856 1.46933 0.270401 0
M  V30 7671 H 788.738 2.82211 3.12946 0
M  V30 7672 H 787.413 1.6831 2.76502 0
M  V30 7673 H 786.32 3.49855 1.32484 0
M  V30 7674 H 787.653 4.59601 1.76148 0
M  V30 7675 N 789.305 -0.326896 1.54172 0
M  V30 7676 C 790.252 -1.40216 1.83325 0
M  V30 7677 C 791.222 -1.51538 0.680107 0
M  V30 7678 O 792.407 -1.66811 0.926206 0
M  V30 7679 C 789.547 -2.76626 2.0633 0
M  V30 7680 C 788.66 -2.73963 3.34019 0
M  V30 7681 C 787.795 -4.02198 3.47002 0
M  V30 7682 C 786.834 -3.93828 4.68578 0
M  V30 7683 N 785.971 -5.13787 4.78506 0
M  V30 7684 H 790.811 -1.14656 2.7506 0
M  V30 7685 H 788.348 -0.555089 1.36225 0
M  V30 7686 H 790.306 -3.55922 2.17659 0
M  V30 7687 H 788.936 -3.00503 1.1789 0
M  V30 7688 H 787.988 -1.86677 3.31445 0
M  V30 7689 H 789.3 -2.6366 4.2342 0
M  V30 7690 H 788.454 -4.89923 3.57855 0
M  V30 7691 H 787.193 -4.15302 2.55687 0
M  V30 7692 H 786.198 -3.04487 4.57786 0
M  V30 7693 H 787.423 -3.82292 5.61275 0
M  V30 7694 H 785.369 -5.27403 3.90105 0
M  V30 7695 H 785.286 -5.05807 5.61868 0
M  V30 7696 H 786.554 -6.03236 4.93686 0
M  V30 7697 N 790.784 -1.46188 -0.588786 0
M  V30 7698 C 792.009 -1.5498 -1.37826 0
M  V30 7699 C 792.434 -0.189498 -1.87143 0
M  V30 7700 O 791.792 0.829293 -1.61222 0
M  V30 7701 C 791.84 -2.55369 -2.54596 0
M  V30 7702 O 790.944 -2.08452 -3.55839 0
M  V30 7703 H 790.285 -0.521741 -0.41071 0
M  V30 7704 H 792.815 -1.91708 -0.714779 0
M  V30 7705 H 792.825 -2.74782 -3.01594 0
M  V30 7706 H 791.5 -3.54155 -2.18052 0
M  V30 7707 H 790.077 -1.98999 -3.15363 0
M  V30 7708 N 792.262 0.832906 -1.33792 0
M  V30 7709 C 793.49 1.62048 -1.28639 0
M  V30 7710 C 793.905 1.88269 0.141522 0
M  V30 7711 O 793.262 1.46706 1.08553 0
M  V30 7712 C 793.313 2.96722 -2.0649 0
M  V30 7713 O 793.034 2.7165 -3.43712 0
M  V30 7714 C 794.535 3.91144 -2.08617 0
M  V30 7715 H 791.755 0.504032 -0.442937 0
M  V30 7716 H 794.299 1.03704 -1.76255 0
M  V30 7717 H 792.454 3.51652 -1.62541 0
M  V30 7718 H 792.868 3.57453 -3.83833 0
M  V30 7719 H 794.342 4.82837 -2.67531 0
M  V30 7720 H 794.819 4.25766 -1.07796 0
M  V30 7721 H 795.425 3.42152 -2.52611 0
M  V30 7722 N 793.74 1.17359 1.05189 0
M  V30 7723 C 794.988 0.960087 1.77839 0
M  V30 7724 C 795.309 -0.512554 1.88143 0
M  V30 7725 O 794.579 -1.3721 1.39822 0
M  V30 7726 H 793.159 0.352234 0.658741 0
M  V30 7727 H 795.821 1.47834 1.27008 0
M  V30 7728 H 794.917 1.38843 2.79516 0
M  V30 7729 N 795.218 -1.23913 0.973828 0
M  V30 7730 C 796.148 -2.27453 0.527969 0
M  V30 7731 C 797.129 -1.6443 -0.435513 0
M  V30 7732 O 798.314 -1.9137 -0.330306 0
M  V30 7733 C 795.444 -3.4685 -0.176757 0
M  V30 7734 C 794.398 -4.22181 0.703352 0
M  V30 7735 C 793.724 -5.34534 -0.133215 0
M  V30 7736 C 795.024 -4.82865 1.99096 0
M  V30 7737 H 796.718 -2.65 1.3934 0
M  V30 7738 H 794.264 -1.27388 0.671446 0
M  V30 7739 H 796.217 -4.18424 -0.499934 0
M  V30 7740 H 794.941 -3.08346 -1.07659 0
M  V30 7741 H 793.6 -3.52416 1.00989 0
M  V30 7742 H 793.248 -4.92271 -1.03338 0
M  V30 7743 H 792.948 -5.85855 0.452494 0
M  V30 7744 H 794.472 -6.08933 -0.450924 0
M  V30 7745 H 795.886 -5.46481 1.73297 0
M  V30 7746 H 794.283 -5.44444 2.52389 0
M  V30 7747 H 795.353 -4.03977 2.68199 0
M  V30 7748 N 796.696 -0.74468 -1.38897 0
M  V30 7749 C 798.107 -0.36568 -1.83084 0
M  V30 7750 C 798.458 1.10436 -1.62168 0
M  V30 7751 O 797.583 1.85281 -1.11804 0
M  V30 7752 C 798.178 -0.656946 -3.3237 0
M  V30 7753 C 796.737 -0.331329 -3.74939 0
M  V30 7754 C 795.884 -0.914661 -2.61781 0
M  V30 7755 H 798.835 -0.941551 -1.27752 0
M  V30 7756 H 798.856 0.0679546 -3.80439 0
M  V30 7757 H 798.368 -1.72693 -3.47561 0
M  V30 7758 H 796.469 0.732426 -3.6533 0
M  V30 7759 H 796.582 -0.820655 -4.72019 0
M  V30 7760 H 794.946 -0.34063 -2.52412 0
M  V30 7761 H 795.729 -1.98949 -2.79775 0
M  V30 7762 N 798.174 1.49689 -0.493057 0
M  V30 7763 C 799.104 2.31826 0.279073 0
M  V30 7764 C 800.085 1.39733 0.969987 0
M  V30 7765 O 801.27 1.68646 0.962925 0
M  V30 7766 C 798.4 3.20046 1.34862 0
M  V30 7767 C 797.354 4.20869 0.77805 0
M  V30 7768 C 796.68 4.97971 1.94753 0
M  V30 7769 C 797.98 5.21813 -0.225543 0
M  V30 7770 H 799.674 2.96627 -0.406512 0
M  V30 7771 H 797.22 1.42647 -0.196943 0
M  V30 7772 H 799.173 3.76315 1.89645 0
M  V30 7773 H 797.897 2.53172 2.06328 0
M  V30 7774 H 796.556 3.65733 0.252036 0
M  V30 7775 H 796.204 4.27552 2.64969 0
M  V30 7776 H 795.904 5.66186 1.57187 0
M  V30 7777 H 797.428 5.57082 2.49984 0
M  V30 7778 H 798.842 5.72823 0.233864 0
M  V30 7779 H 797.239 5.97872 -0.516622 0
M  V30 7780 H 798.309 4.71209 -1.14412 0
M  V30 7781 N 799.652 0.226554 1.55963 0
M  V30 7782 C 800.615 -0.668015 2.19249 0
M  V30 7783 C 801.615 -1.11794 1.1558 0
M  V30 7784 O 802.805 -1.02593 1.40784 0
M  V30 7785 C 799.937 -1.91571 2.81981 0
M  V30 7786 H 801.13 -0.116175 2.99675 0
M  V30 7787 H 798.683 -0.0230497 1.56283 0
M  V30 7788 H 799.418 -2.50929 2.05439 0
M  V30 7789 H 799.203 -1.6015 3.57903 0
M  V30 7790 H 800.693 -2.55294 3.30477 0
M  V30 7791 N 801.13 -1.57531 -0.0467866 0
M  V30 7792 C 802.093 -2.04379 -1.03738 0
M  V30 7793 C 803.093 -0.944881 -1.3011 0
M  V30 7794 O 804.283 -1.20904 -1.25411 0
M  V30 7795 C 801.415 -2.44572 -2.37482 0
M  V30 7796 H 802.608 -2.93142 -0.633063 0
M  V30 7797 H 800.161 -1.53526 -0.293177 0
M  V30 7798 H 800.896 -1.58911 -2.82697 0
M  V30 7799 H 800.681 -3.24785 -2.19675 0
M  V30 7800 H 802.171 -2.81307 -3.08636 0
M  V30 7801 N 802.608 0.318715 -1.54344 0
M  V30 7802 C 803.555 1.39242 -1.84066 0
M  V30 7803 C 804.525 1.51175 -0.688134 0
M  V30 7804 O 805.71 1.66318 -0.935039 0
M  V30 7805 C 802.85 2.75528 -2.07794 0
M  V30 7806 C 801.963 2.72187 -3.35467 0
M  V30 7807 C 801.098 4.00352 -3.4913 0
M  V30 7808 C 800.137 3.91338 -4.7066 0
M  V30 7809 N 799.274 5.11242 -4.81224 0
M  V30 7810 H 804.114 1.13196 -2.75664 0
M  V30 7811 H 801.651 0.547857 -1.36517 0
M  V30 7812 H 803.609 3.54763 -2.19543 0
M  V30 7813 H 802.239 2.99873 -1.19482 0
M  V30 7814 H 801.291 1.84917 -3.3243 0
M  V30 7815 H 802.603 2.61411 -4.24812 0
M  V30 7816 H 801.757 4.88019 -3.60448 0
M  V30 7817 H 800.496 4.1394 -2.57886 0
M  V30 7818 H 799.501 3.02055 -4.59394 0
M  V30 7819 H 800.726 3.7931 -5.63294 0
M  V30 7820 H 798.672 5.25327 -3.92897 0
M  V30 7821 H 798.589 5.0282 -5.64543 0
M  V30 7822 H 799.857 6.0061 -4.96879 0
M  V30 7823 N 804.086 1.46499 0.581025 0
M  V30 7824 C 805.335 1.51162 1.3354 0
M  V30 7825 C 805.648 0.168433 1.94873 0
M  V30 7826 O 806.854 0.092883 2.71341 0
M  V30 7827 C 805.31 2.66362 2.42032 0
M  V30 7828 C 804.918 4.07109 1.86994 0
M  V30 7829 C 806.662 2.80297 3.188 0
M  V30 7830 C 804.569 5.13645 2.93125 0
M  V30 7831 H 803.499 0.562576 0.502021 0
M  V30 7832 H 806.15 1.72713 0.619863 0
M  V30 7833 H 804.532 2.38143 3.16392 0
M  V30 7834 H 805.706 4.45125 1.19166 0
M  V30 7835 H 804.021 3.97854 1.22887 0
M  V30 7836 H 806.618 3.5706 3.9801 0
M  V30 7837 H 806.961 1.87875 3.71495 0
M  V30 7838 H 807.494 3.0817 2.51547 0
M  V30 7839 H 804.233 6.07866 2.45315 0
M  V30 7840 H 803.753 4.80172 3.59437 0
M  V30 7841 H 805.432 5.39562 3.57046 0
M  V30 7842 N 805.565 -0.825799 1.34232 0
M  V30 7843 C 806.814 -1.57686 1.2577 0
M  V30 7844 C 807.127 -1.94848 -0.171372 0
M  V30 7845 O 808.333 -2.68854 -0.378123 0
M  V30 7846 C 806.789 -2.84478 2.20454 0
M  V30 7847 C 806.397 -2.54629 3.68603 0
M  V30 7848 C 808.141 -3.625 2.20893 0
M  V30 7849 C 806.048 -3.77597 4.55164 0
M  V30 7850 H 804.978 -0.591809 0.467203 0
M  V30 7851 H 807.629 -0.909421 1.59379 0
M  V30 7852 H 806.011 -3.52832 1.79793 0
M  V30 7853 H 807.185 -1.94404 4.17784 0
M  V30 7854 H 805.5 -1.89888 3.70582 0
M  V30 7855 H 808.097 -4.538 2.82789 0
M  V30 7856 H 808.44 -3.98404 1.20746 0
M  V30 7857 H 808.973 -3.01086 2.59985 0
M  V30 7858 H 805.712 -3.46815 5.56237 0
M  V30 7859 H 805.232 -4.37116 4.10719 0
M  V30 7860 H 806.911 -4.45039 4.69627 0
M  V30 7861 N 807.043 -1.17915 -1.04565 0
M  V30 7862 C 807.99 -0.901605 -2.12461 0
M  V30 7863 C 808.96 0.157011 -1.65356 0
M  V30 7864 O 810.145 0.0184494 -1.90791 0
M  V30 7865 C 807.285 -0.42796 -3.42436 0
M  V30 7866 C 806.398 -1.55142 -4.03181 0
M  V30 7867 C 805.533 -1.03101 -5.21098 0
M  V30 7868 C 804.572 -2.1295 -5.73863 0
M  V30 7869 N 803.709 -1.62339 -6.83074 0
M  V30 7870 H 808.549 -1.82551 -2.3554 0
M  V30 7871 H 806.086 -0.910389 -1.15544 0
M  V30 7872 H 808.044 -0.134859 -4.16982 0
M  V30 7873 H 806.674 0.458977 -3.1952 0
M  V30 7874 H 805.726 -1.96011 -3.26012 0
M  V30 7875 H 807.038 -2.37968 -4.38375 0
M  V30 7876 H 806.192 -0.692132 -6.02739 0
M  V30 7877 H 804.931 -0.17227 -4.87396 0
M  V30 7878 H 803.936 -2.47687 -4.90847 0
M  V30 7879 H 805.161 -2.9925 -6.09611 0
M  V30 7880 H 803.107 -0.787464 -6.51256 0
M  V30 7881 H 803.024 -2.38767 -7.17305 0
M  V30 7882 H 804.292 -1.31363 -7.68351 0
M  V30 7883 N 808.521 1.23394 -0.980386 0
M  V30 7884 C 809.767 1.92094 -0.650223 0
M  V30 7885 C 810.1 1.76309 0.814173 0
M  V30 7886 O 809.375 1.12406 1.5873 0
M  V30 7887 C 809.658 3.44713 -1.04139 0
M  V30 7888 C 809.511 3.69606 -2.56342 0
M  V30 7889 C 810.83 4.36191 -0.585296 0
M  V30 7890 H 807.949 0.697618 -0.237695 0
M  V30 7891 H 810.591 1.45517 -1.22167 0
M  V30 7892 H 808.741 3.84513 -0.55515 0
M  V30 7893 H 810.413 3.39288 -3.1254 0
M  V30 7894 H 808.656 3.14318 -2.98976 0
M  V30 7895 H 809.327 4.76441 -2.78762 0
M  V30 7896 H 811.803 4.03836 -1.00276 0
M  V30 7897 H 810.679 5.41679 -0.887428 0
M  V30 7898 H 810.94 4.39097 0.51438 0
M  V30 7899 N 809.999 0.752036 1.385 0
M  V30 7900 C 810.946 0.123288 2.3047 0
M  V30 7901 C 811.916 -0.711326 1.50098 0
M  V30 7902 O 813.101 -0.667775 1.78733 0
M  V30 7903 C 810.241 -0.765085 3.36512 0
M  V30 7904 C 809.354 0.0839885 4.31918 0
M  V30 7905 C 808.489 -0.807243 5.25031 0
M  V30 7906 C 807.528 0.0455583 6.12083 0
M  V30 7907 N 806.665 -0.802547 6.97498 0
M  V30 7908 H 811.505 0.913169 2.83664 0
M  V30 7909 H 809.042 0.46195 1.39658 0
M  V30 7910 H 811 -1.29476 3.966 0
M  V30 7911 H 809.63 -1.52077 2.84732 0
M  V30 7912 H 808.682 0.731276 3.73305 0
M  V30 7913 H 809.994 0.74265 4.9324 0
M  V30 7914 H 809.148 -1.40414 5.90228 0
M  V30 7915 H 807.887 -1.49964 4.64071 0
M  V30 7916 H 806.892 0.655137 5.45883 0
M  V30 7917 H 808.117 0.734994 6.75111 0
M  V30 7918 H 806.063 -1.47992 6.39089 0
M  V30 7919 H 805.98 -0.200747 7.55733 0
M  V30 7920 H 807.248 -1.38447 7.67107 0
M  V30 7921 N 811.477 -1.49425 0.500989 0
M  V30 7922 C 812.702 -2.07356 -0.0425154 0
M  V30 7923 C 813.127 -1.35887 -1.30063 0
M  V30 7924 O 812.485 -0.41561 -1.76472 0
M  V30 7925 C 812.533 -3.59518 -0.279188 0
M  V30 7926 O 811.637 -3.89542 -1.3539 0
M  V30 7927 H 810.978 -0.663482 0.0262207 0
M  V30 7928 H 813.508 -1.92231 0.700607 0
M  V30 7929 H 813.518 -4.04791 -0.5107 0
M  V30 7930 H 812.193 -4.10946 0.640009 0
M  V30 7931 H 810.77 -3.56079 -1.10734 0
M  V30 7932 N 812.955 -0.234822 -1.55841 0
M  V30 7933 C 813.918 0.656378 -2.196 0
M  V30 7934 C 814.918 1.11179 -1.16171 0
M  V30 7935 O 816.108 1.01845 -1.41326 0
M  V30 7936 C 813.24 1.90072 -2.82993 0
M  V30 7937 H 814.433 0.100281 -2.99732 0
M  V30 7938 H 811.986 0.0147613 -1.56293 0
M  V30 7939 H 812.721 2.49836 -2.06767 0
M  V30 7940 H 812.506 1.5825 -3.58747 0
M  V30 7941 H 813.996 2.53538 -3.31826 0
M  V30 7942 N 814.433 1.57553 0.0384317 0
M  V30 7943 C 815.38 2.05942 1.04194 0
M  V30 7944 C 816.35 0.946637 1.36484 0
M  V30 7945 O 817.535 1.21658 1.46983 0
M  V30 7946 C 814.675 2.53588 2.34066 0
M  V30 7947 C 813.788 3.7862 2.08017 0
M  V30 7948 C 812.923 4.14915 3.31692 0
M  V30 7949 C 811.962 5.32891 3.01155 0
M  V30 7950 N 811.099 5.64662 4.17254 0
M  V30 7951 H 815.939 2.91429 0.622341 0
M  V30 7952 H 813.476 1.44098 0.295684 0
M  V30 7953 H 815.434 2.79276 3.09937 0
M  V30 7954 H 814.064 1.71031 2.73767 0
M  V30 7955 H 813.116 3.60073 1.22686 0
M  V30 7956 H 814.428 4.64613 1.81484 0
M  V30 7957 H 813.582 4.41681 4.15936 0
M  V30 7958 H 812.321 3.27555 3.6133 0
M  V30 7959 H 811.326 5.05887 2.15311 0
M  V30 7960 H 812.551 6.21896 2.72804 0
M  V30 7961 H 810.497 4.80261 4.46861 0
M  V30 7962 H 810.414 6.45145 3.94112 0
M  V30 7963 H 811.682 5.96 5.02399 0
M  V30 7964 N 815.911 -0.310526 1.54511 0
M  V30 7965 C 817.188 -1.06593 1.64004 0
M  V30 7966 C 817.568 -2.05519 0.482216 0
M  V30 7967 O 816.916 -2.22455 -0.52212 0
M  V30 7968 C 817.126 -1.75627 3.01589 0
M  V30 7969 C 818.474 -2.28173 3.58081 0
M  V30 7970 O 819.498 -1.85674 3.03979 0
M  V30 7971 O 818.357 -3.06015 4.52788 0
M  V30 7972 H 815.451 -0.492109 0.664649 0
M  V30 7973 H 817.997 -0.309374 1.66856 0
M  V30 7974 H 816.769 -1.03743 3.77297 0
M  V30 7975 H 816.392 -2.58061 3.02473 0
M  V30 7976 N 817.389 -1.46805 -0.573248 0
M  V30 7977 C 818.805 -1.31969 -0.897577 0
M  V30 7978 C 819.005 -0.298171 -1.99282 0
M  V30 7979 O 818.061 0.295953 -2.5076 0
M  V30 7980 C 819.374 -2.70859 -1.30598 0
M  V30 7981 C 820.922 -2.79022 -1.4183 0
M  V30 7982 C 821.397 -4.18516 -1.86033 0
M  V30 7983 N 822.888 -4.2098 -1.9321 0
M  V30 7984 C 823.623 -5.25814 -2.28707 0
M  V30 7985 N 823.119 -6.40968 -2.6293 0
M  V30 7986 N 824.912 -5.13184 -2.29343 0
M  V30 7987 H 817.063 -2.11869 0.150094 0
M  V30 7988 H 819.326 -0.947989 0.00447895 0
M  V30 7989 H 819.032 -3.46965 -0.575161 0
M  V30 7990 H 818.906 -3.01585 -2.26554 0
M  V30 7991 H 821.293 -2.03198 -2.13996 0
M  V30 7992 H 821.374 -2.51969 -0.441024 0
M  V30 7993 H 821.018 -4.94839 -1.14442 0
M  V30 7994 H 820.948 -4.42982 -2.84735 0
M  V30 7995 H 823.439 -3.37898 -1.69214 0
M  V30 7996 H 823.752 -7.16729 -2.88996 0
M  V30 7997 H 822.097 -6.44314 -2.60547 0
M  V30 7998 H 825.288 -4.22255 -2.02036 0
M  V30 7999 H 825.461 -5.94996 -2.56679 0
M  V30 8000 N 818.867 0.818669 -1.34668 0
M  V30 8001 C 819.777 1.9616 -1.2868 0
M  V30 8002 C 820.793 1.72918 -0.193742 0
M  V30 8003 O 821.969 1.96951 -0.420975 0
M  V30 8004 C 819.034 3.30534 -1.04633 0
M  V30 8005 C 818.095 3.66755 -2.23136 0
M  V30 8006 C 817.328 4.94717 -2.00227 0
M  V30 8007 O 817.551 5.62218 -0.96264 0
M  V30 8008 O 816.485 5.28915 -2.87286 0
M  V30 8009 H 820.311 2.04157 -2.24842 0
M  V30 8010 H 817.896 0.954691 -1.14917 0
M  V30 8011 H 819.778 4.11005 -0.930216 0
M  V30 8012 H 818.453 3.23495 -0.115139 0
M  V30 8013 H 817.36 2.8671 -2.40308 0
M  V30 8014 H 818.693 3.78484 -3.1466 0
M  V30 8015 N 820.346 1.18468 1.03938 0
M  V30 8016 C 821.623 0.890435 1.74157 0
M  V30 8017 C 822.003 -0.606409 2.02203 0
M  V30 8018 O 821.351 -1.5615 1.66822 0
M  V30 8019 C 821.561 1.73906 3.02585 0
M  V30 8020 C 822.909 1.96686 3.76297 0
M  V30 8021 O 823.933 1.70969 3.12487 0
M  V30 8022 O 822.792 2.39986 4.90988 0
M  V30 8023 H 819.886 0.330889 0.757919 0
M  V30 8024 H 822.432 1.29228 1.09992 0
M  V30 8025 H 821.204 2.75369 2.78006 0
M  V30 8026 H 820.827 1.33581 3.74489 0
M  V30 8027 N 821.824 -1.22873 0.986916 0
M  V30 8028 C 823.07 -1.91746 0.660401 0
M  V30 8029 C 823.403 -1.76738 -0.804812 0
M  V30 8030 O 822.678 -1.13246 -1.58131 0
M  V30 8031 C 822.961 -3.44156 1.05966 0
M  V30 8032 C 822.814 -3.68242 2.58298 0
M  V30 8033 C 824.133 -4.35874 0.60842 0
M  V30 8034 H 821.252 -0.696347 0.241391 0
M  V30 8035 H 823.894 -1.44867 1.22937 0
M  V30 8036 H 822.044 -3.84213 0.575534 0
M  V30 8037 H 823.716 -3.37626 3.14335 0
M  V30 8038 H 821.959 -3.12728 3.00638 0
M  V30 8039 H 822.63 -4.74956 2.81285 0
M  V30 8040 H 825.106 -4.03299 1.02417 0
M  V30 8041 H 823.982 -5.41201 0.916142 0
M  V30 8042 H 824.243 -4.39364 -0.491086 0
M  V30 8043 N 823.302 -0.75937 -1.38099 0
M  V30 8044 C 824.249 -0.135508 -2.30402 0
M  V30 8045 C 825.219 0.703356 -1.50473 0
M  V30 8046 O 826.404 0.658287 -1.79084 0
M  V30 8047 C 823.544 0.747228 -3.36913 0
M  V30 8048 C 822.657 -0.106893 -4.31868 0
M  V30 8049 C 821.792 0.779388 -5.25451 0
M  V30 8050 C 820.831 -0.0780179 -6.1205 0
M  V30 8051 N 819.968 0.765545 -6.97914 0
M  V30 8052 H 824.808 -0.9282 -2.83176 0
M  V30 8053 H 822.345 -0.46935 -1.39411 0
M  V30 8054 H 824.303 1.27371 -3.97281 0
M  V30 8055 H 822.933 1.50565 -2.85535 0
M  V30 8056 H 821.985 -0.751063 -3.72912 0
M  V30 8057 H 823.297 -0.768798 -4.9284 0
M  V30 8058 H 822.451 1.37282 -5.90964 0
M  V30 8059 H 821.19 1.47501 -4.6486 0
M  V30 8060 H 820.195 -0.684078 -5.45528 0
M  V30 8061 H 821.42 -0.770786 -6.74712 0
M  V30 8062 H 819.366 1.44601 -6.39864 0
M  V30 8063 H 819.283 0.160666 -7.55829 0
M  V30 8064 H 820.551 1.34377 -7.6783 0
M  V30 8065 N 824.78 1.49157 -0.508906 0
M  V30 8066 C 825.728 2.30922 0.278906 0
M  V30 8067 C 826.722 1.39889 0.955382 0
M  V30 8068 O 827.928 1.56901 0.882169 0
M  V30 8069 H 824.303 0.744087 0.108805 0
M  V30 8070 H 826.274 2.95277 -0.430583 0
M  V30 8071 C 825.023 3.21432 1.32576 0
M  V30 8072 H 824.346 3.91413 0.814634 0
M  V30 8073 H 825.786 3.81568 1.84882 0
M  V30 8074 C 824.245 2.41583 2.34817 0
M  V30 8075 O 824.775 2.1256 3.40854 0
M  V30 8076 N 822.981 2.03462 2.07489 0
M  V30 8077 H 822.528 2.27265 1.21278 0
M  V30 8078 H 822.486 1.50345 2.76123 0
M  V30 8079 N 826.258 0.243083 1.55714 0
M  V30 8080 C 827.168 -0.668913 2.24862 0
M  V30 8081 C 828.184 -1.19638 1.26344 0
M  V30 8082 O 829.36 -1.23345 1.5921 0
M  V30 8083 C 826.425 -1.85084 2.93163 0
M  V30 8084 C 825.486 -1.36323 4.07081 0
M  V30 8085 C 824.719 -2.48882 4.72116 0
M  V30 8086 O 824.942 -3.67523 4.36214 0
M  V30 8087 O 823.876 -2.18857 5.60701 0
M  V30 8088 H 827.702 -0.109737 3.03502 0
M  V30 8089 H 825.287 0.0117411 1.49395 0
M  V30 8090 H 827.169 -2.54065 3.36197 0
M  V30 8091 H 825.844 -2.39771 2.17466 0
M  V30 8092 H 824.751 -0.640804 3.68571 0
M  V30 8093 H 826.084 -0.86249 4.84584 0
M  V30 8094 N 827.736 -1.57571 -0.0300757 0
M  V30 8095 C 828.985 -1.88407 -0.720126 0
M  V30 8096 C 829.298 -0.841466 -1.76575 0
M  V30 8097 O 830.504 -1.03902 -2.50832 0
M  V30 8098 C 828.96 -3.34348 -1.33188 0
M  V30 8099 C 828.568 -4.46837 -0.32266 0
M  V30 8100 C 830.312 -3.74333 -2.00187 0
M  V30 8101 C 828.219 -5.83838 -0.942703 0
M  V30 8102 H 827.149 -0.702952 -0.272718 0
M  V30 8103 H 829.8 -1.83482 0.0255337 0
M  V30 8104 H 828.182 -3.34014 -2.12721 0
M  V30 8105 H 829.356 -4.58638 0.445887 0
M  V30 8106 H 827.671 -4.15678 0.245181 0
M  V30 8107 H 830.268 -4.74008 -2.47428 0
M  V30 8108 H 830.611 -3.06275 -2.81959 0
M  V30 8109 H 831.144 -3.76837 -1.2743 0
M  V30 8110 H 827.883 -6.55294 -0.164413 0
M  V30 8111 H 827.403 -5.75759 -1.68111 0
M  V30 8112 H 829.082 -6.30535 -1.45034 0
M  V30 8113 N 829.214 0.302327 -1.54673 0
M  V30 8114 C 830.162 1.39286 -1.86285 0
M  V30 8115 C 831.156 1.52553 -0.736478 0
M  V30 8116 O 832.362 1.54686 -0.92045 0
M  V30 8117 H 828.737 0.465228 -0.590819 0
M  V30 8118 H 830.708 1.09859 -2.77441 0
M  V30 8119 C 829.457 2.75155 -2.12567 0
M  V30 8120 H 828.78 2.65728 -2.98712 0
M  V30 8121 H 830.22 3.50476 -2.38627 0
M  V30 8122 C 828.679 3.23987 -0.923813 0
M  V30 8123 O 829.209 4.01443 -0.143649 0
M  V30 8124 N 827.415 2.81293 -0.72956 0
M  V30 8125 H 826.962 2.18421 -1.36565 0
M  V30 8126 H 826.92 3.14315 0.0730351 0
M  V30 8127 N 830.692 1.47107 0.565454 0
M  V30 8128 C 831.941 1.5257 1.31929 0
M  V30 8129 C 832.254 0.189092 1.94684 0
M  V30 8130 O 833.46 0.121657 2.71227 0
M  V30 8131 C 831.916 2.68914 2.39193 0
M  V30 8132 C 831.524 4.09069 1.82665 0
M  V30 8133 C 833.268 2.83663 3.1581 0
M  V30 8134 C 831.175 5.16726 2.87661 0
M  V30 8135 H 830.105 0.567869 0.496025 0
M  V30 8136 H 832.756 1.73361 0.60151 0
M  V30 8137 H 831.138 2.41486 3.13848 0
M  V30 8138 H 832.312 4.46364 1.14438 0
M  V30 8139 H 830.627 3.99135 1.1866 0
M  V30 8140 H 833.224 3.61261 3.94201 0
M  V30 8141 H 833.567 1.91804 3.69482 0
M  V30 8142 H 834.1 3.10821 2.48265 0
M  V30 8143 H 830.839 6.10433 2.38854 0
M  V30 8144 H 830.359 4.83957 3.54324 0
M  V30 8145 H 832.038 5.43319 3.51303 0
M  V30 8146 N 832.17 -0.811516 1.35101 0
M  V30 8147 C 833.103 -1.92872 1.21966 0
M  V30 8148 C 834.081 -1.62236 0.108667 0
M  V30 8149 O 835.265 -1.8647 0.275875 0
M  V30 8150 C 832.392 -3.27152 0.876886 0
M  V30 8151 C 831.438 -3.7674 1.99924 0
M  V30 8152 S 832.271 -3.95132 3.61429 0
M  V30 8153 C 833.427 -5.32322 3.29218 0
M  V30 8154 H 833.66 -2.03718 2.16532 0
M  V30 8155 H 831.193 -0.968352 1.20259 0
M  V30 8156 H 833.151 -4.04729 0.685917 0
M  V30 8157 H 831.812 -3.14059 -0.0506289 0
M  V30 8158 H 831.005 -4.73981 1.71343 0
M  V30 8159 H 830.607 -3.06145 2.14829 0
M  V30 8160 H 832.899 -6.1614 2.8174 0
M  V30 8161 H 833.842 -5.65893 4.25641 0
M  V30 8162 H 834.25 -4.98374 2.65111 0
M  V30 8163 N 833.648 -1.19017 -1.03309 0
M  V30 8164 C 834.596 -0.920627 -2.13605 0
M  V30 8165 C 835.59 0.121969 -1.6896 0
M  V30 8166 O 836.796 -0.0268854 -1.7998 0
M  V30 8167 H 833.171 -0.280284 -0.697814 0
M  V30 8168 H 835.142 -1.85755 -2.33533 0
M  V30 8169 C 833.891 -0.471198 -3.44492 0
M  V30 8170 H 833.214 -1.26499 -3.7926 0
M  V30 8171 H 834.654 -0.321663 -4.22778 0
M  V30 8172 C 833.113 0.81411 -3.26916 0
M  V30 8173 O 833.643 1.87654 -3.55175 0
M  V30 8174 N 831.849 0.769695 -2.80221 0
M  V30 8175 H 831.396 -0.0951278 -2.57424 0
M  V30 8176 H 831.354 1.63008 -2.68842 0
M  V30 8177 N 835.127 1.22348 -0.993418 0
M  V30 8178 C 836.059 2.23626 -0.502404 0
M  V30 8179 C 837.072 1.57739 0.402784 0
M  V30 8180 O 838.261 1.77321 0.204835 0
M  V30 8181 C 835.361 3.37647 0.291118 0
M  V30 8182 C 834.534 4.33121 -0.610332 0
M  V30 8183 C 833.593 5.26035 0.131572 0
M  V30 8184 O 832.619 5.67145 -0.483199 0
M  V30 8185 N 833.821 5.63023 1.41371 0
M  V30 8186 H 836.586 2.66385 -1.37329 0
M  V30 8187 H 834.147 1.36653 -0.868196 0
M  V30 8188 H 836.139 3.96792 0.796107 0
M  V30 8189 H 834.709 2.93967 1.0631 0
M  V30 8190 H 833.929 3.72287 -1.29598 0
M  V30 8191 H 835.217 4.93853 -1.22422 0
M  V30 8192 H 834.615 5.31596 1.93449 0
M  V30 8193 H 833.172 6.24582 1.86388 0
M  V30 8194 N 836.605 0.766683 1.37694 0
M  V30 8195 C 837.535 0.163432 2.32927 0
M  V30 8196 C 838.516 -0.688861 1.55527 0
M  V30 8197 O 839.701 -0.627363 1.83787 0
M  V30 8198 C 836.831 -0.720416 3.39746 0
M  V30 8199 C 835.785 0.0301718 4.27989 0
M  V30 8200 C 835.111 -0.972788 5.25776 0
M  V30 8201 C 836.411 1.20623 5.0818 0
M  V30 8202 H 838.105 0.958988 2.83626 0
M  V30 8203 H 835.651 0.462601 1.36367 0
M  V30 8204 H 837.604 -1.15221 4.05342 0
M  V30 8205 H 836.328 -1.54844 2.8756 0
M  V30 8206 H 834.987 0.442685 3.63917 0
M  V30 8207 H 834.635 -1.79522 4.69873 0
M  V30 8208 H 834.335 -0.475145 5.85676 0
M  V30 8209 H 835.859 -1.40362 5.94248 0
M  V30 8210 H 837.273 0.851341 5.66944 0
M  V30 8211 H 835.67 1.63561 5.7738 0
M  V30 8212 H 836.74 2.01281 4.41151 0
M  V30 8213 N 838.083 -1.48885 0.516809 0
M  V30 8214 C 839.308 -2.0739 -0.0205201 0
M  V30 8215 C 839.733 -1.37259 -1.28614 0
M  V30 8216 O 839.091 -0.434304 -1.76021 0
M  V30 8217 C 839.139 -3.59793 -0.24104 0
M  V30 8218 O 838.243 -3.90957 -1.31251 0
M  V30 8219 H 837.584 -0.663167 0.0332564 0
M  V30 8220 H 840.114 -1.91477 0.720956 0
M  V30 8221 H 840.124 -4.0531 -0.467737 0
M  V30 8222 H 838.799 -4.10244 0.68356 0
M  V30 8223 H 837.376 -3.57234 -1.06951 0
M  V30 8224 N 839.561 -0.251338 -1.55583 0
M  V30 8225 C 840.511 0.660351 -2.18228 0
M  V30 8226 C 841.495 1.13596 -1.13951 0
M  V30 8227 O 842.687 1.08499 -1.39846 0
M  V30 8228 C 839.816 1.85498 -2.88869 0
M  V30 8229 C 838.902 1.39767 -4.00407 0
M  V30 8230 N 839.293 0.654876 -5.01543 0
M  V30 8231 C 837.591 1.68259 -4.13044 0
M  V30 8232 C 838.292 0.417521 -5.802 0
M  V30 8233 N 837.268 0.983032 -5.34638 0
M  V30 8234 H 841.07 0.0847425 -2.93778 0
M  V30 8235 H 838.584 -0.0538456 -1.62311 0
M  V30 8236 H 840.581 2.51916 -3.3218 0
M  V30 8237 H 839.241 2.43477 -2.14823 0
M  V30 8238 H 840.252 0.304545 -5.17004 0
M  V30 8239 H 836.929 2.27344 -3.50172 0
M  V30 8240 H 838.319 -0.175764 -6.7167 0
M  V30 8241 N 841.039 1.57585 0.0217189 0
M  V30 8242 C 842.285 1.89887 0.712099 0
M  V30 8243 C 842.618 0.849971 1.74611 0
M  V30 8244 O 841.893 -0.13407 1.94037 0
M  V30 8245 C 842.176 3.32815 1.37499 0
M  V30 8246 C 842.029 4.48405 0.353993 0
M  V30 8247 C 843.348 3.74786 2.30703 0
M  V30 8248 H 840.467 0.690588 0.257405 0
M  V30 8249 H 843.109 1.89983 -0.0251145 0
M  V30 8250 H 841.259 3.32863 2.00335 0
M  V30 8251 H 842.931 4.60491 -0.273015 0
M  V30 8252 H 841.174 4.32573 -0.32599 0
M  V30 8253 H 841.845 5.45316 0.85644 0
M  V30 8254 H 844.321 3.76151 1.77904 0
M  V30 8255 H 843.197 4.75585 2.74061 0
M  V30 8256 H 843.458 3.07449 3.17691 0
M  V30 8257 N 842.517 -0.29412 1.54831 0
M  V30 8258 C 843.465 -1.38296 1.87021 0
M  V30 8259 C 844.459 -1.5216 0.744557 0
M  V30 8260 O 845.665 -1.54196 0.92864 0
M  V30 8261 H 842.04 -0.462088 0.593278 0
M  V30 8262 H 844.011 -1.08386 2.7802 0
M  V30 8263 C 842.76 -2.74024 2.14023 0
M  V30 8264 H 842.083 -2.6414 3.00117 0
M  V30 8265 H 843.523 -3.49205 2.40482 0
M  V30 8266 C 841.982 -3.23492 0.940982 0
M  V30 8267 O 842.512 -4.01361 0.164937 0
M  V30 8268 N 840.718 -2.80902 0.744467 0
M  V30 8269 H 840.265 -2.17694 1.37721 0
M  V30 8270 H 840.223 -3.14349 -0.0563652 0
M  V30 8271 N 843.995 -1.47404 -0.557645 0
M  V30 8272 C 844.925 -1.62736 -1.67449 0
M  V30 8273 C 845.906 -0.476824 -1.6328 0
M  V30 8274 O 847.091 -0.706108 -1.80908 0
M  V30 8275 C 844.221 -1.641 -3.06086 0
M  V30 8276 C 843.175 -2.78377 -3.25101 0
M  V30 8277 C 842.501 -2.64812 -4.6452 0
M  V30 8278 C 843.801 -4.19971 -3.10518 0
M  V30 8279 H 845.495 -2.56232 -1.54873 0
M  V30 8280 H 843.041 -1.23312 -0.743649 0
M  V30 8281 H 844.994 -1.73417 -3.84063 0
M  V30 8282 H 843.718 -0.671652 -3.19619 0
M  V30 8283 H 842.377 -2.6857 -2.49531 0
M  V30 8284 H 842.025 -1.65906 -4.74852 0
M  V30 8285 H 841.725 -3.41477 -4.78191 0
M  V30 8286 H 843.249 -2.76057 -5.44633 0
M  V30 8287 H 844.663 -4.30757 -3.78313 0
M  V30 8288 H 843.06 -4.97419 -3.35699 0
M  V30 8289 H 844.13 -4.38369 -2.0727 0
M  V30 8290 N 845.473 0.80434 -1.35529 0
M  V30 8291 C 846.722 1.55665 -1.28263 0
M  V30 8292 C 847.035 1.95096 0.140352 0
M  V30 8293 O 848.241 2.69422 0.335303 0
M  V30 8294 C 846.697 2.80935 -2.24952 0
M  V30 8295 C 846.305 2.48733 -3.72607 0
M  V30 8296 C 848.049 3.5894 -2.26632 0
M  V30 8297 C 845.956 3.70308 -4.61114 0
M  V30 8298 H 844.886 0.584301 -0.476559 0
M  V30 8299 H 847.537 0.88395 -1.60806 0
M  V30 8300 H 845.919 3.49927 -1.85383 0
M  V30 8301 H 847.093 1.87733 -4.20824 0
M  V30 8302 H 845.408 1.83969 -3.73557 0
M  V30 8303 H 848.005 4.49244 -2.89973 0
M  V30 8304 H 848.348 3.96433 -1.27069 0
M  V30 8305 H 848.881 2.96912 -2.64742 0
M  V30 8306 H 845.62 3.37922 -5.61684 0
M  V30 8307 H 845.14 4.30526 -4.17621 0
M  V30 8308 H 846.819 4.37511 -4.76648 0
M  V30 8309 N 846.951 1.19563 1.02676 0
M  V30 8310 C 847.883 0.893054 2.11086 0
M  V30 8311 C 848.896 -0.115101 1.62393 0
M  V30 8312 O 850.085 0.11459 1.78132 0
M  V30 8313 C 847.185 0.315533 3.37428 0
M  V30 8314 C 846.358 1.37276 4.153 0
M  V30 8315 C 845.417 0.808398 5.19953 0
M  V30 8316 O 844.443 1.48661 5.49444 0
M  V30 8317 N 845.645 -0.387253 5.79207 0
M  V30 8318 H 848.41 1.82622 2.37633 0
M  V30 8319 H 845.971 1.09792 1.18984 0
M  V30 8320 H 847.963 -0.0759166 4.04629 0
M  V30 8321 H 846.533 -0.521961 3.08211 0
M  V30 8322 H 845.753 1.93897 3.43217 0
M  V30 8323 H 847.041 2.08509 4.64114 0
M  V30 8324 H 846.439 -0.955725 5.57568 0
M  V30 8325 H 844.996 -0.720457 6.47806 0
M  V30 8326 N 848.429 -1.21819 0.999893 0
M  V30 8327 C 849.359 -2.26282 0.576096 0
M  V30 8328 C 850.34 -1.65317 -0.400537 0
M  V30 8329 O 851.525 -1.92028 -0.28964 0
M  V30 8330 C 848.655 -3.47147 -0.103145 0
M  V30 8331 C 847.609 -4.20594 0.792745 0
M  V30 8332 C 846.935 -5.34696 -0.0198026 0
M  V30 8333 C 848.235 -4.78533 2.09293 0
M  V30 8334 H 849.929 -2.61984 1.4493 0
M  V30 8335 H 847.475 -1.25935 0.698316 0
M  V30 8336 H 849.428 -4.1939 -0.411068 0
M  V30 8337 H 848.152 -3.1056 -1.01094 0
M  V30 8338 H 846.811 -3.50194 1.08442 0
M  V30 8339 H 846.459 -4.94352 -0.928729 0
M  V30 8340 H 846.159 -5.84764 0.576661 0
M  V30 8341 H 847.683 -6.09752 -0.321659 0
M  V30 8342 H 849.097 -5.42682 1.8485 0
M  V30 8343 H 847.494 -5.38968 2.63881 0
M  V30 8344 H 848.564 -3.98197 2.76708 0
M  V30 8345 N 849.908 -0.773975 -1.37286 0
M  V30 8346 C 851.138 -0.350249 -2.03609 0
M  V30 8347 C 851.546 1.03313 -1.58502 0
M  V30 8348 O 850.889 1.67118 -0.7627 0
M  V30 8349 C 850.951 -0.317215 -3.58098 0
M  V30 8350 C 850.615 -1.64556 -4.26345 0
M  V30 8351 C 851.612 -2.59839 -4.50311 0
M  V30 8352 C 849.297 -1.92061 -4.64131 0
M  V30 8353 C 851.291 -3.80833 -5.11122 0
M  V30 8354 C 848.978 -3.13325 -5.24663 0
M  V30 8355 C 849.976 -4.0753 -5.48095 0
M  V30 8356 O 849.664 -5.26658 -6.0736 0
M  V30 8357 H 849.396 -0.144456 -0.660385 0
M  V30 8358 H 851.95 -1.0496 -1.76557 0
M  V30 8359 H 850.18 0.438528 -3.84205 0
M  V30 8360 H 851.869 0.0797428 -4.05822 0
M  V30 8361 H 852.635 -2.39872 -4.21529 0
M  V30 8362 H 848.514 -1.19562 -4.45226 0
M  V30 8363 H 852.058 -4.54377 -5.29327 0
M  V30 8364 H 847.955 -3.33177 -5.52869 0
M  V30 8365 H 848.723 -5.27513 -6.25837 0
M  V30 8366 N 851.386 1.48609 -0.524698 0
M  V30 8367 C 852.663 1.95454 0.075465 0
M  V30 8368 C 853.043 1.46682 1.51814 0
M  V30 8369 O 852.391 0.690975 2.17802 0
M  V30 8370 C 852.601 3.48981 -0.0363273 0
M  V30 8371 C 853.949 4.24414 0.125624 0
M  V30 8372 O 854.973 3.5618 0.0377239 0
M  V30 8373 O 853.832 5.45625 0.309104 0
M  V30 8374 H 850.926 0.822902 0.0822256 0
M  V30 8375 H 853.472 1.59153 -0.588921 0
M  V30 8376 H 852.244 3.77185 -1.04149 0
M  V30 8377 H 851.867 3.91963 0.667146 0
M  V30 8378 N 852.864 0.259585 1.55447 0
M  V30 8379 C 853.827 -0.621359 2.20617 0
M  V30 8380 C 854.827 -1.09317 1.17925 0
M  V30 8381 O 856.017 -0.995842 1.42929 0
M  V30 8382 C 853.149 -1.85546 2.85982 0
M  V30 8383 H 854.342 -0.0525833 2.99854 0
M  V30 8384 H 851.895 0.0101055 1.56297 0
M  V30 8385 H 852.63 -2.46515 2.10715 0
M  V30 8386 H 852.415 -1.52523 3.61219 0
M  V30 8387 H 853.905 -2.48227 3.35817 0
M  V30 8388 N 854.342 -1.57594 -0.0133615 0
M  V30 8389 C 855.589 -1.8998 -0.70098 0
M  V30 8390 C 855.917 -0.858802 -1.74513 0
M  V30 8391 O 855.172 0.138209 -1.95211 0
M  V30 8392 C 855.471 -3.29121 -1.39336 0
M  V30 8393 C 855.137 -4.48298 -0.483687 0
M  V30 8394 C 853.799 -4.80635 -0.233186 0
M  V30 8395 C 856.151 -5.21003 0.143426 0
M  V30 8396 C 853.479 -5.83055 0.652943 0
M  V30 8397 C 855.831 -6.24366 1.01735 0
M  V30 8398 C 854.495 -6.55168 1.27716 0
M  V30 8399 H 853.765 -0.695187 -0.256507 0
M  V30 8400 H 856.412 -1.9146 0.0392965 0
M  V30 8401 H 854.717 -3.23703 -2.20735 0
M  V30 8402 H 856.414 -3.51433 -1.93121 0
M  V30 8403 H 853.004 -4.23024 -0.689092 0
M  V30 8404 H 857.188 -4.96286 -0.0371139 0
M  V30 8405 H 852.444 -6.05288 0.862379 0
M  V30 8406 H 856.618 -6.79839 1.5097 0
M  V30 8407 H 854.245 -7.34351 1.9655 0
M  V30 8408 N 855.82 0.285905 -1.54985 0
M  V30 8409 C 856.73 1.37534 -1.90057 0
M  V30 8410 C 857.746 1.54707 -0.796348 0
M  V30 8411 O 858.922 1.69082 -1.09423 0
M  V30 8412 C 855.987 2.7167 -2.15398 0
M  V30 8413 C 855.048 2.63354 -3.39033 0
M  V30 8414 C 854.281 3.91093 -3.63155 0
M  V30 8415 O 854.504 4.91169 -2.90015 0
M  V30 8416 O 853.438 3.92075 -4.56685 0
M  V30 8417 H 857.264 1.10791 -2.8277 0
M  V30 8418 H 854.849 0.483303 -1.41367 0
M  V30 8419 H 856.731 3.51006 -2.33179 0
M  V30 8420 H 855.406 2.98226 -1.25868 0
M  V30 8421 H 854.313 1.82438 -3.26599 0
M  V30 8422 H 855.646 2.41749 -4.2874 0
M  V30 8423 N 857.298 1.47698 0.54982 0
M  V30 8424 C 858.523 1.58579 1.33669 0
M  V30 8425 C 858.948 0.239049 1.86575 0
M  V30 8426 O 858.306 -0.786256 1.63364 0
M  V30 8427 C 858.354 2.62029 2.47736 0
M  V30 8428 O 857.458 2.17813 3.50188 0
M  V30 8429 H 856.799 0.532447 0.396732 0
M  V30 8430 H 859.329 1.93536 0.6637 0
M  V30 8431 H 859.339 2.82682 2.94202 0
M  V30 8432 H 858.014 3.59812 2.08586 0
M  V30 8433 H 856.591 2.07291 3.09976 0
M  V30 8434 N 858.776 -0.797141 1.35954 0
M  V30 8435 C 859.723 -1.90944 1.2965 0
M  V30 8436 C 860.693 -1.65262 0.166628 0
M  V30 8437 O 861.878 -1.87527 0.351883 0
M  V30 8438 C 859.018 -3.27637 1.08389 0
M  V30 8439 C 858.131 -3.65442 2.30382 0
M  V30 8440 C 857.266 -4.91213 2.02195 0
M  V30 8441 C 856.305 -5.21674 3.20191 0
M  V30 8442 N 855.442 -6.38627 2.91719 0
M  V30 8443 H 860.282 -1.95668 2.24762 0
M  V30 8444 H 857.819 -0.95696 1.11717 0
M  V30 8445 H 859.777 -4.06451 0.940912 0
M  V30 8446 H 858.407 -3.22355 0.169351 0
M  V30 8447 H 857.459 -2.81813 2.55511 0
M  V30 8448 H 858.771 -3.83907 3.18461 0
M  V30 8449 H 857.925 -5.77876 1.84783 0
M  V30 8450 H 856.664 -4.74803 1.11416 0
M  V30 8451 H 855.669 -4.33498 3.38171 0
M  V30 8452 H 856.894 -5.40009 4.11786 0
M  V30 8453 H 854.84 -6.23623 2.03543 0
M  V30 8454 H 854.757 -6.57387 3.73334 0
M  V30 8455 H 856.025 -7.28292 2.77868 0
M  V30 8456 N 860.254 -1.20106 -1.0204 0
M  V30 8457 C 861.204 -0.914145 -2.08872 0
M  V30 8458 C 862.188 0.124503 -1.60418 0
M  V30 8459 O 863.38 -0.0823521 -1.76808 0
M  V30 8460 C 860.509 -0.463897 -3.40151 0
M  V30 8461 C 859.595 -1.53576 -3.95317 0
M  V30 8462 N 859.986 -2.75726 -4.24038 0
M  V30 8463 C 858.284 -1.40103 -4.23423 0
M  V30 8464 C 858.985 -3.44838 -4.68468 0
M  V30 8465 N 857.961 -2.72245 -4.70514 0
M  V30 8466 H 861.763 -1.8424 -2.28982 0
M  V30 8467 H 859.277 -1.0945 -1.19977 0
M  V30 8468 H 861.274 -0.239766 -4.1621 0
M  V30 8469 H 859.934 0.457779 -3.21457 0
M  V30 8470 H 860.945 -3.12412 -4.13061 0
M  V30 8471 H 857.622 -0.543472 -4.13948 0
M  V30 8472 H 859.012 -4.49342 -4.99541 0
M  V30 8473 N 861.732 1.21287 -1.00634 0
M  V30 8474 C 862.957 1.94925 -0.708441 0
M  V30 8475 C 863.382 1.73659 0.722783 0
M  V30 8476 O 862.74 1.02429 1.49593 0
M  V30 8477 C 862.788 3.45377 -1.03667 0
M  V30 8478 O 861.892 4.12153 -0.142661 0
M  V30 8479 H 861.233 0.609338 -0.263824 0
M  V30 8480 H 863.763 1.54008 -1.34695 0
M  V30 8481 H 863.773 3.95954 -0.984086 0
M  V30 8482 H 862.448 3.6018 -2.0795 0
M  V30 8483 H 861.025 3.72048 -0.251888 0
M  V30 8484 N 863.21 0.781244 1.36873 0
M  V30 8485 C 864.45 0.355185 2.0129 0
M  V30 8486 C 864.814 -1.05115 1.6067 0
M  V30 8487 O 866.015 -1.57785 2.17618 0
M  V30 8488 C 864.286 0.504587 3.5382 0
M  V30 8489 S 865.845 0.165196 4.38489 0
M  V30 8490 H 862.663 0.136133 0.697846 0
M  V30 8491 H 865.265 1.01794 1.66908 0
M  V30 8492 H 863.969 1.52857 3.80871 0
M  V30 8493 H 863.5 -0.174392 3.93013 0
M  V30 8494 H 865.515 -1.03605 4.85263 0
M  V30 8495 N 864.689 -1.48329 0.532571 0
M  V30 8496 C 865.917 -2.069 0.00354299 0
M  V30 8497 C 866.332 -1.38876 -1.27902 0
M  V30 8498 O 865.689 -0.477119 -1.76153 0
M  V30 8499 C 865.74 -3.60821 -0.221416 0
M  V30 8500 O 865.461 -4.26291 1.01034 0
M  V30 8501 C 866.962 -4.36194 -0.790531 0
M  V30 8502 H 864.182 -0.670103 0.0346836 0
M  V30 8503 H 866.726 -1.90682 0.738955 0
M  V30 8504 H 864.881 -3.76636 -0.906884 0
M  V30 8505 H 865.295 -5.18475 0.792683 0
M  V30 8506 H 866.769 -5.44657 -0.897347 0
M  V30 8507 H 867.246 -4.00798 -1.79605 0
M  V30 8508 H 867.852 -4.25064 -0.141546 0
M  V30 8509 N 866.167 -0.267825 -1.55308 0
M  V30 8510 C 867.097 0.616585 -2.25212 0
M  V30 8511 C 868.078 1.16472 -1.23969 0
M  V30 8512 O 869.263 1.20021 -1.52672 0
M  V30 8513 C 866.393 1.80412 -2.96764 0
M  V30 8514 C 865.347 1.38784 -4.04874 0
M  V30 8515 C 864.673 2.65789 -4.63961 0
M  V30 8516 C 865.973 0.543415 -5.19465 0
M  V30 8517 H 867.667 0.0336257 -2.99381 0
M  V30 8518 H 865.213 0.0147328 -1.43992 0
M  V30 8519 H 867.166 2.42866 -3.44375 0
M  V30 8520 H 865.89 2.4128 -2.20118 0
M  V30 8521 H 864.549 0.786541 -3.58063 0
M  V30 8522 H 864.197 3.24899 -3.83992 0
M  V30 8523 H 863.897 2.38651 -5.36954 0
M  V30 8524 H 865.421 3.29104 -5.14318 0
M  V30 8525 H 866.835 1.07277 -5.63174 0
M  V30 8526 H 865.232 0.367219 -5.98975 0
M  V30 8527 H 866.302 -0.439534 -4.82904 0
M  V30 8528 N 867.645 1.57599 0.00500368 0
M  V30 8529 C 868.891 1.90631 0.691919 0
M  V30 8530 C 869.224 0.868443 1.737 0
M  V30 8531 O 868.499 -0.113482 1.94169 0
M  V30 8532 C 868.782 3.34255 1.33961 0
M  V30 8533 C 868.635 4.48755 0.306413 0
M  V30 8534 C 869.954 3.77211 2.26715 0
M  V30 8535 H 867.073 0.693279 0.250066 0
M  V30 8536 H 869.715 1.89946 -0.0452634 0
M  V30 8537 H 867.865 3.3497 1.96793 0
M  V30 8538 H 869.537 4.60176 -0.321841 0
M  V30 8539 H 867.78 4.32203 -0.371852 0
M  V30 8540 H 868.451 5.46193 0.798554 0
M  V30 8541 H 870.927 3.78017 1.73904 0
M  V30 8542 H 869.803 4.78466 2.69002 0
M  V30 8543 H 870.064 3.10801 3.14413 0
M  V30 8544 N 869.123 -0.277682 1.55134 0
M  V30 8545 C 870.056 -1.3685 1.82612 0
M  V30 8546 C 871.034 -1.47752 0.678833 0
M  V30 8547 O 872.218 -1.6445 0.921329 0
M  V30 8548 C 869.345 -2.74539 1.98359 0
M  V30 8549 C 868.391 -2.80945 3.20893 0
M  V30 8550 S 869.224 -2.40666 4.78373 0
M  V30 8551 C 870.38 -3.80338 4.97085 0
M  V30 8552 H 870.613 -1.13338 2.74849 0
M  V30 8553 H 868.146 -0.477063 1.46845 0
M  V30 8554 H 870.104 -3.53834 2.08115 0
M  V30 8555 H 868.765 -2.95306 1.07019 0
M  V30 8556 H 867.958 -3.81992 3.28783 0
M  V30 8557 H 867.56 -2.09667 3.09703 0
M  V30 8558 H 869.852 -4.75565 4.8254 0
M  V30 8559 H 870.795 -3.77403 5.99143 0
M  V30 8560 H 871.203 -3.71424 4.25094 0
M  V30 8561 N 870.601 -1.47988 -0.541979 0
M  V30 8562 C 871.511 -1.64276 -1.67483 0
M  V30 8563 C 872.527 -0.525387 -1.65879 0
M  V30 8564 O 873.703 -0.794912 -1.85049 0
M  V30 8565 C 870.768 -1.66744 -3.03969 0
M  V30 8566 C 869.829 -2.90021 -3.16522 0
M  V30 8567 C 869.062 -2.92362 -4.46498 0
M  V30 8568 O 869.285 -2.03462 -5.32878 0
M  V30 8569 O 868.219 -3.84399 -4.63164 0
M  V30 8570 H 872.045 -2.60164 -1.5668 0
M  V30 8571 H 869.63 -1.31249 -0.71372 0
M  V30 8572 H 871.512 -1.70958 -3.85164 0
M  V30 8573 H 870.187 -0.740277 -3.15122 0
M  V30 8574 H 869.094 -2.91345 -2.34667 0
M  V30 8575 H 870.427 -3.82082 -3.10281 0
M  V30 8576 N 872.079 0.78992 -1.36375 0
M  V30 8577 C 873.309 1.57644 -1.33536 0
M  V30 8578 C 873.717 1.89007 0.0855075 0
M  V30 8579 O 873.06 1.50547 1.05267 0
M  V30 8580 C 873.122 2.92424 -2.09113 0
M  V30 8581 C 872.786 2.83793 -3.58205 0
M  V30 8582 C 873.783 2.56072 -4.52464 0
M  V30 8583 C 871.468 3.02386 -4.01084 0
M  V30 8584 C 873.462 2.47044 -5.87578 0
M  V30 8585 C 871.149 2.9298 -5.36289 0
M  V30 8586 C 872.147 2.65347 -6.29349 0
M  V30 8587 O 871.835 2.55935 -7.62071 0
M  V30 8588 H 871.567 0.495639 -0.459694 0
M  V30 8589 H 874.121 0.988354 -1.80058 0
M  V30 8590 H 872.351 3.53282 -1.57254 0
M  V30 8591 H 874.04 3.53693 -1.99139 0
M  V30 8592 H 874.806 2.4141 -4.2065 0
M  V30 8593 H 870.685 3.229 -3.29023 0
M  V30 8594 H 874.229 2.25396 -6.60184 0
M  V30 8595 H 870.126 3.07204 -5.67711 0
M  V30 8596 H 870.894 2.7142 -7.72187 0
M  V30 8597 N 873.557 1.20646 1.01402 0
M  V30 8598 C 874.803 1.0197 1.753 0
M  V30 8599 C 875.136 -0.446803 1.8899 0
M  V30 8600 O 874.411 -1.33169 1.41762 0
M  V30 8601 C 874.694 1.70693 3.17074 0
M  V30 8602 C 874.547 3.24805 3.11162 0
M  V30 8603 C 875.866 1.44212 4.15802 0
M  V30 8604 H 872.985 0.371844 0.636318 0
M  V30 8605 H 875.627 1.48696 1.18277 0
M  V30 8606 H 873.777 1.30968 3.65759 0
M  V30 8607 H 875.449 3.73841 2.70261 0
M  V30 8608 H 873.692 3.55576 2.48492 0
M  V30 8609 H 874.363 3.68049 4.11393 0
M  V30 8610 H 876.839 1.7868 3.75783 0
M  V30 8611 H 875.715 1.94825 5.13161 0
M  V30 8612 H 875.976 0.370252 4.40547 0
M  V30 8613 N 875.035 -1.20752 1.01276 0
M  V30 8614 C 876.312 -1.85676 0.615112 0
M  V30 8615 C 876.692 -1.90623 -0.906976 0
M  V30 8616 O 876.04 -1.41124 -1.79712 0
M  V30 8617 C 876.25 -3.2552 1.25847 0
M  V30 8618 C 877.598 -4.0184 1.37148 0
M  V30 8619 O 878.622 -3.3486 1.21438 0
M  V30 8620 O 877.481 -5.21783 1.62495 0
M  V30 8621 H 874.575 -0.799437 0.211729 0
M  V30 8622 H 877.121 -1.28372 1.10989 0
M  V30 8623 H 875.893 -3.16664 2.29869 0
M  V30 8624 H 875.516 -3.90452 0.750524 0
M  V30 8625 N 876.513 -0.788492 -1.36457 0
M  V30 8626 C 877.761 -0.359749 -1.98872 0
M  V30 8627 C 878.082 1.07197 -1.62892 0
M  V30 8628 O 877.352 1.73875 -0.902463 0
M  V30 8629 H 875.932 -0.130029 -0.735596 0
M  V30 8630 H 878.594 -1.01033 -1.66668 0
M  V30 8631 H 877.69 -0.450835 -3.08827 0
M  V30 8632 N 877.991 1.48044 -0.54043 0
M  V30 8633 C 879.239 2.02097 -0.0101367 0
M  V30 8634 C 879.56 1.41881 1.33771 0
M  V30 8635 O 878.83 0.587923 1.8687 0
M  V30 8636 H 877.41 0.747 -0.000758716 0
M  V30 8637 H 880.072 1.81639 -0.706634 0
M  V30 8638 H 879.168 3.11969 0.0904474 0
M  V30 8639 N 879.47 0.276058 1.55163 0
M  V30 8640 C 880.38 -0.621066 2.2623 0
M  V30 8641 C 881.396 -1.16931 1.28853 0
M  V30 8642 O 882.572 -1.1994 1.61791 0
M  V30 8643 C 879.637 -1.78824 2.97023 0
M  V30 8644 C 878.698 -1.27657 4.09881 0
M  V30 8645 C 877.931 -2.38812 4.77289 0
M  V30 8646 O 878.154 -3.58188 4.43912 0
M  V30 8647 O 877.088 -2.06915 5.65217 0
M  V30 8648 H 880.914 -0.0453346 3.03666 0
M  V30 8649 H 878.499 0.0434275 1.49337 0
M  V30 8650 H 880.381 -2.46877 3.41511 0
M  V30 8651 H 879.056 -2.35104 2.22503 0
M  V30 8652 H 877.963 -0.56248 3.69847 0
M  V30 8653 H 879.296 -0.759509 4.86305 0
M  V30 8654 N 880.948 -1.576 0.00335426 0
M  V30 8655 C 881.878 -2.11668 -0.985839 0
M  V30 8656 C 882.859 -1.02661 -1.35627 0
M  V30 8657 O 884.044 -1.30361 -1.43943 0
M  V30 8658 C 881.174 -2.62273 -2.27662 0
M  V30 8659 C 880.128 -3.75837 -2.0477 0
M  V30 8660 C 879.454 -4.12769 -3.39891 0
M  V30 8661 C 880.754 -5.02975 -1.40759 0
M  V30 8662 H 882.448 -2.9457 -0.535637 0
M  V30 8663 H 879.994 -1.41702 -0.256204 0
M  V30 8664 H 881.947 -2.98727 -2.97221 0
M  V30 8665 H 880.671 -1.76498 -2.74802 0
M  V30 8666 H 879.33 -3.39782 -1.37636 0
M  V30 8667 H 878.978 -3.24013 -3.8474 0
M  V30 8668 H 878.678 -4.89281 -3.25389 0
M  V30 8669 H 880.202 -4.51784 -4.1076 0
M  V30 8670 H 881.616 -5.37179 -2.00279 0
M  V30 8671 H 880.013 -5.84315 -1.36734 0
M  V30 8672 H 881.083 -4.83431 -0.377218 0
M  V30 8673 N 882.426 0.269451 -1.5528 0
M  V30 8674 C 883.673 1.00058 -1.76053 0
M  V30 8675 C 884.001 1.86156 -0.563592 0
M  V30 8676 O 883.256 1.90366 0.453806 0
M  V30 8677 C 883.555 1.91 -3.02082 0
M  V30 8678 C 883.221 1.20623 -4.34466 0
M  V30 8679 C 881.883 1.01165 -4.70446 0
M  V30 8680 C 884.235 0.705695 -5.164 0
M  V30 8681 C 881.563 0.303865 -5.85913 0
M  V30 8682 C 883.915 0.0114838 -6.32599 0
M  V30 8683 C 882.579 -0.19478 -6.67216 0
M  V30 8684 H 881.849 0.366138 -0.644223 0
M  V30 8685 H 884.496 0.272563 -1.8955 0
M  V30 8686 H 882.801 2.70435 -2.835 0
M  V30 8687 H 884.498 2.47698 -3.15352 0
M  V30 8688 H 881.088 1.36781 -4.06188 0
M  V30 8689 H 885.272 0.84364 -4.89077 0
M  V30 8690 H 880.528 0.133368 -6.11255 0
M  V30 8691 H 884.702 -0.384111 -6.9534 0
M  V30 8692 H 882.329 -0.745201 -7.56539 0
M  V30 8693 N 883.904 1.48273 0.534124 0
M  V30 8694 C 885.181 1.46567 1.29528 0
M  V30 8695 C 885.561 0.17509 2.10373 0
M  V30 8696 O 884.909 -0.843228 2.12372 0
M  V30 8697 C 885.119 2.72519 2.18023 0
M  V30 8698 C 886.467 3.2068 2.78298 0
M  V30 8699 O 887.491 2.73408 2.28313 0
M  V30 8700 O 886.35 4.02924 3.69208 0
M  V30 8701 H 883.444 0.585151 0.584403 0
M  V30 8702 H 885.99 1.60502 0.551119 0
M  V30 8703 H 884.762 3.57965 1.5804 0
M  V30 8704 H 884.385 2.61285 2.99693 0
M  V30 8705 N 885.382 -0.782676 1.36792 0
M  V30 8706 C 886.798 -1.08169 1.17352 0
M  V30 8707 C 886.998 -2.015 0.0022037 0
M  V30 8708 O 886.054 -2.43692 -0.661093 0
M  V30 8709 C 887.367 -1.68969 2.48737 0
M  V30 8710 C 888.915 -1.81278 2.55161 0
M  V30 8711 C 889.39 -2.45492 3.86649 0
M  V30 8712 N 890.881 -2.52954 3.88032 0
M  V30 8713 C 891.616 -3.03465 4.86515 0
M  V30 8714 N 891.112 -3.54232 5.95392 0
M  V30 8715 N 892.905 -3.02239 4.73928 0
M  V30 8716 H 885.056 -0.162757 2.11775 0
M  V30 8717 H 887.319 -0.134823 0.938364 0
M  V30 8718 H 887.025 -1.07859 3.34753 0
M  V30 8719 H 886.899 -2.68397 2.65034 0
M  V30 8720 H 889.286 -2.41524 1.69559 0
M  V30 8721 H 889.367 -0.806367 2.42758 0
M  V30 8722 H 889.011 -1.85889 4.7266 0
M  V30 8723 H 888.941 -3.46718 3.96351 0
M  V30 8724 H 891.432 -2.17014 3.09376 0
M  V30 8725 H 891.745 -3.91145 6.66503 0
M  V30 8726 H 890.09 -3.52366 5.99052 0
M  V30 8727 H 893.281 -2.61871 3.87996 0
M  V30 8728 H 893.454 -3.41295 5.50837 0
M  V30 8729 N 886.86 -1.21182 -1.00761 0
M  V30 8730 C 888.109 -1.02166 -1.73911 0
M  V30 8731 C 888.422 0.445638 -1.90456 0
M  V30 8732 O 889.628 0.755132 -2.60787 0
M  V30 8733 C 888.084 -1.77936 -3.12837 0
M  V30 8734 C 887.692 -3.28819 -3.04273 0
M  V30 8735 C 889.436 -1.67319 -3.90134 0
M  V30 8736 C 887.343 -3.97089 -4.38262 0
M  V30 8737 H 886.273 -0.378665 -0.652019 0
M  V30 8738 H 888.924 -1.44891 -1.12601 0
M  V30 8739 H 887.306 -1.28003 -3.74742 0
M  V30 8740 H 888.48 -3.86035 -2.51622 0
M  V30 8741 H 886.795 -3.39949 -2.40465 0
M  V30 8742 H 889.392 -2.15659 -4.8928 0
M  V30 8743 H 889.735 -0.630959 -4.11491 0
M  V30 8744 H 890.268 -2.14716 -3.34876 0
M  V30 8745 H 887.007 -5.01503 -4.22107 0
M  V30 8746 H 886.527 -3.44662 -4.90885 0
M  V30 8747 H 888.206 -4.01854 -5.07072 0
M  V30 8748 N 888.338 1.20213 -1.01915 0
M  V30 8749 C 889.566 1.93622 -0.729255 0
M  V30 8750 C 889.981 1.74923 0.710444 0
M  V30 8751 O 889.338 1.06484 1.48214 0
M  V30 8752 C 889.389 3.45651 -1.05865 0
M  V30 8753 O 889.11 3.63741 -2.44181 0
M  V30 8754 C 890.611 4.36201 -0.790176 0
M  V30 8755 H 887.831 0.615333 -0.267594 0
M  V30 8756 H 890.375 1.52633 -1.36101 0
M  V30 8757 H 888.53 3.84511 -0.47225 0
M  V30 8758 H 888.944 4.57702 -2.56143 0
M  V30 8759 H 890.418 5.41516 -1.07071 0
M  V30 8760 H 890.895 4.38334 0.275609 0
M  V30 8761 H 891.501 4.03008 -1.35885 0
M  V30 8762 N 889.816 0.795718 1.36037 0
M  V30 8763 C 891.093 0.294743 1.93367 0
M  V30 8764 C 891.473 -1.21406 1.72696 0
M  V30 8765 O 890.821 -2.00849 1.08959 0
M  V30 8766 C 891.031 0.694254 3.42025 0
M  V30 8767 C 892.379 0.677566 4.19159 0
M  V30 8768 O 893.403 0.635119 3.50492 0
M  V30 8769 O 892.262 0.726127 5.41655 0
M  V30 8770 H 889.356 0.0745459 0.823633 0
M  V30 8771 H 891.902 0.878685 1.4518 0
M  V30 8772 H 890.674 1.73458 3.50753 0
M  V30 8773 H 890.297 0.0845338 3.9751 0
M  V30 8774 N 891.294 -1.47756 0.548274 0
M  V30 8775 C 892.204 -2.33678 -0.207773 0
M  V30 8776 C 893.22 -1.47636 -0.920843 0
M  V30 8777 O 894.396 -1.80583 -0.89173 0
M  V30 8778 C 891.461 -3.24147 -1.23003 0
M  V30 8779 C 890.522 -4.26073 -0.52535 0
M  V30 8780 C 889.755 -5.12219 -1.4989 0
M  V30 8781 O 889.978 -5.0066 -2.73305 0
M  V30 8782 O 888.912 -5.93051 -1.02828 0
M  V30 8783 H 892.738 -2.99609 0.496794 0
M  V30 8784 H 890.323 -1.4617 0.308982 0
M  V30 8785 H 892.205 -3.80055 -1.82034 0
M  V30 8786 H 890.88 -2.60855 -1.91668 0
M  V30 8787 H 889.787 -3.7395 0.105927 0
M  V30 8788 H 891.12 -4.92054 0.119686 0
M  V30 8789 N 892.772 -0.284283 -1.55015 0
M  V30 8790 C 893.719 0.599194 -2.22886 0
M  V30 8791 C 894.689 1.14264 -1.20553 0
M  V30 8792 O 895.874 1.19025 -1.49123 0
M  V30 8793 C 893.014 1.77317 -2.96062 0
M  V30 8794 C 892.127 1.26271 -4.13134 0
M  V30 8795 C 891.262 2.39922 -4.73931 0
M  V30 8796 C 890.301 1.85925 -5.8318 0
M  V30 8797 N 889.438 2.93084 -6.38002 0
M  V30 8798 H 894.278 0.0137816 -2.97997 0
M  V30 8799 H 891.815 -0.00496503 -1.47099 0
M  V30 8800 H 893.773 2.46339 -3.36709 0
M  V30 8801 H 892.403 2.33047 -2.23358 0
M  V30 8802 H 891.455 0.465296 -3.77544 0
M  V30 8803 H 892.767 0.827284 -4.91892 0
M  V30 8804 H 891.921 3.1692 -5.17346 0
M  V30 8805 H 890.66 2.86784 -3.9447 0
M  V30 8806 H 889.665 1.07409 -5.39206 0
M  V30 8807 H 890.89 1.39987 -6.64515 0
M  V30 8808 H 888.836 3.3931 -5.61431 0
M  V30 8809 H 888.753 2.53986 -7.12058 0
M  V30 8810 H 890.021 3.7003 -6.86075 0
M  V30 8811 N 894.251 1.57596 -0.0117121 0
M  V30 8812 C 895.481 1.95077 0.680346 0
M  V30 8813 C 895.889 0.885793 1.67184 0
M  V30 8814 O 895.232 -0.142723 1.83145 0
M  V30 8815 C 895.294 3.28611 1.45791 0
M  V30 8816 C 894.958 4.52682 0.626706 0
M  V30 8817 C 895.955 5.19821 -0.0906223 0
M  V30 8818 C 893.64 4.99064 0.569229 0
M  V30 8819 C 895.634 6.31649 -0.854289 0
M  V30 8820 C 893.321 6.10779 -0.198155 0
M  V30 8821 C 894.319 6.76929 -0.908636 0
M  V30 8822 O 894.007 7.86501 -1.66348 0
M  V30 8823 H 893.739 0.647663 0.193672 0
M  V30 8824 H 896.293 2.05305 -0.0624969 0
M  V30 8825 H 894.523 3.14824 2.2455 0
M  V30 8826 H 896.212 3.51119 2.03642 0
M  V30 8827 H 896.978 4.84968 -0.0554421 0
M  V30 8828 H 892.857 4.47393 1.11178 0
M  V30 8829 H 896.401 6.83215 -1.40937 0
M  V30 8830 H 892.298 6.45072 -0.235114 0
M  V30 8831 H 893.066 8.03078 -1.58141 0
M  V30 8832 N 895.729 -0.261212 1.5542 0
M  V30 8833 C 896.679 -1.32571 1.85496 0
M  V30 8834 C 897.663 -1.44155 0.714722 0
M  V30 8835 O 898.855 -1.47637 0.976336 0
M  V30 8836 C 895.984 -2.68384 2.14067 0
M  V30 8837 C 895.07 -2.60864 3.34381 0
M  V30 8838 N 895.461 -2.22967 4.54004 0
M  V30 8839 C 893.759 -2.91904 3.37206 0
M  V30 8840 C 894.46 -2.25727 5.36118 0
M  V30 8841 N 893.436 -2.64667 4.74818 0
M  V30 8842 H 897.238 -1.02298 2.75522 0
M  V30 8843 H 894.752 -0.469849 1.55455 0
M  V30 8844 H 896.749 -3.45189 2.33774 0
M  V30 8845 H 895.409 -2.99536 1.25332 0
M  V30 8846 H 896.42 -1.94748 4.79889 0
M  V30 8847 H 893.097 -3.2769 2.587 0
M  V30 8848 H 894.487 -1.98889 6.41789 0
M  V30 8849 N 897.207 -1.48554 -0.526253 0
M  V30 8850 C 898.137 -1.66252 -1.63959 0
M  V30 8851 C 899.118 -0.511351 -1.62232 0
M  V30 8852 O 900.303 -0.744322 -1.7937 0
M  V30 8853 C 897.433 -1.70556 -3.02536 0
M  V30 8854 C 896.387 -2.8521 -3.19123 0
M  V30 8855 C 895.713 -2.74606 -4.58798 0
M  V30 8856 C 897.013 -4.26463 -3.0154 0
M  V30 8857 H 898.707 -2.59459 -1.49404 0
M  V30 8858 H 896.253 -1.24862 -0.717326 0
M  V30 8859 H 898.206 -1.81524 -3.80298 0
M  V30 8860 H 896.93 -0.739297 -3.18123 0
M  V30 8861 H 895.589 -2.73802 -2.43779 0
M  V30 8862 H 895.237 -1.75941 -4.71226 0
M  V30 8863 H 894.937 -3.51544 -4.70841 0
M  V30 8864 H 896.461 -2.87548 -5.38655 0
M  V30 8865 H 897.875 -4.38685 -3.69091 0
M  V30 8866 H 896.272 -5.04428 -3.25073 0
M  V30 8867 H 897.342 -4.42667 -1.97925 0
M  V30 8868 N 898.685 0.775411 -1.37205 0
M  V30 8869 C 899.913 1.56446 -1.35397 0
M  V30 8870 C 900.328 1.887 0.0615437 0
M  V30 8871 O 899.685 1.51178 1.02233 0
M  V30 8872 C 899.736 2.87697 -2.18889 0
M  V30 8873 O 899.457 2.56828 -3.54924 0
M  V30 8874 C 900.958 3.81944 -2.25019 0
M  V30 8875 H 898.178 0.484792 -0.463916 0
M  V30 8876 H 900.722 0.961346 -1.80495 0
M  V30 8877 H 898.877 3.44442 -1.7731 0
M  V30 8878 H 899.291 3.40851 -3.98649 0
M  V30 8879 H 900.765 4.71055 -2.87769 0
M  V30 8880 H 901.242 4.20811 -1.25757 0
M  V30 8881 H 901.848 3.3113 -2.66895 0
M  V30 8882 N 900.163 1.21714 1.00117 0
M  V30 8883 C 901.073 0.99597 2.12409 0
M  V30 8884 C 902.089 -0.0531431 1.73919 0
M  V30 8885 O 903.265 0.137757 2.00928 0
M  V30 8886 C 900.33 0.567593 3.42022 0
M  V30 8887 C 899.391 1.68936 3.94663 0
M  V30 8888 C 898.624 1.28133 5.1809 0
M  V30 8889 O 898.847 0.156574 5.70185 0
M  V30 8890 O 897.781 2.0947 5.64275 0
M  V30 8891 H 901.607 1.93657 2.33946 0
M  V30 8892 H 899.192 1.00236 1.10784 0
M  V30 8893 H 901.074 0.338664 4.20037 0
M  V30 8894 H 899.749 -0.34424 3.21864 0
M  V30 8895 H 898.656 1.97274 3.17858 0
M  V30 8896 H 899.989 2.57876 4.19238 0
M  V30 8897 N 901.641 -1.19671 1.02551 0
M  V30 8898 C 902.571 -2.25009 0.623965 0
M  V30 8899 C 903.552 -1.66129 -0.36538 0
M  V30 8900 O 904.737 -1.92599 -0.248842 0
M  V30 8901 C 901.867 -3.47287 -0.0294869 0
M  V30 8902 C 900.821 -4.18818 0.881781 0
M  V30 8903 C 900.147 -5.34618 0.0936189 0
M  V30 8904 C 901.447 -4.73986 2.19396 0
M  V30 8905 H 903.141 -2.58851 1.50454 0
M  V30 8906 H 900.687 -1.24425 0.724872 0
M  V30 8907 H 902.64 -4.20168 -0.322016 0
M  V30 8908 H 901.364 -3.12635 -0.944838 0
M  V30 8909 H 900.023 -3.47815 1.15845 0
M  V30 8910 H 899.671 -4.9621 -0.823661 0
M  V30 8911 H 899.371 -5.83409 0.700568 0
M  V30 8912 H 900.895 -6.10297 -0.192249 0
M  V30 8913 H 902.309 -5.38639 1.96319 0
M  V30 8914 H 900.706 -5.3325 2.75254 0
M  V30 8915 H 901.776 -3.92238 2.85092 0
M  V30 8916 N 903.119 -0.802921 -1.35613 0
M  V30 8917 C 904.396 -0.304993 -1.93208 0
M  V30 8918 C 904.776 1.20488 -1.73337 0
M  V30 8919 O 904.124 2.00268 -1.10022 0
M  V30 8920 C 904.334 -0.712383 -3.41652 0
M  V30 8921 C 905.682 -0.699785 -4.18794 0
M  V30 8922 O 906.706 -0.653698 -3.5015 0
M  V30 8923 O 905.565 -0.754842 -5.41262 0
M  V30 8924 H 902.659 -0.0789127 -0.823226 0
M  V30 8925 H 905.205 -0.886372 -1.44712 0
M  V30 8926 H 903.977 -1.75316 -3.49829 0
M  V30 8927 H 903.6 -0.105614 -3.9746 0
M  V30 8928 N 904.597 1.47463 -0.556102 0
M  V30 8929 C 905.843 2.02775 -0.0316806 0
M  V30 8930 C 906.176 1.42967 1.3143 0
M  V30 8931 O 905.451 0.584847 1.85499 0
M  V30 8932 C 905.734 3.60046 0.0625742 0
M  V30 8933 C 905.587 4.30288 -1.31043 0
M  V30 8934 C 906.906 4.33195 0.776553 0
M  V30 8935 H 904.025 0.736886 -0.0129869 0
M  V30 8936 H 906.667 1.75904 -0.718177 0
M  V30 8937 H 904.817 3.83071 0.647231 0
M  V30 8938 H 906.489 4.18607 -1.9382 0
M  V30 8939 H 904.732 3.90685 -1.8854 0
M  V30 8940 H 905.403 5.38861 -1.1972 0
M  V30 8941 H 907.879 4.15156 0.280147 0
M  V30 8942 H 906.755 5.42869 0.81146 0
M  V30 8943 H 907.016 4.02336 1.83244 0
M  V30 8944 N 906.075 0.2925 1.54862 0
M  V30 8945 C 907.321 -0.319736 2.00264 0
M  V30 8946 C 907.654 -1.5419 1.18064 0
M  V30 8947 O 906.929 -1.92821 0.254983 0
M  V30 8948 C 907.212 -0.684753 3.5353 0
M  V30 8949 C 907.065 0.545961 4.46474 0
M  V30 8950 C 908.384 -1.51456 4.13218 0
M  V30 8951 H 905.503 -0.11474 0.728014 0
M  V30 8952 H 908.145 0.402907 1.85679 0
M  V30 8953 H 906.295 -1.30044 3.66089 0
M  V30 8954 H 907.967 1.18448 4.45834 0
M  V30 8955 H 906.21 1.1808 4.1742 0
M  V30 8956 H 906.881 0.246544 5.51449 0
M  V30 8957 H 909.357 -0.994421 4.04043 0
M  V30 8958 H 908.233 -1.73875 5.20633 0
M  V30 8959 H 908.494 -2.5011 3.64551 0
M  V30 8960 N 907.553 -1.57587 0.0200696 0
M  V30 8961 C 908.483 -2.12702 -0.963333 0
M  V30 8962 C 909.464 -1.04094 -1.34531 0
M  V30 8963 O 910.649 -1.31881 -1.42552 0
M  V30 8964 C 907.779 -2.64673 -2.24868 0
M  V30 8965 C 906.733 -3.77987 -2.00772 0
M  V30 8966 C 906.059 -4.16351 -3.35494 0
M  V30 8967 C 907.359 -5.0444 -1.35416 0
M  V30 8968 H 909.053 -2.95121 -0.504363 0
M  V30 8969 H 906.599 -1.41966 -0.24116 0
M  V30 8970 H 908.552 -3.01862 -2.94036 0
M  V30 8971 H 907.276 -1.79403 -2.72914 0
M  V30 8972 H 905.935 -3.41223 -1.34025 0
M  V30 8973 H 905.583 -3.28075 -3.81282 0
M  V30 8974 H 905.283 -4.92705 -3.20181 0
M  V30 8975 H 906.807 -4.56115 -4.05945 0
M  V30 8976 H 908.221 -5.39273 -1.94571 0
M  V30 8977 H 906.618 -5.85732 -1.30529 0
M  V30 8978 H 907.688 -4.83803 -0.325923 0
M  V30 8979 N 909.032 0.252966 -1.55557 0
M  V30 8980 C 910.279 0.981852 -1.77104 0
M  V30 8981 C 910.607 1.85547 -0.583305 0
M  V30 8982 O 909.862 1.90836 0.43359 0
M  V30 8983 C 910.161 1.87785 -3.04091 0
M  V30 8984 C 909.827 1.16009 -4.35721 0
M  V30 8985 C 908.489 0.961697 -4.71492 0
M  V30 8986 C 910.841 0.650884 -5.1712 0
M  V30 8987 C 908.169 0.241704 -5.86202 0
M  V30 8988 C 910.521 -0.0556124 -6.32576 0
M  V30 8989 C 909.185 -0.265536 -6.66972 0
M  V30 8990 H 908.455 0.359285 -0.64807 0
M  V30 8991 H 911.102 0.252443 -1.89829 0
M  V30 8992 H 909.407 2.67412 -2.86353 0
M  V30 8993 H 911.104 2.44339 -3.17961 0
M  V30 8994 H 907.694 1.32465 -4.07616 0
M  V30 8995 H 911.878 0.791719 -4.89944 0
M  V30 8996 H 907.134 0.0685292 -6.11362 0
M  V30 8997 H 911.308 -0.457839 -6.94893 0
M  V30 8998 H 908.935 -0.8254 -7.55706 0
M  V30 8999 N 910.51 1.48831 0.518367 0
M  V30 9000 C 911.738 1.6112 1.298 0
M  V30 9001 C 912.153 0.275872 1.86774 0
M  V30 9002 O 911.51 -0.736416 1.66983 0
M  V30 9003 C 911.561 2.66675 2.44063 0
M  V30 9004 O 911.282 3.95027 1.89434 0
M  V30 9005 C 912.783 2.8951 3.35706 0
M  V30 9006 H 910.003 0.542916 0.394314 0
M  V30 9007 H 912.547 1.94743 0.624142 0
M  V30 9008 H 910.702 2.35879 3.07311 0
M  V30 9009 H 911.116 4.53031 2.64316 0
M  V30 9010 H 912.59 3.67142 4.12202 0
M  V30 9011 H 913.067 1.98768 3.91648 0
M  V30 9012 H 913.673 3.21656 2.7824 0
M  V30 9013 N 911.988 -0.768124 1.37614 0
M  V30 9014 C 913.404 -1.06919 1.18493 0
M  V30 9015 C 913.604 -2.01486 0.0235753 0
M  V30 9016 O 912.66 -2.4438 -0.635209 0
M  V30 9017 C 913.973 -1.66321 2.50515 0
M  V30 9018 C 915.521 -1.78562 2.57069 0
M  V30 9019 C 915.996 -2.41377 3.89231 0
M  V30 9020 N 917.487 -2.48824 3.90693 0
M  V30 9021 C 918.222 -2.98288 4.89706 0
M  V30 9022 N 917.718 -3.47897 5.99115 0
M  V30 9023 N 919.511 -2.97196 4.77107 0
M  V30 9024 H 911.662 -0.140286 2.11936 0
M  V30 9025 H 913.925 -0.124863 0.939741 0
M  V30 9026 H 913.631 -1.04303 3.35878 0
M  V30 9027 H 913.505 -2.65571 2.67866 0
M  V30 9028 H 915.892 -2.39712 1.72111 0
M  V30 9029 H 915.973 -0.780574 2.43599 0
M  V30 9030 H 915.617 -1.80866 4.74605 0
M  V30 9031 H 915.547 -3.42495 4.00006 0
M  V30 9032 H 918.038 -2.1372 3.1166 0
M  V30 9033 H 918.351 -3.84053 6.70614 0
M  V30 9034 H 916.696 -3.45993 6.02755 0
M  V30 9035 H 919.887 -2.57741 3.90752 0
M  V30 9036 H 920.06 -3.35434 5.54426 0
M  V30 9037 N 913.466 -1.22244 -0.994698 0
M  V30 9038 C 914.398 -0.948706 -2.08644 0
M  V30 9039 C 915.411 0.0720049 -1.62641 0
M  V30 9040 O 916.6 -0.161778 -1.77765 0
M  V30 9041 C 913.7 -0.404885 -3.36473 0
M  V30 9042 C 912.873 -1.48239 -4.11514 0
M  V30 9043 C 911.932 -0.94597 -5.17627 0
M  V30 9044 O 910.958 -1.63177 -5.45309 0
M  V30 9045 N 912.16 0.23355 -5.8003 0
M  V30 9046 H 914.925 -1.88858 -2.32707 0
M  V30 9047 H 912.486 -1.12908 -1.16032 0
M  V30 9048 H 914.478 -0.0313903 -4.04688 0
M  V30 9049 H 913.048 0.440061 -3.09487 0
M  V30 9050 H 912.268 -2.02928 -3.37955 0
M  V30 9051 H 913.556 -2.20741 -4.58422 0
M  V30 9052 H 912.954 0.80756 -5.59906 0
M  V30 9053 H 911.511 0.54845 -6.49488 0
M  V30 9054 N 914.944 1.19125 -1.03184 0
M  V30 9055 C 916.193 1.8821 -0.725264 0
M  V30 9056 C 916.506 1.80674 0.749411 0
M  V30 9057 O 917.712 2.45037 1.16915 0
M  V30 9058 C 916.168 3.37607 -1.24697 0
M  V30 9059 C 915.776 3.53693 -2.74964 0
M  V30 9060 C 917.52 4.12149 -1.01652 0
M  V30 9061 C 915.427 4.97001 -3.20538 0
M  V30 9062 H 914.357 0.704916 -0.267599 0
M  V30 9063 H 917.008 1.34663 -1.24652 0
M  V30 9064 H 915.39 3.90569 -0.653614 0
M  V30 9065 H 916.564 3.11046 -3.39981 0
M  V30 9066 H 914.879 2.92544 -2.96322 0
M  V30 9067 H 917.476 5.17837 -1.33226 0
M  V30 9068 H 917.819 4.16274 0.0465712 0
M  V30 9069 H 918.352 3.65334 -1.57403 0
M  V30 9070 H 915.091 4.9804 -4.26189 0
M  V30 9071 H 914.611 5.40398 -2.60251 0
M  V30 9072 H 916.29 5.65669 -3.14049 0
M  V30 9073 N 916.422 0.810101 1.35185 0
M  V30 9074 C 917.662 0.397802 2.00492 0
M  V30 9075 C 918.026 -1.01684 1.62863 0
M  V30 9076 O 919.227 -1.53133 2.20916 0
M  V30 9077 C 917.498 0.579524 3.5267 0
M  V30 9078 S 919.057 0.258169 4.3804 0
M  V30 9079 H 915.875 0.150904 0.694801 0
M  V30 9080 H 918.477 1.05312 1.64711 0
M  V30 9081 H 917.181 1.60901 3.77543 0
M  V30 9082 H 916.712 -0.0909886 3.93295 0
M  V30 9083 H 918.727 -0.932882 4.87352 0
M  V30 9084 N 917.9 -1.47166 0.563914 0
M  V30 9085 C 918.81 -2.33885 -0.182977 0
M  V30 9086 C 919.826 -1.48605 -0.905132 0
M  V30 9087 O 921.002 -1.81518 -0.872527 0
M  V30 9088 C 918.067 -3.25433 -1.19558 0
M  V30 9089 C 917.128 -4.26607 -0.480129 0
M  V30 9090 C 916.361 -5.1378 -1.44449 0
M  V30 9091 O 916.584 -5.03531 -2.67979 0
M  V30 9092 O 915.518 -5.94109 -0.965321 0
M  V30 9093 H 919.344 -2.99065 0.528544 0
M  V30 9094 H 916.929 -1.45834 0.324468 0
M  V30 9095 H 918.811 -3.81964 -1.77993 0
M  V30 9096 H 917.486 -2.62873 -1.8889 0
M  V30 9097 H 916.393 -3.73817 0.145583 0
M  V30 9098 H 917.726 -4.919 0.171868 0
M  V30 9099 N 919.378 -0.300708 -1.54705 0
M  V30 9100 C 920.626 0.308044 -1.99739 0
M  V30 9101 C 920.947 1.54433 -1.19061 0
M  V30 9102 O 920.217 1.93794 -0.286507 0
M  V30 9103 H 918.797 0.116811 -0.73781 0
M  V30 9104 H 921.459 -0.41197 -1.90496 0
M  V30 9105 H 920.555 0.580287 -3.06658 0
M  V30 9106 N 920.856 1.57574 -0.0284266 0
M  V30 9107 C 922.102 1.92056 0.651327 0
M  V30 9108 C 922.435 0.905092 1.71819 0
M  V30 9109 O 921.71 -0.0722703 1.94366 0
M  V30 9110 C 921.993 3.37021 1.26841 0
M  V30 9111 C 921.846 4.49304 0.211157 0
M  V30 9112 C 923.165 3.81936 2.18662 0
M  V30 9113 H 920.284 0.698428 0.235304 0
M  V30 9114 H 922.926 1.89807 -0.0855435 0
M  V30 9115 H 921.076 3.39068 1.89644 0
M  V30 9116 H 922.748 4.5939 -0.419379 0
M  V30 9117 H 920.991 4.31317 -0.463445 0
M  V30 9118 H 921.662 5.47764 0.682518 0
M  V30 9119 H 924.138 3.8162 1.65847 0
M  V30 9120 H 923.014 4.84064 2.58792 0
M  V30 9121 H 923.275 3.174 3.07749 0
M  V30 9122 N 922.334 -0.244713 1.55689 0
M  V30 9123 C 923.284 -1.30596 1.86892 0
M  V30 9124 C 924.268 -1.43388 0.729972 0
M  V30 9125 O 925.46 -1.46593 0.99194 0
M  V30 9126 C 922.589 -2.66099 2.16902 0
M  V30 9127 C 921.675 -2.57302 3.37129 0
M  V30 9128 N 922.066 -2.18139 4.56343 0
M  V30 9129 C 920.364 -2.88311 3.40283 0
M  V30 9130 C 921.065 -2.20028 5.38482 0
M  V30 9131 N 920.041 -2.59616 4.77599 0
M  V30 9132 H 923.843 -0.993699 2.76591 0
M  V30 9133 H 921.357 -0.453334 1.55944 0
M  V30 9134 H 923.354 -3.4269 2.37422 0
M  V30 9135 H 922.014 -2.9819 1.28502 0
M  V30 9136 H 923.025 -1.89647 4.81928 0
M  V30 9137 H 919.702 -3.24928 2.62161 0
M  V30 9138 H 921.092 -1.9207 6.43862 0
M  V30 9139 N 923.813 -1.49104 -0.510467 0
M  V30 9140 C 925.043 -1.61571 -1.28757 0
M  V30 9141 C 925.451 -0.282638 -1.87077 0
M  V30 9142 O 924.794 0.740749 -1.68103 0
M  V30 9143 C 924.856 -2.61851 -2.46322 0
M  V30 9144 C 924.52 -4.06438 -2.08942 0
M  V30 9145 C 925.517 -4.93532 -1.63469 0
M  V30 9146 C 923.202 -4.52109 -2.18867 0
M  V30 9147 C 925.196 -6.24331 -1.28411 0
M  V30 9148 C 922.883 -5.82924 -1.83421 0
M  V30 9149 C 923.881 -6.68858 -1.38267 0
M  V30 9150 O 923.569 -7.97236 -1.03296 0
M  V30 9151 H 923.301 -0.547082 -0.397086 0
M  V30 9152 H 925.855 -1.95806 -0.620424 0
M  V30 9153 H 924.085 -2.22777 -3.16081 0
M  V30 9154 H 925.774 -2.63947 -3.08362 0
M  V30 9155 H 926.54 -4.59479 -1.55255 0
M  V30 9156 H 922.419 -3.85395 -2.52966 0
M  V30 9157 H 925.963 -6.9136 -0.930946 0
M  V30 9158 H 921.86 -6.16507 -1.91282 0
M  V30 9159 H 922.628 -8.10163 -1.16525 0
M  V30 9160 N 925.291 0.760815 -1.38019 0
M  V30 9161 C 926.221 1.88811 -1.37377 0
M  V30 9162 C 927.202 1.68388 -0.240737 0
M  V30 9163 O 928.387 1.89086 -0.442739 0
M  V30 9164 C 925.517 3.26244 -1.1909 0
M  V30 9165 C 924.471 3.61254 -2.29521 0
M  V30 9166 C 923.797 4.97346 -1.96345 0
M  V30 9167 C 925.097 3.66874 -3.71753 0
M  V30 9168 H 926.791 1.89606 -2.31711 0
M  V30 9169 H 924.337 0.910818 -1.11535 0
M  V30 9170 H 926.29 4.04755 -1.17267 0
M  V30 9171 H 925.014 3.2591 -0.212152 0
M  V30 9172 H 923.673 2.85057 -2.30517 0
M  V30 9173 H 923.321 4.93564 -0.969728 0
M  V30 9174 H 923.021 5.21739 -2.703 0
M  V30 9175 H 924.545 5.78244 -1.96129 0
M  V30 9176 H 925.959 4.35514 -3.72828 0
M  V30 9177 H 924.356 4.02772 -4.44853 0
M  V30 9178 H 925.426 2.67273 -4.0459 0
M  V30 9179 N 926.769 1.22769 0.988202 0
M  V30 9180 C 927.719 0.969202 2.06375 0
M  V30 9181 C 928.703 -0.0819274 1.60691 0
M  V30 9182 O 929.895 0.129201 1.76528 0
M  V30 9183 C 927.024 0.553919 3.38802 0
M  V30 9184 C 926.11 1.64003 3.91106 0
M  V30 9185 N 926.501 2.86872 4.16579 0
M  V30 9186 C 924.799 1.5128 4.1956 0
M  V30 9187 C 925.5 3.57137 4.5916 0
M  V30 9188 N 924.476 2.84624 4.63131 0
M  V30 9189 H 928.278 1.90247 2.24017 0
M  V30 9190 H 925.792 1.12592 1.17033 0
M  V30 9191 H 927.789 0.350033 4.15428 0
M  V30 9192 H 926.449 -0.37239 3.22558 0
M  V30 9193 H 927.46 3.23254 4.04632 0
M  V30 9194 H 924.137 0.653032 4.12361 0
M  V30 9195 H 925.527 4.62428 4.87452 0
M  V30 9196 N 928.247 -1.18576 1.03814 0
M  V30 9197 C 929.179 -2.21607 0.585055 0
M  V30 9198 C 930.192 -1.59125 -0.343963 0
M  V30 9199 O 931.381 -1.77959 -0.138882 0
M  V30 9200 C 928.481 -3.38495 -0.165602 0
M  V30 9201 C 927.654 -4.30557 0.770662 0
M  V30 9202 C 926.713 -5.26161 0.0637534 0
M  V30 9203 O 925.739 -5.64961 0.693359 0
M  V30 9204 N 926.941 -5.67882 -1.20377 0
M  V30 9205 H 929.706 -2.61104 1.47121 0
M  V30 9206 H 927.267 -1.33336 0.918316 0
M  V30 9207 H 929.259 -3.99474 -0.648292 0
M  V30 9208 H 927.829 -2.97711 -0.953268 0
M  V30 9209 H 927.049 -3.67221 1.43326 0
M  V30 9210 H 928.337 -4.88969 1.40667 0
M  V30 9211 H 927.735 -5.38409 -1.73586 0
M  V30 9212 H 926.292 -6.31069 -1.63079 0
M  V30 9213 N 929.725 -0.817259 -1.34754 0
M  V30 9214 C 930.675 -0.207585 -2.27053 0
M  V30 9215 C 931.659 0.624836 -1.48272 0
M  V30 9216 O 932.851 0.480344 -1.70358 0
M  V30 9217 C 929.98 0.634281 -3.3739 0
M  V30 9218 C 929.066 -0.208456 -4.23587 0
M  V30 9219 N 929.457 -1.2767 -4.89422 0
M  V30 9220 C 927.755 0.00815096 -4.45999 0
M  V30 9221 C 928.456 -1.79209 -5.53407 0
M  V30 9222 N 927.432 -1.09686 -5.32419 0
M  V30 9223 H 931.234 -1.0248 -2.75454 0
M  V30 9224 H 928.748 -0.659492 -1.48406 0
M  V30 9225 H 930.745 1.08718 -4.02475 0
M  V30 9226 H 929.405 1.44972 -2.90539 0
M  V30 9227 H 930.416 -1.65945 -4.90594 0
M  V30 9228 H 927.093 0.791879 -4.09921 0
M  V30 9229 H 928.483 -2.68548 -6.15899 0
M  V30 9230 N 931.203 1.46865 -0.571711 0
M  V30 9231 C 932.433 2.06518 -0.0583129 0
M  V30 9232 C 932.841 1.4227 1.24723 0
M  V30 9233 O 932.184 0.518293 1.76237 0
M  V30 9234 C 932.246 3.5898 0.193214 0
M  V30 9235 C 931.91 4.45355 -1.02507 0
M  V30 9236 C 932.907 4.82575 -1.93435 0
M  V30 9237 C 930.592 4.86656 -1.24382 0
M  V30 9238 C 932.586 5.59912 -3.04595 0
M  V30 9239 C 930.273 5.63754 -2.35849 0
M  V30 9240 C 931.271 6.00294 -3.25785 0
M  V30 9241 O 930.959 6.75836 -4.35318 0
M  V30 9242 H 930.691 0.674188 -0.0494584 0
M  V30 9243 H 933.245 1.89644 -0.788934 0
M  V30 9244 H 931.475 3.7412 0.978319 0
M  V30 9245 H 933.164 4.006 0.653769 0
M  V30 9246 H 933.93 4.51256 -1.77745 0
M  V30 9247 H 929.809 4.57672 -0.55292 0
M  V30 9248 H 933.353 5.88351 -3.74818 0
M  V30 9249 H 929.25 5.94487 -2.51506 0
M  V30 9250 H 930.018 6.94247 -4.33547 0
M  V30 9251 N 932.681 0.308908 1.54543 0
M  V30 9252 C 933.93 -0.298854 1.99474 0
M  V30 9253 C 934.243 -1.54393 1.20093 0
M  V30 9254 O 935.449 -2.22677 1.55329 0
M  V30 9255 C 933.905 -0.58303 3.55146 0
M  V30 9256 C 933.513 0.644157 4.43345 0
M  V30 9257 C 935.257 -1.15155 4.08582 0
M  V30 9258 C 933.164 0.332694 5.90463 0
M  V30 9259 H 932.094 -0.115445 0.74511 0
M  V30 9260 H 934.745 0.418848 1.78656 0
M  V30 9261 H 933.127 -1.36053 3.71894 0
M  V30 9262 H 934.301 1.42012 4.38371 0
M  V30 9263 H 932.616 1.13186 4.00722 0
M  V30 9264 H 935.213 -1.39896 5.16075 0
M  V30 9265 H 935.556 -2.09632 3.59667 0
M  V30 9266 H 936.089 -0.435571 3.95408 0
M  V30 9267 H 932.828 1.24624 6.43544 0
M  V30 9268 H 932.348 -0.405844 5.98425 0
M  V30 9269 H 934.027 -0.0628545 6.46969 0
M  V30 9270 N 934.159 -1.57557 0.0367827 0
M  V30 9271 C 935.089 -2.13712 -0.940719 0
M  V30 9272 C 936.07 -1.05515 -1.33419 0
M  V30 9273 O 937.255 -1.33385 -1.41146 0
M  V30 9274 C 934.385 -2.67043 -2.22048 0
M  V30 9275 C 933.339 -3.80096 -1.96752 0
M  V30 9276 C 932.665 -4.19886 -3.31059 0
M  V30 9277 C 933.965 -5.05848 -1.30058 0
M  V30 9278 H 935.659 -2.9564 -0.473033 0
M  V30 9279 H 933.205 -1.42214 -0.226089 0
M  V30 9280 H 935.158 -3.04964 -2.90818 0
M  V30 9281 H 933.882 -1.82287 -2.70996 0
M  V30 9282 H 932.541 -3.42625 -1.30398 0
M  V30 9283 H 932.189 -3.32101 -3.77781 0
M  V30 9284 H 931.889 -4.96073 -3.14937 0
M  V30 9285 H 933.413 -4.60395 -4.01084 0
M  V30 9286 H 934.827 -5.41306 -1.8884 0
M  V30 9287 H 933.224 -5.87084 -1.24309 0
M  V30 9288 H 934.294 -4.84122 -0.274591 0
M  V30 9289 N 935.637 0.236453 -1.55816 0
M  V30 9290 C 936.587 1.29603 -1.87582 0
M  V30 9291 C 937.571 1.42999 -0.737566 0
M  V30 9292 O 938.763 1.46065 -0.999701 0
M  V30 9293 C 935.892 2.64945 -2.1831 0
M  V30 9294 C 934.978 2.55511 -3.38489 0
M  V30 9295 N 935.369 2.15716 -4.57494 0
M  V30 9296 C 933.667 2.86502 -3.41808 0
M  V30 9297 C 934.368 2.17169 -5.39641 0
M  V30 9298 N 933.344 2.5708 -4.78969 0
M  V30 9299 H 937.146 0.979016 -2.77115 0
M  V30 9300 H 934.66 0.445058 -1.56183 0
M  V30 9301 H 936.657 3.41426 -2.39236 0
M  V30 9302 H 935.317 2.97504 -1.30082 0
M  V30 9303 H 936.328 1.87089 -4.82927 0
M  V30 9304 H 933.005 3.23533 -2.6388 0
M  V30 9305 H 934.395 1.88653 -6.44872 0
M  V30 9306 N 937.115 1.49373 0.502552 0
M  V30 9307 C 938.045 1.68839 1.61294 0
M  V30 9308 C 939.026 0.537096 1.61398 0
M  V30 9309 O 940.211 0.772764 1.78163 0
M  V30 9310 C 937.341 1.75347 2.99784 0
M  V30 9311 C 936.295 2.90251 3.14545 0
M  V30 9312 C 935.621 2.8187 4.54371 0
M  V30 9313 C 936.921 4.31207 2.94717 0
M  V30 9314 H 938.615 2.61803 1.45257 0
M  V30 9315 H 936.161 1.25987 0.697371 0
M  V30 9316 H 938.114 1.87552 3.77362 0
M  V30 9317 H 936.838 0.789814 3.16906 0
M  V30 9318 H 935.497 2.77646 2.39392 0
M  V30 9319 H 935.145 1.83416 4.68367 0
M  V30 9320 H 934.845 3.5899 4.65188 0
M  V30 9321 H 936.369 2.96081 5.34012 0
M  V30 9322 H 937.783 4.44501 3.62065 0
M  V30 9323 H 936.18 5.09536 3.17007 0
M  V30 9324 H 937.25 4.45759 1.90857 0
M  V30 9325 N 938.594 -0.753485 1.38421 0
M  V30 9326 C 939.871 -1.50318 1.25155 0
M  V30 9327 C 940.251 -2.10588 -0.147003 0
M  V30 9328 O 939.599 -1.97071 -1.15651 0
M  V30 9329 C 939.809 -2.56946 2.36177 0
M  V30 9330 C 941.157 -3.23846 2.74607 0
M  V30 9331 O 942.181 -2.67251 2.3549 0
M  V30 9332 O 941.04 -4.2621 3.42064 0
M  V30 9333 H 938.134 -0.666624 0.48943 0
M  V30 9334 H 940.68 -0.788887 1.50249 0
M  V30 9335 H 939.452 -2.1066 3.29754 0
M  V30 9336 H 939.075 -3.35956 2.12648 0
M  V30 9337 N 940.072 -1.23292 -0.981677 0
M  V30 9338 C 941.002 -1.03738 -2.09191 0
M  V30 9339 C 941.983 0.0453041 -1.7004 0
M  V30 9340 O 943.168 -0.119092 -1.93834 0
M  V30 9341 C 940.298 -0.626426 -3.41604 0
M  V30 9342 C 939.252 -1.65631 -3.94652 0
M  V30 9343 C 938.578 -1.10084 -5.23245 0
M  V30 9344 C 939.878 -3.04903 -4.24066 0
M  V30 9345 H 941.572 -1.966 -2.25807 0
M  V30 9346 H 939.118 -0.946656 -1.0851 0
M  V30 9347 H 941.071 -0.476689 -4.18695 0
M  V30 9348 H 939.795 0.337873 -3.24848 0
M  V30 9349 H 938.454 -1.79402 -3.19704 0
M  V30 9350 H 938.102 -0.127562 -5.02838 0
M  V30 9351 H 937.802 -1.78896 -5.59705 0
M  V30 9352 H 939.326 -0.962928 -6.02959 0
M  V30 9353 H 940.74 -2.94441 -4.91912 0
M  V30 9354 H 939.137 -3.70941 -4.71724 0
M  V30 9355 H 940.207 -3.53991 -3.31389 0
M  V30 9356 N 941.55 1.18024 -1.04442 0
M  V30 9357 C 942.497 2.21785 -0.638759 0
M  V30 9358 C 943.467 1.62255 0.355312 0
M  V30 9359 O 944.652 1.89176 0.24844 0
M  V30 9360 C 941.792 3.45098 -0.0118002 0
M  V30 9361 C 940.905 4.1895 -1.05379 0
M  V30 9362 C 940.04 5.2973 -0.394951 0
M  V30 9363 C 939.079 5.95359 -1.42178 0
M  V30 9364 N 938.216 6.97668 -0.787635 0
M  V30 9365 H 943.056 2.55839 -1.52808 0
M  V30 9366 H 940.593 1.25681 -0.764378 0
M  V30 9367 H 942.551 4.15564 0.369075 0
M  V30 9368 H 941.181 3.11652 0.84102 0
M  V30 9369 H 940.233 3.47274 -1.55258 0
M  V30 9370 H 941.545 4.63877 -1.83355 0
M  V30 9371 H 940.699 6.06687 0.0399244 0
M  V30 9372 H 939.438 4.85915 0.416867 0
M  V30 9373 H 938.443 5.17139 -1.86675 0
M  V30 9374 H 939.668 6.41255 -2.23536 0
M  V30 9375 H 937.614 6.56 0.00380893 0
M  V30 9376 H 937.531 7.40867 -1.50505 0
M  V30 9377 H 938.799 7.78586 -0.377282 0
M  V30 9378 N 943.028 0.824394 1.34319 0
M  V30 9379 C 944.439 0.471802 1.8064 0
M  V30 9380 C 944.79 -1.00793 1.6833 0
M  V30 9381 O 943.915 -1.78447 1.22416 0
M  V30 9382 C 944.51 0.849609 3.27974 0
M  V30 9383 C 943.069 0.549365 3.72369 0
M  V30 9384 C 942.216 1.06573 2.56003 0
M  V30 9385 H 945.167 1.01443 1.22045 0
M  V30 9386 H 945.188 0.153968 3.80188 0
M  V30 9387 H 944.7 1.92663 3.36902 0
M  V30 9388 H 942.801 -0.518182 3.68979 0
M  V30 9389 H 942.914 1.09446 4.66432 0
M  V30 9390 H 941.278 0.487214 2.49997 0
M  V30 9391 H 942.061 2.14923 2.677 0
M  V30 9392 N 944.506 -1.46559 0.579492 0
M  V30 9393 C 945.416 -2.34066 -0.15816 0
M  V30 9394 C 946.432 -1.49556 -0.88932 0
M  V30 9395 O 947.608 -1.82434 -0.853226 0
M  V30 9396 C 944.673 -3.26683 -1.161 0
M  V30 9397 C 943.734 -4.27092 -0.434855 0
M  V30 9398 C 942.967 -5.15283 -1.38992 0
M  V30 9399 O 943.19 -5.06345 -2.62623 0
M  V30 9400 O 942.124 -5.95099 -0.902253 0
M  V30 9401 H 945.95 -2.98488 0.560234 0
M  V30 9402 H 943.535 -1.45482 0.339918 0
M  V30 9403 H 945.417 -3.8383 -1.73932 0
M  V30 9404 H 944.092 -2.64862 -1.86091 0
M  V30 9405 H 942.999 -3.73641 0.185224 0
M  V30 9406 H 944.332 -4.9169 0.224031 0
M  V30 9407 N 945.984 -0.3171 -1.54377 0
M  V30 9408 C 946.932 0.567371 -2.25574 0
M  V30 9409 C 947.926 1.12387 -1.2675 0
M  V30 9410 O 949.132 1.07266 -1.44548 0
M  V30 9411 H 945.507 0.201605 -0.724472 0
M  V30 9412 H 947.478 -0.0554644 -2.98348 0
M  V30 9413 C 946.227 1.71984 -3.02187 0
M  V30 9414 H 945.55 1.30086 -3.78044 0
M  V30 9415 H 946.99 2.31443 -3.5526 0
M  V30 9416 C 945.449 2.6336 -2.10103 0
M  V30 9417 O 945.979 3.64899 -1.67962 0
M  V30 9418 N 944.185 2.3145 -1.75725 0
M  V30 9419 H 943.732 1.48921 -2.10191 0
M  V30 9420 H 943.69 2.92852 -1.14391 0
M  V30 9421 N 947.462 1.57535 -0.0451378 0
M  V30 9422 C 948.711 1.91628 0.629415 0
M  V30 9423 C 949.024 0.924754 1.72359 0
M  V30 9424 O 950.23 1.15751 2.45589 0
M  V30 9425 C 948.686 3.40322 1.17084 0
M  V30 9426 C 948.294 4.47867 0.109101 0
M  V30 9427 C 950.038 3.83458 1.82099 0
M  V30 9428 C 947.945 5.87671 0.663072 0
M  V30 9429 H 946.875 0.715163 0.238868 0
M  V30 9430 H 949.526 1.83151 -0.113046 0
M  V30 9431 H 947.908 3.43783 1.96543 0
M  V30 9432 H 949.082 4.55988 -0.664201 0
M  V30 9433 H 947.397 4.14034 -0.443227 0
M  V30 9434 H 949.994 4.85273 2.2453 0
M  V30 9435 H 950.337 3.19379 2.67026 0
M  V30 9436 H 950.87 3.82488 1.09305 0
M  V30 9437 H 947.609 6.55332 -0.148423 0
M  V30 9438 H 947.129 5.83124 1.4045 0
M  V30 9439 H 948.808 6.36737 1.14785 0
M  V30 9440 N 948.94 -0.228186 1.55939 0
M  V30 9441 C 949.87 -1.28607 1.94891 0
M  V30 9442 C 950.851 -1.49236 0.816245 0
M  V30 9443 O 952.036 -1.61531 1.07803 0
M  V30 9444 C 949.166 -2.63719 2.25986 0
M  V30 9445 C 948.12 -2.57757 3.4168 0
M  V30 9446 C 947.446 -3.96837 3.58364 0
M  V30 9447 C 948.746 -2.13116 4.76843 0
M  V30 9448 H 950.44 -0.962531 2.83506 0
M  V30 9449 H 947.986 -0.461577 1.36402 0
M  V30 9450 H 949.939 -3.37878 2.51826 0
M  V30 9451 H 948.663 -2.97747 1.34217 0
M  V30 9452 H 947.322 -1.86055 3.15878 0
M  V30 9453 H 946.97 -4.28162 2.63982 0
M  V30 9454 H 946.67 -3.93731 4.36176 0
M  V30 9455 H 948.194 -4.72668 3.86545 0
M  V30 9456 H 949.608 -2.77015 5.01932 0
M  V30 9457 H 948.005 -2.21083 5.57891 0
M  V30 9458 H 949.075 -1.08326 4.72645 0
M  V30 9459 N 950.418 -1.49637 -0.494624 0
M  V30 9460 C 951.658 -1.61067 -1.25844 0
M  V30 9461 C 952.022 -0.293666 -1.89741 0
M  V30 9462 O 953.223 -0.283202 -2.67304 0
M  V30 9463 C 951.494 -2.74218 -2.29215 0
M  V30 9464 S 953.053 -3.05639 -3.1485 0
M  V30 9465 H 949.871 -0.568056 -0.42759 0
M  V30 9466 H 952.473 -1.87323 -0.559491 0
M  V30 9467 H 951.177 -3.68422 -1.80813 0
M  V30 9468 H 950.708 -2.49975 -3.0377 0
M  V30 9469 H 952.723 -2.47651 -4.29981 0
M  V30 9470 N 951.896 0.746133 -1.38819 0
M  V30 9471 C 953.142 1.50768 -1.35635 0
M  V30 9472 C 953.475 1.94132 0.0512435 0
M  V30 9473 O 952.75 1.65979 1.01396 0
M  V30 9474 C 953.033 2.7551 -2.31875 0
M  V30 9475 C 952.886 2.38236 -3.81528 0
M  V30 9476 C 954.205 3.77566 -2.26124 0
M  V30 9477 H 951.324 0.546922 -0.494009 0
M  V30 9478 H 953.966 0.854017 -1.69725 0
M  V30 9479 H 952.116 3.31285 -2.02935 0
M  V30 9480 H 953.788 1.88178 -4.21173 0
M  V30 9481 H 952.031 1.70601 -3.98846 0
M  V30 9482 H 952.702 3.27517 -4.44339 0
M  V30 9483 H 955.178 3.31349 -2.51689 0
M  V30 9484 H 954.054 4.62531 -2.95561 0
M  V30 9485 H 954.315 4.23689 -1.26254 0
M  V30 9486 N 953.375 1.23811 0.975125 0
M  V30 9487 C 954.323 1.02149 2.0897 0
M  V30 9488 C 955.317 -0.0412172 1.6935 0
M  V30 9489 O 956.523 0.112726 1.79647 0
M  V30 9490 H 952.898 0.313259 0.683647 0
M  V30 9491 H 954.869 1.96686 2.24404 0
M  V30 9492 C 953.618 0.635023 3.41852 0
M  V30 9493 H 952.941 1.44449 3.72793 0
M  V30 9494 H 954.381 0.52301 4.20762 0
M  V30 9495 C 952.84 -0.657207 3.30428 0
M  V30 9496 O 953.37 -1.70494 3.63723 0
M  V30 9497 N 951.576 -0.635122 2.83575 0
M  V30 9498 H 951.123 0.21784 2.56677 0
M  V30 9499 H 951.081 -1.49995 2.76313 0
M  V30 9500 N 954.853 -1.17469 1.05066 0
M  V30 9501 C 955.785 -2.20974 0.608526 0
M  V30 9502 C 956.798 -1.59481 -0.327066 0
M  V30 9503 O 957.987 -1.78096 -0.12 0
M  V30 9504 C 955.087 -3.38652 -0.12969 0
M  V30 9505 C 954.26 -4.29716 0.816285 0
M  V30 9506 C 953.319 -5.26064 0.119556 0
M  V30 9507 O 952.345 -5.64194 0.753241 0
M  V30 9508 N 953.547 -5.69126 -1.14347 0
M  V30 9509 H 956.312 -2.59529 1.49882 0
M  V30 9510 H 953.873 -1.32355 0.932406 0
M  V30 9511 H 955.865 -4.00139 -0.605886 0
M  V30 9512 H 954.435 -2.98705 -0.921638 0
M  V30 9513 H 953.655 -3.6568 1.47213 0
M  V30 9514 H 954.943 -4.87449 1.45845 0
M  V30 9515 H 954.341 -5.4022 -1.67866 0
M  V30 9516 H 952.898 -6.32764 -1.56376 0
M  V30 9517 N 956.331 -0.831506 -1.3388 0
M  V30 9518 C 957.559 -0.436925 -2.02234 0
M  V30 9519 C 957.974 0.959689 -1.6259 0
M  V30 9520 O 957.331 1.62248 -0.835576 0
M  V30 9521 C 957.382 -0.539429 -3.57453 0
M  V30 9522 O 957.103 -1.88101 -3.95664 0
M  V30 9523 C 958.604 -0.140852 -4.43076 0
M  V30 9524 H 955.824 -0.174302 -0.647966 0
M  V30 9525 H 958.368 -1.12204 -1.70969 0
M  V30 9526 H 956.523 0.0976959 -3.87277 0
M  V30 9527 H 956.937 -1.86131 -4.90363 0
M  V30 9528 H 958.411 -0.26364 -5.5137 0
M  V30 9529 H 958.888 0.916505 -4.29531 0
M  V30 9530 H 959.494 -0.752117 -4.18597 0
M  V30 9531 N 957.809 1.4625 -0.587256 0
M  V30 9532 C 959.057 2.01963 -0.0744273 0
M  V30 9533 C 959.378 1.46065 1.29189 0
M  V30 9534 O 958.648 0.647077 1.84905 0
M  V30 9535 H 957.228 0.746597 -0.0245236 0
M  V30 9536 H 959.89 1.79299 -0.764063 0
M  V30 9537 H 958.986 3.12099 -0.00884894 0
M  V30 9538 N 959.287 0.325282 1.54207 0
M  V30 9539 C 960.237 -0.55548 2.2113 0
M  V30 9540 C 961.221 -1.0803 1.19241 0
M  V30 9541 O 962.413 -1.01703 1.44864 0
M  V30 9542 C 959.542 -1.71504 2.97391 0
M  V30 9543 C 958.628 -1.20503 4.0662 0
M  V30 9544 N 959.019 -0.414838 5.04096 0
M  V30 9545 C 957.317 -1.4836 4.20601 0
M  V30 9546 C 958.018 -0.140225 5.81531 0
M  V30 9547 N 956.994 -0.72683 5.38719 0
M  V30 9548 H 960.796 0.0555192 2.93848 0
M  V30 9549 H 958.31 0.131225 1.61869 0
M  V30 9550 H 960.307 -2.35781 3.43821 0
M  V30 9551 H 958.967 -2.3295 2.26195 0
M  V30 9552 H 959.978 -0.0575291 5.17868 0
M  V30 9553 H 956.655 -2.10378 3.60621 0
M  V30 9554 H 958.045 0.496026 6.70067 0
M  V30 9555 N 960.765 -1.57509 0.0534917 0
M  V30 9556 C 961.697 -2.08616 -0.949322 0
M  V30 9557 C 962.71 -1.01446 -1.27328 0
M  V30 9558 O 963.899 -1.29007 -1.23367 0
M  V30 9559 C 960.999 -2.51622 -2.27024 0
M  V30 9560 C 960.172 -3.82154 -2.12785 0
M  V30 9561 C 959.231 -4.11448 -3.2802 0
M  V30 9562 O 958.257 -4.81333 -3.03822 0
M  V30 9563 N 959.459 -3.63543 -4.52567 0
M  V30 9564 H 962.224 -2.95275 -0.5131 0
M  V30 9565 H 959.785 -1.61355 -0.132693 0
M  V30 9566 H 961.777 -2.68293 -3.02986 0
M  V30 9567 H 960.347 -1.70198 -2.62205 0
M  V30 9568 H 959.567 -3.75041 -1.21399 0
M  V30 9569 H 960.855 -4.67629 -2.00501 0
M  V30 9570 H 960.253 -3.07051 -4.75117 0
M  V30 9571 H 958.81 -3.85448 -5.25617 0
M  V30 9572 N 962.243 0.219913 -1.56058 0
M  V30 9573 C 963.492 0.942119 -1.78345 0
M  V30 9574 C 963.805 1.85435 -0.622344 0
M  V30 9575 O 965.011 2.61533 -0.728886 0
M  V30 9576 C 963.467 1.72544 -3.15843 0
M  V30 9577 C 963.075 0.859263 -4.39682 0
M  V30 9578 C 964.819 2.43876 -3.47455 0
M  V30 9579 C 962.726 1.64003 -5.68205 0
M  V30 9580 H 961.656 0.355514 -0.664925 0
M  V30 9581 H 964.307 0.195963 -1.82451 0
M  V30 9582 H 962.689 2.51456 -3.05918 0
M  V30 9583 H 963.863 0.110562 -4.60667 0
M  V30 9584 H 962.178 0.257985 -4.156 0
M  V30 9585 H 964.775 3.02794 -4.40704 0
M  V30 9586 H 965.118 3.16843 -2.7003 0
M  V30 9587 H 965.651 1.71952 -3.58716 0
M  V30 9588 H 962.39 0.953606 -6.48526 0
M  V30 9589 H 961.91 2.3633 -5.51279 0
M  V30 9590 H 963.589 2.20028 -6.08438 0
M  V30 9591 N 963.721 1.49897 0.486681 0
M  V30 9592 C 964.668 1.67619 1.58658 0
M  V30 9593 C 965.638 0.517537 1.57831 0
M  V30 9594 O 966.823 0.746272 1.756 0
M  V30 9595 C 963.963 1.762 2.96728 0
M  V30 9596 C 963.076 3.03465 3.07462 0
M  V30 9597 C 962.211 3.02937 4.36351 0
M  V30 9598 C 961.25 4.24721 4.4077 0
M  V30 9599 N 960.387 4.22021 5.61108 0
M  V30 9600 H 965.227 2.61528 1.42853 0
M  V30 9601 H 962.764 1.29657 0.694807 0
M  V30 9602 H 964.722 1.79156 3.76774 0
M  V30 9603 H 963.352 0.857452 3.11203 0
M  V30 9604 H 962.404 3.10054 2.20387 0
M  V30 9605 H 963.716 3.93454 3.06586 0
M  V30 9606 H 962.87 3.04536 5.24731 0
M  V30 9607 H 961.609 2.10751 4.39813 0
M  V30 9608 H 960.614 4.23352 3.5079 0
M  V30 9609 H 961.839 5.18116 4.39013 0
M  V30 9610 H 959.785 3.3268 5.65385 0
M  V30 9611 H 959.702 5.05761 5.61909 0
M  V30 9612 H 960.97 4.27743 6.51656 0
M  V30 9613 N 965.199 -0.738761 1.39212 0
M  V30 9614 C 966.448 -1.49368 1.35543 0
M  V30 9615 C 966.761 -1.95543 -0.0471091 0
M  V30 9616 O 967.967 -2.70714 -0.206376 0
M  V30 9617 C 966.423 -2.69882 2.381 0
M  V30 9618 C 966.031 -2.30672 3.8405 0
M  V30 9619 C 967.775 -3.47718 2.435 0
M  V30 9620 C 965.682 -3.47886 4.78256 0
M  V30 9621 H 964.612 -0.560898 0.503894 0
M  V30 9622 H 967.263 -0.806221 1.6484 0
M  V30 9623 H 965.645 -3.40684 2.01867 0
M  V30 9624 H 966.819 -1.67441 4.29302 0
M  V30 9625 H 965.134 -1.65936 3.81909 0
M  V30 9626 H 967.731 -4.34897 3.11077 0
M  V30 9627 H 968.074 -3.89919 1.45838 0
M  V30 9628 H 968.607 -2.83942 2.78606 0
M  V30 9629 H 965.346 -3.10739 5.77167 0
M  V30 9630 H 964.866 -4.10111 4.37686 0
M  V30 9631 H 966.545 -4.14271 4.96979 0
M  V30 9632 N 966.677 -1.24326 -0.968545 0
M  V30 9633 C 967.926 -1.07647 -1.70572 0
M  V30 9634 C 968.239 0.384821 -1.91777 0
M  V30 9635 O 969.445 0.671782 -2.63058 0
M  V30 9636 C 967.901 -1.87799 -3.07017 0
M  V30 9637 C 967.509 -3.38333 -2.93658 0
M  V30 9638 C 969.253 -1.79647 -3.84613 0
M  V30 9639 C 967.16 -4.10831 -4.25407 0
M  V30 9640 H 966.09 -0.399216 -0.639642 0
M  V30 9641 H 968.741 -1.484 -1.07934 0
M  V30 9642 H 967.123 -1.3986 -3.7048 0
M  V30 9643 H 968.297 -3.93845 -2.39213 0
M  V30 9644 H 966.612 -3.47427 -2.29528 0
M  V30 9645 H 969.209 -2.31116 -4.82172 0
M  V30 9646 H 969.552 -0.761553 -4.09275 0
M  V30 9647 H 970.085 -2.25261 -3.27875 0
M  V30 9648 H 966.824 -5.14679 -4.05939 0
M  V30 9649 H 966.344 -3.60105 -4.79671 0
M  V30 9650 H 968.023 -4.17783 -4.94031 0
M  V30 9651 N 968.156 1.1691 -1.05688 0
M  V30 9652 C 969.433 1.83266 -0.683601 0
M  V30 9653 C 969.813 1.93858 0.835602 0
M  V30 9654 O 969.161 1.47696 1.7435 0
M  V30 9655 C 969.371 3.20625 -1.37842 0
M  V30 9656 C 970.719 3.96473 -1.51967 0
M  V30 9657 O 971.743 3.30122 -1.33783 0
M  V30 9658 O 970.602 5.15393 -1.81749 0
M  V30 9659 H 967.696 0.791028 -0.241254 0
M  V30 9660 H 970.242 1.24165 -1.15677 0
M  V30 9661 H 969.014 3.07914 -2.41463 0
M  V30 9662 H 968.637 3.87398 -0.894921 0
M  V30 9663 N 969.634 0.838594 1.33437 0
M  V30 9664 C 970.881 0.434169 1.97791 0
M  V30 9665 C 971.209 -1.00652 1.66431 0
M  V30 9666 O 970.464 -1.71848 0.936309 0
M  V30 9667 C 970.763 0.601425 3.52303 0
M  V30 9668 C 970.429 2.01017 4.03612 0
M  V30 9669 C 969.091 2.39551 4.17336 0
M  V30 9670 C 971.443 2.93035 4.31022 0
M  V30 9671 C 968.771 3.69406 4.55802 0
M  V30 9672 C 971.123 4.22372 4.7094 0
M  V30 9673 C 969.787 4.60862 4.82869 0
M  V30 9674 H 969.057 0.158874 0.723768 0
M  V30 9675 H 971.704 1.06556 1.59116 0
M  V30 9676 H 970.009 -0.113284 3.91636 0
M  V30 9677 H 971.706 0.268798 4.00098 0
M  V30 9678 H 968.296 1.7009 3.93405 0
M  V30 9679 H 972.48 2.64503 4.19943 0
M  V30 9680 H 967.736 3.99033 4.63231 0
M  V30 9681 H 971.91 4.93749 4.91106 0
M  V30 9682 H 969.537 5.6153 5.12433 0
M  V30 9683 N 971.112 -1.45937 0.595003 0
M  V30 9684 C 972.36 -2.01921 0.0851368 0
M  V30 9685 C 972.681 -1.46748 -1.28413 0
M  V30 9686 O 971.951 -0.656873 -1.84559 0
M  V30 9687 H 970.531 -0.746457 0.0284826 0
M  V30 9688 H 973.193 -1.78891 0.773561 0
M  V30 9689 H 972.289 -3.1209 0.0254002 0
M  V30 9690 N 972.59 -0.333456 -1.54032 0
M  V30 9691 C 973.52 0.52051 -2.27625 0
M  V30 9692 C 974.501 1.1111 -1.28797 0
M  V30 9693 O 975.686 1.13438 -1.57625 0
M  V30 9694 C 972.816 1.67663 -3.04149 0
M  V30 9695 C 971.77 1.21487 -4.10396 0
M  V30 9696 C 971.096 2.45872 -4.74817 0
M  V30 9697 C 972.396 0.322603 -5.21303 0
M  V30 9698 H 974.09 -0.0933823 -2.99254 0
M  V30 9699 H 971.636 -0.0463526 -1.43925 0
M  V30 9700 H 973.589 2.28041 -3.54366 0
M  V30 9701 H 972.313 2.31727 -2.30153 0
M  V30 9702 H 970.972 0.633966 -3.61077 0
M  V30 9703 H 970.62 3.0832 -3.97426 0
M  V30 9704 H 970.32 2.15662 -5.46593 0
M  V30 9705 H 971.844 3.06994 -5.27814 0
M  V30 9706 H 973.258 0.832942 -5.67217 0
M  V30 9707 H 971.655 0.112843 -5.99994 0
M  V30 9708 H 972.725 -0.643954 -4.80605 0
M  V30 9709 N 974.068 1.57479 -0.061844 0
M  V30 9710 C 975.031 2.1104 0.894127 0
M  V30 9711 C 976.031 1.03227 1.23292 0
M  V30 9712 O 977.221 1.29256 1.16784 0
M  V30 9713 C 974.353 2.6035 2.20069 0
M  V30 9714 H 975.546 2.96807 0.429619 0
M  V30 9715 H 973.099 1.55181 0.18672 0
M  V30 9716 H 973.834 1.78008 2.71079 0
M  V30 9717 H 973.619 3.39146 1.9678 0
M  V30 9718 H 975.109 3.019 2.88525 0
M  V30 9719 N 975.546 -0.211634 1.56173 0
M  V30 9720 C 976.962 -0.56177 1.49386 0
M  V30 9721 C 977.162 -1.86666 0.758813 0
M  V30 9722 O 976.218 -2.50681 0.302534 0
M  V30 9723 C 977.531 -0.631815 2.93987 0
M  V30 9724 C 979.079 -0.721773 3.04564 0
M  V30 9725 C 979.554 -0.823075 4.50544 0
M  V30 9726 N 981.045 -0.887038 4.54627 0
M  V30 9727 C 981.78 -0.985304 5.64871 0
M  V30 9728 N 981.276 -1.0469 6.84844 0
M  V30 9729 N 983.069 -1.02121 5.52746 0
M  V30 9730 H 975.22 0.64452 2.02385 0
M  V30 9731 H 977.483 0.227466 0.920306 0
M  V30 9732 H 977.189 0.257592 3.50755 0
M  V30 9733 H 977.063 -1.4921 3.46433 0
M  V30 9734 H 979.45 -1.60162 2.47855 0
M  V30 9735 H 979.531 0.164385 2.55271 0
M  V30 9736 H 979.175 0.0523511 5.07873 0
M  V30 9737 H 979.105 -1.72479 4.97552 0
M  V30 9738 H 981.596 -0.849352 3.68231 0
M  V30 9739 H 981.909 -1.12193 7.64613 0
M  V30 9740 H 980.254 -1.01586 6.87536 0
M  V30 9741 H 983.445 -0.969814 4.57943 0
M  V30 9742 H 983.618 -1.09434 6.38693 0
M  V30 9743 N 977.024 -1.50153 -0.478725 0
M  V30 9744 C 978.44 -1.3741 -0.811833 0
M  V30 9745 C 978.64 -0.424303 -1.96982 0
M  V30 9746 O 977.696 0.13588 -2.52134 0
M  V30 9747 C 979.009 -2.78616 -1.13108 0
M  V30 9748 C 980.557 -2.87477 -1.23798 0
M  V30 9749 C 981.032 -4.295 -1.5904 0
M  V30 9750 N 982.523 -4.32415 -1.66047 0
M  V30 9751 C 983.258 -5.39295 -1.94805 0
M  V30 9752 N 982.754 -6.56392 -2.21635 0
M  V30 9753 N 984.547 -5.26731 -1.96243 0
M  V30 9754 H 976.698 -2.10486 0.284531 0
M  V30 9755 H 978.961 -0.945786 0.0647585 0
M  V30 9756 H 978.667 -3.49921 -0.35334 0
M  V30 9757 H 978.541 -3.15382 -2.06915 0
M  V30 9758 H 980.928 -2.16396 -2.00641 0
M  V30 9759 H 981.009 -2.54264 -0.279888 0
M  V30 9760 H 980.653 -5.01115 -0.827404 0
M  V30 9761 H 980.583 -4.60194 -2.55987 0
M  V30 9762 H 983.074 -3.47975 -1.47383 0
M  V30 9763 H 983.387 -7.33658 -2.4283 0
M  V30 9764 H 981.732 -6.59579 -2.19043 0
M  V30 9765 H 984.923 -4.34249 -1.74773 0
M  V30 9766 H 985.096 -6.10115 -2.1832 0
M  V30 9767 N 978.502 0.731368 -1.39602 0
M  V30 9768 C 979.732 1.51839 -1.40102 0
M  V30 9769 C 980.14 1.89199 0.00526634 0
M  V30 9770 O 979.483 1.54877 0.987874 0
M  V30 9771 C 979.545 2.83292 -2.21328 0
M  V30 9772 C 979.209 2.68345 -3.69919 0
M  V30 9773 C 980.206 2.36651 -4.62917 0
M  V30 9774 C 977.891 2.85102 -4.13548 0
M  V30 9775 C 979.885 2.21901 -5.97527 0
M  V30 9776 C 977.572 2.69971 -5.48233 0
M  V30 9777 C 978.57 2.38416 -6.40037 0
M  V30 9778 O 978.258 2.23383 -7.72241 0
M  V30 9779 H 977.99 0.475695 -0.480302 0
M  V30 9780 H 980.544 0.911096 -1.84087 0
M  V30 9781 H 978.774 3.46294 -1.72096 0
M  V30 9782 H 980.463 3.44928 -2.13961 0
M  V30 9783 H 981.229 2.23352 -4.3051 0
M  V30 9784 H 977.108 3.08655 -3.42423 0
M  V30 9785 H 980.652 1.97193 -6.69149 0
M  V30 9786 H 976.549 2.82849 -5.8023 0
M  V30 9787 H 977.317 2.38425 -7.83004 0
M  V30 9788 N 979.98 1.24838 0.961938 0
M  V30 9789 C 980.927 1.04582 2.05745 0
M  V30 9790 C 981.897 -0.0427281 1.66045 0
M  V30 9791 O 983.082 0.113026 1.90465 0
M  V30 9792 C 980.222 0.66284 3.38675 0
M  V30 9793 C 979.335 1.82548 3.91536 0
M  V30 9794 C 978.47 1.38753 5.12758 0
M  V30 9795 C 977.509 2.51976 5.5783 0
M  V30 9796 N 976.646 2.09009 6.70268 0
M  V30 9797 H 981.486 1.98343 2.22405 0
M  V30 9798 H 979.023 0.987822 1.08998 0
M  V30 9799 H 980.981 0.421788 4.15062 0
M  V30 9800 H 979.611 -0.237776 3.21923 0
M  V30 9801 H 978.663 2.18004 3.11735 0
M  V30 9802 H 979.975 2.67601 4.20941 0
M  V30 9803 H 979.129 1.1057 5.96539 0
M  V30 9804 H 977.868 0.507618 4.85051 0
M  V30 9805 H 976.873 2.80912 4.72619 0
M  V30 9806 H 978.098 3.40534 5.87549 0
M  V30 9807 H 976.044 1.23423 6.44285 0
M  V30 9808 H 975.961 2.87613 6.99153 0
M  V30 9809 H 977.229 1.83981 7.57477 0
M  V30 9810 N 981.458 -1.16348 1.06306 0
M  V30 9811 C 982.869 -1.68491 0.80422 0
M  V30 9812 C 983.22 -1.84327 -0.672159 0
M  V30 9813 O 982.345 -1.53892 -1.52139 0
M  V30 9814 C 982.94 -3.06048 1.45328 0
M  V30 9815 C 981.499 -3.55311 1.24221 0
M  V30 9816 C 980.646 -2.31291 1.5297 0
M  V30 9817 H 983.597 -1.00708 1.22652 0
M  V30 9818 H 983.618 -3.70451 0.868674 0
M  V30 9819 H 983.13 -2.9449 2.52779 0
M  V30 9820 H 981.231 -3.72128 0.187447 0
M  V30 9821 H 981.344 -4.37397 1.95502 0
M  V30 9822 H 979.708 -2.3631 0.950241 0
M  V30 9823 H 980.491 -2.22331 2.6158 0
M  V30 9824 N 982.937 -0.845659 -1.3299 0
M  V30 9825 C 984.353 -0.53433 -1.5039 0
M  V30 9826 C 984.553 0.936939 -1.78392 0
M  V30 9827 O 983.609 1.72043 -1.84818 0
M  V30 9828 C 984.922 -1.41354 -2.65404 0
M  V30 9829 C 986.47 -1.41303 -2.79289 0
M  V30 9830 C 986.945 -2.27724 -3.97373 0
M  V30 9831 N 988.436 -2.25471 -4.0462 0
M  V30 9832 C 989.171 -2.89074 -4.95201 0
M  V30 9833 N 988.667 -3.61755 -5.90851 0
M  V30 9834 N 990.46 -2.78508 -4.88251 0
M  V30 9835 H 982.611 -1.79798 -1.13078 0
M  V30 9836 H 984.874 -0.767454 -0.556524 0
M  V30 9837 H 984.58 -2.45936 -2.51413 0
M  V30 9838 H 984.454 -1.09445 -3.60973 0
M  V30 9839 H 986.841 -0.374899 -2.92709 0
M  V30 9840 H 986.922 -1.77222 -1.84461 0
M  V30 9841 H 986.566 -3.316 -3.84713 0
M  V30 9842 H 986.496 -1.89142 -4.9146 0
M  V30 9843 H 988.987 -1.72622 -3.3617 0
M  V30 9844 H 989.3 -4.07475 -6.56646 0
M  V30 9845 H 987.645 -3.65863 -5.90906 0
M  V30 9846 H 990.836 -2.21285 -4.12493 0
M  V30 9847 H 991.009 -3.2836 -5.58645 0
M  V30 9848 N 984.415 1.45619 -0.602734 0
M  V30 9849 C 985.325 2.34288 0.120902 0
M  V30 9850 C 986.341 1.50952 0.865414 0
M  V30 9851 O 987.517 1.83768 0.824094 0
M  V30 9852 C 984.582 3.28489 1.10888 0
M  V30 9853 C 983.643 4.2773 0.366853 0
M  V30 9854 C 982.876 5.17429 1.30776 0
M  V30 9855 O 983.099 5.10459 2.54535 0
M  V30 9856 O 982.033 5.96459 0.807464 0
M  V30 9857 H 985.859 2.97559 -0.60765 0
M  V30 9858 H 983.444 1.44922 -0.363019 0
M  V30 9859 H 985.326 3.86549 1.67803 0
M  V30 9860 H 984.001 2.67789 1.81854 0
M  V30 9861 H 982.908 3.73299 -0.244643 0
M  V30 9862 H 984.241 4.91271 -0.302226 0
M  V30 9863 N 985.893 0.34162 1.53853 0
M  V30 9864 C 986.84 -0.516058 2.24957 0
M  V30 9865 C 987.81 -1.09711 1.2471 0
M  V30 9866 O 988.995 -1.13409 1.53438 0
M  V30 9867 C 986.135 -1.66207 3.02439 0
M  V30 9868 C 985.248 -1.10851 4.17536 0
M  V30 9869 C 984.383 -2.22167 4.82509 0
M  V30 9870 C 983.422 -1.64152 5.89678 0
M  V30 9871 N 982.559 -2.69203 6.4844 0
M  V30 9872 H 987.399 0.0968275 2.97843 0
M  V30 9873 H 984.936 0.0595565 1.46979 0
M  V30 9874 H 986.894 -2.33672 3.4562 0
M  V30 9875 H 985.524 -2.24597 2.31853 0
M  V30 9876 H 984.576 -0.324853 3.7901 0
M  V30 9877 H 985.888 -0.644151 4.94623 0
M  V30 9878 H 985.042 -2.97501 5.28751 0
M  V30 9879 H 983.781 -2.71946 4.04842 0
M  V30 9880 H 982.786 -0.873228 5.42821 0
M  V30 9881 H 984.011 -1.15228 6.69253 0
M  V30 9882 H 981.957 -3.1824 5.73637 0
M  V30 9883 H 981.874 -2.27383 7.20994 0
M  V30 9884 H 983.142 -3.44312 6.99335 0
M  V30 9885 N 987.371 -1.57444 0.0701946 0
M  V30 9886 C 988.301 -2.15659 -0.895176 0
M  V30 9887 C 989.282 -1.08321 -1.31151 0
M  V30 9888 O 990.467 -1.36349 -1.38284 0
M  V30 9889 C 987.597 -2.71693 -2.16334 0
M  V30 9890 C 986.551 -3.84183 -1.88645 0
M  V30 9891 C 985.877 -4.26814 -3.22078 0
M  V30 9892 C 987.177 -5.08493 -1.19299 0
M  V30 9893 H 988.871 -2.96576 -0.410217 0
M  V30 9894 H 986.417 -1.42662 -0.195872 0
M  V30 9895 H 988.37 -3.11064 -2.84284 0
M  V30 9896 H 987.094 -1.87994 -2.67069 0
M  V30 9897 H 985.753 -3.45314 -1.23101 0
M  V30 9898 H 985.401 -3.40039 -3.70651 0
M  V30 9899 H 985.101 -5.02642 -3.04344 0
M  V30 9900 H 986.625 -4.68799 -3.91228 0
M  V30 9901 H 988.039 -5.4519 -1.77316 0
M  V30 9902 H 986.436 -5.89588 -1.11828 0
M  V30 9903 H 987.506 -4.84595 -0.171839 0
M  V30 9904 N 988.849 0.203349 -1.56283 0
M  V30 9905 C 989.796 1.25205 -1.93888 0
M  V30 9906 C 990.766 1.45654 -0.798376 0
M  V30 9907 O 991.951 1.58924 -1.05583 0
M  V30 9908 C 989.091 2.59355 -2.27659 0
M  V30 9909 C 988.204 2.46553 -3.54733 0
M  V30 9910 C 987.339 3.73351 -3.77865 0
M  V30 9911 C 986.378 3.55347 -4.98392 0
M  V30 9912 N 985.515 4.74137 -5.17821 0
M  V30 9913 H 990.355 0.924356 -2.83301 0
M  V30 9914 H 987.892 0.445082 -1.40205 0
M  V30 9915 H 989.85 3.375 -2.45254 0
M  V30 9916 H 988.48 2.90184 -1.41396 0
M  V30 9917 H 987.532 1.59749 -3.45231 0
M  V30 9918 H 988.844 2.2918 -4.43033 0
M  V30 9919 H 987.998 4.59937 -3.95655 0
M  V30 9920 H 986.737 3.9367 -2.8788 0
M  V30 9921 H 985.742 2.67146 -4.80534 0
M  V30 9922 H 986.967 3.36482 -5.89879 0
M  V30 9923 H 984.913 4.94735 -4.30782 0
M  V30 9924 H 984.83 4.59558 -6.00285 0
M  V30 9925 H 986.098 5.62098 -5.40061 0
M  V30 9926 N 990.327 1.50405 0.470755 0
M  V30 9927 C 991.573 1.6165 1.22462 0
M  V30 9928 C 991.906 0.316034 1.91611 0
M  V30 9929 O 991.181 -0.682509 1.82132 0
M  V30 9930 C 991.464 2.79702 2.26801 0
M  V30 9931 C 991.317 4.19631 1.61955 0
M  V30 9932 C 992.636 2.93313 3.28109 0
M  V30 9933 H 989.755 0.588345 0.443868 0
M  V30 9934 H 992.397 1.82792 0.518376 0
M  V30 9935 H 990.547 2.61807 2.87036 0
M  V30 9936 H 992.219 4.49117 1.05316 0
M  V30 9937 H 990.462 4.23874 0.922674 0
M  V30 9938 H 991.133 4.98162 2.37779 0
M  V30 9939 H 993.609 3.09697 2.77897 0
M  V30 9940 H 992.485 3.77537 3.98443 0
M  V30 9941 H 992.746 2.03942 3.9225 0
M  V30 9942 N 991.805 -0.723954 1.39988 0
M  V30 9943 C 992.753 -1.85938 1.39749 0
M  V30 9944 C 993.747 -1.67085 0.279112 0
M  V30 9945 O 994.953 -1.74291 0.44972 0
M  V30 9946 H 991.328 -0.612246 0.436644 0
M  V30 9947 H 993.299 -1.83255 2.355 0
M  V30 9948 C 992.048 -3.23726 1.26874 0
M  V30 9949 H 991.371 -3.38835 2.12206 0
M  V30 9950 H 992.811 -4.03332 1.30765 0
M  V30 9951 C 991.27 -3.36893 -0.0218317 0
M  V30 9952 O 991.8 -3.89363 -0.987905 0
M  V30 9953 N 990.006 -2.90465 -0.0885618 0
M  V30 9954 H 989.553 -2.47954 0.698314 0
M  V30 9955 H 989.511 -2.99654 -0.951557 0
M  V30 9956 N 993.283 -1.25346 -0.955304 0
M  V30 9957 C 994.53 -1.10055 -1.69983 0
M  V30 9958 C 994.858 0.358586 -1.91166 0
M  V30 9959 O 994.113 1.28071 -1.47974 0
M  V30 9960 C 994.412 -1.7993 -3.08804 0
M  V30 9961 C 994.078 -3.29851 -3.07424 0
M  V30 9962 C 992.74 -3.7075 -3.06754 0
M  V30 9963 C 995.092 -4.25636 -3.00805 0
M  V30 9964 C 992.42 -5.05847 -2.97214 0
M  V30 9965 C 994.772 -5.60756 -2.92806 0
M  V30 9966 C 993.436 -6.00984 -2.90472 0
M  V30 9967 H 992.706 -0.402718 -0.622012 0
M  V30 9968 H 995.353 -1.5561 -1.11614 0
M  V30 9969 H 993.658 -1.26803 -3.70713 0
M  V30 9970 H 995.355 -1.65551 -3.65231 0
M  V30 9971 H 991.945 -2.97308 -3.08716 0
M  V30 9972 H 996.129 -3.9503 -3.00441 0
M  V30 9973 H 991.385 -5.36196 -2.93775 0
M  V30 9974 H 995.559 -6.34671 -2.86645 0
M  V30 9975 H 993.186 -7.05626 -2.82835 0
M  V30 9976 N 994.761 1.15782 -1.06922 0
M  V30 9977 C 996.009 1.86097 -0.788192 0
M  V30 9978 C 996.33 1.82475 0.687606 0
M  V30 9979 O 995.6 1.26266 1.49778 0
M  V30 9980 H 994.18 0.689008 -0.288577 0
M  V30 9981 H 996.842 1.40377 -1.35205 0
M  V30 9982 H 995.938 2.91358 -1.1188 0
M  V30 9983 N 996.239 0.8527 1.3254 0
M  V30 9984 C 997.467 0.469044 2.01513 0
M  V30 9985 C 997.882 -0.933701 1.64096 0
M  V30 9986 O 997.239 -1.60898 0.861283 0
M  V30 9987 C 997.29 0.596228 3.56549 0
M  V30 9988 O 997.011 1.94371 3.92621 0
M  V30 9989 C 998.512 0.211324 4.42796 0
M  V30 9990 H 995.732 0.184589 0.645111 0
M  V30 9991 H 998.276 1.1491 1.69163 0
M  V30 9992 H 996.431 -0.0360712 3.87383 0
M  V30 9993 H 996.845 1.93909 4.87339 0
M  V30 9994 H 998.319 0.351324 5.50881 0
M  V30 9995 H 998.796 -0.848055 4.30935 0
M  V30 9996 H 999.402 0.818617 4.17347 0
M  V30 9997 N 997.718 -1.45297 0.610449 0
M  V30 9998 C 999.129 -1.85715 0.191488 0
M  V30 9999 C 999.48 -1.51036 -1.25229 0
M  V30 10000 O 998.605 -0.938422 -1.94994 0
M  V30 10001 C 999.2 -3.37082 0.340747 0
M  V30 10002 C 997.759 -3.76393 -0.0235433 0
M  V30 10003 C 996.906 -2.69237 0.663849 0
M  V30 10004 H 999.857 -1.36058 0.816948 0
M  V30 10005 H 999.878 -3.78105 -0.426233 0
M  V30 10006 H 999.39 -3.62291 1.39164 0
M  V30 10007 H 997.491 -3.56801 -1.07351 0
M  V30 10008 H 997.604 -4.77653 0.372102 0
M  V30 10009 H 995.968 -2.54499 0.101204 0
M  V30 10010 H 996.751 -2.97281 1.71694 0
M  V30 10011 N 999.196 -0.349774 -1.5367 0
M  V30 10012 C 1000.11 0.512421 -2.28935 0
M  V30 10013 C 1001.12 1.1065 -1.34286 0
M  V30 10014 O 1002.3 1.12084 -1.67329 0
M  V30 10015 C 999.363 1.64449 -3.05217 0
M  V30 10016 C 998.424 1.07956 -4.15505 0
M  V30 10017 C 997.657 2.15768 -4.88139 0
M  V30 10018 O 997.88 3.366 -4.60496 0
M  V30 10019 O 996.814 1.79712 -5.74445 0
M  V30 10020 H 1000.64 -0.0996001 -3.03537 0
M  V30 10021 H 998.225 -0.114629 -1.4896 0
M  V30 10022 H 1000.11 2.30302 -3.52901 0
M  V30 10023 H 998.782 2.24221 -2.33467 0
M  V30 10024 H 997.689 0.385381 -3.7211 0
M  V30 10025 H 999.022 0.526621 -4.89375 0
M  V30 10026 N 1000.67 1.57404 -0.0785433 0
M  V30 10027 C 1001.92 1.93744 0.589024 0
M  V30 10028 C 1002.25 0.959087 1.69209 0
M  V30 10029 O 1001.5 -0.0241604 1.95685 0
M  V30 10030 C 1001.8 3.36684 1.1991 0
M  V30 10031 C 1001.47 4.50356 0.221493 0
M  V30 10032 C 1000.13 4.81177 -0.0474347 0
M  V30 10033 C 1002.48 5.1928 -0.446941 0
M  V30 10034 C 999.811 5.78257 -0.99177 0
M  V30 10035 C 1002.16 6.17372 -1.37964 0
M  V30 10036 C 1000.83 6.46607 -1.65697 0
M  V30 10037 H 1000.1 0.70896 0.215539 0
M  V30 10038 H 1002.74 1.90905 -0.150856 0
M  V30 10039 H 1001.05 3.36022 2.01486 0
M  V30 10040 H 1002.75 3.62095 1.72303 0
M  V30 10041 H 999.336 4.26322 0.441284 0
M  V30 10042 H 1003.52 4.95658 -0.252298 0
M  V30 10043 H 998.776 5.9923 -1.21381 0
M  V30 10044 H 1002.95 6.6988 -1.9035 0
M  V30 10045 H 1000.58 7.21643 -2.39031 0
M  V30 10046 N 1002.15 -0.195058 1.56388 0
M  V30 10047 C 1003.08 -1.24444 1.97575 0
M  V30 10048 C 1004.06 -1.47471 0.847717 0
M  V30 10049 O 1005.25 -1.59208 1.11205 0
M  V30 10050 C 1002.38 -2.58866 2.31529 0
M  V30 10051 C 1001.33 -2.50451 3.47071 0
M  V30 10052 C 1000.66 -3.89146 3.667 0
M  V30 10053 C 1001.96 -2.02953 4.81256 0
M  V30 10054 H 1003.65 -0.902178 2.85484 0
M  V30 10055 H 1001.2 -0.43254 1.3735 0
M  V30 10056 H 1003.15 -3.3246 2.58936 0
M  V30 10057 H 1001.87 -2.94833 1.40502 0
M  V30 10058 H 1000.53 -1.79313 3.19754 0
M  V30 10059 H 1000.18 -4.22466 2.73004 0
M  V30 10060 H 999.882 -3.84391 4.44429 0
M  V30 10061 H 1001.41 -4.64363 3.96484 0
M  V30 10062 H 1002.82 -2.66306 5.07695 0
M  V30 10063 H 1001.22 -2.092 5.62455 0
M  V30 10064 H 1002.29 -0.982757 4.74837 0
M  V30 10065 N 1003.63 -1.50653 -0.462772 0
M  V30 10066 C 1004.59 -1.69561 -1.54213 0
M  V30 10067 C 1005.59 -0.566106 -1.50505 0
M  V30 10068 O 1006.78 -0.833273 -1.52978 0
M  V30 10069 C 1003.91 -1.72856 -2.93826 0
M  V30 10070 H 1005.11 -2.65867 -1.38761 0
M  V30 10071 H 1002.66 -1.40259 -0.689728 0
M  V30 10072 H 1003.4 -0.78273 -3.14712 0
M  V30 10073 H 1003.18 -2.54919 -2.97924 0
M  V30 10074 H 1004.67 -1.89411 -3.72174 0
M  V30 10075 N 1005.11 0.71652 -1.4037 0
M  V30 10076 C 1006.52 1.29562 -1.34427 0
M  V30 10077 C 1006.87 1.96192 -0.0173106 0
M  V30 10078 O 1006 1.97488 0.884719 0
M  V30 10079 C 1006.59 2.35601 -2.4347 0
M  V30 10080 C 1005.15 2.89138 -2.4099 0
M  V30 10081 C 1004.3 1.62915 -2.24397 0
M  V30 10082 H 1007.25 0.512715 -1.5019 0
M  V30 10083 H 1007.27 3.16422 -2.11323 0
M  V30 10084 H 1006.78 1.87077 -3.40035 0
M  V30 10085 H 1004.88 3.41894 -1.4812 0
M  V30 10086 H 1004.99 3.40995 -3.3654 0
M  V30 10087 H 1003.36 1.87947 -1.71896 0
M  V30 10088 H 1004.14 1.16417 -3.22958 0
M  V30 10089 N 1006.59 1.25851 0.948643 0
M  V30 10090 C 1007.5 1.08516 2.07994 0
M  V30 10091 C 1008.51 0.0206696 1.73988 0
M  V30 10092 O 1009.69 0.222854 2.00163 0
M  V30 10093 C 1006.75 0.712145 3.39307 0
M  V30 10094 C 1005.81 1.85523 3.87143 0
M  V30 10095 C 1005.05 1.49992 5.1219 0
M  V30 10096 O 1005.27 0.398268 5.69008 0
M  V30 10097 O 1004.2 2.33215 5.54882 0
M  V30 10098 H 1008.03 2.03405 2.25522 0
M  V30 10099 H 1005.62 1.04844 1.06433 0
M  V30 10100 H 1007.5 0.516512 4.18223 0
M  V30 10101 H 1006.17 -0.207416 3.23035 0
M  V30 10102 H 1005.08 2.10578 3.09205 0
M  V30 10103 H 1006.41 2.75425 4.07924 0
M  V30 10104 N 1008.06 -1.15214 1.07534 0
M  V30 10105 C 1009.31 -1.86319 0.800814 0
M  V30 10106 C 1009.64 -1.82221 -0.671494 0
M  V30 10107 O 1008.92 -1.24664 -1.49295 0
M  V30 10108 C 1009.2 -3.35347 1.31203 0
M  V30 10109 C 1009.05 -3.48067 2.84902 0
M  V30 10110 C 1010.37 -4.3016 0.930064 0
M  V30 10111 H 1007.49 -0.676523 0.292379 0
M  V30 10112 H 1010.13 -1.35349 1.33344 0
M  V30 10113 H 1008.28 -3.78886 0.858949 0
M  V30 10114 H 1009.96 -3.13379 3.38514 0
M  V30 10115 H 1008.2 -2.89566 3.23008 0
M  V30 10116 H 1008.87 -4.52782 3.15741 0
M  V30 10117 H 1011.35 -3.94591 1.3205 0
M  V30 10118 H 1010.22 -5.32914 1.31507 0
M  V30 10119 H 1010.48 -4.41796 -0.163824 0
M  V30 10120 N 1009.54 -0.859717 -1.32086 0
M  V30 10121 C 1010.79 -0.466271 -1.97367 0
M  V30 10122 C 1011.12 0.976728 -1.6785 0
M  V30 10123 O 1010.4 1.68618 -0.969449 0
M  V30 10124 C 1010.68 -0.711851 -3.52994 0
M  V30 10125 C 1010.53 -2.20364 -3.92122 0
M  V30 10126 C 1011.85 -0.17156 -4.39765 0
M  V30 10127 H 1008.97 -0.170883 -0.716916 0
M  V30 10128 H 1011.61 -1.07907 -1.56384 0
M  V30 10129 H 1009.76 -0.190258 -3.88034 0
M  V30 10130 H 1011.43 -2.7917 -3.67236 0
M  V30 10131 H 1009.68 -2.68019 -3.41099 0
M  V30 10132 H 1010.35 -2.32615 -5.00594 0
M  V30 10133 H 1012.82 -0.617665 -4.1149 0
M  V30 10134 H 1011.7 -0.372921 -5.47632 0
M  V30 10135 H 1011.96 0.925959 -4.32294 0
M  V30 10136 N 1011.02 1.44971 -0.618145 0
M  V30 10137 C 1011.97 2.32354 0.106846 0
M  V30 10138 C 1012.96 1.4659 0.848984 0
M  V30 10139 O 1014.17 1.63012 0.763354 0
M  V30 10140 H 1010.54 0.750108 0.0533109 0
M  V30 10141 H 1012.51 2.9127 -0.648426 0
M  V30 10142 C 1011.26 3.30381 1.08368 0
M  V30 10143 H 1010.59 3.96377 0.52205 0
M  V30 10144 H 1012.03 3.94231 1.56069 0
M  V30 10145 C 1010.49 2.58336 2.1625 0
M  V30 10146 O 1011.02 2.37258 3.24148 0
M  V30 10147 N 1009.22 2.18292 1.91825 0
M  V30 10148 H 1008.77 2.35635 1.04086 0
M  V30 10149 H 1008.73 1.70413 2.6421 0
M  V30 10150 N 1012.5 0.357919 1.53482 0
M  V30 10151 C 1013.73 -0.234799 2.05261 0
M  V30 10152 C 1014.14 -1.43618 1.23169 0
M  V30 10153 O 1013.48 -1.81801 0.263435 0
M  V30 10154 C 1013.54 -0.699748 3.52624 0
M  V30 10155 C 1013.21 0.383905 4.55385 0
M  V30 10156 C 1014.2 1.23129 5.05109 0
M  V30 10157 C 1011.89 0.541953 4.99368 0
M  V30 10158 C 1013.88 2.22214 5.97411 0
M  V30 10159 C 1011.57 1.53618 5.91477 0
M  V30 10160 C 1012.57 2.37471 6.40388 0
M  V30 10161 O 1012.25 3.35199 7.30682 0
M  V30 10162 H 1011.99 -0.0465364 0.674396 0
M  V30 10163 H 1014.54 0.512355 1.98907 0
M  V30 10164 H 1012.77 -1.49838 3.5649 0
M  V30 10165 H 1014.46 -1.21461 3.87301 0
M  V30 10166 H 1015.23 1.12035 4.71883 0
M  V30 10167 H 1011.1 -0.100929 4.6089 0
M  V30 10168 H 1014.65 2.87702 6.35511 0
M  V30 10169 H 1010.55 1.64763 6.24118 0
M  V30 10170 H 1011.31 3.30838 7.48658 0
M  V30 10171 N 1013.98 -1.5736 0.0868897 0
M  V30 10172 C 1014.89 -2.17087 -0.889402 0
M  V30 10173 C 1015.9 -1.13809 -1.31619 0
M  V30 10174 O 1017.08 -1.46143 -1.38579 0
M  V30 10175 C 1014.14 -2.73286 -2.13344 0
M  V30 10176 C 1013.2 -3.91491 -1.76164 0
M  V30 10177 C 1012.44 -4.45 -2.94637 0
M  V30 10178 O 1012.66 -3.97467 -4.09116 0
M  V30 10179 O 1011.59 -5.36133 -2.73579 0
M  V30 10180 H 1015.42 -3.00902 -0.411275 0
M  V30 10181 H 1013.01 -1.4877 -0.137015 0
M  V30 10182 H 1014.89 -3.0924 -2.86266 0
M  V30 10183 H 1013.56 -1.92521 -2.60225 0
M  V30 10184 H 1012.47 -3.60363 -1.00447 0
M  V30 10185 H 1013.8 -4.73593 -1.34053 0
M  V30 10186 N 1015.45 0.186762 -1.56489 0
M  V30 10187 C 1016.7 0.905852 -1.81109 0
M  V30 10188 C 1017.03 1.82906 -0.661477 0
M  V30 10189 O 1016.28 1.92504 0.35226 0
M  V30 10190 C 1016.58 1.74719 -3.11782 0
M  V30 10191 C 1016.25 0.974238 -4.40249 0
M  V30 10192 C 1014.91 0.760856 -4.75147 0
M  V30 10193 C 1017.26 0.430971 -5.19415 0
M  V30 10194 C 1014.59 -0.00714216 -5.867 0
M  V30 10195 C 1016.94 -0.323859 -6.3177 0
M  V30 10196 C 1015.61 -0.548183 -6.65245 0
M  V30 10197 H 1014.88 0.331475 -0.662726 0
M  V30 10198 H 1017.52 0.171703 -1.90729 0
M  V30 10199 H 1015.83 2.55027 -2.97437 0
M  V30 10200 H 1017.53 2.30634 -3.28038 0
M  V30 10201 H 1014.12 1.15057 -4.12868 0
M  V30 10202 H 1018.3 0.583205 -4.92861 0
M  V30 10203 H 1013.56 -0.190832 -6.11102 0
M  V30 10204 H 1017.73 -0.752155 -6.92326 0
M  V30 10205 H 1015.36 -1.14518 -7.51525 0
M  V30 10206 N 1016.93 1.50896 0.454776 0
M  V30 10207 C 1018.18 1.6294 1.20741 0
M  V30 10208 C 1018.51 0.336339 1.91265 0
M  V30 10209 O 1017.79 -0.663153 1.82846 0
M  V30 10210 C 1018.07 2.82092 2.23822 0
M  V30 10211 C 1017.92 4.21326 1.57495 0
M  V30 10212 C 1019.24 2.96777 3.24979 0
M  V30 10213 H 1016.36 0.59302 0.437603 0
M  V30 10214 H 1019 1.83331 0.498959 0
M  V30 10215 H 1017.15 2.64837 2.84243 0
M  V30 10216 H 1018.82 4.50209 1.00546 0
M  V30 10217 H 1017.07 4.24829 0.877664 0
M  V30 10218 H 1017.74 5.00656 2.32482 0
M  V30 10219 H 1020.21 3.12627 2.74597 0
M  V30 10220 H 1019.09 3.81742 3.94416 0
M  V30 10221 H 1019.35 2.08091 3.90065 0
M  V30 10222 N 1018.41 -0.709066 1.40748 0
M  V30 10223 C 1019.64 -1.50313 1.42901 0
M  V30 10224 C 1020.06 -1.88072 0.032213 0
M  V30 10225 O 1019.42 -1.53716 -0.96131 0
M  V30 10226 C 1019.47 -2.75074 2.33166 0
M  V30 10227 O 1018.57 -3.72036 1.7794 0
M  V30 10228 H 1017.91 -0.452934 0.485538 0
M  V30 10229 H 1020.44 -0.872712 1.85054 0
M  V30 10230 H 1020.45 -3.23532 2.48578 0
M  V30 10231 H 1019.13 -2.46927 3.34664 0
M  V30 10232 H 1017.7 -3.30911 1.71908 0
M  V30 10233 N 1019.89 -1.26353 -0.941956 0
M  V30 10234 C 1021.14 -1.11851 -1.68806 0
M  V30 10235 C 1021.46 0.33829 -1.91535 0
M  V30 10236 O 1020.72 1.26495 -1.49324 0
M  V30 10237 C 1021.02 -1.83195 -3.06879 0
M  V30 10238 C 1020.68 -3.33093 -3.03908 0
M  V30 10239 C 1019.35 -3.73982 -3.02805 0
M  V30 10240 C 1021.7 -4.28803 -2.96273 0
M  V30 10241 C 1019.03 -5.08971 -2.91832 0
M  V30 10242 C 1021.38 -5.6383 -2.86842 0
M  V30 10243 C 1020.04 -6.04032 -2.84081 0
M  V30 10244 H 1019.31 -0.409293 -0.617706 0
M  V30 10245 H 1021.96 -1.56785 -1.09957 0
M  V30 10246 H 1020.26 -1.30728 -3.69347 0
M  V30 10247 H 1021.96 -1.69416 -3.63455 0
M  V30 10248 H 1018.55 -3.00566 -3.05546 0
M  V30 10249 H 1022.74 -3.98195 -2.96234 0
M  V30 10250 H 1017.99 -5.39282 -2.88072 0
M  V30 10251 H 1022.17 -6.37676 -2.79898 0
M  V30 10252 H 1019.79 -7.08586 -2.75335 0
M  V30 10253 N 1021.37 1.14642 -1.08144 0
M  V30 10254 C 1022.78 1.6719 -0.830923 0
M  V30 10255 C 1023.13 1.85373 0.642749 0
M  V30 10256 O 1022.25 1.56293 1.49671 0
M  V30 10257 C 1022.85 3.03697 -1.50179 0
M  V30 10258 C 1021.41 3.5329 -1.29858 0
M  V30 10259 C 1020.56 2.28828 -1.5663 0
M  V30 10260 H 1023.51 0.987441 -1.24239 0
M  V30 10261 H 1023.53 3.69023 -0.9275 0
M  V30 10262 H 1023.04 2.90431 -2.57432 0
M  V30 10263 H 1021.14 3.71783 -0.246626 0
M  V30 10264 H 1021.25 4.34231 -2.02436 0
M  V30 10265 H 1019.62 2.34769 -0.987716 0
M  V30 10266 H 1020.4 2.18141 -2.65084 0
M  V30 10267 N 1022.85 0.866709 1.31628 0
M  V30 10268 C 1024.07 0.49039 2.01004 0
M  V30 10269 C 1024.49 -0.916244 1.65077 0
M  V30 10270 O 1023.85 -1.59975 0.8783 0
M  V30 10271 C 1023.9 0.634011 3.55897 0
M  V30 10272 O 1023.62 1.98525 3.90537 0
M  V30 10273 C 1025.12 0.258277 4.42547 0
M  V30 10274 H 1022.34 0.191421 0.643117 0
M  V30 10275 H 1024.88 1.16698 1.67934 0
M  V30 10276 H 1023.04 0.00501801 3.874 0
M  V30 10277 H 1023.45 1.99067 4.85255 0
M  V30 10278 H 1024.93 0.409733 5.50477 0
M  V30 10279 H 1025.4 -0.802301 4.3181 0
M  V30 10280 H 1026.01 0.862837 4.16456 0
M  V30 10281 N 1024.32 -1.44642 0.625825 0
M  V30 10282 C 1025.6 -1.9551 0.0593587 0
M  V30 10283 C 1025.98 -1.56792 -1.41349 0
M  V30 10284 O 1025.33 -0.839373 -2.12525 0
M  V30 10285 C 1025.54 -3.47902 0.276647 0
M  V30 10286 C 1026.89 -4.24271 0.167044 0
M  V30 10287 O 1027.91 -3.55594 0.207731 0
M  V30 10288 O 1026.77 -5.46458 0.0675 0
M  V30 10289 H 1023.86 -0.826612 -0.0253422 0
M  V30 10290 H 1026.41 -1.54718 0.697159 0
M  V30 10291 H 1025.18 -3.69115 1.29885 0
M  V30 10292 H 1024.8 -3.95628 -0.395547 0
M  V30 10293 N 1025.8 -0.366053 -1.5329 0
M  V30 10294 C 1026.73 0.523781 -2.22108 0
M  V30 10295 C 1027.71 1.08262 -1.21318 0
M  V30 10296 O 1028.9 1.13866 -1.50222 0
M  V30 10297 C 1026.02 1.72273 -2.91616 0
M  V30 10298 C 1025.07 1.29129 -4.06482 0
M  V30 10299 S 1025.9 0.292195 -5.34702 0
M  V30 10300 C 1027.06 1.49746 -6.07723 0
M  V30 10301 H 1027.29 -0.0606687 -2.97238 0
M  V30 10302 H 1024.82 -0.15016 -1.53668 0
M  V30 10303 H 1026.78 2.41045 -3.32277 0
M  V30 10304 H 1025.44 2.27843 -2.16209 0
M  V30 10305 H 1024.64 2.18583 -4.54134 0
M  V30 10306 H 1024.24 0.682783 -3.67715 0
M  V30 10307 H 1026.53 2.4284 -6.32483 0
M  V30 10308 H 1027.47 1.06232 -7.00086 0
M  V30 10309 H 1027.88 1.70373 -5.38176 0
M  V30 10310 N 1027.28 1.57312 -0.0952337 0
M  V30 10311 C 1028.53 1.95449 0.563155 0
M  V30 10312 C 1028.88 0.976396 1.65784 0
M  V30 10313 O 1028.17 0.00241533 1.916 0
M  V30 10314 C 1028.37 3.37937 1.16332 0
M  V30 10315 C 1028.2 4.49517 0.128308 0
M  V30 10316 C 1026.97 5.04437 -0.295252 0
M  V30 10317 C 1029.16 5.10257 -0.643571 0
M  V30 10318 N 1027.15 5.99573 -1.31852 0
M  V30 10319 C 1028.52 6.01113 -1.51867 0
M  V30 10320 C 1030.57 4.92996 -0.697074 0
M  V30 10321 C 1029.28 6.76559 -2.44256 0
M  V30 10322 C 1031.3 5.69104 -1.60857 0
M  V30 10323 C 1030.66 6.59626 -2.47129 0
M  V30 10324 H 1026.76 0.761844 0.176402 0
M  V30 10325 H 1029.35 1.93886 -0.177833 0
M  V30 10326 H 1027.52 3.40193 1.87413 0
M  V30 10327 H 1029.25 3.63253 1.78408 0
M  V30 10328 H 1026 4.7351 0.0925153 0
M  V30 10329 H 1026.43 6.51843 -1.82836 0
M  V30 10330 H 1031.07 4.22777 -0.0442422 0
M  V30 10331 H 1028.79 7.4604 -3.10564 0
M  V30 10332 H 1032.37 5.57761 -1.65511 0
M  V30 10333 H 1031.25 7.17487 -3.16515 0
M  V30 10334 N 1028.76 -0.17846 1.56586 0
M  V30 10335 C 1029.98 -0.916061 1.86073 0
M  V30 10336 C 1030.41 -1.75349 0.680754 0
M  V30 10337 O 1029.77 -1.77479 -0.37028 0
M  V30 10338 C 1029.81 -1.77445 3.1392 0
M  V30 10339 O 1028.92 -2.87524 2.95641 0
M  V30 10340 H 1028.26 -0.257031 0.612234 0
M  V30 10341 H 1030.79 -0.178755 2.03818 0
M  V30 10342 H 1030.8 -2.1758 3.45142 0
M  V30 10343 H 1029.47 -1.15927 3.99417 0
M  V30 10344 H 1028.05 -2.51023 2.75757 0
M  V30 10345 N 1030.24 -1.51135 -0.446768 0
M  V30 10346 C 1031.48 -1.63578 -1.19875 0
M  V30 10347 C 1031.81 -0.346478 -1.91084 0
M  V30 10348 O 1031.09 0.653447 -1.83195 0
M  V30 10349 C 1031.37 -2.83275 -2.22323 0
M  V30 10350 C 1031.23 -4.22155 -1.55259 0
M  V30 10351 C 1032.54 -2.98496 -3.23401 0
M  V30 10352 H 1029.66 -0.595333 -0.434452 0
M  V30 10353 H 1032.31 -1.83593 -0.48923 0
M  V30 10354 H 1030.46 -2.6634 -2.82834 0
M  V30 10355 H 1032.13 -4.50736 -0.981571 0
M  V30 10356 H 1030.37 -4.25288 -0.855122 0
M  V30 10357 H 1031.04 -5.01882 -2.29823 0
M  V30 10358 H 1033.52 -3.14079 -2.72935 0
M  V30 10359 H 1032.39 -3.83828 -3.92386 0
M  V30 10360 H 1032.65 -2.10157 -3.88956 0
M  V30 10361 N 1031.71 0.701592 -1.41122 0
M  V30 10362 C 1032.96 1.45871 -1.39879 0
M  V30 10363 C 1033.28 1.94999 -0.00668769 0
M  V30 10364 O 1032.55 1.71298 0.95047 0
M  V30 10365 H 1031.13 0.541231 -0.514857 0
M  V30 10366 H 1033.79 0.830803 -1.76306 0
M  V30 10367 H 1032.89 2.32479 -2.0823 0
M  V30 10368 N 1033.19 1.2685 0.935242 0
M  V30 10369 C 1034.44 1.12912 1.6846 0
M  V30 10370 C 1034.77 -0.325708 1.91449 0
M  V30 10371 O 1034.05 -1.23884 1.49944 0
M  V30 10372 C 1034.33 1.90513 3.05576 0
M  V30 10373 C 1034.18 3.43936 2.89876 0
M  V30 10374 C 1035.5 1.70363 4.05789 0
M  V30 10375 H 1032.62 0.411559 0.611382 0
M  V30 10376 H 1035.26 1.55917 1.08582 0
M  V30 10377 H 1033.41 1.53963 3.5669 0
M  V30 10378 H 1035.08 3.90272 2.45939 0
M  V30 10379 H 1033.33 3.70659 2.25376 0
M  V30 10380 H 1034 3.93467 3.87153 0
M  V30 10381 H 1036.47 2.02217 3.63659 0
M  V30 10382 H 1035.35 2.27066 4.99732 0
M  V30 10383 H 1035.61 0.649674 4.373 0
M  V30 10384 N 1034.67 -1.14067 1.0875 0
M  V30 10385 C 1035.92 -1.84535 0.814235 0
M  V30 10386 C 1036.23 -1.84044 -0.662355 0
M  V30 10387 O 1037.44 -2.50336 -1.05091 0
M  V30 10388 C 1035.89 -3.31273 1.40663 0
M  V30 10389 C 1035.5 -3.40171 2.91526 0
M  V30 10390 C 1037.25 -4.0683 1.21201 0
M  V30 10391 C 1035.15 -4.81141 3.43885 0
M  V30 10392 H 1034.08 -0.691346 0.300926 0
M  V30 10393 H 1036.73 -1.28562 1.30935 0
M  V30 10394 H 1035.12 -3.87005 0.839215 0
M  V30 10395 H 1036.29 -2.94471 3.54434 0
M  V30 10396 H 1034.61 -2.78073 3.09942 0
M  V30 10397 H 1037.2 -5.10891 1.57781 0
M  V30 10398 H 1037.55 -4.16022 0.152092 0
M  V30 10399 H 1038.08 -3.57408 1.74655 0
M  V30 10400 H 1034.82 -4.77138 4.49466 0
M  V30 10401 H 1034.34 -5.27365 2.85738 0
M  V30 10402 H 1036.02 -5.50042 3.40681 0
M  V30 10403 N 1036.15 -0.873678 -1.31166 0
M  V30 10404 C 1037.38 -0.501043 -2.00742 0
M  V30 10405 C 1037.79 0.907477 -1.65561 0
M  V30 10406 O 1037.15 1.59507 -0.886771 0
M  V30 10407 C 1037.2 -0.652877 -3.55556 0
M  V30 10408 O 1036.92 -2.00593 -3.89479 0
M  V30 10409 C 1038.42 -0.281742 -4.42404 0
M  V30 10410 H 1035.64 -0.194829 -0.642092 0
M  V30 10411 H 1038.19 -1.17587 -1.67313 0
M  V30 10412 H 1036.34 -0.0255627 -3.87392 0
M  V30 10413 H 1036.75 -2.01638 -4.84193 0
M  V30 10414 H 1038.23 -0.43892 -5.50252 0
M  V30 10415 H 1038.71 0.779389 -4.32229 0
M  V30 10416 H 1039.31 -0.88491 -4.15992 0
M  V30 10417 N 1037.63 1.44308 -0.633487 0
M  V30 10418 C 1038.86 2.06085 -0.145852 0
M  V30 10419 C 1039.26 1.47432 1.18577 0
M  V30 10420 O 1038.61 0.592575 1.7388 0
M  V30 10421 C 1038.67 3.59477 0.0407848 0
M  V30 10422 C 1038.33 4.40607 -1.21304 0
M  V30 10423 C 1039.33 4.73937 -2.13728 0
M  V30 10424 C 1037.02 4.80943 -1.44911 0
M  V30 10425 C 1039.01 5.46489 -3.28068 0
M  V30 10426 C 1036.7 5.53243 -2.59548 0
M  V30 10427 C 1037.69 5.85936 -3.50953 0
M  V30 10428 O 1037.38 6.56764 -4.6359 0
M  V30 10429 H 1037.11 0.671484 -0.0780085 0
M  V30 10430 H 1039.67 1.86128 -0.868658 0
M  V30 10431 H 1037.9 3.77933 0.818761 0
M  V30 10432 H 1039.59 4.03013 0.483273 0
M  V30 10433 H 1040.35 4.43311 -1.96725 0
M  V30 10434 H 1036.23 4.54915 -0.746537 0
M  V30 10435 H 1039.78 5.71924 -3.99435 0
M  V30 10436 H 1035.67 5.83285 -2.76493 0
M  V30 10437 H 1036.44 6.75234 -4.62602 0
M  V30 10438 N 1039.1 0.374177 1.53094 0
M  V30 10439 C 1040.04 -0.511995 2.22382 0
M  V30 10440 C 1041.02 -1.07617 1.2189 0
M  V30 10441 O 1042.2 -1.13068 1.50824 0
M  V30 10442 C 1039.33 -1.70724 2.92525 0
M  V30 10443 C 1038.37 -1.26972 4.07161 0
M  V30 10444 S 1039.21 -0.263835 5.3485 0
M  V30 10445 C 1040.36 -1.46521 6.08508 0
M  V30 10446 H 1040.59 0.0764311 2.97202 0
M  V30 10447 H 1038.13 0.158307 1.53586 0
M  V30 10448 H 1040.09 -2.39279 3.3355 0
M  V30 10449 H 1038.75 -2.26693 2.17414 0
M  V30 10450 H 1037.94 -2.16172 4.55286 0
M  V30 10451 H 1037.54 -0.663273 3.68072 0
M  V30 10452 H 1039.83 -2.39483 6.33762 0
M  V30 10453 H 1040.78 -1.02517 7.0064 0
M  V30 10454 H 1041.18 -1.67516 5.39072 0
M  V30 10455 N 1040.58 -1.57259 0.103575 0
M  V30 10456 C 1041.51 -2.17509 -0.84923 0
M  V30 10457 C 1042.49 -1.11079 -1.28824 0
M  V30 10458 O 1043.68 -1.39252 -1.35361 0
M  V30 10459 C 1040.81 -2.76221 -2.10522 0
M  V30 10460 C 1039.76 -3.88098 -1.80454 0
M  V30 10461 C 1039.09 -4.33549 -3.12952 0
M  V30 10462 C 1040.39 -5.10909 -1.08486 0
M  V30 10463 H 1042.08 -2.9738 -0.347217 0
M  V30 10464 H 1039.63 -1.43045 -0.165568 0
M  V30 10465 H 1041.58 -3.17024 -2.77621 0
M  V30 10466 H 1040.31 -1.93617 -2.63021 0
M  V30 10467 H 1038.96 -3.47847 -1.15749 0
M  V30 10468 H 1038.61 -3.47825 -3.63355 0
M  V30 10469 H 1038.31 -5.08984 -2.93614 0
M  V30 10470 H 1039.84 -4.76992 -3.81196 0
M  V30 10471 H 1041.25 -5.48828 -1.65711 0
M  V30 10472 H 1039.65 -5.91828 -0.992973 0
M  V30 10473 H 1040.72 -4.84851 -0.0690108 0
M  V30 10474 N 1042.06 0.170153 -1.56679 0
M  V30 10475 C 1042.99 1.21285 -1.9953 0
M  V30 10476 C 1043.97 1.46104 -0.871071 0
M  V30 10477 O 1045.16 1.57419 -1.13724 0
M  V30 10478 C 1042.29 2.5515 -2.35618 0
M  V30 10479 C 1041.24 2.44898 -3.51011 0
M  V30 10480 C 1040.57 3.83263 -3.72845 0
M  V30 10481 C 1041.87 1.95271 -4.84424 0
M  V30 10482 H 1043.56 0.856646 -2.86883 0
M  V30 10483 H 1041.11 0.410634 -1.38021 0
M  V30 10484 H 1043.06 3.28299 -2.64193 0
M  V30 10485 H 1041.78 2.92561 -1.45175 0
M  V30 10486 H 1040.44 1.74203 -3.22566 0
M  V30 10487 H 1040.09 4.18069 -2.79691 0
M  V30 10488 H 1039.79 3.77272 -4.50488 0
M  V30 10489 H 1041.31 4.57996 -4.03822 0
M  V30 10490 H 1042.73 2.58195 -5.11867 0
M  V30 10491 H 1041.13 2.00225 -5.65712 0
M  V30 10492 H 1042.2 0.90709 -4.7634 0
M  V30 10493 N 1043.54 1.5137 0.438746 0
M  V30 10494 C 1044.76 1.68058 1.21537 0
M  V30 10495 C 1045.19 0.376787 1.84288 0
M  V30 10496 O 1044.55 -0.662911 1.68746 0
M  V30 10497 C 1044.59 2.79684 2.27616 0
M  V30 10498 O 1043.7 2.43189 3.33066 0
M  V30 10499 H 1043.04 0.560408 0.356144 0
M  V30 10500 H 1045.57 1.97926 0.518311 0
M  V30 10501 H 1045.58 3.03726 2.72423 0
M  V30 10502 H 1044.25 3.74293 1.81321 0
M  V30 10503 H 1042.83 2.29713 2.93746 0
M  V30 10504 N 1045.02 -0.694098 1.41492 0
M  V30 10505 C 1046.26 -1.45127 1.4065 0
M  V30 10506 C 1046.59 -1.94993 0.0170289 0
M  V30 10507 O 1045.86 -1.71799 -0.941372 0
M  V30 10508 H 1044.44 -0.538493 0.51772 0
M  V30 10509 H 1047.1 -0.821441 1.76744 0
M  V30 10510 H 1046.19 -2.31372 2.0946 0
M  V30 10511 N 1046.49 -1.27344 -0.928501 0
M  V30 10512 C 1047.42 -1.12517 -2.04602 0
M  V30 10513 C 1048.41 -0.0268563 -1.70079 0
M  V30 10514 O 1049.59 -0.201197 -1.93155 0
M  V30 10515 C 1046.72 -0.770749 -3.3864 0
M  V30 10516 C 1045.67 -1.8222 -3.87272 0
M  V30 10517 C 1045 -1.32178 -5.18105 0
M  V30 10518 C 1046.3 -3.22614 -4.10752 0
M  V30 10519 H 1047.99 -2.06 -2.17265 0
M  V30 10520 H 1045.54 -0.991827 -1.04397 0
M  V30 10521 H 1047.49 -0.653843 -4.16297 0
M  V30 10522 H 1046.22 0.19979 -3.25988 0
M  V30 10523 H 1044.88 -1.928 -3.11807 0
M  V30 10524 H 1044.52 -0.340719 -5.01845 0
M  V30 10525 H 1044.22 -2.02474 -5.51614 0
M  V30 10526 H 1045.75 -1.2178 -5.98333 0
M  V30 10527 H 1047.16 -3.1504 -4.78981 0
M  V30 10528 H 1045.56 -3.90614 -4.55566 0
M  V30 10529 H 1046.63 -3.67727 -3.16077 0
M  V30 10530 N 1047.97 1.13488 -1.09353 0
M  V30 10531 C 1049.2 1.89133 -0.85108 0
M  V30 10532 C 1049.62 1.78542 0.591976 0
M  V30 10533 O 1048.98 1.13243 1.41583 0
M  V30 10534 C 1049.03 3.36736 -1.29001 0
M  V30 10535 O 1048.13 4.09959 -0.447993 0
M  V30 10536 H 1047.47 0.58809 -0.308296 0
M  V30 10537 H 1050 1.43593 -1.45747 0
M  V30 10538 H 1050.01 3.87564 -1.27508 0
M  V30 10539 H 1048.69 3.43762 -2.34095 0
M  V30 10540 H 1047.27 3.69155 -0.52717 0
M  V30 10541 N 1049.45 0.880621 1.30701 0
M  V30 10542 C 1050.86 0.547993 1.78477 0
M  V30 10543 C 1051.21 -0.935633 1.72454 0
M  V30 10544 O 1050.34 -1.73094 1.29874 0
M  V30 10545 C 1050.93 0.98795 3.24076 0
M  V30 10546 C 1049.49 0.706805 3.69704 0
M  V30 10547 C 1048.64 1.17335 2.51252 0
M  V30 10548 H 1051.59 1.06528 1.17633 0
M  V30 10549 H 1051.61 0.31508 3.79193 0
M  V30 10550 H 1051.12 2.06778 3.28427 0
M  V30 10551 H 1049.22 -0.36122 3.70845 0
M  V30 10552 H 1049.34 1.2913 4.6137 0
M  V30 10553 H 1047.7 0.592808 2.47705 0
M  V30 10554 H 1048.48 2.26083 2.58343 0
M  V30 10555 N 1050.93 -1.4397 0.641131 0
M  V30 10556 C 1052.18 -2.01946 0.149629 0
M  V30 10557 C 1052.5 -1.50496 -1.23212 0
M  V30 10558 O 1051.76 -0.683453 -1.83378 0
M  V30 10559 C 1052.06 -3.5727 0.0963368 0
M  V30 10560 C 1051.72 -4.28016 1.4182 0
M  V30 10561 C 1050.39 -4.47059 1.78021 0
M  V30 10562 C 1052.74 -4.68183 2.29028 0
M  V30 10563 C 1050.07 -5.03532 3.01119 0
M  V30 10564 C 1052.42 -5.26019 3.51406 0
M  V30 10565 C 1051.08 -5.4328 3.87818 0
M  V30 10566 H 1050.35 -0.738974 0.0547531 0
M  V30 10567 H 1053 -1.72605 0.829436 0
M  V30 10568 H 1051.3 -3.86083 -0.666879 0
M  V30 10569 H 1053 -3.99871 -0.300635 0
M  V30 10570 H 1049.59 -4.13531 1.12651 0
M  V30 10571 H 1053.78 -4.53175 2.02353 0
M  V30 10572 H 1049.03 -5.15082 3.29395 0
M  V30 10573 H 1053.21 -5.56092 4.19208 0
M  V30 10574 H 1050.83 -5.86805 4.83284 0
M  V30 10575 N 1052.41 -0.382291 -1.52893 0
M  V30 10576 C 1053.34 0.447829 -2.29165 0
M  V30 10577 C 1054.32 1.06956 -1.32267 0
M  V30 10578 O 1055.5 1.08365 -1.61154 0
M  V30 10579 C 1052.63 1.57902 -3.09329 0
M  V30 10580 C 1051.59 1.08369 -4.14053 0
M  V30 10581 C 1050.91 2.30641 -4.82399 0
M  V30 10582 C 1052.21 0.156591 -5.22065 0
M  V30 10583 H 1053.91 -0.188541 -2.98806 0
M  V30 10584 H 1051.45 -0.0921179 -1.43705 0
M  V30 10585 H 1053.41 2.16652 -3.61442 0
M  V30 10586 H 1052.13 2.24287 -2.37409 0
M  V30 10587 H 1050.79 0.518772 -3.62911 0
M  V30 10588 H 1050.44 2.9552 -4.07034 0
M  V30 10589 H 1050.14 1.98163 -5.53177 0
M  V30 10590 H 1051.66 2.90047 -5.37313 0
M  V30 10591 H 1053.08 0.652065 -5.6958 0
M  V30 10592 H 1051.47 -0.0780978 -6.00049 0
M  V30 10593 H 1052.54 -0.796529 -4.78313 0
M  V30 10594 N 1053.89 1.57202 -0.111913 0
M  V30 10595 C 1055.13 1.94565 0.546713 0
M  V30 10596 C 1055.45 0.995644 1.67666 0
M  V30 10597 O 1054.72 0.0506681 1.95834 0
M  V30 10598 H 1053.3 0.718334 0.204951 0
M  V30 10599 H 1055.97 1.94074 -0.179193 0
M  V30 10600 H 1055.06 2.9742 0.945931 0
M  V30 10601 N 1055.36 -0.161842 1.56767 0
M  V30 10602 C 1056.27 -1.21996 2.00385 0
M  V30 10603 C 1057.29 -1.4789 0.916768 0
M  V30 10604 O 1058.47 -1.59852 1.22513 0
M  V30 10605 C 1055.53 -2.53695 2.36305 0
M  V30 10606 C 1054.59 -2.3558 3.58888 0
M  V30 10607 C 1053.82 -3.60998 3.93085 0
M  V30 10608 O 1054.05 -4.6657 3.28129 0
M  V30 10609 O 1052.98 -3.54544 4.86397 0
M  V30 10610 H 1056.81 -0.879701 2.9068 0
M  V30 10611 H 1054.39 -0.369437 1.4476 0
M  V30 10612 H 1056.27 -3.31366 2.60335 0
M  V30 10613 H 1054.95 -2.87281 1.49169 0
M  V30 10614 H 1053.86 -1.55908 3.40064 0
M  V30 10615 H 1055.19 -2.06915 4.46595 0
M  V30 10616 N 1056.84 -1.516 -0.430713 0
M  V30 10617 C 1058.07 -1.68414 -1.20185 0
M  V30 10618 C 1058.48 -0.384297 -1.84847 0
M  V30 10619 O 1057.84 0.637808 -1.70992 0
M  V30 10620 C 1057.89 -2.80451 -2.28099 0
M  V30 10621 O 1057.61 -4.05399 -1.66081 0
M  V30 10622 C 1059.11 -3.0859 -3.18256 0
M  V30 10623 H 1056.33 -0.564982 -0.361989 0
M  V30 10624 H 1058.88 -1.9805 -0.50954 0
M  V30 10625 H 1057.03 -2.53395 -2.93036 0
M  V30 10626 H 1057.45 -4.67671 -2.37453 0
M  V30 10627 H 1058.92 -3.9055 -3.90096 0
M  V30 10628 H 1059.4 -2.21264 -3.79393 0
M  V30 10629 H 1060 -3.37331 -2.59014 0
M  V30 10630 N 1058.32 0.686584 -1.41858 0
M  V30 10631 C 1059.6 1.44176 -1.32185 0
M  V30 10632 C 1059.98 2.11049 0.046362 0
M  V30 10633 O 1059.32 2.02365 1.06117 0
M  V30 10634 C 1059.53 2.45385 -2.48168 0
M  V30 10635 C 1060.88 3.10375 -2.89746 0
M  V30 10636 O 1061.91 2.55711 -2.47973 0
M  V30 10637 O 1060.77 4.09404 -3.62009 0
M  V30 10638 H 1057.86 0.642513 -0.520678 0
M  V30 10639 H 1060.41 0.716303 -1.53841 0
M  V30 10640 H 1059.18 1.94687 -3.3943 0
M  V30 10641 H 1058.8 3.25428 -2.28435 0
M  V30 10642 N 1059.8 1.27835 0.921735 0
M  V30 10643 C 1060.76 1.11108 2.00469 0
M  V30 10644 C 1061.76 0.053203 1.60712 0
M  V30 10645 O 1062.95 0.298308 1.71627 0
M  V30 10646 C 1060.08 0.694269 3.33755 0
M  V30 10647 H 1061.28 2.07279 2.16738 0
M  V30 10648 H 1058.83 1.10708 1.10333 0
M  V30 10649 H 1059.56 -0.268561 3.23186 0
M  V30 10650 H 1059.35 1.45836 3.6397 0
M  V30 10651 H 1060.84 0.59965 4.13272 0
M  V30 10652 N 1061.28 -1.12907 1.09954 0
M  V30 10653 C 1062.19 -2.22082 0.756095 0
M  V30 10654 C 1063.2 -1.72277 -0.244272 0
M  V30 10655 O 1064.38 -2.01224 -0.0842637 0
M  V30 10656 C 1061.44 -3.46192 0.187642 0
M  V30 10657 C 1060.5 -4.10861 1.24465 0
M  V30 10658 C 1059.74 -5.29047 0.703227 0
M  V30 10659 O 1059.96 -5.68443 -0.472043 0
M  V30 10660 O 1058.89 -5.83904 1.46082 0
M  V30 10661 H 1062.72 -2.53842 1.66727 0
M  V30 10662 H 1060.3 -1.21145 0.874316 0
M  V30 10663 H 1062.19 -4.21212 -0.125774 0
M  V30 10664 H 1060.86 -3.16119 -0.696459 0
M  V30 10665 H 1059.77 -3.37643 1.61085 0
M  V30 10666 H 1061.1 -4.45078 2.10159 0
M  V30 10667 N 1062.75 -0.88754 -1.30232 0
M  V30 10668 C 1063.98 -0.522306 -2.00199 0
M  V30 10669 C 1064.4 0.889866 -1.66514 0
M  V30 10670 O 1063.75 1.58558 -0.903639 0
M  V30 10671 C 1063.8 -0.690551 -3.54843 0
M  V30 10672 O 1063.53 -2.04713 -3.8733 0
M  V30 10673 C 1065.03 -0.328649 -4.4208 0
M  V30 10674 H 1062.25 -0.201628 -0.63999 0
M  V30 10675 H 1064.79 -1.19355 -1.66056 0
M  V30 10676 H 1062.95 -0.0666493 -3.87343 0
M  V30 10677 H 1063.36 -2.06762 -4.82027 0
M  V30 10678 H 1064.83 -0.497257 -5.49756 0
M  V30 10679 H 1065.31 0.733502 -4.33032 0
M  V30 10680 H 1065.92 -0.928982 -4.1503 0
M  V30 10681 N 1064.23 1.43628 -0.648757 0
M  V30 10682 C 1065.17 2.28001 0.0952198 0
M  V30 10683 C 1066.14 1.39569 0.834225 0
M  V30 10684 O 1067.33 1.69011 0.834711 0
M  V30 10685 C 1064.45 3.18886 1.14145 0
M  V30 10686 C 1063.5 4.23547 0.500996 0
M  V30 10687 S 1064.33 5.30609 -0.722118 0
M  V30 10688 C 1065.49 6.25062 0.323687 0
M  V30 10689 H 1065.72 2.90752 -0.620511 0
M  V30 10690 H 1063.26 1.48073 -0.437457 0
M  V30 10691 H 1065.21 3.71795 1.74008 0
M  V30 10692 H 1063.87 2.55322 1.82947 0
M  V30 10693 H 1063.07 4.87224 1.28954 0
M  V30 10694 H 1062.67 3.73993 -0.0234176 0
M  V30 10695 H 1064.96 6.66946 1.19118 0
M  V30 10696 H 1065.9 7.07554 -0.277939 0
M  V30 10697 H 1066.31 5.60658 0.657493 0
M  V30 10698 N 1065.71 0.390394 1.52688 0
M  V30 10699 C 1066.66 -0.4591 2.28024 0
M  V30 10700 C 1067.65 -1.06212 1.31967 0
M  V30 10701 O 1068.86 -1.00247 1.49501 0
M  V30 10702 H 1065.23 -0.16681 0.733266 0
M  V30 10703 H 1067.2 0.197747 2.97744 0
M  V30 10704 C 1065.95 -1.5737 3.10048 0
M  V30 10705 H 1065.28 -1.11901 3.83821 0
M  V30 10706 H 1066.72 -2.1423 3.65898 0
M  V30 10707 C 1065.18 -2.53036 2.22429 0
M  V30 10708 O 1065.71 -3.5647 1.85181 0
M  V30 10709 N 1063.91 -2.22802 1.86567 0
M  V30 10710 H 1063.46 -1.38723 2.17057 0
M  V30 10711 H 1063.42 -2.87061 1.28233 0
M  V30 10712 N 1067.19 -1.57141 0.120249 0
M  V30 10713 C 1068.44 -1.95238 -0.537449 0
M  V30 10714 C 1068.76 -1.00361 -1.66607 0
M  V30 10715 O 1068.02 -0.0277306 -1.9568 0
M  V30 10716 C 1068.32 -3.39745 -1.10941 0
M  V30 10717 C 1067.98 -4.50785 -0.102012 0
M  V30 10718 C 1066.65 -4.80882 0.174994 0
M  V30 10719 C 1069 -5.17913 0.584462 0
M  V30 10720 C 1066.33 -5.75424 1.14474 0
M  V30 10721 C 1068.68 -6.13497 1.54284 0
M  V30 10722 C 1067.34 -6.41987 1.82782 0
M  V30 10723 H 1066.61 -0.714425 -0.196666 0
M  V30 10724 H 1069.26 -1.90438 0.201418 0
M  V30 10725 H 1067.56 -3.41246 -1.92506 0
M  V30 10726 H 1069.26 -3.66536 -1.62642 0
M  V30 10727 H 1065.85 -4.27342 -0.328097 0
M  V30 10728 H 1070.03 -4.94815 0.383625 0
M  V30 10729 H 1065.29 -5.95801 1.37226 0
M  V30 10730 H 1069.46 -6.64598 2.08044 0
M  V30 10731 H 1067.09 -7.15052 2.5808 0
M  V30 10732 N 1068.67 0.153526 -1.5685 0
M  V30 10733 C 1069.92 0.865628 -1.82181 0
M  V30 10734 C 1070.23 1.82629 -0.700434 0
M  V30 10735 O 1071.43 2.58206 -0.839155 0
M  V30 10736 C 1069.89 1.58993 -3.22877 0
M  V30 10737 C 1069.5 0.672006 -4.42931 0
M  V30 10738 C 1071.24 2.2892 -3.57486 0
M  V30 10739 C 1069.15 1.39755 -5.7465 0
M  V30 10740 H 1068.08 0.326993 -0.679406 0
M  V30 10741 H 1070.73 0.118403 -1.83118 0
M  V30 10742 H 1069.11 2.38255 -3.16308 0
M  V30 10743 H 1070.29 -0.0849226 -4.60722 0
M  V30 10744 H 1068.6 0.0814825 -4.1632 0
M  V30 10745 H 1071.2 2.8383 -4.5315 0
M  V30 10746 H 1071.54 3.05105 -2.83226 0
M  V30 10747 H 1072.07 1.56583 -3.65686 0
M  V30 10748 H 1068.81 0.677686 -6.51987 0
M  V30 10749 H 1068.33 2.12736 -5.60806 0
M  V30 10750 H 1070.01 1.94024 -6.17223 0
M  V30 10751 N 1070.14 1.51827 0.422667 0
M  V30 10752 C 1071.39 1.65464 1.17258 0
M  V30 10753 C 1071.72 0.376834 1.90509 0
M  V30 10754 O 1071 -0.624219 1.84211 0
M  V30 10755 C 1071.28 2.86776 2.17788 0
M  V30 10756 C 1071.13 4.24571 1.48523 0
M  V30 10757 C 1072.45 3.03603 3.18611 0
M  V30 10758 H 1069.57 0.602169 0.424925 0
M  V30 10759 H 1072.21 1.84349 0.45996 0
M  V30 10760 H 1070.36 2.70806 2.78561 0
M  V30 10761 H 1072.04 4.5224 0.909739 0
M  V30 10762 H 1070.28 4.26595 0.787354 0
M  V30 10763 H 1070.95 5.05475 2.2181 0
M  V30 10764 H 1073.43 3.18381 2.67904 0
M  V30 10765 H 1072.3 3.90022 3.8623 0
M  V30 10766 H 1072.56 2.16318 3.85563 0
M  V30 10767 N 1071.62 -0.679052 1.4222 0
M  V30 10768 C 1072.57 -1.81398 1.45594 0
M  V30 10769 C 1073.56 -1.66112 0.332127 0
M  V30 10770 O 1074.77 -1.72772 0.504942 0
M  V30 10771 H 1071.15 -0.598045 0.455902 0
M  V30 10772 H 1073.12 -1.7567 2.41211 0
M  V30 10773 C 1071.87 -3.19525 1.37109 0
M  V30 10774 H 1071.19 -3.31912 2.22878 0
M  V30 10775 H 1072.63 -3.98967 1.43531 0
M  V30 10776 C 1071.09 -3.36792 0.0853593 0
M  V30 10777 O 1071.62 -3.92309 -0.863532 0
M  V30 10778 N 1069.82 -2.906 0.00389229 0
M  V30 10779 H 1069.37 -2.45607 0.776846 0
M  V30 10780 H 1069.33 -3.0253 -0.855742 0
M  V30 10781 N 1073.1 -1.28322 -0.914942 0
M  V30 10782 C 1074.34 -1.16657 -1.6784 0
M  V30 10783 C 1074.7 0.280473 -1.8994 0
M  V30 10784 O 1075.91 0.519801 -2.63726 0
M  V30 10785 C 1074.18 -1.94185 -3.00045 0
M  V30 10786 S 1075.74 -1.98881 -3.91141 0
M  V30 10787 H 1072.55 -0.416232 -0.57643 0
M  V30 10788 H 1075.16 -1.62405 -1.08834 0
M  V30 10789 H 1073.86 -2.98488 -2.81661 0
M  V30 10790 H 1073.39 -1.48982 -3.64099 0
M  V30 10791 H 1075.41 -1.09445 -4.8398 0
M  V30 10792 N 1074.58 1.12322 -1.10551 0
M  V30 10793 C 1075.8 1.8822 -0.871093 0
M  V30 10794 C 1076.23 1.7916 0.573005 0
M  V30 10795 O 1075.59 1.14738 1.40374 0
M  V30 10796 C 1075.63 3.35349 -1.32565 0
M  V30 10797 O 1074.74 4.09461 -0.49145 0
M  V30 10798 H 1074.08 0.584787 -0.314516 0
M  V30 10799 H 1076.61 1.42039 -1.47262 0
M  V30 10800 H 1076.62 3.86189 -1.31612 0
M  V30 10801 H 1075.29 3.4126 -2.37728 0
M  V30 10802 H 1073.87 3.68575 -0.566294 0
M  V30 10803 N 1076.06 0.894434 1.2976 0
M  V30 10804 C 1077.3 0.527831 1.96432 0
M  V30 10805 C 1077.66 -0.914793 1.69261 0
M  V30 10806 O 1076.95 -1.63911 0.99215 0
M  V30 10807 C 1077.14 0.750307 3.49435 0
M  V30 10808 C 1076.97 2.213 3.91479 0
M  V30 10809 C 1075.74 2.85943 4.16611 0
M  V30 10810 C 1077.94 3.18771 4.03595 0
M  V30 10811 N 1075.92 4.2271 4.45185 0
M  V30 10812 C 1077.29 4.40641 4.3616 0
M  V30 10813 C 1079.35 3.14432 3.86053 0
M  V30 10814 C 1078.05 5.58725 4.53011 0
M  V30 10815 C 1080.08 4.31797 4.0411 0
M  V30 10816 C 1079.44 5.52435 4.37029 0
M  V30 10817 H 1075.54 0.242654 0.7434 0
M  V30 10818 H 1078.12 1.15415 1.56804 0
M  V30 10819 H 1076.29 0.153411 3.88097 0
M  V30 10820 H 1078.03 0.349663 4.03187 0
M  V30 10821 H 1074.78 2.36763 4.10171 0
M  V30 10822 H 1075.21 4.9337 4.63589 0
M  V30 10823 H 1079.85 2.22255 3.5967 0
M  V30 10824 H 1077.57 6.51398 4.78232 0
M  V30 10825 H 1081.15 4.2992 3.91995 0
M  V30 10826 H 1080.03 6.41738 4.50712 0
M  V30 10827 N 1077.53 -1.43282 0.656365 0
M  V30 10828 C 1078.81 -1.9534 0.100816 0
M  V30 10829 C 1079.19 -1.59755 -1.37992 0
M  V30 10830 O 1078.54 -0.884264 -2.10697 0
M  V30 10831 C 1078.75 -3.47237 0.35038 0
M  V30 10832 C 1080.1 -4.23822 0.257001 0
M  V30 10833 O 1081.12 -3.55073 0.283111 0
M  V30 10834 O 1079.98 -5.46192 0.183397 0
M  V30 10835 H 1077.07 -0.826963 -0.00780287 0
M  V30 10836 H 1079.62 -1.53205 0.72982 0
M  V30 10837 H 1078.39 -3.66276 1.37685 0
M  V30 10838 H 1078.02 -3.96378 -0.311539 0
M  V30 10839 N 1079.01 -0.398486 -1.52479 0
M  V30 10840 C 1080.26 0.180752 -2.01692 0
M  V30 10841 C 1080.59 1.46044 -1.28457 0
M  V30 10842 O 1079.84 1.92051 -0.376162 0
M  V30 10843 C 1080.14 0.485909 -3.54081 0
M  V30 10844 C 1079.81 -0.703321 -4.45381 0
M  V30 10845 C 1078.47 -1.02955 -4.70057 0
M  V30 10846 C 1080.82 -1.49848 -4.99194 0
M  V30 10847 C 1078.15 -2.15231 -5.45795 0
M  V30 10848 C 1080.5 -2.61192 -5.76161 0
M  V30 10849 C 1079.17 -2.94313 -5.99113 0
M  V30 10850 H 1078.44 0.0661417 -0.738042 0
M  V30 10851 H 1081.08 -0.53772 -1.83796 0
M  V30 10852 H 1079.39 1.28582 -3.701 0
M  V30 10853 H 1081.09 0.946872 -3.89661 0
M  V30 10854 H 1077.68 -0.439062 -4.26345 0
M  V30 10855 H 1081.86 -1.25968 -4.80048 0
M  V30 10856 H 1077.12 -2.41252 -5.61789 0
M  V30 10857 H 1081.29 -3.23201 -6.16858 0
M  V30 10858 H 1078.92 -3.81431 -6.57583 0
M  V30 10859 N 1080.49 1.57075 -0.12858 0
M  V30 10860 C 1081.77 1.87075 0.571162 0
M  V30 10861 C 1082.15 1.03141 1.84188 0
M  V30 10862 O 1081.5 0.113001 2.2822 0
M  V30 10863 C 1081.71 3.3838 0.854383 0
M  V30 10864 C 1083.05 4.07194 1.20326 0
M  V30 10865 O 1084.08 3.43454 0.944338 0
M  V30 10866 O 1082.94 5.19725 1.68963 0
M  V30 10867 H 1080.03 0.774764 0.289258 0
M  V30 10868 H 1082.58 1.68908 -0.163806 0
M  V30 10869 H 1081.35 3.91273 -0.0456925 0
M  V30 10870 H 1080.97 3.62012 1.64418 0
M  V30 10871 N 1081.97 -0.145205 1.5693 0
M  V30 10872 C 1082.93 -1.16316 1.97492 0
M  V30 10873 C 1083.93 -1.35764 0.861668 0
M  V30 10874 O 1085.12 -1.32726 1.12825 0
M  V30 10875 C 1082.25 -2.52311 2.29242 0
M  V30 10876 H 1083.45 -0.815138 2.8861 0
M  V30 10877 H 1081 -0.38861 1.51392 0
M  V30 10878 H 1081.74 -2.92081 1.40922 0
M  V30 10879 H 1081.52 -2.39555 3.10412 0
M  V30 10880 H 1083.01 -3.25624 2.61456 0
M  V30 10881 N 1083.45 -1.52049 -0.414609 0
M  V30 10882 C 1084.72 -1.56397 -1.17471 0
M  V30 10883 C 1085.1 -0.34171 -2.08316 0
M  V30 10884 O 1084.45 0.6718 -2.18401 0
M  V30 10885 C 1084.66 -2.88983 -1.95678 0
M  V30 10886 C 1086.01 -3.41781 -2.51935 0
M  V30 10887 O 1087.03 -2.90686 -2.05865 0
M  V30 10888 O 1085.89 -4.30989 -3.36022 0
M  V30 10889 H 1082.99 -0.62974 -0.536056 0
M  V30 10890 H 1085.53 -1.64374 -0.421834 0
M  V30 10891 H 1084.31 -3.69392 -1.29094 0
M  V30 10892 H 1083.93 -2.84274 -2.77983 0
M  V30 10893 N 1084.93 0.6715 -1.42579 0
M  V30 10894 C 1086.15 1.45972 -1.46628 0
M  V30 10895 C 1086.57 1.88636 -0.0785986 0
M  V30 10896 O 1085.93 1.58345 0.907372 0
M  V30 10897 C 1085.98 2.70668 -2.39627 0
M  V30 10898 O 1085.7 2.29793 -3.72997 0
M  V30 10899 C 1087.2 3.64201 -2.52731 0
M  V30 10900 H 1084.42 0.449044 -0.498598 0
M  V30 10901 H 1086.96 0.824811 -1.87129 0
M  V30 10902 H 1085.12 3.3034 -2.02371 0
M  V30 10903 H 1085.53 3.10341 -4.22834 0
M  V30 10904 H 1087.01 4.48412 -3.21918 0
M  V30 10905 H 1087.48 4.10323 -1.56626 0
M  V30 10906 H 1088.09 3.1042 -2.90722 0
M  V30 10907 N 1086.4 1.28806 0.908124 0
M  V30 10908 C 1087.65 1.16287 1.65781 0
M  V30 10909 C 1087.98 -0.287389 1.92365 0
M  V30 10910 O 1087.23 -1.22491 1.52625 0
M  V30 10911 C 1087.53 1.91267 3.01914 0
M  V30 10912 C 1087.2 3.41033 2.9497 0
M  V30 10913 C 1085.86 3.81879 2.92783 0
M  V30 10914 C 1088.21 4.36507 2.848 0
M  V30 10915 C 1085.54 5.16529 2.78235 0
M  V30 10916 C 1087.89 5.71237 2.71792 0
M  V30 10917 C 1086.56 6.11351 2.67967 0
M  V30 10918 H 1085.83 0.425526 0.606637 0
M  V30 10919 H 1088.47 1.59646 1.05762 0
M  V30 10920 H 1086.78 1.40474 3.65752 0
M  V30 10921 H 1088.48 1.78992 3.58835 0
M  V30 10922 H 1085.07 3.08561 2.97469 0
M  V30 10923 H 1089.25 4.05909 2.85573 0
M  V30 10924 H 1084.51 5.4673 2.73672 0
M  V30 10925 H 1088.68 6.44872 2.62892 0
M  V30 10926 H 1086.31 7.15637 2.56451 0
M  V30 10927 N 1087.88 -1.11734 1.11145 0
M  V30 10928 C 1088.79 -2.21267 0.779607 0
M  V30 10929 C 1089.81 -1.72526 -0.225986 0
M  V30 10930 O 1090.98 -2.01302 -0.0629166 0
M  V30 10931 C 1088.05 -3.45973 0.22435 0
M  V30 10932 C 1087.11 -4.09518 1.28816 0
M  V30 10933 C 1086.34 -5.28271 0.7593 0
M  V30 10934 O 1086.57 -5.68912 -0.411725 0
M  V30 10935 O 1085.5 -5.82322 1.52266 0
M  V30 10936 H 1089.33 -2.5206 1.6941 0
M  V30 10937 H 1086.91 -1.20211 0.887115 0
M  V30 10938 H 1088.79 -4.21322 -0.0810921 0
M  V30 10939 H 1087.47 -3.1684 -0.662891 0
M  V30 10940 H 1086.37 -3.35915 1.64657 0
M  V30 10941 H 1087.71 -4.42824 2.14868 0
M  V30 10942 N 1089.36 -0.901303 -1.29284 0
M  V30 10943 C 1090.61 -0.527 -1.95108 0
M  V30 10944 C 1090.93 0.930065 -1.71391 0
M  V30 10945 O 1090.2 1.65601 -1.04658 0
M  V30 10946 H 1088.78 -0.191903 -0.721929 0
M  V30 10947 H 1091.44 -1.14795 -1.57506 0
M  V30 10948 H 1090.54 -0.710945 -3.03895 0
M  V30 10949 N 1090.84 1.42931 -0.663954 0
M  V30 10950 C 1091.77 2.33499 0.00731327 0
M  V30 10951 C 1092.75 1.50074 0.800733 0
M  V30 10952 O 1093.93 1.78708 0.760062 0
M  V30 10953 C 1091.06 3.33569 0.966897 0
M  V30 10954 C 1090.02 4.27064 0.282839 0
M  V30 10955 C 1089.34 5.17257 1.35461 0
M  V30 10956 C 1090.64 5.1564 -0.831438 0
M  V30 10957 H 1092.34 2.89879 -0.749044 0
M  V30 10958 H 1089.88 1.39385 -0.361656 0
M  V30 10959 H 1091.84 3.95833 1.44549 0
M  V30 10960 H 1090.56 2.75469 1.75455 0
M  V30 10961 H 1089.22 3.6618 -0.175417 0
M  V30 10962 H 1088.87 4.5549 2.13397 0
M  V30 10963 H 1088.57 5.80634 0.902098 0
M  V30 10964 H 1090.09 5.82395 1.83436 0
M  V30 10965 H 1091.51 5.71651 -0.434534 0
M  V30 10966 H 1089.9 5.87794 -1.20908 0
M  V30 10967 H 1090.97 4.54687 -1.68487 0
M  V30 10968 N 1092.32 0.406567 1.52266 0
M  V30 10969 C 1093.54 -0.172101 2.06685 0
M  V30 10970 C 1093.97 -1.38306 1.27488 0
M  V30 10971 O 1093.32 -1.78726 0.304441 0
M  V30 10972 C 1093.37 -0.503463 3.57068 0
M  V30 10973 O 1092.48 -1.59485 3.80314 0
M  V30 10974 H 1091.82 -0.0153209 0.663823 0
M  V30 10975 H 1094.35 0.579025 1.96236 0
M  V30 10976 H 1094.36 -0.762833 4.00805 0
M  V30 10977 H 1093.03 0.381775 4.14144 0
M  V30 10978 H 1091.61 -1.32784 3.48458 0
M  V30 10979 N 1093.79 -1.57004 0.136909 0
M  V30 10980 C 1094.7 -2.19807 -0.819887 0
M  V30 10981 C 1095.72 -1.17939 -1.27932 0
M  V30 10982 O 1096.9 -1.50478 -1.3386 0
M  V30 10983 C 1093.96 -2.79935 -2.04542 0
M  V30 10984 C 1093.02 -3.96897 -1.6362 0
M  V30 10985 C 1092.26 -4.54148 -2.80331 0
M  V30 10986 O 1092.48 -4.10282 -3.96264 0
M  V30 10987 O 1091.41 -5.44565 -2.56384 0
M  V30 10988 H 1095.24 -3.02058 -0.315337 0
M  V30 10989 H 1092.82 -1.49131 -0.0896151 0
M  V30 10990 H 1094.71 -3.18191 -2.76283 0
M  V30 10991 H 1093.38 -2.00703 -2.53969 0
M  V30 10992 H 1092.29 -3.63376 -0.889316 0
M  V30 10993 H 1093.62 -4.77618 -1.18918 0
M  V30 10994 N 1095.27 0.136881 -1.57004 0
M  V30 10995 C 1096.18 1.18793 -2.023 0
M  V30 10996 C 1097.2 1.46412 -0.94018 0
M  V30 10997 O 1098.37 1.57883 -1.2504 0
M  V30 10998 C 1095.44 2.49903 -2.40311 0
M  V30 10999 C 1094.5 2.29841 -3.6259 0
M  V30 11000 C 1093.73 3.54699 -3.98779 0
M  V30 11001 O 1093.96 4.61291 -3.3551 0
M  V30 11002 O 1092.89 3.46761 -4.91976 0
M  V30 11003 H 1096.72 0.833345 -2.92043 0
M  V30 11004 H 1094.3 0.346361 -1.4533 0
M  V30 11005 H 1096.18 3.27183 -2.65574 0
M  V30 11006 H 1094.86 2.84872 -1.5372 0
M  V30 11007 H 1093.77 1.50478 -3.42501 0
M  V30 11008 H 1095.1 1.99784 -4.4983 0
M  V30 11009 N 1096.75 1.52266 0.40654 0
M  V30 11010 C 1097.71 1.75168 1.47814 0
M  V30 11011 C 1098.71 0.621575 1.48301 0
M  V30 11012 O 1099.9 0.889476 1.4978 0
M  V30 11013 C 1097.04 1.83642 2.87208 0
M  V30 11014 H 1098.23 2.70834 1.28798 0
M  V30 11015 H 1095.78 1.42722 0.637196 0
M  V30 11016 H 1096.52 0.898994 3.1159 0
M  V30 11017 H 1096.3 2.65801 2.88257 0
M  V30 11018 H 1097.79 2.03093 3.64888 0
M  V30 11019 N 1098.23 -0.663929 1.42933 0
M  V30 11020 C 1099.18 -1.77717 1.47259 0
M  V30 11021 C 1100.15 -1.62922 0.323387 0
M  V30 11022 O 1101.33 -1.83319 0.529021 0
M  V30 11023 C 1098.47 -3.15814 1.39124 0
M  V30 11024 C 1097.58 -3.4182 2.64165 0
M  V30 11025 C 1096.72 -4.69705 2.48094 0
M  V30 11026 C 1095.76 -4.88781 3.68456 0
M  V30 11027 N 1094.89 -6.07915 3.51261 0
M  V30 11028 H 1099.73 -1.73355 2.42388 0
M  V30 11029 H 1097.27 -0.846121 1.2033 0
M  V30 11030 H 1099.23 -3.95633 1.32403 0
M  V30 11031 H 1097.86 -3.19274 0.475829 0
M  V30 11032 H 1096.91 -2.56176 2.81208 0
M  V30 11033 H 1098.22 -3.51805 3.53602 0
M  V30 11034 H 1097.38 -5.57632 2.39021 0
M  V30 11035 H 1096.12 -4.62022 1.56164 0
M  V30 11036 H 1095.12 -3.99292 3.7795 0
M  V30 11037 H 1096.35 -4.98301 4.61381 0
M  V30 11038 H 1094.29 -6.01384 2.62057 0
M  V30 11039 H 1094.21 -6.1881 4.34293 0
M  V30 11040 H 1095.48 -6.98492 3.4602 0
M  V30 11041 N 1099.71 -1.29285 -0.901281 0
M  V30 11042 C 1100.98 -1.07847 -1.63182 0
M  V30 11043 C 1101.36 0.377927 -2.07689 0
M  V30 11044 O 1100.71 1.36642 -1.83143 0
M  V30 11045 C 1100.92 -2.06457 -2.81383 0
M  V30 11046 C 1102.27 -2.37289 -3.52107 0
M  V30 11047 O 1103.29 -2.0464 -2.91549 0
M  V30 11048 O 1102.15 -2.93067 -4.61274 0
M  V30 11049 H 1099.25 -0.413073 -0.71645 0
M  V30 11050 H 1101.79 -1.40651 -0.949488 0
M  V30 11051 H 1100.56 -3.04561 -2.4568 0
M  V30 11052 H 1100.19 -1.74374 -3.57323 0
M  V30 11053 N 1101.18 1.11143 -1.11736 0
M  V30 11054 C 1102.43 1.82948 -0.868127 0
M  V30 11055 C 1102.76 1.84813 0.606182 0
M  V30 11056 O 1102.01 1.29901 1.4637 0
M  V30 11057 C 1102.31 3.29733 -1.3788 0
M  V30 11058 C 1101.98 3.48025 -2.86687 0
M  V30 11059 C 1100.64 3.52725 -3.2732 0
M  V30 11060 C 1102.99 3.54024 -3.82513 0
M  V30 11061 C 1100.32 3.60983 -4.62502 0
M  V30 11062 C 1102.67 3.63814 -5.17515 0
M  V30 11063 C 1101.34 3.66776 -5.57702 0
M  V30 11064 H 1100.61 0.669452 -0.31767 0
M  V30 11065 H 1103.25 1.31057 -1.3963 0
M  V30 11066 H 1101.56 3.8414 -0.77093 0
M  V30 11067 H 1103.26 3.83787 -1.16225 0
M  V30 11068 H 1099.85 3.45039 -2.54256 0
M  V30 11069 H 1104.03 3.4965 -3.52219 0
M  V30 11070 H 1099.29 3.61554 -4.9304 0
M  V30 11071 H 1103.46 3.674 -5.916 0
M  V30 11072 H 1101.09 3.72927 -6.62442 0
M  V30 11073 N 1102.66 0.908147 1.28804 0
M  V30 11074 C 1103.91 0.539201 1.95501 0
M  V30 11075 C 1104.24 -0.913759 1.7136 0
M  V30 11076 O 1103.52 -1.64904 1.03136 0
M  V30 11077 C 1103.8 0.842372 3.50109 0
M  V30 11078 C 1103.65 2.34765 3.83673 0
M  V30 11079 C 1104.97 0.334658 4.38826 0
M  V30 11080 H 1102.09 0.197373 0.71008 0
M  V30 11081 H 1104.73 1.13637 1.52272 0
M  V30 11082 H 1102.88 0.334143 3.8706 0
M  V30 11083 H 1104.55 2.92607 3.56621 0
M  V30 11084 H 1102.8 2.80494 3.30916 0
M  V30 11085 H 1103.47 2.51034 4.91616 0
M  V30 11086 H 1105.94 0.769961 4.08914 0
M  V30 11087 H 1104.82 0.575914 5.4587 0
M  V30 11088 H 1105.08 -0.764878 4.35433 0
M  V30 11089 N 1104.14 -1.42577 0.671525 0
M  V30 11090 C 1105.37 -2.06442 0.199152 0
M  V30 11091 C 1105.79 -1.50104 -1.1336 0
M  V30 11092 O 1105.15 -0.618211 -1.70434 0
M  V30 11093 C 1105.2 -3.60323 0.141215 0
M  V30 11094 O 1104.3 -4.02655 -0.891238 0
M  V30 11095 H 1103.64 -0.655919 0.103277 0
M  V30 11096 H 1106.17 -1.82768 0.919614 0
M  V30 11097 H 1106.18 -4.07984 -0.0360209 0
M  V30 11098 H 1104.86 -4.00702 1.11403 0
M  V30 11099 H 1103.43 -3.66549 -0.685309 0
M  V30 11100 N 1105.62 -0.414636 -1.52048 0
M  V30 11101 C 1107.03 -0.0657806 -1.59464 0
M  V30 11102 C 1107.23 1.4225 -1.42713 0
M  V30 11103 O 1106.29 2.18996 -1.25687 0
M  V30 11104 C 1107.6 -0.565618 -2.95332 0
M  V30 11105 C 1109.15 -0.524072 -3.08581 0
M  V30 11106 C 1109.63 -1.00051 -4.46938 0
M  V30 11107 N 1111.12 -0.957555 -4.53194 0
M  V30 11108 C 1111.85 -1.29733 -5.58531 0
M  V30 11109 N 1111.35 -1.70883 -6.71395 0
M  V30 11110 N 1113.14 -1.21694 -5.48769 0
M  V30 11111 H 1105.29 -1.38325 -1.61183 0
M  V30 11112 H 1107.56 -0.568593 -0.758556 0
M  V30 11113 H 1107.26 -1.60604 -3.12888 0
M  V30 11114 H 1107.14 0.0217735 -3.77194 0
M  V30 11115 H 1109.52 0.507319 -2.90707 0
M  V30 11116 H 1109.6 -1.14759 -2.28613 0
M  V30 11117 H 1109.25 -2.03025 -4.65557 0
M  V30 11118 H 1109.18 -0.353754 -5.2541 0
M  V30 11119 H 1111.67 -0.65508 -3.72179 0
M  V30 11120 H 1111.98 -1.95105 -7.47766 0
M  V30 11121 H 1110.33 -1.74791 -6.72661 0
M  V30 11122 H 1113.52 -0.894286 -4.59478 0
M  V30 11123 H 1113.69 -1.48504 -6.30754 0
M  V30 11124 N 1107.1 1.56929 -0.145233 0
M  V30 11125 C 1108.03 2.19685 0.791263 0
M  V30 11126 C 1109.01 1.14455 1.25833 0
M  V30 11127 O 1110.19 1.42791 1.31622 0
M  V30 11128 C 1107.32 2.81705 2.03124 0
M  V30 11129 C 1106.28 3.92746 1.70101 0
M  V30 11130 C 1105.6 4.41694 3.01347 0
M  V30 11131 C 1106.9 5.13606 0.949025 0
M  V30 11132 H 1108.6 2.98196 0.26825 0
M  V30 11133 H 1106.14 1.43434 0.127584 0
M  V30 11134 H 1108.1 3.24273 2.69119 0
M  V30 11135 H 1106.82 2.00523 2.57795 0
M  V30 11136 H 1105.48 3.50794 1.06486 0
M  V30 11137 H 1105.13 3.57336 3.54006 0
M  V30 11138 H 1104.83 5.1659 2.80016 0
M  V30 11139 H 1106.35 4.86931 3.68416 0
M  V30 11140 H 1107.76 5.53029 1.51102 0
M  V30 11141 H 1106.16 5.94252 0.835711 0
M  V30 11142 H 1107.23 4.84863 -0.0595631 0
M  V30 11143 N 1108.58 -0.128553 1.57075 0
M  V30 11144 C 1109.51 -1.15953 2.02675 0
M  V30 11145 C 1110.49 -1.43743 0.909501 0
M  V30 11146 O 1111.67 -1.54348 1.17857 0
M  V30 11147 C 1108.8 -2.48813 2.423 0
M  V30 11148 C 1107.76 -2.35506 3.57381 0
M  V30 11149 C 1107.08 -3.73243 3.82875 0
M  V30 11150 C 1108.38 -1.82359 4.89431 0
M  V30 11151 H 1110.08 -0.780283 2.89054 0
M  V30 11152 H 1107.62 -0.373896 1.39061 0
M  V30 11153 H 1109.57 -3.21179 2.72804 0
M  V30 11154 H 1108.3 -2.88609 1.52881 0
M  V30 11155 H 1106.96 -1.6559 3.27071 0
M  V30 11156 H 1106.61 -4.10507 2.90677 0
M  V30 11157 H 1106.31 -3.65195 4.60333 0
M  V30 11158 H 1107.83 -4.47128 4.15823 0
M  V30 11159 H 1109.24 -2.44533 5.18533 0
M  V30 11160 H 1107.64 -1.85156 5.70822 0
M  V30 11161 H 1108.71 -0.780478 4.78578 0
M  V30 11162 N 1110.05 -1.5248 -0.398459 0
M  V30 11163 C 1111.3 -1.67309 -1.1461 0
M  V30 11164 C 1111.63 -0.407095 -1.89885 0
M  V30 11165 O 1110.91 0.594834 -1.85181 0
M  V30 11166 C 1111.19 -2.90204 -2.13198 0
M  V30 11167 C 1111.04 -4.26881 -1.4175 0
M  V30 11168 C 1112.36 -3.08634 -3.13741 0
M  V30 11169 H 1109.48 -0.608853 -0.415292 0
M  V30 11170 H 1112.12 -1.85057 -0.430573 0
M  V30 11171 H 1110.27 -2.75204 -2.74218 0
M  V30 11172 H 1111.95 -4.53631 -0.837676 0
M  V30 11173 H 1110.19 -4.27793 -0.719387 0
M  V30 11174 H 1110.86 -5.08939 -2.1374 0
M  V30 11175 H 1113.34 -3.22603 -2.62805 0
M  V30 11176 H 1112.21 -3.96117 -3.79977 0
M  V30 11177 H 1112.47 -2.22425 -3.82073 0
M  V30 11178 N 1111.53 0.65634 -1.43283 0
M  V30 11179 C 1112.48 1.76934 -1.48199 0
M  V30 11180 C 1113.45 1.62748 -0.332023 0
M  V30 11181 O 1114.63 1.83036 -0.538735 0
M  V30 11182 C 1111.77 3.15072 -1.40797 0
M  V30 11183 C 1110.89 3.40414 -2.65974 0
M  V30 11184 C 1110.02 4.68383 -2.50582 0
M  V30 11185 C 1109.06 4.8682 -3.71043 0
M  V30 11186 N 1108.2 6.06043 -3.5448 0
M  V30 11187 H 1113.04 1.72067 -2.43304 0
M  V30 11188 H 1110.57 0.839728 -1.20777 0
M  V30 11189 H 1112.53 3.94925 -1.345 0
M  V30 11190 H 1111.16 3.19017 -0.492754 0
M  V30 11191 H 1110.21 2.54681 -2.82563 0
M  V30 11192 H 1111.53 3.49925 -3.55463 0
M  V30 11193 H 1110.68 5.56357 -2.41975 0
M  V30 11194 H 1109.42 4.61187 -1.58612 0
M  V30 11195 H 1108.42 3.97282 -3.80062 0
M  V30 11196 H 1109.65 4.95847 -4.64017 0
M  V30 11197 H 1107.6 5.99985 -2.65242 0
M  V30 11198 H 1107.51 6.16498 -4.37568 0
M  V30 11199 H 1108.78 6.96647 -3.49719 0
M  V30 11200 N 1113.01 1.29761 0.894412 0
M  V30 11201 C 1113.92 1.1724 2.03204 0
M  V30 11202 C 1114.94 0.0944452 1.73743 0
M  V30 11203 O 1116.11 0.307549 1.99038 0
M  V30 11204 C 1113.18 0.855416 3.35981 0
M  V30 11205 C 1112.24 2.01777 3.78926 0
M  V30 11206 C 1111.47 1.71581 5.05367 0
M  V30 11207 O 1111.69 0.639245 5.66807 0
M  V30 11208 O 1110.63 2.56539 5.44492 0
M  V30 11209 H 1114.45 2.12787 2.16692 0
M  V30 11210 H 1112.04 1.09264 1.0189 0
M  V30 11211 H 1113.92 0.693429 4.15656 0
M  V30 11212 H 1112.6 -0.0702195 3.23624 0
M  V30 11213 H 1111.5 2.23502 2.99996 0
M  V30 11214 H 1112.84 2.92479 3.95875 0
M  V30 11215 N 1114.49 -1.10549 1.12324 0
M  V30 11216 C 1115.43 -2.16858 0.790024 0
M  V30 11217 C 1116.4 -1.64317 -0.242694 0
M  V30 11218 O 1117.59 -1.90438 -0.117531 0
M  V30 11219 C 1114.73 -3.44197 0.249503 0
M  V30 11220 C 1113.84 -4.10696 1.33989 0
M  V30 11221 C 1112.98 -5.25751 0.758932 0
M  V30 11222 C 1112.02 -5.8415 1.82853 0
M  V30 11223 N 1111.15 -6.90585 1.26637 0
M  V30 11224 H 1115.99 -2.44705 1.7007 0
M  V30 11225 H 1113.53 -1.20117 0.849141 0
M  V30 11226 H 1115.49 -4.1712 -0.0819251 0
M  V30 11227 H 1114.12 -3.16705 -0.624332 0
M  V30 11228 H 1113.17 -3.35754 1.78812 0
M  V30 11229 H 1114.48 -4.50144 2.14875 0
M  V30 11230 H 1113.64 -6.05521 0.378104 0
M  V30 11231 H 1112.38 -4.87632 -0.0811405 0
M  V30 11232 H 1111.38 -5.03051 2.21856 0
M  V30 11233 H 1112.61 -6.24333 2.6718 0
M  V30 11234 H 1110.55 -6.54468 0.448105 0
M  V30 11235 H 1110.47 -7.28739 2.01184 0
M  V30 11236 H 1111.74 -7.74138 0.912737 0
M  V30 11237 N 1115.97 -0.914965 -1.28321 0
M  V30 11238 C 1117.19 -0.564023 -1.99583 0
M  V30 11239 C 1117.62 0.847821 -1.6791 0
M  V30 11240 O 1116.97 1.56682 -0.912171 0
M  V30 11241 C 1117.02 -0.781368 -3.52033 0
M  V30 11242 O 1116.13 0.159072 -4.12093 0
M  V30 11243 H 1115.47 -0.218565 -0.626997 0
M  V30 11244 H 1118 -1.23074 -1.63444 0
M  V30 11245 H 1118.01 -0.691946 -4.0209 0
M  V30 11246 H 1116.68 -1.81059 -3.7442 0
M  V30 11247 H 1115.26 0.0208145 -3.72894 0
M  V30 11248 N 1117.44 1.42219 -0.679077 0
M  V30 11249 C 1118.68 2.03349 -0.207058 0
M  V30 11250 C 1119.05 1.52554 1.16581 0
M  V30 11251 O 1120.25 2.05499 1.73274 0
M  V30 11252 C 1118.52 3.56562 -0.244537 0
M  V30 11253 S 1120.08 4.38523 0.155853 0
M  V30 11254 H 1116.9 0.705932 -0.0847444 0
M  V30 11255 H 1119.5 1.73904 -0.893183 0
M  V30 11256 H 1118.2 3.91028 -1.246 0
M  V30 11257 H 1117.73 3.90686 0.461282 0
M  V30 11258 H 1119.75 4.76389 1.38808 0
M  V30 11259 N 1118.92 0.422693 1.51826 0
M  V30 11260 C 1120.34 0.0742364 1.59427 0
M  V30 11261 C 1120.54 -1.41491 1.43466 0
M  V30 11262 O 1119.59 -2.18326 1.26846 0
M  V30 11263 C 1120.91 0.581272 2.95028 0
M  V30 11264 C 1122.45 0.54043 3.08299 0
M  V30 11265 C 1122.93 1.0242 4.46401 0
M  V30 11266 N 1124.42 0.981576 4.5268 0
M  V30 11267 C 1125.16 1.32693 5.57835 0
M  V30 11268 N 1124.65 1.74441 6.70479 0
M  V30 11269 N 1126.44 1.24603 5.48115 0
M  V30 11270 H 1118.6 1.39178 1.60447 0
M  V30 11271 H 1120.86 0.572607 0.75553 0
M  V30 11272 H 1120.56 1.62261 3.12032 0
M  V30 11273 H 1120.44 -0.00176969 3.772 0
M  V30 11274 H 1122.83 -0.491895 2.90971 0
M  V30 11275 H 1122.91 1.15969 2.28002 0
M  V30 11276 H 1122.55 2.05491 4.64474 0
M  V30 11277 H 1122.48 0.381613 5.25215 0
M  V30 11278 H 1124.97 0.674808 3.71826 0
M  V30 11279 H 1125.28 1.99068 7.46721 0
M  V30 11280 H 1123.63 1.78356 6.71725 0
M  V30 11281 H 1126.82 0.918641 4.58997 0
M  V30 11282 H 1126.99 1.51847 6.29958 0
M  V30 11283 N 1120.4 -1.5685 0.153553 0
M  V30 11284 C 1121.33 -2.12888 -0.821829 0
M  V30 11285 C 1122.31 -1.05418 -1.23798 0
M  V30 11286 O 1123.49 -1.33288 -1.33292 0
M  V30 11287 C 1120.62 -2.65394 -2.10438 0
M  V30 11288 C 1119.67 -3.85071 -1.83364 0
M  V30 11289 S 1120.5 -5.2572 -1.01877 0
M  V30 11290 C 1121.66 -5.81619 -2.31236 0
M  V30 11291 H 1121.89 -2.95288 -0.345314 0
M  V30 11292 H 1119.42 -1.5428 -0.0608377 0
M  V30 11293 H 1121.38 -2.96294 -2.84113 0
M  V30 11294 H 1120.04 -1.83112 -2.55204 0
M  V30 11295 H 1119.23 -4.20076 -2.78482 0
M  V30 11296 H 1118.84 -3.54965 -1.17794 0
M  V30 11297 H 1121.13 -5.9345 -3.26838 0
M  V30 11298 H 1122.07 -6.79054 -2.00727 0
M  V30 11299 H 1122.48 -5.09909 -2.42184 0
M  V30 11300 N 1121.88 0.120221 -1.57141 0
M  V30 11301 C 1123.1 0.84637 -1.89344 0
M  V30 11302 C 1123.53 1.72702 -0.745365 0
M  V30 11303 O 1122.89 1.7873 0.304155 0
M  V30 11304 C 1122.93 1.65671 -3.20289 0
M  V30 11305 O 1122.04 2.76353 -3.06109 0
M  V30 11306 H 1121.38 0.234132 -0.621352 0
M  V30 11307 H 1123.91 0.102986 -2.04341 0
M  V30 11308 H 1123.92 2.04621 -3.52979 0
M  V30 11309 H 1122.59 1.01023 -4.03444 0
M  V30 11310 H 1121.17 2.40615 -2.84884 0
M  V30 11311 N 1123.36 1.52689 0.390367 0
M  V30 11312 C 1124.32 1.76726 1.45947 0
M  V30 11313 C 1125.32 0.637269 1.47633 0
M  V30 11314 O 1126.51 0.905312 1.48828 0
M  V30 11315 C 1123.64 1.86678 2.85244 0
M  V30 11316 H 1124.83 2.72185 1.25918 0
M  V30 11317 H 1122.39 1.4339 0.622023 0
M  V30 11318 H 1123.12 0.931991 3.10619 0
M  V30 11319 H 1122.91 2.68843 2.85422 0
M  V30 11320 H 1124.4 2.06952 3.62713 0
M  V30 11321 N 1124.83 -0.648732 1.43629 0
M  V30 11322 C 1126.06 -1.4362 1.48932 0
M  V30 11323 C 1126.48 -1.88487 0.108599 0
M  V30 11324 O 1125.83 -1.59768 -0.882066 0
M  V30 11325 C 1125.89 -2.66822 2.43903 0
M  V30 11326 O 1125.61 -2.2383 3.76606 0
M  V30 11327 C 1127.11 -3.60134 2.58493 0
M  V30 11328 H 1124.33 -0.441055 0.505679 0
M  V30 11329 H 1126.87 -0.794936 1.88417 0
M  V30 11330 H 1125.03 -3.27079 2.07601 0
M  V30 11331 H 1125.44 -3.03575 4.27718 0
M  V30 11332 H 1126.91 -4.43234 3.29011 0
M  V30 11333 H 1127.39 -4.07779 1.63134 0
M  V30 11334 H 1128 -3.05756 2.95624 0
M  V30 11335 N 1126.31 -1.30234 -0.887518 0
M  V30 11336 C 1127.24 -1.12212 -1.99853 0
M  V30 11337 C 1128.26 -0.0660929 -1.62666 0
M  V30 11338 O 1129.45 -0.311853 -1.75755 0
M  V30 11339 C 1126.55 -0.688591 -3.31831 0
M  V30 11340 C 1125.72 -1.82581 -3.97471 0
M  V30 11341 C 1124.78 -1.38126 -5.07748 0
M  V30 11342 O 1123.8 -2.08805 -5.29518 0
M  V30 11343 N 1125.01 -0.258868 -5.79923 0
M  V30 11344 H 1127.77 -2.07901 -2.15864 0
M  V30 11345 H 1125.33 -1.22336 -1.06045 0
M  V30 11346 H 1127.32 -0.374252 -4.02966 0
M  V30 11347 H 1125.89 0.176185 -3.12103 0
M  V30 11348 H 1125.11 -2.3084 -3.19541 0
M  V30 11349 H 1126.4 -2.58798 -4.38065 0
M  V30 11350 H 1125.8 0.330131 -5.64736 0
M  V30 11351 H 1124.36 -0.00396813 -6.518 0
M  V30 11352 N 1127.79 1.09952 -1.12909 0
M  V30 11353 C 1129.03 1.83635 -0.897646 0
M  V30 11354 C 1129.39 1.83462 0.566179 0
M  V30 11355 O 1130.6 2.52748 0.914977 0
M  V30 11356 C 1128.87 3.26095 -1.46277 0
M  V30 11357 S 1130.43 4.16846 -1.37059 0
M  V30 11358 H 1127.24 0.633045 -0.32369 0
M  V30 11359 H 1129.85 1.32275 -1.43957 0
M  V30 11360 H 1128.55 3.23793 -2.52163 0
M  V30 11361 H 1128.08 3.82526 -0.918549 0
M  V30 11362 H 1130.1 4.94996 -0.345399 0
M  V30 11363 N 1129.27 0.921757 1.27833 0
M  V30 11364 C 1130.2 0.433466 2.29441 0
M  V30 11365 C 1131.18 -0.503133 1.62489 0
M  V30 11366 O 1132.36 -0.409156 1.89841 0
M  V30 11367 C 1129.49 -0.320029 3.45822 0
M  V30 11368 C 1128.45 0.528178 4.24728 0
M  V30 11369 C 1127.77 -0.354132 5.33526 0
M  V30 11370 C 1129.07 1.78959 4.90684 0
M  V30 11371 H 1130.77 1.28263 2.70535 0
M  V30 11372 H 1128.31 0.618197 1.30055 0
M  V30 11373 H 1130.27 -0.672526 4.15999 0
M  V30 11374 H 1128.99 -1.20317 3.0363 0
M  V30 11375 H 1127.65 0.863302 3.5629 0
M  V30 11376 H 1127.3 -1.23605 4.87576 0
M  V30 11377 H 1127 0.209855 5.87225 0
M  V30 11378 H 1128.52 -0.702333 6.06547 0
M  V30 11379 H 1129.94 1.50552 5.53179 0
M  V30 11380 H 1128.33 2.29661 5.54415 0
M  V30 11381 H 1129.4 2.51265 4.14721 0
M  V30 11382 N 1130.75 -1.41857 0.686609 0
M  V30 11383 C 1131.69 -2.30795 0.015643 0
M  V30 11384 C 1132.66 -1.46616 -0.780569 0
M  V30 11385 O 1133.85 -1.75423 -0.750424 0
M  V30 11386 C 1130.99 -3.32577 -0.921229 0
M  V30 11387 C 1130.1 -4.3184 -0.117585 0
M  V30 11388 C 1129.24 -5.20693 -1.05128 0
M  V30 11389 C 1128.28 -6.11629 -0.240018 0
M  V30 11390 N 1127.41 -6.92995 -1.12704 0
M  V30 11391 H 1132.25 -2.87615 0.77985 0
M  V30 11392 H 1129.79 -1.41661 0.396298 0
M  V30 11393 H 1131.75 -3.90129 -1.47836 0
M  V30 11394 H 1130.38 -2.77328 -1.65193 0
M  V30 11395 H 1129.43 -3.7631 0.55634 0
M  V30 11396 H 1130.74 -4.96168 0.511753 0
M  V30 11397 H 1129.9 -5.83035 -1.67795 0
M  V30 11398 H 1128.63 -4.5657 -1.71449 0
M  V30 11399 H 1127.64 -5.48345 0.399779 0
M  V30 11400 H 1128.86 -6.77805 0.419266 0
M  V30 11401 H 1126.81 -6.31489 -1.77644 0
M  V30 11402 H 1126.73 -7.53974 -0.553065 0
M  V30 11403 H 1128 -7.59813 -1.7408 0
M  V30 11404 N 1132.22 -0.430739 -1.51599 0
M  V30 11405 C 1133.17 0.401828 -2.24431 0
M  V30 11406 C 1134.16 0.995588 -1.264 0
M  V30 11407 O 1135.35 0.914822 -1.51526 0
M  V30 11408 C 1132.48 1.5061 -3.08499 0
M  V30 11409 C 1131.57 0.922059 -4.13955 0
M  V30 11410 N 1131.96 0.0665912 -5.05756 0
M  V30 11411 C 1130.25 1.19034 -4.29822 0
M  V30 11412 C 1130.96 -0.260713 -5.81115 0
M  V30 11413 N 1129.93 0.353991 -5.42446 0
M  V30 11414 H 1133.73 -0.257813 -2.92767 0
M  V30 11415 H 1131.25 -0.242421 -1.6058 0
M  V30 11416 H 1133.24 2.11535 -3.59247 0
M  V30 11417 H 1131.9 2.16815 -2.41706 0
M  V30 11418 H 1132.92 -0.299356 -5.17034 0
M  V30 11419 H 1129.59 1.85036 -3.74256 0
M  V30 11420 H 1130.98 -0.956442 -6.65058 0
M  V30 11421 N 1133.7 1.56767 -0.161869 0
M  V30 11422 C 1134.61 2.21083 0.784814 0
M  V30 11423 C 1135.63 1.19959 1.26039 0
M  V30 11424 O 1136.8 1.52588 1.31449 0
M  V30 11425 C 1133.87 2.83153 2.00063 0
M  V30 11426 C 1132.93 3.9945 1.57285 0
M  V30 11427 C 1132.16 4.5855 2.7307 0
M  V30 11428 O 1132.39 4.16534 3.89686 0
M  V30 11429 O 1131.32 5.48575 2.47688 0
M  V30 11430 H 1135.15 3.02522 0.267243 0
M  V30 11431 H 1132.73 1.49255 0.0658783 0
M  V30 11432 H 1134.61 3.22546 2.71186 0
M  V30 11433 H 1133.29 2.04718 2.50744 0
M  V30 11434 H 1132.2 3.64745 0.831393 0
M  V30 11435 H 1133.53 4.7945 1.11304 0
M  V30 11436 N 1135.18 -0.111886 1.57202 0
M  V30 11437 C 1136.43 -0.8146 1.86376 0
M  V30 11438 C 1136.78 -1.77156 0.750558 0
M  V30 11439 O 1136.07 -1.89977 -0.248867 0
M  V30 11440 C 1136.27 -1.59644 3.19763 0
M  V30 11441 C 1136.1 -0.71669 4.43952 0
M  V30 11442 C 1134.87 -0.36881 5.03952 0
M  V30 11443 C 1137.07 -0.0311316 5.14291 0
M  V30 11444 N 1135.05 0.520861 6.11686 0
M  V30 11445 C 1136.42 0.71726 6.15837 0
M  V30 11446 C 1138.47 0.0445453 4.9788 0
M  V30 11447 C 1137.18 1.53423 7.02747 0
M  V30 11448 C 1139.2 0.848364 5.85283 0
M  V30 11449 C 1138.56 1.58493 6.86338 0
M  V30 11450 H 1134.66 -0.274785 0.732132 0
M  V30 11451 H 1137.25 -0.0779628 1.94544 0
M  V30 11452 H 1135.42 -2.30407 3.12678 0
M  V30 11453 H 1137.15 -2.24504 3.36719 0
M  V30 11454 H 1133.91 -0.712671 4.68207 0
M  V30 11455 H 1134.33 0.957756 6.70191 0
M  V30 11456 H 1138.97 -0.510564 4.19706 0
M  V30 11457 H 1136.69 2.10047 7.80324 0
M  V30 11458 H 1140.28 0.909372 5.74649 0
M  V30 11459 H 1139.16 2.19691 7.52798 0
M  V30 11460 N 1136.66 -1.52894 -0.382264 0
M  V30 11461 C 1137.59 -1.81122 -1.47367 0
M  V30 11462 C 1138.57 -0.663653 -1.56619 0
M  V30 11463 O 1139.75 -0.911898 -1.71459 0
M  V30 11464 C 1136.88 -1.98615 -2.84902 0
M  V30 11465 C 1135.84 -3.14328 -2.90485 0
M  V30 11466 C 1135.16 -3.17086 -4.30535 0
M  V30 11467 C 1136.46 -4.53263 -2.59519 0
M  V30 11468 H 1138.16 -2.72518 -1.23993 0
M  V30 11469 H 1135.7 -1.3113 -0.595049 0
M  V30 11470 H 1137.66 -2.16946 -3.61265 0
M  V30 11471 H 1136.38 -1.03915 -3.09628 0
M  V30 11472 H 1135.04 -2.95791 -2.16572 0
M  V30 11473 H 1134.69 -2.20055 -4.52311 0
M  V30 11474 H 1134.39 -3.94821 -4.3519 0
M  V30 11475 H 1135.91 -3.3758 -5.08795 0
M  V30 11476 H 1137.33 -4.71867 -3.25598 0
M  V30 11477 H 1135.72 -5.33115 -2.75514 0
M  V30 11478 H 1136.79 -4.59516 -1.54831 0
M  V30 11479 N 1138.14 0.641106 -1.43971 0
M  V30 11480 C 1139.09 1.77474 -1.50352 0
M  V30 11481 C 1140.08 1.65173 -0.376052 0
M  V30 11482 O 1141.29 1.71373 -0.550572 0
M  V30 11483 H 1137.66 0.585747 -0.471597 0
M  V30 11484 H 1139.63 1.69213 -2.45784 0
M  V30 11485 C 1138.38 3.15778 -1.45532 0
M  V30 11486 H 1137.7 3.25886 -2.316 0
M  V30 11487 H 1139.14 3.95022 -1.54058 0
M  V30 11488 C 1137.6 3.36447 -0.174624 0
M  V30 11489 O 1138.13 3.9446 0.759215 0
M  V30 11490 N 1136.34 2.90487 -0.0809383 0
M  V30 11491 H 1135.89 2.43461 -0.841691 0
M  V30 11492 H 1135.84 3.04693 0.775231 0
M  V30 11493 N 1139.62 1.30703 0.880598 0
M  V30 11494 C 1140.56 1.17369 2.00817 0
M  V30 11495 C 1141.56 0.0845159 1.69189 0
M  V30 11496 O 1142.76 0.245673 1.78316 0
M  V30 11497 H 1139.14 0.363107 0.658527 0
M  V30 11498 H 1141.11 2.12789 2.09197 0
M  V30 11499 C 1139.86 0.886851 3.362 0
M  V30 11500 H 1139.18 1.71704 3.61051 0
M  V30 11501 H 1140.62 0.83368 4.15723 0
M  V30 11502 C 1139.08 -0.410293 3.34392 0
M  V30 11503 O 1139.61 -1.43044 3.75368 0
M  V30 11504 N 1137.82 -0.423023 2.87505 0
M  V30 11505 H 1137.36 0.407637 2.54354 0
M  V30 11506 H 1137.32 -1.29086 2.86678 0
M  V30 11507 N 1141.09 -1.09351 1.1349 0
M  V30 11508 C 1142.02 -2.18037 0.835588 0
M  V30 11509 C 1143 -1.68856 -0.205373 0
M  V30 11510 O 1144.19 -1.94094 -0.0641357 0
M  V30 11511 C 1141.32 -3.45987 0.301661 0
M  V30 11512 C 1140.27 -4.08507 1.27696 0
M  V30 11513 C 1139.6 -5.31292 0.602758 0
M  V30 11514 C 1140.9 -4.50916 2.63575 0
M  V30 11515 H 1142.59 -2.43332 1.74441 0
M  V30 11516 H 1140.14 -1.1695 0.840166 0
M  V30 11517 H 1142.09 -4.21324 0.079928 0
M  V30 11518 H 1140.82 -3.20217 -0.642552 0
M  V30 11519 H 1139.48 -3.3519 1.4847 0
M  V30 11520 H 1139.12 -5.01802 -0.346953 0
M  V30 11521 H 1138.82 -5.74075 1.25345 0
M  V30 11522 H 1140.35 -6.09351 0.390325 0
M  V30 11523 H 1141.76 -5.17474 2.46765 0
M  V30 11524 H 1140.16 -5.04586 3.24827 0
M  V30 11525 H 1141.23 -3.63279 3.2118 0
M  V30 11526 N 1142.57 -0.928524 -1.27343 0
M  V30 11527 C 1143.98 -0.613856 -1.7632 0
M  V30 11528 C 1144.33 0.870983 -1.75808 0
M  V30 11529 O 1143.46 1.68155 -1.36209 0
M  V30 11530 C 1144.05 -1.10755 -3.20186 0
M  V30 11531 C 1142.61 -0.843532 -3.66826 0
M  V30 11532 C 1141.76 -1.26579 -2.46724 0
M  V30 11533 H 1144.71 -1.10821 -1.13598 0
M  V30 11534 H 1144.73 -0.455598 -3.77763 0
M  V30 11535 H 1144.24 -2.18825 -3.20526 0
M  V30 11536 H 1142.34 0.223334 -3.7193 0
M  V30 11537 H 1142.46 -1.46165 -4.56259 0
M  V30 11538 H 1140.82 -0.684334 -2.45334 0
M  V30 11539 H 1141.6 -2.35516 -2.49774 0
M  V30 11540 N 1144.05 1.41491 -0.694123 0
M  V30 11541 C 1145.01 2.2917 -0.0368562 0
M  V30 11542 C 1146.01 1.44305 0.709426 0
M  V30 11543 O 1147.2 1.6547 0.544533 0
M  V30 11544 C 1144.33 3.27156 0.958201 0
M  V30 11545 H 1145.53 2.88787 -0.808829 0
M  V30 11546 H 1143.08 1.49453 -0.457538 0
M  V30 11547 H 1143.82 2.72516 1.75799 0
M  V30 11548 H 1143.6 3.89776 0.426227 0
M  V30 11549 H 1145.09 3.92863 1.41592 0
M  V30 11550 N 1145.53 0.438773 1.51369 0
M  V30 11551 C 1146.47 -0.37195 2.27783 0
M  V30 11552 C 1147.44 -1.01558 1.31435 0
M  V30 11553 O 1148.63 -1.03421 1.60339 0
M  V30 11554 C 1145.77 -1.46636 3.12397 0
M  V30 11555 C 1144.88 -0.840727 4.2374 0
M  V30 11556 C 1144.02 -1.91031 4.95662 0
M  V30 11557 C 1143.06 -1.26318 5.98924 0
M  V30 11558 N 1142.19 -2.27419 6.64248 0
M  V30 11559 H 1147.03 0.286048 2.96624 0
M  V30 11560 H 1144.57 0.152909 1.46303 0
M  V30 11561 H 1146.53 -2.11219 3.59781 0
M  V30 11562 H 1145.16 -2.09397 2.45668 0
M  V30 11563 H 1144.21 -0.0831588 3.80309 0
M  V30 11564 H 1145.52 -0.328285 4.97719 0
M  V30 11565 H 1144.68 -2.63272 5.46601 0
M  V30 11566 H 1143.42 -2.45649 4.21317 0
M  V30 11567 H 1142.42 -0.526246 5.47276 0
M  V30 11568 H 1143.65 -0.724324 6.75226 0
M  V30 11569 H 1141.59 -2.81114 5.92715 0
M  V30 11570 H 1141.51 -1.81071 7.33996 0
M  V30 11571 H 1142.78 -2.99139 7.19817 0
M  V30 11572 N 1147.01 -1.56678 0.170181 0
M  V30 11573 C 1147.97 -2.16698 -0.746622 0
M  V30 11574 C 1148.97 -1.11475 -1.15888 0
M  V30 11575 O 1150.16 -1.36994 -1.07602 0
M  V30 11576 C 1147.29 -2.74892 -2.01612 0
M  V30 11577 H 1148.48 -2.99061 -0.224135 0
M  V30 11578 H 1146.04 -1.56098 -0.0793761 0
M  V30 11579 H 1146.77 -1.96259 -2.58172 0
M  V30 11580 H 1146.56 -3.51896 -1.72949 0
M  V30 11581 H 1148.05 -3.21058 -2.67042 0
M  V30 11582 N 1148.48 0.103547 -1.57259 0
M  V30 11583 C 1149.71 0.82624 -1.90232 0
M  V30 11584 C 1150.13 1.71902 -0.763641 0
M  V30 11585 O 1149.49 1.79043 0.285181 0
M  V30 11586 C 1149.54 1.62265 -3.22029 0
M  V30 11587 O 1148.64 2.73091 -3.09023 0
M  V30 11588 H 1147.98 0.227528 -0.6238 0
M  V30 11589 H 1150.51 0.081307 -2.04438 0
M  V30 11590 H 1150.52 2.00865 -3.5513 0
M  V30 11591 H 1149.2 0.967383 -4.04493 0
M  V30 11592 H 1147.78 2.3758 -2.8742 0
M  V30 11593 N 1149.96 1.53094 0.37415 0
M  V30 11594 C 1151.38 1.42676 0.715246 0
M  V30 11595 C 1151.58 0.558992 1.93591 0
M  V30 11596 O 1150.63 0.0381328 2.52471 0
M  V30 11597 C 1151.95 2.85746 0.936459 0
M  V30 11598 C 1153.49 2.95322 1.03701 0
M  V30 11599 C 1153.97 4.39436 1.29075 0
M  V30 11600 N 1155.46 4.42826 1.35864 0
M  V30 11601 C 1156.2 5.51433 1.57191 0
M  V30 11602 N 1155.69 6.701 1.75891 0
M  V30 11603 N 1157.48 5.38998 1.59491 0
M  V30 11604 H 1149.64 2.08025 -0.428854 0
M  V30 11605 H 1151.9 0.939078 -0.129758 0
M  V30 11606 H 1151.6 3.51523 0.111448 0
M  V30 11607 H 1151.48 3.28887 1.84698 0
M  V30 11608 H 1153.87 2.29704 1.85257 0
M  V30 11609 H 1153.95 2.55588 0.104066 0
M  V30 11610 H 1153.59 5.05625 0.480231 0
M  V30 11611 H 1153.52 4.76735 2.23677 0
M  V30 11612 H 1156.01 3.57301 1.23061 0
M  V30 11613 H 1156.32 7.48643 1.91713 0
M  V30 11614 H 1154.67 6.73102 1.73086 0
M  V30 11615 H 1157.86 4.45257 1.44444 0
M  V30 11616 H 1158.03 6.23705 1.75771 0
M  V30 11617 N 1151.44 -0.633461 1.44309 0
M  V30 11618 C 1152.66 -1.42527 1.50668 0
M  V30 11619 C 1153.09 -1.87637 0.131861 0
M  V30 11620 O 1152.45 -1.58595 -0.878477 0
M  V30 11621 C 1152.5 -2.62328 2.47419 0
M  V30 11622 O 1151.6 -3.62081 1.97411 0
M  V30 11623 H 1150.94 -0.426559 0.508864 0
M  V30 11624 H 1153.47 -0.773392 1.8942 0
M  V30 11625 H 1153.48 -3.09901 2.65378 0
M  V30 11626 H 1152.16 -2.2884 3.47283 0
M  V30 11627 H 1150.73 -3.21333 1.89208 0
M  V30 11628 N 1152.92 -1.31168 -0.873655 0
M  V30 11629 C 1153.87 -1.18507 -1.98052 0
M  V30 11630 C 1154.84 -0.0717583 -1.65945 0
M  V30 11631 O 1156.02 -0.243965 -1.89234 0
M  V30 11632 C 1153.16 -0.894571 -3.33304 0
M  V30 11633 C 1152.27 -2.09086 -3.7803 0
M  V30 11634 C 1151.41 -1.73747 -5.01982 0
M  V30 11635 C 1150.45 -2.89805 -5.39147 0
M  V30 11636 N 1149.58 -2.54686 -6.54278 0
M  V30 11637 H 1154.42 -2.13193 -2.08213 0
M  V30 11638 H 1151.96 -1.06056 -1.01934 0
M  V30 11639 H 1153.92 -0.706714 -4.11171 0
M  V30 11640 H 1152.55 0.0154449 -3.22796 0
M  V30 11641 H 1151.6 -2.38961 -2.95976 0
M  V30 11642 H 1152.91 -2.95963 -4.01506 0
M  V30 11643 H 1152.07 -1.51402 -5.87505 0
M  V30 11644 H 1150.81 -0.840553 -4.80402 0
M  V30 11645 H 1149.81 -3.12803 -4.52144 0
M  V30 11646 H 1151.04 -3.802 -5.62694 0
M  V30 11647 H 1148.98 -1.67513 -6.34252 0
M  V30 11648 H 1148.9 -3.35093 -6.77679 0
M  V30 11649 H 1150.17 -2.35725 -7.43003 0
M  V30 11650 N 1154.4 1.08748 -1.14068 0
M  V30 11651 C 1155.62 1.84814 -0.930138 0
M  V30 11652 C 1156.04 1.81461 0.521267 0
M  V30 11653 O 1155.4 1.21577 1.36108 0
M  V30 11654 C 1155.45 3.32501 -1.41863 0
M  V30 11655 O 1155.17 3.35846 -2.81317 0
M  V30 11656 C 1156.67 4.25384 -1.24753 0
M  V30 11657 H 1153.89 0.583546 -0.331233 0
M  V30 11658 H 1156.43 1.37366 -1.51495 0
M  V30 11659 H 1154.59 3.7735 -0.876664 0
M  V30 11660 H 1155 4.28013 -3.03159 0
M  V30 11661 H 1156.48 5.27138 -1.63798 0
M  V30 11662 H 1156.95 4.38789 -0.18999 0
M  V30 11663 H 1157.56 3.86357 -1.77787 0
M  V30 11664 N 1155.87 0.935264 1.26849 0
M  V30 11665 C 1157.29 0.636661 1.46352 0
M  V30 11666 C 1157.49 -0.811823 1.84423 0
M  V30 11667 O 1156.55 -1.58902 1.9623 0
M  V30 11668 C 1157.86 1.59301 2.55036 0
M  V30 11669 C 1159.41 1.60207 2.68892 0
M  V30 11670 C 1159.88 2.54558 3.80742 0
M  V30 11671 N 1161.37 2.52809 3.88126 0
M  V30 11672 C 1162.11 3.225 4.74111 0
M  V30 11673 N 1161.6 4.01598 5.64527 0
M  V30 11674 N 1163.4 3.11481 4.67906 0
M  V30 11675 H 1155.55 1.8716 1.00423 0
M  V30 11676 H 1157.81 0.803968 0.502334 0
M  V30 11677 H 1157.52 2.62671 2.33874 0
M  V30 11678 H 1157.39 1.34052 3.52576 0
M  V30 11679 H 1159.78 0.575649 2.89431 0
M  V30 11680 H 1159.86 1.89508 1.71815 0
M  V30 11681 H 1159.5 3.57314 3.60956 0
M  V30 11682 H 1159.43 2.22549 4.77263 0
M  V30 11683 H 1161.92 1.9537 3.2348 0
M  V30 11684 H 1162.24 4.51742 6.27016 0
M  V30 11685 H 1160.58 4.057 5.64298 0
M  V30 11686 H 1163.77 2.49175 3.9627 0
M  V30 11687 H 1163.95 3.66064 5.34697 0
M  V30 11688 N 1157.35 -1.41121 0.701616 0
M  V30 11689 C 1158.28 -2.33436 0.0545974 0
M  V30 11690 C 1159.26 -1.52144 -0.760662 0
M  V30 11691 O 1160.45 -1.80661 -0.712414 0
M  V30 11692 C 1157.58 -3.36015 -0.878117 0
M  V30 11693 C 1156.53 -4.27664 -0.169511 0
M  V30 11694 C 1155.86 -5.20666 -1.21699 0
M  V30 11695 C 1157.16 -5.13254 0.967859 0
M  V30 11696 H 1158.85 -2.87791 0.825637 0
M  V30 11697 H 1156.4 -1.38377 0.398484 0
M  V30 11698 H 1158.35 -3.99526 -1.34004 0
M  V30 11699 H 1157.08 -2.80024 -1.68089 0
M  V30 11700 H 1155.73 -3.65586 0.272441 0
M  V30 11701 H 1155.38 -4.60987 -2.01246 0
M  V30 11702 H 1155.08 -5.82822 -0.747836 0
M  V30 11703 H 1156.61 -5.87053 -1.6793 0
M  V30 11704 H 1158.02 -5.70298 0.585944 0
M  V30 11705 H 1156.42 -5.84381 1.3645 0
M  V30 11706 H 1157.49 -4.5006 1.80483 0
M  V30 11707 N 1158.83 -0.446794 -1.51134 0
M  V30 11708 C 1159.78 0.359865 -2.27977 0
M  V30 11709 C 1160.75 1.0086 -1.31972 0
M  V30 11710 O 1161.93 1.02569 -1.60886 0
M  V30 11711 C 1159.07 1.44978 -3.1317 0
M  V30 11712 C 1158.19 0.818243 -4.2418 0
M  V30 11713 C 1157.32 1.884 -4.96668 0
M  V30 11714 C 1156.36 1.2314 -5.99586 0
M  V30 11715 N 1155.5 2.23894 -6.65444 0
M  V30 11716 H 1160.34 -0.301775 -2.96468 0
M  V30 11717 H 1157.87 -0.160666 -1.4622 0
M  V30 11718 H 1159.83 2.09308 -3.60896 0
M  V30 11719 H 1158.46 2.08092 -2.46775 0
M  V30 11720 H 1157.51 0.0629889 -3.80348 0
M  V30 11721 H 1158.83 0.301885 -4.97886 0
M  V30 11722 H 1157.98 2.6037 -5.4799 0
M  V30 11723 H 1156.72 2.43411 -4.22614 0
M  V30 11724 H 1155.72 0.497215 -5.47547 0
M  V30 11725 H 1156.95 0.688505 -6.75601 0
M  V30 11726 H 1154.89 2.77967 -5.94197 0
M  V30 11727 H 1154.81 1.77176 -7.34945 0
M  V30 11728 H 1156.08 2.95318 -7.21393 0
M  V30 11729 N 1160.31 1.56586 -0.178487 0
M  V30 11730 C 1161.53 2.01915 0.473841 0
M  V30 11731 C 1161.96 1.05789 1.55533 0
M  V30 11732 O 1161.32 0.0386018 1.81259 0
M  V30 11733 C 1161.36 3.45799 1.02251 0
M  V30 11734 O 1160.47 3.52761 2.1362 0
M  V30 11735 H 1159.81 0.654372 0.112666 0
M  V30 11736 H 1162.34 2.02613 -0.284486 0
M  V30 11737 H 1162.35 3.85252 1.34332 0
M  V30 11738 H 1161.02 4.1526 0.230719 0
M  V30 11739 H 1159.6 3.25172 1.8253 0
M  V30 11740 N 1161.79 -0.095206 1.57312 0
M  V30 11741 C 1162.72 -1.14173 1.98739 0
M  V30 11742 C 1163.73 -1.36323 0.889934 0
M  V30 11743 O 1164.92 -1.34977 1.16805 0
M  V30 11744 C 1162.02 -2.49729 2.29104 0
M  V30 11745 C 1161.19 -2.47857 3.60396 0
M  V30 11746 C 1160.25 -3.65341 3.78699 0
M  V30 11747 O 1159.28 -3.47837 4.50553 0
M  V30 11748 N 1160.48 -4.84818 3.19268 0
M  V30 11749 H 1163.25 -0.789126 2.89124 0
M  V30 11750 H 1160.81 -0.284187 1.59386 0
M  V30 11751 H 1162.8 -3.26925 2.38541 0
M  V30 11752 H 1161.37 -2.7708 1.44726 0
M  V30 11753 H 1160.59 -1.56208 3.61929 0
M  V30 11754 H 1161.88 -2.43685 4.46649 0
M  V30 11755 H 1161.27 -5.01943 2.60902 0
M  V30 11756 H 1159.83 -5.59607 3.34191 0
M  V30 11757 N 1163.26 -1.53291 -0.366026 0
M  V30 11758 C 1164.19 -1.82675 -1.45437 0
M  V30 11759 C 1165.18 -0.680227 -1.55907 0
M  V30 11760 O 1166.36 -0.930032 -1.70482 0
M  V30 11761 C 1163.49 -2.01626 -2.8278 0
M  V30 11762 C 1162.44 -3.17391 -2.87135 0
M  V30 11763 C 1161.77 -3.21634 -4.27148 0
M  V30 11764 C 1163.07 -4.5599 -2.54697 0
M  V30 11765 H 1164.76 -2.73818 -1.21096 0
M  V30 11766 H 1162.31 -1.31754 -0.581108 0
M  V30 11767 H 1164.26 -2.20765 -3.58944 0
M  V30 11768 H 1162.99 -1.07193 -3.08508 0
M  V30 11769 H 1161.65 -2.98071 -2.13422 0
M  V30 11770 H 1161.29 -2.2484 -4.49951 0
M  V30 11771 H 1160.99 -3.99414 -4.30978 0
M  V30 11772 H 1162.52 -3.42957 -5.05186 0
M  V30 11773 H 1163.93 -4.75294 -3.20575 0
M  V30 11774 H 1162.33 -5.36008 -2.69844 0
M  V30 11775 H 1163.4 -4.61133 -1.49949 0
M  V30 11776 N 1164.74 0.6258 -1.44643 0
M  V30 11777 C 1165.67 1.74858 -1.54748 0
M  V30 11778 C 1166.65 1.65327 -0.400138 0
M  V30 11779 O 1167.84 1.84005 -0.620948 0
M  V30 11780 C 1164.97 3.13408 -1.49643 0
M  V30 11781 C 1163.92 3.37733 -2.62908 0
M  V30 11782 C 1163.25 4.76367 -2.42855 0
M  V30 11783 C 1164.55 3.29771 -4.05029 0
M  V30 11784 H 1166.24 1.66658 -2.48728 0
M  V30 11785 H 1163.79 0.800363 -1.19709 0
M  V30 11786 H 1165.74 3.91735 -1.55312 0
M  V30 11787 H 1164.47 3.22404 -0.521824 0
M  V30 11788 H 1163.12 2.61788 -2.56637 0
M  V30 11789 H 1162.77 4.82074 -1.43575 0
M  V30 11790 H 1162.47 4.936 -3.18799 0
M  V30 11791 H 1164 5.56917 -2.50351 0
M  V30 11792 H 1165.41 3.97996 -4.12641 0
M  V30 11793 H 1163.81 3.58538 -4.81218 0
M  V30 11794 H 1164.88 2.27493 -4.28223 0
M  V30 11795 N 1166.22 1.31629 0.866686 0
M  V30 11796 C 1167.15 1.22151 1.99001 0
M  V30 11797 C 1168.13 0.107972 1.69757 0
M  V30 11798 O 1169.32 0.293125 1.91975 0
M  V30 11799 C 1166.45 0.93144 3.34577 0
M  V30 11800 C 1165.4 2.0049 3.78137 0
M  V30 11801 C 1164.73 1.56747 5.11209 0
M  V30 11802 C 1166.03 3.41844 3.94892 0
M  V30 11803 H 1167.72 2.16132 2.0719 0
M  V30 11804 H 1165.27 1.04051 0.995463 0
M  V30 11805 H 1167.22 0.851719 4.12703 0
M  V30 11806 H 1165.94 -0.0440289 3.2657 0
M  V30 11807 H 1164.6 2.07457 3.02253 0
M  V30 11808 H 1164.25 0.579767 4.99648 0
M  V30 11809 H 1163.95 2.28562 5.41326 0
M  V30 11810 H 1165.47 1.50188 5.91841 0
M  V30 11811 H 1166.89 3.37534 4.63405 0
M  V30 11812 H 1165.29 4.11905 4.36411 0
M  V30 11813 H 1166.36 3.82389 2.98172 0
M  V30 11814 N 1167.7 -1.08142 1.14644 0
M  V30 11815 C 1168.63 -2.15022 0.793614 0
M  V30 11816 C 1169.64 -1.61679 -0.190729 0
M  V30 11817 O 1170.83 -1.78472 0.0313696 0
M  V30 11818 C 1167.93 -3.38532 0.157785 0
M  V30 11819 C 1167.11 -4.21252 1.17753 0
M  V30 11820 C 1166.17 -5.23158 0.564968 0
M  V30 11821 O 1165.19 -5.5578 1.22869 0
M  V30 11822 N 1166.39 -5.7677 -0.657022 0
M  V30 11823 H 1169.16 -2.45893 1.71338 0
M  V30 11824 H 1166.72 -1.23976 1.04122 0
M  V30 11825 H 1168.71 -4.03834 -0.264586 0
M  V30 11826 H 1167.28 -3.05441 -0.665168 0
M  V30 11827 H 1166.5 -3.51888 1.77675 0
M  V30 11828 H 1167.79 -4.73335 1.86632 0
M  V30 11829 H 1167.19 -5.52503 -1.21478 0
M  V30 11830 H 1165.74 -6.4374 -1.02186 0
M  V30 11831 N 1169.18 -0.941978 -1.26351 0
M  V30 11832 C 1170.12 -0.450906 -2.26353 0
M  V30 11833 C 1171.09 0.489857 -1.58712 0
M  V30 11834 O 1172.28 0.40589 -1.86433 0
M  V30 11835 C 1169.42 0.277054 -3.43986 0
M  V30 11836 C 1168.53 -0.699474 -4.263 0
M  V30 11837 C 1167.67 0.0497661 -5.31177 0
M  V30 11838 C 1166.71 -0.918531 -6.05169 0
M  V30 11839 N 1165.84 -0.200993 -7.01812 0
M  V30 11840 H 1170.68 -1.30861 -2.6773 0
M  V30 11841 H 1168.22 -0.656514 -1.31637 0
M  V30 11842 H 1170.18 0.715567 -4.11018 0
M  V30 11843 H 1168.81 1.09889 -3.0352 0
M  V30 11844 H 1167.86 -1.2565 -3.59049 0
M  V30 11845 H 1169.17 -1.4389 -4.77595 0
M  V30 11846 H 1168.33 0.547521 -6.04224 0
M  V30 11847 H 1167.07 0.822068 -4.80722 0
M  V30 11848 H 1166.07 -1.4274 -5.30947 0
M  V30 11849 H 1167.3 -1.69085 -6.57713 0
M  V30 11850 H 1165.24 0.552803 -6.53667 0
M  V30 11851 H 1165.16 -0.879735 -7.50864 0
M  V30 11852 H 1166.43 0.275642 -7.79012 0
M  V30 11853 N 1170.66 1.40747 -0.709091 0
M  V30 11854 C 1171.89 2.05022 -0.254887 0
M  V30 11855 C 1172.29 1.5351 1.10595 0
M  V30 11856 O 1171.64 0.683912 1.70494 0
M  V30 11857 C 1171.7 3.59188 -0.149823 0
M  V30 11858 C 1171.36 4.33557 -1.44489 0
M  V30 11859 C 1172.36 4.61941 -2.3855 0
M  V30 11860 C 1170.04 4.72585 -1.70201 0
M  V30 11861 C 1172.04 5.2833 -3.56575 0
M  V30 11862 C 1169.73 5.38707 -2.88509 0
M  V30 11863 C 1170.72 5.66509 -3.81518 0
M  V30 11864 O 1170.41 6.31267 -4.97752 0
M  V30 11865 H 1170.14 0.666405 -0.113493 0
M  V30 11866 H 1172.7 1.81261 -0.966099 0
M  V30 11867 H 1170.93 3.81742 0.617276 0
M  V30 11868 H 1172.62 4.05008 0.268965 0
M  V30 11869 H 1173.38 4.32259 -2.19947 0
M  V30 11870 H 1169.26 4.50318 -0.986628 0
M  V30 11871 H 1172.81 5.49947 -4.2919 0
M  V30 11872 H 1168.7 5.67809 -3.07023 0
M  V30 11873 H 1169.47 6.49764 -4.97745 0
M  V30 11874 N 1172.13 0.454803 1.50895 0
M  V30 11875 C 1173.38 -0.107367 2.01414 0
M  V30 11876 C 1173.7 -1.42243 1.34262 0
M  V30 11877 O 1174.9 -2.06858 1.75846 0
M  V30 11878 C 1173.36 -0.241872 3.59086 0
M  V30 11879 C 1172.97 1.06379 4.35187 0
M  V30 11880 C 1174.71 -0.756873 4.17698 0
M  V30 11881 C 1172.62 0.893973 5.84604 0
M  V30 11882 H 1171.55 -0.0439003 0.752721 0
M  V30 11883 H 1174.2 0.587225 1.7385 0
M  V30 11884 H 1172.58 -0.999873 3.83169 0
M  V30 11885 H 1173.75 1.83148 4.2284 0
M  V30 11886 H 1172.07 1.50865 3.88109 0
M  V30 11887 H 1174.67 -0.900697 5.27059 0
M  V30 11888 H 1175.01 -1.74397 3.7801 0
M  V30 11889 H 1175.54 -0.0567088 3.9776 0
M  V30 11890 H 1172.28 1.85395 6.28736 0
M  V30 11891 H 1171.8 0.166387 5.99569 0
M  V30 11892 H 1173.48 0.554084 6.44623 0
M  V30 11893 N 1173.61 -1.56489 0.186789 0
M  V30 11894 C 1174.57 -2.17478 -0.723596 0
M  V30 11895 C 1175.57 -1.12698 -1.14699 0
M  V30 11896 O 1176.76 -1.38128 -1.06143 0
M  V30 11897 C 1173.9 -2.77015 -1.98685 0
M  V30 11898 H 1175.09 -2.99282 -0.192403 0
M  V30 11899 H 1172.64 -1.56174 -0.0628153 0
M  V30 11900 H 1173.38 -1.98987 -2.56076 0
M  V30 11901 H 1173.16 -3.53711 -1.69207 0
M  V30 11902 H 1174.65 -3.23872 -2.63622 0
M  V30 11903 N 1175.09 0.086862 -1.5736 0
M  V30 11904 C 1176.02 1.13117 -1.99342 0
M  V30 11905 C 1177.03 1.35849 -0.897151 0
M  V30 11906 O 1178.22 1.34356 -1.17519 0
M  V30 11907 C 1175.32 2.48511 -2.30425 0
M  V30 11908 C 1174.5 2.45942 -3.61706 0
M  V30 11909 C 1173.56 3.63327 -3.80631 0
M  V30 11910 O 1172.58 3.45443 -4.52392 0
M  V30 11911 N 1173.78 4.83118 -3.21835 0
M  V30 11912 H 1176.55 0.773782 -2.89539 0
M  V30 11913 H 1174.11 0.275731 -1.59535 0
M  V30 11914 H 1176.1 3.25656 -2.40272 0
M  V30 11915 H 1174.67 2.76308 -1.46194 0
M  V30 11916 H 1173.89 1.54287 -3.62752 0
M  V30 11917 H 1175.18 2.41313 -4.47935 0
M  V30 11918 H 1174.58 5.00552 -2.6356 0
M  V30 11919 H 1173.13 5.57827 -3.37154 0
M  V30 11920 N 1176.57 1.53483 0.357892 0
M  V30 11921 C 1177.98 1.43426 0.700073 0
M  V30 11922 C 1178.18 0.579493 1.92987 0
M  V30 11923 O 1177.24 0.0649086 2.52417 0
M  V30 11924 C 1178.55 2.86723 0.906099 0
M  V30 11925 C 1180.1 2.96405 1.00563 0
M  V30 11926 C 1180.58 4.4078 1.24407 0
M  V30 11927 N 1182.07 4.44243 1.3116 0
M  V30 11928 C 1182.8 5.53069 1.51333 0
M  V30 11929 N 1182.3 6.71928 1.68774 0
M  V30 11930 N 1184.09 5.40659 1.53765 0
M  V30 11931 H 1176.24 2.07559 -0.450894 0
M  V30 11932 H 1178.5 0.937649 -0.139711 0
M  V30 11933 H 1178.21 3.51622 0.0741579 0
M  V30 11934 H 1178.08 3.30827 1.81199 0
M  V30 11935 H 1180.47 2.31656 1.8281 0
M  V30 11936 H 1180.55 2.55684 0.0769512 0
M  V30 11937 H 1180.2 5.06105 0.426575 0
M  V30 11938 H 1180.13 4.7908 2.18608 0
M  V30 11939 H 1182.62 3.58587 1.19265 0
M  V30 11940 H 1182.93 7.50634 1.83762 0
M  V30 11941 H 1181.28 6.749 1.65937 0
M  V30 11942 H 1184.47 4.46764 1.39713 0
M  V30 11943 H 1184.64 6.25535 1.69146 0
M  V30 11944 N 1178.05 -0.61812 1.44973 0
M  V30 11945 C 1178.99 -1.72942 1.52838 0
M  V30 11946 C 1179.96 -1.6181 0.375056 0
M  V30 11947 O 1181.15 -1.81544 0.587075 0
M  V30 11948 C 1178.29 -3.11228 1.49101 0
M  V30 11949 C 1177.4 -3.33243 2.74906 0
M  V30 11950 C 1176.54 -4.61574 2.62912 0
M  V30 11951 C 1175.57 -4.76811 3.8382 0
M  V30 11952 N 1174.71 -5.96432 3.70424 0
M  V30 11953 H 1179.55 -1.65556 2.47781 0
M  V30 11954 H 1177.09 -0.807411 1.2296 0
M  V30 11955 H 1179.05 -3.9122 1.44923 0
M  V30 11956 H 1177.68 -3.17598 0.577163 0
M  V30 11957 H 1176.73 -2.471 2.89216 0
M  V30 11958 H 1178.04 -3.40377 3.64616 0
M  V30 11959 H 1177.19 -5.49746 2.56641 0
M  V30 11960 H 1175.93 -4.5682 1.70784 0
M  V30 11961 H 1174.94 -3.87066 3.90461 0
M  V30 11962 H 1176.16 -4.83371 4.77001 0
M  V30 11963 H 1174.11 -5.92742 2.81057 0
M  V30 11964 H 1174.03 -6.0468 4.5376 0
M  V30 11965 H 1175.29 -6.8713 3.68067 0
M  V30 11966 N 1179.52 -1.32087 -0.859693 0
M  V30 11967 C 1180.77 -1.23551 -1.61575 0
M  V30 11968 C 1181.12 0.20199 -1.91337 0
M  V30 11969 O 1180.42 1.13834 -1.54118 0
M  V30 11970 C 1180.61 -2.0234 -2.94607 0
M  V30 11971 C 1180.44 -3.53606 -2.77836 0
M  V30 11972 C 1179.21 -4.22948 -2.76483 0
M  V30 11973 C 1181.41 -4.48356 -2.51955 0
M  V30 11974 N 1179.39 -5.60301 -2.5087 0
M  V30 11975 C 1180.76 -5.7345 -2.35702 0
M  V30 11976 C 1182.82 -4.37669 -2.37383 0
M  V30 11977 C 1181.52 -6.89064 -2.06357 0
M  V30 11978 C 1183.55 -5.53077 -2.09427 0
M  V30 11979 C 1182.91 -6.77167 -1.93971 0
M  V30 11980 H 1179.01 -0.507252 -0.595164 0
M  V30 11981 H 1181.59 -1.66395 -1.01098 0
M  V30 11982 H 1179.76 -1.6185 -3.53071 0
M  V30 11983 H 1181.49 -1.8574 -3.59559 0
M  V30 11984 H 1178.25 -3.75017 -2.89239 0
M  V30 11985 H 1178.67 -6.32649 -2.41006 0
M  V30 11986 H 1183.31 -3.42386 -2.48056 0
M  V30 11987 H 1181.03 -7.84363 -1.94421 0
M  V30 11988 H 1184.62 -5.46731 -1.98937 0
M  V30 11989 H 1183.5 -7.64959 -1.72646 0
M  V30 11990 N 1181 1.07532 -1.15215 0
M  V30 11991 C 1181.95 2.14687 -0.847243 0
M  V30 11992 C 1182.92 1.64903 0.199043 0
M  V30 11993 O 1184.1 1.90682 0.0669986 0
M  V30 11994 C 1181.24 3.43414 -0.340673 0
M  V30 11995 C 1180.36 4.06999 -1.44831 0
M  V30 11996 C 1179.49 5.23554 -0.898059 0
M  V30 11997 C 1178.53 5.79097 -1.98276 0
M  V30 11998 N 1177.67 6.86985 -1.44902 0
M  V30 11999 H 1182.51 2.4011 -1.76498 0
M  V30 12000 H 1180.04 1.17823 -0.880689 0
M  V30 12001 H 1182 4.1719 -0.0286956 0
M  V30 12002 H 1180.63 3.18249 0.540144 0
M  V30 12003 H 1179.68 3.30895 -1.87651 0
M  V30 12004 H 1181 4.44289 -2.26735 0
M  V30 12005 H 1180.15 6.04305 -0.538514 0
M  V30 12006 H 1178.89 4.87676 -0.0481752 0
M  V30 12007 H 1177.89 4.96992 -2.35115 0
M  V30 12008 H 1179.12 6.1703 -2.83639 0
M  V30 12009 H 1177.07 6.5305 -0.621468 0
M  V30 12010 H 1176.98 7.23149 -2.20434 0
M  V30 12011 H 1178.25 7.71446 -1.11767 0
M  V30 12012 N 1182.48 0.948665 1.2585 0
M  V30 12013 C 1183.43 0.462904 2.2611 0
M  V30 12014 C 1184.4 -0.481433 1.5897 0
M  V30 12015 O 1185.58 -0.395997 1.86645 0
M  V30 12016 C 1182.72 -0.258808 3.44128 0
M  V30 12017 C 1181.84 0.722072 4.25923 0
M  V30 12018 C 1180.97 -0.0215958 5.31196 0
M  V30 12019 C 1180.01 0.950612 6.04673 0
M  V30 12020 N 1179.15 0.238209 7.01696 0
M  V30 12021 H 1183.99 1.32279 2.67032 0
M  V30 12022 H 1181.52 0.663485 1.31287 0
M  V30 12023 H 1183.48 -0.693759 4.11391 0
M  V30 12024 H 1182.11 -1.08278 3.04098 0
M  V30 12025 H 1181.16 1.27552 3.58378 0
M  V30 12026 H 1182.48 1.46421 4.76825 0
M  V30 12027 H 1181.63 -0.51547 6.04506 0
M  V30 12028 H 1180.37 -0.796563 4.81151 0
M  V30 12029 H 1179.37 1.45554 5.30183 0
M  V30 12030 H 1180.6 1.72571 6.56808 0
M  V30 12031 H 1178.54 -0.518129 6.53951 0
M  V30 12032 H 1178.46 0.919542 7.50387 0
M  V30 12033 H 1179.73 -0.234325 7.79148 0
M  V30 12034 N 1183.96 -1.40369 0.716545 0
M  V30 12035 C 1184.91 -2.27963 0.0410169 0
M  V30 12036 C 1185.89 -1.43307 -0.731575 0
M  V30 12037 O 1187.08 -1.66389 -0.603618 0
M  V30 12038 C 1184.21 -3.31849 -0.87927 0
M  V30 12039 C 1183.3 -4.23978 -0.101813 0
M  V30 12040 N 1183.69 -4.97447 0.915437 0
M  V30 12041 C 1181.99 -4.44746 -0.334227 0
M  V30 12042 C 1182.69 -5.65029 1.38266 0
M  V30 12043 N 1181.67 -5.39014 0.704642 0
M  V30 12044 H 1185.47 -2.8221 0.820653 0
M  V30 12045 H 1182.98 -1.52831 0.549217 0
M  V30 12046 H 1184.98 -3.93448 -1.37855 0
M  V30 12047 H 1183.64 -2.79162 -1.65827 0
M  V30 12048 H 1184.65 -5.01414 1.29631 0
M  V30 12049 H 1181.33 -4.03034 -1.08948 0
M  V30 12050 H 1182.72 -6.33886 2.22797 0
M  V30 12051 N 1185.44 -0.462799 -1.50652 0
M  V30 12052 C 1186.68 0.0950445 -2.02277 0
M  V30 12053 C 1187.01 1.40465 -1.34536 0
M  V30 12054 O 1186.27 1.90283 -0.457279 0
M  V30 12055 C 1186.57 0.335294 -3.55824 0
M  V30 12056 C 1186.23 -0.891589 -4.41997 0
M  V30 12057 C 1184.89 -1.22799 -4.65268 0
M  V30 12058 C 1187.25 -1.70885 -4.9239 0
M  V30 12059 C 1184.57 -2.38186 -5.36175 0
M  V30 12060 C 1186.93 -2.85394 -5.64564 0
M  V30 12061 C 1185.59 -3.19458 -5.86091 0
M  V30 12062 H 1184.86 0.0347793 -0.740183 0
M  V30 12063 H 1187.51 -0.61519 -1.8135 0
M  V30 12064 H 1185.81 1.12769 -3.7522 0
M  V30 12065 H 1187.51 0.780752 -3.93326 0
M  V30 12066 H 1184.1 -0.619495 -4.24099 0
M  V30 12067 H 1188.28 -1.46215 -4.74273 0
M  V30 12068 H 1183.54 -2.64862 -5.51052 0
M  V30 12069 H 1187.71 -3.49073 -6.02595 0
M  V30 12070 H 1185.34 -4.08978 -6.40813 0
M  V30 12071 N 1186.91 1.56388 -0.195085 0
M  V30 12072 C 1188.14 2.0167 0.448637 0
M  V30 12073 C 1188.55 1.07439 1.55736 0
M  V30 12074 O 1187.9 0.071441 1.83561 0
M  V30 12075 C 1187.96 3.43348 1.06547 0
M  V30 12076 C 1187.62 4.569 0.0954901 0
M  V30 12077 C 1188.62 5.15232 -0.695116 0
M  V30 12078 C 1186.3 5.02298 -0.0155889 0
M  V30 12079 C 1188.3 6.1741 -1.58377 0
M  V30 12080 C 1185.98 6.0432 -0.907799 0
M  V30 12081 C 1186.98 6.6175 -1.69045 0
M  V30 12082 O 1186.67 7.6179 -2.56771 0
M  V30 12083 H 1186.4 0.665805 0.116962 0
M  V30 12084 H 1188.96 2.03182 -0.301062 0
M  V30 12085 H 1187.19 3.38823 1.86376 0
M  V30 12086 H 1188.88 3.72438 1.61385 0
M  V30 12087 H 1189.64 4.81026 -0.619604 0
M  V30 12088 H 1185.52 4.57293 0.583424 0
M  V30 12089 H 1189.06 6.62164 -2.1951 0
M  V30 12090 H 1184.96 6.37949 -0.984427 0
M  V30 12091 H 1185.73 7.79209 -2.50551 0
M  V30 12092 N 1188.39 -0.0785156 1.57404 0
M  V30 12093 C 1189.64 -0.780092 1.87196 0
M  V30 12094 C 1189.97 -1.77562 0.78647 0
M  V30 12095 O 1189.25 -1.93428 -0.203935 0
M  V30 12096 C 1189.53 -1.49408 3.27642 0
M  V30 12097 C 1189.38 -0.515416 4.46837 0
M  V30 12098 C 1190.7 -2.44064 3.66225 0
M  V30 12099 H 1187.82 -0.282134 0.680859 0
M  V30 12100 H 1190.46 -0.0433926 1.8995 0
M  V30 12101 H 1188.61 -2.12205 3.25425 0
M  V30 12102 H 1190.28 0.106827 4.61176 0
M  V30 12103 H 1188.53 0.169832 4.33467 0
M  V30 12104 H 1189.2 -1.05247 5.41874 0
M  V30 12105 H 1191.67 -1.91349 3.69493 0
M  V30 12106 H 1190.55 -2.91029 4.65396 0
M  V30 12107 H 1190.81 -3.28569 2.95796 0
M  V30 12108 N 1189.87 -1.5367 -0.349747 0
M  V30 12109 C 1191.12 -1.7087 -1.0923 0
M  V30 12110 C 1191.45 -0.467299 -1.88494 0
M  V30 12111 O 1190.72 0.535619 -1.8698 0
M  V30 12112 C 1191.01 -2.9684 -2.03858 0
M  V30 12113 C 1190.86 -4.31174 -1.28097 0
M  V30 12114 C 1192.18 -3.18459 -3.03763 0
M  V30 12115 H 1189.3 -0.621757 -0.395711 0
M  V30 12116 H 1191.94 -1.86333 -0.371481 0
M  V30 12117 H 1190.09 -2.83788 -2.65323 0
M  V30 12118 H 1191.76 -4.56066 -0.692933 0
M  V30 12119 H 1190.01 -4.29866 -0.582924 0
M  V30 12120 H 1190.68 -5.15482 -1.9744 0
M  V30 12121 H 1193.15 -3.30801 -2.52409 0
M  V30 12122 H 1192.03 -4.08006 -3.67182 0
M  V30 12123 H 1192.29 -2.34467 -3.74803 0
M  V30 12124 N 1191.35 0.610423 -1.45298 0
M  V30 12125 C 1192.58 1.39621 -1.52688 0
M  V30 12126 C 1192.99 1.88133 -0.158535 0
M  V30 12127 O 1192.35 1.62051 0.839396 0
M  V30 12128 C 1192.4 2.60261 -2.50891 0
M  V30 12129 O 1192.12 2.13766 -3.82408 0
M  V30 12130 C 1193.62 3.53154 -2.6795 0
M  V30 12131 H 1190.84 0.427493 -0.517195 0
M  V30 12132 H 1193.39 0.744701 -1.90459 0
M  V30 12133 H 1191.54 3.2146 -2.162 0
M  V30 12134 H 1191.95 2.92128 -4.35616 0
M  V30 12135 H 1193.43 4.34355 -3.40647 0
M  V30 12136 H 1193.91 4.03311 -1.73888 0
M  V30 12137 H 1194.51 2.9781 -3.03627 0
M  V30 12138 N 1192.83 1.32541 0.852676 0
M  V30 12139 C 1193.79 1.21578 1.94297 0
M  V30 12140 C 1194.79 0.138318 1.60204 0
M  V30 12141 O 1195.98 0.388864 1.69804 0
M  V30 12142 C 1193.11 0.870209 3.29606 0
M  V30 12143 H 1194.3 2.18476 2.05446 0
M  V30 12144 H 1191.86 1.16401 1.0431 0
M  V30 12145 H 1192.59 -0.0968698 3.24155 0
M  V30 12146 H 1192.38 1.64924 3.55728 0
M  V30 12147 H 1193.87 0.817874 4.09513 0
M  V30 12148 N 1194.3 -1.0692 1.15784 0
M  V30 12149 C 1195.27 -2.12407 0.861167 0
M  V30 12150 C 1196.27 -1.6018 -0.141031 0
M  V30 12151 O 1197.46 -1.73972 0.0891192 0
M  V30 12152 C 1194.59 -3.39693 0.286636 0
M  V30 12153 H 1195.78 -2.40157 1.79623 0
M  V30 12154 H 1193.34 -1.22881 0.965916 0
M  V30 12155 H 1194.07 -3.17587 -0.656417 0
M  V30 12156 H 1193.86 -3.78903 1.0087 0
M  V30 12157 H 1195.35 -4.17488 0.0967971 0
M  V30 12158 N 1195.78 -0.955326 -1.25345 0
M  V30 12159 C 1196.73 -0.467205 -2.2786 0
M  V30 12160 C 1197.72 0.462873 -1.62954 0
M  V30 12161 O 1198.93 0.339526 -1.76769 0
M  V30 12162 H 1195.31 -0.132586 -0.74022 0
M  V30 12163 H 1197.28 -1.34406 -2.66416 0
M  V30 12164 C 1196.03 0.238898 -3.46878 0
M  V30 12165 H 1195.35 -0.467644 -3.97056 0
M  V30 12166 H 1196.79 0.544444 -4.2049 0
M  V30 12167 C 1195.25 1.46164 -3.03542 0
M  V30 12168 O 1195.78 2.55933 -3.09615 0
M  V30 12169 N 1193.98 1.32324 -2.58725 0
M  V30 12170 H 1193.53 0.430131 -2.53984 0
M  V30 12171 H 1193.49 2.14253 -2.30094 0
M  V30 12172 N 1197.26 1.39987 -0.723979 0
M  V30 12173 C 1198.68 1.54547 -0.398403 0
M  V30 12174 C 1198.88 1.69348 1.09194 0
M  V30 12175 O 1197.93 1.68778 1.87804 0
M  V30 12176 C 1199.25 2.76929 -1.1718 0
M  V30 12177 C 1200.79 2.90754 -1.15893 0
M  V30 12178 C 1201.27 4.16059 -1.91465 0
M  V30 12179 N 1202.76 4.23076 -1.88576 0
M  V30 12180 C 1203.5 5.18957 -2.43867 0
M  V30 12181 N 1202.99 6.20695 -3.0775 0
M  V30 12182 N 1204.78 5.11095 -2.33962 0
M  V30 12183 H 1196.94 1.28626 -1.69024 0
M  V30 12184 H 1199.2 0.6226 -0.714894 0
M  V30 12185 H 1198.9 2.72298 -2.22591 0
M  V30 12186 H 1198.78 3.69279 -0.768941 0
M  V30 12187 H 1201.17 2.94884 -0.112978 0
M  V30 12188 H 1201.25 1.99498 -1.60107 0
M  V30 12189 H 1200.89 4.12691 -2.96055 0
M  V30 12190 H 1200.82 5.06339 -1.44665 0
M  V30 12191 H 1203.31 3.50195 -1.42027 0
M  V30 12192 H 1203.62 6.90296 -3.47435 0
M  V30 12193 H 1201.97 6.21114 -3.11837 0
M  V30 12194 H 1205.16 4.30546 -1.83706 0
M  V30 12195 H 1205.33 5.85644 -2.77353 0
M  V30 12196 N 1198.74 0.470782 1.50404 0
M  V30 12197 C 1199.67 -0.313458 2.31386 0
M  V30 12198 C 1200.65 -0.990623 1.38278 0
M  V30 12199 O 1201.84 -0.987854 1.67198 0
M  V30 12200 C 1198.97 -1.39599 3.18009 0
M  V30 12201 C 1197.92 -0.840443 4.19667 0
M  V30 12202 C 1197.25 -2.02124 4.95025 0
M  V30 12203 C 1198.55 0.148055 5.2209 0
M  V30 12204 H 1200.24 0.362432 2.97198 0
M  V30 12205 H 1197.79 0.175745 1.42924 0
M  V30 12206 H 1199.74 -1.9521 3.73458 0
M  V30 12207 H 1198.46 -2.10064 2.50081 0
M  V30 12208 H 1197.12 -0.306302 3.65318 0
M  V30 12209 H 1196.77 -2.71286 4.23571 0
M  V30 12210 H 1196.47 -1.65574 5.6379 0
M  V30 12211 H 1197.99 -2.58226 5.5331 0
M  V30 12212 H 1199.41 -0.318874 5.72413 0
M  V30 12213 H 1197.8 0.427811 5.98573 0
M  V30 12214 H 1198.87 1.07404 4.72855 0
M  V30 12215 N 1200.22 -1.56282 0.203376 0
M  V30 12216 C 1201.63 -1.58871 -0.152335 0
M  V30 12217 C 1201.83 -1.21978 -1.60386 0
M  V30 12218 O 1200.89 -0.946422 -2.34092 0
M  V30 12219 C 1202.2 -3.00287 0.157515 0
M  V30 12220 C 1203.75 -3.12846 0.098287 0
M  V30 12221 C 1204.23 -4.56408 0.38156 0
M  V30 12222 N 1205.72 -4.6202 0.330475 0
M  V30 12223 C 1206.45 -5.71006 0.523397 0
M  V30 12224 N 1205.95 -6.88428 0.777115 0
M  V30 12225 N 1207.74 -5.60238 0.457082 0
M  V30 12226 H 1199.89 -1.78543 1.15048 0
M  V30 12227 H 1202.15 -0.829019 0.459816 0
M  V30 12228 H 1201.86 -3.3187 1.16427 0
M  V30 12229 H 1201.73 -3.73372 -0.536041 0
M  V30 12230 H 1204.12 -2.8107 -0.899085 0
M  V30 12231 H 1204.2 -2.42129 0.825045 0
M  V30 12232 H 1203.85 -4.88897 1.37629 0
M  V30 12233 H 1203.78 -5.25325 -0.366182 0
M  V30 12234 H 1206.27 -3.77636 0.141327 0
M  V30 12235 H 1206.58 -7.67389 0.912911 0
M  V30 12236 H 1204.93 -6.90215 0.814104 0
M  V30 12237 H 1208.12 -4.67382 0.259226 0
M  V30 12238 H 1208.29 -6.45114 0.610848 0
M  V30 12239 N 1201.7 0.070167 -1.57444 0
M  V30 12240 C 1202.64 1.08322 -2.03801 0
M  V30 12241 C 1203.61 1.38364 -0.918946 0
M  V30 12242 O 1204.8 1.49404 -1.18672 0
M  V30 12243 C 1201.94 2.39128 -2.48821 0
M  V30 12244 C 1201.05 2.15603 -3.74352 0
M  V30 12245 C 1200.19 3.39984 -4.08148 0
M  V30 12246 C 1199.22 3.1183 -5.26715 0
M  V30 12247 N 1198.36 4.28546 -5.56141 0
M  V30 12248 H 1203.2 0.680931 -2.90116 0
M  V30 12249 H 1200.74 0.324657 -1.43473 0
M  V30 12250 H 1202.7 3.15501 -2.72975 0
M  V30 12251 H 1201.33 2.77157 -1.65481 0
M  V30 12252 H 1200.38 1.29915 -3.57528 0
M  V30 12253 H 1201.69 1.90808 -4.60862 0
M  V30 12254 H 1200.84 4.2475 -4.33211 0
M  V30 12255 H 1199.58 3.67856 -3.20208 0
M  V30 12256 H 1198.59 2.2546 -5.01446 0
M  V30 12257 H 1199.81 2.85278 -6.16273 0
M  V30 12258 H 1197.76 4.56447 -4.71161 0
M  V30 12259 H 1197.68 4.0703 -6.37073 0
M  V30 12260 H 1198.94 5.14305 -5.85757 0
M  V30 12261 N 1203.17 1.53854 0.341593 0
M  V30 12262 C 1204.42 1.71194 1.08162 0
M  V30 12263 C 1204.75 0.47614 1.88582 0
M  V30 12264 O 1204 -0.542115 1.88041 0
M  V30 12265 C 1204.3 2.92844 2.04884 0
M  V30 12266 C 1203.97 4.28366 1.40759 0
M  V30 12267 C 1202.63 4.65214 1.23 0
M  V30 12268 C 1204.98 5.12546 0.945819 0
M  V30 12269 C 1202.31 5.83857 0.576852 0
M  V30 12270 C 1204.66 6.31857 0.306568 0
M  V30 12271 C 1203.33 6.67398 0.116677 0
M  V30 12272 H 1202.6 0.626442 0.395792 0
M  V30 12273 H 1205.24 1.88073 0.360688 0
M  V30 12274 H 1203.55 2.70576 2.83365 0
M  V30 12275 H 1205.25 3.03454 2.62139 0
M  V30 12276 H 1201.84 3.99366 1.5558 0
M  V30 12277 H 1206.02 4.84609 1.07087 0
M  V30 12278 H 1201.28 6.09967 0.418363 0
M  V30 12279 H 1205.45 6.96375 -0.0593285 0
M  V30 12280 H 1203.08 7.59191 -0.391477 0
M  V30 12281 N 1204.65 -0.602709 1.4562 0
M  V30 12282 C 1206.06 -1.1847 1.44297 0
M  V30 12283 C 1206.41 -1.95434 0.17316 0
M  V30 12284 O 1205.54 -2.03894 -0.724986 0
M  V30 12285 C 1206.13 -2.15508 2.61422 0
M  V30 12286 C 1204.69 -2.69073 2.63204 0
M  V30 12287 C 1203.84 -1.44568 2.36633 0
M  V30 12288 H 1206.79 -0.391745 1.53789 0
M  V30 12289 H 1206.81 -2.98628 2.35799 0
M  V30 12290 H 1206.32 -1.59464 3.53826 0
M  V30 12291 H 1204.42 -3.29042 1.7482 0
M  V30 12292 H 1204.54 -3.13173 3.62573 0
M  V30 12293 H 1202.9 -1.73692 1.86287 0
M  V30 12294 H 1203.68 -0.903852 3.31188 0
M  V30 12295 N 1206.13 -1.32992 -0.845635 0
M  V30 12296 C 1207.36 -1.27087 -1.63268 0
M  V30 12297 C 1207.77 0.159481 -1.88125 0
M  V30 12298 O 1207.13 1.09948 -1.45663 0
M  V30 12299 C 1207.18 -2.03649 -2.98679 0
M  V30 12300 O 1206.9 -3.41104 -2.74918 0
M  V30 12301 C 1208.4 -2.04875 -3.93117 0
M  V30 12302 H 1205.62 -0.438107 -0.508236 0
M  V30 12303 H 1208.17 -1.75257 -1.05381 0
M  V30 12304 H 1206.32 -1.59178 -3.53187 0
M  V30 12305 H 1206.74 -3.80405 -3.61099 0
M  V30 12306 H 1208.21 -2.62911 -4.85368 0
M  V30 12307 H 1208.69 -1.03728 -4.26775 0
M  V30 12308 H 1209.29 -2.49334 -3.44547 0
M  V30 12309 N 1207.61 1.06304 -1.1635 0
M  V30 12310 C 1208.83 1.83338 -0.969639 0
M  V30 12311 C 1209.26 1.81945 0.477231 0
M  V30 12312 O 1208.62 1.22018 1.34094 0
M  V30 12313 C 1208.66 3.2785 -1.50155 0
M  V30 12314 O 1207.77 4.06281 -0.707805 0
M  V30 12315 H 1207.11 0.567293 -0.345072 0
M  V30 12316 H 1209.64 1.34033 -1.54584 0
M  V30 12317 H 1209.65 3.7867 -1.51898 0
M  V30 12318 H 1208.32 3.28179 -2.55483 0
M  V30 12319 H 1206.9 3.65055 -0.760872 0
M  V30 12320 N 1209.09 0.96196 1.24836 0
M  V30 12321 C 1210.5 0.660388 1.7463 0
M  V30 12322 C 1210.85 -0.824064 1.78055 0
M  V30 12323 O 1209.97 -1.64485 1.40619 0
M  V30 12324 C 1210.57 1.19205 3.17137 0
M  V30 12325 C 1209.13 0.940493 3.64461 0
M  V30 12326 C 1208.27 1.33076 2.43282 0
M  V30 12327 H 1211.22 1.13794 1.1062 0
M  V30 12328 H 1211.25 0.555595 3.76422 0
M  V30 12329 H 1210.76 2.27247 3.14612 0
M  V30 12330 H 1208.86 -0.124645 3.72391 0
M  V30 12331 H 1208.97 1.5821 4.52224 0
M  V30 12332 H 1207.34 0.749139 2.43434 0
M  V30 12333 H 1208.12 2.42055 2.43442 0
M  V30 12334 O 1210.6 -1.36112 0.869244 0
M  V30 12335 H 1211.29 -1.87947 0.468586 0
M  V30 END ATOM
M  V30 BEGIN BOND
M  V30 END BOND
M  V30 END CTAB
M  END
$$$$
