drugbank_target|Q34522 NADH-ubiquinone oxidoreductase chain 3 (DB12245)
 OpenBabel12092121193D

  0  0  0     0  0            999 V3000
M  V30 BEGIN CTAB
M  V30 COUNTS 2007 2042 0 0 0
M  V30 BEGIN ATOM
M  V30 1 H -0.908 1.98254 -0.117106 0
M  V30 2 N 0 1.576 0 0
M  V30 3 C 0.933 2.03868 1.02534 0
M  V30 4 C 1.911 0.928543 1.3348 0
M  V30 5 O 3.095 1.19667 1.45644 0
M  V30 6 C 0.222 2.43627 2.35294 0
M  V30 7 C -0.732 3.65373 2.2001 0
M  V30 8 S 0.101 5.13292 1.52614 0
M  V30 9 C 1.257 5.56322 2.86805 0
M  V30 10 H 1.49 2.90518 0.631377 0
M  V30 11 H -0.977 1.52953 0.210867 0
M  V30 12 H 0.981 2.67203 3.11629 0
M  V30 13 H -0.358 1.57376 2.7183 0
M  V30 14 H -1.165 3.90944 3.18086 0
M  V30 15 H -1.563 3.418 1.51819 0
M  V30 16 H 0.729 5.58782 3.83104 0
M  V30 17 H 1.672 6.56266 2.65933 0
M  V30 18 H 2.08 4.83886 2.90714 0
M  V30 19 N 1.4781 -0.272755 1.55222 0
M  V30 20 C 2.4081 -1.34136 1.91127 0
M  V30 21 C 3.3891 -1.51513 0.773168 0
M  V30 22 O 4.5741 -1.64552 1.03132 0
M  V30 23 C 1.7041 -2.70083 2.1834 0
M  V30 24 C 0.6581 -2.67437 3.34158 0
M  V30 25 C -0.0159 -4.06938 3.46851 0
M  V30 26 C 1.2841 -2.26686 4.70543 0
M  V30 27 H 2.9781 -1.04333 2.80633 0
M  V30 28 H 0.5241 -0.500454 1.35024 0
M  V30 29 H 2.4771 -3.44952 2.42046 0
M  V30 30 H 1.2011 -3.01469 1.25634 0
M  V30 31 H -0.1399 -1.95026 3.1042 0
M  V30 32 H -0.4919 -4.35547 2.51611 0
M  V30 33 H -0.7919 -4.06062 4.2472 0
M  V30 34 H 0.7321 -4.83545 3.72849 0
M  V30 35 H 2.1461 -2.91277 4.93792 0
M  V30 36 H 0.5431 -2.36971 5.5133 0
M  V30 37 H 1.6131 -1.21818 4.69349 0
M  V30 38 N 2.9562 -1.48159 -0.537278 0
M  V30 39 C 4.2032 -1.55804 -1.29349 0
M  V30 40 C 4.5312 -0.228802 -1.9315 0
M  V30 41 O 3.7862 0.780242 -1.79473 0
M  V30 42 C 4.0852 -2.63956 -2.40961 0
M  V30 43 C 3.7512 -4.0662 -1.94861 0
M  V30 44 C 2.4132 -4.45452 -1.82006 0
M  V30 45 C 4.7652 -4.96055 -1.59933 0
M  V30 46 C 2.0932 -5.71531 -1.32547 0
M  V30 47 C 4.4452 -6.22617 -1.11939 0
M  V30 48 C 3.1092 -6.60312 -0.976951 0
M  V30 49 H 2.3792 -0.570129 -0.473322 0
M  V30 50 H 5.0262 -1.81845 -0.600372 0
M  V30 51 H 3.3312 -2.31747 -3.15912 0
M  V30 52 H 5.0282 -2.67089 -2.99107 0
M  V30 53 H 1.6182 -3.75949 -2.05815 0
M  V30 54 H 5.8022 -4.66738 -1.68728 0
M  V30 55 H 1.0582 -5.99468 -1.202 0
M  V30 56 H 5.2322 -6.91318 -0.839811 0
M  V30 57 H 2.8592 -7.57895 -0.591501 0
M  V30 58 N 4.4343 0.785586 -1.36625 0
M  V30 59 C 5.6813 1.54362 -1.31067 0
M  V30 60 C 6.0093 1.94195 0.10893 0
M  V30 61 O 5.2643 1.63262 1.07908 0
M  V30 62 C 5.5633 2.83007 -2.1827 0
M  V30 63 C 5.2293 2.62294 -3.6676 0
M  V30 64 C 3.8913 2.56353 -4.0723 0
M  V30 65 C 6.2433 2.43371 -4.6089 0
M  V30 66 C 3.5713 2.29461 -5.39967 0
M  V30 67 C 5.9233 2.18005 -5.93849 0
M  V30 68 C 4.5873 2.105 -6.3344 0
M  V30 69 H 3.8573 0.564851 -0.479609 0
M  V30 70 H 6.5043 0.906028 -1.68711 0
M  V30 71 H 4.8093 3.51253 -1.73576 0
M  V30 72 H 6.5063 3.40817 -2.11292 0
M  V30 73 H 3.0963 2.67774 -3.34656 0
M  V30 74 H 7.2803 2.46959 -4.30494 0
M  V30 75 H 2.5363 2.22135 -5.69619 0
M  V30 76 H 6.7103 2.02359 -6.66351 0
M  V30 77 H 4.3373 1.89425 -7.36222 0
M  V30 78 N 5.9124 1.20967 1.01018 0
M  V30 79 C 6.8754 0.965918 2.07853 0
M  V30 80 C 7.8754 -0.0610545 1.60684 0
M  V30 81 O 9.0654 0.175681 1.73312 0
M  V30 82 C 6.1974 0.455513 3.37843 0
M  V30 83 H 7.3904 1.91365 2.3091 0
M  V30 84 H 4.9434 1.02594 1.17916 0
M  V30 85 H 5.6784 -0.497381 3.20463 0
M  V30 86 H 5.4634 1.19622 3.73407 0
M  V30 87 H 6.9534 0.304667 4.16487 0
M  V30 88 N 7.3905 -1.2043 1.01659 0
M  V30 89 C 8.6365 -1.90079 0.706963 0
M  V30 90 C 8.9695 -1.78648 -0.761474 0
M  V30 91 O 8.2445 -1.17069 -1.55323 0
M  V30 92 C 8.5275 -3.41469 1.14327 0
M  V30 93 C 8.3805 -3.61833 2.67201 0
M  V30 94 C 9.6995 -4.34261 0.714529 0
M  V30 95 H 6.8185 -0.690254 0.2583 0
M  V30 96 H 9.4605 -1.41826 1.26433 0
M  V30 97 H 7.6105 -3.82696 0.669056 0
M  V30 98 H 9.2825 -3.2986 3.22475 0
M  V30 99 H 7.5255 -3.05304 3.08175 0
M  V30 100 H 8.1965 -4.67955 2.92783 0
M  V30 101 H 10.6725 -4.00682 1.12221 0
M  V30 102 H 9.5485 -5.38806 1.04784 0
M  V30 103 H 9.8095 -4.40431 -0.383799 0
M  V30 104 N 8.8686 -0.792821 -1.36206 0
M  V30 105 C 9.7986 -0.207853 -2.32573 0
M  V30 106 C 10.7796 0.659055 -1.56813 0
M  V30 107 O 11.9646 0.592176 -1.84951 0
M  V30 108 C 9.0946 0.655449 -3.41059 0
M  V30 109 C 8.0486 -0.111842 -4.27854 0
M  V30 110 C 7.3746 0.872274 -5.27537 0
M  V30 111 C 8.6746 -1.30299 -5.05786 0
M  V30 112 H 10.3686 -1.01294 -2.81744 0
M  V30 113 H 7.9146 -0.48854 -1.3546 0
M  V30 114 H 9.8676 1.07464 -4.07467 0
M  V30 115 H 8.5916 1.49328 -2.90463 0
M  V30 116 H 7.2506 -0.512053 -3.63006 0
M  V30 117 H 6.8986 1.70523 -4.73214 0
M  V30 118 H 6.5986 0.363291 -5.86476 0
M  V30 119 H 8.1226 1.28996 -5.96818 0
M  V30 120 H 9.5366 -0.959379 -5.65216 0
M  V30 121 H 7.9336 -1.7455 -5.74154 0
M  V30 122 H 9.0036 -2.09663 -4.37229 0
M  V30 123 N 10.3467 1.47872 -0.545128 0
M  V30 124 C 11.5947 2.02093 -0.016553 0
M  V30 125 C 11.9157 1.42305 1.3332 0
M  V30 126 O 11.1857 0.593853 1.86682 0
M  V30 127 H 9.7657 0.746993 -0.00313038 0
M  V30 128 H 12.4277 1.81414 -0.712397 0
M  V30 129 H 11.5237 3.11996 0.0805422 0
M  V30 130 N 11.8248 0.280983 1.55075 0
M  V30 131 C 12.7548 -0.597469 2.25727 0
M  V30 132 C 13.7358 -1.15417 1.24952 0
M  V30 133 O 14.9208 -1.18722 1.53684 0
M  V30 134 C 12.0508 -1.7789 2.98283 0
M  V30 135 C 11.0048 -1.35347 4.06036 0
M  V30 136 C 10.3308 -2.61846 4.66198 0
M  V30 137 C 11.6308 -0.499354 5.19907 0
M  V30 138 H 13.3248 -0.00824265 2.99399 0
M  V30 139 H 10.8708 -0.0025244 1.44 0
M  V30 140 H 12.8238 -2.39937 3.46422 0
M  V30 141 H 11.5478 -2.39405 2.22155 0
M  V30 142 H 10.2068 -0.756156 3.58717 0
M  V30 143 H 9.8548 -3.21632 3.86732 0
M  V30 144 H 9.5548 -2.3409 5.38958 0
M  V30 145 H 11.0788 -3.24732 5.1709 0
M  V30 146 H 12.4928 -1.02498 5.64063 0
M  V30 147 H 10.8898 -0.316424 5.99265 0
M  V30 148 H 11.9598 0.480459 4.82514 0
M  V30 149 N 13.3029 -1.57598 0.00835791 0
M  V30 150 C 14.2329 -2.1198 -0.979113 0
M  V30 151 C 15.2139 -1.03091 -1.35301 0
M  V30 152 O 16.3989 -1.30818 -1.43528 0
M  V30 153 C 13.5289 -2.62995 -2.26828 0
M  V30 154 C 12.4829 -3.76485 -2.03576 0
M  V30 155 C 11.8089 -4.13846 -3.38579 0
M  V30 156 C 13.1089 -5.0342 -1.39161 0
M  V30 157 H 14.8029 -2.94738 -0.526281 0
M  V30 158 H 12.3489 -1.41783 -0.251704 0
M  V30 159 H 14.3019 -2.99669 -2.96271 0
M  V30 160 H 13.0259 -1.7737 -2.7424 0
M  V30 161 H 11.6849 -3.40217 -1.36557 0
M  V30 162 H 11.3329 -3.25232 -3.83709 0
M  V30 163 H 11.0329 -4.90312 -3.23834 0
M  V30 164 H 12.5569 -4.53086 -4.09323 0
M  V30 165 H 13.9709 -5.37812 -1.98573 0
M  V30 166 H 12.3679 -5.84746 -1.34878 0
M  V30 167 H 13.4379 -4.83548 -0.361868 0
M  V30 168 N 14.781 0.264519 -1.55364 0
M  V30 169 C 16.028 0.994986 -1.7637 0
M  V30 170 C 16.356 1.85976 -0.5695 0
M  V30 171 O 15.611 1.90509 0.44776 0
M  V30 172 C 15.91 1.9004 -3.02687 0
M  V30 173 C 15.576 1.19243 -4.34847 0
M  V30 174 C 14.238 0.996709 -4.70764 0
M  V30 175 C 16.59 0.689296 -5.16622 0
M  V30 176 C 13.918 0.285261 -5.86006 0
M  V30 177 C 16.27 -0.00860079 -6.32599 0
M  V30 178 C 14.934 -0.215963 -6.67151 0
M  V30 179 H 14.204 0.364091 -0.645383 0
M  V30 180 H 16.851 0.266543 -1.89636 0
M  V30 181 H 15.156 2.69533 -2.84357 0
M  V30 182 H 16.853 2.46695 -3.16137 0
M  V30 183 H 13.443 1.3549 -4.06621 0
M  V30 184 H 17.627 0.828108 -4.89342 0
M  V30 185 H 12.883 0.113961 -6.11294 0
M  V30 186 H 17.057 -0.406186 -6.95214 0
M  V30 187 H 14.684 -0.769217 -7.56298 0
M  V30 188 N 16.2591 1.48442 0.529413 0
M  V30 189 C 17.5061 1.56488 1.28521 0
M  V30 190 C 17.8341 0.239042 1.93025 0
M  V30 191 O 17.0891 -0.770713 1.79885 0
M  V30 192 C 17.3881 2.6523 2.39558 0
M  V30 193 C 17.0541 4.07648 1.92702 0
M  V30 194 C 15.7161 4.46411 1.79641 0
M  V30 195 C 18.0681 4.96896 1.573 0
M  V30 196 C 15.3961 5.72226 1.29514 0
M  V30 197 C 17.7481 6.23202 1.08636 0
M  V30 198 C 16.4121 6.60821 0.941919 0
M  V30 199 H 15.6821 0.572631 0.470292 0
M  V30 200 H 18.3291 1.82161 0.59072 0
M  V30 201 H 16.6341 2.33419 3.14679 0
M  V30 202 H 18.3311 2.68671 2.97686 0
M  V30 203 H 14.9211 3.77036 2.03819 0
M  V30 204 H 19.1051 4.67626 1.66251 0
M  V30 205 H 14.3611 6.00097 1.17019 0
M  V30 206 H 18.5351 6.91753 0.803136 0
M  V30 207 H 16.1621 7.58198 0.5513 0
M  V30 208 N 17.7372 -0.778329 1.37039 0
M  V30 209 C 18.6672 -1.90546 1.34962 0
M  V30 210 C 19.6482 -1.68681 0.219274 0
M  V30 211 O 20.8332 -1.89634 0.418624 0
M  V30 212 C 17.9632 -3.27734 1.14925 0
M  V30 213 C 16.9172 -3.64147 2.24902 0
M  V30 214 C 16.2432 -4.99806 1.89996 0
M  V30 215 C 17.5432 -3.71579 3.67051 0
M  V30 216 H 19.2372 -1.92541 2.29277 0
M  V30 217 H 16.7832 -0.924948 1.10366 0
M  V30 218 H 18.7362 -4.06215 1.12104 0
M  V30 219 H 17.4602 -3.26154 0.170631 0
M  V30 220 H 16.1192 -2.8797 2.26868 0
M  V30 221 H 15.7672 -4.94759 0.906796 0
M  V30 222 H 15.4672 -5.25139 2.63634 0
M  V30 223 H 16.9912 -5.80694 1.88749 0
M  V30 224 H 18.4052 -4.40227 3.67251 0
M  V30 225 H 16.8022 -4.08405 4.39688 0
M  V30 226 H 17.8722 -2.72404 4.01154 0
M  V30 227 N 19.2153 -1.21501 -1.00376 0
M  V30 228 C 20.4643 -1.02718 -1.73586 0
M  V30 229 C 20.7773 0.439589 -1.90596 0
M  V30 230 O 21.9833 0.746848 -2.61026 0
M  V30 231 C 20.4393 -1.78929 -3.1227 0
M  V30 232 C 20.0473 -3.29783 -3.03228 0
M  V30 233 C 21.7913 -1.68557 -3.89601 0
M  V30 234 C 19.6983 -3.98479 -4.36999 0
M  V30 235 H 18.6283 -0.380733 -0.650814 0
M  V30 236 H 21.2793 -1.45248 -1.1214 0
M  V30 237 H 19.6613 -1.29192 -3.74333 0
M  V30 238 H 20.8353 -3.86832 -2.50395 0
M  V30 239 H 19.1503 -3.40711 -2.39385 0
M  V30 240 H 21.7473 -2.17211 -4.88593 0
M  V30 241 H 22.0903 -0.644021 -4.11288 0
M  V30 242 H 22.6233 -2.15778 -3.34193 0
M  V30 243 H 19.3623 -5.02841 -4.20513 0
M  V30 244 H 18.8823 -3.46219 -4.89788 0
M  V30 245 H 20.5613 -4.03462 -5.05794 0
M  V30 246 N 20.6934 1.19889 -1.02296 0
M  V30 247 C 21.9404 1.8942 -0.715972 0
M  V30 248 C 22.2684 1.79251 0.754944 0
M  V30 249 O 21.5234 1.17526 1.56481 0
M  V30 250 C 21.8224 3.39883 -1.10518 0
M  V30 251 C 21.4884 3.70254 -2.57337 0
M  V30 252 C 20.1504 3.78254 -2.97452 0
M  V30 253 C 22.5024 3.84052 -3.52354 0
M  V30 254 C 19.8304 3.97514 -4.31509 0
M  V30 255 C 22.1824 4.04824 -4.86108 0
M  V30 256 C 20.8464 4.11054 -5.25919 0
M  V30 257 H 20.1164 0.693138 -0.261993 0
M  V30 258 H 22.7634 1.42012 -1.28472 0
M  V30 259 H 21.0684 3.8915 -0.454953 0
M  V30 260 H 22.7654 3.9199 -0.845261 0
M  V30 261 H 19.3554 3.64632 -2.25258 0
M  V30 262 H 23.5394 3.77221 -3.22518 0
M  V30 263 H 18.7954 4.00574 -4.61898 0
M  V30 264 H 22.9694 4.14442 -5.59653 0
M  V30 265 H 20.5964 4.2573 -6.29808 0
M  V30 266 N 22.1715 0.800033 1.35784 0
M  V30 267 C 23.4185 0.377342 1.98953 0
M  V30 268 C 23.7465 -1.05378 1.6348 0
M  V30 269 O 23.0015 -1.74459 0.886707 0
M  V30 270 C 23.3005 0.500276 3.53881 0
M  V30 271 C 22.9665 1.89375 4.09204 0
M  V30 272 C 21.6285 2.27499 4.24025 0
M  V30 273 C 23.9805 2.8057 4.39238 0
M  V30 274 C 21.3085 3.562 4.66195 0
M  V30 275 C 23.6605 4.0871 4.82844 0
M  V30 276 C 22.3245 4.46843 4.95871 0
M  V30 277 H 21.5945 0.138079 0.728021 0
M  V30 278 H 24.2415 1.01955 1.62103 0
M  V30 279 H 22.5465 -0.225405 3.91151 0
M  V30 280 H 24.2435 0.154097 4.00704 0
M  V30 281 H 20.8335 1.58753 3.98115 0
M  V30 282 H 25.0175 2.52367 4.27346 0
M  V30 283 H 20.2735 3.85602 4.74469 0
M  V30 284 H 24.4475 4.79481 5.05046 0
M  V30 285 H 22.0745 5.46623 5.28306 0
M  V30 286 N 23.6496 -1.47581 0.552962 0
M  V30 287 C 24.5796 -2.32762 -0.185451 0
M  V30 288 C 25.5606 -1.43527 -0.912905 0
M  V30 289 O 26.7456 -1.72388 -0.894201 0
M  V30 290 C 23.8756 -3.25219 -1.21859 0
M  V30 291 C 22.8296 -4.23661 -0.607864 0
M  V30 292 C 22.1556 -5.05413 -1.74533 0
M  V30 293 C 23.4556 -5.20481 0.435582 0
M  V30 294 H 25.1496 -2.94749 0.525684 0
M  V30 295 H 22.6956 -1.41738 0.254251 0
M  V30 296 H 24.6486 -3.8365 -1.7433 0
M  V30 297 H 23.3726 -2.61279 -1.95961 0
M  V30 298 H 22.0316 -3.66451 -0.104489 0
M  V30 299 H 21.6796 -4.3788 -2.47529 0
M  V30 300 H 21.3796 -5.72059 -1.34249 0
M  V30 301 H 22.9036 -5.66701 -2.27338 0
M  V30 302 H 24.3176 -5.733 -0.00290157 0
M  V30 303 H 22.7146 -5.95305 0.757067 0
M  V30 304 H 23.7846 -4.66217 1.33303 0
M  V30 305 N 25.1277 -0.289203 -1.54924 0
M  V30 306 C 26.3737 0.323998 -2.00195 0
M  V30 307 C 26.7067 1.54441 -1.17735 0
M  V30 308 O 25.9817 1.92875 -0.250878 0
M  V30 309 C 26.2647 0.692276 -3.53383 0
M  V30 310 C 26.1177 -0.536457 -4.46589 0
M  V30 311 C 27.4367 1.52335 -4.12895 0
M  V30 312 H 24.5557 0.116289 -0.727768 0
M  V30 313 H 27.1977 -0.398954 -1.85764 0
M  V30 314 H 25.3477 1.30822 -3.65811 0
M  V30 315 H 27.0197 -1.17499 -4.46085 0
M  V30 316 H 25.2627 -1.17192 -4.1767 0
M  V30 317 H 25.9337 -0.234806 -5.515 0
M  V30 318 H 28.4097 1.00302 -4.0383 0
M  V30 319 H 27.2857 1.74982 -5.20262 0
M  V30 320 H 27.5467 2.50886 -3.64018 0
M  V30 321 N 26.6058 1.57591 -0.0167156 0
M  V30 322 C 27.5358 2.12496 0.967858 0
M  V30 323 C 28.5168 1.03807 1.34752 0
M  V30 324 O 29.7018 1.31577 1.42833 0
M  V30 325 C 26.8318 2.64194 2.25431 0
M  V30 326 C 25.7858 3.77559 2.01576 0
M  V30 327 C 25.1118 4.15636 3.36379 0
M  V30 328 C 26.4118 5.04151 1.36489 0
M  V30 329 H 28.1058 2.95013 0.510643 0
M  V30 330 H 25.6518 1.41915 0.244181 0
M  V30 331 H 27.6048 3.01236 2.94678 0
M  V30 332 H 26.3288 1.78821 2.73296 0
M  V30 333 H 24.9878 3.40937 1.34751 0
M  V30 334 H 24.6358 3.27263 3.81979 0
M  V30 335 H 24.3358 4.92022 3.21229 0
M  V30 336 H 25.8598 4.5525 4.06915 0
M  V30 337 H 27.2738 5.38857 1.95718 0
M  V30 338 H 25.6708 5.85453 1.31776 0
M  V30 339 H 26.7408 4.83733 0.336219 0
M  V30 340 N 28.0839 -0.256276 1.55502 0
M  V30 341 C 29.3299 -0.987079 1.77157 0
M  V30 342 C 29.6629 -1.85327 0.580315 0
M  V30 343 O 28.9379 -1.89874 -0.421686 0
M  V30 344 C 29.2209 -1.85553 3.08613 0
M  V30 345 C 29.0739 -1.01816 4.38125 0
M  V30 346 C 30.3929 -2.8397 3.36228 0
M  V30 347 H 27.5119 -0.357428 0.644526 0
M  V30 348 H 30.1539 -0.258239 1.88237 0
M  V30 349 H 28.3039 -2.47695 2.99298 0
M  V30 350 H 29.9759 -0.416159 4.59419 0
M  V30 351 H 28.2189 -0.322178 4.32602 0
M  V30 352 H 28.8899 -1.65939 5.26468 0
M  V30 353 H 31.3659 -2.31964 3.45445 0
M  V30 354 H 30.2419 -3.41864 4.29442 0
M  V30 355 H 30.5029 -3.59955 2.56681 0
M  V30 356 N 29.562 -1.4872 -0.521534 0
M  V30 357 C 30.809 -1.57168 -1.27689 0
M  V30 358 C 31.137 -0.249275 -1.92896 0
M  V30 359 O 30.392 0.761162 -1.80291 0
M  V30 360 C 30.691 -2.66497 -2.38148 0
M  V30 361 C 30.357 -4.08664 -1.90538 0
M  V30 362 C 29.019 -4.47357 -1.77271 0
M  V30 363 C 31.371 -4.97724 -1.54663 0
M  V30 364 C 28.699 -5.72905 -1.26478 0
M  V30 365 C 31.051 -6.2377 -1.05329 0
M  V30 366 C 29.715 -6.61311 -0.906861 0
M  V30 367 H 28.985 -0.575117 -0.467249 0
M  V30 368 H 31.632 -1.82472 -0.581051 0
M  V30 369 H 29.937 -2.35085 -3.13437 0
M  V30 370 H 31.634 -2.70246 -2.96257 0
M  V30 371 H 28.224 -3.78111 -2.01816 0
M  V30 372 H 32.408 -4.68501 -1.63768 0
M  V30 373 H 27.664 -6.00709 -1.13835 0
M  V30 374 H 31.838 -6.9217 -0.76644 0
M  V30 375 H 29.465 -7.5848 -0.511083 0
M  V30 376 N 31.0401 0.771051 -1.3745 0
M  V30 377 C 31.9901 1.87456 -1.29785 0
M  V30 378 C 32.9741 1.59827 -0.185541 0
M  V30 379 O 34.1661 1.71945 -0.419997 0
M  V30 380 C 31.2951 3.24935 -1.1078 0
M  V30 381 C 30.3811 3.58514 -2.26558 0
M  V30 382 N 30.7721 3.6327 -3.5195 0
M  V30 383 C 29.0701 3.88683 -2.18727 0
M  V30 384 C 29.7711 3.93616 -4.283 0
M  V30 385 N 28.7471 4.09551 -3.57448 0
M  V30 386 H 32.5491 1.89386 -2.24745 0
M  V30 387 H 30.0631 0.967531 -1.30432 0
M  V30 388 H 32.0601 4.03881 -1.03374 0
M  V30 389 H 30.7201 3.24268 -0.16738 0
M  V30 390 H 31.7311 3.45458 -3.85848 0
M  V30 391 H 28.4081 3.95834 -1.32746 0
M  V30 392 H 29.7981 4.04066 -5.36824 0
M  V30 393 N 32.5182 1.22032 0.997298 0
M  V30 394 C 33.4812 0.987909 2.06816 0
M  V30 395 C 34.4812 -0.0440084 1.6074 0
M  V30 396 O 35.6712 0.194053 1.73116 0
M  V30 397 C 32.8032 0.49132 3.37341 0
M  V30 398 H 33.9962 1.93803 2.28868 0
M  V30 399 H 31.5492 1.03838 1.16822 0
M  V30 400 H 32.2842 -0.463364 3.20973 0
M  V30 401 H 32.0692 1.23575 3.72118 0
M  V30 402 H 33.5592 0.348824 4.16141 0
M  V30 403 N 33.9963 -1.19345 1.0293 0
M  V30 404 C 35.2433 -1.89038 0.726008 0
M  V30 405 C 35.5713 -1.79649 -0.745427 0
M  V30 406 O 34.8263 -1.18354 -1.55855 0
M  V30 407 C 35.1253 -3.39292 1.12319 0
M  V30 408 C 34.7913 -3.68885 2.59297 0
M  V30 409 C 33.4533 -3.76671 2.99453 0
M  V30 410 C 35.8053 -3.82178 3.54386 0
M  V30 411 C 33.1333 -3.9522 4.33611 0
M  V30 412 C 35.4853 -4.0224 4.88248 0
M  V30 413 C 34.1493 -4.08259 5.28092 0
M  V30 414 H 33.4193 -0.691739 0.265665 0
M  V30 415 H 36.0663 -1.41328 1.29223 0
M  V30 416 H 34.3713 -3.88903 0.475584 0
M  V30 417 H 36.0683 -3.91536 0.866037 0
M  V30 418 H 32.6583 -3.63433 2.27189 0
M  V30 419 H 36.8423 -3.75505 3.24514 0
M  V30 420 H 32.0983 -3.98119 4.64016 0
M  V30 421 H 36.2723 -4.11468 5.61843 0
M  V30 422 H 33.8993 -4.22384 6.32057 0
M  V30 423 N 35.4744 -0.807222 -1.35358 0
M  V30 424 C 36.4044 -0.232509 -2.3234 0
M  V30 425 C 37.3854 0.642386 -1.57504 0
M  V30 426 O 38.5704 0.572526 -1.85569 0
M  V30 427 C 35.7004 0.619238 -3.41735 0
M  V30 428 C 34.6544 -0.157215 -4.27711 0
M  V30 429 C 33.9804 0.816273 -5.28433 0
M  V30 430 C 35.2804 -1.35656 -5.04376 0
M  V30 431 H 36.9744 -1.04276 -2.80654 0
M  V30 432 H 34.5204 -0.50288 -1.34934 0
M  V30 433 H 36.4734 1.03137 -4.08584 0
M  V30 434 H 35.1974 1.46239 -2.92031 0
M  V30 435 H 33.8564 -0.550525 -3.62443 0
M  V30 436 H 33.5044 1.65494 -4.74996 0
M  V30 437 H 33.2044 0.301067 -5.86828 0
M  V30 438 H 34.7284 1.22659 -5.98153 0
M  V30 439 H 36.1424 -1.01927 -5.64166 0
M  V30 440 H 34.5394 -1.8063 -5.7227 0
M  V30 441 H 35.6094 -2.14288 -4.34981 0
M  V30 442 N 36.9525 1.47285 -0.560781 0
M  V30 443 C 38.1985 2.03347 -0.0463654 0
M  V30 444 C 38.5535 1.42702 1.2905 0
M  V30 445 O 37.8465 0.574619 1.8278 0
M  V30 446 C 38.0405 3.57258 0.100784 0
M  V30 447 C 37.8695 4.32827 -1.22027 0
M  V30 448 C 36.6395 4.72588 -1.78854 0
M  V30 449 C 38.8375 4.67739 -2.13834 0
M  V30 450 N 36.8195 5.32816 -3.04927 0
M  V30 451 C 38.1905 5.28307 -3.24487 0
M  V30 452 C 40.2455 4.49667 -2.13784 0
M  V30 453 C 38.9485 5.72711 -4.35194 0
M  V30 454 C 40.9745 4.95073 -3.23506 0
M  V30 455 C 40.3365 5.55693 -4.32879 0
M  V30 456 H 36.4355 0.779755 -0.0592166 0
M  V30 457 H 39.0195 1.79723 -0.748857 0
M  V30 458 H 37.1905 3.80642 0.772404 0
M  V30 459 H 38.9225 3.9996 0.617589 0
M  V30 460 H 35.6775 4.54656 -1.32609 0
M  V30 461 H 36.1015 5.67471 -3.69197 0
M  V30 462 H 40.7435 4.02154 -1.30507 0
M  V30 463 H 38.4615 6.19214 -5.1923 0
M  V30 464 H 42.0475 4.82859 -3.24559 0
M  V30 465 H 40.9275 5.90188 -5.1638 0
M  V30 466 N 38.4306 0.297415 1.54768 0
M  V30 467 C 39.3786 -0.596051 2.24833 0
M  V30 468 C 40.3726 -1.13992 1.25308 0
M  V30 469 O 41.5786 -1.09098 1.4317 0
M  V30 470 H 37.9536 -0.210814 0.721846 0
M  V30 471 H 39.9246 0.0174667 2.98395 0
M  V30 472 C 38.6736 -1.75818 2.99972 0
M  V30 473 H 37.9966 -1.3489 3.76357 0
M  V30 474 H 39.4366 -2.35949 3.52284 0
M  V30 475 C 37.8956 -2.66014 2.06732 0
M  V30 476 O 38.4256 -3.67009 1.63302 0
M  V30 477 N 36.6316 -2.33669 1.72763 0
M  V30 478 H 36.1786 -1.51586 2.08277 0
M  V30 479 H 36.1366 -2.94285 1.10652 0
M  V30 480 N 39.9087 -1.5758 0.0250728 0
M  V30 481 C 40.8387 -2.13007 -0.956575 0
M  V30 482 C 41.8197 -1.0452 -1.342 0
M  V30 483 O 43.0047 -1.32332 -1.42133 0
M  V30 484 C 40.1347 -2.65386 -2.24026 0
M  V30 485 C 39.0887 -3.78623 -1.99571 0
M  V30 486 C 38.4147 -4.17414 -3.3417 0
M  V30 487 C 39.7147 -5.04867 -1.33814 0
M  V30 488 H 41.4087 -2.9528 -0.494991 0
M  V30 489 H 38.9547 -1.42042 -0.236651 0
M  V30 490 H 40.9077 -3.02794 -2.93076 0
M  V30 491 H 39.6317 -1.80268 -2.72343 0
M  V30 492 H 38.2907 -3.41646 -1.32941 0
M  V30 493 H 37.9387 -3.29284 -3.80238 0
M  V30 494 H 37.6387 -4.93719 -3.18615 0
M  V30 495 H 39.1627 -4.57402 -4.04495 0
M  V30 496 H 40.5767 -5.39888 -1.92857 0
M  V30 497 H 38.9737 -5.86144 -1.28669 0
M  V30 498 H 40.0437 -4.83904 -0.310561 0
M  V30 499 N 41.3868 0.248026 -1.55636 0
M  V30 500 C 42.6638 0.998988 -1.68165 0
M  V30 501 C 43.0438 2.03409 -0.564621 0
M  V30 502 O 42.3918 2.24378 0.432076 0
M  V30 503 C 42.6018 1.63334 -3.0842 0
M  V30 504 C 43.9498 2.13562 -3.66983 0
M  V30 505 O 44.9738 1.73277 -3.11213 0
M  V30 506 O 43.8328 2.87526 -4.64749 0
M  V30 507 H 40.9268 0.464933 -0.683935 0
M  V30 508 H 43.4728 0.241902 -1.67967 0
M  V30 509 H 42.2448 0.884583 -3.8117 0
M  V30 510 H 41.8678 2.45666 -3.12624 0
M  V30 511 N 42.8649 1.48995 0.513639 0
M  V30 512 C 43.7949 1.67636 1.62544 0
M  V30 513 C 44.7759 0.525087 1.61793 0
M  V30 514 O 45.9609 0.759502 1.78732 0
M  V30 515 C 43.0909 1.73114 3.01079 0
M  V30 516 C 42.0449 2.87905 3.16693 0
M  V30 517 C 41.3709 2.78486 4.56453 0
M  V30 518 C 42.6709 4.29005 2.97913 0
M  V30 519 H 44.3649 2.60716 1.47198 0
M  V30 520 H 41.9109 1.25465 0.706714 0
M  V30 521 H 43.8639 1.84742 3.78746 0
M  V30 522 H 42.5879 0.766241 3.17484 0
M  V30 523 H 41.2469 2.75859 2.41448 0
M  V30 524 H 40.8949 1.7993 4.69717 0
M  V30 525 H 40.5949 3.55523 4.67843 0
M  V30 526 H 42.1189 2.92104 5.36197 0
M  V30 527 H 43.5329 4.41798 3.65359 0
M  V30 528 H 41.9299 5.07166 3.20785 0
M  V30 529 H 42.9999 4.44329 1.94165 0
M  V30 530 N 44.343 -0.763751 1.37857 0
M  V30 531 C 45.591 -1.51957 1.33243 0
M  V30 532 C 45.912 -1.94835 -0.0801709 0
M  V30 533 O 45.182 -1.66894 -1.02582 0
M  V30 534 H 43.762 -0.563626 0.49024 0
M  V30 535 H 46.424 -0.908504 1.7243 0
M  V30 536 H 45.52 -2.41523 1.97669 0
M  V30 537 N 45.8211 -1.22559 -0.990812 0
M  V30 538 C 47.0701 -1.04553 -1.72486 0
M  V30 539 C 47.3831 0.419349 -1.91052 0
M  V30 540 O 48.5891 0.719121 -2.61803 0
M  V30 541 C 47.0451 -1.82231 -3.10355 0
M  V30 542 C 46.6531 -3.32981 -2.99713 0
M  V30 543 C 48.3971 -1.7268 -3.87791 0
M  V30 544 C 46.3041 -4.03091 -4.32748 0
M  V30 545 H 45.2341 -0.387614 -0.646739 0
M  V30 546 H 47.8851 -1.46429 -1.10593 0
M  V30 547 H 46.2671 -1.33155 -3.72942 0
M  V30 548 H 47.4411 -3.89466 -2.46278 0
M  V30 549 H 45.7561 -3.43231 -2.35758 0
M  V30 550 H 48.3531 -2.22381 -4.86262 0
M  V30 551 H 48.6961 -0.687607 -4.10582 0
M  V30 552 H 49.2291 -2.1931 -3.31885 0
M  V30 553 H 45.9681 -5.07273 -4.15156 0
M  V30 554 H 45.4881 -3.51394 -4.86089 0
M  V30 555 H 47.1671 -4.08804 -5.01486 0
M  V30 556 N 47.2992 1.18797 -1.03562 0
M  V30 557 C 48.5462 1.8865 -0.736023 0
M  V30 558 C 48.8742 1.80041 0.735889 0
M  V30 559 O 48.1292 1.19179 1.55225 0
M  V30 560 C 48.4282 3.38692 -1.14117 0
M  V30 561 C 48.0942 3.67504 -2.6125 0
M  V30 562 C 46.7562 3.75078 -3.01447 0
M  V30 563 C 49.1082 3.80293 -3.56408 0
M  V30 564 C 46.4362 3.92915 -4.35701 0
M  V30 565 C 48.7882 3.99645 -4.90374 0
M  V30 566 C 47.4522 4.05453 -5.30249 0
M  V30 567 H 46.7222 0.690321 -0.26933 0
M  V30 568 H 49.3692 1.40641 -1.29971 0
M  V30 569 H 47.6742 3.88645 -0.496202 0
M  V30 570 H 49.3712 3.91072 -0.886789 0
M  V30 571 H 45.9612 3.62223 -2.29113 0
M  V30 572 H 50.1452 3.73779 -3.26501 0
M  V30 573 H 45.4012 3.95653 -4.66121 0
M  V30 574 H 49.5752 4.08482 -5.64017 0
M  V30 575 H 47.2022 4.19027 -6.34288 0
M  V30 576 N 48.7773 0.814389 1.34928 0
M  V30 577 C 50.0023 0.410097 2.03305 0
M  V30 578 C 50.4273 -0.973464 1.60951 0
M  V30 579 O 49.7853 -1.63185 0.789964 0
M  V30 580 C 49.8333 0.51049 3.56968 0
M  V30 581 O 48.9373 -0.473035 4.09678 0
M  V30 582 H 48.2783 0.170088 0.641846 0
M  V30 583 H 50.8083 1.10244 1.72358 0
M  V30 584 H 50.8183 0.383135 4.06197 0
M  V30 585 H 49.4933 1.51963 3.87144 0
M  V30 586 H 48.0703 -0.305272 3.71648 0
M  V30 587 N 50.2554 -1.46986 0.568584 0
M  V30 588 C 51.5034 -2.02041 0.0487022 0
M  V30 589 C 51.8244 -1.44408 -1.31039 0
M  V30 590 O 51.0944 -0.623477 -1.85714 0
M  V30 591 H 49.6744 -0.746849 0.015014 0
M  V30 592 H 52.3364 -1.80257 0.741168 0
M  V30 593 H 51.4324 -3.12085 -0.0308961 0
M  V30 594 N 51.7335 -0.305618 -1.54608 0
M  V30 595 C 52.6435 0.57778 -2.27374 0
M  V30 596 C 53.6595 1.14451 -1.31061 0
M  V30 597 O 54.8355 1.16831 -1.6405 0
M  V30 598 C 51.9005 1.73123 -3.00382 0
M  V30 599 C 50.9615 1.19812 -4.12242 0
M  V30 600 C 50.1945 2.2966 -4.81759 0
M  V30 601 O 50.4175 3.49651 -4.50666 0
M  V30 602 O 49.3515 1.96091 -5.69062 0
M  V30 603 H 53.1775 -0.012624 -3.03697 0
M  V30 604 H 50.7625 -0.0719184 -1.49227 0
M  V30 605 H 52.6445 2.40315 -3.4616 0
M  V30 606 H 51.3195 2.30815 -2.26949 0
M  V30 607 H 50.2265 0.491798 -3.70853 0
M  V30 608 H 51.5595 0.666566 -4.87666 0
M  V30 609 N 53.2116 1.57565 -0.0334293 0
M  V30 610 C 54.6276 1.56297 0.322997 0
M  V30 611 C 54.8276 1.03945 1.7262 0
M  V30 612 O 53.8836 0.688109 2.42943 0
M  V30 613 C 55.1966 3.00232 0.167664 0
M  V30 614 C 56.7446 3.12078 0.240107 0
M  V30 615 C 57.2196 4.57859 0.113513 0
M  V30 616 N 58.7106 4.62887 0.170359 0
M  V30 617 C 59.4456 5.73319 0.0962517 0
M  V30 618 N 58.9416 6.92794 -0.0291881 0
M  V30 619 N 60.7346 5.61898 0.150551 0
M  V30 620 H 52.8856 1.89923 -0.950956 0
M  V30 621 H 55.1486 0.873824 -0.367608 0
M  V30 622 H 54.8546 3.42501 -0.799102 0
M  V30 623 H 54.7286 3.654 0.936083 0
M  V30 624 H 57.1156 2.69718 1.19733 0
M  V30 625 H 57.1966 2.49623 -0.558763 0
M  V30 626 H 56.8406 5.009 -0.840314 0
M  V30 627 H 56.7706 5.18299 0.931302 0
M  V30 628 H 59.2616 3.76954 0.26728 0
M  V30 629 H 59.5746 7.7276 -0.0789252 0
M  V30 630 H 57.9196 6.94971 -0.0640299 0
M  V30 631 H 61.1106 4.67448 0.246981 0
M  V30 632 H 61.2836 6.47938 0.0893365 0
M  V30 633 N 54.6897 -0.239769 1.55765 0
M  V30 634 C 55.9147 -0.988373 1.82335 0
M  V30 635 C 56.3397 -1.77886 0.611421 0
M  V30 636 O 55.6977 -1.75889 -0.439639 0
M  V30 637 C 55.7457 -1.89627 3.06715 0
M  V30 638 O 54.8497 -2.98904 2.84131 0
M  V30 639 H 54.1907 -0.280858 0.601677 0
M  V30 640 H 56.7207 -0.258597 2.02959 0
M  V30 641 H 56.7307 -2.30957 3.36338 0
M  V30 642 H 55.4057 -1.31511 3.9456 0
M  V30 643 H 53.9827 -2.61651 2.65694 0
M  V30 644 N 56.1678 -1.49265 -0.50573 0
M  V30 645 C 57.4138 -1.59723 -1.25937 0
M  V30 646 C 57.7688 -0.278236 -1.90378 0
M  V30 647 O 57.0618 0.72113 -1.77511 0
M  V30 648 C 57.2558 -2.69008 -2.35308 0
M  V30 649 C 57.0848 -4.11405 -1.81592 0
M  V30 650 C 55.8548 -4.78252 -1.63105 0
M  V30 651 C 58.0528 -4.96792 -1.33048 0
M  V30 652 N 56.0348 -6.0498 -1.04269 0
M  V30 653 C 57.4058 -6.13962 -0.863168 0
M  V30 654 C 59.4608 -4.82828 -1.21577 0
M  V30 655 C 58.1638 -7.18705 -0.292489 0
M  V30 656 C 60.1898 -5.87716 -0.65907 0
M  V30 657 C 59.5518 -7.0411 -0.201954 0
M  V30 658 H 55.6508 -0.638864 -0.450973 0
M  V30 659 H 58.2348 -1.86251 -0.567326 0
M  V30 660 H 56.4058 -2.4426 -3.01979 0
M  V30 661 H 58.1378 -2.69013 -3.02348 0
M  V30 662 H 54.8928 -4.34974 -1.87336 0
M  V30 663 H 55.3168 -6.72631 -0.767919 0
M  V30 664 H 59.9588 -3.93159 -1.55518 0
M  V30 665 H 57.6768 -8.08078 0.0591987 0
M  V30 666 H 61.2628 -5.7897 -0.573156 0
M  V30 667 H 60.1428 -7.83885 0.222101 0
M  V30 668 N 57.6459 0.756429 -1.3826 0
M  V30 669 C 58.8919 1.51772 -1.34511 0
M  V30 670 C 59.2249 1.94089 0.0656691 0
M  V30 671 O 58.4999 1.65221 1.02626 0
M  V30 672 C 58.7829 2.77226 -2.29821 0
M  V30 673 C 58.6359 2.41065 -3.79747 0
M  V30 674 C 59.9549 3.79236 -2.23312 0
M  V30 675 H 57.0739 0.550578 -0.489931 0
M  V30 676 H 59.7159 0.866607 -1.69086 0
M  V30 677 H 57.8659 3.32784 -2.00467 0
M  V30 678 H 59.5379 1.91303 -4.19763 0
M  V30 679 H 57.7809 1.7356 -3.97567 0
M  V30 680 H 58.4519 3.3081 -4.41892 0
M  V30 681 H 60.9279 3.3321 -2.49219 0
M  V30 682 H 59.8039 4.64714 -2.92116 0
M  V30 683 H 60.0649 4.24615 -1.23102 0
M  V30 684 N 59.124 1.23083 0.984299 0
M  V30 685 C 60.349 1.088 1.76571 0
M  V30 686 C 60.774 -0.356657 1.84688 0
M  V30 687 O 60.132 -1.25788 1.30565 0
M  V30 688 C 60.18 1.71371 3.17277 0
M  V30 689 O 59.284 0.973213 4.00752 0
M  V30 690 H 58.625 0.381599 0.543395 0
M  V30 691 H 61.155 1.63057 1.23587 0
M  V30 692 H 61.165 1.76449 3.67872 0
M  V30 693 H 59.84 2.76493 3.10684 0
M  V30 694 H 58.417 0.999078 3.59267 0
M  V30 695 N 60.6021 -1.18246 1.0419 0
M  V30 696 C 61.8271 -1.92736 0.765996 0
M  V30 697 C 62.2521 -1.75728 -0.67091 0
M  V30 698 O 61.6101 -1.06825 -1.46486 0
M  V30 699 C 61.6581 -3.42148 1.13875 0
M  V30 700 O 60.7621 -4.11548 0.264954 0
M  V30 701 H 60.1031 -0.601238 0.281797 0
M  V30 702 H 62.6331 -1.49942 1.39207 0
M  V30 703 H 62.6431 -3.92858 1.1012 0
M  V30 704 H 61.3181 -3.53848 2.18551 0
M  V30 705 H 59.8951 -3.71137 0.362226 0
M  V30 706 N 62.0802 -0.821533 -1.34494 0
M  V30 707 C 63.3272 -0.408946 -1.98328 0
M  V30 708 C 63.6552 1.02764 -1.65136 0
M  V30 709 O 62.9102 1.73026 -0.914349 0
M  V30 710 C 63.2092 -0.556512 -3.53041 0
M  V30 711 C 62.8752 -1.95861 -4.0614 0
M  V30 712 C 61.5372 -2.34217 -4.20352 0
M  V30 713 C 63.8892 -2.87523 -4.34718 0
M  V30 714 C 61.2172 -3.63572 -4.6047 0
M  V30 715 C 63.5692 -4.1634 -4.76281 0
M  V30 716 C 62.2332 -4.54675 -4.88699 0
M  V30 717 H 61.5032 -0.149644 -0.725732 0
M  V30 718 H 64.1502 -1.04521 -1.6046 0
M  V30 719 H 62.4552 0.163148 -3.9146 0
M  V30 720 H 64.1522 -0.217826 -4.00408 0
M  V30 721 H 60.7422 -1.65066 -3.95539 0
M  V30 722 H 64.9262 -2.59133 -4.23277 0
M  V30 723 H 60.1822 -3.93101 -4.68275 0
M  V30 724 H 64.3562 -4.87455 -4.97354 0
M  V30 725 H 61.9832 -5.54959 -5.19542 0
M  V30 726 N 63.5583 1.46682 -0.576371 0
M  V30 727 C 64.4683 2.34032 0.163141 0
M  V30 728 C 65.4843 1.49367 0.892501 0
M  V30 729 O 66.6603 1.82252 0.857106 0
M  V30 730 C 63.7253 3.26435 1.16795 0
M  V30 731 C 62.7863 4.26998 0.443944 0
M  V30 732 C 62.0193 5.14986 1.40088 0
M  V30 733 O 62.2423 5.05785 2.637 0
M  V30 734 O 61.1763 5.94906 0.914917 0
M  V30 735 H 65.0023 2.98607 -0.55388 0
M  V30 736 H 62.5873 1.45554 -0.336821 0
M  V30 737 H 64.4693 3.83459 1.74748 0
M  V30 738 H 63.1443 2.64465 1.86655 0
M  V30 739 H 62.0513 3.7368 -0.177271 0
M  V30 740 H 63.3843 4.91736 -0.213566 0
M  V30 741 N 65.0364 0.313813 1.54444 0
M  V30 742 C 66.2764 -0.292389 2.02298 0
M  V30 743 C 66.6404 -1.50105 1.19719 0
M  V30 744 O 67.8414 -2.17947 1.5733 0
M  V30 745 C 66.1124 -0.627682 3.51845 0
M  V30 746 S 67.6714 -1.21493 4.21646 0
M  V30 747 H 64.4894 -0.0890247 0.705405 0
M  V30 748 H 67.0914 0.444668 1.90376 0
M  V30 749 H 65.7954 0.260265 4.09574 0
M  V30 750 H 65.3264 -1.39519 3.67829 0
M  V30 751 H 67.3414 -2.5022 4.28491 0
M  V30 752 N 66.5145 -1.57545 0.0417849 0
M  V30 753 C 67.7625 -1.91937 -0.632829 0
M  V30 754 C 68.0835 -0.919978 -1.71934 0
M  V30 755 O 67.3535 0.0366064 -1.95866 0
M  V30 756 H 65.9335 -0.708493 -0.236742 0
M  V30 757 H 68.5955 -1.9468 0.0925745 0
M  V30 758 H 67.6915 -2.92912 -1.07746 0
M  V30 759 N 67.9926 0.231505 -1.5589 0
M  V30 760 C 69.2396 0.957352 -1.78441 0
M  V30 761 C 69.5676 1.84726 -0.60882 0
M  V30 762 O 68.8226 1.91416 0.40725 0
M  V30 763 C 69.1216 1.83577 -3.0665 0
M  V30 764 C 68.7876 1.09993 -4.37278 0
M  V30 765 C 67.4496 0.896629 -4.72773 0
M  V30 766 C 69.8016 0.579558 -5.17968 0
M  V30 767 C 67.1296 0.160896 -5.86479 0
M  V30 768 C 69.4816 -0.142783 -6.32439 0
M  V30 769 C 68.1456 -0.357427 -6.66542 0
M  V30 770 H 67.4156 0.35032 -0.65296 0
M  V30 771 H 70.0626 0.226259 -1.90159 0
M  V30 772 H 68.3676 2.63441 -2.90011 0
M  V30 773 H 70.0646 2.39934 -3.21298 0
M  V30 774 H 66.6546 1.26835 -4.09403 0
M  V30 775 H 70.8386 0.724125 -4.90989 0
M  V30 776 H 66.0946 -0.0157293 -6.11398 0
M  V30 777 H 70.2686 -0.553559 -6.94196 0
M  V30 778 H 67.8956 -0.929466 -7.54497 0
M  V30 779 N 69.4707 1.49531 0.497807 0
M  V30 780 C 70.4007 1.6935 1.60757 0
M  V30 781 C 71.3817 0.542218 1.61227 0
M  V30 782 O 72.5667 0.778417 1.77917 0
M  V30 783 C 69.6967 1.76298 2.99226 0
M  V30 784 C 68.6507 2.91248 3.13622 0
M  V30 785 C 67.9767 2.83312 4.53474 0
M  V30 786 C 69.2767 4.3214 2.93346 0
M  V30 787 H 70.9707 2.62263 1.44425 0
M  V30 788 H 68.5167 1.26208 0.693367 0
M  V30 789 H 70.4697 1.88749 3.76765 0
M  V30 790 H 69.1937 0.799871 3.16654 0
M  V30 791 H 67.8527 2.78404 2.38509 0
M  V30 792 H 67.5007 1.84902 4.67782 0
M  V30 793 H 67.2007 3.60465 4.64046 0
M  V30 794 H 68.7247 2.97775 5.33069 0
M  V30 795 H 70.1387 4.45649 3.60652 0
M  V30 796 H 68.5357 5.1054 3.15387 0
M  V30 797 H 69.6057 4.46363 1.89441 0
M  V30 798 N 70.9488 -0.749086 1.3866 0
M  V30 799 C 72.1738 -1.54344 1.38538 0
M  V30 800 C 72.5988 -1.88088 -0.0216655 0
M  V30 801 O 71.9568 -1.50899 -1.00494 0
M  V30 802 C 72.0048 -2.8164 2.25192 0
M  V30 803 O 71.1088 -3.7698 1.67212 0
M  V30 804 H 70.4498 -0.466654 0.472367 0
M  V30 805 H 72.9798 -0.925355 1.82478 0
M  V30 806 H 72.9898 -3.30519 2.3921 0
M  V30 807 H 71.6648 -2.56411 3.27454 0
M  V30 808 H 70.2418 -3.35699 1.6236 0
M  V30 809 N 72.4269 -1.23603 -0.977757 0
M  V30 810 C 73.3589 -0.977369 -2.07317 0
M  V30 811 C 74.3719 0.0495845 -1.62724 0
M  V30 812 O 75.5609 -0.186261 -1.77526 0
M  V30 813 C 72.6609 -0.451216 -3.35883 0
M  V30 814 C 71.8339 -1.53896 -4.09432 0
M  V30 815 C 70.8929 -1.01721 -5.16274 0
M  V30 816 O 69.9189 -1.70676 -5.43009 0
M  V30 817 N 71.1209 0.153594 -5.80297 0
M  V30 818 H 73.8859 -1.92047 -2.30082 0
M  V30 819 H 71.4469 -1.14497 -1.14465 0
M  V30 820 H 73.4389 -0.0871574 -4.04606 0
M  V30 821 H 72.0089 0.397368 -3.10064 0
M  V30 822 H 71.2289 -2.07566 -3.35127 0
M  V30 823 H 72.5169 -2.27037 -4.55337 0
M  V30 824 H 71.9149 0.730323 -5.60966 0
M  V30 825 H 70.4719 0.458892 -6.50183 0
M  V30 826 N 73.905 1.17692 -1.04816 0
M  V30 827 C 75.321 1.39863 -0.768794 0
M  V30 828 C 75.521 1.91118 0.638451 0
M  V30 829 O 74.577 2.10036 1.40146 0
M  V30 830 C 75.89 2.39274 -1.82122 0
M  V30 831 C 77.438 2.52987 -1.843 0
M  V30 832 C 77.913 3.55669 -2.88555 0
M  V30 833 N 79.404 3.63183 -2.87493 0
M  V30 834 C 80.139 4.42381 -3.64811 0
M  V30 835 N 79.635 5.25125 -4.51903 0
M  V30 836 N 81.428 4.37217 -3.53267 0
M  V30 837 H 73.579 0.82752 -1.95617 0
M  V30 838 H 75.842 0.426123 -0.846831 0
M  V30 839 H 75.548 2.08678 -2.83102 0
M  V30 840 H 75.422 3.38725 -1.65967 0
M  V30 841 H 77.809 2.82896 -0.839869 0
M  V30 842 H 77.89 1.53623 -2.04532 0
M  V30 843 H 77.534 3.26499 -3.89051 0
M  V30 844 H 77.464 4.54728 -2.65575 0
M  V30 845 H 79.955 3.04103 -2.24343 0
M  V30 846 H 80.268 5.82728 -5.07591 0
M  V30 847 H 78.613 5.24519 -4.55966 0
M  V30 848 H 81.804 3.71626 -2.84625 0
M  V30 849 H 81.977 4.98696 -4.13771 0
M  V30 850 N 75.3831 0.828654 1.34056 0
M  V30 851 C 76.6291 0.42008 1.98402 0
M  V30 852 C 76.9621 -1.01564 1.65525 0
M  V30 853 O 76.2371 -1.70834 0.929831 0
M  V30 854 C 76.5201 0.62927 3.54559 0
M  V30 855 C 76.3731 2.11152 3.97159 0
M  V30 856 C 77.6921 0.0688756 4.40046 0
M  V30 857 H 74.8111 0.154104 0.720709 0
M  V30 858 H 77.4531 1.04228 1.5886 0
M  V30 859 H 75.6031 0.0996418 3.88372 0
M  V30 860 H 77.2751 2.70522 3.73651 0
M  V30 861 H 75.5181 2.59985 3.47261 0
M  V30 862 H 76.1891 2.20868 5.05887 0
M  V30 863 H 78.6651 0.521458 4.1282 0
M  V30 864 H 77.5411 0.245006 5.48353 0
M  V30 865 H 77.8021 -1.0266 4.30015 0
M  V30 866 N 76.8612 -1.46375 0.584142 0
M  V30 867 C 78.0892 -2.06761 0.0759296 0
M  V30 868 C 78.5042 -1.43266 -1.22965 0
M  V30 869 O 77.8612 -0.538458 -1.74376 0
M  V30 870 C 77.9122 -3.61375 -0.0950384 0
M  V30 871 O 77.6332 -4.22495 1.15887 0
M  V30 872 C 79.1342 -4.38693 -0.637434 0
M  V30 873 H 76.3542 -0.668479 0.0581075 0
M  V30 874 H 78.8982 -1.8798 0.805218 0
M  V30 875 H 77.0532 -3.79578 -0.774554 0
M  V30 876 H 77.4672 -5.15385 0.973598 0
M  V30 877 H 78.9412 -5.47464 -0.706237 0
M  V30 878 H 79.4182 -4.06836 -1.65472 0
M  V30 879 H 80.0242 -4.25299 0.00725967 0
M  V30 880 N 78.3393 -0.321999 -1.54275 0
M  V30 881 C 79.2493 0.553631 -2.27974 0
M  V30 882 C 80.2653 1.13054 -1.32268 0
M  V30 883 O 81.4413 1.15084 -1.6528 0
M  V30 884 C 78.5063 1.69927 -3.02201 0
M  V30 885 C 77.5673 1.15433 -4.1349 0
M  V30 886 C 76.8003 2.24537 -4.84168 0
M  V30 887 O 77.0233 3.44852 -4.5435 0
M  V30 888 O 75.9573 1.90044 -5.7111 0
M  V30 889 H 79.7833 -0.0448345 -3.03667 0
M  V30 890 H 77.3683 -0.0877418 -1.49142 0
M  V30 891 H 79.2503 2.3663 -3.48689 0
M  V30 892 H 77.9253 2.28395 -2.29385 0
M  V30 893 H 76.8323 0.452436 -3.71354 0
M  V30 894 H 78.1653 0.614805 -4.88345 0
M  V30 895 N 79.8174 1.5752 -0.0501392 0
M  V30 896 C 80.7654 2.12651 0.942459 0
M  V30 897 C 81.7594 1.05807 1.32292 0
M  V30 898 O 82.9654 1.24217 1.3027 0
M  V30 899 H 79.3404 0.679673 0.321789 0
M  V30 900 H 81.3114 2.94951 0.452356 0
M  V30 901 C 80.0604 2.68565 2.20836 0
M  V30 902 H 79.3834 3.50439 1.92439 0
M  V30 903 H 80.8234 3.10761 2.8845 0
M  V30 904 C 79.2824 1.62291 2.95234 0
M  V30 905 O 79.8124 1.03508 3.88135 0
M  V30 906 N 78.0184 1.33836 2.57946 0
M  V30 907 H 77.5654 1.81826 1.82475 0
M  V30 908 H 77.5234 0.629595 3.08032 0
M  V30 909 N 81.2955 -0.223234 1.56011 0
M  V30 910 C 82.5255 -0.963413 1.82762 0
M  V30 911 C 82.9335 -1.78516 0.626804 0
M  V30 912 O 82.2765 -1.78974 -0.414014 0
M  V30 913 C 82.3385 -1.93126 3.0322 0
M  V30 914 C 82.0025 -1.2942 4.38291 0
M  V30 915 C 82.9995 -0.684916 5.15369 0
M  V30 916 C 80.6845 -1.30647 4.85012 0
M  V30 917 C 82.6785 -0.0963971 6.37327 0
M  V30 918 C 80.3655 -0.71411 6.06913 0
M  V30 919 C 81.3635 -0.110123 6.82911 0
M  V30 920 O 81.0515 0.47303 8.02507 0
M  V30 921 H 80.7835 -0.288011 0.611576 0
M  V30 922 H 83.3375 -0.244103 2.03944 0
M  V30 923 H 81.5675 -2.68952 2.77852 0
M  V30 924 H 83.2565 -2.53685 3.16857 0
M  V30 925 H 84.0225 -0.667774 4.80381 0
M  V30 926 H 79.9015 -1.76598 4.25833 0
M  V30 927 H 83.4455 0.375657 6.96588 0
M  V30 928 H 79.3425 -0.728659 6.41374 0
M  V30 929 H 80.1105 0.367186 8.17676 0
M  V30 930 N 82.7736 -1.49793 -0.48987 0
M  V30 931 C 84.0206 -1.59841 -1.24327 0
M  V30 932 C 84.3486 -0.290135 -1.92324 0
M  V30 933 O 83.6036 0.722749 -1.81865 0
M  V30 934 C 83.9026 -2.71488 -2.32441 0
M  V30 935 C 83.5686 -4.12614 -1.81826 0
M  V30 936 C 82.2306 -4.51017 -1.67742 0
M  V30 937 C 84.5826 -5.00892 -1.4407 0
M  V30 938 C 81.9106 -5.75459 -1.14297 0
M  V30 939 C 84.2626 -6.25863 -0.920742 0
M  V30 940 C 82.9266 -6.63086 -0.766383 0
M  V30 941 H 82.1966 -0.584899 -0.454944 0
M  V30 942 H 84.8436 -1.83663 -0.542215 0
M  V30 943 H 83.1486 -2.4168 -3.0838 0
M  V30 944 H 84.8456 -2.76469 -2.90458 0
M  V30 945 H 81.4356 -3.82307 -1.93751 0
M  V30 946 H 85.6196 -4.7187 -1.53794 0
M  V30 947 H 80.8756 -6.02989 -1.01068 0
M  V30 948 H 85.0496 -6.9364 -0.619448 0
M  V30 949 H 82.6766 -7.59393 -0.350083 0
M  V30 950 N 84.2517 0.741722 -1.39055 0
M  V30 951 C 85.4767 1.53607 -1.39354 0
M  V30 952 C 85.9017 1.88096 0.0116905 0
M  V30 953 O 85.2597 1.5143 0.996924 0
M  V30 954 C 85.3077 2.80441 -2.26682 0
M  V30 955 O 84.4117 3.76088 -1.69208 0
M  V30 956 H 83.7527 0.464142 -0.474835 0
M  V30 957 H 86.2827 0.915665 -1.82967 0
M  V30 958 H 86.2927 3.29246 -2.40959 0
M  V30 959 H 84.9677 2.5467 -3.2881 0
M  V30 960 H 83.5447 3.34833 -1.64138 0
M  V30 961 N 85.7298 1.2412 0.971189 0
M  V30 962 C 86.9598 1.10415 1.7462 0
M  V30 963 C 87.3678 -0.346462 1.86001 0
M  V30 964 O 86.7108 -1.25104 1.34517 0
M  V30 965 C 86.7728 1.66596 3.18568 0
M  V30 966 C 86.4368 3.15446 3.3067 0
M  V30 967 C 87.4338 4.12636 3.16271 0
M  V30 968 C 85.1188 3.55337 3.55022 0
M  V30 969 C 87.1128 5.47699 3.26044 0
M  V30 970 C 84.7998 4.90542 3.64434 0
M  V30 971 C 85.7978 5.86532 3.49956 0
M  V30 972 O 85.4858 7.19279 3.59017 0
M  V30 973 H 85.2178 0.386616 0.55453 0
M  V30 974 H 87.7718 1.64633 1.22821 0
M  V30 975 H 86.0018 1.06808 3.71657 0
M  V30 976 H 87.6908 1.48232 3.77865 0
M  V30 977 H 88.4568 3.8316 2.97344 0
M  V30 978 H 84.3358 2.8113 3.65359 0
M  V30 979 H 87.8798 6.22603 3.14661 0
M  V30 980 H 83.7768 5.19691 3.82873 0
M  V30 981 H 84.5448 7.27153 3.75754 0
M  V30 982 N 87.2079 -1.17134 1.05439 0
M  V30 983 C 88.4359 -1.91372 0.786414 0
M  V30 984 C 88.8509 -1.76955 -0.658202 0
M  V30 985 O 88.2079 -1.10838 -1.44987 0
M  V30 986 C 88.2589 -3.42356 1.1608 0
M  V30 987 O 87.9799 -3.56332 2.54871 0
M  V30 988 C 89.4809 -4.33663 0.919322 0
M  V30 989 H 86.7009 -0.607118 0.285743 0
M  V30 990 H 89.2449 -1.48525 1.40572 0
M  V30 991 H 87.3999 -3.82939 0.586191 0
M  V30 992 H 87.8139 -4.49896 2.69618 0
M  V30 993 H 89.2879 -5.38099 1.231 0
M  V30 994 H 89.7649 -4.38959 -0.145359 0
M  V30 995 H 90.3709 -3.98796 1.47789 0
M  V30 996 N 88.686 -0.835752 -1.33615 0
M  V30 997 C 89.916 -0.442701 -2.01801 0
M  V30 998 C 90.324 0.959807 -1.63047 0
M  V30 999 O 89.667 1.63468 -0.838088 0
M  V30 1000 C 89.729 -0.480125 -3.56279 0
M  V30 1001 C 89.393 -1.8382 -4.18401 0
M  V30 1002 C 90.39 -2.80097 -4.37998 0
M  V30 1003 C 88.075 -2.13019 -4.54894 0
M  V30 1004 C 90.069 -4.03736 -4.9323 0
M  V30 1005 C 87.756 -3.36916 -5.09834 0
M  V30 1006 C 88.754 -4.32091 -5.28948 0
M  V30 1007 O 88.442 -5.53797 -5.82721 0
M  V30 1008 H 88.174 -0.17441 -0.653114 0
M  V30 1009 H 90.728 -1.129 -1.71589 0
M  V30 1010 H 88.958 0.262931 -3.85805 0
M  V30 1011 H 90.647 -0.105335 -4.05763 0
M  V30 1012 H 91.413 -2.58838 -4.10156 0
M  V30 1013 H 87.292 -1.39733 -4.39313 0
M  V30 1014 H 90.836 -4.78034 -5.08064 0
M  V30 1015 H 86.733 -3.58033 -5.37106 0
M  V30 1016 H 87.501 -5.55494 -6.0114 0
M  V30 1017 N 90.1641 1.46063 -0.591896 0
M  V30 1018 C 91.4111 2.02338 -0.0809991 0
M  V30 1019 C 91.7391 1.46228 1.28249 0
M  V30 1020 O 90.9941 0.620818 1.85592 0
M  V30 1021 C 91.2931 3.57391 0.0249813 0
M  V30 1022 C 90.9591 4.32583 -1.27211 0
M  V30 1023 C 89.6211 4.52844 -1.62745 0
M  V30 1024 C 91.9731 4.75687 -2.13005 0
M  V30 1025 C 89.3011 5.13462 -2.83855 0
M  V30 1026 C 91.6531 5.37644 -3.3335 0
M  V30 1027 C 90.3171 5.5613 -3.69155 0
M  V30 1028 H 89.5871 0.740407 -0.0296397 0
M  V30 1029 H 92.2341 1.75321 -0.770374 0
M  V30 1030 H 90.5391 3.83597 0.797537 0
M  V30 1031 H 92.2361 3.98621 0.436184 0
M  V30 1032 H 88.8261 4.17116 -0.985499 0
M  V30 1033 H 93.0101 4.59782 -1.86855 0
M  V30 1034 H 88.2661 5.25965 -3.11722 0
M  V30 1035 H 92.4401 5.7 -4.00092 0
M  V30 1036 H 90.0671 6.0287 -4.63089 0
M  V30 1037 N 91.6422 0.330177 1.54103 0
M  V30 1038 C 92.8912 -0.271336 1.99867 0
M  V30 1039 C 93.2042 -1.52723 1.22209 0
M  V30 1040 O 94.4102 -2.20515 1.58383 0
M  V30 1041 C 92.8662 -0.534032 3.55916 0
M  V30 1042 C 92.4742 0.705193 4.42415 0
M  V30 1043 C 94.2182 -1.09514 4.1013 0
M  V30 1044 C 92.1252 0.414035 5.89949 0
M  V30 1045 H 91.0552 -0.105166 0.74663 0
M  V30 1046 H 93.7062 0.443429 1.78062 0
M  V30 1047 H 92.0882 -1.30915 3.73734 0
M  V30 1048 H 93.2622 1.4804 4.36372 0
M  V30 1049 H 91.5772 1.18698 3.99124 0
M  V30 1050 H 94.1742 -1.3277 5.17954 0
M  V30 1051 H 94.5172 -2.04656 3.62521 0
M  V30 1052 H 95.0502 -0.381038 3.95971 0
M  V30 1053 H 91.7892 1.33481 6.41766 0
M  V30 1054 H 91.3092 -0.323336 5.98928 0
M  V30 1055 H 92.9882 0.0263105 6.46995 0
M  V30 1056 N 93.1203 -1.57491 0.0584922 0
M  V30 1057 C 94.0503 -2.14988 -0.911178 0
M  V30 1058 C 95.0313 -1.07343 -1.31952 0
M  V30 1059 O 96.2163 -1.35318 -1.39294 0
M  V30 1060 C 93.3463 -2.70078 -2.18347 0
M  V30 1061 C 92.3003 -3.82771 -1.91495 0
M  V30 1062 C 91.6263 -4.24408 -3.25241 0
M  V30 1063 C 92.9263 -5.07592 -1.23075 0
M  V30 1064 H 94.6203 -2.96263 -0.432246 0
M  V30 1065 H 92.1663 -1.42512 -0.206469 0
M  V30 1066 H 94.1193 -3.08943 -2.86587 0
M  V30 1067 H 92.8433 -1.86005 -2.68458 0
M  V30 1068 H 91.5023 -3.44389 -1.25664 0
M  V30 1069 H 91.1503 -3.37275 -3.73168 0
M  V30 1070 H 90.8503 -5.00366 -3.08071 0
M  V30 1071 H 92.3743 -4.65879 -3.94701 0
M  V30 1072 H 93.7883 -5.43857 -1.81362 0
M  V30 1073 H 92.1853 -5.88741 -1.16207 0
M  V30 1074 H 93.2553 -4.84454 -0.207847 0
M  V30 1075 N 94.5984 0.214957 -1.56127 0
M  V30 1076 C 95.5284 1.2695 -1.95974 0
M  V30 1077 C 96.5094 1.48539 -0.828868 0
M  V30 1078 O 97.6944 1.60611 -1.09168 0
M  V30 1079 C 94.8244 2.61794 -2.28214 0
M  V30 1080 C 93.7784 2.54851 -3.43853 0
M  V30 1081 C 93.1044 3.93785 -3.61715 0
M  V30 1082 C 94.4044 2.09065 -4.78632 0
M  V30 1083 H 96.0984 0.93846 -2.84312 0
M  V30 1084 H 93.6444 0.449996 -1.36788 0
M  V30 1085 H 95.5974 3.35731 -2.54682 0
M  V30 1086 H 94.3214 2.96599 -1.36736 0
M  V30 1087 H 92.9804 1.8337 -3.17444 0
M  V30 1088 H 92.6284 4.25908 -2.67602 0
M  V30 1089 H 92.3284 3.90019 -4.39498 0
M  V30 1090 H 93.8524 4.69374 -3.90539 0
M  V30 1091 H 95.2664 2.7275 -5.04262 0
M  V30 1092 H 93.6634 2.16346 -5.59745 0
M  V30 1093 H 94.7334 1.04315 -4.73547 0
M  V30 1094 N 96.0765 1.50051 0.48192 0
M  V30 1095 C 97.3225 1.60736 1.2366 0
M  V30 1096 C 97.6555 0.301786 1.91841 0
M  V30 1097 O 96.9305 -0.696025 1.8162 0
M  V30 1098 C 97.2135 2.78009 2.28874 0
M  V30 1099 C 97.0665 4.18416 1.65069 0
M  V30 1100 C 98.3855 2.90867 3.30279 0
M  V30 1101 H 95.5045 0.585031 0.448228 0
M  V30 1102 H 98.1465 1.82402 0.531946 0
M  V30 1103 H 96.2965 2.59667 2.88973 0
M  V30 1104 H 97.9685 4.48322 1.0865 0
M  V30 1105 H 96.2115 4.23177 0.954148 0
M  V30 1106 H 96.8825 4.96381 2.41474 0
M  V30 1107 H 99.3585 3.07623 2.80191 0
M  V30 1108 H 98.2345 3.74566 4.01238 0
M  V30 1109 H 98.4955 2.01021 3.93755 0
M  V30 1110 N 97.5546 -0.734337 1.39446 0
M  V30 1111 C 98.8016 -1.49391 1.36706 0
M  V30 1112 C 99.1296 -1.94465 -0.0367813 0
M  V30 1113 O 98.3846 -1.67154 -1.01774 0
M  V30 1114 C 98.6836 -2.74711 2.28623 0
M  V30 1115 C 98.3496 -2.48501 3.76242 0
M  V30 1116 C 97.0116 -2.41062 4.16464 0
M  V30 1117 C 99.3636 -2.26098 4.69606 0
M  V30 1118 C 96.6916 -2.09262 5.48112 0
M  V30 1119 C 99.0436 -1.95814 6.01531 0
M  V30 1120 C 97.7076 -1.86845 6.40816 0
M  V30 1121 H 96.9776 -0.546661 0.500243 0
M  V30 1122 H 99.6246 -0.842788 1.71957 0
M  V30 1123 H 97.9296 -3.44569 1.86492 0
M  V30 1124 H 99.6266 -3.32741 2.23796 0
M  V30 1125 H 96.2166 -2.55169 3.44364 0
M  V30 1126 H 100.401 -2.30812 4.39363 0
M  V30 1127 H 95.6566 -2.00841 5.77471 0
M  V30 1128 H 99.8306 -1.77488 6.73403 0
M  V30 1129 H 97.4576 -1.6197 7.42745 0
M  V30 1130 N 99.0327 -1.24633 -0.964593 0
M  V30 1131 C 100.28 -1.08788 -1.70796 0
M  V30 1132 C 100.608 0.372783 -1.90894 0
M  V30 1133 O 99.8627 1.29167 -1.47018 0
M  V30 1134 C 100.162 -1.7763 -3.10133 0
M  V30 1135 C 99.8277 -3.27557 -3.09866 0
M  V30 1136 C 98.4897 -3.6846 -3.09501 0
M  V30 1137 C 100.842 -4.23389 -3.03959 0
M  V30 1138 C 98.1697 -5.03624 -3.00965 0
M  V30 1139 C 100.522 -5.58565 -2.96965 0
M  V30 1140 C 99.1857 -5.98809 -2.9493 0
M  V30 1141 H 98.4557 -0.398084 -0.624988 0
M  V30 1142 H 101.103 -1.54777 -1.12767 0
M  V30 1143 H 99.4077 -1.24044 -3.71645 0
M  V30 1144 H 101.105 -1.62832 -3.66451 0
M  V30 1145 H 97.6947 -2.95006 -3.10917 0
M  V30 1146 H 101.879 -3.92787 -3.03368 0
M  V30 1147 H 97.1347 -5.33998 -2.97752 0
M  V30 1148 H 101.309 -6.32523 -2.91354 0
M  V30 1149 H 98.9357 -7.03505 -2.88071 0
M  V30 1150 N 100.511 1.16574 -1.06058 0
M  V30 1151 C 101.757 1.87324 -0.777022 0
M  V30 1152 C 102.09 1.81351 0.694645 0
M  V30 1153 O 101.365 1.22753 1.50871 0
M  V30 1154 C 101.648 3.36991 -1.26922 0
M  V30 1155 C 101.501 3.51667 -2.80447 0
M  V30 1156 C 102.82 4.3131 -0.87521 0
M  V30 1157 H 99.9388 0.680191 -0.28374 0
M  V30 1158 H 102.581 1.37036 -1.3161 0
M  V30 1159 H 100.731 3.79949 -0.81063 0
M  V30 1160 H 102.403 3.17664 -3.34495 0
M  V30 1161 H 100.646 2.93656 -3.19294 0
M  V30 1162 H 101.317 4.56766 -3.0995 0
M  V30 1163 H 103.793 3.9624 -1.27014 0
M  V30 1164 H 102.669 5.34545 -1.2471 0
M  V30 1165 H 102.93 4.41552 0.220071 0
M  V30 1166 N 101.989 0.842826 1.3317 0
M  V30 1167 C 103.235 0.441099 1.97945 0
M  V30 1168 C 103.568 -0.998024 1.66593 0
M  V30 1169 O 102.843 -1.69839 0.947898 0
M  V30 1170 C 103.126 0.666841 3.53872 0
M  V30 1171 C 102.979 2.15352 3.94897 0
M  V30 1172 C 104.298 0.115544 4.39948 0
M  V30 1173 H 101.417 0.161739 0.719034 0
M  V30 1174 H 104.059 1.05907 1.57746 0
M  V30 1175 H 102.209 0.140828 3.88245 0
M  V30 1176 H 103.881 2.7447 3.70761 0
M  V30 1177 H 102.124 2.63653 3.44484 0
M  V30 1178 H 102.795 2.26221 5.03516 0
M  V30 1179 H 105.271 0.565213 4.12243 0
M  V30 1180 H 104.147 0.303152 5.48062 0
M  V30 1181 H 104.408 -0.980935 4.3108 0
M  V30 1182 N 103.467 -1.45747 0.599634 0
M  V30 1183 C 104.714 -2.02292 0.0917284 0
M  V30 1184 C 105.042 -1.46906 -1.27472 0
M  V30 1185 O 104.297 -0.630652 -1.8526 0
M  V30 1186 C 104.596 -3.57399 -0.00602758 0
M  V30 1187 C 104.262 -4.31902 1.29503 0
M  V30 1188 C 102.924 -4.51974 1.65144 0
M  V30 1189 C 105.276 -4.74551 2.15525 0
M  V30 1190 C 102.604 -5.11949 2.86574 0
M  V30 1191 C 104.956 -5.35868 3.36196 0
M  V30 1192 C 103.62 -5.54165 3.72099 0
M  V30 1193 H 102.89 -0.740239 0.0335658 0
M  V30 1194 H 105.537 -1.7491 0.779661 0
M  V30 1195 H 103.842 -3.84014 -0.777183 0
M  V30 1196 H 105.539 -3.98846 -0.415038 0
M  V30 1197 H 102.129 -4.16588 1.00761 0
M  V30 1198 H 106.313 -4.58784 1.8929 0
M  V30 1199 H 101.569 -5.24305 3.14507 0
M  V30 1200 H 105.743 -5.6787 4.03109 0
M  V30 1201 H 103.37 -6.00406 4.6628 0
M  V30 1202 N 104.945 -0.338344 -1.53925 0
M  V30 1203 C 106.222 0.314774 -1.93051 0
M  V30 1204 C 106.602 1.68669 -1.26941 0
M  V30 1205 O 105.95 2.24636 -0.418445 0
M  V30 1206 C 106.16 0.392249 -3.46789 0
M  V30 1207 C 107.508 0.645554 -4.19664 0
M  V30 1208 O 108.532 0.474575 -3.53024 0
M  V30 1209 O 107.391 0.976408 -5.37707 0
M  V30 1210 H 104.485 0.182598 -0.80659 0
M  V30 1211 H 107.031 -0.389141 -1.65178 0
M  V30 1212 H 105.803 -0.570702 -3.87116 0
M  V30 1213 H 105.426 1.14316 -3.80812 0
M  V30 1214 N 106.423 1.57458 -0.0668435 0
M  V30 1215 C 107.353 2.15468 0.899764 0
M  V30 1216 C 108.334 1.08042 1.31381 0
M  V30 1217 O 109.519 1.36054 1.38574 0
M  V30 1218 C 106.649 2.71232 2.16911 0
M  V30 1219 C 105.603 3.83781 1.89463 0
M  V30 1220 C 104.929 4.26127 3.22986 0
M  V30 1221 C 106.229 5.08238 1.20381 0
M  V30 1222 H 107.923 2.96488 0.416529 0
M  V30 1223 H 105.469 1.4262 0.198908 0
M  V30 1224 H 107.422 3.10458 2.84945 0
M  V30 1225 H 106.146 1.87426 2.67468 0
M  V30 1226 H 104.805 3.45051 1.23836 0
M  V30 1227 H 104.453 3.39249 3.71374 0
M  V30 1228 H 104.153 5.01993 3.05413 0
M  V30 1229 H 105.677 4.67966 3.92225 0
M  V30 1230 H 107.091 5.44811 1.78475 0
M  V30 1231 H 105.488 5.89349 1.13083 0
M  V30 1232 H 106.558 4.84558 0.182153 0
M  V30 1233 N 107.901 -0.206675 1.56239 0
M  V30 1234 C 108.811 -1.27686 1.96808 0
M  V30 1235 C 109.827 -1.50455 0.874035 0
M  V30 1236 O 111.003 -1.63295 1.17884 0
M  V30 1237 C 108.068 -2.60358 2.28942 0
M  V30 1238 C 107.129 -2.45762 3.51994 0
M  V30 1239 C 106.362 -3.72108 3.82585 0
M  V30 1240 O 106.585 -4.75776 3.14631 0
M  V30 1241 O 105.519 -3.6833 4.76043 0
M  V30 1242 H 109.345 -0.962593 2.88041 0
M  V30 1243 H 106.93 -0.410746 1.43643 0
M  V30 1244 H 108.812 -3.38687 2.50737 0
M  V30 1245 H 107.487 -2.91435 1.4088 0
M  V30 1246 H 106.394 -1.65584 3.35459 0
M  V30 1247 H 107.727 -2.19621 4.40486 0
M  V30 1248 N 109.379 -1.50304 -0.473955 0
M  V30 1249 C 110.625 -1.61389 -1.22806 0
M  V30 1250 C 110.958 -0.311955 -1.91678 0
M  V30 1251 O 110.233 0.686384 -1.81986 0
M  V30 1252 C 110.516 -2.79219 -2.27396 0
M  V30 1253 C 110.369 -4.19286 -1.62848 0
M  V30 1254 C 111.688 -2.92614 -3.28732 0
M  V30 1255 H 108.807 -0.587399 -0.445119 0
M  V30 1256 H 111.449 -1.82681 -0.522265 0
M  V30 1257 H 109.599 -2.61195 -2.87592 0
M  V30 1258 H 111.271 -4.48892 -1.06271 0
M  V30 1259 H 109.514 -4.23677 -0.931693 0
M  V30 1260 H 110.185 -4.97655 -2.38838 0
M  V30 1261 H 112.661 -3.09105 -2.78556 0
M  V30 1262 H 111.537 -3.76688 -3.99246 0
M  V30 1263 H 111.798 -2.03107 -3.92683 0
M  V30 1264 N 110.857 0.726932 -1.39834 0
M  V30 1265 C 112.082 1.52121 -1.40976 0
M  V30 1266 C 112.507 1.88098 -0.00826029 0
M  V30 1267 O 111.865 1.52479 0.980807 0
M  V30 1268 C 111.913 2.78021 -2.29644 0
M  V30 1269 O 111.017 3.74272 -1.73188 0
M  V30 1270 H 110.358 0.45908 -0.479731 0
M  V30 1271 H 112.888 0.896207 -1.83927 0
M  V30 1272 H 112.898 3.26671 -2.44438 0
M  V30 1273 H 111.573 2.51169 -3.31492 0
M  V30 1274 H 110.15 3.33073 -1.6768 0
M  V30 1275 N 112.336 1.25143 0.95797 0
M  V30 1276 C 113.266 1.07711 2.07173 0
M  V30 1277 C 114.247 -0.0128462 1.70095 0
M  V30 1278 O 115.432 0.156061 1.93572 0
M  V30 1279 C 112.562 0.691503 3.40346 0
M  V30 1280 C 111.516 1.73132 3.9142 0
M  V30 1281 C 110.842 1.20049 5.21049 0
M  V30 1282 C 112.142 3.1294 4.1817 0
M  V30 1283 H 113.836 2.00873 2.22014 0
M  V30 1284 H 111.382 0.967191 1.06684 0
M  V30 1285 H 113.335 0.556505 4.17709 0
M  V30 1286 H 112.059 -0.275819 3.25433 0
M  V30 1287 H 110.718 1.8547 3.16222 0
M  V30 1288 H 110.366 0.223499 5.02503 0
M  V30 1289 H 110.066 1.89545 5.56189 0
M  V30 1290 H 111.59 1.07782 6.01012 0
M  V30 1291 H 113.004 3.03775 4.86203 0
M  V30 1292 H 111.401 3.79875 4.64559 0
M  V30 1293 H 112.471 3.6025 3.24573 0
M  V30 1294 N 113.814 -1.1601 1.06675 0
M  V30 1295 C 114.744 -2.22688 0.702307 0
M  V30 1296 C 115.725 -1.67306 -0.307032 0
M  V30 1297 O 116.91 -1.93352 -0.181305 0
M  V30 1298 C 114.04 -3.47178 0.092038 0
M  V30 1299 C 112.994 -4.15477 1.02777 0
M  V30 1300 C 112.32 -5.33963 0.28061 0
M  V30 1301 C 113.62 -4.66019 2.35846 0
M  V30 1302 H 115.314 -2.53429 1.59419 0
M  V30 1303 H 112.86 -1.21813 0.767961 0
M  V30 1304 H 114.813 -4.21037 -0.174814 0
M  V30 1305 H 113.537 -3.15749 -0.834877 0
M  V30 1306 H 112.196 -3.43549 1.27944 0
M  V30 1307 H 111.844 -4.98788 -0.649545 0
M  V30 1308 H 111.544 -5.806 0.904258 0
M  V30 1309 H 113.068 -6.10596 0.021396 0
M  V30 1310 H 114.482 -5.3144 2.15045 0
M  V30 1311 H 112.879 -5.23293 2.93743 0
M  V30 1312 H 113.949 -3.82023 2.98641 0
M  V30 1313 N 115.292 -0.849877 -1.32721 0
M  V30 1314 C 116.222 -0.306308 -2.31482 0
M  V30 1315 C 117.203 0.591952 -1.59468 0
M  V30 1316 O 118.388 0.513199 -1.87296 0
M  V30 1317 C 115.518 0.510204 -3.43532 0
M  V30 1318 C 114.472 -0.293209 -4.26994 0
M  V30 1319 C 113.798 0.647743 -5.30762 0
M  V30 1320 C 115.098 -1.51634 -4.99804 0
M  V30 1321 H 116.792 -1.13153 -2.77195 0
M  V30 1322 H 114.338 -0.545553 -1.33266 0
M  V30 1323 H 116.291 0.900856 -4.11658 0
M  V30 1324 H 115.015 1.36874 -2.96535 0
M  V30 1325 H 113.674 -0.665555 -3.60508 0
M  V30 1326 H 113.322 1.50299 -4.8002 0
M  V30 1327 H 113.022 0.11422 -5.87489 0
M  V30 1328 H 114.546 1.03567 -6.01753 0
M  V30 1329 H 115.96 -1.19824 -5.60638 0
M  V30 1330 H 114.357 -1.98745 -5.66234 0
M  V30 1331 H 115.427 -2.28018 -4.27943 0
M  V30 1332 N 116.77 1.45427 -0.607355 0
M  V30 1333 C 117.718 2.32269 0.12411 0
M  V30 1334 C 118.712 1.45955 0.859854 0
M  V30 1335 O 119.918 1.6244 0.775447 0
M  V30 1336 H 116.293 0.749691 0.0588839 0
M  V30 1337 H 118.264 2.91743 -0.626762 0
M  V30 1338 C 117.013 3.29567 1.1082 0
M  V30 1339 H 116.336 3.95978 0.551492 0
M  V30 1340 H 117.776 3.93061 1.58995 0
M  V30 1341 C 116.235 2.56722 2.18164 0
M  V30 1342 O 116.765 2.34842 3.25902 0
M  V30 1343 N 114.971 2.16861 1.93442 0
M  V30 1344 H 114.518 2.34855 1.05834 0
M  V30 1345 H 114.476 1.68444 2.65469 0
M  V30 1346 N 118.248 0.346503 1.53744 0
M  V30 1347 C 119.181 -0.552023 2.21423 0
M  V30 1348 C 120.159 -1.09798 1.19929 0
M  V30 1349 O 121.343 -1.1577 1.4876 0
M  V30 1350 C 118.47 -1.75972 2.89398 0
M  V30 1351 C 117.516 -1.34295 4.04805 0
M  V30 1352 S 118.349 -0.360263 5.34287 0
M  V30 1353 C 119.505 -1.57473 6.05767 0
M  V30 1354 H 119.738 0.0228119 2.97291 0
M  V30 1355 H 117.271 0.130579 1.53847 0
M  V30 1356 H 119.229 -2.45256 3.2918 0
M  V30 1357 H 117.89 -2.30578 2.1329 0
M  V30 1358 H 117.083 -2.24349 4.51313 0
M  V30 1359 H 116.685 -0.729555 3.66815 0
M  V30 1360 H 118.977 -2.50875 6.29339 0
M  V30 1361 H 119.92 -1.15138 6.98676 0
M  V30 1362 H 120.328 -1.77212 5.35963 0
M  V30 1363 N 119.726 -1.57421 0.075193 0
M  V30 1364 C 121.137 -1.81021 -0.456964 0
M  V30 1365 C 121.488 -0.98936 -1.69429 0
M  V30 1366 O 120.613 -0.212865 -2.15351 0
M  V30 1367 C 121.208 -3.28329 -0.83581 0
M  V30 1368 C 119.767 -3.52764 -1.31281 0
M  V30 1369 C 118.914 -2.75676 -0.299648 0
M  V30 1370 H 121.865 -1.55822 0.300856 0
M  V30 1371 H 121.886 -3.40564 -1.69696 0
M  V30 1372 H 121.398 -3.88046 0.0649238 0
M  V30 1373 H 119.499 -2.98355 -2.23193 0
M  V30 1374 H 119.612 -4.61451 -1.28839 0
M  V30 1375 H 117.976 -2.42538 -0.777641 0
M  V30 1376 H 118.759 -3.38132 0.593417 0
M  V30 1377 N 121.204 0.198386 -1.56346 0
M  V30 1378 C 122.134 1.24865 -1.9731 0
M  V30 1379 C 123.115 1.47651 -0.844576 0
M  V30 1380 O 124.3 1.59444 -1.10866 0
M  V30 1381 C 121.43 2.59358 -2.30977 0
M  V30 1382 C 120.384 2.5119 -3.46537 0
M  V30 1383 C 119.71 3.89926 -3.65871 0
M  V30 1384 C 121.01 2.03977 -4.80823 0
M  V30 1385 H 122.704 0.908252 -2.85291 0
M  V30 1386 H 120.25 0.435462 -1.37258 0
M  V30 1387 H 122.203 3.33011 -2.58228 0
M  V30 1388 H 120.927 2.95132 -1.39874 0
M  V30 1389 H 119.586 1.79993 -3.19371 0
M  V30 1390 H 119.234 4.23046 -2.72105 0
M  V30 1391 H 118.934 3.85336 -4.4361 0
M  V30 1392 H 120.458 4.65205 -3.95495 0
M  V30 1393 H 121.872 2.67386 -5.07127 0
M  V30 1394 H 120.269 2.10397 -5.62008 0
M  V30 1395 H 121.339 0.992861 -4.74626 0
M  V30 1396 N 122.682 1.50554 0.465978 0
M  V30 1397 C 123.614 1.65949 1.58093 0
M  V30 1398 C 124.627 0.540827 1.53554 0
M  V30 1399 O 125.816 0.814187 1.5885 0
M  V30 1400 C 122.916 1.63261 2.96983 0
M  V30 1401 C 122.089 2.91245 3.26336 0
M  V30 1402 C 121.148 2.8113 4.44806 0
M  V30 1403 O 120.174 3.55086 4.44862 0
M  V30 1404 N 121.376 1.95032 5.46756 0
M  V30 1405 H 124.141 2.62122 1.45301 0
M  V30 1406 H 121.702 1.48082 0.65448 0
M  V30 1407 H 123.694 1.54101 3.74212 0
M  V30 1408 H 122.264 0.748032 3.03518 0
M  V30 1409 H 121.484 3.14493 2.37672 0
M  V30 1410 H 122.772 3.76022 3.42761 0
M  V30 1411 H 122.17 1.3427 5.49534 0
M  V30 1412 H 120.727 1.91772 6.2295 0
M  V30 1413 N 124.16 -0.719506 1.40217 0
M  V30 1414 C 125.408 -1.47641 1.3801 0
M  V30 1415 C 125.729 -1.94992 -0.018145 0
M  V30 1416 O 124.999 -1.70073 -0.972207 0
M  V30 1417 H 123.579 -0.547744 0.507923 0
M  V30 1418 H 126.241 -0.853187 1.75233 0
M  V30 1419 H 125.337 -2.35112 2.05253 0
M  V30 1420 N 125.638 -1.25649 -0.95132 0
M  V30 1421 C 126.884 -1.10757 -1.69884 0
M  V30 1422 C 127.217 0.350061 -1.91019 0
M  V30 1423 O 126.492 1.25783 -1.48354 0
M  V30 1424 C 126.775 -1.86606 -3.07978 0
M  V30 1425 C 126.628 -3.40217 -2.94232 0
M  V30 1426 C 127.947 -1.65182 -4.07925 0
M  V30 1427 H 125.066 -0.40374 -0.616574 0
M  V30 1428 H 127.708 -1.54521 -1.10558 0
M  V30 1429 H 125.858 -1.49409 -3.58621 0
M  V30 1430 H 127.53 -3.87108 -2.50889 0
M  V30 1431 H 125.773 -3.67759 -2.30078 0
M  V30 1432 H 126.444 -3.88505 -3.92133 0
M  V30 1433 H 128.92 -1.9757 -3.66204 0
M  V30 1434 H 127.796 -2.20683 -5.02583 0
M  V30 1435 H 128.057 -0.593933 -4.38092 0
M  V30 1436 N 127.117 1.15442 -1.07289 0
M  V30 1437 C 128.047 2.22312 -0.714107 0
M  V30 1438 C 129.028 1.67467 0.298155 0
M  V30 1439 O 130.213 1.93445 0.171048 0
M  V30 1440 C 127.343 3.47124 -0.110448 0
M  V30 1441 C 126.297 4.14926 -1.04979 0
M  V30 1442 C 125.623 5.33807 -0.308924 0
M  V30 1443 C 126.923 4.64762 -2.38314 0
M  V30 1444 H 128.617 2.5258 -1.6076 0
M  V30 1445 H 126.163 1.21404 -0.77441 0
M  V30 1446 H 128.116 4.21124 0.152482 0
M  V30 1447 H 126.84 3.16187 0.81812 0
M  V30 1448 H 125.499 3.42866 -1.29764 0
M  V30 1449 H 125.147 4.99126 0.623084 0
M  V30 1450 H 124.847 5.80113 -0.935036 0
M  V30 1451 H 126.371 6.10576 -0.0537771 0
M  V30 1452 H 127.785 5.30292 -2.1786 0
M  V30 1453 H 126.182 5.21728 -2.96514 0
M  V30 1454 H 127.252 3.80434 -3.00663 0
M  V30 1455 N 128.595 0.856903 1.32268 0
M  V30 1456 C 129.825 0.47475 2.01071 0
M  V30 1457 C 130.233 -0.933746 1.64553 0
M  V30 1458 O 129.576 -1.62114 0.863989 0
M  V30 1459 C 129.638 0.536746 3.55471 0
M  V30 1460 C 129.302 1.90453 4.15423 0
M  V30 1461 C 130.299 2.87029 4.33486 0
M  V30 1462 C 127.984 2.20229 4.51447 0
M  V30 1463 C 129.978 4.11532 4.86744 0
M  V30 1464 C 127.665 3.44984 5.0441 0
M  V30 1465 C 128.663 4.40452 5.22007 0
M  V30 1466 O 128.351 5.62998 5.73837 0
M  V30 1467 H 128.083 0.184778 0.650256 0
M  V30 1468 H 130.637 1.15615 1.69771 0
M  V30 1469 H 128.867 -0.20152 3.86175 0
M  V30 1470 H 130.556 0.169875 4.05544 0
M  V30 1471 H 131.322 2.6533 4.05986 0
M  V30 1472 H 127.201 1.46705 4.37034 0
M  V30 1473 H 130.745 4.86056 5.00395 0
M  V30 1474 H 126.642 3.66532 5.31342 0
M  V30 1475 H 127.41 5.64987 5.92226 0
M  V30 1476 N 130.073 -1.45103 0.615059 0
M  V30 1477 C 131.02 -2.30586 -0.0993978 0
M  V30 1478 C 131.99 -1.42544 -0.852669 0
M  V30 1479 O 133.175 -1.71465 -0.836917 0
M  V30 1480 C 130.315 -3.27572 -1.08583 0
M  V30 1481 C 129.428 -4.30717 -0.332656 0
M  V30 1482 C 128.563 -5.14807 -1.30947 0
M  V30 1483 C 127.602 -6.09673 -0.544538 0
M  V30 1484 N 126.739 -6.86517 -1.47101 0
M  V30 1485 H 131.579 -2.91144 0.635542 0
M  V30 1486 H 129.116 -1.4346 0.325206 0
M  V30 1487 H 131.074 -3.82276 -1.67095 0
M  V30 1488 H 129.704 -2.68751 -1.78809 0
M  V30 1489 H 128.756 -3.78615 0.368107 0
M  V30 1490 H 130.068 -4.98102 0.263842 0
M  V30 1491 H 129.222 -5.73948 -1.96643 0
M  V30 1492 H 127.961 -4.47458 -1.9399 0
M  V30 1493 H 126.966 -5.49656 0.126003 0
M  V30 1494 H 128.191 -6.79052 0.080947 0
M  V30 1495 H 126.137 -6.21851 -2.08895 0
M  V30 1496 H 126.054 -7.50281 -0.928137 0
M  V30 1497 H 127.322 -7.50194 -2.11731 0
M  V30 1498 N 131.551 -0.354651 -1.53558 0
M  V30 1499 C 132.499 0.512195 -2.26891 0
M  V30 1500 C 133.493 1.09263 -1.29452 0
M  V30 1501 O 134.699 1.03709 -1.47121 0
M  V30 1502 H 131.074 0.183878 -0.729173 0
M  V30 1503 H 133.045 -0.128202 -2.98124 0
M  V30 1504 C 131.794 1.64563 -3.06291 0
M  V30 1505 H 131.117 1.20829 -3.81104 0
M  V30 1506 H 132.557 2.22711 -3.60799 0
M  V30 1507 C 131.016 2.58158 -2.16462 0
M  V30 1508 O 131.546 3.60695 -1.76811 0
M  V30 1509 N 129.752 2.27096 -1.81317 0
M  V30 1510 H 129.299 1.43751 -2.1376 0
M  V30 1511 H 129.257 2.89975 -1.21498 0
M  V30 1512 N 133.029 1.57378 -0.0835403 0
M  V30 1513 C 134.276 1.9393 0.58287 0
M  V30 1514 C 134.604 0.964455 1.68904 0
M  V30 1515 O 133.859 -0.0179474 1.95692 0
M  V30 1516 C 134.158 3.37063 1.1884 0
M  V30 1517 C 133.824 4.50424 0.207194 0
M  V30 1518 C 132.486 4.81159 -0.0627115 0
M  V30 1519 C 134.838 5.19136 -0.463426 0
M  V30 1520 C 132.166 5.77939 -1.01012 0
M  V30 1521 C 134.518 6.16931 -1.39924 0
M  V30 1522 C 133.182 6.46078 -1.67749 0
M  V30 1523 H 132.452 0.70964 0.213287 0
M  V30 1524 H 135.099 1.90856 -0.156916 0
M  V30 1525 H 133.404 3.3666 2.00418 0
M  V30 1526 H 135.101 3.6264 1.71153 0
M  V30 1527 H 131.691 4.2646 0.427747 0
M  V30 1528 H 135.875 4.95576 -0.268034 0
M  V30 1529 H 131.131 5.98842 -1.23283 0
M  V30 1530 H 135.305 6.69273 -1.92476 0
M  V30 1531 H 132.932 7.2088 -2.41321 0
M  V30 1532 N 134.507 -0.190092 1.56449 0
M  V30 1533 C 135.754 -0.909705 1.80916 0
M  V30 1534 C 136.082 -1.83047 0.657583 0
M  V30 1535 O 135.337 -1.92428 -0.356356 0
M  V30 1536 C 135.636 -1.75382 3.1141 0
M  V30 1537 C 135.302 -0.983606 4.40041 0
M  V30 1538 C 133.964 -0.770967 4.74984 0
M  V30 1539 C 136.316 -0.442024 5.19322 0
M  V30 1540 C 133.644 -0.0053448 5.867 0
M  V30 1541 C 135.996 0.310412 6.31838 0
M  V30 1542 C 134.66 0.534023 6.6536 0
M  V30 1543 H 133.93 -0.332885 0.662019 0
M  V30 1544 H 136.577 -0.175762 1.90692 0
M  V30 1545 H 134.882 -2.55659 2.96893 0
M  V30 1546 H 136.579 -2.31331 3.27547 0
M  V30 1547 H 133.169 -1.15936 4.12622 0
M  V30 1548 H 137.353 -0.593693 4.92736 0
M  V30 1549 H 132.609 0.177825 6.11141 0
M  V30 1550 H 136.783 0.737419 6.92485 0
M  V30 1551 H 134.41 1.12918 7.51767 0
M  V30 1552 N 135.985 -1.50799 -0.457987 0
M  V30 1553 C 137.21 -1.66496 -1.23668 0
M  V30 1554 C 137.635 -0.353288 -1.84752 0
M  V30 1555 O 136.993 0.684346 -1.67888 0
M  V30 1556 C 137.041 -2.76763 -2.3116 0
M  V30 1557 O 136.145 -2.38928 -3.36136 0
M  V30 1558 H 135.486 -0.555828 -0.363252 0
M  V30 1559 H 138.016 -1.9725 -0.543474 0
M  V30 1560 H 138.026 -3.00232 -2.76269 0
M  V30 1561 H 136.701 -3.71954 -1.86073 0
M  V30 1562 H 135.278 -2.25953 -2.96647 0
M  V30 1563 N 137.463 0.71206 -1.40597 0
M  V30 1564 C 138.693 1.49894 -1.42181 0
M  V30 1565 C 139.101 1.89189 -0.0208078 0
M  V30 1566 O 138.444 1.56223 0.966436 0
M  V30 1567 C 138.506 2.80215 -2.25211 0
M  V30 1568 C 138.17 2.63221 -3.73582 0
M  V30 1569 C 139.167 2.30249 -4.66135 0
M  V30 1570 C 136.852 2.79376 -4.17438 0
M  V30 1571 C 138.846 2.13645 -6.00529 0
M  V30 1572 C 136.533 2.6239 -5.51901 0
M  V30 1573 C 137.531 2.29573 -6.43262 0
M  V30 1574 O 137.219 2.12719 -7.75246 0
M  V30 1575 H 136.951 0.469031 -0.486812 0
M  V30 1576 H 139.505 0.88564 -1.85326 0
M  V30 1577 H 137.735 3.4389 -1.76852 0
M  V30 1578 H 139.424 3.41947 -2.18694 0
M  V30 1579 H 140.19 2.17398 -4.33547 0
M  V30 1580 H 136.069 3.03906 -3.46644 0
M  V30 1581 H 139.613 1.87953 -6.71803 0
M  V30 1582 H 135.51 2.74826 -5.84073 0
M  V30 1583 H 136.278 2.27611 -7.86216 0
M  V30 1584 N 138.941 1.26152 0.944643 0
M  V30 1585 C 139.871 1.09902 2.06019 0
M  V30 1586 C 140.852 0.00519538 1.70099 0
M  V30 1587 O 142.037 0.176583 1.93396 0
M  V30 1588 C 139.167 0.727562 3.39594 0
M  V30 1589 C 138.121 1.77274 3.89561 0
M  V30 1590 C 137.447 1.25569 5.19747 0
M  V30 1591 C 138.747 3.17357 4.14827 0
M  V30 1592 H 140.441 2.03217 2.19871 0
M  V30 1593 H 137.987 0.978452 1.05652 0
M  V30 1594 H 139.94 0.600777 4.17095 0
M  V30 1595 H 138.664 -0.241287 3.25707 0
M  V30 1596 H 137.323 1.88814 3.14237 0
M  V30 1597 H 136.971 0.276783 5.02238 0
M  V30 1598 H 136.671 1.95433 5.54148 0
M  V30 1599 H 138.195 1.1415 5.99835 0
M  V30 1600 H 139.609 3.08914 4.82954 0
M  V30 1601 H 138.006 3.84781 4.60504 0
M  V30 1602 H 139.076 3.63673 3.20734 0
M  V30 1603 N 140.419 -1.14872 1.07899 0
M  V30 1604 C 141.666 -1.85789 0.805532 0
M  V30 1605 C 141.994 -1.82649 -0.668561 0
M  V30 1606 O 141.249 -1.24858 -1.50695 0
M  V30 1607 C 141.548 -3.34223 1.26609 0
M  V30 1608 C 141.214 -3.57555 2.74709 0
M  V30 1609 C 139.876 -3.63631 3.1516 0
M  V30 1610 C 142.228 -3.66803 3.70277 0
M  V30 1611 C 139.556 -3.76473 4.49983 0
M  V30 1612 C 141.908 -3.8117 5.04869 0
M  V30 1613 C 140.572 -3.85494 5.44932 0
M  V30 1614 H 139.842 -0.679849 0.294765 0
M  V30 1615 H 142.489 -1.3572 1.35101 0
M  V30 1616 H 140.794 -3.86536 0.640103 0
M  V30 1617 H 142.491 -3.87511 1.03132 0
M  V30 1618 H 139.081 -3.5347 2.42398 0
M  V30 1619 H 143.265 -3.61404 3.40149 0
M  V30 1620 H 138.521 -3.7808 4.80484 0
M  V30 1621 H 142.695 -3.87268 5.78789 0
M  V30 1622 H 140.322 -3.95197 6.49403 0
M  V30 1623 N 141.898 -0.863906 -1.31812 0
M  V30 1624 C 143.145 -0.471836 -1.96926 0
M  V30 1625 C 143.473 0.974578 -1.68322 0
M  V30 1626 O 142.728 1.7003 -0.968933 0
M  V30 1627 C 143.027 -0.668547 -3.51091 0
M  V30 1628 C 142.693 -2.08683 -3.99703 0
M  V30 1629 C 141.355 -2.47471 -4.12688 0
M  V30 1630 C 143.707 -3.01207 -4.25351 0
M  V30 1631 C 141.035 -3.78037 -4.4867 0
M  V30 1632 C 143.387 -4.31282 -4.62794 0
M  V30 1633 C 142.051 -4.69992 -4.73987 0
M  V30 1634 H 141.321 -0.172657 -0.720604 0
M  V30 1635 H 143.968 -1.09573 -1.57054 0
M  V30 1636 H 142.273 0.0385252 -3.91781 0
M  V30 1637 H 143.97 -0.345102 -3.99512 0
M  V30 1638 H 140.56 -1.77566 -3.90087 0
M  V30 1639 H 144.744 -2.72469 -4.14819 0
M  V30 1640 H 140 -4.078 -4.55532 0
M  V30 1641 H 144.174 -5.03031 -4.81594 0
M  V30 1642 H 141.801 -5.71207 -5.01624 0
M  V30 1643 N 143.376 1.44774 -0.622745 0
M  V30 1644 C 144.306 2.33382 0.0741861 0
M  V30 1645 C 145.287 1.47719 0.843387 0
M  V30 1646 O 146.472 1.76458 0.810934 0
M  V30 1647 C 143.602 3.30663 1.06204 0
M  V30 1648 C 142.556 4.26079 0.405037 0
M  V30 1649 C 141.882 5.13165 1.5022 0
M  V30 1650 C 143.182 5.1781 -0.683414 0
M  V30 1651 H 144.876 2.91905 -0.665713 0
M  V30 1652 H 142.422 1.40363 -0.321587 0
M  V30 1653 H 144.375 3.9153 1.55827 0
M  V30 1654 H 143.099 2.70331 1.83272 0
M  V30 1655 H 141.758 3.66532 -0.0704683 0
M  V30 1656 H 141.406 4.49191 2.26355 0
M  V30 1657 H 141.106 5.77812 1.06803 0
M  V30 1658 H 142.63 5.76902 2.00041 0
M  V30 1659 H 144.044 5.72661 -0.270631 0
M  V30 1660 H 142.441 5.91015 -1.04023 0
M  V30 1661 H 143.511 4.59326 -1.55395 0
M  V30 1662 N 144.854 0.36279 1.53368 0
M  V30 1663 C 146.1 -0.228113 2.01513 0
M  V30 1664 C 146.433 -1.48648 1.2497 0
M  V30 1665 O 145.708 -1.91459 0.342616 0
M  V30 1666 C 145.991 -0.522884 3.56284 0
M  V30 1667 C 145.844 0.74892 4.43521 0
M  V30 1668 C 147.163 -1.32461 4.19693 0
M  V30 1669 H 144.282 -0.0814343 0.732487 0
M  V30 1670 H 146.924 0.48713 1.83649 0
M  V30 1671 H 145.074 -1.1322 3.71636 0
M  V30 1672 H 146.746 1.38648 4.39971 0
M  V30 1673 H 144.989 1.36986 4.11603 0
M  V30 1674 H 145.66 0.497667 5.49752 0
M  V30 1675 H 148.136 -0.809203 4.08156 0
M  V30 1676 H 147.012 -1.49961 5.28018 0
M  V30 1677 H 147.273 -2.33232 3.75573 0
M  V30 1678 N 146.332 -1.57332 0.0918853 0
M  V30 1679 C 147.262 -2.16872 -0.865371 0
M  V30 1680 C 148.243 -1.10118 -1.29646 0
M  V30 1681 O 149.428 -1.38242 -1.36392 0
M  V30 1682 C 146.558 -2.74649 -2.12569 0
M  V30 1683 C 145.512 -3.86747 -1.83333 0
M  V30 1684 C 144.838 -4.31212 -3.16166 0
M  V30 1685 C 146.138 -5.10089 -1.1228 0
M  V30 1686 H 147.832 -2.97114 -0.369307 0
M  V30 1687 H 145.378 -1.42918 -0.176194 0
M  V30 1688 H 147.331 -3.14952 -2.7997 0
M  V30 1689 H 146.055 -1.91657 -2.64452 0
M  V30 1690 H 144.714 -3.46978 -1.18331 0
M  V30 1691 H 144.362 -3.45115 -3.6593 0
M  V30 1692 H 144.062 -5.06788 -2.97388 0
M  V30 1693 H 145.586 -4.74146 -3.84731 0
M  V30 1694 H 147 -5.47582 -1.69785 0
M  V30 1695 H 145.397 -5.91073 -1.03693 0
M  V30 1696 H 146.467 -4.84786 -0.105041 0
M  V30 1697 N 147.81 0.181792 -1.56548 0
M  V30 1698 C 148.74 1.22765 -1.98623 0
M  V30 1699 C 149.721 1.46747 -0.860189 0
M  V30 1700 O 150.906 1.58259 -1.12551 0
M  V30 1701 C 148.036 2.56894 -2.33715 0
M  V30 1702 C 146.99 2.475 -3.49182 0
M  V30 1703 C 146.316 3.86023 -3.69986 0
M  V30 1704 C 147.616 1.98866 -4.82959 0
M  V30 1705 H 149.31 0.877942 -2.86239 0
M  V30 1706 H 146.856 0.42088 -1.37712 0
M  V30 1707 H 148.809 3.30253 -2.61746 0
M  V30 1708 H 147.533 2.93632 -1.42997 0
M  V30 1709 H 146.192 1.76596 -3.21262 0
M  V30 1710 H 145.84 4.20136 -2.76576 0
M  V30 1711 H 145.54 3.80609 -4.47672 0
M  V30 1712 H 147.064 4.60984 -4.00407 0
M  V30 1713 H 148.478 2.61992 -5.09934 0
M  V30 1714 H 146.875 2.04424 -5.64208 0
M  V30 1715 H 147.945 0.942465 -4.75653 0
M  V30 1716 N 149.288 1.51039 0.449983 0
M  V30 1717 C 150.536 1.62759 1.19808 0
M  V30 1718 C 150.857 0.339981 1.92013 0
M  V30 1719 O 150.127 -0.643606 1.85026 0
M  V30 1720 H 148.707 0.599811 0.445237 0
M  V30 1721 H 151.369 1.87914 0.517138 0
M  V30 1722 H 150.465 2.44911 1.93455 0
M  V30 1723 N 150.766 -0.704594 1.40972 0
M  V30 1724 C 152.015 -1.46018 1.39146 0
M  V30 1725 C 152.328 -1.956 0.000589254 0
M  V30 1726 O 153.534 -2.71137 -0.1403 0
M  V30 1727 C 151.99 -2.63996 2.4461 0
M  V30 1728 C 151.598 -2.21238 3.89561 0
M  V30 1729 C 153.342 -3.41677 2.51907 0
M  V30 1730 C 151.249 -3.3612 4.86598 0
M  V30 1731 H 150.179 -0.548444 0.517422 0
M  V30 1732 H 152.83 -0.765784 1.66757 0
M  V30 1733 H 151.212 -3.3566 2.10115 0
M  V30 1734 H 152.386 -1.56923 4.33257 0
M  V30 1735 H 150.701 -1.56574 3.85841 0
M  V30 1736 H 153.298 -4.27182 3.2159 0
M  V30 1737 H 153.641 -3.86247 1.55303 0
M  V30 1738 H 154.174 -2.77064 2.85448 0
M  V30 1739 H 150.913 -2.96572 5.84573 0
M  V30 1740 H 150.433 -3.99315 4.47557 0
M  V30 1741 H 152.112 -4.02029 5.06934 0
M  V30 1742 N 152.244 -1.26651 -0.937939 0
M  V30 1743 C 153.492 -1.12165 -1.68118 0
M  V30 1744 C 153.813 0.334983 -1.92101 0
M  V30 1745 O 153.083 1.23583 -1.52 0
M  V30 1746 H 151.663 -0.412093 -0.623048 0
M  V30 1747 H 154.325 -1.59027 -1.12678 0
M  V30 1748 H 153.421 -1.64289 -2.6536 0
M  V30 1749 N 153.722 1.14298 -1.08507 0
M  V30 1750 C 154.969 1.85359 -0.815373 0
M  V30 1751 C 155.297 1.83001 0.658865 0
M  V30 1752 O 154.552 1.25655 1.50031 0
M  V30 1753 C 154.851 3.33547 -1.28379 0
M  V30 1754 C 154.517 3.56093 -2.76602 0
M  V30 1755 C 153.179 3.61955 -3.17084 0
M  V30 1756 C 155.531 3.64834 -3.72217 0
M  V30 1757 C 152.859 3.74082 -4.51973 0
M  V30 1758 C 155.211 3.78487 -5.06883 0
M  V30 1759 C 153.875 3.82598 -5.46969 0
M  V30 1760 H 153.145 0.678276 -0.298366 0
M  V30 1761 H 155.792 1.35002 -1.35819 0
M  V30 1762 H 154.097 3.86191 -0.660593 0
M  V30 1763 H 155.794 3.86959 -1.05186 0
M  V30 1764 H 152.384 3.52179 -2.4427 0
M  V30 1765 H 156.568 3.59595 -3.42061 0
M  V30 1766 H 151.824 3.75527 -4.82483 0
M  V30 1767 H 155.998 3.84193 -5.80834 0
M  V30 1768 H 153.625 3.91747 -6.51489 0
M  V30 1769 N 155.201 0.870884 1.31352 0
M  V30 1770 C 156.131 0.343096 2.30966 0
M  V30 1771 C 157.112 -0.566507 1.60389 0
M  V30 1772 O 158.297 -0.483336 1.88089 0
M  V30 1773 C 155.427 -0.455487 3.443 0
M  V30 1774 C 154.381 0.361103 4.26474 0
M  V30 1775 C 153.707 -0.563221 5.31725 0
M  V30 1776 C 155.007 1.59566 4.97329 0
M  V30 1777 H 156.701 1.17548 2.75359 0
M  V30 1778 H 154.247 0.566686 1.32381 0
M  V30 1779 H 156.2 -0.83525 4.13039 0
M  V30 1780 H 154.924 -1.32139 2.98675 0
M  V30 1781 H 153.583 0.722825 3.59403 0
M  V30 1782 H 153.231 -1.42643 4.82351 0
M  V30 1783 H 152.931 -0.0207409 5.87596 0
M  V30 1784 H 154.455 -0.939808 6.03324 0
M  V30 1785 H 155.869 1.28728 5.58661 0
M  V30 1786 H 154.266 2.07728 5.63 0
M  V30 1787 H 155.336 2.34798 4.24262 0
M  V30 1788 N 156.679 -1.44442 0.630414 0
M  V30 1789 C 157.925 -2.02351 0.134816 0
M  V30 1790 C 158.258 -1.4947 -1.23986 0
M  V30 1791 O 157.533 -0.678475 -1.82283 0
M  V30 1792 C 157.816 -3.59898 0.120707 0
M  V30 1793 C 157.669 -4.23063 1.52767 0
M  V30 1794 C 158.988 -4.36585 -0.555127 0
M  V30 1795 H 156.107 -0.73527 0.0504646 0
M  V30 1796 H 158.749 -1.72022 0.806751 0
M  V30 1797 H 156.899 -3.85868 -0.451477 0
M  V30 1798 H 158.571 -4.08202 2.14869 0
M  V30 1799 H 156.814 -3.80586 2.08175 0
M  V30 1800 H 157.485 -5.32071 1.46984 0
M  V30 1801 H 159.961 -4.16044 -0.0685429 0
M  V30 1802 H 158.837 -5.46294 -0.534185 0
M  V30 1803 H 159.098 -4.11138 -1.62535 0
M  V30 1804 N 158.157 -0.370918 -1.53173 0
M  V30 1805 C 159.067 0.480823 -2.2962 0
M  V30 1806 C 160.083 1.08789 -1.35798 0
M  V30 1807 O 161.259 1.09768 -1.68858 0
M  V30 1808 C 158.324 1.60227 -3.07454 0
M  V30 1809 C 157.385 1.0222 -4.16953 0
M  V30 1810 C 156.618 2.0902 -4.91066 0
M  V30 1811 O 156.841 3.30222 -4.65091 0
M  V30 1812 O 155.775 1.71778 -5.76867 0
M  V30 1813 H 159.601 -0.141421 -3.03371 0
M  V30 1814 H 157.186 -0.135146 -1.48787 0
M  V30 1815 H 159.068 2.25417 -3.56041 0
M  V30 1816 H 157.743 2.20982 -2.36535 0
M  V30 1817 H 156.65 0.334064 -3.72605 0
M  V30 1818 H 157.983 0.459131 -4.90054 0
M  V30 1819 N 159.635 1.57281 -0.100228 0
M  V30 1820 C 160.881 1.94826 0.563101 0
M  V30 1821 C 161.214 0.982475 1.67514 0
M  V30 1822 O 160.489 0.0164069 1.94493 0
M  V30 1823 C 160.772 3.42453 1.11346 0
M  V30 1824 C 160.625 4.498 0.00612081 0
M  V30 1825 C 161.944 3.91506 2.01024 0
M  V30 1826 H 159.063 0.708428 0.203221 0
M  V30 1827 H 161.705 1.8922 -0.171979 0
M  V30 1828 H 159.855 3.47361 1.7399 0
M  V30 1829 H 161.527 4.57 -0.628357 0
M  V30 1830 H 159.77 4.28756 -0.659581 0
M  V30 1831 H 160.441 5.50306 0.432109 0
M  V30 1832 H 162.917 3.88784 1.48278 0
M  V30 1833 H 161.793 4.95358 2.36457 0
M  V30 1834 H 162.054 3.31099 2.92961 0
M  V30 1835 N 161.113 -0.173488 1.56642 0
M  V30 1836 C 162.529 -0.525174 1.50712 0
M  V30 1837 C 162.729 -1.8476 0.804107 0
M  V30 1838 O 161.785 -2.49869 0.363574 0
M  V30 1839 C 163.098 -0.559937 2.95441 0
M  V30 1840 C 164.646 -0.647288 3.06234 0
M  V30 1841 C 165.121 -0.712963 4.52417 0
M  V30 1842 N 166.612 -0.775911 4.56655 0
M  V30 1843 C 167.347 -0.847264 5.67106 0
M  V30 1844 N 166.843 -0.879585 6.87194 0
M  V30 1845 N 168.636 -0.886117 5.55071 0
M  V30 1846 H 160.787 0.693681 2.00753 0
M  V30 1847 H 163.05 0.249841 0.914485 0
M  V30 1848 H 162.756 0.343049 3.50023 0
M  V30 1849 H 162.63 -1.40718 3.49969 0
M  V30 1850 H 165.017 -1.5407 2.51687 0
M  V30 1851 H 165.098 0.226586 2.54794 0
M  V30 1852 H 164.742 0.176183 5.07594 0
M  V30 1853 H 164.672 -1.60295 5.0161 0
M  V30 1854 H 167.163 -0.759304 3.70193 0
M  V30 1855 H 167.476 -0.935144 7.67121 0
M  V30 1856 H 165.821 -0.847898 6.89808 0
M  V30 1857 H 169.012 -0.857853 4.60172 0
M  V30 1858 H 169.185 -0.938263 6.41171 0
M  V30 1859 N 162.591 -1.51276 -0.441967 0
M  V30 1860 C 164.007 -1.39349 -0.778083 0
M  V30 1861 C 164.207 -0.472212 -1.95889 0
M  V30 1862 O 163.263 0.0743551 -2.5239 0
M  V30 1863 C 164.576 -2.81292 -1.0628 0
M  V30 1864 C 166.124 -2.9041 -1.16751 0
M  V30 1865 C 166.599 -4.33251 -1.48519 0
M  V30 1866 N 168.09 -4.36336 -1.55453 0
M  V30 1867 C 168.825 -5.43885 -1.81596 0
M  V30 1868 N 168.321 -6.61601 -2.05562 0
M  V30 1869 N 170.114 -5.3136 -1.8334 0
M  V30 1870 H 162.265 -2.09729 0.335774 0
M  V30 1871 H 164.528 -0.943925 0.0878028 0
M  V30 1872 H 164.234 -3.50678 -0.267905 0
M  V30 1873 H 164.108 -3.20334 -1.99163 0
M  V30 1874 H 166.495 -2.21225 -1.95304 0
M  V30 1875 H 166.576 -2.54871 -0.217801 0
M  V30 1876 H 166.22 -5.02984 -0.704958 0
M  V30 1877 H 166.15 -4.66299 -2.44689 0
M  V30 1878 H 168.641 -3.51466 -1.38853 0
M  V30 1879 H 168.954 -7.39361 -2.24867 0
M  V30 1880 H 167.299 -6.64725 -2.02894 0
M  V30 1881 H 170.49 -4.38382 -1.64132 0
M  V30 1882 H 170.663 -6.15258 -2.03377 0
M  V30 1883 N 164.069 0.697108 -1.41344 0
M  V30 1884 C 165.317 1.45426 -1.40341 0
M  V30 1885 C 165.638 1.94996 -0.0128787 0
M  V30 1886 O 164.908 1.71599 0.945027 0
M  V30 1887 H 163.488 0.539594 -0.516573 0
M  V30 1888 H 166.15 0.825201 -1.76569 0
M  V30 1889 H 165.246 2.31817 -2.08967 0
M  V30 1890 N 165.547 1.27147 0.931209 0
M  V30 1891 C 166.777 1.15914 1.71019 0
M  V30 1892 C 167.185 -0.287112 1.87009 0
M  V30 1893 O 166.528 -1.20761 1.38429 0
M  V30 1894 C 166.59 1.76647 3.13107 0
M  V30 1895 C 166.254 3.25807 3.20467 0
M  V30 1896 C 167.251 4.22489 3.02983 0
M  V30 1897 C 164.936 3.66452 3.43538 0
M  V30 1898 C 166.93 5.57794 3.08454 0
M  V30 1899 C 164.617 5.01888 3.48643 0
M  V30 1900 C 165.615 5.97369 3.31119 0
M  V30 1901 O 165.303 7.30337 3.35952 0
M  V30 1902 H 165.035 0.404062 0.54195 0
M  V30 1903 H 167.589 1.68457 1.17521 0
M  V30 1904 H 165.819 1.18578 3.68071 0
M  V30 1905 H 167.508 1.60179 3.72958 0
M  V30 1906 H 168.274 3.92425 2.85004 0
M  V30 1907 H 164.153 2.92611 3.5623 0
M  V30 1908 H 167.697 6.32298 2.94694 0
M  V30 1909 H 163.594 5.31609 3.66145 0
M  V30 1910 H 164.362 7.38739 3.5243 0
M  V30 1911 N 167.025 -1.13721 1.09112 0
M  V30 1912 C 168.271 -1.85198 0.826414 0
M  V30 1913 C 168.604 -1.83129 -0.646319 0
M  V30 1914 O 167.879 -1.2671 -1.47563 0
M  V30 1915 C 168.162 -3.33507 1.35812 0
M  V30 1916 C 168.015 -3.44108 2.89672 0
M  V30 1917 C 169.334 -4.28838 0.989256 0
M  V30 1918 H 166.453 -0.67243 0.301675 0
M  V30 1919 H 169.095 -1.33499 1.35197 0
M  V30 1920 H 167.245 -3.77666 0.911082 0
M  V30 1921 H 168.917 -3.08684 3.428 0
M  V30 1922 H 167.16 -2.85087 3.26967 0
M  V30 1923 H 167.831 -4.48388 3.21951 0
M  V30 1924 H 170.307 -3.92734 1.37475 0
M  V30 1925 H 169.183 -5.31051 1.38838 0
M  V30 1926 H 169.444 -4.4198 -0.102924 0
M  V30 1927 N 168.503 -0.877838 -1.30888 0
M  V30 1928 C 169.919 -0.570844 -1.49042 0
M  V30 1929 C 170.119 0.893159 -1.80624 0
M  V30 1930 O 169.175 1.67485 -1.88958 0
M  V30 1931 C 170.488 -1.47784 -2.61878 0
M  V30 1932 C 172.036 -1.48071 -2.75761 0
M  V30 1933 C 172.511 -2.37347 -3.91702 0
M  V30 1934 N 174.002 -2.35271 -3.99001 0
M  V30 1935 C 174.737 -3.01063 -4.88004 0
M  V30 1936 N 174.233 -3.76055 -5.81854 0
M  V30 1937 N 176.026 -2.90332 -4.81315 0
M  V30 1938 H 168.177 -1.82502 -1.0866 0
M  V30 1939 H 170.44 -0.780797 -0.537644 0
M  V30 1940 H 170.146 -2.51993 -2.45341 0
M  V30 1941 H 170.02 -1.18215 -3.58197 0
M  V30 1942 H 172.407 -0.446166 -2.91708 0
M  V30 1943 H 172.488 -1.81668 -1.80085 0
M  V30 1944 H 172.132 -3.40883 -3.76512 0
M  V30 1945 H 172.062 -2.01071 -4.86701 0
M  V30 1946 H 174.553 -1.80768 -3.3186 0
M  V30 1947 H 174.866 -4.23366 -6.46514 0
M  V30 1948 H 173.211 -3.80163 -5.81808 0
M  V30 1949 H 176.402 -2.31278 -4.06974 0
M  V30 1950 H 176.575 -3.41885 -5.50471 0
M  V30 1951 N 169.982 1.44106 -0.638065 0
M  V30 1952 C 171.228 2.02815 -0.15409 0
M  V30 1953 C 171.583 1.49342 1.21304 0
M  V30 1954 O 170.876 0.670699 1.79478 0
M  V30 1955 C 171.07 3.5729 -0.0887327 0
M  V30 1956 C 170.899 4.2575 -1.44799 0
M  V30 1957 C 169.669 4.62443 -2.03653 0
M  V30 1958 C 171.867 4.55746 -2.38327 0
M  V30 1959 N 169.849 5.15903 -3.32741 0
M  V30 1960 C 171.22 5.10364 -3.52036 0
M  V30 1961 C 173.275 4.37703 -2.3732 0
M  V30 1962 C 171.978 5.48837 -4.64941 0
M  V30 1963 C 174.004 4.77229 -3.49294 0
M  V30 1964 C 173.366 5.31966 -4.61726 0
M  V30 1965 H 169.465 0.775519 -0.100466 0
M  V30 1966 H 172.049 1.755 -0.843071 0
M  V30 1967 H 170.22 3.84201 0.569548 0
M  V30 1968 H 171.952 4.02671 0.404711 0
M  V30 1969 H 168.707 4.46987 -1.56523 0
M  V30 1970 H 169.131 5.47102 -3.98758 0
M  V30 1971 H 173.773 3.94671 -1.51641 0
M  V30 1972 H 171.491 5.9082 -5.51323 0
M  V30 1973 H 175.077 4.64976 -3.49698 0
M  V30 1974 H 173.957 5.61986 -5.46939 0
M  V30 1975 N 171.46 0.379036 1.52974 0
M  V30 1976 C 172.423 -0.448865 2.24762 0
M  V30 1977 C 173.423 -0.998689 1.26027 0
M  V30 1978 O 174.613 -0.882313 1.50203 0
M  V30 1979 C 171.745 -1.62872 2.99476 0
M  V30 1980 H 172.938 0.179491 2.99362 0
M  V30 1981 H 170.491 0.13096 1.5575 0
M  V30 1982 H 171.226 -2.29479 2.29151 0
M  V30 1983 H 171.011 -1.24128 3.71934 0
M  V30 1984 H 172.501 -2.2151 3.5401 0
M  V30 1985 N 172.938 -1.57226 0.108567 0
M  V30 1986 C 174.168 -1.9889 -0.559142 0
M  V30 1987 C 174.576 -0.986889 -1.61422 0
M  V30 1988 O 173.919 0.0298705 -1.83676 0
M  V30 1989 C 173.981 -3.36952 -1.25315 0
M  V30 1990 C 173.645 -4.55679 -0.347248 0
M  V30 1991 C 174.642 -5.18281 0.409996 0
M  V30 1992 C 172.327 -5.0162 -0.261367 0
M  V30 1993 C 174.321 -6.25203 1.24096 0
M  V30 1994 C 172.008 -6.08405 0.573238 0
M  V30 1995 C 173.006 -6.70063 1.32304 0
M  V30 1996 O 172.694 -7.74788 2.14381 0
M  V30 1997 H 172.426 -0.658343 -0.153492 0
M  V30 1998 H 174.98 -2.04532 0.188584 0
M  V30 1999 H 173.21 -3.28032 -2.04773 0
M  V30 2000 H 174.899 -3.62974 -1.81673 0
M  V30 2001 H 175.665 -4.8371 0.353457 0
M  V30 2002 H 171.544 -4.53381 -0.834656 0
M  V30 2003 H 175.088 -6.73259 1.82669 0
M  V30 2004 H 170.985 -6.42406 0.631208 0
M  V30 2005 H 171.753 -7.91837 2.07209 0
M  V30 2006 O 174.455 0.0311049 -1.6147 0
M  V30 2007 H 175.146 0.651916 -1.824 0
M  V30 END ATOM
M  V30 BEGIN BOND
M  V30 END BOND
M  V30 END CTAB
M  END
$$$$
