drugbank_target|Q3IWB0 Tyrosine ammonia-lyase (DB01880; DB04066)
 OpenBabel12092120453D

  0  0  0     0  0            999 V3000
M  V30 BEGIN CTAB
M  V30 COUNTS 7774 7838 0 0 0
M  V30 BEGIN ATOM
M  V30 1 H -0.908 1.98254 -0.117106 0
M  V30 2 N 0 1.576 0 0
M  V30 3 C 0.933 2.03868 1.02534 0
M  V30 4 C 1.911 0.928543 1.3348 0
M  V30 5 O 3.095 1.19667 1.45644 0
M  V30 6 C 0.222 2.43627 2.35294 0
M  V30 7 C -0.732 3.65373 2.2001 0
M  V30 8 S 0.101 5.13292 1.52614 0
M  V30 9 C 1.257 5.56322 2.86805 0
M  V30 10 H 1.49 2.90518 0.631377 0
M  V30 11 H -0.977 1.52953 0.210867 0
M  V30 12 H 0.981 2.67203 3.11629 0
M  V30 13 H -0.358 1.57376 2.7183 0
M  V30 14 H -1.165 3.90944 3.18086 0
M  V30 15 H -1.563 3.418 1.51819 0
M  V30 16 H 0.729 5.58782 3.83104 0
M  V30 17 H 1.672 6.56266 2.65933 0
M  V30 18 H 2.08 4.83886 2.90714 0
M  V30 19 N 1.4781 -0.272755 1.55222 0
M  V30 20 C 2.4081 -1.34136 1.91127 0
M  V30 21 C 3.3891 -1.51513 0.773168 0
M  V30 22 O 4.5741 -1.64552 1.03132 0
M  V30 23 C 1.7041 -2.70083 2.1834 0
M  V30 24 C 0.6581 -2.67437 3.34158 0
M  V30 25 C -0.0159 -4.06938 3.46851 0
M  V30 26 C 1.2841 -2.26686 4.70543 0
M  V30 27 H 2.9781 -1.04333 2.80633 0
M  V30 28 H 0.5241 -0.500454 1.35024 0
M  V30 29 H 2.4771 -3.44952 2.42046 0
M  V30 30 H 1.2011 -3.01469 1.25634 0
M  V30 31 H -0.1399 -1.95026 3.1042 0
M  V30 32 H -0.4919 -4.35547 2.51611 0
M  V30 33 H -0.7919 -4.06062 4.2472 0
M  V30 34 H 0.7321 -4.83545 3.72849 0
M  V30 35 H 2.1461 -2.91277 4.93792 0
M  V30 36 H 0.5431 -2.36971 5.5133 0
M  V30 37 H 1.6131 -1.21818 4.69349 0
M  V30 38 N 2.9562 -1.48159 -0.537278 0
M  V30 39 C 3.9192 -1.61665 -1.62472 0
M  V30 40 C 4.9192 -0.490395 -1.5314 0
M  V30 41 O 6.1092 -0.755998 -1.5694 0
M  V30 42 C 3.2412 -1.57997 -3.02076 0
M  V30 43 H 4.4342 -2.58621 -1.51839 0
M  V30 44 H 1.9872 -1.36647 -0.758771 0
M  V30 45 H 2.7222 -0.624913 -3.18222 0
M  V30 46 H 2.5072 -2.39755 -3.10258 0
M  V30 47 H 3.9972 -1.70627 -3.81151 0
M  V30 48 N 4.4343 0.785586 -1.36625 0
M  V30 49 C 5.3673 1.90509 -1.25625 0
M  V30 50 C 6.3453 1.62 -0.139607 0
M  V30 51 O 7.5293 1.8591 -0.31141 0
M  V30 52 C 4.6563 3.25419 -0.939158 0
M  V30 53 C 3.7023 3.72856 -2.07077 0
M  V30 54 S 4.5353 3.88162 -3.68904 0
M  V30 55 C 5.6913 5.25942 -3.39317 0
M  V30 56 H 5.9243 1.99549 -2.20381 0
M  V30 57 H 3.4573 0.945226 -1.22085 0
M  V30 58 H 5.4153 4.03346 -0.763029 0
M  V30 59 H 4.0763 3.14099 -0.00931402 0
M  V30 60 H 3.2693 4.70624 -1.80357 0
M  V30 61 H 2.8713 3.01989 -2.20632 0
M  V30 62 H 5.1633 6.10651 -2.93447 0
M  V30 63 H 6.1063 5.57668 -4.36363 0
M  V30 64 H 6.5143 4.93224 -2.74573 0
M  V30 65 N 5.9124 1.20967 1.01018 0
M  V30 66 C 7.1374 1.0503 1.78839 0
M  V30 67 C 7.5624 -0.395752 1.8389 0
M  V30 68 O 6.9204 -1.28529 1.27867 0
M  V30 69 C 6.9684 1.64602 3.2084 0
M  V30 70 O 6.0724 0.887988 4.02726 0
M  V30 71 H 5.4134 0.369987 0.551367 0
M  V30 72 H 7.9434 1.60399 1.27018 0
M  V30 73 H 7.9534 1.68607 3.71532 0
M  V30 74 H 6.6284 2.69841 3.16479 0
M  V30 75 H 5.2054 0.922648 3.61305 0
M  V30 76 N 7.3905 -1.2043 1.01659 0
M  V30 77 C 8.8015 -1.71517 0.737482 0
M  V30 78 C 9.1525 -1.81547 -0.743973 0
M  V30 79 O 8.2775 -1.47803 -1.58061 0
M  V30 80 C 8.8725 -3.11515 1.33206 0
M  V30 81 C 7.4315 -3.59912 1.10183 0
M  V30 82 C 6.5785 -2.37116 1.43776 0
M  V30 83 H 9.5295 -1.05444 1.18606 0
M  V30 84 H 9.5505 -3.73575 0.722636 0
M  V30 85 H 9.0625 -3.04182 2.41028 0
M  V30 86 H 7.1635 -3.72577 0.0412756 0
M  V30 87 H 7.2765 -4.44731 1.78188 0
M  V30 88 H 5.6405 -2.39857 0.856778 0
M  V30 89 H 6.4235 -2.32424 2.52654 0
M  V30 90 N 8.8686 -0.792821 -1.36206 0
M  V30 91 C 10.2796 -0.429513 -1.81692 0
M  V30 92 C 10.6306 1.04695 -1.65932 0
M  V30 93 O 9.7556 1.81256 -1.18218 0
M  V30 94 C 10.3506 -0.772831 -3.29868 0
M  V30 95 C 8.9096 -0.462307 -3.7355 0
M  V30 96 C 8.0566 -1.00569 -2.5842 0
M  V30 97 H 11.0076 -0.985672 -1.24379 0
M  V30 98 H 11.0286 -0.0651928 -3.80444 0
M  V30 99 H 10.5406 -1.84747 -3.41307 0
M  V30 100 H 8.6416 0.604158 -3.67669 0
M  V30 101 H 8.7546 -0.985299 -4.68859 0
M  V30 102 H 7.1186 -0.428734 -2.51066 0
M  V30 103 H 7.9016 -2.08616 -2.72643 0
M  V30 104 N 10.3467 1.47872 -0.545128 0
M  V30 105 C 11.2937 2.29849 0.2093 0
M  V30 106 C 12.2637 1.38313 0.919707 0
M  V30 107 O 13.4487 1.67277 0.917772 0
M  V30 108 C 10.5887 3.22019 1.24088 0
M  V30 109 C 9.7017 4.2864 0.537778 0
M  V30 110 C 8.8367 5.07973 1.5536 0
M  V30 111 C 7.8757 6.06381 0.8348 0
M  V30 112 N 7.0127 6.78717 1.79688 0
M  V30 113 H 11.8527 2.93845 -0.49591 0
M  V30 114 H 9.3897 1.44848 -0.256389 0
M  V30 115 H 11.3477 3.73868 1.85144 0
M  V30 116 H 9.9777 2.59914 1.91428 0
M  V30 117 H 9.0297 3.7994 -0.187046 0
M  V30 118 H 10.3417 4.98793 -0.0258907 0
M  V30 119 H 9.4957 5.63912 2.23803 0
M  V30 120 H 8.2347 4.37693 2.15118 0
M  V30 121 H 7.2397 5.49631 0.136388 0
M  V30 122 H 8.4647 6.78665 0.24313 0
M  V30 123 H 6.4107 6.11177 2.38326 0
M  V30 124 H 6.3277 7.44998 1.28505 0
M  V30 125 H 7.5957 7.39237 2.47282 0
M  V30 126 N 11.8248 0.280983 1.55075 0
M  V30 127 C 13.2358 -0.215629 1.85451 0
M  V30 128 C 13.5868 -1.54991 1.203 0
M  V30 129 O 12.7118 -2.10699 0.493435 0
M  V30 130 C 13.3068 -0.398026 3.36454 0
M  V30 131 C 11.8658 -0.838866 3.66933 0
M  V30 132 C 11.0128 0.064458 2.77225 0
M  V30 133 H 13.9638 0.502601 1.50531 0
M  V30 134 H 13.9848 -1.23569 3.59876 0
M  V30 135 H 13.4968 0.573241 3.83843 0
M  V30 136 H 11.5978 -1.8214 3.25048 0
M  V30 137 H 11.7108 -0.672123 4.74362 0
M  V30 138 H 10.0748 -0.452863 2.50642 0
M  V30 139 H 10.8578 1.03172 3.2743 0
M  V30 140 N 13.3029 -1.57598 0.00835791 0
M  V30 141 C 14.2659 -2.07884 -0.965242 0
M  V30 142 C 15.2659 -0.989825 -1.26725 0
M  V30 143 O 16.4559 -1.25218 -1.21104 0
M  V30 144 C 13.5879 -2.52731 -2.28779 0
M  V30 145 H 14.7809 -2.95178 -0.530112 0
M  V30 146 H 12.3339 -1.54458 -0.239283 0
M  V30 147 H 13.0689 -1.68705 -2.76964 0
M  V30 148 H 12.8539 -3.32272 -2.08177 0
M  V30 149 H 14.3439 -2.91933 -2.98605 0
M  V30 150 N 14.781 0.264519 -1.55364 0
M  V30 151 C 16.027 0.99646 -1.76631 0
M  V30 152 C 16.36 1.85632 -0.570478 0
M  V30 153 O 15.635 1.89647 0.43175 0
M  V30 154 C 15.918 1.87187 -3.07625 0
M  V30 155 C 15.771 1.04138 -4.37579 0
M  V30 156 C 17.09 2.85749 -3.34717 0
M  V30 157 H 14.209 0.360841 -0.642622 0
M  V30 158 H 16.851 0.268218 -1.88097 0
M  V30 159 H 15.001 2.49279 -2.9798 0
M  V30 160 H 16.673 0.440517 -4.59192 0
M  V30 161 H 14.916 0.345115 -4.32425 0
M  V30 162 H 15.587 1.68729 -5.2558 0
M  V30 163 H 18.063 2.33793 -3.4421 0
M  V30 164 H 16.939 3.44136 -4.27623 0
M  V30 165 H 17.2 3.61311 -2.54768 0
M  V30 166 N 16.2591 1.48442 0.529413 0
M  V30 167 C 17.1691 1.6569 1.66084 0
M  V30 168 C 18.1851 0.539432 1.65427 0
M  V30 169 O 19.3611 0.810572 1.84368 0
M  V30 170 C 16.4261 1.69315 3.02545 0
M  V30 171 C 15.4871 2.92694 3.14052 0
M  V30 172 C 14.7201 2.96137 4.44003 0
M  V30 173 O 14.9431 2.07973 5.31134 0
M  V30 174 O 13.8771 3.88312 4.59888 0
M  V30 175 H 17.7031 2.61483 1.54469 0
M  V30 176 H 15.2881 1.3185 0.702567 0
M  V30 177 H 17.1701 1.74217 3.83701 0
M  V30 178 H 15.8451 0.766966 3.14483 0
M  V30 179 H 14.7521 2.93324 2.32189 0
M  V30 180 H 16.0851 3.84699 3.0703 0
M  V30 181 N 17.7372 -0.778329 1.37039 0
M  V30 182 C 18.6672 -1.90546 1.34962 0
M  V30 183 C 19.6482 -1.68681 0.219274 0
M  V30 184 O 20.8332 -1.89634 0.418624 0
M  V30 185 C 17.9632 -3.27734 1.14925 0
M  V30 186 C 16.9172 -3.64147 2.24902 0
M  V30 187 C 16.2432 -4.99806 1.89996 0
M  V30 188 C 17.5432 -3.71579 3.67051 0
M  V30 189 H 19.2372 -1.92541 2.29277 0
M  V30 190 H 16.7832 -0.924948 1.10366 0
M  V30 191 H 18.7362 -4.06215 1.12104 0
M  V30 192 H 17.4602 -3.26154 0.170631 0
M  V30 193 H 16.1192 -2.8797 2.26868 0
M  V30 194 H 15.7672 -4.94759 0.906796 0
M  V30 195 H 15.4672 -5.25139 2.63634 0
M  V30 196 H 16.9912 -5.80694 1.88749 0
M  V30 197 H 18.4052 -4.40227 3.67251 0
M  V30 198 H 16.8022 -4.08405 4.39688 0
M  V30 199 H 17.8722 -2.72404 4.01154 0
M  V30 200 N 19.2153 -1.21501 -1.00376 0
M  V30 201 C 20.4923 -0.941745 -1.71437 0
M  V30 202 C 20.8723 0.546114 -2.03914 0
M  V30 203 O 20.2203 1.51128 -1.71384 0
M  V30 204 C 20.4303 -1.82812 -2.97289 0
M  V30 205 C 21.7783 -2.07771 -3.70292 0
M  V30 206 O 22.8023 -1.80171 -3.07273 0
M  V30 207 O 21.6613 -2.54456 -4.83647 0
M  V30 208 H 18.7553 -0.353243 -0.747762 0
M  V30 209 H 21.3013 -1.32436 -1.06108 0
M  V30 210 H 20.0733 -2.83501 -2.69709 0
M  V30 211 H 19.6963 -1.4464 -3.70358 0
M  V30 212 N 20.6934 1.19889 -1.02296 0
M  V30 213 C 22.1094 1.41462 -0.738954 0
M  V30 214 C 22.3094 1.89721 0.678846 0
M  V30 215 O 21.3654 2.07016 1.4457 0
M  V30 216 C 22.6784 2.43083 -1.77005 0
M  V30 217 C 24.2264 2.5684 -1.78892 0
M  V30 218 C 24.7014 3.61709 -2.80945 0
M  V30 219 N 26.1924 3.69199 -2.79725 0
M  V30 220 C 26.9274 4.50019 -3.55345 0
M  V30 221 N 26.4234 5.34592 -4.40662 0
M  V30 222 N 28.2164 4.44612 -3.43914 0
M  V30 223 H 20.3674 0.868827 -1.93817 0
M  V30 224 H 22.6304 0.44399 -0.837602 0
M  V30 225 H 22.3364 2.14636 -2.78612 0
M  V30 226 H 22.2104 3.4217 -1.58744 0
M  V30 227 H 24.5974 2.84614 -0.779674 0
M  V30 228 H 24.6784 1.57927 -2.01228 0
M  V30 229 H 24.3224 3.34678 -3.82038 0
M  V30 230 H 24.2524 4.60259 -2.5587 0
M  V30 231 H 26.7434 3.08794 -2.17842 0
M  V30 232 H 27.0564 5.93363 -4.95116 0
M  V30 233 H 25.4014 5.34073 -4.44737 0
M  V30 234 H 28.5924 3.7758 -2.76679 0
M  V30 235 H 28.7654 5.0736 -4.031 0
M  V30 236 N 22.1715 0.800033 1.35784 0
M  V30 237 C 23.1215 0.178654 2.27299 0
M  V30 238 C 24.1055 -0.643667 1.47464 0
M  V30 239 O 25.2975 -0.502 1.69732 0
M  V30 240 C 22.4265 -0.677194 3.36555 0
M  V30 241 C 21.5125 0.154497 4.23818 0
M  V30 242 N 21.9035 1.21427 4.91008 0
M  V30 243 C 20.2015 -0.0649462 4.45953 0
M  V30 244 C 20.9025 1.72147 5.55644 0
M  V30 245 N 19.8785 1.02897 5.33773 0
M  V30 246 H 23.6805 0.989637 2.76737 0
M  V30 247 H 21.1945 0.64054 1.49234 0
M  V30 248 H 23.1915 -1.13835 4.01058 0
M  V30 249 H 21.8515 -1.4866 2.8867 0
M  V30 250 H 22.8625 1.59684 4.92668 0
M  V30 251 H 19.5395 -0.844016 4.0888 0
M  V30 252 H 20.9295 2.60683 6.19269 0
M  V30 253 N 23.6496 -1.47581 0.552962 0
M  V30 254 C 24.8986 -2.01684 0.0251995 0
M  V30 255 C 25.2116 -1.43317 -1.33115 0
M  V30 256 O 26.4176 -1.89057 -1.94858 0
M  V30 257 C 24.8736 -3.599 -0.00542052 0
M  V30 258 C 24.4816 -4.27257 1.34742 0
M  V30 259 C 26.2256 -4.21768 -0.4808 0
M  V30 260 C 24.1326 -5.77467 1.27614 0
M  V30 261 H 23.0626 -0.753979 0.00565033 0
M  V30 262 H 25.7136 -1.69616 0.70018 0
M  V30 263 H 24.0956 -3.88911 -0.745961 0
M  V30 264 H 25.2696 -4.09893 2.10534 0
M  V30 265 H 23.5846 -3.77358 1.76039 0
M  V30 266 H 26.1816 -5.31838 -0.55246 0
M  V30 267 H 26.5246 -3.88651 -1.49184 0
M  V30 268 H 27.0576 -3.97273 0.204752 0
M  V30 269 H 23.7966 -6.15196 2.26304 0
M  V30 270 H 23.3166 -5.9718 0.55996 0
M  V30 271 H 24.9956 -6.3959 0.976421 0
M  V30 272 N 25.1277 -0.289203 -1.54924 0
M  V30 273 C 26.4047 0.376032 -1.91951 0
M  V30 274 C 26.7847 1.72622 -1.21511 0
M  V30 275 O 26.1327 2.25853 -0.346767 0
M  V30 276 C 26.3427 0.502378 -3.45365 0
M  V30 277 C 27.6907 0.778741 -4.17398 0
M  V30 278 O 28.7147 0.586647 -3.51336 0
M  V30 279 O 27.5737 1.14698 -5.34328 0
M  V30 280 H 24.6677 0.208167 -0.800372 0
M  V30 281 H 27.2137 -0.336394 -1.66332 0
M  V30 282 H 25.9857 -0.447255 -3.88736 0
M  V30 283 H 25.6087 1.26373 -3.76982 0
M  V30 284 N 26.6058 1.57591 -0.0167156 0
M  V30 285 C 27.5358 2.12496 0.967858 0
M  V30 286 C 28.5168 1.03807 1.34752 0
M  V30 287 O 29.7018 1.31577 1.42833 0
M  V30 288 C 26.8318 2.64194 2.25431 0
M  V30 289 C 25.7858 3.77559 2.01576 0
M  V30 290 C 25.1118 4.15636 3.36379 0
M  V30 291 C 26.4118 5.04151 1.36489 0
M  V30 292 H 28.1058 2.95013 0.510643 0
M  V30 293 H 25.6518 1.41915 0.244181 0
M  V30 294 H 27.6048 3.01236 2.94678 0
M  V30 295 H 26.3288 1.78821 2.73296 0
M  V30 296 H 24.9878 3.40937 1.34751 0
M  V30 297 H 24.6358 3.27263 3.81979 0
M  V30 298 H 24.3358 4.92022 3.21229 0
M  V30 299 H 25.8598 4.5525 4.06915 0
M  V30 300 H 27.2738 5.38857 1.95718 0
M  V30 301 H 25.6708 5.85453 1.31776 0
M  V30 302 H 26.7408 4.83733 0.336219 0
M  V30 303 N 28.0839 -0.256276 1.55502 0
M  V30 304 C 29.3609 -1.00789 1.67633 0
M  V30 305 C 29.7409 -2.03706 0.553826 0
M  V30 306 O 29.0889 -2.24145 -0.443969 0
M  V30 307 C 29.2989 -1.64968 3.07549 0
M  V30 308 C 30.6469 -2.15505 3.65845 0
M  V30 309 O 31.6709 -1.74925 3.1029 0
M  V30 310 O 30.5299 -2.89986 4.63217 0
M  V30 311 H 27.6239 -0.468553 0.681459 0
M  V30 312 H 30.1699 -0.250806 1.67836 0
M  V30 313 H 28.9419 -0.904785 3.80696 0
M  V30 314 H 28.5649 -2.47321 3.11317 0
M  V30 315 N 29.562 -1.4872 -0.521534 0
M  V30 316 C 30.494 -1.59968 -1.64143 0
M  V30 317 C 31.507 -0.483463 -1.55456 0
M  V30 318 O 32.696 -0.75467 -1.61762 0
M  V30 319 C 29.796 -1.52127 -3.02838 0
M  V30 320 C 28.969 -2.78932 -3.36921 0
M  V30 321 C 28.028 -2.64428 -4.54933 0
M  V30 322 O 27.054 -3.38331 -4.57735 0
M  V30 323 N 28.256 -1.74606 -5.53618 0
M  V30 324 H 31.021 -2.56548 -1.54929 0
M  V30 325 H 28.582 -1.45551 -0.708988 0
M  V30 326 H 30.574 -1.40106 -3.79674 0
M  V30 327 H 29.144 -0.634868 -3.06085 0
M  V30 328 H 28.364 -3.05455 -2.4918 0
M  V30 329 H 29.652 -3.63041 -3.56481 0
M  V30 330 H 29.05 -1.13782 -5.54139 0
M  V30 331 H 27.607 -1.6852 -6.29638 0
M  V30 332 N 31.0401 0.771051 -1.3745 0
M  V30 333 C 32.0031 1.86598 -1.33093 0
M  V30 334 C 33.0031 1.59076 -0.234845 0
M  V30 335 O 34.1931 1.67145 -0.490732 0
M  V30 336 C 31.3251 3.23747 -1.06773 0
M  V30 337 H 32.5181 1.91873 -2.30488 0
M  V30 338 H 30.0711 0.970876 -1.2249 0
M  V30 339 H 30.8061 3.24148 -0.099129 0
M  V30 340 H 30.5911 3.45115 -1.86112 0
M  V30 341 H 32.0811 4.03824 -1.06377 0
M  V30 342 N 32.5182 1.22032 0.997298 0
M  V30 343 C 33.4682 0.953838 2.07089 0
M  V30 344 C 34.4522 -0.0938669 1.60626 0
M  V30 345 O 35.6442 0.116078 1.76619 0
M  V30 346 C 32.7732 0.528726 3.39204 0
M  V30 347 C 31.8592 1.61092 3.92314 0
M  V30 348 N 32.2502 2.83768 4.18699 0
M  V30 349 C 30.5482 1.48158 4.20672 0
M  V30 350 C 31.2492 3.53715 4.61802 0
M  V30 351 N 30.2252 2.81174 4.65233 0
M  V30 352 H 34.0272 1.88577 2.25424 0
M  V30 353 H 31.5412 1.11719 1.17867 0
M  V30 354 H 33.5382 0.31915 4.15677 0
M  V30 355 H 32.1982 -0.39635 3.22272 0
M  V30 356 H 33.2092 3.20238 4.07023 0
M  V30 357 H 29.8862 0.622369 4.12835 0
M  V30 358 H 31.2762 4.58793 4.90875 0
M  V30 359 N 33.9963 -1.19345 1.0293 0
M  V30 360 C 34.9593 -2.20793 0.615069 0
M  V30 361 C 35.9593 -1.57553 -0.321533 0
M  V30 362 O 37.1493 -1.73862 -0.108483 0
M  V30 363 C 34.2813 -3.40754 -0.0999222 0
M  V30 364 H 35.4743 -2.58955 1.51269 0
M  V30 365 H 33.0273 -1.3303 0.820534 0
M  V30 366 H 33.7623 -3.0811 -1.01187 0
M  V30 367 H 33.5473 -3.87889 0.57309 0
M  V30 368 H 35.0373 -4.15898 -0.376645 0
M  V30 369 N 35.4744 -0.807222 -1.35358 0
M  V30 370 C 36.7204 -0.388463 -1.99045 0
M  V30 371 C 37.0534 1.04184 -1.63888 0
M  V30 372 O 36.3284 1.72292 -0.902535 0
M  V30 373 C 36.6114 -0.572783 -3.55515 0
M  V30 374 C 36.4644 -2.04807 -4.00468 0
M  V30 375 C 37.7834 0.00114064 -4.401 0
M  V30 376 H 34.9024 -0.142619 -0.723069 0
M  V30 377 H 37.5444 -1.01687 -1.60498 0
M  V30 378 H 35.6944 -0.0378425 -3.88482 0
M  V30 379 H 37.3664 -2.64544 -3.77908 0
M  V30 380 H 35.6094 -2.54427 -3.51353 0
M  V30 381 H 36.2804 -2.12792 -5.09337 0
M  V30 382 H 38.7564 -0.455716 -4.13597 0
M  V30 383 H 37.6324 -0.157737 -5.48673 0
M  V30 384 H 37.8934 1.09488 -4.28328 0
M  V30 385 N 36.9525 1.47285 -0.560781 0
M  V30 386 C 37.9155 2.28535 0.174488 0
M  V30 387 C 38.9155 1.37153 0.839388 0
M  V30 388 O 40.1055 1.59748 0.694702 0
M  V30 389 C 37.2375 3.16934 1.25561 0
M  V30 390 H 38.4305 2.95012 -0.539262 0
M  V30 391 H 35.9835 1.53034 -0.317865 0
M  V30 392 H 36.7185 2.55157 2.00164 0
M  V30 393 H 36.5035 3.8419 0.783604 0
M  V30 394 H 37.9935 3.78143 1.77193 0
M  V30 395 N 38.4306 0.297415 1.54768 0
M  V30 396 C 39.6556 -0.318435 2.04941 0
M  V30 397 C 40.0806 -1.4701 1.17345 0
M  V30 398 O 39.4386 -1.80436 0.176758 0
M  V30 399 C 39.4866 -0.755749 3.52592 0
M  V30 400 O 38.5906 -1.86088 3.68028 0
M  V30 401 H 37.9316 -0.062421 0.661059 0
M  V30 402 H 40.4616 0.438215 1.99852 0
M  V30 403 H 40.4716 -1.04552 3.94376 0
M  V30 404 H 39.1466 0.0867233 4.1581 0
M  V30 405 H 37.7236 -1.57193 3.38149 0
M  V30 406 N 39.9087 -1.5758 0.0250728 0
M  V30 407 C 41.1567 -1.91255 -0.653151 0
M  V30 408 C 41.4777 -0.901691 -1.729 0
M  V30 409 O 40.7477 0.0573785 -1.95816 0
M  V30 410 H 39.3277 -0.705942 -0.244243 0
M  V30 411 H 41.9897 -1.94767 0.0719209 0
M  V30 412 H 41.0857 -2.91752 -1.10847 0
M  V30 413 N 41.3868 0.248026 -1.55636 0
M  V30 414 C 42.6348 0.974295 -1.77065 0
M  V30 415 C 42.9558 1.85897 -0.588849 0
M  V30 416 O 42.2258 1.91868 0.395407 0
M  V30 417 H 40.8058 0.362733 -0.653019 0
M  V30 418 H 43.4678 0.266244 -1.93073 0
M  V30 419 H 42.5638 1.59667 -2.68166 0
M  V30 420 N 42.8649 1.48995 0.513639 0
M  V30 421 C 43.8279 1.64229 1.59879 0
M  V30 422 C 44.8279 0.514696 1.5234 0
M  V30 423 O 46.0179 0.78087 1.55718 0
M  V30 424 C 43.1499 1.62783 2.99524 0
M  V30 425 H 44.3429 2.61004 1.47705 0
M  V30 426 H 41.8959 1.37837 0.736936 0
M  V30 427 H 42.6309 0.675461 3.17188 0
M  V30 428 H 42.4159 2.4466 3.06404 0
M  V30 429 H 43.9059 1.76669 3.78388 0
M  V30 430 N 44.343 -0.763751 1.37857 0
M  V30 431 C 45.759 -1.06542 1.18832 0
M  V30 432 C 45.959 -2.01478 0.0299722 0
M  V30 433 O 45.015 -2.4458 -0.627447 0
M  V30 434 C 46.328 -1.65525 2.51042 0
M  V30 435 C 47.876 -1.77745 2.57635 0
M  V30 436 C 48.351 -2.4014 3.89996 0
M  V30 437 N 49.842 -2.47582 3.91481 0
M  V30 438 C 50.577 -2.96732 4.9065 0
M  V30 439 N 50.073 -3.45993 6.00217 0
M  V30 440 N 51.866 -2.95679 4.78048 0
M  V30 441 H 44.017 -0.133556 2.1198 0
M  V30 442 H 46.28 -0.121879 0.940133 0
M  V30 443 H 45.986 -1.03236 3.36207 0
M  V30 444 H 45.86 -2.64719 2.68707 0
M  V30 445 H 48.247 -2.39164 1.72872 0
M  V30 446 H 48.328 -0.772836 2.43846 0
M  V30 447 H 47.972 -1.79358 4.75177 0
M  V30 448 H 47.902 -3.41223 4.01092 0
M  V30 449 H 50.393 -2.1273 3.12337 0
M  V30 450 H 50.706 -3.81922 6.7183 0
M  V30 451 H 49.051 -3.44077 6.03851 0
M  V30 452 H 52.242 -2.56499 3.91568 0
M  V30 453 H 52.415 -3.33672 5.55488 0
M  V30 454 N 45.8211 -1.22559 -0.990812 0
M  V30 455 C 47.0701 -1.04553 -1.72486 0
M  V30 456 C 47.3831 0.419349 -1.91052 0
M  V30 457 O 48.5891 0.719121 -2.61803 0
M  V30 458 C 47.0451 -1.82231 -3.10355 0
M  V30 459 C 46.6531 -3.32981 -2.99713 0
M  V30 460 C 48.3971 -1.7268 -3.87791 0
M  V30 461 C 46.3041 -4.03091 -4.32748 0
M  V30 462 H 45.2341 -0.387614 -0.646739 0
M  V30 463 H 47.8851 -1.46429 -1.10593 0
M  V30 464 H 46.2671 -1.33155 -3.72942 0
M  V30 465 H 47.4411 -3.89466 -2.46278 0
M  V30 466 H 45.7561 -3.43231 -2.35758 0
M  V30 467 H 48.3531 -2.22381 -4.86262 0
M  V30 468 H 48.6961 -0.687607 -4.10582 0
M  V30 469 H 49.2291 -2.1931 -3.31885 0
M  V30 470 H 45.9681 -5.07273 -4.15156 0
M  V30 471 H 45.4881 -3.51394 -4.86089 0
M  V30 472 H 47.1671 -4.08804 -5.01486 0
M  V30 473 N 47.2992 1.18797 -1.03562 0
M  V30 474 C 48.5452 1.8893 -0.737113 0
M  V30 475 C 48.8782 1.79837 0.732956 0
M  V30 476 O 48.1532 1.19525 1.5344 0
M  V30 477 C 48.4362 3.39607 -1.19745 0
M  V30 478 C 48.2892 3.57537 -2.72924 0
M  V30 479 C 49.6082 4.33069 -0.783526 0
M  V30 480 H 46.7272 0.686057 -0.269249 0
M  V30 481 H 49.3692 1.39797 -1.28673 0
M  V30 482 H 47.5192 3.81583 -0.729855 0
M  V30 483 H 49.1912 3.24688 -3.27682 0
M  V30 484 H 47.4342 3.00363 -3.12993 0
M  V30 485 H 48.1052 4.63238 -3.00191 0
M  V30 486 H 50.5812 3.98846 -1.18581 0
M  V30 487 H 49.4572 5.3707 -1.13343 0
M  V30 488 H 49.7182 4.40986 0.313681 0
M  V30 489 N 48.7773 0.814389 1.34928 0
M  V30 490 C 49.7073 0.244827 2.32213 0
M  V30 491 C 50.6883 -0.634024 1.57842 0
M  V30 492 O 51.8733 -0.562676 1.8587 0
M  V30 493 C 49.0033 -0.601106 3.42058 0
M  V30 494 C 47.9573 0.179896 4.27622 0
M  V30 495 C 47.2833 -0.788237 5.28858 0
M  V30 496 C 48.5833 1.38329 5.03649 0
M  V30 497 H 50.2773 1.05763 2.80097 0
M  V30 498 H 47.8233 0.510029 1.34665 0
M  V30 499 H 49.7763 -1.00968 4.09125 0
M  V30 500 H 48.5003 -1.44688 2.92802 0
M  V30 501 H 47.1593 0.569739 3.62146 0
M  V30 502 H 46.8073 -1.62973 4.75866 0
M  V30 503 H 46.5073 -0.269942 5.8698 0
M  V30 504 H 48.0313 -1.19485 5.98795 0
M  V30 505 H 49.4453 1.04918 5.63618 0
M  V30 506 H 47.8423 1.83662 5.71304 0
M  V30 507 H 48.9123 2.16592 4.33839 0
M  V30 508 N 50.2554 -1.46986 0.568584 0
M  V30 509 C 51.2184 -2.28624 -0.162366 0
M  V30 510 C 52.2184 -1.37596 -0.832103 0
M  V30 511 O 53.4084 -1.60115 -0.68622 0
M  V30 512 C 50.5404 -3.17596 -1.23878 0
M  V30 513 H 51.7334 -2.94722 0.554899 0
M  V30 514 H 49.2864 -1.52863 0.325976 0
M  V30 515 H 50.0214 -2.56214 -1.98808 0
M  V30 516 H 49.8064 -3.846 -0.763219 0
M  V30 517 H 51.2964 -3.79078 -1.75185 0
M  V30 518 N 51.7335 -0.305618 -1.54608 0
M  V30 519 C 53.1445 0.186098 -1.8577 0
M  V30 520 C 53.4955 1.53058 -1.22751 0
M  V30 521 O 52.6205 2.09888 -0.526893 0
M  V30 522 C 53.2155 0.344449 -3.37044 0
M  V30 523 C 51.7745 0.780384 -3.68221 0
M  V30 524 C 50.9215 -0.108554 -2.77087 0
M  V30 525 H 53.8725 -0.526485 -1.49712 0
M  V30 526 H 53.8935 1.17828 -3.61796 0
M  V30 527 H 53.4055 -0.634235 -3.82883 0
M  V30 528 H 51.5065 1.76945 -3.27904 0
M  V30 529 H 51.6195 0.596572 -4.75371 0
M  V30 530 H 49.9835 0.412931 -2.5133 0
M  V30 531 H 50.7665 -1.08368 -3.25747 0
M  V30 532 N 53.2116 1.57565 -0.0334293 0
M  V30 533 C 54.6226 1.79746 0.504798 0
M  V30 534 C 54.9736 0.944091 1.71992 0
M  V30 535 O 54.0986 0.155694 2.15839 0
M  V30 536 C 54.6936 3.25997 0.922567 0
M  V30 537 C 53.2526 3.49159 1.40588 0
M  V30 538 C 52.3996 2.74785 0.372633 0
M  V30 539 H 55.3506 1.56565 -0.259436 0
M  V30 540 H 55.3716 3.35945 1.78666 0
M  V30 541 H 54.8836 3.88081 0.0379825 0
M  V30 542 H 52.9846 2.92332 2.31025 0
M  V30 543 H 53.0976 4.57873 1.41028 0
M  V30 544 H 51.4616 2.40391 0.841672 0
M  V30 545 H 52.2446 3.39587 -0.503559 0
M  V30 546 N 54.6897 -0.239769 1.55765 0
M  V30 547 C 55.6527 -1.28038 1.90103 0
M  V30 548 C 56.6527 -1.40723 0.778055 0
M  V30 549 O 57.8427 -1.39301 1.04599 0
M  V30 550 C 54.9747 -2.65702 2.13577 0
M  V30 551 H 56.1677 -0.988048 2.83157 0
M  V30 552 H 53.7207 -0.479382 1.48767 0
M  V30 553 H 54.4557 -3.00063 1.23015 0
M  V30 554 H 54.2407 -2.57875 2.95369 0
M  V30 555 H 55.7307 -3.40828 2.41301 0
M  V30 556 N 56.1678 -1.49265 -0.50573 0
M  V30 557 C 57.5838 -1.35923 -0.836486 0
M  V30 558 C 57.7838 -0.388704 -1.97715 0
M  V30 559 O 56.8398 0.181336 -2.51848 0
M  V30 560 C 58.1528 -2.76531 -1.18115 0
M  V30 561 C 59.7008 -2.85197 -1.28964 0
M  V30 562 C 60.1758 -4.26561 -1.66761 0
M  V30 563 N 61.6668 -4.2935 -1.73819 0
M  V30 564 C 62.4018 -5.35693 -2.045 0
M  V30 565 N 61.8978 -6.52287 -2.33438 0
M  V30 566 N 63.6908 -5.23105 -2.05711 0
M  V30 567 H 55.8418 -2.10965 0.246519 0
M  V30 568 H 58.1048 -0.9468 0.0476887 0
M  V30 569 H 57.8108 -3.49226 -0.416398 0
M  V30 570 H 57.6848 -3.11599 -2.1257 0
M  V30 571 H 60.0718 -2.12742 -2.04511 0
M  V30 572 H 60.1528 -2.53718 -0.325704 0
M  V30 573 H 59.7968 -4.99541 -0.917656 0
M  V30 574 H 59.7268 -4.55502 -2.64246 0
M  V30 575 H 62.2178 -3.4526 -1.53635 0
M  V30 576 H 62.5308 -7.29158 -2.56024 0
M  V30 577 H 60.8758 -6.55521 -2.30905 0
M  V30 578 H 64.0668 -4.31026 -1.82577 0
M  V30 579 H 64.2398 -6.06078 -2.29289 0
M  V30 580 N 57.6459 0.756429 -1.3826 0
M  V30 581 C 58.9229 1.50584 -1.24835 0
M  V30 582 C 59.3029 2.10556 0.151485 0
M  V30 583 O 58.6509 1.96825 1.1607 0
M  V30 584 C 58.8609 2.57448 -2.3563 0
M  V30 585 C 60.2089 3.24429 -2.73917 0
M  V30 586 O 61.2329 2.67751 -2.34921 0
M  V30 587 O 60.0919 4.26937 -3.41156 0
M  V30 588 H 57.1859 0.667664 -0.48801 0
M  V30 589 H 59.7319 0.792083 -1.5008 0
M  V30 590 H 58.5039 2.11362 -3.29305 0
M  V30 591 H 58.1269 3.36408 -2.11933 0
M  V30 592 N 59.124 1.23083 0.984299 0
M  V30 593 C 60.54 0.992637 1.24975 0
M  V30 594 C 60.74 -0.308618 1.99123 0
M  V30 595 O 59.796 -1.02905 2.30579 0
M  V30 596 C 61.109 2.19698 2.05312 0
M  V30 597 C 62.657 2.24147 2.18465 0
M  V30 598 C 63.132 3.44157 3.02192 0
M  V30 599 N 64.623 3.44372 3.09777 0
M  V30 600 C 65.358 4.33886 3.74874 0
M  V30 601 N 64.854 5.3363 4.41827 0
M  V30 602 N 66.647 4.21639 3.71721 0
M  V30 603 H 58.798 2.06731 0.487453 0
M  V30 604 H 61.061 0.906339 0.277944 0
M  V30 605 H 60.767 3.1411 1.58201 0
M  V30 606 H 60.641 2.20465 3.06064 0
M  V30 607 H 63.028 1.30277 2.64786 0
M  V30 608 H 63.109 2.27415 1.17115 0
M  V30 609 H 62.753 4.38332 2.56568 0
M  V30 610 H 62.683 3.3813 4.03702 0
M  V30 611 H 65.174 2.72201 2.62135 0
M  V30 612 H 65.487 5.98196 4.89266 0
M  V30 613 H 63.832 5.37534 4.40548 0
M  V30 614 H 67.023 3.42962 3.18582 0
M  V30 615 H 67.196 4.91604 4.22173 0
M  V30 616 N 60.6021 -1.18246 1.0419 0
M  V30 617 C 61.8421 -1.89948 0.754916 0
M  V30 618 C 62.2061 -1.78608 -0.70451 0
M  V30 619 O 63.4071 -2.4503 -1.10516 0
M  V30 620 C 61.6781 -3.36305 1.20969 0
M  V30 621 S 63.2371 -4.26088 1.04854 0
M  V30 622 H 60.0551 -0.655897 0.274446 0
M  V30 623 H 62.6571 -1.42873 1.33445 0
M  V30 624 H 61.3611 -3.42089 2.26722 0
M  V30 625 H 60.8921 -3.8842 0.624004 0
M  V30 626 H 62.9071 -4.96189 -0.0332896 0
M  V30 627 N 62.0802 -0.821533 -1.34494 0
M  V30 628 C 63.4962 -0.507117 -1.51329 0
M  V30 629 C 63.6962 0.968964 -1.76673 0
M  V30 630 O 62.7522 1.75348 -1.81685 0
M  V30 631 C 64.0652 -1.36544 -2.67911 0
M  V30 632 C 65.6132 -1.36242 -2.81793 0
M  V30 633 C 66.0882 -2.2052 -4.01416 0
M  V30 634 N 67.5792 -2.18136 -4.08621 0
M  V30 635 C 68.3142 -2.80095 -5.00334 0
M  V30 636 N 67.8102 -3.51039 -5.9728 0
M  V30 637 N 69.6032 -2.69656 -4.93196 0
M  V30 638 H 61.7542 -1.77729 -1.16302 0
M  V30 639 H 64.0172 -0.757291 -0.570276 0
M  V30 640 H 63.7232 -2.41361 -2.55808 0
M  V30 641 H 63.5972 -1.02917 -3.62888 0
M  V30 642 H 65.9842 -0.322041 -2.93338 0
M  V30 643 H 66.0652 -1.73866 -1.87628 0
M  V30 644 H 65.7092 -3.24607 -3.90631 0
M  V30 645 H 65.6392 -1.80247 -4.94791 0
M  V30 646 H 68.1302 -1.6653 -3.39229 0
M  V30 647 H 68.4432 -3.95565 -6.63889 0
M  V30 648 H 66.7882 -3.55145 -5.97409 0
M  V30 649 H 69.9792 -2.13808 -4.16418 0
M  V30 650 H 70.1522 -3.1823 -5.64476 0
M  V30 651 N 63.5583 1.46682 -0.576371 0
M  V30 652 C 64.5213 2.28707 0.150239 0
M  V30 653 C 65.5213 1.38035 0.824794 0
M  V30 654 O 66.7113 1.60476 0.677719 0
M  V30 655 C 63.8433 3.18248 1.22192 0
M  V30 656 H 65.0363 2.94423 -0.570521 0
M  V30 657 H 62.5893 1.52688 -0.334078 0
M  V30 658 H 63.3243 2.57265 1.97447 0
M  V30 659 H 63.1093 3.85 0.742812 0
M  V30 660 H 64.5993 3.80001 1.73172 0
M  V30 661 N 65.0364 0.313813 1.54444 0
M  V30 662 C 66.2614 -0.296681 2.05267 0
M  V30 663 C 66.6864 -1.45757 1.18897 0
M  V30 664 O 66.0444 -1.80239 0.195886 0
M  V30 665 C 66.0924 -0.71831 3.53373 0
M  V30 666 O 65.1964 -1.82175 3.69981 0
M  V30 667 H 64.5374 -0.0554061 0.661684 0
M  V30 668 H 67.0674 0.459387 1.99376 0
M  V30 669 H 67.0774 -1.00364 3.95463 0
M  V30 670 H 65.7524 0.130821 4.15694 0
M  V30 671 H 64.3294 -1.53598 3.39797 0
M  V30 672 N 66.5145 -1.57545 0.0417849 0
M  V30 673 C 67.4245 -2.14451 -0.951213 0
M  V30 674 C 68.4405 -1.09992 -1.34825 0
M  V30 675 O 69.6165 -1.42114 -1.42708 0
M  V30 676 C 66.6815 -2.67063 -2.21084 0
M  V30 677 C 65.7425 -3.86284 -1.87304 0
M  V30 678 C 64.9755 -4.36378 -3.07261 0
M  V30 679 O 65.1985 -3.85587 -4.20332 0
M  V30 680 O 64.1325 -5.28077 -2.88822 0
M  V30 681 H 67.9585 -2.99601 -0.497287 0
M  V30 682 H 65.5435 -1.48317 -0.179567 0
M  V30 683 H 67.4255 -3.00914 -2.95006 0
M  V30 684 H 66.1005 -1.84989 -2.65633 0
M  V30 685 H 65.0075 -3.57338 -1.10727 0
M  V30 686 H 66.3405 -4.6956 -1.47562 0
M  V30 687 N 67.9926 0.231505 -1.5589 0
M  V30 688 C 68.9556 1.27028 -1.90779 0
M  V30 689 C 69.9556 1.40308 -0.785507 0
M  V30 690 O 71.1456 1.38744 -1.05336 0
M  V30 691 C 68.2776 2.64566 -2.14983 0
M  V30 692 H 69.4706 0.973017 -2.83677 0
M  V30 693 H 67.0236 0.471486 -1.49019 0
M  V30 694 H 67.7586 2.99406 -1.24604 0
M  V30 695 H 67.5436 2.56305 -2.96732 0
M  V30 696 H 69.0336 3.39543 -2.43105 0
M  V30 697 N 69.4707 1.49531 0.497807 0
M  V30 698 C 70.8867 1.36365 0.829266 0
M  V30 699 C 71.0867 0.399184 1.97506 0
M  V30 700 O 70.1427 -0.167977 2.51941 0
M  V30 701 C 71.4557 2.77153 1.16647 0
M  V30 702 C 73.0037 2.85877 1.27449 0
M  V30 703 C 73.4787 4.2744 1.64497 0
M  V30 704 N 74.9697 4.30265 1.7154 0
M  V30 705 C 75.7047 5.3677 2.01656 0
M  V30 706 N 75.2007 6.53516 2.29976 0
M  V30 707 N 76.9937 5.24189 2.02934 0
M  V30 708 H 69.1447 2.10831 -0.257703 0
M  V30 709 H 71.4077 0.946534 -0.0527091 0
M  V30 710 H 71.1137 3.49442 0.397872 0
M  V30 711 H 70.9877 3.12722 2.10915 0
M  V30 712 H 73.3747 2.13824 2.0338 0
M  V30 713 H 73.4557 2.53887 0.312244 0
M  V30 714 H 73.0997 5.00021 0.891151 0
M  V30 715 H 73.0297 4.56896 2.61827 0
M  V30 716 H 75.5207 3.4607 1.51802 0
M  V30 717 H 75.8337 7.30506 2.52153 0
M  V30 718 H 74.1787 6.56737 2.27425 0
M  V30 719 H 77.3697 4.31988 1.80289 0
M  V30 720 H 77.5427 6.07286 2.26071 0
M  V30 721 N 70.9488 -0.749086 1.3866 0
M  V30 722 C 71.8788 -1.8764 1.38973 0
M  V30 723 C 72.8598 -1.68178 0.255004 0
M  V30 724 O 74.0448 -1.88704 0.458754 0
M  V30 725 C 71.1748 -3.25222 1.21851 0
M  V30 726 C 70.1288 -3.59295 2.32575 0
M  V30 727 C 69.4548 -4.95663 2.00555 0
M  V30 728 C 70.7548 -3.63709 3.7485 0
M  V30 729 H 72.4488 -1.87635 2.3331 0
M  V30 730 H 69.9948 -0.901329 1.12303 0
M  V30 731 H 71.9478 -4.03746 1.20695 0
M  V30 732 H 70.6718 -3.25719 0.239775 0
M  V30 733 H 69.3308 -2.83093 2.32925 0
M  V30 734 H 68.9788 -4.92724 1.01154 0
M  V30 735 H 68.6788 -5.19429 2.74714 0
M  V30 736 H 70.2028 -5.7656 2.01024 0
M  V30 737 H 71.6168 -4.32338 3.76506 0
M  V30 738 H 70.0138 -3.98986 4.48252 0
M  V30 739 H 71.0838 -2.63834 4.06841 0
M  V30 740 N 72.4269 -1.23603 -0.977757 0
M  V30 741 C 73.6749 -1.06759 -1.71601 0
M  V30 742 C 73.9959 0.395929 -1.90938 0
M  V30 743 O 73.2659 1.28356 -1.47992 0
M  V30 744 H 71.8459 -0.392062 -0.635843 0
M  V30 745 H 74.5079 -1.55362 -1.1768 0
M  V30 746 H 73.6039 -1.55763 -2.70452 0
M  V30 747 N 73.905 1.17692 -1.04816 0
M  V30 748 C 74.868 2.19787 -0.650117 0
M  V30 749 C 75.868 1.58044 0.296427 0
M  V30 750 O 77.058 1.74012 0.0808097 0
M  V30 751 C 74.19 3.40869 0.0456987 0
M  V30 752 H 75.383 2.56516 -1.5537 0
M  V30 753 H 72.936 1.31708 -0.841594 0
M  V30 754 H 73.671 3.09681 0.962726 0
M  V30 755 H 73.456 3.86928 -0.634727 0
M  V30 756 H 74.946 4.16445 0.310432 0
M  V30 757 N 75.3831 0.828654 1.34056 0
M  V30 758 C 76.6291 0.42008 1.98402 0
M  V30 759 C 76.9621 -1.01564 1.65525 0
M  V30 760 O 76.2371 -1.70834 0.929831 0
M  V30 761 C 76.5201 0.62927 3.54559 0
M  V30 762 C 76.3731 2.11152 3.97159 0
M  V30 763 C 77.6921 0.0688756 4.40046 0
M  V30 764 H 74.8111 0.154104 0.720709 0
M  V30 765 H 77.4531 1.04228 1.5886 0
M  V30 766 H 75.6031 0.0996418 3.88372 0
M  V30 767 H 77.2751 2.70522 3.73651 0
M  V30 768 H 75.5181 2.59985 3.47261 0
M  V30 769 H 76.1891 2.20868 5.05887 0
M  V30 770 H 78.6651 0.521458 4.1282 0
M  V30 771 H 77.5411 0.245006 5.48353 0
M  V30 772 H 77.8021 -1.0266 4.30015 0
M  V30 773 N 76.8612 -1.46375 0.584142 0
M  V30 774 C 78.1102 -2.01585 0.0679741 0
M  V30 775 C 78.4232 -1.46109 -1.30045 0
M  V30 776 O 79.6292 -1.93148 -1.90804 0
M  V30 777 C 78.0852 -3.5983 0.0709207 0
M  V30 778 C 77.6932 -4.24303 1.43775 0
M  V30 779 C 79.4372 -4.22693 -0.391228 0
M  V30 780 C 77.3442 -5.74631 1.39834 0
M  V30 781 H 76.2742 -0.753689 0.0216421 0
M  V30 782 H 78.9252 -1.68093 0.736001 0
M  V30 783 H 77.3072 -3.90405 -0.663299 0
M  V30 784 H 78.4812 -4.05335 2.19181 0
M  V30 785 H 76.7962 -3.73539 1.84004 0
M  V30 786 H 79.3932 -5.3289 -0.439524 0
M  V30 787 H 79.7362 -3.91728 -1.40906 0
M  V30 788 H 80.2692 -3.96749 0.288974 0
M  V30 789 H 77.0082 -6.10258 2.39303 0
M  V30 790 H 76.5282 -5.95858 0.686505 0
M  V30 791 H 78.2072 -6.37375 1.11187 0
M  V30 792 N 78.3393 -0.321999 -1.54275 0
M  V30 793 C 79.7553 0.0306999 -1.5957 0
M  V30 794 C 79.9553 1.50614 -1.33857 0
M  V30 795 O 79.0113 2.2619 -1.12223 0
M  V30 796 C 80.3243 -0.386122 -2.98211 0
M  V30 797 C 81.8723 -0.336647 -3.11184 0
M  V30 798 C 82.3473 -0.728607 -4.52167 0
M  V30 799 N 83.8383 -0.681952 -4.58152 0
M  V30 800 C 84.5733 -0.957449 -5.6535 0
M  V30 801 N 84.0693 -1.3 -6.80494 0
M  V30 802 N 85.8623 -0.883113 -5.55119 0
M  V30 803 H 78.0133 -1.28332 -1.69247 0
M  V30 804 H 80.2763 -0.521716 -0.791528 0
M  V30 805 H 79.9823 -1.41404 -3.22022 0
M  V30 806 H 79.8563 0.249662 -3.76373 0
M  V30 807 H 82.2433 0.682058 -2.8711 0
M  V30 808 H 82.3243 -1.00734 -2.3513 0
M  V30 809 H 81.9683 -1.74522 -4.76974 0
M  V30 810 H 81.8983 -0.0356152 -5.26588 0
M  V30 811 H 84.3893 -0.428985 -3.75457 0
M  V30 812 H 84.7023 -1.49563 -7.58189 0
M  V30 813 H 83.0473 -1.33824 -6.81994 0
M  V30 814 H 86.2383 -0.615001 -4.64042 0
M  V30 815 H 86.4113 -1.10118 -6.38575 0
M  V30 816 N 79.8174 1.5752 -0.0501392 0
M  V30 817 C 80.7274 2.14952 0.939827 0
M  V30 818 C 81.7434 1.10706 1.34239 0
M  V30 819 O 82.9194 1.42869 1.41952 0
M  V30 820 C 79.9844 2.68232 2.19665 0
M  V30 821 C 79.0454 3.87272 1.85253 0
M  V30 822 C 78.2784 4.38002 3.04943 0
M  V30 823 O 78.5014 3.87811 4.18281 0
M  V30 824 O 77.4354 5.29602 2.86017 0
M  V30 825 H 81.2614 2.9986 0.481392 0
M  V30 826 H 78.8464 1.4841 0.171699 0
M  V30 827 H 80.7284 3.02475 2.93406 0
M  V30 828 H 79.4034 1.86395 2.64648 0
M  V30 829 H 78.3104 3.5792 1.0883 0
M  V30 830 H 79.6434 4.70336 1.4507 0
M  V30 831 N 81.2955 -0.223234 1.56011 0
M  V30 832 C 82.2585 -1.26014 1.9145 0
M  V30 833 C 83.2585 -1.3989 0.792937 0
M  V30 834 O 84.4485 -1.38184 1.0607 0
M  V30 835 C 81.5805 -2.63422 2.16383 0
M  V30 836 H 82.7735 -0.95796 2.84189 0
M  V30 837 H 80.3265 -0.463576 1.49267 0
M  V30 838 H 81.0615 -2.98741 1.2619 0
M  V30 839 H 80.8465 -2.54728 2.98088 0
M  V30 840 H 82.3365 -3.38249 2.44903 0
M  V30 841 N 82.7736 -1.49793 -0.48987 0
M  V30 842 C 84.1896 -1.36803 -0.822022 0
M  V30 843 C 84.3896 -0.409652 -1.97292 0
M  V30 844 O 83.4456 0.154614 -2.52026 0
M  V30 845 C 84.7586 -2.77768 -1.15175 0
M  V30 846 C 86.3066 -2.86549 -1.25931 0
M  V30 847 C 86.7816 -4.28306 -1.62228 0
M  V30 848 N 88.2726 -4.31169 -1.69256 0
M  V30 849 C 89.0076 -5.37832 -1.98807 0
M  V30 850 N 88.5036 -6.54726 -2.26507 0
M  V30 851 N 90.2966 -5.25258 -2.00152 0
M  V30 852 H 82.4476 -2.10691 0.268881 0
M  V30 853 H 84.7106 -0.946241 0.057728 0
M  V30 854 H 84.4166 -3.49648 -0.379335 0
M  V30 855 H 84.2906 -3.13836 -2.09253 0
M  V30 856 H 86.6776 -2.14899 -2.02243 0
M  V30 857 H 86.7586 -2.54049 -0.298776 0
M  V30 858 H 86.4026 -5.00486 -0.864622 0
M  V30 859 H 86.3326 -4.58279 -2.594 0
M  V30 860 H 88.8236 -3.4687 -1.49965 0
M  V30 861 H 89.1366 -7.31833 -2.48276 0
M  V30 862 H 87.4816 -6.57933 -2.23939 0
M  V30 863 H 90.6726 -4.32938 -1.77996 0
M  V30 864 H 90.8456 -6.08476 -2.22848 0
M  V30 865 N 84.2517 0.741722 -1.39055 0
M  V30 866 C 85.2017 1.84661 -1.33732 0
M  V30 867 C 86.1857 1.59397 -0.219401 0
M  V30 868 O 87.3777 1.71015 -0.456375 0
M  V30 869 C 84.5067 3.22512 -1.17647 0
M  V30 870 C 83.5927 3.53628 -2.34112 0
M  V30 871 N 83.9837 3.55723 -3.59576 0
M  V30 872 C 82.2817 3.83956 -2.26923 0
M  V30 873 C 82.9827 3.84443 -4.36553 0
M  V30 874 N 81.9587 4.01877 -3.66055 0
M  V30 875 H 85.7607 1.84576 -2.28711 0
M  V30 876 H 83.2747 0.939647 -1.32455 0
M  V30 877 H 85.2717 4.01597 -1.11917 0
M  V30 878 H 83.9317 3.2384 -0.236124 0
M  V30 879 H 84.9427 3.37196 -3.93089 0
M  V30 880 H 81.6197 3.92929 -1.41113 0
M  V30 881 H 83.0097 3.92588 -5.45274 0
M  V30 882 N 85.7298 1.2412 0.971189 0
M  V30 883 C 86.9758 1.08041 1.71625 0
M  V30 884 C 87.3088 -0.380407 1.90438 0
M  V30 885 O 86.5838 -1.28127 1.46334 0
M  V30 886 C 86.8668 1.81682 3.10908 0
M  V30 887 C 86.7198 3.35493 2.99608 0
M  V30 888 C 88.0388 1.58671 4.10501 0
M  V30 889 H 85.1578 0.39388 0.622919 0
M  V30 890 H 87.7998 1.52743 1.13003 0
M  V30 891 H 85.9498 1.43684 3.60953 0
M  V30 892 H 87.6218 3.83068 2.57015 0
M  V30 893 H 85.8648 3.64052 2.35899 0
M  V30 894 H 86.5358 3.82217 3.98264 0
M  V30 895 H 89.0118 1.91719 3.69301 0
M  V30 896 H 87.8878 2.1266 5.06031 0
M  V30 897 H 88.1488 0.524161 4.38982 0
M  V30 898 N 87.2079 -1.17134 1.05439 0
M  V30 899 C 88.4379 -1.91094 0.785274 0
M  V30 900 C 88.8459 -1.77198 -0.663142 0
M  V30 901 O 88.1889 -1.10835 -1.46497 0
M  V30 902 C 88.2509 -3.42594 1.08949 0
M  V30 903 C 87.9149 -3.80274 2.53458 0
M  V30 904 C 88.9119 -3.82912 3.51673 0
M  V30 905 C 86.5969 -4.11162 2.88532 0
M  V30 906 C 88.5909 -4.15913 4.83006 0
M  V30 907 C 86.2779 -4.43831 4.20068 0
M  V30 908 C 87.2759 -4.46185 5.17115 0
M  V30 909 O 86.9639 -4.78083 6.46291 0
M  V30 910 H 86.6959 -0.613073 0.284811 0
M  V30 911 H 89.2499 -1.49461 1.40893 0
M  V30 912 H 87.4799 -3.84534 0.408741 0
M  V30 913 H 89.1689 -3.97817 0.805991 0
M  V30 914 H 89.9349 -3.5917 3.25917 0
M  V30 915 H 85.8139 -4.085 2.13656 0
M  V30 916 H 89.3579 -4.17665 5.5875 0
M  V30 917 H 85.2549 -4.67037 4.45586 0
M  V30 918 H 86.0229 -4.9593 6.51149 0
M  V30 919 N 88.686 -0.835752 -1.33615 0
M  V30 920 C 89.934 -0.429109 -1.97492 0
M  V30 921 C 90.255 1.01433 -1.66543 0
M  V30 922 O 89.525 1.70611 -0.962744 0
M  V30 923 H 88.105 -0.155686 -0.730596 0
M  V30 924 H 90.767 -1.06802 -1.63031 0
M  V30 925 H 89.863 -0.55861 -3.0706 0
M  V30 926 N 90.1641 1.46063 -0.591896 0
M  V30 927 C 91.0941 2.33172 0.123673 0
M  V30 928 C 92.0751 1.45897 0.87453 0
M  V30 929 O 93.2601 1.74698 0.848181 0
M  V30 930 C 90.3901 3.28336 1.13194 0
M  V30 931 C 89.3441 4.25124 0.495324 0
M  V30 932 C 88.6701 5.09863 1.61071 0
M  V30 933 C 89.9701 5.19143 -0.573425 0
M  V30 934 H 91.6641 2.93252 -0.603646 0
M  V30 935 H 89.2101 1.41014 -0.291741 0
M  V30 936 H 91.1631 3.88137 1.64097 0
M  V30 937 H 89.8871 2.66383 1.88965 0
M  V30 938 H 88.5461 3.66599 0.00729452 0
M  V30 939 H 88.1941 4.44288 2.35832 0
M  V30 940 H 87.8941 5.75417 1.19035 0
M  V30 941 H 89.4181 5.72529 2.12233 0
M  V30 942 H 90.8321 5.73106 -0.1491 0
M  V30 943 H 89.2291 5.93089 -0.914636 0
M  V30 944 H 90.2991 4.62519 -1.45617 0
M  V30 945 N 91.6422 0.330177 1.54103 0
M  V30 946 C 92.8702 -0.272179 2.05102 0
M  V30 947 C 93.2852 -1.45267 1.20595 0
M  V30 948 O 92.6422 -1.8094 0.238144 0
M  V30 949 C 92.6932 -0.70023 3.54653 0
M  V30 950 O 92.4142 0.433301 4.35952 0
M  V30 951 C 93.9152 -1.3647 4.21771 0
M  V30 952 H 91.1352 -0.0549159 0.668749 0
M  V30 953 H 93.6792 0.478285 1.98828 0
M  V30 954 H 91.8342 -1.40066 3.61193 0
M  V30 955 H 92.2482 0.0947539 5.24414 0
M  V30 956 H 93.7222 -1.61509 5.27843 0
M  V30 957 H 94.1992 -2.31409 3.73292 0
M  V30 958 H 94.8052 -0.706675 4.19388 0
M  V30 959 N 93.1203 -1.57491 0.0584922 0
M  V30 960 C 94.3483 -1.97296 -0.623037 0
M  V30 961 C 94.7633 -0.936338 -1.63946 0
M  V30 962 O 94.1203 0.0785981 -1.82331 0
M  V30 963 C 94.1713 -3.37183 -1.30345 0
M  V30 964 O 93.8923 -4.36872 -0.32773 0
M  V30 965 C 95.3933 -3.91788 -2.07406 0
M  V30 966 H 92.6133 -0.649153 -0.169826 0
M  V30 967 H 95.1573 -2.04106 0.12696 0
M  V30 968 H 93.3123 -3.31502 -2.00463 0
M  V30 969 H 93.7263 -5.18141 -0.814269 0
M  V30 970 H 95.2003 -4.91926 -2.50425 0
M  V30 971 H 95.6773 -3.27609 -2.92521 0
M  V30 972 H 96.2833 -4.00829 -1.42184 0
M  V30 973 N 94.5984 0.214957 -1.56127 0
M  V30 974 C 95.8464 0.936518 -1.79091 0
M  V30 975 C 96.1674 1.84606 -0.628148 0
M  V30 976 O 95.4374 1.92664 0.35462 0
M  V30 977 H 94.0174 0.3488 -0.660566 0
M  V30 978 H 96.6794 0.22523 -1.93594 0
M  V30 979 H 95.7754 1.53943 -2.71492 0
M  V30 980 N 96.0765 1.50051 0.48192 0
M  V30 981 C 97.3235 1.60498 1.23477 0
M  V30 982 C 97.6515 0.300331 1.92167 0
M  V30 983 O 96.9065 -0.713094 1.82246 0
M  V30 984 C 97.2055 2.72717 2.30998 0
M  V30 985 C 96.8715 4.13572 1.79636 0
M  V30 986 C 95.5335 4.519 1.65348 0
M  V30 987 C 97.8855 5.01649 1.41412 0
M  V30 988 C 95.2135 5.76057 1.11244 0
M  V30 989 C 97.5655 6.26343 0.887538 0
M  V30 990 C 96.2295 6.63483 0.731207 0
M  V30 991 H 95.4995 0.587303 0.451836 0
M  V30 992 H 98.1465 1.83948 0.532468 0
M  V30 993 H 96.4515 2.43312 3.07094 0
M  V30 994 H 98.1485 2.78006 2.88988 0
M  V30 995 H 94.7385 3.83329 1.91721 0
M  V30 996 H 98.9225 4.72679 1.51289 0
M  V30 997 H 94.1785 6.03516 0.978686 0
M  V30 998 H 98.3525 6.93958 0.582654 0
M  V30 999 H 95.9795 7.59568 0.309806 0
M  V30 1000 N 97.5546 -0.734337 1.39446 0
M  V30 1001 C 98.8026 -1.49096 1.36436 0
M  V30 1002 C 99.1236 -1.94961 -0.0388255 0
M  V30 1003 O 98.3936 -1.69033 -0.990191 0
M  V30 1004 H 96.9736 -0.5531 0.502085 0
M  V30 1005 H 99.6356 -0.871725 1.74319 0
M  V30 1006 H 98.7316 -2.37276 2.02747 0
M  V30 1007 N 99.0327 -1.24633 -0.964593 0
M  V30 1008 C 100.444 -1.08045 -1.5226 0
M  V30 1009 C 100.795 0.347116 -1.93105 0
M  V30 1010 O 99.9197 1.23588 -1.77637 0
M  V30 1011 C 100.515 -1.95514 -2.76695 0
M  V30 1012 C 99.0737 -1.8314 -3.28841 0
M  V30 1013 C 98.2207 -1.90262 -2.01732 0
M  V30 1014 H 101.172 -1.38064 -0.782553 0
M  V30 1015 H 101.193 -1.48925 -3.50145 0
M  V30 1016 H 100.705 -2.99407 -2.46936 0
M  V30 1017 H 98.8057 -0.82092 -3.63444 0
M  V30 1018 H 98.9187 -2.67406 -3.97531 0
M  V30 1019 H 97.2827 -1.34027 -2.16584 0
M  V30 1020 H 98.0657 -2.9574 -1.74334 0
M  V30 1021 N 100.511 1.16574 -1.06058 0
M  V30 1022 C 101.441 2.23057 -0.690488 0
M  V30 1023 C 102.422 1.67141 0.315901 0
M  V30 1024 O 103.607 1.93253 0.191556 0
M  V30 1025 C 100.737 3.47222 -0.073625 0
M  V30 1026 C 99.6908 4.16016 -1.00573 0
M  V30 1027 C 99.0168 5.34104 -0.252289 0
M  V30 1028 C 100.317 4.67264 -2.33371 0
M  V30 1029 H 102.011 2.54271 -1.58072 0
M  V30 1030 H 99.5568 1.22218 -0.76149 0
M  V30 1031 H 101.51 4.20939 0.19714 0
M  V30 1032 H 100.234 3.15302 0.85161 0
M  V30 1033 H 98.8928 3.44223 -1.2612 0
M  V30 1034 H 98.5408 4.98437 0.675988 0
M  V30 1035 H 98.2408 5.81072 -0.873455 0
M  V30 1036 H 99.7648 6.10599 0.0109857 0
M  V30 1037 H 101.179 5.32573 -2.12223 0
M  V30 1038 H 99.5758 5.24843 -2.90963 0
M  V30 1039 H 100.646 3.83602 -2.96611 0
M  V30 1040 N 101.989 0.842826 1.3317 0
M  V30 1041 C 102.952 0.284065 2.27433 0
M  V30 1042 C 103.952 -0.54948 1.5112 0
M  V30 1043 O 105.142 -0.362699 1.70382 0
M  V30 1044 C 102.274 -0.599384 3.35589 0
M  V30 1045 H 103.467 1.11589 2.78366 0
M  V30 1046 H 101.02 0.616221 1.4364 0
M  V30 1047 H 101.755 -1.45349 2.89904 0
M  V30 1048 H 101.54 -0.00291266 3.921 0
M  V30 1049 H 103.03 -0.983488 4.05854 0
M  V30 1050 N 103.467 -1.45747 0.599634 0
M  V30 1051 C 104.415 -2.322 -0.136426 0
M  V30 1052 C 105.409 -1.45497 -0.867583 0
M  V30 1053 O 106.615 -1.62027 -0.78405 0
M  V30 1054 H 102.99 -0.749368 -0.0628588 0
M  V30 1055 H 104.961 -2.92072 0.611281 0
M  V30 1056 C 103.71 -3.28974 -1.12567 0
M  V30 1057 H 103.033 -3.9568 -0.572484 0
M  V30 1058 H 104.473 -3.92212 -1.61077 0
M  V30 1059 C 102.932 -2.55561 -2.19523 0
M  V30 1060 O 103.462 -2.33111 -3.27143 0
M  V30 1061 N 101.668 -2.15832 -1.94589 0
M  V30 1062 H 101.215 -2.3429 -1.07078 0
M  V30 1063 H 101.173 -1.67034 -2.66359 0
M  V30 1064 N 104.945 -0.338344 -1.53925 0
M  V30 1065 C 106.361 0.0137736 -1.59594 0
M  V30 1066 C 106.561 1.49186 -1.35447 0
M  V30 1067 O 105.617 2.24987 -1.14616 0
M  V30 1068 C 106.93 -0.41773 -2.97784 0
M  V30 1069 C 108.478 -0.369633 -3.1081 0
M  V30 1070 C 108.953 -0.776524 -4.51369 0
M  V30 1071 N 110.444 -0.730506 -4.57403 0
M  V30 1072 C 111.179 -1.01736 -5.64303 0
M  V30 1073 N 110.675 -1.3721 -6.79077 0
M  V30 1074 N 112.468 -0.941942 -5.54151 0
M  V30 1075 H 104.619 -1.3012 -1.67876 0
M  V30 1076 H 106.882 -0.530082 -0.78595 0
M  V30 1077 H 106.588 -1.44811 -3.20504 0
M  V30 1078 H 106.462 0.209729 -3.76616 0
M  V30 1079 H 108.849 0.651568 -2.87817 0
M  V30 1080 H 108.93 -1.03223 -2.34049 0
M  V30 1081 H 108.574 -1.79571 -4.75096 0
M  V30 1082 H 108.504 -0.0914649 -5.26521 0
M  V30 1083 H 110.995 -0.468783 -3.74981 0
M  V30 1084 H 111.308 -1.57597 -7.5656 0
M  V30 1085 H 109.653 -1.4105 -6.80536 0
M  V30 1086 H 112.844 -0.664184 -4.63364 0
M  V30 1087 H 113.017 -1.16884 -6.37371 0
M  V30 1088 N 106.423 1.57458 -0.0668435 0
M  V30 1089 C 107.353 2.15468 0.899764 0
M  V30 1090 C 108.334 1.08042 1.31381 0
M  V30 1091 O 109.519 1.36054 1.38574 0
M  V30 1092 C 106.649 2.71232 2.16911 0
M  V30 1093 C 105.603 3.83781 1.89463 0
M  V30 1094 C 104.929 4.26127 3.22986 0
M  V30 1095 C 106.229 5.08238 1.20381 0
M  V30 1096 H 107.923 2.96488 0.416529 0
M  V30 1097 H 105.469 1.4262 0.198908 0
M  V30 1098 H 107.422 3.10458 2.84945 0
M  V30 1099 H 106.146 1.87426 2.67468 0
M  V30 1100 H 104.805 3.45051 1.23836 0
M  V30 1101 H 104.453 3.39249 3.71374 0
M  V30 1102 H 104.153 5.01993 3.05413 0
M  V30 1103 H 105.677 4.67966 3.92225 0
M  V30 1104 H 107.091 5.44811 1.78475 0
M  V30 1105 H 105.488 5.89349 1.13083 0
M  V30 1106 H 106.558 4.84558 0.182153 0
M  V30 1107 N 107.901 -0.206675 1.56239 0
M  V30 1108 C 109.15 -0.926964 1.79138 0
M  V30 1109 C 109.463 -1.84901 0.638043 0
M  V30 1110 O 110.669 -2.60906 0.751033 0
M  V30 1111 C 109.125 -1.6986 3.17294 0
M  V30 1112 C 108.733 -0.821956 4.40395 0
M  V30 1113 C 110.477 -2.40922 3.4951 0
M  V30 1114 C 108.384 -1.59179 5.69575 0
M  V30 1115 H 107.314 -0.349864 0.667915 0
M  V30 1116 H 109.965 -0.180487 1.8261 0
M  V30 1117 H 108.347 -2.48853 3.08039 0
M  V30 1118 H 109.521 -0.0715019 4.60745 0
M  V30 1119 H 107.836 -0.222741 4.15804 0
M  V30 1120 H 110.433 -2.99047 4.43255 0
M  V30 1121 H 110.776 -3.14542 2.72707 0
M  V30 1122 H 111.309 -1.68905 3.60161 0
M  V30 1123 H 108.048 -0.898589 6.49312 0
M  V30 1124 H 107.568 -2.31648 5.53262 0
M  V30 1125 H 109.247 -2.14862 6.10281 0
M  V30 1126 N 109.379 -1.50304 -0.473955 0
M  V30 1127 C 110.604 -1.65175 -1.25427 0
M  V30 1128 C 111.029 -0.333673 -1.85117 0
M  V30 1129 O 110.387 0.702114 -1.67153 0
M  V30 1130 C 110.435 -2.74295 -2.34082 0
M  V30 1131 O 109.539 -2.35349 -3.38651 0
M  V30 1132 H 108.88 -0.551944 -0.369126 0
M  V30 1133 H 111.41 -1.96662 -0.564364 0
M  V30 1134 H 111.42 -2.97285 -2.79438 0
M  V30 1135 H 110.095 -3.69959 -1.90008 0
M  V30 1136 H 108.672 -2.22794 -2.99027 0
M  V30 1137 N 110.857 0.726932 -1.39834 0
M  V30 1138 C 112.105 1.4837 -1.37225 0
M  V30 1139 C 112.426 1.94979 0.0284857 0
M  V30 1140 O 111.696 1.69555 0.981213 0
M  V30 1141 H 110.276 0.55043 -0.505011 0
M  V30 1142 H 112.938 0.862468 -1.74778 0
M  V30 1143 H 112.034 2.36198 -2.04003 0
M  V30 1144 N 112.336 1.25143 0.95797 0
M  V30 1145 C 113.246 1.06968 2.08794 0
M  V30 1146 C 114.262 0.00773911 1.73998 0
M  V30 1147 O 115.438 0.207972 2.00323 0
M  V30 1148 C 112.503 0.68691 3.39827 0
M  V30 1149 C 111.564 1.82641 3.88511 0
M  V30 1150 C 110.797 1.46181 5.1329 0
M  V30 1151 O 111.02 0.355971 5.69288 0
M  V30 1152 O 109.954 2.29085 5.566 0
M  V30 1153 H 113.78 2.01723 2.27027 0
M  V30 1154 H 111.365 1.04051 1.07209 0
M  V30 1155 H 113.247 0.485417 4.18595 0
M  V30 1156 H 111.922 -0.231417 3.22872 0
M  V30 1157 H 110.829 2.08274 3.10762 0
M  V30 1158 H 112.162 2.72386 4.09959 0
M  V30 1159 N 113.814 -1.1601 1.06675 0
M  V30 1160 C 114.762 -2.22586 0.675157 0
M  V30 1161 C 115.756 -1.66525 -0.310766 0
M  V30 1162 O 116.962 -1.79145 -0.175215 0
M  V30 1163 H 113.337 -0.724855 0.200223 0
M  V30 1164 H 115.308 -2.52899 1.58381 0
M  V30 1165 C 114.057 -3.47604 0.0817162 0
M  V30 1166 H 113.38 -3.91058 0.831484 0
M  V30 1167 H 114.82 -4.23718 -0.154708 0
M  V30 1168 C 113.279 -3.15718 -1.17576 0
M  V30 1169 O 113.809 -3.31878 -2.26318 0
M  V30 1170 N 112.015 -2.69816 -1.07923 0
M  V30 1171 H 111.562 -2.56866 -0.194293 0
M  V30 1172 H 111.52 -2.48855 -1.92141 0
M  V30 1173 N 115.292 -0.849877 -1.32721 0
M  V30 1174 C 116.538 -0.451591 -1.97708 0
M  V30 1175 C 116.871 0.989175 -1.6712 0
M  V30 1176 O 116.146 1.69334 -0.956891 0
M  V30 1177 C 116.429 -0.685598 -3.53513 0
M  V30 1178 C 116.282 -2.17444 -3.93749 0
M  V30 1179 C 117.601 -0.138874 -4.39881 0
M  V30 1180 H 114.72 -0.16555 -0.718166 0
M  V30 1181 H 117.362 -1.06742 -1.57182 0
M  V30 1182 H 115.512 -0.161416 -3.88165 0
M  V30 1183 H 117.184 -2.76433 -3.693 0
M  V30 1184 H 115.427 -2.65476 -3.43081 0
M  V30 1185 H 116.098 -2.28888 -5.02309 0
M  V30 1186 H 118.574 -0.587068 -4.11938 0
M  V30 1187 H 117.45 -0.332213 -5.47894 0
M  V30 1188 H 117.711 0.95806 -4.31594 0
M  V30 1189 N 116.77 1.45427 -0.607355 0
M  V30 1190 C 118.186 1.57283 -0.270985 0
M  V30 1191 C 118.386 1.59875 1.22647 0
M  V30 1192 O 117.442 1.52893 2.00948 0
M  V30 1193 C 118.755 2.85566 -0.941952 0
M  V30 1194 C 120.303 2.9924 -0.917849 0
M  V30 1195 C 120.778 4.30293 -1.56882 0
M  V30 1196 N 122.269 4.37051 -1.5343 0
M  V30 1197 C 123.004 5.37123 -2.00715 0
M  V30 1198 N 122.5 6.43734 -2.56084 0
M  V30 1199 N 124.293 5.28479 -1.91484 0
M  V30 1200 H 116.444 1.41988 -1.57966 0
M  V30 1201 H 118.707 0.67885 -0.661715 0
M  V30 1202 H 118.413 2.8955 -1.99633 0
M  V30 1203 H 118.287 3.74322 -0.465096 0
M  V30 1204 H 120.674 2.94822 0.127984 0
M  V30 1205 H 120.755 2.11895 -1.43297 0
M  V30 1206 H 120.399 4.35469 -2.61398 0
M  V30 1207 H 120.329 5.16454 -1.02873 0
M  V30 1208 H 122.82 3.60615 -1.12982 0
M  V30 1209 H 123.133 7.16341 -2.89958 0
M  V30 1210 H 121.478 6.44485 -2.60122 0
M  V30 1211 H 124.669 4.44098 -1.47967 0
M  V30 1212 H 124.842 6.0632 -2.28648 0
M  V30 1213 N 118.248 0.346503 1.53744 0
M  V30 1214 C 119.476 -0.25041 2.05379 0
M  V30 1215 C 119.891 -1.43979 1.22129 0
M  V30 1216 O 119.248 -1.80677 0.257321 0
M  V30 1217 C 119.299 -0.662575 3.55376 0
M  V30 1218 O 119.02 0.479515 4.35468 0
M  V30 1219 C 120.521 -1.31989 4.23195 0
M  V30 1220 H 117.741 -0.0478198 0.669294 0
M  V30 1221 H 120.285 0.499346 1.9831 0
M  V30 1222 H 118.44 -1.36227 3.62658 0
M  V30 1223 H 118.854 0.15037 5.24284 0
M  V30 1224 H 120.328 -1.55902 5.29527 0
M  V30 1225 H 120.805 -2.27436 3.75725 0
M  V30 1226 H 121.411 -0.662154 4.20114 0
M  V30 1227 N 119.726 -1.57421 0.075193 0
M  V30 1228 C 120.656 -2.15942 -0.888324 0
M  V30 1229 C 121.637 -1.08737 -1.30806 0
M  V30 1230 O 122.822 -1.36787 -1.37851 0
M  V30 1231 C 119.952 -2.72379 -2.1547 0
M  V30 1232 C 118.906 -3.8478 -1.87425 0
M  V30 1233 C 118.232 -4.27834 -3.20721 0
M  V30 1234 C 119.532 -5.08869 -1.17684 0
M  V30 1235 H 121.226 -2.96705 -0.400799 0
M  V30 1236 H 118.772 -1.42723 -0.191342 0
M  V30 1237 H 120.725 -3.11965 -2.83295 0
M  V30 1238 H 119.449 -1.88841 -2.6647 0
M  V30 1239 H 118.108 -3.45703 -1.22004 0
M  V30 1240 H 117.756 -3.41214 -3.6957 0
M  V30 1241 H 117.456 -5.03605 -3.02746 0
M  V30 1242 H 118.98 -4.70039 -3.89738 0
M  V30 1243 H 120.394 -5.4575 -1.75584 0
M  V30 1244 H 118.791 -5.8994 -1.09956 0
M  V30 1245 H 119.861 -4.84648 -0.156453 0
M  V30 1246 N 121.204 0.198386 -1.56346 0
M  V30 1247 C 122.136 1.26987 -1.90806 0
M  V30 1248 C 123.149 1.41877 -0.798419 0
M  V30 1249 O 124.338 1.42362 -1.07682 0
M  V30 1250 C 121.438 2.64246 -2.12196 0
M  V30 1251 C 120.611 2.71007 -3.43328 0
M  V30 1252 C 119.67 3.89439 -3.5387 0
M  V30 1253 O 118.696 3.76695 -4.26719 0
M  V30 1254 N 119.898 5.04752 -2.86715 0
M  V30 1255 H 122.663 0.977433 -2.83313 0
M  V30 1256 H 120.224 0.388322 -1.57174 0
M  V30 1257 H 122.216 3.41896 -2.1654 0
M  V30 1258 H 120.786 2.85992 -1.26204 0
M  V30 1259 H 120.006 1.79657 -3.50881 0
M  V30 1260 H 121.294 2.72512 -4.29668 0
M  V30 1261 H 120.692 5.18004 -2.2735 0
M  V30 1262 H 119.249 5.8036 -2.96691 0
M  V30 1263 N 122.682 1.50554 0.465978 0
M  V30 1264 C 123.645 1.69233 1.54574 0
M  V30 1265 C 124.645 0.562901 1.50626 0
M  V30 1266 O 125.835 0.830016 1.53155 0
M  V30 1267 C 122.967 1.7223 2.94193 0
M  V30 1268 H 124.16 2.65571 1.39327 0
M  V30 1269 H 121.713 1.40111 0.692711 0
M  V30 1270 H 122.448 0.77603 3.14878 0
M  V30 1271 H 122.233 2.54285 2.98466 0
M  V30 1272 H 123.723 1.88618 3.72576 0
M  V30 1273 N 124.16 -0.719506 1.40217 0
M  V30 1274 C 125.108 -1.85493 1.40339 0
M  V30 1275 C 126.102 -1.66995 0.284415 0
M  V30 1276 O 127.308 -1.74148 0.455252 0
M  V30 1277 H 123.683 -0.610857 0.438586 0
M  V30 1278 H 125.654 -1.82506 2.36081 0
M  V30 1279 C 124.403 -3.23321 1.27901 0
M  V30 1280 H 123.726 -3.38159 2.1328 0
M  V30 1281 H 125.166 -4.02914 1.32045 0
M  V30 1282 C 123.625 -3.36898 -0.0111355 0
M  V30 1283 O 124.155 -3.89674 -0.975538 0
M  V30 1284 N 122.361 -2.90492 -0.0793393 0
M  V30 1285 H 121.908 -2.47731 0.706183 0
M  V30 1286 H 121.866 -2.99955 -0.942038 0
M  V30 1287 N 125.638 -1.25649 -0.95132 0
M  V30 1288 C 126.568 -1.08808 -2.06599 0
M  V30 1289 C 127.549 0.00382547 -1.701 0
M  V30 1290 O 128.734 -0.166325 -1.93486 0
M  V30 1291 C 125.864 -0.709542 -3.39975 0
M  V30 1292 C 124.818 -1.75206 -3.90496 0
M  V30 1293 C 124.144 -1.22811 -5.20405 0
M  V30 1294 C 125.444 -3.15153 -4.16504 0
M  V30 1295 H 127.138 -2.02048 -2.20946 0
M  V30 1296 H 124.684 -0.972835 -1.06169 0
M  V30 1297 H 126.637 -0.578649 -4.17408 0
M  V30 1298 H 125.361 0.258556 -3.25575 0
M  V30 1299 H 124.02 -1.87145 -3.15234 0
M  V30 1300 H 123.668 -0.250145 -5.02378 0
M  V30 1301 H 123.368 -1.92492 -5.55176 0
M  V30 1302 H 124.892 -1.10968 -6.00432 0
M  V30 1303 H 126.306 -3.06349 -4.84586 0
M  V30 1304 H 124.703 -3.82333 -4.62538 0
M  V30 1305 H 125.773 -3.61966 -3.22658 0
M  V30 1306 N 127.117 1.15442 -1.07289 0
M  V30 1307 C 128.363 1.86489 -0.796846 0
M  V30 1308 C 128.696 1.82078 0.675371 0
M  V30 1309 O 127.971 1.24346 1.4956 0
M  V30 1310 C 128.254 3.35626 -1.30489 0
M  V30 1311 C 128.107 3.48673 -2.84161 0
M  V30 1312 C 129.426 4.30357 -0.920907 0
M  V30 1313 H 126.545 0.677144 -0.290939 0
M  V30 1314 H 129.187 1.35633 -1.33056 0
M  V30 1315 H 127.337 3.79068 -0.850883 0
M  V30 1316 H 129.009 3.14099 -3.37846 0
M  V30 1317 H 127.252 2.90253 -3.22391 0
M  V30 1318 H 127.923 4.53453 -3.14777 0
M  V30 1319 H 130.399 3.94871 -1.3121 0
M  V30 1320 H 129.275 5.33193 -1.30372 0
M  V30 1321 H 129.536 4.4176 0.173226 0
M  V30 1322 N 128.595 0.856903 1.32268 0
M  V30 1323 C 129.545 0.274899 2.26337 0
M  V30 1324 C 130.529 -0.580543 1.50062 0
M  V30 1325 O 131.721 -0.429559 1.71708 0
M  V30 1326 C 128.85 -0.533841 3.39124 0
M  V30 1327 C 127.936 0.334114 4.22782 0
M  V30 1328 N 128.327 1.42143 4.85416 0
M  V30 1329 C 126.625 0.124256 4.45827 0
M  V30 1330 C 127.326 1.95559 5.47843 0
M  V30 1331 N 126.302 1.25444 5.28928 0
M  V30 1332 H 130.104 1.10612 2.72291 0
M  V30 1333 H 127.618 0.703258 1.46383 0
M  V30 1334 H 129.615 -0.96722 4.05525 0
M  V30 1335 H 128.275 -1.36283 2.94715 0
M  V30 1336 H 129.286 1.80436 4.85451 0
M  V30 1337 H 125.963 -0.669837 4.12092 0
M  V30 1338 H 127.353 2.86714 6.07655 0
M  V30 1339 N 130.073 -1.45103 0.615059 0
M  V30 1340 C 131.023 -2.27679 -0.120966 0
M  V30 1341 C 132.007 -1.3775 -0.831491 0
M  V30 1342 O 133.199 -1.61683 -0.720249 0
M  V30 1343 C 130.328 -3.24767 -1.1127 0
M  V30 1344 C 129.414 -4.22184 -0.402627 0
M  V30 1345 N 129.805 -5.02692 0.559884 0
M  V30 1346 C 128.103 -4.4125 -0.649202 0
M  V30 1347 C 128.804 -5.73421 0.977942 0
M  V30 1348 N 127.78 -5.42657 0.320104 0
M  V30 1349 H 131.582 -2.87325 0.618181 0
M  V30 1350 H 129.096 -1.56345 0.439304 0
M  V30 1351 H 131.093 -3.82666 -1.65446 0
M  V30 1352 H 129.753 -2.66682 -1.85232 0
M  V30 1353 H 130.764 -5.09354 0.936976 0
M  V30 1354 H 127.441 -3.9428 -1.37293 0
M  V30 1355 H 128.831 -6.48107 1.77222 0
M  V30 1356 N 131.551 -0.354651 -1.53558 0
M  V30 1357 C 132.481 0.489091 -2.2832 0
M  V30 1358 C 133.462 1.09324 -1.30316 0
M  V30 1359 O 134.647 1.11255 -1.59173 0
M  V30 1360 C 131.777 1.63456 -3.0643 0
M  V30 1361 C 130.731 1.1582 -4.12031 0
M  V30 1362 C 130.057 2.39305 -4.7816 0
M  V30 1363 C 131.357 0.250731 -5.21698 0
M  V30 1364 H 133.051 -0.134614 -2.99097 0
M  V30 1365 H 130.597 -0.0661826 -1.43848 0
M  V30 1366 H 132.55 2.23136 -3.57475 0
M  V30 1367 H 131.274 2.28533 -2.33325 0
M  V30 1368 H 129.933 0.584146 -3.61916 0
M  V30 1369 H 129.581 3.02814 -4.01637 0
M  V30 1370 H 129.281 2.08109 -5.49513 0
M  V30 1371 H 130.805 2.99691 -5.31994 0
M  V30 1372 H 132.219 0.754695 -5.68311 0
M  V30 1373 H 130.616 0.0301468 -6.00092 0
M  V30 1374 H 131.686 -0.710125 -4.79672 0
M  V30 1375 N 133.029 1.57378 -0.0835403 0
M  V30 1376 C 133.992 2.12252 0.864959 0
M  V30 1377 C 134.992 1.04916 1.21858 0
M  V30 1378 O 136.182 1.30853 1.14991 0
M  V30 1379 C 133.314 2.63358 2.16461 0
M  V30 1380 H 134.507 2.97371 0.388676 0
M  V30 1381 H 132.06 1.55423 0.165317 0
M  V30 1382 H 132.795 1.81727 2.686 0
M  V30 1383 H 132.58 3.41826 1.92087 0
M  V30 1384 H 134.07 3.05847 2.84337 0
M  V30 1385 N 134.507 -0.190092 1.56449 0
M  V30 1386 C 135.732 -0.929864 1.85387 0
M  V30 1387 C 136.157 -1.7585 0.667704 0
M  V30 1388 O 135.515 -1.77198 -0.383459 0
M  V30 1389 C 135.563 -1.79773 3.12593 0
M  V30 1390 O 134.667 -2.89713 2.93496 0
M  V30 1391 H 134.008 -0.261574 0.610307 0
M  V30 1392 H 136.538 -0.193896 2.03679 0
M  V30 1393 H 136.548 -2.20139 3.43515 0
M  V30 1394 H 135.223 -1.18892 3.98544 0
M  V30 1395 H 133.8 -2.53065 2.73884 0
M  V30 1396 N 135.985 -1.50799 -0.457987 0
M  V30 1397 C 137.233 -1.62121 -1.2067 0
M  V30 1398 C 137.554 -0.329793 -1.92191 0
M  V30 1399 O 136.824 0.653409 -1.84682 0
M  V30 1400 H 135.404 -0.597441 -0.448411 0
M  V30 1401 H 138.066 -1.87637 -0.527096 0
M  V30 1402 H 137.162 -2.43882 -1.94751 0
M  V30 1403 N 137.463 0.71206 -1.40597 0
M  V30 1404 C 138.709 1.47416 -1.39271 0
M  V30 1405 C 139.042 1.942 0.00388791 0
M  V30 1406 O 138.317 1.68403 0.973179 0
M  V30 1407 C 138.6 2.69774 -2.38525 0
M  V30 1408 C 138.453 2.28861 -3.87224 0
M  V30 1409 C 139.772 3.71939 -2.35264 0
M  V30 1410 H 136.891 0.534713 -0.5072 0
M  V30 1411 H 139.533 0.812375 -1.71757 0
M  V30 1412 H 137.683 3.26238 -2.10953 0
M  V30 1413 H 139.355 1.77852 -4.25636 0
M  V30 1414 H 137.598 1.60824 -4.02887 0
M  V30 1415 H 138.269 3.16584 -4.52193 0
M  V30 1416 H 140.745 3.25113 -2.59694 0
M  V30 1417 H 139.621 4.55186 -3.06753 0
M  V30 1418 H 139.882 4.20484 -1.36549 0
M  V30 1419 N 138.941 1.26152 0.944643 0
M  V30 1420 C 140.189 1.11271 1.6871 0
M  V30 1421 C 140.51 -0.345166 1.91921 0
M  V30 1422 O 139.78 -1.24387 1.51343 0
M  V30 1423 H 138.36 0.408783 0.625224 0
M  V30 1424 H 141.022 1.58427 1.1352 0
M  V30 1425 H 140.118 1.62879 2.66227 0
M  V30 1426 N 140.419 -1.14872 1.07899 0
M  V30 1427 C 141.83 -1.67367 0.827363 0
M  V30 1428 C 142.181 -1.85236 -0.646693 0
M  V30 1429 O 141.306 -1.55974 -1.50004 0
M  V30 1430 C 141.901 -3.04016 1.49532 0
M  V30 1431 C 140.46 -3.53566 1.29106 0
M  V30 1432 C 139.607 -2.29161 1.56143 0
M  V30 1433 H 142.558 -0.990083 1.24028 0
M  V30 1434 H 142.579 -3.69219 0.919643 0
M  V30 1435 H 142.091 -2.90978 2.56814 0
M  V30 1436 H 140.192 -3.71835 0.238713 0
M  V30 1437 H 140.305 -4.34661 2.01511 0
M  V30 1438 H 138.669 -2.34978 0.982717 0
M  V30 1439 H 139.452 -2.18705 2.64619 0
M  V30 1440 N 141.898 -0.863906 -1.31812 0
M  V30 1441 C 143.144 -0.472535 -1.97218 0
M  V30 1442 C 143.477 0.971394 -1.68159 0
M  V30 1443 O 142.752 1.68309 -0.974798 0
M  V30 1444 C 143.035 -0.723054 -3.52766 0
M  V30 1445 C 142.888 -2.21608 -3.91421 0
M  V30 1446 C 144.207 -0.185522 -4.39709 0
M  V30 1447 H 141.326 -0.173158 -0.71637 0
M  V30 1448 H 143.968 -1.08403 -1.56041 0
M  V30 1449 H 142.118 -0.202577 -3.87971 0
M  V30 1450 H 143.79 -2.80334 -3.66347 0
M  V30 1451 H 142.033 -2.691 -3.40246 0
M  V30 1452 H 142.704 -2.34203 -4.99853 0
M  V30 1453 H 145.18 -0.630726 -4.11292 0
M  V30 1454 H 144.056 -0.390306 -5.47511 0
M  V30 1455 H 144.317 0.912229 -4.32586 0
M  V30 1456 N 143.376 1.44774 -0.622745 0
M  V30 1457 C 144.306 2.33382 0.0741861 0
M  V30 1458 C 145.287 1.47719 0.843387 0
M  V30 1459 O 146.472 1.76458 0.810934 0
M  V30 1460 C 143.602 3.30663 1.06204 0
M  V30 1461 C 142.556 4.26079 0.405037 0
M  V30 1462 C 141.882 5.13165 1.5022 0
M  V30 1463 C 143.182 5.1781 -0.683414 0
M  V30 1464 H 144.876 2.91905 -0.665713 0
M  V30 1465 H 142.422 1.40363 -0.321587 0
M  V30 1466 H 144.375 3.9153 1.55827 0
M  V30 1467 H 143.099 2.70331 1.83272 0
M  V30 1468 H 141.758 3.66532 -0.0704683 0
M  V30 1469 H 141.406 4.49191 2.26355 0
M  V30 1470 H 141.106 5.77812 1.06803 0
M  V30 1471 H 142.63 5.76902 2.00041 0
M  V30 1472 H 144.044 5.72661 -0.270631 0
M  V30 1473 H 142.441 5.91015 -1.04023 0
M  V30 1474 H 143.511 4.59326 -1.55395 0
M  V30 1475 N 144.854 0.36279 1.53368 0
M  V30 1476 C 146.131 -0.284021 1.93527 0
M  V30 1477 C 146.511 -1.66628 1.29608 0
M  V30 1478 O 145.859 -2.23942 0.45413 0
M  V30 1479 C 146.069 -0.337028 3.47369 0
M  V30 1480 C 147.417 -0.578708 4.20638 0
M  V30 1481 O 148.441 -0.418352 3.53735 0
M  V30 1482 O 147.3 -0.89074 5.39192 0
M  V30 1483 H 144.394 -0.169743 0.809393 0
M  V30 1484 H 146.94 0.41537 1.64538 0
M  V30 1485 H 145.712 0.632217 3.86159 0
M  V30 1486 H 145.335 -1.08243 3.82582 0
M  V30 1487 N 146.332 -1.57332 0.0918853 0
M  V30 1488 C 147.578 -1.95328 -0.567313 0
M  V30 1489 C 147.933 -0.972866 -1.65991 0
M  V30 1490 O 147.226 0.00166256 -1.916 0
M  V30 1491 C 147.42 -3.37689 -1.17051 0
M  V30 1492 C 147.249 -4.49489 -0.137875 0
M  V30 1493 C 146.019 -5.04498 0.284515 0
M  V30 1494 C 148.217 -5.10393 0.63271 0
M  V30 1495 N 146.199 -5.99853 1.30576 0
M  V30 1496 C 147.57 -6.01435 1.50587 0
M  V30 1497 C 149.625 -4.93143 0.68658 0
M  V30 1498 C 148.328 -6.77077 2.42815 0
M  V30 1499 C 150.354 -5.69445 1.59645 0
M  V30 1500 C 149.716 -6.60151 2.45725 0
M  V30 1501 H 145.815 -0.761467 -0.178023 0
M  V30 1502 H 148.399 -1.93924 0.173706 0
M  V30 1503 H 146.57 -3.39793 -1.88136 0
M  V30 1504 H 148.302 -3.62872 -1.79181 0
M  V30 1505 H 145.057 -4.73489 -0.102593 0
M  V30 1506 H 145.481 -6.52231 1.81449 0
M  V30 1507 H 150.123 -4.22785 0.035244 0
M  V30 1508 H 147.841 -7.46699 3.08975 0
M  V30 1509 H 151.427 -5.58112 1.64323 0
M  V30 1510 H 150.307 -7.18159 3.14987 0
M  V30 1511 N 147.81 0.181792 -1.56548 0
M  V30 1512 C 149.038 0.915947 -1.85521 0
M  V30 1513 C 149.453 1.76282 -0.676016 0
M  V30 1514 O 148.81 1.79012 0.355077 0
M  V30 1515 C 148.861 1.80126 -3.13427 0
M  V30 1516 O 148.582 0.988562 -4.26801 0
M  V30 1517 C 150.083 2.64597 -3.55673 0
M  V30 1518 H 147.303 0.26661 -0.61576 0
M  V30 1519 H 149.847 0.185039 -2.03661 0
M  V30 1520 H 148.002 2.48563 -2.97145 0
M  V30 1521 H 148.416 1.59308 -4.99721 0
M  V30 1522 H 149.89 3.2235 -4.48101 0
M  V30 1523 H 150.367 3.38958 -2.79292 0
M  V30 1524 H 150.973 2.0151 -3.74532 0
M  V30 1525 N 149.288 1.51039 0.449983 0
M  V30 1526 C 150.516 1.66869 1.2232 0
M  V30 1527 C 150.931 0.360727 1.85322 0
M  V30 1528 O 150.288 -0.659531 1.70166 0
M  V30 1529 C 150.339 2.77524 2.31652 0
M  V30 1530 O 150.06 4.03252 1.7123 0
M  V30 1531 C 151.561 3.04512 3.2216 0
M  V30 1532 H 148.781 0.560326 0.369155 0
M  V30 1533 H 151.325 1.97385 0.534719 0
M  V30 1534 H 149.48 2.49642 2.96239 0
M  V30 1535 H 149.894 4.64609 2.43389 0
M  V30 1536 H 151.368 3.85551 3.95038 0
M  V30 1537 H 151.845 2.16415 3.8218 0
M  V30 1538 H 152.451 3.34005 2.63288 0
M  V30 1539 N 150.766 -0.704594 1.40972 0
M  V30 1540 C 151.729 -1.80035 1.41845 0
M  V30 1541 C 152.729 -1.57774 0.310474 0
M  V30 1542 O 153.919 -1.64613 0.56992 0
M  V30 1543 C 151.051 -3.18284 1.22098 0
M  V30 1544 H 152.244 -1.80658 2.3938 0
M  V30 1545 H 149.797 -0.911329 1.26982 0
M  V30 1546 H 150.532 -3.23306 0.253672 0
M  V30 1547 H 150.317 -3.35843 2.02366 0
M  V30 1548 H 151.807 -3.98289 1.25522 0
M  V30 1549 N 152.244 -1.26651 -0.937939 0
M  V30 1550 C 153.66 -1.03834 -1.21205 0
M  V30 1551 C 153.86 0.234502 -2.00131 0
M  V30 1552 O 152.916 0.942767 -2.3424 0
M  V30 1553 C 154.229 -2.27167 -1.97017 0
M  V30 1554 C 155.777 -2.32101 -2.09996 0
M  V30 1555 C 156.252 -3.55136 -2.8921 0
M  V30 1556 N 157.743 -3.55632 -2.96783 0
M  V30 1557 C 158.478 -4.475 -3.58512 0
M  V30 1558 N 157.974 -5.4966 -4.21717 0
M  V30 1559 N 159.767 -4.35145 -3.55816 0
M  V30 1560 H 151.918 -2.08398 -0.410391 0
M  V30 1561 H 154.181 -0.916031 -0.244114 0
M  V30 1562 H 153.887 -3.19765 -1.46434 0
M  V30 1563 H 153.761 -2.31672 -2.97671 0
M  V30 1564 H 156.148 -1.40015 -2.59769 0
M  V30 1565 H 156.229 -2.31605 -1.08594 0
M  V30 1566 H 155.873 -4.47553 -2.40123 0
M  V30 1567 H 155.803 -3.5288 -3.90875 0
M  V30 1568 H 158.294 -2.81743 -2.51852 0
M  V30 1569 H 158.607 -6.15943 -4.66727 0
M  V30 1570 H 156.952 -5.53514 -4.20294 0
M  V30 1571 H 160.143 -3.5455 -3.05634 0
M  V30 1572 H 160.316 -5.06934 -4.03636 0
M  V30 1573 N 153.722 1.14298 -1.08507 0
M  V30 1574 C 154.685 2.17607 -0.719711 0
M  V30 1575 C 155.685 1.58907 0.245997 0
M  V30 1576 O 156.875 1.74181 0.0254081 0
M  V30 1577 C 154.007 3.40842 -0.0627695 0
M  V30 1578 H 155.2 2.51443 -1.63452 0
M  V30 1579 H 152.753 1.28963 -0.88307 0
M  V30 1580 H 153.488 3.12587 0.863716 0
M  V30 1581 H 153.273 3.84713 -0.757504 0
M  V30 1582 H 154.763 4.17221 0.177786 0
M  V30 1583 N 155.201 0.870884 1.31352 0
M  V30 1584 C 156.134 0.271983 2.26573 0
M  V30 1585 C 157.112 -0.599385 1.51149 0
M  V30 1586 O 158.296 -0.552605 1.80218 0
M  V30 1587 C 155.423 -0.614801 3.33073 0
M  V30 1588 C 154.469 0.185342 4.26097 0
M  V30 1589 S 155.302 1.56444 5.12138 0
M  V30 1590 C 156.458 0.683807 6.22153 0
M  V30 1591 H 156.691 1.07916 2.77023 0
M  V30 1592 H 154.224 0.669459 1.39132 0
M  V30 1593 H 156.182 -1.12074 3.94905 0
M  V30 1594 H 154.843 -1.39593 2.81376 0
M  V30 1595 H 154.036 -0.490771 5.01605 0
M  V30 1596 H 153.638 0.623415 3.68768 0
M  V30 1597 H 155.93 -0.10521 6.77418 0
M  V30 1598 H 156.873 1.41004 6.93919 0
M  V30 1599 H 157.281 0.250952 5.63942 0
M  V30 1600 N 156.679 -1.44442 0.630414 0
M  V30 1601 C 157.925 -2.02351 0.134816 0
M  V30 1602 C 158.258 -1.4947 -1.23986 0
M  V30 1603 O 157.533 -0.678475 -1.82283 0
M  V30 1604 C 157.816 -3.59898 0.120707 0
M  V30 1605 C 157.669 -4.23063 1.52767 0
M  V30 1606 C 158.988 -4.36585 -0.555127 0
M  V30 1607 H 156.107 -0.73527 0.0504646 0
M  V30 1608 H 158.749 -1.72022 0.806751 0
M  V30 1609 H 156.899 -3.85868 -0.451477 0
M  V30 1610 H 158.571 -4.08202 2.14869 0
M  V30 1611 H 156.814 -3.80586 2.08175 0
M  V30 1612 H 157.485 -5.32071 1.46984 0
M  V30 1613 H 159.961 -4.16044 -0.0685429 0
M  V30 1614 H 158.837 -5.46294 -0.534185 0
M  V30 1615 H 159.098 -4.11138 -1.62535 0
M  V30 1616 N 158.157 -0.370918 -1.53173 0
M  V30 1617 C 159.087 0.464847 -2.28826 0
M  V30 1618 C 160.068 1.07936 -1.31468 0
M  V30 1619 O 161.253 1.0956 -1.60344 0
M  V30 1620 C 158.383 1.60196 -3.08147 0
M  V30 1621 C 157.337 1.11443 -4.13237 0
M  V30 1622 C 156.663 2.3422 -4.80672 0
M  V30 1623 C 157.963 0.195384 -5.21934 0
M  V30 1624 H 159.657 -0.166329 -2.98938 0
M  V30 1625 H 157.203 -0.0814359 -1.4377 0
M  V30 1626 H 159.156 2.19332 -3.59822 0
M  V30 1627 H 157.88 2.26045 -2.35735 0
M  V30 1628 H 156.539 0.545727 -3.62515 0
M  V30 1629 H 156.187 2.98537 -4.04827 0
M  V30 1630 H 155.887 2.02269 -5.51689 0
M  V30 1631 H 157.411 2.94032 -5.35143 0
M  V30 1632 H 158.825 0.694375 -5.69079 0
M  V30 1633 H 157.222 -0.0335027 -6.00091 0
M  V30 1634 H 158.292 -0.760961 -4.78892 0
M  V30 1635 N 159.635 1.57281 -0.100228 0
M  V30 1636 C 160.598 2.13158 0.842398 0
M  V30 1637 C 161.598 1.06202 1.20738 0
M  V30 1638 O 162.788 1.32066 1.13597 0
M  V30 1639 C 159.92 2.65639 2.13655 0
M  V30 1640 H 161.113 2.97766 0.357114 0
M  V30 1641 H 158.666 1.5559 0.148823 0
M  V30 1642 H 159.401 1.84566 2.66657 0
M  V30 1643 H 159.186 3.43844 1.88451 0
M  V30 1644 H 160.676 3.08846 2.81077 0
M  V30 1645 N 161.113 -0.173488 1.56642 0
M  V30 1646 C 162.529 -0.525174 1.50712 0
M  V30 1647 C 162.729 -1.8476 0.804107 0
M  V30 1648 O 161.785 -2.49869 0.363574 0
M  V30 1649 C 163.098 -0.559937 2.95441 0
M  V30 1650 C 164.646 -0.647288 3.06234 0
M  V30 1651 C 165.121 -0.712963 4.52417 0
M  V30 1652 N 166.612 -0.775911 4.56655 0
M  V30 1653 C 167.347 -0.847264 5.67106 0
M  V30 1654 N 166.843 -0.879585 6.87194 0
M  V30 1655 N 168.636 -0.886117 5.55071 0
M  V30 1656 H 160.787 0.693681 2.00753 0
M  V30 1657 H 163.05 0.249841 0.914485 0
M  V30 1658 H 162.756 0.343049 3.50023 0
M  V30 1659 H 162.63 -1.40718 3.49969 0
M  V30 1660 H 165.017 -1.5407 2.51687 0
M  V30 1661 H 165.098 0.226586 2.54794 0
M  V30 1662 H 164.742 0.176183 5.07594 0
M  V30 1663 H 164.672 -1.60295 5.0161 0
M  V30 1664 H 167.163 -0.759304 3.70193 0
M  V30 1665 H 167.476 -0.935144 7.67121 0
M  V30 1666 H 165.821 -0.847898 6.89808 0
M  V30 1667 H 169.012 -0.857853 4.60172 0
M  V30 1668 H 169.185 -0.938263 6.41171 0
M  V30 1669 N 162.591 -1.51276 -0.441967 0
M  V30 1670 C 163.521 -1.752 -1.54361 0
M  V30 1671 C 164.502 -0.601682 -1.59103 0
M  V30 1672 O 165.687 -0.843913 -1.74905 0
M  V30 1673 C 162.817 -1.87282 -2.92477 0
M  V30 1674 C 161.771 -3.02687 -3.02596 0
M  V30 1675 C 161.097 -2.99947 -4.42647 0
M  V30 1676 C 162.397 -4.4273 -2.77106 0
M  V30 1677 H 164.091 -2.67442 -1.34592 0
M  V30 1678 H 161.637 -1.28694 -0.646048 0
M  V30 1679 H 163.59 -2.02602 -3.695 0
M  V30 1680 H 162.314 -0.916844 -3.13467 0
M  V30 1681 H 160.973 -2.87065 -2.28012 0
M  V30 1682 H 160.621 -2.02136 -4.60597 0
M  V30 1683 H 160.321 -3.77439 -4.50348 0
M  V30 1684 H 161.845 -3.17354 -5.2165 0
M  V30 1685 H 163.259 -4.58727 -3.43864 0
M  V30 1686 H 161.656 -5.21893 -2.96222 0
M  V30 1687 H 162.726 -4.53087 -1.72744 0
M  V30 1688 N 164.069 0.697108 -1.41344 0
M  V30 1689 C 165.315 1.4593 -1.40827 0
M  V30 1690 C 165.648 1.94193 -0.0167098 0
M  V30 1691 O 164.923 1.69425 0.955263 0
M  V30 1692 C 165.206 2.67229 -2.41373 0
M  V30 1693 C 165.059 2.24741 -3.8963 0
M  V30 1694 C 166.378 3.69423 -2.39196 0
M  V30 1695 H 163.497 0.529303 -0.512842 0
M  V30 1696 H 166.139 0.794112 -1.72609 0
M  V30 1697 H 164.289 3.23982 -2.14401 0
M  V30 1698 H 165.961 1.73327 -4.27499 0
M  V30 1699 H 164.204 1.56542 -4.0457 0
M  V30 1700 H 164.875 3.1177 -4.55525 0
M  V30 1701 H 167.351 3.2234 -2.63128 0
M  V30 1702 H 166.227 4.51907 -3.11563 0
M  V30 1703 H 166.488 4.19012 -1.41001 0
M  V30 1704 N 165.547 1.27147 0.931209 0
M  V30 1705 C 166.772 1.16191 1.71797 0
M  V30 1706 C 167.197 -0.278004 1.86034 0
M  V30 1707 O 166.555 -1.20137 1.35782 0
M  V30 1708 C 166.603 1.84673 3.09723 0
M  V30 1709 O 165.707 1.14231 3.96264 0
M  V30 1710 H 165.048 0.404303 0.526721 0
M  V30 1711 H 167.578 1.68152 1.1656 0
M  V30 1712 H 167.588 1.91893 3.60057 0
M  V30 1713 H 166.263 2.89421 2.98677 0
M  V30 1714 H 164.84 1.15056 3.54706 0
M  V30 1715 N 167.025 -1.13721 1.09112 0
M  V30 1716 C 168.274 -1.84275 0.82009 0
M  V30 1717 C 168.587 -1.84253 -0.656509 0
M  V30 1718 O 169.793 -2.50668 -1.04296 0
M  V30 1719 C 168.249 -3.30825 1.41714 0
M  V30 1720 C 167.857 -3.39244 2.92605 0
M  V30 1721 C 169.601 -4.06443 1.22492 0
M  V30 1722 C 167.508 -4.80047 3.45411 0
M  V30 1723 H 166.438 -0.690387 0.30312 0
M  V30 1724 H 169.089 -1.28146 1.31343 0
M  V30 1725 H 167.471 -3.86737 0.851498 0
M  V30 1726 H 168.645 -2.93344 3.55367 0
M  V30 1727 H 166.96 -2.77088 3.10823 0
M  V30 1728 H 169.557 -5.10387 1.59402 0
M  V30 1729 H 169.9 -4.15972 0.165299 0
M  V30 1730 H 170.433 -3.56852 1.75788 0
M  V30 1731 H 167.172 -4.75709 4.50978 0
M  V30 1732 H 166.692 -5.26455 2.87411 0
M  V30 1733 H 168.371 -5.48957 3.42425 0
M  V30 1734 N 168.503 -0.877838 -1.30888 0
M  V30 1735 C 169.466 -0.344265 -2.266 0
M  V30 1736 C 170.466 0.50922 -1.52524 0
M  V30 1737 O 171.656 0.317398 -1.71284 0
M  V30 1738 C 168.788 0.510198 -3.37061 0
M  V30 1739 H 169.981 -1.1893 -2.7531 0
M  V30 1740 H 167.534 -0.654088 -1.41956 0
M  V30 1741 H 168.269 1.37612 -2.93655 0
M  V30 1742 H 168.054 -0.101047 -3.9197 0
M  V30 1743 H 169.544 0.875537 -4.08319 0
M  V30 1744 N 169.982 1.44106 -0.638065 0
M  V30 1745 C 170.914 2.28976 0.101205 0
M  V30 1746 C 171.927 1.4167 0.802088 0
M  V30 1747 O 173.116 1.65755 0.662375 0
M  V30 1748 C 170.216 3.18217 1.16581 0
M  V30 1749 C 169.389 4.33978 0.546066 0
M  V30 1750 C 168.448 5.04202 1.50554 0
M  V30 1751 O 167.474 5.59986 1.01999 0
M  V30 1752 N 168.676 5.06296 2.8398 0
M  V30 1753 H 171.441 2.93064 -0.627186 0
M  V30 1754 H 169.002 1.54629 -0.479731 0
M  V30 1755 H 170.994 3.62061 1.80815 0
M  V30 1756 H 169.564 2.55833 1.79634 0
M  V30 1757 H 168.784 3.93239 -0.275046 0
M  V30 1758 H 170.072 5.08675 0.112793 0
M  V30 1759 H 169.47 4.62319 3.26002 0
M  V30 1760 H 168.027 5.53907 3.43556 0
M  V30 1761 N 171.46 0.379036 1.52974 0
M  V30 1762 C 172.708 -0.206014 2.01047 0
M  V30 1763 C 173.029 -1.48175 1.26765 0
M  V30 1764 O 172.299 -1.92085 0.384743 0
M  V30 1765 H 170.879 -0.0791184 0.742798 0
M  V30 1766 H 173.541 0.508366 1.88153 0
M  V30 1767 H 172.637 -0.423501 3.09213 0
M  V30 1768 N 172.938 -1.57226 0.108567 0
M  V30 1769 C 173.901 -2.13602 -0.831082 0
M  V30 1770 C 174.901 -1.06841 -1.20173 0
M  V30 1771 O 176.091 -1.32666 -1.12895 0
M  V30 1772 C 173.223 -2.66769 -2.12243 0
M  V30 1773 H 174.416 -2.97951 -0.341317 0
M  V30 1774 H 171.969 -1.55667 -0.14057 0
M  V30 1775 H 172.704 -1.85977 -2.65675 0
M  V30 1776 H 172.489 -3.44839 -1.86625 0
M  V30 1777 H 173.979 -3.10332 -2.79435 0
M  V30 1778 N 174.416 0.165178 -1.56732 0
M  V30 1779 C 175.641 0.900253 -1.86843 0
M  V30 1780 C 176.066 1.74766 -0.695596 0
M  V30 1781 O 175.424 1.77786 0.35522 0
M  V30 1782 C 175.472 1.74777 -3.15413 0
M  V30 1783 O 174.576 2.85007 -2.98068 0
M  V30 1784 H 173.917 0.251832 -0.614391 0
M  V30 1785 H 176.447 0.161468 -2.03962 0
M  V30 1786 H 176.457 2.14646 -3.46974 0
M  V30 1787 H 175.132 1.12537 -4.00385 0
M  V30 1788 H 173.709 2.48676 -2.77875 0
M  V30 1789 N 175.894 1.51508 0.433938 0
M  V30 1790 C 177.142 1.6402 1.18075 0
M  V30 1791 C 177.463 0.360328 1.91642 0
M  V30 1792 O 176.733 -0.623945 1.85698 0
M  V30 1793 H 175.313 0.6045 0.43885 0
M  V30 1794 H 177.975 1.88452 0.497178 0
M  V30 1795 H 177.071 2.46949 1.90847 0
M  V30 1796 N 177.372 -0.689602 1.41712 0
M  V30 1797 C 178.335 -1.78521 1.43746 0
M  V30 1798 C 179.335 -1.57436 0.327191 0
M  V30 1799 O 180.525 -1.64 0.587348 0
M  V30 1800 C 177.657 -3.16971 1.25467 0
M  V30 1801 H 178.85 -1.78108 2.41283 0
M  V30 1802 H 176.403 -0.89781 1.27942 0
M  V30 1803 H 177.138 -3.23019 0.287948 0
M  V30 1804 H 176.923 -3.33678 2.05917 0
M  V30 1805 H 178.413 -3.96935 1.2974 0
M  V30 1806 N 178.85 -1.27639 -0.924453 0
M  V30 1807 C 180.075 -1.17101 -1.71179 0
M  V30 1808 C 180.5 0.268134 -1.86179 0
M  V30 1809 O 179.858 1.19415 -1.36418 0
M  V30 1810 C 179.906 -1.86313 -3.08739 0
M  V30 1811 O 179.01 -1.16331 -3.95652 0
M  V30 1812 H 178.351 -0.407091 -0.524569 0
M  V30 1813 H 180.881 -1.68767 -1.15666 0
M  V30 1814 H 180.891 -1.938 -3.59034 0
M  V30 1815 H 179.566 -2.91001 -2.97138 0
M  V30 1816 H 178.143 -1.16935 -3.54091 0
M  V30 1817 N 180.328 1.1314 -1.09713 0
M  V30 1818 C 181.238 2.22242 -0.751367 0
M  V30 1819 C 182.254 1.72224 0.247938 0
M  V30 1820 O 183.43 2.01205 0.0885463 0
M  V30 1821 C 180.495 3.46231 -0.180274 0
M  V30 1822 C 179.556 4.11125 -1.2359 0
M  V30 1823 C 178.789 5.29195 -0.691966 0
M  V30 1824 O 179.012 5.68342 0.48414 0
M  V30 1825 O 177.946 5.84214 -1.44838 0
M  V30 1826 H 181.772 2.54197 -1.66186 0
M  V30 1827 H 179.357 1.21331 -0.871735 0
M  V30 1828 H 181.239 4.21185 0.134739 0
M  V30 1829 H 179.914 3.1597 0.703185 0
M  V30 1830 H 178.821 3.37985 -1.60366 0
M  V30 1831 H 180.154 4.45524 -2.09211 0
M  V30 1832 N 181.806 0.884767 1.30421 0
M  V30 1833 C 183.054 0.502112 1.95763 0
M  V30 1834 C 183.375 -0.951815 1.70192 0
M  V30 1835 O 182.645 -1.6692 1.0254 0
M  V30 1836 H 181.225 0.182694 0.724315 0
M  V30 1837 H 183.887 1.1278 1.58955 0
M  V30 1838 H 182.983 0.672188 3.04775 0
M  V30 1839 N 183.284 -1.43765 0.645699 0
M  V30 1840 C 184.512 -2.06253 0.163556 0
M  V30 1841 C 184.927 -1.48352 -1.16778 0
M  V30 1842 O 184.284 -0.611932 -1.71935 0
M  V30 1843 C 184.335 -3.61453 0.0583186 0
M  V30 1844 O 184.056 -4.172 1.33702 0
M  V30 1845 C 185.557 -4.41002 -0.450795 0
M  V30 1846 H 182.777 -0.665413 0.0864077 0
M  V30 1847 H 185.321 -1.84396 0.884222 0
M  V30 1848 H 183.476 -3.82522 -0.612865 0
M  V30 1849 H 183.89 -5.10791 1.19131 0
M  V30 1850 H 185.364 -5.49966 -0.473403 0
M  V30 1851 H 185.841 -4.13488 -1.48068 0
M  V30 1852 H 186.447 -4.24886 0.187637 0
M  V30 1853 N 184.763 -0.387143 -1.52771 0
M  V30 1854 C 186.012 0.19697 -2.00736 0
M  V30 1855 C 186.325 1.48082 -1.27793 0
M  V30 1856 O 187.531 2.14485 -1.66458 0
M  V30 1857 C 185.987 0.401568 -3.57653 0
M  V30 1858 C 185.595 -0.868907 -4.39493 0
M  V30 1859 C 187.339 0.942164 -4.13912 0
M  V30 1860 C 185.246 -0.632705 -5.88006 0
M  V30 1861 H 184.176 0.0773827 -0.750019 0
M  V30 1862 H 186.827 -0.50921 -1.76293 0
M  V30 1863 H 185.209 1.16954 -3.78335 0
M  V30 1864 H 186.383 -1.64133 -4.30577 0
M  V30 1865 H 184.698 -1.33429 -3.94443 0
M  V30 1866 H 187.295 1.13455 -5.22525 0
M  V30 1867 H 187.638 1.9106 -3.69867 0
M  V30 1868 H 188.171 0.233814 -3.97112 0
M  V30 1869 H 184.91 -1.57208 -6.36369 0
M  V30 1870 H 184.43 0.100825 -5.99715 0
M  V30 1871 H 186.109 -0.26642 -6.46451 0
M  V30 1872 N 186.241 1.57166 -0.116904 0
M  V30 1873 C 187.204 2.14039 0.819742 0
M  V30 1874 C 188.204 1.07477 1.19605 0
M  V30 1875 O 189.394 1.33263 1.1219 0
M  V30 1876 C 186.526 2.67891 2.10826 0
M  V30 1877 H 187.719 2.98128 0.325511 0
M  V30 1878 H 185.272 1.55739 0.132312 0
M  V30 1879 H 186.007 1.87384 2.64685 0
M  V30 1880 H 185.792 3.45823 1.84793 0
M  V30 1881 H 187.282 3.11809 2.77785 0
M  V30 1882 N 187.719 -0.156864 1.56817 0
M  V30 1883 C 189.135 -0.50916 1.5126 0
M  V30 1884 C 189.335 -1.83897 0.823658 0
M  V30 1885 O 188.391 -2.49469 0.390055 0
M  V30 1886 C 189.704 -0.52857 2.96018 0
M  V30 1887 C 191.252 -0.614771 3.06903 0
M  V30 1888 C 191.727 -0.664938 4.53147 0
M  V30 1889 N 193.218 -0.727433 4.57452 0
M  V30 1890 C 193.953 -0.787067 5.67973 0
M  V30 1891 N 193.449 -0.806649 6.88088 0
M  V30 1892 N 195.242 -0.827195 5.5598 0
M  V30 1893 H 187.393 0.714935 2.00006 0
M  V30 1894 H 189.656 0.259526 0.911784 0
M  V30 1895 H 189.362 0.380154 3.49639 0
M  V30 1896 H 189.236 -1.36998 3.51442 0
M  V30 1897 H 191.623 -1.51392 2.53307 0
M  V30 1898 H 191.704 0.253597 2.5454 0
M  V30 1899 H 191.348 0.230011 5.07379 0
M  V30 1900 H 191.278 -1.54966 5.03282 0
M  V30 1901 H 193.769 -0.719998 3.70978 0
M  V30 1902 H 194.082 -0.853727 7.6807 0
M  V30 1903 H 192.427 -0.774687 6.90669 0
M  V30 1904 H 195.618 -0.808998 4.61056 0
M  V30 1905 H 195.791 -0.870206 6.4213 0
M  V30 1906 N 189.197 -1.51736 -0.425897 0
M  V30 1907 C 190.127 -1.76827 -1.52494 0
M  V30 1908 C 191.108 -0.618524 -1.58456 0
M  V30 1909 O 192.293 -0.862416 -1.74 0
M  V30 1910 C 189.423 -1.90374 -2.90474 0
M  V30 1911 C 188.377 -3.0588 -2.99369 0
M  V30 1912 C 187.703 -3.04625 -4.3944 0
M  V30 1913 C 189.003 -4.45644 -2.72394 0
M  V30 1914 H 190.697 -2.68855 -1.31748 0
M  V30 1915 H 188.243 -1.29372 -0.632362 0
M  V30 1916 H 190.196 -2.0651 -3.6733 0
M  V30 1917 H 188.92 -0.95004 -3.12477 0
M  V30 1918 H 187.579 -2.89467 -2.24954 0
M  V30 1919 H 187.227 -2.0701 -4.58428 0
M  V30 1920 H 186.927 -3.82195 -4.46319 0
M  V30 1921 H 188.451 -3.22869 -5.18255 0
M  V30 1922 H 189.865 -4.62348 -3.38979 0
M  V30 1923 H 188.262 -5.25006 -2.9067 0
M  V30 1924 H 189.332 -4.54893 -1.67929 0
M  V30 1925 N 190.675 0.682077 -1.42076 0
M  V30 1926 C 191.924 1.43786 -1.41451 0
M  V30 1927 C 192.237 1.95574 -0.0317074 0
M  V30 1928 O 193.443 2.71326 0.0971462 0
M  V30 1929 C 191.899 2.60071 -2.48779 0
M  V30 1930 C 191.507 2.15013 -3.93031 0
M  V30 1931 C 193.251 3.37626 -2.57311 0
M  V30 1932 C 191.158 3.28336 -4.91883 0
M  V30 1933 H 190.088 0.540143 -0.526082 0
M  V30 1934 H 192.739 0.739157 -1.67955 0
M  V30 1935 H 191.121 3.32275 -2.15429 0
M  V30 1936 H 192.295 1.5001 -4.35699 0
M  V30 1937 H 190.61 1.50416 -3.88284 0
M  V30 1938 H 193.207 4.22012 -3.28345 0
M  V30 1939 H 193.55 3.83727 -1.61429 0
M  V30 1940 H 194.083 2.72488 -2.89819 0
M  V30 1941 H 190.822 2.87234 -5.89217 0
M  V30 1942 H 190.342 3.92145 -4.53853 0
M  V30 1943 H 192.021 3.93913 -5.13265 0
M  V30 1944 N 192.153 1.28127 0.917671 0
M  V30 1945 C 193.43 1.05761 1.64542 0
M  V30 1946 C 193.81 -0.404344 2.07191 0
M  V30 1947 O 193.158 -1.38963 1.81388 0
M  V30 1948 C 193.368 2.02857 2.83989 0
M  V30 1949 C 194.716 2.32786 3.551 0
M  V30 1950 O 195.74 2.0091 2.94132 0
M  V30 1951 O 194.599 2.87169 4.64969 0
M  V30 1952 H 191.693 0.403916 0.721652 0
M  V30 1953 H 194.239 1.39431 0.967322 0
M  V30 1954 H 193.011 3.01407 2.49538 0
M  V30 1955 H 192.634 1.69809 3.59514 0
M  V30 1956 N 193.631 -1.12557 1.10312 0
M  V30 1957 C 194.561 -2.20341 0.772798 0
M  V30 1958 C 195.542 -1.68198 -0.25365 0
M  V30 1959 O 196.727 -1.93831 -0.119699 0
M  V30 1960 C 193.857 -3.46709 0.202443 0
M  V30 1961 C 192.811 -4.11996 1.15943 0
M  V30 1962 C 192.137 -5.328 0.450345 0
M  V30 1963 C 193.437 -4.5828 2.50552 0
M  V30 1964 H 195.131 -2.48229 1.674 0
M  V30 1965 H 192.677 -1.19308 0.806326 0
M  V30 1966 H 194.63 -4.2138 -0.0407752 0
M  V30 1967 H 193.354 -3.18245 -0.734001 0
M  V30 1968 H 192.013 -3.39305 1.38808 0
M  V30 1969 H 191.661 -5.00602 -0.490531 0
M  V30 1970 H 191.361 -5.7743 1.08851 0
M  V30 1971 H 192.885 -6.10219 0.215642 0
M  V30 1972 H 194.299 -5.2433 2.31843 0
M  V30 1973 H 192.696 -5.13683 3.10242 0
M  V30 1974 H 193.766 -3.72329 3.10643 0
M  V30 1975 N 195.109 -0.891671 -1.2995 0
M  V30 1976 C 196.039 -0.379797 -2.30391 0
M  V30 1977 C 197.02 0.540919 -1.6127 0
M  V30 1978 O 198.205 0.453352 -1.88834 0
M  V30 1979 C 195.335 0.400654 -3.44981 0
M  V30 1980 C 194.289 -0.428905 -4.25846 0
M  V30 1981 C 193.615 0.478557 -5.32554 0
M  V30 1982 C 194.915 -1.67458 -4.94727 0
M  V30 1983 H 196.609 -1.21914 -2.73454 0
M  V30 1984 H 194.155 -0.587675 -1.31462 0
M  V30 1985 H 196.108 0.769434 -4.14316 0
M  V30 1986 H 194.832 1.27371 -3.0074 0
M  V30 1987 H 193.491 -0.779911 -3.58208 0
M  V30 1988 H 193.139 1.34951 -4.84559 0
M  V30 1989 H 192.839 -0.0727433 -5.87555 0
M  V30 1990 H 194.363 0.843705 -6.04743 0
M  V30 1991 H 195.777 -1.376 -5.56542 0
M  V30 1992 H 194.174 -2.16659 -5.59624 0
M  V30 1993 H 195.244 -2.41518 -4.20473 0
M  V30 1994 N 196.587 1.43421 -0.653314 0
M  V30 1995 C 197.535 2.32546 0.0501531 0
M  V30 1996 C 198.529 1.48617 0.812985 0
M  V30 1997 O 199.735 1.64825 0.723375 0
M  V30 1998 H 196.11 0.751185 0.0350032 0
M  V30 1999 H 198.081 2.89602 -0.719261 0
M  V30 2000 C 196.83 3.32925 1.00279 0
M  V30 2001 H 196.153 3.97532 0.425236 0
M  V30 2002 H 197.593 3.9792 1.46409 0
M  V30 2003 C 196.052 2.63532 2.09886 0
M  V30 2004 O 196.582 2.45092 3.18265 0
M  V30 2005 N 194.788 2.22905 1.86445 0
M  V30 2006 H 194.335 2.38103 0.98309 0
M  V30 2007 H 194.293 1.76805 2.59976 0
M  V30 2008 N 198.065 0.39524 1.52563 0
M  V30 2009 C 199.29 -0.187456 2.06551 0
M  V30 2010 C 199.715 -1.39249 1.26457 0
M  V30 2011 O 199.073 -1.78947 0.291151 0
M  V30 2012 C 199.121 -0.529985 3.56684 0
M  V30 2013 O 198.225 -1.62307 3.79118 0
M  V30 2014 H 197.566 -0.0202537 0.663691 0
M  V30 2015 H 200.096 0.564426 1.96661 0
M  V30 2016 H 200.106 -0.792598 4.00227 0
M  V30 2017 H 198.781 0.350987 4.14416 0
M  V30 2018 H 197.358 -1.3537 3.47461 0
M  V30 2019 N 199.544 -1.57102 0.125237 0
M  V30 2020 C 200.454 -2.19191 -0.8362 0
M  V30 2021 C 201.47 -1.16985 -1.28805 0
M  V30 2022 O 202.646 -1.49479 -1.34974 0
M  V30 2023 C 199.711 -2.78407 -2.06617 0
M  V30 2024 C 198.772 -3.9567 -1.66565 0
M  V30 2025 C 198.005 -4.52052 -2.83698 0
M  V30 2026 O 198.228 -4.07326 -3.99302 0
M  V30 2027 O 197.162 -5.42645 -2.60423 0
M  V30 2028 H 200.988 -3.01816 -0.337776 0
M  V30 2029 H 198.573 -1.4906 -0.100695 0
M  V30 2030 H 200.455 -3.16129 -2.7864 0
M  V30 2031 H 199.13 -1.9881 -2.55453 0
M  V30 2032 H 198.037 -3.62705 -0.916296 0
M  V30 2033 H 199.37 -4.76722 -1.22464 0
M  V30 2034 N 201.022 0.148545 -1.56898 0
M  V30 2035 C 201.952 1.18524 -2.01182 0
M  V30 2036 C 202.933 1.4489 -0.891123 0
M  V30 2037 O 204.118 1.55836 -1.15882 0
M  V30 2038 C 201.248 2.51879 -2.39112 0
M  V30 2039 C 200.202 2.40038 -3.54353 0
M  V30 2040 C 199.528 3.78089 -3.78091 0
M  V30 2041 C 200.828 1.88577 -4.87069 0
M  V30 2042 H 202.522 0.817029 -2.88036 0
M  V30 2043 H 200.068 0.391575 -1.38574 0
M  V30 2044 H 202.021 3.24627 -2.68692 0
M  V30 2045 H 200.745 2.90532 -1.49193 0
M  V30 2046 H 199.404 1.69742 -3.24936 0
M  V30 2047 H 199.052 4.14175 -2.85426 0
M  V30 2048 H 198.752 3.71028 -4.55645 0
M  V30 2049 H 200.276 4.52387 -4.10095 0
M  V30 2050 H 201.69 2.51117 -5.15377 0
M  V30 2051 H 200.087 1.9241 -5.68417 0
M  V30 2052 H 201.157 0.84136 -4.77545 0
M  V30 2053 N 202.5 1.5196 0.417844 0
M  V30 2054 C 203.463 1.74065 1.49111 0
M  V30 2055 C 204.463 0.610537 1.48758 0
M  V30 2056 O 205.653 0.87832 1.50437 0
M  V30 2057 C 202.785 1.81502 2.88565 0
M  V30 2058 H 203.978 2.69869 1.30807 0
M  V30 2059 H 201.531 1.42244 0.647785 0
M  V30 2060 H 202.266 0.875813 3.1225 0
M  V30 2061 H 202.051 2.63651 2.90225 0
M  V30 2062 H 203.541 2.00376 3.66387 0
M  V30 2063 N 203.978 -0.674533 1.42435 0
M  V30 2064 C 205.389 -1.25514 1.38214 0
M  V30 2065 C 205.74 -1.96055 0.0755464 0
M  V30 2066 O 204.865 -2.00028 -0.8257 0
M  V30 2067 C 205.46 -2.28269 2.50357 0
M  V30 2068 C 204.019 -2.81856 2.49467 0
M  V30 2069 C 203.166 -1.56182 2.29134 0
M  V30 2070 H 206.117 -0.467902 1.51646 0
M  V30 2071 H 206.138 -3.10009 2.20624 0
M  V30 2072 H 205.65 -1.769 3.45439 0
M  V30 2073 H 203.751 -3.37346 1.58204 0
M  V30 2074 H 203.864 -3.30854 3.46515 0
M  V30 2075 H 202.228 -1.82761 1.774 0
M  V30 2076 H 203.011 -1.06778 3.26272 0
M  V30 2077 N 205.456 -1.28612 -0.910864 0
M  V30 2078 C 206.419 -1.12803 -1.9952 0
M  V30 2079 C 207.419 -0.0668264 -1.60661 0
M  V30 2080 O 208.609 -0.312847 -1.71368 0
M  V30 2081 C 205.741 -0.72254 -3.33155 0
M  V30 2082 H 206.934 -2.09109 -2.14973 0
M  V30 2083 H 204.487 -1.11639 -1.09391 0
M  V30 2084 H 205.222 0.241152 -3.23402 0
M  V30 2085 H 205.007 -1.48916 -3.62721 0
M  V30 2086 H 206.497 -0.634666 -4.12749 0
M  V30 2087 N 206.934 1.1197 -1.10907 0
M  V30 2088 C 208.18 1.8386 -0.855773 0
M  V30 2089 C 208.513 1.84134 0.617103 0
M  V30 2090 O 207.788 1.29041 1.45529 0
M  V30 2091 C 208.071 3.31305 -1.411 0
M  V30 2092 C 207.924 3.39456 -2.9511 0
M  V30 2093 C 209.243 4.2721 -1.05736 0
M  V30 2094 H 206.362 0.667545 -0.312334 0
M  V30 2095 H 209.004 1.31331 -1.37303 0
M  V30 2096 H 207.154 3.76169 -0.97105 0
M  V30 2097 H 208.826 3.03191 -3.47668 0
M  V30 2098 H 207.069 2.79849 -3.31462 0
M  V30 2099 H 207.74 4.43209 -3.29044 0
M  V30 2100 H 210.216 3.90497 -1.43706 0
M  V30 2101 H 209.092 5.28775 -1.47269 0
M  V30 2102 H 209.353 4.42088 0.0325958 0
M  V30 2103 N 208.412 0.89855 1.29475 0
M  V30 2104 C 209.823 0.572537 1.77705 0
M  V30 2105 C 210.174 -0.911778 1.73727 0
M  V30 2106 O 209.299 -1.71288 1.32247 0
M  V30 2107 C 209.894 1.03252 3.22683 0
M  V30 2108 C 208.453 0.757687 3.68695 0
M  V30 2109 C 207.6 1.20787 2.49612 0
M  V30 2110 H 210.551 1.08139 1.16153 0
M  V30 2111 H 210.572 0.367307 3.78723 0
M  V30 2112 H 210.084 2.11285 3.25546 0
M  V30 2113 H 208.185 -0.310079 3.71308 0
M  V30 2114 H 208.298 1.35476 4.59547 0
M  V30 2115 H 206.662 0.626888 2.46865 0
M  V30 2116 H 207.445 2.29622 2.55203 0
M  V30 2117 N 209.89 -1.43072 0.660911 0
M  V30 2118 C 211.115 -2.06584 0.183805 0
M  V30 2119 C 211.54 -1.49257 -1.14472 0
M  V30 2120 O 210.898 -0.605528 -1.70889 0
M  V30 2121 C 210.946 -3.60418 0.114434 0
M  V30 2122 O 210.05 -4.01981 -0.921137 0
M  V30 2123 H 209.391 -0.656669 0.0983994 0
M  V30 2124 H 211.921 -1.83447 0.906006 0
M  V30 2125 H 211.931 -4.07946 -0.0663394 0
M  V30 2126 H 210.606 -4.01519 1.08422 0
M  V30 2127 H 209.183 -3.66029 -0.71253 0
M  V30 2128 N 211.368 -0.403325 -1.52352 0
M  V30 2129 C 212.784 -0.0539281 -1.59509 0
M  V30 2130 C 212.984 1.43307 -1.41652 0
M  V30 2131 O 212.04 2.19924 -1.24056 0
M  V30 2132 C 213.353 -0.543654 -2.95745 0
M  V30 2133 C 214.901 -0.501125 -3.08962 0
M  V30 2134 C 215.376 -0.967267 -4.47669 0
M  V30 2135 N 216.867 -0.923849 -4.53893 0
M  V30 2136 C 217.602 -1.25578 -5.5948 0
M  V30 2137 N 217.098 -1.65889 -6.72646 0
M  V30 2138 N 218.891 -1.17613 -5.49658 0
M  V30 2139 H 211.042 -1.37123 -1.62206 0
M  V30 2140 H 213.305 -0.56294 -0.76276 0
M  V30 2141 H 213.011 -1.58275 -3.14073 0
M  V30 2142 H 212.885 0.0498042 -3.77167 0
M  V30 2143 H 215.272 0.528909 -2.90321 0
M  V30 2144 H 215.353 -1.13056 -2.2946 0
M  V30 2145 H 214.997 -1.9956 -4.67053 0
M  V30 2146 H 214.927 -0.314698 -5.25659 0
M  V30 2147 H 217.418 -0.627403 -3.72655 0
M  V30 2148 H 217.731 -1.89543 -7.49195 0
M  V30 2149 H 216.076 -1.69787 -6.73942 0
M  V30 2150 H 219.267 -0.860115 -4.6013 0
M  V30 2151 H 219.44 -1.43812 -6.3184 0
M  V30 2152 N 212.846 1.57033 -0.133567 0
M  V30 2153 C 214.094 1.953 0.519848 0
M  V30 2154 C 214.415 1.01866 1.66278 0
M  V30 2155 O 213.685 0.0776513 1.95746 0
M  V30 2156 H 212.265 0.721091 0.195032 0
M  V30 2157 H 214.927 1.93809 -0.205921 0
M  V30 2158 H 214.023 2.98695 0.904854 0
M  V30 2159 N 214.325 -0.140222 1.56975 0
M  V30 2160 C 215.553 -0.866437 1.87884 0
M  V30 2161 C 215.968 -1.74428 0.722517 0
M  V30 2162 O 215.325 -1.79891 -0.30749 0
M  V30 2163 C 215.376 -1.71753 3.18093 0
M  V30 2164 O 215.097 -0.875056 4.29272 0
M  V30 2165 C 216.598 -2.55074 3.62563 0
M  V30 2166 H 213.818 -0.25019 0.622612 0
M  V30 2167 H 216.362 -0.130977 2.0408 0
M  V30 2168 H 214.517 -2.40598 3.03631 0
M  V30 2169 H 214.931 -1.46002 5.03769 0
M  V30 2170 H 216.405 -3.10356 4.5649 0
M  V30 2171 H 216.882 -3.31434 2.88181 0
M  V30 2172 H 217.488 -1.91509 3.79743 0
M  V30 2173 N 215.803 -1.52179 -0.40978 0
M  V30 2174 C 217.049 -1.66453 -1.15851 0
M  V30 2175 C 217.382 -0.392972 -1.90182 0
M  V30 2176 O 216.657 0.608579 -1.84734 0
M  V30 2177 C 216.94 -2.88612 -2.15349 0
M  V30 2178 C 216.793 -4.25815 -1.44918 0
M  V30 2179 C 218.112 -3.06294 -3.16026 0
M  V30 2180 H 215.231 -0.60575 -0.419805 0
M  V30 2181 H 217.873 -1.84732 -0.444314 0
M  V30 2182 H 216.023 -2.73158 -2.76255 0
M  V30 2183 H 217.695 -4.52995 -0.871365 0
M  V30 2184 H 215.938 -4.27247 -0.751159 0
M  V30 2185 H 216.609 -5.07337 -2.17516 0
M  V30 2186 H 219.085 -3.20641 -2.65195 0
M  V30 2187 H 217.961 -3.93283 -3.8291 0
M  V30 2188 H 218.222 -2.19579 -3.83715 0
M  V30 2189 N 217.281 0.66697 -1.42791 0
M  V30 2190 C 218.529 1.42417 -1.43394 0
M  V30 2191 C 218.85 1.94925 -0.0542373 0
M  V30 2192 O 218.12 1.73564 0.908415 0
M  V30 2193 H 216.7 0.528515 -0.527902 0
M  V30 2194 H 219.362 0.787562 -1.78279 0
M  V30 2195 H 218.458 2.27333 -2.13837 0
M  V30 2196 N 218.759 1.29093 0.90403 0
M  V30 2197 C 219.722 1.1386 1.98919 0
M  V30 2198 C 220.722 0.0753457 1.60623 0
M  V30 2199 O 221.912 0.321931 1.71199 0
M  V30 2200 C 219.044 0.740198 3.32767 0
M  V30 2201 H 220.237 2.10246 2.13861 0
M  V30 2202 H 217.79 1.12218 1.08797 0
M  V30 2203 H 218.525 -0.223997 3.23525 0
M  V30 2204 H 218.31 1.50838 3.61926 0
M  V30 2205 H 219.8 0.656546 4.12407 0
M  V30 2206 N 220.237 -1.11381 1.11499 0
M  V30 2207 C 221.462 -1.87475 0.887019 0
M  V30 2208 C 221.887 -1.79639 -0.557796 0
M  V30 2209 O 221.245 -1.15924 -1.39396 0
M  V30 2210 C 221.293 -3.34213 1.35403 0
M  V30 2211 O 220.397 -4.0903 0.526146 0
M  V30 2212 H 219.738 -0.582099 0.319463 0
M  V30 2213 H 222.268 -1.40785 1.48461 0
M  V30 2214 H 222.278 -3.8506 1.34881 0
M  V30 2215 H 220.953 -3.39232 2.40612 0
M  V30 2216 H 219.53 -3.68082 0.597522 0
M  V30 2217 N 221.715 -0.905404 -1.28997 0
M  V30 2218 C 222.963 -0.533192 -1.9494 0
M  V30 2219 C 223.284 0.924618 -1.71685 0
M  V30 2220 O 222.554 1.65268 -1.05183 0
M  V30 2221 H 221.134 -0.194194 -0.721317 0
M  V30 2222 H 223.796 -1.15294 -1.57141 0
M  V30 2223 H 222.892 -0.72059 -3.03667 0
M  V30 2224 N 223.193 1.4272 -0.668489 0
M  V30 2225 C 224.47 1.95248 -0.117373 0
M  V30 2226 C 224.85 1.60919 1.36632 0
M  V30 2227 O 224.198 0.902095 2.09939 0
M  V30 2228 C 224.408 3.46927 -0.379806 0
M  V30 2229 C 225.756 4.23588 -0.292923 0
M  V30 2230 O 226.78 3.5482 -0.313204 0
M  V30 2231 O 225.639 5.46017 -0.229697 0
M  V30 2232 H 222.733 0.827 0.00079152 0
M  V30 2233 H 225.279 1.52581 -0.742783 0
M  V30 2234 H 224.051 3.65096 -1.40786 0
M  V30 2235 H 223.674 3.96627 0.277923 0
M  V30 2236 N 224.671 0.411399 1.52136 0
M  V30 2237 C 225.601 -0.404015 2.29978 0
M  V30 2238 C 226.582 -1.04412 1.34284 0
M  V30 2239 O 227.767 -1.0527 1.63192 0
M  V30 2240 C 224.897 -1.5197 3.12286 0
M  V30 2241 C 223.851 -1.00448 4.16046 0
M  V30 2242 C 223.177 -2.21393 4.86712 0
M  V30 2243 C 224.477 -0.0569336 5.22269 0
M  V30 2244 H 226.171 0.245529 2.98392 0
M  V30 2245 H 223.717 0.119525 1.43503 0
M  V30 2246 H 225.67 -2.09715 3.6551 0
M  V30 2247 H 224.394 -2.19716 2.41646 0
M  V30 2248 H 223.053 -0.449421 3.63835 0
M  V30 2249 H 222.701 -2.87699 4.12599 0
M  V30 2250 H 222.401 -1.87571 5.56858 0
M  V30 2251 H 223.925 -2.7974 5.4275 0
M  V30 2252 H 225.339 -0.54325 5.7072 0
M  V30 2253 H 223.736 0.192594 5.99791 0
M  V30 2254 H 224.806 0.887663 4.76706 0
M  V30 2255 N 226.149 -1.5696 0.141893 0
M  V30 2256 C 227.377 -2.00322 -0.517579 0
M  V30 2257 C 227.792 -1.02193 -1.58752 0
M  V30 2258 O 227.149 -0.0181619 -1.82491 0
M  V30 2259 C 227.2 -3.43618 -1.12289 0
M  V30 2260 O 226.921 -4.37995 -0.0956929 0
M  V30 2261 C 228.422 -4.02231 -1.86347 0
M  V30 2262 H 225.642 -0.657243 -0.135177 0
M  V30 2263 H 228.186 -2.03146 0.234973 0
M  V30 2264 H 226.341 -3.41662 -1.82609 0
M  V30 2265 H 226.755 -5.21729 -0.538469 0
M  V30 2266 H 228.229 -5.04509 -2.23997 0
M  V30 2267 H 228.706 -3.42655 -2.74744 0
M  V30 2268 H 229.312 -4.07802 -1.20737 0
M  V30 2269 N 227.627 0.131896 -1.57047 0
M  V30 2270 C 229.038 0.690407 -1.73465 0
M  V30 2271 C 229.389 1.8094 -0.758629 0
M  V30 2272 O 228.514 2.16282 0.0713813 0
M  V30 2273 C 229.109 1.25916 -3.14532 0
M  V30 2274 C 227.668 1.76409 -3.32501 0
M  V30 2275 C 226.815 0.658579 -2.69366 0
M  V30 2276 H 229.766 -0.0939144 -1.58422 0
M  V30 2277 H 229.787 2.12892 -3.15369 0
M  V30 2278 H 229.299 0.444515 -3.85546 0
M  V30 2279 H 227.4 2.60391 -2.66509 0
M  V30 2280 H 227.513 1.88241 -4.4057 0
M  V30 2281 H 225.877 1.08899 -2.30246 0
M  V30 2282 H 226.66 -0.14487 -3.42994 0
M  V30 2283 N 229.106 1.52395 0.401703 0
M  V30 2284 C 230.036 1.79231 1.49661 0
M  V30 2285 C 231.017 0.643654 1.57452 0
M  V30 2286 O 232.202 0.889989 1.72606 0
M  V30 2287 C 229.332 1.94971 2.87409 0
M  V30 2288 C 228.286 3.10604 2.94465 0
M  V30 2289 C 227.612 3.11577 4.34538 0
M  V30 2290 C 228.912 4.49921 2.6527 0
M  V30 2291 H 230.606 2.70917 1.27454 0
M  V30 2292 H 228.152 1.30362 0.6117 0
M  V30 2293 H 230.105 2.12328 3.63999 0
M  V30 2294 H 228.829 0.999632 3.10926 0
M  V30 2295 H 227.488 2.93009 2.20321 0
M  V30 2296 H 227.136 2.14277 4.55076 0
M  V30 2297 H 226.836 3.89247 4.40183 0
M  V30 2298 H 228.36 3.31073 5.13053 0
M  V30 2299 H 229.774 4.67683 3.31581 0
M  V30 2300 H 228.171 5.29564 2.82281 0
M  V30 2301 H 229.241 4.57507 1.60671 0
M  V30 2302 N 230.584 -0.659388 1.43143 0
M  V30 2303 C 231.547 -1.75432 1.47501 0
M  V30 2304 C 232.547 -1.56707 0.360512 0
M  V30 2305 O 233.737 -1.62717 0.622002 0
M  V30 2306 C 230.869 -3.14239 1.32162 0
M  V30 2307 H 232.062 -1.7295 2.45006 0
M  V30 2308 H 229.615 -0.870469 1.29817 0
M  V30 2309 H 230.35 -3.22336 0.356401 0
M  V30 2310 H 230.135 -3.29235 2.12948 0
M  V30 2311 H 231.625 -3.94094 1.3813 0
M  V30 2312 N 232.062 -1.29571 -0.897171 0
M  V30 2313 C 233.012 -1.11539 -1.98855 0
M  V30 2314 C 233.996 -0.0340716 -1.60864 0
M  V30 2315 O 235.188 -0.256062 -1.75138 0
M  V30 2316 C 232.317 -0.796603 -3.3393 0
M  V30 2317 C 231.403 -1.91758 -3.78272 0
M  V30 2318 N 231.794 -3.16143 -3.94826 0
M  V30 2319 C 230.092 -1.81119 -4.07568 0
M  V30 2320 C 230.793 -3.89293 -4.32233 0
M  V30 2321 N 229.769 -3.17255 -4.41419 0
M  V30 2322 H 233.571 -2.05894 -2.09726 0
M  V30 2323 H 231.085 -1.20732 -1.08616 0
M  V30 2324 H 233.082 -0.648459 -4.11826 0
M  V30 2325 H 231.742 0.139003 -3.24402 0
M  V30 2326 H 232.753 -3.5157 -3.80288 0
M  V30 2327 H 229.43 -0.948461 -4.06584 0
M  V30 2328 H 230.82 -4.9635 -4.52865 0
M  V30 2329 N 233.54 1.10788 -1.12088 0
M  V30 2330 C 234.473 2.16237 -0.729168 0
M  V30 2331 C 235.451 1.60207 0.277921 0
M  V30 2332 O 236.635 1.87707 0.172737 0
M  V30 2333 C 233.762 3.38609 -0.0786848 0
M  V30 2334 C 232.808 4.13322 -1.05201 0
M  V30 2335 S 233.641 4.69371 -2.57781 0
M  V30 2336 C 234.797 5.95058 -1.94053 0
M  V30 2337 H 235.03 2.4913 -1.62239 0
M  V30 2338 H 232.563 1.22519 -0.939603 0
M  V30 2339 H 234.521 4.09473 0.290254 0
M  V30 2340 H 233.182 3.03962 0.791593 0
M  V30 2341 H 232.375 5.01051 -0.544433 0
M  V30 2342 H 231.977 3.48251 -1.36371 0
M  V30 2343 H 234.269 6.65278 -1.28107 0
M  V30 2344 H 235.212 6.50472 -2.79807 0
M  V30 2345 H 235.62 5.46918 -1.39787 0
M  V30 2346 N 235.018 0.912232 1.28515 0
M  V30 2347 C 236.264 0.545405 1.95328 0
M  V30 2348 C 236.597 -0.908313 1.71649 0
M  V30 2349 O 235.872 -1.64575 1.03659 0
M  V30 2350 C 236.155 0.853483 3.4984 0
M  V30 2351 C 236.008 2.35982 3.82926 0
M  V30 2352 C 237.327 0.348589 4.38717 0
M  V30 2353 H 234.446 0.199626 0.709449 0
M  V30 2354 H 237.088 1.1412 1.5191 0
M  V30 2355 H 235.238 0.34643 3.86952 0
M  V30 2356 H 236.91 2.93738 3.55691 0
M  V30 2357 H 235.153 2.81543 3.30024 0
M  V30 2358 H 235.824 2.52593 4.90816 0
M  V30 2359 H 238.3 0.78294 4.08668 0
M  V30 2360 H 237.176 0.593242 5.45685 0
M  V30 2361 H 237.437 -0.751049 4.35674 0
M  V30 2362 N 236.496 -1.42363 0.676048 0
M  V30 2363 C 237.426 -2.33497 0.0124832 0
M  V30 2364 C 238.407 -1.50748 -0.787981 0
M  V30 2365 O 239.592 -1.79346 -0.744884 0
M  V30 2366 C 236.722 -3.34377 -0.938582 0
M  V30 2367 C 235.676 -4.27289 -0.246622 0
M  V30 2368 C 235.002 -5.18386 -1.31071 0
M  V30 2369 C 236.302 -5.14916 0.875125 0
M  V30 2370 H 237.996 -2.89233 0.773593 0
M  V30 2371 H 235.542 -1.39073 0.37346 0
M  V30 2372 H 237.495 -3.97044 -1.41188 0
M  V30 2373 H 236.219 -2.76947 -1.73113 0
M  V30 2374 H 234.878 -3.66018 0.206456 0
M  V30 2375 H 234.526 -4.57282 -2.09528 0
M  V30 2376 H 234.226 -5.81378 -0.852839 0
M  V30 2377 H 235.75 -5.83929 -1.78492 0
M  V30 2378 H 237.164 -5.71262 0.482983 0
M  V30 2379 H 235.561 -5.86747 1.25887 0
M  V30 2380 H 236.631 -4.53242 1.72335 0
M  V30 2381 N 237.974 -0.419461 -1.51915 0
M  V30 2382 C 239.214 0.152336 -2.03832 0
M  V30 2383 C 239.578 1.41501 -1.29775 0
M  V30 2384 O 240.779 2.06591 -1.7197 0
M  V30 2385 C 239.05 0.383812 -3.55333 0
M  V30 2386 S 240.609 0.921577 -4.29013 0
M  V30 2387 H 237.427 0.0402193 -0.709862 0
M  V30 2388 H 240.029 -0.574758 -1.8686 0
M  V30 2389 H 238.733 -0.541794 -4.06808 0
M  V30 2390 H 238.264 1.13849 -3.76566 0
M  V30 2391 H 240.279 2.20108 -4.4471 0
M  V30 2392 N 239.452 1.56882 -0.150215 0
M  V30 2393 C 240.382 2.19935 0.784284 0
M  V30 2394 C 241.363 1.14854 1.25469 0
M  V30 2395 O 242.548 1.43209 1.31168 0
M  V30 2396 C 239.678 2.82349 2.02229 0
M  V30 2397 C 238.632 3.93285 1.68853 0
M  V30 2398 C 237.958 4.42649 2.99944 0
M  V30 2399 C 239.258 5.13904 0.932714 0
M  V30 2400 H 240.952 2.9828 0.258781 0
M  V30 2401 H 238.498 1.43473 0.123029 0
M  V30 2402 H 240.451 3.25126 2.68088 0
M  V30 2403 H 239.175 2.0134 2.57157 0
M  V30 2404 H 237.834 3.5113 1.05371 0
M  V30 2405 H 237.482 3.58458 3.52869 0
M  V30 2406 H 237.182 5.17476 2.78374 0
M  V30 2407 H 238.706 4.88099 3.66868 0
M  V30 2408 H 240.12 5.53506 1.49345 0
M  V30 2409 H 238.517 5.94515 0.81684 0
M  V30 2410 H 239.587 4.84842 -0.0749568 0
M  V30 2411 N 240.93 -0.123565 1.57115 0
M  V30 2412 C 241.862 -1.17739 1.96648 0
M  V30 2413 C 242.875 -1.37906 0.865201 0
M  V30 2414 O 244.064 -1.37062 1.14351 0
M  V30 2415 C 241.164 -2.53821 2.24562 0
M  V30 2416 C 240.337 -2.54317 3.55867 0
M  V30 2417 C 239.396 -3.72112 3.72047 0
M  V30 2418 O 238.422 -3.55907 4.44206 0
M  V30 2419 N 239.624 -4.90498 3.10471 0
M  V30 2420 H 242.389 -0.841147 2.87654 0
M  V30 2421 H 239.95 -0.31289 1.58848 0
M  V30 2422 H 241.942 -3.31175 2.32606 0
M  V30 2423 H 240.512 -2.79645 1.39705 0
M  V30 2424 H 239.732 -1.62711 3.59053 0
M  V30 2425 H 241.02 -2.51701 4.42181 0
M  V30 2426 H 240.418 -5.06567 2.51806 0
M  V30 2427 H 238.975 -5.65544 3.24043 0
M  V30 2428 N 242.408 -1.52605 -0.393616 0
M  V30 2429 C 243.656 -1.67093 -1.13685 0
M  V30 2430 C 243.977 -0.411011 -1.90619 0
M  V30 2431 O 243.247 0.574491 -1.87287 0
M  V30 2432 H 241.827 -0.615923 -0.422668 0
M  V30 2433 H 244.489 -1.89704 -0.447039 0
M  V30 2434 H 243.585 -2.51922 -1.84232 0
M  V30 2435 N 243.887 0.651787 -1.4349 0
M  V30 2436 C 245.303 0.96762 -1.26922 0
M  V30 2437 C 245.503 2.00602 -0.189982 0
M  V30 2438 O 244.559 2.48793 0.431107 0
M  V30 2439 C 245.872 1.45052 -2.63401 0
M  V30 2440 C 247.42 1.5671 -2.70945 0
M  V30 2441 C 247.895 2.0839 -4.07845 0
M  V30 2442 N 249.386 2.1569 -4.09917 0
M  V30 2443 C 250.121 2.56804 -5.12679 0
M  V30 2444 N 249.617 2.97203 -6.25813 0
M  V30 2445 N 251.41 2.56756 -5.00033 0
M  V30 2446 H 243.561 -0.0353158 -2.12371 0
M  V30 2447 H 245.824 0.0467858 -0.946845 0
M  V30 2448 H 245.53 0.761926 -3.43348 0
M  V30 2449 H 245.404 2.42529 -2.88894 0
M  V30 2450 H 247.791 2.2467 -1.9133 0
M  V30 2451 H 247.872 0.57662 -2.49216 0
M  V30 2452 H 247.516 1.41031 -4.87927 0
M  V30 2453 H 247.446 3.08271 -4.26938 0
M  V30 2454 H 249.937 1.87237 -3.28254 0
M  V30 2455 H 250.25 3.27328 -7.00055 0
M  V30 2456 H 248.595 2.95004 -6.29283 0
M  V30 2457 H 251.786 2.24572 -4.10713 0
M  V30 2458 H 251.959 2.88475 -5.80247 0
M  V30 2459 N 245.365 1.30045 0.890287 0
M  V30 2460 C 246.613 1.18327 1.63839 0
M  V30 2461 C 246.934 -0.263455 1.93212 0
M  V30 2462 O 246.204 -1.17856 1.56482 0
M  V30 2463 H 244.784 0.434933 0.607324 0
M  V30 2464 H 247.446 1.631 1.06698 0
M  V30 2465 H 246.542 1.74024 2.59079 0
M  V30 2466 N 246.843 -1.10192 1.12674 0
M  V30 2467 C 248.12 -1.78717 0.794965 0
M  V30 2468 C 248.5 -1.98628 -0.714853 0
M  V30 2469 O 247.848 -1.58135 -1.64941 0
M  V30 2470 C 248.058 -3.11546 1.5729 0
M  V30 2471 C 249.406 -3.86382 1.76052 0
M  V30 2472 O 250.43 -3.21274 1.53823 0
M  V30 2473 O 249.289 -5.03246 2.13087 0
M  V30 2474 H 246.383 -0.774702 0.289423 0
M  V30 2475 H 248.929 -1.16819 1.23091 0
M  V30 2476 H 247.701 -2.92489 2.59935 0
M  V30 2477 H 247.324 -3.81164 1.13137 0
M  V30 2478 N 248.321 -0.919034 -1.28029 0
M  V30 2479 C 249.568 -0.554934 -1.94748 0
M  V30 2480 C 249.896 0.90231 -1.72304 0
M  V30 2481 O 249.151 1.65767 -1.04018 0
M  V30 2482 C 249.45 -0.816855 -3.4794 0
M  V30 2483 C 249.116 -2.25448 -3.90492 0
M  V30 2484 C 247.778 -2.64752 -4.01821 0
M  V30 2485 C 250.13 -3.18977 -4.12193 0
M  V30 2486 C 247.458 -3.96727 -4.32232 0
M  V30 2487 C 249.81 -4.50523 -4.44086 0
M  V30 2488 C 248.474 -4.89673 -4.53626 0
M  V30 2489 H 247.744 -0.203065 -0.712633 0
M  V30 2490 H 250.391 -1.16136 -1.52265 0
M  V30 2491 H 248.696 -0.127677 -3.91592 0
M  V30 2492 H 250.393 -0.514238 -3.97689 0
M  V30 2493 H 246.983 -1.93952 -3.82205 0
M  V30 2494 H 251.167 -2.89817 -4.02889 0
M  V30 2495 H 246.423 -4.26754 -4.37825 0
M  V30 2496 H 250.597 -5.23005 -4.59825 0
M  V30 2497 H 248.224 -5.91969 -4.76946 0
M  V30 2498 N 249.799 1.42003 -0.683588 0
M  V30 2499 C 250.729 2.33487 -0.024866 0
M  V30 2500 C 251.71 1.51163 0.779975 0
M  V30 2501 O 252.895 1.79739 0.735362 0
M  V30 2502 C 250.025 3.3487 0.920836 0
M  V30 2503 C 248.979 4.27414 0.223958 0
M  V30 2504 C 248.305 5.19074 1.2832 0
M  V30 2505 C 249.605 5.14445 -0.90242 0
M  V30 2506 H 251.299 2.88819 -0.788921 0
M  V30 2507 H 248.845 1.38873 -0.38083 0
M  V30 2508 H 250.798 3.97787 1.39081 0
M  V30 2509 H 249.522 2.77861 1.71642 0
M  V30 2510 H 248.181 3.65904 -0.225864 0
M  V30 2511 H 247.829 4.58387 2.071 0
M  V30 2512 H 247.529 5.81822 0.821995 0
M  V30 2513 H 249.053 5.84867 1.75392 0
M  V30 2514 H 250.467 5.70998 -0.513272 0
M  V30 2515 H 248.864 5.86072 -1.28997 0
M  V30 2516 H 249.934 4.52322 -1.74737 0
M  V30 2517 N 251.277 0.427512 1.51691 0
M  V30 2518 C 252.554 -0.201684 1.94557 0
M  V30 2519 C 252.934 -1.60981 1.36559 0
M  V30 2520 O 252.282 -2.21814 0.548702 0
M  V30 2521 C 252.492 -0.189394 3.48486 0
M  V30 2522 C 253.84 -0.39978 4.22714 0
M  V30 2523 O 254.864 -0.267945 3.55191 0
M  V30 2524 O 253.723 -0.661249 5.42485 0
M  V30 2525 H 250.817 -0.135261 0.815864 0
M  V30 2526 H 253.363 0.484782 1.62628 0
M  V30 2527 H 252.135 0.795431 3.8313 0
M  V30 2528 H 251.758 -0.919187 3.86829 0
M  V30 2529 N 252.755 -1.56801 0.158532 0
M  V30 2530 C 254.171 -1.5837 -0.197774 0
M  V30 2531 C 254.371 -1.17334 -1.63814 0
M  V30 2532 O 253.427 -0.878988 -2.36707 0
M  V30 2533 C 254.74 -3.00615 0.0714459 0
M  V30 2534 C 256.288 -3.12999 0.00864533 0
M  V30 2535 C 256.763 -4.57313 0.250685 0
M  V30 2536 N 258.254 -4.62777 0.198014 0
M  V30 2537 C 258.989 -5.72271 0.359642 0
M  V30 2538 N 258.485 -6.90371 0.579625 0
M  V30 2539 N 260.278 -5.61318 0.296438 0
M  V30 2540 H 252.429 -1.81765 1.09887 0
M  V30 2541 H 254.692 -0.841849 0.435884 0
M  V30 2542 H 254.398 -3.35068 1.06874 0
M  V30 2543 H 254.272 -3.71683 -0.642757 0
M  V30 2544 H 256.659 -2.7838 -0.979217 0
M  V30 2545 H 256.74 -2.44393 0.755359 0
M  V30 2546 H 256.384 -4.92639 1.2357 0
M  V30 2547 H 256.314 -5.24061 -0.516489 0
M  V30 2548 H 258.805 -3.77885 0.0331115 0
M  V30 2549 H 259.118 -7.69689 0.69275 0
M  V30 2550 H 257.463 -6.92264 0.616087 0
M  V30 2551 H 260.654 -4.67932 0.125258 0
M  V30 2552 H 260.827 -6.46599 0.425831 0
M  V30 2553 N 254.233 0.115231 -1.57178 0
M  V30 2554 C 255.51 0.852873 -1.76027 0
M  V30 2555 C 255.89 1.97892 -0.73498 0
M  V30 2556 O 255.238 2.27232 0.24036 0
M  V30 2557 C 255.448 1.36608 -3.21153 0
M  V30 2558 C 256.796 1.81692 -3.83762 0
M  V30 2559 O 257.82 1.46278 -3.24779 0
M  V30 2560 O 256.679 2.47104 -4.87444 0
M  V30 2561 H 253.773 0.405296 -0.720877 0
M  V30 2562 H 256.319 0.0986785 -1.69413 0
M  V30 2563 H 255.091 0.558357 -3.87296 0
M  V30 2564 H 254.714 2.18287 -3.3232 0
M  V30 2565 N 255.711 1.52812 0.385517 0
M  V30 2566 C 256.959 1.67694 1.12797 0
M  V30 2567 C 257.28 0.421115 1.90399 0
M  V30 2568 O 256.55 -0.564551 1.87589 0
M  V30 2569 H 255.13 0.618155 0.419396 0
M  V30 2570 H 257.792 1.89938 0.436972 0
M  V30 2571 H 256.888 2.52896 1.82894 0
M  V30 2572 N 257.189 -0.644168 1.43834 0
M  V30 2573 C 258.417 -1.43147 1.49387 0
M  V30 2574 C 258.832 -1.88452 0.114583 0
M  V30 2575 O 258.189 -1.60047 -0.876989 0
M  V30 2576 C 258.24 -2.66046 2.44748 0
M  V30 2577 O 257.961 -2.22633 3.77314 0
M  V30 2578 C 259.462 -3.59311 2.59635 0
M  V30 2579 H 256.682 -0.439447 0.507077 0
M  V30 2580 H 259.226 -0.78895 1.88669 0
M  V30 2581 H 257.381 -3.26418 2.08638 0
M  V30 2582 H 257.795 -3.02216 4.28679 0
M  V30 2583 H 259.269 -4.42187 3.30416 0
M  V30 2584 H 259.746 -4.07259 1.64427 0
M  V30 2585 H 260.352 -3.04816 2.96593 0
M  V30 2586 N 258.668 -1.30515 -0.883378 0
M  V30 2587 C 260.084 -1.08881 -1.16692 0
M  V30 2588 C 260.284 0.149409 -2.00945 0
M  V30 2589 O 259.34 0.84257 -2.38027 0
M  V30 2590 C 260.653 -2.35319 -1.87204 0
M  V30 2591 C 262.201 -2.40799 -1.99962 0
M  V30 2592 C 262.676 -3.67083 -2.73887 0
M  V30 2593 N 264.167 -3.679 -2.81432 0
M  V30 2594 C 264.902 -4.62303 -3.3921 0
M  V30 2595 N 264.398 -5.67052 -3.98025 0
M  V30 2596 N 266.191 -4.49845 -3.3704 0
M  V30 2597 H 258.342 -2.09951 -0.321633 0
M  V30 2598 H 260.605 -0.92556 -0.205043 0
M  V30 2599 H 260.311 -3.25689 -1.3274 0
M  V30 2600 H 260.185 -2.44089 -2.87577 0
M  V30 2601 H 262.572 -1.50907 -2.53597 0
M  V30 2602 H 262.653 -2.36003 -0.98673 0
M  V30 2603 H 262.297 -4.57334 -2.20925 0
M  V30 2604 H 262.227 -3.69141 -3.75556 0
M  V30 2605 H 264.718 -2.92171 -2.39676 0
M  V30 2606 H 265.031 -6.35184 -4.40183 0
M  V30 2607 H 263.376 -5.70842 -3.96439 0
M  V30 2608 H 266.567 -3.67194 -2.90321 0
M  V30 2609 H 266.74 -5.23597 -3.81772 0
M  V30 2610 N 260.146 1.09593 -1.13257 0
M  V30 2611 C 261.076 2.18214 -0.830946 0
M  V30 2612 C 262.057 1.68812 0.208966 0
M  V30 2613 O 263.242 1.9408 0.0682666 0
M  V30 2614 C 260.372 3.46051 -0.294296 0
M  V30 2615 C 259.326 4.08778 -1.26826 0
M  V30 2616 C 258.652 5.31419 -0.591449 0
M  V30 2617 C 259.952 4.51476 -2.62615 0
M  V30 2618 H 261.646 2.43703 -1.73923 0
M  V30 2619 H 259.192 1.17128 -0.837675 0
M  V30 2620 H 261.145 4.2134 -0.0709606 0
M  V30 2621 H 259.869 3.20079 0.649366 0
M  V30 2622 H 258.528 3.35505 -1.47756 0
M  V30 2623 H 258.176 5.01727 0.357633 0
M  V30 2624 H 257.876 5.74341 -1.24123 0
M  V30 2625 H 259.4 6.09433 -0.377355 0
M  V30 2626 H 260.814 5.17999 -2.45663 0
M  V30 2627 H 259.211 5.05277 -3.23752 0
M  V30 2628 H 260.281 3.63962 -3.20406 0
M  V30 2629 N 261.624 0.925811 1.2754 0
M  V30 2630 C 262.901 0.483726 1.89524 0
M  V30 2631 C 263.281 -1.03809 1.83812 0
M  V30 2632 O 262.629 -1.89143 1.28207 0
M  V30 2633 C 262.839 1.02769 3.33526 0
M  V30 2634 C 264.187 1.08703 4.10449 0
M  V30 2635 O 265.211 0.977175 3.42534 0
M  V30 2636 O 264.07 1.25599 5.31871 0
M  V30 2637 H 261.164 0.15529 0.812289 0
M  V30 2638 H 263.71 1.01738 1.35822 0
M  V30 2639 H 262.482 2.07155 3.31967 0
M  V30 2640 H 262.105 0.475567 3.94746 0
M  V30 2641 N 263.102 -1.41638 0.69111 0
M  V30 2642 C 264.35 -2.00902 0.219758 0
M  V30 2643 C 264.671 -1.54994 -1.18329 0
M  V30 2644 O 263.941 -0.778628 -1.79762 0
M  V30 2645 H 262.521 -0.74289 0.0782558 0
M  V30 2646 H 265.183 -1.73327 0.891271 0
M  V30 2647 H 264.279 -3.11224 0.233708 0
M  V30 2648 N 264.58 -0.43555 -1.51462 0
M  V30 2649 C 265.543 0.365137 -2.26273 0
M  V30 2650 C 266.543 0.951227 -1.29647 0
M  V30 2651 O 267.733 0.825958 -1.53374 0
M  V30 2652 C 264.865 1.51645 -3.05314 0
M  V30 2653 H 266.058 -0.290474 -2.9849 0
M  V30 2654 H 263.611 -0.188676 -1.55157 0
M  V30 2655 H 264.346 2.20816 -2.3751 0
M  V30 2656 H 264.131 1.10238 -3.76284 0
M  V30 2657 H 265.621 2.08218 -3.61987 0
M  V30 2658 N 266.058 1.56714 -0.166846 0
M  V30 2659 C 266.968 2.21331 0.777791 0
M  V30 2660 C 267.984 1.20358 1.25658 0
M  V30 2661 O 269.16 1.53005 1.30964 0
M  V30 2662 C 266.225 2.83787 1.99163 0
M  V30 2663 C 265.286 3.99947 1.56016 0
M  V30 2664 C 264.519 4.59415 2.71613 0
M  V30 2665 O 264.742 4.17769 3.88362 0
M  V30 2666 O 263.676 5.49359 2.45945 0
M  V30 2667 H 267.502 3.02605 0.257636 0
M  V30 2668 H 265.087 1.49275 0.0611393 0
M  V30 2669 H 266.969 3.23405 2.70161 0
M  V30 2670 H 265.644 2.05513 2.50092 0
M  V30 2671 H 264.551 3.65007 0.819809 0
M  V30 2672 H 265.884 4.79801 1.09782 0
M  V30 2673 N 267.536 -0.106894 1.57237 0
M  V30 2674 C 268.784 -0.810921 1.85117 0
M  V30 2675 C 269.105 -1.7984 0.753827 0
M  V30 2676 O 268.375 -1.94649 -0.221056 0
M  V30 2677 H 266.955 -0.302466 0.683025 0
M  V30 2678 H 269.617 -0.0913324 1.94686 0
M  V30 2679 H 268.713 -1.34875 2.81452 0
M  V30 2680 N 269.014 -1.53014 -0.377408 0
M  V30 2681 C 269.944 -1.81589 -1.46791 0
M  V30 2682 C 270.925 -0.668622 -1.56408 0
M  V30 2683 O 272.11 -0.917337 -1.71168 0
M  V30 2684 C 269.24 -1.99519 -2.8427 0
M  V30 2685 C 268.194 -3.15249 -2.89486 0
M  V30 2686 C 267.52 -3.18451 -4.29527 0
M  V30 2687 C 268.82 -4.54084 -2.58079 0
M  V30 2688 H 270.514 -2.7291 -1.23127 0
M  V30 2689 H 268.06 -1.31319 -0.590883 0
M  V30 2690 H 270.013 -2.18092 -3.60575 0
M  V30 2691 H 268.737 -1.04897 -3.09296 0
M  V30 2692 H 267.396 -2.96477 -2.15631 0
M  V30 2693 H 267.044 -2.2149 -4.5161 0
M  V30 2694 H 266.744 -3.962 -4.33934 0
M  V30 2695 H 268.268 -3.39193 -5.07721 0
M  V30 2696 H 269.682 -4.72899 -3.24098 0
M  V30 2697 H 268.079 -5.33987 -2.7382 0
M  V30 2698 H 269.149 -4.60006 -1.53372 0
M  V30 2699 N 270.492 0.636531 -1.44174 0
M  V30 2700 C 271.908 0.954104 -1.27941 0
M  V30 2701 C 272.108 2.0039 -0.211248 0
M  V30 2702 O 271.164 2.49236 0.404695 0
M  V30 2703 C 272.477 1.4225 -2.64925 0
M  V30 2704 C 274.025 1.53827 -2.72592 0
M  V30 2705 C 274.5 2.04053 -4.10032 0
M  V30 2706 N 275.991 2.11331 -4.12182 0
M  V30 2707 C 276.726 2.51352 -5.15374 0
M  V30 2708 N 276.222 2.90549 -6.2893 0
M  V30 2709 N 278.015 2.51438 -5.02728 0
M  V30 2710 H 270.166 -0.0578386 -2.12321 0
M  V30 2711 H 272.429 0.0367406 -0.947288 0
M  V30 2712 H 272.135 0.725466 -3.44136 0
M  V30 2713 H 272.009 2.39451 -2.9145 0
M  V30 2714 H 274.396 2.22628 -1.93702 0
M  V30 2715 H 274.477 0.550154 -2.49814 0
M  V30 2716 H 274.121 1.35848 -4.89395 0
M  V30 2717 H 274.051 3.03726 -4.30184 0
M  V30 2718 H 276.542 1.83745 -3.30222 0
M  V30 2719 H 276.855 3.19884 -7.03487 0
M  V30 2720 H 275.2 2.88313 -6.32377 0
M  V30 2721 H 278.391 2.20203 -4.13072 0
M  V30 2722 H 278.564 2.82304 -5.83274 0
M  V30 2723 N 271.97 1.30982 0.876444 0
M  V30 2724 C 273.386 1.09498 1.16113 0
M  V30 2725 C 273.586 -0.13875 2.01022 0
M  V30 2726 O 272.642 -0.829935 2.38471 0
M  V30 2727 C 273.955 2.36308 1.85954 0
M  V30 2728 C 275.503 2.41856 1.98683 0
M  V30 2729 C 275.978 3.6853 2.71937 0
M  V30 2730 N 277.469 3.69387 2.79477 0
M  V30 2731 C 278.204 4.64096 3.36753 0
M  V30 2732 N 277.7 5.69155 3.95012 0
M  V30 2733 N 279.493 4.51626 3.3465 0
M  V30 2734 H 271.644 2.10118 0.310494 0
M  V30 2735 H 273.907 0.926634 0.200131 0
M  V30 2736 H 273.613 3.26388 1.31011 0
M  V30 2737 H 273.487 2.4561 2.86278 0
M  V30 2738 H 275.874 1.52249 2.52793 0
M  V30 2739 H 275.955 2.36523 0.9742 0
M  V30 2740 H 275.599 4.58499 2.18496 0
M  V30 2741 H 275.529 3.71127 3.73593 0
M  V30 2742 H 278.02 2.93438 2.38123 0
M  V30 2743 H 278.333 6.3751 4.36808 0
M  V30 2744 H 276.678 5.72937 3.93406 0
M  V30 2745 H 279.869 3.68728 2.8837 0
M  V30 2746 H 280.042 5.25614 3.7899 0
M  V30 2747 N 273.449 -1.08991 1.13837 0
M  V30 2748 C 274.697 -1.80899 0.901098 0
M  V30 2749 C 275.018 -1.86356 -0.574134 0
M  V30 2750 O 274.288 -1.35235 -1.41733 0
M  V30 2751 H 272.868 -0.669966 0.330386 0
M  V30 2752 H 275.53 -1.318 1.43578 0
M  V30 2753 H 274.626 -2.83929 1.29578 0
M  V30 2754 N 274.927 -0.932562 -1.27047 0
M  V30 2755 C 276.343 -0.633544 -1.46487 0
M  V30 2756 C 276.543 0.815746 -1.84249 0
M  V30 2757 O 275.599 1.59319 -1.95892 0
M  V30 2758 C 276.912 -1.58758 -2.55375 0
M  V30 2759 C 278.46 -1.59634 -2.69232 0
M  V30 2760 C 278.935 -2.53747 -3.81283 0
M  V30 2761 N 280.426 -2.51982 -3.88664 0
M  V30 2762 C 281.161 -3.21491 -4.74796 0
M  V30 2763 N 280.657 -4.00395 -5.65381 0
M  V30 2764 N 282.45 -3.10485 -4.68568 0
M  V30 2765 H 274.601 -1.86946 -1.00821 0
M  V30 2766 H 276.864 -0.802897 -0.504044 0
M  V30 2767 H 276.57 -2.62172 -2.34432 0
M  V30 2768 H 276.444 -1.33301 -3.52861 0
M  V30 2769 H 278.831 -0.569488 -2.89553 0
M  V30 2770 H 278.912 -1.89142 -1.72218 0
M  V30 2771 H 278.556 -3.56545 -3.61715 0
M  V30 2772 H 278.486 -2.21532 -4.77735 0
M  V30 2773 H 280.977 -1.94681 -3.23895 0
M  V30 2774 H 281.29 -4.50406 -6.27976 0
M  V30 2775 H 279.635 -4.04498 -5.65161 0
M  V30 2776 H 282.826 -2.48331 -3.96799 0
M  V30 2777 H 282.999 -3.64925 -5.35475 0
M  V30 2778 N 276.405 1.4127 -0.698611 0
M  V30 2779 C 277.335 2.33447 -0.049629 0
M  V30 2780 C 278.316 1.51982 0.763898 0
M  V30 2781 O 279.501 1.80509 0.716257 0
M  V30 2782 C 276.631 3.35828 0.885267 0
M  V30 2783 C 275.585 4.27627 0.178613 0
M  V30 2784 C 274.911 5.20406 1.22807 0
M  V30 2785 C 276.211 5.13459 -0.956933 0
M  V30 2786 H 277.905 2.87966 -0.81951 0
M  V30 2787 H 275.451 1.38461 -0.395538 0
M  V30 2788 H 277.404 3.9924 1.34854 0
M  V30 2789 H 276.128 2.79666 1.68685 0
M  V30 2790 H 274.787 3.65643 -0.26466 0
M  V30 2791 H 274.435 4.60558 2.02226 0
M  V30 2792 H 274.135 5.82661 0.760239 0
M  V30 2793 H 275.659 5.86695 1.69179 0
M  V30 2794 H 277.073 5.70421 -0.573805 0
M  V30 2795 H 275.47 5.8467 -1.35205 0
M  V30 2796 H 276.54 4.50443 -1.79524 0
M  V30 2797 N 277.883 0.443576 1.51229 0
M  V30 2798 C 278.815 -0.400608 2.25672 0
M  V30 2799 C 279.828 -0.980945 1.29928 0
M  V30 2800 O 281.017 -0.874024 1.55638 0
M  V30 2801 C 278.117 -1.57304 3.00181 0
M  V30 2802 C 277.29 -1.11046 4.23069 0
M  V30 2803 C 276.349 -2.15374 4.80105 0
M  V30 2804 O 275.375 -1.74554 5.41774 0
M  V30 2805 N 276.577 -3.47922 4.64683 0
M  V30 2806 H 279.342 0.23745 2.98758 0
M  V30 2807 H 276.903 0.272809 1.59585 0
M  V30 2808 H 278.895 -2.26733 3.35223 0
M  V30 2809 H 277.465 -2.11632 2.30066 0
M  V30 2810 H 276.685 -0.243019 3.9345 0
M  V30 2811 H 277.973 -0.778888 5.02803 0
M  V30 2812 H 277.371 -3.83815 4.15575 0
M  V30 2813 H 275.928 -4.13228 5.0407 0
M  V30 2814 N 279.361 -1.56624 0.175154 0
M  V30 2815 C 280.772 -1.83561 -0.340916 0
M  V30 2816 C 281.123 -1.09511 -1.62794 0
M  V30 2817 O 280.248 -0.349389 -2.13561 0
M  V30 2818 C 280.843 -3.32979 -0.625313 0
M  V30 2819 C 279.402 -3.60399 -1.08581 0
M  V30 2820 C 278.549 -2.77024 -0.123722 0
M  V30 2821 H 281.5 -1.53593 0.399344 0
M  V30 2822 H 281.521 -3.50666 -1.47694 0
M  V30 2823 H 281.033 -3.86847 0.311575 0
M  V30 2824 H 279.134 -3.11945 -2.03767 0
M  V30 2825 H 279.247 -4.68711 -0.992317 0
M  V30 2826 H 277.611 -2.46993 -0.621821 0
M  V30 2827 H 278.394 -3.33674 0.807256 0
M  V30 2828 N 280.839 0.0985539 -1.57292 0
M  V30 2829 C 281.769 1.12064 -2.04851 0
M  V30 2830 C 282.75 1.41981 -0.936767 0
M  V30 2831 O 283.935 1.52071 -1.20781 0
M  V30 2832 C 281.065 2.44144 -2.47004 0
M  V30 2833 C 280.019 2.28643 -3.6181 0
M  V30 2834 C 279.345 3.65869 -3.89929 0
M  V30 2835 C 280.645 1.72986 -4.92822 0
M  V30 2836 H 282.339 0.724979 -2.9049 0
M  V30 2837 H 279.885 0.34729 -1.39749 0
M  V30 2838 H 281.838 3.15914 -2.78884 0
M  V30 2839 H 280.562 2.85639 -1.5836 0
M  V30 2840 H 279.221 1.59318 -3.30172 0
M  V30 2841 H 278.869 4.04885 -2.98458 0
M  V30 2842 H 278.569 3.56344 -4.67218 0
M  V30 2843 H 280.093 4.39112 -4.2428 0
M  V30 2844 H 281.507 2.34593 -5.23105 0
M  V30 2845 H 279.904 1.74229 -5.74251 0
M  V30 2846 H 280.974 0.689007 -4.7998 0
M  V30 2847 N 282.317 1.53212 0.369288 0
M  V30 2848 C 283.594 1.59815 1.12776 0
M  V30 2849 C 283.974 0.403402 2.0721 0
M  V30 2850 O 283.322 -0.606667 2.20299 0
M  V30 2851 C 283.532 2.94664 1.87013 0
M  V30 2852 C 284.88 3.49109 2.41677 0
M  V30 2853 O 285.904 2.96669 1.97144 0
M  V30 2854 O 284.763 4.40775 3.23079 0
M  V30 2855 H 281.857 0.645376 0.517125 0
M  V30 2856 H 284.403 1.65553 0.37285 0
M  V30 2857 H 283.175 3.73061 1.18071 0
M  V30 2858 H 282.798 2.92401 2.69421 0
M  V30 2859 N 283.795 -0.628877 1.44509 0
M  V30 2860 C 284.725 -1.75187 1.54376 0
M  V30 2861 C 285.706 -1.65411 0.396618 0
M  V30 2862 O 286.891 -1.84137 0.617031 0
M  V30 2863 C 284.021 -3.13725 1.48976 0
M  V30 2864 C 282.975 -3.38291 2.62189 0
M  V30 2865 C 282.301 -4.76883 2.41841 0
M  V30 2866 C 283.601 -3.30632 4.04326 0
M  V30 2867 H 285.295 -1.67187 2.48373 0
M  V30 2868 H 282.841 -0.802909 1.19538 0
M  V30 2869 H 284.794 -3.92064 1.54478 0
M  V30 2870 H 283.518 -3.22515 0.514961 0
M  V30 2871 H 282.177 -2.62334 2.56079 0
M  V30 2872 H 281.825 -4.82378 1.42548 0
M  V30 2873 H 281.525 -4.94278 3.17747 0
M  V30 2874 H 283.049 -5.57449 2.49165 0
M  V30 2875 H 284.463 -3.98873 4.11793 0
M  V30 2876 H 282.86 -3.59561 4.80454 0
M  V30 2877 H 283.93 -2.28404 4.27738 0
M  V30 2878 N 285.273 -1.31445 -0.869486 0
M  V30 2879 C 286.498 -1.24256 -1.66058 0
M  V30 2880 C 286.923 0.188928 -1.87149 0
M  V30 2881 O 286.281 1.13522 -1.4136 0
M  V30 2882 C 286.329 -1.9924 -3.00559 0
M  V30 2883 O 285.433 -1.33007 -3.90362 0
M  V30 2884 H 284.774 -0.428973 -0.506831 0
M  V30 2885 H 287.304 -1.73521 -1.08404 0
M  V30 2886 H 287.314 -2.08854 -3.50491 0
M  V30 2887 H 285.989 -3.03342 -2.84528 0
M  V30 2888 H 284.566 -1.31848 -3.48813 0
M  V30 2889 N 286.751 1.08385 -1.14413 0
M  V30 2890 C 287.701 2.13509 -0.79987 0
M  V30 2891 C 288.685 1.5951 0.211059 0
M  V30 2892 O 289.877 1.76995 0.0133694 0
M  V30 2893 C 287.006 3.42162 -0.279297 0
M  V30 2894 C 286.092 4.03042 -1.31976 0
M  V30 2895 N 286.483 4.38327 -2.52395 0
M  V30 2896 C 284.781 4.30379 -1.17004 0
M  V30 2897 C 285.482 4.86428 -3.19003 0
M  V30 2898 N 284.458 4.84547 -2.46405 0
M  V30 2899 H 288.26 2.38609 -1.7159 0
M  V30 2900 H 285.774 1.2572 -1.02802 0
M  V30 2901 H 287.771 4.16898 -0.0143688 0
M  V30 2902 H 286.431 3.18511 0.630923 0
M  V30 2903 H 287.442 4.29349 -2.89621 0
M  V30 2904 H 284.119 4.16281 -0.318854 0
M  V30 2905 H 285.509 5.23107 -4.21674 0
M  V30 2906 N 288.23 0.939286 1.26551 0
M  V30 2907 C 289.646 0.641304 1.46149 0
M  V30 2908 C 289.846 -0.805964 1.84679 0
M  V30 2909 O 288.902 -1.58278 1.96734 0
M  V30 2910 C 290.215 1.6011 2.54529 0
M  V30 2911 C 291.763 1.6106 2.68382 0
M  V30 2912 C 292.238 2.55765 3.79932 0
M  V30 2913 N 293.729 2.5404 3.87322 0
M  V30 2914 C 294.464 3.24004 4.73085 0
M  V30 2915 N 293.96 4.03388 5.63249 0
M  V30 2916 N 295.753 3.12965 4.66914 0
M  V30 2917 H 287.904 1.87478 0.998285 0
M  V30 2918 H 290.167 0.805559 0.499779 0
M  V30 2919 H 289.873 2.63412 2.33039 0
M  V30 2920 H 289.747 1.35171 3.52149 0
M  V30 2921 H 292.134 0.584835 2.89247 0
M  V30 2922 H 292.215 1.90053 1.71212 0
M  V30 2923 H 291.859 3.58458 3.5982 0
M  V30 2924 H 291.789 2.24063 4.76554 0
M  V30 2925 H 294.28 1.96396 3.22858 0
M  V30 2926 H 294.593 4.5373 6.25579 0
M  V30 2927 H 292.938 4.07489 5.63008 0
M  V30 2928 H 296.129 2.50432 3.95476 0
M  V30 2929 H 296.302 3.67759 5.33533 0
M  V30 2930 N 289.708 -1.40897 0.706093 0
M  V30 2931 C 290.985 -1.94868 0.169099 0
M  V30 2932 C 291.365 -1.64485 -1.32318 0
M  V30 2933 O 290.713 -0.95744 -2.07474 0
M  V30 2934 C 290.923 -3.45798 0.471654 0
M  V30 2935 C 292.271 -4.22663 0.405127 0
M  V30 2936 O 293.295 -3.53865 0.407168 0
M  V30 2937 O 292.154 -5.45216 0.374383 0
M  V30 2938 H 289.248 -0.82673 0.0211352 0
M  V30 2939 H 291.794 -1.50558 0.782976 0
M  V30 2940 H 290.566 -3.61235 1.50416 0
M  V30 2941 H 290.189 -3.97225 -0.172666 0
M  V30 2942 N 291.186 -0.45159 -1.50991 0
M  V30 2943 C 292.149 0.341117 -2.26647 0
M  V30 2944 C 293.149 0.937422 -1.30649 0
M  V30 2945 O 294.339 0.809644 -1.54241 0
M  V30 2946 C 291.471 1.48398 -3.06905 0
M  V30 2947 H 292.664 -0.322117 -2.98165 0
M  V30 2948 H 290.217 -0.205122 -1.54948 0
M  V30 2949 H 290.952 2.18284 -2.39838 0
M  V30 2950 H 290.737 1.06241 -3.77432 0
M  V30 2951 H 292.227 2.04367 -3.64176 0
M  V30 2952 N 292.664 1.56529 -0.183458 0
M  V30 2953 C 293.594 2.21549 0.737456 0
M  V30 2954 C 294.575 1.17489 1.23005 0
M  V30 2955 O 295.76 1.45959 1.281 0
M  V30 2956 C 292.89 2.86575 1.96194 0
M  V30 2957 C 291.844 3.96778 1.60473 0
M  V30 2958 C 291.17 4.48911 2.90487 0
M  V30 2959 C 292.47 5.15767 0.823497 0
M  V30 2960 H 294.164 2.98761 0.195453 0
M  V30 2961 H 291.71 1.43702 0.0925686 0
M  V30 2962 H 293.663 3.30739 2.61131 0
M  V30 2963 H 292.387 2.06749 2.52828 0
M  V30 2964 H 291.046 3.53286 0.978997 0
M  V30 2965 H 290.694 3.65862 3.45186 0
M  V30 2966 H 290.394 5.23265 2.67335 0
M  V30 2967 H 291.918 4.95771 3.56432 0
M  V30 2968 H 293.332 5.56549 1.37571 0
M  V30 2969 H 291.729 5.96114 0.690551 0
M  V30 2970 H 292.799 4.84574 -0.177782 0
M  V30 2971 N 294.142 -0.090211 1.57342 0
M  V30 2972 C 295.105 -1.09335 2.01441 0
M  V30 2973 C 296.105 -1.32666 0.908641 0
M  V30 2974 O 297.295 -1.28697 1.174 0
M  V30 2975 C 294.427 -2.44136 2.3793 0
M  V30 2976 H 295.62 -0.713662 2.91285 0
M  V30 2977 H 293.173 -0.335404 1.52659 0
M  V30 2978 H 293.908 -2.86972 1.51055 0
M  V30 2979 H 293.693 -2.28548 3.18603 0
M  V30 2980 H 295.183 -3.16277 2.72688 0
M  V30 2981 N 295.62 -1.53406 -0.361157 0
M  V30 2982 C 296.55 -1.83136 -1.44857 0
M  V30 2983 C 297.531 -0.685174 -1.5569 0
M  V30 2984 O 298.716 -0.93544 -1.70186 0
M  V30 2985 C 295.846 -2.02522 -2.82138 0
M  V30 2986 C 294.8 -3.18302 -2.86126 0
M  V30 2987 C 294.126 -3.22989 -4.26125 0
M  V30 2988 C 295.426 -4.56796 -2.53248 0
M  V30 2989 H 297.12 -2.74201 -1.20226 0
M  V30 2990 H 294.666 -1.31938 -0.576922 0
M  V30 2991 H 296.619 -2.21904 -3.58241 0
M  V30 2992 H 295.343 -1.08172 -3.08166 0
M  V30 2993 H 294.002 -2.98747 -2.12475 0
M  V30 2994 H 293.65 -2.26267 -4.49235 0
M  V30 2995 H 293.35 -4.00781 -4.29708 0
M  V30 2996 H 294.874 -3.44559 -5.04094 0
M  V30 2997 H 296.288 -4.7631 -3.19064 0
M  V30 2998 H 294.685 -5.36862 -2.68141 0
M  V30 2999 H 295.755 -4.61606 -1.48484 0
M  V30 3000 N 297.098 0.621204 -1.44841 0
M  V30 3001 C 298.344 1.3826 -1.48365 0
M  V30 3002 C 298.677 1.93831 -0.119624 0
M  V30 3003 O 297.952 1.74251 0.864111 0
M  V30 3004 C 298.235 2.54058 -2.55199 0
M  V30 3005 C 298.088 2.03772 -4.00995 0
M  V30 3006 C 299.407 3.56225 -2.58442 0
M  V30 3007 H 296.526 0.501374 -0.540179 0
M  V30 3008 H 299.168 0.7015 -1.76576 0
M  V30 3009 H 297.318 3.12162 -2.31274 0
M  V30 3010 H 298.99 1.50423 -4.36086 0
M  V30 3011 H 297.233 1.34876 -4.12299 0
M  V30 3012 H 297.904 2.87185 -4.71411 0
M  V30 3013 H 300.38 3.07939 -2.79844 0
M  V30 3014 H 299.256 4.34756 -3.3508 0
M  V30 3015 H 299.517 4.10949 -1.63013 0
M  V30 3016 N 298.576 1.31904 0.862503 0
M  V30 3017 C 299.524 1.20125 1.9918 0
M  V30 3018 C 300.518 0.107824 1.69056 0
M  V30 3019 O 301.724 0.270223 1.7796 0
M  V30 3020 H 298.099 0.372148 0.65346 0
M  V30 3021 H 300.07 2.15652 2.06244 0
M  V30 3022 C 298.819 0.933099 3.34946 0
M  V30 3023 H 298.142 1.76664 3.5865 0
M  V30 3024 H 299.582 0.890892 4.14535 0
M  V30 3025 C 298.041 -0.364172 3.34926 0
M  V30 3026 O 298.571 -1.37858 3.77304 0
M  V30 3027 N 296.777 -0.383362 2.8806 0
M  V30 3028 H 296.324 0.442651 2.53768 0
M  V30 3029 H 296.282 -1.25123 2.8843 0
M  V30 3030 N 300.054 -1.07777 1.14986 0
M  V30 3031 C 301.302 -1.79934 0.920235 0
M  V30 3032 C 301.623 -1.86955 -0.554336 0
M  V30 3033 O 300.893 -1.36731 -1.40291 0
M  V30 3034 H 299.473 -0.666424 0.337473 0
M  V30 3035 H 302.135 -1.3027 1.44968 0
M  V30 3036 H 301.231 -2.82539 1.32583 0
M  V30 3037 N 301.532 -0.945985 -1.26051 0
M  V30 3038 C 302.76 -0.613025 -1.9761 0
M  V30 3039 C 303.175 0.813035 -1.70397 0
M  V30 3040 O 302.532 1.54274 -0.974979 0
M  V30 3041 C 302.583 -0.85159 -3.51326 0
M  V30 3042 O 302.304 -2.22157 -3.77595 0
M  V30 3043 C 303.805 -0.529831 -4.40122 0
M  V30 3044 H 301.025 -0.230593 -0.630133 0
M  V30 3045 H 303.569 -1.268 -1.60443 0
M  V30 3046 H 301.724 -0.243151 -3.86636 0
M  V30 3047 H 302.138 -2.2852 -4.721 0
M  V30 3048 H 303.612 -0.747348 -5.46917 0
M  V30 3049 H 304.089 0.535341 -4.35925 0
M  V30 3050 H 304.695 -1.11721 -4.10364 0
M  V30 3051 N 303.011 1.40521 -0.713556 0
M  V30 3052 C 304.236 2.05759 -0.26035 0
M  V30 3053 C 304.661 1.53403 1.08854 0
M  V30 3054 O 304.019 0.668535 1.68524 0
M  V30 3055 C 304.067 3.59745 -0.248122 0
M  V30 3056 O 303.171 4.05123 0.77131 0
M  V30 3057 H 302.512 0.652564 -0.122703 0
M  V30 3058 H 305.042 1.79958 -0.973467 0
M  V30 3059 H 305.052 4.07911 -0.0851129 0
M  V30 3060 H 303.727 3.97218 -1.2325 0
M  V30 3061 H 302.304 3.68422 0.57619 0
M  V30 3062 N 304.489 0.459591 1.5075 0
M  V30 3063 C 305.452 -0.329093 2.26825 0
M  V30 3064 C 306.452 -0.930481 1.31144 0
M  V30 3065 O 307.642 -0.801453 1.54669 0
M  V30 3066 C 304.774 -1.46768 3.07688 0
M  V30 3067 H 305.967 0.337924 2.9799 0
M  V30 3068 H 303.52 0.213336 1.54837 0
M  V30 3069 H 304.255 -2.17009 2.40993 0
M  V30 3070 H 304.04 -1.04238 3.77991 0
M  V30 3071 H 305.53 -2.02433 3.65254 0
M  V30 3072 N 305.967 -1.56429 0.191757 0
M  V30 3073 C 306.9 -2.14829 -0.76967 0
M  V30 3074 C 307.878 -1.08405 -1.2119 0
M  V30 3075 O 309.062 -1.36498 -1.30002 0
M  V30 3076 C 306.189 -2.70446 -2.03903 0
M  V30 3077 C 305.235 -3.89428 -1.7392 0
M  V30 3078 S 306.068 -5.28048 -0.890265 0
M  V30 3079 C 307.224 -5.87085 -2.16984 0
M  V30 3080 H 307.457 -2.96042 -0.273204 0
M  V30 3081 H 304.99 -1.54383 -0.0231975 0
M  V30 3082 H 306.948 -3.03134 -2.76803 0
M  V30 3083 H 305.609 -1.89281 -2.50662 0
M  V30 3084 H 304.802 -4.26742 -2.68155 0
M  V30 3085 H 304.404 -3.57732 -1.09103 0
M  V30 3086 H 306.696 -6.01244 -3.12269 0
M  V30 3087 H 307.639 -6.83747 -1.84108 0
M  V30 3088 H 308.047 -5.15663 -2.29678 0
M  V30 3089 N 307.445 0.0818655 -1.57387 0
M  V30 3090 C 308.673 0.796108 -1.9097 0
M  V30 3091 C 309.088 1.71626 -0.786757 0
M  V30 3092 O 308.445 1.80908 0.240513 0
M  V30 3093 C 308.496 1.59829 -3.24248 0
M  V30 3094 O 308.217 0.715131 -4.32224 0
M  V30 3095 C 309.718 2.41442 -3.7178 0
M  V30 3096 H 306.938 0.22691 -0.631469 0
M  V30 3097 H 309.482 0.0551439 -2.04426 0
M  V30 3098 H 307.637 2.29163 -3.12351 0
M  V30 3099 H 308.051 1.27205 -5.08841 0
M  V30 3100 H 309.525 2.932 -4.67694 0
M  V30 3101 H 310.002 3.2051 -3.00283 0
M  V30 3102 H 310.608 1.77283 -3.86589 0
M  V30 3103 N 308.923 1.53595 0.353017 0
M  V30 3104 C 310.171 1.70049 1.09215 0
M  V30 3105 C 310.492 0.461406 1.89463 0
M  V30 3106 O 309.762 -0.524633 1.88744 0
M  V30 3107 H 308.342 0.626912 0.40619 0
M  V30 3108 H 311.004 1.90822 0.396585 0
M  V30 3109 H 310.1 2.56718 1.77488 0
M  V30 3110 N 310.401 -0.613514 1.45168 0
M  V30 3111 C 311.65 -1.36874 1.4815 0
M  V30 3112 C 311.963 -1.952 0.124982 0
M  V30 3113 O 313.169 -2.71481 0.0324176 0
M  V30 3114 C 311.625 -2.47905 2.60904 0
M  V30 3115 C 311.233 -1.96016 4.02842 0
M  V30 3116 C 312.977 -3.24965 2.73126 0
M  V30 3117 C 310.884 -3.04494 5.06988 0
M  V30 3118 H 309.814 -0.514428 0.551253 0
M  V30 3119 H 312.465 -0.658182 1.7129 0
M  V30 3120 H 310.847 -3.21618 2.31037 0
M  V30 3121 H 312.021 -1.29051 4.4236 0
M  V30 3122 H 310.336 -1.31719 3.95018 0
M  V30 3123 H 312.933 -4.05865 3.48106 0
M  V30 3124 H 313.276 -3.75588 1.79553 0
M  V30 3125 H 313.809 -2.5835 3.0249 0
M  V30 3126 H 310.548 -2.58795 6.0225 0
M  V30 3127 H 310.068 -3.70044 4.72046 0
M  V30 3128 H 311.747 -3.68976 5.31475 0
M  V30 3129 N 311.879 -1.3236 -0.855495 0
M  V30 3130 C 312.842 -1.21164 -1.94556 0
M  V30 3131 C 313.842 -0.134908 -1.60233 0
M  V30 3132 O 315.032 -0.385249 -1.69887 0
M  V30 3133 C 312.164 -0.863192 -3.29791 0
M  V30 3134 H 313.357 -2.18038 -2.05911 0
M  V30 3135 H 310.91 -1.16179 -1.04557 0
M  V30 3136 H 311.645 0.103769 -3.24134 0
M  V30 3137 H 311.43 -1.64166 -3.56078 0
M  V30 3138 H 312.92 -0.809156 -4.09686 0
M  V30 3139 N 313.357 1.07166 -1.15556 0
M  V30 3140 C 314.287 2.16403 -0.877046 0
M  V30 3141 C 315.268 1.69217 0.173111 0
M  V30 3142 O 316.453 1.94181 0.027084 0
M  V30 3143 C 313.583 3.45349 -0.367632 0
M  V30 3144 C 312.537 4.05995 -1.35468 0
M  V30 3145 C 311.863 5.30045 -0.704038 0
M  V30 3146 C 313.163 4.45804 -2.72132 0
M  V30 3147 H 314.857 2.39959 -1.79053 0
M  V30 3148 H 312.403 1.15325 -0.862331 0
M  V30 3149 H 314.356 4.21095 -0.160317 0
M  V30 3150 H 313.08 3.21385 0.581326 0
M  V30 3151 H 311.739 3.32296 -1.54839 0
M  V30 3152 H 311.387 5.02373 0.251128 0
M  V30 3153 H 311.087 5.71579 -1.36277 0
M  V30 3154 H 312.611 6.08495 -0.50654 0
M  V30 3155 H 314.025 5.12671 -2.56595 0
M  V30 3156 H 312.422 4.98296 -3.34397 0
M  V30 3157 H 313.492 3.57083 -3.28054 0
M  V30 3158 N 314.835 0.952656 1.25548 0
M  V30 3159 C 316.081 0.607272 1.93494 0
M  V30 3160 C 316.414 -0.853245 1.74452 0
M  V30 3161 O 315.689 -1.61194 1.08843 0
M  V30 3162 C 315.972 0.96435 3.46947 0
M  V30 3163 C 315.825 2.48045 3.75225 0
M  V30 3164 C 317.144 0.487987 4.37386 0
M  V30 3165 H 314.263 0.222096 0.702739 0
M  V30 3166 H 316.905 1.18895 1.48203 0
M  V30 3167 H 315.055 0.469361 3.85654 0
M  V30 3168 H 316.727 3.04905 3.46166 0
M  V30 3169 H 314.97 2.919 3.209 0
M  V30 3170 H 315.641 2.6808 4.82532 0
M  V30 3171 H 318.117 0.912558 4.0597 0
M  V30 3172 H 316.993 0.766547 5.43521 0
M  V30 3173 H 317.254 -0.612063 4.37843 0
M  V30 3174 N 316.313 -1.40141 0.720998 0
M  V30 3175 C 317.261 -2.3252 0.0608547 0
M  V30 3176 C 318.255 -1.52326 -0.741152 0
M  V30 3177 O 319.461 -1.68089 -0.643911 0
M  V30 3178 H 315.836 -0.751999 0.000876664 0
M  V30 3179 H 317.807 -2.8584 0.856614 0
M  V30 3180 C 316.556 -3.37331 -0.842809 0
M  V30 3181 H 315.879 -3.99108 -0.235084 0
M  V30 3182 H 317.319 -4.04452 -1.27257 0
M  V30 3183 C 315.778 -2.73246 -1.97074 0
M  V30 3184 O 316.308 -2.59998 -3.06209 0
M  V30 3185 N 314.514 -2.31547 -1.75597 0
M  V30 3186 H 314.061 -2.42522 -0.868368 0
M  V30 3187 H 314.019 -1.89007 -2.51244 0
M  V30 3188 N 317.792 -0.46758 -1.50504 0
M  V30 3189 C 318.755 0.317059 -2.26996 0
M  V30 3190 C 319.755 0.923513 -1.31635 0
M  V30 3191 O 320.945 0.793239 -1.55091 0
M  V30 3192 C 318.077 1.45134 -3.08462 0
M  V30 3193 H 319.27 -0.353723 -2.97807 0
M  V30 3194 H 316.823 -0.221545 -1.54722 0
M  V30 3195 H 317.558 2.15728 -2.4214 0
M  V30 3196 H 317.343 1.02232 -3.78538 0
M  V30 3197 H 318.833 2.00493 -3.66323 0
M  V30 3198 N 319.27 1.56325 -0.20005 0
M  V30 3199 C 320.22 2.15939 0.731743 0
M  V30 3200 C 321.204 1.10154 1.17281 0
M  V30 3201 O 322.396 1.36203 1.13038 0
M  V30 3202 C 319.525 2.82614 1.94895 0
M  V30 3203 C 318.611 3.95596 1.52855 0
M  V30 3204 N 319.002 4.99118 0.819418 0
M  V30 3205 C 317.3 4.07288 1.81748 0
M  V30 3206 C 318.001 5.78513 0.608053 0
M  V30 3207 N 316.977 5.31117 1.15828 0
M  V30 3208 H 320.779 2.9334 0.181285 0
M  V30 3209 H 318.293 1.624 -0.000452172 0
M  V30 3210 H 320.29 3.23718 2.62702 0
M  V30 3211 H 318.95 2.06702 2.50408 0
M  V30 3212 H 319.961 5.15723 0.47436 0
M  V30 3213 H 316.638 3.42509 2.38734 0
M  V30 3214 H 318.028 6.71885 0.0451619 0
M  V30 3215 N 320.748 -0.0735177 1.57428 0
M  V30 3216 C 321.711 -1.07192 2.02589 0
M  V30 3217 C 322.711 -1.31695 0.922661 0
M  V30 3218 O 323.901 -1.27445 1.18758 0
M  V30 3219 C 321.033 -2.41599 2.40506 0
M  V30 3220 H 322.226 -0.682727 2.92025 0
M  V30 3221 H 319.779 -0.319193 1.53006 0
M  V30 3222 H 320.514 -2.85354 1.5409 0
M  V30 3223 H 320.299 -2.25156 3.21009 0
M  V30 3224 H 321.789 -3.13367 2.76027 0
M  V30 3225 N 322.226 -1.5378 -0.344866 0
M  V30 3226 C 323.466 -1.72677 -1.09371 0
M  V30 3227 C 323.83 -0.479084 -1.85927 0
M  V30 3228 O 325.031 -0.54505 -2.63216 0
M  V30 3229 C 323.302 -2.95457 -2.01097 0
M  V30 3230 S 324.861 -3.35158 -2.83222 0
M  V30 3231 H 321.679 -0.607402 -0.369573 0
M  V30 3232 H 324.281 -1.91922 -0.372307 0
M  V30 3233 H 322.985 -3.84437 -1.43655 0
M  V30 3234 H 322.516 -2.78673 -2.77678 0
M  V30 3235 H 324.531 -2.88789 -4.03504 0
M  V30 3236 N 323.704 0.605807 -1.45491 0
M  V30 3237 C 325.12 0.926751 -1.29936 0
M  V30 3238 C 325.32 1.99896 -0.253706 0
M  V30 3239 O 324.376 2.50038 0.351737 0
M  V30 3240 C 325.689 1.36599 -2.67883 0
M  V30 3241 C 327.237 1.4801 -2.75793 0
M  V30 3242 C 327.712 1.95309 -4.14268 0
M  V30 3243 N 329.203 2.0254 -4.16571 0
M  V30 3244 C 329.938 2.40363 -5.20589 0
M  V30 3245 N 329.434 2.77143 -6.34952 0
M  V30 3246 N 331.227 2.40718 -5.07948 0
M  V30 3247 H 323.378 -0.102862 -2.12151 0
M  V30 3248 H 325.641 0.016639 -0.947854 0
M  V30 3249 H 325.347 0.652306 -3.45598 0
M  V30 3250 H 325.221 2.33215 -2.96463 0
M  V30 3251 H 327.608 2.1847 -1.98381 0
M  V30 3252 H 327.689 0.497041 -2.50925 0
M  V30 3253 H 327.333 1.25436 -4.92167 0
M  V30 3254 H 327.263 2.94532 -4.3653 0
M  V30 3255 H 329.754 1.76699 -3.34045 0
M  V30 3256 H 330.067 3.0489 -7.10114 0
M  V30 3257 H 328.412 2.74834 -6.3835 0
M  V30 3258 H 331.603 2.11392 -4.1765 0
M  V30 3259 H 331.776 2.69869 -5.89131 0
M  V30 3260 N 325.182 1.32811 0.848464 0
M  V30 3261 C 326.132 1.18842 1.94578 0
M  V30 3262 C 327.116 0.0937517 1.60627 0
M  V30 3263 O 328.308 0.320887 1.74067 0
M  V30 3264 C 325.437 0.91999 3.30743 0
M  V30 3265 C 324.523 2.05665 3.70894 0
M  V30 3266 N 324.914 3.30579 3.8282 0
M  V30 3267 C 323.212 1.9612 4.00566 0
M  V30 3268 C 323.913 4.05067 4.17487 0
M  V30 3269 N 322.889 3.33419 4.2934 0
M  V30 3270 H 326.691 2.13536 2.0194 0
M  V30 3271 H 324.205 1.2468 1.0406 0
M  V30 3272 H 326.202 0.800859 4.09136 0
M  V30 3273 H 324.862 -0.0185076 3.24695 0
M  V30 3274 H 325.873 3.65441 3.66978 0
M  V30 3275 H 322.55 1.09871 4.02784 0
M  V30 3276 H 323.94 5.12815 4.34131 0
M  V30 3277 N 326.66 -1.06551 1.16123 0
M  V30 3278 C 327.59 -2.15935 0.88851 0
M  V30 3279 C 328.571 -1.69306 -0.164135 0
M  V30 3280 O 329.756 -1.94193 -0.0167857 0
M  V30 3281 C 326.886 -3.45149 0.385942 0
M  V30 3282 C 325.84 -4.05271 1.3762 0
M  V30 3283 C 325.166 -5.29664 0.732137 0
M  V30 3284 C 326.466 -4.44355 2.74493 0
M  V30 3285 H 328.16 -2.39006 1.80323 0
M  V30 3286 H 325.706 -1.14866 0.868435 0
M  V30 3287 H 327.659 -4.21004 0.182647 0
M  V30 3288 H 326.383 -3.21689 -0.564274 0
M  V30 3289 H 325.042 -3.3147 1.56599 0
M  V30 3290 H 324.69 -5.02499 -0.224483 0
M  V30 3291 H 324.39 -5.70848 1.39307 0
M  V30 3292 H 325.914 -6.08218 0.538802 0
M  V30 3293 H 327.328 -5.11303 2.59311 0
M  V30 3294 H 325.725 -4.96515 3.37035 0
M  V30 3295 H 326.795 -3.55339 3.29943 0
M  V30 3296 N 328.138 -0.959301 -1.25041 0
M  V30 3297 C 329.386 -0.615393 -1.92503 0
M  V30 3298 C 329.707 0.850969 -1.75452 0
M  V30 3299 O 328.977 1.60658 -1.12098 0
M  V30 3300 H 327.557 -0.224613 -0.712431 0
M  V30 3301 H 330.219 -1.21855 -1.5211 0
M  V30 3302 H 329.315 -0.848738 -3.00338 0
M  V30 3303 N 329.616 1.39756 -0.72842 0
M  V30 3304 C 330.564 2.32485 -0.0731849 0
M  V30 3305 C 331.558 1.52717 0.733063 0
M  V30 3306 O 332.764 1.68428 0.634988 0
M  V30 3307 H 329.139 0.751984 -0.00486469 0
M  V30 3308 H 331.11 2.85382 -0.871761 0
M  V30 3309 C 329.859 3.37773 0.824908 0
M  V30 3310 H 329.182 3.99227 0.213915 0
M  V30 3311 H 330.622 4.05121 1.25111 0
M  V30 3312 C 329.081 2.74287 1.95622 0
M  V30 3313 O 329.611 2.61618 3.04826 0
M  V30 3314 N 327.817 2.32475 1.74367 0
M  V30 3315 H 327.364 2.4298 0.855494 0
M  V30 3316 H 327.322 1.90337 2.50238 0
M  V30 3317 N 331.094 0.475555 1.50254 0
M  V30 3318 C 332.34 -0.0701075 2.03279 0
M  V30 3319 C 332.695 -1.37007 1.35081 0
M  V30 3320 O 331.988 -1.8577 0.469052 0
M  V30 3321 C 332.182 -0.305114 3.56095 0
M  V30 3322 C 332.011 0.970515 4.39103 0
M  V30 3323 C 330.781 1.51509 4.82051 0
M  V30 3324 C 332.979 1.8671 4.79212 0
M  V30 3325 N 330.961 2.73928 5.49397 0
M  V30 3326 C 332.332 2.93715 5.46014 0
M  V30 3327 C 334.387 1.87695 4.61167 0
M  V30 3328 C 333.09 4.01699 5.96683 0
M  V30 3329 C 335.116 2.94637 5.12779 0
M  V30 3330 C 334.478 4.00361 5.79561 0
M  V30 3331 H 330.577 0.014486 0.781866 0
M  V30 3332 H 333.161 0.644755 1.83714 0
M  V30 3333 H 331.332 -0.989019 3.75597 0
M  V30 3334 H 333.064 -0.845516 3.95769 0
M  V30 3335 H 329.819 1.06367 4.61501 0
M  V30 3336 H 330.243 3.36109 5.87673 0
M  V30 3337 H 334.885 1.07273 4.08965 0
M  V30 3338 H 332.603 4.82934 6.4792 0
M  V30 3339 H 336.189 2.96388 5.00645 0
M  V30 3340 H 335.069 4.81751 6.18778 0
M  V30 3341 N 332.573 -1.56217 0.208337 0
M  V30 3342 C 333.536 -2.18455 -0.693557 0
M  V30 3343 C 334.536 -1.14268 -1.13135 0
M  V30 3344 O 335.726 -1.39577 -1.0423 0
M  V30 3345 C 332.858 -2.79727 -1.94848 0
M  V30 3346 H 334.051 -2.99519 -0.15114 0
M  V30 3347 H 331.604 -1.56245 -0.041287 0
M  V30 3348 H 332.339 -2.02497 -2.53309 0
M  V30 3349 H 332.124 -3.56009 -1.64316 0
M  V30 3350 H 333.614 -3.27475 -2.59133 0
M  V30 3351 N 334.051 0.0651679 -1.57465 0
M  V30 3352 C 335.297 0.764193 -1.87851 0
M  V30 3353 C 335.63 1.76889 -0.801495 0
M  V30 3354 O 334.905 1.93594 0.187528 0
M  V30 3355 C 335.188 1.46625 -3.28897 0
M  V30 3356 C 335.041 0.477515 -4.47258 0
M  V30 3357 C 336.36 2.4095 -3.68281 0
M  V30 3358 H 333.479 0.276351 -0.683227 0
M  V30 3359 H 336.121 0.0272868 -1.8998 0
M  V30 3360 H 334.271 2.09438 -3.27212 0
M  V30 3361 H 335.943 -0.145922 -4.61069 0
M  V30 3362 H 334.186 -0.206576 -4.33308 0
M  V30 3363 H 334.857 1.0065 -5.42746 0
M  V30 3364 H 337.333 1.88209 -3.71102 0
M  V30 3365 H 336.209 2.87072 -4.67847 0
M  V30 3366 H 336.47 3.26049 -2.98571 0
M  V30 3367 N 335.529 1.53961 0.336706 0
M  V30 3368 C 336.492 1.81724 1.39675 0
M  V30 3369 C 337.492 0.688532 1.45313 0
M  V30 3370 O 338.682 0.956829 1.45569 0
M  V30 3371 C 335.814 1.96543 2.78538 0
M  V30 3372 H 337.007 2.76424 1.16318 0
M  V30 3373 H 334.56 1.45478 0.571474 0
M  V30 3374 H 335.295 1.0401 3.07168 0
M  V30 3375 H 335.08 2.78665 2.75841 0
M  V30 3376 H 336.57 2.19516 3.5525 0
M  V30 3377 N 337.007 -0.598083 1.45811 0
M  V30 3378 C 337.937 -1.71873 1.58057 0
M  V30 3379 C 338.918 -1.64533 0.431615 0
M  V30 3380 O 340.103 -1.82787 0.65595 0
M  V30 3381 C 337.233 -3.10495 1.55597 0
M  V30 3382 C 336.187 -3.32654 2.69305 0
M  V30 3383 C 335.513 -4.71646 2.51902 0
M  V30 3384 C 336.813 -3.21981 4.11248 0
M  V30 3385 H 338.507 -1.61881 2.51863 0
M  V30 3386 H 336.053 -0.777372 1.21214 0
M  V30 3387 H 338.006 -3.88699 1.6276 0
M  V30 3388 H 336.73 -3.2135 0.583255 0
M  V30 3389 H 335.389 -2.56843 2.61586 0
M  V30 3390 H 335.037 -4.79246 1.52748 0
M  V30 3391 H 334.737 -4.87426 3.2816 0
M  V30 3392 H 336.261 -5.52038 2.60933 0
M  V30 3393 H 337.675 -3.90049 4.20161 0
M  V30 3394 H 336.072 -3.49289 4.87972 0
M  V30 3395 H 337.142 -2.1928 4.32486 0
M  V30 3396 N 338.485 -1.33259 -0.841409 0
M  V30 3397 C 339.713 -1.27605 -1.62864 0
M  V30 3398 C 340.128 0.153507 -1.88175 0
M  V30 3399 O 339.485 1.09485 -1.46011 0
M  V30 3400 C 339.536 -2.04596 -2.98031 0
M  V30 3401 O 339.257 -3.41975 -2.73834 0
M  V30 3402 C 340.758 -2.06122 -3.92465 0
M  V30 3403 H 337.978 -0.439718 -0.506842 0
M  V30 3404 H 340.522 -1.75591 -1.04824 0
M  V30 3405 H 338.677 -1.60299 -3.5268 0
M  V30 3406 H 339.091 -3.81549 -3.59889 0
M  V30 3407 H 340.565 -2.64451 -4.84531 0
M  V30 3408 H 341.042 -1.05083 -4.26444 0
M  V30 3409 H 341.648 -2.50427 -3.43753 0
M  V30 3410 N 339.963 1.05934 -1.16686 0
M  V30 3411 C 340.926 2.11669 -0.879144 0
M  V30 3412 C 341.926 1.60294 0.127445 0
M  V30 3413 O 343.116 1.7389 -0.103865 0
M  V30 3414 C 340.248 3.39438 -0.315425 0
M  V30 3415 H 341.441 2.38626 -1.81653 0
M  V30 3416 H 338.994 1.22058 -0.976299 0
M  V30 3417 H 339.729 3.18132 0.629468 0
M  V30 3418 H 339.514 3.78034 -1.04079 0
M  V30 3419 H 341.004 4.17391 -0.132189 0
M  V30 3420 N 341.441 0.965919 1.2453 0
M  V30 3421 C 342.371 0.513476 2.27784 0
M  V30 3422 C 343.352 -0.445974 1.6415 0
M  V30 3423 O 344.537 -0.342485 1.91156 0
M  V30 3424 C 341.667 -0.198839 3.4673 0
M  V30 3425 C 340.621 0.676456 4.2262 0
M  V30 3426 C 339.947 -0.167248 5.34438 0
M  V30 3427 C 341.247 1.96017 4.84123 0
M  V30 3428 H 342.941 1.3765 2.65881 0
M  V30 3429 H 340.487 0.663321 1.27813 0
M  V30 3430 H 342.44 -0.526567 4.18097 0
M  V30 3431 H 341.164 -1.0962 3.07654 0
M  V30 3432 H 339.823 0.98743 3.53052 0
M  V30 3433 H 339.471 -1.0647 4.91603 0
M  V30 3434 H 339.171 0.415181 5.86131 0
M  V30 3435 H 340.695 -0.489688 6.08633 0
M  V30 3436 H 342.109 1.69814 5.47573 0
M  V30 3437 H 340.506 2.48918 5.4604 0
M  V30 3438 H 341.576 2.65622 4.05676 0
M  V30 3439 N 342.919 -1.39368 0.735821 0
M  V30 3440 C 343.849 -2.33234 0.111506 0
M  V30 3441 C 344.83 -1.53954 -0.723334 0
M  V30 3442 O 346.015 -1.82344 -0.668147 0
M  V30 3443 C 343.145 -3.38057 -0.795917 0
M  V30 3444 C 342.099 -4.2795 -0.065172 0
M  V30 3445 C 341.425 -5.23479 -1.08967 0
M  V30 3446 C 342.725 -5.10741 1.09273 0
M  V30 3447 H 344.419 -2.85692 0.895571 0
M  V30 3448 H 341.965 -1.37364 0.432109 0
M  V30 3449 H 343.918 -4.02675 -1.24221 0
M  V30 3450 H 342.642 -2.8404 -1.61211 0
M  V30 3451 H 341.301 -3.64813 0.361511 0
M  V30 3452 H 340.949 -4.65758 -1.89944 0
M  V30 3453 H 340.649 -5.84472 -0.605489 0
M  V30 3454 H 342.173 -5.90974 -1.53565 0
M  V30 3455 H 343.587 -5.68699 0.724841 0
M  V30 3456 H 341.984 -5.8088 1.50659 0
M  V30 3457 H 343.054 -4.45525 1.91404 0
M  V30 3458 N 344.397 -0.483516 -1.5 0
M  V30 3459 C 345.36 0.292965 -2.2732 0
M  V30 3460 C 346.36 0.909499 -1.32608 0
M  V30 3461 O 347.55 0.776745 -1.55924 0
M  V30 3462 C 344.682 1.41854 -3.09984 0
M  V30 3463 H 345.875 -0.385289 -2.97415 0
M  V30 3464 H 343.428 -0.237942 -1.54478 0
M  V30 3465 H 344.163 2.13148 -2.44414 0
M  V30 3466 H 343.948 0.982114 -3.79601 0
M  V30 3467 H 345.438 1.96597 -3.68429 0
M  V30 3468 N 345.875 1.56104 -0.216619 0
M  V30 3469 C 346.785 2.23694 0.706982 0
M  V30 3470 C 347.801 1.24295 1.21765 0
M  V30 3471 O 348.977 1.57094 1.2603 0
M  V30 3472 C 346.042 2.8998 1.90033 0
M  V30 3473 C 345.103 4.04708 1.43213 0
M  V30 3474 C 344.336 4.67824 2.56859 0
M  V30 3475 O 344.559 4.29913 3.74874 0
M  V30 3476 O 343.493 5.56905 2.28343 0
M  V30 3477 H 347.319 3.03272 0.161235 0
M  V30 3478 H 344.904 1.49394 0.0136177 0
M  V30 3479 H 346.786 3.31837 2.59735 0
M  V30 3480 H 345.461 2.13365 2.43428 0
M  V30 3481 H 344.368 3.6743 0.70327 0
M  V30 3482 H 345.701 4.83051 0.944615 0
M  V30 3483 N 347.353 -0.0568162 1.57498 0
M  V30 3484 C 348.593 -0.758273 1.89815 0
M  V30 3485 C 348.957 -1.73978 0.812132 0
M  V30 3486 O 350.158 -2.48744 1.01881 0
M  V30 3487 C 348.429 -1.43465 3.27342 0
M  V30 3488 S 349.988 -2.1691 3.81439 0
M  V30 3489 H 346.806 -0.251836 0.664906 0
M  V30 3490 H 349.408 -0.0137997 1.95495 0
M  V30 3491 H 348.112 -0.706693 4.0427 0
M  V30 3492 H 347.643 -2.21825 3.24896 0
M  V30 3493 H 349.658 -3.43658 3.5793 0
M  V30 3494 N 348.832 -1.54138 -0.328536 0
M  V30 3495 C 349.762 -1.86167 -1.40939 0
M  V30 3496 C 350.743 -0.718044 -1.54202 0
M  V30 3497 O 351.928 -0.971328 -1.68163 0
M  V30 3498 C 349.058 -2.08461 -2.77779 0
M  V30 3499 C 348.012 -3.24299 -2.7931 0
M  V30 3500 C 347.338 -3.31955 -4.19178 0
M  V30 3501 C 348.638 -4.62065 -2.43502 0
M  V30 3502 H 350.332 -2.76689 -1.14383 0
M  V30 3503 H 347.878 -1.33132 -0.548806 0
M  V30 3504 H 349.831 -2.29453 -3.53454 0
M  V30 3505 H 348.555 -1.14684 -3.05802 0
M  V30 3506 H 347.214 -3.03187 -2.0609 0
M  V30 3507 H 346.862 -2.35745 -4.44335 0
M  V30 3508 H 346.562 -4.09805 -4.2111 0
M  V30 3509 H 348.086 -3.55175 -4.96672 0
M  V30 3510 H 349.5 -4.8297 -3.08889 0
M  V30 3511 H 347.897 -5.42429 -2.56693 0
M  V30 3512 H 348.967 -4.64652 -1.38659 0
M  V30 3513 N 350.31 0.590341 -1.46126 0
M  V30 3514 C 351.726 0.912917 -1.30912 0
M  V30 3515 C 351.926 1.99616 -0.274893 0
M  V30 3516 O 350.982 2.50397 0.325197 0
M  V30 3517 C 352.295 1.3375 -2.69317 0
M  V30 3518 C 353.843 1.45077 -2.77348 0
M  V30 3519 C 354.318 1.90904 -4.16317 0
M  V30 3520 N 355.809 1.9811 -4.18696 0
M  V30 3521 C 356.544 2.34828 -5.23109 0
M  V30 3522 N 356.04 2.70393 -6.37856 0
M  V30 3523 N 357.833 2.35317 -5.10473 0
M  V30 3524 H 349.984 -0.125358 -2.1203 0
M  V30 3525 H 352.247 0.00658481 -0.947977 0
M  V30 3526 H 351.953 0.615614 -3.4627 0
M  V30 3527 H 351.827 2.30058 -2.9892 0
M  V30 3528 H 354.214 2.16353 -2.00687 0
M  V30 3529 H 354.295 0.4704 -2.51438 0
M  V30 3530 H 353.939 1.20209 -4.9347 0
M  V30 3531 H 353.869 2.89886 -4.39629 0
M  V30 3532 H 356.36 1.73146 -3.359 0
M  V30 3533 H 356.673 2.97341 -7.13308 0
M  V30 3534 H 355.018 2.68048 -6.41229 0
M  V30 3535 H 358.209 2.0695 -4.19868 0
M  V30 3536 H 358.382 2.63605 -5.9196 0
M  V30 3537 N 351.788 1.33704 0.83433 0
M  V30 3538 C 353.036 1.25169 1.58673 0
M  V30 3539 C 353.357 -0.18127 1.94156 0
M  V30 3540 O 352.627 -1.11113 1.6134 0
M  V30 3541 H 351.207 0.4603 0.58833 0
M  V30 3542 H 353.869 1.67478 0.996847 0
M  V30 3543 H 352.965 1.84856 2.51465 0
M  V30 3544 N 353.266 -1.05314 1.17247 0
M  V30 3545 C 354.682 -1.30452 0.919473 0
M  V30 3546 C 354.882 -1.9703 -0.42209 0
M  V30 3547 O 353.938 -2.24311 -1.15935 0
M  V30 3548 C 355.251 -2.17551 2.07586 0
M  V30 3549 C 356.799 -2.30937 2.11275 0
M  V30 3550 C 357.274 -3.21396 3.26296 0
M  V30 3551 N 358.765 -3.28981 3.26076 0
M  V30 3552 C 359.5 -3.99095 4.11716 0
M  V30 3553 N 358.996 -4.71648 5.07465 0
M  V30 3554 N 360.789 -3.95247 3.9967 0
M  V30 3555 H 352.94 -0.604988 2.03602 0
M  V30 3556 H 355.203 -0.329368 0.888944 0
M  V30 3557 H 354.909 -1.75921 3.0454 0
M  V30 3558 H 354.783 -3.18182 2.02584 0
M  V30 3559 H 357.17 -2.71809 1.14907 0
M  V30 3560 H 357.251 -1.2994 2.20339 0
M  V30 3561 H 356.895 -2.81238 4.22927 0
M  V30 3562 H 356.825 -4.22395 3.14467 0
M  V30 3563 H 359.316 -2.77286 2.5675 0
M  V30 3564 H 359.629 -5.22705 5.6921 0
M  V30 3565 H 357.974 -4.70594 5.11435 0
M  V30 3566 H 361.165 -3.37691 3.24164 0
M  V30 3567 H 361.338 -4.4962 4.66632 0
M  V30 3568 N 354.744 -0.972509 -1.24016 0
M  V30 3569 C 355.972 -0.654803 -1.96265 0
M  V30 3570 C 356.387 0.776708 -1.72083 0
M  V30 3571 O 355.744 1.52171 -1.00748 0
M  V30 3572 C 355.795 -0.92592 -3.49441 0
M  V30 3573 O 355.516 -2.30116 -3.72798 0
M  V30 3574 C 357.017 -0.623068 -4.38899 0
M  V30 3575 H 354.237 -0.243907 -0.6251 0
M  V30 3576 H 356.781 -1.30175 -1.57717 0
M  V30 3577 H 354.936 -0.325108 -3.86033 0
M  V30 3578 H 355.35 -2.38483 -4.67147 0
M  V30 3579 H 356.824 -0.863189 -5.45209 0
M  V30 3580 H 357.301 0.442754 -4.36963 0
M  V30 3581 H 357.907 -1.204 -4.07902 0
M  V30 3582 N 356.222 1.38976 -0.743202 0
M  V30 3583 C 357.132 2.3434 -0.110399 0
M  V30 3584 C 358.148 1.58741 0.712559 0
M  V30 3585 O 359.324 1.9099 0.639125 0
M  V30 3586 C 356.389 3.37812 0.780012 0
M  V30 3587 C 355.45 4.29263 -0.0561319 0
M  V30 3588 C 354.683 5.27793 0.791875 0
M  V30 3589 O 354.906 5.33043 2.03031 0
M  V30 3590 O 353.84 6.01512 0.216183 0
M  V30 3591 H 357.666 2.90129 -0.897714 0
M  V30 3592 H 355.251 1.40643 -0.503966 0
M  V30 3593 H 357.133 4.01194 1.28923 0
M  V30 3594 H 355.808 2.84395 1.546 0
M  V30 3595 H 354.715 3.69076 -0.611056 0
M  V30 3596 H 356.048 4.85907 -0.784531 0
M  V30 3597 N 357.7 0.491464 1.49741 0
M  V30 3598 C 358.663 -0.280906 2.27472 0
M  V30 3599 C 359.663 -0.902454 1.33088 0
M  V30 3600 O 360.853 -0.768465 1.56334 0
M  V30 3601 C 357.985 -1.40209 3.10732 0
M  V30 3602 H 359.178 0.401056 2.97206 0
M  V30 3603 H 356.731 0.246131 1.5435 0
M  V30 3604 H 357.466 -2.11849 2.45541 0
M  V30 3605 H 357.251 -0.961969 3.80117 0
M  V30 3606 H 358.741 -1.9464 3.69466 0
M  V30 3607 N 359.178 -1.55987 0.224894 0
M  V30 3608 C 360.424 -1.99433 -0.39973 0
M  V30 3609 C 360.779 -1.11004 -1.57149 0
M  V30 3610 O 360.072 -0.160725 -1.90925 0
M  V30 3611 C 360.266 -3.46394 -0.880106 0
M  V30 3612 C 360.095 -4.4904 0.243565 0
M  V30 3613 C 358.865 -5.00272 0.711056 0
M  V30 3614 C 361.063 -5.03195 1.06299 0
M  V30 3615 N 359.045 -5.86628 1.80944 0
M  V30 3616 C 360.416 -5.86508 2.01017 0
M  V30 3617 C 362.471 -4.8555 1.10205 0
M  V30 3618 C 361.174 -6.54062 2.99324 0
M  V30 3619 C 363.2 -5.53866 2.07332 0
M  V30 3620 C 362.562 -6.3695 3.00789 0
M  V30 3621 H 358.661 -0.773815 -0.112847 0
M  V30 3622 H 361.245 -1.91754 0.337432 0
M  V30 3623 H 359.416 -3.54515 -1.58662 0
M  V30 3624 H 361.148 -3.76752 -1.47783 0
M  V30 3625 H 357.903 -4.72655 0.29906 0
M  V30 3626 H 358.327 -6.34507 2.36073 0
M  V30 3627 H 362.969 -4.20966 0.39343 0
M  V30 3628 H 360.687 -7.17827 3.71147 0
M  V30 3629 H 364.273 -5.42178 2.11032 0
M  V30 3630 H 363.153 -6.8888 3.74718 0
M  V30 3631 N 360.656 0.0484629 -1.57525 0
M  V30 3632 C 361.619 1.03956 -2.04269 0
M  V30 3633 C 362.619 1.30211 -0.943496 0
M  V30 3634 O 363.809 1.25539 -1.20771 0
M  V30 3635 C 360.941 2.37742 -2.44319 0
M  V30 3636 H 362.134 0.636182 -2.93075 0
M  V30 3637 H 359.687 0.294811 -1.53494 0
M  V30 3638 H 360.422 2.82866 -1.5861 0
M  V30 3639 H 360.207 2.20021 -3.24551 0
M  V30 3640 H 361.697 3.08936 -2.80978 0
M  V30 3641 N 362.134 1.5431 0.320358 0
M  V30 3642 C 363.097 1.83195 1.3774 0
M  V30 3643 C 364.097 0.703906 1.44575 0
M  V30 3644 O 365.287 0.972214 1.44546 0
M  V30 3645 C 362.419 1.99487 2.76438 0
M  V30 3646 H 363.612 2.77642 1.1338 0
M  V30 3647 H 361.165 1.46076 0.556012 0
M  V30 3648 H 361.9 1.07262 3.06048 0
M  V30 3649 H 361.685 2.81575 2.7287 0
M  V30 3650 H 363.175 2.23271 3.52902 0
M  V30 3651 N 363.613 -0.582584 1.46437 0
M  V30 3652 C 364.576 -1.67366 1.56592 0
M  V30 3653 C 365.576 -1.54575 0.443072 0
M  V30 3654 O 366.766 -1.59191 0.707381 0
M  V30 3655 C 363.898 -3.06791 1.48634 0
M  V30 3656 H 365.091 -1.5972 2.5383 0
M  V30 3657 H 362.644 -0.800432 1.34249 0
M  V30 3658 H 363.379 -3.19993 0.526763 0
M  V30 3659 H 363.164 -3.17484 2.30101 0
M  V30 3660 H 364.654 -3.86218 1.58826 0
M  V30 3661 N 365.091 -1.34144 -0.827227 0
M  V30 3662 C 366.021 -1.28005 -1.95287 0
M  V30 3663 C 367.002 -0.158321 -1.69362 0
M  V30 3664 O 368.187 -0.349987 -1.9102 0
M  V30 3665 C 365.317 -1.03036 -3.31664 0
M  V30 3666 C 364.271 -2.11628 -3.72019 0
M  V30 3667 C 363.597 -1.71854 -5.0633 0
M  V30 3668 C 364.897 -3.53417 -3.8457 0
M  V30 3669 H 366.591 -2.22187 -2.00682 0
M  V30 3670 H 364.137 -1.0696 -0.964135 0
M  V30 3671 H 366.09 -0.973863 -4.09993 0
M  V30 3672 H 364.814 -0.0529391 -3.26557 0
M  V30 3673 H 363.473 -2.16339 -2.95961 0
M  V30 3674 H 363.121 -0.727841 -4.97706 0
M  V30 3675 H 362.821 -2.44531 -5.34302 0
M  V30 3676 H 364.345 -1.67692 -5.87122 0
M  V30 3677 H 365.759 -3.51142 -4.5318 0
M  V30 3678 H 364.156 -4.24679 -4.2399 0
M  V30 3679 H 365.226 -3.91072 -2.86689 0
M  V30 3680 N 366.569 1.04691 -1.17803 0
M  V30 3681 C 367.794 1.81984 -0.994813 0
M  V30 3682 C 368.219 1.82586 0.452112 0
M  V30 3683 O 367.577 1.23854 1.324 0
M  V30 3684 C 367.625 3.2575 -1.54659 0
M  V30 3685 O 366.729 4.05267 -0.763728 0
M  V30 3686 H 366.07 0.562483 -0.352857 0
M  V30 3687 H 368.6 1.3189 -1.56417 0
M  V30 3688 H 368.61 3.76541 -1.57102 0
M  V30 3689 H 367.285 3.24627 -2.59981 0
M  V30 3690 H 365.862 3.63972 -0.811108 0
M  V30 3691 N 368.047 0.979072 1.23499 0
M  V30 3692 C 369.324 0.563674 1.87302 0
M  V30 3693 C 369.704 -0.959199 1.88049 0
M  V30 3694 O 369.052 -1.83535 1.36114 0
M  V30 3695 C 369.262 1.16822 3.28867 0
M  V30 3696 C 370.61 1.26014 4.0547 0
M  V30 3697 O 371.634 1.12158 3.38082 0
M  V30 3698 O 370.493 1.48044 5.26066 0
M  V30 3699 H 367.587 0.189602 0.804972 0
M  V30 3700 H 370.133 1.07407 1.31384 0
M  V30 3701 H 368.905 2.21049 3.22883 0
M  V30 3702 H 368.528 0.642564 3.92373 0
M  V30 3703 N 369.525 -1.3858 0.750561 0
M  V30 3704 C 370.455 -2.33102 0.136237 0
M  V30 3705 C 371.436 -1.54713 -0.706965 0
M  V30 3706 O 372.621 -1.83043 -0.648769 0
M  V30 3707 C 369.751 -3.38882 -0.760017 0
M  V30 3708 C 368.705 -4.27995 -0.0197785 0
M  V30 3709 C 368.031 -5.24605 -1.03408 0
M  V30 3710 C 369.331 -5.09554 1.14684 0
M  V30 3711 H 371.025 -2.84726 0.925822 0
M  V30 3712 H 368.571 -1.36898 0.446654 0
M  V30 3713 H 370.524 -4.0397 -1.19943 0
M  V30 3714 H 369.248 -2.85734 -1.58189 0
M  V30 3715 H 367.907 -3.64409 0.400184 0
M  V30 3716 H 367.555 -4.67746 -1.84994 0
M  V30 3717 H 367.255 -5.85081 -0.543464 0
M  V30 3718 H 368.779 -5.9257 -1.47288 0
M  V30 3719 H 370.193 -5.67899 0.785118 0
M  V30 3720 H 368.59 -5.7925 1.56812 0
M  V30 3721 H 369.66 -4.4347 1.96118 0
M  V30 3722 N 371.003 -0.499398 -1.49478 0
M  V30 3723 C 372.419 -0.155261 -1.58843 0
M  V30 3724 C 372.619 1.34008 -1.50479 0
M  V30 3725 O 371.675 2.11589 -1.37791 0
M  V30 3726 C 372.988 -0.730636 -2.91689 0
M  V30 3727 C 374.536 -0.696599 -3.0515 0
M  V30 3728 C 375.011 -1.25001 -4.40612 0
M  V30 3729 N 376.502 -1.21064 -4.47099 0
M  V30 3730 C 377.237 -1.60905 -5.50361 0
M  V30 3731 N 376.733 -2.08331 -6.60735 0
M  V30 3732 N 378.526 -1.52331 -5.41065 0
M  V30 3733 H 370.677 -1.47162 -1.53158 0
M  V30 3734 H 372.94 -0.610309 -0.725415 0
M  V30 3735 H 372.646 -1.77928 -3.03372 0
M  V30 3736 H 372.52 -0.190161 -3.7672 0
M  V30 3737 H 374.907 0.343204 -2.93097 0
M  V30 3738 H 374.988 -1.2742 -2.21806 0
M  V30 3739 H 374.632 -2.28859 -4.53416 0
M  V30 3740 H 374.562 -0.64836 -5.22593 0
M  V30 3741 H 377.053 -0.863128 -3.67911 0
M  V30 3742 H 377.366 -2.36805 -7.35624 0
M  V30 3743 H 375.711 -2.12304 -6.6178 0
M  V30 3744 H 378.902 -1.151 -4.53729 0
M  V30 3745 H 379.075 -1.83704 -6.21415 0
M  V30 3746 N 372.481 1.55866 -0.233164 0
M  V30 3747 C 373.892 1.847 0.272554 0
M  V30 3748 C 374.243 1.15477 1.58617 0
M  V30 3749 O 373.368 0.42841 2.12117 0
M  V30 3750 C 373.963 3.35071 0.501299 0
M  V30 3751 C 372.522 3.6418 0.951304 0
M  V30 3752 C 371.669 2.77292 0.0208209 0
M  V30 3753 H 374.62 1.52005 -0.456074 0
M  V30 3754 H 374.641 3.55906 1.34577 0
M  V30 3755 H 374.153 3.85424 -0.454936 0
M  V30 3756 H 372.254 3.19293 1.92049 0
M  V30 3757 H 372.367 4.72071 0.817675 0
M  V30 3758 H 370.731 2.49131 0.529723 0
M  V30 3759 H 371.514 3.30448 -0.93054 0
M  V30 3760 N 373.959 -0.0401083 1.57549 0
M  V30 3761 C 374.909 -1.05175 2.02292 0
M  V30 3762 C 375.893 -1.32674 0.910294 0
M  V30 3763 O 377.085 -1.32444 1.17421 0
M  V30 3764 C 374.214 -2.35622 2.49674 0
M  V30 3765 C 373.3 -2.11261 3.67736 0
M  V30 3766 N 373.691 -1.56923 4.80842 0
M  V30 3767 C 371.989 -2.41596 3.74897 0
M  V30 3768 C 372.69 -1.48111 5.62528 0
M  V30 3769 N 371.666 -1.95282 5.07312 0
M  V30 3770 H 375.468 -0.625455 2.87168 0
M  V30 3771 H 372.982 -0.246624 1.60516 0
M  V30 3772 H 374.979 -3.08893 2.79983 0
M  V30 3773 H 373.639 -2.7894 1.662 0
M  V30 3774 H 374.65 -1.25345 5.02503 0
M  V30 3775 H 371.327 -2.88064 3.02201 0
M  V30 3776 H 372.717 -1.06683 6.63377 0
M  V30 3777 N 375.437 -1.54477 -0.31217 0
M  V30 3778 C 376.848 -1.64344 -0.885891 0
M  V30 3779 C 377.199 -0.54485 -1.88483 0
M  V30 3780 O 376.324 0.320387 -2.14015 0
M  V30 3781 C 376.919 -2.97908 -1.61357 0
M  V30 3782 C 375.478 -3.09933 -2.13585 0
M  V30 3783 C 374.625 -2.59971 -0.964897 0
M  V30 3784 H 377.576 -1.58448 -0.0894528 0
M  V30 3785 H 377.597 -2.88706 -2.47848 0
M  V30 3786 H 377.109 -3.77845 -0.886277 0
M  V30 3787 H 375.21 -2.34694 -2.89395 0
M  V30 3788 H 375.323 -4.15916 -2.37804 0
M  V30 3789 H 373.687 -2.16147 -1.34731 0
M  V30 3790 H 374.47 -3.42376 -0.251742 0
M  V30 3791 N 376.915 0.57481 -1.46744 0
M  V30 3792 C 378.163 1.33009 -1.52161 0
M  V30 3793 C 378.484 1.94185 -0.178092 0
M  V30 3794 O 377.754 1.7899 0.796196 0
M  V30 3795 H 376.334 0.493873 -0.560445 0
M  V30 3796 H 378.996 0.672589 -1.82927 0
M  V30 3797 H 378.092 2.13273 -2.27862 0
M  V30 3798 N 378.394 1.34581 0.820102 0
M  V30 3799 C 379.326 1.22236 1.93884 0
M  V30 3800 C 380.339 0.148776 1.62119 0
M  V30 3801 O 381.528 0.400877 1.7394 0
M  V30 3802 C 378.628 0.856542 3.27897 0
M  V30 3803 C 377.801 2.02569 3.87666 0
M  V30 3804 C 376.86 1.63782 5.00062 0
M  V30 3805 O 375.886 2.35477 5.18208 0
M  V30 3806 N 377.088 0.553611 5.77854 0
M  V30 3807 H 379.853 2.18615 2.05006 0
M  V30 3808 H 377.414 1.27573 0.99683 0
M  V30 3809 H 379.406 0.578806 4.0054 0
M  V30 3810 H 377.976 -0.0171518 3.12595 0
M  V30 3811 H 377.196 2.468 3.07382 0
M  V30 3812 H 378.484 2.80752 4.24329 0
M  V30 3813 H 377.882 -0.0423528 5.65684 0
M  V30 3814 H 376.439 0.335614 6.50935 0
M  V30 3815 N 379.872 -1.04064 1.18357 0
M  V30 3816 C 380.819 -2.12077 0.910603 0
M  V30 3817 C 381.789 -1.65421 -0.15 0
M  V30 3818 O 382.974 -1.90797 -0.0103614 0
M  V30 3819 C 380.114 -3.42252 0.442472 0
M  V30 3820 C 379.227 -4.0252 1.5685 0
M  V30 3821 C 378.362 -5.20657 1.05309 0
M  V30 3822 C 377.401 -5.72955 2.1538 0
M  V30 3823 N 376.538 -6.8238 1.65233 0
M  V30 3824 H 381.378 -2.34764 1.83548 0
M  V30 3825 H 378.915 -1.15157 0.915279 0
M  V30 3826 H 380.873 -4.16921 0.152534 0
M  V30 3827 H 379.503 -3.19712 -0.445428 0
M  V30 3828 H 378.555 -3.25178 1.97391 0
M  V30 3829 H 379.867 -4.37362 2.39824 0
M  V30 3830 H 379.021 -6.0244 0.717677 0
M  V30 3831 H 377.76 -4.87318 0.19293 0
M  V30 3832 H 376.765 -4.89793 2.49766 0
M  V30 3833 H 377.99 -6.08337 3.01832 0
M  V30 3834 H 375.936 -6.50917 0.815064 0
M  V30 3835 H 375.853 -7.16286 2.41805 0
M  V30 3836 H 377.121 -7.67788 1.34619 0
M  V30 3837 N 381.35 -0.985608 -1.22978 0
M  V30 3838 C 382.627 -0.573599 -1.87001 0
M  V30 3839 C 383.007 0.949213 -1.88555 0
M  V30 3840 O 382.355 1.82811 -1.37086 0
M  V30 3841 C 382.565 -1.18564 -3.28243 0
M  V30 3842 C 383.913 -1.28163 -4.04796 0
M  V30 3843 O 384.937 -1.13949 -3.37482 0
M  V30 3844 O 383.796 -1.50832 -5.25273 0
M  V30 3845 H 380.89 -0.193868 -0.803955 0
M  V30 3846 H 383.436 -1.08102 -1.30813 0
M  V30 3847 H 382.208 -2.22758 -3.21706 0
M  V30 3848 H 381.831 -0.663363 -3.92027 0
M  V30 3849 N 382.828 1.3818 -0.7579 0
M  V30 3850 C 383.791 2.28764 -0.141286 0
M  V30 3851 C 384.791 1.47388 0.642907 0
M  V30 3852 O 385.981 1.67781 0.468536 0
M  V30 3853 C 383.113 3.31184 0.808069 0
M  V30 3854 H 384.306 2.848 -0.939633 0
M  V30 3855 H 381.859 1.47212 -0.525191 0
M  V30 3856 H 382.594 2.80247 1.63193 0
M  V30 3857 H 382.379 3.91314 0.248104 0
M  V30 3858 H 383.869 3.98909 1.23536 0
M  V30 3859 N 384.306 0.507319 1.49211 0
M  V30 3860 C 385.269 -0.256763 2.27757 0
M  V30 3861 C 386.269 -0.888287 1.34038 0
M  V30 3862 O 387.459 -0.751841 1.5714 0
M  V30 3863 C 384.591 -1.36905 3.12202 0
M  V30 3864 H 385.784 0.432557 2.96764 0
M  V30 3865 H 383.337 0.262488 1.5408 0
M  V30 3866 H 384.072 -2.09233 2.47775 0
M  V30 3867 H 383.857 -0.921599 3.81115 0
M  V30 3868 H 385.347 -1.9071 3.7151 0
M  V30 3869 N 385.784 -1.5574 0.241426 0
M  V30 3870 C 386.747 -2.19877 -0.647063 0
M  V30 3871 C 387.747 -1.16642 -1.10686 0
M  V30 3872 O 388.937 -1.41757 -1.01245 0
M  V30 3873 C 386.069 -2.83797 -1.88871 0
M  V30 3874 H 387.262 -2.99772 -0.087574 0
M  V30 3875 H 384.815 -1.56298 -0.00813574 0
M  V30 3876 H 385.55 -2.07824 -2.48957 0
M  V30 3877 H 385.335 -3.59414 -1.56728 0
M  V30 3878 H 386.825 -3.32898 -2.52129 0
M  V30 3879 N 387.262 0.0317525 -1.57568 0
M  V30 3880 C 388.678 0.38735 -1.54828 0
M  V30 3881 C 388.878 1.7677 -0.967187 0
M  V30 3882 O 387.934 2.45581 -0.587063 0
M  V30 3883 C 389.247 0.291667 -2.99282 0
M  V30 3884 C 390.795 0.368946 -3.10818 0
M  V30 3885 C 391.27 0.302741 -4.56998 0
M  V30 3886 N 392.761 0.361617 -4.61786 0
M  V30 3887 C 393.496 0.333238 -5.72431 0
M  V30 3888 N 392.992 0.257308 -6.92322 0
M  V30 3889 N 394.785 0.382769 -5.60795 0
M  V30 3890 H 386.936 -0.871609 -1.93692 0
M  V30 3891 H 389.199 -0.331161 -0.888277 0
M  V30 3892 H 388.905 -0.656794 -3.45513 0
M  V30 3893 H 388.779 1.08638 -3.61217 0
M  V30 3894 H 391.166 1.30784 -2.64536 0
M  V30 3895 H 391.247 -0.455066 -2.5172 0
M  V30 3896 H 390.891 -0.632473 -5.03947 0
M  V30 3897 H 390.821 1.14482 -5.14005 0
M  V30 3898 H 393.312 0.422923 -3.75526 0
M  V30 3899 H 393.625 0.24068 -7.72425 0
M  V30 3900 H 391.97 0.223396 -6.94641 0
M  V30 3901 H 395.161 0.44006 -4.66027 0
M  V30 3902 H 395.334 0.357184 -6.47015 0
M  V30 3903 N 388.74 1.54641 0.303973 0
M  V30 3904 C 389.67 1.88386 1.3796 0
M  V30 3905 C 390.651 0.742485 1.5304 0
M  V30 3906 O 391.836 0.997959 1.66597 0
M  V30 3907 C 388.966 2.12854 2.74427 0
M  V30 3908 C 387.92 3.28702 2.74115 0
M  V30 3909 C 387.246 3.38582 4.13844 0
M  V30 3910 C 388.546 4.65881 2.3612 0
M  V30 3911 H 390.24 2.78474 1.09966 0
M  V30 3912 H 387.786 1.33988 0.527556 0
M  V30 3913 H 389.739 2.35047 3.49758 0
M  V30 3914 H 388.463 1.19535 3.03939 0
M  V30 3915 H 387.122 3.06428 2.0124 0
M  V30 3916 H 386.77 2.42784 4.40528 0
M  V30 3917 H 386.47 4.16453 4.14537 0
M  V30 3918 H 387.994 3.63031 4.90959 0
M  V30 3919 H 389.408 4.87823 3.01167 0
M  V30 3920 H 387.805 5.46444 2.48031 0
M  V30 3921 H 388.875 4.66799 1.3125 0
M  V30 3922 N 390.218 -0.567019 1.47046 0
M  V30 3923 C 391.634 -0.891975 1.32348 0
M  V30 3924 C 391.834 -1.99154 0.306616 0
M  V30 3925 O 390.89 -2.50883 -0.28532 0
M  V30 3926 C 392.203 -1.29449 2.7141 0
M  V30 3927 C 393.751 -1.40646 2.79621 0
M  V30 3928 C 394.226 -1.84257 4.19301 0
M  V30 3929 N 395.717 -1.91424 4.21795 0
M  V30 3930 C 396.452 -2.26476 5.26779 0
M  V30 3931 N 395.948 -2.60211 6.42077 0
M  V30 3932 N 397.741 -2.27166 5.14152 0
M  V30 3933 H 389.892 0.159074 2.11803 0
M  V30 3934 H 392.155 0.00849752 0.947962 0
M  V30 3935 H 391.861 -0.560448 3.47206 0
M  V30 3936 H 391.735 -2.25273 3.02542 0
M  V30 3937 H 394.122 -2.13133 2.04104 0
M  V30 3938 H 394.203 -0.430339 2.52154 0
M  V30 3939 H 393.847 -1.12343 4.95319 0
M  V30 3940 H 393.777 -2.82855 4.44185 0
M  V30 3941 H 396.268 -1.6778 3.38612 0
M  V30 3942 H 396.581 -2.85956 7.17948 0
M  V30 3943 H 394.926 -2.57813 6.45413 0
M  V30 3944 H 398.117 -2.00244 4.23107 0
M  V30 3945 H 398.29 -2.54154 5.96079 0
M  V30 3946 N 391.696 -1.35014 -0.812953 0
M  V30 3947 C 392.659 -1.27292 -1.90602 0
M  V30 3948 C 393.659 -0.185817 -1.59723 0
M  V30 3949 O 394.849 -0.439102 -1.68575 0
M  V30 3950 C 391.981 -0.967676 -3.26877 0
M  V30 3951 H 393.174 -2.24479 -1.9887 0
M  V30 3952 H 390.727 -1.19446 -1.00808 0
M  V30 3953 H 391.462 0.0005954 -3.243 0
M  V30 3954 H 391.247 -1.75412 -3.50675 0
M  V30 3955 H 392.737 -0.939085 -4.06904 0
M  V30 3956 N 393.175 1.03435 -1.18907 0
M  V30 3957 C 394.591 1.28973 -0.940111 0
M  V30 3958 C 394.791 1.97676 0.390691 0
M  V30 3959 O 393.847 2.26127 1.12352 0
M  V30 3960 C 395.16 2.14221 -2.11021 0
M  V30 3961 C 396.708 2.27547 -2.14922 0
M  V30 3962 C 397.183 3.16164 -3.31367 0
M  V30 3963 N 398.674 3.23752 -3.31269 0
M  V30 3964 C 399.409 3.92495 -4.18014 0
M  V30 3965 N 398.905 4.63515 -5.14904 0
M  V30 3966 N 400.698 3.88838 -4.05908 0
M  V30 3967 H 392.849 0.57252 -2.04538 0
M  V30 3968 H 395.112 0.315184 -0.894071 0
M  V30 3969 H 394.818 1.71054 -3.073 0
M  V30 3970 H 394.692 3.14919 -2.0762 0
M  V30 3971 H 397.079 2.69947 -1.19217 0
M  V30 3972 H 397.16 1.26418 -2.22378 0
M  V30 3973 H 396.804 2.74474 -4.27348 0
M  V30 3974 H 396.734 4.17339 -3.21148 0
M  V30 3975 H 399.225 2.73167 -2.61129 0
M  V30 3976 H 399.538 5.13583 -5.77453 0
M  V30 3977 H 397.883 4.62398 -5.18857 0
M  V30 3978 H 401.074 3.32491 -3.29495 0
M  V30 3979 H 401.247 4.4214 -4.73726 0
M  V30 3980 N 394.653 0.992116 1.22453 0
M  V30 3981 C 395.899 0.668523 1.91464 0
M  V30 3982 C 396.232 -0.797313 1.77078 0
M  V30 3983 O 395.507 -1.5765 1.13916 0
M  V30 3984 C 395.79 1.07424 3.43703 0
M  V30 3985 C 395.643 2.59857 3.67143 0
M  V30 3986 C 396.962 0.626891 4.35612 0
M  V30 3987 H 394.081 0.244341 0.695318 0
M  V30 3988 H 396.723 1.2355 1.44345 0
M  V30 3989 H 394.873 0.591816 3.83966 0
M  V30 3990 H 396.545 3.15764 3.3629 0
M  V30 3991 H 394.788 3.01961 3.11451 0
M  V30 3992 H 395.459 2.83296 4.73759 0
M  V30 3993 H 397.935 1.04125 4.02861 0
M  V30 3994 H 396.811 0.939076 5.40807 0
M  V30 3995 H 397.072 -0.472457 4.39568 0
M  V30 3996 N 396.131 -1.37776 0.765217 0
M  V30 3997 C 397.408 -1.93975 0.251596 0
M  V30 3998 C 397.788 -1.69949 -1.25222 0
M  V30 3999 O 397.136 -1.04457 -2.03226 0
M  V30 4000 C 397.346 -3.43487 0.617895 0
M  V30 4001 C 398.694 -4.20564 0.584029 0
M  V30 4002 O 399.718 -3.5182 0.556888 0
M  V30 4003 O 398.577 -5.43138 0.605291 0
M  V30 4004 H 395.671 -0.82509 0.0561806 0
M  V30 4005 H 398.217 -1.47101 0.846128 0
M  V30 4006 H 396.989 -3.5453 1.65602 0
M  V30 4007 H 396.612 -3.976 -0.00403411 0
M  V30 4008 N 397.609 -0.515225 -1.4894 0
M  V30 4009 C 398.857 0.0241671 -2.02086 0
M  V30 4010 C 399.178 1.3616 -1.3959 0
M  V30 4011 O 398.448 1.87841 -0.556121 0
M  V30 4012 H 397.028 0.0119203 -0.746905 0
M  V30 4013 H 399.69 -0.675702 -1.82812 0
M  V30 4014 H 398.786 0.143385 -3.1177 0
M  V30 4015 N 399.087 1.5561 -0.249682 0
M  V30 4016 C 400.312 2.03865 0.381305 0
M  V30 4017 C 400.737 1.12769 1.50548 0
M  V30 4018 O 400.095 0.121189 1.80895 0
M  V30 4019 C 400.143 3.50101 0.863816 0
M  V30 4020 O 399.247 3.62132 1.97318 0
M  V30 4021 H 398.588 0.658827 0.0827194 0
M  V30 4022 H 401.118 2.01105 -0.376552 0
M  V30 4023 H 401.128 3.90975 1.1663 0
M  V30 4024 H 399.803 4.1588 0.0411816 0
M  V30 4025 H 398.38 3.33155 1.67517 0
M  V30 4026 N 400.565 -0.0233959 1.57583 0
M  V30 4027 C 401.528 -1.00693 2.05897 0
M  V30 4028 C 402.528 -1.28693 0.964092 0
M  V30 4029 O 403.718 -1.23602 1.22753 0
M  V30 4030 C 400.85 -2.33825 2.4807 0
M  V30 4031 H 402.043 -0.589476 2.9405 0
M  V30 4032 H 399.596 -0.270354 1.53944 0
M  V30 4033 H 400.331 -2.80307 1.6309 0
M  V30 4034 H 400.116 -2.1483 3.2801 0
M  V30 4035 H 401.606 -3.04426 2.85857 0
M  V30 4036 N 402.043 -1.548 -0.295768 0
M  V30 4037 C 403.459 -1.4613 -0.641722 0
M  V30 4038 C 403.659 -0.656771 -1.90496 0
M  V30 4039 O 402.715 -0.166547 -2.5195 0
M  V30 4040 C 404.028 -2.90141 -0.789852 0
M  V30 4041 C 405.576 -3.00216 -0.885396 0
M  V30 4042 C 406.051 -4.45434 -1.06548 0
M  V30 4043 N 407.542 -4.49166 -1.13156 0
M  V30 4044 C 408.277 -5.58717 -1.28929 0
M  V30 4045 N 407.773 -6.78182 -1.41567 0
M  V30 4046 N 409.566 -5.46415 -1.31859 0
M  V30 4047 H 401.717 -2.05574 0.534147 0
M  V30 4048 H 403.98 -0.931259 0.177372 0
M  V30 4049 H 403.686 -3.51635 0.0675598 0
M  V30 4050 H 403.56 -3.37859 -1.67724 0
M  V30 4051 H 405.947 -2.38833 -1.73329 0
M  V30 4052 H 406.028 -2.55787 0.0261185 0
M  V30 4053 H 405.672 -5.07413 -0.222335 0
M  V30 4054 H 405.602 -4.87499 -1.9913 0
M  V30 4055 H 408.093 -3.631 -1.04721 0
M  V30 4056 H 408.406 -7.57428 -1.53372 0
M  V30 4057 H 406.751 -6.81037 -1.38613 0
M  V30 4058 H 409.942 -4.5203 -1.21601 0
M  V30 4059 H 410.115 -6.31841 -1.43808 0
M  V30 4060 N 403.521 0.559213 -1.47345 0
M  V30 4061 C 404.767 1.31843 -1.54095 0
M  V30 4062 C 405.1 1.93149 -0.201726 0
M  V30 4063 O 404.375 1.77759 0.789428 0
M  V30 4064 C 404.658 2.43006 -2.65744 0
M  V30 4065 C 404.511 1.86581 -4.09277 0
M  V30 4066 C 405.83 3.44943 -2.73318 0
M  V30 4067 H 402.949 0.478012 -0.560957 0
M  V30 4068 H 405.591 0.625977 -1.79392 0
M  V30 4069 H 403.741 3.02072 -2.44305 0
M  V30 4070 H 405.413 1.31792 -4.42073 0
M  V30 4071 H 403.656 1.17268 -4.17649 0
M  V30 4072 H 404.327 2.66933 -4.83168 0
M  V30 4073 H 406.803 2.95793 -2.92653 0
M  V30 4074 H 405.679 4.20153 -3.53218 0
M  V30 4075 H 405.94 4.03665 -1.80296 0
M  V30 4076 N 404.999 1.35443 0.805782 0
M  V30 4077 C 406.245 1.28952 1.56522 0
M  V30 4078 C 406.578 -0.135597 1.93726 0
M  V30 4079 O 405.853 -1.08516 1.61414 0
M  V30 4080 C 406.136 2.19678 2.85331 0
M  V30 4081 C 405.989 3.7081 2.54598 0
M  V30 4082 C 407.308 2.09495 3.8704 0
M  V30 4083 H 404.427 0.469764 0.567883 0
M  V30 4084 H 407.069 1.65851 0.927001 0
M  V30 4085 H 405.219 1.8834 3.39795 0
M  V30 4086 H 406.891 4.12593 2.06312 0
M  V30 4087 H 405.134 3.91051 1.8778 0
M  V30 4088 H 405.805 4.29679 3.46525 0
M  V30 4089 H 408.281 2.37045 3.41978 0
M  V30 4090 H 407.157 2.75173 4.74943 0
M  V30 4091 H 407.418 1.07714 4.28777 0
M  V30 4092 N 406.477 -1.02803 1.19454 0
M  V30 4093 C 407.893 -1.28473 0.946937 0
M  V30 4094 C 408.093 -1.97881 -0.380202 0
M  V30 4095 O 407.149 -2.26719 -1.11151 0
M  V30 4096 C 408.462 -2.13099 2.12154 0
M  V30 4097 C 410.01 -2.26404 2.16126 0
M  V30 4098 C 410.485 -3.14402 3.33039 0
M  V30 4099 N 411.976 -3.21991 3.32981 0
M  V30 4100 C 412.711 -3.90272 4.20089 0
M  V30 4101 N 412.207 -4.60777 5.17355 0
M  V30 4102 N 414 -3.8668 4.07964 0
M  V30 4103 H 406.151 -0.561665 2.04839 0
M  V30 4104 H 408.414 -0.310438 0.89573 0
M  V30 4105 H 408.12 -1.69422 3.08203 0
M  V30 4106 H 407.994 -3.13813 2.09287 0
M  V30 4107 H 410.381 -2.69311 1.20647 0
M  V30 4108 H 410.462 -1.25237 2.23045 0
M  V30 4109 H 410.106 -2.72204 4.28798 0
M  V30 4110 H 410.036 -4.1563 3.23356 0
M  V30 4111 H 412.527 -2.71778 2.62574 0
M  V30 4112 H 412.84 -5.10513 5.80169 0
M  V30 4113 H 411.185 -4.5964 5.21302 0
M  V30 4114 H 414.376 -3.30739 3.31254 0
M  V30 4115 H 414.549 -4.39621 4.76064 0
M  V30 4116 N 407.956 -0.998596 -1.21925 0
M  V30 4117 C 408.906 -0.524743 -2.21879 0
M  V30 4118 C 409.89 0.41017 -1.55584 0
M  V30 4119 O 411.082 0.236063 -1.75419 0
M  V30 4120 C 408.211 0.153636 -3.42956 0
M  V30 4121 C 407.297 -0.801918 -4.16449 0
M  V30 4122 N 407.688 -1.95211 -4.66611 0
M  V30 4123 C 405.986 -0.618972 -4.41684 0
M  V30 4124 C 406.687 -2.55234 -5.22715 0
M  V30 4125 N 405.663 -1.83451 -5.1171 0
M  V30 4126 H 409.465 -1.40189 -2.58311 0
M  V30 4127 H 406.979 -0.86159 -1.3766 0
M  V30 4128 H 408.976 0.510534 -4.13762 0
M  V30 4129 H 407.636 1.02684 -3.08036 0
M  V30 4130 H 408.647 -2.33271 -4.62391 0
M  V30 4131 H 405.324 0.207694 -4.16983 0
M  V30 4132 H 406.714 -3.52471 -5.72026 0
M  V30 4133 N 409.434 1.37368 -0.772513 0
M  V30 4134 C 410.68 1.99969 -0.337681 0
M  V30 4135 C 411.013 1.61184 1.08321 0
M  V30 4136 O 410.288 0.858395 1.74533 0
M  V30 4137 C 410.571 3.56858 -0.482121 0
M  V30 4138 C 410.424 4.0555 -1.94549 0
M  V30 4139 C 411.743 4.39955 0.113143 0
M  V30 4140 H 408.862 0.726464 -0.124171 0
M  V30 4141 H 411.504 1.63034 -0.975699 0
M  V30 4142 H 409.654 3.88452 0.0610361 0
M  V30 4143 H 411.326 3.84518 -2.54841 0
M  V30 4144 H 409.569 3.57715 -2.45403 0
M  V30 4145 H 410.24 5.14587 -1.9976 0
M  V30 4146 H 412.716 4.14623 -0.35031 0
M  V30 4147 H 411.592 5.48897 -0.0180514 0
M  V30 4148 H 411.853 4.25403 1.20354 0
M  V30 4149 N 410.912 0.523116 1.48665 0
M  V30 4150 C 412.161 -0.01544 2.01694 0
M  V30 4151 C 412.474 -1.35975 1.40606 0
M  V30 4152 O 413.68 -1.98627 1.85093 0
M  V30 4153 C 412.136 -0.0779303 3.59816 0
M  V30 4154 C 411.744 1.26107 4.29885 0
M  V30 4155 C 413.488 -0.565678 4.20714 0
M  V30 4156 C 411.395 1.15954 5.79921 0
M  V30 4157 H 410.325 -0.00954163 0.75394 0
M  V30 4158 H 412.976 0.665865 1.70993 0
M  V30 4159 H 411.358 -0.824165 3.87329 0
M  V30 4160 H 412.532 2.02233 4.14051 0
M  V30 4161 H 410.847 1.68401 3.80828 0
M  V30 4162 H 413.444 -0.6595 5.30617 0
M  V30 4163 H 413.787 -1.56984 3.85567 0
M  V30 4164 H 414.32 0.12467 3.97605 0
M  V30 4165 H 411.059 2.13864 6.19631 0
M  V30 4166 H 410.579 0.439529 5.98187 0
M  V30 4167 H 412.258 0.847361 6.41427 0
M  V30 4168 N 412.39 -1.55475 0.257931 0
M  V30 4169 C 413.353 -2.20551 -0.623706 0
M  V30 4170 C 414.353 -1.17809 -1.09443 0
M  V30 4171 O 415.543 -1.42823 -0.997362 0
M  V30 4172 C 412.675 -2.85784 -1.8585 0
M  V30 4173 H 413.868 -2.99848 -0.0557743 0
M  V30 4174 H 411.421 -1.56298 0.0084422 0
M  V30 4175 H 412.156 -2.10453 -2.46739 0
M  V30 4176 H 411.941 -3.61057 -1.52907 0
M  V30 4177 H 413.431 -3.35553 -2.48584 0
M  V30 4178 N 413.868 0.0150385 -1.57593 0
M  V30 4179 C 414.778 1.02791 -2.10882 0
M  V30 4180 C 415.794 1.38702 -1.0506 0
M  V30 4181 O 416.97 1.47739 -1.36877 0
M  V30 4182 C 414.035 2.30568 -2.58919 0
M  V30 4183 C 413.096 2.01108 -3.79281 0
M  V30 4184 C 412.329 3.22794 -4.25018 0
M  V30 4185 O 412.552 4.33959 -3.70183 0
M  V30 4186 O 411.486 3.07672 -5.17322 0
M  V30 4187 H 415.312 0.604973 -2.97613 0
M  V30 4188 H 412.897 0.23292 -1.47573 0
M  V30 4189 H 414.779 3.05662 -2.90084 0
M  V30 4190 H 413.454 2.72129 -1.75293 0
M  V30 4191 H 412.361 1.23537 -3.53114 0
M  V30 4192 H 413.694 1.64394 -4.63935 0
M  V30 4193 N 415.346 1.54954 0.287554 0
M  V30 4194 C 416.762 1.46469 0.633964 0
M  V30 4195 C 416.962 0.666865 1.90145 0
M  V30 4196 O 416.018 0.179906 2.51858 0
M  V30 4197 C 417.331 2.90556 0.774454 0
M  V30 4198 C 418.879 3.00681 0.869462 0
M  V30 4199 C 419.354 4.45993 1.04184 0
M  V30 4200 N 420.845 4.4976 1.10772 0
M  V30 4201 C 421.58 5.59393 1.25964 0
M  V30 4202 N 421.076 6.78923 1.37968 0
M  V30 4203 N 422.869 5.47107 1.28959 0
M  V30 4204 H 415.02 2.05288 -0.545041 0
M  V30 4205 H 417.283 0.930305 -0.182308 0
M  V30 4206 H 416.989 3.51594 -0.086207 0
M  V30 4207 H 416.863 3.38743 1.6593 0
M  V30 4208 H 419.25 2.39749 1.7206 0
M  V30 4209 H 419.331 2.55769 -0.0396831 0
M  V30 4210 H 418.975 5.07524 0.195422 0
M  V30 4211 H 418.905 4.88548 1.96542 0
M  V30 4212 H 421.396 3.63651 1.02794 0
M  V30 4213 H 421.709 7.58231 1.49353 0
M  V30 4214 H 420.054 6.81763 1.34999 0
M  V30 4215 H 423.245 4.52668 1.19202 0
M  V30 4216 H 423.418 6.32595 1.40455 0
M  V30 4217 N 416.824 -0.551391 1.4764 0
M  V30 4218 C 418.24 -0.877887 1.33287 0
M  V30 4219 C 418.44 -1.98817 0.327721 0
M  V30 4220 O 417.496 -2.51171 -0.258695 0
M  V30 4221 C 418.809 -1.26563 2.72768 0
M  V30 4222 C 420.357 -1.37673 2.81097 0
M  V30 4223 C 420.832 -1.79799 4.21232 0
M  V30 4224 N 422.323 -1.8694 4.23802 0
M  V30 4225 C 423.058 -2.20876 5.29151 0
M  V30 4226 N 422.554 -2.53386 6.448 0
M  V30 4227 N 424.347 -2.217 5.16532 0
M  V30 4228 H 416.498 0.18153 2.11623 0
M  V30 4229 H 418.761 0.0185514 0.947818 0
M  V30 4230 H 418.467 -0.523591 3.47781 0
M  V30 4231 H 418.341 -2.22052 3.04915 0
M  V30 4232 H 420.728 -2.10956 2.06353 0
M  V30 4233 H 420.809 -0.40357 2.52596 0
M  V30 4234 H 420.453 -1.07083 4.96483 0
M  V30 4235 H 420.383 -2.78128 4.4716 0
M  V30 4236 H 422.874 -1.64179 3.40373 0
M  V30 4237 H 423.187 -2.78325 7.20941 0
M  V30 4238 H 421.532 -2.50953 6.48111 0
M  V30 4239 H 424.723 -1.95745 4.25207 0
M  V30 4240 H 424.896 -2.47818 5.98741 0
M  V30 4241 N 418.302 -1.35869 -0.798587 0
M  V30 4242 C 419.232 -1.32118 -1.92528 0
M  V30 4243 C 420.213 -0.194209 -1.68988 0
M  V30 4244 O 421.398 -0.390426 -1.90235 0
M  V30 4245 C 418.528 -1.10047 -3.29404 0
M  V30 4246 C 417.482 -2.19471 -3.67446 0
M  V30 4247 C 416.808 -1.82555 -5.02571 0
M  V30 4248 C 418.108 -3.61495 -3.76987 0
M  V30 4249 H 419.802 -2.26394 -1.95924 0
M  V30 4250 H 417.348 -1.08981 -0.94123 0
M  V30 4251 H 419.301 -1.06061 -4.07835 0
M  V30 4252 H 418.025 -0.122195 -3.26371 0
M  V30 4253 H 416.684 -2.22568 -2.91306 0
M  V30 4254 H 416.332 -0.833249 -4.9605 0
M  V30 4255 H 416.032 -2.5581 -5.28995 0
M  V30 4256 H 417.556 -1.80108 -5.83432 0
M  V30 4257 H 418.97 -3.60676 -4.4563 0
M  V30 4258 H 417.367 -4.33577 -4.14887 0
M  V30 4259 H 418.437 -3.97065 -2.78329 0
M  V30 4260 N 419.78 1.02168 -1.19998 0
M  V30 4261 C 421.057 1.72816 -0.916191 0
M  V30 4262 C 421.437 2.03081 0.576325 0
M  V30 4263 O 420.785 1.69122 1.53656 0
M  V30 4264 C 420.995 2.9997 -1.78378 0
M  V30 4265 C 422.343 3.73336 -2.02251 0
M  V30 4266 O 423.367 3.09914 -1.75589 0
M  V30 4267 O 422.226 4.87371 -2.47249 0
M  V30 4268 H 419.32 0.752924 -0.342103 0
M  V30 4269 H 421.866 1.08062 -1.30846 0
M  V30 4270 H 420.638 2.73888 -2.79466 0
M  V30 4271 H 420.261 3.72464 -1.39126 0
M  V30 4272 N 421.258 1.00505 1.21394 0
M  V30 4273 C 422.221 0.570459 2.21987 0
M  V30 4274 C 423.221 -0.353211 1.56873 0
M  V30 4275 O 424.411 -0.14349 1.73608 0
M  V30 4276 C 421.543 -0.168555 3.40483 0
M  V30 4277 H 422.736 1.46021 2.6195 0
M  V30 4278 H 420.289 0.793565 1.34656 0
M  V30 4279 H 421.024 -1.07374 3.06009 0
M  V30 4280 H 420.809 0.494823 3.88965 0
M  V30 4281 H 422.299 -0.460362 4.15055 0
M  V30 4282 N 422.737 -1.36956 0.779787 0
M  V30 4283 C 423.985 -1.99097 0.347079 0
M  V30 4284 C 424.306 -1.62206 -1.08232 0
M  V30 4285 O 423.576 -0.891373 -1.74446 0
M  V30 4286 H 422.156 -0.736409 0.125342 0
M  V30 4287 H 424.818 -1.67308 0.999696 0
M  V30 4288 H 423.914 -3.09107 0.431162 0
M  V30 4289 N 424.215 -0.530993 -1.48385 0
M  V30 4290 C 425.492 0.0671788 -1.95485 0
M  V30 4291 C 425.872 1.51191 -1.47324 0
M  V30 4292 O 425.22 2.17507 -0.700202 0
M  V30 4293 C 425.43 -0.0511206 -3.48963 0
M  V30 4294 C 426.778 0.107632 -4.24464 0
M  V30 4295 O 427.802 0.0226248 -3.56193 0
M  V30 4296 O 426.661 0.285972 -5.45751 0
M  V30 4297 H 423.755 0.0787365 -0.823243 0
M  V30 4298 H 426.301 -0.595662 -1.58902 0
M  V30 4299 H 425.073 -1.05747 -3.7674 0
M  V30 4300 H 424.696 0.650525 -3.92242 0
M  V30 4301 N 425.693 1.55336 -0.266172 0
M  V30 4302 C 426.942 1.98574 0.353749 0
M  V30 4303 C 427.255 1.15789 1.57646 0
M  V30 4304 O 428.461 1.49129 2.26876 0
M  V30 4305 C 426.917 3.53403 0.680747 0
M  V30 4306 C 426.525 4.44953 -0.52165 0
M  V30 4307 C 428.269 4.05251 1.26379 0
M  V30 4308 C 426.176 5.91156 -0.169736 0
M  V30 4309 H 425.106 0.741643 0.135949 0
M  V30 4310 H 427.757 1.79743 -0.369421 0
M  V30 4311 H 426.139 3.68001 1.46257 0
M  V30 4312 H 427.313 4.42121 -1.29869 0
M  V30 4313 H 425.628 4.03691 -1.02093 0
M  V30 4314 H 428.225 5.12021 1.54074 0
M  V30 4315 H 428.568 3.53749 2.19471 0
M  V30 4316 H 429.101 3.94057 0.544447 0
M  V30 4317 H 425.84 6.46736 -1.0683 0
M  V30 4318 H 425.36 5.97079 0.570717 0
M  V30 4319 H 427.039 6.4655 0.241245 0
M  V30 4320 N 427.171 -0.0066808 1.57599 0
M  V30 4321 C 428.419 -0.691552 1.899 0
M  V30 4322 C 428.74 -1.74682 0.866672 0
M  V30 4323 O 428.01 -1.95661 -0.0968189 0
M  V30 4324 H 426.59 -0.258416 0.700878 0
M  V30 4325 H 429.252 0.0326655 1.94873 0
M  V30 4326 H 428.348 -1.16702 2.8946 0
M  V30 4327 N 428.649 -1.55105 -0.279332 0
M  V30 4328 C 429.877 -1.7943 -1.03017 0
M  V30 4329 C 430.292 -0.564456 -1.80165 0
M  V30 4330 O 429.649 0.466326 -1.76442 0
M  V30 4331 C 429.7 -3.0155 -1.99374 0
M  V30 4332 O 429.421 -4.19784 -1.25352 0
M  V30 4333 C 430.922 -3.3843 -2.86321 0
M  V30 4334 H 428.142 -0.597882 -0.304594 0
M  V30 4335 H 430.686 -2.02105 -0.312035 0
M  V30 4336 H 428.841 -2.81019 -2.66659 0
M  V30 4337 H 429.255 -4.88781 -1.90246 0
M  V30 4338 H 430.729 -4.27066 -3.49741 0
M  V30 4339 H 431.206 -2.57549 -3.5576 0
M  V30 4340 H 431.812 -3.61197 -2.24536 0
M  V30 4341 N 430.127 0.543554 -1.4793 0
M  V30 4342 C 431.037 1.67657 -1.64098 0
M  V30 4343 C 432.053 1.65934 -0.523622 0
M  V30 4344 O 433.229 1.85133 -0.792943 0
M  V30 4345 C 430.294 3.04146 -1.66421 0
M  V30 4346 C 429.355 3.16831 -2.89684 0
M  V30 4347 C 428.588 4.46809 -2.91886 0
M  V30 4348 O 428.811 5.33095 -2.02895 0
M  V30 4349 O 427.745 4.63573 -3.83906 0
M  V30 4350 H 431.571 1.56957 -2.59997 0
M  V30 4351 H 429.156 0.715116 -1.31173 0
M  V30 4352 H 431.038 3.85346 -1.70548 0
M  V30 4353 H 429.713 3.152 -0.736923 0
M  V30 4354 H 428.62 2.34977 -2.91095 0
M  V30 4355 H 429.953 3.10687 -3.81752 0
M  V30 4356 N 431.605 1.3629 0.791371 0
M  V30 4357 C 433.016 1.27225 1.36641 0
M  V30 4358 C 433.367 -0.0887968 1.95999 0
M  V30 4359 O 432.492 -0.990207 1.92416 0
M  V30 4360 C 433.087 2.30375 2.48421 0
M  V30 4361 C 431.646 2.25004 3.01746 0
M  V30 4362 C 430.793 2.15259 1.7481 0
M  V30 4363 H 433.744 1.47198 0.593173 0
M  V30 4364 H 433.765 1.93905 3.27385 0
M  V30 4365 H 433.277 3.29422 2.05189 0
M  V30 4366 H 431.378 1.29417 3.49403 0
M  V30 4367 H 431.491 3.1761 3.58693 0
M  V30 4368 H 429.855 1.61482 1.96966 0
M  V30 4369 H 430.638 3.16191 1.33709 0
M  V30 4370 N 433.083 -1.0153 1.20538 0
M  V30 4371 C 433.993 -2.13557 0.971113 0
M  V30 4372 C 435.009 -1.73845 -0.0734366 0
M  V30 4373 O 436.185 -2.01075 0.114299 0
M  V30 4374 C 433.25 -3.42661 0.527639 0
M  V30 4375 C 432.311 -3.96608 1.64319 0
M  V30 4376 C 431.544 -5.1955 1.22078 0
M  V30 4377 O 431.767 -5.70329 0.0900198 0
M  V30 4378 O 430.701 -5.66681 2.02871 0
M  V30 4379 H 434.527 -2.3619 1.90913 0
M  V30 4380 H 432.112 -1.11946 0.989362 0
M  V30 4381 H 433.994 -4.20404 0.289621 0
M  V30 4382 H 432.669 -3.21441 -0.381779 0
M  V30 4383 H 431.576 -3.20139 1.93551 0
M  V30 4384 H 432.909 -4.22219 2.52966 0
M  V30 4385 N 434.561 -1.01147 -1.20859 0
M  V30 4386 C 435.524 -0.582224 -2.21682 0
M  V30 4387 C 436.524 0.344887 -1.57058 0
M  V30 4388 O 437.714 0.134281 -1.73682 0
M  V30 4389 C 434.846 0.150496 -3.40568 0
M  V30 4390 H 436.039 -1.47408 -2.61172 0
M  V30 4391 H 433.592 -0.800695 -1.34233 0
M  V30 4392 H 434.327 1.0575 -3.06574 0
M  V30 4393 H 434.112 -0.515444 -3.88697 0
M  V30 4394 H 435.602 0.438344 -4.15293 0
M  V30 4395 N 436.039 1.36541 -0.78704 0
M  V30 4396 C 437.287 1.98911 -0.357633 0
M  V30 4397 C 437.608 1.62778 1.07371 0
M  V30 4398 O 436.878 0.900612 1.73971 0
M  V30 4399 H 435.458 0.735734 -0.129246 0
M  V30 4400 H 438.12 1.66776 -1.00855 0
M  V30 4401 H 437.216 3.08874 -0.447549 0
M  V30 4402 N 437.518 0.538854 1.48102 0
M  V30 4403 C 438.45 -0.256278 2.27763 0
M  V30 4404 C 439.463 -0.89633 1.35904 0
M  V30 4405 O 440.652 -0.773275 1.60881 0
M  V30 4406 C 437.752 -1.37896 3.09577 0
M  V30 4407 C 436.925 -0.839159 4.29275 0
M  V30 4408 C 435.984 -1.84405 4.9283 0
M  V30 4409 O 435.01 -1.39746 5.51779 0
M  V30 4410 N 436.212 -3.17666 4.85869 0
M  V30 4411 H 438.977 0.426968 2.96643 0
M  V30 4412 H 436.538 0.373747 1.57527 0
M  V30 4413 H 438.53 -2.04955 3.48963 0
M  V30 4414 H 437.1 -1.96572 2.4306 0
M  V30 4415 H 436.32 0.00769287 3.94199 0
M  V30 4416 H 437.608 -0.457548 5.06739 0
M  V30 4417 H 437.006 -3.56609 4.39143 0
M  V30 4418 H 435.563 -3.80334 5.29329 0
M  V30 4419 N 438.996 -1.55193 0.274407 0
M  V30 4420 C 440.273 -1.91584 -0.394331 0
M  V30 4421 C 440.653 -1.19858 -1.73774 0
M  V30 4422 O 440.001 -0.3252 -2.26174 0
M  V30 4423 C 440.211 -3.4487 -0.535311 0
M  V30 4424 C 441.559 -4.16636 -0.818534 0
M  V30 4425 O 442.583 -3.5076 -0.620146 0
M  V30 4426 O 441.442 -5.33209 -1.19792 0
M  V30 4427 H 438.536 -0.798349 -0.215794 0
M  V30 4428 H 441.082 -1.66646 0.320507 0
M  V30 4429 H 439.854 -3.89145 0.410141 0
M  V30 4430 H 439.477 -3.75759 -1.29964 0
M  V30 4431 N 440.474 -0.00167713 -1.576 0
M  V30 4432 C 441.437 0.974046 -2.07473 0
M  V30 4433 C 442.437 1.27143 -0.984444 0
M  V30 4434 O 443.627 1.21633 -1.24703 0
M  V30 4435 C 440.759 2.29849 -2.51759 0
M  V30 4436 H 441.952 0.54262 -2.9495 0
M  V30 4437 H 439.505 0.245829 -1.54355 0
M  V30 4438 H 440.24 2.77677 -1.67529 0
M  V30 4439 H 440.025 2.09584 -3.31386 0
M  V30 4440 H 441.515 2.9984 -2.90664 0
M  V30 4441 N 441.952 1.55251 0.271103 0
M  V30 4442 C 443.182 1.79713 1.01916 0
M  V30 4443 C 443.59 0.571613 1.80359 0
M  V30 4444 O 442.933 -0.468853 1.77616 0
M  V30 4445 C 442.995 2.97138 2.02359 0
M  V30 4446 C 442.659 4.34104 1.42837 0
M  V30 4447 C 443.656 5.13019 0.843071 0
M  V30 4448 C 441.341 4.80765 1.455 0
M  V30 4449 C 443.335 6.36729 0.292333 0
M  V30 4450 C 441.022 6.0443 0.900402 0
M  V30 4451 C 442.02 6.8225 0.32007 0
M  V30 4452 O 441.708 8.03582 -0.226031 0
M  V30 4453 H 441.44 0.602431 0.306681 0
M  V30 4454 H 443.994 2.03097 0.306701 0
M  V30 4455 H 442.224 2.6945 2.77369 0
M  V30 4456 H 443.913 3.08907 2.63309 0
M  V30 4457 H 444.679 4.781 0.815178 0
M  V30 4458 H 440.558 4.20202 1.89609 0
M  V30 4459 H 444.102 6.97414 -0.161274 0
M  V30 4460 H 439.999 6.3883 0.925541 0
M  V30 4461 H 440.767 8.18418 -0.115572 0
M  V30 4462 N 443.43 -0.535701 1.48216 0
M  V30 4463 C 444.655 -1.32149 1.59848 0
M  V30 4464 C 445.08 -1.86338 0.256842 0
M  V30 4465 O 444.438 -1.64107 -0.770632 0
M  V30 4466 C 444.486 -2.45224 2.64381 0
M  V30 4467 O 443.59 -3.48093 2.21144 0
M  V30 4468 H 442.931 -0.391634 0.536208 0
M  V30 4469 H 445.461 -0.645202 1.94161 0
M  V30 4470 H 445.471 -2.91491 2.85476 0
M  V30 4471 H 444.146 -2.05143 3.61786 0
M  V30 4472 H 442.723 -3.07984 2.10239 0
M  V30 4473 N 444.908 -1.36708 -0.784132 0
M  V30 4474 C 445.838 -1.34153 -1.91116 0
M  V30 4475 C 446.819 -0.212121 -1.68772 0
M  V30 4476 O 448.004 -0.410581 -1.8981 0
M  V30 4477 C 445.134 -1.13535 -3.28218 0
M  V30 4478 C 444.088 -2.23356 -3.65097 0
M  V30 4479 C 443.414 -1.87875 -5.00607 0
M  V30 4480 C 444.714 -3.65473 -3.73131 0
M  V30 4481 H 446.408 -2.28459 -1.93512 0
M  V30 4482 H 443.954 -1.09973 -0.929618 0
M  V30 4483 H 445.907 -1.10381 -4.06687 0
M  V30 4484 H 444.631 -0.156804 -3.26223 0
M  V30 4485 H 443.29 -2.25645 -2.88929 0
M  V30 4486 H 442.938 -0.885814 -4.95139 0
M  V30 4487 H 442.638 -2.61406 -5.26252 0
M  V30 4488 H 444.162 -1.86286 -5.81489 0
M  V30 4489 H 445.576 -3.65382 -4.41779 0
M  V30 4490 H 443.973 -4.37953 -4.10265 0
M  V30 4491 H 445.043 -3.99995 -2.74102 0
M  V30 4492 N 446.386 1.0089 -1.21074 0
M  V30 4493 C 447.802 1.2695 -0.967257 0
M  V30 4494 C 448.002 1.9846 0.348673 0
M  V30 4495 O 447.058 2.28459 1.0753 0
M  V30 4496 C 448.371 2.09697 -2.15517 0
M  V30 4497 C 449.919 2.22937 -2.197 0
M  V30 4498 C 450.394 3.09064 -3.37999 0
M  V30 4499 N 451.885 3.16653 -3.38061 0
M  V30 4500 C 452.62 3.8354 -4.26245 0
M  V30 4501 N 452.116 4.52488 -5.2462 0
M  V30 4502 N 453.909 3.80141 -4.14064 0
M  V30 4503 H 446.06 0.529005 -2.05707 0
M  V30 4504 H 448.323 0.296148 -0.900556 0
M  V30 4505 H 448.029 1.64497 -3.10859 0
M  V30 4506 H 447.903 3.10444 -2.14253 0
M  V30 4507 H 450.29 2.67357 -1.24916 0
M  V30 4508 H 450.371 1.21673 -2.2501 0
M  V30 4509 H 450.015 2.65347 -4.33074 0
M  V30 4510 H 449.945 4.10433 -3.29928 0
M  V30 4511 H 452.436 2.67566 -2.66865 0
M  V30 4512 H 452.749 5.01219 -5.88217 0
M  V30 4513 H 451.094 4.51288 -5.28549 0
M  V30 4514 H 454.285 3.25427 -3.36474 0
M  V30 4515 H 454.458 4.31992 -4.82998 0
M  V30 4516 N 447.864 1.01787 1.20321 0
M  V30 4517 C 449.104 0.716493 1.91431 0
M  V30 4518 C 449.468 -0.740352 1.77152 0
M  V30 4519 O 450.669 -1.1543 2.42754 0
M  V30 4520 C 448.94 1.14169 3.38674 0
M  V30 4521 S 450.499 0.962482 4.28114 0
M  V30 4522 H 447.317 0.261175 0.661293 0
M  V30 4523 H 449.919 1.30539 1.45533 0
M  V30 4524 H 448.623 2.19784 3.46588 0
M  V30 4525 H 448.154 0.545621 3.89598 0
M  V30 4526 H 450.169 -0.133253 4.96021 0
M  V30 4527 N 449.342 -1.36122 0.79427 0
M  V30 4528 C 450.305 -2.28309 0.201889 0
M  V30 4529 C 451.305 -1.49041 -0.603603 0
M  V30 4530 O 452.495 -1.68964 -0.423888 0
M  V30 4531 C 449.627 -3.3321 -0.719978 0
M  V30 4532 H 450.82 -2.82208 1.01481 0
M  V30 4533 H 448.373 -1.45768 0.564037 0
M  V30 4534 H 449.108 -2.84475 -1.55706 0
M  V30 4535 H 448.893 -3.91835 -0.144266 0
M  V30 4536 H 450.383 -4.02044 -1.12916 0
M  V30 4537 N 450.82 -0.546701 -1.47814 0
M  V30 4538 C 452.231 -0.110564 -1.86372 0
M  V30 4539 C 452.582 1.31678 -1.45449 0
M  V30 4540 O 451.707 1.98889 -0.852758 0
M  V30 4541 C 452.302 -0.193873 -3.38245 0
M  V30 4542 C 450.861 0.187164 -3.75934 0
M  V30 4543 C 450.008 -0.546166 -2.71868 0
M  V30 4544 H 452.959 -0.757022 -1.39481 0
M  V30 4545 H 452.98 0.590218 -3.75895 0
M  V30 4546 H 452.492 -1.23282 -3.67999 0
M  V30 4547 H 450.593 1.22762 -3.51796 0
M  V30 4548 H 450.706 -0.164083 -4.78819 0
M  V30 4549 H 449.07 0.00953904 -2.54698 0
M  V30 4550 H 449.853 -1.58606 -3.04465 0
M  V30 4551 N 452.299 1.55045 -0.282633 0
M  V30 4552 C 453.231 2.2023 0.634924 0
M  V30 4553 C 454.244 1.18931 1.11172 0
M  V30 4554 O 455.433 1.4562 1.03233 0
M  V30 4555 C 452.533 2.82041 1.87899 0
M  V30 4556 C 451.706 4.091 1.54776 0
M  V30 4557 C 450.765 4.54887 2.64507 0
M  V30 4558 O 449.791 5.20496 2.30375 0
M  V30 4559 N 450.993 4.25659 3.94709 0
M  V30 4560 H 453.758 2.99601 0.0769811 0
M  V30 4561 H 451.319 1.61565 -0.104048 0
M  V30 4562 H 453.311 3.09613 2.60619 0
M  V30 4563 H 451.881 2.06618 2.3458 0
M  V30 4564 H 451.101 3.88736 0.654049 0
M  V30 4565 H 452.389 4.9187 1.30158 0
M  V30 4566 H 451.787 3.7306 4.25256 0
M  V30 4567 H 450.344 4.57984 4.63782 0
M  V30 4568 N 453.777 0.010035 1.57597 0
M  V30 4569 C 455.023 -0.673697 1.91283 0
M  V30 4570 C 455.356 -1.72863 0.884979 0
M  V30 4571 O 454.631 -1.94268 -0.0949487 0
M  V30 4572 C 454.914 -1.30766 3.35518 0
M  V30 4573 C 454.767 -0.263578 4.49027 0
M  V30 4574 C 456.086 -2.23105 3.79358 0
M  V30 4575 H 453.205 -0.243439 0.695634 0
M  V30 4576 H 455.847 0.0633864 1.89894 0
M  V30 4577 H 453.997 -1.93588 3.36832 0
M  V30 4578 H 455.669 0.365738 4.59848 0
M  V30 4579 H 453.912 0.413077 4.31829 0
M  V30 4580 H 454.583 -0.746398 5.4693 0
M  V30 4581 H 457.059 -1.70289 3.79659 0
M  V30 4582 H 455.935 -2.64424 4.81011 0
M  V30 4583 H 456.196 -3.11433 3.13787 0
M  V30 4584 N 455.255 -1.55392 -0.262866 0
M  V30 4585 C 456.185 -1.91978 -1.32917 0
M  V30 4586 C 457.166 -0.7828 -1.51017 0
M  V30 4587 O 458.351 -1.04178 -1.63892 0
M  V30 4588 C 455.481 -2.20055 -2.68687 0
M  V30 4589 C 454.435 -3.35854 -2.65304 0
M  V30 4590 C 453.761 -3.49435 -4.04721 0
M  V30 4591 C 455.061 -4.71977 -2.23685 0
M  V30 4592 H 456.755 -2.81292 -1.02544 0
M  V30 4593 H 454.301 -1.3534 -0.491846 0
M  V30 4594 H 456.254 -2.44237 -3.43404 0
M  V30 4595 H 454.978 -1.27551 -3.00663 0
M  V30 4596 H 453.637 -3.11655 -1.93045 0
M  V30 4597 H 453.285 -2.54379 -4.33936 0
M  V30 4598 H 452.985 -4.27297 -4.0335 0
M  V30 4599 H 454.509 -3.7592 -4.81161 0
M  V30 4600 H 455.923 -4.95637 -2.88127 0
M  V30 4601 H 454.32 -5.52828 -2.33456 0
M  V30 4602 H 455.39 -4.70115 -1.18827 0
M  V30 4603 N 456.733 0.527833 -1.48498 0
M  V30 4604 C 457.981 1.28101 -1.56316 0
M  V30 4605 C 458.302 1.9352 -0.239781 0
M  V30 4606 O 457.572 1.81433 0.738849 0
M  V30 4607 H 456.152 0.475793 -0.575873 0
M  V30 4608 H 458.814 0.614052 -1.84974 0
M  V30 4609 H 457.91 2.05916 -2.34532 0
M  V30 4610 N 458.211 1.37122 0.776871 0
M  V30 4611 C 459.174 1.32301 1.8716 0
M  V30 4612 C 460.174 0.228099 1.59174 0
M  V30 4613 O 461.364 0.483642 1.67352 0
M  V30 4614 C 458.496 1.054 3.24197 0
M  V30 4615 H 459.689 2.29673 1.92848 0
M  V30 4616 H 457.242 1.22077 0.97606 0
M  V30 4617 H 457.977 0.0853872 3.24188 0
M  V30 4618 H 457.762 1.84648 3.45901 0
M  V30 4619 H 459.252 1.04664 4.04271 0
M  V30 4620 N 459.689 -1.00246 1.21608 0
M  V30 4621 C 460.937 -1.73717 1.0328 0
M  V30 4622 C 461.258 -1.90102 -0.434318 0
M  V30 4623 O 460.528 -1.45376 -1.31311 0
M  V30 4624 H 459.108 -0.643613 0.379172 0
M  V30 4625 H 461.77 -1.20787 1.52959 0
M  V30 4626 H 460.866 -2.73535 1.50283 0
M  V30 4627 N 461.167 -1.02423 -1.1978 0
M  V30 4628 C 462.414 -0.717988 -1.89344 0
M  V30 4629 C 462.742 0.753036 -1.79331 0
M  V30 4630 O 461.997 1.56355 -1.17692 0
M  V30 4631 C 462.296 -1.1088 -3.39765 0
M  V30 4632 C 461.962 -2.57731 -3.6998 0
M  V30 4633 C 460.624 -2.97854 -3.77937 0
M  V30 4634 C 462.976 -3.52763 -3.83677 0
M  V30 4635 C 460.304 -4.31931 -3.97054 0
M  V30 4636 C 462.656 -4.86538 -4.04306 0
M  V30 4637 C 461.32 -5.26356 -4.10494 0
M  V30 4638 H 460.59 -0.26273 -0.692859 0
M  V30 4639 H 463.237 -1.28623 -1.41875 0
M  V30 4640 H 461.542 -0.459094 -3.89101 0
M  V30 4641 H 463.239 -0.849432 -3.919 0
M  V30 4642 H 459.829 -2.25646 -3.64393 0
M  V30 4643 H 464.013 -3.2292 -3.76877 0
M  V30 4644 H 459.269 -4.62324 -4.00083 0
M  V30 4645 H 463.443 -5.60093 -4.13846 0
M  V30 4646 H 461.07 -6.3026 -4.2506 0
M  V30 4647 N 462.645 1.35699 -0.801477 0
M  V30 4648 C 463.922 1.9324 -0.302937 0
M  V30 4649 C 464.302 1.73209 1.20672 0
M  V30 4650 O 463.65 1.09809 2.00385 0
M  V30 4651 C 463.86 3.41728 -0.708747 0
M  V30 4652 C 465.208 4.18868 -0.695328 0
M  V30 4653 O 466.232 3.5022 -0.649971 0
M  V30 4654 O 465.091 5.41342 -0.749081 0
M  V30 4655 H 462.185 0.82331 -0.0780367 0
M  V30 4656 H 464.731 1.44806 -0.884832 0
M  V30 4657 H 463.503 3.50015 -1.74944 0
M  V30 4658 H 463.126 3.97471 -0.101384 0
M  V30 4659 N 464.123 0.554532 1.47522 0
M  V30 4660 C 465.351 0.034257 2.06872 0
M  V30 4661 C 465.766 -1.25826 1.40759 0
M  V30 4662 O 465.123 -1.75425 0.503217 0
M  V30 4663 C 465.174 -0.167827 3.6111 0
M  V30 4664 O 464.895 1.07351 4.24744 0
M  V30 4665 C 466.396 -0.72569 4.3732 0
M  V30 4666 H 463.616 0.0446275 0.669514 0
M  V30 4667 H 466.16 0.767181 1.89564 0
M  V30 4668 H 464.315 -0.850872 3.7794 0
M  V30 4669 H 464.729 0.869563 5.17242 0
M  V30 4670 H 466.203 -0.816394 5.45929 0
M  V30 4671 H 466.68 -1.73635 4.0342 0
M  V30 4672 H 467.286 -0.0784292 4.25228 0
M  V30 4673 N 465.601 -1.54893 0.290851 0
M  V30 4674 C 466.531 -2.26103 -0.583084 0
M  V30 4675 C 467.512 -1.25684 -1.14619 0
M  V30 4676 O 468.697 -1.54436 -1.17741 0
M  V30 4677 C 465.827 -2.99409 -1.75987 0
M  V30 4678 C 464.781 -4.0689 -1.32758 0
M  V30 4679 C 464.107 -4.67856 -2.58872 0
M  V30 4680 C 465.407 -5.20215 -0.46624 0
M  V30 4681 H 467.101 -2.99398 0.0108214 0
M  V30 4682 H 464.647 -1.43998 0.00664468 0
M  V30 4683 H 466.6 -3.47943 -2.37727 0
M  V30 4684 H 465.324 -2.23675 -2.37985 0
M  V30 4685 H 463.983 -3.59191 -0.733299 0
M  V30 4686 H 463.631 -3.88772 -3.19163 0
M  V30 4687 H 463.331 -5.40438 -2.30653 0
M  V30 4688 H 464.855 -5.19147 -3.21433 0
M  V30 4689 H 466.269 -5.64704 -0.989047 0
M  V30 4690 H 464.666 -5.99455 -0.27826 0
M  V30 4691 H 465.736 -4.82198 0.511173 0
M  V30 4692 N 467.08 -0.0183926 -1.57589 0
M  V30 4693 C 468.043 0.951986 -2.08494 0
M  V30 4694 C 469.043 1.26092 -0.997874 0
M  V30 4695 O 470.233 1.20304 -1.25987 0
M  V30 4696 C 467.365 2.27165 -2.54182 0
M  V30 4697 H 468.558 0.511307 -2.95509 0
M  V30 4698 H 466.111 0.229444 -1.54607 0
M  V30 4699 H 466.846 2.75884 -1.70465 0
M  V30 4700 H 466.631 2.06057 -3.33591 0
M  V30 4701 H 468.121 2.9674 -2.93828 0
M  V30 4702 N 468.558 1.5553 0.254621 0
M  V30 4703 C 469.804 1.7818 0.980989 0
M  V30 4704 C 470.159 0.586059 1.83257 0
M  V30 4705 O 469.452 -0.420889 1.8692 0
M  V30 4706 C 469.646 3.03891 1.88109 0
M  V30 4707 C 469.475 4.35578 1.11812 0
M  V30 4708 C 468.245 4.98497 0.826343 0
M  V30 4709 C 470.443 5.11869 0.499486 0
M  V30 4710 N 468.425 6.13888 0.0385095 0
M  V30 4711 C 469.796 6.1981 -0.153292 0
M  V30 4712 C 471.851 4.96216 0.409175 0
M  V30 4713 C 470.554 7.13801 -0.8877 0
M  V30 4714 C 472.58 5.90578 -0.311683 0
M  V30 4715 C 471.942 6.97922 -0.953129 0
M  V30 4716 H 468.041 0.704057 0.340335 0
M  V30 4717 H 470.625 1.93025 0.254855 0
M  V30 4718 H 468.796 2.90389 2.57932 0
M  V30 4719 H 470.528 3.14869 2.54244 0
M  V30 4720 H 467.283 4.59769 1.13621 0
M  V30 4721 H 467.707 6.76129 -0.343275 0
M  V30 4722 H 472.349 4.1331 0.890765 0
M  V30 4723 H 470.067 7.96214 -1.38092 0
M  V30 4724 H 473.653 5.80544 -0.382125 0
M  V30 4725 H 472.533 7.69681 -1.50203 0
M  V30 4726 N 470.036 -0.519951 1.48776 0
M  V30 4727 C 470.986 -1.61995 1.60442 0
M  V30 4728 C 471.97 -1.54155 0.460991 0
M  V30 4729 O 473.162 -1.62006 0.712965 0
M  V30 4730 C 470.291 -3.00683 1.65664 0
M  V30 4731 C 469.377 -3.1359 2.8552 0
M  V30 4732 N 469.768 -2.96441 4.09825 0
M  V30 4733 C 468.066 -3.44662 2.83062 0
M  V30 4734 C 468.767 -3.1303 4.90293 0
M  V30 4735 N 467.743 -3.41058 4.23297 0
M  V30 4736 H 471.545 -1.47362 2.54287 0
M  V30 4737 H 469.059 -0.725649 1.45286 0
M  V30 4738 H 471.056 -3.79712 1.72117 0
M  V30 4739 H 469.716 -3.16401 0.729425 0
M  V30 4740 H 470.727 -2.72999 4.40104 0
M  V30 4741 H 467.404 -3.66675 1.9964 0
M  V30 4742 H 468.794 -3.04424 5.98979 0
M  V30 4743 N 471.514 -1.37532 -0.769588 0
M  V30 4744 C 472.791 -1.23392 -1.51768 0
M  V30 4745 C 473.171 0.17157 -2.10402 0
M  V30 4746 O 472.519 1.17943 -1.95708 0
M  V30 4747 C 472.729 -2.33163 -2.59685 0
M  V30 4748 C 474.077 -2.70809 -3.27028 0
M  V30 4749 O 475.101 -2.32355 -2.69981 0
M  V30 4750 O 473.96 -3.37066 -4.30173 0
M  V30 4751 H 471.054 -0.481617 -0.67229 0
M  V30 4752 H 473.6 -1.49318 -0.806368 0
M  V30 4753 H 472.372 -3.27273 -2.14494 0
M  V30 4754 H 471.995 -2.08713 -3.38415 0
M  V30 4755 N 472.992 0.995999 -1.22138 0
M  V30 4756 C 474.408 1.25917 -0.980667 0
M  V30 4757 C 474.608 1.98819 0.327604 0
M  V30 4758 O 473.664 2.29587 1.05101 0
M  V30 4759 C 474.977 2.07399 -2.17729 0
M  V30 4760 C 476.525 2.20594 -2.22052 0
M  V30 4761 C 477 3.05462 -3.41258 0
M  V30 4762 N 478.491 3.13049 -3.41401 0
M  V30 4763 C 479.226 3.78997 -4.30289 0
M  V30 4764 N 478.722 4.46899 -5.2939 0
M  V30 4765 N 480.515 3.75728 -4.18073 0
M  V30 4766 H 472.666 0.507158 -2.06256 0
M  V30 4767 H 474.929 0.28658 -0.903646 0
M  V30 4768 H 474.635 1.61191 -3.12586 0
M  V30 4769 H 474.509 3.08154 -2.17534 0
M  V30 4770 H 476.896 2.66017 -1.27745 0
M  V30 4771 H 476.977 1.1928 -2.26287 0
M  V30 4772 H 476.621 2.60739 -4.35864 0
M  V30 4773 H 476.551 4.06911 -3.34262 0
M  V30 4774 H 479.042 2.64721 -2.69688 0
M  V30 4775 H 479.355 4.94952 -5.935 0
M  V30 4776 H 477.7 4.45657 -5.33306 0
M  V30 4777 H 480.891 3.2184 -3.39907 0
M  V30 4778 H 481.064 4.26845 -4.87553 0
M  V30 4779 N 474.47 1.03057 1.19235 0
M  V30 4780 C 475.716 0.729098 1.89241 0
M  V30 4781 C 476.049 -0.740573 1.79525 0
M  V30 4782 O 475.324 -1.53946 1.18874 0
M  V30 4783 C 475.607 1.18304 3.40112 0
M  V30 4784 C 475.46 2.71406 3.5869 0
M  V30 4785 C 476.779 0.765161 4.33397 0
M  V30 4786 H 473.898 0.266338 0.687192 0
M  V30 4787 H 476.54 1.28079 1.40341 0
M  V30 4788 H 474.69 0.713672 3.81889 0
M  V30 4789 H 476.362 3.26303 3.26074 0
M  V30 4790 H 474.605 3.11717 3.01687 0
M  V30 4791 H 475.276 2.98225 4.64506 0
M  V30 4792 H 477.752 1.16889 3.99345 0
M  V30 4793 H 476.628 1.11065 5.37546 0
M  V30 4794 H 476.889 -0.332372 4.40849 0
M  V30 4795 N 475.948 -1.35272 0.808662 0
M  V30 4796 C 476.878 -2.32315 0.234981 0
M  V30 4797 C 477.859 -1.57572 -0.64071 0
M  V30 4798 O 479.044 -1.8563 -0.570551 0
M  V30 4799 C 476.174 -3.41801 -0.615601 0
M  V30 4800 C 475.128 -4.27694 0.161767 0
M  V30 4801 C 474.454 -5.28519 -0.810649 0
M  V30 4802 C 475.754 -5.04231 1.36193 0
M  V30 4803 H 477.448 -2.80543 1.04575 0
M  V30 4804 H 474.994 -1.3488 0.504315 0
M  V30 4805 H 476.947 -4.08693 -1.02702 0
M  V30 4806 H 475.671 -2.92186 -1.45928 0
M  V30 4807 H 474.33 -3.62384 0.554382 0
M  V30 4808 H 473.978 -4.75171 -1.64988 0
M  V30 4809 H 473.678 -5.8686 -0.294822 0
M  V30 4810 H 475.202 -5.98283 -1.22023 0
M  V30 4811 H 476.616 -5.64058 1.02528 0
M  V30 4812 H 475.013 -5.72077 1.81239 0
M  V30 4813 H 476.083 -4.34753 2.14751 0
M  V30 4814 N 477.426 -0.562348 -1.47226 0
M  V30 4815 C 478.654 -0.0452275 -2.06851 0
M  V30 4816 C 479.069 1.25078 -1.41424 0
M  V30 4817 O 478.426 1.75156 -0.512513 0
M  V30 4818 C 478.477 0.148674 -3.61194 0
M  V30 4819 O 478.198 -1.09602 -4.24169 0
M  V30 4820 C 479.699 0.702488 -4.37699 0
M  V30 4821 H 476.919 -0.0481775 -0.669268 0
M  V30 4822 H 479.463 -0.777223 -1.89155 0
M  V30 4823 H 477.618 0.830817 -3.78386 0
M  V30 4824 H 478.032 -0.896982 -5.16773 0
M  V30 4825 H 479.506 0.78743 -5.46355 0
M  V30 4826 H 479.983 1.71493 -4.04335 0
M  V30 4827 H 480.589 0.0558772 -4.25263 0
M  V30 4828 N 478.904 1.54736 -0.299062 0
M  V30 4829 C 480.153 1.99279 0.311549 0
M  V30 4830 C 480.466 1.19107 1.55154 0
M  V30 4831 O 481.672 1.53908 2.23662 0
M  V30 4832 C 480.128 3.54768 0.605632 0
M  V30 4833 C 479.736 4.43746 -0.615914 0
M  V30 4834 C 481.48 4.07841 1.17754 0
M  V30 4835 C 479.387 5.90663 -0.29509 0
M  V30 4836 H 478.317 0.744359 0.120187 0
M  V30 4837 H 480.968 1.78919 -0.407464 0
M  V30 4838 H 479.35 3.71021 1.38419 0
M  V30 4839 H 480.524 4.39267 -1.39218 0
M  V30 4840 H 478.839 4.01434 -1.10633 0
M  V30 4841 H 481.436 5.15174 1.43179 0
M  V30 4842 H 481.779 3.58324 2.11918 0
M  V30 4843 H 482.312 3.95123 0.460739 0
M  V30 4844 H 479.051 6.44325 -1.20524 0
M  V30 4845 H 478.571 5.98155 0.44394 0
M  V30 4846 H 480.25 6.46916 0.104048 0
M  V30 4847 N 480.382 0.0267497 1.57577 0
M  V30 4848 C 481.292 -0.971633 2.13533 0
M  V30 4849 C 482.308 -1.35868 1.08701 0
M  V30 4850 O 483.484 -1.44058 1.40746 0
M  V30 4851 C 480.549 -2.23622 2.64941 0
M  V30 4852 C 479.61 -1.90982 3.8448 0
M  V30 4853 C 478.843 -3.11411 4.33427 0
M  V30 4854 O 479.066 -4.23992 3.81558 0
M  V30 4855 O 478 -2.93848 5.25297 0
M  V30 4856 H 481.826 -0.525853 2.99113 0
M  V30 4857 H 479.411 -0.193712 1.48139 0
M  V30 4858 H 481.293 -2.97864 2.98086 0
M  V30 4859 H 479.968 -2.67386 1.82446 0
M  V30 4860 H 478.875 -1.14132 3.56265 0
M  V30 4861 H 480.208 -1.52036 4.6813 0
M  V30 4862 N 481.861 -1.55662 -0.24637 0
M  V30 4863 C 482.791 -1.93377 -1.30873 0
M  V30 4864 C 483.772 -0.798773 -1.50179 0
M  V30 4865 O 484.957 -1.0591 -1.62778 0
M  V30 4866 C 482.087 -2.22893 -2.66338 0
M  V30 4867 C 481.041 -3.38649 -2.61727 0
M  V30 4868 C 480.367 -3.53708 -4.00992 0
M  V30 4869 C 481.667 -4.74323 -2.18666 0
M  V30 4870 H 483.361 -2.82363 -0.995552 0
M  V30 4871 H 480.907 -1.35854 -0.477464 0
M  V30 4872 H 482.86 -2.47866 -3.40794 0
M  V30 4873 H 481.584 -1.30733 -2.99293 0
M  V30 4874 H 480.243 -3.13685 -1.89729 0
M  V30 4875 H 479.891 -2.58967 -4.31214 0
M  V30 4876 H 479.591 -4.31551 -3.98795 0
M  V30 4877 H 481.115 -3.81003 -4.77147 0
M  V30 4878 H 482.529 -4.98665 -2.82854 0
M  V30 4879 H 480.926 -5.55273 -2.27579 0
M  V30 4880 H 481.996 -4.71349 -1.13834 0
M  V30 4881 N 483.339 0.512053 -1.4905 0
M  V30 4882 C 484.287 1.63568 -1.65373 0
M  V30 4883 C 485.281 1.61228 -0.519806 0
M  V30 4884 O 486.487 1.65869 -0.699101 0
M  V30 4885 H 482.862 0.542019 -0.521267 0
M  V30 4886 H 484.833 1.4695 -2.59708 0
M  V30 4887 C 483.582 3.01761 -1.7273 0
M  V30 4888 H 482.905 3.04263 -2.59353 0
M  V30 4889 H 484.345 3.79948 -1.8819 0
M  V30 4890 C 482.804 3.33609 -0.46973 0
M  V30 4891 O 483.334 3.99607 0.409492 0
M  V30 4892 N 481.54 2.88651 -0.336003 0
M  V30 4893 H 481.087 2.35119 -1.05247 0
M  V30 4894 H 481.045 3.10328 0.504363 0
M  V30 4895 N 484.817 1.37938 0.762283 0
M  V30 4896 C 485.78 1.34279 1.85747 0
M  V30 4897 C 486.78 0.244969 1.58923 0
M  V30 4898 O 487.97 0.501365 1.66829 0
M  V30 4899 C 485.102 1.08833 3.23061 0
M  V30 4900 H 486.295 2.31705 1.90401 0
M  V30 4901 H 483.848 1.23105 0.963057 0
M  V30 4902 H 484.583 0.119767 3.24079 0
M  V30 4903 H 484.368 1.88306 3.43923 0
M  V30 4904 H 485.858 1.08946 4.03138 0
M  V30 4905 N 486.295 -0.989507 1.22664 0
M  V30 4906 C 487.541 -1.7321 1.05481 0
M  V30 4907 C 487.874 -1.89852 -0.408635 0
M  V30 4908 O 487.149 -1.44416 -1.30285 0
M  V30 4909 C 487.432 -3.1357 1.77047 0
M  V30 4910 C 487.285 -3.04555 3.31008 0
M  V30 4911 C 488.604 -4.12812 1.5256 0
M  V30 4912 H 485.723 -0.628697 0.384589 0
M  V30 4913 H 488.365 -1.15258 1.51049 0
M  V30 4914 H 486.515 -3.63046 1.3831 0
M  V30 4915 H 488.187 -2.62674 3.7921 0
M  V30 4916 H 486.43 -2.41278 3.6051 0
M  V30 4917 H 487.101 -4.03894 3.76263 0
M  V30 4918 H 489.577 -3.72106 1.86215 0
M  V30 4919 H 488.453 -5.09132 2.05124 0
M  V30 4920 H 488.714 -4.39711 0.458936 0
M  V30 4921 N 487.773 -1.03688 -1.18687 0
M  V30 4922 C 489.001 -0.757918 -1.92518 0
M  V30 4923 C 489.416 0.684398 -1.75959 0
M  V30 4924 O 488.773 1.46617 -1.08673 0
M  V30 4925 C 488.824 -1.10985 -3.44042 0
M  V30 4926 O 488.545 -2.49554 -3.60076 0
M  V30 4927 C 490.046 -0.854844 -4.3498 0
M  V30 4928 H 487.266 -0.276699 -0.611293 0
M  V30 4929 H 489.81 -1.38352 -1.50595 0
M  V30 4930 H 487.965 -0.529279 -3.83767 0
M  V30 4931 H 488.379 -2.6291 -4.53849 0
M  V30 4932 H 489.853 -1.15098 -5.39867 0
M  V30 4933 H 490.33 0.210507 -4.38695 0
M  V30 4934 H 490.936 -1.41853 -4.00946 0
M  V30 4935 N 489.251 1.34841 -0.815825 0
M  V30 4936 C 490.528 1.92908 -0.323416 0
M  V30 4937 C 490.908 1.74479 1.18828 0
M  V30 4938 O 490.256 1.11928 1.99209 0
M  V30 4939 C 490.466 3.40957 -0.744952 0
M  V30 4940 C 491.814 4.18107 -0.739716 0
M  V30 4941 O 492.838 3.49511 -0.68708 0
M  V30 4942 O 491.697 5.40517 -0.806456 0
M  V30 4943 H 488.791 0.822436 -0.0867646 0
M  V30 4944 H 491.337 1.4386 -0.90014 0
M  V30 4945 H 490.109 3.4814 -1.78646 0
M  V30 4946 H 489.732 3.97341 -0.143535 0
M  V30 4947 N 490.729 0.570148 1.46925 0
M  V30 4948 C 491.677 -0.183181 2.31878 0
M  V30 4949 C 492.671 -0.896721 1.43719 0
M  V30 4950 O 493.877 -0.816536 1.60414 0
M  V30 4951 H 490.252 -0.077944 0.74795 0
M  V30 4952 H 492.223 0.552312 2.93244 0
M  V30 4953 C 490.972 -1.19172 3.2664 0
M  V30 4954 H 490.295 -0.652088 3.94446 0
M  V30 4955 H 491.735 -1.68946 3.88887 0
M  V30 4956 C 490.194 -2.24627 2.51086 0
M  V30 4957 O 490.724 -3.31773 2.26472 0
M  V30 4958 N 488.93 -1.98898 2.11867 0
M  V30 4959 H 488.477 -1.11777 2.32086 0
M  V30 4960 H 488.435 -2.6967 1.61634 0
M  V30 4961 N 492.207 -1.54576 0.307264 0
M  V30 4962 C 493.618 -1.8579 -0.184121 0
M  V30 4963 C 493.969 -1.22914 -1.52927 0
M  V30 4964 O 493.094 -0.529126 -2.09831 0
M  V30 4965 C 493.689 -3.37081 -0.340862 0
M  V30 4966 C 492.248 -3.68304 -0.776465 0
M  V30 4967 C 491.395 -2.77076 0.111503 0
M  V30 4968 H 494.346 -1.49656 0.528078 0
M  V30 4969 H 494.367 -3.61922 -1.17443 0
M  V30 4970 H 493.879 -3.82815 0.638309 0
M  V30 4971 H 491.98 -3.28092 -1.76596 0
M  V30 4972 H 492.093 -4.75434 -0.591512 0
M  V30 4973 H 490.457 -2.51374 -0.410256 0
M  V30 4974 H 491.24 -3.25632 1.08714 0
M  V30 4975 N 493.685 -0.035106 -1.57561 0
M  V30 4976 C 494.931 0.64318 -1.92331 0
M  V30 4977 C 495.264 1.71434 -0.912368 0
M  V30 4978 O 494.539 1.94395 0.0640303 0
M  V30 4979 C 494.822 1.25411 -3.37556 0
M  V30 4980 C 494.675 0.192109 -4.4939 0
M  V30 4981 C 495.994 2.17041 -3.82859 0
M  V30 4982 H 493.113 0.232341 -0.699419 0
M  V30 4983 H 495.755 -0.0935889 -1.89769 0
M  V30 4984 H 493.905 1.88205 -3.39869 0
M  V30 4985 H 495.577 -0.438849 -4.59208 0
M  V30 4986 H 493.82 -0.481725 -4.31117 0
M  V30 4987 H 494.491 0.659292 -5.48049 0
M  V30 4988 H 496.967 1.64228 -3.8232 0
M  V30 4989 H 495.843 2.56738 -4.85157 0
M  V30 4990 H 496.104 3.06401 -3.18702 0
M  V30 4991 N 495.163 1.55791 0.238111 0
M  V30 4992 C 496.41 1.78033 0.964907 0
M  V30 4993 C 496.738 0.600984 1.84982 0
M  V30 4994 O 495.993 -0.41536 1.91241 0
M  V30 4995 C 496.292 3.05869 1.84875 0
M  V30 4996 C 495.958 4.36808 1.11846 0
M  V30 4997 C 494.62 4.72388 0.916662 0
M  V30 4998 C 496.972 5.17717 0.60151 0
M  V30 4999 C 494.3 5.86406 0.185756 0
M  V30 5000 C 496.652 6.32494 -0.115972 0
M  V30 5001 C 495.316 6.66688 -0.329168 0
M  V30 5002 H 494.586 0.651469 0.353085 0
M  V30 5003 H 497.233 1.90061 0.234318 0
M  V30 5004 H 495.538 2.88891 2.64668 0
M  V30 5005 H 497.235 3.20278 2.41294 0
M  V30 5006 H 493.825 4.08862 1.28569 0
M  V30 5007 H 498.009 4.90678 0.744932 0
M  V30 5008 H 493.265 6.11399 0.0101886 0
M  V30 5009 H 497.439 6.94425 -0.524127 0
M  V30 5010 H 495.066 7.54884 -0.897474 0
M  V30 5011 N 496.642 -0.504142 1.49319 0
M  V30 5012 C 498.053 -1.08572 1.51885 0
M  V30 5013 C 498.404 -1.93842 0.303255 0
M  V30 5014 O 497.529 -2.0828 -0.58724 0
M  V30 5015 C 498.124 -1.97574 2.75227 0
M  V30 5016 C 496.683 -2.509 2.80581 0
M  V30 5017 C 495.83 -1.28447 2.45757 0
M  V30 5018 H 498.781 -0.288194 1.56061 0
M  V30 5019 H 498.802 -2.82219 2.55211 0
M  V30 5020 H 498.314 -1.35486 3.63683 0
M  V30 5021 H 496.415 -3.16636 1.96398 0
M  V30 5022 H 496.528 -2.88268 3.82673 0
M  V30 5023 H 494.892 -1.60868 1.97468 0
M  V30 5024 H 495.675 -0.68072 3.36483 0
M  V30 5025 N 498.12 -1.38341 -0.754957 0
M  V30 5026 C 499.531 -1.30803 -1.3322 0
M  V30 5027 C 499.882 0.0368 -1.96165 0
M  V30 5028 O 499.007 0.938844 -1.94974 0
M  V30 5029 C 499.602 -2.3688 -2.42225 0
M  V30 5030 C 498.161 -2.32925 -2.95674 0
M  V30 5031 C 497.308 -2.19819 -1.69042 0
M  V30 5032 H 500.259 -1.48719 -0.553937 0
M  V30 5033 H 500.28 -2.02517 -3.22129 0
M  V30 5034 H 499.792 -3.34747 -1.96383 0
M  V30 5035 H 497.893 -1.38635 -3.45848 0
M  V30 5036 H 498.006 -3.27008 -3.50146 0
M  V30 5037 H 496.37 -1.66648 -1.92615 0
M  V30 5038 H 497.153 -3.19625 -1.25279 0
M  V30 5039 N 499.598 0.982988 -1.23187 0
M  V30 5040 C 500.875 1.69814 -0.970707 0
M  V30 5041 C 501.255 2.04811 0.511424 0
M  V30 5042 O 500.603 1.73924 1.48198 0
M  V30 5043 C 500.813 2.94143 -1.87831 0
M  V30 5044 C 502.161 3.66712 -2.14026 0
M  V30 5045 O 503.185 3.04171 -1.8536 0
M  V30 5046 O 502.044 4.79258 -2.62629 0
M  V30 5047 H 499.138 0.741659 -0.365884 0
M  V30 5048 H 501.684 1.03844 -1.34218 0
M  V30 5049 H 500.456 2.64858 -2.88038 0
M  V30 5050 H 500.079 3.6785 -1.50905 0
M  V30 5051 N 501.076 1.04316 1.18135 0
M  V30 5052 C 502.324 0.746542 1.87806 0
M  V30 5053 C 502.645 -0.728082 1.80898 0
M  V30 5054 O 501.915 -1.52554 1.22899 0
M  V30 5055 H 500.495 0.273157 0.695265 0
M  V30 5056 H 503.157 1.32044 1.43354 0
M  V30 5057 H 502.253 1.05362 2.93778 0
M  V30 5058 N 502.554 -1.34406 0.822964 0
M  V30 5059 C 503.779 -2.0304 0.423034 0
M  V30 5060 C 504.204 -1.61568 -0.963196 0
M  V30 5061 O 503.562 -0.800339 -1.62678 0
M  V30 5062 C 503.61 -3.56636 0.53321 0
M  V30 5063 O 502.714 -4.09971 -0.446939 0
M  V30 5064 H 502.055 -0.64075 0.174171 0
M  V30 5065 H 504.585 -1.71653 1.11339 0
M  V30 5066 H 504.595 -4.05945 0.408991 0
M  V30 5067 H 503.27 -3.86168 1.54425 0
M  V30 5068 H 501.847 -3.71835 -0.281601 0
M  V30 5069 N 504.032 -0.577932 -1.46621 0
M  V30 5070 C 505.278 -0.0617793 -2.02706 0
M  V30 5071 C 505.611 1.29294 -1.44903 0
M  V30 5072 O 504.886 1.8461 -0.61232 0
M  V30 5073 C 505.169 0.00911824 -3.60099 0
M  V30 5074 C 505.022 -1.37416 -4.28295 0
M  V30 5075 C 506.341 0.712159 -4.343 0
M  V30 5076 H 503.46 -0.0239246 -0.736612 0
M  V30 5077 H 506.102 -0.744211 -1.74818 0
M  V30 5078 H 504.252 0.590292 -3.83989 0
M  V30 5079 H 505.924 -2.00013 -4.15683 0
M  V30 5080 H 504.167 -1.94319 -3.87843 0
M  V30 5081 H 504.838 -1.27707 -5.37024 0
M  V30 5082 H 507.314 0.218486 -4.15526 0
M  V30 5083 H 506.19 0.730782 -5.44014 0
M  V30 5084 H 506.451 1.77251 -4.05012 0
M  V30 5085 N 505.51 1.54411 -0.315457 0
M  V30 5086 C 506.921 1.85885 0.174265 0
M  V30 5087 C 507.272 1.23723 1.52273 0
M  V30 5088 O 506.397 0.540246 2.09548 0
M  V30 5089 C 506.992 3.37257 0.322981 0
M  V30 5090 C 505.551 3.68711 0.756922 0
M  V30 5091 C 504.698 2.77013 -0.126195 0
M  V30 5092 H 507.649 1.49374 -0.536007 0
M  V30 5093 H 507.67 3.62539 1.15522 0
M  V30 5094 H 507.182 3.82471 -0.658602 0
M  V30 5095 H 505.283 3.29024 1.74854 0
M  V30 5096 H 505.396 4.75741 0.566291 0
M  V30 5097 H 503.76 2.51588 0.39692 0
M  V30 5098 H 504.543 3.25051 -1.1044 0
M  V30 5099 N 506.988 0.0434614 1.5754 0
M  V30 5100 C 507.951 -0.918696 2.09982 0
M  V30 5101 C 508.951 -1.24488 1.01781 0
M  V30 5102 O 510.141 -1.18284 1.27885 0
M  V30 5103 C 507.273 -2.23093 2.57764 0
M  V30 5104 H 508.466 -0.464229 2.96285 0
M  V30 5105 H 506.019 -0.204818 1.54952 0
M  V30 5106 H 506.754 -2.73137 1.74832 0
M  V30 5107 H 506.539 -2.00724 3.36827 0
M  V30 5108 H 508.029 -2.92028 2.98512 0
M  V30 5109 N 508.466 -1.55915 -0.229846 0
M  V30 5110 C 509.396 -1.94754 -1.28815 0
M  V30 5111 C 510.377 -0.814657 -1.49323 0
M  V30 5112 O 511.562 -1.07631 -1.61645 0
M  V30 5113 C 508.692 -2.25705 -2.63959 0
M  V30 5114 C 507.646 -3.41406 -2.5812 0
M  V30 5115 C 506.972 -3.57941 -3.97218 0
M  V30 5116 C 508.272 -4.76616 -2.13623 0
M  V30 5117 H 509.966 -2.83404 -0.965547 0
M  V30 5118 H 507.512 -1.36353 -0.463028 0
M  V30 5119 H 509.465 -2.51467 -3.38146 0
M  V30 5120 H 508.189 -1.339 -2.9789 0
M  V30 5121 H 506.848 -3.1568 -1.86391 0
M  V30 5122 H 506.496 -2.63526 -4.28443 0
M  V30 5123 H 506.196 -4.35757 -3.94195 0
M  V30 5124 H 507.72 -3.86042 -4.73079 0
M  V30 5125 H 509.134 -5.01637 -2.77549 0
M  V30 5126 H 507.531 -5.57655 -2.21677 0
M  V30 5127 H 508.601 -4.7253 -1.08829 0
M  V30 5128 N 509.944 0.496216 -1.49584 0
M  V30 5129 C 510.894 1.59422 -1.62999 0
M  V30 5130 C 511.878 1.53402 -0.485457 0
M  V30 5131 O 513.07 1.60851 -0.738649 0
M  V30 5132 C 510.199 2.98009 -1.70427 0
M  V30 5133 C 509.285 3.09008 -2.90473 0
M  V30 5134 N 509.676 2.89884 -4.14489 0
M  V30 5135 C 507.974 3.40115 -2.8851 0
M  V30 5136 C 508.675 3.0519 -4.95211 0
M  V30 5137 N 507.651 3.3428 -4.2867 0
M  V30 5138 H 511.453 1.43297 -2.56599 0
M  V30 5139 H 508.967 0.702443 -1.46422 0
M  V30 5140 H 510.964 3.76926 -1.78136 0
M  V30 5141 H 509.624 3.152 -0.77967 0
M  V30 5142 H 510.635 2.65963 -4.44392 0
M  V30 5143 H 507.312 3.63452 -2.05448 0
M  V30 5144 H 508.702 2.94856 -6.03746 0
M  V30 5145 N 511.423 1.38739 0.74761 0
M  V30 5146 C 512.671 1.35007 1.50391 0
M  V30 5147 C 512.992 -0.0574274 1.94915 0
M  V30 5148 O 512.262 -1.00628 1.6808 0
M  V30 5149 H 510.842 0.496784 0.557866 0
M  V30 5150 H 513.504 1.73479 0.888319 0
M  V30 5151 H 512.6 2.00474 2.392 0
M  V30 5152 N 512.901 -0.976442 1.23707 0
M  V30 5153 C 514.149 -1.71487 1.06942 0
M  V30 5154 C 514.47 -1.9098 -0.393897 0
M  V30 5155 O 513.74 -1.48128 -1.28198 0
M  V30 5156 H 512.32 -0.635425 0.392739 0
M  V30 5157 H 514.982 -1.17515 1.55487 0
M  V30 5158 H 514.078 -2.70286 1.56051 0
M  V30 5159 N 514.379 -1.04941 -1.1758 0
M  V30 5160 C 515.327 -0.64204 -2.23563 0
M  V30 5161 C 516.321 0.335453 -1.66045 0
M  V30 5162 O 517.527 0.20179 -1.78865 0
M  V30 5163 H 513.902 -0.18944 -0.727748 0
M  V30 5164 H 515.873 -1.54609 -2.55223 0
M  V30 5165 C 514.622 -0.0301051 -3.47687 0
M  V30 5166 H 513.945 -0.773339 -3.92249 0
M  V30 5167 H 515.385 0.217592 -4.23441 0
M  V30 5168 C 513.844 1.2225 -3.13937 0
M  V30 5169 O 514.374 2.3122 -3.28482 0
M  V30 5170 N 512.58 1.11917 -2.68185 0
M  V30 5171 H 512.127 0.232403 -2.5655 0
M  V30 5172 H 512.085 1.95814 -2.45976 0
M  V30 5173 N 515.857 1.33968 -0.830081 0
M  V30 5174 C 517.104 1.98063 -0.421566 0
M  V30 5175 C 517.432 1.65787 1.0171 0
M  V30 5176 O 516.687 0.925348 1.72441 0
M  V30 5177 C 516.986 3.52679 -0.57898 0
M  V30 5178 C 516.652 4.04884 -1.98443 0
M  V30 5179 C 515.314 4.18852 -2.36888 0
M  V30 5180 C 517.666 4.32879 -2.90285 0
M  V30 5181 C 514.994 4.58145 -3.66497 0
M  V30 5182 C 517.346 4.7362 -4.19364 0
M  V30 5183 C 516.01 4.85794 -4.57778 0
M  V30 5184 H 515.28 0.724765 -0.154262 0
M  V30 5185 H 517.927 1.59792 -1.05541 0
M  V30 5186 H 516.232 3.91556 0.138219 0
M  V30 5187 H 517.929 4.00261 -0.243317 0
M  V30 5188 H 514.519 3.9448 -1.67581 0
M  V30 5189 H 518.703 4.21619 -2.61823 0
M  V30 5190 H 513.959 4.65762 -3.96075 0
M  V30 5191 H 518.133 4.9424 -4.90612 0
M  V30 5192 H 515.76 5.15998 -5.58256 0
M  V30 5193 N 517.335 0.585699 1.46312 0
M  V30 5194 C 518.268 -0.194257 2.27372 0
M  V30 5195 C 519.246 -0.894116 1.3581 0
M  V30 5196 O 520.43 -0.907402 1.65222 0
M  V30 5197 C 517.557 -1.27901 3.13622 0
M  V30 5198 C 516.603 -0.684666 4.20969 0
M  V30 5199 S 517.436 0.490745 5.33247 0
M  V30 5200 C 518.592 -0.595137 6.23064 0
M  V30 5201 H 518.825 0.493515 2.93175 0
M  V30 5202 H 516.358 0.372666 1.49835 0
M  V30 5203 H 518.316 -1.90008 3.63878 0
M  V30 5204 H 516.977 -1.93875 2.47126 0
M  V30 5205 H 516.17 -1.50015 4.81156 0
M  V30 5206 H 515.772 -0.139204 3.73741 0
M  V30 5207 H 518.064 -1.48002 6.61137 0
M  V30 5208 H 519.007 -0.0299446 7.08094 0
M  V30 5209 H 519.415 -0.900627 5.57269 0
M  V30 5210 N 518.813 -1.54241 0.323641 0
M  V30 5211 C 520.061 -2.00174 -0.278359 0
M  V30 5212 C 520.382 -1.2134 -1.52648 0
M  V30 5213 O 519.652 -0.315244 -1.93347 0
M  V30 5214 H 518.232 -0.739463 -0.105845 0
M  V30 5215 H 520.894 -1.89864 0.440204 0
M  V30 5216 H 519.99 -3.07486 -0.5347 0
M  V30 5217 N 520.291 -0.0518155 -1.57515 0
M  V30 5218 C 521.223 0.951542 -2.08515 0
M  V30 5219 C 522.236 1.27436 -1.01311 0
M  V30 5220 O 523.425 1.23504 -1.28876 0
M  V30 5221 C 520.525 2.27291 -2.5138 0
M  V30 5222 C 519.698 2.13191 -3.81927 0
M  V30 5223 C 518.757 3.28458 -4.11098 0
M  V30 5224 O 517.783 3.04334 -4.81009 0
M  V30 5225 N 518.985 4.52954 -3.63061 0
M  V30 5226 H 521.75 0.516242 -2.9522 0
M  V30 5227 H 519.311 0.13441 -1.61341 0
M  V30 5228 H 521.303 3.03272 -2.67971 0
M  V30 5229 H 519.873 2.62386 -1.69919 0
M  V30 5230 H 519.093 1.21798 -3.74912 0
M  V30 5231 H 520.381 2.00999 -4.67415 0
M  V30 5232 H 519.779 4.75444 -3.06545 0
M  V30 5233 H 518.336 5.26026 -3.84889 0
M  V30 5234 N 521.769 1.56035 0.221574 0
M  V30 5235 C 522.719 1.8881 1.27807 0
M  V30 5236 C 523.703 0.751177 1.42289 0
M  V30 5237 O 524.895 1.01359 1.45104 0
M  V30 5238 C 522.024 2.20828 2.6285 0
M  V30 5239 C 521.11 3.40912 2.52269 0
M  V30 5240 N 521.501 4.59531 2.1134 0
M  V30 5241 C 519.799 3.44526 2.83228 0
M  V30 5242 C 520.5 5.41689 2.1201 0
M  V30 5243 N 519.476 4.814 2.52497 0
M  V30 5244 H 523.278 2.78036 0.952529 0
M  V30 5245 H 520.792 1.566 0.430134 0
M  V30 5246 H 522.789 2.42483 3.39127 0
M  V30 5247 H 521.449 1.32914 2.9625 0
M  V30 5248 H 522.46 4.8469 1.82472 0
M  V30 5249 H 519.137 2.66956 3.21 0
M  V30 5250 H 520.527 6.46643 1.82491 0
M  V30 5251 N 523.247 -0.488276 1.49845 0
M  V30 5252 C 524.493 -1.24341 1.6021 0
M  V30 5253 C 524.826 -1.91967 0.293651 0
M  V30 5254 O 524.101 -1.81323 -0.703718 0
M  V30 5255 C 524.384 -2.3005 2.77036 0
M  V30 5256 C 524.237 -1.66842 4.17713 0
M  V30 5257 C 525.556 -3.31509 2.89464 0
M  V30 5258 H 522.675 -0.450704 0.583125 0
M  V30 5259 H 525.317 -0.539673 1.82174 0
M  V30 5260 H 523.467 -2.90071 2.58439 0
M  V30 5261 H 525.139 -1.1055 4.47858 0
M  V30 5262 H 523.382 -0.972079 4.22768 0
M  V30 5263 H 524.053 -2.43576 4.95353 0
M  V30 5264 H 526.529 -2.81493 3.06433 0
M  V30 5265 H 525.405 -4.02822 3.72861 0
M  V30 5266 H 525.666 -3.94603 1.99351 0
M  V30 5267 N 524.725 -1.39134 -0.740242 0
M  V30 5268 C 525.688 -1.37217 -1.83587 0
M  V30 5269 C 526.688 -0.270221 -1.58513 0
M  V30 5270 O 527.878 -0.527843 -1.6601 0
M  V30 5271 C 525.01 -1.13959 -3.21288 0
M  V30 5272 H 526.203 -2.34705 -1.86691 0
M  V30 5273 H 523.756 -1.24622 -0.94335 0
M  V30 5274 H 524.491 -0.17131 -3.23847 0
M  V30 5275 H 524.276 -1.93754 -3.40884 0
M  V30 5276 H 525.766 -1.15346 -4.01354 0
M  V30 5277 N 526.204 0.969867 -1.24223 0
M  V30 5278 C 527.134 2.08191 -1.05729 0
M  V30 5279 C 528.115 1.70075 0.0290765 0
M  V30 5280 O 529.3 1.93712 -0.137583 0
M  V30 5281 C 526.43 3.40991 -0.658995 0
M  V30 5282 C 525.384 3.93054 -1.69389 0
M  V30 5283 C 524.71 5.22171 -1.15072 0
M  V30 5284 C 526.01 4.21137 -3.08935 0
M  V30 5285 H 527.704 2.23921 -1.98746 0
M  V30 5286 H 525.25 1.07602 -0.956967 0
M  V30 5287 H 527.203 4.18221 -0.51662 0
M  V30 5288 H 525.927 3.25155 0.30686 0
M  V30 5289 H 524.586 3.17977 -1.82444 0
M  V30 5290 H 524.234 5.02694 -0.175539 0
M  V30 5291 H 523.934 5.57973 -1.84229 0
M  V30 5292 H 525.458 6.02013 -1.02042 0
M  V30 5293 H 526.872 4.8908 -2.99121 0
M  V30 5294 H 525.269 4.68163 -3.75425 0
M  V30 5295 H 526.339 3.27996 -3.57137 0
M  V30 5296 N 527.682 1.05563 1.17022 0
M  V30 5297 C 528.91 0.78845 1.91288 0
M  V30 5298 C 529.325 -0.656318 1.77025 0
M  V30 5299 O 528.682 -1.44869 1.10992 0
M  V30 5300 C 528.733 1.16444 3.42232 0
M  V30 5301 O 528.454 2.5525 3.5606 0
M  V30 5302 C 529.955 0.923937 4.33565 0
M  V30 5303 H 527.175 0.286389 0.606813 0
M  V30 5304 H 529.719 1.4073 1.48375 0
M  V30 5305 H 527.874 0.590266 3.82877 0
M  V30 5306 H 528.288 2.70097 4.49609 0
M  V30 5307 H 529.762 1.23672 5.37968 0
M  V30 5308 H 530.239 -0.140688 4.38975 0
M  V30 5309 H 530.845 1.48214 3.98639 0
M  V30 5310 N 529.16 -1.33526 0.837174 0
M  V30 5311 C 530.385 -2.0258 0.444545 0
M  V30 5312 C 530.81 -1.6258 -0.946006 0
M  V30 5313 O 530.168 -0.817548 -1.6182 0
M  V30 5314 C 530.216 -3.5605 0.571006 0
M  V30 5315 O 529.32 -4.10422 -0.403431 0
M  V30 5316 H 528.661 -0.638866 0.180958 0
M  V30 5317 H 531.191 -1.70462 1.13154 0
M  V30 5318 H 531.201 -4.05488 0.452024 0
M  V30 5319 H 529.876 -3.84509 1.58512 0
M  V30 5320 H 528.453 -3.72113 -0.242147 0
M  V30 5321 N 530.638 -0.59345 -1.46 0
M  V30 5322 C 531.915 -0.0157933 -1.95594 0
M  V30 5323 C 532.295 1.44807 -1.53604 0
M  V30 5324 O 531.643 2.14342 -0.791824 0
M  V30 5325 C 531.853 -0.199081 -3.48432 0
M  V30 5326 C 533.201 -0.0724943 -4.24538 0
M  V30 5327 O 534.225 -0.128469 -3.55968 0
M  V30 5328 O 533.084 0.0542426 -5.46473 0
M  V30 5329 H 530.178 0.043749 -0.825842 0
M  V30 5330 H 532.724 -0.662522 -1.56233 0
M  V30 5331 H 531.496 -1.21631 -3.71916 0
M  V30 5332 H 531.119 0.483576 -3.94648 0
M  V30 5333 N 532.116 1.54067 -0.331816 0
M  V30 5334 C 533.079 2.23275 0.517768 0
M  V30 5335 C 534.079 1.22897 1.03697 0
M  V30 5336 O 535.269 1.47419 0.928084 0
M  V30 5337 C 532.401 2.94326 1.72004 0
M  V30 5338 H 533.594 2.99773 -0.0873507 0
M  V30 5339 H 531.147 1.56079 -0.0830042 0
M  V30 5340 H 531.882 2.21986 2.36417 0
M  V30 5341 H 531.667 3.67941 1.35507 0
M  V30 5342 H 533.157 3.47031 2.32291 0
M  V30 5343 N 533.594 0.0601682 1.57485 0
M  V30 5344 C 534.524 -0.90889 2.15085 0
M  V30 5345 C 535.505 -1.31838 1.07484 0
M  V30 5346 O 536.69 -1.3915 1.35466 0
M  V30 5347 C 533.82 -2.18059 2.7031 0
M  V30 5348 C 532.774 -1.91088 3.82974 0
M  V30 5349 C 532.1 -3.24789 4.24754 0
M  V30 5350 C 533.4 -1.22535 5.07723 0
M  V30 5351 H 535.094 -0.429093 2.96309 0
M  V30 5352 H 532.64 -0.204952 1.42534 0
M  V30 5353 H 534.593 -2.86258 3.09248 0
M  V30 5354 H 533.317 -2.6826 1.8629 0
M  V30 5355 H 531.976 -1.25297 3.44523 0
M  V30 5356 H 531.624 -3.72809 3.37672 0
M  V30 5357 H 531.324 -3.07538 5.00694 0
M  V30 5358 H 532.848 -3.94205 4.66299 0
M  V30 5359 H 534.262 -1.80783 5.4405 0
M  V30 5360 H 532.659 -1.1558 5.88864 0
M  V30 5361 H 533.729 -0.202692 4.84476 0
M  V30 5362 N 535.072 -1.5615 -0.213296 0
M  V30 5363 C 536.035 -1.92249 -1.24792 0
M  V30 5364 C 537.035 -0.801828 -1.39382 0
M  V30 5365 O 538.225 -1.06948 -1.37506 0
M  V30 5366 C 535.357 -2.18056 -2.62039 0
M  V30 5367 H 536.55 -2.84793 -0.939845 0
M  V30 5368 H 534.103 -1.49559 -0.454062 0
M  V30 5369 H 534.838 -1.2809 -2.97932 0
M  V30 5370 H 534.623 -2.99703 -2.52825 0
M  V30 5371 H 536.113 -2.47051 -3.36683 0
M  V30 5372 N 536.55 0.480323 -1.50102 0
M  V30 5373 C 537.778 1.25657 -1.64371 0
M  V30 5374 C 538.193 1.86011 -0.323316 0
M  V30 5375 O 537.55 1.68803 0.693682 0
M  V30 5376 C 537.601 2.37197 -2.728 0
M  V30 5377 O 537.322 1.7932 -3.9972 0
M  V30 5378 C 538.823 3.2823 -2.9796 0
M  V30 5379 H 536.043 0.380369 -0.552775 0
M  V30 5380 H 538.587 0.574379 -1.96268 0
M  V30 5381 H 536.742 3.01208 -2.43623 0
M  V30 5382 H 537.156 2.52701 -4.59611 0
M  V30 5383 H 538.63 4.02725 -3.77513 0
M  V30 5384 H 539.107 3.86462 -2.08671 0
M  V30 5385 H 539.713 2.69964 -3.28633 0
M  V30 5386 N 538.028 1.39524 0.732853 0
M  V30 5387 C 538.991 1.38189 1.82857 0
M  V30 5388 C 539.991 0.278624 1.58368 0
M  V30 5389 O 541.181 0.536639 1.65728 0
M  V30 5390 C 538.313 1.15661 3.2068 0
M  V30 5391 H 539.506 2.35692 1.85444 0
M  V30 5392 H 537.059 1.2512 0.936728 0
M  V30 5393 H 537.794 0.188482 3.23752 0
M  V30 5394 H 537.579 1.95559 3.39852 0
M  V30 5395 H 539.069 1.17472 4.00737 0
M  V30 5396 N 539.506 -0.963266 1.24736 0
M  V30 5397 C 540.752 -1.70933 1.09131 0
M  V30 5398 C 541.085 -1.90676 -0.368273 0
M  V30 5399 O 540.36 -1.47147 -1.27193 0
M  V30 5400 C 540.643 -3.09744 1.83658 0
M  V30 5401 C 540.496 -2.97465 3.37394 0
M  V30 5402 C 541.815 -4.09483 1.61282 0
M  V30 5403 H 538.934 -0.620398 0.397838 0
M  V30 5404 H 541.576 -1.12028 1.53459 0
M  V30 5405 H 539.726 -3.60031 1.4598 0
M  V30 5406 H 541.398 -2.54571 3.84696 0
M  V30 5407 H 539.641 -2.33576 3.65547 0
M  V30 5408 H 540.312 -3.95822 3.84745 0
M  V30 5409 H 542.788 -3.68073 1.94066 0
M  V30 5410 H 541.664 -5.04666 2.15878 0
M  V30 5411 H 541.925 -4.38639 0.552102 0
M  V30 5412 N 540.985 -1.06182 -1.16461 0
M  V30 5413 C 542.213 -0.798583 -1.90867 0
M  V30 5414 C 542.628 0.646921 -1.77371 0
M  V30 5415 O 541.985 1.44279 -1.11758 0
M  V30 5416 C 542.036 -1.18258 -3.4161 0
M  V30 5417 O 541.757 -2.57135 -3.54701 0
M  V30 5418 C 543.258 -0.946917 -4.33069 0
M  V30 5419 H 540.478 -0.289603 -0.605286 0
M  V30 5420 H 543.022 -1.41515 -1.47627 0
M  V30 5421 H 541.177 -0.610562 -3.82558 0
M  V30 5422 H 541.591 -2.72477 -4.4817 0
M  V30 5423 H 543.065 -1.26523 -5.37304 0
M  V30 5424 H 543.542 0.117406 -4.39043 0
M  V30 5425 H 544.148 -1.50326 -3.97847 0
M  V30 5426 N 542.463 1.3308 -0.844243 0
M  V30 5427 C 543.709 1.97898 -0.443206 0
M  V30 5428 C 544.042 1.66699 0.99625 0
M  V30 5429 O 543.317 0.949704 1.69738 0
M  V30 5430 C 543.6 3.53801 -0.670606 0
M  V30 5431 C 543.453 3.94667 -2.15772 0
M  V30 5432 C 544.772 4.39936 -0.120226 0
M  V30 5433 H 541.891 0.718861 -0.162504 0
M  V30 5434 H 544.533 1.57633 -1.06075 0
M  V30 5435 H 542.683 3.88229 -0.14496 0
M  V30 5436 H 544.355 3.70469 -2.74865 0
M  V30 5437 H 542.598 3.44203 -2.6402 0
M  V30 5438 H 543.269 5.03275 -2.26757 0
M  V30 5439 H 545.745 4.12183 -0.5696 0
M  V30 5440 H 544.621 5.4803 -0.308984 0
M  V30 5441 H 544.882 4.31184 0.976347 0
M  V30 5442 N 543.941 0.601185 1.45683 0
M  V30 5443 C 544.871 -0.108824 2.33246 0
M  V30 5444 C 545.852 -0.865223 1.46451 0
M  V30 5445 O 547.037 -0.83704 1.75235 0
M  V30 5446 C 544.167 -1.11101 3.2905 0
M  V30 5447 C 543.121 -0.468244 4.25431 0
M  V30 5448 C 542.447 -1.57822 5.10878 0
M  V30 5449 C 543.747 0.606469 5.18767 0
M  V30 5450 H 545.441 0.622306 2.92861 0
M  V30 5451 H 542.987 0.300714 1.40825 0
M  V30 5452 H 544.94 -1.61622 3.89174 0
M  V30 5453 H 543.664 -1.87265 2.67581 0
M  V30 5454 H 542.323 0.0160484 3.66596 0
M  V30 5455 H 541.971 -2.32998 4.45781 0
M  V30 5456 H 541.671 -1.15369 5.76163 0
M  V30 5457 H 543.195 -2.08583 5.73869 0
M  V30 5458 H 544.609 0.185589 5.73 0
M  V30 5459 H 543.006 0.952381 5.92494 0
M  V30 5460 H 544.076 1.48559 4.61582 0
M  V30 5461 N 545.419 -1.53889 0.339982 0
M  V30 5462 C 546.382 -2.23547 -0.50592 0
M  V30 5463 C 547.382 -1.23445 -1.03044 0
M  V30 5464 O 548.572 -1.47909 -0.920253 0
M  V30 5465 C 545.704 -2.95234 -1.7044 0
M  V30 5466 H 546.897 -2.99722 0.103247 0
M  V30 5467 H 544.45 -1.56033 0.0912804 0
M  V30 5468 H 545.185 -2.23236 -2.35236 0
M  V30 5469 H 544.97 -3.68654 -1.33553 0
M  V30 5470 H 546.46 -3.48258 -2.30447 0
M  V30 5471 N 546.897 -0.0685191 -1.57451 0
M  V30 5472 C 548.145 0.60016 -1.92983 0
M  V30 5473 C 548.466 1.70348 -0.949028 0
M  V30 5474 O 547.736 1.959 0.00335647 0
M  V30 5475 H 546.316 0.224682 -0.712409 0
M  V30 5476 H 548.978 -0.125605 -1.94495 0
M  V30 5477 H 548.074 1.02759 -2.94698 0
M  V30 5478 N 548.375 1.56261 0.205012 0
M  V30 5479 C 549.305 1.96779 1.257 0
M  V30 5480 C 550.286 0.838309 1.48008 0
M  V30 5481 O 551.471 1.10189 1.59913 0
M  V30 5482 C 548.601 2.29876 2.60335 0
M  V30 5483 C 547.555 3.45469 2.52656 0
M  V30 5484 C 546.881 3.64215 3.91473 0
M  V30 5485 C 548.181 4.79954 2.06014 0
M  V30 5486 H 549.875 2.84904 0.920338 0
M  V30 5487 H 547.421 1.37072 0.441277 0
M  V30 5488 H 549.374 2.56814 3.34102 0
M  V30 5489 H 548.098 1.38622 2.95722 0
M  V30 5490 H 546.757 3.18605 1.81345 0
M  V30 5491 H 546.405 2.70309 4.24196 0
M  V30 5492 H 546.105 4.41973 3.87213 0
M  V30 5493 H 547.629 3.93519 4.66878 0
M  V30 5494 H 549.043 5.05989 2.69533 0
M  V30 5495 H 547.44 5.61111 2.12777 0
M  V30 5496 H 548.51 4.74201 1.01297 0
M  V30 5497 N 549.853 -0.472356 1.50355 0
M  V30 5498 C 550.816 -1.5529 1.68576 0
M  V30 5499 C 551.816 -1.50863 0.556511 0
M  V30 5500 O 553.006 -1.53505 0.823516 0
M  V30 5501 C 550.138 -2.94921 1.70981 0
M  V30 5502 H 551.331 -1.40451 2.64978 0
M  V30 5503 H 548.884 -0.698645 1.39816 0
M  V30 5504 H 549.619 -3.15204 0.762675 0
M  V30 5505 H 549.404 -2.99541 2.53017 0
M  V30 5506 H 550.894 -3.73372 1.87037 0
M  V30 5507 N 551.331 -1.39911 -0.725443 0
M  V30 5508 C 552.241 -1.41688 -1.8698 0
M  V30 5509 C 553.257 -0.310579 -1.71206 0
M  V30 5510 O 554.433 -0.55359 -1.93642 0
M  V30 5511 C 551.498 -1.26811 -3.22676 0
M  V30 5512 C 550.559 -2.47497 -3.50776 0
M  V30 5513 C 549.792 -2.3332 -4.79997 0
M  V30 5514 O 550.015 -1.34175 -5.54394 0
M  V30 5515 O 548.949 -3.22498 -5.08211 0
M  V30 5516 H 552.775 -2.38171 -1.88436 0
M  V30 5517 H 550.36 -1.21128 -0.874548 0
M  V30 5518 H 552.242 -1.20684 -4.03749 0
M  V30 5519 H 550.917 -0.334289 -3.21969 0
M  V30 5520 H 549.824 -2.59201 -2.69751 0
M  V30 5521 H 551.157 -3.39606 -3.5627 0
M  V30 5522 N 552.809 0.956637 -1.25245 0
M  V30 5523 C 554.225 1.22733 -1.02023 0
M  V30 5524 C 554.425 1.99761 0.264186 0
M  V30 5525 O 553.481 2.32814 0.977436 0
M  V30 5526 C 554.794 2.00367 -2.24217 0
M  V30 5527 C 556.342 2.13418 -2.28958 0
M  V30 5528 C 556.817 2.9445 -3.50803 0
M  V30 5529 N 558.308 3.02029 -3.51187 0
M  V30 5530 C 559.043 3.65116 -4.42129 0
M  V30 5531 N 558.539 4.2983 -5.43339 0
M  V30 5532 N 560.332 3.62237 -4.29815 0
M  V30 5533 H 552.483 0.441282 -2.07765 0
M  V30 5534 H 554.746 0.257686 -0.912306 0
M  V30 5535 H 554.452 1.51165 -3.17556 0
M  V30 5536 H 554.326 3.01077 -2.27228 0
M  V30 5537 H 556.713 2.61819 -1.36143 0
M  V30 5538 H 556.794 1.1202 -2.29968 0
M  V30 5539 H 556.438 2.46741 -4.43939 0
M  V30 5540 H 556.368 3.9607 -3.47039 0
M  V30 5541 H 558.859 2.56007 -2.77973 0
M  V30 5542 H 559.172 4.75819 -6.08947 0
M  V30 5543 H 557.517 4.28465 -5.47214 0
M  V30 5544 H 560.708 3.10863 -3.49974 0
M  V30 5545 H 560.881 4.11117 -5.00886 0
M  V30 5546 N 554.287 1.06798 1.15896 0
M  V30 5547 C 555.219 0.641263 2.20046 0
M  V30 5548 C 556.232 -0.303355 1.59949 0
M  V30 5549 O 557.421 -0.0935478 1.78255 0
M  V30 5550 C 554.521 -0.0794029 3.38807 0
M  V30 5551 C 553.694 0.879986 4.28457 0
M  V30 5552 C 552.753 0.197638 5.25829 0
M  V30 5553 O 551.779 0.836913 5.63014 0
M  V30 5554 N 552.981 -1.05886 5.70761 0
M  V30 5555 H 555.746 1.53718 2.57276 0
M  V30 5556 H 553.307 0.951951 1.30956 0
M  V30 5557 H 555.299 -0.546418 4.00994 0
M  V30 5558 H 553.869 -0.877193 3.0004 0
M  V30 5559 H 553.089 1.52625 3.63454 0
M  V30 5560 H 554.377 1.53065 4.8523 0
M  V30 5561 H 553.775 -1.59828 5.42652 0
M  V30 5562 H 552.332 -1.46965 6.35015 0
M  V30 5563 N 555.766 -1.3263 0.851289 0
M  V30 5564 C 557.015 -1.96633 0.449267 0
M  V30 5565 C 557.328 -1.68131 -0.999562 0
M  V30 5566 O 558.534 -2.25845 -1.50685 0
M  V30 5567 C 556.99 -3.51946 0.752446 0
M  V30 5568 C 556.598 -3.89311 2.21678 0
M  V30 5569 C 558.342 -4.22437 0.417983 0
M  V30 5570 C 556.249 -5.37655 2.46336 0
M  V30 5571 H 555.179 -0.735888 0.164269 0
M  V30 5572 H 557.83 -1.51073 1.0416 0
M  V30 5573 H 556.212 -3.95899 0.0895858 0
M  V30 5574 H 557.386 -3.56378 2.92115 0
M  V30 5575 H 555.701 -3.31836 2.51543 0
M  V30 5576 H 558.298 -5.31549 0.579674 0
M  V30 5577 H 558.641 -4.11349 -0.640115 0
M  V30 5578 H 559.174 -3.84057 1.03659 0
M  V30 5579 H 555.913 -5.5376 3.50757 0
M  V30 5580 H 555.433 -5.72005 1.80473 0
M  V30 5581 H 557.112 -6.04695 2.30115 0
M  V30 5582 N 557.244 -0.608902 -1.45362 0
M  V30 5583 C 558.207 0.0992563 -2.28985 0
M  V30 5584 C 559.207 0.793841 -1.39838 0
M  V30 5585 O 560.397 0.641804 -1.61946 0
M  V30 5586 C 557.529 1.15073 -3.20891 0
M  V30 5587 H 558.722 -0.635964 -2.93079 0
M  V30 5588 H 556.275 -0.368007 -1.51906 0
M  V30 5589 H 557.01 1.91667 -2.616 0
M  V30 5590 H 556.795 0.656867 -3.86559 0
M  V30 5591 H 558.285 1.64665 -3.83765 0
M  V30 5592 N 558.722 1.53707 -0.348139 0
M  V30 5593 C 560.138 1.596 0.00361134 0
M  V30 5594 C 560.338 1.36394 1.4832 0
M  V30 5595 O 559.394 1.16046 2.24253 0
M  V30 5596 C 560.707 2.97512 -0.436682 0
M  V30 5597 C 562.255 3.10568 -0.389416 0
M  V30 5598 C 562.73 4.50866 -0.805249 0
M  V30 5599 N 564.221 4.56929 -0.759616 0
M  V30 5600 C 564.956 5.63643 -1.05327 0
M  V30 5601 N 564.452 6.78189 -1.41531 0
M  V30 5602 N 566.245 5.5354 -0.977207 0
M  V30 5603 H 558.396 1.67044 -1.31187 0
M  V30 5604 H 560.659 0.782559 -0.535075 0
M  V30 5605 H 560.365 3.19575 -1.46849 0
M  V30 5606 H 560.239 3.76742 0.185744 0
M  V30 5607 H 562.626 2.88226 0.633228 0
M  V30 5608 H 562.707 2.33387 -1.04711 0
M  V30 5609 H 562.351 4.73943 -1.82593 0
M  V30 5610 H 562.281 5.26452 -0.124989 0
M  V30 5611 H 564.772 3.74675 -0.49265 0
M  V30 5612 H 565.085 7.55541 -1.62411 0
M  V30 5613 H 563.43 6.79624 -1.45381 0
M  V30 5614 H 566.621 4.62932 -0.693675 0
M  V30 5615 H 566.794 6.36614 -1.2094 0
M  V30 5616 N 560.2 0.0768682 1.57412 0
M  V30 5617 C 561.13 -0.886026 2.16037 0
M  V30 5618 C 562.111 -1.30691 1.08876 0
M  V30 5619 O 563.296 -1.37705 1.36934 0
M  V30 5620 C 560.426 -2.1518 2.72608 0
M  V30 5621 C 559.38 -1.87015 3.8498 0
M  V30 5622 C 558.706 -3.20266 4.28175 0
M  V30 5623 C 560.006 -1.17143 5.08994 0
M  V30 5624 H 561.7 -0.397642 2.96748 0
M  V30 5625 H 559.246 -0.189823 1.42743 0
M  V30 5626 H 561.199 -2.82962 3.12266 0
M  V30 5627 H 559.923 -2.66269 1.89125 0
M  V30 5628 H 558.582 -1.21636 3.45833 0
M  V30 5629 H 558.23 -3.69207 3.41607 0
M  V30 5630 H 557.93 -3.0221 5.03927 0
M  V30 5631 H 559.454 -3.89237 4.70454 0
M  V30 5632 H 560.868 -1.75003 5.45937 0
M  V30 5633 H 559.265 -1.09328 5.90057 0
M  V30 5634 H 560.335 -0.151295 4.84664 0
M  V30 5635 N 561.678 -1.56367 -0.196722 0
M  V30 5636 C 562.906 -1.84639 -0.933608 0
M  V30 5637 C 563.321 -0.659164 -1.76919 0
M  V30 5638 O 562.678 0.372142 -1.78665 0
M  V30 5639 C 562.729 -3.11694 -1.83109 0
M  V30 5640 O 562.45 -4.25838 -1.02924 0
M  V30 5641 C 563.951 -3.53132 -2.67979 0
M  V30 5642 H 561.171 -0.613188 -0.272473 0
M  V30 5643 H 563.715 -2.03475 -0.204465 0
M  V30 5644 H 561.87 -2.94759 -2.51387 0
M  V30 5645 H 562.284 -4.98178 -1.64069 0
M  V30 5646 H 563.758 -4.45005 -3.26611 0
M  V30 5647 H 564.235 -2.76045 -3.41608 0
M  V30 5648 H 564.841 -3.72592 -2.05074 0
M  V30 5649 N 563.156 0.464375 -1.50603 0
M  V30 5650 C 564.433 1.22549 -1.5245 0
M  V30 5651 C 564.813 2.09327 -0.273035 0
M  V30 5652 O 564.161 2.16074 0.743242 0
M  V30 5653 C 564.371 2.05074 -2.82393 0
M  V30 5654 C 565.719 2.63036 -3.33313 0
M  V30 5655 O 566.743 2.1531 -2.8376 0
M  V30 5656 O 565.602 3.5001 -4.19709 0
M  V30 5657 H 562.696 0.556471 -0.611775 0
M  V30 5658 H 565.242 0.475648 -1.62898 0
M  V30 5659 H 564.014 1.41169 -3.64948 0
M  V30 5660 H 563.637 2.87179 -2.7498 0
M  V30 5661 N 564.634 1.40294 0.718013 0
M  V30 5662 C 565.544 1.42678 1.86226 0
M  V30 5663 C 566.56 0.319655 1.71039 0
M  V30 5664 O 567.736 0.563852 1.93346 0
M  V30 5665 C 564.801 1.2852 3.21999 0
M  V30 5666 C 563.862 2.49354 3.49458 0
M  V30 5667 C 563.095 2.35863 4.78753 0
M  V30 5668 O 563.318 1.37114 5.53675 0
M  V30 5669 O 562.252 3.25189 5.06494 0
M  V30 5670 H 566.078 2.39167 1.87171 0
M  V30 5671 H 563.663 1.2159 0.868112 0
M  V30 5672 H 565.545 1.22824 4.03103 0
M  V30 5673 H 564.22 0.351359 3.21787 0
M  V30 5674 H 563.127 2.60628 2.68373 0
M  V30 5675 H 564.46 3.41491 3.54464 0
M  V30 5676 N 566.112 -0.949982 1.2575 0
M  V30 5677 C 567.528 -1.22191 1.02672 0
M  V30 5678 C 567.728 -1.99898 -0.253588 0
M  V30 5679 O 566.784 -2.33329 -0.965076 0
M  V30 5680 C 568.097 -1.99175 2.25277 0
M  V30 5681 C 569.645 -2.12201 2.30087 0
M  V30 5682 C 570.12 -2.92586 3.5236 0
M  V30 5683 N 571.611 -3.00163 3.52784 0
M  V30 5684 C 572.346 -3.62766 4.44059 0
M  V30 5685 N 571.842 -4.26943 5.45611 0
M  V30 5686 N 573.635 -3.59953 4.3173 0
M  V30 5687 H 565.786 -0.430258 2.07996 0
M  V30 5688 H 568.049 -0.252844 0.91366 0
M  V30 5689 H 567.755 -1.49479 3.18354 0
M  V30 5690 H 567.629 -2.99868 2.28821 0
M  V30 5691 H 570.016 -2.61093 1.3753 0
M  V30 5692 H 570.097 -1.10799 2.30559 0
M  V30 5693 H 569.741 -2.44383 4.45241 0
M  V30 5694 H 569.671 -3.94224 3.49134 0
M  V30 5695 H 572.162 -2.54529 2.79327 0
M  V30 5696 H 572.475 -4.72583 6.11461 0
M  V30 5697 H 570.82 -4.25557 5.49478 0
M  V30 5698 H 574.011 -3.09003 3.51617 0
M  V30 5699 H 574.184 -4.08455 5.03059 0
M  V30 5700 N 567.59 -1.07411 -1.15328 0
M  V30 5701 C 568.52 -0.716472 -2.22236 0
M  V30 5702 C 569.501 0.296373 -1.67498 0
M  V30 5703 O 570.686 0.168989 -1.93463 0
M  V30 5704 C 567.816 -0.114142 -3.47112 0
M  V30 5705 C 566.77 -1.05421 -4.14814 0
M  V30 5706 C 566.096 -0.314604 -5.33774 0
M  V30 5707 C 567.396 -2.38808 -4.64508 0
M  V30 5708 H 569.09 -1.61029 -2.52408 0
M  V30 5709 H 566.636 -0.775702 -1.21321 0
M  V30 5710 H 568.589 0.148001 -4.2114 0
M  V30 5711 H 567.313 0.814755 -3.16274 0
M  V30 5712 H 565.972 -1.30128 -3.42728 0
M  V30 5713 H 565.62 0.617772 -4.99192 0
M  V30 5714 H 565.32 -0.941209 -5.80013 0
M  V30 5715 H 566.844 -0.0602747 -6.1057 0
M  V30 5716 H 568.258 -2.18424 -5.3006 0
M  V30 5717 H 566.655 -2.97069 -5.21412 0
M  V30 5718 H 567.725 -3.01067 -3.80114 0
M  V30 5719 N 569.068 1.32177 -0.85831 0
M  V30 5720 C 570.016 2.30729 -0.294442 0
M  V30 5721 C 571.01 1.59009 0.584165 0
M  V30 5722 O 572.216 1.73713 0.471562 0
M  V30 5723 H 568.591 0.748097 -0.0765171 0
M  V30 5724 H 570.562 2.75774 -1.1398 0
M  V30 5725 C 569.311 3.44098 0.499208 0
M  V30 5726 H 568.634 3.99449 -0.167579 0
M  V30 5727 H 570.074 4.15202 0.859273 0
M  V30 5728 C 568.533 2.91684 1.68588 0
M  V30 5729 O 569.063 2.89481 2.78503 0
M  V30 5730 N 567.269 2.48036 1.51415 0
M  V30 5731 H 566.816 2.50027 0.620006 0
M  V30 5732 H 566.774 2.13322 2.30957 0
M  V30 5733 N 570.547 0.616602 1.45037 0
M  V30 5734 C 571.963 0.280994 1.57107 0
M  V30 5735 C 572.163 -1.21627 1.60653 0
M  V30 5736 O 571.219 -1.9997 1.54169 0
M  V30 5737 C 572.532 0.960116 2.8496 0
M  V30 5738 C 574.08 0.936884 2.98649 0
M  V30 5739 C 574.555 1.59619 4.29285 0
M  V30 5740 N 576.046 1.5621 4.36065 0
M  V30 5741 C 576.781 2.04131 5.35834 0
M  V30 5742 N 576.277 2.60177 6.4209 0
M  V30 5743 N 578.07 1.94845 5.27249 0
M  V30 5744 H 570.221 1.58867 1.40979 0
M  V30 5745 H 572.484 0.666024 0.674623 0
M  V30 5746 H 572.19 2.01473 2.88273 0
M  V30 5747 H 572.064 0.488921 3.74018 0
M  V30 5748 H 574.451 -0.109209 2.94898 0
M  V30 5749 H 574.532 1.44643 2.10979 0
M  V30 5750 H 574.176 2.64166 4.33796 0
M  V30 5751 H 574.106 1.06159 5.15789 0
M  V30 5752 H 576.597 1.15276 3.59889 0
M  V30 5753 H 576.91 2.94513 7.1448 0
M  V30 5754 H 575.255 2.64221 6.42816 0
M  V30 5755 H 578.446 1.50792 4.43147 0
M  V30 5756 H 578.619 2.32504 6.04852 0
M  V30 5757 N 572.025 -1.5352 0.356285 0
M  V30 5758 C 573.273 -2.00719 -0.235837 0
M  V30 5759 C 573.594 -1.24551 -1.5004 0
M  V30 5760 O 572.864 -0.356185 -1.92635 0
M  V30 5761 H 571.444 -0.741542 -0.0901366 0
M  V30 5762 H 574.106 -1.88887 0.480378 0
M  V30 5763 H 573.202 -3.08551 -0.469357 0
M  V30 5764 N 573.503 -0.0852151 -1.57369 0
M  V30 5765 C 574.433 0.874556 -2.16503 0
M  V30 5766 C 575.414 1.30111 -1.09568 0
M  V30 5767 O 576.599 1.36977 -1.37662 0
M  V30 5768 C 573.729 2.13731 -2.73745 0
M  V30 5769 C 572.683 1.84971 -3.85966 0
M  V30 5770 C 572.009 3.17991 -4.29867 0
M  V30 5771 C 573.309 1.14442 -5.09608 0
M  V30 5772 H 575.003 0.381899 -2.96954 0
M  V30 5773 H 572.549 0.18225 -1.42842 0
M  V30 5774 H 574.502 2.81302 -3.13763 0
M  V30 5775 H 573.226 2.65263 -1.90534 0
M  V30 5776 H 571.885 1.19801 -3.46473 0
M  V30 5777 H 571.533 3.6739 -3.4356 0
M  V30 5778 H 571.233 2.99534 -5.05523 0
M  V30 5779 H 572.757 3.86737 -4.72511 0
M  V30 5780 H 574.171 1.72105 -5.46857 0
M  V30 5781 H 572.568 1.06197 -5.90629 0
M  V30 5782 H 573.638 0.12559 -4.84737 0
M  V30 5783 N 574.981 1.5647 0.188427 0
M  V30 5784 C 576.392 1.70864 0.752494 0
M  V30 5785 C 576.743 0.692905 1.83557 0
M  V30 5786 O 575.868 -0.149307 2.15884 0
M  V30 5787 C 576.463 3.09789 1.37173 0
M  V30 5788 C 575.022 3.25925 1.88281 0
M  V30 5789 C 574.169 2.66817 0.755259 0
M  V30 5790 H 577.12 1.58657 -0.0367408 0
M  V30 5791 H 577.141 3.07489 2.24122 0
M  V30 5792 H 576.653 3.83693 0.583219 0
M  V30 5793 H 574.754 2.56948 2.6983 0
M  V30 5794 H 574.867 4.33498 2.04001 0
M  V30 5795 H 573.231 2.2617 1.17128 0
M  V30 5796 H 574.014 3.43294 -0.0211237 0
M  V30 5797 N 576.459 -0.456382 1.50847 0
M  V30 5798 C 577.87 -1.03685 1.55262 0
M  V30 5799 C 578.221 -1.92779 0.364771 0
M  V30 5800 O 577.346 -2.10043 -0.52068 0
M  V30 5801 C 577.941 -1.88718 2.81374 0
M  V30 5802 C 576.5 -2.41847 2.88422 0
M  V30 5803 C 575.647 -1.20564 2.49719 0
M  V30 5804 H 578.598 -0.238399 1.56899 0
M  V30 5805 H 578.619 -2.73957 2.6406 0
M  V30 5806 H 578.131 -1.23847 3.67809 0
M  V30 5807 H 576.232 -3.10228 2.06372 0
M  V30 5808 H 576.345 -2.75947 3.9165 0
M  V30 5809 H 574.709 -1.54504 2.02486 0
M  V30 5810 H 575.492 -0.573326 3.38479 0
M  V30 5811 N 577.937 -1.40673 -0.710563 0
M  V30 5812 C 579.184 -1.39222 -1.47049 0
M  V30 5813 C 579.512 0.0037691 -1.945 0
M  V30 5814 O 578.767 0.989224 -1.68857 0
M  V30 5815 C 579.066 -2.33253 -2.70791 0
M  V30 5816 C 578.732 -3.80406 -2.42079 0
M  V30 5817 C 577.394 -4.20496 -2.33959 0
M  V30 5818 C 579.746 -4.73375 -2.18094 0
M  V30 5819 C 577.074 -5.51584 -1.99929 0
M  V30 5820 C 579.426 -6.04768 -1.85576 0
M  V30 5821 C 578.09 -6.43895 -1.75941 0
M  V30 5822 H 577.36 -0.509449 -0.538092 0
M  V30 5823 H 580.007 -1.73363 -0.81348 0
M  V30 5824 H 578.312 -1.92314 -3.41354 0
M  V30 5825 H 580.009 -2.29412 -3.28894 0
M  V30 5826 H 576.599 -3.48645 -2.49288 0
M  V30 5827 H 580.783 -4.43217 -2.23321 0
M  V30 5828 H 576.039 -5.80797 -1.91011 0
M  V30 5829 H 580.213 -6.76318 -1.66033 0
M  V30 5830 H 577.84 -7.45387 -1.4934 0
M  V30 5831 N 579.415 0.9433 -1.26252 0
M  V30 5832 C 580.345 2.05902 -1.10122 0
M  V30 5833 C 581.326 1.70099 -0.00700552 0
M  V30 5834 O 582.511 1.93377 -0.178641 0
M  V30 5835 C 579.641 3.39516 -0.731175 0
M  V30 5836 C 578.595 3.89372 -1.77688 0
M  V30 5837 C 577.921 5.19613 -1.26122 0
M  V30 5838 C 579.221 4.14489 -3.17799 0
M  V30 5839 H 580.915 2.19655 -2.03451 0
M  V30 5840 H 578.461 1.05548 -0.979576 0
M  V30 5841 H 580.414 4.17031 -0.605215 0
M  V30 5842 H 579.138 3.25733 0.23782 0
M  V30 5843 H 577.797 3.14036 -1.89148 0
M  V30 5844 H 577.445 5.02208 -0.282128 0
M  V30 5845 H 577.145 5.53939 -1.96023 0
M  V30 5846 H 578.669 5.99713 -1.14789 0
M  V30 5847 H 580.083 4.82625 -3.09428 0
M  V30 5848 H 578.48 4.60094 -3.85271 0
M  V30 5849 H 579.55 3.20347 -3.64014 0
M  V30 5850 N 580.893 1.08022 1.14757 0
M  V30 5851 C 581.843 0.676345 2.17737 0
M  V30 5852 C 582.827 -0.302018 1.5804 0
M  V30 5853 O 584.019 -0.11466 1.76628 0
M  V30 5854 C 581.148 0.082984 3.432 0
M  V30 5855 C 580.234 1.0869 4.09936 0
M  V30 5856 N 580.625 2.26891 4.52055 0
M  V30 5857 C 578.923 0.921768 4.36371 0
M  V30 5858 C 579.624 2.90636 5.0389 0
M  V30 5859 N 578.6 2.18266 4.97856 0
M  V30 5860 H 582.402 1.5765 2.4804 0
M  V30 5861 H 579.916 0.954374 1.31398 0
M  V30 5862 H 581.913 -0.224289 4.16296 0
M  V30 5863 H 580.573 -0.812206 3.14378 0
M  V30 5864 H 581.584 2.6457 4.45223 0
M  V30 5865 H 578.261 0.0800499 4.17423 0
M  V30 5866 H 579.651 3.9104 5.46386 0
M  V30 5867 N 582.371 -1.3172 0.865308 0
M  V30 5868 C 583.787 -1.4958 0.556596 0
M  V30 5869 C 583.987 -1.79763 -0.910353 0
M  V30 5870 O 583.043 -1.87351 -1.6928 0
M  V30 5871 C 584.356 -2.63277 1.45279 0
M  V30 5872 C 585.904 -2.77161 1.45433 0
M  V30 5873 C 586.379 -3.93949 2.33598 0
M  V30 5874 N 587.87 -4.01228 2.31453 0
M  V30 5875 C 588.605 -4.90855 2.96393 0
M  V30 5876 N 588.101 -5.85416 3.70486 0
M  V30 5877 N 589.894 -4.84063 2.85726 0
M  V30 5878 H 582.045 -1.10396 1.81456 0
M  V30 5879 H 584.308 -0.54507 0.775631 0
M  V30 5880 H 584.014 -2.47734 2.49641 0
M  V30 5881 H 583.888 -3.59309 1.14792 0
M  V30 5882 H 586.275 -2.9212 0.41831 0
M  V30 5883 H 586.356 -1.8181 1.79941 0
M  V30 5884 H 586 -3.79748 3.37274 0
M  V30 5885 H 585.93 -4.88598 1.96417 0
M  V30 5886 H 588.421 -3.3357 1.77593 0
M  V30 5887 H 588.734 -6.50525 4.17178 0
M  V30 5888 H 587.079 -5.85409 3.74594 0
M  V30 5889 H 590.27 -4.09163 2.27384 0
M  V30 5890 H 590.443 -5.53708 3.36617 0
M  V30 5891 N 583.85 -0.624285 -1.44708 0
M  V30 5892 C 585.098 -0.125802 -2.01708 0
M  V30 5893 C 585.418 1.2543 -1.49306 0
M  V30 5894 O 584.689 1.83198 -0.693924 0
M  V30 5895 H 583.269 -0.0435161 -0.745731 0
M  V30 5896 H 585.931 -0.809446 -1.77296 0
M  V30 5897 H 585.027 -0.0882734 -3.11975 0
M  V30 5898 N 585.328 1.53329 -0.364422 0
M  V30 5899 C 586.739 1.86345 0.115039 0
M  V30 5900 C 587.09 1.28505 1.4826 0
M  V30 5901 O 586.215 0.606639 2.07723 0
M  V30 5902 C 586.81 3.38114 0.215522 0
M  V30 5903 C 585.369 3.70932 0.639237 0
M  V30 5904 C 584.516 2.76471 -0.214261 0
M  V30 5905 H 587.467 1.47593 -0.583258 0
M  V30 5906 H 587.488 3.66031 1.0393 0
M  V30 5907 H 587 3.80182 -0.779948 0
M  V30 5908 H 585.101 3.3442 1.64298 0
M  V30 5909 H 585.214 4.77302 0.41465 0
M  V30 5910 H 583.578 2.52724 0.316678 0
M  V30 5911 H 584.361 3.21373 -1.20725 0
M  V30 5912 N 586.806 0.0935595 1.57322 0
M  V30 5913 C 587.769 -0.851426 2.12799 0
M  V30 5914 C 588.769 -1.21187 1.0569 0
M  V30 5915 O 589.959 -1.14156 1.31583 0
M  V30 5916 C 587.091 -2.14779 2.64731 0
M  V30 5917 H 588.284 -0.369733 2.97612 0
M  V30 5918 H 585.837 -0.155417 1.55525 0
M  V30 5919 H 586.572 -2.67437 1.83434 0
M  V30 5920 H 586.357 -1.89907 3.43042 0
M  V30 5921 H 587.847 -2.82383 3.07651 0
M  V30 5922 N 588.284 -1.56567 -0.180126 0
M  V30 5923 C 589.532 -1.81133 -0.896392 0
M  V30 5924 C 589.853 -0.669114 -1.83161 0
M  V30 5925 O 589.123 0.311616 -1.93406 0
M  V30 5926 H 587.703 -0.668172 -0.333999 0
M  V30 5927 H 590.365 -1.94048 -0.182051 0
M  V30 5928 H 589.461 -2.74854 -1.47857 0
M  V30 5929 N 589.762 0.448376 -1.51087 0
M  V30 5930 C 590.692 1.55102 -1.74544 0
M  V30 5931 C 591.673 1.59357 -0.594932 0
M  V30 5932 O 592.858 1.75261 -0.836491 0
M  V30 5933 C 589.988 2.93268 -1.86041 0
M  V30 5934 C 588.942 3.03877 -3.01402 0
M  V30 5935 C 588.268 4.43914 -2.98068 0
M  V30 5936 C 589.568 2.7898 -4.41551 0
M  V30 5937 H 591.262 1.35724 -2.66869 0
M  V30 5938 H 588.808 0.651498 -1.28419 0
M  V30 5939 H 590.761 3.70356 -2.01034 0
M  V30 5940 H 589.485 3.13853 -0.903548 0
M  V30 5941 H 588.144 2.29227 -2.86096 0
M  V30 5942 H 587.792 4.6145 -2.00182 0
M  V30 5943 H 587.492 4.51944 -3.75527 0
M  V30 5944 H 589.016 5.22991 -3.1514 0
M  V30 5945 H 590.43 3.45805 -4.57265 0
M  V30 5946 H 588.827 2.98431 -5.20633 0
M  V30 5947 H 589.897 1.74663 -4.5235 0
M  V30 5948 N 591.24 1.41047 0.703093 0
M  V30 5949 C 592.188 1.42494 1.83843 0
M  V30 5950 C 593.182 0.303885 1.66652 0
M  V30 5951 O 594.388 0.475544 1.73605 0
M  V30 5952 H 590.763 0.445685 0.605697 0
M  V30 5953 H 592.734 2.38194 1.79739 0
M  V30 5954 C 591.483 1.31666 3.21807 0
M  V30 5955 H 590.806 2.17212 3.35647 0
M  V30 5956 H 592.246 1.36738 4.01346 0
M  V30 5957 C 590.705 0.0281828 3.36888 0
M  V30 5958 O 591.235 -0.929995 3.90786 0
M  V30 5959 N 589.441 -0.0454322 2.90564 0
M  V30 5960 H 588.988 0.735046 2.4689 0
M  V30 5961 H 588.946 -0.906968 3.01034 0
M  V30 5962 N 592.718 -0.936591 1.26751 0
M  V30 5963 C 593.943 -1.72288 1.15462 0
M  V30 5964 C 594.368 -1.85915 -0.285887 0
M  V30 5965 O 593.726 -1.35272 -1.20711 0
M  V30 5966 C 593.774 -3.10503 1.83359 0
M  V30 5967 O 592.878 -3.96745 1.1255 0
M  V30 5968 H 592.219 -0.52843 0.402067 0
M  V30 5969 H 594.749 -1.17271 1.67656 0
M  V30 5970 H 594.759 -3.60867 1.90365 0
M  V30 5971 H 593.434 -2.99901 2.88153 0
M  V30 5972 H 592.011 -3.55191 1.13551 0
M  V30 5973 N 594.196 -1.08629 -1.14182 0
M  V30 5974 C 595.444 -0.815731 -1.84906 0
M  V30 5975 C 595.765 0.660441 -1.83475 0
M  V30 5976 O 595.035 1.47888 -1.28476 0
M  V30 5977 H 593.615 -0.298773 -0.684648 0
M  V30 5978 H 596.277 -1.37274 -1.38354 0
M  V30 5979 H 595.373 -1.16193 -2.89665 0
M  V30 5980 N 595.674 1.31259 -0.872281 0
M  V30 5981 C 596.921 1.96622 -0.484365 0
M  V30 5982 C 597.249 1.68939 0.963841 0
M  V30 5983 O 596.504 0.97974 1.6941 0
M  V30 5984 C 596.803 3.50659 -0.690889 0
M  V30 5985 C 596.469 3.98366 -2.11224 0
M  V30 5986 C 595.131 4.11104 -2.50094 0
M  V30 5987 C 597.483 4.23425 -3.0391 0
M  V30 5988 C 594.811 4.46254 -3.80887 0
M  V30 5989 C 597.163 4.60039 -4.3422 0
M  V30 5990 C 595.827 4.70984 -4.73001 0
M  V30 5991 H 595.097 0.71949 -0.177242 0
M  V30 5992 H 597.744 1.56353 -1.10571 0
M  V30 5993 H 596.049 3.91798 0.0135782 0
M  V30 5994 H 597.746 3.99284 -0.370534 0
M  V30 5995 H 594.336 3.88949 -1.80047 0
M  V30 5996 H 598.52 4.13075 -2.75104 0
M  V30 5997 H 593.776 4.52926 -4.10692 0
M  V30 5998 H 597.95 4.78381 -5.06088 0
M  V30 5999 H 595.577 4.97977 -5.7439 0
M  V30 6000 N 597.152 0.631951 1.44375 0
M  V30 6001 C 598.085 -0.121822 2.27875 0
M  V30 6002 C 599.063 -0.850457 1.38586 0
M  V30 6003 O 600.247 -0.854378 1.68026 0
M  V30 6004 C 597.374 -1.17859 3.17533 0
M  V30 6005 C 596.42 -0.550391 4.22934 0
M  V30 6006 S 597.253 0.660145 5.31415 0
M  V30 6007 C 598.409 -0.396613 6.24642 0
M  V30 6008 H 598.642 0.586537 2.91457 0
M  V30 6009 H 596.175 0.420146 1.48574 0
M  V30 6010 H 598.133 -1.78335 3.69739 0
M  V30 6011 H 596.794 -1.85915 2.53169 0
M  V30 6012 H 595.987 -1.34631 4.85685 0
M  V30 6013 H 595.589 -0.0202306 3.73995 0
M  V30 6014 H 597.881 -1.26893 6.65511 0
M  V30 6015 H 598.824 0.195345 7.0783 0
M  V30 6016 H 599.232 -0.72288 5.59852 0
M  V30 6017 N 598.631 -1.53133 0.372548 0
M  V30 6018 C 599.879 -2.00958 -0.214534 0
M  V30 6019 C 600.2 -1.26135 -1.48711 0
M  V30 6020 O 599.47 -0.376597 -1.92246 0
M  V30 6021 H 598.05 -0.742456 -0.0822664 0
M  V30 6022 H 600.712 -1.88367 0.500385 0
M  V30 6023 H 599.808 -3.09031 -0.436605 0
M  V30 6024 N 600.109 -0.101901 -1.5727 0
M  V30 6025 C 601.072 0.840129 -2.13247 0
M  V30 6026 C 602.072 1.20625 -1.06331 0
M  V30 6027 O 603.262 1.13456 -1.32186 0
M  V30 6028 C 600.394 2.13372 -2.65867 0
M  V30 6029 H 601.587 0.353945 -2.97804 0
M  V30 6030 H 599.14 0.147167 -1.55606 0
M  V30 6031 H 599.875 2.66461 -1.84849 0
M  V30 6032 H 599.66 1.88085 -3.44044 0
M  V30 6033 H 601.15 2.80748 -3.09145 0
M  V30 6034 N 601.587 1.56661 0.17182 0
M  V30 6035 C 602.519 1.92934 1.2373 0
M  V30 6036 C 603.532 0.822385 1.40502 0
M  V30 6037 O 604.721 1.10083 1.40514 0
M  V30 6038 C 601.821 2.16651 2.60607 0
M  V30 6039 C 600.994 3.47878 2.6514 0
M  V30 6040 C 600.053 3.60429 3.83377 0
M  V30 6041 O 599.079 4.33051 3.69398 0
M  V30 6042 N 600.281 2.95241 4.99813 0
M  V30 6043 H 603.046 2.84931 0.929205 0
M  V30 6044 H 600.607 1.5781 0.361588 0
M  V30 6045 H 602.599 2.22312 3.38171 0
M  V30 6046 H 601.169 1.3104 2.83809 0
M  V30 6047 H 600.389 3.53879 1.73675 0
M  V30 6048 H 601.677 4.34232 2.6518 0
M  V30 6049 H 601.075 2.3611 5.14071 0
M  V30 6050 H 599.632 3.06499 5.75241 0
M  V30 6051 N 603.065 -0.440357 1.51323 0
M  V30 6052 C 604.311 -1.19181 1.64085 0
M  V30 6053 C 604.644 -1.90936 0.354575 0
M  V30 6054 O 603.919 -1.8347 -0.645675 0
M  V30 6055 C 604.202 -2.2112 2.84215 0
M  V30 6056 C 604.055 -1.53468 4.22809 0
M  V30 6057 C 605.374 -3.22133 2.99864 0
M  V30 6058 H 602.493 -0.431924 0.597169 0
M  V30 6059 H 605.135 -0.481443 1.83799 0
M  V30 6060 H 603.285 -2.81703 2.67537 0
M  V30 6061 H 604.957 -0.962455 4.51148 0
M  V30 6062 H 603.2 -0.837086 4.25647 0
M  V30 6063 H 603.871 -2.27694 5.02852 0
M  V30 6064 H 606.347 -2.71601 3.15233 0
M  V30 6065 H 605.223 -3.90756 3.85488 0
M  V30 6066 H 605.484 -3.88061 2.11804 0
M  V30 6067 N 604.543 -1.41418 -0.695603 0
M  V30 6068 C 605.771 -1.4413 -1.48439 0
M  V30 6069 C 606.186 -0.0465698 -1.88743 0
M  V30 6070 O 605.543 0.934117 -1.56782 0
M  V30 6071 C 605.594 -2.34998 -2.74696 0
M  V30 6072 O 605.315 -3.69043 -2.36091 0
M  V30 6073 C 606.816 -2.46513 -3.68438 0
M  V30 6074 H 604.036 -0.490905 -0.457442 0
M  V30 6075 H 606.58 -1.85702 -0.856454 0
M  V30 6076 H 604.735 -1.96735 -3.33728 0
M  V30 6077 H 605.149 -4.17505 -3.17474 0
M  V30 6078 H 606.623 -3.1426 -4.53811 0
M  V30 6079 H 607.1 -1.49638 -4.12922 0
M  V30 6080 H 607.706 -2.85412 -3.1531 0
M  V30 6081 N 606.021 0.929856 -1.27246 0
M  V30 6082 C 606.984 2.01172 -1.09829 0
M  V30 6083 C 607.984 1.60743 -0.0429687 0
M  V30 6084 O 609.174 1.71813 -0.287373 0
M  V30 6085 C 606.306 3.34191 -0.673003 0
M  V30 6086 H 607.499 2.18054 -2.05895 0
M  V30 6087 H 605.052 1.11036 -1.10003 0
M  V30 6088 H 605.787 3.23009 0.289134 0
M  V30 6089 H 605.572 3.64892 -1.43515 0
M  V30 6090 H 607.062 4.13646 -0.573323 0
M  V30 6091 N 607.499 1.09233 1.13605 0
M  V30 6092 C 608.727 0.848908 1.88683 0
M  V30 6093 C 609.142 -0.599667 1.79024 0
M  V30 6094 O 608.499 -1.41265 1.15544 0
M  V30 6095 C 608.55 1.27273 3.38355 0
M  V30 6096 O 608.271 2.66449 3.47759 0
M  V30 6097 C 609.772 1.0614 4.30406 0
M  V30 6098 H 606.992 0.305549 0.597395 0
M  V30 6099 H 609.536 1.4538 1.43823 0
M  V30 6100 H 607.691 0.711776 3.80805 0
M  V30 6101 H 608.105 2.84264 4.40788 0
M  V30 6102 H 609.579 1.40725 5.33761 0
M  V30 6103 H 610.056 -0.000960332 4.392 0
M  V30 6104 H 610.662 1.60821 3.93722 0
M  V30 6105 N 608.977 -1.30795 0.87923 0
M  V30 6106 C 609.94 -2.26563 0.346676 0
M  V30 6107 C 610.94 -1.52578 -0.507597 0
M  V30 6108 O 612.13 -1.71318 -0.315575 0
M  V30 6109 C 609.262 -3.37115 -0.506611 0
M  V30 6110 H 610.455 -2.75183 1.19223 0
M  V30 6111 H 608.008 -1.41886 0.655598 0
M  V30 6112 H 608.743 -2.93802 -1.37299 0
M  V30 6113 H 608.528 -3.91959 0.105218 0
M  V30 6114 H 610.018 -4.08412 -0.871192 0
M  V30 6115 N 610.455 -0.639598 -1.44038 0
M  V30 6116 C 611.385 0.0469443 -2.33453 0
M  V30 6117 C 612.366 0.82609 -1.48694 0
M  V30 6118 O 613.551 0.790285 -1.77393 0
M  V30 6119 C 610.681 1.02338 -3.3188 0
M  V30 6120 C 609.635 0.355284 -4.26523 0
M  V30 6121 C 608.961 1.44221 -5.14883 0
M  V30 6122 C 610.261 -0.743798 -5.16977 0
M  V30 6123 H 611.955 -0.699735 -2.91108 0
M  V30 6124 H 609.501 -0.337946 -1.39978 0
M  V30 6125 H 611.454 1.51247 -3.93322 0
M  V30 6126 H 610.178 1.80105 -2.72451 0
M  V30 6127 H 608.837 -0.113239 -3.66425 0
M  V30 6128 H 608.485 2.21097 -4.51802 0
M  V30 6129 H 608.185 1.00052 -5.79019 0
M  V30 6130 H 609.709 1.93295 -5.79197 0
M  V30 6131 H 611.123 -0.337444 -5.72306 0
M  V30 6132 H 609.52 -1.10914 -5.89761 0
M  V30 6133 H 610.59 -1.60745 -4.57481 0
M  V30 6134 N 611.933 1.52934 -0.380664 0
M  V30 6135 C 612.863 2.29118 0.450268 0
M  V30 6136 C 613.844 1.32153 1.07096 0
M  V30 6137 O 615.029 1.61038 1.08537 0
M  V30 6138 C 612.159 3.09161 1.58231 0
M  V30 6139 C 611.113 4.13938 1.0881 0
M  V30 6140 C 610.439 4.82153 2.31155 0
M  V30 6141 C 611.739 5.22048 0.162146 0
M  V30 6142 H 613.433 2.98826 -0.185361 0
M  V30 6143 H 610.979 1.43715 -0.0905886 0
M  V30 6144 H 612.932 3.61211 2.17036 0
M  V30 6145 H 611.656 2.3717 2.2454 0
M  V30 6146 H 610.315 3.62855 0.522633 0
M  V30 6147 H 609.963 4.06719 2.95953 0
M  V30 6148 H 609.663 5.52966 1.98752 0
M  V30 6149 H 611.187 5.37004 2.90618 0
M  V30 6150 H 612.601 5.6951 0.658126 0
M  V30 6151 H 610.998 6.00057 -0.0717122 0
M  V30 6152 H 612.068 4.78398 -0.791438 0
M  V30 6153 N 613.412 0.11024 1.57214 0
M  V30 6154 C 614.375 -0.828808 2.1369 0
M  V30 6155 C 615.375 -1.20059 1.06969 0
M  V30 6156 O 616.565 -1.12754 1.32786 0
M  V30 6157 C 613.697 -2.11959 2.66994 0
M  V30 6158 H 614.89 -0.338146 2.97988 0
M  V30 6159 H 612.443 -0.138913 1.55681 0
M  V30 6160 H 613.178 -2.65476 1.8626 0
M  V30 6161 H 612.963 -1.86258 3.45037 0
M  V30 6162 H 614.453 -2.79105 3.10629 0
M  V30 6163 N 614.89 -1.56749 -0.16351 0
M  V30 6164 C 615.8 -2.00255 -1.2221 0
M  V30 6165 C 616.816 -0.915194 -1.47987 0
M  V30 6166 O 617.992 -1.22342 -1.59982 0
M  V30 6167 C 615.057 -2.36035 -2.53946 0
M  V30 6168 C 614.118 -3.58637 -2.35962 0
M  V30 6169 C 613.351 -3.92701 -3.61416 0
M  V30 6170 O 613.574 -3.27632 -4.66919 0
M  V30 6171 O 612.508 -4.86019 -3.55062 0
M  V30 6172 H 616.334 -2.90586 -0.882794 0
M  V30 6173 H 613.919 -1.44721 -0.370978 0
M  V30 6174 H 615.801 -2.59982 -3.31643 0
M  V30 6175 H 614.476 -1.48863 -2.8744 0
M  V30 6176 H 613.383 -3.39898 -1.5627 0
M  V30 6177 H 614.716 -4.46374 -2.0739 0
M  V30 6178 N 616.368 0.432326 -1.51554 0
M  V30 6179 C 617.301 1.54525 -1.6792 0
M  V30 6180 C 618.279 1.53831 -0.526764 0
M  V30 6181 O 619.463 1.72884 -0.751233 0
M  V30 6182 C 616.59 2.931 -1.69736 0
M  V30 6183 C 615.636 3.11799 -2.91005 0
M  V30 6184 S 616.469 2.87565 -4.51737 0
M  V30 6185 C 617.625 4.28412 -4.56305 0
M  V30 6186 H 617.858 1.4041 -2.62054 0
M  V30 6187 H 615.391 0.622357 -1.41301 0
M  V30 6188 H 617.349 3.72974 -1.71467 0
M  V30 6189 H 616.01 3.04574 -0.767705 0
M  V30 6190 H 615.203 4.13127 -2.8869 0
M  V30 6191 H 614.805 2.39757 -2.87041 0
M  V30 6192 H 617.097 5.21692 -4.32254 0
M  V30 6193 H 618.04 4.35758 -5.58141 0
M  V30 6194 H 618.448 4.12301 -3.85576 0
M  V30 6195 N 617.846 1.41785 0.688094 0
M  V30 6196 C 619.262 1.24419 0.999608 0
M  V30 6197 C 619.462 0.138868 2.01021 0
M  V30 6198 O 618.518 -0.494283 2.47615 0
M  V30 6199 C 619.831 2.59625 1.51709 0
M  V30 6200 C 621.379 2.66869 1.63554 0
M  V30 6201 C 621.854 4.0241 2.18702 0
M  V30 6202 N 623.345 4.04295 2.26053 0
M  V30 6203 C 624.08 5.05977 2.69768 0
M  V30 6204 N 623.576 6.18047 3.13033 0
M  V30 6205 N 625.369 4.93336 2.69398 0
M  V30 6206 H 617.52 2.12392 0.0187427 0
M  V30 6207 H 619.783 0.945347 0.0708673 0
M  V30 6208 H 619.489 3.41297 0.849059 0
M  V30 6209 H 619.363 2.82628 2.49803 0
M  V30 6210 H 621.75 1.8555 2.29467 0
M  V30 6211 H 621.831 2.47668 0.639857 0
M  V30 6212 H 621.475 4.8418 1.53402 0
M  V30 6213 H 621.405 4.18955 3.19037 0
M  V30 6214 H 623.896 3.23383 1.9553 0
M  V30 6215 H 624.209 6.91498 3.45038 0
M  V30 6216 H 622.554 6.21572 3.10923 0
M  V30 6217 H 625.745 4.04865 2.34952 0
M  V30 6218 H 625.918 5.72717 3.03148 0
M  V30 6219 N 619.324 -0.923095 1.27737 0
M  V30 6220 C 620.287 -2.00587 1.10894 0
M  V30 6221 C 621.287 -1.60718 0.0514927 0
M  V30 6222 O 622.477 -1.71658 0.296481 0
M  V30 6223 C 619.609 -3.33829 0.690717 0
M  V30 6224 H 620.802 -2.16959 2.07048 0
M  V30 6225 H 618.355 -1.10451 1.1059 0
M  V30 6226 H 619.09 -3.23157 -0.272 0
M  V30 6227 H 618.875 -3.64125 1.45448 0
M  V30 6228 H 620.365 -4.13336 0.595252 0
M  V30 6229 N 620.802 -1.09834 -1.13024 0
M  V30 6230 C 622.03 -0.858902 -1.8823 0
M  V30 6231 C 622.445 0.590164 -1.79339 0
M  V30 6232 O 621.802 1.4065 -1.16292 0
M  V30 6233 C 621.853 -1.29066 -3.37675 0
M  V30 6234 O 621.574 -2.6829 -3.46341 0
M  V30 6235 C 623.075 -1.08421 -4.29837 0
M  V30 6236 H 620.295 -0.308713 -0.595766 0
M  V30 6237 H 622.839 -1.4614 -1.4305 0
M  V30 6238 H 620.994 -0.731961 -3.80422 0
M  V30 6239 H 621.408 -2.86598 -4.39274 0
M  V30 6240 H 622.882 -1.43553 -5.33007 0
M  V30 6241 H 623.359 -0.0223315 -4.39194 0
M  V30 6242 H 623.965 -1.62907 -3.92863 0
M  V30 6243 N 622.28 1.30327 -0.886154 0
M  V30 6244 C 623.528 1.9571 -0.504195 0
M  V30 6245 C 623.849 1.70294 0.950003 0
M  V30 6246 O 623.119 1.02718 1.66811 0
M  V30 6247 H 621.699 0.72412 -0.183465 0
M  V30 6248 H 624.361 1.58835 -1.12949 0
M  V30 6249 H 623.457 3.04704 -0.675431 0
M  V30 6250 N 623.758 0.647228 1.43697 0
M  V30 6251 C 625.169 0.238689 1.85168 0
M  V30 6252 C 625.52 -1.21345 1.54175 0
M  V30 6253 O 624.645 -1.92542 0.987743 0
M  V30 6254 C 625.24 0.426422 3.36106 0
M  V30 6255 C 623.799 0.0722541 3.76331 0
M  V30 6256 C 622.946 0.732153 2.6746 0
M  V30 6257 H 625.897 0.851309 1.33934 0
M  V30 6258 H 625.918 -0.32987 3.79067 0
M  V30 6259 H 625.43 1.48339 3.58632 0
M  V30 6260 H 623.531 -0.982355 3.59417 0
M  V30 6261 H 623.644 0.493541 4.76551 0
M  V30 6262 H 622.008 0.16594 2.54159 0
M  V30 6263 H 622.791 1.79204 2.92816 0
M  V30 6264 N 625.236 -1.5273 0.388769 0
M  V30 6265 C 626.199 -2.25043 -0.434544 0
M  V30 6266 C 627.199 -1.26661 -0.990644 0
M  V30 6267 O 628.389 -1.50762 -0.872731 0
M  V30 6268 C 625.521 -3.00507 -1.60961 0
M  V30 6269 H 626.714 -2.99242 0.198549 0
M  V30 6270 H 624.267 -1.55664 0.140875 0
M  V30 6271 H 625.002 -2.30607 -2.28015 0
M  V30 6272 H 624.787 -3.72716 -1.21757 0
M  V30 6273 H 626.277 -3.55413 -2.19251 0
M  V30 6274 N 626.714 -0.118576 -1.57153 0
M  V30 6275 C 627.939 0.550582 -1.99958 0
M  V30 6276 C 628.364 1.59458 -0.997736 0
M  V30 6277 O 627.722 1.81274 0.0306269 0
M  V30 6278 C 627.77 1.15379 -3.41643 0
M  V30 6279 O 626.874 2.26932 -3.44348 0
M  V30 6280 H 626.215 0.137567 -0.649593 0
M  V30 6281 H 628.745 -0.206926 -2.03551 0
M  V30 6282 H 628.755 1.48942 -3.79843 0
M  V30 6283 H 627.43 0.389087 -4.14076 0
M  V30 6284 H 626.007 1.94812 -3.17967 0
M  V30 6285 N 628.193 1.56834 0.155195 0
M  V30 6286 C 629.442 1.82088 0.867567 0
M  V30 6287 C 629.755 0.69849 1.82703 0
M  V30 6288 O 630.961 0.836407 2.58295 0
M  V30 6289 C 629.417 3.22707 1.59336 0
M  V30 6290 C 629.025 4.42859 0.676719 0
M  V30 6291 C 630.769 3.57242 2.293 0
M  V30 6292 C 628.676 5.74501 1.40367 0
M  V30 6293 H 627.606 0.679057 0.327715 0
M  V30 6294 H 630.257 1.83105 0.120351 0
M  V30 6295 H 628.639 3.16054 2.38591 0
M  V30 6296 H 629.813 4.60731 -0.0800196 0
M  V30 6297 H 628.128 4.16311 0.0859129 0
M  V30 6298 H 630.725 4.52847 2.84312 0
M  V30 6299 H 631.068 2.82901 3.05406 0
M  V30 6300 H 631.601 3.6552 1.56972 0
M  V30 6301 H 628.34 6.51915 0.684623 0
M  V30 6302 H 627.86 5.60579 2.13332 0
M  V30 6303 H 629.539 6.17016 1.94681 0
M  V30 6304 N 629.671 -0.424282 1.51781 0
M  V30 6305 C 630.621 -1.51464 1.70419 0
M  V30 6306 C 631.605 -1.50911 0.558094 0
M  V30 6307 O 632.797 -1.57143 0.814552 0
M  V30 6308 C 629.926 -2.89539 1.84451 0
M  V30 6309 C 629.012 -2.94798 3.04886 0
M  V30 6310 N 629.403 -2.69778 4.27848 0
M  V30 6311 C 627.701 -3.25962 3.04408 0
M  V30 6312 C 628.402 -2.81216 5.09208 0
M  V30 6313 N 627.378 -3.13447 4.44131 0
M  V30 6314 H 631.18 -1.30892 2.63144 0
M  V30 6315 H 628.694 -0.631783 1.49607 0
M  V30 6316 H 630.691 -3.67998 1.95917 0
M  V30 6317 H 629.351 -3.11121 0.929168 0
M  V30 6318 H 630.362 -2.44458 4.56575 0
M  V30 6319 H 627.039 -3.53236 2.22555 0
M  V30 6320 H 628.429 -2.65715 6.17127 0
M  V30 6321 N 631.149 -1.42148 -0.680565 0
M  V30 6322 C 632.374 -1.45901 -1.47403 0
M  V30 6323 C 632.799 -0.0700985 -1.87969 0
M  V30 6324 O 632.157 0.930145 -1.55621 0
M  V30 6325 C 632.205 -2.38661 -2.70321 0
M  V30 6326 O 631.309 -1.85399 -3.68376 0
M  V30 6327 H 630.65 -0.494565 -0.443059 0
M  V30 6328 H 633.18 -1.86774 -0.835251 0
M  V30 6329 H 633.19 -2.55046 -3.18458 0
M  V30 6330 H 631.865 -3.39571 -2.40134 0
M  V30 6331 H 630.442 -1.78541 -3.2738 0
M  V30 6332 N 632.627 0.916307 -1.28225 0
M  V30 6333 C 633.876 1.65975 -1.14608 0
M  V30 6334 C 634.189 1.93204 0.305191 0
M  V30 6335 O 635.395 2.65611 0.562432 0
M  V30 6336 C 633.851 2.98989 -2.00333 0
M  V30 6337 C 633.459 2.79417 -3.50186 0
M  V30 6338 C 635.203 3.76856 -1.95397 0
M  V30 6339 C 633.11 4.08056 -4.28071 0
M  V30 6340 H 632.04 0.622587 -0.425324 0
M  V30 6341 H 634.691 1.01705 -1.52736 0
M  V30 6342 H 633.073 3.6438 -1.5506 0
M  V30 6343 H 634.247 2.22723 -4.034 0
M  V30 6344 H 632.562 2.14966 -3.56621 0
M  V30 6345 H 635.159 4.72203 -2.50856 0
M  V30 6346 H 635.502 4.05776 -0.930137 0
M  V30 6347 H 636.035 3.1828 -2.38626 0
M  V30 6348 H 632.774 3.8431 -5.31024 0
M  V30 6349 H 632.294 4.64371 -3.79631 0
M  V30 6350 H 633.973 4.76333 -4.37854 0
M  V30 6351 N 634.105 1.10431 1.1244 0
M  V30 6352 C 635.33 0.869089 1.88313 0
M  V30 6353 C 635.755 -0.574912 1.79099 0
M  V30 6354 O 635.113 -1.40496 1.14589 0
M  V30 6355 C 635.161 1.32208 3.3549 0
M  V30 6356 O 634.265 0.487092 4.09513 0
M  V30 6357 H 633.606 0.313894 0.585121 0
M  V30 6358 H 636.136 1.47111 1.42195 0
M  V30 6359 H 636.146 1.31201 3.86329 0
M  V30 6360 H 634.821 2.37364 3.41513 0
M  V30 6361 H 633.398 0.562372 3.68635 0
M  V30 6362 N 635.583 -1.29855 0.893053 0
M  V30 6363 C 636.811 -1.99976 0.530788 0
M  V30 6364 C 637.226 -1.66889 -0.882799 0
M  V30 6365 O 636.583 -0.910352 -1.58173 0
M  V30 6366 C 636.634 -3.54547 0.705587 0
M  V30 6367 O 636.355 -3.86458 2.06353 0
M  V30 6368 C 637.856 -4.41937 0.347387 0
M  V30 6369 H 635.076 -0.639129 0.204339 0
M  V30 6370 H 637.62 -1.65549 1.20057 0
M  V30 6371 H 635.775 -3.87311 0.0830685 0
M  V30 6372 H 636.189 -4.81146 2.08803 0
M  V30 6373 H 637.663 -5.4954 0.520557 0
M  V30 6374 H 638.14 -4.33339 -0.715139 0
M  V30 6375 H 638.746 -4.14633 0.946567 0
M  V30 6376 N 637.061 -0.65484 -1.43351 0
M  V30 6377 C 638.009 0.0476784 -2.32551 0
M  V30 6378 C 639.003 0.811403 -1.48703 0
M  V30 6379 O 640.209 0.721621 -1.64902 0
M  V30 6380 H 636.584 0.0342038 -0.751222 0
M  V30 6381 H 638.555 -0.722342 -2.89525 0
M  V30 6382 C 637.304 0.999251 -3.33032 0
M  V30 6383 H 636.627 0.421005 -3.97577 0
M  V30 6384 H 638.067 1.45986 -3.98076 0
M  V30 6385 C 636.526 2.09606 -2.63756 0
M  V30 6386 O 637.056 3.18004 -2.4543 0
M  V30 6387 N 635.262 1.86207 -2.23103 0
M  V30 6388 H 634.809 0.980555 -2.38208 0
M  V30 6389 H 634.767 2.59787 -1.77081 0
M  V30 6390 N 638.539 1.52521 -0.396863 0
M  V30 6391 C 639.502 2.2527 0.422604 0
M  V30 6392 C 640.502 1.27184 0.983913 0
M  V30 6393 O 641.692 1.51222 0.864723 0
M  V30 6394 C 638.824 3.01356 1.59365 0
M  V30 6395 H 640.017 2.99133 -0.214416 0
M  V30 6396 H 637.57 1.55587 -0.149128 0
M  V30 6397 H 638.305 2.31813 2.26789 0
M  V30 6398 H 638.09 3.73357 1.19779 0
M  V30 6399 H 639.58 3.56571 2.17363 0
M  V30 6400 N 640.017 0.126909 1.57088 0
M  V30 6401 C 640.98 -0.806097 2.14557 0
M  V30 6402 C 641.98 -1.18918 1.08236 0
M  V30 6403 O 643.17 -1.11339 1.33975 0
M  V30 6404 C 640.302 -2.09116 2.69227 0
M  V30 6405 H 641.495 -0.306522 2.98329 0
M  V30 6406 H 639.048 -0.122393 1.5582 0
M  V30 6407 H 639.783 -2.63486 1.89065 0
M  V30 6408 H 639.568 -1.82588 3.46993 0
M  V30 6409 H 641.058 -2.75794 3.13572 0
M  V30 6410 N 641.495 -1.56914 -0.146875 0
M  V30 6411 C 642.443 -1.99224 -1.20053 0
M  V30 6412 C 643.437 -0.884661 -1.44465 0
M  V30 6413 O 644.643 -1.06984 -1.44756 0
M  V30 6414 H 641.018 -0.634191 -0.404112 0
M  V30 6415 H 642.989 -2.86998 -0.816987 0
M  V30 6416 C 641.738 -2.38899 -2.52632 0
M  V30 6417 H 641.061 -3.23677 -2.34677 0
M  V30 6418 H 642.501 -2.72326 -3.24984 0
M  V30 6419 C 640.96 -1.2417 -3.13183 0
M  V30 6420 O 641.49 -0.542503 -3.9802 0
M  V30 6421 N 639.696 -1.00592 -2.72635 0
M  V30 6422 H 639.243 -1.57627 -2.03744 0
M  V30 6423 H 639.201 -0.240174 -3.13481 0
M  V30 6424 N 642.974 0.416227 -1.52004 0
M  V30 6425 C 643.906 1.52552 -1.71058 0
M  V30 6426 C 644.919 1.51693 -0.59102 0
M  V30 6427 O 646.108 1.56087 -0.865973 0
M  V30 6428 C 643.208 2.91455 -1.72937 0
M  V30 6429 C 642.381 3.16584 -3.01816 0
M  V30 6430 C 641.44 4.35322 -2.95603 0
M  V30 6431 O 640.466 4.32947 -3.6952 0
M  V30 6432 N 641.668 5.40049 -2.12903 0
M  V30 6433 H 644.433 1.36604 -2.66757 0
M  V30 6434 H 641.994 0.60544 -1.50153 0
M  V30 6435 H 643.986 3.68944 -1.66321 0
M  V30 6436 H 642.556 3.00895 -0.847418 0
M  V30 6437 H 641.776 2.27203 -3.22137 0
M  V30 6438 H 643.064 3.30213 -3.87088 0
M  V30 6439 H 642.462 5.44823 -1.52265 0
M  V30 6440 H 641.019 6.16308 -2.1215 0
M  V30 6441 N 644.452 1.42507 0.673017 0
M  V30 6442 C 645.729 1.33554 1.42908 0
M  V30 6443 C 646.109 -0.0262211 2.11084 0
M  V30 6444 O 645.457 -1.04181 2.03368 0
M  V30 6445 C 645.667 2.50498 2.43006 0
M  V30 6446 C 647.015 2.92694 3.07596 0
M  V30 6447 O 648.039 2.50401 2.53333 0
M  V30 6448 O 646.898 3.65899 4.05931 0
M  V30 6449 H 643.992 0.526785 0.637516 0
M  V30 6450 H 646.538 1.54518 0.701591 0
M  V30 6451 H 645.31 3.41272 1.9144 0
M  V30 6452 H 644.933 2.3153 3.23233 0
M  V30 6453 N 645.93 -0.909495 1.28709 0
M  V30 6454 C 647.176 -1.66151 1.16283 0
M  V30 6455 C 647.509 -1.92067 -0.287069 0
M  V30 6456 O 646.784 -1.52409 -1.20837 0
M  V30 6457 C 647.067 -3.01676 1.9663 0
M  V30 6458 C 646.92 -2.82888 3.49707 0
M  V30 6459 C 648.239 -4.02274 1.78504 0
M  V30 6460 H 645.358 -0.602966 0.423793 0
M  V30 6461 H 648 -1.05418 1.58073 0
M  V30 6462 H 646.15 -3.53515 1.61119 0
M  V30 6463 H 647.822 -2.38026 3.95147 0
M  V30 6464 H 646.065 -2.17862 3.75125 0
M  V30 6465 H 646.736 -3.79147 4.01187 0
M  V30 6466 H 649.212 -3.59511 2.09503 0
M  V30 6467 H 648.088 -4.95056 2.37088 0
M  V30 6468 H 648.349 -4.35903 0.737647 0
M  V30 6469 N 647.408 -1.11026 -1.11852 0
M  V30 6470 C 648.654 -0.857729 -1.83768 0
M  V30 6471 C 648.987 0.615143 -1.842 0
M  V30 6472 O 648.262 1.45391 -1.29196 0
M  V30 6473 C 648.545 -1.41453 -3.31154 0
M  V30 6474 C 648.398 -2.95471 -3.39142 0
M  V30 6475 C 649.717 -1.0619 -4.27097 0
M  V30 6476 H 646.836 -0.313044 -0.667212 0
M  V30 6477 H 649.478 -1.37443 -1.31185 0
M  V30 6478 H 647.628 -0.975052 -3.76065 0
M  V30 6479 H 649.3 -3.4799 -3.02821 0
M  V30 6480 H 647.543 -3.31759 -2.79497 0
M  V30 6481 H 648.214 -3.29515 -4.42859 0
M  V30 6482 H 650.69 -1.44122 -3.90344 0
M  V30 6483 H 649.566 -1.47832 -5.28618 0
M  V30 6484 H 649.827 0.0278912 -4.42091 0
M  V30 6485 N 648.886 1.2938 -0.899927 0
M  V30 6486 C 650.111 2.00228 -0.540692 0
M  V30 6487 C 650.536 1.66909 0.867359 0
M  V30 6488 O 649.894 0.893824 1.57735 0
M  V30 6489 C 649.942 3.52921 -0.740232 0
M  V30 6490 O 649.046 4.11879 0.207154 0
M  V30 6491 H 648.387 0.629505 -0.211233 0
M  V30 6492 H 650.917 1.6487 -1.21158 0
M  V30 6493 H 650.927 4.0287 -0.644973 0
M  V30 6494 H 649.602 3.76508 -1.76677 0
M  V30 6495 H 648.179 3.72845 0.0643315 0
M  V30 6496 N 650.364 0.662433 1.43002 0
M  V30 6497 C 651.294 -0.00979809 2.33498 0
M  V30 6498 C 652.275 -0.802329 1.49989 0
M  V30 6499 O 653.46 -0.761964 1.78627 0
M  V30 6500 C 650.59 -0.970446 3.33466 0
M  V30 6501 C 649.544 -0.287383 4.27034 0
M  V30 6502 C 648.87 -1.36012 5.17112 0
M  V30 6503 C 650.17 0.82595 5.15728 0
M  V30 6504 H 651.864 0.745959 2.89958 0
M  V30 6505 H 649.41 0.360172 1.39423 0
M  V30 6506 H 651.363 -1.44971 3.95679 0
M  V30 6507 H 650.087 -1.75748 2.75282 0
M  V30 6508 H 648.746 0.17152 3.66199 0
M  V30 6509 H 648.394 -2.13882 4.55262 0
M  V30 6510 H 648.094 -0.908276 5.80538 0
M  V30 6511 H 649.618 -1.84056 5.82199 0
M  V30 6512 H 651.032 0.42845 5.71697 0
M  V30 6513 H 649.429 1.20282 5.87922 0
M  V30 6514 H 650.499 1.68003 4.54866 0
M  V30 6515 N 651.842 -1.52309 0.404946 0
M  V30 6516 C 653.09 -2.01368 -0.17186 0
M  V30 6517 C 653.411 -1.29261 -1.46002 0
M  V30 6518 O 652.681 -0.41729 -1.91404 0
M  V30 6519 H 651.261 -0.744034 -0.0664993 0
M  V30 6520 H 653.923 -1.87263 0.540228 0
M  V30 6521 H 653.019 -3.09888 -0.370957 0
M  V30 6522 N 653.32 -0.135238 -1.57019 0
M  V30 6523 C 654.548 0.526066 -2.001 0
M  V30 6524 C 654.963 1.59184 -1.01519 0
M  V30 6525 O 654.32 1.82497 -0.0104258 0
M  V30 6526 C 654.371 1.13744 -3.43139 0
M  V30 6527 O 654.092 0.114259 -4.37951 0
M  V30 6528 C 655.593 1.8805 -4.01438 0
M  V30 6529 H 652.813 0.137962 -0.656664 0
M  V30 6530 H 655.357 -0.226359 -2.03243 0
M  V30 6531 H 653.512 1.84056 -3.40885 0
M  V30 6532 H 653.926 0.56058 -5.21496 0
M  V30 6533 H 655.4 2.26133 -5.03555 0
M  V30 6534 H 655.877 2.76194 -3.41487 0
M  V30 6535 H 656.483 1.22464 -4.07287 0
M  V30 6536 N 654.798 1.5699 0.138552 0
M  V30 6537 C 656.047 1.82998 0.848205 0
M  V30 6538 C 656.36 0.717829 1.81952 0
M  V30 6539 O 657.566 0.863756 2.57394 0
M  V30 6540 C 656.022 3.24379 1.55904 0
M  V30 6541 C 655.63 4.43552 0.62971 0
M  V30 6542 C 657.374 3.59654 2.25498 0
M  V30 6543 C 655.281 5.75957 1.34266 0
M  V30 6544 H 654.211 0.682495 0.320495 0
M  V30 6545 H 656.862 1.83222 0.100924 0
M  V30 6546 H 655.244 3.18567 2.35226 0
M  V30 6547 H 656.418 4.6062 -0.128882 0
M  V30 6548 H 654.733 4.16379 0.0417526 0
M  V30 6549 H 657.33 4.55837 2.79493 0
M  V30 6550 H 657.673 2.86124 3.02388 0
M  V30 6551 H 658.206 3.67164 1.53087 0
M  V30 6552 H 654.945 6.52604 0.615441 0
M  V30 6553 H 654.465 5.62811 2.07375 0
M  V30 6554 H 656.144 6.19046 1.88126 0
M  V30 6555 N 656.276 -0.40816 1.52223 0
M  V30 6556 C 657.239 -1.48 1.7501 0
M  V30 6557 C 658.239 -1.48367 0.619996 0
M  V30 6558 O 659.429 -1.49874 0.887881 0
M  V30 6559 C 656.561 -2.87403 1.83336 0
M  V30 6560 H 657.754 -1.29086 2.70697 0
M  V30 6561 H 655.307 -0.638715 1.42654 0
M  V30 6562 H 656.042 -3.11686 0.895677 0
M  V30 6563 H 655.827 -2.8854 2.65494 0
M  V30 6564 H 657.317 -3.65103 2.02705 0
M  V30 6565 N 657.755 -1.42862 -0.66545 0
M  V30 6566 C 658.718 -1.46756 -1.76055 0
M  V30 6567 C 659.718 -0.353866 -1.56858 0
M  V30 6568 O 660.908 -0.615099 -1.62979 0
M  V30 6569 C 658.04 -1.30829 -3.14796 0
M  V30 6570 H 659.233 -2.44271 -1.73987 0
M  V30 6571 H 656.786 -1.29447 -0.875965 0
M  V30 6572 H 657.521 -0.342733 -3.22484 0
M  V30 6573 H 657.306 -2.11551 -3.30134 0
M  V30 6574 H 658.796 -1.36458 -3.94676 0
M  V30 6575 N 659.233 0.902656 -1.29189 0
M  V30 6576 C 660.649 1.18296 -1.07137 0
M  V30 6577 C 660.849 2.00701 0.179223 0
M  V30 6578 O 659.905 2.3675 0.877812 0
M  V30 6579 C 661.218 1.90677 -2.32514 0
M  V30 6580 C 662.766 2.03515 -2.37804 0
M  V30 6581 C 663.241 2.79307 -3.62976 0
M  V30 6582 N 664.732 2.86862 -3.63681 0
M  V30 6583 C 665.467 3.46035 -4.57217 0
M  V30 6584 N 664.963 4.06399 -5.61081 0
M  V30 6585 N 666.756 3.43681 -4.44792 0
M  V30 6586 H 658.907 0.352765 -2.0945 0
M  V30 6587 H 661.17 0.21876 -0.922414 0
M  V30 6588 H 660.876 1.3756 -3.23682 0
M  V30 6589 H 660.75 2.91169 -2.39793 0
M  V30 6590 H 663.137 2.55809 -1.47125 0
M  V30 6591 H 663.218 1.02166 -2.34512 0
M  V30 6592 H 662.862 2.2769 -4.54004 0
M  V30 6593 H 662.792 3.80995 -3.63525 0
M  V30 6594 H 665.283 2.43987 -2.88581 0
M  V30 6595 H 665.596 4.49564 -6.2858 0
M  V30 6596 H 663.941 4.0487 -5.64894 0
M  V30 6597 H 667.132 2.9574 -3.62843 0
M  V30 6598 H 667.305 3.89503 -5.17872 0
M  V30 6599 N 660.711 1.11618 1.11262 0
M  V30 6600 C 661.641 0.79846 2.19424 0
M  V30 6601 C 662.622 -0.234003 1.68483 0
M  V30 6602 O 663.807 -0.0970704 1.93957 0
M  V30 6603 C 660.937 0.242892 3.4645 0
M  V30 6604 C 659.891 1.20744 4.10615 0
M  V30 6605 C 659.217 0.512494 5.32238 0
M  V30 6606 C 660.517 2.55884 4.55325 0
M  V30 6607 H 662.211 1.70286 2.46258 0
M  V30 6608 H 659.757 0.820195 1.18359 0
M  V30 6609 H 661.71 0.00840447 4.21399 0
M  V30 6610 H 660.434 -0.696811 3.1908 0
M  V30 6611 H 659.093 1.42759 3.37662 0
M  V30 6612 H 658.741 -0.432075 5.01141 0
M  V30 6613 H 658.441 1.15583 5.7612 0
M  V30 6614 H 659.965 0.286842 6.09926 0
M  V30 6615 H 661.379 2.37946 5.21588 0
M  V30 6616 H 659.776 3.16216 5.10027 0
M  V30 6617 H 660.846 3.14968 3.68678 0
M  V30 6618 N 662.189 -1.289 0.906776 0
M  V30 6619 C 663.429 -1.97046 0.543329 0
M  V30 6620 C 663.793 -1.69862 -0.895034 0
M  V30 6621 O 664.994 -2.31521 -1.36571 0
M  V30 6622 C 663.265 -3.47489 0.835833 0
M  V30 6623 S 664.824 -4.3498 0.577756 0
M  V30 6624 H 661.642 -0.681908 0.201302 0
M  V30 6625 H 664.244 -1.5657 1.17073 0
M  V30 6626 H 662.948 -3.64768 1.88075 0
M  V30 6627 H 662.479 -3.92907 0.196817 0
M  V30 6628 H 664.494 -4.92868 -0.574052 0
M  V30 6629 N 663.667 -0.670007 -1.42649 0
M  V30 6630 C 665.083 -0.33911 -1.55956 0
M  V30 6631 C 665.283 1.1558 -1.65056 0
M  V30 6632 O 664.339 1.94111 -1.61485 0
M  V30 6633 C 665.652 -1.06522 -2.812 0
M  V30 6634 C 667.2 -1.04708 -2.94966 0
M  V30 6635 C 667.675 -1.75442 -4.23065 0
M  V30 6636 N 669.166 -1.72286 -4.29967 0
M  V30 6637 C 669.901 -2.23877 -5.27889 0
M  V30 6638 N 669.397 -2.83829 -6.31991 0
M  V30 6639 N 671.19 -2.14279 -5.19654 0
M  V30 6640 H 663.341 -1.6399 -1.34986 0
M  V30 6641 H 665.604 -0.690603 -0.649439 0
M  V30 6642 H 665.31 -2.12033 -2.80597 0
M  V30 6643 H 665.184 -0.627398 -3.71946 0
M  V30 6644 H 667.571 -0.000315966 -2.951 0
M  V30 6645 H 667.652 -1.52374 -2.05465 0
M  V30 6646 H 667.296 -2.80084 -4.23693 0
M  V30 6647 H 667.226 -1.25229 -5.11493 0
M  V30 6648 H 669.717 -1.28554 -3.55362 0
M  V30 6649 H 670.03 -3.20827 -7.03057 0
M  V30 6650 H 668.375 -2.87896 -6.32567 0
M  V30 6651 H 671.566 -1.67135 -4.37245 0
M  V30 6652 H 671.739 -2.54792 -5.95806 0
M  V30 6653 N 665.145 1.52092 -0.413018 0
M  V30 6654 C 666.055 2.30858 0.417318 0
M  V30 6655 C 667.071 1.38746 1.05003 0
M  V30 6656 O 668.247 1.71821 1.05069 0
M  V30 6657 C 665.312 3.11756 1.51687 0
M  V30 6658 C 664.373 4.19613 0.906825 0
M  V30 6659 C 663.606 4.96644 1.95399 0
M  V30 6660 O 663.829 4.7402 3.17271 0
M  V30 6661 O 662.763 5.81385 1.55805 0
M  V30 6662 H 666.589 3.02865 -0.225028 0
M  V30 6663 H 664.174 1.48358 -0.176126 0
M  V30 6664 H 666.056 3.62122 2.15512 0
M  V30 6665 H 664.731 2.42539 2.14375 0
M  V30 6666 H 663.638 3.73385 0.231183 0
M  V30 6667 H 664.971 4.91134 0.323814 0
M  V30 6668 N 666.623 0.143563 1.56945 0
M  V30 6669 C 667.57 -0.797433 2.16586 0
M  V30 6670 C 668.54 -1.24654 1.09775 0
M  V30 6671 O 669.725 -1.31968 1.37801 0
M  V30 6672 C 666.865 -2.03253 2.78895 0
M  V30 6673 C 665.978 -1.62954 4.00087 0
M  V30 6674 C 665.113 -2.81617 4.50406 0
M  V30 6675 C 664.152 -2.37675 5.64072 0
M  V30 6676 N 663.289 -3.49335 6.09023 0
M  V30 6677 H 668.129 -0.282023 2.96662 0
M  V30 6678 H 665.666 -0.127494 1.46546 0
M  V30 6679 H 667.624 -2.75653 3.13163 0
M  V30 6680 H 666.254 -2.52211 2.01469 0
M  V30 6681 H 665.306 -0.803322 3.71821 0
M  V30 6682 H 666.618 -1.26679 4.82446 0
M  V30 6683 H 665.772 -3.62212 4.86711 0
M  V30 6684 H 664.511 -3.21134 3.67048 0
M  V30 6685 H 663.516 -1.55519 5.27346 0
M  V30 6686 H 664.741 -1.99247 6.49213 0
M  V30 6687 H 662.687 -3.8848 5.28601 0
M  V30 6688 H 662.604 -3.17064 6.86299 0
M  V30 6689 H 663.872 -4.30297 6.49973 0
M  V30 6690 N 668.101 -1.57061 -0.130224 0
M  V30 6691 C 669.35 -1.83446 -0.838488 0
M  V30 6692 C 669.663 -0.727468 -1.81569 0
M  V30 6693 O 670.869 -0.877394 -2.56932 0
M  V30 6694 C 669.325 -3.25201 -1.54182 0
M  V30 6695 C 668.933 -4.4388 -0.606178 0
M  V30 6696 C 670.677 -3.60844 -2.23588 0
M  V30 6697 C 668.584 -5.76661 -1.31209 0
M  V30 6698 H 667.514 -0.684185 -0.316871 0
M  V30 6699 H 670.165 -1.83273 -0.0912059 0
M  V30 6700 H 668.547 -3.1981 -2.33533 0
M  V30 6701 H 669.721 -4.60545 0.153308 0
M  V30 6702 H 668.036 -4.16395 -0.0196705 0
M  V30 6703 H 670.633 -4.57313 -2.77072 0
M  V30 6704 H 670.976 -2.87724 -3.00867 0
M  V30 6705 H 671.509 -3.67971 -1.51137 0
M  V30 6706 H 668.248 -6.52922 -0.580823 0
M  V30 6707 H 667.768 -5.63902 -2.04387 0
M  V30 6708 H 669.447 -6.20035 -1.8484 0
M  V30 6709 N 669.579 0.400081 -1.52437 0
M  V30 6710 C 670.856 1.15973 -1.57511 0
M  V30 6711 C 671.236 2.0798 -0.361572 0
M  V30 6712 O 670.584 2.19032 0.650929 0
M  V30 6713 C 670.794 1.92912 -2.90837 0
M  V30 6714 C 672.142 2.48662 -3.44169 0
M  V30 6715 O 673.166 2.03081 -2.92637 0
M  V30 6716 O 672.025 3.31894 -4.34176 0
M  V30 6717 H 669.119 0.530023 -0.634827 0
M  V30 6718 H 671.665 0.40613 -1.64769 0
M  V30 6719 H 670.437 1.25564 -3.70607 0
M  V30 6720 H 670.06 2.75257 -2.86913 0
M  V30 6721 N 671.057 1.43213 0.657864 0
M  V30 6722 C 672.473 1.26511 0.972992 0
M  V30 6723 C 672.673 0.181477 2.00681 0
M  V30 6724 O 671.729 -0.441649 2.48608 0
M  V30 6725 C 673.042 2.62784 1.46168 0
M  V30 6726 C 674.59 2.70278 1.57857 0
M  V30 6727 C 675.065 4.06958 2.10117 0
M  V30 6728 N 676.556 4.08999 2.17426 0
M  V30 6729 C 677.291 5.11585 2.58975 0
M  V30 6730 N 676.787 6.24548 2.99853 0
M  V30 6731 N 678.58 4.9894 2.58873 0
M  V30 6732 H 670.731 2.12384 -0.0263129 0
M  V30 6733 H 672.994 0.946638 0.0507992 0
M  V30 6734 H 672.7 3.43022 0.776474 0
M  V30 6735 H 672.574 2.87863 2.43751 0
M  V30 6736 H 674.961 1.90376 2.25479 0
M  V30 6737 H 675.042 2.4897 0.587179 0
M  V30 6738 H 674.686 4.87325 1.43098 0
M  V30 6739 H 674.616 4.25628 3.10078 0
M  V30 6740 H 677.107 3.27457 1.88627 0
M  V30 6741 H 677.42 6.98661 3.30292 0
M  V30 6742 H 675.765 6.28027 2.97669 0
M  V30 6743 H 678.956 4.09757 2.26311 0
M  V30 6744 H 679.129 5.79019 2.90932 0
M  V30 6745 N 672.536 -0.895792 1.29666 0
M  V30 6746 C 673.782 -1.64921 1.19049 0
M  V30 6747 C 674.137 -1.90707 -0.254678 0
M  V30 6748 O 673.43 -1.5092 -1.18041 0
M  V30 6749 C 673.624 -3.00075 1.94139 0
M  V30 6750 C 673.453 -2.87482 3.4581 0
M  V30 6751 C 672.223 -2.88041 4.15163 0
M  V30 6752 C 674.421 -2.64224 4.41237 0
M  V30 6753 N 672.403 -2.66226 5.5317 0
M  V30 6754 C 673.774 -2.51427 5.66732 0
M  V30 6755 C 675.829 -2.49362 4.30956 0
M  V30 6756 C 674.532 -2.25281 6.83111 0
M  V30 6757 C 676.558 -2.246 5.47091 0
M  V30 6758 C 675.92 -2.12571 6.7156 0
M  V30 6759 H 672.019 -0.608926 0.490646 0
M  V30 6760 H 674.603 -1.05648 1.63544 0
M  V30 6761 H 672.774 -3.574 1.52052 0
M  V30 6762 H 674.506 -3.64544 1.75754 0
M  V30 6763 H 671.261 -2.99471 3.66898 0
M  V30 6764 H 671.685 -2.58361 6.25762 0
M  V30 6765 H 676.327 -2.57403 3.35415 0
M  V30 6766 H 674.045 -2.15978 7.78704 0
M  V30 6767 H 677.631 -2.13939 5.41037 0
M  V30 6768 H 676.511 -1.93676 7.59907 0
M  V30 6769 N 674.014 -1.12206 -1.10668 0
M  V30 6770 C 674.977 -0.790867 -2.15123 0
M  V30 6771 C 675.977 0.193618 -1.5963 0
M  V30 6772 O 677.167 -0.0318728 -1.74171 0
M  V30 6773 C 674.299 -0.174797 -3.40452 0
M  V30 6774 H 675.492 -1.7163 -2.45933 0
M  V30 6775 H 673.045 -0.924993 -1.2599 0
M  V30 6776 H 673.78 0.760478 -3.15257 0
M  V30 6777 H 673.565 -0.88358 -3.82015 0
M  V30 6778 H 675.055 0.0405162 -4.1758 0
M  V30 6779 N 675.492 1.28418 -0.913599 0
M  V30 6780 C 676.402 2.31043 -0.406965 0
M  V30 6781 C 677.418 1.66501 0.505298 0
M  V30 6782 O 678.594 1.97558 0.391522 0
M  V30 6783 C 675.659 3.4498 0.344901 0
M  V30 6784 C 674.72 4.25078 -0.600563 0
M  V30 6785 C 673.953 5.33575 0.115516 0
M  V30 6786 O 674.176 5.54503 1.33727 0
M  V30 6787 O 673.11 5.9939 -0.549095 0
M  V30 6788 H 676.936 2.76387 -1.25873 0
M  V30 6789 H 674.521 1.33109 -0.678415 0
M  V30 6790 H 676.403 4.14314 0.769542 0
M  V30 6791 H 675.078 3.01719 1.1725 0
M  V30 6792 H 673.985 3.58334 -1.0746 0
M  V30 6793 H 675.318 4.72018 -1.39497 0
M  V30 6794 N 676.97 0.677563 1.42291 0
M  V30 6795 C 678.219 0.198173 2.00724 0
M  V30 6796 C 678.532 -1.20325 1.54211 0
M  V30 6797 O 679.738 -1.77916 2.05081 0
M  V30 6798 C 678.194 0.303432 3.58619 0
M  V30 6799 C 677.802 1.70909 4.14119 0
M  V30 6800 C 679.546 -0.117103 4.24338 0
M  V30 6801 C 677.453 1.76696 5.64387 0
M  V30 6802 H 676.383 0.070329 0.750713 0
M  V30 6803 H 679.034 0.843147 1.62982 0
M  V30 6804 H 677.416 -0.409482 3.93877 0
M  V30 6805 H 678.59 2.44931 3.90315 0
M  V30 6806 H 676.905 2.07771 3.6086 0
M  V30 6807 H 679.502 -0.0940471 5.34617 0
M  V30 6808 H 679.845 -1.15283 4.00019 0
M  V30 6809 H 680.378 0.5449 3.9405 0
M  V30 6810 H 677.117 2.7826 5.93508 0
M  V30 6811 H 676.637 1.07034 5.90173 0
M  V30 6812 H 678.316 1.52166 6.28852 0
M  V30 6813 N 678.448 -1.51871 0.421078 0
M  V30 6814 C 679.378 -2.30231 -0.389363 0
M  V30 6815 C 680.359 -1.34946 -1.03555 0
M  V30 6816 O 681.544 -1.63859 -1.04229 0
M  V30 6817 C 678.674 -3.13247 -1.49979 0
M  V30 6818 C 677.628 -4.16677 -0.977966 0
M  V30 6819 C 676.954 -4.88112 -2.1829 0
M  V30 6820 C 678.254 -5.22295 -0.0236775 0
M  V30 6821 H 679.948 -2.98229 0.264524 0
M  V30 6822 H 677.494 -1.43424 0.12866 0
M  V30 6823 H 679.447 -3.66838 -2.07383 0
M  V30 6824 H 678.171 -2.4304 -2.18173 0
M  V30 6825 H 676.83 -3.64114 -0.426245 0
M  V30 6826 H 676.478 -4.14423 -2.85066 0
M  V30 6827 H 676.178 -5.58041 -1.84021 0
M  V30 6828 H 677.702 -5.44521 -2.76278 0
M  V30 6829 H 679.116 -5.71055 -0.506899 0
M  V30 6830 H 677.513 -5.99656 0.230782 0
M  V30 6831 H 678.583 -4.76131 0.917999 0
M  V30 6832 N 679.926 -0.151884 -1.56866 0
M  V30 6833 C 680.889 0.771861 -2.15812 0
M  V30 6834 C 681.889 1.17181 -1.10115 0
M  V30 6835 O 683.079 1.09194 -1.35729 0
M  V30 6836 C 680.211 2.04806 -2.7252 0
M  V30 6837 H 681.404 0.259021 -2.98779 0
M  V30 6838 H 678.957 0.097588 -1.55995 0
M  V30 6839 H 679.692 2.60445 -1.93233 0
M  V30 6840 H 679.477 1.77044 -3.49854 0
M  V30 6841 H 680.967 2.70771 -3.1792 0
M  V30 6842 N 681.404 1.57128 0.121893 0
M  V30 6843 C 682.653 1.83888 0.828748 0
M  V30 6844 C 682.966 0.737087 1.81181 0
M  V30 6845 O 684.172 0.891007 2.56463 0
M  V30 6846 C 682.628 3.26014 1.52455 0
M  V30 6847 C 682.236 4.44195 0.58263 0
M  V30 6848 C 683.98 3.62025 2.21671 0
M  V30 6849 C 681.887 5.77349 1.28149 0
M  V30 6850 H 680.817 0.685856 0.313238 0
M  V30 6851 H 683.468 1.83319 0.0814851 0
M  V30 6852 H 681.85 3.21044 2.31834 0
M  V30 6853 H 683.024 4.60457 -0.177729 0
M  V30 6854 H 681.339 4.164 -0.00241228 0
M  V30 6855 H 683.936 4.58776 2.74643 0
M  V30 6856 H 684.279 2.89315 2.99337 0
M  V30 6857 H 684.812 3.68767 1.49184 0
M  V30 6858 H 681.551 6.53221 0.546189 0
M  V30 6859 H 681.071 5.64978 2.01394 0
M  V30 6860 H 682.75 6.21006 1.81549 0
M  V30 6861 N 682.882 -0.391992 1.52647 0
M  V30 6862 C 683.812 -1.48517 1.8018 0
M  V30 6863 C 684.793 -1.57039 0.653667 0
M  V30 6864 O 685.978 -1.72036 0.900962 0
M  V30 6865 C 683.108 -2.86161 1.96797 0
M  V30 6866 C 682.062 -2.92481 3.12472 0
M  V30 6867 C 681.388 -4.32546 3.14338 0
M  V30 6868 C 682.688 -2.624 4.51601 0
M  V30 6869 H 684.382 -1.25726 2.71723 0
M  V30 6870 H 681.928 -0.603387 1.30749 0
M  V30 6871 H 683.881 -3.62639 2.14641 0
M  V30 6872 H 682.605 -3.10283 1.01941 0
M  V30 6873 H 681.264 -2.18451 2.94406 0
M  V30 6874 H 680.912 -4.53703 2.1717 0
M  V30 6875 H 680.612 -4.37695 3.92042 0
M  V30 6876 H 682.136 -5.10934 3.34333 0
M  V30 6877 H 683.55 -3.28596 4.69785 0
M  V30 6878 H 681.947 -2.78903 5.3135 0
M  V30 6879 H 683.017 -1.57754 4.58521 0
M  V30 6880 N 684.36 -1.4356 -0.65026 0
M  V30 6881 C 685.323 -1.48615 -1.74489 0
M  V30 6882 C 686.323 -0.370483 -1.56474 0
M  V30 6883 O 687.513 -0.632351 -1.62317 0
M  V30 6884 C 684.645 -1.34161 -3.13391 0
M  V30 6885 H 685.838 -2.46103 -1.71387 0
M  V30 6886 H 683.391 -1.30369 -0.862186 0
M  V30 6887 H 684.126 -0.376918 -3.22102 0
M  V30 6888 H 683.911 -2.1504 -3.27872 0
M  V30 6889 H 685.401 -1.40637 -3.93206 0
M  V30 6890 N 685.838 0.888903 -1.30139 0
M  V30 6891 C 686.768 2.01046 -1.18755 0
M  V30 6892 C 687.749 1.69916 -0.0791438 0
M  V30 6893 O 688.934 1.92445 -0.260498 0
M  V30 6894 C 686.064 3.36109 -0.874518 0
M  V30 6895 C 685.018 3.81486 -1.94043 0
M  V30 6896 C 684.344 5.13796 -1.48047 0
M  V30 6897 C 685.644 4.00637 -3.35093 0
M  V30 6898 H 687.338 2.10828 -2.12584 0
M  V30 6899 H 684.884 1.01298 -1.02346 0
M  V30 6900 H 686.837 4.14089 -0.781548 0
M  V30 6901 H 685.561 3.26449 0.0994519 0
M  V30 6902 H 684.22 3.05731 -2.02297 0
M  V30 6903 H 683.868 5.0056 -0.494878 0
M  V30 6904 H 683.568 5.45127 -2.19341 0
M  V30 6905 H 685.092 5.94305 -1.40121 0
M  V30 6906 H 686.506 4.69067 -3.2962 0
M  V30 6907 H 684.903 4.43339 -4.04438 0
M  V30 6908 H 685.973 3.0462 -3.77273 0
M  V30 6909 N 687.317 1.12792 1.10072 0
M  V30 6910 C 688.557 0.895691 1.8373 0
M  V30 6911 C 688.921 -0.568131 1.83402 0
M  V30 6912 O 690.122 -0.917666 2.52651 0
M  V30 6913 C 688.393 1.4593 3.2625 0
M  V30 6914 S 689.952 1.36615 4.16991 0
M  V30 6915 H 686.77 0.323017 0.633389 0
M  V30 6916 H 689.372 1.43816 1.32428 0
M  V30 6917 H 688.076 2.51818 3.24062 0
M  V30 6918 H 687.607 0.914478 3.82624 0
M  V30 6919 H 689.622 0.340131 4.95033 0
M  V30 6920 N 688.795 -1.27931 0.920396 0
M  V30 6921 C 689.725 -2.29487 0.431024 0
M  V30 6922 C 690.706 -1.62435 -0.504861 0
M  V30 6923 O 691.891 -1.89797 -0.411176 0
M  V30 6924 C 689.021 -3.45788 -0.323709 0
M  V30 6925 C 687.975 -4.24784 0.523658 0
M  V30 6926 C 687.301 -5.33488 -0.359809 0
M  V30 6927 C 688.601 -4.90874 1.78437 0
M  V30 6928 H 690.295 -2.70671 1.27975 0
M  V30 6929 H 687.841 -1.30121 0.616813 0
M  V30 6930 H 689.794 -4.15927 -0.676952 0
M  V30 6931 H 688.518 -3.03502 -1.2064 0
M  V30 6932 H 687.177 -3.56382 0.85951 0
M  V30 6933 H 686.825 -4.87445 -1.24124 0
M  V30 6934 H 686.525 -5.87247 0.203605 0
M  V30 6935 H 688.049 -6.06472 -0.708787 0
M  V30 6936 H 689.463 -5.53339 1.49963 0
M  V30 6937 H 687.86 -5.54659 2.29071 0
M  V30 6938 H 688.93 -4.14988 2.50824 0
M  V30 6939 N 690.273 -0.685099 -1.4193 0
M  V30 6940 C 691.236 -0.0222632 -2.29189 0
M  V30 6941 C 692.236 0.7186 -1.4385 0
M  V30 6942 O 693.426 0.555058 -1.6512 0
M  V30 6943 C 690.558 0.979013 -3.2654 0
M  V30 6944 H 691.751 -0.790424 -2.89296 0
M  V30 6945 H 689.304 -0.448012 -1.49742 0
M  V30 6946 H 690.039 1.77531 -2.71392 0
M  V30 6947 H 689.824 0.451037 -3.89497 0
M  V30 6948 H 691.314 1.44091 -3.91954 0
M  V30 6949 N 691.751 1.51645 -0.429126 0
M  V30 6950 C 692.683 2.25279 0.422124 0
M  V30 6951 C 693.696 1.28986 0.993299 0
M  V30 6952 O 694.885 1.54797 0.888836 0
M  V30 6953 C 691.985 2.98666 1.60162 0
M  V30 6954 C 691.158 4.2199 1.15078 0
M  V30 6955 C 690.217 4.78028 2.19946 0
M  V30 6956 O 689.243 5.40084 1.79716 0
M  V30 6957 N 690.445 4.61342 3.5234 0
M  V30 6958 H 693.21 2.98971 -0.208931 0
M  V30 6959 H 690.771 1.59838 -0.257568 0
M  V30 6960 H 692.763 3.33044 2.29922 0
M  V30 6961 H 691.333 2.28036 2.13818 0
M  V30 6962 H 690.553 3.932 0.280552 0
M  V30 6963 H 691.841 5.02037 0.826831 0
M  V30 6964 H 691.239 4.11894 3.87763 0
M  V30 6965 H 689.796 5.00104 4.18019 0
M  V30 6966 N 693.229 0.160201 1.56784 0
M  V30 6967 C 694.192 -0.760405 2.16219 0
M  V30 6968 C 695.192 -1.16595 1.10735 0
M  V30 6969 O 696.382 -1.08472 1.36306 0
M  V30 6970 C 693.514 -2.03358 2.73603 0
M  V30 6971 H 694.707 -0.243173 2.98912 0
M  V30 6972 H 692.26 -0.0893139 1.56045 0
M  V30 6973 H 692.995 -2.59416 1.94612 0
M  V30 6974 H 692.78 -1.75186 3.50788 0
M  V30 6975 H 694.27 -2.69081 3.19351 0
M  V30 6976 N 694.707 -1.5719 -0.113559 0
M  V30 6977 C 695.67 -1.99796 -1.12314 0
M  V30 6978 C 696.67 -0.888847 -1.34001 0
M  V30 6979 O 697.86 -1.15476 -1.30426 0
M  V30 6980 C 694.992 -2.34279 -2.47641 0
M  V30 6981 H 696.185 -2.90193 -0.756825 0
M  V30 6982 H 693.738 -1.52144 -0.358029 0
M  V30 6983 H 694.473 -1.46778 -2.89183 0
M  V30 6984 H 694.258 -3.15175 -2.33253 0
M  V30 6985 H 695.748 -2.67963 -3.2029 0
M  V30 6986 N 696.185 0.383891 -1.52853 0
M  V30 6987 C 697.095 1.49343 -1.80925 0
M  V30 6988 C 698.111 1.59458 -0.696348 0
M  V30 6989 O 699.287 1.75698 -0.984481 0
M  V30 6990 C 696.352 2.84819 -1.97684 0
M  V30 6991 C 695.413 2.84382 -3.21598 0
M  V30 6992 C 694.646 4.13397 -3.37548 0
M  V30 6993 O 694.869 5.08619 -2.58192 0
M  V30 6994 O 693.803 4.20325 -4.30826 0
M  V30 6995 H 697.629 1.2855 -2.75152 0
M  V30 6996 H 695.214 0.572229 -1.38007 0
M  V30 6997 H 697.096 3.65125 -2.10385 0
M  V30 6998 H 695.771 3.05627 -1.06647 0
M  V30 6999 H 694.678 2.0284 -3.14336 0
M  V30 7000 H 696.011 2.68526 -4.12498 0
M  V30 7001 N 697.663 1.43903 0.642637 0
M  V30 7002 C 698.593 1.52697 1.76652 0
M  V30 7003 C 699.574 0.380816 1.65782 0
M  V30 7004 O 700.759 0.599432 1.84717 0
M  V30 7005 C 697.889 1.45975 3.15133 0
M  V30 7006 C 696.843 2.58949 3.40778 0
M  V30 7007 C 696.169 2.37279 4.79169 0
M  V30 7008 C 697.469 4.01153 3.34475 0
M  V30 7009 H 699.163 2.46766 1.69549 0
M  V30 7010 H 696.709 1.18767 0.814279 0
M  V30 7011 H 698.662 1.5073 3.93521 0
M  V30 7012 H 697.386 0.484162 3.22991 0
M  V30 7013 H 696.045 2.53564 2.64765 0
M  V30 7014 H 695.693 1.37939 4.83717 0
M  V30 7015 H 695.393 3.13016 4.97287 0
M  V30 7016 H 696.917 2.43834 5.59801 0
M  V30 7017 H 698.331 4.07968 4.02784 0
M  V30 7018 H 696.728 4.77001 3.64129 0
M  V30 7019 H 697.798 4.25539 2.32475 0
M  V30 7020 N 699.141 -0.881989 1.30609 0
M  V30 7021 C 700.557 -1.16576 1.09005 0
M  V30 7022 C 700.757 -2.00961 -0.14727 0
M  V30 7023 O 699.813 -2.38117 -0.840036 0
M  V30 7024 C 701.126 -1.86954 2.35518 0
M  V30 7025 C 702.674 -1.99706 2.41011 0
M  V30 7026 C 703.149 -2.73497 3.67374 0
M  V30 7027 N 704.64 -2.8104 3.68199 0
M  V30 7028 C 705.375 -3.38718 4.62664 0
M  V30 7029 N 704.871 -3.97421 5.67475 0
M  V30 7030 N 706.664 -3.36561 4.50203 0
M  V30 7031 H 698.815 -0.319398 2.09985 0
M  V30 7032 H 701.078 -0.204058 0.925778 0
M  V30 7033 H 700.784 -1.32393 3.2583 0
M  V30 7034 H 700.658 -2.87317 2.44395 0
M  V30 7035 H 703.045 -2.53436 1.51176 0
M  V30 7036 H 703.126 -0.984218 2.36108 0
M  V30 7037 H 702.77 -2.20438 4.57569 0
M  V30 7038 H 702.7 -3.75163 3.6954 0
M  V30 7039 H 705.191 -2.39365 2.92426 0
M  V30 7040 H 705.504 -4.39507 6.35652 0
M  V30 7041 H 703.849 -3.95832 5.71264 0
M  V30 7042 H 707.04 -2.8993 3.67503 0
M  V30 7043 H 707.213 -3.81215 5.24003 0
M  V30 7044 N 700.619 -1.13374 -1.09472 0
M  V30 7045 C 701.859 -0.905422 -1.83252 0
M  V30 7046 C 702.223 0.558396 -1.83701 0
M  V30 7047 O 703.424 0.904254 -2.53134 0
M  V30 7048 C 701.695 -1.47658 -3.25472 0
M  V30 7049 S 703.254 -1.38825 -4.16261 0
M  V30 7050 H 700.072 -0.326371 -0.631667 0
M  V30 7051 H 702.674 -1.44517 -1.31663 0
M  V30 7052 H 701.378 -2.53533 -3.22722 0
M  V30 7053 H 700.909 -0.934756 -3.82133 0
M  V30 7054 H 702.924 -0.366379 -4.94846 0
M  V30 7055 N 702.098 1.27442 -0.927168 0
M  V30 7056 C 703.346 1.94007 -0.566203 0
M  V30 7057 C 703.667 1.7323 0.895345 0
M  V30 7058 O 702.937 1.07973 1.63459 0
M  V30 7059 H 701.517 0.717917 -0.206409 0
M  V30 7060 H 704.179 1.55161 -1.17945 0
M  V30 7061 H 703.275 3.02401 -0.772028 0
M  V30 7062 N 703.576 0.692616 1.41565 0
M  V30 7063 C 704.801 0.229776 2.06123 0
M  V30 7064 C 705.226 -1.11119 1.5177 0
M  V30 7065 O 704.584 -1.69498 0.643444 0
M  V30 7066 C 704.632 0.19469 3.60074 0
M  V30 7067 O 703.736 -0.831366 4.03933 0
M  V30 7068 H 703.077 0.113002 0.654314 0
M  V30 7069 H 705.607 0.946645 1.81383 0
M  V30 7070 H 705.617 0.0245487 4.07993 0
M  V30 7071 H 704.292 1.17339 3.99004 0
M  V30 7072 H 702.869 -0.630819 3.67526 0
M  V30 7073 N 705.054 -1.51416 0.437162 0
M  V30 7074 C 706.302 -2.01687 -0.129108 0
M  V30 7075 C 706.623 -1.32329 -1.43227 0
M  V30 7076 O 705.893 -0.457796 -1.90476 0
M  V30 7077 H 704.473 -0.745277 -0.0507023 0
M  V30 7078 H 707.135 -1.86075 0.579828 0
M  V30 7079 H 706.231 -3.10605 -0.305141 0
M  V30 7080 N 706.532 -0.168513 -1.56696 0
M  V30 7081 C 707.462 0.758563 -2.20835 0
M  V30 7082 C 708.443 1.24121 -1.1631 0
M  V30 7083 O 709.628 1.29487 -1.4473 0
M  V30 7084 C 706.758 1.9892 -2.8469 0
M  V30 7085 C 705.712 1.64252 -3.95228 0
M  V30 7086 C 705.038 2.94757 -4.46119 0
M  V30 7087 C 706.338 0.872675 -5.14958 0
M  V30 7088 H 708.032 0.223953 -2.98561 0
M  V30 7089 H 705.578 0.106277 -1.43607 0
M  V30 7090 H 707.531 2.64275 -3.28233 0
M  V30 7091 H 706.255 2.5479 -2.04327 0
M  V30 7092 H 704.914 1.01266 -3.52336 0
M  V30 7093 H 704.562 3.48662 -3.62552 0
M  V30 7094 H 704.262 2.72316 -5.2069 0
M  V30 7095 H 705.786 3.61147 -4.92347 0
M  V30 7096 H 707.2 1.42875 -5.55211 0
M  V30 7097 H 705.597 0.747402 -5.95428 0
M  V30 7098 H 706.667 -0.131535 -4.84722 0
M  V30 7099 N 708.01 1.57248 0.105221 0
M  V30 7100 C 709.287 1.76566 0.841647 0
M  V30 7101 C 709.667 0.747566 1.9742 0
M  V30 7102 O 709.015 -0.225886 2.27381 0
M  V30 7103 C 709.225 3.22016 1.3456 0
M  V30 7104 C 710.573 3.84911 1.79244 0
M  V30 7105 O 711.597 3.25703 1.44207 0
M  V30 7106 O 710.456 4.89008 2.43995 0
M  V30 7107 H 707.55 0.723443 0.400698 0
M  V30 7108 H 710.096 1.69472 0.0878893 0
M  V30 7109 H 708.868 3.87644 0.533685 0
M  V30 7110 H 708.491 3.33703 2.16167 0
M  V30 7111 N 709.488 -0.375779 1.53054 0
M  V30 7112 C 710.736 -1.11727 1.68409 0
M  V30 7113 C 711.057 -1.90127 0.43323 0
M  V30 7114 O 710.327 -1.87945 -0.552595 0
M  V30 7115 H 708.907 -0.415451 0.620813 0
M  V30 7116 H 711.569 -0.424869 1.90213 0
M  V30 7117 H 710.665 -1.8128 2.54055 0
M  V30 7118 N 710.966 -1.44241 -0.634997 0
M  V30 7119 C 712.212 -1.47038 -1.39669 0
M  V30 7120 C 712.545 -0.101122 -1.93937 0
M  V30 7121 O 711.82 0.880699 -1.73418 0
M  V30 7122 C 712.103 -2.52763 -2.56482 0
M  V30 7123 C 711.956 -3.99032 -2.07589 0
M  V30 7124 C 713.275 -2.55031 -3.58674 0
M  V30 7125 H 710.394 -0.53537 -0.506506 0
M  V30 7126 H 713.036 -1.75898 -0.718317 0
M  V30 7127 H 711.186 -2.28284 -3.14354 0
M  V30 7128 H 712.858 -4.3463 -1.54577 0
M  V30 7129 H 711.101 -4.10994 -1.38804 0
M  V30 7130 H 711.772 -4.68649 -2.91671 0
M  V30 7131 H 714.248 -2.76893 -3.10595 0
M  V30 7132 H 713.124 -3.30916 -4.37934 0
M  V30 7133 H 713.385 -1.59085 -4.12486 0
M  V30 7134 N 712.444 0.87505 -1.31075 0
M  V30 7135 C 713.669 1.66583 -1.23551 0
M  V30 7136 C 714.094 1.87067 0.19686 0
M  V30 7137 O 713.452 1.40877 1.1412 0
M  V30 7138 C 713.5 3.01401 -1.97965 0
M  V30 7139 O 712.604 3.90923 -1.31351 0
M  V30 7140 H 711.945 0.508645 -0.426821 0
M  V30 7141 H 714.475 1.09139 -1.7306 0
M  V30 7142 H 714.485 3.51374 -2.07366 0
M  V30 7143 H 713.16 2.85812 -3.02133 0
M  V30 7144 H 711.737 3.49369 -1.30368 0
M  V30 7145 N 713.922 1.13953 1.08869 0
M  V30 7146 C 715.333 0.916649 1.62648 0
M  V30 7147 C 715.684 -0.545589 1.88462 0
M  V30 7148 O 714.809 -1.41351 1.63856 0
M  V30 7149 C 715.404 1.65751 2.95486 0
M  V30 7150 C 713.963 1.48034 3.46068 0
M  V30 7151 C 713.11 1.68305 2.20383 0
M  V30 7152 H 716.061 1.292 0.921572 0
M  V30 7153 H 716.082 1.11794 3.63707 0
M  V30 7154 H 715.594 2.72171 2.76667 0
M  V30 7155 H 713.695 0.439416 3.7 0
M  V30 7156 H 713.808 2.24719 4.23129 0
M  V30 7157 H 712.172 1.10833 2.29321 0
M  V30 7158 H 712.955 2.76057 2.04077 0
M  V30 7159 N 715.4 -1.26948 0.933913 0
M  V30 7160 C 716.363 -2.24889 0.442457 0
M  V30 7161 C 717.363 -1.54594 -0.442426 0
M  V30 7162 O 718.553 -1.72502 -0.242629 0
M  V30 7163 C 715.685 -3.3896 -0.363173 0
M  V30 7164 H 716.878 -2.69879 1.30787 0
M  V30 7165 H 714.431 -1.38978 0.715187 0
M  V30 7166 H 715.166 -2.99361 -1.24714 0
M  V30 7167 H 714.951 -3.9116 0.271366 0
M  V30 7168 H 716.441 -4.11739 -0.697186 0
M  V30 7169 N 716.879 -0.700114 -1.41195 0
M  V30 7170 C 718.127 -0.232546 -2.00758 0
M  V30 7171 C 718.448 1.1734 -1.55745 0
M  V30 7172 O 717.718 1.79262 -0.790058 0
M  V30 7173 H 716.298 -0.0829845 -0.742376 0
M  V30 7174 H 718.96 -0.902289 -1.72756 0
M  V30 7175 H 718.056 -0.253521 -3.11069 0
M  V30 7176 N 718.357 1.51182 -0.445186 0
M  V30 7177 C 719.304 2.27939 0.362291 0
M  V30 7178 C 720.274 1.31864 1.01 0
M  V30 7179 O 721.459 1.60776 1.02741 0
M  V30 7180 C 718.599 3.13016 1.45311 0
M  V30 7181 C 717.712 4.24093 0.822757 0
M  V30 7182 C 716.847 4.96467 1.88928 0
M  V30 7183 C 715.886 5.99454 1.23778 0
M  V30 7184 N 715.023 6.65206 2.24602 0
M  V30 7185 H 719.863 2.965 -0.29862 0
M  V30 7186 H 717.4 1.46237 -0.15911 0
M  V30 7187 H 719.358 3.60673 2.09692 0
M  V30 7188 H 717.988 2.46553 2.08354 0
M  V30 7189 H 717.04 3.80341 0.0670364 0
M  V30 7190 H 718.352 4.97853 0.307184 0
M  V30 7191 H 717.506 5.47712 2.60953 0
M  V30 7192 H 716.245 4.22355 2.4386 0
M  V30 7193 H 715.25 5.47494 0.503042 0
M  V30 7194 H 716.475 6.75527 0.695694 0
M  V30 7195 H 714.421 5.93901 2.78599 0
M  V30 7196 H 714.338 7.34756 1.77958 0
M  V30 7197 H 715.606 7.21078 2.96085 0
M  V30 7198 N 719.835 0.176821 1.56605 0
M  V30 7199 C 720.782 -0.751312 2.18229 0
M  V30 7200 C 721.752 -1.22297 1.12395 0
M  V30 7201 O 722.937 -1.29015 1.40569 0
M  V30 7202 C 720.077 -1.97291 2.83143 0
M  V30 7203 C 719.19 -1.54431 4.03454 0
M  V30 7204 C 718.325 -2.72 4.56278 0
M  V30 7205 C 717.364 -2.25657 5.68986 0
M  V30 7206 N 716.501 -3.36338 6.16296 0
M  V30 7207 H 721.341 -0.219033 2.97194 0
M  V30 7208 H 718.878 -0.0963803 1.46784 0
M  V30 7209 H 720.836 -2.68949 3.1894 0
M  V30 7210 H 719.466 -2.4788 2.06773 0
M  V30 7211 H 718.518 -0.724273 3.73441 0
M  V30 7212 H 719.83 -1.16417 4.85024 0
M  V30 7213 H 718.984 -3.51806 4.94285 0
M  V30 7214 H 717.723 -3.13277 3.73777 0
M  V30 7215 H 716.728 -1.44299 5.30526 0
M  V30 7216 H 717.953 -1.85432 6.53293 0
M  V30 7217 H 715.899 -3.7718 5.36723 0
M  V30 7218 H 715.816 -3.02435 6.9287 0
M  V30 7219 H 717.084 -4.16413 6.58954 0
M  V30 7220 N 721.313 -1.57302 -0.09688 0
M  V30 7221 C 722.243 -2.0497 -1.11846 0
M  V30 7222 C 723.224 -0.938278 -1.41882 0
M  V30 7223 O 724.409 -1.20943 -1.51942 0
M  V30 7224 C 721.539 -2.47264 -2.43881 0
M  V30 7225 C 720.493 -3.62053 -2.28257 0
M  V30 7226 C 719.819 -3.90318 -3.65453 0
M  V30 7227 C 721.119 -4.93005 -1.72461 0
M  V30 7228 H 722.813 -2.90567 -0.721888 0
M  V30 7229 H 720.359 -1.39786 -0.345803 0
M  V30 7230 H 722.312 -2.7922 -3.15617 0
M  V30 7231 H 721.036 -1.58664 -2.8547 0
M  V30 7232 H 719.695 -3.30341 -1.58967 0
M  V30 7233 H 719.343 -2.98889 -4.04567 0
M  V30 7234 H 719.043 -4.67597 -3.55846 0
M  V30 7235 H 720.567 -4.24747 -4.3866 0
M  V30 7236 H 721.981 -5.23354 -2.34036 0
M  V30 7237 H 720.378 -5.74436 -1.73618 0
M  V30 7238 H 721.448 -4.80053 -0.683898 0
M  V30 7239 N 722.791 0.367657 -1.53252 0
M  V30 7240 C 724.037 1.11216 -1.69584 0
M  V30 7241 C 724.37 1.89026 -0.445269 0
M  V30 7242 O 723.645 1.86342 0.557404 0
M  V30 7243 C 723.928 2.07308 -2.94441 0
M  V30 7244 C 723.781 1.3312 -4.2965 0
M  V30 7245 C 725.1 3.07459 -3.14892 0
M  V30 7246 H 722.219 0.40294 -0.617096 0
M  V30 7247 H 724.861 0.393201 -1.85887 0
M  V30 7248 H 723.011 2.68617 -2.80673 0
M  V30 7249 H 724.683 0.746111 -4.55226 0
M  V30 7250 H 722.926 0.633051 -4.29156 0
M  V30 7251 H 723.597 2.03443 -5.13142 0
M  V30 7252 H 726.073 2.56252 -3.27832 0
M  V30 7253 H 724.949 3.71919 -4.03693 0
M  V30 7254 H 725.21 3.77514 -2.30077 0
M  V30 7255 N 724.269 1.44576 0.627338 0
M  V30 7256 C 725.201 1.47724 1.75243 0
M  V30 7257 C 726.214 0.370193 1.58535 0
M  V30 7258 O 727.403 0.636151 1.66779 0
M  V30 7259 C 724.503 1.2991 3.13012 0
M  V30 7260 C 723.676 2.5393 3.56143 0
M  V30 7261 C 722.735 2.30961 4.72804 0
M  V30 7262 O 721.761 3.04469 4.80923 0
M  V30 7263 N 722.963 1.34261 5.6476 0
M  V30 7264 H 725.728 2.44718 1.73012 0
M  V30 7265 H 723.289 1.40064 0.812022 0
M  V30 7266 H 725.281 1.12385 3.88782 0
M  V30 7267 H 723.851 0.412668 3.09864 0
M  V30 7268 H 723.071 2.86707 2.70542 0
M  V30 7269 H 724.359 3.36411 3.81713 0
M  V30 7270 H 723.757 0.735573 5.60897 0
M  V30 7271 H 722.314 1.22713 6.40144 0
M  V30 7272 N 725.747 -0.868086 1.31537 0
M  V30 7273 C 726.71 -1.95703 1.19302 0
M  V30 7274 C 727.71 -1.60355 0.119612 0
M  V30 7275 O 728.9 -1.70247 0.36902 0
M  V30 7276 C 726.032 -3.30599 0.831684 0
M  V30 7277 H 727.225 -2.07982 2.16064 0
M  V30 7278 H 724.778 -1.05661 1.15176 0
M  V30 7279 H 725.513 -3.2402 -0.134694 0
M  V30 7280 H 725.298 -3.57629 1.60761 0
M  V30 7281 H 726.788 -4.10439 0.770026 0
M  V30 7282 N 727.225 -1.14528 -1.08264 0
M  V30 7283 C 728.155 -0.856356 -2.1723 0
M  V30 7284 C 729.136 0.189251 -1.69044 0
M  V30 7285 O 730.321 0.0456119 -1.94146 0
M  V30 7286 C 727.451 -0.334662 -3.45684 0
M  V30 7287 C 726.405 -1.31588 -4.0727 0
M  V30 7288 C 725.731 -0.653428 -5.30692 0
M  V30 7289 C 727.031 -2.67866 -4.48381 0
M  V30 7290 H 728.725 -1.76755 -2.41657 0
M  V30 7291 H 726.271 -0.851287 -1.16143 0
M  V30 7292 H 728.224 -0.120128 -4.21229 0
M  V30 7293 H 726.948 0.611967 -3.20815 0
M  V30 7294 H 725.607 -1.51661 -3.33758 0
M  V30 7295 H 725.255 0.299054 -5.0211 0
M  V30 7296 H 724.955 -1.30817 -5.72853 0
M  V30 7297 H 726.479 -0.448453 -6.08951 0
M  V30 7298 H 727.893 -2.51692 -5.15096 0
M  V30 7299 H 726.29 -3.29627 -5.01464 0
M  V30 7300 H 727.36 -3.24632 -3.60198 0
M  V30 7301 N 728.703 1.26451 -0.940633 0
M  V30 7302 C 730.119 1.4608 -0.642859 0
M  V30 7303 C 730.319 1.84765 0.803998 0
M  V30 7304 O 729.375 1.96902 1.58069 0
M  V30 7305 C 730.688 2.54359 -1.60381 0
M  V30 7306 C 732.236 2.6821 -1.61345 0
M  V30 7307 C 732.711 3.79659 -2.56169 0
M  V30 7308 N 734.202 3.87051 -2.54452 0
M  V30 7309 C 734.937 4.72739 -3.24507 0
M  V30 7310 N 734.433 5.6282 -4.03987 0
M  V30 7311 N 736.226 4.66581 -3.13462 0
M  V30 7312 H 728.377 0.996289 -1.87584 0
M  V30 7313 H 730.64 0.498921 -0.80609 0
M  V30 7314 H 730.346 2.32758 -2.6366 0
M  V30 7315 H 730.22 3.52005 -1.35545 0
M  V30 7316 H 732.607 2.89184 -0.587913 0
M  V30 7317 H 732.688 1.7101 -1.90235 0
M  V30 7318 H 732.332 3.59438 -3.58841 0
M  V30 7319 H 732.262 4.76315 -2.2457 0
M  V30 7320 H 734.753 3.22649 -1.96739 0
M  V30 7321 H 735.066 6.25095 -4.54396 0
M  V30 7322 H 733.411 5.62574 -4.08088 0
M  V30 7323 H 736.602 3.9521 -2.50852 0
M  V30 7324 H 736.775 5.33141 -3.68327 0
M  V30 7325 N 730.181 0.707592 1.40822 0
M  V30 7326 C 731.091 0.0507246 2.34545 0
M  V30 7327 C 732.107 -0.752727 1.56876 0
M  V30 7328 O 733.283 -0.687524 1.89302 0
M  V30 7329 C 730.348 -0.865731 3.35717 0
M  V30 7330 C 729.409 -0.0531313 4.29267 0
M  V30 7331 C 728.642 -0.925939 5.25606 0
M  V30 7332 O 728.865 -2.16531 5.27703 0
M  V30 7333 O 727.799 -0.369194 6.00767 0
M  V30 7334 H 731.625 0.823587 2.9232 0
M  V30 7335 H 729.21 0.46801 1.4188 0
M  V30 7336 H 731.092 -1.39091 3.97783 0
M  V30 7337 H 729.767 -1.61788 2.80368 0
M  V30 7338 H 728.674 0.516931 3.70511 0
M  V30 7339 H 730.007 0.660617 4.87747 0
M  V30 7340 N 731.66 -1.50943 0.453197 0
M  V30 7341 C 732.592 -2.25922 -0.38623 0
M  V30 7342 C 733.605 -1.3055 -0.972652 0
M  V30 7343 O 734.794 -1.56191 -0.864097 0
M  V30 7344 C 731.894 -3.01176 -1.5539 0
M  V30 7345 C 731.067 -4.23768 -1.0835 0
M  V30 7346 C 730.126 -4.81466 -2.12313 0
M  V30 7347 O 729.152 -5.42875 -1.71101 0
M  V30 7348 N 730.354 -4.66889 -3.44956 0
M  V30 7349 H 733.119 -2.98601 0.256468 0
M  V30 7350 H 730.68 -1.59408 0.282965 0
M  V30 7351 H 732.672 -3.36659 -2.24594 0
M  V30 7352 H 731.242 -2.31409 -2.10163 0
M  V30 7353 H 730.462 -3.93597 -0.217961 0
M  V30 7354 H 731.75 -5.03289 -0.746857 0
M  V30 7355 H 731.148 -4.18011 -3.81161 0
M  V30 7356 H 729.705 -5.06691 -4.1001 0
M  V30 7357 N 733.138 -0.185124 -1.56509 0
M  V30 7358 C 734.385 0.456258 -1.97293 0
M  V30 7359 C 734.713 1.62314 -1.07165 0
M  V30 7360 O 733.968 1.95398 -0.108621 0
M  V30 7361 C 734.267 0.967977 -3.44042 0
M  V30 7362 C 733.933 -0.084476 -4.50821 0
M  V30 7363 C 732.595 -0.373689 -4.79747 0
M  V30 7364 C 734.947 -0.79812 -5.15053 0
M  V30 7365 C 732.275 -1.3817 -5.70198 0
M  V30 7366 C 734.627 -1.79521 -6.06593 0
M  V30 7367 C 733.291 -2.09172 -6.3388 0
M  V30 7368 H 732.561 0.166957 -0.721946 0
M  V30 7369 H 735.208 -0.279992 -1.89442 0
M  V30 7370 H 733.513 1.78231 -3.48914 0
M  V30 7371 H 735.21 1.47347 -3.72948 0
M  V30 7372 H 731.8 0.15111 -4.28334 0
M  V30 7373 H 735.984 -0.587903 -4.92806 0
M  V30 7374 H 731.24 -1.61745 -5.89617 0
M  V30 7375 H 735.414 -2.35347 -6.55427 0
M  V30 7376 H 733.041 -2.87427 -7.03768 0
M  V30 7377 N 734.616 1.57351 0.0885366 0
M  V30 7378 C 736.027 1.75303 0.642308 0
M  V30 7379 C 736.378 0.808238 1.78779 0
M  V30 7380 O 735.503 -0.01171 2.16397 0
M  V30 7381 C 736.098 3.17885 1.17194 0
M  V30 7382 C 734.657 3.37239 1.67172 0
M  V30 7383 C 733.804 2.7108 0.584045 0
M  V30 7384 H 736.755 1.58103 -0.137567 0
M  V30 7385 H 736.776 3.2112 2.04114 0
M  V30 7386 H 736.288 3.86625 0.338024 0
M  V30 7387 H 734.389 2.73588 2.52943 0
M  V30 7388 H 734.502 4.45594 1.76019 0
M  V30 7389 H 732.866 2.33161 1.02508 0
M  V30 7390 H 733.649 3.42464 -0.239403 0
M  V30 7391 N 736.094 -0.359525 1.53444 0
M  V30 7392 C 737.505 -0.936009 1.61542 0
M  V30 7393 C 737.856 -1.90069 0.486633 0
M  V30 7394 O 736.981 -2.12929 -0.386047 0
M  V30 7395 C 737.576 -1.70441 2.92806 0
M  V30 7396 C 736.135 -2.23015 3.03218 0
M  V30 7397 C 735.282 -1.04438 2.56881 0
M  V30 7398 H 738.233 -0.138134 1.58098 0
M  V30 7399 H 738.254 -2.56609 2.80948 0
M  V30 7400 H 737.766 -1.00205 3.74941 0
M  V30 7401 H 735.867 -2.96475 2.25684 0
M  V30 7402 H 735.98 -2.50481 4.08407 0
M  V30 7403 H 734.344 -1.41314 2.11902 0
M  V30 7404 H 735.127 -0.356905 3.4144 0
M  V30 7405 N 737.572 -1.44907 -0.619662 0
M  V30 7406 C 738.502 -1.55488 -1.742 0
M  V30 7407 C 739.483 -0.407143 -1.65156 0
M  V30 7408 O 740.668 -0.628743 -1.8374 0
M  V30 7409 C 737.798 -1.5097 -3.1277 0
M  V30 7410 C 736.752 -2.64337 -3.36615 0
M  V30 7411 C 736.078 -2.44872 -4.75333 0
M  V30 7412 C 737.378 -4.06423 -3.28051 0
M  V30 7413 H 739.072 -2.49432 -1.65602 0
M  V30 7414 H 736.618 -1.20047 -0.795281 0
M  V30 7415 H 738.571 -1.56971 -3.91073 0
M  V30 7416 H 737.295 -0.535486 -3.2218 0
M  V30 7417 H 735.954 -2.57744 -2.60698 0
M  V30 7418 H 735.602 -1.45617 -4.81461 0
M  V30 7419 H 735.302 -3.20888 -4.92244 0
M  V30 7420 H 736.826 -2.52709 -5.55851 0
M  V30 7421 H 738.24 -4.14324 -3.96243 0
M  V30 7422 H 736.637 -4.82733 -3.56495 0
M  V30 7423 H 737.707 -4.29183 -2.25676 0
M  V30 7424 N 739.05 0.861098 -1.31996 0
M  V30 7425 C 739.96 2.00154 -1.22374 0
M  V30 7426 C 740.976 1.73447 -0.138631 0
M  V30 7427 O 742.152 1.98191 -0.358104 0
M  V30 7428 C 739.217 3.33696 -0.940645 0
M  V30 7429 C 738.278 3.73668 -2.11355 0
M  V30 7430 C 737.511 5.00837 -1.84386 0
M  V30 7431 O 737.734 5.64996 -0.783287 0
M  V30 7432 O 736.668 5.37787 -2.70313 0
M  V30 7433 H 740.494 2.11207 -2.18233 0
M  V30 7434 H 738.079 0.990768 -1.11822 0
M  V30 7435 H 739.961 4.13756 -0.798987 0
M  V30 7436 H 738.636 3.23698 -0.0121636 0
M  V30 7437 H 737.543 2.94211 -2.31065 0
M  V30 7438 H 738.876 3.88303 -3.02459 0
M  V30 7439 N 740.528 1.15101 1.07655 0
M  V30 7440 C 741.756 0.947731 1.83918 0
M  V30 7441 C 742.171 -0.503927 1.81951 0
M  V30 7442 O 741.528 -1.34941 1.2287 0
M  V30 7443 C 741.579 1.4503 3.31132 0
M  V30 7444 O 741.3 2.84508 3.33146 0
M  V30 7445 C 742.801 1.28806 4.24174 0
M  V30 7446 H 740.021 0.336786 0.580358 0
M  V30 7447 H 742.565 1.52799 1.35914 0
M  V30 7448 H 740.72 0.912632 3.76497 0
M  V30 7449 H 741.134 3.0723 4.251 0
M  V30 7450 H 742.608 1.6882 5.25551 0
M  V30 7451 H 743.085 0.231851 4.38588 0
M  V30 7452 H 743.691 1.81465 3.84643 0
M  V30 7453 N 742.006 -1.2595 0.947325 0
M  V30 7454 C 743.283 -1.88676 0.515824 0
M  V30 7455 C 743.663 -1.85547 -1.00675 0
M  V30 7456 O 743.011 -1.31399 -1.8694 0
M  V30 7457 C 743.221 -3.31734 1.08415 0
M  V30 7458 C 744.569 -4.08545 1.15654 0
M  V30 7459 O 745.593 -3.40826 1.03517 0
M  V30 7460 O 744.452 -5.29663 1.34608 0
M  V30 7461 H 741.546 -0.809537 0.169055 0
M  V30 7462 H 744.092 -1.34075 1.04029 0
M  V30 7463 H 742.864 -3.28404 2.1276 0
M  V30 7464 H 742.487 -3.93882 0.542499 0
M  V30 7465 N 743.484 -0.715051 -1.40445 0
M  V30 7466 C 744.9 -0.388555 -1.54798 0
M  V30 7467 C 745.1 1.10271 -1.68649 0
M  V30 7468 O 744.156 1.88875 -1.67578 0
M  V30 7469 C 745.469 -1.15414 -2.77669 0
M  V30 7470 C 747.017 -1.14039 -2.91486 0
M  V30 7471 C 747.492 -1.88812 -4.1727 0
M  V30 7472 N 748.983 -1.85878 -4.24268 0
M  V30 7473 C 749.718 -2.40558 -5.20499 0
M  V30 7474 N 749.214 -3.03791 -6.22642 0
M  V30 7475 N 751.007 -2.30703 -5.12574 0
M  V30 7476 H 743.158 -1.68201 -1.297 0
M  V30 7477 H 745.421 -0.710915 -0.627139 0
M  V30 7478 H 745.127 -2.20853 -2.7371 0
M  V30 7479 H 745.001 -0.745412 -3.69761 0
M  V30 7480 H 747.388 -0.0941996 -2.9495 0
M  V30 7481 H 747.469 -1.58834 -2.00513 0
M  V30 7482 H 747.113 -2.93422 -4.14568 0
M  V30 7483 H 747.043 -1.41438 -5.0725 0
M  V30 7484 H 749.534 -1.39794 -3.51093 0
M  V30 7485 H 749.847 -3.43032 -6.92495 0
M  V30 7486 H 748.192 -3.07875 -6.23087 0
M  V30 7487 H 751.383 -1.80961 -4.31707 0
M  V30 7488 H 751.556 -2.73618 -5.87398 0
M  V30 7489 N 744.962 1.50701 -0.461195 0
M  V30 7490 C 746.373 1.867 -0.00370227 0
M  V30 7491 C 746.724 1.37673 1.39787 0
M  V30 7492 O 745.849 0.737515 2.03445 0
M  V30 7493 C 746.444 3.388 5.75786e-05 0
M  V30 7494 C 745.003 3.74247 0.402044 0
M  V30 7495 C 744.15 2.74549 -0.389652 0
M  V30 7496 H 747.101 1.43585 -0.675942 0
M  V30 7497 H 747.122 3.719 0.804414 0
M  V30 7498 H 746.634 3.74452 -1.02015 0
M  V30 7499 H 744.735 3.44192 1.42697 0
M  V30 7500 H 744.848 4.78973 0.110265 0
M  V30 7501 H 743.212 2.54226 0.155314 0
M  V30 7502 H 743.995 3.13044 -1.40919 0
M  V30 7503 N 746.441 0.193421 1.56409 0
M  V30 7504 C 747.371 -0.723334 2.22014 0
M  V30 7505 C 748.352 -1.22254 1.1827 0
M  V30 7506 O 749.537 -1.27168 1.46771 0
M  V30 7507 C 746.667 -1.94366 2.87818 0
M  V30 7508 C 745.621 -1.57943 3.97791 0
M  V30 7509 C 744.947 -2.87623 4.50752 0
M  V30 7510 C 746.247 -0.790639 5.16281 0
M  V30 7511 H 747.941 -0.176426 2.9888 0
M  V30 7512 H 745.487 -0.0834166 1.43758 0
M  V30 7513 H 747.44 -2.5902 3.32396 0
M  V30 7514 H 746.164 -2.51507 2.08355 0
M  V30 7515 H 744.823 -0.956482 3.53903 0
M  V30 7516 H 744.471 -3.4285 3.68053 0
M  V30 7517 H 744.171 -2.63998 5.24956 0
M  V30 7518 H 745.695 -3.53268 4.9803 0
M  V30 7519 H 747.109 -1.34024 5.57414 0
M  V30 7520 H 745.506 -0.65258 5.96541 0
M  V30 7521 H 746.576 0.208633 4.84451 0
M  V30 7522 N 747.919 -1.57396 -0.0801906 0
M  V30 7523 C 749.167 -1.86467 -0.779384 0
M  V30 7524 C 749.488 -0.784243 -1.78535 0
M  V30 7525 O 748.758 0.187986 -1.94996 0
M  V30 7526 H 747.338 -0.68806 -0.29083 0
M  V30 7527 H 750 -1.94813 -0.0582749 0
M  V30 7528 H 749.096 -2.83701 -1.30078 0
M  V30 7529 N 749.397 0.351382 -1.53633 0
M  V30 7530 C 750.329 1.45159 -1.77374 0
M  V30 7531 C 751.342 1.4905 -0.654826 0
M  V30 7532 O 752.531 1.52274 -0.931396 0
M  V30 7533 C 749.631 2.83858 -1.85143 0
M  V30 7534 C 748.804 3.03498 -3.14972 0
M  V30 7535 C 747.863 4.22393 -3.138 0
M  V30 7536 O 746.889 4.16885 -3.87551 0
M  V30 7537 N 748.091 5.30533 -2.35617 0
M  V30 7538 H 750.856 1.25167 -2.72311 0
M  V30 7539 H 748.417 0.54121 -1.52586 0
M  V30 7540 H 750.409 3.61557 -1.8182 0
M  V30 7541 H 748.979 2.9703 -0.974275 0
M  V30 7542 H 748.199 2.13336 -3.31484 0
M  V30 7543 H 749.487 3.13498 -4.00745 0
M  V30 7544 H 748.885 5.37875 -1.75235 0
M  V30 7545 H 747.442 6.06756 -2.38098 0
M  V30 7546 N 750.875 1.45233 0.611969 0
M  V30 7547 C 751.785 1.56098 1.7513 0
M  V30 7548 C 752.801 0.445646 1.68196 0
M  V30 7549 O 753.977 0.705718 1.88631 0
M  V30 7550 C 751.042 1.52052 3.11579 0
M  V30 7551 C 750.103 2.74589 3.29999 0
M  V30 7552 C 749.336 2.70726 4.59938 0
M  V30 7553 O 749.559 1.77806 5.41979 0
M  V30 7554 O 748.493 3.61864 4.80976 0
M  V30 7555 H 752.319 2.52392 1.68914 0
M  V30 7556 H 749.904 1.27695 0.775528 0
M  V30 7557 H 751.786 1.52387 3.92882 0
M  V30 7558 H 750.461 0.589085 3.18295 0
M  V30 7559 H 749.368 2.79817 2.48301 0
M  V30 7560 H 750.701 3.66843 3.28157 0
M  V30 7561 N 752.353 -0.854086 1.3245 0
M  V30 7562 C 753.602 -1.60318 1.22397 0
M  V30 7563 C 753.915 -1.9444 -0.212664 0
M  V30 7564 O 755.121 -2.67991 -0.435066 0
M  V30 7565 C 753.577 -2.8909 2.1437 0
M  V30 7566 C 753.185 -2.62391 3.63119 0
M  V30 7567 C 754.929 -3.67104 2.13155 0
M  V30 7568 C 752.836 -3.87167 4.47052 0
M  V30 7569 H 751.766 -0.601586 0.454544 0
M  V30 7570 H 754.417 -0.943023 1.57415 0
M  V30 7571 H 752.799 -3.56567 1.72268 0
M  V30 7572 H 753.973 -2.03222 4.13567 0
M  V30 7573 H 752.288 -1.97706 3.66471 0
M  V30 7574 H 754.885 -4.59696 2.731 0
M  V30 7575 H 755.228 -4.00876 1.12268 0
M  V30 7576 H 755.761 -3.06533 2.5354 0
M  V30 7577 H 752.5 -3.58536 5.48755 0
M  V30 7578 H 752.02 -4.45729 4.01355 0
M  V30 7579 H 753.699 -4.549 4.60081 0
M  V30 7580 N 753.831 -1.1567 -1.07043 0
M  V30 7581 C 754.794 -0.858906 -2.12498 0
M  V30 7582 C 755.794 0.142735 -1.60165 0
M  V30 7583 O 756.984 -0.0872678 -1.73981 0
M  V30 7584 C 754.116 -0.283021 -3.39723 0
M  V30 7585 H 755.309 -1.79368 -2.40348 0
M  V30 7586 H 752.862 -0.964608 -1.22984 0
M  V30 7587 H 753.597 0.659796 -3.17517 0
M  V30 7588 H 753.382 -1.00467 -3.7901 0
M  V30 7589 H 754.872 -0.0923543 -4.17498 0
M  V30 7590 N 755.309 1.25446 -0.953992 0
M  V30 7591 C 756.272 2.24156 -0.478179 0
M  V30 7592 C 757.272 1.55278 0.417776 0
M  V30 7593 O 758.462 1.72866 0.215155 0
M  V30 7594 C 755.594 3.39495 0.309202 0
M  V30 7595 H 756.787 2.67764 -1.35064 0
M  V30 7596 H 754.34 1.37822 -0.737206 0
M  V30 7597 H 755.075 3.01307 1.19936 0
M  V30 7598 H 754.86 3.90679 -0.333562 0
M  V30 7599 H 756.35 4.12796 0.631594 0
M  V30 7600 N 756.787 0.722489 1.40064 0
M  V30 7601 C 757.717 0.0892452 2.33329 0
M  V30 7602 C 758.698 -0.737992 1.53257 0
M  V30 7603 O 759.883 -0.685516 1.81698 0
M  V30 7604 C 757.013 -0.828139 3.37282 0
M  V30 7605 C 755.967 -0.106005 4.27869 0
M  V30 7606 C 755.293 -1.13957 5.22415 0
M  V30 7607 C 756.593 1.04395 5.11761 0
M  V30 7608 H 758.287 0.868269 2.86534 0
M  V30 7609 H 755.833 0.418982 1.3777 0
M  V30 7610 H 757.786 -1.28058 4.01471 0
M  V30 7611 H 756.51 -1.63914 2.82489 0
M  V30 7612 H 755.169 0.326683 3.65142 0
M  V30 7613 H 754.817 -1.9438 4.63924 0
M  V30 7614 H 754.517 -0.661233 5.83868 0
M  V30 7615 H 756.041 -1.59197 5.89482 0
M  V30 7616 H 757.455 0.670541 5.69365 0
M  V30 7617 H 755.852 1.4511 5.82291 0
M  V30 7618 H 756.922 1.87144 4.47331 0
M  V30 7619 N 758.265 -1.50454 0.469181 0
M  V30 7620 C 759.228 -2.2703 -0.314643 0
M  V30 7621 C 760.228 -1.31734 -0.922111 0
M  V30 7622 O 761.418 -1.55176 -0.791588 0
M  V30 7623 C 758.55 -3.08616 -1.44806 0
M  V30 7624 H 759.743 -2.97769 0.356892 0
M  V30 7625 H 757.296 -1.54698 0.223191 0
M  V30 7626 H 758.031 -2.42369 -2.1547 0
M  V30 7627 H 757.816 -3.78647 -1.01829 0
M  V30 7628 H 759.306 -3.66536 -2.00103 0
M  V30 7629 N 759.743 -0.201713 -1.56304 0
M  V30 7630 C 760.971 0.440723 -2.02152 0
M  V30 7631 C 761.386 1.54735 -1.08179 0
M  V30 7632 O 760.743 1.82289 -0.0878196 0
M  V30 7633 C 760.794 0.990884 -3.47655 0
M  V30 7634 O 760.515 -0.0715937 -4.38041 0
M  V30 7635 C 762.016 1.70854 -4.09052 0
M  V30 7636 H 759.236 0.109987 -0.661924 0
M  V30 7637 H 761.78 -0.312358 -2.021 0
M  V30 7638 H 759.935 1.69432 -3.48384 0
M  V30 7639 H 760.349 0.338892 -5.23404 0
M  V30 7640 H 761.823 2.04572 -5.12693 0
M  V30 7641 H 762.3 2.61462 -3.52894 0
M  V30 7642 H 762.906 1.0508 -4.12114 0
M  V30 7643 N 761.222 1.57436 0.0718424 0
M  V30 7644 C 762.172 2.00132 1.09229 0
M  V30 7645 C 763.156 0.883379 1.34481 0
M  V30 7646 O 764.348 1.14728 1.34783 0
M  V30 7647 C 761.477 2.44876 2.40605 0
M  V30 7648 C 760.563 3.63405 2.18627 0
M  V30 7649 N 760.954 4.77583 1.66579 0
M  V30 7650 C 759.252 3.69953 2.491 0
M  V30 7651 C 759.953 5.5943 1.59415 0
M  V30 7652 N 758.929 5.03275 2.05464 0
M  V30 7653 H 762.731 2.85849 0.683185 0
M  V30 7654 H 760.245 1.59987 0.278914 0
M  V30 7655 H 762.242 2.73703 3.14471 0
M  V30 7656 H 760.902 1.60546 2.82232 0
M  V30 7657 H 761.913 4.99875 1.35443 0
M  V30 7658 H 758.59 2.96336 2.94094 0
M  V30 7659 H 759.98 6.61093 1.20026 0
M  V30 7660 N 762.7 -0.34323 1.53817 0
M  V30 7661 C 763.63 -1.42709 1.84814 0
M  V30 7662 C 764.611 -1.5488 0.703297 0
M  V30 7663 O 765.796 -1.69082 0.955237 0
M  V30 7664 C 762.926 -2.79756 2.05801 0
M  V30 7665 C 761.88 -2.82392 3.21619 0
M  V30 7666 C 761.206 -4.22326 3.2794 0
M  V30 7667 C 762.506 -2.479 4.59721 0
M  V30 7668 H 764.2 -1.17018 2.75585 0
M  V30 7669 H 761.746 -0.561485 1.32602 0
M  V30 7670 H 763.699 -3.55627 2.26069 0
M  V30 7671 H 762.423 -3.06883 1.11761 0
M  V30 7672 H 761.082 -2.08974 3.01207 0
M  V30 7673 H 760.73 -4.46564 2.31494 0
M  V30 7674 H 760.43 -4.25001 4.05768 0
M  V30 7675 H 761.954 -5.00039 3.50419 0
M  V30 7676 H 763.368 -3.13484 4.80001 0
M  V30 7677 H 761.765 -2.61857 5.39954 0
M  V30 7678 H 762.835 -1.43087 4.63308 0
M  V30 7679 N 764.178 -1.45556 -0.604258 0
M  V30 7680 C 765.108 -1.57327 -1.72541 0
M  V30 7681 C 766.089 -0.424637 -1.64714 0
M  V30 7682 O 767.274 -0.648196 -1.83063 0
M  V30 7683 C 764.404 -1.54279 -3.11152 0
M  V30 7684 C 763.358 -2.67893 -3.33792 0
M  V30 7685 C 762.684 -2.499 -4.72709 0
M  V30 7686 C 763.984 -4.0988 -3.23722 0
M  V30 7687 H 765.678 -2.51175 -1.62947 0
M  V30 7688 H 763.224 -1.20884 -0.782504 0
M  V30 7689 H 765.177 -1.6111 -3.89386 0
M  V30 7690 H 763.901 -0.569627 -3.21594 0
M  V30 7691 H 762.56 -2.60495 -2.57949 0
M  V30 7692 H 762.208 -1.50715 -4.79889 0
M  V30 7693 H 761.908 -3.26091 -4.88813 0
M  V30 7694 H 763.432 -2.5859 -5.5314 0
M  V30 7695 H 764.846 -4.18503 -3.91826 0
M  V30 7696 H 763.243 -4.86487 -3.51355 0
M  V30 7697 H 764.313 -4.31553 -2.21111 0
M  V30 7698 N 765.656 0.84705 -1.32902 0
M  V30 7699 C 766.588 1.96308 -1.18304 0
M  V30 7700 C 767.601 1.62386 -0.116082 0
M  V30 7701 O 768.79 1.74713 -0.365751 0
M  V30 7702 C 765.89 3.29556 -0.790305 0
M  V30 7703 C 765.063 3.91668 -1.94717 0
M  V30 7704 C 764.122 5.0326 -1.53674 0
M  V30 7705 O 763.148 5.22847 -2.24989 0
M  V30 7706 N 764.35 5.78852 -0.437075 0
M  V30 7707 H 767.115 2.09369 -2.14441 0
M  V30 7708 H 764.676 1.02233 -1.25539 0
M  V30 7709 H 766.668 4.01624 -0.49799 0
M  V30 7710 H 765.238 3.12497 0.0801286 0
M  V30 7711 H 764.458 3.12292 -2.40557 0
M  V30 7712 H 765.746 4.299 -2.72146 0
M  V30 7713 H 765.144 5.65484 0.156316 0
M  V30 7714 H 763.701 6.51479 -0.204399 0
M  V30 7715 N 767.134 1.16236 1.06428 0
M  V30 7716 C 768.066 0.825446 2.1382 0
M  V30 7717 C 769.079 -0.166707 1.61944 0
M  V30 7718 O 770.268 0.0578606 1.78406 0
M  V30 7719 C 767.368 0.208023 3.38261 0
M  V30 7720 C 766.541 1.23994 4.19457 0
M  V30 7721 C 765.6 0.642569 5.22262 0
M  V30 7722 O 764.626 1.31106 5.53895 0
M  V30 7723 N 765.828 -0.571327 5.77682 0
M  V30 7724 H 768.593 1.7497 2.43322 0
M  V30 7725 H 766.154 1.05951 1.22417 0
M  V30 7726 H 768.146 -0.204608 4.04182 0
M  V30 7727 H 766.716 -0.619752 3.06395 0
M  V30 7728 H 765.936 1.82879 3.49212 0
M  V30 7729 H 767.224 1.93638 4.70512 0
M  V30 7730 H 766.622 -1.13263 5.54245 0
M  V30 7731 H 765.179 -0.926187 6.45186 0
M  V30 7732 N 768.612 -1.24939 0.960631 0
M  V30 7733 C 769.837 -1.9742 0.635608 0
M  V30 7734 C 770.262 -1.70857 -0.786737 0
M  V30 7735 O 769.62 -0.968063 -1.53291 0
M  V30 7736 C 769.668 -3.48987 0.907771 0
M  V30 7737 O 768.772 -4.12399 -0.0104053 0
M  V30 7738 H 768.113 -0.61871 0.241027 0
M  V30 7739 H 770.643 -1.58901 1.28886 0
M  V30 7740 H 770.653 -3.99334 0.836453 0
M  V30 7741 H 769.328 -3.6765 1.94439 0
M  V30 7742 H 767.905 -3.72727 0.113631 0
M  V30 7743 N 770.09 -0.729906 -1.39679 0
M  V30 7744 C 771.501 -0.346241 -1.83461 0
M  V30 7745 C 771.852 1.1215 -1.60987 0
M  V30 7746 O 770.977 1.86456 -1.09832 0
M  V30 7747 C 771.572 -0.621656 -3.33048 0
M  V30 7748 C 770.131 -0.291543 -3.75269 0
M  V30 7749 C 769.278 -0.886844 -2.62736 0
M  V30 7750 H 772.229 -0.927949 -1.28743 0
M  V30 7751 H 772.25 0.108301 -3.80346 0
M  V30 7752 H 771.762 -1.68996 -3.49373 0
M  V30 7753 H 769.863 0.771133 -3.64533 0
M  V30 7754 H 769.976 -0.770544 -4.72863 0
M  V30 7755 H 768.34 -0.313839 -2.52759 0
M  V30 7756 H 769.123 -1.95971 -2.81869 0
M  V30 7757 N 771.568 1.50203 -0.477153 0
M  V30 7758 C 772.814 2.02658 0.0758507 0
M  V30 7759 C 773.147 1.358 1.38824 0
M  V30 7760 O 772.422 0.485696 1.88338 0
M  V30 7761 C 772.705 3.59208 0.253339 0
M  V30 7762 C 772.558 4.36629 -1.0805 0
M  V30 7763 C 773.877 4.28469 1.00509 0
M  V30 7764 H 770.996 0.736538 0.0260921 0
M  V30 7765 H 773.638 1.79464 -0.623925 0
M  V30 7766 H 771.788 3.79101 0.849378 0
M  V30 7767 H 773.46 4.28292 -1.71358 0
M  V30 7768 H 771.703 4.0013 -1.67566 0
M  V30 7769 H 772.374 5.44449 -0.909883 0
M  V30 7770 H 774.85 4.13087 0.499818 0
M  V30 7771 H 773.726 5.37804 1.09808 0
M  V30 7772 H 773.987 3.92057 2.04314 0
M  V30 7773 O 773.085 0.351473 1.57629 0
M  V30 7774 H 773.776 -0.202268 1.92641 0
M  V30 END ATOM
M  V30 BEGIN BOND
M  V30 END BOND
M  V30 END CTAB
M  END
$$$$
