drugbank_target|Q3J1A6 Reaction center protein M chain (DB04147)
 OpenBabel12092120483D

  0  0  0     0  0            999 V3000
M  V30 BEGIN CTAB
M  V30 COUNTS 4821 4914 0 0 0
M  V30 BEGIN ATOM
M  V30 1 H -0.908 1.98254 -0.117106 0
M  V30 2 N 0 1.576 0 0
M  V30 3 C 0.933 2.03868 1.02534 0
M  V30 4 C 1.911 0.928543 1.3348 0
M  V30 5 O 3.095 1.19667 1.45644 0
M  V30 6 C 0.222 2.43627 2.35294 0
M  V30 7 C -0.732 3.65373 2.2001 0
M  V30 8 S 0.101 5.13292 1.52614 0
M  V30 9 C 1.257 5.56322 2.86805 0
M  V30 10 H 1.49 2.90518 0.631377 0
M  V30 11 H -0.977 1.52953 0.210867 0
M  V30 12 H 0.981 2.67203 3.11629 0
M  V30 13 H -0.358 1.57376 2.7183 0
M  V30 14 H -1.165 3.90944 3.18086 0
M  V30 15 H -1.563 3.418 1.51819 0
M  V30 16 H 0.729 5.58782 3.83104 0
M  V30 17 H 1.672 6.56266 2.65933 0
M  V30 18 H 2.08 4.83886 2.90714 0
M  V30 19 N 1.4781 -0.272755 1.55222 0
M  V30 20 C 2.4411 -1.32041 1.87344 0
M  V30 21 C 3.4411 -1.42342 0.74803 0
M  V30 22 O 4.6311 -1.41488 1.0162 0
M  V30 23 C 1.7631 -2.70173 2.07893 0
M  V30 24 H 2.9561 -1.04789 2.80997 0
M  V30 25 H 0.5091 -0.51083 1.47717 0
M  V30 26 H 1.2441 -3.02605 1.16622 0
M  V30 27 H 1.0291 -2.64082 2.89833 0
M  V30 28 H 2.5191 -3.45869 2.34017 0
M  V30 29 N 2.9562 -1.48159 -0.537278 0
M  V30 30 C 3.8662 -1.64807 -1.6696 0
M  V30 31 C 4.8822 -0.530651 -1.65711 0
M  V30 32 O 6.0582 -0.800784 -1.84796 0
M  V30 33 C 3.1232 -1.67708 -3.03438 0
M  V30 34 C 2.1842 -2.91025 -3.156 0
M  V30 35 C 1.4172 -2.93778 -4.45567 0
M  V30 36 O 1.6402 -2.05153 -5.3223 0
M  V30 37 O 0.5742 -3.85868 -4.61941 0
M  V30 38 H 4.4002 -2.6066 -1.55853 0
M  V30 39 H 1.9852 -1.31475 -0.709549 0
M  V30 40 H 3.8672 -1.7218 -3.84619 0
M  V30 41 H 2.5422 -0.750278 -3.14885 0
M  V30 42 H 1.4492 -2.92089 -2.33741 0
M  V30 43 H 2.7822 -3.83065 -3.09066 0
M  V30 44 N 4.4343 0.785586 -1.36625 0
M  V30 45 C 5.6643 1.5722 -1.34036 0
M  V30 46 C 6.0723 1.89033 0.0795062 0
M  V30 47 O 5.4153 1.50881 1.04789 0
M  V30 48 C 5.4773 2.91759 -2.10041 0
M  V30 49 C 5.1413 2.82654 -3.59104 0
M  V30 50 C 6.1383 2.54634 -4.53274 0
M  V30 51 C 3.8233 3.01111 -4.02042 0
M  V30 52 C 5.8173 2.45177 -5.88359 0
M  V30 53 C 3.5043 2.91276 -5.37216 0
M  V30 54 C 4.5023 2.63348 -6.30188 0
M  V30 55 O 4.1903 2.53514 -7.6288 0
M  V30 56 H 3.9223 0.494177 -0.461265 0
M  V30 57 H 6.4763 0.982632 -1.8037 0
M  V30 58 H 4.7063 3.52781 -1.58375 0
M  V30 59 H 6.3953 3.53059 -2.00261 0
M  V30 60 H 7.1613 2.40073 -4.21414 0
M  V30 61 H 3.0403 3.21854 -3.30047 0
M  V30 62 H 6.5843 2.23299 -6.60896 0
M  V30 63 H 2.4813 3.054 -5.68684 0
M  V30 64 H 3.2493 2.68967 -7.73045 0
M  V30 65 N 5.9124 1.20967 1.01018 0
M  V30 66 C 6.8444 0.922059 2.09835 0
M  V30 67 C 7.8574 -0.0927106 1.62536 0
M  V30 68 O 9.0464 0.139127 1.77957 0
M  V30 69 C 6.1464 0.362004 3.36961 0
M  V30 70 C 5.3194 1.42986 4.13369 0
M  V30 71 C 4.3784 0.879976 5.1879 0
M  V30 72 O 3.4044 1.56219 5.47343 0
M  V30 73 N 4.6064 -0.307396 5.79686 0
M  V30 74 H 7.3714 1.8588 2.35093 0
M  V30 75 H 4.9324 1.11422 1.1746 0
M  V30 76 H 6.9244 -0.0201474 4.04695 0
M  V30 77 H 5.4944 -0.479437 3.08902 0
M  V30 78 H 4.7144 1.98608 3.40512 0
M  V30 79 H 6.0024 2.14885 4.61196 0
M  V30 80 H 5.4004 -0.878796 5.58832 0
M  V30 81 H 3.9574 -0.631115 6.48737 0
M  V30 82 N 7.3905 -1.2043 1.01659 0
M  V30 83 C 8.3385 -2.25249 0.580143 0
M  V30 84 C 9.3325 -1.65057 -0.381115 0
M  V30 85 O 10.5385 -1.78241 -0.251039 0
M  V30 86 H 6.9135 -0.732695 0.169299 0
M  V30 87 H 8.8845 -2.59389 1.47512 0
M  V30 88 C 7.6335 -3.47638 -0.065788 0
M  V30 89 H 6.9565 -3.94233 0.664874 0
M  V30 90 H 8.3965 -4.2268 -0.334282 0
M  V30 91 C 6.8555 -3.10447 -1.3086 0
M  V30 92 O 7.3855 -3.21981 -2.4019 0
M  V30 93 N 5.5915 -2.64996 -1.1927 0
M  V30 94 H 5.1385 -2.55811 -0.303064 0
M  V30 95 H 5.0965 -2.40482 -2.02523 0
M  V30 96 N 8.8686 -0.792821 -1.36206 0
M  V30 97 C 10.1176 -0.363353 -1.984 0
M  V30 98 C 10.4306 1.07172 -1.63626 0
M  V30 99 O 11.6366 1.60362 -2.19081 0
M  V30 100 C 10.0926 -0.59872 -3.54885 0
M  V30 101 C 9.7006 -2.04543 -3.9858 0
M  V30 102 C 11.4446 -0.233926 -4.23855 0
M  V30 103 C 9.3516 -2.22727 -5.47856 0
M  V30 104 H 8.2816 -0.13212 -0.742334 0
M  V30 105 H 10.9326 -0.974935 -1.55458 0
M  V30 106 H 9.3146 0.0826222 -3.95914 0
M  V30 107 H 10.4886 -2.76345 -3.68741 0
M  V30 108 H 8.8036 -2.36879 -3.42458 0
M  V30 109 H 11.4006 -0.348027 -5.33566 0
M  V30 110 H 11.7436 0.818351 -4.08177 0
M  V30 111 H 12.2766 -0.868639 -3.882 0
M  V30 112 H 9.0156 -3.2635 -5.68486 0
M  V30 113 H 8.5356 -1.55434 -5.7931 0
M  V30 114 H 10.2146 -2.03607 -6.14128 0
M  V30 115 N 10.3467 1.47872 -0.545128 0
M  V30 116 C 11.5937 2.02493 -0.0165858 0
M  V30 117 C 11.9217 1.42073 1.32836 0
M  V30 118 O 11.1767 0.561459 1.87473 0
M  V30 119 C 11.4757 3.57131 0.13867 0
M  V30 120 C 11.1417 4.36411 -1.13384 0
M  V30 121 C 9.8037 4.57792 -1.48256 0
M  V30 122 C 12.1557 4.82223 -1.97764 0
M  V30 123 C 9.4837 5.22233 -2.67376 0
M  V30 124 C 11.8357 5.47977 -3.16076 0
M  V30 125 C 10.4997 5.67593 -3.51275 0
M  V30 126 H 9.7697 0.740975 -0.00606918 0
M  V30 127 H 12.4167 1.77683 -0.714207 0
M  V30 128 H 10.7217 3.80865 0.919172 0
M  V30 129 H 12.4187 3.97031 0.562782 0
M  V30 130 H 9.0087 4.2004 -0.852297 0
M  V30 131 H 13.1927 4.65493 -1.72132 0
M  V30 132 H 8.4487 5.35616 -2.94831 0
M  V30 133 H 12.6227 5.8244 -3.81755 0
M  V30 134 H 10.2497 6.17298 -4.43675 0
M  V30 135 N 11.8248 0.280983 1.55075 0
M  V30 136 C 13.0498 -0.340154 2.04592 0
M  V30 137 C 13.4748 -1.48246 1.15779 0
M  V30 138 O 12.8328 -1.80614 0.15761 0
M  V30 139 C 12.8808 -0.793104 3.5177 0
M  V30 140 O 11.9848 -1.89981 3.66034 0
M  V30 141 H 11.3258 -0.0694289 0.66036 0
M  V30 142 H 13.8558 0.416993 2.00306 0
M  V30 143 H 13.8658 -1.08729 3.93245 0
M  V30 144 H 12.5408 0.0426163 4.15878 0
M  V30 145 H 11.1178 -1.60771 3.36463 0
M  V30 146 N 13.3029 -1.57598 0.00835791 0
M  V30 147 C 14.2349 -2.05811 -1.00868 0
M  V30 148 C 15.2479 -0.977579 -1.30182 0
M  V30 149 O 16.4369 -1.25421 -1.27011 0
M  V30 150 C 13.5369 -2.45016 -2.34137 0
M  V30 151 C 12.7099 -3.75903 -2.23643 0
M  V30 152 C 11.7689 -4.01884 -3.3967 0
M  V30 153 O 10.7949 -4.72433 -3.17483 0
M  V30 154 N 11.9969 -3.50432 -4.62793 0
M  V30 155 H 14.7619 -2.93684 -0.597458 0
M  V30 156 H 12.3229 -1.60909 -0.178852 0
M  V30 157 H 14.3149 -2.59506 -3.10546 0
M  V30 158 H 12.8849 -1.62618 -2.66972 0
M  V30 159 H 12.1049 -3.7141 -1.32091 0
M  V30 160 H 13.3929 -4.61695 -2.13812 0
M  V30 161 H 12.7909 -2.93317 -4.83716 0
M  V30 162 H 11.3479 -3.70236 -5.3644 0
M  V30 163 N 14.781 0.264519 -1.55364 0
M  V30 164 C 16.027 0.99646 -1.76631 0
M  V30 165 C 16.36 1.85632 -0.570478 0
M  V30 166 O 15.635 1.89647 0.43175 0
M  V30 167 C 15.918 1.87187 -3.07625 0
M  V30 168 C 15.771 1.04138 -4.37579 0
M  V30 169 C 17.09 2.85749 -3.34717 0
M  V30 170 H 14.209 0.360841 -0.642622 0
M  V30 171 H 16.851 0.268218 -1.88097 0
M  V30 172 H 15.001 2.49279 -2.9798 0
M  V30 173 H 16.673 0.440517 -4.59192 0
M  V30 174 H 14.916 0.345115 -4.32425 0
M  V30 175 H 15.587 1.68729 -5.2558 0
M  V30 176 H 18.063 2.33793 -3.4421 0
M  V30 177 H 16.939 3.44136 -4.27623 0
M  V30 178 H 17.2 3.61311 -2.54768 0
M  V30 179 N 16.2591 1.48442 0.529413 0
M  V30 180 C 17.1911 1.59095 1.64989 0
M  V30 181 C 18.2041 0.475212 1.5571 0
M  V30 182 O 19.3931 0.746081 1.6216 0
M  V30 183 C 16.4931 1.50518 3.0364 0
M  V30 184 C 15.6661 2.77142 3.38395 0
M  V30 185 C 14.7251 2.62012 4.56329 0
M  V30 186 O 13.7511 3.35898 4.59522 0
M  V30 187 N 14.9531 1.71667 5.54536 0
M  V30 188 H 17.7181 2.55723 1.56287 0
M  V30 189 H 15.2791 1.45173 0.716697 0
M  V30 190 H 17.2711 1.38091 3.80412 0
M  V30 191 H 15.8411 0.618627 3.06418 0
M  V30 192 H 15.0611 3.0413 2.50796 0
M  V30 193 H 16.3491 3.61146 3.58401 0
M  V30 194 H 15.7471 1.10841 5.54735 0
M  V30 195 H 14.3041 1.65178 6.30523 0
M  V30 196 N 17.7372 -0.778329 1.37039 0
M  V30 197 C 18.9832 -1.53892 1.32079 0
M  V30 198 C 19.3162 -1.9396 -0.0965386 0
M  V30 199 O 18.5912 -1.63568 -1.05242 0
M  V30 200 C 18.8742 -2.80847 2.25382 0
M  V30 201 C 18.7272 -2.47076 3.75864 0
M  V30 202 C 20.0462 -3.82741 2.1725 0
M  V30 203 H 17.1652 -0.558303 0.48111 0
M  V30 204 H 19.8072 -0.893397 1.67685 0
M  V30 205 H 17.9572 -3.35931 1.95148 0
M  V30 206 H 19.6292 -1.97957 4.16666 0
M  V30 207 H 17.8722 -1.79863 3.94755 0
M  V30 208 H 18.5432 -3.37798 4.36574 0
M  V30 209 H 21.0192 -3.37133 2.43887 0
M  V30 210 H 19.8952 -4.69303 2.84686 0
M  V30 211 H 20.1562 -4.2652 1.16331 0
M  V30 212 N 19.2153 -1.21501 -1.00376 0
M  V30 213 C 20.6313 -0.972629 -1.26539 0
M  V30 214 C 20.8313 0.340257 -1.98606 0
M  V30 215 O 19.8873 1.06561 -2.28913 0
M  V30 216 C 21.2003 -2.16404 -2.08781 0
M  V30 217 C 22.7483 -2.20643 -2.22004 0
M  V30 218 C 23.2233 -3.39306 -3.07629 0
M  V30 219 N 24.7143 -3.39401 -3.15217 0
M  V30 220 C 25.4493 -4.27867 -3.81729 0
M  V30 221 N 24.9453 -5.26533 -4.5026 0
M  V30 222 N 26.7383 -4.15672 -3.78382 0
M  V30 223 H 18.8893 -2.05929 -0.520281 0
M  V30 224 H 21.1523 -0.901803 -0.292328 0
M  V30 225 H 20.8583 -3.11554 -1.63178 0
M  V30 226 H 20.7323 -2.15567 -3.09533 0
M  V30 227 H 23.1193 -1.26048 -2.66825 0
M  V30 228 H 23.2003 -2.25523 -1.20718 0
M  V30 229 H 22.8443 -4.34195 -2.63509 0
M  V30 230 H 22.7743 -3.31665 -4.09031 0
M  V30 231 H 25.2653 -2.67997 -2.66432 0
M  V30 232 H 25.5783 -5.90337 -4.98721 0
M  V30 233 H 23.9233 -5.30457 -4.49044 0
M  V30 234 H 27.1143 -3.3785 -3.23998 0
M  V30 235 H 27.2873 -4.84825 -4.2994 0
M  V30 236 N 20.6934 1.19889 -1.02296 0
M  V30 237 C 21.9414 1.89046 -0.714558 0
M  V30 238 C 22.2624 1.79636 0.758681 0
M  V30 239 O 21.5324 1.20292 1.54618 0
M  V30 240 H 20.1124 0.699802 -0.261317 0
M  V30 241 H 22.7744 1.45574 -1.29592 0
M  V30 242 H 21.8704 2.95524 -1.0036 0
M  V30 243 N 22.1715 0.800033 1.35784 0
M  V30 244 C 23.5825 0.439142 1.81462 0
M  V30 245 C 23.9335 -1.03813 1.66485 0
M  V30 246 O 23.0585 -1.80626 1.19177 0
M  V30 247 C 23.6535 0.790314 3.29453 0
M  V30 248 C 22.2125 0.482111 3.733 0
M  V30 249 C 21.3595 1.01938 2.57883 0
M  V30 250 H 24.3105 0.992254 1.23855 0
M  V30 251 H 24.3315 0.0853677 3.80404 0
M  V30 252 H 23.8435 1.86554 3.40322 0
M  V30 253 H 21.9445 -0.584652 3.67984 0
M  V30 254 H 22.0575 1.01015 4.6833 0
M  V30 255 H 20.4215 0.442043 2.50835 0
M  V30 256 H 21.2045 2.10059 2.71533 0
M  V30 257 N 23.6496 -1.47581 0.552962 0
M  V30 258 C 24.6126 -2.28439 -0.186605 0
M  V30 259 C 25.6126 -1.36706 -0.84665 0
M  V30 260 O 26.8026 -1.59378 -0.703164 0
M  V30 261 C 23.9346 -3.16264 -1.2724 0
M  V30 262 H 25.1276 -2.95294 0.523609 0
M  V30 263 H 22.6806 -1.532 0.309745 0
M  V30 264 H 23.4156 -2.54091 -2.01514 0
M  V30 265 H 23.2006 -3.83769 -0.803968 0
M  V30 266 H 24.6906 -3.77198 -1.79196 0
M  V30 267 N 25.1277 -0.289203 -1.54924 0
M  V30 268 C 26.4047 0.376032 -1.91951 0
M  V30 269 C 26.7847 1.72622 -1.21511 0
M  V30 270 O 26.1327 2.25853 -0.346767 0
M  V30 271 C 26.3427 0.502378 -3.45365 0
M  V30 272 C 27.6907 0.778741 -4.17398 0
M  V30 273 O 28.7147 0.586647 -3.51336 0
M  V30 274 O 27.5737 1.14698 -5.34328 0
M  V30 275 H 24.6677 0.208167 -0.800372 0
M  V30 276 H 27.2137 -0.336394 -1.66332 0
M  V30 277 H 25.9857 -0.447255 -3.88736 0
M  V30 278 H 25.6087 1.26373 -3.76982 0
M  V30 279 N 26.6058 1.57591 -0.0167156 0
M  V30 280 C 27.5358 2.12496 0.967858 0
M  V30 281 C 28.5168 1.03807 1.34752 0
M  V30 282 O 29.7018 1.31577 1.42833 0
M  V30 283 C 26.8318 2.64194 2.25431 0
M  V30 284 C 25.7858 3.77559 2.01576 0
M  V30 285 C 25.1118 4.15636 3.36379 0
M  V30 286 C 26.4118 5.04151 1.36489 0
M  V30 287 H 28.1058 2.95013 0.510643 0
M  V30 288 H 25.6518 1.41915 0.244181 0
M  V30 289 H 27.6048 3.01236 2.94678 0
M  V30 290 H 26.3288 1.78821 2.73296 0
M  V30 291 H 24.9878 3.40937 1.34751 0
M  V30 292 H 24.6358 3.27263 3.81979 0
M  V30 293 H 24.3358 4.92022 3.21229 0
M  V30 294 H 25.8598 4.5525 4.06915 0
M  V30 295 H 27.2738 5.38857 1.95718 0
M  V30 296 H 25.6708 5.85453 1.31776 0
M  V30 297 H 26.7408 4.83733 0.336219 0
M  V30 298 N 28.0839 -0.256276 1.55502 0
M  V30 299 C 29.3319 -0.983672 1.76545 0
M  V30 300 C 29.6529 -1.86206 0.578982 0
M  V30 301 O 28.9229 -1.91656 -0.405577 0
M  V30 302 H 27.5029 -0.366191 0.651086 0
M  V30 303 H 30.1649 -0.276479 1.92929 0
M  V30 304 H 29.2609 -1.61087 2.67315 0
M  V30 305 N 29.562 -1.4872 -0.521534 0
M  V30 306 C 30.495 -1.58451 -1.64221 0
M  V30 307 C 31.473 -0.434513 -1.56687 0
M  V30 308 O 32.657 -0.647275 -1.77038 0
M  V30 309 C 29.784 -1.52037 -3.02659 0
M  V30 310 C 28.83 -2.71981 -3.28525 0
M  V30 311 S 29.663 -4.33869 -3.13876 0
M  V30 312 C 30.819 -4.30067 -4.54745 0
M  V30 313 H 31.052 -2.53256 -1.55719 0
M  V30 314 H 28.585 -1.37358 -0.705143 0
M  V30 315 H 30.543 -1.49023 -3.82495 0
M  V30 316 H 29.204 -0.585541 -3.08594 0
M  V30 317 H 28.397 -2.63656 -4.29536 0
M  V30 318 H 27.999 -2.72302 -2.56374 0
M  V30 319 H 30.291 -4.00521 -5.46433 0
M  V30 320 H 31.234 -5.31287 -4.68123 0
M  V30 321 H 31.642 -3.60419 -4.34463 0
M  V30 322 N 31.0401 0.771051 -1.3745 0
M  V30 323 C 32.2681 1.56015 -1.35893 0
M  V30 324 C 32.6831 1.88718 0.0555523 0
M  V30 325 O 32.0401 1.51502 1.01752 0
M  V30 326 C 32.0911 2.87001 -2.19801 0
M  V30 327 O 31.8121 2.557 -3.55738 0
M  V30 328 C 33.3131 3.81228 -2.26231 0
M  V30 329 H 30.5331 0.483317 -0.465453 0
M  V30 330 H 33.0771 0.955611 -1.80799 0
M  V30 331 H 31.2321 3.43877 -1.78402 0
M  V30 332 H 31.6461 3.39584 -3.99729 0
M  V30 333 H 33.1201 4.70139 -2.89263 0
M  V30 334 H 33.5971 4.20409 -1.27093 0
M  V30 335 H 34.2031 3.30281 -2.67945 0
M  V30 336 N 32.5182 1.22032 0.997298 0
M  V30 337 C 33.4282 1.00271 2.12092 0
M  V30 338 C 34.4442 -0.047621 1.73935 0
M  V30 339 O 35.6202 0.144136 2.00884 0
M  V30 340 C 32.6852 0.578449 3.4184 0
M  V30 341 C 31.7462 1.70189 3.94125 0
M  V30 342 C 30.9792 1.29778 5.17681 0
M  V30 343 O 31.2022 0.174676 5.70132 0
M  V30 344 O 30.1362 2.11261 5.63607 0
M  V30 345 H 33.9622 1.94398 2.3333 0
M  V30 346 H 31.5472 1.00587 1.10465 0
M  V30 347 H 33.4292 0.351998 4.19927 0
M  V30 348 H 32.1042 -0.334019 3.21972 0
M  V30 349 H 31.0112 1.98282 3.1723 0
M  V30 350 H 32.3442 2.59206 4.18417 0
M  V30 351 N 33.9963 -1.19345 1.0293 0
M  V30 352 C 35.2733 -1.84811 0.640642 0
M  V30 353 C 35.6533 -1.91855 -0.88062 0
M  V30 354 O 35.0013 -1.43587 -1.7775 0
M  V30 355 C 35.2113 -3.23755 1.30321 0
M  V30 356 C 36.5593 -3.99912 1.42673 0
M  V30 357 O 37.5833 -3.33155 1.26041 0
M  V30 358 O 36.4423 -5.19494 1.6967 0
M  V30 359 H 33.5363 -0.796443 0.222726 0
M  V30 360 H 36.0823 -1.26831 1.12748 0
M  V30 361 H 34.8543 -3.13466 2.34211 0
M  V30 362 H 34.4773 -3.89381 0.804261 0
M  V30 363 N 35.4744 -0.807222 -1.35358 0
M  V30 364 C 36.7204 -0.388463 -1.99045 0
M  V30 365 C 37.0534 1.04184 -1.63888 0
M  V30 366 O 36.3284 1.72292 -0.902535 0
M  V30 367 C 36.6114 -0.572783 -3.55515 0
M  V30 368 C 36.4644 -2.04807 -4.00468 0
M  V30 369 C 37.7834 0.00114064 -4.401 0
M  V30 370 H 34.9024 -0.142619 -0.723069 0
M  V30 371 H 37.5444 -1.01687 -1.60498 0
M  V30 372 H 35.6944 -0.0378425 -3.88482 0
M  V30 373 H 37.3664 -2.64544 -3.77908 0
M  V30 374 H 35.6094 -2.54427 -3.51353 0
M  V30 375 H 36.2804 -2.12792 -5.09337 0
M  V30 376 H 38.7564 -0.455716 -4.13597 0
M  V30 377 H 37.6324 -0.157737 -5.48673 0
M  V30 378 H 37.8934 1.09488 -4.28328 0
M  V30 379 N 36.9525 1.47285 -0.560781 0
M  V30 380 C 37.9005 2.31756 0.197942 0
M  V30 381 C 38.8945 1.43146 0.905854 0
M  V30 382 O 40.1005 1.59891 0.826733 0
M  V30 383 H 36.4755 0.747438 0.0827049 0
M  V30 384 H 38.4465 2.9359 -0.533629 0
M  V30 385 C 37.1955 3.25874 1.21249 0
M  V30 386 H 36.5185 3.94023 0.67719 0
M  V30 387 H 37.9585 3.87803 1.71419 0
M  V30 388 C 36.4175 2.49651 2.26221 0
M  V30 389 O 36.9475 2.24355 3.33208 0
M  V30 390 N 35.1535 2.10597 2.00243 0
M  V30 391 H 34.7005 2.31369 1.13252 0
M  V30 392 H 34.6585 1.59913 2.70694 0
M  V30 393 N 38.4306 0.297415 1.54768 0
M  V30 394 C 39.3606 -0.573494 2.26348 0
M  V30 395 C 40.3416 -1.14085 1.26169 0
M  V30 396 O 41.5266 -1.17086 1.54934 0
M  V30 397 C 38.6566 -1.74716 3.00153 0
M  V30 398 C 37.6106 -1.31032 4.07449 0
M  V30 399 C 36.9366 -2.56887 4.68949 0
M  V30 400 C 38.2366 -0.444183 5.20408 0
M  V30 401 H 39.9306 0.0235131 2.99391 0
M  V30 402 H 37.4766 0.0127488 1.43994 0
M  V30 403 H 39.4296 -2.3625 3.48947 0
M  V30 404 H 38.1536 -2.37035 2.24682 0
M  V30 405 H 36.8126 -0.718066 3.59499 0
M  V30 406 H 36.4606 -3.17512 3.90122 0
M  V30 407 H 36.1606 -2.2836 5.41411 0
M  V30 408 H 37.6846 -3.19229 5.20505 0
M  V30 409 H 39.0986 -0.9651 5.65118 0
M  V30 410 H 37.4956 -0.252846 5.99567 0
M  V30 411 H 38.5656 0.531609 4.81977 0
M  V30 412 N 39.9087 -1.5758 0.0250728 0
M  V30 413 C 40.8717 -2.08896 -0.943139 0
M  V30 414 C 41.8717 -1.00321 -1.25668 0
M  V30 415 O 43.0617 -1.26495 -1.19769 0
M  V30 416 C 40.1937 -2.55143 -2.26086 0
M  V30 417 H 41.3867 -2.95723 -0.498775 0
M  V30 418 H 38.9397 -1.54703 -0.222888 0
M  V30 419 H 39.6747 -1.71633 -2.75159 0
M  V30 420 H 39.4597 -3.34461 -2.04641 0
M  V30 421 H 40.9497 -2.95083 -2.95492 0
M  V30 422 N 41.3868 0.248026 -1.55636 0
M  V30 423 C 42.3348 1.32683 -1.91045 0
M  V30 424 C 43.3288 1.49883 -0.789401 0
M  V30 425 O 44.5348 1.51371 -0.974007 0
M  V30 426 H 40.9098 0.444272 -0.606734 0
M  V30 427 H 42.8808 1.00085 -2.81115 0
M  V30 428 C 41.6298 2.6755 -2.22064 0
M  V30 429 H 40.9528 2.55114 -3.07826 0
M  V30 430 H 42.3928 3.41912 -2.50743 0
M  V30 431 C 40.8518 3.20556 -1.0366 0
M  V30 432 O 41.3818 4.00695 -0.284016 0
M  V30 433 N 39.5878 2.78568 -0.82753 0
M  V30 434 H 39.1348 2.1351 -1.44123 0
M  V30 435 H 39.0928 3.14378 -0.0369803 0
M  V30 436 N 42.8649 1.48995 0.513639 0
M  V30 437 C 44.2809 1.35478 0.843682 0
M  V30 438 C 44.4809 0.378213 1.97919 0
M  V30 439 O 43.5369 -0.194689 2.51748 0
M  V30 440 C 44.8499 2.75901 1.1958 0
M  V30 441 C 46.3979 2.84509 1.30474 0
M  V30 442 C 46.8729 4.25671 1.69021 0
M  V30 443 N 48.3639 4.28422 1.76094 0
M  V30 444 C 49.0989 5.34601 2.07338 0
M  V30 445 N 48.5949 6.5104 2.36894 0
M  V30 446 N 50.3879 5.22007 2.08483 0
M  V30 447 H 42.5389 2.11092 -0.235328 0
M  V30 448 H 44.8019 0.947039 -0.0426669 0
M  V30 449 H 44.5079 3.49001 0.434913 0
M  V30 450 H 44.3819 3.10467 2.1422 0
M  V30 451 H 46.7689 2.11655 2.05637 0
M  V30 452 H 46.8499 2.53542 0.339155 0
M  V30 453 H 46.4939 4.99048 0.944135 0
M  V30 454 H 46.4239 4.54094 2.66658 0
M  V30 455 H 48.9149 3.44441 1.55464 0
M  V30 456 H 49.2279 7.2779 2.59887 0
M  V30 457 H 47.5729 6.54287 2.34378 0
M  V30 458 H 50.7639 4.30051 1.84861 0
M  V30 459 H 50.9369 6.04854 2.325 0
M  V30 460 N 44.343 -0.763751 1.37857 0
M  V30 461 C 45.568 -1.55805 1.36893 0
M  V30 462 C 45.993 -1.88054 -0.0416135 0
M  V30 463 O 45.351 -1.49825 -1.02089 0
M  V30 464 C 45.399 -2.84012 2.22192 0
M  V30 465 O 44.503 -3.78732 1.63204 0
M  V30 466 H 43.844 -0.471638 0.46739 0
M  V30 467 H 46.374 -0.944657 1.81487 0
M  V30 468 H 46.384 -3.33037 2.35691 0
M  V30 469 H 45.059 -2.59869 3.24716 0
M  V30 470 H 43.636 -3.37402 1.58791 0
M  V30 471 N 45.8211 -1.22559 -0.990812 0
M  V30 472 C 47.0691 -1.04933 -1.72724 0
M  V30 473 C 47.3901 0.416158 -1.90508 0
M  V30 474 O 46.6601 1.29918 -1.46622 0
M  V30 475 H 45.2401 -0.385296 -0.639965 0
M  V30 476 H 47.9021 -1.54105 -1.19322 0
M  V30 477 H 46.9981 -1.52886 -2.72089 0
M  V30 478 N 47.2992 1.18797 -1.03562 0
M  V30 479 C 48.5452 1.8893 -0.737113 0
M  V30 480 C 48.8782 1.79837 0.732956 0
M  V30 481 O 48.1532 1.19525 1.5344 0
M  V30 482 C 48.4362 3.39607 -1.19745 0
M  V30 483 C 48.2892 3.57537 -2.72924 0
M  V30 484 C 49.6082 4.33069 -0.783526 0
M  V30 485 H 46.7272 0.686057 -0.269249 0
M  V30 486 H 49.3692 1.39797 -1.28673 0
M  V30 487 H 47.5192 3.81583 -0.729855 0
M  V30 488 H 49.1912 3.24688 -3.27682 0
M  V30 489 H 47.4342 3.00363 -3.12993 0
M  V30 490 H 48.1052 4.63238 -3.00191 0
M  V30 491 H 50.5812 3.98846 -1.18581 0
M  V30 492 H 49.4572 5.3707 -1.13343 0
M  V30 493 H 49.7182 4.40986 0.313681 0
M  V30 494 N 48.7773 0.814389 1.34928 0
M  V30 495 C 50.0253 0.397636 1.9815 0
M  V30 496 C 50.3463 -1.04069 1.64908 0
M  V30 497 O 49.6163 -1.72121 0.93548 0
M  V30 498 H 48.1963 0.144043 0.732981 0
M  V30 499 H 50.8583 1.04195 1.6471 0
M  V30 500 H 49.9543 0.509688 3.0791 0
M  V30 501 N 50.2554 -1.46986 0.568584 0
M  V30 502 C 51.6664 -1.86188 0.138219 0
M  V30 503 C 52.0174 -1.47388 -1.29504 0
M  V30 504 O 51.1424 -0.88219 -1.97602 0
M  V30 505 C 51.7374 -3.3792 0.244065 0
M  V30 506 C 50.2964 -3.76171 -0.131335 0
M  V30 507 C 49.4434 -2.71027 0.586465 0
M  V30 508 H 52.3944 -1.38342 0.777645 0
M  V30 509 H 52.4154 -3.76729 -0.534351 0
M  V30 510 H 51.9274 -3.66128 1.28731 0
M  V30 511 H 50.0284 -3.5358 -1.17526 0
M  V30 512 H 50.1414 -4.78523 0.235146 0
M  V30 513 H 48.5054 -2.54684 0.0282722 0
M  V30 514 H 49.2884 -3.02077 1.63109 0
M  V30 515 N 51.7335 -0.305618 -1.54608 0
M  V30 516 C 52.9805 0.302298 -2.00231 0
M  V30 517 C 53.3085 1.5354 -1.19398 0
M  V30 518 O 52.5635 1.93973 -0.259423 0
M  V30 519 C 52.8625 0.698983 -3.50498 0
M  V30 520 C 52.5285 -0.432903 -4.48817 0
M  V30 521 C 51.1905 -0.743622 -4.75419 0
M  V30 522 C 53.5425 -1.19409 -5.07337 0
M  V30 523 C 50.8705 -1.81857 -5.57804 0
M  V30 524 C 53.2225 -2.25899 -5.90891 0
M  V30 525 C 51.8865 -2.57572 -6.15803 0
M  V30 526 H 51.1565 0.110619 -0.732697 0
M  V30 527 H 53.8035 -0.425674 -1.86709 0
M  V30 528 H 52.1085 1.50711 -3.61654 0
M  V30 529 H 53.8055 1.1806 -3.83227 0
M  V30 530 H 50.3955 -0.18063 -4.28219 0
M  V30 531 H 54.5795 -0.967295 -4.86782 0
M  V30 532 H 49.8355 -2.06864 -5.75341 0
M  V30 533 H 54.0095 -2.85335 -6.35261 0
M  V30 534 H 51.6365 -3.40998 -6.7943 0
M  V30 535 N 53.2116 1.57565 -0.0334293 0
M  V30 536 C 54.4366 1.96689 0.657895 0
M  V30 537 C 54.8616 0.910057 1.64619 0
M  V30 538 O 54.2196 -0.128598 1.80843 0
M  V30 539 C 54.2676 3.34905 1.33683 0
M  V30 540 O 53.3716 3.31574 2.45219 0
M  V30 541 H 52.7126 0.641205 0.172489 0
M  V30 542 H 55.2426 2.04372 -0.0965621 0
M  V30 543 H 55.2526 3.71234 1.69262 0
M  V30 544 H 53.9276 4.11366 0.612411 0
M  V30 545 H 52.5046 3.06968 2.11719 0
M  V30 546 N 54.6897 -0.239769 1.55765 0
M  V30 547 C 55.9177 -0.98417 1.81994 0
M  V30 548 C 56.3327 -1.7867 0.610124 0
M  V30 549 O 55.6897 -1.77571 -0.421271 0
M  V30 550 C 55.7407 -1.91635 3.06526 0
M  V30 551 O 55.4617 -1.14629 4.22838 0
M  V30 552 C 56.9627 -2.77616 3.45607 0
M  V30 553 H 54.1827 -0.28928 0.605441 0
M  V30 554 H 56.7267 -0.260499 2.02834 0
M  V30 555 H 54.8817 -2.5942 2.87715 0
M  V30 556 H 55.2957 -1.77745 4.93464 0
M  V30 557 H 56.7697 -3.38759 4.35828 0
M  V30 558 H 57.2467 -3.4909 2.6652 0
M  V30 559 H 57.8527 -2.15271 3.66795 0
M  V30 560 N 56.1678 -1.49265 -0.50573 0
M  V30 561 C 57.0978 -1.68495 -1.61653 0
M  V30 562 C 58.0788 -0.53366 -1.61512 0
M  V30 563 O 59.2638 -0.76897 -1.78327 0
M  V30 564 C 56.3938 -1.74709 -3.00157 0
M  V30 565 C 55.3478 -2.89581 -3.15162 0
M  V30 566 C 54.6738 -2.80903 -4.5497 0
M  V30 567 C 55.9738 -4.30578 -2.95634 0
M  V30 568 H 57.6678 -2.61493 -1.45814 0
M  V30 569 H 55.2138 -1.25838 -0.70005 0
M  V30 570 H 57.1668 -1.86748 -3.77761 0
M  V30 571 H 55.8908 -0.783067 -3.17074 0
M  V30 572 H 54.5498 -2.77136 -2.39982 0
M  V30 573 H 54.1978 -1.82419 -4.68756 0
M  V30 574 H 53.8978 -3.57999 -4.65951 0
M  V30 575 H 55.4218 -2.94944 -5.34641 0
M  V30 576 H 56.8358 -4.4373 -3.63011 0
M  V30 577 H 55.2328 -5.0886 -3.18091 0
M  V30 578 H 56.3028 -4.45352 -1.91806 0
M  V30 579 N 57.6459 0.756429 -1.3826 0
M  V30 580 C 58.5759 1.88374 -1.37976 0
M  V30 581 C 59.5569 1.68311 -0.246082 0
M  V30 582 O 60.7419 1.88944 -0.44874 0
M  V30 583 C 57.8719 3.25864 -1.20125 0
M  V30 584 C 56.8259 3.60523 -2.30666 0
M  V30 585 C 56.1519 4.9672 -1.97923 0
M  V30 586 C 57.4519 3.65692 -3.72916 0
M  V30 587 H 59.1459 1.88869 -2.32312 0
M  V30 588 H 56.6919 0.907272 -1.11824 0
M  V30 589 H 58.6449 4.0438 -1.18552 0
M  V30 590 H 57.3689 3.25841 -0.222498 0
M  V30 591 H 56.0279 2.84324 -2.3142 0
M  V30 592 H 55.6759 4.93253 -0.985393 0
M  V30 593 H 55.3759 5.20878 -2.71955 0
M  V30 594 H 56.8999 5.77618 -1.97964 0
M  V30 595 H 58.3139 4.34328 -3.74208 0
M  V30 596 H 56.7109 4.01358 -4.4613 0
M  V30 597 H 57.7809 2.65987 -4.05436 0
M  V30 598 N 59.124 1.23083 0.984299 0
M  V30 599 C 60.372 1.05848 1.72165 0
M  V30 600 C 60.693 -0.406049 1.90726 0
M  V30 601 O 59.963 -1.29139 1.47309 0
M  V30 602 H 58.543 0.388685 0.637913 0
M  V30 603 H 61.205 1.54736 1.18503 0
M  V30 604 H 60.301 1.54327 2.71274 0
M  V30 605 N 60.6021 -1.18246 1.0419 0
M  V30 606 C 61.8481 -1.88793 0.75689 0
M  V30 607 C 62.2031 -1.78909 -0.707767 0
M  V30 608 O 61.4961 -1.1794 -1.50999 0
M  V30 609 C 61.6901 -3.38082 1.15911 0
M  V30 610 C 61.5191 -3.62496 2.66133 0
M  V30 611 C 60.2891 -3.7979 3.33298 0
M  V30 612 C 62.4871 -3.62976 3.64353 0
M  V30 613 N 60.4691 -3.91955 4.72487 0
M  V30 614 C 61.8401 -3.80869 4.89222 0
M  V30 615 C 63.8951 -3.46071 3.57965 0
M  V30 616 C 62.5981 -3.83608 6.08471 0
M  V30 617 C 64.6241 -3.50093 4.76643 0
M  V30 618 C 63.9861 -3.68484 6.00332 0
M  V30 619 H 60.0851 -0.709406 0.32904 0
M  V30 620 H 62.6691 -1.42022 1.33183 0
M  V30 621 H 60.8401 -3.83544 0.612238 0
M  V30 622 H 62.5721 -3.96202 0.824989 0
M  V30 623 H 59.3271 -3.79224 2.83701 0
M  V30 624 H 59.7511 -4.01857 5.44831 0
M  V30 625 H 64.3931 -3.30797 2.63311 0
M  V30 626 H 62.1111 -3.97669 7.0348 0
M  V30 627 H 65.6971 -3.38285 4.73344 0
M  V30 628 H 64.5771 -3.71488 6.90627 0
M  V30 629 N 62.0802 -0.821533 -1.34494 0
M  V30 630 C 63.3272 -0.408946 -1.98328 0
M  V30 631 C 63.6552 1.02764 -1.65136 0
M  V30 632 O 62.9102 1.73026 -0.914349 0
M  V30 633 C 63.2092 -0.556512 -3.53041 0
M  V30 634 C 62.8752 -1.95861 -4.0614 0
M  V30 635 C 61.5372 -2.34217 -4.20352 0
M  V30 636 C 63.8892 -2.87523 -4.34718 0
M  V30 637 C 61.2172 -3.63572 -4.6047 0
M  V30 638 C 63.5692 -4.1634 -4.76281 0
M  V30 639 C 62.2332 -4.54675 -4.88699 0
M  V30 640 H 61.5032 -0.149644 -0.725732 0
M  V30 641 H 64.1502 -1.04521 -1.6046 0
M  V30 642 H 62.4552 0.163148 -3.9146 0
M  V30 643 H 64.1522 -0.217826 -4.00408 0
M  V30 644 H 60.7422 -1.65066 -3.95539 0
M  V30 645 H 64.9262 -2.59133 -4.23277 0
M  V30 646 H 60.1822 -3.93101 -4.68275 0
M  V30 647 H 64.3562 -4.87455 -4.97354 0
M  V30 648 H 61.9832 -5.54959 -5.19542 0
M  V30 649 N 63.5583 1.46682 -0.576371 0
M  V30 650 C 64.8063 2.02013 -0.0594163 0
M  V30 651 C 65.1273 1.45101 1.30271 0
M  V30 652 O 64.3973 0.633317 1.8538 0
M  V30 653 H 62.9773 0.746759 -0.0189745 0
M  V30 654 H 65.6393 1.79862 -0.750717 0
M  V30 655 H 64.7353 3.12097 0.014345 0
M  V30 656 N 65.0364 0.313813 1.54444 0
M  V30 657 C 65.9844 -0.572171 2.25453 0
M  V30 658 C 66.9784 -1.12657 1.2651 0
M  V30 659 O 68.1844 -1.07573 1.44319 0
M  V30 660 H 64.5594 -0.203146 0.724041 0
M  V30 661 H 66.5304 0.0491145 2.9836 0
M  V30 662 C 65.2794 -1.72626 3.0182 0
M  V30 663 H 64.6024 -1.30891 3.77767 0
M  V30 664 H 66.0424 -2.32199 3.54767 0
M  V30 665 C 64.5014 -2.63806 2.09542 0
M  V30 666 O 65.0314 -3.65256 1.67185 0
M  V30 667 N 63.2374 -2.31824 1.75232 0
M  V30 668 H 62.7844 -1.49368 2.09873 0
M  V30 669 H 62.7424 -2.93095 1.13767 0
M  V30 670 N 66.5145 -1.57545 0.0417849 0
M  V30 671 C 67.4775 -2.09885 -0.92093 0
M  V30 672 C 68.4775 -1.01648 -1.24596 0
M  V30 673 O 69.6675 -1.27759 -1.1842 0
M  V30 674 C 66.7995 -2.57527 -2.23367 0
M  V30 675 H 67.9925 -2.96236 -0.467382 0
M  V30 676 H 65.5455 -1.5493 -0.206467 0
M  V30 677 H 66.2805 -1.74542 -2.73323 0
M  V30 678 H 66.0655 -3.36613 -2.01083 0
M  V30 679 H 67.5555 -2.98201 -2.92346 0
M  V30 680 N 67.9926 0.231505 -1.5589 0
M  V30 681 C 68.9246 1.31006 -1.8807 0
M  V30 682 C 69.9376 1.43539 -0.768145 0
M  V30 683 O 71.1266 1.44614 -1.04638 0
M  V30 684 C 68.2266 2.68688 -2.06543 0
M  V30 685 C 67.3996 2.78228 -3.37502 0
M  V30 686 C 66.4586 3.96857 -3.4553 0
M  V30 687 O 65.4846 3.85662 -4.18633 0
M  V30 688 N 66.6866 5.1072 -2.75944 0
M  V30 689 H 69.4516 1.03731 -2.81176 0
M  V30 690 H 67.0126 0.421573 -1.56315 0
M  V30 691 H 69.0046 3.46412 -2.09239 0
M  V30 692 H 67.5746 2.88605 -1.20109 0
M  V30 693 H 66.7946 1.87059 -3.46991 0
M  V30 694 H 68.0826 2.81564 -4.23791 0
M  V30 695 H 67.4806 5.2271 -2.16311 0
M  V30 696 H 66.0376 5.86523 -2.84314 0
M  V30 697 N 69.4707 1.49531 0.497807 0
M  V30 698 C 70.4007 1.6935 1.60757 0
M  V30 699 C 71.3817 0.542218 1.61227 0
M  V30 700 O 72.5667 0.778417 1.77917 0
M  V30 701 C 69.6967 1.76298 2.99226 0
M  V30 702 C 68.6507 2.91248 3.13622 0
M  V30 703 C 67.9767 2.83312 4.53474 0
M  V30 704 C 69.2767 4.3214 2.93346 0
M  V30 705 H 70.9707 2.62263 1.44425 0
M  V30 706 H 68.5167 1.26208 0.693367 0
M  V30 707 H 70.4697 1.88749 3.76765 0
M  V30 708 H 69.1937 0.799871 3.16654 0
M  V30 709 H 67.8527 2.78404 2.38509 0
M  V30 710 H 67.5007 1.84902 4.67782 0
M  V30 711 H 67.2007 3.60465 4.64046 0
M  V30 712 H 68.7247 2.97775 5.33069 0
M  V30 713 H 70.1387 4.45649 3.60652 0
M  V30 714 H 68.5357 5.1054 3.15387 0
M  V30 715 H 69.6057 4.46363 1.89441 0
M  V30 716 N 70.9488 -0.749086 1.3866 0
M  V30 717 C 72.1968 -1.50535 1.34847 0
M  V30 718 C 72.5178 -1.94909 -0.0595016 0
M  V30 719 O 71.7878 -1.67973 -1.00806 0
M  V30 720 H 70.3678 -0.558395 0.49619 0
M  V30 721 H 73.0298 -0.890165 1.73384 0
M  V30 722 H 72.1258 -2.39413 2.00219 0
M  V30 723 N 72.4269 -1.23603 -0.977757 0
M  V30 724 C 73.8379 -1.06424 -1.53398 0
M  V30 725 C 74.1889 0.367578 -1.92726 0
M  V30 726 O 73.3139 1.25465 -1.76316 0
M  V30 727 C 73.9089 -1.92568 -2.78753 0
M  V30 728 C 72.4679 -1.79642 -3.30765 0
M  V30 729 C 71.6149 -1.88111 -2.03739 0
M  V30 730 H 74.5659 -1.37227 -0.797152 0
M  V30 731 H 74.5869 -1.45203 -3.51705 0
M  V30 732 H 74.0989 -2.96771 -2.50098 0
M  V30 733 H 72.1999 -0.782325 -3.64294 0
M  V30 734 H 72.3129 -2.63174 -4.00345 0
M  V30 735 H 70.6769 -1.31723 -2.17994 0
M  V30 736 H 71.4599 -2.93875 -1.77461 0
M  V30 737 N 73.905 1.17692 -1.04816 0
M  V30 738 C 75.154 1.87192 -0.751132 0
M  V30 739 C 75.467 1.8169 0.724441 0
M  V30 740 O 76.673 2.46625 1.13527 0
M  V30 741 C 75.129 3.35857 -1.29338 0
M  V30 742 C 74.737 3.4987 -2.79812 0
M  V30 743 C 76.481 4.10709 -1.07322 0
M  V30 744 C 74.388 4.92536 -3.27356 0
M  V30 745 H 73.318 0.701162 -0.277288 0
M  V30 746 H 75.969 1.32932 -1.26496 0
M  V30 747 H 74.351 3.89631 -0.707376 0
M  V30 748 H 75.525 3.06332 -3.44235 0
M  V30 749 H 73.84 2.88433 -3.00325 0
M  V30 750 H 76.437 5.15952 -1.4035 0
M  V30 751 H 76.78 4.16299 -0.0108001 0
M  V30 752 H 77.313 3.6313 -1.62423 0
M  V30 753 H 74.052 4.92119 -4.33012 0
M  V30 754 H 73.572 5.3676 -2.67673 0
M  V30 755 H 75.251 5.61288 -3.21815 0
M  V30 756 N 75.3831 0.828654 1.34056 0
M  V30 757 C 76.6131 0.431993 2.02033 0
M  V30 758 C 77.0211 -0.96844 1.62536 0
M  V30 759 O 76.3641 -1.6391 0.829408 0
M  V30 760 C 76.4261 0.461224 3.56529 0
M  V30 761 C 76.0901 1.81599 4.1937 0
M  V30 762 C 77.0871 2.7777 4.39477 0
M  V30 763 C 74.7721 2.10604 4.56017 0
M  V30 764 C 76.7661 4.01115 4.95364 0
M  V30 765 C 74.4531 3.34207 5.11614 0
M  V30 766 C 75.4511 4.2928 5.31232 0
M  V30 767 O 75.1391 5.50699 5.8565 0
M  V30 768 H 74.8711 0.170943 0.654029 0
M  V30 769 H 77.4251 1.11988 1.72185 0
M  V30 770 H 75.6551 -0.283388 3.8566 0
M  V30 771 H 77.3441 0.0838149 4.05813 0
M  V30 772 H 78.1101 2.56659 4.11523 0
M  V30 773 H 73.9891 1.37402 4.40047 0
M  V30 774 H 77.5331 4.75333 5.10592 0
M  V30 775 H 73.4301 3.55179 5.38997 0
M  V30 776 H 74.1981 5.52298 6.04077 0
M  V30 777 N 76.8612 -1.46375 0.584142 0
M  V30 778 C 77.7912 -2.33103 -0.136037 0
M  V30 779 C 78.7722 -1.45431 -0.882255 0
M  V30 780 O 79.9572 -1.74246 -0.857434 0
M  V30 781 C 77.0872 -3.27731 -1.14933 0
M  V30 782 C 76.0412 -4.24855 -0.517862 0
M  V30 783 C 75.3672 -5.09001 -1.63773 0
M  V30 784 C 76.6672 -5.19439 0.545886 0
M  V30 785 H 78.3612 -2.93568 0.588086 0
M  V30 786 H 75.9072 -1.41166 0.284259 0
M  V30 787 H 77.8602 -3.87261 -1.66153 0
M  V30 788 H 76.5842 -2.65377 -1.90375 0
M  V30 789 H 75.2432 -3.6659 -0.0267361 0
M  V30 790 H 74.8912 -4.43031 -2.38185 0
M  V30 791 H 74.5912 -5.74777 -1.22085 0
M  V30 792 H 76.1152 -5.71396 -2.15266 0
M  V30 793 H 77.5292 -5.73177 0.118704 0
M  V30 794 H 75.9262 -5.93566 0.88317 0
M  V30 795 H 76.9962 -4.63285 1.43162 0
M  V30 796 N 78.3393 -0.321999 -1.54275 0
M  V30 797 C 79.5873 0.280489 -2.00144 0
M  V30 798 C 79.9083 1.52777 -1.21178 0
M  V30 799 O 79.1783 1.9338 -0.313187 0
M  V30 800 H 77.7583 0.106632 -0.73935 0
M  V30 801 H 80.4203 -0.438184 -1.8991 0
M  V30 802 H 79.5163 0.537972 -3.07428 0
M  V30 803 N 79.8174 1.5752 -0.0501392 0
M  V30 804 C 81.0424 1.97376 0.636997 0
M  V30 805 C 81.4674 0.927466 1.63645 0
M  V30 806 O 80.8254 -0.10941 1.8097 0
M  V30 807 C 80.8734 3.36304 1.30123 0
M  V30 808 O 79.9774 3.34156 2.41689 0
M  V30 809 H 79.3184 0.642998 0.165679 0
M  V30 810 H 81.8484 2.04258 -0.118233 0
M  V30 811 H 81.8584 3.73008 1.65315 0
M  V30 812 H 80.5334 4.11993 0.568746 0
M  V30 813 H 79.1104 3.09196 2.08451 0
M  V30 814 N 81.2955 -0.223234 1.56011 0
M  V30 815 C 82.2255 -1.27988 1.95298 0
M  V30 816 C 83.2065 -1.48976 0.820979 0
M  V30 817 O 84.3915 -1.61188 1.08315 0
M  V30 818 C 81.5215 -2.63 2.26822 0
M  V30 819 C 80.4755 -2.56671 3.42497 0
M  V30 820 C 79.8015 -3.95697 3.59622 0
M  V30 821 C 81.1015 -2.11601 4.77517 0
M  V30 822 H 82.7955 -0.953525 2.8381 0
M  V30 823 H 80.3415 -0.457244 1.36548 0
M  V30 824 H 82.2945 -3.37077 2.52898 0
M  V30 825 H 81.0185 -2.9732 1.35161 0
M  V30 826 H 79.6775 -1.85051 3.16467 0
M  V30 827 H 79.3255 -4.27322 2.6534 0
M  V30 828 H 79.0255 -3.92345 4.37424 0
M  V30 829 H 80.5495 -4.71438 3.88044 0
M  V30 830 H 81.9635 -2.7542 5.02809 0
M  V30 831 H 80.3605 -2.19311 5.5859 0
M  V30 832 H 81.4305 -1.06824 4.72987 0
M  V30 833 N 82.7736 -1.49793 -0.48987 0
M  V30 834 C 84.0216 -1.59525 -1.24081 0
M  V30 835 C 84.3426 -0.288953 -1.92847 0
M  V30 836 O 83.6126 0.692436 -1.83254 0
M  V30 837 H 82.1926 -0.587796 -0.460983 0
M  V30 838 H 84.8546 -1.86477 -0.566778 0
M  V30 839 H 83.9506 -2.39696 -1.99881 0
M  V30 840 N 84.2517 0.741722 -1.39055 0
M  V30 841 C 85.4977 1.50336 -1.36113 0
M  V30 842 C 85.8307 1.94148 0.0450796 0
M  V30 843 O 85.1057 1.66301 1.00868 0
M  V30 844 C 85.3887 2.74773 -2.32749 0
M  V30 845 C 85.2417 2.37023 -3.82283 0
M  V30 846 C 86.5607 3.76846 -2.27322 0
M  V30 847 H 83.6797 0.545351 -0.495743 0
M  V30 848 H 86.3217 0.848624 -1.69995 0
M  V30 849 H 84.4717 3.30639 -2.03986 0
M  V30 850 H 86.1437 1.8684 -4.21768 0
M  V30 851 H 84.3867 1.69334 -3.99385 0
M  V30 852 H 85.0577 3.26104 -4.45376 0
M  V30 853 H 87.5337 3.30548 -2.5274 0
M  V30 854 H 86.4097 4.6159 -2.97028 0
M  V30 855 H 86.6707 4.23286 -1.27599 0
M  V30 856 N 85.7298 1.2412 0.971189 0
M  V30 857 C 86.6598 1.05508 2.08304 0
M  V30 858 C 87.6408 -0.0308864 1.70072 0
M  V30 859 O 88.8258 0.135521 1.93727 0
M  V30 860 C 85.9558 0.655365 3.4106 0
M  V30 861 C 84.9098 1.68971 3.93234 0
M  V30 862 C 84.2358 1.14516 5.22293 0
M  V30 863 C 85.5358 3.08487 4.21465 0
M  V30 864 H 87.2298 1.98507 2.24132 0
M  V30 865 H 84.7758 0.955821 1.07704 0
M  V30 866 H 86.7288 0.51217 4.18276 0
M  V30 867 H 85.4528 -0.31032 3.25122 0
M  V30 868 H 84.1118 1.82106 3.18171 0
M  V30 869 H 83.7598 0.170189 5.02712 0
M  V30 870 H 83.4598 1.83635 5.58168 0
M  V30 871 H 84.9838 1.01401 6.02121 0
M  V30 872 H 86.3978 2.98601 4.89398 0
M  V30 873 H 84.7948 3.74926 4.68562 0
M  V30 874 H 85.8648 3.56787 3.28376 0
M  V30 875 N 87.2079 -1.17134 1.05439 0
M  V30 876 C 88.4329 -1.91913 0.786396 0
M  V30 877 C 88.8579 -1.7643 -0.652234 0
M  V30 878 O 88.2159 -1.08372 -1.45345 0
M  V30 879 C 88.2639 -3.40921 1.17497 0
M  V30 880 O 87.3679 -4.11244 0.308589 0
M  V30 881 H 86.7089 -0.598215 0.288158 0
M  V30 882 H 89.2389 -1.48457 1.4079 0
M  V30 883 H 89.2489 -3.91668 1.14281 0
M  V30 884 H 87.9239 -3.5151 2.22292 0
M  V30 885 H 86.5009 -3.70731 0.40157 0
M  V30 886 N 88.686 -0.835752 -1.33615 0
M  V30 887 C 89.616 -0.281739 -2.31794 0
M  V30 888 C 90.597 0.608833 -1.58831 0
M  V30 889 O 91.782 0.533035 -1.86741 0
M  V30 890 C 88.912 0.546612 -3.42971 0
M  V30 891 C 87.866 -0.247904 -4.27281 0
M  V30 892 C 87.192 0.704001 -5.30045 0
M  V30 893 C 88.492 -1.46324 -5.01385 0
M  V30 894 H 90.186 -1.10206 -2.78379 0
M  V30 895 H 87.732 -0.531388 -1.33837 0
M  V30 896 H 89.685 0.944467 -4.1068 0
M  V30 897 H 88.409 1.40011 -2.95067 0
M  V30 898 H 87.068 -0.627281 -3.61194 0
M  V30 899 H 86.716 1.55381 -4.78399 0
M  V30 900 H 86.416 0.176524 -5.87335 0
M  V30 901 H 87.94 1.09944 -6.0062 0
M  V30 902 H 89.354 -1.13871 -5.61877 0
M  V30 903 H 87.751 -1.92728 -5.6831 0
M  V30 904 H 88.821 -2.23467 -4.30338 0
M  V30 905 N 90.1641 1.46063 -0.591896 0
M  V30 906 C 91.4111 2.02338 -0.0809991 0
M  V30 907 C 91.7391 1.46228 1.28249 0
M  V30 908 O 90.9941 0.620818 1.85592 0
M  V30 909 C 91.2931 3.57391 0.0249813 0
M  V30 910 C 90.9591 4.32583 -1.27211 0
M  V30 911 C 89.6211 4.52844 -1.62745 0
M  V30 912 C 91.9731 4.75687 -2.13005 0
M  V30 913 C 89.3011 5.13462 -2.83855 0
M  V30 914 C 91.6531 5.37644 -3.3335 0
M  V30 915 C 90.3171 5.5613 -3.69155 0
M  V30 916 H 89.5871 0.740407 -0.0296397 0
M  V30 917 H 92.2341 1.75321 -0.770374 0
M  V30 918 H 90.5391 3.83597 0.797537 0
M  V30 919 H 92.2361 3.98621 0.436184 0
M  V30 920 H 88.8261 4.17116 -0.985499 0
M  V30 921 H 93.0101 4.59782 -1.86855 0
M  V30 922 H 88.2661 5.25965 -3.11722 0
M  V30 923 H 92.4401 5.7 -4.00092 0
M  V30 924 H 90.0671 6.0287 -4.63089 0
M  V30 925 N 91.6422 0.330177 1.54103 0
M  V30 926 C 92.8672 -0.274893 2.0557 0
M  V30 927 C 93.2922 -1.44487 1.20437 0
M  V30 928 O 92.6502 -1.80021 0.214991 0
M  V30 929 C 92.6982 -0.68079 3.54115 0
M  V30 930 O 91.8022 -1.7824 3.71893 0
M  V30 931 H 91.1432 -0.0483849 0.662235 0
M  V30 932 H 93.6732 0.480508 1.98878 0
M  V30 933 H 93.6832 -0.961635 3.96505 0
M  V30 934 H 92.3582 0.174903 4.15532 0
M  V30 935 H 90.9352 -1.49985 3.41407 0
M  V30 936 N 93.1203 -1.57491 0.0584922 0
M  V30 937 C 94.3683 -1.92597 -0.612436 0
M  V30 938 C 94.6893 -0.938162 -1.70949 0
M  V30 939 O 93.9593 0.0158301 -1.95894 0
M  V30 940 H 92.5393 -0.710964 -0.229214 0
M  V30 941 H 95.2013 -1.94571 0.113218 0
M  V30 942 H 94.2973 -2.94038 -1.04633 0
M  V30 943 N 94.5984 0.214957 -1.56127 0
M  V30 944 C 95.5284 1.2695 -1.95974 0
M  V30 945 C 96.5094 1.48539 -0.828868 0
M  V30 946 O 97.6944 1.60611 -1.09168 0
M  V30 947 C 94.8244 2.61794 -2.28214 0
M  V30 948 C 93.7784 2.54851 -3.43853 0
M  V30 949 C 93.1044 3.93785 -3.61715 0
M  V30 950 C 94.4044 2.09065 -4.78632 0
M  V30 951 H 96.0984 0.93846 -2.84312 0
M  V30 952 H 93.6444 0.449996 -1.36788 0
M  V30 953 H 95.5974 3.35731 -2.54682 0
M  V30 954 H 94.3214 2.96599 -1.36736 0
M  V30 955 H 92.9804 1.8337 -3.17444 0
M  V30 956 H 92.6284 4.25908 -2.67602 0
M  V30 957 H 92.3284 3.90019 -4.39498 0
M  V30 958 H 93.8524 4.69374 -3.90539 0
M  V30 959 H 95.2664 2.7275 -5.04262 0
M  V30 960 H 93.6634 2.16346 -5.59745 0
M  V30 961 H 94.7334 1.04315 -4.73547 0
M  V30 962 N 96.0765 1.50051 0.48192 0
M  V30 963 C 97.0095 1.62749 1.59963 0
M  V30 964 C 97.9875 0.475903 1.5548 0
M  V30 965 O 99.1715 0.693986 1.7526 0
M  V30 966 C 96.2985 1.60008 2.98522 0
M  V30 967 C 95.3445 2.80596 3.21198 0
M  V30 968 S 96.1775 4.42038 3.02262 0
M  V30 969 C 97.3335 4.41973 4.43182 0
M  V30 970 H 97.5665 2.57296 1.4895 0
M  V30 971 H 95.0995 1.39179 0.668477 0
M  V30 972 H 97.0575 1.59112 3.78409 0
M  V30 973 H 95.7185 0.667153 3.06933 0
M  V30 974 H 94.9115 2.74952 4.22395 0
M  V30 975 H 94.5135 2.79003 2.49065 0
M  V30 976 H 96.8055 4.14868 5.35622 0
M  V30 977 H 97.7485 5.43512 4.53873 0
M  V30 978 H 98.1565 3.71812 4.24755 0
M  V30 979 N 97.5546 -0.734337 1.39446 0
M  V30 980 C 98.8006 -1.49505 1.37913 0
M  V30 981 C 99.1556 -1.92384 -0.0248416 0
M  V30 982 O 98.4486 -1.6395 -0.991506 0
M  V30 983 C 98.6426 -2.74711 2.28623 0
M  V30 984 C 98.4716 -2.44075 3.777 0
M  V30 985 C 97.2416 -2.36338 4.46623 0
M  V30 986 C 99.4396 -2.09574 4.69663 0
M  V30 987 N 97.4216 -1.9818 5.81032 0
M  V30 988 C 98.7926 -1.81865 5.92727 0
M  V30 989 C 100.848 -1.96048 4.57678 0
M  V30 990 C 99.5506 -1.41992 7.05146 0
M  V30 991 C 101.577 -1.57579 5.7002 0
M  V30 992 C 100.939 -1.30754 6.92158 0
M  V30 993 H 97.0376 -0.545896 0.55993 0
M  V30 994 H 99.6216 -0.853373 1.75002 0
M  V30 995 H 97.7926 -3.36657 1.93692 0
M  V30 996 H 99.5246 -3.40916 2.18078 0
M  V30 997 H 96.2796 -2.53456 4.00071 0
M  V30 998 H 96.7036 -1.81691 6.52163 0
M  V30 999 H 101.346 -2.15455 3.63784 0
M  V30 1000 H 99.0636 -1.21327 7.9894 0
M  V30 1001 H 102.65 -1.47718 5.62735 0
M  V30 1002 H 101.53 -1.01432 7.77612 0
M  V30 1003 N 99.0327 -1.24633 -0.964593 0
M  V30 1004 C 100.28 -1.08788 -1.70796 0
M  V30 1005 C 100.608 0.372783 -1.90894 0
M  V30 1006 O 99.8627 1.29167 -1.47018 0
M  V30 1007 C 100.162 -1.7763 -3.10133 0
M  V30 1008 C 99.8277 -3.27557 -3.09866 0
M  V30 1009 C 98.4897 -3.6846 -3.09501 0
M  V30 1010 C 100.842 -4.23389 -3.03959 0
M  V30 1011 C 98.1697 -5.03624 -3.00965 0
M  V30 1012 C 100.522 -5.58565 -2.96965 0
M  V30 1013 C 99.1857 -5.98809 -2.9493 0
M  V30 1014 H 98.4557 -0.398084 -0.624988 0
M  V30 1015 H 101.103 -1.54777 -1.12767 0
M  V30 1016 H 99.4077 -1.24044 -3.71645 0
M  V30 1017 H 101.105 -1.62832 -3.66451 0
M  V30 1018 H 97.6947 -2.95006 -3.10917 0
M  V30 1019 H 101.879 -3.92787 -3.03368 0
M  V30 1020 H 97.1347 -5.33998 -2.97752 0
M  V30 1021 H 101.309 -6.32523 -2.91354 0
M  V30 1022 H 98.9357 -7.03505 -2.88071 0
M  V30 1023 N 100.511 1.16574 -1.06058 0
M  V30 1024 C 101.758 1.87047 -0.775873 0
M  V30 1025 C 102.086 1.81562 0.697534 0
M  V30 1026 O 101.341 1.22445 1.52662 0
M  V30 1027 C 101.64 3.36195 -1.21275 0
M  V30 1028 C 101.306 3.6188 -2.68986 0
M  V30 1029 C 99.9678 3.68599 -3.09335 0
M  V30 1030 C 102.32 3.72648 -3.64394 0
M  V30 1031 C 99.6478 3.83584 -4.43937 0
M  V30 1032 C 102 3.89154 -4.98741 0
M  V30 1033 C 100.664 3.94114 -5.3873 0
M  V30 1034 H 99.9338 0.684452 -0.283912 0
M  V30 1035 H 102.581 1.37853 -1.32925 0
M  V30 1036 H 100.886 3.87505 -0.578528 0
M  V30 1037 H 102.583 3.89103 -0.969542 0
M  V30 1038 H 99.1728 3.57281 -2.36744 0
M  V30 1039 H 103.357 3.66769 -3.34356 0
M  V30 1040 H 98.6128 3.85677 -4.74409 0
M  V30 1041 H 102.787 3.96427 -5.72554 0
M  V30 1042 H 100.414 4.05478 -6.43033 0
M  V30 1043 N 101.989 0.842826 1.3317 0
M  V30 1044 C 103.217 0.454055 2.01856 0
M  V30 1045 C 103.632 -0.94587 1.63397 0
M  V30 1046 O 102.989 -1.61534 0.849302 0
M  V30 1047 C 103.04 0.569715 3.56982 0
M  V30 1048 O 102.761 1.91448 3.94055 0
M  V30 1049 C 104.262 0.178412 4.42941 0
M  V30 1050 H 101.482 0.17979 0.646465 0
M  V30 1051 H 104.026 1.1365 1.70012 0
M  V30 1052 H 102.181 -0.0648587 3.87346 0
M  V30 1053 H 102.595 1.90282 4.88767 0
M  V30 1054 H 104.069 0.310376 5.51127 0
M  V30 1055 H 104.546 -0.880056 4.30293 0
M  V30 1056 H 105.152 0.787579 4.17944 0
M  V30 1057 N 103.467 -1.45747 0.599634 0
M  V30 1058 C 104.716 -2.01502 0.0893511 0
M  V30 1059 C 105.029 -1.4748 -1.28488 0
M  V30 1060 O 106.235 -1.95161 -1.88745 0
M  V30 1061 C 104.691 -3.59735 0.109082 0
M  V30 1062 C 104.299 -4.22754 1.48267 0
M  V30 1063 C 106.043 -4.23085 -0.346374 0
M  V30 1064 C 103.95 -5.73115 1.45921 0
M  V30 1065 H 102.88 -0.753417 0.0296347 0
M  V30 1066 H 105.531 -1.67303 0.753788 0
M  V30 1067 H 103.913 -3.91087 -0.621854 0
M  V30 1068 H 105.087 -4.02987 2.23468 0
M  V30 1069 H 103.402 -3.71567 1.87955 0
M  V30 1070 H 105.999 -5.33327 -0.38298 0
M  V30 1071 H 106.342 -3.93201 -1.36743 0
M  V30 1072 H 106.875 -3.9642 0.331038 0
M  V30 1073 H 103.614 -6.07685 2.45762 0
M  V30 1074 H 103.134 -5.95097 0.749665 0
M  V30 1075 H 104.813 -6.3616 1.17941 0
M  V30 1076 N 104.945 -0.338344 -1.53925 0
M  V30 1077 C 106.193 0.259245 -2.0043 0
M  V30 1078 C 106.514 1.51484 -1.22791 0
M  V30 1079 O 105.784 1.93037 -0.33368 0
M  V30 1080 H 104.364 0.0987845 -0.740439 0
M  V30 1081 H 107.026 -0.458302 -1.89435 0
M  V30 1082 H 106.122 0.505334 -3.07982 0
M  V30 1083 N 106.423 1.57458 -0.0668435 0
M  V30 1084 C 107.672 1.92477 0.602947 0
M  V30 1085 C 107.985 0.948419 1.71068 0
M  V30 1086 O 109.191 1.19124 2.43971 0
M  V30 1087 C 107.647 3.41903 1.12383 0
M  V30 1088 C 107.255 4.47975 0.04737 0
M  V30 1089 C 108.999 3.85931 1.76797 0
M  V30 1090 C 106.906 5.88529 0.582022 0
M  V30 1091 H 105.836 0.718387 0.22899 0
M  V30 1092 H 108.487 1.82978 -0.138276 0
M  V30 1093 H 106.869 3.46459 1.91787 0
M  V30 1094 H 108.043 4.55029 -0.726978 0
M  V30 1095 H 106.358 4.13384 -0.500243 0
M  V30 1096 H 108.955 4.88322 2.17821 0
M  V30 1097 H 109.298 3.23029 2.62599 0
M  V30 1098 H 109.831 3.83958 1.04024 0
M  V30 1099 H 106.57 6.55065 -0.238721 0
M  V30 1100 H 106.09 5.85004 1.324 0
M  V30 1101 H 107.769 6.38258 1.05999 0
M  V30 1102 N 107.901 -0.206675 1.56239 0
M  V30 1103 C 109.147 -0.925733 1.81113 0
M  V30 1104 C 109.502 -1.81368 0.642135 0
M  V30 1105 O 108.795 -1.88126 -0.363211 0
M  V30 1106 C 108.989 -1.78675 3.09532 0
M  V30 1107 C 108.818 -0.98365 4.3881 0
M  V30 1108 C 107.588 -0.672661 5.00803 0
M  V30 1109 C 109.786 -0.341847 5.13163 0
M  V30 1110 N 107.768 0.150283 6.13716 0
M  V30 1111 C 109.139 0.343815 6.19046 0
M  V30 1112 C 111.194 -0.256392 4.97239 0
M  V30 1113 C 109.897 1.10678 7.10734 0
M  V30 1114 C 111.923 0.493142 5.8934 0
M  V30 1115 C 111.285 1.16729 6.94661 0
M  V30 1116 H 107.384 -0.318524 0.714189 0
M  V30 1117 H 109.968 -0.195378 1.93717 0
M  V30 1118 H 108.139 -2.4888 2.98183 0
M  V30 1119 H 109.871 -2.44441 3.22538 0
M  V30 1120 H 106.626 -0.994294 4.63045 0
M  V30 1121 H 107.05 0.551026 6.74754 0
M  V30 1122 H 111.692 -0.763249 4.15854 0
M  V30 1123 H 109.41 1.6251 7.91591 0
M  V30 1124 H 112.996 0.560465 5.79094 0
M  V30 1125 H 111.876 1.738 7.64698 0
M  V30 1126 N 109.379 -1.50304 -0.473955 0
M  V30 1127 C 110.626 -1.6115 -1.22625 0
M  V30 1128 C 110.954 -0.310517 -1.92005 0
M  V30 1129 O 110.209 0.703419 -1.82621 0
M  V30 1130 C 110.508 -2.73938 -2.29549 0
M  V30 1131 C 110.174 -4.14519 -1.7744 0
M  V30 1132 C 108.836 -4.5277 -1.62949 0
M  V30 1133 C 111.188 -5.02392 -1.3875 0
M  V30 1134 C 108.516 -5.76639 -1.08187 0
M  V30 1135 C 110.868 -6.26805 -0.854309 0
M  V30 1136 C 109.532 -6.63861 -0.696011 0
M  V30 1137 H 108.802 -0.589691 -0.448715 0
M  V30 1138 H 111.449 -1.84228 -0.522705 0
M  V30 1139 H 109.754 -2.44937 -3.05799 0
M  V30 1140 H 111.451 -2.79534 -2.87509 0
M  V30 1141 H 108.041 -3.8434 -1.89685 0
M  V30 1142 H 112.225 -4.73474 -1.4878 0
M  V30 1143 H 107.481 -6.04027 -0.946666 0
M  V30 1144 H 111.655 -6.94258 -0.545843 0
M  V30 1145 H 109.282 -7.59722 -0.26952 0
M  V30 1146 N 110.857 0.726932 -1.39834 0
M  V30 1147 C 112.103 1.48771 -1.38704 0
M  V30 1148 C 112.458 1.92394 0.0146387 0
M  V30 1149 O 111.751 1.64474 0.982797 0
M  V30 1150 C 111.945 2.73495 -2.30077 0
M  V30 1151 C 111.774 2.42068 -3.78989 0
M  V30 1152 C 110.544 2.33966 -4.4787 0
M  V30 1153 C 112.742 2.0708 -4.70768 0
M  V30 1154 N 110.724 1.95095 -5.82075 0
M  V30 1155 C 112.095 1.78719 -5.93683 0
M  V30 1156 C 114.15 1.93618 -4.58712 0
M  V30 1157 C 112.853 1.3825 -7.05889 0
M  V30 1158 C 114.879 1.54553 -5.70848 0
M  V30 1159 C 114.241 1.27082 -6.92842 0
M  V30 1160 H 110.34 0.542919 -0.562817 0
M  V30 1161 H 112.924 0.84408 -1.75452 0
M  V30 1162 H 111.095 3.35625 -1.95474 0
M  V30 1163 H 112.827 3.39755 -2.19883 0
M  V30 1164 H 109.582 2.51331 -4.0141 0
M  V30 1165 H 110.006 1.7823 -6.53118 0
M  V30 1166 H 114.648 2.13522 -3.64922 0
M  V30 1167 H 112.366 1.17088 -7.99572 0
M  V30 1168 H 115.952 1.44731 -5.6351 0
M  V30 1169 H 114.832 0.973069 -7.78139 0
M  V30 1170 N 112.336 1.25143 0.95797 0
M  V30 1171 C 113.566 1.12261 1.73439 0
M  V30 1172 C 113.974 -0.326715 1.86358 0
M  V30 1173 O 113.317 -1.2367 1.35836 0
M  V30 1174 C 113.379 1.69966 3.16784 0
M  V30 1175 C 113.043 3.18936 3.27305 0
M  V30 1176 C 114.04 4.15968 3.11877 0
M  V30 1177 C 111.725 3.59083 3.51234 0
M  V30 1178 C 113.719 5.51126 3.20217 0
M  V30 1179 C 111.406 4.9438 3.5921 0
M  V30 1180 C 112.404 5.90211 3.43716 0
M  V30 1181 O 112.092 7.23046 3.51368 0
M  V30 1182 H 111.824 0.392476 0.550399 0
M  V30 1183 H 114.378 1.65927 1.21068 0
M  V30 1184 H 112.608 1.10744 3.70503 0
M  V30 1185 H 114.297 1.52232 3.76272 0
M  V30 1186 H 115.063 3.86292 2.93264 0
M  V30 1187 H 110.942 2.84989 3.62356 0
M  V30 1188 H 114.486 6.25905 3.0804 0
M  V30 1189 H 110.383 5.23723 3.77339 0
M  V30 1190 H 111.151 7.31097 3.6802 0
M  V30 1191 N 113.814 -1.1601 1.06675 0
M  V30 1192 C 114.746 -2.20115 0.638921 0
M  V30 1193 C 115.759 -1.59916 -0.305057 0
M  V30 1194 O 116.948 -1.78245 -0.0954446 0
M  V30 1195 C 114.048 -3.38798 -0.0830083 0
M  V30 1196 C 113.221 -4.2855 0.875426 0
M  V30 1197 C 112.28 -5.25849 0.192042 0
M  V30 1198 O 111.306 -5.63102 0.830921 0
M  V30 1199 N 112.508 -5.70648 -1.06493 0
M  V30 1200 H 115.273 -2.57439 1.53444 0
M  V30 1201 H 112.834 -1.31057 0.950557 0
M  V30 1202 H 114.826 -4.00936 -0.550685 0
M  V30 1203 H 113.396 -2.99947 -0.880386 0
M  V30 1204 H 112.616 -3.63617 1.52238 0
M  V30 1205 H 113.904 -4.85393 1.52548 0
M  V30 1206 H 113.302 -5.42482 -1.60405 0
M  V30 1207 H 111.859 -6.34859 -1.47641 0
M  V30 1208 N 115.292 -0.849877 -1.32721 0
M  V30 1209 C 116.255 -0.296122 -2.27279 0
M  V30 1210 C 117.255 0.541458 -1.5141 0
M  V30 1211 O 118.445 0.353658 -1.70572 0
M  V30 1212 C 115.577 0.581579 -3.35902 0
M  V30 1213 H 116.77 -1.13064 -2.77771 0
M  V30 1214 H 114.323 -0.62383 -1.43311 0
M  V30 1215 H 115.058 1.43809 -2.9067 0
M  V30 1216 H 114.843 -0.0178814 -3.92096 0
M  V30 1217 H 116.333 0.961951 -4.0637 0
M  V30 1218 N 116.77 1.45427 -0.607355 0
M  V30 1219 C 118.018 2.01841 -0.102253 0
M  V30 1220 C 118.339 1.47832 1.27164 0
M  V30 1221 O 117.609 0.672497 1.83995 0
M  V30 1222 H 116.189 0.746188 -0.0348101 0
M  V30 1223 H 118.851 1.78229 -0.7887 0
M  V30 1224 H 117.947 3.12057 -0.0518585 0
M  V30 1225 N 118.248 0.346503 1.53744 0
M  V30 1226 C 119.494 -0.242135 2.01954 0
M  V30 1227 C 119.849 -1.47962 1.22984 0
M  V30 1228 O 119.142 -1.89077 0.309924 0
M  V30 1229 C 119.336 -0.605809 3.52228 0
M  V30 1230 C 119.165 0.594882 4.45748 0
M  V30 1231 C 117.935 1.1011 4.93157 0
M  V30 1232 C 120.133 1.45425 4.93311 0
M  V30 1233 N 118.115 2.26381 5.70636 0
M  V30 1234 C 119.486 2.46383 5.68942 0
M  V30 1235 C 121.541 1.47935 4.75415 0
M  V30 1236 C 120.244 3.49684 6.28581 0
M  V30 1237 C 122.27 2.50119 5.35905 0
M  V30 1238 C 121.632 3.49803 6.11406 0
M  V30 1239 H 117.731 -0.0518296 0.780281 0
M  V30 1240 H 120.315 0.486736 1.88518 0
M  V30 1241 H 118.486 -1.30378 3.65864 0
M  V30 1242 H 120.218 -1.17789 3.87179 0
M  V30 1243 H 116.973 0.668721 4.68855 0
M  V30 1244 H 117.397 2.85094 6.14044 0
M  V30 1245 H 122.039 0.722274 4.16585 0
M  V30 1246 H 119.757 4.26285 6.86518 0
M  V30 1247 H 123.343 2.52892 5.23963 0
M  V30 1248 H 122.223 4.27576 6.5738 0
M  V30 1249 N 119.726 -1.57421 0.075193 0
M  V30 1250 C 120.674 -2.14124 -0.908508 0
M  V30 1251 C 121.668 -1.07898 -1.30592 0
M  V30 1252 O 122.874 -1.26273 -1.28277 0
M  V30 1253 H 119.249 -0.684707 -0.310935 0
M  V30 1254 H 121.22 -2.95634 -0.405374 0
M  V30 1255 C 119.969 -2.72044 -2.16535 0
M  V30 1256 H 119.292 -3.53456 -1.86839 0
M  V30 1257 H 120.732 -3.15311 -2.83469 0
M  V30 1258 C 119.191 -1.66968 -2.92615 0
M  V30 1259 O 119.721 -1.0967 -3.86439 0
M  V30 1260 N 117.927 -1.37923 -2.55784 0
M  V30 1261 H 117.474 -1.84706 -1.79559 0
M  V30 1262 H 117.432 -0.67852 -3.06991 0
M  V30 1263 N 121.204 0.198386 -1.56346 0
M  V30 1264 C 122.615 0.763358 -1.70381 0
M  V30 1265 C 122.966 1.83995 -0.681203 0
M  V30 1266 O 122.091 2.15785 0.16305 0
M  V30 1267 C 122.686 1.39143 -3.08909 0
M  V30 1268 C 121.245 1.90352 -3.2472 0
M  V30 1269 C 120.392 0.772233 -2.6633 0
M  V30 1270 H 123.343 -0.0266377 -1.58678 0
M  V30 1271 H 123.364 2.26076 -3.06055 0
M  V30 1272 H 122.876 0.607638 -3.83314 0
M  V30 1273 H 120.977 2.71461 -2.55225 0
M  V30 1274 H 121.09 2.06757 -4.3219 0
M  V30 1275 H 119.454 1.18566 -2.2542 0
M  V30 1276 H 120.237 0.00073556 -3.433 0
M  V30 1277 N 122.682 1.50554 0.465978 0
M  V30 1278 C 123.645 1.69233 1.54574 0
M  V30 1279 C 124.645 0.562901 1.50626 0
M  V30 1280 O 125.835 0.830016 1.53155 0
M  V30 1281 C 122.967 1.7223 2.94193 0
M  V30 1282 H 124.16 2.65571 1.39327 0
M  V30 1283 H 121.713 1.40111 0.692711 0
M  V30 1284 H 122.448 0.77603 3.14878 0
M  V30 1285 H 122.233 2.54285 2.98466 0
M  V30 1286 H 123.723 1.88618 3.72576 0
M  V30 1287 N 124.16 -0.719506 1.40217 0
M  V30 1288 C 125.406 -1.48152 1.38488 0
M  V30 1289 C 125.739 -1.94195 -0.0141867 0
M  V30 1290 O 125.014 -1.67884 -0.982096 0
M  V30 1291 C 125.297 -2.71035 2.37091 0
M  V30 1292 C 125.15 -2.30912 3.86005 0
M  V30 1293 C 126.469 -3.73182 2.33288 0
M  V30 1294 H 123.588 -0.537395 0.504357 0
M  V30 1295 H 126.23 -0.821472 1.71324 0
M  V30 1296 H 124.38 -3.27352 2.0922 0
M  V30 1297 H 126.052 -1.80107 4.24687 0
M  V30 1298 H 124.295 -1.62958 4.02029 0
M  V30 1299 H 124.966 -3.18978 4.50508 0
M  V30 1300 H 127.442 -3.26485 2.57966 0
M  V30 1301 H 126.318 -4.56806 3.04334 0
M  V30 1302 H 126.579 -4.21202 1.34317 0
M  V30 1303 N 125.638 -1.25649 -0.95132 0
M  V30 1304 C 126.885 -1.10594 -1.69633 0
M  V30 1305 C 127.213 0.352515 -1.91279 0
M  V30 1306 O 126.468 1.27601 -1.4838 0
M  V30 1307 C 126.767 -1.80909 -3.08231 0
M  V30 1308 C 126.433 -3.30825 -3.06375 0
M  V30 1309 C 125.095 -3.71722 -3.05576 0
M  V30 1310 C 127.447 -4.26589 -2.99452 0
M  V30 1311 C 124.775 -5.06788 -2.95606 0
M  V30 1312 C 127.127 -5.61683 -2.91024 0
M  V30 1313 C 125.791 -6.01904 -2.88562 0
M  V30 1314 H 125.061 -0.404691 -0.620731 0
M  V30 1315 H 127.708 -1.55964 -1.11119 0
M  V30 1316 H 126.013 -1.27979 -3.70309 0
M  V30 1317 H 127.71 -1.6671 -3.64704 0
M  V30 1318 H 124.3 -2.98287 -3.07771 0
M  V30 1319 H 128.484 -3.95982 -2.99185 0
M  V30 1320 H 123.74 -5.37126 -2.92071 0
M  V30 1321 H 127.914 -6.35578 -2.84629 0
M  V30 1322 H 125.541 -7.06521 -2.80593 0
M  V30 1323 N 127.117 1.15442 -1.07289 0
M  V30 1324 C 128.047 2.22312 -0.714107 0
M  V30 1325 C 129.028 1.67467 0.298155 0
M  V30 1326 O 130.213 1.93445 0.171048 0
M  V30 1327 C 127.343 3.47124 -0.110448 0
M  V30 1328 C 126.297 4.14926 -1.04979 0
M  V30 1329 C 125.623 5.33807 -0.308924 0
M  V30 1330 C 126.923 4.64762 -2.38314 0
M  V30 1331 H 128.617 2.5258 -1.6076 0
M  V30 1332 H 126.163 1.21404 -0.77441 0
M  V30 1333 H 128.116 4.21124 0.152482 0
M  V30 1334 H 126.84 3.16187 0.81812 0
M  V30 1335 H 125.499 3.42866 -1.29764 0
M  V30 1336 H 125.147 4.99126 0.623084 0
M  V30 1337 H 124.847 5.80113 -0.935036 0
M  V30 1338 H 126.371 6.10576 -0.0537771 0
M  V30 1339 H 127.785 5.30292 -2.1786 0
M  V30 1340 H 126.182 5.21728 -2.96514 0
M  V30 1341 H 127.252 3.80434 -3.00663 0
M  V30 1342 N 128.595 0.856903 1.32268 0
M  V30 1343 C 130.011 0.547061 1.49931 0
M  V30 1344 C 130.211 -0.921781 1.7918 0
M  V30 1345 O 129.267 -1.70469 1.8627 0
M  V30 1346 C 130.58 1.43599 2.64196 0
M  V30 1347 C 132.128 1.43665 2.78081 0
M  V30 1348 C 132.603 2.31085 3.95428 0
M  V30 1349 N 134.094 2.28893 4.02694 0
M  V30 1350 C 134.829 2.93262 4.92732 0
M  V30 1351 N 134.325 3.66751 5.87763 0
M  V30 1352 N 136.118 2.82638 4.85873 0
M  V30 1353 H 128.269 1.8075 1.11549 0
M  V30 1354 H 130.532 0.772144 0.549997 0
M  V30 1355 H 130.238 2.48058 2.49319 0
M  V30 1356 H 130.112 1.12502 3.60032 0
M  V30 1357 H 132.499 0.399701 2.92381 0
M  V30 1358 H 132.58 1.7878 1.82952 0
M  V30 1359 H 132.224 3.34849 3.81888 0
M  V30 1360 H 132.154 1.93302 4.89839 0
M  V30 1361 H 134.645 1.75466 3.34694 0
M  V30 1362 H 134.958 4.13027 6.53168 0
M  V30 1363 H 133.303 3.70859 5.87783 0
M  V30 1364 H 136.494 2.24774 4.10602 0
M  V30 1365 H 136.667 3.33084 5.55841 0
M  V30 1366 N 130.073 -1.45103 0.615059 0
M  V30 1367 C 131.35 -1.95549 0.0448276 0
M  V30 1368 C 131.73 -1.55737 -1.4251 0
M  V30 1369 O 131.078 -0.823556 -2.13143 0
M  V30 1370 C 131.288 -3.48098 0.250785 0
M  V30 1371 C 132.636 -4.24384 0.135509 0
M  V30 1372 O 133.66 -3.55738 0.181299 0
M  V30 1373 O 132.519 -5.46493 0.0268878 0
M  V30 1374 H 129.613 -0.8264 -0.0314845 0
M  V30 1375 H 132.159 -1.55232 0.685642 0
M  V30 1376 H 130.931 -3.7007 1.27139 0
M  V30 1377 H 130.554 -3.95323 -0.424937 0
M  V30 1378 N 131.551 -0.354651 -1.53558 0
M  V30 1379 C 132.481 0.489091 -2.2832 0
M  V30 1380 C 133.462 1.09324 -1.30316 0
M  V30 1381 O 134.647 1.11255 -1.59173 0
M  V30 1382 C 131.777 1.63456 -3.0643 0
M  V30 1383 C 130.731 1.1582 -4.12031 0
M  V30 1384 C 130.057 2.39305 -4.7816 0
M  V30 1385 C 131.357 0.250731 -5.21698 0
M  V30 1386 H 133.051 -0.134614 -2.99097 0
M  V30 1387 H 130.597 -0.0661826 -1.43848 0
M  V30 1388 H 132.55 2.23136 -3.57475 0
M  V30 1389 H 131.274 2.28533 -2.33325 0
M  V30 1390 H 129.933 0.584146 -3.61916 0
M  V30 1391 H 129.581 3.02814 -4.01637 0
M  V30 1392 H 129.281 2.08109 -5.49513 0
M  V30 1393 H 130.805 2.99691 -5.31994 0
M  V30 1394 H 132.219 0.754695 -5.68311 0
M  V30 1395 H 130.616 0.0301468 -6.00092 0
M  V30 1396 H 131.686 -0.710125 -4.79672 0
M  V30 1397 N 133.029 1.57378 -0.0835403 0
M  V30 1398 C 134.276 1.9393 0.58287 0
M  V30 1399 C 134.604 0.964455 1.68904 0
M  V30 1400 O 133.859 -0.0179474 1.95692 0
M  V30 1401 C 134.158 3.37063 1.1884 0
M  V30 1402 C 133.824 4.50424 0.207194 0
M  V30 1403 C 132.486 4.81159 -0.0627115 0
M  V30 1404 C 134.838 5.19136 -0.463426 0
M  V30 1405 C 132.166 5.77939 -1.01012 0
M  V30 1406 C 134.518 6.16931 -1.39924 0
M  V30 1407 C 133.182 6.46078 -1.67749 0
M  V30 1408 H 132.452 0.70964 0.213287 0
M  V30 1409 H 135.099 1.90856 -0.156916 0
M  V30 1410 H 133.404 3.3666 2.00418 0
M  V30 1411 H 135.101 3.6264 1.71153 0
M  V30 1412 H 131.691 4.2646 0.427747 0
M  V30 1413 H 135.875 4.95576 -0.268034 0
M  V30 1414 H 131.131 5.98842 -1.23283 0
M  V30 1415 H 135.305 6.69273 -1.92476 0
M  V30 1416 H 132.932 7.2088 -2.41321 0
M  V30 1417 N 134.507 -0.190092 1.56449 0
M  V30 1418 C 135.754 -0.909705 1.80916 0
M  V30 1419 C 136.082 -1.83047 0.657583 0
M  V30 1420 O 135.337 -1.92428 -0.356356 0
M  V30 1421 C 135.636 -1.75382 3.1141 0
M  V30 1422 C 135.302 -0.983606 4.40041 0
M  V30 1423 C 133.964 -0.770967 4.74984 0
M  V30 1424 C 136.316 -0.442024 5.19322 0
M  V30 1425 C 133.644 -0.0053448 5.867 0
M  V30 1426 C 135.996 0.310412 6.31838 0
M  V30 1427 C 134.66 0.534023 6.6536 0
M  V30 1428 H 133.93 -0.332885 0.662019 0
M  V30 1429 H 136.577 -0.175762 1.90692 0
M  V30 1430 H 134.882 -2.55659 2.96893 0
M  V30 1431 H 136.579 -2.31331 3.27547 0
M  V30 1432 H 133.169 -1.15936 4.12622 0
M  V30 1433 H 137.353 -0.593693 4.92736 0
M  V30 1434 H 132.609 0.177825 6.11141 0
M  V30 1435 H 136.783 0.737419 6.92485 0
M  V30 1436 H 134.41 1.12918 7.51767 0
M  V30 1437 N 135.985 -1.50799 -0.457987 0
M  V30 1438 C 137.232 -1.62442 -1.20908 0
M  V30 1439 C 137.56 -0.330865 -1.91665 0
M  V30 1440 O 136.815 0.68401 -1.83357 0
M  V30 1441 C 137.114 -2.76358 -2.2663 0
M  V30 1442 C 136.78 -4.16378 -1.73033 0
M  V30 1443 C 135.442 -4.54473 -1.58138 0
M  V30 1444 C 137.794 -5.03836 -1.33413 0
M  V30 1445 C 135.122 -5.77754 -1.02065 0
M  V30 1446 C 137.474 -6.27676 -0.78778 0
M  V30 1447 C 136.138 -6.64562 -0.625561 0
M  V30 1448 H 135.408 -0.594417 -0.442435 0
M  V30 1449 H 138.055 -1.84772 -0.503136 0
M  V30 1450 H 136.36 -2.48167 -3.03184 0
M  V30 1451 H 138.057 -2.82568 -2.84528 0
M  V30 1452 H 134.647 -3.86331 -1.85598 0
M  V30 1453 H 138.831 -4.75026 -1.4375 0
M  V30 1454 H 134.087 -6.04997 -0.882547 0
M  V30 1455 H 138.261 -6.94797 -0.472177 0
M  V30 1456 H 135.888 -7.59965 -0.188926 0
M  V30 1457 N 137.463 0.71206 -1.40597 0
M  V30 1458 C 138.688 1.50617 -1.42581 0
M  V30 1459 C 139.113 1.88079 -0.0282102 0
M  V30 1460 O 138.471 1.53511 0.964579 0
M  V30 1461 C 138.519 2.7557 -2.3258 0
M  V30 1462 O 137.623 3.72414 -1.77148 0
M  V30 1463 H 136.964 0.453966 -0.484573 0
M  V30 1464 H 139.494 0.876649 -1.84868 0
M  V30 1465 H 139.504 3.2406 -2.47889 0
M  V30 1466 H 138.179 2.47639 -3.34138 0
M  V30 1467 H 136.756 3.31276 -1.71204 0
M  V30 1468 N 138.941 1.26152 0.944643 0
M  V30 1469 C 139.871 1.09902 2.06019 0
M  V30 1470 C 140.852 0.00519538 1.70099 0
M  V30 1471 O 142.037 0.176583 1.93396 0
M  V30 1472 C 139.167 0.727562 3.39594 0
M  V30 1473 C 138.121 1.77274 3.89561 0
M  V30 1474 C 137.447 1.25569 5.19747 0
M  V30 1475 C 138.747 3.17357 4.14827 0
M  V30 1476 H 140.441 2.03217 2.19871 0
M  V30 1477 H 137.987 0.978452 1.05652 0
M  V30 1478 H 139.94 0.600777 4.17095 0
M  V30 1479 H 138.664 -0.241287 3.25707 0
M  V30 1480 H 137.323 1.88814 3.14237 0
M  V30 1481 H 136.971 0.276783 5.02238 0
M  V30 1482 H 136.671 1.95433 5.54148 0
M  V30 1483 H 138.195 1.1415 5.99835 0
M  V30 1484 H 139.609 3.08914 4.82954 0
M  V30 1485 H 138.006 3.84781 4.60504 0
M  V30 1486 H 139.076 3.63673 3.20734 0
M  V30 1487 N 140.419 -1.14872 1.07899 0
M  V30 1488 C 141.329 -2.2341 0.715915 0
M  V30 1489 C 142.345 -1.71808 -0.275306 0
M  V30 1490 O 143.521 -2.01039 -0.120545 0
M  V30 1491 C 140.586 -3.46474 0.125168 0
M  V30 1492 C 139.647 -4.13039 1.17034 0
M  V30 1493 C 138.88 -5.30229 0.607688 0
M  V30 1494 O 139.103 -5.675 -0.574497 0
M  V30 1495 O 138.037 -5.86444 1.35526 0
M  V30 1496 H 141.863 -2.56808 1.62121 0
M  V30 1497 H 139.448 -1.22702 0.852322 0
M  V30 1498 H 141.33 -4.20917 -0.201729 0
M  V30 1499 H 140.005 -3.14811 -0.753364 0
M  V30 1500 H 138.912 -3.40493 1.54968 0
M  V30 1501 H 140.245 -4.48796 2.02097 0
M  V30 1502 N 141.898 -0.863906 -1.31812 0
M  V30 1503 C 143.309 -0.52522 -1.7916 0
M  V30 1504 C 143.66 0.957518 -1.71248 0
M  V30 1505 O 142.785 1.74734 -1.27659 0
M  V30 1506 C 143.38 -0.9466 -3.25307 0
M  V30 1507 C 141.939 -0.659668 -3.70574 0
M  V30 1508 C 141.086 -1.14126 -2.52726 0
M  V30 1509 H 144.037 -1.05022 -1.1898 0
M  V30 1510 H 144.058 -0.266766 -3.79564 0
M  V30 1511 H 143.57 -2.02579 -3.31034 0
M  V30 1512 H 141.671 0.408416 -3.70355 0
M  V30 1513 H 141.784 -1.23245 -4.62977 0
M  V30 1514 H 140.148 -0.561216 -2.4844 0
M  V30 1515 H 140.931 -2.22775 -2.61201 0
M  V30 1516 N 143.376 1.44774 -0.622745 0
M  V30 1517 C 144.787 1.85546 -0.207226 0
M  V30 1518 C 145.138 1.52093 1.23944 0
M  V30 1519 O 144.263 0.95492 1.94191 0
M  V30 1520 C 144.858 3.36781 -0.369313 0
M  V30 1521 C 143.417 3.76399 -0.00836847 0
M  V30 1522 C 142.564 2.68664 -0.686651 0
M  V30 1523 H 145.515 1.3536 -0.828454 0
M  V30 1524 H 145.536 3.78453 0.394162 0
M  V30 1525 H 145.048 3.61098 -1.42231 0
M  V30 1526 H 143.149 3.57698 1.04322 0
M  V30 1527 H 143.262 4.7732 -0.412584 0
M  V30 1528 H 141.626 2.54404 -0.122777 0
M  V30 1529 H 142.409 2.95815 -1.74208 0
M  V30 1530 N 144.854 0.36279 1.53368 0
M  V30 1531 C 145.817 -0.472679 2.24273 0
M  V30 1532 C 146.817 -1.012 1.24961 0
M  V30 1533 O 148.007 -0.898194 1.49259 0
M  V30 1534 C 145.139 -1.66039 2.97731 0
M  V30 1535 H 146.332 0.14773 2.99536 0
M  V30 1536 H 143.885 0.114434 1.55881 0
M  V30 1537 H 144.62 -2.31896 2.26704 0
M  V30 1538 H 144.405 -1.28066 3.70596 0
M  V30 1539 H 145.895 -2.25252 3.51641 0
M  V30 1540 N 146.332 -1.57332 0.0918853 0
M  V30 1541 C 147.743 -1.81496 -0.437739 0
M  V30 1542 C 148.094 -1.00727 -1.6837 0
M  V30 1543 O 147.219 -0.235694 -2.15113 0
M  V30 1544 C 147.814 -3.29197 -0.800939 0
M  V30 1545 C 146.373 -3.54136 -1.27532 0
M  V30 1546 C 145.52 -2.75979 -0.270392 0
M  V30 1547 H 148.471 -1.55494 0.317366 0
M  V30 1548 H 148.492 -3.42344 -1.66074 0
M  V30 1549 H 148.004 -3.87955 0.106078 0
M  V30 1550 H 146.105 -3.00705 -2.20016 0
M  V30 1551 H 146.218 -4.62792 -1.23938 0
M  V30 1552 H 144.582 -2.43349 -0.751872 0
M  V30 1553 H 145.365 -3.37484 0.629248 0
M  V30 1554 N 147.81 0.181792 -1.56548 0
M  V30 1555 C 148.72 1.24538 -1.98815 0
M  V30 1556 C 149.736 1.49045 -0.897861 0
M  V30 1557 O 150.912 1.61399 -1.20467 0
M  V30 1558 C 147.977 2.56683 -2.33055 0
M  V30 1559 C 147.038 2.40131 -3.55859 0
M  V30 1560 C 146.271 3.65975 -3.88456 0
M  V30 1561 O 146.494 4.70711 -3.22161 0
M  V30 1562 O 145.428 3.6071 -4.81842 0
M  V30 1563 H 149.254 0.916647 -2.89536 0
M  V30 1564 H 146.839 0.387842 -1.44278 0
M  V30 1565 H 148.721 3.34655 -2.56094 0
M  V30 1566 H 147.396 2.89157 -1.45498 0
M  V30 1567 H 146.303 1.60226 -3.38051 0
M  V30 1568 H 147.636 2.12585 -4.43924 0
M  V30 1569 N 149.288 1.51039 0.449983 0
M  V30 1570 C 150.518 1.66627 1.22143 0
M  V30 1571 C 150.926 0.357776 1.85786 0
M  V30 1572 O 150.269 -0.672424 1.70951 0
M  V30 1573 C 150.331 2.71562 2.35573 0
M  V30 1574 C 149.995 4.14526 1.92399 0
M  V30 1575 C 150.992 4.99717 1.43453 0
M  V30 1576 C 148.677 4.60559 2.00475 0
M  V30 1577 C 150.671 6.28998 1.03155 0
M  V30 1578 C 148.358 5.8984 1.59788 0
M  V30 1579 C 149.356 6.73886 1.11208 0
M  V30 1580 O 149.044 8.0075 0.710935 0
M  V30 1581 H 148.776 0.562635 0.374724 0
M  V30 1582 H 151.33 1.98146 0.541036 0
M  V30 1583 H 149.56 2.3533 3.06849 0
M  V30 1584 H 151.249 2.76156 2.97478 0
M  V30 1585 H 152.015 4.65361 1.36618 0
M  V30 1586 H 147.894 3.95273 2.37235 0
M  V30 1587 H 151.438 6.9455 0.651663 0
M  V30 1588 H 147.335 6.23713 1.66289 0
M  V30 1589 H 148.103 8.142 0.837913 0
M  V30 1590 N 150.766 -0.704594 1.40972 0
M  V30 1591 C 152.014 -1.46169 1.39568 0
M  V30 1592 C 152.335 -1.95 0.00253745 0
M  V30 1593 O 151.605 -1.71095 -0.954114 0
M  V30 1594 H 150.185 -0.542326 0.513704 0
M  V30 1595 H 152.847 -0.834553 1.76128 0
M  V30 1596 H 151.943 -2.32922 2.07735 0
M  V30 1597 N 152.244 -1.26651 -0.937939 0
M  V30 1598 C 153.174 -1.10993 -2.05433 0
M  V30 1599 C 154.155 -0.0142161 -1.70094 0
M  V30 1600 O 155.34 -0.186837 -1.93299 0
M  V30 1601 C 152.47 -0.745561 -3.39203 0
M  V30 1602 C 151.424 -1.79337 -3.88616 0
M  V30 1603 C 150.75 -1.28324 -5.19073 0
M  V30 1604 C 152.05 -3.19553 -4.13138 0
M  V30 1605 H 153.744 -2.0438 -2.1879 0
M  V30 1606 H 151.29 -0.984041 -1.05131 0
M  V30 1607 H 153.243 -0.622888 -4.16771 0
M  V30 1608 H 151.967 0.22401 -3.25831 0
M  V30 1609 H 150.626 -1.90477 -3.13231 0
M  V30 1610 H 150.274 -0.303414 -5.02084 0
M  V30 1611 H 149.974 -1.98369 -5.53103 0
M  V30 1612 H 151.498 -1.1733 -5.99221 0
M  V30 1613 H 152.912 -3.11471 -4.81309 0
M  V30 1614 H 151.309 -3.87218 -4.58457 0
M  V30 1615 H 152.379 -3.65368 -3.18801 0
M  V30 1616 N 153.722 1.14298 -1.08507 0
M  V30 1617 C 154.947 1.8976 -0.837001 0
M  V30 1618 C 155.372 1.78097 0.605228 0
M  V30 1619 O 154.73 1.12188 1.4242 0
M  V30 1620 C 154.778 3.37685 -1.26495 0
M  V30 1621 O 153.882 4.10281 -0.417514 0
M  V30 1622 H 153.223 0.590365 -0.303917 0
M  V30 1623 H 155.753 1.44672 -1.44676 0
M  V30 1624 H 155.763 3.88501 -1.24625 0
M  V30 1625 H 154.438 3.45492 -2.31534 0
M  V30 1626 H 153.015 3.69536 -0.499722 0
M  V30 1627 N 155.201 0.870884 1.31352 0
M  V30 1628 C 156.448 0.482273 1.96673 0
M  V30 1629 C 156.776 -0.965638 1.68836 0
M  V30 1630 O 156.031 -1.69514 0.977937 0
M  V30 1631 C 156.33 0.687157 3.50732 0
M  V30 1632 C 155.996 2.108 3.9859 0
M  V30 1633 C 154.658 2.49656 4.1137 0
M  V30 1634 C 157.01 3.03459 4.23748 0
M  V30 1635 C 154.338 3.80412 4.46659 0
M  V30 1636 C 156.69 4.3373 4.60501 0
M  V30 1637 C 155.354 4.725 4.71487 0
M  V30 1638 H 154.624 0.176476 0.719679 0
M  V30 1639 H 157.271 1.10405 1.56471 0
M  V30 1640 H 155.576 -0.0177476 3.91796 0
M  V30 1641 H 157.273 0.366284 3.99324 0
M  V30 1642 H 153.863 1.79633 3.8914 0
M  V30 1643 H 158.047 2.74665 4.13368 0
M  V30 1644 H 153.303 4.1021 4.53362 0
M  V30 1645 H 157.477 5.05578 4.78919 0
M  V30 1646 H 155.104 5.73859 4.98588 0
M  V30 1647 N 156.679 -1.44442 0.630414 0
M  V30 1648 C 157.642 -2.29107 -0.0652523 0
M  V30 1649 C 158.642 -1.41002 -0.772995 0
M  V30 1650 O 159.832 -1.62881 -0.617692 0
M  V30 1651 C 156.964 -3.22564 -1.10296 0
M  V30 1652 H 158.157 -2.92103 0.679401 0
M  V30 1653 H 155.71 -1.51343 0.390517 0
M  V30 1654 H 156.445 -2.64416 -1.87762 0
M  V30 1655 H 156.23 -3.87491 -0.59941 0
M  V30 1656 H 157.72 -3.86167 -1.5895 0
M  V30 1657 N 158.157 -0.370918 -1.53173 0
M  V30 1658 C 159.12 0.460778 -2.24521 0
M  V30 1659 C 160.12 1.00536 -1.25496 0
M  V30 1660 O 161.31 0.890266 -1.49733 0
M  V30 1661 C 158.442 1.64457 -2.98608 0
M  V30 1662 H 159.635 -0.163613 -2.99453 0
M  V30 1663 H 157.188 -0.122699 -1.55818 0
M  V30 1664 H 157.923 2.30691 -2.2793 0
M  V30 1665 H 157.708 1.26099 -3.7127 0
M  V30 1666 H 159.198 2.23384 -3.5283 0
M  V30 1667 N 159.635 1.57281 -0.100228 0
M  V30 1668 C 161.046 1.81725 0.428107 0
M  V30 1669 C 161.397 1.01619 1.67833 0
M  V30 1670 O 160.522 0.247098 2.14985 0
M  V30 1671 C 161.117 3.29617 0.78347 0
M  V30 1672 C 159.676 3.54808 1.25653 0
M  V30 1673 C 158.823 2.76118 0.255752 0
M  V30 1674 H 161.774 1.55324 -0.325608 0
M  V30 1675 H 161.795 3.4322 1.64256 0
M  V30 1676 H 161.307 3.87893 -0.12665 0
M  V30 1677 H 159.408 3.01868 2.18418 0
M  V30 1678 H 159.521 4.63443 1.21482 0
M  V30 1679 H 157.885 2.43745 0.738956 0
M  V30 1680 H 158.668 3.37145 -0.647136 0
M  V30 1681 N 161.113 -0.173488 1.56642 0
M  V30 1682 C 162.043 -1.2171 1.99271 0
M  V30 1683 C 163.024 -1.46289 0.867959 0
M  V30 1684 O 164.209 -1.5766 1.13388 0
M  V30 1685 C 161.339 -2.55651 2.35074 0
M  V30 1686 C 160.293 -2.45645 3.50489 0
M  V30 1687 C 159.619 -3.84056 3.72028 0
M  V30 1688 C 160.919 -1.96302 4.84007 0
M  V30 1689 H 162.613 -0.86275 2.867 0
M  V30 1690 H 160.159 -0.413571 1.37933 0
M  V30 1691 H 162.112 -3.2886 2.63494 0
M  V30 1692 H 160.836 -2.92869 1.44552 0
M  V30 1693 H 159.495 -1.7489 3.22194 0
M  V30 1694 H 159.143 -4.18664 2.788 0
M  V30 1695 H 158.843 -3.7823 4.49684 0
M  V30 1696 H 160.367 -4.58854 4.02846 0
M  V30 1697 H 161.781 -2.59284 5.11317 0
M  V30 1698 H 160.178 -2.01429 5.65284 0
M  V30 1699 H 161.248 -0.917226 4.76146 0
M  V30 1700 N 162.591 -1.51276 -0.441967 0
M  V30 1701 C 163.538 -1.72256 -1.53612 0
M  V30 1702 C 164.508 -0.564164 -1.56225 0
M  V30 1703 O 165.693 -0.798074 -1.73307 0
M  V30 1704 C 162.833 -1.84932 -2.91366 0
M  V30 1705 C 161.946 -3.12459 -2.98317 0
M  V30 1706 C 161.081 -3.15758 -4.27166 0
M  V30 1707 C 160.12 -4.37619 -4.27967 0
M  V30 1708 N 159.257 -4.38493 -5.48333 0
M  V30 1709 H 164.097 -2.65654 -1.35026 0
M  V30 1710 H 161.634 -1.31662 -0.656009 0
M  V30 1711 H 163.592 -1.90263 -3.7129 0
M  V30 1712 H 162.222 -0.949461 -3.08521 0
M  V30 1713 H 161.274 -3.1646 -2.11086 0
M  V30 1714 H 162.586 -4.02382 -2.94771 0
M  V30 1715 H 161.74 -3.19979 -5.15459 0
M  V30 1716 H 160.479 -2.23715 -4.33362 0
M  V30 1717 H 159.484 -4.33579 -3.38067 0
M  V30 1718 H 160.709 -5.30921 -4.23438 0
M  V30 1719 H 158.655 -3.49318 -5.55259 0
M  V30 1720 H 158.572 -5.22219 -5.46647 0
M  V30 1721 H 159.84 -4.469 -6.38671 0
M  V30 1722 N 164.069 0.697108 -1.41344 0
M  V30 1723 C 164.979 1.84088 -1.45427 0
M  V30 1724 C 165.995 1.70545 -0.34501 0
M  V30 1725 O 167.171 1.92488 -0.592492 0
M  V30 1726 C 164.236 3.20056 -1.33286 0
M  V30 1727 C 163.297 3.45718 -2.54514 0
M  V30 1728 C 162.53 4.75199 -2.42944 0
M  V30 1729 O 162.753 5.51579 -1.45318 0
M  V30 1730 O 161.687 5.0161 -3.32672 0
M  V30 1731 H 165.513 1.836 -2.41919 0
M  V30 1732 H 163.098 0.849966 -1.22866 0
M  V30 1733 H 164.98 4.01236 -1.28794 0
M  V30 1734 H 163.655 3.2123 -0.39909 0
M  V30 1735 H 162.562 2.64474 -2.64583 0
M  V30 1736 H 163.895 3.49356 -3.46715 0
M  V30 1737 N 165.547 1.27147 0.931209 0
M  V30 1738 C 166.795 1.13055 1.6752 0
M  V30 1739 C 167.116 -0.324791 1.92276 0
M  V30 1740 O 166.386 -1.22775 1.52654 0
M  V30 1741 H 164.966 0.415391 0.620854 0
M  V30 1742 H 167.628 1.59623 1.11833 0
M  V30 1743 H 166.724 1.65694 2.64485 0
M  V30 1744 N 167.025 -1.13721 1.09112 0
M  V30 1745 C 168.273 -1.84559 0.823562 0
M  V30 1746 C 168.594 -1.83754 -0.652658 0
M  V30 1747 O 167.864 -1.29102 -1.47342 0
M  V30 1748 H 166.444 -0.683376 0.301673 0
M  V30 1749 H 169.106 -1.37771 1.37859 0
M  V30 1750 H 168.202 -2.8917 1.17419 0
M  V30 1751 N 168.503 -0.877838 -1.30888 0
M  V30 1752 C 169.433 -0.35534 -2.3078 0
M  V30 1753 C 170.414 0.557994 -1.60687 0
M  V30 1754 O 171.599 0.473355 -1.88343 0
M  V30 1755 C 168.729 0.437221 -3.44537 0
M  V30 1756 C 167.683 -0.383715 -4.26276 0
M  V30 1757 C 167.009 0.535014 -5.32017 0
M  V30 1758 C 168.309 -1.62201 -4.96476 0
M  V30 1759 H 170.003 -1.19007 -2.74732 0
M  V30 1760 H 167.549 -0.573698 -1.32078 0
M  V30 1761 H 169.502 0.813334 -4.13477 0
M  V30 1762 H 168.226 1.30553 -2.99372 0
M  V30 1763 H 166.885 -0.741874 -3.59015 0
M  V30 1764 H 166.533 1.40083 -4.831 0
M  V30 1765 H 166.233 -0.0104211 -5.87599 0
M  V30 1766 H 167.757 0.907799 -6.03814 0
M  V30 1767 H 169.171 -1.31689 -5.5797 0
M  V30 1768 H 167.568 -2.10711 -5.61891 0
M  V30 1769 H 168.638 -2.37044 -4.23011 0
M  V30 1770 N 169.982 1.44106 -0.638065 0
M  V30 1771 C 171.228 2.02815 -0.15409 0
M  V30 1772 C 171.583 1.49342 1.21304 0
M  V30 1773 O 170.876 0.670699 1.79478 0
M  V30 1774 C 171.07 3.5729 -0.0887327 0
M  V30 1775 C 170.899 4.2575 -1.44799 0
M  V30 1776 C 169.669 4.62443 -2.03653 0
M  V30 1777 C 171.867 4.55746 -2.38327 0
M  V30 1778 N 169.849 5.15903 -3.32741 0
M  V30 1779 C 171.22 5.10364 -3.52036 0
M  V30 1780 C 173.275 4.37703 -2.3732 0
M  V30 1781 C 171.978 5.48837 -4.64941 0
M  V30 1782 C 174.004 4.77229 -3.49294 0
M  V30 1783 C 173.366 5.31966 -4.61726 0
M  V30 1784 H 169.465 0.775519 -0.100466 0
M  V30 1785 H 172.049 1.755 -0.843071 0
M  V30 1786 H 170.22 3.84201 0.569548 0
M  V30 1787 H 171.952 4.02671 0.404711 0
M  V30 1788 H 168.707 4.46987 -1.56523 0
M  V30 1789 H 169.131 5.47102 -3.98758 0
M  V30 1790 H 173.773 3.94671 -1.51641 0
M  V30 1791 H 171.491 5.9082 -5.51323 0
M  V30 1792 H 175.077 4.64976 -3.49698 0
M  V30 1793 H 173.957 5.61986 -5.46939 0
M  V30 1794 N 171.46 0.379036 1.52974 0
M  V30 1795 C 172.39 -0.452706 2.29069 0
M  V30 1796 C 173.371 -1.07237 1.32039 0
M  V30 1797 O 174.556 -1.08708 1.60923 0
M  V30 1798 C 171.686 -1.5856 3.08992 0
M  V30 1799 C 170.64 -1.0925 4.13822 0
M  V30 1800 C 169.966 -2.31668 4.81907 0
M  V30 1801 C 171.266 -0.167702 5.22031 0
M  V30 1802 H 172.96 0.182181 2.98845 0
M  V30 1803 H 170.506 0.0890592 1.43724 0
M  V30 1804 H 172.459 -2.1742 3.6098 0
M  V30 1805 H 171.183 -2.24792 2.36931 0
M  V30 1806 H 169.842 -0.526494 3.628 0
M  V30 1807 H 169.49 -2.96386 4.06404 0
M  V30 1808 H 169.19 -1.9934 5.52754 0
M  V30 1809 H 170.714 -2.91189 5.36695 0
M  V30 1810 H 172.128 -0.664186 5.6944 0
M  V30 1811 H 170.525 0.0653265 6.00064 0
M  V30 1812 H 171.595 0.786347 4.78482 0
M  V30 1813 N 172.938 -1.57226 0.108567 0
M  V30 1814 C 174.187 -1.94008 -0.551703 0
M  V30 1815 C 174.5 -0.993442 -1.68494 0
M  V30 1816 O 175.706 -1.25551 -2.40726 0
M  V30 1817 C 174.162 -3.44763 -1.03279 0
M  V30 1818 C 173.77 -4.47943 0.0714193 0
M  V30 1819 C 175.514 -3.90483 -1.66503 0
M  V30 1820 C 173.421 -5.89865 -0.425779 0
M  V30 1821 H 172.351 -0.724206 -0.209863 0
M  V30 1822 H 175.002 -1.82547 0.186741 0
M  V30 1823 H 173.384 -3.51422 -1.82533 0
M  V30 1824 H 174.558 -4.52942 0.847365 0
M  V30 1825 H 172.873 -4.11913 0.609669 0
M  V30 1826 H 175.47 -4.93925 -2.04798 0
M  V30 1827 H 175.813 -3.29877 -2.53942 0
M  V30 1828 H 176.346 -3.86581 -0.938074 0
M  V30 1829 H 173.085 -6.54202 0.412316 0
M  V30 1830 H 172.605 -5.88309 -1.16843 0
M  V30 1831 H 174.284 -6.40844 -0.890397 0
M  V30 1832 N 174.416 0.165178 -1.56732 0
M  V30 1833 C 175.379 1.18822 -1.95995 0
M  V30 1834 C 176.379 1.3685 -0.84431 0
M  V30 1835 O 177.569 1.34152 -1.11126 0
M  V30 1836 C 174.701 2.5521 -2.26011 0
M  V30 1837 H 175.894 0.851825 -2.87548 0
M  V30 1838 H 173.447 0.407857 -1.50885 0
M  V30 1839 H 174.182 2.93852 -1.37191 0
M  V30 1840 H 173.967 2.43489 -3.07336 0
M  V30 1841 H 175.457 3.28927 -2.57288 0
M  V30 1842 N 175.894 1.51508 0.433938 0
M  V30 1843 C 177.119 1.68443 1.21003 0
M  V30 1844 C 177.544 0.382636 1.84167 0
M  V30 1845 O 176.902 -0.65755 1.68956 0
M  V30 1846 C 176.95 2.80405 2.26727 0
M  V30 1847 O 176.054 2.44245 3.32292 0
M  V30 1848 H 175.395 0.561536 0.354363 0
M  V30 1849 H 177.925 1.9809 0.512024 0
M  V30 1850 H 177.935 3.0459 2.71457 0
M  V30 1851 H 176.61 3.74867 1.80132 0
M  V30 1852 H 175.187 2.30644 2.93015 0
M  V30 1853 N 177.372 -0.689602 1.41712 0
M  V30 1854 C 178.619 -1.44966 1.4139 0
M  V30 1855 C 178.947 -1.94484 0.025105 0
M  V30 1856 O 178.202 -1.70307 -0.964048 0
M  V30 1857 C 178.501 -2.67298 2.37247 0
M  V30 1858 C 178.167 -2.36405 3.83958 0
M  V30 1859 C 176.829 -2.27691 4.23923 0
M  V30 1860 C 179.181 -2.11043 4.76561 0
M  V30 1861 C 176.509 -1.91719 5.54492 0
M  V30 1862 C 178.861 -1.76578 6.07456 0
M  V30 1863 C 177.525 -1.66363 6.46436 0
M  V30 1864 H 176.795 -0.53047 0.517381 0
M  V30 1865 H 179.442 -0.787655 1.74552 0
M  V30 1866 H 177.747 -3.38461 1.9736 0
M  V30 1867 H 179.444 -3.25452 2.34269 0
M  V30 1868 H 176.034 -2.44085 3.52308 0
M  V30 1869 H 180.218 -2.16717 4.46483 0
M  V30 1870 H 175.474 -1.82367 5.83568 0
M  V30 1871 H 179.648 -1.55974 6.78708 0
M  V30 1872 H 177.275 -1.38258 7.47522 0
M  V30 1873 N 178.85 -1.27639 -0.924453 0
M  V30 1874 C 180.097 -1.14167 -1.67249 0
M  V30 1875 C 180.425 0.311863 -1.91984 0
M  V30 1876 O 179.68 1.24425 -1.51053 0
M  V30 1877 C 179.979 -1.87407 -3.04325 0
M  V30 1878 C 179.645 -3.37249 -2.99289 0
M  V30 1879 C 178.307 -3.7812 -2.97622 0
M  V30 1880 C 180.659 -4.32845 -2.90336 0
M  V30 1881 C 177.987 -5.12944 -2.8479 0
M  V30 1882 C 180.339 -5.6773 -2.79045 0
M  V30 1883 C 179.003 -6.07889 -2.7573 0
M  V30 1884 H 178.273 -0.417766 -0.612007 0
M  V30 1885 H 180.92 -1.58286 -1.07786 0
M  V30 1886 H 179.225 -1.35805 -3.67511 0
M  V30 1887 H 180.922 -1.74408 -3.61086 0
M  V30 1888 H 177.512 -3.04748 -3.01374 0
M  V30 1889 H 181.696 -4.02239 -2.90719 0
M  V30 1890 H 176.952 -5.432 -2.80612 0
M  V30 1891 H 181.126 -6.41472 -2.71083 0
M  V30 1892 H 178.753 -7.12314 -2.65544 0
M  V30 1893 N 180.328 1.1314 -1.09713 0
M  V30 1894 C 181.261 2.17735 -0.683137 0
M  V30 1895 C 182.239 1.59582 0.311841 0
M  V30 1896 O 183.423 1.87298 0.212514 0
M  V30 1897 C 180.55 3.38699 -0.00684324 0
M  V30 1898 C 179.596 4.1546 -0.964102 0
M  V30 1899 S 180.429 4.74733 -2.47767 0
M  V30 1900 C 181.585 5.9904 -1.81387 0
M  V30 1901 H 181.818 2.52515 -1.56918 0
M  V30 1902 H 179.351 1.24484 -0.913404 0
M  V30 1903 H 181.309 4.08765 0.377044 0
M  V30 1904 H 179.97 3.02214 0.85589 0
M  V30 1905 H 179.163 5.02093 -0.43803 0
M  V30 1906 H 178.765 3.51066 -1.28953 0
M  V30 1907 H 181.057 6.67846 -1.13967 0
M  V30 1908 H 182 6.56261 -2.65947 0
M  V30 1909 H 182.408 5.4976 -1.28155 0
M  V30 1910 N 181.806 0.884767 1.30421 0
M  V30 1911 C 183.053 0.503105 1.96151 0
M  V30 1912 C 183.381 -0.947676 1.69851 0
M  V30 1913 O 182.636 -1.68467 0.995861 0
M  V30 1914 C 182.935 0.724318 3.49983 0
M  V30 1915 C 182.601 2.15015 3.96332 0
M  V30 1916 C 181.263 2.54005 4.08699 0
M  V30 1917 C 183.615 3.07936 4.20505 0
M  V30 1918 C 180.943 3.85128 4.42599 0
M  V30 1919 C 183.295 4.3859 4.55874 0
M  V30 1920 C 181.959 4.77474 4.66449 0
M  V30 1921 H 181.229 0.184099 0.717766 0
M  V30 1922 H 183.876 1.12058 1.55291 0
M  V30 1923 H 182.181 0.0238086 3.91793 0
M  V30 1924 H 183.878 0.408617 3.98913 0
M  V30 1925 H 180.468 1.8375 3.87213 0
M  V30 1926 H 184.652 2.79033 4.10431 0
M  V30 1927 H 179.908 4.14996 4.48986 0
M  V30 1928 H 184.082 5.10629 4.7353 0
M  V30 1929 H 181.709 5.79115 4.92473 0
M  V30 1930 N 183.284 -1.43765 0.645699 0
M  V30 1931 C 184.53 -2.02197 0.156271 0
M  V30 1932 C 184.863 -1.50776 -1.22393 0
M  V30 1933 O 184.138 -0.697771 -1.81553 0
M  V30 1934 C 184.421 -3.59749 0.158872 0
M  V30 1935 C 184.274 -4.21419 1.57245 0
M  V30 1936 C 185.593 -4.37149 -0.50879 0
M  V30 1937 H 182.712 -0.734694 0.0582602 0
M  V30 1938 H 185.354 -1.71157 0.824951 0
M  V30 1939 H 183.504 -3.86325 -0.410525 0
M  V30 1940 H 185.176 -4.059 2.19186 0
M  V30 1941 H 183.419 -3.78356 2.122 0
M  V30 1942 H 184.09 -5.30482 1.52619 0
M  V30 1943 H 186.566 -4.16093 -0.024412 0
M  V30 1944 H 185.442 -5.4683 -0.476213 0
M  V30 1945 H 185.703 -4.12839 -1.58165 0
M  V30 1946 N 184.763 -0.387143 -1.52771 0
M  V30 1947 C 185.726 0.436939 -2.24997 0
M  V30 1948 C 186.726 0.991991 -1.26555 0
M  V30 1949 O 187.916 0.874335 -1.50669 0
M  V30 1950 C 185.048 1.61281 -3.00335 0
M  V30 1951 H 186.241 -0.195365 -2.99263 0
M  V30 1952 H 183.794 -0.139218 -1.55679 0
M  V30 1953 H 184.529 2.2826 -2.30364 0
M  V30 1954 H 184.314 1.22154 -3.72587 0
M  V30 1955 H 185.804 2.19629 -3.5518 0
M  V30 1956 N 186.241 1.57166 -0.116904 0
M  V30 1957 C 187.487 1.95412 0.542405 0
M  V30 1958 C 187.82 1.00019 1.66463 0
M  V30 1959 O 187.095 0.0370346 1.94465 0
M  V30 1960 C 187.378 3.43615 1.07708 0
M  V30 1961 C 187.231 4.49781 -0.0415868 0
M  V30 1962 C 188.55 3.93616 1.96861 0
M  V30 1963 H 185.669 0.710543 0.195696 0
M  V30 1964 H 188.311 1.89027 -0.192038 0
M  V30 1965 H 186.461 3.49187 1.70296 0
M  V30 1966 H 188.133 4.56308 -0.676793 0
M  V30 1967 H 186.376 4.28033 -0.705019 0
M  V30 1968 H 187.047 5.50733 0.373717 0
M  V30 1969 H 189.523 3.90335 1.44146 0
M  V30 1970 H 188.399 4.97838 2.3119 0
M  V30 1971 H 188.66 3.34188 2.89432 0
M  V30 1972 N 187.719 -0.156864 1.56817 0
M  V30 1973 C 188.965 -0.867645 1.83966 0
M  V30 1974 C 189.32 -1.79233 0.699511 0
M  V30 1975 O 188.613 -1.89186 -0.303176 0
M  V30 1976 C 188.807 -1.68737 3.1506 0
M  V30 1977 C 188.636 -0.843548 4.41718 0
M  V30 1978 C 187.406 -0.512994 5.02689 0
M  V30 1979 C 189.604 -0.178416 5.1399 0
M  V30 1980 N 187.586 0.345456 6.12927 0
M  V30 1981 C 188.957 0.540586 6.17639 0
M  V30 1982 C 191.012 -0.0980696 4.97803 0
M  V30 1983 C 189.715 1.33233 7.06853 0
M  V30 1984 C 191.741 0.680387 5.87473 0
M  V30 1985 C 191.103 1.3877 6.90596 0
M  V30 1986 H 187.202 -0.295642 0.723961 0
M  V30 1987 H 189.786 -0.13365 1.94241 0
M  V30 1988 H 187.957 -2.39268 3.0595 0
M  V30 1989 H 189.689 -2.34056 3.30151 0
M  V30 1990 H 186.444 -0.846476 4.65974 0
M  V30 1991 H 186.868 0.765415 6.72659 0
M  V30 1992 H 191.51 -0.630562 4.18071 0
M  V30 1993 H 189.228 1.87612 7.8602 0
M  V30 1994 H 192.814 0.744415 5.77018 0
M  V30 1995 H 191.694 1.9804 7.58782 0
M  V30 1996 N 189.197 -1.51736 -0.425897 0
M  V30 1997 C 190.422 -1.69082 -1.20108 0
M  V30 1998 C 190.847 -0.392398 -1.83962 0
M  V30 1999 O 190.205 0.64858 -1.69302 0
M  V30 2000 C 190.253 -2.81604 -2.25237 0
M  V30 2001 O 189.357 -2.46004 -3.30992 0
M  V30 2002 H 188.698 -0.563408 -0.35138 0
M  V30 2003 H 191.228 -1.98358 -0.501512 0
M  V30 2004 H 191.238 -3.06025 -2.69838 0
M  V30 2005 H 189.913 -3.75817 -1.78142 0
M  V30 2006 H 188.49 -2.32195 -2.91787 0
M  V30 2007 N 190.675 0.682077 -1.42076 0
M  V30 2008 C 191.921 1.44283 -1.43366 0
M  V30 2009 C 192.276 1.92344 -0.0465775 0
M  V30 2010 O 191.569 1.67517 0.929973 0
M  V30 2011 C 191.763 2.66036 -2.38662 0
M  V30 2012 C 191.592 2.29889 -3.86499 0
M  V30 2013 C 190.362 2.19599 -4.55087 0
M  V30 2014 C 192.56 1.91999 -4.77117 0
M  V30 2015 N 190.542 1.76478 -5.87987 0
M  V30 2016 C 191.913 1.59741 -5.99068 0
M  V30 2017 C 193.968 1.78927 -4.64639 0
M  V30 2018 C 192.671 1.15723 -7.0993 0
M  V30 2019 C 194.697 1.36314 -5.75476 0
M  V30 2020 C 194.059 1.04975 -6.96534 0
M  V30 2021 H 190.158 0.524739 -0.579805 0
M  V30 2022 H 192.742 0.787834 -1.78048 0
M  V30 2023 H 190.913 3.29237 -2.06053 0
M  V30 2024 H 192.645 3.32588 -2.30581 0
M  V30 2025 H 189.4 2.38433 -4.09202 0
M  V30 2026 H 189.824 1.57362 -6.58458 0
M  V30 2027 H 194.466 2.01805 -3.7153 0
M  V30 2028 H 192.184 0.91591 -8.02893 0
M  V30 2029 H 195.77 1.26731 -5.6783 0
M  V30 2030 H 194.65 0.725017 -7.80841 0
M  V30 2031 N 192.153 1.28127 0.917671 0
M  V30 2032 C 193.399 1.16232 1.66918 0
M  V30 2033 C 193.754 -0.28701 1.90247 0
M  V30 2034 O 193.047 -1.20586 1.48895 0
M  V30 2035 C 193.241 1.89018 3.03327 0
M  V30 2036 C 193.07 3.4088 2.9331 0
M  V30 2037 C 191.84 4.10214 2.95047 0
M  V30 2038 C 194.038 4.36689 2.71675 0
M  V30 2039 N 192.02 5.48571 2.75577 0
M  V30 2040 C 193.391 5.62382 2.6101 0
M  V30 2041 C 195.446 4.26661 2.56641 0
M  V30 2042 C 194.149 6.79189 2.36843 0
M  V30 2043 C 196.175 5.432 2.33853 0
M  V30 2044 C 195.537 6.67855 2.23939 0
M  V30 2045 H 191.636 0.48024 0.617166 0
M  V30 2046 H 194.22 1.61727 1.08409 0
M  V30 2047 H 192.391 1.45963 3.59929 0
M  V30 2048 H 194.123 1.69541 3.67475 0
M  V30 2049 H 190.878 3.61762 3.05655 0
M  V30 2050 H 191.302 6.21287 2.68945 0
M  V30 2051 H 195.944 3.30998 2.63059 0
M  V30 2052 H 193.662 7.74926 2.29164 0
M  V30 2053 H 197.248 5.37328 2.23091 0
M  V30 2054 H 196.128 7.56511 2.06546 0
M  V30 2055 N 193.631 -1.12557 1.10312 0
M  V30 2056 C 194.879 -1.83675 0.843091 0
M  V30 2057 C 195.2 -1.84435 -0.633131 0
M  V30 2058 O 194.47 -1.30657 -1.45964 0
M  V30 2059 H 193.05 -0.680138 0.308904 0
M  V30 2060 H 195.712 -1.36301 1.39313 0
M  V30 2061 H 194.808 -2.87908 1.2048 0
M  V30 2062 N 195.109 -0.891671 -1.2995 0
M  V30 2063 C 196.525 -0.58662 -1.48428 0
M  V30 2064 C 196.725 0.873951 -1.81561 0
M  V30 2065 O 195.781 1.65471 -1.90724 0
M  V30 2066 C 197.094 -1.50553 -2.60296 0
M  V30 2067 C 198.642 -1.50988 -2.74175 0
M  V30 2068 C 199.117 -2.41488 -3.89163 0
M  V30 2069 N 200.608 -2.39489 -3.96483 0
M  V30 2070 C 201.343 -3.06223 -4.84784 0
M  V30 2071 N 200.839 -3.82206 -5.77833 0
M  V30 2072 N 202.632 -2.95421 -4.78208 0
M  V30 2073 H 194.783 -1.83644 -1.06718 0
M  V30 2074 H 197.046 -0.786455 -0.529332 0
M  V30 2075 H 196.752 -2.54581 -2.42654 0
M  V30 2076 H 196.626 -1.22008 -3.56923 0
M  V30 2077 H 199.013 -0.47708 -2.91218 0
M  V30 2078 H 199.094 -1.83567 -1.78148 0
M  V30 2079 H 198.738 -3.44857 -3.72876 0
M  V30 2080 H 198.668 -2.06222 -4.84541 0
M  V30 2081 H 201.159 -1.84278 -3.29924 0
M  V30 2082 H 201.472 -4.302 -6.41988 0
M  V30 2083 H 199.817 -3.86313 -5.77743 0
M  V30 2084 H 203.008 -2.35581 -4.04499 0
M  V30 2085 H 203.181 -3.47704 -5.46814 0
M  V30 2086 N 196.587 1.43421 -0.653314 0
M  V30 2087 C 197.815 2.06163 -0.174491 0
M  V30 2088 C 198.23 1.48969 1.1599 0
M  V30 2089 O 197.587 0.621042 1.71608 0
M  V30 2090 C 197.638 3.61417 -0.0774865 0
M  V30 2091 O 197.359 4.16485 -1.35912 0
M  V30 2092 C 198.86 4.41235 0.427402 0
M  V30 2093 H 196.08 0.664946 -0.0899353 0
M  V30 2094 H 198.624 1.83924 -0.893988 0
M  V30 2095 H 196.779 3.82841 0.59257 0
M  V30 2096 H 197.193 5.10153 -1.21839 0
M  V30 2097 H 198.667 5.5021 0.44423 0
M  V30 2098 H 199.144 4.14268 1.45873 0
M  V30 2099 H 199.75 4.2478 -0.210167 0
M  V30 2100 N 198.065 0.39524 1.52563 0
M  V30 2101 C 199.295 -0.184675 2.05773 0
M  V30 2102 C 199.703 -1.40571 1.26635 0
M  V30 2103 O 199.046 -1.81105 0.30769 0
M  V30 2104 C 199.108 -0.613551 3.54226 0
M  V30 2105 C 198.772 0.49484 4.54313 0
M  V30 2106 C 199.769 1.3541 5.01956 0
M  V30 2107 C 197.454 0.663565 4.97898 0
M  V30 2108 C 199.448 2.36716 5.91814 0
M  V30 2109 C 197.135 1.67996 5.87555 0
M  V30 2110 C 198.133 2.53017 6.34406 0
M  V30 2111 O 197.821 3.52917 7.22291 0
M  V30 2112 H 197.553 -0.030077 0.675331 0
M  V30 2113 H 200.107 0.560708 1.97599 0
M  V30 2114 H 198.337 -1.411 3.60038 0
M  V30 2115 H 200.026 -1.11981 3.90148 0
M  V30 2116 H 200.792 1.23509 4.6901 0
M  V30 2117 H 196.671 0.0114913 4.60999 0
M  V30 2118 H 200.215 3.03113 6.28306 0
M  V30 2119 H 196.112 1.79933 6.19915 0
M  V30 2120 H 196.88 3.48996 7.40367 0
M  V30 2121 N 199.544 -1.57102 0.125237 0
M  V30 2122 C 200.474 -2.18659 -0.819174 0
M  V30 2123 C 201.455 -1.12843 -1.27281 0
M  V30 2124 O 202.64 -1.41104 -1.33429 0
M  V30 2125 C 199.77 -2.79096 -2.06695 0
M  V30 2126 C 198.724 -3.90548 -1.75088 0
M  V30 2127 C 198.05 -4.37821 -3.06948 0
M  V30 2128 C 199.35 -5.12356 -1.01435 0
M  V30 2129 H 201.044 -2.9783 -0.306202 0
M  V30 2130 H 198.59 -1.4326 -0.145839 0
M  V30 2131 H 200.543 -3.2082 -2.73226 0
M  V30 2132 H 199.267 -1.97223 -2.60328 0
M  V30 2133 H 197.926 -3.49409 -1.10944 0
M  V30 2134 H 197.574 -3.52799 -3.58527 0
M  V30 2135 H 197.274 -5.12982 -2.86571 0
M  V30 2136 H 198.798 -4.822 -3.74587 0
M  V30 2137 H 200.212 -5.5106 -1.58132 0
M  V30 2138 H 198.609 -5.9314 -0.911319 0
M  V30 2139 H 199.679 -4.849 -0.00218681 0
M  V30 2140 N 201.022 0.148545 -1.56898 0
M  V30 2141 C 202.438 0.501131 -1.51528 0
M  V30 2142 C 202.638 1.83458 -0.833399 0
M  V30 2143 O 201.694 2.49259 -0.40328 0
M  V30 2144 C 203.007 0.512864 -2.96294 0
M  V30 2145 C 204.555 0.598487 -3.07225 0
M  V30 2146 C 205.03 0.640897 -4.53494 0
M  V30 2147 N 206.521 0.703163 -4.57832 0
M  V30 2148 C 207.256 0.756935 -5.68382 0
M  V30 2149 N 206.752 0.770147 -6.88506 0
M  V30 2150 N 208.545 0.797698 -5.56411 0
M  V30 2151 H 200.696 -0.725532 -1.99624 0
M  V30 2152 H 202.959 -0.264358 -0.910395 0
M  V30 2153 H 202.665 -0.398691 -3.49433 0
M  V30 2154 H 202.539 1.35133 -3.52163 0
M  V30 2155 H 204.926 1.50046 -2.54106 0
M  V30 2156 H 205.007 -0.267093 -2.54402 0
M  V30 2157 H 204.651 -0.256915 -5.0725 0
M  V30 2158 H 204.581 1.52295 -5.04097 0
M  V30 2159 H 207.072 0.700314 -3.71354 0
M  V30 2160 H 207.385 0.812983 -7.68512 0
M  V30 2161 H 205.73 0.738049 -6.9107 0
M  V30 2162 H 208.921 0.784535 -4.61479 0
M  V30 2163 H 209.094 0.83614 -6.42583 0
M  V30 2164 N 202.5 1.5196 0.417844 0
M  V30 2165 C 203.463 1.74065 1.49111 0
M  V30 2166 C 204.463 0.610537 1.48758 0
M  V30 2167 O 205.653 0.87832 1.50437 0
M  V30 2168 C 202.785 1.81502 2.88565 0
M  V30 2169 H 203.978 2.69869 1.30807 0
M  V30 2170 H 201.531 1.42244 0.647785 0
M  V30 2171 H 202.266 0.875813 3.1225 0
M  V30 2172 H 202.051 2.63651 2.90225 0
M  V30 2173 H 203.541 2.00376 3.66387 0
M  V30 2174 N 203.978 -0.674533 1.42435 0
M  V30 2175 C 204.91 -1.80005 1.41883 0
M  V30 2176 C 205.923 -1.59667 0.31787 0
M  V30 2177 O 207.112 -1.68781 0.580973 0
M  V30 2178 C 204.212 -3.17114 1.19549 0
M  V30 2179 C 203.385 -3.64299 2.42084 0
M  V30 2180 C 202.444 -4.80142 2.15291 0
M  V30 2181 O 201.47 -4.90673 2.88493 0
M  V30 2182 N 202.672 -5.68869 1.1562 0
M  V30 2183 H 205.437 -1.80964 2.38898 0
M  V30 2184 H 202.998 -0.857633 1.37318 0
M  V30 2185 H 204.99 -3.92267 0.995417 0
M  V30 2186 H 203.56 -3.11053 0.310569 0
M  V30 2187 H 202.78 -2.79822 2.77657 0
M  V30 2188 H 204.068 -3.92567 3.23679 0
M  V30 2189 H 203.466 -5.63012 0.550765 0
M  V30 2190 H 202.023 -6.43833 1.016 0
M  V30 2191 N 205.456 -1.28612 -0.910864 0
M  V30 2192 C 206.419 -1.12803 -1.9952 0
M  V30 2193 C 207.419 -0.0668264 -1.60661 0
M  V30 2194 O 208.609 -0.312847 -1.71368 0
M  V30 2195 C 205.741 -0.72254 -3.33155 0
M  V30 2196 H 206.934 -2.09109 -2.14973 0
M  V30 2197 H 204.487 -1.11639 -1.09391 0
M  V30 2198 H 205.222 0.241152 -3.23402 0
M  V30 2199 H 205.007 -1.48916 -3.62721 0
M  V30 2200 H 206.497 -0.634666 -4.12749 0
M  V30 2201 N 206.934 1.1197 -1.10907 0
M  V30 2202 C 207.864 2.19928 -0.784473 0
M  V30 2203 C 208.845 1.6833 0.244726 0
M  V30 2204 O 210.03 1.93892 0.109418 0
M  V30 2205 C 207.16 3.46597 -0.220827 0
M  V30 2206 C 206.114 4.11376 -1.18127 0
M  V30 2207 C 205.44 5.32554 -0.478594 0
M  V30 2208 C 206.74 4.56945 -2.52979 0
M  V30 2209 H 208.434 2.47337 -1.68715 0
M  V30 2210 H 205.98 1.18879 -0.812642 0
M  V30 2211 H 207.933 4.21396 0.0184278 0
M  V30 2212 H 206.657 3.1863 0.717113 0
M  V30 2213 H 205.316 3.38564 -1.40606 0
M  V30 2214 H 204.964 5.00856 0.463976 0
M  V30 2215 H 204.664 5.76844 -1.11912 0
M  V30 2216 H 206.188 6.10096 -0.248 0
M  V30 2217 H 207.602 5.23093 -2.3462 0
M  V30 2218 H 205.999 5.1203 -3.12962 0
M  V30 2219 H 207.069 3.70676 -3.12614 0
M  V30 2220 N 208.412 0.89855 1.29475 0
M  V30 2221 C 209.66 0.522847 1.9522 0
M  V30 2222 C 209.981 -0.93371 1.71192 0
M  V30 2223 O 209.251 -1.65823 1.04305 0
M  V30 2224 H 207.831 0.190366 0.722336 0
M  V30 2225 H 210.493 1.14459 1.5775 0
M  V30 2226 H 209.589 0.704476 3.04045 0
M  V30 2227 N 209.89 -1.43072 0.660911 0
M  V30 2228 C 210.823 -2.28074 -0.0758862 0
M  V30 2229 C 211.801 -1.40271 -0.822362 0
M  V30 2230 O 212.985 -1.69713 -0.820352 0
M  V30 2231 C 210.112 -3.19843 -1.11437 0
M  V30 2232 C 209.158 -4.23957 -0.465069 0
M  V30 2233 S 209.991 -5.29978 0.767078 0
M  V30 2234 C 211.147 -6.25314 -0.270682 0
M  V30 2235 H 211.38 -2.90216 0.645139 0
M  V30 2236 H 208.913 -1.47697 0.449995 0
M  V30 2237 H 210.871 -3.73257 -1.70849 0
M  V30 2238 H 209.532 -2.56863 -1.80776 0
M  V30 2239 H 208.725 -4.88299 -1.24819 0
M  V30 2240 H 208.327 -3.73959 0.0551242 0
M  V30 2241 H 210.619 -6.67932 -1.13459 0
M  V30 2242 H 211.562 -7.07293 0.337916 0
M  V30 2243 H 211.97 -5.61195 -0.609937 0
M  V30 2244 N 211.368 -0.403325 -1.52352 0
M  V30 2245 C 212.616 0.174003 -2.0135 0
M  V30 2246 C 212.937 1.46139 -1.29106 0
M  V30 2247 O 212.207 1.91448 -0.415253 0
M  V30 2248 H 210.787 0.0672911 -0.743963 0
M  V30 2249 H 213.449 -0.538235 -1.87321 0
M  V30 2250 H 212.545 0.374254 -3.09848 0
M  V30 2251 N 212.846 1.57033 -0.133567 0
M  V30 2252 C 213.793 2.16074 0.811208 0
M  V30 2253 C 214.763 1.08979 1.2535 0
M  V30 2254 O 215.948 1.36958 1.32843 0
M  V30 2255 C 213.088 2.77595 2.05024 0
M  V30 2256 C 212.201 3.99042 1.65498 0
M  V30 2257 C 211.336 4.48603 2.84479 0
M  V30 2258 C 210.375 5.62547 2.41262 0
M  V30 2259 N 209.512 6.06787 3.53206 0
M  V30 2260 H 214.352 2.96477 0.300906 0
M  V30 2261 H 211.889 1.46462 0.136822 0
M  V30 2262 H 213.847 3.11402 2.77642 0
M  V30 2263 H 212.477 1.99859 2.53488 0
M  V30 2264 H 211.529 3.71302 0.826981 0
M  V30 2265 H 212.841 4.81629 1.29748 0
M  V30 2266 H 211.995 4.84395 3.65303 0
M  V30 2267 H 210.734 3.64995 3.23465 0
M  V30 2268 H 209.739 5.26345 1.58874 0
M  V30 2269 H 210.964 6.47931 2.03377 0
M  V30 2270 H 208.91 5.26117 3.91838 0
M  V30 2271 H 208.827 6.84266 3.21427 0
M  V30 2272 H 210.095 6.4722 4.34427 0
M  V30 2273 N 214.325 -0.140222 1.56975 0
M  V30 2274 C 215.275 -1.17827 1.95194 0
M  V30 2275 C 216.259 -1.38195 0.824075 0
M  V30 2276 O 217.451 -1.39643 1.0876 0
M  V30 2277 C 214.58 -2.51024 2.34184 0
M  V30 2278 C 213.666 -2.3422 3.53556 0
M  V30 2279 N 214.057 -1.87185 4.69889 0
M  V30 2280 C 212.355 -2.64949 3.58773 0
M  V30 2281 C 213.056 -1.83586 5.5197 0
M  V30 2282 N 212.032 -2.2715 4.93866 0
M  V30 2283 H 215.834 -0.806817 2.82609 0
M  V30 2284 H 213.348 -0.348208 1.58623 0
M  V30 2285 H 215.345 -3.26074 2.59772 0
M  V30 2286 H 214.005 -2.88945 1.48124 0
M  V30 2287 H 215.016 -1.57048 4.93514 0
M  V30 2288 H 211.693 -3.067 2.8327 0
M  V30 2289 H 213.083 -1.48655 6.55249 0
M  V30 2290 N 215.803 -1.52179 -0.40978 0
M  V30 2291 C 217.031 -1.70054 -1.17853 0
M  V30 2292 C 217.446 -0.409735 -1.843 0
M  V30 2293 O 216.803 0.614183 -1.71855 0
M  V30 2294 C 216.854 -2.83568 -2.24213 0
M  V30 2295 O 216.575 -4.0765 -1.60478 0
M  V30 2296 C 218.076 -3.12947 -3.13973 0
M  V30 2297 H 215.296 -0.569917 -0.354169 0
M  V30 2298 H 217.84 -1.98734 -0.482198 0
M  V30 2299 H 215.995 -2.57409 -2.89516 0
M  V30 2300 H 216.409 -4.70899 -2.30986 0
M  V30 2301 H 217.883 -3.95889 -3.84677 0
M  V30 2302 H 218.36 -2.26472 -3.76307 0
M  V30 2303 H 218.966 -3.40868 -2.5434 0
M  V30 2304 N 217.281 0.66697 -1.42791 0
M  V30 2305 C 218.244 1.76211 -1.46568 0
M  V30 2306 C 219.244 1.56896 -0.352196 0
M  V30 2307 O 220.434 1.63044 -0.613364 0
M  V30 2308 C 217.566 3.14935 -1.30494 0
M  V30 2309 H 218.759 1.74247 -2.44086 0
M  V30 2310 H 216.312 0.877342 -1.29354 0
M  V30 2311 H 217.047 3.2252 -0.339301 0
M  V30 2312 H 216.832 3.30359 -2.11199 0
M  V30 2313 H 218.322 3.94821 -1.36038 0
M  V30 2314 N 218.759 1.29093 0.90403 0
M  V30 2315 C 220.005 1.17996 1.65676 0
M  V30 2316 C 220.36 -0.266816 1.90541 0
M  V30 2317 O 219.653 -1.19 1.50165 0
M  V30 2318 C 219.847 1.92224 3.01305 0
M  V30 2319 C 219.676 3.43972 2.89678 0
M  V30 2320 C 218.446 4.1332 2.90679 0
M  V30 2321 C 220.644 4.39546 2.67028 0
M  V30 2322 N 218.626 5.51463 2.69743 0
M  V30 2323 C 219.997 5.65119 2.5503 0
M  V30 2324 C 222.052 4.29359 2.52101 0
M  V30 2325 C 220.755 6.81663 2.29626 0
M  V30 2326 C 222.781 5.4565 2.28079 0
M  V30 2327 C 222.143 6.70193 2.16843 0
M  V30 2328 H 218.242 0.486759 0.612037 0
M  V30 2329 H 220.826 1.62868 1.06688 0
M  V30 2330 H 218.997 1.49773 3.58361 0
M  V30 2331 H 220.729 1.73429 3.65656 0
M  V30 2332 H 217.484 3.64984 3.01801 0
M  V30 2333 H 217.908 6.24105 2.6234 0
M  V30 2334 H 222.55 3.33769 2.59534 0
M  V30 2335 H 220.268 7.77313 2.20932 0
M  V30 2336 H 223.854 5.39664 2.1738 0
M  V30 2337 H 222.734 7.58659 1.98511 0
M  V30 2338 N 220.237 -1.11381 1.11499 0
M  V30 2339 C 221.2 -2.15622 0.777153 0
M  V30 2340 C 222.2 -1.59504 -0.203779 0
M  V30 2341 O 223.39 -1.74188 0.020782 0
M  V30 2342 C 220.522 -3.40556 0.153116 0
M  V30 2343 H 221.715 -2.47021 1.70061 0
M  V30 2344 H 219.268 -1.26577 0.916952 0
M  V30 2345 H 220.003 -3.14767 -0.780536 0
M  V30 2346 H 219.788 -3.8257 0.859238 0
M  V30 2347 H 221.278 -4.17546 -0.0671044 0
M  V30 2348 N 221.715 -0.905404 -1.28997 0
M  V30 2349 C 222.962 -0.534248 -1.95325 0
M  V30 2350 C 223.29 0.920535 -1.71337 0
M  V30 2351 O 222.545 1.66861 -1.02254 0
M  V30 2352 C 222.844 -0.779906 -3.48787 0
M  V30 2353 C 222.51 -2.21293 -3.92861 0
M  V30 2354 C 221.172 -2.60475 -4.04606 0
M  V30 2355 C 223.524 -3.14587 -4.15553 0
M  V30 2356 C 220.852 -3.9212 -4.36416 0
M  V30 2357 C 223.204 -4.45787 -4.48839 0
M  V30 2358 C 221.868 -4.84834 -4.58794 0
M  V30 2359 H 221.138 -0.195495 -0.714747 0
M  V30 2360 H 223.785 -1.14514 -1.53488 0
M  V30 2361 H 222.09 -0.0861365 -3.91705 0
M  V30 2362 H 223.787 -0.472029 -3.98212 0
M  V30 2363 H 220.377 -1.89887 -3.84241 0
M  V30 2364 H 224.561 -2.85528 -4.0594 0
M  V30 2365 H 219.817 -4.22086 -4.42327 0
M  V30 2366 H 223.991 -5.18098 -4.65346 0
M  V30 2367 H 221.618 -5.86877 -4.83197 0
M  V30 2368 N 223.193 1.4272 -0.668489 0
M  V30 2369 C 224.123 2.335 -0.000100175 0
M  V30 2370 C 225.104 1.50328 0.795964 0
M  V30 2371 O 226.289 1.78949 0.754385 0
M  V30 2372 C 223.419 3.33874 0.956302 0
M  V30 2373 C 222.373 4.27152 0.269278 0
M  V30 2374 C 221.699 5.17684 1.33818 0
M  V30 2375 C 222.999 5.15373 -0.847805 0
M  V30 2376 H 224.693 2.89639 -0.758244 0
M  V30 2377 H 222.239 1.39269 -0.366079 0
M  V30 2378 H 224.192 3.9629 1.43292 0
M  V30 2379 H 222.916 2.76025 1.74579 0
M  V30 2380 H 221.575 3.66123 -0.187042 0
M  V30 2381 H 221.223 4.56165 2.1195 0
M  V30 2382 H 220.923 5.80918 0.883659 0
M  V30 2383 H 222.447 5.82974 1.81586 0
M  V30 2384 H 223.861 5.7151 -0.452681 0
M  V30 2385 H 222.258 5.87407 -1.22773 0
M  V30 2386 H 223.328 4.5415 -1.69929 0
M  V30 2387 N 224.671 0.411399 1.52136 0
M  V30 2388 C 225.896 -0.165538 2.06738 0
M  V30 2389 C 226.321 -1.379 1.27926 0
M  V30 2390 O 225.679 -1.78628 0.310114 0
M  V30 2391 C 225.727 -0.492124 3.57226 0
M  V30 2392 O 224.831 -1.58276 3.80818 0
M  V30 2393 H 224.172 -0.0132132 0.663869 0
M  V30 2394 H 226.702 0.585253 1.96051 0
M  V30 2395 H 226.712 -0.750104 4.01045 0
M  V30 2396 H 225.387 0.394922 4.14021 0
M  V30 2397 H 223.964 -1.31677 3.48877 0
M  V30 2398 N 226.149 -1.5696 0.141893 0
M  V30 2399 C 227.112 -2.15316 -0.785587 0
M  V30 2400 C 228.112 -1.09366 -1.1788 0
M  V30 2401 O 229.302 -1.35031 -1.10056 0
M  V30 2402 C 226.434 -2.71211 -2.06537 0
M  V30 2403 H 227.627 -2.98608 -0.278041 0
M  V30 2404 H 225.18 -1.5593 -0.107519 0
M  V30 2405 H 225.915 -1.91571 -2.6167 0
M  V30 2406 H 225.7 -3.4872 -1.79268 0
M  V30 2407 H 227.19 -3.16189 -2.72789 0
M  V30 2408 N 227.627 0.131896 -1.57047 0
M  V30 2409 C 228.876 0.84044 -1.83356 0
M  V30 2410 C 229.189 1.81646 -0.725535 0
M  V30 2411 O 230.395 2.57025 -0.874659 0
M  V30 2412 C 228.851 1.54528 -3.25037 0
M  V30 2413 C 228.459 0.610902 -4.43815 0
M  V30 2414 C 230.203 2.23972 -3.60606 0
M  V30 2415 C 228.11 1.31823 -5.76521 0
M  V30 2416 H 227.04 0.317599 -0.683847 0
M  V30 2417 H 229.691 0.0931561 -1.83263 0
M  V30 2418 H 228.073 2.33873 -3.19561 0
M  V30 2419 H 229.247 -0.148407 -4.60561 0
M  V30 2420 H 227.562 0.0241016 -4.16393 0
M  V30 2421 H 230.159 2.77558 -4.57018 0
M  V30 2422 H 230.502 3.01173 -2.87403 0
M  V30 2423 H 231.035 1.51529 -3.6781 0
M  V30 2424 H 227.774 0.587771 -6.52859 0
M  V30 2425 H 227.294 2.04987 -5.63685 0
M  V30 2426 H 228.973 1.855 -6.19838 0
M  V30 2427 N 229.106 1.52395 0.401703 0
M  V30 2428 C 230.352 1.68019 1.14635 0
M  V30 2429 C 230.707 0.408722 1.88009 0
M  V30 2430 O 230 -0.597133 1.82057 0
M  V30 2431 C 230.194 2.84578 2.16217 0
M  V30 2432 C 230.023 4.22938 1.5282 0
M  V30 2433 C 228.793 4.88352 1.29772 0
M  V30 2434 C 230.991 5.04778 0.985094 0
M  V30 2435 N 228.973 6.10726 0.623455 0
M  V30 2436 C 230.344 6.1845 0.438172 0
M  V30 2437 C 232.399 4.90057 0.880275 0
M  V30 2438 C 231.102 7.19013 -0.203306 0
M  V30 2439 C 233.128 5.9086 0.252639 0
M  V30 2440 C 232.49 7.03829 -0.283573 0
M  V30 2441 H 228.589 0.668413 0.405892 0
M  V30 2442 H 231.173 1.89717 0.437674 0
M  V30 2443 H 229.344 2.64483 2.84435 0
M  V30 2444 H 231.076 2.89202 2.83098 0
M  V30 2445 H 227.831 4.46846 1.56926 0
M  V30 2446 H 228.255 6.76323 0.302733 0
M  V30 2447 H 232.897 4.02938 1.28065 0
M  V30 2448 H 230.615 8.05751 -0.615726 0
M  V30 2449 H 234.201 5.81543 0.172954 0
M  V30 2450 H 233.081 7.80493 -0.761575 0
M  V30 2451 N 230.584 -0.659388 1.43143 0
M  V30 2452 C 231.514 -1.78422 1.50625 0
M  V30 2453 C 232.495 -1.66216 0.361443 0
M  V30 2454 O 233.68 -1.85404 0.577834 0
M  V30 2455 C 230.81 -3.16815 1.42287 0
M  V30 2456 C 229.764 -3.43777 2.54954 0
M  V30 2457 C 229.09 -4.81905 2.31671 0
M  V30 2458 C 230.39 -3.39134 3.97222 0
M  V30 2459 H 232.084 -1.72417 2.44771 0
M  V30 2460 H 229.63 -0.828084 1.17808 0
M  V30 2461 H 231.583 -3.95253 1.46127 0
M  V30 2462 H 230.307 -3.23534 0.446435 0
M  V30 2463 H 228.966 -2.67707 2.50457 0
M  V30 2464 H 228.614 -4.85294 1.32284 0
M  V30 2465 H 228.314 -5.00906 3.07192 0
M  V30 2466 H 229.838 -5.62609 2.37284 0
M  V30 2467 H 231.252 -4.07518 4.03239 0
M  V30 2468 H 229.649 -3.69671 4.72719 0
M  V30 2469 H 230.719 -2.37426 4.22797 0
M  V30 2470 N 232.062 -1.29571 -0.897171 0
M  V30 2471 C 233.308 -1.18873 -1.65048 0
M  V30 2472 C 233.663 0.256707 -1.9068 0
M  V30 2473 O 232.956 1.18202 -1.50794 0
M  V30 2474 C 233.15 -1.9382 -3.00281 0
M  V30 2475 C 232.979 -3.45503 -2.8785 0
M  V30 2476 C 231.749 -4.14856 -2.88483 0
M  V30 2477 C 233.947 -4.40956 -2.64693 0
M  V30 2478 N 231.929 -5.52886 -2.66815 0
M  V30 2479 C 233.3 -5.66464 -2.5203 0
M  V30 2480 C 235.355 -4.3069 -2.49821 0
M  V30 2481 C 234.058 -6.82871 -2.26008 0
M  V30 2482 C 236.084 -5.46852 -2.25182 0
M  V30 2483 C 235.446 -6.71333 -2.13286 0
M  V30 2484 H 231.545 -0.489998 -0.609447 0
M  V30 2485 H 234.129 -1.63431 -1.05822 0
M  V30 2486 H 232.3 -1.51671 -3.57562 0
M  V30 2487 H 234.032 -1.75366 -3.64731 0
M  V30 2488 H 230.787 -3.66579 -2.99861 0
M  V30 2489 H 231.211 -6.25487 -2.59027 0
M  V30 2490 H 235.853 -3.35141 -2.5776 0
M  V30 2491 H 233.571 -7.78473 -2.16806 0
M  V30 2492 H 237.157 -5.40809 -2.14515 0
M  V30 2493 H 236.037 -7.59701 -1.94485 0
M  V30 2494 N 233.54 1.10788 -1.12088 0
M  V30 2495 C 234.473 2.16237 -0.729168 0
M  V30 2496 C 235.451 1.60207 0.277921 0
M  V30 2497 O 236.635 1.87707 0.172737 0
M  V30 2498 C 233.762 3.38609 -0.0786848 0
M  V30 2499 C 232.808 4.13322 -1.05201 0
M  V30 2500 S 233.641 4.69371 -2.57781 0
M  V30 2501 C 234.797 5.95058 -1.94053 0
M  V30 2502 H 235.03 2.4913 -1.62239 0
M  V30 2503 H 232.563 1.22519 -0.939603 0
M  V30 2504 H 234.521 4.09473 0.290254 0
M  V30 2505 H 233.182 3.03962 0.791593 0
M  V30 2506 H 232.375 5.01051 -0.544433 0
M  V30 2507 H 231.977 3.48251 -1.36371 0
M  V30 2508 H 234.269 6.65278 -1.28107 0
M  V30 2509 H 235.212 6.50472 -2.79807 0
M  V30 2510 H 235.62 5.46918 -1.39787 0
M  V30 2511 N 235.018 0.912232 1.28515 0
M  V30 2512 C 236.264 0.545405 1.95328 0
M  V30 2513 C 236.597 -0.908313 1.71649 0
M  V30 2514 O 235.872 -1.64575 1.03659 0
M  V30 2515 C 236.155 0.853483 3.4984 0
M  V30 2516 C 236.008 2.35982 3.82926 0
M  V30 2517 C 237.327 0.348589 4.38717 0
M  V30 2518 H 234.446 0.199626 0.709449 0
M  V30 2519 H 237.088 1.1412 1.5191 0
M  V30 2520 H 235.238 0.34643 3.86952 0
M  V30 2521 H 236.91 2.93738 3.55691 0
M  V30 2522 H 235.153 2.81543 3.30024 0
M  V30 2523 H 235.824 2.52593 4.90816 0
M  V30 2524 H 238.3 0.78294 4.08668 0
M  V30 2525 H 237.176 0.593242 5.45685 0
M  V30 2526 H 237.437 -0.751049 4.35674 0
M  V30 2527 N 236.496 -1.42363 0.676048 0
M  V30 2528 C 237.426 -2.33497 0.0124832 0
M  V30 2529 C 238.407 -1.50748 -0.787981 0
M  V30 2530 O 239.592 -1.79346 -0.744884 0
M  V30 2531 C 236.722 -3.34377 -0.938582 0
M  V30 2532 C 235.676 -4.27289 -0.246622 0
M  V30 2533 C 235.002 -5.18386 -1.31071 0
M  V30 2534 C 236.302 -5.14916 0.875125 0
M  V30 2535 H 237.996 -2.89233 0.773593 0
M  V30 2536 H 235.542 -1.39073 0.37346 0
M  V30 2537 H 237.495 -3.97044 -1.41188 0
M  V30 2538 H 236.219 -2.76947 -1.73113 0
M  V30 2539 H 234.878 -3.66018 0.206456 0
M  V30 2540 H 234.526 -4.57282 -2.09528 0
M  V30 2541 H 234.226 -5.81378 -0.852839 0
M  V30 2542 H 235.75 -5.83929 -1.78492 0
M  V30 2543 H 237.164 -5.71262 0.482983 0
M  V30 2544 H 235.561 -5.86747 1.25887 0
M  V30 2545 H 236.631 -4.53242 1.72335 0
M  V30 2546 N 237.974 -0.419461 -1.51915 0
M  V30 2547 C 239.222 0.152637 -2.01523 0
M  V30 2548 C 239.543 1.44762 -1.30649 0
M  V30 2549 O 238.813 1.90997 -0.435535 0
M  V30 2550 H 237.393 0.0593966 -0.744635 0
M  V30 2551 H 240.055 -0.558073 -1.86739 0
M  V30 2552 H 239.151 0.341369 -3.10227 0
M  V30 2553 N 239.452 1.56882 -0.150215 0
M  V30 2554 C 240.699 1.96228 0.500093 0
M  V30 2555 C 241.027 1.03522 1.64661 0
M  V30 2556 O 240.282 0.0650683 1.95592 0
M  V30 2557 C 240.581 3.41801 1.04437 0
M  V30 2558 C 240.247 4.50897 0.0159671 0
M  V30 2559 C 238.909 4.8046 -0.266731 0
M  V30 2560 C 241.261 5.16703 -0.683192 0
M  V30 2561 C 238.589 5.73135 -1.25434 0
M  V30 2562 C 240.941 6.10441 -1.65964 0
M  V30 2563 C 239.605 6.38382 -1.95 0
M  V30 2564 H 238.875 0.718048 0.182997 0
M  V30 2565 H 241.522 1.90019 -0.237724 0
M  V30 2566 H 239.827 3.44857 1.85959 0
M  V30 2567 H 241.524 3.69573 1.55618 0
M  V30 2568 H 238.114 4.27891 0.246485 0
M  V30 2569 H 242.298 4.93993 -0.477983 0
M  V30 2570 H 237.554 5.93074 -1.48571 0
M  V30 2571 H 241.728 6.60507 -2.20689 0
M  V30 2572 H 239.355 7.09996 -2.71679 0
M  V30 2573 N 240.93 -0.123565 1.57115 0
M  V30 2574 C 242.179 -0.830704 1.83799 0
M  V30 2575 C 242.492 -1.81259 0.735158 0
M  V30 2576 O 243.698 -2.56558 0.888278 0
M  V30 2577 C 242.154 -1.52802 3.25852 0
M  V30 2578 C 241.762 -0.587356 4.44133 0
M  V30 2579 C 243.506 -2.22056 3.61789 0
M  V30 2580 C 241.413 -1.28764 5.77212 0
M  V30 2581 H 240.343 -0.313967 0.685522 0
M  V30 2582 H 242.994 -0.0834359 1.8331 0
M  V30 2583 H 241.376 -2.32175 3.20797 0
M  V30 2584 H 242.55 0.172829 4.60476 0
M  V30 2585 H 240.865 -0.00201892 4.164 0
M  V30 2586 H 243.462 -2.75131 4.58483 0
M  V30 2587 H 243.805 -2.99644 2.88997 0
M  V30 2588 H 244.338 -1.49576 3.68608 0
M  V30 2589 H 241.077 -0.55314 6.53162 0
M  V30 2590 H 240.597 -2.01995 5.64764 0
M  V30 2591 H 242.276 -1.8221 6.20813 0
M  V30 2592 N 242.408 -1.52605 -0.393616 0
M  V30 2593 C 243.824 -1.41753 -0.733357 0
M  V30 2594 C 244.024 -0.534293 -1.94287 0
M  V30 2595 O 243.08 -0.0059787 -2.52499 0
M  V30 2596 C 244.393 -2.84531 -0.972772 0
M  V30 2597 C 245.941 -2.93978 -1.07453 0
M  V30 2598 C 246.416 -4.37756 -1.3466 0
M  V30 2599 N 247.907 -4.4106 -1.41492 0
M  V30 2600 C 248.642 -5.49387 -1.642 0
M  V30 2601 N 248.138 -6.67806 -1.8441 0
M  V30 2602 N 249.931 -5.36923 -1.66342 0
M  V30 2603 H 242.082 -2.08555 0.402328 0
M  V30 2604 H 244.345 -0.940654 0.117789 0
M  V30 2605 H 244.051 -3.51353 -0.156204 0
M  V30 2606 H 243.925 -3.26508 -1.88871 0
M  V30 2607 H 246.312 -2.27326 -1.88167 0
M  V30 2608 H 246.393 -2.55435 -0.136605 0
M  V30 2609 H 246.037 -5.04972 -0.544581 0
M  V30 2610 H 245.967 -4.73848 -2.2973 0
M  V30 2611 H 248.458 -3.55705 -1.27601 0
M  V30 2612 H 248.771 -7.46141 -2.01231 0
M  V30 2613 H 247.116 -6.70843 -1.81644 0
M  V30 2614 H 250.307 -4.43381 -1.50102 0
M  V30 2615 H 250.48 -6.21416 -1.837 0
M  V30 2616 N 243.887 0.651787 -1.4349 0
M  V30 2617 C 245.298 1.233 -1.40193 0
M  V30 2618 C 245.649 1.9591 -0.106727 0
M  V30 2619 O 244.774 2.01316 0.793773 0
M  V30 2620 C 245.369 2.24257 -2.53957 0
M  V30 2621 C 243.928 2.77852 -2.5392 0
M  V30 2622 C 243.075 1.52517 -2.3159 0
M  V30 2623 H 246.026 0.443717 -1.52371 0
M  V30 2624 H 246.047 3.0646 -2.25528 0
M  V30 2625 H 245.559 1.71382 -3.4821 0
M  V30 2626 H 243.66 3.34786 -1.63551 0
M  V30 2627 H 243.773 3.25299 -3.51735 0
M  V30 2628 H 242.137 1.79915 -1.80285 0
M  V30 2629 H 242.92 1.01574 -3.27929 0
M  V30 2630 N 245.365 1.30045 0.890287 0
M  V30 2631 C 246.614 1.17929 1.63633 0
M  V30 2632 C 246.927 -0.266204 1.9378 0
M  V30 2633 O 248.133 -0.508804 2.6669 0
M  V30 2634 C 246.589 2.06317 2.94892 0
M  V30 2635 C 246.197 3.55745 2.72305 0
M  V30 2636 C 247.941 2.0295 3.72843 0
M  V30 2637 C 245.848 4.36205 3.99348 0
M  V30 2638 H 244.778 0.437782 0.613892 0
M  V30 2639 H 247.429 1.54754 0.986075 0
M  V30 2640 H 245.811 1.6237 3.61182 0
M  V30 2641 H 246.985 4.07805 2.1455 0
M  V30 2642 H 245.3 3.6088 2.07737 0
M  V30 2643 H 247.897 2.60319 4.67053 0
M  V30 2644 H 248.24 1.0117 4.0382 0
M  V30 2645 H 248.773 2.4499 3.13408 0
M  V30 2646 H 245.512 5.38659 3.73533 0
M  V30 2647 H 245.032 3.8891 4.56628 0
M  V30 2648 H 246.711 4.47362 4.67415 0
M  V30 2649 N 246.843 -1.10192 1.12674 0
M  V30 2650 C 247.773 -2.18652 0.819362 0
M  V30 2651 C 248.754 -1.68698 -0.217915 0
M  V30 2652 O 249.939 -1.94041 -0.0785581 0
M  V30 2653 C 247.069 -3.46202 0.27594 0
M  V30 2654 C 246.023 -4.09444 1.24656 0
M  V30 2655 C 245.349 -5.31725 0.563258 0
M  V30 2656 C 246.649 -4.52863 2.60217 0
M  V30 2657 H 248.343 -2.44622 1.72628 0
M  V30 2658 H 245.889 -1.17571 0.831451 0
M  V30 2659 H 247.842 -4.21372 0.0486149 0
M  V30 2660 H 246.566 -3.1973 -0.666331 0
M  V30 2661 H 245.225 -3.36284 1.45974 0
M  V30 2662 H 244.873 -5.0153 -0.384235 0
M  V30 2663 H 244.573 -5.74991 1.21075 0
M  V30 2664 H 246.097 -6.09624 0.34503 0
M  V30 2665 H 247.511 -5.19294 2.42913 0
M  V30 2666 H 245.908 -5.06986 3.21068 0
M  V30 2667 H 246.978 -3.65656 3.18471 0
M  V30 2668 N 248.321 -0.919034 -1.28029 0
M  V30 2669 C 249.254 -0.355887 -2.25408 0
M  V30 2670 C 250.232 0.542874 -1.5327 0
M  V30 2671 O 251.416 0.485338 -1.82145 0
M  V30 2672 C 248.543 0.490759 -3.35126 0
M  V30 2673 C 247.589 -0.343358 -4.25116 0
M  V30 2674 S 248.422 -1.75344 -5.05979 0
M  V30 2675 C 249.578 -0.914244 -6.19187 0
M  V30 2676 H 249.811 -1.18123 -2.72826 0
M  V30 2677 H 247.344 -0.720636 -1.36551 0
M  V30 2678 H 249.302 0.973404 -3.98792 0
M  V30 2679 H 247.963 1.29054 -2.86363 0
M  V30 2680 H 247.156 0.304266 -5.03081 0
M  V30 2681 H 246.758 -0.759851 -3.662 0
M  V30 2682 H 249.05 -0.146282 -6.77342 0
M  V30 2683 H 249.993 -1.66661 -6.88208 0
M  V30 2684 H 250.401 -0.460082 -5.62622 0
M  V30 2685 N 249.799 1.42003 -0.683588 0
M  V30 2686 C 251.047 2.01015 -0.209101 0
M  V30 2687 C 251.368 1.54365 1.19149 0
M  V30 2688 O 250.638 0.769083 1.80172 0
M  V30 2689 H 249.218 0.743294 -0.074315 0
M  V30 2690 H 251.88 1.73798 -0.882066 0
M  V30 2691 H 250.976 3.11343 -0.2172 0
M  V30 2692 N 251.277 0.427512 1.51691 0
M  V30 2693 C 252.502 -0.143601 2.06902 0
M  V30 2694 C 252.927 -1.36536 1.29382 0
M  V30 2695 O 252.285 -1.78289 0.329043 0
M  V30 2696 C 252.333 -0.454207 3.57728 0
M  V30 2697 O 251.437 -1.54228 3.82475 0
M  V30 2698 H 250.778 -0.00617128 0.663971 0
M  V30 2699 H 253.308 0.606014 1.95419 0
M  V30 2700 H 253.318 -0.707525 4.01818 0
M  V30 2701 H 251.993 0.438812 4.13579 0
M  V30 2702 H 250.57 -1.2797 3.50254 0
M  V30 2703 N 252.755 -1.56801 0.158532 0
M  V30 2704 C 254.001 -1.97559 -0.483957 0
M  V30 2705 C 254.356 -1.04239 -1.61716 0
M  V30 2706 O 253.649 -0.079603 -1.91435 0
M  V30 2707 C 253.843 -3.4235 -1.02623 0
M  V30 2708 C 253.672 -4.49669 0.0528929 0
M  V30 2709 C 252.442 -5.02838 0.498234 0
M  V30 2710 C 254.64 -5.0725 0.848616 0
M  V30 2711 N 252.622 -5.93775 1.559 0
M  V30 2712 C 253.993 -5.94506 1.7596 0
M  V30 2713 C 256.048 -4.89788 0.895121 0
M  V30 2714 C 254.751 -6.66169 2.71314 0
M  V30 2715 C 256.777 -5.62161 1.83654 0
M  V30 2716 C 256.139 -6.49134 2.73503 0
M  V30 2717 H 252.238 -0.768332 -0.145566 0
M  V30 2718 H 254.822 -1.93012 0.255799 0
M  V30 2719 H 252.993 -3.47467 -1.73555 0
M  V30 2720 H 254.725 -3.70145 -1.63629 0
M  V30 2721 H 251.48 -4.73498 0.0983222 0
M  V30 2722 H 251.904 -6.43948 2.08949 0
M  V30 2723 H 256.546 -4.22255 0.21453 0
M  V30 2724 H 254.264 -7.32923 3.40367 0
M  V30 2725 H 257.85 -5.5064 1.87847 0
M  V30 2726 H 256.73 -7.04153 3.45163 0
M  V30 2727 N 254.233 0.115231 -1.57178 0
M  V30 2728 C 255.458 0.840354 -1.89612 0
M  V30 2729 C 255.883 1.72464 -0.750845 0
M  V30 2730 O 255.241 1.78826 0.298478 0
M  V30 2731 C 255.289 1.64654 -3.20814 0
M  V30 2732 O 254.393 2.7538 -3.06985 0
M  V30 2733 H 253.734 0.232158 -0.622092 0
M  V30 2734 H 256.264 0.0964977 -2.04372 0
M  V30 2735 H 256.274 2.03499 -3.53627 0
M  V30 2736 H 254.949 0.997416 -4.03763 0
M  V30 2737 H 253.526 2.3971 -2.85646 0
M  V30 2738 N 255.711 1.52812 0.385517 0
M  V30 2739 C 256.621 1.80766 1.49535 0
M  V30 2740 C 257.637 0.694651 1.59532 0
M  V30 2741 O 258.813 0.982611 1.75803 0
M  V30 2742 C 255.878 1.97381 2.85029 0
M  V30 2743 C 254.939 3.21295 2.84724 0
M  V30 2744 C 254.172 3.37108 4.13756 0
M  V30 2745 O 254.395 2.5765 5.08893 0
M  V30 2746 O 253.329 4.30378 4.20783 0
M  V30 2747 H 257.155 2.75015 1.28842 0
M  V30 2748 H 254.74 1.37946 0.573697 0
M  V30 2749 H 256.622 2.09996 3.65349 0
M  V30 2750 H 255.297 1.06322 3.05741 0
M  V30 2751 H 254.204 3.1412 2.03174 0
M  V30 2752 H 255.537 4.12212 2.68965 0
M  V30 2753 N 257.189 -0.644168 1.43834 0
M  V30 2754 C 258.152 -1.73857 1.49353 0
M  V30 2755 C 259.152 -1.56315 0.377112 0
M  V30 2756 O 260.342 -1.62048 0.639226 0
M  V30 2757 C 257.474 -3.12819 1.35488 0
M  V30 2758 H 258.667 -1.70342 2.46827 0
M  V30 2759 H 256.22 -0.856652 1.30733 0
M  V30 2760 H 256.955 -3.2194 0.390569 0
M  V30 2761 H 256.74 -3.26958 2.16428 0
M  V30 2762 H 258.23 -3.92606 1.42302 0
M  V30 2763 N 258.668 -1.30515 -0.883378 0
M  V30 2764 C 259.914 -1.19607 -1.63774 0
M  V30 2765 C 260.247 0.248314 -1.92606 0
M  V30 2766 O 259.522 1.17742 -1.54813 0
M  V30 2767 C 259.805 -2.02669 -2.97653 0
M  V30 2768 C 259.658 -3.55335 -2.75784 0
M  V30 2769 C 260.977 -1.86573 -3.98596 0
M  V30 2770 H 258.096 -0.435856 -0.594305 0
M  V30 2771 H 260.738 -1.60165 -1.02212 0
M  V30 2772 H 258.888 -1.68208 -3.50197 0
M  V30 2773 H 260.56 -3.99863 -2.30016 0
M  V30 2774 H 258.803 -3.79438 -2.1026 0
M  V30 2775 H 259.474 -4.08745 -3.70988 0
M  V30 2776 H 261.95 -2.16703 -3.55217 0
M  V30 2777 H 260.826 -2.47014 -4.90179 0
M  V30 2778 H 261.087 -0.825321 -4.34328 0
M  V30 2779 N 260.146 1.09593 -1.13257 0
M  V30 2780 C 261.557 1.63229 -0.906274 0
M  V30 2781 C 261.908 1.8811 0.557578 0
M  V30 2782 O 261.033 1.62953 1.42391 0
M  V30 2783 C 261.628 2.96535 -1.63867 0
M  V30 2784 C 260.187 3.47003 -1.45828 0
M  V30 2785 C 259.334 2.2145 -1.66898 0
M  V30 2786 H 262.285 0.92978 -1.28611 0
M  V30 2787 H 262.306 3.64411 -1.09476 0
M  V30 2788 H 261.818 2.78394 -2.70404 0
M  V30 2789 H 259.919 3.70272 -0.415848 0
M  V30 2790 H 260.032 4.24551 -2.2202 0
M  V30 2791 H 258.396 2.30022 -1.09371 0
M  V30 2792 H 259.179 2.0583 -2.74752 0
M  V30 2793 N 261.624 0.925811 1.2754 0
M  V30 2794 C 262.854 0.580666 1.98272 0
M  V30 2795 C 263.262 -0.845207 1.69272 0
M  V30 2796 O 262.605 -1.57306 0.948707 0
M  V30 2797 C 262.667 0.724418 3.52126 0
M  V30 2798 C 262.331 2.12206 4.04744 0
M  V30 2799 C 263.328 3.09604 4.17662 0
M  V30 2800 C 261.013 2.4385 4.39138 0
M  V30 2801 C 263.007 4.36755 4.64246 0
M  V30 2802 C 260.694 3.71237 4.85414 0
M  V30 2803 C 261.692 4.67503 4.97926 0
M  V30 2804 O 261.38 5.92624 5.43187 0
M  V30 2805 H 261.112 0.218987 0.639547 0
M  V30 2806 H 263.666 1.24452 1.63404 0
M  V30 2807 H 261.896 0.0034663 3.867 0
M  V30 2808 H 263.585 0.384607 4.04074 0
M  V30 2809 H 264.351 2.86478 3.91351 0
M  V30 2810 H 260.23 1.69665 4.28643 0
M  V30 2811 H 263.774 5.11898 4.73927 0
M  V30 2812 H 259.671 3.94182 5.11166 0
M  V30 2813 H 260.439 5.95585 5.61445 0
M  V30 2814 N 263.102 -1.41638 0.69111 0
M  V30 2815 C 264.35 -2.00902 0.219758 0
M  V30 2816 C 264.671 -1.54994 -1.18329 0
M  V30 2817 O 263.941 -0.778628 -1.79762 0
M  V30 2818 H 262.521 -0.74289 0.0782558 0
M  V30 2819 H 265.183 -1.73327 0.891271 0
M  V30 2820 H 264.279 -3.11224 0.233708 0
M  V30 2821 N 264.58 -0.43555 -1.51462 0
M  V30 2822 C 265.829 0.133007 -2.01261 0
M  V30 2823 C 266.142 1.43942 -1.32439 0
M  V30 2824 O 267.348 2.09081 -1.73198 0
M  V30 2825 C 265.804 0.287581 -3.58749 0
M  V30 2826 C 265.412 -1.00829 -4.36506 0
M  V30 2827 C 267.156 0.810004 -4.167 0
M  V30 2828 C 265.063 -0.819454 -5.85695 0
M  V30 2829 H 263.993 0.0534822 -0.752101 0
M  V30 2830 H 266.644 -0.565038 -1.74584 0
M  V30 2831 H 265.026 1.04859 -3.81865 0
M  V30 2832 H 266.2 -1.77749 -4.25138 0
M  V30 2833 H 264.515 -1.45911 -3.89999 0
M  V30 2834 H 267.112 0.967743 -5.2587 0
M  V30 2835 H 267.455 1.79196 -3.75758 0
M  V30 2836 H 267.988 0.107357 -3.97655 0
M  V30 2837 H 264.727 -1.77374 -6.31046 0
M  V30 2838 H 264.247 -0.0900208 -5.99732 0
M  V30 2839 H 265.926 -0.471949 -6.45276 0
M  V30 2840 N 266.058 1.56714 -0.166846 0
M  V30 2841 C 267.305 1.96747 0.479252 0
M  V30 2842 C 267.633 1.05263 1.63554 0
M  V30 2843 O 266.888 0.0858098 1.95512 0
M  V30 2844 C 267.187 3.42889 1.00806 0
M  V30 2845 C 266.853 4.50889 -0.0318574 0
M  V30 2846 C 265.515 4.8015 -0.317675 0
M  V30 2847 C 267.867 5.15949 -0.737956 0
M  V30 2848 C 265.195 5.71772 -1.31506 0
M  V30 2849 C 267.547 6.08647 -1.72429 0
M  V30 2850 C 266.211 6.36277 -2.0176 0
M  V30 2851 H 265.481 0.719949 0.175371 0
M  V30 2852 H 268.128 1.89756 -0.257864 0
M  V30 2853 H 266.433 3.4681 1.82291 0
M  V30 2854 H 268.13 3.71203 1.51689 0
M  V30 2855 H 264.72 4.28128 0.201088 0
M  V30 2856 H 268.904 4.93458 -0.530351 0
M  V30 2857 H 264.16 5.91465 -1.54853 0
M  V30 2858 H 268.334 6.58129 -2.27682 0
M  V30 2859 H 265.961 7.07075 -2.79194 0
M  V30 2860 N 267.536 -0.106894 1.57237 0
M  V30 2861 C 268.761 -0.830287 1.90055 0
M  V30 2862 C 269.186 -1.72064 0.75998 0
M  V30 2863 O 268.544 -1.78982 -0.288991 0
M  V30 2864 C 268.592 -1.6295 3.21683 0
M  V30 2865 O 267.696 -2.73748 3.08441 0
M  V30 2866 H 267.037 -0.228855 0.623315 0
M  V30 2867 H 269.567 -0.085658 2.04421 0
M  V30 2868 H 269.577 -2.01621 3.54701 0
M  V30 2869 H 268.252 -0.975989 4.04286 0
M  V30 2870 H 266.829 -2.38192 2.86913 0
M  V30 2871 N 269.014 -1.53014 -0.377408 0
M  V30 2872 C 269.964 -1.74996 -1.46152 0
M  V30 2873 C 270.948 -0.604236 -1.49123 0
M  V30 2874 O 272.14 -0.862489 -1.54564 0
M  V30 2875 C 269.269 -1.93267 -2.8373 0
M  V30 2876 C 268.355 -3.13807 -2.85283 0
M  V30 2877 N 268.746 -4.35941 -2.56493 0
M  V30 2878 C 267.044 -3.14288 -3.16448 0
M  V30 2879 C 267.745 -5.17615 -2.65424 0
M  V30 2880 N 266.721 -4.53559 -2.99641 0
M  V30 2881 H 270.523 -2.67044 -1.22738 0
M  V30 2882 H 268.037 -1.51479 -0.585479 0
M  V30 2883 H 270.034 -2.0714 -3.61799 0
M  V30 2884 H 268.694 -1.0244 -3.08117 0
M  V30 2885 H 269.705 -4.63876 -2.30302 0
M  V30 2886 H 266.382 -2.33312 -3.46225 0
M  V30 2887 H 267.772 -6.25006 -2.46612 0
M  V30 2888 N 270.492 0.636531 -1.44174 0
M  V30 2889 C 271.422 1.76003 -1.53444 0
M  V30 2890 C 272.403 1.65619 -0.387841 0
M  V30 2891 O 273.588 1.84461 -0.607257 0
M  V30 2892 C 270.718 3.14511 -1.4731 0
M  V30 2893 C 269.672 3.39677 -2.60391 0
M  V30 2894 C 268.998 4.78159 -2.39308 0
M  V30 2895 C 270.298 3.32772 -4.02567 0
M  V30 2896 H 271.992 1.68501 -2.47483 0
M  V30 2897 H 269.538 0.809237 -1.19111 0
M  V30 2898 H 271.491 3.92878 -1.52397 0
M  V30 2899 H 270.215 3.22783 -0.49785 0
M  V30 2900 H 268.874 2.63688 -2.54684 0
M  V30 2901 H 268.522 4.83128 -1.39988 0
M  V30 2902 H 268.222 4.95956 -3.15122 0
M  V30 2903 H 269.746 5.58762 -2.46205 0
M  V30 2904 H 271.16 4.01051 -4.09672 0
M  V30 2905 H 269.557 3.62104 -4.7854 0
M  V30 2906 H 270.627 2.30669 -4.2652 0
M  V30 2907 N 271.97 1.30982 0.876444 0
M  V30 2908 C 273.247 1.10942 1.61094 0
M  V30 2909 C 273.627 -0.338223 2.08373 0
M  V30 2910 O 272.975 -1.33122 1.85717 0
M  V30 2911 C 273.185 2.11789 2.77392 0
M  V30 2912 C 274.533 2.43965 3.47514 0
M  V30 2913 O 275.557 2.10166 2.87591 0
M  V30 2914 O 274.416 3.01817 4.55597 0
M  V30 2915 H 271.51 0.42667 0.708436 0
M  V30 2916 H 274.056 1.42438 0.922474 0
M  V30 2917 H 272.828 3.09194 2.39823 0
M  V30 2918 H 272.451 1.81161 3.5393 0
M  V30 2919 N 273.449 -1.08991 1.13837 0
M  V30 2920 C 274.695 -1.81699 0.91417 0
M  V30 2921 C 275.05 -1.84264 -0.553594 0
M  V30 2922 O 274.343 -1.30313 -1.4046 0
M  V30 2923 C 274.537 -3.27042 1.44147 0
M  V30 2924 C 274.366 -3.38637 2.95897 0
M  V30 2925 C 273.136 -3.50177 3.64286 0
M  V30 2926 C 275.334 -3.30791 3.93804 0
M  V30 2927 N 273.316 -3.50501 5.04006 0
M  V30 2928 C 274.687 -3.38037 5.19741 0
M  V30 2929 C 276.742 -3.14488 3.86007 0
M  V30 2930 C 275.445 -3.30659 6.38793 0
M  V30 2931 C 277.471 -3.08438 5.04599 0
M  V30 2932 C 276.833 -3.1628 6.29402 0
M  V30 2933 H 272.932 -0.678967 0.387979 0
M  V30 2934 H 275.516 -1.30224 1.4474 0
M  V30 2935 H 273.687 -3.76976 0.935091 0
M  V30 2936 H 275.419 -3.87785 1.1578 0
M  V30 2937 H 272.174 -3.53815 3.1482 0
M  V30 2938 H 272.598 -3.54236 5.76928 0
M  V30 2939 H 277.24 -3.07291 2.90399 0
M  V30 2940 H 274.958 -3.36618 7.34652 0
M  V30 2941 H 278.544 -2.96952 5.0031 0
M  V30 2942 H 277.424 -3.1162 7.19627 0
M  V30 2943 N 274.927 -0.932562 -1.27047 0
M  V30 2944 C 276.155 -0.592031 -1.98249 0
M  V30 2945 C 276.57 0.831062 -1.69525 0
M  V30 2946 O 275.927 1.55299 -0.958561 0
M  V30 2947 C 275.978 -0.814279 -3.5221 0
M  V30 2948 O 275.699 -2.18139 -3.7993 0
M  V30 2949 C 277.2 -0.483121 -4.4066 0
M  V30 2950 H 274.42 -0.223896 -0.632544 0
M  V30 2951 H 276.964 -1.25091 -1.61779 0
M  V30 2952 H 275.119 -0.20213 -3.86872 0
M  V30 2953 H 275.533 -2.235 -4.74498 0
M  V30 2954 H 277.007 -0.689298 -5.47679 0
M  V30 2955 H 277.484 0.581546 -4.35333 0
M  V30 2956 H 278.09 -1.07362 -4.11526 0
M  V30 2957 N 276.405 1.4127 -0.698611 0
M  V30 2958 C 277.353 2.32588 -0.023855 0
M  V30 2959 C 278.347 1.51128 0.765292 0
M  V30 2960 O 279.553 1.67043 0.670571 0
M  V30 2961 H 275.928 0.751918 0.0110871 0
M  V30 2962 H 277.899 2.87167 -0.811031 0
M  V30 2963 C 276.648 3.35947 0.896369 0
M  V30 2964 H 275.971 3.98684 0.298548 0
M  V30 2965 H 277.411 4.02376 1.33676 0
M  V30 2966 C 275.87 2.70076 2.01396 0
M  V30 2967 O 276.4 2.55093 3.10307 0
M  V30 2968 N 274.606 2.28724 1.79259 0
M  V30 2969 H 274.153 2.4111 0.906841 0
M  V30 2970 H 274.111 1.84986 2.54219 0
M  V30 2971 N 277.883 0.443576 1.51229 0
M  V30 2972 C 278.831 -0.37904 2.29491 0
M  V30 2973 C 279.825 -1.0153 1.35603 0
M  V30 2974 O 281.031 -0.94955 1.52917 0
M  V30 2975 H 277.406 -0.141053 0.738653 0
M  V30 2976 H 279.377 0.301799 2.9687 0
M  V30 2977 C 278.126 -1.46426 3.15364 0
M  V30 2978 H 277.449 -0.984037 3.87501 0
M  V30 2979 H 278.889 -2.01297 3.7317 0
M  V30 2980 C 277.348 -2.45099 2.31146 0
M  V30 2981 O 277.878 -3.49773 1.9754 0
M  V30 2982 N 276.084 -2.16139 1.94249 0
M  V30 2983 H 275.631 -1.31044 2.21777 0
M  V30 2984 H 275.589 -2.82398 1.38198 0
M  V30 2985 N 279.361 -1.56624 0.175154 0
M  V30 2986 C 280.608 -1.96999 -0.468811 0
M  V30 2987 C 280.936 -1.06129 -1.62994 0
M  V30 2988 O 280.191 -0.0961771 -1.95464 0
M  V30 2989 C 280.49 -3.43419 -0.989864 0
M  V30 2990 C 280.156 -4.50866 0.0557687 0
M  V30 2991 C 278.818 -4.79975 0.343134 0
M  V30 2992 C 281.17 -5.15551 0.765308 0
M  V30 2993 C 278.498 -5.71066 1.34536 0
M  V30 2994 C 280.85 -6.07724 1.75654 0
M  V30 2995 C 279.514 -6.35199 2.05132 0
M  V30 2996 H 278.784 -0.720869 -0.17155 0
M  V30 2997 H 281.431 -1.89616 0.267924 0
M  V30 2998 H 279.736 -3.47772 -1.80449 0
M  V30 2999 H 281.433 -3.72002 -1.49719 0
M  V30 3000 H 278.023 -4.28229 -0.178381 0
M  V30 3001 H 282.207 -4.9317 0.556513 0
M  V30 3002 H 277.463 -5.90635 1.57988 0
M  V30 3003 H 281.637 -6.56912 2.31169 0
M  V30 3004 H 279.264 -7.05584 2.8294 0
M  V30 3005 N 280.839 0.0985539 -1.57292 0
M  V30 3006 C 282.064 0.820196 -1.90493 0
M  V30 3007 C 282.489 1.71658 -0.769094 0
M  V30 3008 O 281.847 1.79133 0.279495 0
M  V30 3009 C 281.895 1.61242 -3.22542 0
M  V30 3010 O 280.999 2.72108 -3.09888 0
M  V30 3011 H 280.34 0.225547 -0.62452 0
M  V30 3012 H 282.87 0.0748159 -2.04463 0
M  V30 3013 H 282.88 1.99737 -3.55766 0
M  V30 3014 H 281.555 0.954535 -4.04798 0
M  V30 3015 H 280.132 2.36667 -2.88172 0
M  V30 3016 N 282.317 1.53212 0.369288 0
M  V30 3017 C 283.247 1.82365 1.45826 0
M  V30 3018 C 284.228 0.676907 1.56051 0
M  V30 3019 O 285.413 0.926401 1.70679 0
M  V30 3020 C 282.543 2.01023 2.83208 0
M  V30 3021 C 281.497 3.1678 2.8781 0
M  V30 3022 C 280.823 3.20724 4.27832 0
M  V30 3023 C 282.123 4.55447 2.55667 0
M  V30 3024 H 283.817 2.73559 1.21678 0
M  V30 3025 H 281.363 1.3163 0.583911 0
M  V30 3026 H 283.316 2.20001 3.59413 0
M  V30 3027 H 282.04 1.06536 3.08736 0
M  V30 3028 H 280.699 2.97616 2.14056 0
M  V30 3029 H 280.347 2.23882 4.50429 0
M  V30 3030 H 280.047 3.98496 4.31827 0
M  V30 3031 H 281.571 3.41881 5.05915 0
M  V30 3032 H 282.985 4.74611 3.21586 0
M  V30 3033 H 281.382 5.35432 2.70984 0
M  V30 3034 H 282.452 4.60812 1.5093 0
M  V30 3035 N 283.795 -0.628877 1.44509 0
M  V30 3036 C 285.041 -1.39045 1.47629 0
M  V30 3037 C 285.374 -1.93892 0.109343 0
M  V30 3038 O 284.649 -1.7379 -0.87334 0
M  V30 3039 C 284.932 -2.55408 2.53848 0
M  V30 3040 C 284.785 -2.05896 3.99909 0
M  V30 3041 C 286.104 -3.5759 2.56549 0
M  V30 3042 H 283.223 -0.504232 0.537512 0
M  V30 3043 H 285.865 -0.710854 1.76201 0
M  V30 3044 H 284.015 -3.13384 2.29615 0
M  V30 3045 H 285.687 -1.52734 4.35282 0
M  V30 3046 H 283.93 -1.37061 4.11578 0
M  V30 3047 H 284.601 -2.89681 4.69882 0
M  V30 3048 H 287.077 -3.09419 2.78207 0
M  V30 3049 H 285.953 -4.36527 3.32769 0
M  V30 3050 H 286.214 -4.11808 1.60832 0
M  V30 3051 N 285.273 -1.31445 -0.869486 0
M  V30 3052 C 286.223 -1.15731 -1.96444 0
M  V30 3053 C 287.207 -0.0681855 -1.60755 0
M  V30 3054 O 288.399 -0.293154 -1.74555 0
M  V30 3055 C 285.528 -0.867255 -3.32165 0
M  V30 3056 C 284.614 -1.99738 -3.74119 0
M  V30 3057 N 285.005 -3.24447 -3.88031 0
M  V30 3058 C 283.303 -1.89723 -4.03635 0
M  V30 3059 C 284.004 -3.98374 -4.23879 0
M  V30 3060 N 282.98 -3.26547 -4.3459 0
M  V30 3061 H 286.782 -2.10296 -2.05312 0
M  V30 3062 H 284.296 -1.23009 -1.06031 0
M  V30 3063 H 286.293 -0.735668 -4.10358 0
M  V30 3064 H 284.953 0.0701614 -3.24624 0
M  V30 3065 H 285.964 -3.59557 -3.72746 0
M  V30 3066 H 282.641 -1.03449 -4.04481 0
M  V30 3067 H 284.031 -5.05844 -4.42235 0
M  V30 3068 N 286.751 1.08385 -1.14413 0
M  V30 3069 C 287.999 1.80419 -0.910679 0
M  V30 3070 C 288.32 1.86658 0.564243 0
M  V30 3071 O 287.59 1.35985 1.41014 0
M  V30 3072 H 286.17 0.668204 -0.333934 0
M  V30 3073 H 288.832 1.31037 -1.44275 0
M  V30 3074 H 287.928 2.83238 -1.31082 0
M  V30 3075 N 288.23 0.939286 1.26551 0
M  V30 3076 C 289.178 0.43815 2.28436 0
M  V30 3077 C 290.172 -0.483587 1.62351 0
M  V30 3078 O 291.378 -0.362009 1.76322 0
M  V30 3079 H 287.753 0.123149 0.741848 0
M  V30 3080 H 289.724 1.31002 2.68106 0
M  V30 3081 C 288.473 -0.283052 3.46546 0
M  V30 3082 H 287.796 0.417043 3.97619 0
M  V30 3083 H 289.236 -0.597948 4.19763 0
M  V30 3084 C 287.695 -1.50018 3.01656 0
M  V30 3085 O 288.225 -2.59855 3.0633 0
M  V30 3086 N 286.431 -1.35608 2.57019 0
M  V30 3087 H 285.978 -0.46244 2.53415 0
M  V30 3088 H 285.936 -2.17165 2.27347 0
M  V30 3089 N 289.708 -1.40897 0.706093 0
M  V30 3090 C 290.638 -2.33418 0.0620085 0
M  V30 3091 C 291.619 -1.52385 -0.755827 0
M  V30 3092 O 292.804 -1.80886 -0.706674 0
M  V30 3093 C 289.934 -3.36293 -0.867445 0
M  V30 3094 C 288.888 -4.27716 -0.155932 0
M  V30 3095 C 288.214 -5.2105 -1.20046 0
M  V30 3096 C 289.514 -5.12944 0.984149 0
M  V30 3097 H 291.208 -2.87527 0.83477 0
M  V30 3098 H 288.754 -1.38249 0.402875 0
M  V30 3099 H 290.707 -3.99949 -1.32735 0
M  V30 3100 H 289.431 -2.80556 -1.67199 0
M  V30 3101 H 288.09 -3.65498 0.284047 0
M  V30 3102 H 287.738 -4.61624 -1.99781 0
M  V30 3103 H 287.438 -5.83056 -0.729328 0
M  V30 3104 H 288.962 -5.87584 -1.66066 0
M  V30 3105 H 290.376 -5.70109 0.604048 0
M  V30 3106 H 288.773 -5.83945 1.38304 0
M  V30 3107 H 289.843 -4.49485 1.81911 0
M  V30 3108 N 291.186 -0.45159 -1.50991 0
M  V30 3109 C 292.433 0.110074 -2.02201 0
M  V30 3110 C 292.761 1.4146 -1.33489 0
M  V30 3111 O 292.016 1.90617 -0.443125 0
M  V30 3112 C 292.315 0.361728 -3.55565 0
M  V30 3113 C 291.981 -0.858717 -4.42648 0
M  V30 3114 C 290.643 -1.19338 -4.66167 0
M  V30 3115 C 292.995 -1.67221 -4.93646 0
M  V30 3116 C 290.323 -2.34195 -5.37931 0
M  V30 3117 C 292.675 -2.8119 -5.6667 0
M  V30 3118 C 291.339 -3.15094 -5.88449 0
M  V30 3119 H 290.609 0.040279 -0.739904 0
M  V30 3120 H 293.256 -0.601696 -1.81802 0
M  V30 3121 H 291.561 1.15554 -3.74372 0
M  V30 3122 H 293.258 0.80996 -3.92735 0
M  V30 3123 H 289.848 -0.58796 -4.24548 0
M  V30 3124 H 294.032 -1.42686 -4.75347 0
M  V30 3125 H 289.288 -2.6076 -5.53005 0
M  V30 3126 H 293.462 -3.44585 -6.05173 0
M  V30 3127 H 291.089 -4.04204 -6.43835 0
M  V30 3128 N 292.664 1.56529 -0.183458 0
M  V30 3129 C 293.894 2.01331 0.463612 0
M  V30 3130 C 294.302 1.06278 1.5653 0
M  V30 3131 O 293.645 0.0577976 1.83609 0
M  V30 3132 C 293.707 3.42547 1.09096 0
M  V30 3133 C 293.371 4.56817 0.129442 0
M  V30 3134 C 294.368 5.15734 -0.656807 0
M  V30 3135 C 292.053 5.02295 0.02174 0
M  V30 3136 C 294.047 6.1857 -1.53784 0
M  V30 3137 C 291.734 6.04978 -0.862864 0
M  V30 3138 C 292.732 6.62988 -1.64123 0
M  V30 3139 O 292.42 7.63677 -2.51103 0
M  V30 3140 H 292.152 0.664917 0.121907 0
M  V30 3141 H 294.706 2.034 -0.285954 0
M  V30 3142 H 292.936 3.37428 1.88889 0
M  V30 3143 H 294.625 3.71228 1.64148 0
M  V30 3144 H 295.391 4.81473 -0.583839 0
M  V30 3145 H 291.27 4.56847 0.617392 0
M  V30 3146 H 294.814 6.63777 -2.14583 0
M  V30 3147 H 290.711 6.38663 -0.93699 0
M  V30 3148 H 291.479 7.81049 -2.44753 0
M  V30 3149 N 294.142 -0.090211 1.57342 0
M  V30 3150 C 295.09 -1.12792 2.03422 0
M  V30 3151 C 296.084 -1.41182 0.936166 0
M  V30 3152 O 297.29 -1.40805 1.12133 0
M  V30 3153 H 293.665 -0.380986 0.648347 0
M  V30 3154 H 295.636 -0.71299 2.89757 0
M  V30 3155 C 294.385 -2.43855 2.47851 0
M  V30 3156 H 293.708 -2.22855 3.31927 0
M  V30 3157 H 295.148 -3.14955 2.83865 0
M  V30 3158 C 293.607 -3.08503 1.3538 0
M  V30 3159 O 294.137 -3.95805 0.685641 0
M  V30 3160 N 292.343 -2.68831 1.10355 0
M  V30 3161 H 291.89 -1.97929 1.64869 0
M  V30 3162 H 291.848 -3.12412 0.353031 0
M  V30 3163 N 295.62 -1.53406 -0.361157 0
M  V30 3164 C 297.031 -1.61442 -0.937728 0
M  V30 3165 C 297.382 -0.48461 -1.90121 0
M  V30 3166 O 296.507 0.388312 -2.12888 0
M  V30 3167 C 297.102 -2.92624 -1.70753 0
M  V30 3168 C 295.661 -3.02981 -2.23337 0
M  V30 3169 C 294.808 -2.5677 -1.04712 0
M  V30 3170 H 297.759 -1.58083 -0.139816 0
M  V30 3171 H 297.78 -2.80675 -2.56908 0
M  V30 3172 H 297.292 -3.74834 -1.00604 0
M  V30 3173 H 295.393 -2.25368 -2.96715 0
M  V30 3174 H 295.506 -4.0814 -2.50916 0
M  V30 3175 H 293.87 -2.11752 -1.41539 0
M  V30 3176 H 294.653 -3.41402 -0.360539 0
M  V30 3177 N 297.098 0.621204 -1.44841 0
M  V30 3178 C 298.345 1.38055 -1.48145 0
M  V30 3179 C 298.673 1.94143 -0.117867 0
M  V30 3180 O 297.928 1.74713 0.881694 0
M  V30 3181 C 298.227 2.55675 -2.4973 0
M  V30 3182 C 297.893 2.17817 -3.94799 0
M  V30 3183 C 296.555 2.07205 -4.34303 0
M  V30 3184 C 298.907 1.88065 -4.86087 0
M  V30 3185 C 296.235 1.65045 -5.63007 0
M  V30 3186 C 298.587 1.47394 -6.15189 0
M  V30 3187 C 297.251 1.35331 -6.53637 0
M  V30 3188 H 296.521 0.505181 -0.542101 0
M  V30 3189 H 299.168 0.703477 -1.78111 0
M  V30 3190 H 297.473 3.2866 -2.13284 0
M  V30 3191 H 299.17 3.13904 -2.4953 0
M  V30 3192 H 295.76 2.26998 -3.63552 0
M  V30 3193 H 299.944 1.95168 -4.56315 0
M  V30 3194 H 295.2 1.54317 -5.91605 0
M  V30 3195 H 299.374 1.23415 -6.85377 0
M  V30 3196 H 297.001 1.02435 -7.53267 0
M  V30 3197 N 298.576 1.31904 0.862503 0
M  V30 3198 C 299.526 1.16772 1.95827 0
M  V30 3199 C 300.51 0.0767098 1.60717 0
M  V30 3200 O 301.702 0.302407 1.74398 0
M  V30 3201 C 298.831 0.884858 3.317 0
M  V30 3202 C 297.917 2.0172 3.73055 0
M  V30 3203 N 298.308 3.265 3.86305 0
M  V30 3204 C 296.606 1.91861 4.02623 0
M  V30 3205 C 297.307 4.00616 4.2176 0
M  V30 3206 N 296.283 3.28847 4.32852 0
M  V30 3207 H 300.085 2.11382 2.04193 0
M  V30 3208 H 297.599 1.2357 1.05377 0
M  V30 3209 H 299.596 0.757419 4.09962 0
M  V30 3210 H 298.256 -0.0529448 3.24657 0
M  V30 3211 H 299.267 3.61529 3.70833 0
M  V30 3212 H 295.944 1.05593 4.03926 0
M  V30 3213 H 297.334 5.08182 4.39546 0
M  V30 3214 N 300.054 -1.07777 1.14986 0
M  V30 3215 C 301.302 -1.79934 0.920235 0
M  V30 3216 C 301.623 -1.86955 -0.554336 0
M  V30 3217 O 300.893 -1.36731 -1.40291 0
M  V30 3218 H 299.473 -0.666424 0.337473 0
M  V30 3219 H 302.135 -1.3027 1.44968 0
M  V30 3220 H 301.231 -2.82539 1.32583 0
M  V30 3221 N 301.532 -0.945985 -1.26051 0
M  V30 3222 C 302.462 -0.477172 -2.28572 0
M  V30 3223 C 303.443 0.472032 -1.63419 0
M  V30 3224 O 304.628 0.372853 -1.90587 0
M  V30 3225 C 301.758 0.253975 -3.4637 0
M  V30 3226 C 300.712 -0.609135 -4.23643 0
M  V30 3227 C 300.038 0.252252 -5.34105 0
M  V30 3228 C 301.338 -1.8829 -4.8718 0
M  V30 3229 H 303.032 -1.33402 -2.68038 0
M  V30 3230 H 300.578 -0.642904 -1.28852 0
M  V30 3231 H 302.531 0.593016 -4.17207 0
M  V30 3232 H 301.255 1.145 -3.05871 0
M  V30 3233 H 299.914 -0.931138 -3.54578 0
M  V30 3234 H 299.562 1.14278 -4.89846 0
M  V30 3235 H 299.262 -0.32188 -5.86718 0
M  V30 3236 H 300.786 0.586454 -6.07777 0
M  V30 3237 H 302.2 -1.61081 -5.50205 0
M  V30 3238 H 300.597 -2.40199 -5.49931 0
M  V30 3239 H 301.667 -2.59134 -4.09851 0
M  V30 3240 N 303.011 1.40521 -0.713556 0
M  V30 3241 C 304.236 2.05759 -0.26035 0
M  V30 3242 C 304.661 1.53403 1.08854 0
M  V30 3243 O 304.019 0.668535 1.68524 0
M  V30 3244 C 304.067 3.59745 -0.248122 0
M  V30 3245 O 303.171 4.05123 0.77131 0
M  V30 3246 H 302.512 0.652564 -0.122703 0
M  V30 3247 H 305.042 1.79958 -0.973467 0
M  V30 3248 H 305.052 4.07911 -0.0851129 0
M  V30 3249 H 303.727 3.97218 -1.2325 0
M  V30 3250 H 302.304 3.68422 0.57619 0
M  V30 3251 N 304.489 0.459591 1.5075 0
M  V30 3252 C 305.738 -0.100971 2.01447 0
M  V30 3253 C 306.051 -1.41816 1.34713 0
M  V30 3254 O 307.257 -2.06299 1.76502 0
M  V30 3255 C 305.713 -0.23047 3.59161 0
M  V30 3256 C 305.321 1.0776 4.34847 0
M  V30 3257 C 307.065 -0.743608 4.17936 0
M  V30 3258 C 304.972 0.91253 5.84317 0
M  V30 3259 H 303.902 -0.0415102 0.752856 0
M  V30 3260 H 306.553 0.592742 1.73663 0
M  V30 3261 H 304.935 -0.987703 3.83485 0
M  V30 3262 H 306.109 1.8449 4.22256 0
M  V30 3263 H 304.424 1.52097 3.87628 0
M  V30 3264 H 307.021 -0.883959 5.27343 0
M  V30 3265 H 307.364 -1.73196 3.78562 0
M  V30 3266 H 307.897 -0.04408 3.97776 0
M  V30 3267 H 304.636 1.87391 6.28144 0
M  V30 3268 H 304.156 0.185422 5.99513 0
M  V30 3269 H 305.835 0.574547 6.44444 0
M  V30 3270 N 305.967 -1.56429 0.191757 0
M  V30 3271 C 306.93 -2.17707 -0.716688 0
M  V30 3272 C 307.93 -1.13061 -1.14341 0
M  V30 3273 O 309.12 -1.38464 -1.05704 0
M  V30 3274 C 306.252 -2.77644 -1.97804 0
M  V30 3275 H 307.445 -2.99342 -0.1829 0
M  V30 3276 H 304.998 -1.56193 -0.0578566 0
M  V30 3277 H 305.733 -1.99799 -2.55443 0
M  V30 3278 H 305.518 -3.54246 -1.68083 0
M  V30 3279 H 307.008 -3.24708 -2.62592 0
M  V30 3280 N 307.445 0.0818655 -1.57387 0
M  V30 3281 C 308.692 0.782914 -1.86753 0
M  V30 3282 C 309.02 1.78082 -0.782118 0
M  V30 3283 O 308.275 1.94426 0.22295 0
M  V30 3284 C 308.574 1.53513 -3.22752 0
M  V30 3285 C 308.24 0.678134 -4.45771 0
M  V30 3286 C 306.902 0.441929 -4.79166 0
M  V30 3287 C 309.254 0.0832243 -5.21134 0
M  V30 3288 C 306.582 -0.398833 -5.85343 0
M  V30 3289 C 308.934 -0.744935 -6.28199 0
M  V30 3290 C 307.598 -0.991107 -6.60101 0
M  V30 3291 H 306.868 0.286489 -0.683378 0
M  V30 3292 H 309.515 0.0439808 -1.91449 0
M  V30 3293 H 307.82 2.34599 -3.138 0
M  V30 3294 H 309.517 2.08218 -3.42705 0
M  V30 3295 H 306.107 0.872357 -4.19628 0
M  V30 3296 H 310.291 0.252847 -4.95655 0
M  V30 3297 H 305.547 -0.598405 -6.08465 0
M  V30 3298 H 309.721 -1.21271 -6.8576 0
M  V30 3299 H 307.348 -1.64437 -7.42202 0
M  V30 3300 N 308.923 1.53595 0.353017 0
M  V30 3301 C 309.853 1.83902 1.43883 0
M  V30 3302 C 310.834 0.693421 1.55324 0
M  V30 3303 O 312.019 0.944452 1.69687 0
M  V30 3304 C 309.149 2.04016 2.8106 0
M  V30 3305 C 308.103 3.19814 2.84434 0
M  V30 3306 C 307.429 3.25244 4.24406 0
M  V30 3307 C 308.729 4.58133 2.50822 0
M  V30 3308 H 310.423 2.74835 1.1877 0
M  V30 3309 H 307.969 1.32242 0.569917 0
M  V30 3310 H 309.922 2.238 3.57059 0
M  V30 3311 H 308.646 1.09804 3.07588 0
M  V30 3312 H 307.305 2.9987 2.10887 0
M  V30 3313 H 306.953 2.28646 4.48029 0
M  V30 3314 H 306.653 4.03054 4.27576 0
M  V30 3315 H 308.177 3.47228 5.0226 0
M  V30 3316 H 309.591 4.77995 3.16534 0
M  V30 3317 H 307.988 5.38276 2.6529 0
M  V30 3318 H 309.058 4.62387 1.46034 0
M  V30 3319 N 310.401 -0.613514 1.45168 0
M  V30 3320 C 311.631 -1.39743 1.52169 0
M  V30 3321 C 312.039 -1.88596 0.151086 0
M  V30 3322 O 311.382 -1.6251 -0.856521 0
M  V30 3323 C 311.444 -2.64035 2.43979 0
M  V30 3324 C 311.108 -2.36861 3.90827 0
M  V30 3325 C 312.105 -1.97591 4.80889 0
M  V30 3326 C 309.79 -2.49956 4.35692 0
M  V30 3327 C 311.784 -1.71768 6.1382 0
M  V30 3328 C 309.471 -2.23747 5.68665 0
M  V30 3329 C 310.469 -1.84714 6.57548 0
M  V30 3330 O 310.157 -1.58809 7.88058 0
M  V30 3331 H 309.889 -0.434382 0.517966 0
M  V30 3332 H 312.443 -0.75587 1.90986 0
M  V30 3333 H 310.673 -3.3089 2.00122 0
M  V30 3334 H 312.362 -3.26069 2.41731 0
M  V30 3335 H 313.128 -1.87015 4.47493 0
M  V30 3336 H 309.007 -2.79305 3.66756 0
M  V30 3337 H 312.551 -1.41227 6.83155 0
M  V30 3338 H 308.448 -2.33938 6.01617 0
M  V30 3339 H 309.216 -1.7291 8.00028 0
M  V30 3340 N 311.879 -1.3236 -0.855495 0
M  V30 3341 C 313.127 -1.22629 -1.60644 0
M  V30 3342 C 313.448 0.212136 -1.93843 0
M  V30 3343 O 312.718 1.13666 -1.59552 0
M  V30 3344 H 311.298 -0.450882 -0.595579 0
M  V30 3345 H 313.96 -1.65871 -1.02337 0
M  V30 3346 H 313.056 -1.80832 -2.54374 0
M  V30 3347 N 313.357 1.07166 -1.15556 0
M  V30 3348 C 314.582 1.84053 -0.955988 0
M  V30 3349 C 315.007 1.81586 0.490739 0
M  V30 3350 O 314.365 1.21018 1.34997 0
M  V30 3351 C 314.413 3.28957 -1.47714 0
M  V30 3352 O 313.517 4.06795 -0.677593 0
M  V30 3353 H 312.858 0.569842 -0.340847 0
M  V30 3354 H 315.388 1.35178 -1.53584 0
M  V30 3355 H 315.398 3.79788 -1.4908 0
M  V30 3356 H 314.073 3.30068 -2.53037 0
M  V30 3357 H 312.65 3.6561 -0.733721 0
M  V30 3358 N 314.835 0.952656 1.25548 0
M  V30 3359 C 315.798 0.475794 2.24207 0
M  V30 3360 C 316.798 -0.419428 1.55234 0
M  V30 3361 O 317.988 -0.216994 1.72843 0
M  V30 3362 C 315.12 -0.312814 3.39462 0
M  V30 3363 H 316.313 1.34779 2.67908 0
M  V30 3364 H 313.866 0.735739 1.37901 0
M  V30 3365 H 314.601 -1.20257 3.01179 0
M  V30 3366 H 314.386 0.329404 3.90714 0
M  V30 3367 H 315.876 -0.635986 4.12729 0
M  V30 3368 N 316.313 -1.40141 0.720998 0
M  V30 3369 C 317.243 -2.33339 0.0867621 0
M  V30 3370 C 318.224 -1.53178 -0.739622 0
M  V30 3371 O 319.409 -1.81625 -0.687449 0
M  V30 3372 C 316.539 -3.37194 -0.831728 0
M  V30 3373 C 315.493 -4.27857 -0.110558 0
M  V30 3374 C 314.819 -5.22294 -1.14513 0
M  V30 3375 C 316.119 -5.11872 1.0385 0
M  V30 3376 H 317.813 -2.86626 0.865219 0
M  V30 3377 H 315.359 -1.37814 0.417516 0
M  V30 3378 H 317.312 -4.01335 -1.28485 0
M  V30 3379 H 316.036 -2.82314 -1.64214 0
M  V30 3380 H 314.695 -3.65176 0.322797 0
M  V30 3381 H 314.343 -4.63717 -1.94874 0
M  V30 3382 H 314.043 -5.83797 -0.667446 0
M  V30 3383 H 315.567 -5.89312 -1.59824 0
M  V30 3384 H 316.981 -5.69436 0.664482 0
M  V30 3385 H 315.378 -5.82445 1.4449 0
M  V30 3386 H 316.448 -4.4753 1.86668 0
M  V30 3387 N 317.792 -0.46758 -1.50504 0
M  V30 3388 C 318.722 0.318381 -2.31319 0
M  V30 3389 C 319.703 0.993564 -1.38066 0
M  V30 3390 O 320.888 0.991411 -1.66987 0
M  V30 3391 C 318.018 1.40275 -3.17711 0
M  V30 3392 C 316.972 0.849373 -4.19487 0
M  V30 3393 C 316.298 2.03177 -4.94594 0
M  V30 3394 C 317.598 -0.136942 -5.2212 0
M  V30 3395 H 319.292 -0.356106 -2.97275 0
M  V30 3396 H 316.838 -0.172703 -1.42961 0
M  V30 3397 H 318.791 1.96004 -3.73042 0
M  V30 3398 H 317.515 2.10596 -2.49634 0
M  V30 3399 H 316.174 0.314076 -3.65252 0
M  V30 3400 H 315.822 2.72187 -4.22993 0
M  V30 3401 H 315.522 1.66774 -5.63436 0
M  V30 3402 H 317.046 2.59403 -5.52759 0
M  V30 3403 H 318.46 0.331056 -5.72343 0
M  V30 3404 H 316.857 -0.41507 -5.98663 0
M  V30 3405 H 317.927 -1.06398 -4.73083 0
M  V30 3406 N 319.27 1.56325 -0.20005 0
M  V30 3407 C 320.517 1.97719 0.437411 0
M  V30 3408 C 320.845 1.08709 1.61284 0
M  V30 3409 O 320.1 0.127261 1.95286 0
M  V30 3410 C 320.399 3.4495 0.935103 0
M  V30 3411 C 320.065 4.5072 -0.12749 0
M  V30 3412 C 318.727 4.79368 -0.419451 0
M  V30 3413 C 321.079 5.14268 -0.847231 0
M  V30 3414 C 318.407 5.68854 -1.43604 0
M  V30 3415 C 320.759 6.04852 -1.85301 0
M  V30 3416 C 319.423 6.31855 -2.15211 0
M  V30 3417 H 318.693 0.723507 0.16006 0
M  V30 3418 H 321.34 1.89166 -0.298056 0
M  V30 3419 H 319.645 3.50599 1.74894 0
M  V30 3420 H 321.342 3.74337 1.43781 0
M  V30 3421 H 317.932 4.28458 0.11023 0
M  V30 3422 H 322.116 4.92222 -0.634901 0
M  V30 3423 H 317.372 5.88047 -1.67364 0
M  V30 3424 H 321.546 6.53152 -2.41591 0
M  V30 3425 H 319.173 7.00994 -2.94129 0
M  V30 3426 N 320.748 -0.0735177 1.57428 0
M  V30 3427 C 321.711 -1.07192 2.02589 0
M  V30 3428 C 322.711 -1.31695 0.922661 0
M  V30 3429 O 323.901 -1.27445 1.18758 0
M  V30 3430 C 321.033 -2.41599 2.40506 0
M  V30 3431 H 322.226 -0.682727 2.92025 0
M  V30 3432 H 319.779 -0.319193 1.53006 0
M  V30 3433 H 320.514 -2.85354 1.5409 0
M  V30 3434 H 320.299 -2.25156 3.21009 0
M  V30 3435 H 321.789 -3.13367 2.76027 0
M  V30 3436 N 322.226 -1.5378 -0.344866 0
M  V30 3437 C 323.159 -1.7649 -1.4466 0
M  V30 3438 C 324.137 -0.613954 -1.50563 0
M  V30 3439 O 325.321 -0.84896 -1.683 0
M  V30 3440 C 322.448 -1.86235 -2.82903 0
M  V30 3441 C 321.494 -3.08375 -2.94631 0
M  V30 3442 S 322.327 -4.67457 -2.61236 0
M  V30 3443 C 323.483 -4.80079 -4.0159 0
M  V30 3444 H 323.716 -2.69661 -1.2518 0
M  V30 3445 H 321.249 -1.44632 -0.540455 0
M  V30 3446 H 323.207 -1.92535 -3.62547 0
M  V30 3447 H 321.868 -0.940786 -2.9968 0
M  V30 3448 H 321.061 -3.11865 -3.95925 0
M  V30 3449 H 320.663 -3.00294 -2.22934 0
M  V30 3450 H 322.955 -4.61407 -4.96094 0
M  V30 3451 H 323.898 -5.82168 -4.03095 0
M  V30 3452 H 324.306 -4.08544 -3.89554 0
M  V30 3453 N 323.704 0.605807 -1.45491 0
M  V30 3454 C 324.654 1.71074 -1.50724 0
M  V30 3455 C 325.638 1.5658 -0.37033 0
M  V30 3456 O 326.83 1.65887 -0.617299 0
M  V30 3457 C 323.959 3.0983 -1.47852 0
M  V30 3458 C 323.045 3.29704 -2.66751 0
M  V30 3459 N 323.436 3.19831 -3.91844 0
M  V30 3460 C 321.734 3.60579 -2.62486 0
M  V30 3461 C 322.435 3.41083 -4.71208 0
M  V30 3462 N 321.411 3.65157 -4.02693 0
M  V30 3463 H 325.213 1.61937 -2.45263 0
M  V30 3464 H 322.727 0.80912 -1.40808 0
M  V30 3465 H 324.724 3.89101 -1.49686 0
M  V30 3466 H 323.384 3.20115 -0.543714 0
M  V30 3467 H 324.395 2.98194 -4.23439 0
M  V30 3468 H 321.072 3.7769 -1.77922 0
M  V30 3469 H 322.462 3.38828 -5.80211 0
M  V30 3470 N 325.182 1.32811 0.848464 0
M  V30 3471 C 326.43 1.23479 1.59991 0
M  V30 3472 C 326.751 -0.201853 1.93952 0
M  V30 3473 O 326.021 -1.12818 1.60153 0
M  V30 3474 H 324.601 0.454034 0.593179 0
M  V30 3475 H 327.263 1.66412 1.01455 0
M  V30 3476 H 326.359 1.82178 2.53412 0
M  V30 3477 N 326.66 -1.06551 1.16123 0
M  V30 3478 C 327.623 -2.12132 0.867906 0
M  V30 3479 C 328.623 -1.60224 -0.135944 0
M  V30 3480 O 329.813 -1.73943 0.0946422 0
M  V30 3481 C 326.945 -3.396 0.297419 0
M  V30 3482 H 328.138 -2.39586 1.80385 0
M  V30 3483 H 325.691 -1.22574 0.969812 0
M  V30 3484 H 326.426 -3.17794 -0.64633 0
M  V30 3485 H 326.211 -3.78581 1.02073 0
M  V30 3486 H 327.701 -4.17455 0.110052 0
M  V30 3487 N 328.138 -0.959301 -1.25041 0
M  V30 3488 C 329.366 -0.633949 -1.96948 0
M  V30 3489 C 329.781 0.794916 -1.7125 0
M  V30 3490 O 329.138 1.53231 -0.991287 0
M  V30 3491 C 329.189 -0.888805 -3.50403 0
M  V30 3492 O 328.91 -2.26149 -3.75218 0
M  V30 3493 C 330.411 -0.576482 -4.39536 0
M  V30 3494 H 327.631 -0.237263 -0.627652 0
M  V30 3495 H 330.175 -1.28495 -1.59089 0
M  V30 3496 H 328.33 -0.284145 -3.86357 0
M  V30 3497 H 328.744 -2.33514 -4.6965 0
M  V30 3498 H 330.218 -0.805314 -5.46094 0
M  V30 3499 H 330.695 0.489075 -4.36468 0
M  V30 3500 H 331.301 -1.16067 -4.09156 0
M  V30 3501 N 329.616 1.39756 -0.72842 0
M  V30 3502 C 330.865 1.99879 -0.270407 0
M  V30 3503 C 331.178 1.58449 1.14688 0
M  V30 3504 O 332.384 2.11362 1.70407 0
M  V30 3505 C 330.84 3.57292 -0.43252 0
M  V30 3506 C 330.448 4.07688 -1.85727 0
M  V30 3507 C 332.192 4.24485 -0.0359507 0
M  V30 3508 C 330.099 5.5765 -1.96928 0
M  V30 3509 H 329.029 0.747689 -0.0973472 0
M  V30 3510 H 331.68 1.59837 -0.901355 0
M  V30 3511 H 330.062 3.95097 0.267219 0
M  V30 3512 H 331.236 3.81231 -2.58843 0
M  V30 3513 H 329.551 3.53135 -2.20646 0
M  V30 3514 H 332.148 5.34609 -0.0987484 0
M  V30 3515 H 332.491 4.03915 1.00787 0
M  V30 3516 H 333.024 3.9183 -0.686604 0
M  V30 3517 H 329.763 5.8309 -2.99476 0
M  V30 3518 H 329.283 5.8593 -1.28241 0
M  V30 3519 H 330.962 6.22957 -1.74737 0
M  V30 3520 N 331.094 0.475555 1.50254 0
M  V30 3521 C 332.024 -0.30611 2.31485 0
M  V30 3522 C 333.005 -0.986228 1.38591 0
M  V30 3523 O 334.19 -0.982541 1.67511 0
M  V30 3524 C 331.32 -1.38588 3.1845 0
M  V30 3525 C 330.274 -0.827115 4.19932 0
M  V30 3526 C 329.6 -2.00551 4.95665 0
M  V30 3527 C 330.9 0.16463 5.2204 0
M  V30 3528 H 332.594 0.371866 2.97082 0
M  V30 3529 H 330.14 0.180282 1.42867 0
M  V30 3530 H 332.093 -1.94023 3.74076 0
M  V30 3531 H 330.817 -2.09269 2.50747 0
M  V30 3532 H 329.476 -0.294702 3.65414 0
M  V30 3533 H 329.124 -2.6994 4.2443 0
M  V30 3534 H 328.824 -1.63784 5.64313 0
M  V30 3535 H 330.348 -2.56468 5.54127 0
M  V30 3536 H 331.762 -0.300699 5.72511 0
M  V30 3537 H 330.159 0.446813 5.98434 0
M  V30 3538 H 331.229 1.08905 4.72512 0
M  V30 3539 N 332.573 -1.56217 0.208337 0
M  V30 3540 C 333.536 -2.18455 -0.693557 0
M  V30 3541 C 334.536 -1.14268 -1.13135 0
M  V30 3542 O 335.726 -1.39577 -1.0423 0
M  V30 3543 C 332.858 -2.79727 -1.94848 0
M  V30 3544 H 334.051 -2.99519 -0.15114 0
M  V30 3545 H 331.604 -1.56245 -0.041287 0
M  V30 3546 H 332.339 -2.02497 -2.53309 0
M  V30 3547 H 332.124 -3.56009 -1.64316 0
M  V30 3548 H 333.614 -3.27475 -2.59133 0
M  V30 3549 N 334.051 0.0651679 -1.57465 0
M  V30 3550 C 335.297 0.764193 -1.87851 0
M  V30 3551 C 335.63 1.76889 -0.801495 0
M  V30 3552 O 334.905 1.93594 0.187528 0
M  V30 3553 C 335.188 1.46625 -3.28897 0
M  V30 3554 C 335.041 0.477515 -4.47258 0
M  V30 3555 C 336.36 2.4095 -3.68281 0
M  V30 3556 H 333.479 0.276351 -0.683227 0
M  V30 3557 H 336.121 0.0272868 -1.8998 0
M  V30 3558 H 334.271 2.09438 -3.27212 0
M  V30 3559 H 335.943 -0.145922 -4.61069 0
M  V30 3560 H 334.186 -0.206576 -4.33308 0
M  V30 3561 H 334.857 1.0065 -5.42746 0
M  V30 3562 H 337.333 1.88209 -3.71102 0
M  V30 3563 H 336.209 2.87072 -4.67847 0
M  V30 3564 H 336.47 3.26049 -2.98571 0
M  V30 3565 N 335.529 1.53961 0.336706 0
M  V30 3566 C 336.754 1.75797 1.10046 0
M  V30 3567 C 337.179 0.498985 1.81361 0
M  V30 3568 O 336.537 -0.548769 1.72795 0
M  V30 3569 C 336.585 2.94257 2.08436 0
M  V30 3570 O 335.689 2.64883 3.16087 0
M  V30 3571 H 335.03 0.582936 0.317934 0
M  V30 3572 H 337.56 2.00945 0.38501 0
M  V30 3573 H 337.57 3.21237 2.51537 0
M  V30 3574 H 336.245 3.85564 1.55927 0
M  V30 3575 H 334.822 2.48812 2.77753 0
M  V30 3576 N 337.007 -0.598083 1.45811 0
M  V30 3577 C 338.423 -0.919847 1.30426 0
M  V30 3578 C 338.623 -1.99759 0.264303 0
M  V30 3579 O 337.679 -2.50221 -0.338472 0
M  V30 3580 C 338.992 -1.35176 2.68603 0
M  V30 3581 C 340.54 -1.46546 2.76574 0
M  V30 3582 C 341.015 -1.9311 4.15298 0
M  V30 3583 N 342.506 -2.00328 4.1764 0
M  V30 3584 C 343.241 -2.37599 5.21856 0
M  V30 3585 N 342.737 -2.73771 6.36413 0
M  V30 3586 N 344.53 -2.38021 5.09218 0
M  V30 3587 H 336.681 0.114111 2.12093 0
M  V30 3588 H 338.944 -0.0116121 0.947929 0
M  V30 3589 H 338.65 -0.633969 3.45939 0
M  V30 3590 H 338.524 -2.3164 2.97696 0
M  V30 3591 H 340.911 -2.17415 1.99537 0
M  V30 3592 H 340.992 -0.483727 2.51185 0
M  V30 3593 H 340.636 -1.22824 4.92825 0
M  V30 3594 H 340.566 -2.92213 4.38086 0
M  V30 3595 H 343.057 -1.74925 3.34977 0
M  V30 3596 H 343.37 -3.0112 7.11721 0
M  V30 3597 H 341.715 -2.71445 6.39799 0
M  V30 3598 H 344.906 -2.09174 4.18765 0
M  V30 3599 H 345.079 -2.66741 5.90554 0
M  V30 3600 N 338.485 -1.33259 -0.841409 0
M  V30 3601 C 339.732 -1.24572 -1.5965 0
M  V30 3602 C 340.06 0.189137 -1.93578 0
M  V30 3603 O 339.315 1.14566 -1.5866 0
M  V30 3604 C 339.614 -2.06381 -2.9179 0
M  V30 3605 C 339.28 -3.556 -2.77235 0
M  V30 3606 C 337.942 -3.96282 -2.72973 0
M  V30 3607 C 340.294 -4.50433 -2.62221 0
M  V30 3608 C 337.622 -5.30017 -2.51592 0
M  V30 3609 C 339.974 -5.84327 -2.42374 0
M  V30 3610 C 338.638 -6.24194 -2.36512 0
M  V30 3611 H 337.908 -0.455842 -0.5842 0
M  V30 3612 H 340.555 -1.6482 -0.975016 0
M  V30 3613 H 338.86 -1.58903 -3.5813 0
M  V30 3614 H 340.557 -1.97019 -3.49263 0
M  V30 3615 H 337.147 -3.23298 -2.81384 0
M  V30 3616 H 341.331 -4.19914 -2.64549 0
M  V30 3617 H 336.587 -5.59947 -2.45499 0
M  V30 3618 H 340.761 -6.57414 -2.29739 0
M  V30 3619 H 338.388 -7.27759 -2.19706 0
M  V30 3620 N 339.963 1.05934 -1.16686 0
M  V30 3621 C 341.211 1.78447 -0.948744 0
M  V30 3622 C 341.532 1.87813 0.524523 0
M  V30 3623 O 340.802 1.38945 1.38098 0
M  V30 3624 H 339.382 0.660971 -0.348033 0
M  V30 3625 H 342.044 1.27947 -1.47022 0
M  V30 3626 H 341.14 2.80394 -1.37061 0
M  V30 3627 N 341.441 0.965919 1.2453 0
M  V30 3628 C 342.689 0.625593 1.92174 0
M  V30 3629 C 343.01 -0.841652 1.75901 0
M  V30 3630 O 342.28 -1.60061 1.12948 0
M  V30 3631 H 340.86 0.228388 0.71123 0
M  V30 3632 H 343.522 1.2266 1.51461 0
M  V30 3633 H 342.618 0.864653 2.99884 0
M  V30 3634 N 342.919 -1.39368 0.735821 0
M  V30 3635 C 343.829 -2.34395 0.0979693 0
M  V30 3636 C 344.845 -1.58361 -0.720968 0
M  V30 3637 O 346.021 -1.90648 -0.649245 0
M  V30 3638 C 343.086 -3.37393 -0.797916 0
M  V30 3639 C 342.147 -4.29287 0.0333662 0
M  V30 3640 C 341.38 -5.27365 -0.819854 0
M  V30 3641 O 341.603 -5.31959 -2.05855 0
M  V30 3642 O 340.537 -6.01389 -0.248079 0
M  V30 3643 H 344.363 -2.90601 0.882315 0
M  V30 3644 H 341.948 -1.40909 0.4965 0
M  V30 3645 H 343.83 -4.00505 -1.31048 0
M  V30 3646 H 342.505 -2.83571 -1.56106 0
M  V30 3647 H 341.412 -3.69395 0.591475 0
M  V30 3648 H 342.745 -4.86317 0.758752 0
M  V30 3649 N 344.397 -0.483516 -1.5 0
M  V30 3650 C 345.813 -0.138404 -1.58999 0
M  V30 3651 C 346.013 1.35597 -1.4905 0
M  V30 3652 O 345.069 2.13039 -1.35539 0
M  V30 3653 C 346.382 -0.699658 -2.92447 0
M  V30 3654 C 347.93 -0.664195 -3.05872 0
M  V30 3655 C 348.405 -1.20321 -4.41913 0
M  V30 3656 N 349.896 -1.16315 -4.48358 0
M  V30 3657 C 350.631 -1.55058 -5.52037 0
M  V30 3658 N 350.127 -2.01311 -6.62907 0
M  V30 3659 N 351.92 -1.46584 -5.42651 0
M  V30 3660 H 344.071 -1.45529 -1.5471 0
M  V30 3661 H 346.334 -0.60258 -0.731848 0
M  V30 3662 H 346.04 -1.747 -3.05242 0
M  V30 3663 H 345.914 -0.150194 -3.76901 0
M  V30 3664 H 348.301 0.374272 -2.92717 0
M  V30 3665 H 348.382 -1.25061 -2.23144 0
M  V30 3666 H 348.026 -2.24037 -4.55818 0
M  V30 3667 H 347.956 -0.592896 -5.23252 0
M  V30 3668 H 350.447 -0.824058 -3.68806 0
M  V30 3669 H 350.76 -2.2899 -7.38095 0
M  V30 3670 H 349.105 -2.05273 -6.63994 0
M  V30 3671 H 352.296 -1.10281 -4.54924 0
M  V30 3672 H 352.469 -1.77103 -6.23329 0
M  V30 3673 N 345.875 1.56104 -0.216619 0
M  V30 3674 C 346.785 2.23694 0.706982 0
M  V30 3675 C 347.801 1.24295 1.21765 0
M  V30 3676 O 348.977 1.57094 1.2603 0
M  V30 3677 C 346.042 2.8998 1.90033 0
M  V30 3678 C 345.103 4.04708 1.43213 0
M  V30 3679 C 344.336 4.67824 2.56859 0
M  V30 3680 O 344.559 4.29913 3.74874 0
M  V30 3681 O 343.493 5.56905 2.28343 0
M  V30 3682 H 347.319 3.03272 0.161235 0
M  V30 3683 H 344.904 1.49394 0.0136177 0
M  V30 3684 H 346.786 3.31837 2.59735 0
M  V30 3685 H 345.461 2.13365 2.43428 0
M  V30 3686 H 344.368 3.6743 0.70327 0
M  V30 3687 H 345.701 4.83051 0.944615 0
M  V30 3688 N 347.353 -0.0568162 1.57498 0
M  V30 3689 C 348.283 -1.06593 2.0775 0
M  V30 3690 C 349.264 -1.39448 0.974082 0
M  V30 3691 O 350.449 -1.48815 1.24771 0
M  V30 3692 C 347.579 -2.37509 2.5339 0
M  V30 3693 C 346.533 -2.1897 3.67745 0
M  V30 3694 C 345.859 -3.55402 3.99492 0
M  V30 3695 C 347.159 -1.59859 4.97235 0
M  V30 3696 H 348.853 -0.647706 2.9231 0
M  V30 3697 H 346.399 -0.310116 1.40621 0
M  V30 3698 H 348.352 -3.08409 2.87162 0
M  V30 3699 H 347.076 -2.8134 1.65878 0
M  V30 3700 H 345.735 -1.50508 3.3428 0
M  V30 3701 H 345.383 -3.9683 3.09088 0
M  V30 3702 H 345.083 -3.43831 4.76502 0
M  V30 3703 H 346.607 -4.27708 4.35773 0
M  V30 3704 H 348.021 -2.20642 5.29141 0
M  V30 3705 H 346.418 -1.58942 5.78669 0
M  V30 3706 H 347.488 -0.561506 4.81638 0
M  V30 3707 N 348.832 -1.54138 -0.328536 0
M  V30 3708 C 349.742 -1.86192 -1.42723 0
M  V30 3709 C 350.758 -0.753382 -1.56844 0
M  V30 3710 O 351.934 -1.04718 -1.72035 0
M  V30 3711 C 348.999 -2.07824 -2.77507 0
M  V30 3712 C 348.06 -3.31641 -2.72603 0
M  V30 3713 C 347.293 -3.52232 -4.00959 0
M  V30 3714 O 347.516 -2.7636 -4.9898 0
M  V30 3715 O 346.45 -4.45699 -4.0452 0
M  V30 3716 H 350.276 -2.79608 -1.18547 0
M  V30 3717 H 347.861 -1.3998 -0.522104 0
M  V30 3718 H 349.743 -2.23411 -3.57303 0
M  V30 3719 H 348.418 -1.17596 -3.01584 0
M  V30 3720 H 347.325 -3.21444 -1.91376 0
M  V30 3721 H 348.658 -4.2191 -2.53481 0
M  V30 3722 N 350.31 0.590341 -1.46126 0
M  V30 3723 C 351.242 1.71427 -1.52136 0
M  V30 3724 C 352.255 1.57542 -0.41042 0
M  V30 3725 O 353.444 1.65106 -0.678389 0
M  V30 3726 C 350.544 3.09605 -1.37834 0
M  V30 3727 C 349.717 3.49566 -2.62912 0
M  V30 3728 C 348.776 4.66773 -2.42918 0
M  V30 3729 O 347.802 4.73019 -3.1661 0
M  V30 3730 N 349.004 5.61161 -1.4859 0
M  V30 3731 H 351.769 1.66728 -2.49042 0
M  V30 3732 H 349.33 0.776113 -1.42085 0
M  V30 3733 H 351.322 3.85796 -1.22243 0
M  V30 3734 H 349.892 3.08714 -0.491393 0
M  V30 3735 H 349.112 2.63158 -2.93499 0
M  V30 3736 H 350.4 3.73028 -3.46017 0
M  V30 3737 H 349.798 5.58844 -0.87808 0
M  V30 3738 H 348.355 6.36814 -1.38965 0
M  V30 3739 N 351.788 1.33704 0.83433 0
M  V30 3740 C 353.037 1.24763 1.58484 0
M  V30 3741 C 353.35 -0.183775 1.94735 0
M  V30 3742 O 354.556 -0.395234 2.68608 0
M  V30 3743 C 353.012 2.18638 2.85876 0
M  V30 3744 C 352.62 3.66974 2.56971 0
M  V30 3745 C 354.364 2.18581 3.63899 0
M  V30 3746 C 352.271 4.5275 3.80488 0
M  V30 3747 H 351.201 0.463425 0.594772 0
M  V30 3748 H 353.852 1.58797 0.919551 0
M  V30 3749 H 352.234 1.77542 3.5397 0
M  V30 3750 H 353.408 4.16538 1.9706 0
M  V30 3751 H 351.723 3.69366 1.92244 0
M  V30 3752 H 354.32 2.79894 4.55591 0
M  V30 3753 H 354.663 1.18207 3.99165 0
M  V30 3754 H 355.196 2.58062 3.02735 0
M  V30 3755 H 351.935 5.54017 3.5035 0
M  V30 3756 H 351.455 4.07927 4.39722 0
M  V30 3757 H 353.134 4.66784 4.4802 0
M  V30 3758 N 353.266 -1.05314 1.17247 0
M  V30 3759 C 354.229 -2.112 0.890357 0
M  V30 3760 C 355.229 -1.60359 -0.118943 0
M  V30 3761 O 356.419 -1.73833 0.113086 0
M  V30 3762 C 353.551 -3.39266 0.333422 0
M  V30 3763 H 354.744 -2.37659 1.82916 0
M  V30 3764 H 352.297 -1.21538 0.982758 0
M  V30 3765 H 353.032 -3.18462 -0.612587 0
M  V30 3766 H 352.817 -3.77477 1.06082 0
M  V30 3767 H 354.307 -4.17315 0.154322 0
M  V30 3768 N 354.744 -0.972509 -1.24016 0
M  V30 3769 C 356.021 -0.553733 -1.87598 0
M  V30 3770 C 356.401 0.969158 -1.87538 0
M  V30 3771 O 355.749 1.84255 -1.35139 0
M  V30 3772 C 355.959 -1.15076 -3.29482 0
M  V30 3773 C 357.307 -1.23862 -4.06132 0
M  V30 3774 O 358.331 -1.10363 -3.38672 0
M  V30 3775 O 357.19 -1.45252 -5.26844 0
M  V30 3776 H 354.284 -0.185331 -0.805966 0
M  V30 3777 H 356.83 -1.06709 -1.31952 0
M  V30 3778 H 355.602 -2.19333 -3.2405 0
M  V30 3779 H 355.225 -0.621746 -3.92709 0
M  V30 3780 N 356.222 1.38976 -0.743202 0
M  V30 3781 C 357.638 1.53984 -0.419664 0
M  V30 3782 C 357.838 1.70837 1.0685 0
M  V30 3783 O 356.894 1.7135 1.8546 0
M  V30 3784 C 358.207 2.75287 -1.20985 0
M  V30 3785 C 359.755 2.89129 -1.19889 0
M  V30 3786 C 360.23 4.13381 -1.97181 0
M  V30 3787 N 361.721 4.20437 -1.94389 0
M  V30 3788 C 362.456 5.15547 -2.50996 0
M  V30 3789 N 361.952 6.16395 -3.16274 0
M  V30 3790 N 363.745 5.07822 -2.40984 0
M  V30 3791 H 355.896 1.26285 -1.7078 0
M  V30 3792 H 358.159 0.612689 -0.723406 0
M  V30 3793 H 357.865 2.69204 -2.26323 0
M  V30 3794 H 357.739 3.68184 -0.819759 0
M  V30 3795 H 360.126 2.947 -0.153606 0
M  V30 3796 H 360.207 1.97272 -1.62841 0
M  V30 3797 H 359.851 4.08572 -3.01714 0
M  V30 3798 H 359.781 5.04298 -1.51629 0
M  V30 3799 H 362.272 3.48205 -1.46839 0
M  V30 3800 H 362.585 6.85443 -3.56915 0
M  V30 3801 H 360.93 6.16758 -3.20367 0
M  V30 3802 H 364.121 4.27973 -1.89622 0
M  V30 3803 H 364.294 5.81767 -2.85397 0
M  V30 3804 N 357.7 0.491464 1.49741 0
M  V30 3805 C 358.948 -0.0563141 2.02022 0
M  V30 3806 C 359.269 -1.38363 1.37407 0
M  V30 3807 O 358.539 -1.88702 0.526166 0
M  V30 3808 H 357.119 -0.0238014 0.746621 0
M  V30 3809 H 359.781 0.646533 1.83864 0
M  V30 3810 H 358.877 -0.192967 3.11503 0
M  V30 3811 N 359.178 -1.55987 0.224894 0
M  V30 3812 C 360.406 -2.02784 -0.410665 0
M  V30 3813 C 360.821 -1.10464 -1.53112 0
M  V30 3814 O 360.178 -0.114871 -1.82138 0
M  V30 3815 C 360.229 -3.49087 -0.939165 0
M  V30 3816 O 359.95 -4.37887 0.136614 0
M  V30 3817 C 361.451 -4.11543 -1.64763 0
M  V30 3818 H 358.671 -0.663484 -0.100148 0
M  V30 3819 H 361.215 -2.01614 0.342326 0
M  V30 3820 H 359.37 -3.50861 -1.64242 0
M  V30 3821 H 359.784 -5.23849 -0.261155 0
M  V30 3822 H 361.258 -5.15673 -1.96939 0
M  V30 3823 H 361.735 -3.56736 -2.56195 0
M  V30 3824 H 362.341 -4.13629 -0.989503 0
M  V30 3825 N 360.656 0.0484629 -1.57525 0
M  V30 3826 C 361.619 1.03956 -2.04269 0
M  V30 3827 C 362.619 1.30211 -0.943496 0
M  V30 3828 O 363.809 1.25539 -1.20771 0
M  V30 3829 C 360.941 2.37742 -2.44319 0
M  V30 3830 H 362.134 0.636182 -2.93075 0
M  V30 3831 H 359.687 0.294811 -1.53494 0
M  V30 3832 H 360.422 2.82866 -1.5861 0
M  V30 3833 H 360.207 2.20021 -3.24551 0
M  V30 3834 H 361.697 3.08936 -2.80978 0
M  V30 3835 N 362.134 1.5431 0.320358 0
M  V30 3836 C 363.097 1.83195 1.3774 0
M  V30 3837 C 364.097 0.703906 1.44575 0
M  V30 3838 O 365.287 0.972214 1.44546 0
M  V30 3839 C 362.419 1.99487 2.76438 0
M  V30 3840 H 363.612 2.77642 1.1338 0
M  V30 3841 H 361.165 1.46076 0.556012 0
M  V30 3842 H 361.9 1.07262 3.06048 0
M  V30 3843 H 361.685 2.81575 2.7287 0
M  V30 3844 H 363.175 2.23271 3.52902 0
M  V30 3845 N 363.613 -0.582584 1.46437 0
M  V30 3846 C 364.523 -1.71949 1.59595 0
M  V30 3847 C 365.539 -1.67264 0.479443 0
M  V30 3848 O 366.715 -1.87171 0.743579 0
M  V30 3849 C 363.78 -3.08452 1.58298 0
M  V30 3850 C 362.841 -3.244 2.81182 0
M  V30 3851 C 362.074 -4.54391 2.79937 0
M  V30 3852 O 362.297 -5.38287 1.8869 0
M  V30 3853 O 361.231 -4.73588 3.71481 0
M  V30 3854 H 365.057 -1.63795 2.55744 0
M  V30 3855 H 362.642 -0.749643 1.29231 0
M  V30 3856 H 364.524 -3.89732 1.60271 0
M  V30 3857 H 363.199 -3.17043 0.653094 0
M  V30 3858 H 362.106 -2.42613 2.84763 0
M  V30 3859 H 363.439 -3.20699 3.7338 0
M  V30 3860 N 365.091 -1.34144 -0.827227 0
M  V30 3861 C 366.507 -1.13732 -1.11969 0
M  V30 3862 C 366.707 0.0640463 -2.01398 0
M  V30 3863 O 365.763 0.740856 -2.41387 0
M  V30 3864 C 367.076 -2.43047 -1.77055 0
M  V30 3865 C 368.624 -2.49063 -1.89569 0
M  V30 3866 C 369.099 -3.78369 -2.58072 0
M  V30 3867 N 370.59 -3.79505 -2.65575 0
M  V30 3868 C 371.325 -4.76274 -3.19297 0
M  V30 3869 N 370.821 -5.83424 -3.73616 0
M  V30 3870 N 372.614 -4.63735 -3.17658 0
M  V30 3871 H 364.765 -2.11126 -0.232296 0
M  V30 3872 H 367.028 -0.933424 -0.165602 0
M  V30 3873 H 366.734 -3.31025 -1.18807 0
M  V30 3874 H 366.608 -2.56066 -2.76966 0
M  V30 3875 H 368.995 -1.61527 -2.46968 0
M  V30 3876 H 369.076 -2.39975 -0.885745 0
M  V30 3877 H 368.72 -4.66293 -2.01329 0
M  V30 3878 H 368.65 -3.84737 -3.59562 0
M  V30 3879 H 371.141 -3.02074 -2.27068 0
M  V30 3880 H 371.454 -6.53282 -4.12846 0
M  V30 3881 H 369.799 -5.87143 -3.71871 0
M  V30 3882 H 372.99 -3.79177 -2.74486 0
M  V30 3883 H 373.163 -5.39318 -3.59221 0
M  V30 3884 N 366.569 1.04691 -1.17803 0
M  V30 3885 C 367.532 2.10724 -0.901545 0
M  V30 3886 C 368.532 1.6042 0.110437 0
M  V30 3887 O 369.722 1.7377 -0.122303 0
M  V30 3888 C 366.854 3.39084 -0.351409 0
M  V30 3889 H 368.047 2.36686 -1.84174 0
M  V30 3890 H 365.6 1.21015 -0.98919 0
M  V30 3891 H 366.335 3.18782 0.59569 0
M  V30 3892 H 366.12 3.76909 -1.08083 0
M  V30 3893 H 367.61 4.17227 -0.176451 0
M  V30 3894 N 368.047 0.979072 1.23499 0
M  V30 3895 C 369.01 0.523244 2.23147 0
M  V30 3896 C 370.01 -0.386406 1.56088 0
M  V30 3897 O 371.2 -0.180283 1.73265 0
M  V30 3898 C 368.332 -0.240739 3.40049 0
M  V30 3899 H 369.525 1.40432 2.64989 0
M  V30 3900 H 367.078 0.764824 1.36309 0
M  V30 3901 H 367.813 -1.13841 3.03662 0
M  V30 3902 H 367.598 0.412207 3.89927 0
M  V30 3903 H 369.088 -0.548297 4.13985 0
M  V30 3904 N 369.525 -1.3858 0.750561 0
M  V30 3905 C 370.455 -2.33102 0.136237 0
M  V30 3906 C 371.436 -1.54713 -0.706965 0
M  V30 3907 O 372.621 -1.83043 -0.648769 0
M  V30 3908 C 369.751 -3.38882 -0.760017 0
M  V30 3909 C 368.705 -4.27995 -0.0197785 0
M  V30 3910 C 368.031 -5.24605 -1.03408 0
M  V30 3911 C 369.331 -5.09554 1.14684 0
M  V30 3912 H 371.025 -2.84726 0.925822 0
M  V30 3913 H 368.571 -1.36898 0.446654 0
M  V30 3914 H 370.524 -4.0397 -1.19943 0
M  V30 3915 H 369.248 -2.85734 -1.58189 0
M  V30 3916 H 367.907 -3.64409 0.400184 0
M  V30 3917 H 367.555 -4.67746 -1.84994 0
M  V30 3918 H 367.255 -5.85081 -0.543464 0
M  V30 3919 H 368.779 -5.9257 -1.47288 0
M  V30 3920 H 370.193 -5.67899 0.785118 0
M  V30 3921 H 368.59 -5.7925 1.56812 0
M  V30 3922 H 369.66 -4.4347 1.96118 0
M  V30 3923 N 371.003 -0.499398 -1.49478 0
M  V30 3924 C 372.25 0.0456899 -2.02448 0
M  V30 3925 C 372.578 1.37142 -1.37921 0
M  V30 3926 O 371.833 1.89111 -0.503544 0
M  V30 3927 C 372.132 0.248424 -3.56536 0
M  V30 3928 C 371.798 -0.999107 -4.39692 0
M  V30 3929 C 370.46 -1.34108 -4.62135 0
M  V30 3930 C 372.812 -1.82842 -4.88076 0
M  V30 3931 C 370.14 -2.51191 -5.30208 0
M  V30 3932 C 372.492 -2.99076 -5.57437 0
M  V30 3933 C 371.156 -3.33655 -5.78127 0
M  V30 3934 H 370.426 0.0167191 -0.740811 0
M  V30 3935 H 373.073 -0.65923 -1.79795 0
M  V30 3936 H 371.378 1.03586 -3.77859 0
M  V30 3937 H 373.075 0.684605 -3.95113 0
M  V30 3938 H 369.665 -0.722729 -4.22463 0
M  V30 3939 H 373.849 -1.57737 -4.70566 0
M  V30 3940 H 369.105 -2.78221 -5.44429 0
M  V30 3941 H 373.279 -3.63664 -5.93904 0
M  V30 3942 H 370.906 -4.24483 -6.30649 0
M  V30 3943 N 372.481 1.55866 -0.233164 0
M  V30 3944 C 373.727 1.99643 0.389148 0
M  V30 3945 C 374.082 1.11836 1.56558 0
M  V30 3946 O 373.375 0.170848 1.90837 0
M  V30 3947 C 373.569 3.46856 0.861724 0
M  V30 3948 C 373.398 4.48904 -0.267376 0
M  V30 3949 C 372.168 4.99888 -0.737577 0
M  V30 3950 C 374.366 5.02624 -1.08966 0
M  V30 3951 N 372.348 5.8566 -1.84052 0
M  V30 3952 C 373.719 5.85434 -2.04125 0
M  V30 3953 C 375.774 4.84959 -1.12779 0
M  V30 3954 C 374.477 6.52466 -3.02789 0
M  V30 3955 C 376.503 5.52759 -2.10266 0
M  V30 3956 C 375.865 6.35346 -3.04162 0
M  V30 3957 H 371.964 0.774402 0.108742 0
M  V30 3958 H 374.548 1.91572 -0.347596 0
M  V30 3959 H 372.719 3.55352 1.5678 0
M  V30 3960 H 374.451 3.77531 1.45783 0
M  V30 3961 H 371.206 4.7249 -0.324122 0
M  V30 3962 H 371.63 6.33246 -2.39434 0
M  V30 3963 H 376.272 4.20751 -0.415749 0
M  V30 3964 H 373.99 7.15849 -3.74948 0
M  V30 3965 H 377.576 5.41051 -2.13905 0
M  V30 3966 H 376.456 6.86883 -3.78366 0
M  V30 3967 N 373.959 -0.0401083 1.57549 0
M  V30 3968 C 375.375 -0.395556 1.54621 0
M  V30 3969 C 375.575 -1.77281 0.957799 0
M  V30 3970 O 374.631 -2.45888 0.574031 0
M  V30 3971 C 375.944 -0.307535 2.99123 0
M  V30 3972 C 377.492 -0.385425 3.10618 0
M  V30 3973 C 377.967 -0.326973 4.56831 0
M  V30 3974 N 379.458 -0.386102 4.61588 0
M  V30 3975 C 380.193 -0.363591 5.72246 0
M  V30 3976 N 379.689 -0.29402 6.92176 0
M  V30 3977 N 381.482 -0.412503 5.60584 0
M  V30 3978 H 373.633 0.861325 1.94152 0
M  V30 3979 H 375.896 0.326445 0.890021 0
M  V30 3980 H 375.602 0.638461 3.45856 0
M  V30 3981 H 375.476 -1.10552 3.60636 0
M  V30 3982 H 377.863 -1.32185 2.63839 0
M  V30 3983 H 377.944 0.44171 2.51957 0
M  V30 3984 H 377.588 0.605738 5.04275 0
M  V30 3985 H 377.518 -1.17207 5.13391 0
M  V30 3986 H 380.009 -0.442832 3.75296 0
M  V30 3987 H 380.322 -0.28164 7.72287 0
M  V30 3988 H 378.667 -0.260232 6.94513 0
M  V30 3989 H 381.858 -0.464769 4.65787 0
M  V30 3990 H 382.031 -0.391492 6.46816 0
M  V30 3991 N 375.437 -1.54477 -0.31217 0
M  V30 3992 C 376.683 -1.74417 -1.04644 0
M  V30 3993 C 377.038 -0.517641 -1.85306 0
M  V30 3994 O 376.331 0.489973 -1.85229 0
M  V30 3995 C 376.525 -2.967 -1.99258 0
M  V30 3996 C 376.354 -4.31128 -1.27901 0
M  V30 3997 C 375.124 -4.95087 -1.01079 0
M  V30 3998 C 377.322 -5.09662 -0.689119 0
M  V30 3999 N 375.304 -6.13322 -0.266323 0
M  V30 4000 C 376.675 -6.19952 -0.0768523 0
M  V30 4001 C 378.73 -4.94355 -0.593061 0
M  V30 4002 C 377.433 -7.16604 0.622165 0
M  V30 4003 C 379.459 -5.91328 0.0922792 0
M  V30 4004 C 378.821 -7.00978 0.693443 0
M  V30 4005 H 374.92 -0.69094 -0.366231 0
M  V30 4006 H 377.504 -1.91946 -0.326319 0
M  V30 4007 H 375.675 -2.80616 -2.68532 0
M  V30 4008 H 377.407 -3.05216 -2.65755 0
M  V30 4009 H 374.162 -4.55235 -1.30607 0
M  V30 4010 H 374.586 -6.76937 0.0920973 0
M  V30 4011 H 379.228 -4.09719 -1.04355 0
M  V30 4012 H 376.946 -8.0079 1.08445 0
M  V30 4013 H 380.532 -5.81562 0.166396 0
M  V30 4014 H 379.412 -7.74725 1.21533 0
M  V30 4015 N 376.915 0.57481 -1.46744 0
M  V30 4016 C 378.143 1.35856 -1.56047 0
M  V30 4017 C 378.558 1.87691 -0.204365 0
M  V30 4018 O 377.915 1.64049 0.79963 0
M  V30 4019 C 377.966 2.54066 -2.57163 0
M  V30 4020 O 377.687 2.04377 -3.87507 0
M  V30 4021 C 379.188 3.46514 -2.76483 0
M  V30 4022 H 376.408 0.414754 -0.527466 0
M  V30 4023 H 378.952 0.698035 -1.92218 0
M  V30 4024 H 377.107 3.16092 -2.23974 0
M  V30 4025 H 377.521 2.81419 -4.4261 0
M  V30 4026 H 378.995 4.25919 -3.51137 0
M  V30 4027 H 379.472 3.98951 -1.83671 0
M  V30 4028 H 380.078 2.90318 -3.10799 0
M  V30 4029 N 378.394 1.34581 0.820102 0
M  V30 4030 C 379.327 1.20735 1.93644 0
M  V30 4031 C 380.305 0.0983343 1.62302 0
M  V30 4032 O 381.489 0.263997 1.86642 0
M  V30 4033 C 378.616 0.856037 3.27704 0
M  V30 4034 C 377.662 1.97521 3.78005 0
M  V30 4035 S 378.495 3.58906 3.97425 0
M  V30 4036 C 379.651 3.25822 5.34407 0
M  V30 4037 H 379.884 2.15231 2.05093 0
M  V30 4038 H 377.417 1.1964 0.97599 0
M  V30 4039 H 379.375 0.660133 4.05157 0
M  V30 4040 H 378.036 -0.0706253 3.14021 0
M  V30 4041 H 377.229 1.68321 4.75062 0
M  V30 4042 H 376.831 2.12875 3.07507 0
M  V30 4043 H 379.123 2.77812 6.17922 0
M  V30 4044 H 380.066 4.22029 5.68592 0
M  V30 4045 H 380.474 2.61932 5.00052 0
M  V30 4046 N 379.872 -1.04064 1.18357 0
M  V30 4047 C 381.12 -1.76915 0.977013 0
M  V30 4048 C 381.441 -1.88624 -0.494577 0
M  V30 4049 O 380.711 -1.41125 -1.3587 0
M  V30 4050 H 379.291 -0.65535 0.358504 0
M  V30 4051 H 381.953 -1.25592 1.49039 0
M  V30 4052 H 381.049 -2.78178 1.41504 0
M  V30 4053 N 381.35 -0.985608 -1.22978 0
M  V30 4054 C 382.597 -0.657386 -1.91532 0
M  V30 4055 C 382.925 0.809707 -1.76845 0
M  V30 4056 O 382.18 1.60021 -1.12658 0
M  V30 4057 C 382.479 -1.00014 -3.43121 0
M  V30 4058 C 382.145 -2.4583 -3.77993 0
M  V30 4059 C 380.807 -2.85679 -3.87222 0
M  V30 4060 C 383.159 -3.40378 -3.94705 0
M  V30 4061 C 380.487 -4.19081 -4.10595 0
M  V30 4062 C 382.839 -4.73429 -4.1958 0
M  V30 4063 C 381.503 -5.1303 -4.27032 0
M  V30 4064 H 380.773 -0.240555 -0.700867 0
M  V30 4065 H 383.42 -1.24044 -1.45895 0
M  V30 4066 H 381.725 -0.335072 -3.90365 0
M  V30 4067 H 383.422 -0.724322 -3.94404 0
M  V30 4068 H 380.012 -2.13939 -3.71387 0
M  V30 4069 H 384.196 -3.10766 -3.8696 0
M  V30 4070 H 379.452 -4.49362 -4.14589 0
M  V30 4071 H 383.626 -5.46644 -4.31455 0
M  V30 4072 H 381.253 -6.16418 -4.44896 0
M  V30 4073 N 382.828 1.3818 -0.7579 0
M  V30 4074 C 383.776 2.32277 -0.122482 0
M  V30 4075 C 384.77 1.54238 0.700505 0
M  V30 4076 O 385.976 1.69737 0.599119 0
M  V30 4077 H 382.351 0.751712 -0.0208143 0
M  V30 4078 H 384.322 2.83469 -0.932099 0
M  V30 4079 C 383.071 3.39447 0.753076 0
M  V30 4080 H 382.394 3.99591 0.129184 0
M  V30 4081 H 383.834 4.07684 1.16489 0
M  V30 4082 C 382.293 2.78375 1.8976 0
M  V30 4083 O 382.823 2.68025 2.99208 0
M  V30 4084 N 381.029 2.36121 1.69397 0
M  V30 4085 H 380.576 2.4474 0.803762 0
M  V30 4086 H 380.534 1.95602 2.46145 0
M  V30 4087 N 384.306 0.507319 1.49211 0
M  V30 4088 C 385.269 -0.256763 2.27757 0
M  V30 4089 C 386.269 -0.888287 1.34038 0
M  V30 4090 O 387.459 -0.751841 1.5714 0
M  V30 4091 C 384.591 -1.36905 3.12202 0
M  V30 4092 H 385.784 0.432557 2.96764 0
M  V30 4093 H 383.337 0.262488 1.5408 0
M  V30 4094 H 384.072 -2.09233 2.47775 0
M  V30 4095 H 383.857 -0.921599 3.81115 0
M  V30 4096 H 385.347 -1.9071 3.7151 0
M  V30 4097 N 385.784 -1.5574 0.241426 0
M  V30 4098 C 387.012 -2.03208 -0.389134 0
M  V30 4099 C 387.427 -1.12082 -1.51931 0
M  V30 4100 O 386.784 -0.134183 -1.82006 0
M  V30 4101 C 386.835 -3.50064 -0.902087 0
M  V30 4102 O 386.556 -4.37717 0.18305 0
M  V30 4103 C 388.057 -4.13268 -1.60389 0
M  V30 4104 H 385.277 -0.664509 -0.0931053 0
M  V30 4105 H 387.821 -2.0124 0.36369 0
M  V30 4106 H 385.976 -3.52583 -1.60511 0
M  V30 4107 H 386.39 -5.24097 -0.205579 0
M  V30 4108 H 387.864 -5.17733 -1.91458 0
M  V30 4109 H 388.341 -3.59434 -2.52397 0
M  V30 4110 H 388.947 -4.14655 -0.945576 0
M  V30 4111 N 387.262 0.0317525 -1.57568 0
M  V30 4112 C 388.195 1.06621 -2.0176 0
M  V30 4113 C 389.173 1.35323 -0.901462 0
M  V30 4114 O 390.357 1.48025 -1.16708 0
M  V30 4115 C 387.484 2.40155 -2.38837 0
M  V30 4116 C 386.53 2.27327 -3.60867 0
M  V30 4117 S 387.363 1.62925 -5.10113 0
M  V30 4118 C 388.519 2.97955 -5.5043 0
M  V30 4119 H 388.752 0.689781 -2.89187 0
M  V30 4120 H 386.285 0.24164 -1.52497 0
M  V30 4121 H 388.243 3.1695 -2.6087 0
M  V30 4122 H 386.904 2.74946 -1.51867 0
M  V30 4123 H 386.097 3.25898 -3.84456 0
M  V30 4124 H 385.699 1.58675 -3.38671 0
M  V30 4125 H 387.991 3.94285 -5.5095 0
M  V30 4126 H 388.934 2.79102 -6.50775 0
M  V30 4127 H 389.342 3.00404 -4.77931 0
M  V30 4128 N 388.74 1.54641 0.303973 0
M  V30 4129 C 389.65 1.88439 1.39743 0
M  V30 4130 C 390.666 0.778239 1.55626 0
M  V30 4131 O 391.842 1.07442 1.70347 0
M  V30 4132 C 388.907 2.12212 2.74166 0
M  V30 4133 C 387.968 3.35936 2.67293 0
M  V30 4134 C 387.201 3.58566 3.95305 0
M  V30 4135 O 387.424 2.84263 4.9452 0
M  V30 4136 O 386.358 4.52078 3.97378 0
M  V30 4137 H 390.184 2.81458 1.14083 0
M  V30 4138 H 387.769 1.40793 0.499768 0
M  V30 4139 H 389.651 2.29067 3.53704 0
M  V30 4140 H 388.326 1.22379 2.99675 0
M  V30 4141 H 387.233 3.24448 1.86237 0
M  V30 4142 H 388.566 4.2589 2.46736 0
M  V30 4143 N 390.218 -0.567019 1.47046 0
M  V30 4144 C 391.466 -1.322 1.52864 0
M  V30 4145 C 391.787 -1.94088 0.188388 0
M  V30 4146 O 391.057 -1.7941 -0.786693 0
M  V30 4147 H 389.637 -0.490894 0.563056 0
M  V30 4148 H 392.299 -0.662879 1.83281 0
M  V30 4149 H 391.395 -2.12062 2.2899 0
M  V30 4150 N 391.696 -1.35014 -0.812953 0
M  V30 4151 C 392.945 -1.27269 -1.56479 0
M  V30 4152 C 393.258 0.152771 -1.95002 0
M  V30 4153 O 394.464 0.352451 -2.69203 0
M  V30 4154 C 392.92 -2.23159 -2.82362 0
M  V30 4155 C 392.528 -3.71016 -2.511 0
M  V30 4156 C 394.272 -2.24342 -3.60376 0
M  V30 4157 C 392.179 -4.58746 -3.73237 0
M  V30 4158 H 391.109 -0.472829 -0.587324 0
M  V30 4159 H 393.76 -1.6024 -0.894171 0
M  V30 4160 H 392.142 -1.83151 -3.51101 0
M  V30 4161 H 393.316 -4.1962 -1.90409 0
M  V30 4162 H 391.631 -3.72378 -1.86343 0
M  V30 4163 H 394.228 -2.87107 -4.51081 0
M  V30 4164 H 394.571 -1.24542 -3.97234 0
M  V30 4165 H 395.104 -2.62846 -2.98591 0
M  V30 4166 H 391.843 -5.59521 -3.41492 0
M  V30 4167 H 391.363 -4.14871 -4.33176 0
M  V30 4168 H 393.042 -4.73852 -4.40537 0
M  V30 4169 N 393.175 1.03435 -1.18907 0
M  V30 4170 C 394.125 2.09924 -0.889706 0
M  V30 4171 C 395.109 1.60261 0.143216 0
M  V30 4172 O 396.301 1.76892 -0.0617122 0
M  V30 4173 C 393.43 3.40669 -0.424168 0
M  V30 4174 C 392.516 3.97082 -1.48952 0
M  V30 4175 N 392.907 4.27227 -2.70759 0
M  V30 4176 C 391.205 4.25029 -1.35152 0
M  V30 4177 C 391.906 4.7246 -3.39347 0
M  V30 4178 N 390.882 4.7366 -2.66735 0
M  V30 4179 H 394.684 2.31116 -1.81555 0
M  V30 4180 H 392.198 1.21246 -1.08042 0
M  V30 4181 H 394.195 4.16461 -0.191176 0
M  V30 4182 H 392.855 3.20901 0.495263 0
M  V30 4183 H 393.866 4.16678 -3.0757 0
M  V30 4184 H 390.543 4.14554 -0.495126 0
M  V30 4185 H 391.933 5.04751 -4.43481 0
M  V30 4186 N 394.653 0.992116 1.22453 0
M  V30 4187 C 396.069 0.702713 1.43297 0
M  V30 4188 C 396.269 -0.726909 1.87932 0
M  V30 4189 O 395.325 -1.49792 2.0327 0
M  V30 4190 C 396.638 1.70762 2.47509 0
M  V30 4191 C 398.186 1.72298 2.61309 0
M  V30 4192 C 398.661 2.71649 3.68742 0
M  V30 4193 N 400.152 2.70239 3.76199 0
M  V30 4194 C 400.887 3.43778 4.58917 0
M  V30 4195 N 400.383 4.26914 5.45633 0
M  V30 4196 N 402.176 3.32487 4.5322 0
M  V30 4197 H 394.327 1.91543 0.917871 0
M  V30 4198 H 396.59 0.826031 0.465162 0
M  V30 4199 H 396.296 2.73059 2.21657 0
M  V30 4200 H 396.17 1.49985 3.46099 0
M  V30 4201 H 398.557 0.706989 2.86506 0
M  V30 4202 H 398.638 1.97143 1.62997 0
M  V30 4203 H 398.282 3.73397 3.44292 0
M  V30 4204 H 398.212 2.44074 4.66622 0
M  V30 4205 H 400.703 2.09912 3.14237 0
M  V30 4206 H 401.016 4.79855 6.05771 0
M  V30 4207 H 399.361 4.31002 5.45218 0
M  V30 4208 H 402.552 2.6698 3.84499 0
M  V30 4209 H 402.725 3.90058 5.17454 0
M  V30 4210 N 396.131 -1.37776 0.765217 0
M  V30 4211 C 397.377 -2.00604 0.336066 0
M  V30 4212 C 397.732 -1.59657 -1.07366 0
M  V30 4213 O 397.025 -0.829565 -1.7271 0
M  V30 4214 C 397.219 -3.5504 0.410053 0
M  V30 4215 C 397.048 -4.10985 1.82542 0
M  V30 4216 C 395.818 -4.42229 2.44461 0
M  V30 4217 C 398.016 -4.32438 2.78392 0
M  V30 4218 N 395.998 -4.8385 3.77839 0
M  V30 4219 C 397.369 -4.76596 3.96556 0
M  V30 4220 C 399.424 -4.14559 2.75764 0
M  V30 4221 C 398.127 -5.04748 5.12466 0
M  V30 4222 C 400.153 -4.43843 3.90842 0
M  V30 4223 C 399.515 -4.88235 5.07746 0
M  V30 4224 H 395.614 -0.763325 0.169881 0
M  V30 4225 H 398.198 -1.67197 0.997656 0
M  V30 4226 H 396.369 -3.87769 -0.221325 0
M  V30 4227 H 398.101 -4.0468 -0.0405285 0
M  V30 4228 H 394.856 -4.31079 1.96131 0
M  V30 4229 H 395.28 -5.08979 4.46396 0
M  V30 4230 H 399.922 -3.79415 1.86558 0
M  V30 4231 H 397.64 -5.38783 6.02277 0
M  V30 4232 H 401.226 -4.31603 3.90141 0
M  V30 4233 H 400.106 -5.10461 5.95315 0
M  V30 4234 N 397.609 -0.515225 -1.4894 0
M  V30 4235 C 398.572 0.244681 -2.2789 0
M  V30 4236 C 399.572 0.881166 -1.34507 0
M  V30 4237 O 400.762 0.743497 -1.57537 0
M  V30 4238 C 397.894 1.35247 -3.12923 0
M  V30 4239 H 399.087 -0.448289 -2.96531 0
M  V30 4240 H 396.64 -0.270656 -1.53939 0
M  V30 4241 H 397.375 2.07916 -2.48881 0
M  V30 4242 H 397.16 0.901374 -3.81599 0
M  V30 4243 H 398.65 1.88737 -3.72516 0
M  V30 4244 N 399.087 1.5561 -0.249682 0
M  V30 4245 C 400.336 1.98187 0.37479 0
M  V30 4246 C 400.649 1.14111 1.58865 0
M  V30 4247 O 401.855 1.46714 2.28445 0
M  V30 4248 C 400.311 3.52661 0.718192 0
M  V30 4249 C 399.919 4.45481 -0.474428 0
M  V30 4250 C 401.663 4.03888 1.3067 0
M  V30 4251 C 399.57 5.91303 -0.107026 0
M  V30 4252 H 398.5 0.740159 0.143808 0
M  V30 4253 H 401.151 1.80125 -0.350336 0
M  V30 4254 H 399.533 3.66429 1.50152 0
M  V30 4255 H 400.707 4.43473 -1.25172 0
M  V30 4256 H 399.022 4.04751 -0.978052 0
M  V30 4257 H 401.619 5.10358 1.59496 0
M  V30 4258 H 401.962 3.51401 2.23211 0
M  V30 4259 H 402.495 3.93457 0.586211 0
M  V30 4260 H 399.234 6.47833 -0.999642 0
M  V30 4261 H 398.754 5.9644 0.634013 0
M  V30 4262 H 400.433 6.46258 0.309807 0
M  V30 4263 N 400.565 -0.0233959 1.57583 0
M  V30 4264 C 401.811 -0.708611 1.90657 0
M  V30 4265 C 402.166 -1.7266 0.848895 0
M  V30 4266 O 401.459 -1.91075 -0.141749 0
M  V30 4267 C 401.653 -1.41428 3.28227 0
M  V30 4268 C 401.482 -0.466155 4.47277 0
M  V30 4269 C 400.252 -0.085117 5.05228 0
M  V30 4270 C 402.45 0.257836 5.13653 0
M  V30 4271 N 400.432 0.863672 6.07794 0
M  V30 4272 C 401.803 1.06209 6.10835 0
M  V30 4273 C 403.858 0.324174 4.96844 0
M  V30 4274 C 402.561 1.9266 6.93018 0
M  V30 4275 C 404.587 1.17583 5.79593 0
M  V30 4276 C 403.949 1.96799 6.7635 0
M  V30 4277 H 400.048 -0.233222 0.746412 0
M  V30 4278 H 402.632 0.0314512 1.94675 0
M  V30 4279 H 400.803 -2.12477 3.25128 0
M  V30 4280 H 402.535 -2.05233 3.488 0
M  V30 4281 H 399.29 -0.448516 4.71471 0
M  V30 4282 H 399.714 1.33274 6.63752 0
M  V30 4283 H 404.356 -0.273975 4.21911 0
M  V30 4284 H 402.074 2.53552 7.67292 0
M  V30 4285 H 405.66 1.23076 5.68633 0
M  V30 4286 H 404.54 2.61635 7.39268 0
M  V30 4287 N 402.043 -1.548 -0.295768 0
M  V30 4288 C 402.976 -1.81003 -1.38972 0
M  V30 4289 C 403.954 -0.661544 -1.48534 0
M  V30 4290 O 405.138 -0.902074 -1.65514 0
M  V30 4291 C 402.265 -1.95141 -2.76835 0
M  V30 4292 C 401.311 -3.17592 -2.84671 0
M  V30 4293 S 402.144 -4.75531 -2.46232 0
M  V30 4294 C 403.3 -4.92613 -3.86114 0
M  V30 4295 H 403.533 -2.73507 -1.16537 0
M  V30 4296 H 401.066 -1.46278 -0.494168 0
M  V30 4297 H 403.024 -2.03972 -3.56238 0
M  V30 4298 H 401.685 -1.03565 -2.96535 0
M  V30 4299 H 400.878 -3.24303 -3.85803 0
M  V30 4300 H 400.48 -3.07235 -2.13267 0
M  V30 4301 H 402.772 -4.76957 -4.81164 0
M  V30 4302 H 403.715 -5.94698 -3.8437 0
M  V30 4303 H 404.123 -4.2073 -3.76359 0
M  V30 4304 N 403.521 0.559213 -1.47345 0
M  V30 4305 C 404.484 1.64854 -1.59235 0
M  V30 4306 C 405.484 1.53851 -0.467607 0
M  V30 4307 O 406.674 1.58045 -0.732617 0
M  V30 4308 C 403.806 3.04388 -1.53496 0
M  V30 4309 H 404.999 1.55662 -2.56339 0
M  V30 4310 H 402.552 0.778973 -1.35505 0
M  V30 4311 H 403.287 3.19115 -0.577604 0
M  V30 4312 H 403.072 3.13783 -2.35123 0
M  V30 4313 H 404.562 3.83642 -1.6495 0
M  V30 4314 N 404.999 1.35443 0.805782 0
M  V30 4315 C 406.245 1.28952 1.56522 0
M  V30 4316 C 406.578 -0.135597 1.93726 0
M  V30 4317 O 405.853 -1.08516 1.61414 0
M  V30 4318 C 406.136 2.19678 2.85331 0
M  V30 4319 C 405.989 3.7081 2.54598 0
M  V30 4320 C 407.308 2.09495 3.8704 0
M  V30 4321 H 404.427 0.469764 0.567883 0
M  V30 4322 H 407.069 1.65851 0.927001 0
M  V30 4323 H 405.219 1.8834 3.39795 0
M  V30 4324 H 406.891 4.12593 2.06312 0
M  V30 4325 H 405.134 3.91051 1.8778 0
M  V30 4326 H 405.805 4.29679 3.46525 0
M  V30 4327 H 408.281 2.37045 3.41978 0
M  V30 4328 H 407.157 2.75173 4.74943 0
M  V30 4329 H 407.418 1.07714 4.28777 0
M  V30 4330 N 406.477 -1.02803 1.19454 0
M  V30 4331 C 407.407 -2.12999 0.956758 0
M  V30 4332 C 408.388 -1.69743 -0.110188 0
M  V30 4333 O 409.573 -1.94148 0.0450038 0
M  V30 4334 C 406.703 -3.43746 0.495553 0
M  V30 4335 C 405.657 -4.00688 1.50443 0
M  V30 4336 C 404.983 -5.27067 0.900275 0
M  V30 4337 C 406.283 -4.35397 2.8849 0
M  V30 4338 H 407.977 -2.33148 1.87836 0
M  V30 4339 H 405.523 -1.12045 0.904539 0
M  V30 4340 H 407.476 -4.2021 0.316493 0
M  V30 4341 H 406.2 -3.23321 -0.461646 0
M  V30 4342 H 404.859 -3.2632 1.67065 0
M  V30 4343 H 404.507 -5.02959 -0.064503 0
M  V30 4344 H 404.207 -5.66127 1.57397 0
M  V30 4345 H 405.731 -6.06196 0.73203 0
M  V30 4346 H 407.145 -5.02795 2.75446 0
M  V30 4347 H 405.542 -4.85541 3.52661 0
M  V30 4348 H 406.612 -3.44662 3.41081 0
M  V30 4349 N 407.956 -0.998596 -1.21925 0
M  V30 4350 C 409.202 -0.678667 -1.91107 0
M  V30 4351 C 409.535 0.78791 -1.77498 0
M  V30 4352 O 408.81 1.57043 -1.1475 0
M  V30 4353 C 409.093 -1.09245 -3.43129 0
M  V30 4354 C 408.946 -2.61801 -3.6576 0
M  V30 4355 C 410.265 -0.649984 -4.35274 0
M  V30 4356 H 407.384 -0.248025 -0.694012 0
M  V30 4357 H 410.026 -1.24314 -1.43688 0
M  V30 4358 H 408.176 -0.612171 -3.83647 0
M  V30 4359 H 409.848 -3.17543 -3.34611 0
M  V30 4360 H 408.091 -3.03609 -3.09845 0
M  V30 4361 H 408.762 -2.85804 -4.7225 0
M  V30 4362 H 411.238 -1.0626 -4.02303 0
M  V30 4363 H 410.114 -0.967743 -5.40302 0
M  V30 4364 H 410.375 0.449139 -4.39813 0
M  V30 4365 N 409.434 1.37368 -0.772513 0
M  V30 4366 C 410.662 2.03942 -0.348588 0
M  V30 4367 C 411.077 1.58264 1.02947 0
M  V30 4368 O 410.434 0.764246 1.65727 0
M  V30 4369 C 410.485 3.5946 -0.38351 0
M  V30 4370 O 410.206 4.03468 -1.70721 0
M  V30 4371 C 411.707 4.4327 0.0519152 0
M  V30 4372 H 408.927 0.654931 -0.145966 0
M  V30 4373 H 411.471 1.75686 -1.04665 0
M  V30 4374 H 409.626 3.86486 0.265978 0
M  V30 4375 H 410.04 4.97991 -1.64636 0
M  V30 4376 H 411.514 5.51995 -0.0236733 0
M  V30 4377 H 411.991 4.2514 1.10238 0
M  V30 4378 H 412.597 4.21471 -0.569415 0
M  V30 4379 N 410.912 0.523116 1.48665 0
M  V30 4380 C 411.842 -0.23231 2.32342 0
M  V30 4381 C 412.823 -0.941637 1.41659 0
M  V30 4382 O 414.008 -0.928751 1.70552 0
M  V30 4383 C 411.138 -1.28387 3.22698 0
M  V30 4384 C 410.092 -0.693098 4.22351 0
M  V30 4385 C 409.418 -1.8468 5.01794 0
M  V30 4386 C 410.718 0.33063 5.21252 0
M  V30 4387 H 412.412 0.466192 2.95748 0
M  V30 4388 H 409.958 0.225643 1.42221 0
M  V30 4389 H 411.911 -1.82024 3.80059 0
M  V30 4390 H 410.635 -2.01186 2.57278 0
M  V30 4391 H 409.294 -0.178299 3.66166 0
M  V30 4392 H 408.942 -2.56301 4.32804 0
M  V30 4393 H 408.642 -1.45747 5.69238 0
M  V30 4394 H 410.166 -2.38709 5.62006 0
M  V30 4395 H 411.58 -0.118407 5.73178 0
M  V30 4396 H 409.977 0.636974 5.9671 0
M  V30 4397 H 411.047 1.23883 4.68808 0
M  V30 4398 N 412.39 -1.55475 0.257931 0
M  V30 4399 C 413.618 -2.03609 -0.367559 0
M  V30 4400 C 414.033 -1.13687 -1.50734 0
M  V30 4401 O 413.39 -0.153479 -1.81853 0
M  V30 4402 C 413.441 -3.51001 -0.864908 0
M  V30 4403 O 413.162 -4.37499 0.229465 0
M  V30 4404 C 414.663 -4.14946 -1.55997 0
M  V30 4405 H 411.883 -0.665459 -0.0860521 0
M  V30 4406 H 414.427 -2.00843 0.385014 0
M  V30 4407 H 412.582 -3.54266 -1.56762 0
M  V30 4408 H 412.996 -5.24286 -0.14998 0
M  V30 4409 H 414.47 -5.19735 -1.85956 0
M  V30 4410 H 414.947 -3.6209 -2.4857 0
M  V30 4411 H 415.553 -4.15635 -0.901543 0
M  V30 4412 N 413.868 0.0150385 -1.57593 0
M  V30 4413 C 415.116 0.701613 -1.8953 0
M  V30 4414 C 415.437 1.75139 -0.857396 0
M  V30 4415 O 414.707 1.95607 0.107194 0
M  V30 4416 H 413.287 0.26213 -0.699498 0
M  V30 4417 H 415.949 -0.0223304 -1.94887 0
M  V30 4418 H 415.045 1.18236 -2.88837 0
M  V30 4419 N 415.346 1.54954 0.287554 0
M  V30 4420 C 416.594 1.74528 1.01904 0
M  V30 4421 C 416.915 0.541349 1.87335 0
M  V30 4422 O 416.185 -0.444108 1.908 0
M  V30 4423 H 414.765 0.643576 0.379235 0
M  V30 4424 H 417.427 1.92333 0.315294 0
M  V30 4425 H 416.523 2.64015 1.6644 0
M  V30 4426 N 416.824 -0.551391 1.4764 0
M  V30 4427 C 418.073 -1.30467 1.53822 0
M  V30 4428 C 418.386 -1.94495 0.207661 0
M  V30 4429 O 419.592 -2.71099 0.147533 0
M  V30 4430 C 418.048 -2.36616 2.71184 0
M  V30 4431 C 417.656 -1.78754 4.10793 0
M  V30 4432 C 419.4 -3.13088 2.86663 0
M  V30 4433 C 417.307 -2.82717 5.19447 0
M  V30 4434 H 416.237 -0.490584 0.572576 0
M  V30 4435 H 418.888 -0.58494 1.73927 0
M  V30 4436 H 417.27 -3.11529 2.4447 0
M  V30 4437 H 418.444 -1.10173 4.47435 0
M  V30 4438 H 416.759 -1.14846 4.00249 0
M  V30 4439 H 419.356 -3.90736 3.65007 0
M  V30 4440 H 419.699 -3.67635 1.95321 0
M  V30 4441 H 420.232 -2.45288 3.13175 0
M  V30 4442 H 416.971 -2.33018 6.12685 0
M  V30 4443 H 416.491 -3.4969 4.87316 0
M  V30 4444 H 418.17 -3.46102 5.46646 0
M  V30 4445 N 418.302 -1.35869 -0.798587 0
M  V30 4446 C 419.55 -1.29332 -1.55298 0
M  V30 4447 C 419.871 0.129729 -1.94568 0
M  V30 4448 O 419.141 1.06796 -1.6423 0
M  V30 4449 H 417.721 -0.475737 -0.57592 0
M  V30 4450 H 420.383 -1.70062 -0.952093 0
M  V30 4451 H 419.479 -1.91458 -2.46476 0
M  V30 4452 N 419.78 1.02168 -1.19998 0
M  V30 4453 C 421.029 1.75091 -1.0013 0
M  V30 4454 C 421.342 1.89923 0.467835 0
M  V30 4455 O 422.548 2.59888 0.785515 0
M  V30 4456 C 421.004 3.14892 -1.74273 0
M  V30 4457 C 420.612 3.0809 -3.25245 0
M  V30 4458 C 422.356 3.9206 -1.62755 0
M  V30 4459 C 420.263 4.42867 -3.91948 0
M  V30 4460 H 419.193 0.656394 -0.37103 0
M  V30 4461 H 421.844 1.14284 -1.43567 0
M  V30 4462 H 420.226 3.7621 -1.2362 0
M  V30 4463 H 421.4 2.5611 -3.83072 0
M  V30 4464 H 419.715 2.44416 -3.3712 0
M  V30 4465 H 422.312 4.91764 -2.09934 0
M  V30 4466 H 422.655 4.12199 -0.582894 0
M  V30 4467 H 423.188 3.37359 -2.10793 0
M  V30 4468 H 419.927 4.27931 -4.96543 0
M  V30 4469 H 419.447 4.94874 -3.3891 0
M  V30 4470 H 421.126 5.11728 -3.95909 0
M  V30 4471 N 421.258 1.00505 1.21394 0
M  V30 4472 C 422.188 0.585684 2.26035 0
M  V30 4473 C 423.169 -0.393525 1.65485 0
M  V30 4474 O 424.354 -0.281497 1.92149 0
M  V30 4475 C 421.484 -0.0884283 3.47187 0
M  V30 4476 C 420.438 0.810567 4.20254 0
M  V30 4477 C 419.764 0.00286382 5.347 0
M  V30 4478 C 421.064 2.1132 4.77641 0
M  V30 4479 H 422.758 1.46039 2.61368 0
M  V30 4480 H 420.304 0.703648 1.25638 0
M  V30 4481 H 422.257 -0.393286 4.19561 0
M  V30 4482 H 420.981 -0.997766 3.10986 0
M  V30 4483 H 419.64 1.09925 3.49731 0
M  V30 4484 H 419.288 -0.907765 4.94741 0
M  V30 4485 H 418.988 0.601444 5.84514 0
M  V30 4486 H 420.512 -0.295808 6.09883 0
M  V30 4487 H 421.926 1.87148 5.41893 0
M  V30 4488 H 420.323 2.66164 5.37845 0
M  V30 4489 H 421.393 2.78393 3.9702 0
M  V30 4490 N 422.737 -1.36956 0.779787 0
M  V30 4491 C 423.667 -2.32761 0.185651 0
M  V30 4492 C 424.648 -1.56177 -0.673989 0
M  V30 4493 O 425.833 -1.84378 -0.609797 0
M  V30 4494 C 422.963 -3.40418 -0.687964 0
M  V30 4495 C 421.917 -4.27941 0.0710102 0
M  V30 4496 C 421.243 -5.26681 -0.922573 0
M  V30 4497 C 422.543 -5.07006 1.25467 0
M  V30 4498 H 424.237 -2.82698 0.986008 0
M  V30 4499 H 421.783 -1.3592 0.475592 0
M  V30 4500 H 423.736 -4.06423 -1.11348 0
M  V30 4501 H 422.46 -2.89025 -1.52093 0
M  V30 4502 H 421.119 -3.63478 0.47739 0
M  V30 4503 H 420.767 -4.71565 -1.7503 0
M  V30 4504 H 420.467 -5.86103 -0.419237 0
M  V30 4505 H 421.991 -5.9556 -1.34686 0
M  V30 4506 H 423.405 -5.66105 0.905401 0
M  V30 4507 H 421.802 -5.75793 1.69063 0
M  V30 4508 H 422.872 -4.3921 2.05481 0
M  V30 4509 N 424.215 -0.530993 -1.48385 0
M  V30 4510 C 425.44 0.000729535 -2.074 0
M  V30 4511 C 425.865 1.27298 -1.3848 0
M  V30 4512 O 425.223 1.75599 -0.451081 0
M  V30 4513 C 425.271 0.206697 -3.60007 0
M  V30 4514 O 424.375 1.27514 -3.92191 0
M  V30 4515 H 423.716 -0.039583 -0.662819 0
M  V30 4516 H 426.246 -0.739194 -1.9078 0
M  V30 4517 H 426.256 0.42904 -4.05738 0
M  V30 4518 H 424.931 -0.722675 -4.09573 0
M  V30 4519 H 423.508 1.03537 -3.58238 0
M  V30 4520 N 425.693 1.55336 -0.266172 0
M  V30 4521 C 426.941 1.99003 0.35246 0
M  V30 4522 C 427.262 1.15591 1.57047 0
M  V30 4523 O 426.532 0.243268 1.94384 0
M  V30 4524 H 425.112 0.735025 0.133217 0
M  V30 4525 H 427.774 1.91367 -0.369434 0
M  V30 4526 H 426.87 3.05289 0.648453 0
M  V30 4527 N 427.171 -0.0066808 1.57599 0
M  V30 4528 C 428.399 -0.704087 1.94551 0
M  V30 4529 C 428.814 -1.67677 0.867746 0
M  V30 4530 O 428.171 -1.8185 -0.153925 0
M  V30 4531 C 428.222 -1.44177 3.31505 0
M  V30 4532 O 427.943 -0.508097 4.35144 0
M  V30 4533 C 429.444 -2.23429 3.82876 0
M  V30 4534 H 426.664 -0.196523 0.641576 0
M  V30 4535 H 429.208 0.042453 2.04456 0
M  V30 4536 H 427.363 -2.13999 3.22929 0
M  V30 4537 H 427.777 -1.02782 5.14331 0
M  V30 4538 H 429.251 -2.70552 4.8115 0
M  V30 4539 H 429.728 -3.05818 3.15233 0
M  V30 4540 H 430.334 -1.58636 3.94607 0
M  V30 4541 N 428.649 -1.55105 -0.279332 0
M  V30 4542 C 429.895 -1.75672 -1.01327 0
M  V30 4543 C 430.228 -0.552739 -1.86168 0
M  V30 4544 O 429.503 0.449827 -1.89227 0
M  V30 4545 C 429.786 -3.05825 -1.90114 0
M  V30 4546 C 429.639 -4.36565 -1.08309 0
M  V30 4547 C 430.958 -3.31975 -2.8893 0
M  V30 4548 H 428.077 -0.639149 -0.366957 0
M  V30 4549 H 430.719 -1.87833 -0.286154 0
M  V30 4550 H 428.869 -2.95588 -2.52111 0
M  V30 4551 H 430.541 -4.58751 -0.484314 0
M  V30 4552 H 428.784 -4.32076 -0.386362 0
M  V30 4553 H 429.455 -5.23946 -1.73737 0
M  V30 4554 H 431.931 -3.41963 -2.37067 0
M  V30 4555 H 430.807 -4.2432 -3.48201 0
M  V30 4556 H 431.068 -2.51309 -3.63725 0
M  V30 4557 N 430.127 0.543554 -1.4793 0
M  V30 4558 C 431.373 1.30201 -1.55485 0
M  V30 4559 C 431.706 1.92925 -0.222201 0
M  V30 4560 O 430.981 1.78586 0.77053 0
M  V30 4561 C 431.264 2.40174 -2.68307 0
M  V30 4562 C 431.117 1.8223 -4.11233 0
M  V30 4563 C 432.436 3.42024 -2.76961 0
M  V30 4564 H 429.555 0.472036 -0.565996 0
M  V30 4565 H 432.197 0.606914 -1.80046 0
M  V30 4566 H 430.347 2.99463 -2.47495 0
M  V30 4567 H 432.019 1.27096 -4.43446 0
M  V30 4568 H 430.262 1.12832 -4.18869 0
M  V30 4569 H 430.933 2.61793 -4.85972 0
M  V30 4570 H 433.409 2.92672 -2.95774 0
M  V30 4571 H 432.285 4.16383 -3.57654 0
M  V30 4572 H 432.546 4.0173 -1.84568 0
M  V30 4573 N 431.605 1.3629 0.791371 0
M  V30 4574 C 432.882 1.20962 1.53712 0
M  V30 4575 C 433.262 -0.205021 2.10102 0
M  V30 4576 O 432.61 -1.21042 1.93807 0
M  V30 4577 C 432.82 2.29002 2.63361 0
M  V30 4578 C 434.168 2.65572 3.31295 0
M  V30 4579 O 435.192 2.2803 2.73643 0
M  V30 4580 O 434.051 3.3018 4.35481 0
M  V30 4581 H 431.145 0.47086 0.679867 0
M  V30 4582 H 433.691 1.48016 0.830021 0
M  V30 4583 H 432.463 3.2382 2.19674 0
M  V30 4584 H 432.086 2.03303 3.41692 0
M  V30 4585 N 433.083 -1.0153 1.20538 0
M  V30 4586 C 434.031 -2.12215 0.952235 0
M  V30 4587 C 435.025 -1.69123 -0.0968735 0
M  V30 4588 O 436.231 -1.7992 0.0536006 0
M  V30 4589 H 432.606 -0.693576 0.290613 0
M  V30 4590 H 434.577 -2.3075 1.89201 0
M  V30 4591 C 433.326 -3.43755 0.522287 0
M  V30 4592 H 432.649 -3.7734 1.32115 0
M  V30 4593 H 434.089 -4.22254 0.384389 0
M  V30 4594 C 432.548 -3.28088 -0.765489 0
M  V30 4595 O 433.078 -3.57921 -1.8236 0
M  V30 4596 N 431.284 -2.81333 -0.728011 0
M  V30 4597 H 430.831 -2.57255 0.133332 0
M  V30 4598 H 430.789 -2.71232 -1.58999 0
M  V30 4599 N 434.561 -1.01147 -1.20859 0
M  V30 4600 C 435.807 -0.708598 -1.90658 0
M  V30 4601 C 436.162 0.753069 -1.7705 0
M  V30 4602 O 435.455 1.53952 -1.14059 0
M  V30 4603 C 435.649 -1.0727 -3.40922 0
M  V30 4604 C 435.478 -2.56821 -3.69152 0
M  V30 4605 C 434.248 -3.23524 -3.8815 0
M  V30 4606 C 436.446 -3.54997 -3.72131 0
M  V30 4607 N 434.428 -4.62359 -4.03853 0
M  V30 4608 C 435.799 -4.79371 -3.93196 0
M  V30 4609 C 437.854 -3.49042 -3.55069 0
M  V30 4610 C 436.557 -5.98512 -3.98969 0
M  V30 4611 C 438.583 -4.67579 -3.6211 0
M  V30 4612 C 437.945 -5.9076 -3.83643 0
M  V30 4613 H 434.044 -0.31088 -0.71755 0
M  V30 4614 H 436.628 -1.29526 -1.45366 0
M  V30 4615 H 434.799 -0.51443 -3.84978 0
M  V30 4616 H 436.531 -0.723891 -3.98173 0
M  V30 4617 H 433.286 -2.73958 -3.86321 0
M  V30 4618 H 433.71 -5.34427 -4.15592 0
M  V30 4619 H 438.352 -2.54808 -3.37391 0
M  V30 4620 H 436.07 -6.93132 -4.15444 0
M  V30 4621 H 439.656 -4.64581 -3.50222 0
M  V30 4622 H 438.536 -6.8095 -3.88944 0
M  V30 4623 N 436.039 1.36541 -0.78704 0
M  V30 4624 C 437.269 2.03266 -0.369662 0
M  V30 4625 C 437.677 1.59481 1.01796 0
M  V30 4626 O 437.02 0.778612 1.66383 0
M  V30 4627 C 437.082 3.57779 -0.351371 0
M  V30 4628 C 436.746 4.24756 -1.68617 0
M  V30 4629 C 437.743 4.47811 -2.64124 0
M  V30 4630 C 435.428 4.62277 -1.96481 0
M  V30 4631 C 437.422 5.07464 -3.85693 0
M  V30 4632 C 435.109 5.21649 -3.18317 0
M  V30 4633 C 436.107 5.44182 -4.12741 0
M  V30 4634 O 435.795 6.02307 -5.32429 0
M  V30 4635 H 435.527 0.658977 -0.150751 0
M  V30 4636 H 438.081 1.75548 -1.0664 0
M  V30 4637 H 436.311 3.84606 0.401847 0
M  V30 4638 H 438 4.05879 0.0410147 0
M  V30 4639 H 438.766 4.19221 -2.43883 0
M  V30 4640 H 434.645 4.44065 -1.23805 0
M  V30 4641 H 438.189 5.24968 -4.59407 0
M  V30 4642 H 434.086 5.49664 -3.38437 0
M  V30 4643 H 434.854 6.20775 -5.33461 0
M  V30 4644 N 437.518 0.538854 1.48102 0
M  V30 4645 C 438.764 0.00801365 2.02798 0
M  V30 4646 C 439.097 -1.3309 1.41424 0
M  V30 4647 O 438.372 -1.86169 0.563158 0
M  V30 4648 C 438.655 -0.104589 3.59948 0
M  V30 4649 C 438.508 1.26012 4.31788 0
M  V30 4650 C 439.827 -0.827055 4.32259 0
M  V30 4651 H 436.946 0.00438624 0.736987 0
M  V30 4652 H 439.588 0.6976 1.7673 0
M  V30 4653 H 437.738 -0.691893 3.82289 0
M  V30 4654 H 439.41 1.88922 4.2084 0
M  V30 4655 H 437.653 1.83968 3.92859 0
M  V30 4656 H 438.324 1.13424 5.40221 0
M  V30 4657 H 440.8 -0.328578 4.14801 0
M  V30 4658 H 439.676 -0.87476 5.41885 0
M  V30 4659 H 439.937 -1.87927 4.0017 0
M  V30 4660 N 438.996 -1.55193 0.274407 0
M  V30 4661 C 440.242 -2.00604 -0.33608 0
M  V30 4662 C 440.597 -1.15948 -1.53538 0
M  V30 4663 O 439.89 -0.221385 -1.90317 0
M  V30 4664 C 440.084 -3.49019 -0.769458 0
M  V30 4665 C 439.913 -4.48038 0.386301 0
M  V30 4666 C 438.683 -4.97757 0.869854 0
M  V30 4667 C 440.881 -4.99558 1.22254 0
M  V30 4668 N 438.863 -5.80575 1.99515 0
M  V30 4669 C 440.234 -5.79816 2.19575 0
M  V30 4670 C 442.289 -4.81799 1.25597 0
M  V30 4671 C 440.992 -6.44208 3.19981 0
M  V30 4672 C 443.018 -5.46989 2.24848 0
M  V30 4673 C 442.38 -6.27058 3.20901 0
M  V30 4674 H 438.479 -0.777013 -0.088172 0
M  V30 4675 H 441.063 -1.90583 0.398266 0
M  V30 4676 H 439.234 -3.59383 -1.47303 0
M  V30 4677 H 440.966 -3.81263 -1.35722 0
M  V30 4678 H 437.721 -4.71464 0.449281 0
M  V30 4679 H 438.145 -6.26675 2.5614 0
M  V30 4680 H 442.787 -4.19501 0.527158 0
M  V30 4681 H 440.505 -7.05656 3.93796 0
M  V30 4682 H 444.091 -5.35189 2.28174 0
M  V30 4683 H 442.971 -6.7661 3.96445 0
M  V30 4684 N 440.474 -0.00167713 -1.576 0
M  V30 4685 C 441.722 0.681471 -1.90264 0
M  V30 4686 C 442.043 1.7422 -0.875924 0
M  V30 4687 O 441.313 1.95709 0.0864412 0
M  V30 4688 H 439.893 0.254696 -0.702239 0
M  V30 4689 H 442.555 -0.0429996 -1.94853 0
M  V30 4690 H 441.651 1.15166 -2.90075 0
M  V30 4691 N 441.952 1.55251 0.271103 0
M  V30 4692 C 442.884 1.84675 1.35749 0
M  V30 4693 C 443.897 0.731366 1.45447 0
M  V30 4694 O 445.086 1.00924 1.4723 0
M  V30 4695 C 442.186 1.99638 2.73857 0
M  V30 4696 C 441.359 3.30312 2.86727 0
M  V30 4697 C 440.418 3.35318 4.05522 0
M  V30 4698 O 439.444 4.08682 3.96191 0
M  V30 4699 N 440.646 2.62857 5.17577 0
M  V30 4700 H 443.411 2.78445 1.10853 0
M  V30 4701 H 440.972 1.55191 0.461218 0
M  V30 4702 H 442.964 2.00355 3.51625 0
M  V30 4703 H 441.534 1.12725 2.91568 0
M  V30 4704 H 440.754 3.42118 1.95829 0
M  V30 4705 H 442.042 4.16488 2.92258 0
M  V30 4706 H 441.44 2.02939 5.28046 0
M  V30 4707 H 439.997 2.69295 5.93568 0
M  V30 4708 N 443.43 -0.535701 1.48216 0
M  V30 4709 C 444.378 -1.66179 1.62749 0
M  V30 4710 C 445.372 -1.62034 0.49409 0
M  V30 4711 O 446.578 -1.6696 0.672624 0
M  V30 4712 H 442.953 -0.550244 0.512578 0
M  V30 4713 H 444.924 -1.51063 2.57337 0
M  V30 4714 C 443.673 -3.04471 1.67907 0
M  V30 4715 H 442.996 -3.08351 2.54479 0
M  V30 4716 H 444.436 -3.82894 1.82121 0
M  V30 4717 C 442.895 -3.34314 0.416596 0
M  V30 4718 O 443.425 -3.98905 -0.473014 0
M  V30 4719 N 441.631 -2.89149 0.290038 0
M  V30 4720 H 441.178 -2.36764 1.01493 0
M  V30 4721 H 441.136 -3.09486 -0.55367 0
M  V30 4722 N 444.908 -1.36708 -0.784132 0
M  V30 4723 C 445.858 -1.2799 -1.88686 0
M  V30 4724 C 446.842 -0.170282 -1.59996 0
M  V30 4725 O 448.034 -0.403571 -1.72338 0
M  V30 4726 C 445.163 -1.07674 -3.25977 0
M  V30 4727 C 444.249 -2.23127 -3.60659 0
M  V30 4728 N 444.64 -3.48467 -3.66612 0
M  V30 4729 C 442.938 -2.15009 -3.90752 0
M  V30 4730 C 443.639 -4.24525 -3.97685 0
M  V30 4731 N 442.615 -3.53524 -4.12943 0
M  V30 4732 H 446.417 -2.22927 -1.91522 0
M  V30 4733 H 443.931 -1.29503 -0.979933 0
M  V30 4734 H 445.928 -0.995151 -4.04849 0
M  V30 4735 H 444.588 -0.13643 -3.24413 0
M  V30 4736 H 445.599 -3.82534 -3.49125 0
M  V30 4737 H 442.276 -1.28963 -3.97083 0
M  V30 4738 H 443.666 -5.32944 -4.0917 0
M  V30 4739 N 446.386 1.0089 -1.21074 0
M  V30 4740 C 447.634 1.74262 -1.02358 0
M  V30 4741 C 447.955 1.89869 0.444393 0
M  V30 4742 O 447.225 1.44677 1.32081 0
M  V30 4743 H 445.805 0.645615 -0.375754 0
M  V30 4744 H 448.467 1.21596 -1.52317 0
M  V30 4745 H 447.563 2.74328 -1.4883 0
M  V30 4746 N 447.864 1.01787 1.20321 0
M  V30 4747 C 448.797 0.533882 2.21867 0
M  V30 4748 C 449.775 -0.419361 1.57099 0
M  V30 4749 O 450.959 -0.339062 1.85426 0
M  V30 4750 C 448.086 -0.222899 3.37966 0
M  V30 4751 C 447.132 0.680091 4.21043 0
M  V30 4752 S 447.965 2.14997 4.90445 0
M  V30 4753 C 449.121 1.40339 6.09964 0
M  V30 4754 H 449.354 1.39429 2.62577 0
M  V30 4755 H 446.887 0.826867 1.30393 0
M  V30 4756 H 448.845 -0.653425 4.05266 0
M  V30 4757 H 447.506 -1.0589 2.95713 0
M  V30 4758 H 446.699 0.0964704 5.03908 0
M  V30 4759 H 446.301 1.04845 3.59004 0
M  V30 4760 H 448.593 0.68407 6.74038 0
M  V30 4761 H 449.536 2.20823 6.72787 0
M  V30 4762 H 449.944 0.905716 5.57187 0
M  V30 4763 N 449.342 -1.36122 0.79427 0
M  V30 4764 C 450.305 -2.28309 0.201889 0
M  V30 4765 C 451.305 -1.49041 -0.603603 0
M  V30 4766 O 452.495 -1.68964 -0.423888 0
M  V30 4767 C 449.627 -3.3321 -0.719978 0
M  V30 4768 H 450.82 -2.82208 1.01481 0
M  V30 4769 H 448.373 -1.45768 0.564037 0
M  V30 4770 H 449.108 -2.84475 -1.55706 0
M  V30 4771 H 448.893 -3.91835 -0.144266 0
M  V30 4772 H 450.383 -4.02044 -1.12916 0
M  V30 4773 N 450.82 -0.546701 -1.47814 0
M  V30 4774 C 452.231 -0.110564 -1.86372 0
M  V30 4775 C 452.582 1.31678 -1.45449 0
M  V30 4776 O 451.707 1.98889 -0.852758 0
M  V30 4777 C 452.302 -0.193873 -3.38245 0
M  V30 4778 C 450.861 0.187164 -3.75934 0
M  V30 4779 C 450.008 -0.546166 -2.71868 0
M  V30 4780 H 452.959 -0.757022 -1.39481 0
M  V30 4781 H 452.98 0.590218 -3.75895 0
M  V30 4782 H 452.492 -1.23282 -3.67999 0
M  V30 4783 H 450.593 1.22762 -3.51796 0
M  V30 4784 H 450.706 -0.164083 -4.78819 0
M  V30 4785 H 449.07 0.00953904 -2.54698 0
M  V30 4786 H 449.853 -1.58606 -3.04465 0
M  V30 4787 N 452.299 1.55045 -0.282633 0
M  V30 4788 C 453.229 2.2579 0.595066 0
M  V30 4789 C 454.21 1.25074 1.15284 0
M  V30 4790 O 455.395 1.5381 1.18559 0
M  V30 4791 C 452.525 2.98472 1.77572 0
M  V30 4792 C 451.479 4.0618 1.34914 0
M  V30 4793 C 450.805 4.66477 2.6135 0
M  V30 4794 C 452.105 5.1996 0.493821 0
M  V30 4795 H 453.799 2.994 0.00505653 0
M  V30 4796 H 451.345 1.44 0.000992001 0
M  V30 4797 H 453.298 3.46677 2.39568 0
M  V30 4798 H 452.022 2.2241 2.39168 0
M  V30 4799 H 450.681 3.58797 0.752338 0
M  V30 4800 H 450.329 3.87074 3.2122 0
M  V30 4801 H 450.029 5.39207 2.33516 0
M  V30 4802 H 451.553 5.17435 3.24181 0
M  V30 4803 H 452.967 5.64172 1.01898 0
M  V30 4804 H 451.364 5.99299 0.310047 0
M  V30 4805 H 452.434 4.82462 -0.485593 0
M  V30 4806 N 453.777 0.010035 1.57597 0
M  V30 4807 C 454.725 -0.996272 2.10184 0
M  V30 4808 C 455.719 -1.34942 1.02406 0
M  V30 4809 O 456.925 -1.33389 1.20861 0
M  V30 4810 H 453.3 -0.338982 0.671264 0
M  V30 4811 H 455.271 -0.527272 2.93705 0
M  V30 4812 C 454.02 -2.27599 2.62857 0
M  V30 4813 H 453.343 -2.01295 3.45428 0
M  V30 4814 H 454.783 -2.96265 3.0332 0
M  V30 4815 C 453.242 -2.99269 1.54725 0
M  V30 4816 O 453.772 -3.90644 0.93597 0
M  V30 4817 N 451.978 -2.61269 1.27228 0
M  V30 4818 H 451.525 -1.87043 1.77123 0
M  V30 4819 H 451.483 -3.09534 0.550999 0
M  V30 4820 O 455.294 -1.6096 -0.132018 0
M  V30 4821 H 455.985 -1.77966 -0.764703 0
M  V30 END ATOM
M  V30 BEGIN BOND
M  V30 END BOND
M  V30 END CTAB
M  END
$$$$
