drugbank_target|Q3J170 Reaction center protein H chain (DB04147)
 OpenBabel12092120483D

  0  0  0     0  0            999 V3000
M  V30 BEGIN CTAB
M  V30 COUNTS 3954 4005 0 0 0
M  V30 BEGIN ATOM
M  V30 1 H -0.908 1.98254 -0.117106 0
M  V30 2 N 0 1.576 0 0
M  V30 3 C 0.933 2.03868 1.02534 0
M  V30 4 C 1.911 0.928543 1.3348 0
M  V30 5 O 3.095 1.19667 1.45644 0
M  V30 6 C 0.222 2.43627 2.35294 0
M  V30 7 C -0.732 3.65373 2.2001 0
M  V30 8 S 0.101 5.13292 1.52614 0
M  V30 9 C 1.257 5.56322 2.86805 0
M  V30 10 H 1.49 2.90518 0.631377 0
M  V30 11 H -0.977 1.52953 0.210867 0
M  V30 12 H 0.981 2.67203 3.11629 0
M  V30 13 H -0.358 1.57376 2.7183 0
M  V30 14 H -1.165 3.90944 3.18086 0
M  V30 15 H -1.563 3.418 1.51819 0
M  V30 16 H 0.729 5.58782 3.83104 0
M  V30 17 H 1.672 6.56266 2.65933 0
M  V30 18 H 2.08 4.83886 2.90714 0
M  V30 19 N 1.4781 -0.272755 1.55222 0
M  V30 20 C 2.7241 -1.00581 1.761 0
M  V30 21 C 3.0571 -1.85932 0.560625 0
M  V30 22 O 2.3321 -1.89416 -0.441801 0
M  V30 23 C 2.6151 -1.88816 3.06628 0
M  V30 24 C 2.4681 -1.06457 4.37021 0
M  V30 25 C 3.7871 -2.8752 3.33197 0
M  V30 26 H 0.9061 -0.364244 0.640699 0
M  V30 27 H 3.5481 -0.278189 1.87952 0
M  V30 28 H 1.6981 -2.50856 2.96654 0
M  V30 29 H 3.3701 -0.464863 4.58952 0
M  V30 30 H 1.6131 -0.368043 4.32236 0
M  V30 31 H 2.2841 -1.71514 5.24678 0
M  V30 32 H 4.7601 -2.35615 3.42965 0
M  V30 33 H 3.6361 -3.46399 4.25792 0
M  V30 34 H 3.8971 -3.62657 2.52849 0
M  V30 35 N 2.9562 -1.48159 -0.537278 0
M  V30 36 C 4.2042 -1.55497 -1.29094 0
M  V30 37 C 4.5252 -0.227454 -1.93669 0
M  V30 38 O 3.7952 0.750386 -1.80959 0
M  V30 39 H 2.3752 -0.572832 -0.47945 0
M  V30 40 H 5.0372 -1.84579 -0.625818 0
M  V30 41 H 4.1332 -2.33216 -2.07405 0
M  V30 42 N 4.4343 0.785586 -1.36625 0
M  V30 43 C 5.6803 1.54591 -1.31261 0
M  V30 44 C 6.0133 1.93906 0.106823 0
M  V30 45 O 5.2883 1.63007 1.06108 0
M  V30 46 C 5.5713 2.82038 -2.23889 0
M  V30 47 C 5.4243 2.49066 -3.74548 0
M  V30 48 C 6.7433 3.83887 -2.15217 0
M  V30 49 H 3.8623 0.560846 -0.478143 0
M  V30 50 H 6.5043 0.902278 -1.67209 0
M  V30 51 H 4.6543 3.36961 -1.93363 0
M  V30 52 H 6.3263 2.00164 -4.15611 0
M  V30 53 H 4.5693 1.81954 -3.93796 0
M  V30 54 H 5.2403 3.40109 -4.34776 0
M  V30 55 H 7.7163 3.38421 -2.42096 0
M  V30 56 H 6.5923 4.70806 -2.82193 0
M  V30 57 H 6.8533 4.27131 -1.14068 0
M  V30 58 N 5.9124 1.20967 1.01018 0
M  V30 59 C 7.1404 1.04956 1.78303 0
M  V30 60 C 7.5554 -0.400915 1.84494 0
M  V30 61 O 6.9124 -1.27826 1.30257 0
M  V30 62 C 6.9634 1.63403 3.22462 0
M  V30 63 O 6.6844 3.02775 3.16637 0
M  V30 64 C 8.1854 1.52432 4.16268 0
M  V30 65 H 5.4054 0.368858 0.560522 0
M  V30 66 H 7.9494 1.60193 1.27116 0
M  V30 67 H 6.1044 1.1227 3.70775 0
M  V30 68 H 6.5184 3.30626 4.07169 0
M  V30 69 H 7.9924 1.98078 5.15237 0
M  V30 70 H 8.4694 0.477875 4.36592 0
M  V30 71 H 9.0754 2.02787 3.73841 0
M  V30 72 N 7.3905 -1.2043 1.01659 0
M  V30 73 C 8.3535 -2.21433 0.591616 0
M  V30 74 C 9.3535 -1.57203 -0.338226 0
M  V30 75 O 10.5435 -1.73737 -0.126918 0
M  V30 76 C 7.6755 -3.40628 -0.136058 0
M  V30 77 H 8.8685 -2.60545 1.48514 0
M  V30 78 H 6.4215 -1.33893 0.806379 0
M  V30 79 H 7.1565 -3.07019 -1.04449 0
M  V30 80 H 6.9415 -3.88475 0.531917 0
M  V30 81 H 8.4315 -4.15475 -0.420735 0
M  V30 82 N 8.8686 -0.792821 -1.36206 0
M  V30 83 C 10.1156 -0.366786 -1.99151 0
M  V30 84 C 10.4436 1.06243 -1.62919 0
M  V30 85 O 9.6986 1.74927 -0.877442 0
M  V30 86 C 9.9976 -0.481501 -3.54142 0
M  V30 87 C 9.6636 -1.87202 -4.10203 0
M  V30 88 C 8.3256 -2.25248 -4.25226 0
M  V30 89 C 10.6776 -2.78237 -4.40719 0
M  V30 90 C 8.0056 -3.53723 -4.68078 0
M  V30 91 C 10.3576 -4.06144 -4.85005 0
M  V30 92 C 9.0216 -4.44207 -4.98234 0
M  V30 93 H 8.2916 -0.134217 -0.728743 0
M  V30 94 H 10.9386 -1.01094 -1.62641 0
M  V30 95 H 9.2436 0.246146 -3.91026 0
M  V30 96 H 10.9406 -0.132844 -4.0078 0
M  V30 97 H 7.5306 -1.56639 -3.98951 0
M  V30 98 H 11.7146 -2.50097 -4.28679 0
M  V30 99 H 6.9706 -3.8308 -4.76508 0
M  V30 100 H 11.1446 -4.76796 -5.07581 0
M  V30 101 H 8.7716 -5.43814 -5.31197 0
M  V30 102 N 10.3467 1.47872 -0.545128 0
M  V30 103 C 11.5947 2.02093 -0.016553 0
M  V30 104 C 11.9157 1.42305 1.3332 0
M  V30 105 O 11.1857 0.593853 1.86682 0
M  V30 106 H 9.7657 0.746993 -0.00313038 0
M  V30 107 H 12.4277 1.81414 -0.712397 0
M  V30 108 H 11.5237 3.11996 0.0805422 0
M  V30 109 N 11.8248 0.280983 1.55075 0
M  V30 110 C 12.7728 -0.619864 2.24188 0
M  V30 111 C 13.7668 -1.15315 1.24092 0
M  V30 112 O 14.9728 -1.1061 1.42005 0
M  V30 113 H 11.3478 -0.218459 0.719569 0
M  V30 114 H 13.3188 -0.0141831 2.98397 0
M  V30 115 C 12.0678 -1.7899 2.98091 0
M  V30 116 H 11.3908 -1.38874 3.74905 0
M  V30 117 H 12.8308 -2.39672 3.49762 0
M  V30 118 C 11.2898 -2.68192 2.03899 0
M  V30 119 O 11.8198 -3.6872 1.594 0
M  V30 120 N 10.0258 -2.35488 1.70275 0
M  V30 121 H 9.5728 -1.53787 2.06658 0
M  V30 122 H 9.5308 -2.95442 1.07524 0
M  V30 123 N 13.3029 -1.57598 0.00835791 0
M  V30 124 C 14.5499 -1.90928 -0.674732 0
M  V30 125 C 14.8779 -0.88277 -1.73313 0
M  V30 126 O 14.1329 0.111294 -1.95383 0
M  V30 127 C 14.4319 -3.3101 -1.34787 0
M  V30 128 C 14.0979 -4.48922 -0.421861 0
M  V30 129 C 12.7599 -4.8091 -0.166927 0
M  V30 130 C 15.1119 -5.20755 0.215211 0
M  V30 131 C 12.4399 -5.821 0.733232 0
M  V30 132 C 14.7919 -6.22905 1.1033 0
M  V30 133 C 13.4559 -6.53346 1.36733 0
M  V30 134 H 12.7259 -0.698656 -0.246902 0
M  V30 135 H 15.3729 -1.91387 0.0656779 0
M  V30 136 H 13.6779 -3.26714 -2.16253 0
M  V30 137 H 15.3749 -3.54061 -1.8826 0
M  V30 138 H 11.9649 -4.23934 -0.630729 0
M  V30 139 H 16.1489 -4.9629 0.0312829 0
M  V30 140 H 11.4049 -6.04042 0.945712 0
M  V30 141 H 15.5789 -6.77694 1.60325 0
M  V30 142 H 13.2059 -7.31573 2.06652 0
M  V30 143 N 14.781 0.264519 -1.55364 0
M  V30 144 C 16.058 1.01677 -1.67096 0
M  V30 145 C 16.438 2.03996 -0.543015 0
M  V30 146 O 15.786 2.23907 0.45585 0
M  V30 147 C 15.996 1.66596 -3.0667 0
M  V30 148 C 17.344 2.17442 -3.64697 0
M  V30 149 O 18.368 1.76568 -3.09358 0
M  V30 150 O 17.227 2.92439 -4.61673 0
M  V30 151 H 14.321 0.472161 -0.678965 0
M  V30 152 H 16.867 0.259703 -1.67701 0
M  V30 153 H 15.639 0.924962 -3.80211 0
M  V30 154 H 15.262 2.48968 -3.10001 0
M  V30 155 N 16.2591 1.48442 0.529413 0
M  V30 156 C 17.1891 1.65902 1.64313 0
M  V30 157 C 18.1701 0.507897 1.6234 0
M  V30 158 O 19.3551 0.740503 1.79528 0
M  V30 159 C 16.4851 1.69911 3.02898 0
M  V30 160 C 15.4391 2.8453 3.19729 0
M  V30 161 C 14.7651 2.73629 4.59381 0
M  V30 162 C 16.0651 4.25821 3.02447 0
M  V30 163 H 17.7591 2.5914 1.49955 0
M  V30 164 H 15.3051 1.24709 0.719982 0
M  V30 165 H 17.2581 1.80715 3.80684 0
M  V30 166 H 15.9821 0.732524 3.18279 0
M  V30 167 H 14.6411 2.73283 2.44361 0
M  V30 168 H 14.2891 1.74938 4.71599 0
M  V30 169 H 13.9891 3.50541 4.71588 0
M  V30 170 H 15.5131 2.86401 5.39265 0
M  V30 171 H 16.9271 4.37898 3.70024 0
M  V30 172 H 15.3241 5.03735 3.26146 0
M  V30 173 H 16.3941 4.42244 1.98867 0
M  V30 174 N 17.7372 -0.778329 1.37039 0
M  V30 175 C 18.7002 -1.87301 1.32102 0
M  V30 176 C 19.7002 -1.59198 0.226405 0
M  V30 177 O 20.8902 -1.67403 0.481861 0
M  V30 178 C 18.0222 -3.24309 1.05055 0
M  V30 179 H 19.2152 -1.93093 2.29467 0
M  V30 180 H 16.7682 -0.977358 1.21973 0
M  V30 181 H 17.5032 -3.24196 0.0819373 0
M  V30 182 H 17.2882 -3.46098 1.84279 0
M  V30 183 H 18.7782 -4.04382 1.04234 0
M  V30 184 N 19.2153 -1.21501 -1.00376 0
M  V30 185 C 20.4403 -1.05977 -1.78279 0
M  V30 186 C 20.8653 0.385994 -1.84097 0
M  V30 187 O 20.2233 1.27849 -1.28547 0
M  V30 188 C 20.2713 -1.66302 -3.19963 0
M  V30 189 O 19.3753 -0.909333 -4.0225 0
M  V30 190 H 18.7163 -0.372906 -0.549397 0
M  V30 191 H 21.2463 -1.6107 -1.26165 0
M  V30 192 H 21.2563 -1.70574 -3.70632 0
M  V30 193 H 19.9313 -2.71515 -3.15043 0
M  V30 194 H 18.5083 -0.941795 -3.60811 0
M  V30 195 N 20.6934 1.19889 -1.02296 0
M  V30 196 C 21.6234 2.25141 -0.619174 0
M  V30 197 C 22.6044 1.66051 0.368915 0
M  V30 198 O 23.7894 1.92546 0.252941 0
M  V30 199 C 20.9194 3.4728 0.0368783 0
M  V30 200 C 19.8734 4.19005 -0.872865 0
M  V30 201 C 19.1994 5.34637 -0.0822402 0
M  V30 202 C 20.4994 4.74452 -2.18387 0
M  V30 203 H 22.1934 2.59171 -1.49903 0
M  V30 204 H 19.7394 1.24579 -0.722222 0
M  V30 205 H 21.6924 4.20098 0.330958 0
M  V30 206 H 20.4164 3.12433 0.95149 0
M  V30 207 H 19.0754 3.48061 -1.15105 0
M  V30 208 H 18.7234 4.96034 0.83422 0
M  V30 209 H 18.4234 5.83557 -0.688149 0
M  V30 210 H 19.9474 6.10255 0.205238 0
M  V30 211 H 21.3614 5.39055 -1.95172 0
M  V30 212 H 19.7584 5.33834 -2.74119 0
M  V30 213 H 20.8284 3.92844 -2.84257 0
M  V30 214 N 22.1715 0.800033 1.35784 0
M  V30 215 C 23.1345 0.211565 2.28221 0
M  V30 216 C 24.1345 -0.59728 1.49296 0
M  V30 217 O 25.3245 -0.416721 1.69142 0
M  V30 218 C 22.4565 -0.705846 3.33513 0
M  V30 219 H 23.6495 1.02677 2.81776 0
M  V30 220 H 21.2025 0.570211 1.45528 0
M  V30 221 H 21.9375 -1.54498 2.85133 0
M  V30 222 H 21.7225 -0.127655 3.91892 0
M  V30 223 H 23.2125 -1.11211 4.02519 0
M  V30 224 N 23.6496 -1.47581 0.552962 0
M  V30 225 C 24.8986 -2.01684 0.0251995 0
M  V30 226 C 25.2116 -1.43317 -1.33115 0
M  V30 227 O 26.4176 -1.89057 -1.94858 0
M  V30 228 C 24.8736 -3.599 -0.00542052 0
M  V30 229 C 24.4816 -4.27257 1.34742 0
M  V30 230 C 26.2256 -4.21768 -0.4808 0
M  V30 231 C 24.1326 -5.77467 1.27614 0
M  V30 232 H 23.0626 -0.753979 0.00565033 0
M  V30 233 H 25.7136 -1.69616 0.70018 0
M  V30 234 H 24.0956 -3.88911 -0.745961 0
M  V30 235 H 25.2696 -4.09893 2.10534 0
M  V30 236 H 23.5846 -3.77358 1.76039 0
M  V30 237 H 26.1816 -5.31838 -0.55246 0
M  V30 238 H 26.5246 -3.88651 -1.49184 0
M  V30 239 H 27.0576 -3.97273 0.204752 0
M  V30 240 H 23.7966 -6.15196 2.26304 0
M  V30 241 H 23.3166 -5.9718 0.55996 0
M  V30 242 H 24.9956 -6.3959 0.976421 0
M  V30 243 N 25.1277 -0.289203 -1.54924 0
M  V30 244 C 26.3577 0.325989 -2.04012 0
M  V30 245 C 26.7657 1.48961 -1.1665 0
M  V30 246 O 26.1087 1.82794 -0.1822 0
M  V30 247 C 26.1707 0.856112 -3.49158 0
M  V30 248 C 25.8347 -0.180697 -4.56643 0
M  V30 249 C 26.8317 -1.0051 -5.10092 0
M  V30 250 C 24.5167 -0.318998 -5.01286 0
M  V30 251 C 26.5107 -1.95385 -6.06715 0
M  V30 252 C 24.1977 -1.27121 -5.97732 0
M  V30 253 C 25.1957 -2.08713 -6.50329 0
M  V30 254 O 24.8837 -3.02322 -7.44887 0
M  V30 255 H 24.6157 0.0765276 -0.671654 0
M  V30 256 H 27.1697 -0.423254 -2.00992 0
M  V30 257 H 25.3997 1.65567 -3.49463 0
M  V30 258 H 27.0887 1.38591 -3.81507 0
M  V30 259 H 27.8547 -0.90906 -4.76404 0
M  V30 260 H 23.7337 0.306108 -4.59983 0
M  V30 261 H 27.2777 -2.59111 -6.47694 0
M  V30 262 H 23.1747 -1.36801 -6.30837 0
M  V30 263 H 23.9427 -2.97165 -7.6265 0
M  V30 264 N 26.6058 1.57591 -0.0167156 0
M  V30 265 C 27.8308 1.9598 0.67872 0
M  V30 266 C 28.2558 0.892546 1.65575 0
M  V30 267 O 27.6138 -0.147772 1.80697 0
M  V30 268 C 27.6618 3.33468 1.37227 0
M  V30 269 O 26.7658 3.28954 2.48722 0
M  V30 270 H 26.1068 0.639339 0.17928 0
M  V30 271 H 28.6368 2.04463 -0.0748802 0
M  V30 272 H 28.6468 3.69417 1.7319 0
M  V30 273 H 27.3218 4.10694 0.656007 0
M  V30 274 H 25.8988 3.04705 2.14963 0
M  V30 275 N 28.0839 -0.256276 1.55502 0
M  V30 276 C 29.3309 -0.985619 1.76895 0
M  V30 277 C 29.6589 -1.85671 0.579355 0
M  V30 278 O 28.9139 -1.90744 -0.437651 0
M  V30 279 C 29.2129 -1.88432 3.03691 0
M  V30 280 C 28.8789 -1.16936 4.35473 0
M  V30 281 C 27.5409 -0.97173 4.71286 0
M  V30 282 C 29.8929 -0.661889 5.1698 0
M  V30 283 C 27.2209 -0.254179 5.86149 0
M  V30 284 C 29.5729 0.042149 6.32586 0
M  V30 285 C 28.2369 0.25134 6.67027 0
M  V30 286 H 27.5069 -0.360663 0.647304 0
M  V30 287 H 30.1539 -0.256483 1.89775 0
M  V30 288 H 28.4589 -2.68021 2.85783 0
M  V30 289 H 30.1559 -2.45015 3.1744 0
M  V30 290 H 26.7459 -1.33332 4.07333 0
M  V30 291 H 30.9299 -0.802145 4.89775 0
M  V30 292 H 26.1859 -0.0815408 6.11346 0
M  V30 293 H 30.3599 0.443049 6.94989 0
M  V30 294 H 27.9869 0.809314 7.5588 0
M  V30 295 N 29.562 -1.4872 -0.521534 0
M  V30 296 C 30.808 -1.58378 -1.27624 0
M  V30 297 C 31.163 -0.258028 -1.90662 0
M  V30 298 O 30.456 0.739917 -1.76736 0
M  V30 299 C 30.65 -2.66497 -2.38148 0
M  V30 300 C 30.479 -4.09456 -1.85945 0
M  V30 301 C 29.249 -4.76495 -1.68168 0
M  V30 302 C 31.447 -4.95353 -1.3831 0
M  V30 303 N 29.429 -6.0384 -1.1068 0
M  V30 304 C 30.8 -6.13012 -0.928238 0
M  V30 305 C 32.855 -4.81512 -1.26692 0
M  V30 306 C 31.558 -7.18354 -0.368701 0
M  V30 307 C 33.584 -5.86984 -0.721368 0
M  V30 308 C 32.946 -7.03857 -0.276623 0
M  V30 309 H 29.045 -0.634045 -0.457724 0
M  V30 310 H 31.629 -1.85639 -0.587049 0
M  V30 311 H 29.8 -2.41043 -3.04553 0
M  V30 312 H 31.532 -2.65791 -3.05184 0
M  V30 313 H 28.287 -4.32962 -1.91939 0
M  V30 314 H 28.711 -6.71778 -0.839217 0
M  V30 315 H 33.353 -3.91487 -1.5968 0
M  V30 316 H 31.071 -8.08096 -0.0265122 0
M  V30 317 H 34.657 -5.78329 -0.634531 0
M  V30 318 H 33.537 -7.84077 0.138947 0
M  V30 319 N 31.0401 0.771051 -1.3745 0
M  V30 320 C 32.2891 1.52491 -1.3202 0
M  V30 321 C 32.6021 1.9538 0.0927347 0
M  V30 322 O 33.8081 2.70159 0.269503 0
M  V30 323 C 32.2641 2.75366 -2.31736 0
M  V30 324 C 31.8721 2.39573 -3.78562 0
M  V30 325 C 33.6161 3.53307 -2.35318 0
M  V30 326 C 31.5231 3.58954 -4.70007 0
M  V30 327 H 30.4531 0.572506 -0.490666 0
M  V30 328 H 33.1041 0.844474 -1.62914 0
M  V30 329 H 31.4861 3.45303 -1.93861 0
M  V30 330 H 32.6601 1.77415 -4.25277 0
M  V30 331 H 30.9751 1.74805 -3.77932 0
M  V30 332 H 33.5721 4.42039 -3.00842 0
M  V30 333 H 33.9151 3.93217 -1.36698 0
M  V30 334 H 34.4481 2.90367 -2.71904 0
M  V30 335 H 31.1871 3.24125 -5.69757 0
M  V30 336 H 30.7071 4.20214 -4.27996 0
M  V30 337 H 32.3861 4.25758 -4.87175 0
M  V30 338 N 32.5182 1.22032 0.997298 0
M  V30 339 C 33.7652 1.04222 1.73621 0
M  V30 340 C 34.0932 -0.423264 1.89839 0
M  V30 341 O 33.3482 -1.3302 1.43542 0
M  V30 342 C 33.6472 1.69345 3.14733 0
M  V30 343 C 33.3132 3.19226 3.18442 0
M  V30 344 C 31.9752 3.60124 3.19161 0
M  V30 345 C 34.3272 4.15181 3.15078 0
M  V30 346 C 31.6552 4.95467 3.14212 0
M  V30 347 C 34.0072 5.50495 3.1167 0
M  V30 348 C 32.6712 5.90779 3.10703 0
M  V30 349 H 31.9412 0.381374 0.635323 0
M  V30 350 H 34.5882 1.51732 1.16831 0
M  V30 351 H 32.8932 1.14147 3.74803 0
M  V30 352 H 34.5902 1.53059 3.7064 0
M  V30 353 H 31.1802 2.86659 3.18629 0
M  V30 354 H 35.3642 3.84605 3.13676 0
M  V30 355 H 30.6202 5.25916 3.11805 0
M  V30 356 H 34.7942 6.24576 3.08022 0
M  V30 357 H 32.4212 6.9562 3.06622 0
M  V30 358 N 33.9963 -1.19345 1.0293 0
M  V30 359 C 34.9263 -2.2481 0.631105 0
M  V30 360 C 35.9073 -1.66245 -0.360104 0
M  V30 361 O 37.0923 -1.92677 -0.242726 0
M  V30 362 C 34.2223 -3.47295 -0.0184607 0
M  V30 363 C 33.1763 -4.18536 0.895073 0
M  V30 364 C 32.5023 -5.34586 0.110592 0
M  V30 365 C 33.8023 -4.73287 2.209 0
M  V30 366 H 35.4963 -2.58372 1.51275 0
M  V30 367 H 33.0423 -1.24194 0.728818 0
M  V30 368 H 34.9953 -4.20268 -0.308675 0
M  V30 369 H 33.7193 -3.12933 -0.934907 0
M  V30 370 H 32.3783 -3.47446 1.16949 0
M  V30 371 H 32.0263 -4.96469 -0.807902 0
M  V30 372 H 31.7263 -5.83183 0.719087 0
M  V30 373 H 33.2503 -6.10355 -0.172871 0
M  V30 374 H 34.6643 -5.38013 1.98028 0
M  V30 375 H 33.0613 -5.32373 2.76946 0
M  V30 376 H 34.1313 -3.91331 2.86336 0
M  V30 377 N 35.4744 -0.807222 -1.35358 0
M  V30 378 C 36.4374 -0.223665 -2.28106 0
M  V30 379 C 37.4374 0.589354 -1.4961 0
M  V30 380 O 38.6274 0.407745 -1.69361 0
M  V30 381 C 35.7594 0.688149 -3.33882 0
M  V30 382 H 36.9524 -1.04169 -2.81227 0
M  V30 383 H 34.5054 -0.577921 -1.45223 0
M  V30 384 H 35.2404 1.52984 -2.85948 0
M  V30 385 H 35.0254 0.10687 -3.91954 0
M  V30 386 H 36.5154 1.09075 -4.03104 0
M  V30 387 N 36.9525 1.47285 -0.560781 0
M  V30 388 C 38.2005 2.02064 -0.0379868 0
M  V30 389 C 38.5215 1.43711 1.31803 0
M  V30 390 O 37.7915 0.61362 1.86042 0
M  V30 391 H 36.3715 0.746918 -0.0110531 0
M  V30 392 H 39.0335 1.80648 -0.731598 0
M  V30 393 H 38.1295 3.12064 0.0474463 0
M  V30 394 N 38.4306 0.297415 1.54768 0
M  V30 395 C 39.3606 -0.573494 2.26348 0
M  V30 396 C 40.3416 -1.14085 1.26169 0
M  V30 397 O 41.5266 -1.17086 1.54934 0
M  V30 398 C 38.6566 -1.74716 3.00153 0
M  V30 399 C 37.6106 -1.31032 4.07449 0
M  V30 400 C 36.9366 -2.56887 4.68949 0
M  V30 401 C 38.2366 -0.444183 5.20408 0
M  V30 402 H 39.9306 0.0235131 2.99391 0
M  V30 403 H 37.4766 0.0127488 1.43994 0
M  V30 404 H 39.4296 -2.3625 3.48947 0
M  V30 405 H 38.1536 -2.37035 2.24682 0
M  V30 406 H 36.8126 -0.718066 3.59499 0
M  V30 407 H 36.4606 -3.17512 3.90122 0
M  V30 408 H 36.1606 -2.2836 5.41411 0
M  V30 409 H 37.6846 -3.19229 5.20505 0
M  V30 410 H 39.0986 -0.9651 5.65118 0
M  V30 411 H 37.4956 -0.252846 5.99567 0
M  V30 412 H 38.5656 0.531609 4.81977 0
M  V30 413 N 39.9087 -1.5758 0.0250728 0
M  V30 414 C 41.1577 -1.90811 -0.653767 0
M  V30 415 C 41.4707 -0.90273 -1.73523 0
M  V30 416 O 42.6767 -1.12614 -2.47043 0
M  V30 417 C 41.1327 -3.38804 -1.21409 0
M  V30 418 C 40.7407 -4.47692 -0.166126 0
M  V30 419 C 42.4847 -3.81108 -1.86967 0
M  V30 420 C 40.3917 -5.86779 -0.737856 0
M  V30 421 H 39.3217 -0.712063 -0.247956 0
M  V30 422 H 41.9727 -1.83281 0.0897137 0
M  V30 423 H 40.3547 -3.41252 -2.00905 0
M  V30 424 H 41.5287 -4.56797 0.606079 0
M  V30 425 H 39.8437 -4.14565 0.390466 0
M  V30 426 H 42.4407 -4.82375 -2.30692 0
M  V30 427 H 42.7837 -3.15953 -2.71071 0
M  V30 428 H 43.3167 -3.81065 -1.14167 0
M  V30 429 H 40.0557 -6.55468 0.0649577 0
M  V30 430 H 39.5757 -5.81288 -1.47864 0
M  V30 431 H 41.2547 -6.35223 -1.22884 0
M  V30 432 N 41.3868 0.248026 -1.55636 0
M  V30 433 C 42.6168 0.992367 -1.81206 0
M  V30 434 C 43.0248 1.7949 -0.598324 0
M  V30 435 O 42.3678 1.78292 0.442434 0
M  V30 436 C 42.4298 1.97926 -3.00109 0
M  V30 437 C 42.0938 1.36377 -4.36177 0
M  V30 438 C 43.0908 0.76682 -5.14214 0
M  V30 439 C 40.7758 1.38347 -4.82872 0
M  V30 440 C 42.7698 0.197778 -6.37093 0
M  V30 441 C 40.4568 0.810574 -6.057 0
M  V30 442 C 41.4548 0.218754 -6.8265 0
M  V30 443 O 41.1428 -0.345298 -8.03158 0
M  V30 444 H 40.8748 0.297704 -0.606917 0
M  V30 445 H 43.4288 0.276517 -2.0353 0
M  V30 446 H 41.6588 2.73339 -2.73538 0
M  V30 447 H 43.3478 2.58694 -3.12781 0
M  V30 448 H 44.1138 0.744114 -4.79258 0
M  V30 449 H 39.9928 1.8335 -4.2297 0
M  V30 450 H 43.5368 -0.264788 -6.97097 0
M  V30 451 H 39.4338 0.830604 -6.40134 0
M  V30 452 H 40.2018 -0.237055 -8.18157 0
M  V30 453 N 42.8649 1.48995 0.513639 0
M  V30 454 C 44.0949 1.61297 1.291 0
M  V30 455 C 44.5029 0.278656 1.87137 0
M  V30 456 O 43.8459 -0.744325 1.67945 0
M  V30 457 C 43.9079 2.61326 2.46879 0
M  V30 458 C 43.5719 4.05993 2.09807 0
M  V30 459 C 44.5689 4.93183 1.64519 0
M  V30 460 C 42.2539 4.51642 2.19829 0
M  V30 461 C 44.2479 6.24056 1.2974 0
M  V30 462 C 41.9349 5.82532 1.84662 0
M  V30 463 C 42.9329 6.68562 1.3969 0
M  V30 464 O 42.6209 7.97014 1.04992 0
M  V30 465 H 42.3529 0.546236 0.39825 0
M  V30 466 H 44.9069 1.95673 0.62459 0
M  V30 467 H 43.1369 2.22104 3.16554 0
M  V30 468 H 44.8259 2.6329 3.08923 0
M  V30 469 H 45.5919 4.59147 1.56233 0
M  V30 470 H 41.4709 3.84855 2.53786 0
M  V30 471 H 45.0149 6.91161 0.945659 0
M  V30 472 H 40.9119 6.16099 1.92594 0
M  V30 473 H 41.6799 8.09913 1.18249 0
M  V30 474 N 44.343 -0.763751 1.37857 0
M  V30 475 C 45.273 -1.89103 1.36975 0
M  V30 476 C 46.254 -1.68439 0.237152 0
M  V30 477 O 47.439 -1.8918 0.438713 0
M  V30 478 C 44.569 -3.26496 1.18395 0
M  V30 479 C 43.523 -3.61741 2.28751 0
M  V30 480 C 42.849 -4.97762 1.95286 0
M  V30 481 C 44.149 -3.67665 3.70972 0
M  V30 482 H 45.843 -1.90099 2.31307 0
M  V30 483 H 43.389 -0.91319 1.11341 0
M  V30 484 H 45.342 -4.05003 1.16406 0
M  V30 485 H 44.066 -3.25955 0.205215 0
M  V30 486 H 42.725 -2.85547 2.29909 0
M  V30 487 H 42.373 -4.93769 0.959221 0
M  V30 488 H 42.073 -5.22313 2.69189 0
M  V30 489 H 43.597 -5.7866 1.94898 0
M  V30 490 H 45.011 -4.36307 3.719 0
M  V30 491 H 43.408 -4.03718 4.43995 0
M  V30 492 H 44.478 -2.68134 4.0402 0
M  V30 493 N 45.8211 -1.22559 -0.990812 0
M  V30 494 C 46.7531 -0.955325 -2.08342 0
M  V30 495 C 47.7661 0.0668408 -1.62663 0
M  V30 496 O 48.9551 -0.167421 -1.77713 0
M  V30 497 C 46.0551 -0.415566 -3.36342 0
M  V30 498 C 45.2281 -1.49544 -4.11042 0
M  V30 499 C 44.2871 -0.962399 -5.17324 0
M  V30 500 O 43.3131 -1.64907 -5.44788 0
M  V30 501 N 44.5151 0.215134 -5.80101 0
M  V30 502 H 47.2801 -1.89596 -2.32106 0
M  V30 503 H 44.8411 -1.13276 -1.15673 0
M  V30 504 H 46.8331 -0.0442386 -4.04676 0
M  V30 505 H 45.4031 0.430232 -3.09625 0
M  V30 506 H 44.6231 -2.04 -3.37309 0
M  V30 507 H 45.9111 -2.22195 -4.57719 0
M  V30 508 H 45.3091 0.789779 -5.6016 0
M  V30 509 H 43.8661 0.527826 -6.49659 0
M  V30 510 N 47.2992 1.18797 -1.03562 0
M  V30 511 C 48.5272 1.92599 -0.755869 0
M  V30 512 C 48.9422 1.75886 0.686271 0
M  V30 513 O 48.2992 1.08517 1.46732 0
M  V30 514 C 48.3502 3.44159 -1.10619 0
M  V30 515 O 48.0712 3.60341 -2.4917 0
M  V30 516 C 49.5722 4.3507 -0.850214 0
M  V30 517 H 46.7922 0.611587 -0.276048 0
M  V30 518 H 49.3362 1.50742 -1.38192 0
M  V30 519 H 47.4912 3.83823 -0.525194 0
M  V30 520 H 47.9052 4.54128 -2.62427 0
M  V30 521 H 49.3792 5.39989 -1.14523 0
M  V30 522 H 49.8562 4.38673 0.215176 0
M  V30 523 H 50.4622 4.01097 -1.41426 0
M  V30 524 N 48.7773 0.814389 1.34928 0
M  V30 525 C 49.6873 0.231978 2.3345 0
M  V30 526 C 50.7033 -0.629139 1.62228 0
M  V30 527 O 51.8793 -0.539052 1.94052 0
M  V30 528 C 48.9443 -0.603482 3.41407 0
M  V30 529 C 48.0053 0.279037 4.28392 0
M  V30 530 C 47.2383 -0.516643 5.31193 0
M  V30 531 O 47.4613 -1.75068 5.4287 0
M  V30 532 O 46.3953 0.0965652 6.01823 0
M  V30 533 H 50.2213 1.04721 2.85074 0
M  V30 534 H 47.8063 0.576343 1.37836 0
M  V30 535 H 49.6883 -1.07908 4.0735 0
M  V30 536 H 48.3633 -1.39618 2.92042 0
M  V30 537 H 47.2703 0.801948 3.65403 0
M  V30 538 H 48.6033 1.03588 4.81176 0
M  V30 539 N 50.2554 -1.46986 0.568584 0
M  V30 540 C 51.2034 -2.31858 -0.185649 0
M  V30 541 C 52.1974 -1.43624 -0.898249 0
M  V30 542 O 53.4034 -1.60327 -0.818242 0
M  V30 543 H 49.7784 -0.747866 -0.0787399 0
M  V30 544 H 51.7494 -2.93303 0.549191 0
M  V30 545 C 50.4984 -3.26513 -1.19519 0
M  V30 546 H 49.8214 -3.94377 -0.656285 0
M  V30 547 H 51.2614 -3.88707 -1.6936 0
M  V30 548 C 49.7204 -2.50847 -2.24894 0
M  V30 549 O 50.2504 -2.26119 -3.32014 0
M  V30 550 N 48.4564 -2.11656 -1.99124 0
M  V30 551 H 48.0034 -2.31966 -1.12024 0
M  V30 552 H 47.9614 -1.61347 -2.69842 0
M  V30 553 N 51.7335 -0.305618 -1.54608 0
M  V30 554 C 52.6665 0.610536 -2.19881 0
M  V30 555 C 53.6445 1.1294 -1.16976 0
M  V30 556 O 54.8285 1.19673 -1.45638 0
M  V30 557 C 51.9555 1.83583 -2.84631 0
M  V30 558 C 51.0015 1.4498 -4.01102 0
M  V30 559 S 51.8345 0.501793 -5.33144 0
M  V30 560 C 52.9905 1.73478 -6.01379 0
M  V30 561 H 53.2235 0.0560177 -2.97247 0
M  V30 562 H 50.7565 -0.0897434 -1.54139 0
M  V30 563 H 52.7145 2.53898 -3.22562 0
M  V30 564 H 51.3755 2.36152 -2.07102 0
M  V30 565 H 50.5685 2.36236 -4.45206 0
M  V30 566 H 50.1705 0.826553 -3.64752 0
M  V30 567 H 52.4625 2.67473 -6.22467 0
M  V30 568 H 53.4055 1.33622 -6.95378 0
M  V30 569 H 53.8135 1.9136 -5.31076 0
M  V30 570 N 53.2116 1.57565 -0.0334293 0
M  V30 571 C 54.6276 1.56297 0.322997 0
M  V30 572 C 54.8276 1.03945 1.7262 0
M  V30 573 O 53.8836 0.688109 2.42943 0
M  V30 574 C 55.1966 3.00232 0.167664 0
M  V30 575 C 56.7446 3.12078 0.240107 0
M  V30 576 C 57.2196 4.57859 0.113513 0
M  V30 577 N 58.7106 4.62887 0.170359 0
M  V30 578 C 59.4456 5.73319 0.0962517 0
M  V30 579 N 58.9416 6.92794 -0.0291881 0
M  V30 580 N 60.7346 5.61898 0.150551 0
M  V30 581 H 52.8856 1.89923 -0.950956 0
M  V30 582 H 55.1486 0.873824 -0.367608 0
M  V30 583 H 54.8546 3.42501 -0.799102 0
M  V30 584 H 54.7286 3.654 0.936083 0
M  V30 585 H 57.1156 2.69718 1.19733 0
M  V30 586 H 57.1966 2.49623 -0.558763 0
M  V30 587 H 56.8406 5.009 -0.840314 0
M  V30 588 H 56.7706 5.18299 0.931302 0
M  V30 589 H 59.2616 3.76954 0.26728 0
M  V30 590 H 59.5746 7.7276 -0.0789252 0
M  V30 591 H 57.9196 6.94971 -0.0640299 0
M  V30 592 H 61.1106 4.67448 0.246981 0
M  V30 593 H 61.2836 6.47938 0.0893365 0
M  V30 594 N 54.6897 -0.239769 1.55765 0
M  V30 595 C 55.5997 -1.31831 1.94056 0
M  V30 596 C 56.6157 -1.52275 0.841925 0
M  V30 597 O 57.7917 -1.65759 1.14394 0
M  V30 598 C 54.8567 -2.65156 2.23368 0
M  V30 599 C 53.9177 -2.53173 3.46701 0
M  V30 600 C 53.1507 -3.8014 3.74606 0
M  V30 601 O 53.3737 -4.82343 3.04469 0
M  V30 602 O 52.3077 -3.78344 4.68123 0
M  V30 603 H 56.1337 -1.02347 2.85935 0
M  V30 604 H 53.7187 -0.441123 1.42739 0
M  V30 605 H 55.6007 -3.43929 2.43497 0
M  V30 606 H 54.2757 -2.94358 1.34666 0
M  V30 607 H 53.1827 -1.72662 3.31871 0
M  V30 608 H 54.5157 -2.28915 4.35728 0
M  V30 609 N 56.1678 -1.49265 -0.50573 0
M  V30 610 C 57.4158 -1.582 -1.25766 0
M  V30 611 C 57.7368 -0.268482 -1.93143 0
M  V30 612 O 57.0068 0.711833 -1.8251 0
M  V30 613 H 55.5868 -0.582873 -0.467191 0
M  V30 614 H 58.2488 -1.85865 -0.586525 0
M  V30 615 H 57.3448 -2.37563 -2.02412 0
M  V30 616 N 57.6459 0.756429 -1.3826 0
M  V30 617 C 58.8759 1.54341 -1.3734 0
M  V30 618 C 59.2839 1.89159 0.0393917 0
M  V30 619 O 58.6269 1.5307 1.01565 0
M  V30 620 C 58.6889 2.87238 -2.16182 0
M  V30 621 C 58.3529 2.74973 -3.65019 0
M  V30 622 C 59.3499 2.44962 -4.58574 0
M  V30 623 C 57.0349 2.92515 -4.08338 0
M  V30 624 C 59.0289 2.32642 -5.93428 0
M  V30 625 C 56.7159 2.79815 -5.43274 0
M  V30 626 C 57.7139 2.49921 -6.35632 0
M  V30 627 O 57.4019 2.37275 -7.68086 0
M  V30 628 H 57.1339 0.484281 -0.471643 0
M  V30 629 H 59.6879 0.944152 -1.82414 0
M  V30 630 H 57.9179 3.49342 -1.65822 0
M  V30 631 H 59.6069 3.48731 -2.07705 0
M  V30 632 H 60.3729 2.31081 -4.26412 0
M  V30 633 H 56.2519 3.14781 -3.368 0
M  V30 634 H 59.7959 2.0923 -6.65484 0
M  V30 635 H 55.6929 2.93269 -5.75034 0
M  V30 636 H 56.4609 2.52509 -7.78577 0
M  V30 637 N 59.124 1.23083 0.984299 0
M  V30 638 C 60.535 1.05609 1.5396 0
M  V30 639 C 60.886 -0.377793 1.92528 0
M  V30 640 O 60.011 -1.26398 1.75649 0
M  V30 641 C 60.606 1.91087 2.7977 0
M  V30 642 C 59.165 1.77885 3.31713 0
M  V30 643 C 58.312 1.87028 2.04733 0
M  V30 644 H 61.263 1.36802 0.804419 0
M  V30 645 H 61.284 1.43336 3.5247 0
M  V30 646 H 60.796 2.9544 2.51668 0
M  V30 647 H 58.897 0.762995 3.64704 0
M  V30 648 H 59.01 2.61047 4.01735 0
M  V30 649 H 57.374 1.30565 2.18689 0
M  V30 650 H 58.157 2.92929 1.79017 0
M  V30 651 N 60.6021 -1.18246 1.0419 0
M  V30 652 C 61.5321 -2.24127 0.654914 0
M  V30 653 C 62.5131 -1.66617 -0.342451 0
M  V30 654 O 63.6981 -1.92924 -0.222277 0
M  V30 655 C 60.8281 -3.47295 0.0183757 0
M  V30 656 C 59.7821 -4.17563 0.939414 0
M  V30 657 C 59.1081 -5.34438 0.167286 0
M  V30 658 C 60.4081 -4.70917 2.25908 0
M  V30 659 H 62.1021 -2.56753 1.54007 0
M  V30 660 H 59.6481 -1.23414 0.74195 0
M  V30 661 H 61.6011 -4.20572 -0.264082 0
M  V30 662 H 60.3251 -3.13907 -0.901664 0
M  V30 663 H 58.9841 -3.46186 1.20628 0
M  V30 664 H 58.6321 -4.97298 -0.7552 0
M  V30 665 H 58.3321 -5.82388 0.780901 0
M  V30 666 H 59.8561 -6.10504 -0.108125 0
M  V30 667 H 61.2701 -5.35882 2.03724 0
M  V30 668 H 59.6671 -5.29406 2.82577 0
M  V30 669 H 60.7371 -3.88272 2.9047 0
M  V30 670 N 62.0802 -0.821533 -1.34494 0
M  V30 671 C 62.9902 -0.244355 -2.33324 0
M  V30 672 C 64.0062 0.620527 -1.62559 0
M  V30 673 O 65.1822 0.528754 -1.94335 0
M  V30 674 C 62.2472 0.585368 -3.41723 0
M  V30 675 C 61.3082 -0.301752 -4.28238 0
M  V30 676 C 60.5412 0.488466 -5.3146 0
M  V30 677 O 60.7642 1.72186 -5.4379 0
M  V30 678 O 59.6982 -0.12848 -6.01763 0
M  V30 679 H 63.5242 -1.06231 -2.84515 0
M  V30 680 H 61.1092 -0.583645 -1.37528 0
M  V30 681 H 62.9912 1.05747 -4.07916 0
M  V30 682 H 61.6662 1.38068 -2.92778 0
M  V30 683 H 60.5732 -0.821315 -3.64973 0
M  V30 684 H 61.9062 -1.06138 -4.8062 0
M  V30 685 N 63.5583 1.46682 -0.576371 0
M  V30 686 C 64.5063 2.31953 0.17335 0
M  V30 687 C 65.5003 1.44098 0.89062 0
M  V30 688 O 66.7063 1.60759 0.809728 0
M  V30 689 H 63.0813 0.748273 0.0747727 0
M  V30 690 H 65.0523 2.93007 -0.564738 0
M  V30 691 C 63.8013 3.27142 1.17786 0
M  V30 692 H 63.1243 3.94719 0.635361 0
M  V30 693 H 64.5643 3.896 1.67296 0
M  V30 694 C 63.0233 2.52036 2.23561 0
M  V30 695 O 63.5533 2.27877 3.3081 0
M  V30 696 N 61.7593 2.12709 1.97998 0
M  V30 697 H 61.3063 2.32557 1.10792 0
M  V30 698 H 61.2643 1.62776 2.68982 0
M  V30 699 N 65.0364 0.313813 1.54444 0
M  V30 700 C 65.9464 -0.565714 2.27677 0
M  V30 701 C 66.9624 -1.13754 1.31666 0
M  V30 702 O 68.1384 -1.15959 1.64668 0
M  V30 703 C 65.2034 -1.71528 3.01296 0
M  V30 704 C 64.2644 -1.17624 4.12872 0
M  V30 705 C 63.4974 -2.27102 4.8297 0
M  V30 706 O 63.7204 -3.47256 4.52514 0
M  V30 707 O 62.6544 -1.9307 5.70094 0
M  V30 708 H 66.4804 0.0287296 3.03686 0
M  V30 709 H 64.0654 0.0798312 1.49187 0
M  V30 710 H 65.9474 -2.38476 3.4743 0
M  V30 711 H 64.6224 -2.29608 2.2817 0
M  V30 712 H 63.5294 -0.472124 3.71109 0
M  V30 713 H 64.8624 -0.640695 4.88012 0
M  V30 714 N 66.5145 -1.57545 0.0417849 0
M  V30 715 C 67.7915 -1.83642 -0.673433 0
M  V30 716 C 68.1715 -0.928298 -1.89594 0
M  V30 717 O 67.5195 0.0129955 -2.28496 0
M  V30 718 C 67.7295 -3.33155 -1.03964 0
M  V30 719 C 69.0775 -3.99941 -1.42592 0
M  V30 720 O 70.1015 -3.37725 -1.13226 0
M  V30 721 O 68.9605 -5.09619 -1.9736 0
M  V30 722 H 66.0545 -0.757638 -0.331533 0
M  V30 723 H 68.6005 -1.69554 0.070433 0
M  V30 724 H 67.3725 -3.9093 -0.170098 0
M  V30 725 H 66.9955 -3.52396 -1.84126 0
M  V30 726 N 67.9926 0.231505 -1.5589 0
M  V30 727 C 69.2406 0.955461 -1.78088 0
M  V30 728 C 69.5616 1.85262 -0.608533 0
M  V30 729 O 68.8316 1.92277 0.375035 0
M  V30 730 H 67.4116 0.355787 -0.656829 0
M  V30 731 H 70.0736 0.245751 -1.93344 0
M  V30 732 H 69.1696 1.56814 -2.69844 0
M  V30 733 N 69.4707 1.49531 0.497807 0
M  V30 734 C 70.6987 1.62893 1.27567 0
M  V30 735 C 71.1137 0.301585 1.86376 0
M  V30 736 O 70.4707 -0.713335 1.67982 0
M  V30 737 C 70.5217 2.70013 2.40364 0
M  V30 738 O 70.2427 3.976 1.83972 0
M  V30 739 C 71.7437 2.94109 3.31685 0
M  V30 740 H 68.9637 0.548298 0.386794 0
M  V30 741 H 71.5077 1.95584 0.597245 0
M  V30 742 H 69.6627 2.40092 3.04031 0
M  V30 743 H 70.0767 4.56631 2.58047 0
M  V30 744 H 71.5507 3.72788 4.07104 0
M  V30 745 H 72.0277 2.04147 3.88871 0
M  V30 746 H 72.6337 3.2546 2.73781 0
M  V30 747 N 70.9488 -0.749086 1.3866 0
M  V30 748 C 72.3598 -1.32664 1.31366 0
M  V30 749 C 72.7108 -1.96179 -0.028484 0
M  V30 750 O 71.8358 -1.9537 -0.93057 0
M  V30 751 C 72.4308 -2.41219 2.37905 0
M  V30 752 C 70.9898 -2.94684 2.34176 0
M  V30 753 C 70.1368 -1.68108 2.20533 0
M  V30 754 H 73.0878 -0.547628 1.48952 0
M  V30 755 H 73.1088 -3.21268 2.0388 0
M  V30 756 H 72.6208 -1.94962 3.35576 0
M  V30 757 H 70.7218 -3.45258 1.401 0
M  V30 758 H 70.8348 -3.48757 3.2849 0
M  V30 759 H 69.1988 -1.91907 1.67463 0
M  V30 760 H 69.9818 -1.23923 3.20153 0
M  V30 761 N 72.4269 -1.23603 -0.977757 0
M  V30 762 C 73.3899 -1.02069 -2.05218 0
M  V30 763 C 74.3899 0.0184305 -1.60789 0
M  V30 764 O 75.5799 -0.221569 -1.72785 0
M  V30 765 C 72.7119 -0.544926 -3.36517 0
M  V30 766 H 73.9049 -1.9742 -2.25755 0
M  V30 767 H 71.4579 -1.05684 -1.15155 0
M  V30 768 H 72.1929 0.412241 -3.21669 0
M  V30 769 H 71.9779 -1.2948 -3.70105 0
M  V30 770 H 73.4679 -0.414985 -4.15533 0
M  V30 771 N 73.905 1.17692 -1.04816 0
M  V30 772 C 74.868 2.19787 -0.650117 0
M  V30 773 C 75.868 1.58044 0.296427 0
M  V30 774 O 77.058 1.74012 0.0808097 0
M  V30 775 C 74.19 3.40869 0.0456987 0
M  V30 776 H 75.383 2.56516 -1.5537 0
M  V30 777 H 72.936 1.31708 -0.841594 0
M  V30 778 H 73.671 3.09681 0.962726 0
M  V30 779 H 73.456 3.86928 -0.634727 0
M  V30 780 H 74.946 4.16445 0.310432 0
M  V30 781 N 75.3831 0.828654 1.34056 0
M  V30 782 C 76.3311 0.242973 2.31327 0
M  V30 783 C 77.3251 -0.61944 1.57668 0
M  V30 784 O 78.5311 -0.51014 1.7262 0
M  V30 785 H 74.9061 0.059834 0.749616 0
M  V30 786 H 76.8771 1.07809 2.78244 0
M  V30 787 C 75.6261 -0.575733 3.429 0
M  V30 788 H 74.9491 0.0785582 3.99723 0
M  V30 789 H 76.3891 -0.951547 4.13185 0
M  V30 790 C 74.8481 -1.75044 2.87856 0
M  V30 791 O 75.3781 -2.84882 2.83205 0
M  V30 792 N 73.5841 -1.56903 2.44602 0
M  V30 793 H 73.1311 -0.675547 2.48584 0
M  V30 794 H 73.0891 -2.35652 2.08124 0
M  V30 795 N 76.8612 -1.46375 0.584142 0
M  V30 796 C 77.7932 -2.28443 -0.186119 0
M  V30 797 C 78.8062 -1.38596 -0.854115 0
M  V30 798 O 79.9952 -1.63183 -0.723438 0
M  V30 799 C 77.0952 -3.13671 -1.28311 0
M  V30 800 C 76.2682 -4.31652 -0.706758 0
M  V30 801 C 75.3272 -4.98267 -1.69163 0
M  V30 802 O 74.3532 -5.55815 -1.22712 0
M  V30 803 N 75.5552 -4.95408 -3.02575 0
M  V30 804 H 78.3202 -2.9519 0.517986 0
M  V30 805 H 75.8812 -1.56303 0.42201 0
M  V30 806 H 77.8732 -3.55101 -1.94128 0
M  V30 807 H 76.4432 -2.48989 -1.89005 0
M  V30 808 H 75.6632 -3.93989 0.128908 0
M  V30 809 H 76.9512 -5.07906 -0.301506 0
M  V30 810 H 76.3492 -4.49902 -3.42936 0
M  V30 811 H 74.9062 -5.40774 -3.63877 0
M  V30 812 N 78.3393 -0.321999 -1.54275 0
M  V30 813 C 79.5873 0.280489 -2.00144 0
M  V30 814 C 79.9083 1.52777 -1.21178 0
M  V30 815 O 79.1783 1.9338 -0.313187 0
M  V30 816 H 77.7583 0.106632 -0.73935 0
M  V30 817 H 80.4203 -0.438184 -1.8991 0
M  V30 818 H 79.5163 0.537972 -3.07428 0
M  V30 819 N 79.8174 1.5752 -0.0501392 0
M  V30 820 C 81.2284 1.80271 0.485705 0
M  V30 821 C 81.5794 0.96228 1.70981 0
M  V30 822 O 80.7044 0.178578 2.15662 0
M  V30 823 C 81.2994 3.26957 0.887938 0
M  V30 824 C 79.8584 3.5063 1.36877 0
M  V30 825 C 79.0054 2.75165 0.343468 0
M  V30 826 H 81.9564 1.56281 -0.276028 0
M  V30 827 H 81.9774 3.37821 1.75093 0
M  V30 828 H 81.4894 3.881 -0.0031809 0
M  V30 829 H 79.5904 2.94766 2.27911 0
M  V30 830 H 79.7034 4.59343 1.36164 0
M  V30 831 H 78.0674 2.4127 0.816128 0
M  V30 832 H 78.8504 3.39034 -0.539548 0
M  V30 833 N 81.2955 -0.223234 1.56011 0
M  V30 834 C 82.5425 -0.947875 1.78946 0
M  V30 835 C 82.8705 -1.844 0.618608 0
M  V30 836 O 82.1255 -1.91629 -0.397093 0
M  V30 837 C 82.4245 -1.81948 3.0762 0
M  V30 838 C 82.0905 -1.07672 4.37856 0
M  V30 839 C 80.7525 -0.871544 4.73242 0
M  V30 840 C 83.1045 -0.552081 5.18268 0
M  V30 841 C 80.4325 -0.129791 5.86556 0
M  V30 842 C 82.7845 0.17632 6.32354 0
M  V30 843 C 81.4485 0.39277 6.66343 0
M  V30 844 H 80.7185 -0.346852 0.654809 0
M  V30 845 H 83.3655 -0.216171 1.90276 0
M  V30 846 H 81.6705 -2.61899 2.91404 0
M  V30 847 H 83.3675 -2.38227 3.22566 0
M  V30 848 H 79.9575 -1.24662 4.1007 0
M  V30 849 H 84.1415 -0.698076 4.91366 0
M  V30 850 H 79.3975 0.048153 6.11381 0
M  V30 851 H 83.5715 0.590367 6.93893 0
M  V30 852 H 81.1985 0.969466 7.53993 0
M  V30 853 N 82.7736 -1.49793 -0.48987 0
M  V30 854 C 84.1846 -1.52914 -1.07118 0
M  V30 855 C 84.5356 -0.321738 -1.93544 0
M  V30 856 O 83.6606 0.567338 -2.08831 0
M  V30 857 C 84.2556 -2.771 -1.94938 0
M  V30 858 C 82.8146 -2.82963 -2.48212 0
M  V30 859 C 81.9616 -2.46972 -1.26096 0
M  V30 860 H 84.9126 -1.56329 -0.273289 0
M  V30 861 H 84.9336 -2.57892 -2.79771 0
M  V30 862 H 84.4456 -3.64959 -1.32009 0
M  V30 863 H 82.5466 -1.99411 -3.14748 0
M  V30 864 H 82.6596 -3.85406 -2.84603 0
M  V30 865 H 81.0236 -1.98994 -1.58976 0
M  V30 866 H 81.8066 -3.37118 -0.648581 0
M  V30 867 N 84.2517 0.741722 -1.39055 0
M  V30 868 C 85.1817 1.869 -1.39966 0
M  V30 869 C 86.1627 1.6804 -0.26392 0
M  V30 870 O 87.3477 1.88458 -0.468755 0
M  V30 871 C 84.4777 3.24572 -1.23574 0
M  V30 872 C 83.4317 3.58056 -2.34477 0
M  V30 873 C 82.7577 4.94593 -2.0318 0
M  V30 874 C 84.0577 3.61716 -3.76774 0
M  V30 875 H 85.7517 1.86395 -2.34302 0
M  V30 876 H 83.2977 0.895361 -1.1278 0
M  V30 877 H 85.2507 4.031 -1.22834 0
M  V30 878 H 83.9747 3.25587 -0.257045 0
M  V30 879 H 82.6337 2.81854 -2.34423 0
M  V30 880 H 82.2817 4.92181 -1.03765 0
M  V30 881 H 81.9817 5.17964 -2.77465 0
M  V30 882 H 83.5057 5.75486 -2.04079 0
M  V30 883 H 84.9197 4.30335 -3.78794 0
M  V30 884 H 83.3167 3.96603 -4.50362 0
M  V30 885 H 84.3867 2.61672 -4.08235 0
M  V30 886 N 85.7298 1.2412 0.971189 0
M  V30 887 C 87.1408 1.07236 1.52831 0
M  V30 888 C 87.4918 -0.357352 1.92918 0
M  V30 889 O 86.6168 -1.24528 1.76979 0
M  V30 890 C 87.2118 1.94043 2.77728 0
M  V30 891 C 85.7708 1.81394 3.29808 0
M  V30 892 C 84.9178 1.89189 2.02738 0
M  V30 893 H 87.8688 1.37648 0.789864 0
M  V30 894 H 87.8898 1.47066 3.5093 0
M  V30 895 H 87.4018 2.98093 2.4852 0
M  V30 896 H 85.5028 0.801634 3.63874 0
M  V30 897 H 85.6158 2.65294 3.98944 0
M  V30 898 H 83.9798 1.32877 2.17292 0
M  V30 899 H 84.7628 2.94812 1.759 0
M  V30 900 N 87.2079 -1.17134 1.05439 0
M  V30 901 C 88.1549 -2.21235 0.657539 0
M  V30 902 C 89.1249 -1.62551 -0.341543 0
M  V30 903 O 90.3099 -1.89379 -0.232393 0
M  V30 904 C 87.4499 -3.45076 0.0410575 0
M  V30 905 C 86.5629 -4.18042 1.08927 0
M  V30 906 C 85.6979 -5.29376 0.439848 0
M  V30 907 C 84.7369 -5.94132 1.4722 0
M  V30 908 N 83.8739 -6.96975 0.846756 0
M  V30 909 H 88.7139 -2.54534 1.54972 0
M  V30 910 H 86.2509 -1.25028 0.775006 0
M  V30 911 H 88.2089 -4.15862 -0.33383 0
M  V30 912 H 86.8389 -3.12353 -0.814568 0
M  V30 913 H 85.8909 -3.45945 1.58196 0
M  V30 914 H 87.2029 -4.62306 1.87282 0
M  V30 915 H 86.3569 -6.06699 0.0115125 0
M  V30 916 H 85.0959 -4.86251 -0.375656 0
M  V30 917 H 84.1009 -5.15538 1.91052 0
M  V30 918 H 85.3259 -6.39337 2.28965 0
M  V30 919 H 83.2719 -6.5598 0.0518075 0
M  V30 920 H 83.1889 -7.39565 1.5678 0
M  V30 921 H 84.4569 -7.78239 0.443277 0
M  V30 922 N 88.686 -0.835752 -1.33615 0
M  V30 923 C 90.097 -0.487099 -1.80234 0
M  V30 924 C 90.448 0.993627 -1.69179 0
M  V30 925 O 89.573 1.77403 -1.23924 0
M  V30 926 C 90.168 -0.877385 -3.27242 0
M  V30 927 C 88.727 -0.580915 -3.7189 0
M  V30 928 C 87.874 -1.0874 -2.5509 0
M  V30 929 H 90.825 -1.02474 -1.2118 0
M  V30 930 H 90.846 -0.186195 -3.80044 0
M  V30 931 H 90.358 -1.95512 -3.35256 0
M  V30 932 H 88.459 0.486881 -3.69405 0
M  V30 933 H 88.572 -1.13396 -4.65487 0
M  V30 934 H 86.936 -0.508392 -2.49575 0
M  V30 935 H 87.719 -2.17184 -2.65868 0
M  V30 936 N 90.1641 1.46063 -0.591896 0
M  V30 937 C 91.1111 2.30399 0.136069 0
M  V30 938 C 92.0811 1.41169 0.875238 0
M  V30 939 O 93.2661 1.70112 0.86409 0
M  V30 940 C 90.4061 3.25804 1.13781 0
M  V30 941 C 89.5191 4.30134 0.401137 0
M  V30 942 C 88.6541 5.12659 1.39121 0
M  V30 943 C 87.6931 6.0873 0.641462 0
M  V30 944 N 86.8301 6.8409 1.58004 0
M  V30 945 H 91.6701 2.92118 -0.589144 0
M  V30 946 H 89.2071 1.43959 -0.302342 0
M  V30 947 H 91.1651 3.79569 1.73156 0
M  V30 948 H 89.7951 2.65872 1.83062 0
M  V30 949 H 88.8471 3.79152 -0.307826 0
M  V30 950 H 90.1591 4.98458 -0.184565 0
M  V30 951 H 89.3131 5.70747 2.05749 0
M  V30 952 H 88.0521 4.44316 2.01084 0
M  V30 953 H 87.0571 5.49786 -0.0385419 0
M  V30 954 H 88.2821 6.79095 0.0270945 0
M  V30 955 H 86.2281 6.18449 2.18761 0
M  V30 956 H 86.1451 7.48709 1.04738 0
M  V30 957 H 87.4131 7.4673 2.23639 0
M  V30 958 N 91.6422 0.330177 1.54103 0
M  V30 959 C 92.8702 -0.272179 2.05102 0
M  V30 960 C 93.2852 -1.45267 1.20595 0
M  V30 961 O 92.6422 -1.8094 0.238144 0
M  V30 962 C 92.6932 -0.70023 3.54653 0
M  V30 963 O 92.4142 0.433301 4.35952 0
M  V30 964 C 93.9152 -1.3647 4.21771 0
M  V30 965 H 91.1352 -0.0549159 0.668749 0
M  V30 966 H 93.6792 0.478285 1.98828 0
M  V30 967 H 91.8342 -1.40066 3.61193 0
M  V30 968 H 92.2482 0.0947539 5.24414 0
M  V30 969 H 93.7222 -1.61509 5.27843 0
M  V30 970 H 94.1992 -2.31409 3.73292 0
M  V30 971 H 94.8052 -0.706675 4.19388 0
M  V30 972 N 93.1203 -1.57491 0.0584922 0
M  V30 973 C 94.3673 -1.92978 -0.613648 0
M  V30 974 C 94.6953 -0.937461 -1.70417 0
M  V30 975 O 93.9503 0.049078 -1.95638 0
M  V30 976 C 94.2493 -3.3513 -1.24188 0
M  V30 977 C 93.9153 -4.50037 -0.278826 0
M  V30 978 C 92.5773 -4.81198 -0.0138447 0
M  V30 979 C 94.9293 -5.19807 0.380777 0
M  V30 980 C 92.2573 -5.79473 0.918052 0
M  V30 981 C 94.6093 -6.19079 1.30091 0
M  V30 982 C 93.2733 -6.48665 1.57449 0
M  V30 983 H 92.5433 -0.706157 -0.22455 0
M  V30 984 H 95.1903 -1.91082 0.126533 0
M  V30 985 H 93.4953 -3.33429 -2.05749 0
M  V30 986 H 95.1923 -3.59871 -1.769 0
M  V30 987 H 91.7823 -4.25726 -0.495539 0
M  V30 988 H 95.9663 -4.95939 0.189158 0
M  V30 989 H 91.2223 -6.00727 1.1374 0
M  V30 990 H 95.3963 -6.7225 1.81804 0
M  V30 991 H 93.0233 -7.24628 2.29822 0
M  V30 992 N 94.5984 0.214957 -1.56127 0
M  V30 993 C 95.8474 0.936451 -1.78643 0
M  V30 994 C 96.1604 1.85237 -0.628229 0
M  V30 995 O 97.3664 2.613 -0.737186 0
M  V30 996 C 95.8224 1.7154 -3.16389 0
M  V30 997 C 95.4304 0.845299 -4.39953 0
M  V30 998 C 97.1744 2.42772 -3.48227 0
M  V30 999 C 95.0814 1.62198 -5.68723 0
M  V30 1000 H 94.0114 0.353401 -0.666051 0
M  V30 1001 H 96.6624 0.190169 -1.82512 0
M  V30 1002 H 95.0444 2.50484 -3.06715 0
M  V30 1003 H 96.2184 0.0959353 -4.607 0
M  V30 1004 H 94.5334 0.244789 -4.1568 0
M  V30 1005 H 97.1304 3.01394 -4.41663 0
M  V30 1006 H 97.4734 3.15984 -2.71035 0
M  V30 1007 H 98.0064 1.70813 -3.5926 0
M  V30 1008 H 94.7454 0.933011 -6.48826 0
M  V30 1009 H 94.2654 2.34579 -5.52026 0
M  V30 1010 H 95.9444 2.18095 -6.09133 0
M  V30 1011 N 96.0765 1.50051 0.48192 0
M  V30 1012 C 97.0065 1.71046 1.58951 0
M  V30 1013 C 97.9875 0.559288 1.60642 0
M  V30 1014 O 99.1725 0.797243 1.77081 0
M  V30 1015 C 96.3025 1.79462 2.97339 0
M  V30 1016 C 95.2565 2.94558 3.10515 0
M  V30 1017 C 94.5825 2.88105 4.50444 0
M  V30 1018 C 95.8825 4.35227 2.88747 0
M  V30 1019 H 97.5765 2.6378 1.41635 0
M  V30 1020 H 95.1225 1.26936 0.679942 0
M  V30 1021 H 97.0755 1.92734 3.74742 0
M  V30 1022 H 95.7995 0.833412 3.15788 0
M  V30 1023 H 94.4585 2.80918 2.35543 0
M  V30 1024 H 94.1065 1.89853 4.65795 0
M  V30 1025 H 93.8065 3.65366 4.60197 0
M  V30 1026 H 95.3305 3.03412 5.29881 0
M  V30 1027 H 96.7445 4.49449 3.55905 0
M  V30 1028 H 95.1415 5.13856 3.09955 0
M  V30 1029 H 96.2115 4.48347 1.84696 0
M  V30 1030 N 97.5546 -0.734337 1.39446 0
M  V30 1031 C 98.9656 -1.31264 1.32766 0
M  V30 1032 C 99.3166 -1.96198 -0.00767497 0
M  V30 1033 O 98.4416 -1.96346 -0.909796 0
M  V30 1034 C 99.0366 -2.38682 2.4045 0
M  V30 1035 C 97.5956 -2.92184 2.37288 0
M  V30 1036 C 96.7426 -1.6576 2.22304 0
M  V30 1037 H 99.6936 -0.531799 1.49525 0
M  V30 1038 H 99.7146 -3.19087 2.07276 0
M  V30 1039 H 99.2266 -1.91392 3.37625 0
M  V30 1040 H 97.3276 -3.43752 1.43754 0
M  V30 1041 H 97.4406 -3.45253 3.3217 0
M  V30 1042 H 95.8046 -1.9012 1.69489 0
M  V30 1043 H 96.5876 -1.20521 3.21449 0
M  V30 1044 N 99.0327 -1.24633 -0.964593 0
M  V30 1045 C 99.9827 -1.00841 -2.04487 0
M  V30 1046 C 100.967 0.0512468 -1.60818 0
M  V30 1047 O 102.159 -0.162865 -1.76249 0
M  V30 1048 C 99.2877 -0.618474 -3.37683 0
M  V30 1049 C 98.3737 -1.71437 -3.87905 0
M  V30 1050 N 98.7647 -2.9477 -4.11029 0
M  V30 1051 C 97.0627 -1.5926 -4.16596 0
M  V30 1052 C 97.7637 -3.65834 -4.52261 0
M  V30 1053 N 96.7397 -2.9341 -4.57615 0
M  V30 1054 H 100.542 -1.94487 -2.20345 0
M  V30 1055 H 98.0557 -1.14805 -1.14863 0
M  V30 1056 H 100.053 -0.429247 -4.14684 0
M  V30 1057 H 98.7127 0.310766 -3.23209 0
M  V30 1058 H 99.7237 -3.30917 -3.9839 0
M  V30 1059 H 96.4007 -0.731606 -4.1104 0
M  V30 1060 H 97.7907 -4.71646 -4.78539 0
M  V30 1061 N 100.511 1.16574 -1.06058 0
M  V30 1062 C 101.759 1.86677 -0.77434 0
M  V30 1063 C 102.08 1.81959 0.701147 0
M  V30 1064 O 101.35 1.2515 1.50713 0
M  V30 1065 H 99.9298 0.691134 -0.283449 0
M  V30 1066 H 102.592 1.41378 -1.34158 0
M  V30 1067 H 101.688 2.92181 -1.09711 0
M  V30 1068 N 101.989 0.842826 1.3317 0
M  V30 1069 C 103.405 0.531128 1.50503 0
M  V30 1070 C 103.605 -0.940734 1.78192 0
M  V30 1071 O 102.661 -1.72436 1.84451 0
M  V30 1072 C 103.974 1.40789 2.65705 0
M  V30 1073 C 105.522 1.40708 2.79589 0
M  V30 1074 C 105.997 2.26878 3.97857 0
M  V30 1075 N 107.488 2.24609 4.05099 0
M  V30 1076 C 108.223 2.88019 4.95815 0
M  V30 1077 N 107.719 3.60496 5.9162 0
M  V30 1078 N 109.512 2.77469 4.88843 0
M  V30 1079 H 101.663 1.79557 1.1346 0
M  V30 1080 H 103.926 0.766267 0.558156 0
M  V30 1081 H 103.632 2.454 2.51936 0
M  V30 1082 H 103.506 1.08677 3.61205 0
M  V30 1083 H 105.893 0.368668 2.92788 0
M  V30 1084 H 105.974 1.76829 1.84838 0
M  V30 1085 H 105.618 3.3078 3.85418 0
M  V30 1086 H 105.548 1.88096 4.91861 0
M  V30 1087 H 108.039 1.71906 3.36536 0
M  V30 1088 H 108.352 4.06076 6.57512 0
M  V30 1089 H 106.697 3.64604 5.91683 0
M  V30 1090 H 109.888 2.20406 4.12963 0
M  V30 1091 H 110.061 3.2717 5.59342 0
M  V30 1092 N 103.467 -1.45747 0.599634 0
M  V30 1093 C 104.715 -2.01893 0.0915472 0
M  V30 1094 C 105.036 -1.47155 -1.27946 0
M  V30 1095 O 104.306 -0.66273 -1.84349 0
M  V30 1096 H 102.886 -0.746363 0.0308524 0
M  V30 1097 H 105.548 -1.78645 0.779237 0
M  V30 1098 H 104.644 -3.1208 0.0353086 0
M  V30 1099 N 104.945 -0.338344 -1.53925 0
M  V30 1100 C 106.173 0.261298 -2.05243 0
M  V30 1101 C 106.588 1.44625 -1.21363 0
M  V30 1102 O 105.945 1.80811 -0.247736 0
M  V30 1103 C 105.996 0.681412 -3.5502 0
M  V30 1104 O 105.717 -0.456414 -4.35716 0
M  V30 1105 C 107.218 1.34232 -4.22489 0
M  V30 1106 H 104.438 0.0513685 -0.669031 0
M  V30 1107 H 106.982 -0.488822 -1.98572 0
M  V30 1108 H 105.137 1.38148 -3.61931 0
M  V30 1109 H 105.551 -0.122564 -5.24357 0
M  V30 1110 H 107.025 1.58708 -5.28693 0
M  V30 1111 H 107.502 2.29426 -3.74514 0
M  V30 1112 H 108.108 0.684424 -4.19757 0
M  V30 1113 N 106.423 1.57458 -0.0668435 0
M  V30 1114 C 107.353 2.15468 0.899764 0
M  V30 1115 C 108.334 1.08042 1.31381 0
M  V30 1116 O 109.519 1.36054 1.38574 0
M  V30 1117 C 106.649 2.71232 2.16911 0
M  V30 1118 C 105.603 3.83781 1.89463 0
M  V30 1119 C 104.929 4.26127 3.22986 0
M  V30 1120 C 106.229 5.08238 1.20381 0
M  V30 1121 H 107.923 2.96488 0.416529 0
M  V30 1122 H 105.469 1.4262 0.198908 0
M  V30 1123 H 107.422 3.10458 2.84945 0
M  V30 1124 H 106.146 1.87426 2.67468 0
M  V30 1125 H 104.805 3.45051 1.23836 0
M  V30 1126 H 104.453 3.39249 3.71374 0
M  V30 1127 H 104.153 5.01993 3.05413 0
M  V30 1128 H 105.677 4.67966 3.92225 0
M  V30 1129 H 107.091 5.44811 1.78475 0
M  V30 1130 H 105.488 5.89349 1.13083 0
M  V30 1131 H 106.558 4.84558 0.182153 0
M  V30 1132 N 107.901 -0.206675 1.56239 0
M  V30 1133 C 109.129 -0.945345 1.8404 0
M  V30 1134 C 109.544 -1.77336 0.647885 0
M  V30 1135 O 108.901 -1.78425 -0.383511 0
M  V30 1136 C 108.952 -1.8509 3.10522 0
M  V30 1137 O 108.673 -1.05634 4.25174 0
M  V30 1138 C 110.174 -2.70222 3.51418 0
M  V30 1139 H 107.394 -0.276372 0.61144 0
M  V30 1140 H 109.938 -0.217417 2.03341 0
M  V30 1141 H 108.093 -2.53259 2.93153 0
M  V30 1142 H 108.507 -1.67238 4.97124 0
M  V30 1143 H 109.981 -3.29438 4.42916 0
M  V30 1144 H 110.458 -3.43358 2.73864 0
M  V30 1145 H 111.064 -2.07443 3.71278 0
M  V30 1146 N 109.379 -1.50304 -0.473955 0
M  V30 1147 C 110.625 -1.61389 -1.22806 0
M  V30 1148 C 110.958 -0.311955 -1.91678 0
M  V30 1149 O 110.233 0.686384 -1.81986 0
M  V30 1150 C 110.516 -2.79219 -2.27396 0
M  V30 1151 C 110.369 -4.19286 -1.62848 0
M  V30 1152 C 111.688 -2.92614 -3.28732 0
M  V30 1153 H 108.807 -0.587399 -0.445119 0
M  V30 1154 H 111.449 -1.82681 -0.522265 0
M  V30 1155 H 109.599 -2.61195 -2.87592 0
M  V30 1156 H 111.271 -4.48892 -1.06271 0
M  V30 1157 H 109.514 -4.23677 -0.931693 0
M  V30 1158 H 110.185 -4.97655 -2.38838 0
M  V30 1159 H 112.661 -3.09105 -2.78556 0
M  V30 1160 H 111.537 -3.76688 -3.99246 0
M  V30 1161 H 111.798 -2.03107 -3.92683 0
M  V30 1162 N 110.857 0.726932 -1.39834 0
M  V30 1163 C 112.268 1.30558 -1.3346 0
M  V30 1164 C 112.619 1.962 -0.00273003 0
M  V30 1165 O 111.744 1.96826 0.899371 0
M  V30 1166 C 112.339 2.37404 -2.41713 0
M  V30 1167 C 110.898 2.90921 -2.38835 0
M  V30 1168 C 110.045 1.64578 -2.2318 0
M  V30 1169 H 112.996 0.523862 -1.49804 0
M  V30 1170 H 113.017 3.17984 -2.08966 0
M  V30 1171 H 112.529 1.89599 -3.38635 0
M  V30 1172 H 110.63 3.42985 -1.45575 0
M  V30 1173 H 110.743 3.43487 -3.33997 0
M  V30 1174 H 109.107 1.89219 -1.70494 0
M  V30 1175 H 109.89 1.18814 -3.22084 0
M  V30 1176 N 112.336 1.25143 0.95797 0
M  V30 1177 C 113.584 1.09476 1.69881 0
M  V30 1178 C 113.905 -0.365502 1.91544 0
M  V30 1179 O 113.175 -1.25985 1.50015 0
M  V30 1180 H 111.755 0.402128 0.629525 0
M  V30 1181 H 114.417 1.57214 1.15194 0
M  V30 1182 H 113.513 1.60046 2.6794 0
M  V30 1183 N 113.814 -1.1601 1.06675 0
M  V30 1184 C 115.225 -1.68235 0.809565 0
M  V30 1185 C 115.576 -1.8454 -0.666303 0
M  V30 1186 O 114.701 -1.54374 -1.5165 0
M  V30 1187 C 115.296 -3.05585 1.46299 0
M  V30 1188 C 113.855 -3.54915 1.25349 0
M  V30 1189 C 113.002 -2.30804 1.53703 0
M  V30 1190 H 115.953 -1.00318 1.22971 0
M  V30 1191 H 115.974 -3.70174 0.880431 0
M  V30 1192 H 115.486 -2.93686 2.53713 0
M  V30 1193 H 113.587 -3.72067 0.199261 0
M  V30 1194 H 113.7 -4.36774 1.9689 0
M  V30 1195 H 112.064 -2.36007 0.957739 0
M  V30 1196 H 112.847 -2.21499 2.62284 0
M  V30 1197 N 115.292 -0.849877 -1.32721 0
M  V30 1198 C 116.202 -0.293791 -2.32753 0
M  V30 1199 C 117.218 0.585906 -1.63839 0
M  V30 1200 O 118.394 0.487413 -1.95413 0
M  V30 1201 C 115.459 0.512752 -3.42887 0
M  V30 1202 C 114.52 -0.39252 -4.27502 0
M  V30 1203 C 113.753 0.375625 -5.32377 0
M  V30 1204 O 113.976 1.60613 -5.4732 0
M  V30 1205 O 112.91 -0.256094 -6.01355 0
M  V30 1206 H 116.736 -1.12242 -2.82197 0
M  V30 1207 H 114.321 -0.612685 -1.36259 0
M  V30 1208 H 116.203 0.970704 -4.10067 0
M  V30 1209 H 114.878 1.31826 -2.95641 0
M  V30 1210 H 113.785 -0.898547 -3.63149 0
M  V30 1211 H 115.118 -1.16309 -4.7826 0
M  V30 1212 N 116.77 1.45427 -0.607355 0
M  V30 1213 C 117.995 2.07124 -0.107006 0
M  V30 1214 C 118.42 1.44906 1.19933 0
M  V30 1215 O 117.778 0.541687 1.73019 0
M  V30 1216 C 117.826 3.60595 0.0194119 0
M  V30 1217 O 116.93 3.98285 1.0697 0
M  V30 1218 H 116.271 0.659868 -0.0739597 0
M  V30 1219 H 118.801 1.86683 -0.837297 0
M  V30 1220 H 118.811 4.07419 0.2177 0
M  V30 1221 H 117.486 4.05266 -0.934453 0
M  V30 1222 H 116.063 3.63133 0.847889 0
M  V30 1223 N 118.248 0.346503 1.53744 0
M  V30 1224 C 119.158 -0.517293 2.28826 0
M  V30 1225 C 120.174 -1.10935 1.3405 0
M  V30 1226 O 121.35 -1.1244 1.6709 0
M  V30 1227 C 118.415 -1.65098 3.04866 0
M  V30 1228 C 117.476 -1.0884 4.15274 0
M  V30 1229 C 116.709 -2.16806 4.87679 0
M  V30 1230 O 116.932 -3.3758 4.59778 0
M  V30 1231 O 115.866 -1.80934 5.74061 0
M  V30 1232 H 119.692 0.0931396 3.03557 0
M  V30 1233 H 117.277 0.111458 1.48984 0
M  V30 1234 H 119.159 -2.31053 3.5241 0
M  V30 1235 H 117.834 -2.24717 2.32989 0
M  V30 1236 H 116.741 -0.3933 3.72027 0
M  V30 1237 H 118.074 -0.537036 4.89261 0
M  V30 1238 N 119.726 -1.57421 0.075193 0
M  V30 1239 C 121.003 -1.85029 -0.634329 0
M  V30 1240 C 121.383 -0.968305 -1.87582 0
M  V30 1241 O 120.731 -0.0354749 -2.28472 0
M  V30 1242 C 120.941 -3.35286 -0.968742 0
M  V30 1243 C 122.289 -4.02875 -1.34077 0
M  V30 1244 O 123.313 -3.40051 -1.06037 0
M  V30 1245 O 122.172 -5.13691 -1.86506 0
M  V30 1246 H 119.266 -0.7645 -0.315387 0
M  V30 1247 H 121.812 -1.69366 0.106382 0
M  V30 1248 H 120.584 -3.91203 -0.0871376 0
M  V30 1249 H 120.207 -3.56223 -1.7661 0
M  V30 1250 N 121.204 0.198386 -1.56346 0
M  V30 1251 C 122.62 0.549085 -1.49857 0
M  V30 1252 C 122.82 1.86016 -0.774611 0
M  V30 1253 O 121.876 2.50416 -0.323776 0
M  V30 1254 C 123.189 0.606868 -2.94512 0
M  V30 1255 C 124.737 0.695925 -3.05165 0
M  V30 1256 C 125.212 0.784848 -4.51225 0
M  V30 1257 N 126.703 0.848463 -4.55363 0
M  V30 1258 C 127.438 0.937378 -5.65686 0
M  V30 1259 N 126.934 0.9888 -6.85707 0
M  V30 1260 N 128.727 0.974312 -5.53592 0
M  V30 1261 H 120.878 -0.661655 -2.01831 0
M  V30 1262 H 123.141 -0.235261 -0.918344 0
M  V30 1263 H 122.847 -0.28732 -3.50524 0
M  V30 1264 H 122.721 1.46268 -3.47686 0
M  V30 1265 H 125.108 1.58055 -2.49204 0
M  V30 1266 H 125.189 -0.186022 -2.55123 0
M  V30 1267 H 124.833 -0.0954072 -5.0781 0
M  V30 1268 H 124.763 1.68255 -4.98997 0
M  V30 1269 H 127.254 0.818103 -3.68938 0
M  V30 1270 H 127.567 1.05707 -7.65536 0
M  V30 1271 H 125.912 0.957534 -6.88372 0
M  V30 1272 H 129.103 0.930954 -4.58749 0
M  V30 1273 H 129.276 1.04015 -6.39597 0
M  V30 1274 N 122.682 1.50554 0.465978 0
M  V30 1275 C 124.093 1.54599 1.04671 0
M  V30 1276 C 124.444 0.352488 1.93008 0
M  V30 1277 O 123.569 -0.534044 2.09707 0
M  V30 1278 C 124.164 2.80166 1.90505 0
M  V30 1279 C 122.723 2.86876 2.43678 0
M  V30 1280 C 121.87 2.48947 1.22151 0
M  V30 1281 H 124.821 1.56744 0.248384 0
M  V30 1282 H 124.842 2.62311 2.75633 0
M  V30 1283 H 124.354 3.67013 1.26186 0
M  V30 1284 H 122.455 2.04393 3.11536 0
M  V30 1285 H 122.568 3.89885 2.78436 0
M  V30 1286 H 120.932 2.01498 1.5579 0
M  V30 1287 H 121.715 3.38107 0.594866 0
M  V30 1288 N 124.16 -0.719506 1.40217 0
M  V30 1289 C 125.409 -1.47486 1.37589 0
M  V30 1290 C 125.722 -1.9559 -0.0201568 0
M  V30 1291 O 126.928 -2.70973 -0.169049 0
M  V30 1292 C 125.384 -2.66575 2.41796 0
M  V30 1293 C 124.992 -2.25358 3.87192 0
M  V30 1294 C 126.736 -3.4433 2.48269 0
M  V30 1295 C 124.643 -3.41262 4.83005 0
M  V30 1296 H 123.573 -0.553901 0.511576 0
M  V30 1297 H 126.224 -0.783427 1.65936 0
M  V30 1298 H 124.606 -3.3787 2.06543 0
M  V30 1299 H 125.78 -1.61509 4.31569 0
M  V30 1300 H 124.095 -1.60657 3.84159 0
M  V30 1301 H 126.692 -4.30569 3.17041 0
M  V30 1302 H 127.035 -3.87872 1.51198 0
M  V30 1303 H 127.568 -2.80076 2.82493 0
M  V30 1304 H 124.307 -3.02755 5.81394 0
M  V30 1305 H 123.827 -4.0404 4.43297 0
M  V30 1306 H 125.506 -4.07383 5.02641 0
M  V30 1307 N 125.638 -1.25649 -0.95132 0
M  V30 1308 C 126.601 -1.06399 -2.03007 0
M  V30 1309 C 127.601 -0.0156794 -1.60792 0
M  V30 1310 O 128.791 -0.25817 -1.72276 0
M  V30 1311 C 125.923 -0.616184 -3.35285 0
M  V30 1312 H 127.116 -2.02164 -2.21517 0
M  V30 1313 H 124.669 -1.08103 -1.12887 0
M  V30 1314 H 125.404 0.343917 -3.22471 0
M  V30 1315 H 125.189 -1.37301 -3.67275 0
M  V30 1316 H 126.679 -0.503032 -4.14559 0
M  V30 1317 N 127.117 1.15442 -1.07289 0
M  V30 1318 C 128.047 2.22312 -0.714107 0
M  V30 1319 C 129.028 1.67467 0.298155 0
M  V30 1320 O 130.213 1.93445 0.171048 0
M  V30 1321 C 127.343 3.47124 -0.110448 0
M  V30 1322 C 126.297 4.14926 -1.04979 0
M  V30 1323 C 125.623 5.33807 -0.308924 0
M  V30 1324 C 126.923 4.64762 -2.38314 0
M  V30 1325 H 128.617 2.5258 -1.6076 0
M  V30 1326 H 126.163 1.21404 -0.77441 0
M  V30 1327 H 128.116 4.21124 0.152482 0
M  V30 1328 H 126.84 3.16187 0.81812 0
M  V30 1329 H 125.499 3.42866 -1.29764 0
M  V30 1330 H 125.147 4.99126 0.623084 0
M  V30 1331 H 124.847 5.80113 -0.935036 0
M  V30 1332 H 126.371 6.10576 -0.0537771 0
M  V30 1333 H 127.785 5.30292 -2.1786 0
M  V30 1334 H 126.182 5.21728 -2.96514 0
M  V30 1335 H 127.252 3.80434 -3.00663 0
M  V30 1336 N 128.595 0.856903 1.32268 0
M  V30 1337 C 129.558 0.308171 2.27119 0
M  V30 1338 C 130.558 -0.533421 1.51695 0
M  V30 1339 O 131.748 -0.344607 1.70757 0
M  V30 1340 C 128.88 -0.563757 3.36206 0
M  V30 1341 H 130.073 1.14535 2.77167 0
M  V30 1342 H 127.626 0.631421 1.42978 0
M  V30 1343 H 128.361 -1.42266 2.91429 0
M  V30 1344 H 128.146 0.0386749 3.92081 0
M  V30 1345 H 129.636 -0.940386 4.06874 0
M  V30 1346 N 130.073 -1.45103 0.615059 0
M  V30 1347 C 131.489 -1.57137 0.279322 0
M  V30 1348 C 131.689 -1.60523 -1.21797 0
M  V30 1349 O 130.745 -1.53956 -2.00134 0
M  V30 1350 C 132.058 -2.85062 0.957083 0
M  V30 1351 C 133.606 -2.98749 0.933706 0
M  V30 1352 C 134.081 -4.29455 1.59162 0
M  V30 1353 N 135.572 -4.36231 1.55746 0
M  V30 1354 C 136.307 -5.36051 2.0356 0
M  V30 1355 N 135.803 -6.42367 2.59494 0
M  V30 1356 N 137.596 -5.27456 1.94284 0
M  V30 1357 H 129.747 -1.41148 1.58717 0
M  V30 1358 H 132.01 -0.675331 0.665306 0
M  V30 1359 H 131.716 -2.88488 2.01166 0
M  V30 1360 H 131.59 -3.7407 0.48494 0
M  V30 1361 H 133.977 -2.94886 -0.112347 0
M  V30 1362 H 134.058 -2.11132 1.44419 0
M  V30 1363 H 133.702 -4.34077 2.63704 0
M  V30 1364 H 133.632 -5.15901 1.0561 0
M  V30 1365 H 136.123 -3.60011 1.14893 0
M  V30 1366 H 136.436 -7.14793 2.93752 0
M  V30 1367 H 134.781 -6.43097 2.63537 0
M  V30 1368 H 137.972 -4.43308 1.5032 0
M  V30 1369 H 138.145 -6.05099 2.3186 0
M  V30 1370 N 131.551 -0.354651 -1.53558 0
M  V30 1371 C 132.779 0.239515 -2.05509 0
M  V30 1372 C 133.194 1.4333 -1.2289 0
M  V30 1373 O 132.551 1.80538 -0.266899 0
M  V30 1374 C 132.602 0.643719 -3.55723 0
M  V30 1375 O 132.323 -0.502602 -4.35207 0
M  V30 1376 C 133.824 1.29743 -4.23889 0
M  V30 1377 H 131.044 0.0442697 -0.669538 0
M  V30 1378 H 133.588 -0.509856 -1.98042 0
M  V30 1379 H 131.743 1.34302 -3.63376 0
M  V30 1380 H 132.157 -0.178172 -5.24197 0
M  V30 1381 H 133.631 1.53091 -5.30346 0
M  V30 1382 H 134.108 2.25441 -3.76926 0
M  V30 1383 H 134.714 0.639865 -4.20459 0
M  V30 1384 N 133.029 1.57378 -0.0835403 0
M  V30 1385 C 133.992 2.12252 0.864959 0
M  V30 1386 C 134.992 1.04916 1.21858 0
M  V30 1387 O 136.182 1.30853 1.14991 0
M  V30 1388 C 133.314 2.63358 2.16461 0
M  V30 1389 H 134.507 2.97371 0.388676 0
M  V30 1390 H 132.06 1.55423 0.165317 0
M  V30 1391 H 132.795 1.81727 2.686 0
M  V30 1392 H 132.58 3.41826 1.92087 0
M  V30 1393 H 134.07 3.05847 2.84337 0
M  V30 1394 N 134.507 -0.190092 1.56449 0
M  V30 1395 C 135.753 -0.911052 1.81184 0
M  V30 1396 C 136.086 -1.82699 0.658396 0
M  V30 1397 O 135.361 -1.91491 -0.340775 0
M  V30 1398 C 135.644 -1.72297 3.16205 0
M  V30 1399 C 135.497 -0.831419 4.42049 0
M  V30 1400 C 136.816 -2.69454 3.47969 0
M  V30 1401 H 133.935 -0.32977 0.659106 0
M  V30 1402 H 136.577 -0.178169 1.89163 0
M  V30 1403 H 134.727 -2.34778 3.09534 0
M  V30 1404 H 136.399 -0.220929 4.60771 0
M  V30 1405 H 134.642 -0.138406 4.33579 0
M  V30 1406 H 135.313 -1.43461 5.33032 0
M  V30 1407 H 137.789 -2.17104 3.54972 0
M  V30 1408 H 136.665 -3.23342 4.43555 0
M  V30 1409 H 136.926 -3.48744 2.71717 0
M  V30 1410 N 135.985 -1.50799 -0.457987 0
M  V30 1411 C 137.21 -1.66496 -1.23668 0
M  V30 1412 C 137.635 -0.353288 -1.84752 0
M  V30 1413 O 136.993 0.684346 -1.67888 0
M  V30 1414 C 137.041 -2.76763 -2.3116 0
M  V30 1415 O 136.145 -2.38928 -3.36136 0
M  V30 1416 H 135.486 -0.555828 -0.363252 0
M  V30 1417 H 138.016 -1.9725 -0.543474 0
M  V30 1418 H 138.026 -3.00232 -2.76269 0
M  V30 1419 H 136.701 -3.71954 -1.86073 0
M  V30 1420 H 135.278 -2.25953 -2.96647 0
M  V30 1421 N 137.463 0.71206 -1.40597 0
M  V30 1422 C 138.373 1.8562 -1.43466 0
M  V30 1423 C 139.389 1.70902 -0.326902 0
M  V30 1424 O 140.565 1.93105 -0.572043 0
M  V30 1425 C 137.63 3.21451 -1.29884 0
M  V30 1426 C 136.691 3.48398 -2.50833 0
M  V30 1427 C 135.924 4.77749 -2.3789 0
M  V30 1428 O 136.147 5.53089 -1.39459 0
M  V30 1429 O 135.081 5.05111 -3.27333 0
M  V30 1430 H 138.907 1.86155 -2.39958 0
M  V30 1431 H 136.492 0.86295 -1.21957 0
M  V30 1432 H 138.374 4.02579 -1.24531 0
M  V30 1433 H 137.049 3.21636 -0.364997 0
M  V30 1434 H 135.956 2.67265 -2.61763 0
M  V30 1435 H 137.289 3.53014 -3.4299 0
M  V30 1436 N 138.941 1.26152 0.944643 0
M  V30 1437 C 140.189 1.11271 1.6871 0
M  V30 1438 C 140.51 -0.345166 1.91921 0
M  V30 1439 O 139.78 -1.24387 1.51343 0
M  V30 1440 H 138.36 0.408783 0.625224 0
M  V30 1441 H 141.022 1.58427 1.1352 0
M  V30 1442 H 140.118 1.62879 2.66227 0
M  V30 1443 N 140.419 -1.14872 1.07899 0
M  V30 1444 C 141.666 -1.85789 0.805532 0
M  V30 1445 C 141.994 -1.82649 -0.668561 0
M  V30 1446 O 141.249 -1.24858 -1.50695 0
M  V30 1447 C 141.548 -3.34223 1.26609 0
M  V30 1448 C 141.214 -3.57555 2.74709 0
M  V30 1449 C 139.876 -3.63631 3.1516 0
M  V30 1450 C 142.228 -3.66803 3.70277 0
M  V30 1451 C 139.556 -3.76473 4.49983 0
M  V30 1452 C 141.908 -3.8117 5.04869 0
M  V30 1453 C 140.572 -3.85494 5.44932 0
M  V30 1454 H 139.842 -0.679849 0.294765 0
M  V30 1455 H 142.489 -1.3572 1.35101 0
M  V30 1456 H 140.794 -3.86536 0.640103 0
M  V30 1457 H 142.491 -3.87511 1.03132 0
M  V30 1458 H 139.081 -3.5347 2.42398 0
M  V30 1459 H 143.265 -3.61404 3.40149 0
M  V30 1460 H 138.521 -3.7808 4.80484 0
M  V30 1461 H 142.695 -3.87268 5.78789 0
M  V30 1462 H 140.322 -3.95197 6.49403 0
M  V30 1463 N 141.898 -0.863906 -1.31812 0
M  V30 1464 C 143.309 -0.52522 -1.7916 0
M  V30 1465 C 143.66 0.957518 -1.71248 0
M  V30 1466 O 142.785 1.74734 -1.27659 0
M  V30 1467 C 143.38 -0.9466 -3.25307 0
M  V30 1468 C 141.939 -0.659668 -3.70574 0
M  V30 1469 C 141.086 -1.14126 -2.52726 0
M  V30 1470 H 144.037 -1.05022 -1.1898 0
M  V30 1471 H 144.058 -0.266766 -3.79564 0
M  V30 1472 H 143.57 -2.02579 -3.31034 0
M  V30 1473 H 141.671 0.408416 -3.70355 0
M  V30 1474 H 141.784 -1.23245 -4.62977 0
M  V30 1475 H 140.148 -0.561216 -2.4844 0
M  V30 1476 H 140.931 -2.22775 -2.61201 0
M  V30 1477 N 143.376 1.44774 -0.622745 0
M  V30 1478 C 144.326 2.2774 0.108889 0
M  V30 1479 C 145.31 1.38189 0.824175 0
M  V30 1480 O 146.502 1.62063 0.711664 0
M  V30 1481 C 143.631 3.25353 1.09546 0
M  V30 1482 C 142.717 4.22392 0.380232 0
M  V30 1483 N 143.108 5.02388 -0.586535 0
M  V30 1484 C 141.406 4.41588 0.625792 0
M  V30 1485 C 142.107 5.72894 -1.00834 0
M  V30 1486 N 141.083 5.42479 -0.348878 0
M  V30 1487 H 144.885 2.86993 -0.63341 0
M  V30 1488 H 142.399 1.5611 -0.447589 0
M  V30 1489 H 144.396 3.83538 1.63414 0
M  V30 1490 H 143.056 2.6766 1.83815 0
M  V30 1491 H 144.067 5.0885 -0.963975 0
M  V30 1492 H 140.744 3.95003 1.352 0
M  V30 1493 H 142.134 6.47158 -1.80656 0
M  V30 1494 N 144.854 0.36279 1.53368 0
M  V30 1495 C 145.817 -0.472679 2.24273 0
M  V30 1496 C 146.817 -1.012 1.24961 0
M  V30 1497 O 148.007 -0.898194 1.49259 0
M  V30 1498 C 145.139 -1.66039 2.97731 0
M  V30 1499 H 146.332 0.14773 2.99536 0
M  V30 1500 H 143.885 0.114434 1.55881 0
M  V30 1501 H 144.62 -2.31896 2.26704 0
M  V30 1502 H 144.405 -1.28066 3.70596 0
M  V30 1503 H 145.895 -2.25252 3.51641 0
M  V30 1504 N 146.332 -1.57332 0.0918853 0
M  V30 1505 C 147.743 -1.81496 -0.437739 0
M  V30 1506 C 148.094 -1.00727 -1.6837 0
M  V30 1507 O 147.219 -0.235694 -2.15113 0
M  V30 1508 C 147.814 -3.29197 -0.800939 0
M  V30 1509 C 146.373 -3.54136 -1.27532 0
M  V30 1510 C 145.52 -2.75979 -0.270392 0
M  V30 1511 H 148.471 -1.55494 0.317366 0
M  V30 1512 H 148.492 -3.42344 -1.66074 0
M  V30 1513 H 148.004 -3.87955 0.106078 0
M  V30 1514 H 146.105 -3.00705 -2.20016 0
M  V30 1515 H 146.218 -4.62792 -1.23938 0
M  V30 1516 H 144.582 -2.43349 -0.751872 0
M  V30 1517 H 145.365 -3.37484 0.629248 0
M  V30 1518 N 147.81 0.181792 -1.56548 0
M  V30 1519 C 149.038 0.915947 -1.85521 0
M  V30 1520 C 149.453 1.76282 -0.676016 0
M  V30 1521 O 148.81 1.79012 0.355077 0
M  V30 1522 C 148.861 1.80126 -3.13427 0
M  V30 1523 O 148.582 0.988562 -4.26801 0
M  V30 1524 C 150.083 2.64597 -3.55673 0
M  V30 1525 H 147.303 0.26661 -0.61576 0
M  V30 1526 H 149.847 0.185039 -2.03661 0
M  V30 1527 H 148.002 2.48563 -2.97145 0
M  V30 1528 H 148.416 1.59308 -4.99721 0
M  V30 1529 H 149.89 3.2235 -4.48101 0
M  V30 1530 H 150.367 3.38958 -2.79292 0
M  V30 1531 H 150.973 2.0151 -3.74532 0
M  V30 1532 N 149.288 1.51039 0.449983 0
M  V30 1533 C 150.536 1.62759 1.19808 0
M  V30 1534 C 150.857 0.339981 1.92013 0
M  V30 1535 O 150.127 -0.643606 1.85026 0
M  V30 1536 H 148.707 0.599811 0.445237 0
M  V30 1537 H 151.369 1.87914 0.517138 0
M  V30 1538 H 150.465 2.44911 1.93455 0
M  V30 1539 N 150.766 -0.704594 1.40972 0
M  V30 1540 C 152.043 -1.45847 1.30338 0
M  V30 1541 C 152.423 -2.10973 -0.0732344 0
M  V30 1542 O 151.771 -2.00997 -1.08685 0
M  V30 1543 C 151.981 -2.48525 2.45023 0
M  V30 1544 C 153.329 -3.1404 2.8577 0
M  V30 1545 O 154.353 -2.58848 2.44696 0
M  V30 1546 O 153.212 -4.13981 3.56766 0
M  V30 1547 H 150.306 -0.649092 0.512454 0
M  V30 1548 H 152.852 -0.735836 1.52917 0
M  V30 1549 H 151.624 -1.98994 3.36923 0
M  V30 1550 H 151.247 -3.2831 2.24272 0
M  V30 1551 N 152.244 -1.26651 -0.937939 0
M  V30 1552 C 153.655 -1.1125 -1.49934 0
M  V30 1553 C 154.006 0.306077 -1.93798 0
M  V30 1554 O 153.131 1.19792 -1.80219 0
M  V30 1555 C 153.726 -2.01339 -2.72485 0
M  V30 1556 C 152.285 -1.90074 -3.24883 0
M  V30 1557 C 151.432 -1.94498 -1.97651 0
M  V30 1558 H 154.383 -1.39693 -0.753091 0
M  V30 1559 H 154.404 -1.56319 -3.46907 0
M  V30 1560 H 153.916 -3.04577 -2.40529 0
M  V30 1561 H 152.017 -0.897827 -3.61621 0
M  V30 1562 H 152.13 -2.75778 -3.9177 0
M  V30 1563 H 150.494 -1.38591 -2.13693 0
M  V30 1564 H 151.277 -2.99372 -1.68022 0
M  V30 1565 N 153.722 1.14298 -1.08507 0
M  V30 1566 C 154.655 2.18447 -0.660004 0
M  V30 1567 C 155.633 1.59242 0.328749 0
M  V30 1568 O 156.817 1.87062 0.232367 0
M  V30 1569 C 153.944 3.38688 0.0290807 0
M  V30 1570 C 152.99 4.1646 -0.919982 0
M  V30 1571 S 153.823 4.77334 -2.42718 0
M  V30 1572 C 154.979 6.00931 -1.75024 0
M  V30 1573 H 155.212 2.54166 -1.54231 0
M  V30 1574 H 152.745 1.25446 -0.900149 0
M  V30 1575 H 154.703 4.08342 0.420378 0
M  V30 1576 H 153.364 3.01289 0.887895 0
M  V30 1577 H 152.557 5.02529 -0.384751 0
M  V30 1578 H 152.159 3.52414 -1.25223 0
M  V30 1579 H 154.451 6.69017 -1.06877 0
M  V30 1580 H 155.394 6.59044 -2.58971 0
M  V30 1581 H 155.802 5.51089 -1.22317 0
M  V30 1582 N 155.201 0.870884 1.31352 0
M  V30 1583 C 156.148 0.325425 2.28494 0
M  V30 1584 C 157.118 -0.576615 1.5577 0
M  V30 1585 O 158.303 -0.508059 1.83911 0
M  V30 1586 C 155.443 -0.466283 3.41935 0
M  V30 1587 C 154.556 0.463378 4.29508 0
M  V30 1588 C 153.691 -0.342544 5.30094 0
M  V30 1589 C 152.73 0.583486 6.09313 0
M  V30 1590 N 151.867 -0.186244 7.01853 0
M  V30 1591 H 156.707 1.15901 2.74538 0
M  V30 1592 H 154.244 0.58294 1.35056 0
M  V30 1593 H 156.202 -0.941085 4.06447 0
M  V30 1594 H 154.832 -1.26456 2.97 0
M  V30 1595 H 153.884 1.05663 3.65431 0
M  V30 1596 H 155.196 1.1734 4.84802 0
M  V30 1597 H 154.35 -0.879816 6.00287 0
M  V30 1598 H 153.089 -1.08585 4.75458 0
M  V30 1599 H 152.094 1.13251 5.3801 0
M  V30 1600 H 153.319 1.32566 6.66035 0
M  V30 1601 H 151.265 -0.912348 6.49625 0
M  V30 1602 H 151.182 0.464422 7.54572 0
M  V30 1603 H 152.45 -0.704716 7.76308 0
M  V30 1604 N 156.679 -1.44442 0.630414 0
M  V30 1605 C 157.956 -1.9549 0.0655657 0
M  V30 1606 C 158.336 -1.5724 -1.40851 0
M  V30 1607 O 157.684 -0.846116 -2.12257 0
M  V30 1608 C 157.894 -3.47812 0.287691 0
M  V30 1609 C 159.242 -4.24216 0.180513 0
M  V30 1610 O 160.266 -3.55526 0.219019 0
M  V30 1611 O 159.125 -5.46434 0.0848493 0
M  V30 1612 H 156.219 -0.826688 -0.0227177 0
M  V30 1613 H 158.765 -1.54496 0.702068 0
M  V30 1614 H 157.537 -3.687 1.31056 0
M  V30 1615 H 157.16 -3.95751 -0.382984 0
M  V30 1616 N 158.157 -0.370918 -1.53173 0
M  V30 1617 C 159.405 0.216673 -2.00935 0
M  V30 1618 C 159.726 1.48845 -1.25977 0
M  V30 1619 O 158.996 1.92286 -0.374551 0
M  V30 1620 H 157.576 0.0830565 -0.742368 0
M  V30 1621 H 160.238 -0.49838 -1.8842 0
M  V30 1622 H 159.334 0.439893 -3.08984 0
M  V30 1623 N 159.635 1.57281 -0.100228 0
M  V30 1624 C 160.881 1.94826 0.563101 0
M  V30 1625 C 161.214 0.982475 1.67514 0
M  V30 1626 O 160.489 0.0164069 1.94493 0
M  V30 1627 C 160.772 3.42453 1.11346 0
M  V30 1628 C 160.625 4.498 0.00612081 0
M  V30 1629 C 161.944 3.91506 2.01024 0
M  V30 1630 H 159.063 0.708428 0.203221 0
M  V30 1631 H 161.705 1.8922 -0.171979 0
M  V30 1632 H 159.855 3.47361 1.7399 0
M  V30 1633 H 161.527 4.57 -0.628357 0
M  V30 1634 H 159.77 4.28756 -0.659581 0
M  V30 1635 H 160.441 5.50306 0.432109 0
M  V30 1636 H 162.917 3.88784 1.48278 0
M  V30 1637 H 161.793 4.95358 2.36457 0
M  V30 1638 H 162.054 3.31099 2.92961 0
M  V30 1639 N 161.113 -0.173488 1.56642 0
M  V30 1640 C 162.361 -0.888706 1.81512 0
M  V30 1641 C 162.682 -1.82875 0.676872 0
M  V30 1642 O 161.952 -1.93536 -0.303414 0
M  V30 1643 H 160.532 -0.331164 0.669582 0
M  V30 1644 H 163.194 -0.173823 1.94123 0
M  V30 1645 H 162.29 -1.46691 2.75478 0
M  V30 1646 N 162.591 -1.51276 -0.441967 0
M  V30 1647 C 164.002 -1.56244 -1.02199 0
M  V30 1648 C 164.353 -0.383149 -1.92422 0
M  V30 1649 O 163.478 0.500613 -2.1053 0
M  V30 1650 C 164.073 -2.83162 -1.86024 0
M  V30 1651 C 162.632 -2.90716 -2.39084 0
M  V30 1652 C 161.779 -2.50858 -1.18175 0
M  V30 1653 H 164.73 -1.5712 -0.223416 0
M  V30 1654 H 164.751 -2.66663 -2.71425 0
M  V30 1655 H 164.263 -3.68974 -1.20331 0
M  V30 1656 H 162.364 -2.09323 -3.08244 0
M  V30 1657 H 162.477 -3.94266 -2.72198 0
M  V30 1658 H 160.841 -2.03951 -1.52565 0
M  V30 1659 H 161.624 -3.3901 -0.541001 0
M  V30 1660 N 164.069 0.697108 -1.41344 0
M  V30 1661 C 165.032 1.79281 -1.42797 0
M  V30 1662 C 166.032 1.57607 -0.318837 0
M  V30 1663 O 167.222 1.64309 -0.578642 0
M  V30 1664 C 164.354 3.17632 -1.23785 0
M  V30 1665 H 165.547 1.79385 -2.40335 0
M  V30 1666 H 163.1 0.904582 -1.27464 0
M  V30 1667 H 163.835 3.23167 -0.270814 0
M  V30 1668 H 163.62 3.34765 -2.04144 0
M  V30 1669 H 165.11 3.97617 -1.27633 0
M  V30 1670 N 165.547 1.27147 0.931209 0
M  V30 1671 C 166.772 1.16191 1.71797 0
M  V30 1672 C 167.197 -0.278004 1.86034 0
M  V30 1673 O 166.555 -1.20137 1.35782 0
M  V30 1674 C 166.603 1.84673 3.09723 0
M  V30 1675 O 165.707 1.14231 3.96264 0
M  V30 1676 H 165.048 0.404303 0.526721 0
M  V30 1677 H 167.578 1.68152 1.1656 0
M  V30 1678 H 167.588 1.91893 3.60057 0
M  V30 1679 H 166.263 2.89421 2.98677 0
M  V30 1680 H 164.84 1.15056 3.54706 0
M  V30 1681 N 167.025 -1.13721 1.09112 0
M  V30 1682 C 168.271 -1.85413 0.836283 0
M  V30 1683 C 168.626 -1.8175 -0.631249 0
M  V30 1684 O 167.919 -1.24238 -1.45861 0
M  V30 1685 C 168.113 -3.32861 1.30146 0
M  V30 1686 C 167.942 -3.50882 2.81268 0
M  V30 1687 C 166.712 -3.65312 3.49106 0
M  V30 1688 C 168.91 -3.47196 3.7942 0
M  V30 1689 N 166.892 -3.71563 4.88686 0
M  V30 1690 C 168.263 -3.59777 5.04936 0
M  V30 1691 C 170.318 -3.30577 3.72321 0
M  V30 1692 C 169.021 -3.57455 6.24194 0
M  V30 1693 C 171.047 -3.29562 4.91063 0
M  V30 1694 C 170.409 -3.42691 6.15421 0
M  V30 1695 H 166.508 -0.694812 0.358832 0
M  V30 1696 H 169.092 -1.36246 1.39087 0
M  V30 1697 H 167.263 -3.80602 0.774361 0
M  V30 1698 H 168.995 -3.92346 0.99229 0
M  V30 1699 H 165.75 -3.6685 2.9953 0
M  V30 1700 H 166.174 -3.78387 5.61384 0
M  V30 1701 H 170.816 -3.19332 2.77105 0
M  V30 1702 H 168.534 -3.67475 7.19714 0
M  V30 1703 H 172.12 -3.17905 4.87266 0
M  V30 1704 H 171 -3.41862 7.05762 0
M  V30 1705 N 168.503 -0.877838 -1.30888 0
M  V30 1706 C 169.749 -0.493426 -1.96706 0
M  V30 1707 C 170.082 0.953504 -1.6918 0
M  V30 1708 O 169.357 1.67266 -0.992594 0
M  V30 1709 C 169.64 -0.760429 -3.51979 0
M  V30 1710 C 169.493 -2.25747 -3.89048 0
M  V30 1711 C 170.812 -0.232148 -4.39487 0
M  V30 1712 H 167.931 -0.180746 -0.714493 0
M  V30 1713 H 170.573 -1.10052 -1.54882 0
M  V30 1714 H 168.723 -0.243715 -3.87735 0
M  V30 1715 H 170.395 -2.84204 -3.63354 0
M  V30 1716 H 168.638 -2.72694 -3.37373 0
M  V30 1717 H 169.309 -2.39491 -4.97341 0
M  V30 1718 H 171.785 -0.674314 -4.106 0
M  V30 1719 H 170.661 -0.448355 -5.47066 0
M  V30 1720 H 170.922 0.866297 -4.33529 0
M  V30 1721 N 169.982 1.44106 -0.638065 0
M  V30 1722 C 170.945 2.29138 0.0531013 0
M  V30 1723 C 171.945 1.41409 0.765506 0
M  V30 1724 O 173.135 1.63206 0.609046 0
M  V30 1725 C 170.267 3.23144 1.08584 0
M  V30 1726 H 171.46 2.91739 -0.694883 0
M  V30 1727 H 169.013 1.51134 -0.398538 0
M  V30 1728 H 169.748 2.65408 1.86357 0
M  V30 1729 H 169.533 3.87804 0.578852 0
M  V30 1730 H 171.023 3.87004 1.56899 0
M  V30 1731 N 171.46 0.379036 1.52974 0
M  V30 1732 C 172.876 0.0285448 1.59574 0
M  V30 1733 C 173.076 -1.45542 1.39355 0
M  V30 1734 O 172.132 -2.2187 1.20541 0
M  V30 1735 C 173.445 0.496535 2.96572 0
M  V30 1736 C 174.993 0.451909 3.0972 0
M  V30 1737 C 175.468 0.895924 4.49152 0
M  V30 1738 N 176.959 0.851522 4.55306 0
M  V30 1739 C 177.694 1.16661 5.61407 0
M  V30 1740 N 177.19 1.55166 6.752 0
M  V30 1741 N 178.983 1.08853 5.51459 0
M  V30 1742 H 171.134 1.34525 1.64367 0
M  V30 1743 H 173.397 0.550733 0.771619 0
M  V30 1744 H 173.103 1.53258 3.16552 0
M  V30 1745 H 172.977 -0.109802 3.7704 0
M  V30 1746 H 175.364 -0.575029 2.89443 0
M  V30 1747 H 175.445 1.09392 2.3123 0
M  V30 1748 H 175.089 1.92104 4.70168 0
M  V30 1749 H 175.019 0.23103 5.26093 0
M  V30 1750 H 177.51 0.568038 3.73606 0
M  V30 1751 H 177.823 1.776 7.52116 0
M  V30 1752 H 176.168 1.59044 6.76557 0
M  V30 1753 H 179.359 0.786803 4.6144 0
M  V30 1754 H 179.532 1.33742 6.34048 0
M  V30 1755 N 172.938 -1.57226 0.108567 0
M  V30 1756 C 174.354 -1.5766 -0.248058 0
M  V30 1757 C 174.554 -1.12063 -1.67464 0
M  V30 1758 O 173.61 -0.803236 -2.39383 0
M  V30 1759 C 174.923 -3.0069 -0.0242287 0
M  V30 1760 C 176.471 -3.12868 -0.0909372 0
M  V30 1761 C 176.946 -4.57879 0.105067 0
M  V30 1762 N 178.437 -4.63172 0.0506846 0
M  V30 1763 C 179.172 -5.73126 0.177396 0
M  V30 1764 N 178.668 -6.91866 0.359696 0
M  V30 1765 N 180.461 -5.61977 0.117709 0
M  V30 1766 H 172.612 -1.85169 1.04049 0
M  V30 1767 H 174.875 -0.85529 0.40888 0
M  V30 1768 H 174.581 -3.38299 0.961604 0
M  V30 1769 H 174.455 -3.6945 -0.76068 0
M  V30 1770 H 176.842 -2.75124 -1.06729 0
M  V30 1771 H 176.923 -2.46672 0.677225 0
M  V30 1772 H 176.567 -4.96321 1.07834 0
M  V30 1773 H 176.497 -5.22153 -0.682954 0
M  V30 1774 H 178.988 -3.778 -0.0871266 0
M  V30 1775 H 179.301 -7.71503 0.447529 0
M  V30 1776 H 177.646 -6.93874 0.395536 0
M  V30 1777 H 180.837 -4.68094 -0.0236741 0
M  V30 1778 H 181.01 -6.47627 0.219905 0
M  V30 1779 N 174.416 0.165178 -1.56732 0
M  V30 1780 C 175.693 0.908443 -1.73224 0
M  V30 1781 C 176.073 2.0013 -0.67165 0
M  V30 1782 O 175.421 2.26353 0.31253 0
M  V30 1783 C 175.631 1.46756 -3.16644 0
M  V30 1784 C 176.979 1.93809 -3.77787 0
M  V30 1785 O 178.003 1.56537 -3.1996 0
M  V30 1786 O 176.862 2.62486 -4.79336 0
M  V30 1787 H 173.956 0.428025 -0.707618 0
M  V30 1788 H 176.502 0.152526 -1.69013 0
M  V30 1789 H 175.274 0.68129 -3.85323 0
M  V30 1790 H 174.897 2.28749 -3.25207 0
M  V30 1791 N 175.894 1.51508 0.433938 0
M  V30 1792 C 176.824 1.76016 1.53429 0
M  V30 1793 C 177.805 0.610112 1.58782 0
M  V30 1794 O 178.99 0.853177 1.74455 0
M  V30 1795 C 176.12 1.88831 2.9148 0
M  V30 1796 C 175.074 3.04288 3.00987 0
M  V30 1797 C 174.4 3.0229 4.4105 0
M  V30 1798 C 175.7 4.44193 2.74754 0
M  V30 1799 H 177.394 2.68152 1.33171 0
M  V30 1800 H 174.94 1.29035 0.639214 0
M  V30 1801 H 176.893 2.04559 3.6842 0
M  V30 1802 H 175.617 0.933455 3.12976 0
M  V30 1803 H 174.276 2.8827 2.26486 0
M  V30 1804 H 173.924 2.04576 4.59519 0
M  V30 1805 H 173.624 3.79822 4.4834 0
M  V30 1806 H 175.148 3.20116 5.1996 0
M  V30 1807 H 176.562 4.60544 3.41426 0
M  V30 1808 H 174.959 5.23457 2.9345 0
M  V30 1809 H 176.029 4.53996 1.70339 0
M  V30 1810 N 177.372 -0.689602 1.41712 0
M  V30 1811 C 178.783 -1.26973 1.36875 0
M  V30 1812 C 179.134 -1.96124 0.054748 0
M  V30 1813 O 178.259 -1.99141 -0.84687 0
M  V30 1814 C 178.854 -2.30912 2.47922 0
M  V30 1815 C 177.413 -2.84486 2.46464 0
M  V30 1816 C 176.56 -1.58603 2.27465 0
M  V30 1817 H 179.511 -0.48396 1.51141 0
M  V30 1818 H 179.532 -3.12331 2.17323 0
M  V30 1819 H 179.044 -1.80554 3.43543 0
M  V30 1820 H 177.145 -3.39005 1.54617 0
M  V30 1821 H 177.258 -3.34511 3.42986 0
M  V30 1822 H 175.622 -1.84632 1.75451 0
M  V30 1823 H 176.405 -1.10233 3.25121 0
M  V30 1824 N 178.85 -1.27639 -0.924453 0
M  V30 1825 C 179.76 -1.12466 -2.05885 0
M  V30 1826 C 180.776 -0.053869 -1.73917 0
M  V30 1827 O 181.952 -0.261012 -1.99702 0
M  V30 1828 C 179.017 -0.776768 -3.37886 0
M  V30 1829 C 178.078 -1.92878 -3.83532 0
M  V30 1830 C 177.311 -1.59739 -5.09234 0
M  V30 1831 O 177.534 -0.506782 -5.68144 0
M  V30 1832 O 176.468 -2.43761 -5.50331 0
M  V30 1833 H 180.294 -2.07671 -2.21599 0
M  V30 1834 H 177.879 -1.06857 -1.04413 0
M  V30 1835 H 179.761 -0.596229 -4.17161 0
M  V30 1836 H 178.436 0.145732 -3.23372 0
M  V30 1837 H 177.343 -2.1644 -3.0513 0
M  V30 1838 H 178.676 -2.8316 -4.02593 0
M  V30 1839 N 180.328 1.1314 -1.09713 0
M  V30 1840 C 181.258 2.20748 -0.761102 0
M  V30 1841 C 182.239 1.68061 0.262566 0
M  V30 1842 O 183.424 1.93765 0.129977 0
M  V30 1843 C 180.554 3.46812 -0.184054 0
M  V30 1844 C 179.508 4.12606 -1.13757 0
M  V30 1845 C 178.834 5.33031 -0.422083 0
M  V30 1846 C 180.134 4.59603 -2.48118 0
M  V30 1847 H 181.828 2.49113 -1.66082 0
M  V30 1848 H 179.374 1.19734 -0.799987 0
M  V30 1849 H 181.327 4.21353 0.0631215 0
M  V30 1850 H 180.051 3.17851 0.750868 0
M  V30 1851 H 178.71 3.40036 -1.37007 0
M  V30 1852 H 178.358 5.00335 0.517072 0
M  V30 1853 H 178.058 5.77999 -1.05788 0
M  V30 1854 H 179.582 6.10325 -0.183277 0
M  V30 1855 H 180.996 5.25552 -2.29059 0
M  V30 1856 H 179.393 5.15321 -3.07514 0
M  V30 1857 H 180.463 3.73971 -3.08665 0
M  V30 1858 N 181.806 0.884767 1.30421 0
M  V30 1859 C 183.083 0.423185 1.90967 0
M  V30 1860 C 183.463 -1.09605 1.80416 0
M  V30 1861 O 182.811 -1.93126 1.22125 0
M  V30 1862 C 183.021 0.921056 3.36627 0
M  V30 1863 C 184.369 0.955903 4.137 0
M  V30 1864 O 185.393 0.867706 3.4547 0
M  V30 1865 O 184.252 1.08614 5.35598 0
M  V30 1866 H 181.346 0.129369 0.816819 0
M  V30 1867 H 183.892 0.973653 1.3899 0
M  V30 1868 H 182.664 1.96489 3.3839 0
M  V30 1869 H 182.287 0.349741 3.96059 0
M  V30 1870 N 183.284 -1.43765 0.645699 0
M  V30 1871 C 184.532 -2.01499 0.155731 0
M  V30 1872 C 184.853 -1.51151 -1.232 0
M  V30 1873 O 184.123 -0.721044 -1.82148 0
M  V30 1874 H 182.703 -0.745003 0.0545817 0
M  V30 1875 H 185.365 -1.76075 0.835677 0
M  V30 1876 H 184.461 -3.1181 0.134577 0
M  V30 1877 N 184.763 -0.387143 -1.52771 0
M  V30 1878 C 185.713 0.465942 -2.23188 0
M  V30 1879 C 186.697 1.03138 -1.23496 0
M  V30 1880 O 187.889 0.957845 -1.48843 0
M  V30 1881 C 185.018 1.59384 -3.04059 0
M  V30 1882 C 184.104 1.04024 -4.11144 0
M  V30 1883 N 184.495 0.211416 -5.05358 0
M  V30 1884 C 182.793 1.31295 -4.26237 0
M  V30 1885 C 183.494 -0.0941698 -5.81624 0
M  V30 1886 N 182.47 0.509207 -5.4121 0
M  V30 1887 H 186.272 -0.173856 -2.93385 0
M  V30 1888 H 183.786 -0.19633 -1.61209 0
M  V30 1889 H 185.783 2.21738 -3.53041 0
M  V30 1890 H 184.443 2.23648 -2.35397 0
M  V30 1891 H 185.454 -0.151151 -5.17679 0
M  V30 1892 H 182.131 1.95679 -3.68803 0
M  V30 1893 H 183.521 -0.765572 -6.67524 0
M  V30 1894 N 186.241 1.57166 -0.116904 0
M  V30 1895 C 187.489 1.94737 0.540533 0
M  V30 1896 C 187.81 1.00096 1.67349 0
M  V30 1897 O 187.08 0.0568854 1.95817 0
M  V30 1898 H 185.66 0.718981 0.202669 0
M  V30 1899 H 188.322 1.94017 -0.185353 0
M  V30 1900 H 187.418 2.97719 0.936483 0
M  V30 1901 N 187.719 -0.156864 1.56817 0
M  V30 1902 C 188.669 -1.19891 1.93934 0
M  V30 1903 C 189.653 -1.39061 0.809372 0
M  V30 1904 O 190.845 -1.40789 1.07273 0
M  V30 1905 C 187.974 -2.53493 2.31508 0
M  V30 1906 C 187.06 -2.37957 3.51052 0
M  V30 1907 N 187.451 -1.92158 4.67877 0
M  V30 1908 C 185.749 -2.68739 3.55943 0
M  V30 1909 C 186.45 -1.8943 5.49992 0
M  V30 1910 N 185.426 -2.32375 4.91429 0
M  V30 1911 H 189.228 -0.836746 2.81737 0
M  V30 1912 H 186.742 -0.365012 1.58245 0
M  V30 1913 H 188.739 -3.28811 2.56299 0
M  V30 1914 H 187.399 -2.905 1.45051 0
M  V30 1915 H 188.41 -1.62274 4.91821 0
M  V30 1916 H 185.087 -3.09687 2.80001 0
M  V30 1917 H 186.477 -1.55596 6.53636 0
M  V30 1918 N 189.197 -1.51736 -0.425897 0
M  V30 1919 C 190.145 -1.74464 -1.53834 0
M  V30 1920 C 191.139 -0.611241 -1.57988 0
M  V30 1921 O 192.345 -0.792899 -1.61596 0
M  V30 1922 H 188.72 -0.551437 -0.511293 0
M  V30 1923 H 190.691 -2.67694 -1.31843 0
M  V30 1924 C 189.44 -1.8972 -2.91379 0
M  V30 1925 H 188.763 -2.76344 -2.88919 0
M  V30 1926 H 190.203 -2.09629 -3.68553 0
M  V30 1927 C 188.662 -0.65992 -3.30374 0
M  V30 1928 O 189.192 0.180083 -4.01296 0
M  V30 1929 N 187.398 -0.500677 -2.86254 0
M  V30 1930 H 186.945 -1.18532 -2.28709 0
M  V30 1931 H 186.903 0.325903 -3.12706 0
M  V30 1932 N 190.675 0.682077 -1.42076 0
M  V30 1933 C 191.622 1.79578 -1.44984 0
M  V30 1934 C 192.592 1.6332 -0.302614 0
M  V30 1935 O 193.777 1.83978 -0.505633 0
M  V30 1936 C 190.917 3.1756 -1.35091 0
M  V30 1937 C 190.03 3.45156 -2.59791 0
M  V30 1938 C 189.165 4.72826 -2.42093 0
M  V30 1939 C 188.204 4.93433 -3.62202 0
M  V30 1940 N 187.341 6.12338 -3.43491 0
M  V30 1941 H 192.181 1.76427 -2.40161 0
M  V30 1942 H 189.718 0.861376 -1.19242 0
M  V30 1943 H 191.676 3.97287 -1.27354 0
M  V30 1944 H 190.306 3.19854 -0.435133 0
M  V30 1945 H 189.358 2.59736 -2.77923 0
M  V30 1946 H 190.67 3.5628 -3.49094 0
M  V30 1947 H 189.824 5.60631 -2.319 0
M  V30 1948 H 188.563 4.63973 -1.50268 0
M  V30 1949 H 187.568 4.04073 -3.72834 0
M  V30 1950 H 188.793 5.04136 -4.54998 0
M  V30 1951 H 186.739 6.04672 -2.54377 0
M  V30 1952 H 186.656 6.2429 -4.26377 0
M  V30 1953 H 187.924 7.02841 -3.37097 0
M  V30 1954 N 192.153 1.28127 0.917671 0
M  V30 1955 C 193.402 1.14432 1.66097 0
M  V30 1956 C 193.715 -0.307247 1.93172 0
M  V30 1957 O 194.921 -0.565259 2.65551 0
M  V30 1958 C 193.377 2.00015 2.99202 0
M  V30 1959 C 192.985 3.49889 2.79789 0
M  V30 1960 C 194.729 1.94996 3.77064 0
M  V30 1961 C 192.636 4.27636 4.08511 0
M  V30 1962 H 191.566 0.424662 0.62304 0
M  V30 1963 H 194.217 1.52628 1.01868 0
M  V30 1964 H 192.599 1.54672 3.64544 0
M  V30 1965 H 193.773 4.03162 2.23152 0
M  V30 1966 H 192.088 3.56392 2.15345 0
M  V30 1967 H 194.685 2.50354 4.72469 0
M  V30 1968 H 195.028 0.925819 4.05875 0
M  V30 1969 H 195.561 2.38287 3.18534 0
M  V30 1970 H 192.3 5.30615 3.84874 0
M  V30 1971 H 191.82 3.79137 4.64774 0
M  V30 1972 H 193.499 4.37346 4.76799 0
M  V30 1973 N 193.631 -1.12557 1.10312 0
M  V30 1974 C 194.578 -2.18247 0.750781 0
M  V30 1975 C 195.548 -1.63853 -0.272293 0
M  V30 1976 O 196.733 -1.90195 -0.151862 0
M  V30 1977 C 193.873 -3.44591 0.187379 0
M  V30 1978 C 192.986 -4.13046 1.2656 0
M  V30 1979 C 192.121 -5.27034 0.663978 0
M  V30 1980 C 191.16 -5.87353 1.72287 0
M  V30 1981 N 190.297 -6.92757 1.1416 0
M  V30 1982 H 195.137 -2.47732 1.65628 0
M  V30 1983 H 192.674 -1.21629 0.827337 0
M  V30 1984 H 194.632 -4.16904 -0.157148 0
M  V30 1985 H 193.262 -3.15527 -0.681355 0
M  V30 1986 H 192.314 -3.38924 1.72727 0
M  V30 1987 H 193.626 -4.53947 2.06721 0
M  V30 1988 H 192.78 -6.06104 0.268824 0
M  V30 1989 H 191.519 -4.87407 -0.169082 0
M  V30 1990 H 190.524 -5.06971 2.12746 0
M  V30 1991 H 191.749 -6.29051 2.55875 0
M  V30 1992 H 189.695 -6.5517 0.329984 0
M  V30 1993 H 189.612 -7.3225 1.88007 0
M  V30 1994 H 190.88 -7.75658 0.772956 0
M  V30 1995 N 195.109 -0.891671 -1.2995 0
M  V30 1996 C 196.52 -0.563104 -1.78006 0
M  V30 1997 C 196.871 0.920978 -1.73241 0
M  V30 1998 O 195.996 1.71987 -1.31337 0
M  V30 1999 C 196.591 -1.01539 -3.23226 0
M  V30 2000 C 195.15 -0.738124 -3.69092 0
M  V30 2001 C 194.297 -1.19461 -2.50249 0
M  V30 2002 H 197.248 -1.07522 -1.16725 0
M  V30 2003 H 197.269 -0.347217 -3.78912 0
M  V30 2004 H 196.781 -2.09555 -3.26662 0
M  V30 2005 H 194.882 0.329766 -3.71138 0
M  V30 2006 H 194.995 -1.33037 -4.60259 0
M  V30 2007 H 193.359 -0.613787 -2.47194 0
M  V30 2008 H 194.142 -2.28265 -2.56417 0
M  V30 2009 N 196.587 1.43421 -0.653314 0
M  V30 2010 C 197.52 2.2803 0.0879804 0
M  V30 2011 C 198.498 1.39833 0.82979 0
M  V30 2012 O 199.682 1.69275 0.829341 0
M  V30 2013 C 196.809 3.19247 1.13132 0
M  V30 2014 C 195.855 4.23704 0.487546 0
M  V30 2015 S 196.688 5.30377 -0.738961 0
M  V30 2016 C 197.844 6.25162 0.30384 0
M  V30 2017 H 198.077 2.90554 -0.629739 0
M  V30 2018 H 195.61 1.47934 -0.442156 0
M  V30 2019 H 197.568 3.72346 1.72827 0
M  V30 2020 H 196.229 2.55901 1.82136 0
M  V30 2021 H 195.422 4.87631 1.27407 0
M  V30 2022 H 195.024 3.73983 -0.0352915 0
M  V30 2023 H 197.316 6.67321 1.17 0
M  V30 2024 H 198.259 7.07463 -0.300402 0
M  V30 2025 H 198.667 5.60864 0.63969 0
M  V30 2026 N 198.065 0.39524 1.52563 0
M  V30 2027 C 199.012 -0.437036 2.26624 0
M  V30 2028 C 199.982 -1.05281 1.28472 0
M  V30 2029 O 201.167 -1.07971 1.57311 0
M  V30 2030 C 198.307 -1.55524 3.08069 0
M  V30 2031 C 197.42 -0.961745 4.21158 0
M  V30 2032 C 196.555 -2.05149 4.89987 0
M  V30 2033 C 195.594 -1.4342 5.95061 0
M  V30 2034 N 194.731 -2.46351 6.57462 0
M  V30 2035 H 199.571 0.200976 2.97322 0
M  V30 2036 H 197.108 0.110944 1.46681 0
M  V30 2037 H 199.066 -2.21437 3.53584 0
M  V30 2038 H 197.696 -2.16348 2.3957 0
M  V30 2039 H 196.748 -0.192048 3.79915 0
M  V30 2040 H 198.06 -0.470701 4.96574 0
M  V30 2041 H 197.214 -2.78819 5.38837 0
M  V30 2042 H 195.953 -2.57615 4.14109 0
M  V30 2043 H 194.958 -0.682774 5.45544 0
M  V30 2044 H 196.183 -0.917416 6.72875 0
M  V30 2045 H 194.129 -2.97975 5.8442 0
M  V30 2046 H 194.046 -2.02019 7.28508 0
M  V30 2047 H 195.314 -3.19633 7.10954 0
M  V30 2048 N 199.544 -1.57102 0.125237 0
M  V30 2049 C 200.507 -2.14471 -0.80838 0
M  V30 2050 C 201.507 -1.0811 -1.19033 0
M  V30 2051 O 202.697 -1.33856 -1.11482 0
M  V30 2052 C 199.829 -2.69005 -2.09402 0
M  V30 2053 H 201.022 -2.98297 -0.309696 0
M  V30 2054 H 198.575 -1.55807 -0.124051 0
M  V30 2055 H 199.31 -1.88785 -2.63687 0
M  V30 2056 H 199.095 -3.46799 -1.82957 0
M  V30 2057 H 200.585 -3.13278 -2.76128 0
M  V30 2058 N 201.022 0.148545 -1.56898 0
M  V30 2059 C 201.985 1.16736 -1.97244 0
M  V30 2060 C 202.985 1.35947 -0.858777 0
M  V30 2061 O 204.175 1.32966 -1.12542 0
M  V30 2062 C 201.307 2.52798 -2.28705 0
M  V30 2063 H 202.5 0.821279 -2.88435 0
M  V30 2064 H 200.053 0.391831 -1.51309 0
M  V30 2065 H 200.788 2.92381 -1.403 0
M  V30 2066 H 200.573 2.40216 -3.09901 0
M  V30 2067 H 202.063 3.26179 -2.60762 0
M  V30 2068 N 202.5 1.5196 0.417844 0
M  V30 2069 C 203.463 1.74065 1.49111 0
M  V30 2070 C 204.463 0.610537 1.48758 0
M  V30 2071 O 205.653 0.87832 1.50437 0
M  V30 2072 C 202.785 1.81502 2.88565 0
M  V30 2073 H 203.978 2.69869 1.30807 0
M  V30 2074 H 201.531 1.42244 0.647785 0
M  V30 2075 H 202.266 0.875813 3.1225 0
M  V30 2076 H 202.051 2.63651 2.90225 0
M  V30 2077 H 203.541 2.00376 3.66387 0
M  V30 2078 N 203.978 -0.674533 1.42435 0
M  V30 2079 C 205.226 -1.43175 1.42637 0
M  V30 2080 C 205.547 -1.94951 0.0438992 0
M  V30 2081 O 204.817 -1.7308 -0.917607 0
M  V30 2082 H 203.397 -0.531307 0.525092 0
M  V30 2083 H 206.059 -0.797006 1.77859 0
M  V30 2084 H 205.155 -2.28463 2.12629 0
M  V30 2085 N 205.456 -1.28612 -0.910864 0
M  V30 2086 C 206.703 -1.15934 -1.66029 0
M  V30 2087 C 207.031 0.291483 -1.92303 0
M  V30 2088 O 206.286 1.22816 -1.52364 0
M  V30 2089 C 206.585 -1.90624 -3.0232 0
M  V30 2090 C 206.251 -3.40405 -2.95695 0
M  V30 2091 C 204.913 -3.81255 -2.93595 0
M  V30 2092 C 207.265 -4.359 -2.85728 0
M  V30 2093 C 204.593 -5.15936 -2.79334 0
M  V30 2094 C 206.945 -5.70657 -2.73007 0
M  V30 2095 C 205.609 -6.10779 -2.69267 0
M  V30 2096 H 204.879 -0.424234 -0.607541 0
M  V30 2097 H 207.526 -1.5942 -1.06101 0
M  V30 2098 H 205.831 -1.39696 -3.6605 0
M  V30 2099 H 207.528 -1.78228 -3.59215 0
M  V30 2100 H 204.118 -3.07927 -2.98125 0
M  V30 2101 H 208.302 -4.053 -2.86436 0
M  V30 2102 H 203.558 -5.46146 -2.74835 0
M  V30 2103 H 207.732 -6.44311 -2.64264 0
M  V30 2104 H 205.359 -7.1509 -2.57974 0
M  V30 2105 N 206.934 1.1197 -1.10907 0
M  V30 2106 C 207.884 2.15946 -0.731538 0
M  V30 2107 C 208.868 1.58758 0.261699 0
M  V30 2108 O 210.06 1.76863 0.0696722 0
M  V30 2109 C 207.189 3.42877 -0.170299 0
M  V30 2110 C 206.275 4.07037 -1.19087 0
M  V30 2111 N 206.666 4.46135 -2.38322 0
M  V30 2112 C 204.964 4.33884 -1.03252 0
M  V30 2113 C 205.665 4.96331 -3.03366 0
M  V30 2114 N 204.641 4.9214 -2.30865 0
M  V30 2115 H 208.443 2.43947 -1.63912 0
M  V30 2116 H 205.957 1.28927 -0.987505 0
M  V30 2117 H 207.954 4.16732 0.118271 0
M  V30 2118 H 206.614 3.16343 0.731935 0
M  V30 2119 H 207.625 4.38345 -2.75815 0
M  V30 2120 H 204.302 4.17084 -0.186256 0
M  V30 2121 H 205.692 5.36257 -4.04818 0
M  V30 2122 N 208.412 0.89855 1.29475 0
M  V30 2123 C 209.658 0.524658 1.95896 0
M  V30 2124 C 209.991 -0.926468 1.70676 0
M  V30 2125 O 209.266 -1.65665 1.01908 0
M  V30 2126 C 209.549 0.81633 3.50725 0
M  V30 2127 C 209.402 2.31907 3.85408 0
M  V30 2128 C 210.721 0.302038 4.39062 0
M  V30 2129 H 207.84 0.19209 0.711527 0
M  V30 2130 H 210.482 1.12502 1.53112 0
M  V30 2131 H 208.632 0.305369 3.87298 0
M  V30 2132 H 210.304 2.89949 3.58786 0
M  V30 2133 H 208.547 2.78027 3.32992 0
M  V30 2134 H 209.218 2.47373 4.93468 0
M  V30 2135 H 211.694 0.739551 4.09475 0
M  V30 2136 H 210.57 0.535331 5.46283 0
M  V30 2137 H 210.831 -0.797216 4.34853 0
M  V30 2138 N 209.89 -1.43072 0.660911 0
M  V30 2139 C 211.115 -2.06584 0.183805 0
M  V30 2140 C 211.54 -1.49257 -1.14472 0
M  V30 2141 O 210.898 -0.605528 -1.70889 0
M  V30 2142 C 210.946 -3.60418 0.114434 0
M  V30 2143 O 210.05 -4.01981 -0.921137 0
M  V30 2144 H 209.391 -0.656669 0.0983994 0
M  V30 2145 H 211.921 -1.83447 0.906006 0
M  V30 2146 H 211.931 -4.07946 -0.0663394 0
M  V30 2147 H 210.606 -4.01519 1.08422 0
M  V30 2148 H 209.183 -3.66029 -0.71253 0
M  V30 2149 N 211.368 -0.403325 -1.52352 0
M  V30 2150 C 212.331 0.413051 -2.25447 0
M  V30 2151 C 213.331 0.978513 -1.276 0
M  V30 2152 O 214.521 0.858305 -1.51587 0
M  V30 2153 C 211.653 1.58087 -3.02029 0
M  V30 2154 H 212.846 -0.227094 -2.99039 0
M  V30 2155 H 210.399 -0.155722 -1.55522 0
M  V30 2156 H 211.134 2.25804 -2.32772 0
M  V30 2157 H 210.919 1.18195 -3.73861 0
M  V30 2158 H 212.409 2.1585 -3.57489 0
M  V30 2159 N 212.846 1.57033 -0.133567 0
M  V30 2160 C 214.094 1.953 0.519848 0
M  V30 2161 C 214.415 1.01866 1.66278 0
M  V30 2162 O 213.685 0.0776513 1.95746 0
M  V30 2163 H 212.265 0.721091 0.195032 0
M  V30 2164 H 214.927 1.93809 -0.205921 0
M  V30 2165 H 214.023 2.98695 0.904854 0
M  V30 2166 N 214.325 -0.140222 1.56975 0
M  V30 2167 C 215.272 -1.17292 1.98774 0
M  V30 2168 C 216.242 -1.4232 0.856408 0
M  V30 2169 O 217.427 -1.54541 1.119 0
M  V30 2170 C 214.567 -2.49973 2.37923 0
M  V30 2171 C 213.68 -2.32062 3.64378 0
M  V30 2172 C 212.815 -3.57825 3.926 0
M  V30 2173 C 211.854 -3.3498 5.12303 0
M  V30 2174 N 210.991 -4.52891 5.36502 0
M  V30 2175 H 215.831 -0.809472 2.86795 0
M  V30 2176 H 213.368 -0.388237 1.41884 0
M  V30 2177 H 215.326 -3.27346 2.58652 0
M  V30 2178 H 213.956 -2.84252 1.52972 0
M  V30 2179 H 213.008 -1.45711 3.51387 0
M  V30 2180 H 214.32 -2.11145 4.51906 0
M  V30 2181 H 213.474 -4.43624 4.13863 0
M  V30 2182 H 212.213 -3.81753 3.03506 0
M  V30 2183 H 211.218 -2.4757 4.90906 0
M  V30 2184 H 212.443 -3.12444 6.02956 0
M  V30 2185 H 210.389 -4.76979 4.50363 0
M  V30 2186 H 210.306 -4.35001 6.18312 0
M  V30 2187 H 211.574 -5.39884 5.62268 0
M  V30 2188 N 215.803 -1.52179 -0.40978 0
M  V30 2189 C 216.751 -1.76086 -1.51975 0
M  V30 2190 C 217.745 -0.627964 -1.57331 0
M  V30 2191 O 218.951 -0.809993 -1.60745 0
M  V30 2192 H 215.326 -0.556829 -0.505416 0
M  V30 2193 H 217.297 -2.69077 -1.28996 0
M  V30 2194 C 216.046 -1.92799 -2.8935 0
M  V30 2195 H 215.369 -2.79392 -2.85972 0
M  V30 2196 H 216.809 -2.13527 -3.66309 0
M  V30 2197 C 215.268 -0.694923 -3.29655 0
M  V30 2198 O 215.798 0.13751 -4.01465 0
M  V30 2199 N 214.004 -0.53101 -2.85707 0
M  V30 2200 H 213.551 -1.20952 -2.27439 0
M  V30 2201 H 213.509 0.292718 -3.13034 0
M  V30 2202 N 217.281 0.66697 -1.42791 0
M  V30 2203 C 218.692 1.2478 -1.38877 0
M  V30 2204 C 219.043 1.96012 -0.0859426 0
M  V30 2205 O 218.168 2.00463 0.815081 0
M  V30 2206 C 218.763 2.26938 -2.51564 0
M  V30 2207 C 217.322 2.80529 -2.50959 0
M  V30 2208 C 216.469 1.54965 -2.29959 0
M  V30 2209 H 219.42 0.459853 -1.51892 0
M  V30 2210 H 219.441 3.08834 -2.22265 0
M  V30 2211 H 218.953 1.75065 -3.46372 0
M  V30 2212 H 217.054 3.36502 -1.59991 0
M  V30 2213 H 217.167 3.29012 -3.48265 0
M  V30 2214 H 215.531 1.81817 -1.78366 0
M  V30 2215 H 216.314 1.05047 -3.26833 0
M  V30 2216 N 218.759 1.29093 0.90403 0
M  V30 2217 C 220.008 1.16187 1.64874 0
M  V30 2218 C 220.321 -0.286742 1.93487 0
M  V30 2219 O 221.527 -0.537062 2.66135 0
M  V30 2220 C 219.983 2.03177 2.97064 0
M  V30 2221 C 219.591 3.52836 2.76062 0
M  V30 2222 C 221.335 1.98984 3.74974 0
M  V30 2223 C 219.242 4.31945 4.03952 0
M  V30 2224 H 218.172 0.431246 0.618501 0
M  V30 2225 H 220.823 1.53699 1.00243 0
M  V30 2226 H 219.205 1.5853 3.62883 0
M  V30 2227 H 220.379 4.05507 2.18863 0
M  V30 2228 H 218.694 3.58656 2.11553 0
M  V30 2229 H 221.291 2.55351 4.69787 0
M  V30 2230 H 221.634 0.968815 4.0487 0
M  V30 2231 H 222.167 2.41652 3.15989 0
M  V30 2232 H 218.906 5.34667 3.79225 0
M  V30 2233 H 218.426 3.84045 4.60727 0
M  V30 2234 H 220.105 4.42379 4.72133 0
M  V30 2235 N 220.237 -1.11381 1.11499 0
M  V30 2236 C 221.485 -1.8277 0.862524 0
M  V30 2237 C 221.806 -1.85097 -0.613534 0
M  V30 2238 O 221.076 -1.32198 -1.4457 0
M  V30 2239 H 219.656 -0.676823 0.316101 0
M  V30 2240 H 222.318 -1.34816 1.4075 0
M  V30 2241 H 221.414 -2.86614 1.23527 0
M  V30 2242 N 221.715 -0.905404 -1.28997 0
M  V30 2243 C 222.645 -0.404212 -2.29975 0
M  V30 2244 C 223.626 0.523784 -1.61835 0
M  V30 2245 O 224.811 0.433298 -1.89304 0
M  V30 2246 C 221.941 0.364042 -3.45387 0
M  V30 2247 C 220.895 -0.474048 -4.25367 0
M  V30 2248 C 220.221 0.422045 -5.33032 0
M  V30 2249 C 221.521 -1.72696 -4.92923 0
M  V30 2250 H 223.215 -1.24807 -2.72146 0
M  V30 2251 H 220.761 -0.601585 -1.30832 0
M  V30 2252 H 222.714 0.725447 -4.15109 0
M  V30 2253 H 221.438 1.24174 -3.02074 0
M  V30 2254 H 220.097 -0.81786 -3.57361 0
M  V30 2255 H 219.745 1.29804 -4.85963 0
M  V30 2256 H 219.445 -0.135057 -5.87445 0
M  V30 2257 H 220.969 0.779517 -6.05604 0
M  V30 2258 H 222.383 -1.43495 -5.55051 0
M  V30 2259 H 220.78 -2.22582 -5.57295 0
M  V30 2260 H 221.85 -2.45964 -4.17887 0
M  V30 2261 N 223.193 1.4272 -0.668489 0
M  V30 2262 C 224.604 1.84793 -0.266151 0
M  V30 2263 C 224.955 1.55959 1.19043 0
M  V30 2264 O 224.08 1.01622 1.91055 0
M  V30 2265 C 224.675 3.35436 -0.476271 0
M  V30 2266 C 223.234 3.76182 -0.128113 0
M  V30 2267 C 222.381 2.66344 -0.771777 0
M  V30 2268 H 225.332 1.32656 -0.871098 0
M  V30 2269 H 225.353 3.79515 0.273561 0
M  V30 2270 H 224.865 3.5639 -1.53647 0
M  V30 2271 H 222.966 3.60836 0.928891 0
M  V30 2272 H 223.079 4.75766 -0.564231 0
M  V30 2273 H 221.443 2.53885 -0.203652 0
M  V30 2274 H 222.226 2.90123 -1.83531 0
M  V30 2275 N 224.671 0.411399 1.52136 0
M  V30 2276 C 225.917 -0.163888 2.02137 0
M  V30 2277 C 226.25 -1.44597 1.29636 0
M  V30 2278 O 225.525 -1.90272 0.403353 0
M  V30 2279 C 225.808 -0.40927 3.57767 0
M  V30 2280 C 225.661 0.889643 4.40914 0
M  V30 2281 C 226.98 -1.19042 4.23694 0
M  V30 2282 H 224.099 -0.0580896 0.734707 0
M  V30 2283 H 226.741 0.54531 1.82007 0
M  V30 2284 H 224.891 -1.0134 3.7505 0
M  V30 2285 H 226.563 1.52575 4.35337 0
M  V30 2286 H 224.806 1.50011 4.07037 0
M  V30 2287 H 225.477 0.672314 5.4789 0
M  V30 2288 H 227.953 -0.678942 4.10524 0
M  V30 2289 H 226.829 -1.33086 5.32522 0
M  V30 2290 H 227.09 -2.21166 3.82803 0
M  V30 2291 N 226.149 -1.5696 0.141893 0
M  V30 2292 C 227.565 -1.58151 -0.21456 0
M  V30 2293 C 227.765 -1.1559 -1.65049 0
M  V30 2294 O 226.821 -0.853832 -2.37626 0
M  V30 2295 C 228.134 -3.00674 0.0395576 0
M  V30 2296 C 229.682 -3.1299 -0.0245529 0
M  V30 2297 C 230.157 -4.57554 0.202167 0
M  V30 2298 N 231.648 -4.62961 0.148919 0
M  V30 2299 C 232.383 -5.7262 0.298924 0
M  V30 2300 N 231.879 -6.90947 0.50637 0
M  V30 2301 N 233.672 -5.61601 0.236886 0
M  V30 2302 H 225.823 -1.8292 1.07953 0
M  V30 2303 H 228.086 -0.846425 0.42693 0
M  V30 2304 H 227.792 -3.36183 1.03315 0
M  V30 2305 H 227.666 -3.70981 -0.682143 0
M  V30 2306 H 230.053 -2.77326 -1.00869 0
M  V30 2307 H 230.134 -2.4518 0.729396 0
M  V30 2308 H 229.778 -4.93922 1.18338 0
M  V30 2309 H 229.708 -5.23484 -0.572044 0
M  V30 2310 H 232.199 -3.77899 -0.00697015 0
M  V30 2311 H 232.512 -7.7038 0.611076 0
M  V30 2312 H 230.857 -6.92878 0.542628 0
M  V30 2313 H 234.048 -4.68039 0.0756209 0
M  V30 2314 H 234.221 -6.47015 0.357227 0
M  V30 2315 N 227.627 0.131896 -1.57047 0
M  V30 2316 C 228.875 0.840269 -1.83804 0
M  V30 2317 C 229.196 1.81017 -0.72512 0
M  V30 2318 O 228.466 1.94272 0.251995 0
M  V30 2319 H 227.046 0.313294 -0.678127 0
M  V30 2320 H 229.708 0.122294 -1.94516 0
M  V30 2321 H 228.804 1.39335 -2.79271 0
M  V30 2322 N 229.106 1.52395 0.401703 0
M  V30 2323 C 230.346 1.68498 1.15705 0
M  V30 2324 C 230.71 0.409748 1.87577 0
M  V30 2325 O 231.911 0.446983 2.65058 0
M  V30 2326 C 230.182 2.87789 2.11924 0
M  V30 2327 S 231.741 3.24415 2.95466 0
M  V30 2328 H 228.559 0.593267 0.391862 0
M  V30 2329 H 231.161 1.90408 0.443282 0
M  V30 2330 H 229.865 3.7884 1.57824 0
M  V30 2331 H 229.396 2.68175 2.87829 0
M  V30 2332 H 231.411 2.73614 4.13944 0
M  V30 2333 N 230.584 -0.659388 1.43143 0
M  V30 2334 C 231.861 -1.41627 1.34912 0
M  V30 2335 C 232.241 -2.11099 -0.00607785 0
M  V30 2336 O 231.589 -2.04353 -1.02236 0
M  V30 2337 C 231.799 -2.40604 2.52805 0
M  V30 2338 C 233.147 -3.04789 2.95616 0
M  V30 2339 O 234.171 -2.50932 2.52807 0
M  V30 2340 O 233.03 -4.02421 3.69756 0
M  V30 2341 H 230.124 -0.63246 0.532844 0
M  V30 2342 H 232.67 -0.686814 1.5518 0
M  V30 2343 H 231.442 -1.88174 3.43083 0
M  V30 2344 H 231.065 -3.21009 2.34604 0
M  V30 2345 N 232.062 -1.29571 -0.897171 0
M  V30 2346 C 232.992 -1.17473 -2.01798 0
M  V30 2347 C 233.973 -0.068323 -1.69963 0
M  V30 2348 O 235.158 -0.248239 -1.92607 0
M  V30 2349 C 232.288 -0.853099 -3.36659 0
M  V30 2350 C 231.242 -1.9161 -3.82713 0
M  V30 2351 C 230.568 -1.44773 -5.14728 0
M  V30 2352 C 231.868 -3.32535 -4.02763 0
M  V30 2353 H 233.562 -2.11237 -2.12177 0
M  V30 2354 H 231.108 -1.01699 -1.01948 0
M  V30 2355 H 233.061 -0.755165 -4.14578 0
M  V30 2356 H 231.785 0.120236 -3.26379 0
M  V30 2357 H 230.444 -2.00346 -3.07013 0
M  V30 2358 H 230.092 -0.462995 -5.00865 0
M  V30 2359 H 229.792 -2.15865 -5.46513 0
M  V30 2360 H 231.316 -1.36334 -5.95185 0
M  V30 2361 H 232.73 -3.26626 -4.71156 0
M  V30 2362 H 231.127 -4.01607 -4.45905 0
M  V30 2363 H 232.197 -3.75326 -3.07016 0
M  V30 2364 N 233.54 1.10788 -1.12088 0
M  V30 2365 C 234.45 2.20599 -0.798338 0
M  V30 2366 C 235.466 1.72712 0.21135 0
M  V30 2367 O 236.642 2.01348 0.0458477 0
M  V30 2368 C 233.707 3.45771 -0.253674 0
M  V30 2369 C 232.768 4.08411 -1.32283 0
M  V30 2370 C 232.001 5.27608 -0.80406 0
M  V30 2371 O 232.224 5.69241 0.363478 0
M  V30 2372 O 231.158 5.8101 -1.57198 0
M  V30 2373 H 234.984 2.50614 -1.7154 0
M  V30 2374 H 232.569 1.19454 -0.897275 0
M  V30 2375 H 234.451 4.21376 0.0453691 0
M  V30 2376 H 233.126 3.1739 0.636005 0
M  V30 2377 H 232.033 3.34507 -1.67499 0
M  V30 2378 H 233.366 4.40986 -2.18614 0
M  V30 2379 N 235.018 0.912232 1.28515 0
M  V30 2380 C 236.267 0.540504 1.94323 0
M  V30 2381 C 236.58 -0.920044 1.72611 0
M  V30 2382 O 237.786 -1.39986 2.32629 0
M  V30 2383 C 236.242 0.915803 3.48053 0
M  V30 2384 C 235.85 2.39598 3.78546 0
M  V30 2385 C 237.594 0.614588 4.20027 0
M  V30 2386 C 235.501 2.71148 5.25578 0
M  V30 2387 H 234.431 0.198418 0.727424 0
M  V30 2388 H 237.082 1.11094 1.46049 0
M  V30 2389 H 235.464 0.274168 3.9505 0
M  V30 2390 H 236.638 3.08422 3.42364 0
M  V30 2391 H 234.953 2.66749 3.1974 0
M  V30 2392 H 237.55 0.827002 5.28266 0
M  V30 2393 H 237.893 -0.447531 4.13887 0
M  V30 2394 H 238.426 1.21462 3.78803 0
M  V30 2395 H 235.165 3.76207 5.36794 0
M  V30 2396 H 234.685 2.0696 5.62963 0
M  V30 2397 H 236.364 2.58072 5.93302 0
M  V30 2398 N 236.496 -1.42363 0.676048 0
M  V30 2399 C 237.459 -2.29199 0.00766941 0
M  V30 2400 C 238.459 -1.43389 -0.727745 0
M  V30 2401 O 239.649 -1.64764 -0.56556 0
M  V30 2402 C 236.781 -3.2591 -0.999785 0
M  V30 2403 H 237.974 -2.89794 0.771988 0
M  V30 2404 H 235.527 -1.50024 0.438468 0
M  V30 2405 H 236.262 -2.70256 -1.79255 0
M  V30 2406 H 236.047 -3.89202 -0.475829 0
M  V30 2407 H 237.537 -3.91028 -1.46583 0
M  V30 2408 N 237.974 -0.419461 -1.51915 0
M  V30 2409 C 239.222 0.152637 -2.01523 0
M  V30 2410 C 239.543 1.44762 -1.30649 0
M  V30 2411 O 238.813 1.90997 -0.435535 0
M  V30 2412 H 237.393 0.0593966 -0.744635 0
M  V30 2413 H 240.055 -0.558073 -1.86739 0
M  V30 2414 H 239.151 0.341369 -3.10227 0
M  V30 2415 N 239.452 1.56882 -0.150215 0
M  V30 2416 C 240.399 2.16922 0.788244 0
M  V30 2417 C 241.369 1.10303 1.24187 0
M  V30 2418 O 242.554 1.38359 1.31383 0
M  V30 2419 C 239.694 2.79754 2.02068 0
M  V30 2420 C 238.807 4.00775 1.61257 0
M  V30 2421 C 237.942 4.51595 2.79705 0
M  V30 2422 C 236.981 5.65074 2.35282 0
M  V30 2423 N 236.118 6.10499 3.4675 0
M  V30 2424 H 240.958 2.96779 0.269444 0
M  V30 2425 H 238.495 1.46599 0.12128 0
M  V30 2426 H 240.453 3.14329 2.74323 0
M  V30 2427 H 239.083 2.02536 2.51354 0
M  V30 2428 H 238.135 3.72158 0.787553 0
M  V30 2429 H 239.447 4.82978 1.24633 0
M  V30 2430 H 238.601 4.88242 3.60145 0
M  V30 2431 H 237.34 3.68406 3.19576 0
M  V30 2432 H 236.345 5.28 1.53283 0
M  V30 2433 H 237.57 6.50052 1.96493 0
M  V30 2434 H 235.516 5.30243 3.86236 0
M  V30 2435 H 235.433 6.87637 3.14152 0
M  V30 2436 H 236.701 6.51791 4.27537 0
M  V30 2437 N 240.93 -0.123565 1.57115 0
M  V30 2438 C 242.176 -0.833386 1.84885 0
M  V30 2439 C 242.509 -1.79742 0.735292 0
M  V30 2440 O 241.784 -1.92764 -0.25925 0
M  V30 2441 C 242.067 -1.5873 3.23228 0
M  V30 2442 C 241.92 -0.643183 4.45178 0
M  V30 2443 C 243.239 -2.54453 3.59085 0
M  V30 2444 H 240.358 -0.301518 0.6725 0
M  V30 2445 H 243 -0.097778 1.89748 0
M  V30 2446 H 241.15 -2.21438 3.19214 0
M  V30 2447 H 242.822 -0.0253015 4.61293 0
M  V30 2448 H 241.065 0.0456139 4.33776 0
M  V30 2449 H 241.736 -1.20724 5.38637 0
M  V30 2450 H 244.212 -2.01853 3.63861 0
M  V30 2451 H 243.088 -3.04238 4.5687 0
M  V30 2452 H 243.349 -3.36906 2.86264 0
M  V30 2453 N 242.408 -1.52605 -0.393616 0
M  V30 2454 C 243.654 -1.67672 -1.14079 0
M  V30 2455 C 243.987 -0.413121 -1.89755 0
M  V30 2456 O 243.262 0.588952 -1.85369 0
M  V30 2457 C 243.545 -2.9088 -2.12276 0
M  V30 2458 C 243.398 -4.27329 -1.40394 0
M  V30 2459 C 244.717 -3.09628 -3.12759 0
M  V30 2460 H 241.836 -0.610168 -0.413356 0
M  V30 2461 H 244.478 -1.85193 -0.424696 0
M  V30 2462 H 242.628 -2.76073 -2.73342 0
M  V30 2463 H 244.3 -4.53894 -0.82327 0
M  V30 2464 H 242.543 -4.2802 -0.705801 0
M  V30 2465 H 243.214 -5.09615 -2.12123 0
M  V30 2466 H 245.69 -3.23436 -2.61779 0
M  V30 2467 H 244.566 -3.97322 -3.78717 0
M  V30 2468 H 244.827 -2.23637 -3.81365 0
M  V30 2469 N 243.887 0.651787 -1.4349 0
M  V30 2470 C 245.164 1.40909 -1.35661 0
M  V30 2471 C 245.544 2.11099 -0.00511733 0
M  V30 2472 O 244.892 2.04892 1.0115 0
M  V30 2473 C 245.102 2.3926 -2.54078 0
M  V30 2474 C 246.45 3.03217 -2.97228 0
M  V30 2475 O 247.474 2.49588 -2.54135 0
M  V30 2476 O 246.333 4.00455 -3.71885 0
M  V30 2477 H 243.427 0.629625 -0.536191 0
M  V30 2478 H 245.973 0.678575 -1.55542 0
M  V30 2479 H 244.745 1.86352 -3.44076 0
M  V30 2480 H 244.368 3.1976 -2.36303 0
M  V30 2481 N 245.365 1.30045 0.890287 0
M  V30 2482 C 246.614 1.17929 1.63633 0
M  V30 2483 C 246.927 -0.266204 1.9378 0
M  V30 2484 O 248.133 -0.508804 2.6669 0
M  V30 2485 C 246.589 2.06317 2.94892 0
M  V30 2486 C 246.197 3.55745 2.72305 0
M  V30 2487 C 247.941 2.0295 3.72843 0
M  V30 2488 C 245.848 4.36205 3.99348 0
M  V30 2489 H 244.778 0.437782 0.613892 0
M  V30 2490 H 247.429 1.54754 0.986075 0
M  V30 2491 H 245.811 1.6237 3.61182 0
M  V30 2492 H 246.985 4.07805 2.1455 0
M  V30 2493 H 245.3 3.6088 2.07737 0
M  V30 2494 H 247.897 2.60319 4.67053 0
M  V30 2495 H 248.24 1.0117 4.0382 0
M  V30 2496 H 248.773 2.4499 3.13408 0
M  V30 2497 H 245.512 5.38659 3.73533 0
M  V30 2498 H 245.032 3.8891 4.56628 0
M  V30 2499 H 246.711 4.47362 4.67415 0
M  V30 2500 N 246.843 -1.10192 1.12674 0
M  V30 2501 C 248.089 -1.82658 0.894847 0
M  V30 2502 C 248.444 -1.83666 -0.573107 0
M  V30 2503 O 247.737 -1.28816 -1.41835 0
M  V30 2504 C 247.931 -3.28552 1.4067 0
M  V30 2505 C 247.76 -3.41756 2.92289 0
M  V30 2506 C 246.53 -3.54021 3.60551 0
M  V30 2507 C 248.728 -3.34949 3.90274 0
M  V30 2508 N 246.71 -3.55827 5.0026 0
M  V30 2509 C 248.081 -3.43531 5.16127 0
M  V30 2510 C 250.136 -3.18565 3.8265 0
M  V30 2511 C 248.839 -3.37416 6.3525 0
M  V30 2512 C 250.865 -3.13772 5.01299 0
M  V30 2513 C 250.227 -3.22938 6.26012 0
M  V30 2514 H 246.326 -0.683044 0.380756 0
M  V30 2515 H 248.91 -1.31752 1.43351 0
M  V30 2516 H 247.081 -3.77946 0.895055 0
M  V30 2517 H 248.813 -3.88991 1.11661 0
M  V30 2518 H 245.568 -3.57135 3.1105 0
M  V30 2519 H 245.992 -3.60335 5.73138 0
M  V30 2520 H 250.634 -3.10354 2.87124 0
M  V30 2521 H 248.352 -3.44391 7.3104 0
M  V30 2522 H 251.938 -3.02242 4.97133 0
M  V30 2523 H 250.818 -3.19235 7.16281 0
M  V30 2524 N 248.321 -0.919034 -1.28029 0
M  V30 2525 C 249.567 -0.555757 -1.95036 0
M  V30 2526 C 249.9 0.899198 -1.72128 0
M  V30 2527 O 249.175 1.64023 -1.04531 0
M  V30 2528 C 249.458 -0.872024 -3.49382 0
M  V30 2529 C 249.311 -2.3801 -3.81669 0
M  V30 2530 C 250.63 -0.37185 -4.38526 0
M  V30 2531 H 247.749 -0.203386 -0.708381 0
M  V30 2532 H 250.391 -1.14924 -1.51303 0
M  V30 2533 H 248.541 -0.366946 -3.86763 0
M  V30 2534 H 250.213 -2.9562 -3.54128 0
M  V30 2535 H 248.456 -2.83289 -3.28526 0
M  V30 2536 H 249.127 -2.55192 -4.8947 0
M  V30 2537 H 251.603 -0.804602 -4.08247 0
M  V30 2538 H 250.479 -0.622173 -5.45362 0
M  V30 2539 H 250.74 0.727934 -4.36066 0
M  V30 2540 N 249.799 1.42003 -0.683588 0
M  V30 2541 C 251.076 1.95112 -0.138075 0
M  V30 2542 C 251.456 1.62359 1.34918 0
M  V30 2543 O 250.804 0.924311 2.08971 0
M  V30 2544 C 251.014 3.46505 -0.416581 0
M  V30 2545 C 252.362 4.23254 -0.337834 0
M  V30 2546 O 253.386 3.54468 -0.35082 0
M  V30 2547 O 252.245 5.45743 -0.287596 0
M  V30 2548 H 249.339 0.826961 -0.00797996 0
M  V30 2549 H 251.885 1.51784 -0.758924 0
M  V30 2550 H 250.657 3.63582 -1.4465 0
M  V30 2551 H 250.28 3.969 0.235839 0
M  V30 2552 N 251.277 0.427512 1.51691 0
M  V30 2553 C 252.526 -0.143679 2.01188 0
M  V30 2554 C 252.839 -1.44642 1.31674 0
M  V30 2555 O 254.045 -2.09997 1.72086 0
M  V30 2556 C 252.501 -0.306602 3.58592 0
M  V30 2557 C 252.109 0.985125 4.37035 0
M  V30 2558 C 253.853 -0.832091 4.16265 0
M  V30 2559 C 251.76 0.788382 5.86122 0
M  V30 2560 H 250.69 -0.0574701 0.751807 0
M  V30 2561 H 253.341 0.555772 1.74881 0
M  V30 2562 H 251.723 -1.06882 3.81303 0
M  V30 2563 H 252.897 1.75492 4.26074 0
M  V30 2564 H 251.212 1.4384 3.90767 0
M  V30 2565 H 253.809 -0.995617 5.25349 0
M  V30 2566 H 254.152 -1.81186 3.74803 0
M  V30 2567 H 254.685 -0.128444 3.97593 0
M  V30 2568 H 251.424 1.74025 6.31978 0
M  V30 2569 H 250.944 0.0582143 5.99772 0
M  V30 2570 H 252.623 0.437722 6.45518 0
M  V30 2571 N 252.755 -1.56801 0.158532 0
M  V30 2572 C 254.166 -1.83189 -0.360366 0
M  V30 2573 C 254.517 -1.07778 -1.63946 0
M  V30 2574 O 253.642 -0.326718 -2.13919 0
M  V30 2575 C 254.237 -3.32297 -0.660595 0
M  V30 2576 C 252.796 -3.59227 -1.12398 0
M  V30 2577 C 251.943 -2.76877 -0.153097 0
M  V30 2578 H 254.894 -1.54008 0.383031 0
M  V30 2579 H 254.915 -3.4908 -1.51405 0
M  V30 2580 H 254.427 -3.87156 0.270527 0
M  V30 2581 H 252.528 -3.09766 -2.07064 0
M  V30 2582 H 252.641 -4.67632 -1.04197 0
M  V30 2583 H 251.005 -2.46319 -0.647983 0
M  V30 2584 H 251.788 -3.34511 0.77182 0
M  V30 2585 N 254.233 0.115231 -1.57178 0
M  V30 2586 C 255.143 1.15994 -2.03918 0
M  V30 2587 C 256.159 1.45103 -0.960268 0
M  V30 2588 O 257.335 1.56144 -1.27204 0
M  V30 2589 C 254.4 2.46568 -2.43732 0
M  V30 2590 C 253.461 2.24822 -3.65723 0
M  V30 2591 C 252.694 3.4917 -4.03629 0
M  V30 2592 O 252.917 4.56623 -3.41835 0
M  V30 2593 O 251.851 3.39949 -4.96708 0
M  V30 2594 H 255.677 0.793019 -2.93164 0
M  V30 2595 H 253.262 0.3263 -1.45793 0
M  V30 2596 H 255.144 3.23492 -2.70057 0
M  V30 2597 H 253.819 2.82726 -1.57631 0
M  V30 2598 H 252.726 1.45744 -3.44542 0
M  V30 2599 H 254.059 1.93566 -4.52541 0
M  V30 2600 N 255.711 1.52812 0.385517 0
M  V30 2601 C 256.643 1.74096 1.49074 0
M  V30 2602 C 257.656 0.621462 1.50472 0
M  V30 2603 O 258.845 0.897245 1.54311 0
M  V30 2604 C 255.945 1.78774 2.87911 0
M  V30 2605 C 255.118 3.08134 3.10439 0
M  V30 2606 C 254.177 3.04313 4.29278 0
M  V30 2607 O 253.203 3.78168 4.25415 0
M  V30 2608 N 254.405 2.23741 5.35649 0
M  V30 2609 H 257.17 2.69455 1.31202 0
M  V30 2610 H 254.731 1.51343 0.575065 0
M  V30 2611 H 256.723 1.73721 3.65518 0
M  V30 2612 H 255.293 0.907869 2.99126 0
M  V30 2613 H 254.513 3.26649 2.20667 0
M  V30 2614 H 255.801 3.93662 3.22347 0
M  V30 2615 H 255.199 1.63211 5.41645 0
M  V30 2616 H 253.756 2.24524 6.11909 0
M  V30 2617 N 257.189 -0.644168 1.43834 0
M  V30 2618 C 258.122 -1.76906 1.44151 0
M  V30 2619 C 259.1 -1.59774 0.301857 0
M  V30 2620 O 260.284 -1.81834 0.496841 0
M  V30 2621 C 257.411 -3.14321 1.26174 0
M  V30 2622 C 256.457 -3.50134 2.43533 0
M  V30 2623 S 257.29 -3.49085 4.06079 0
M  V30 2624 C 258.446 -4.89142 3.90501 0
M  V30 2625 H 258.679 -1.76368 2.39336 0
M  V30 2626 H 256.212 -0.817624 1.30974 0
M  V30 2627 H 258.17 -3.93625 1.16489 0
M  V30 2628 H 256.831 -3.12412 0.325224 0
M  V30 2629 H 256.024 -4.50095 2.26783 0
M  V30 2630 H 255.626 -2.78264 2.4989 0
M  V30 2631 H 257.918 -5.78036 3.53385 0
M  V30 2632 H 258.861 -5.10945 4.90246 0
M  V30 2633 H 259.269 -4.63102 3.22795 0
M  V30 2634 N 258.668 -1.30515 -0.883378 0
M  V30 2635 C 259.631 -1.1701 -1.97082 0
M  V30 2636 C 260.631 -0.10089 -1.60483 0
M  V30 2637 O 261.821 -0.349127 -1.70666 0
M  V30 2638 C 258.953 -0.793045 -3.31547 0
M  V30 2639 H 260.146 -2.13622 -2.10489 0
M  V30 2640 H 257.699 -1.13935 -1.06998 0
M  V30 2641 H 258.434 0.172499 -3.23841 0
M  V30 2642 H 258.219 -1.56576 -3.5948 0
M  V30 2643 H 259.709 -0.722073 -4.1131 0
M  V30 2644 N 260.146 1.09593 -1.13257 0
M  V30 2645 C 261.562 1.33775 -0.870423 0
M  V30 2646 C 261.762 1.95327 0.494926 0
M  V30 2647 O 260.818 2.19853 1.2418 0
M  V30 2648 C 262.131 2.25106 -1.99369 0
M  V30 2649 C 263.679 2.3862 -2.02558 0
M  V30 2650 C 264.154 3.33285 -3.14142 0
M  V30 2651 N 265.645 3.40857 -3.13641 0
M  V30 2652 C 266.38 4.14101 -3.96621 0
M  V30 2653 N 265.876 4.90157 -4.8961 0
M  V30 2654 N 267.669 4.09808 -3.84726 0
M  V30 2655 H 259.82 0.680136 -2.01216 0
M  V30 2656 H 262.083 0.362133 -0.876107 0
M  V30 2657 H 261.789 1.87103 -2.97801 0
M  V30 2658 H 261.663 3.25481 -1.90635 0
M  V30 2659 H 264.05 2.75887 -1.0474 0
M  V30 2660 H 264.131 1.38028 -2.15364 0
M  V30 2661 H 263.775 2.96741 -4.12198 0
M  V30 2662 H 263.705 4.33776 -2.98574 0
M  V30 2663 H 266.196 2.86624 -2.46282 0
M  V30 2664 H 266.509 5.4347 -5.49418 0
M  V30 2665 H 264.854 4.89251 -4.93617 0
M  V30 2666 H 268.045 3.4949 -3.11408 0
M  V30 2667 H 268.218 4.66629 -4.49623 0
M  V30 2668 N 261.624 0.925811 1.2754 0
M  V30 2669 C 262.871 0.565255 1.94451 0
M  V30 2670 C 263.199 -0.89316 1.7278 0
M  V30 2671 O 262.454 -1.65213 1.04895 0
M  V30 2672 C 262.753 0.835296 3.47502 0
M  V30 2673 C 262.419 2.27515 3.89291 0
M  V30 2674 C 261.081 2.66879 4.00411 0
M  V30 2675 C 263.433 3.21158 4.10496 0
M  V30 2676 C 260.761 3.99014 4.30122 0
M  V30 2677 C 263.113 4.52871 4.4169 0
M  V30 2678 C 261.777 4.92072 4.51023 0
M  V30 2679 H 261.047 0.206841 0.711546 0
M  V30 2680 H 263.694 1.16942 1.51647 0
M  V30 2681 H 261.999 0.148442 3.91519 0
M  V30 2682 H 263.696 0.535322 3.97411 0
M  V30 2683 H 260.286 1.95976 3.81171 0
M  V30 2684 H 264.47 2.9195 4.01346 0
M  V30 2685 H 259.726 4.2907 4.35556 0
M  V30 2686 H 263.9 5.25436 4.57045 0
M  V30 2687 H 261.527 5.9449 4.738 0
M  V30 2688 N 263.102 -1.41638 0.69111 0
M  V30 2689 C 264.032 -2.3347 0.037248 0
M  V30 2690 C 265.013 -1.51575 -0.771947 0
M  V30 2691 O 266.198 -1.80126 -0.72582 0
M  V30 2692 C 263.328 -3.35354 -0.903064 0
M  V30 2693 C 262.282 -4.27526 -0.201288 0
M  V30 2694 C 261.608 -5.19747 -1.25565 0
M  V30 2695 C 262.908 -5.13959 0.929689 0
M  V30 2696 H 264.602 -2.88397 0.804227 0
M  V30 2697 H 262.148 -1.38669 0.388189 0
M  V30 2698 H 264.101 -3.98519 -1.36969 0
M  V30 2699 H 262.825 -2.78767 -1.70166 0
M  V30 2700 H 261.484 -3.65779 0.245265 0
M  V30 2701 H 261.132 -4.59479 -2.04666 0
M  V30 2702 H 260.832 -5.8225 -0.791128 0
M  V30 2703 H 262.356 -5.85789 -1.72288 0
M  V30 2704 H 263.77 -5.70718 0.543546 0
M  V30 2705 H 262.167 -5.85379 1.32103 0
M  V30 2706 H 263.237 -4.51389 1.77133 0
M  V30 2707 N 264.58 -0.43555 -1.51462 0
M  V30 2708 C 265.49 0.383001 -2.31453 0
M  V30 2709 C 266.506 1.02931 -1.4029 0
M  V30 2710 O 267.682 1.02507 -1.73362 0
M  V30 2711 C 264.747 1.47043 -3.13973 0
M  V30 2712 C 263.808 0.844433 -4.20913 0
M  V30 2713 C 263.041 1.88004 -4.9949 0
M  V30 2714 O 263.264 3.10199 -4.78678 0
M  V30 2715 O 262.198 1.47157 -5.83634 0
M  V30 2716 H 266.024 -0.269964 -3.02498 0
M  V30 2717 H 263.609 -0.19813 -1.4808 0
M  V30 2718 H 265.491 2.10113 -3.65281 0
M  V30 2719 H 264.166 2.10751 -2.45695 0
M  V30 2720 H 263.073 0.175729 -3.73687 0
M  V30 2721 H 264.406 0.250869 -4.9156 0
M  V30 2722 N 266.058 1.56714 -0.166846 0
M  V30 2723 C 267.304 1.97039 0.479962 0
M  V30 2724 C 267.637 1.05264 1.63197 0
M  V30 2725 O 266.912 0.0988833 1.94248 0
M  V30 2726 C 267.195 3.46867 0.967212 0
M  V30 2727 C 267.048 4.49421 -0.18466 0
M  V30 2728 C 268.367 3.9968 1.84238 0
M  V30 2729 H 265.486 0.71641 0.172992 0
M  V30 2730 H 268.128 1.8832 -0.252079 0
M  V30 2731 H 266.278 3.54428 1.59101 0
M  V30 2732 H 267.95 4.53924 -0.821621 0
M  V30 2733 H 266.193 4.25573 -0.840837 0
M  V30 2734 H 266.864 5.51644 0.198317 0
M  V30 2735 H 269.34 3.94723 1.31655 0
M  V30 2736 H 268.216 5.04941 2.15234 0
M  V30 2737 H 268.477 3.43226 2.78654 0
M  V30 2738 N 267.536 -0.106894 1.57237 0
M  V30 2739 C 268.446 -1.14911 2.0453 0
M  V30 2740 C 269.462 -1.44592 0.96795 0
M  V30 2741 O 270.638 -1.55468 1.2803 0
M  V30 2742 C 267.703 -2.45272 2.45036 0
M  V30 2743 C 266.764 -2.22879 3.66911 0
M  V30 2744 C 265.997 -3.47024 4.05475 0
M  V30 2745 O 266.22 -4.54804 3.44252 0
M  V30 2746 O 265.154 -3.3731 4.98504 0
M  V30 2747 H 268.98 -0.777461 2.9358 0
M  V30 2748 H 266.565 -0.318563 1.45964 0
M  V30 2749 H 268.447 -3.22055 2.71769 0
M  V30 2750 H 267.122 -2.81886 1.59129 0
M  V30 2751 H 266.029 -1.43915 3.45311 0
M  V30 2752 H 267.362 -1.91163 4.53561 0
M  V30 2753 N 269.014 -1.53014 -0.377408 0
M  V30 2754 C 269.944 -1.81589 -1.46791 0
M  V30 2755 C 270.925 -0.668622 -1.56408 0
M  V30 2756 O 272.11 -0.917337 -1.71168 0
M  V30 2757 C 269.24 -1.99519 -2.8427 0
M  V30 2758 C 268.194 -3.15249 -2.89486 0
M  V30 2759 C 267.52 -3.18451 -4.29527 0
M  V30 2760 C 268.82 -4.54084 -2.58079 0
M  V30 2761 H 270.514 -2.7291 -1.23127 0
M  V30 2762 H 268.06 -1.31319 -0.590883 0
M  V30 2763 H 270.013 -2.18092 -3.60575 0
M  V30 2764 H 268.737 -1.04897 -3.09296 0
M  V30 2765 H 267.396 -2.96477 -2.15631 0
M  V30 2766 H 267.044 -2.2149 -4.5161 0
M  V30 2767 H 266.744 -3.962 -4.33934 0
M  V30 2768 H 268.268 -3.39193 -5.07721 0
M  V30 2769 H 269.682 -4.72899 -3.24098 0
M  V30 2770 H 268.079 -5.33987 -2.7382 0
M  V30 2771 H 269.149 -4.60006 -1.53372 0
M  V30 2772 N 270.492 0.636531 -1.44174 0
M  V30 2773 C 271.439 1.74875 -1.50624 0
M  V30 2774 C 272.409 1.62275 -0.35442 0
M  V30 2775 O 273.594 1.82276 -0.563908 0
M  V30 2776 C 270.734 3.13102 -1.45125 0
M  V30 2777 C 269.847 3.36717 -2.7064 0
M  V30 2778 C 268.982 4.64885 -2.57013 0
M  V30 2779 C 268.021 4.8166 -3.77717 0
M  V30 2780 N 267.158 6.01101 -3.62798 0
M  V30 2781 H 271.998 1.68697 -2.45653 0
M  V30 2782 H 269.535 0.823004 -1.21922 0
M  V30 2783 H 271.493 3.93034 -1.39929 0
M  V30 2784 H 270.123 3.18308 -0.536671 0
M  V30 2785 H 269.175 2.50763 -2.86046 0
M  V30 2786 H 270.487 3.44993 -3.60252 0
M  V30 2787 H 269.641 5.52969 -2.49619 0
M  V30 2788 H 268.38 4.58957 -1.64953 0
M  V30 2789 H 267.385 3.92007 -3.85501 0
M  V30 2790 H 268.61 4.89406 -4.70807 0
M  V30 2791 H 266.556 5.96273 -2.73486 0
M  V30 2792 H 266.473 6.10409 -4.46023 0
M  V30 2793 H 267.741 6.91761 -3.59286 0
M  V30 2794 N 271.97 1.30982 0.876444 0
M  V30 2795 C 273.247 1.10942 1.61094 0
M  V30 2796 C 273.627 -0.338223 2.08373 0
M  V30 2797 O 272.975 -1.33122 1.85717 0
M  V30 2798 C 273.185 2.11789 2.77392 0
M  V30 2799 C 274.533 2.43965 3.47514 0
M  V30 2800 O 275.557 2.10166 2.87591 0
M  V30 2801 O 274.416 3.01817 4.55597 0
M  V30 2802 H 271.51 0.42667 0.708436 0
M  V30 2803 H 274.056 1.42438 0.922474 0
M  V30 2804 H 272.828 3.09194 2.39823 0
M  V30 2805 H 272.451 1.81161 3.5393 0
M  V30 2806 N 273.449 -1.08991 1.13837 0
M  V30 2807 C 274.697 -1.80899 0.901098 0
M  V30 2808 C 275.018 -1.86356 -0.574134 0
M  V30 2809 O 274.288 -1.35235 -1.41733 0
M  V30 2810 H 272.868 -0.669966 0.330386 0
M  V30 2811 H 275.53 -1.318 1.43578 0
M  V30 2812 H 274.626 -2.83929 1.29578 0
M  V30 2813 N 274.927 -0.932562 -1.27047 0
M  V30 2814 C 276.152 -0.591474 -1.98787 0
M  V30 2815 C 276.577 0.824601 -1.69062 0
M  V30 2816 O 275.935 1.5541 -0.933677 0
M  V30 2817 C 275.983 -0.829808 -3.50922 0
M  V30 2818 O 275.087 0.102266 -4.12273 0
M  V30 2819 H 274.428 -0.227185 -0.623926 0
M  V30 2820 H 276.958 -1.25314 -1.61733 0
M  V30 2821 H 276.968 -0.747292 -4.01098 0
M  V30 2822 H 275.643 -1.86201 -3.7189 0
M  V30 2823 H 274.22 -0.0305761 -3.72887 0
M  V30 2824 N 276.405 1.4127 -0.698611 0
M  V30 2825 C 277.633 2.05503 -0.239992 0
M  V30 2826 C 278.048 1.52584 1.11191 0
M  V30 2827 O 277.405 0.675323 1.69545 0
M  V30 2828 C 277.456 3.60987 -0.192429 0
M  V30 2829 O 277.177 4.1195 -1.49094 0
M  V30 2830 C 278.678 4.42371 0.28681 0
M  V30 2831 H 275.898 0.661748 -0.111045 0
M  V30 2832 H 278.442 1.80987 -0.95205 0
M  V30 2833 H 276.597 3.84533 0.470472 0
M  V30 2834 H 277.011 5.06018 -1.38007 0
M  V30 2835 H 278.485 5.51344 0.26896 0
M  V30 2836 H 278.962 4.18699 1.32619 0
M  V30 2837 H 279.568 4.23897 -0.345201 0
M  V30 2838 N 277.883 0.443576 1.51229 0
M  V30 2839 C 279.299 0.0962001 1.5931 0
M  V30 2840 C 279.499 -1.39501 1.45402 0
M  V30 2841 O 278.555 -2.16557 1.29843 0
M  V30 2842 C 279.868 0.621875 2.94199 0
M  V30 2843 C 281.416 0.582865 3.07525 0
M  V30 2844 C 281.891 1.08562 4.44948 0
M  V30 2845 N 283.382 1.04387 4.51284 0
M  V30 2846 C 284.117 1.40368 5.55954 0
M  V30 2847 N 283.613 1.83664 6.68011 0
M  V30 2848 N 285.406 1.32145 5.46346 0
M  V30 2849 H 277.557 1.41376 1.58514 0
M  V30 2850 H 279.82 0.582965 0.747567 0
M  V30 2851 H 279.526 1.66546 3.09767 0
M  V30 2852 H 279.4 0.0502125 3.77167 0
M  V30 2853 H 281.787 -0.451749 2.91622 0
M  V30 2854 H 281.868 1.191 2.26382 0
M  V30 2855 H 281.512 2.11873 4.61598 0
M  V30 2856 H 281.442 0.453956 5.2464 0
M  V30 2857 H 283.933 0.725986 3.70861 0
M  V30 2858 H 284.246 2.0934 7.43906 0
M  V30 2859 H 282.591 1.87596 6.69203 0
M  V30 2860 H 285.782 0.981808 4.57688 0
M  V30 2861 H 285.955 1.60514 6.27805 0
M  V30 2862 N 279.361 -1.56624 0.175154 0
M  V30 2863 C 280.291 -2.21155 -0.749195 0
M  V30 2864 C 281.272 -1.16836 -1.23626 0
M  V30 2865 O 282.457 -1.45277 -1.28873 0
M  V30 2866 C 279.587 -2.8553 -1.97711 0
M  V30 2867 C 278.541 -3.95921 -1.62575 0
M  V30 2868 C 277.867 -4.47365 -2.92864 0
M  V30 2869 C 279.167 -5.15323 -0.850838 0
M  V30 2870 H 280.861 -2.98653 -0.211295 0
M  V30 2871 H 278.407 -1.43651 -0.100188 0
M  V30 2872 H 280.36 -3.2935 -2.62881 0
M  V30 2873 H 279.084 -2.05406 -2.53921 0
M  V30 2874 H 277.743 -3.52762 -0.997719 0
M  V30 2875 H 277.391 -3.64027 -3.47122 0
M  V30 2876 H 277.091 -5.21839 -2.70106 0
M  V30 2877 H 278.615 -4.93873 -3.59056 0
M  V30 2878 H 280.029 -5.55812 -1.40521 0
M  V30 2879 H 278.426 -5.95739 -0.722154 0
M  V30 2880 H 279.496 -4.84661 0.152082 0
M  V30 2881 N 280.839 0.0985539 -1.57292 0
M  V30 2882 C 281.769 1.12064 -2.04851 0
M  V30 2883 C 282.75 1.41981 -0.936767 0
M  V30 2884 O 283.935 1.52071 -1.20781 0
M  V30 2885 C 281.065 2.44144 -2.47004 0
M  V30 2886 C 280.019 2.28643 -3.6181 0
M  V30 2887 C 279.345 3.65869 -3.89929 0
M  V30 2888 C 280.645 1.72986 -4.92822 0
M  V30 2889 H 282.339 0.724979 -2.9049 0
M  V30 2890 H 279.885 0.34729 -1.39749 0
M  V30 2891 H 281.838 3.15914 -2.78884 0
M  V30 2892 H 280.562 2.85639 -1.5836 0
M  V30 2893 H 279.221 1.59318 -3.30172 0
M  V30 2894 H 278.869 4.04885 -2.98458 0
M  V30 2895 H 278.569 3.56344 -4.67218 0
M  V30 2896 H 280.093 4.39112 -4.2428 0
M  V30 2897 H 281.507 2.34593 -5.23105 0
M  V30 2898 H 279.904 1.74229 -5.74251 0
M  V30 2899 H 280.974 0.689007 -4.7998 0
M  V30 2900 N 282.317 1.53212 0.369288 0
M  V30 2901 C 283.728 1.60943 0.946276 0
M  V30 2902 C 284.079 0.47452 1.90375 0
M  V30 2903 O 283.204 -0.399597 2.12679 0
M  V30 2904 C 283.799 2.91715 1.72302 0
M  V30 2905 C 282.358 3.01792 2.24941 0
M  V30 2906 C 281.505 2.56211 1.06072 0
M  V30 2907 H 284.456 1.58007 0.148198 0
M  V30 2908 H 284.477 2.79309 2.58393 0
M  V30 2909 H 283.989 3.74295 1.0259 0
M  V30 2910 H 282.09 2.23791 2.97906 0
M  V30 2911 H 282.203 4.06803 2.53077 0
M  V30 2912 H 280.567 2.10998 1.4266 0
M  V30 2913 H 281.35 3.41206 0.378639 0
M  V30 2914 N 283.795 -0.628877 1.44509 0
M  V30 2915 C 284.728 -1.75367 1.46019 0
M  V30 2916 C 285.706 -1.59444 0.318787 0
M  V30 2917 O 286.89 -1.81297 0.516099 0
M  V30 2918 C 284.017 -3.12965 1.29501 0
M  V30 2919 C 283.063 -3.47532 2.47233 0
M  V30 2920 S 283.896 -3.44758 4.09758 0
M  V30 2921 C 285.052 -4.84973 3.95667 0
M  V30 2922 H 285.285 -1.7382 2.41193 0
M  V30 2923 H 282.818 -0.803686 1.31834 0
M  V30 2924 H 284.776 -3.92367 1.20658 0
M  V30 2925 H 283.437 -3.12049 0.358341 0
M  V30 2926 H 282.63 -4.47664 2.31544 0
M  V30 2927 H 282.232 -2.75598 2.52828 0
M  V30 2928 H 284.524 -5.74255 3.59496 0
M  V30 2929 H 285.467 -5.05716 4.95638 0
M  V30 2930 H 285.875 -4.59653 3.27688 0
M  V30 2931 N 285.273 -1.31445 -0.869486 0
M  V30 2932 C 286.205 -1.14955 -1.98287 0
M  V30 2933 C 287.218 -0.0885037 -1.62559 0
M  V30 2934 O 288.407 -0.336044 -1.75308 0
M  V30 2935 C 285.507 -0.734255 -3.3085 0
M  V30 2936 C 284.68 -1.88042 -3.94917 0
M  V30 2937 C 283.739 -1.4511 -5.05796 0
M  V30 2938 O 282.765 -2.16082 -5.2659 0
M  V30 2939 N 283.967 -0.338763 -5.79511 0
M  V30 2940 H 286.732 -2.10856 -2.12979 0
M  V30 2941 H 284.293 -1.23786 -1.04349 0
M  V30 2942 H 286.285 -0.42975 -4.02412 0
M  V30 2943 H 284.855 0.133158 -3.12316 0
M  V30 2944 H 284.075 -2.35222 -3.1633 0
M  V30 2945 H 285.363 -2.6481 -4.34457 0
M  V30 2946 H 284.761 0.252274 -5.65137 0
M  V30 2947 H 283.318 -0.0937925 -6.51733 0
M  V30 2948 N 286.751 1.08385 -1.14413 0
M  V30 2949 C 287.684 2.14642 -0.774871 0
M  V30 2950 C 288.662 1.60761 0.243876 0
M  V30 2951 O 289.846 1.88031 0.132883 0
M  V30 2952 C 286.973 3.38366 -0.150491 0
M  V30 2953 C 286.019 4.10997 -1.13945 0
M  V30 2954 S 286.852 4.63797 -2.67679 0
M  V30 2955 C 288.008 5.90808 -2.06631 0
M  V30 2956 H 288.241 2.45633 -1.67487 0
M  V30 2957 H 285.774 1.20498 -0.96538 0
M  V30 2958 H 287.732 4.09996 0.203334 0
M  V30 2959 H 286.393 3.05572 0.72694 0
M  V30 2960 H 285.586 4.99783 -0.65059 0
M  V30 2961 H 285.188 3.4528 -1.43727 0
M  V30 2962 H 287.48 6.62411 -1.4219 0
M  V30 2963 H 288.423 6.4439 -2.93542 0
M  V30 2964 H 288.831 5.4383 -1.51357 0
M  V30 2965 N 288.23 0.939286 1.26551 0
M  V30 2966 C 289.476 0.586715 1.94128 0
M  V30 2967 C 289.809 -0.8717 1.73537 0
M  V30 2968 O 289.084 -1.62339 1.07127 0
M  V30 2969 C 289.367 0.927497 3.4795 0
M  V30 2970 C 289.22 2.44052 3.77834 0
M  V30 2971 C 290.539 0.441569 4.37879 0
M  V30 2972 H 287.658 0.21463 0.705055 0
M  V30 2973 H 290.3 1.17316 1.49455 0
M  V30 2974 H 288.45 0.428431 3.8613 0
M  V30 2975 H 290.122 3.01216 3.4938 0
M  V30 2976 H 288.365 2.8848 3.23978 0
M  V30 2977 H 289.036 2.62947 4.85348 0
M  V30 2978 H 291.512 0.869448 4.06915 0
M  V30 2979 H 290.388 0.708856 5.44304 0
M  V30 2980 H 290.649 -0.658467 4.37169 0
M  V30 2981 N 289.708 -1.40897 0.706093 0
M  V30 2982 C 290.655 -2.30751 0.0474474 0
M  V30 2983 C 291.625 -1.47678 -0.76029 0
M  V30 2984 O 292.81 -1.76441 -0.726177 0
M  V30 2985 C 289.95 -3.33815 -0.875309 0
M  V30 2986 C 289.063 -4.31961 -0.0580623 0
M  V30 2987 C 288.198 -5.22093 -0.979425 0
M  V30 2988 C 287.237 -6.11902 -0.155706 0
M  V30 2989 N 286.374 -6.94482 -1.03144 0
M  V30 2990 H 291.214 -2.86513 0.819413 0
M  V30 2991 H 288.751 -1.41102 0.415783 0
M  V30 2992 H 290.709 -3.92129 -1.42446 0
M  V30 2993 H 289.339 -2.79579 -1.61356 0
M  V30 2994 H 288.391 -3.75507 0.608147 0
M  V30 2995 H 289.703 -4.95415 0.580082 0
M  V30 2996 H 288.857 -5.85292 -1.59744 0
M  V30 2997 H 287.596 -4.5889 -1.65141 0
M  V30 2998 H 286.601 -5.47742 0.475309 0
M  V30 2999 H 287.826 -6.77162 0.512635 0
M  V30 3000 H 285.772 -6.33877 -1.68924 0
M  V30 3001 H 285.689 -7.54665 -0.449108 0
M  V30 3002 H 286.957 -7.6214 -1.63593 0
M  V30 3003 N 291.186 -0.45159 -1.50991 0
M  V30 3004 C 292.432 0.110237 -2.025 0
M  V30 3005 C 292.765 1.41109 -1.33424 0
M  V30 3006 O 292.04 1.89135 -0.453659 0
M  V30 3007 C 292.323 0.314271 -3.58726 0
M  V30 3008 C 292.176 -1.00623 -4.38401 0
M  V30 3009 C 293.495 1.07767 -4.26702 0
M  V30 3010 H 290.614 0.0385897 -0.735989 0
M  V30 3011 H 293.256 -0.593374 -1.80497 0
M  V30 3012 H 291.406 0.913601 -3.77605 0
M  V30 3013 H 293.078 -1.64064 -4.31139 0
M  V30 3014 H 291.321 -1.6075 -4.02917 0
M  V30 3015 H 291.992 -0.817341 -5.45915 0
M  V30 3016 H 294.468 0.56986 -4.12179 0
M  V30 3017 H 293.344 1.18921 -5.35863 0
M  V30 3018 H 293.605 2.10939 -3.88532 0
M  V30 3019 N 292.664 1.56529 -0.183458 0
M  V30 3020 C 293.596 2.15747 0.773697 0
M  V30 3021 C 294.609 1.1162 1.1851 0
M  V30 3022 O 295.798 1.3876 1.12285 0
M  V30 3023 C 292.898 2.6952 2.05456 0
M  V30 3024 C 292.071 3.98429 1.8048 0
M  V30 3025 C 291.13 4.37145 2.92901 0
M  V30 3026 O 290.156 5.04791 2.6301 0
M  V30 3027 N 291.358 3.99695 4.2098 0
M  V30 3028 H 294.123 2.98505 0.26736 0
M  V30 3029 H 291.684 1.619 -0.0010878 0
M  V30 3030 H 293.676 2.92412 2.79781 0
M  V30 3031 H 292.246 1.91282 2.47245 0
M  V30 3032 H 291.466 3.8379 0.899947 0
M  V30 3033 H 292.754 4.82597 1.61175 0
M  V30 3034 H 292.152 3.4526 4.48121 0
M  V30 3035 H 290.709 4.27562 4.9197 0
M  V30 3036 N 294.142 -0.090211 1.57342 0
M  V30 3037 C 295.367 -0.810082 1.90925 0
M  V30 3038 C 295.792 -1.71248 0.778187 0
M  V30 3039 O 295.15 -1.79278 -0.269991 0
M  V30 3040 C 295.198 -1.59529 3.23393 0
M  V30 3041 O 294.302 -2.70461 3.11327 0
M  V30 3042 H 293.643 -0.222231 0.625707 0
M  V30 3043 H 296.173 -0.0639716 2.045 0
M  V30 3044 H 296.183 -1.97847 3.5682 0
M  V30 3045 H 294.858 -0.933055 4.05299 0
M  V30 3046 H 293.435 -2.35135 2.89423 0
M  V30 3047 N 295.62 -1.53406 -0.361157 0
M  V30 3048 C 296.568 -1.80832 -1.46296 0
M  V30 3049 C 297.562 -0.677699 -1.55253 0
M  V30 3050 O 298.768 -0.860723 -1.58087 0
M  V30 3051 H 295.143 -0.572627 -0.487445 0
M  V30 3052 H 297.114 -2.73045 -1.20371 0
M  V30 3053 C 295.863 -2.01907 -2.8307 0
M  V30 3054 H 295.186 -2.88349 -2.76938 0
M  V30 3055 H 296.626 -2.25072 -3.59331 0
M  V30 3056 C 295.085 -0.799449 -3.27277 0
M  V30 3057 O 295.615 0.00971761 -4.01699 0
M  V30 3058 N 293.821 -0.621637 -2.83873 0
M  V30 3059 H 293.368 -1.28126 -2.23476 0
M  V30 3060 H 293.326 0.19298 -3.13807 0
M  V30 3061 N 297.098 0.621204 -1.44841 0
M  V30 3062 C 298.514 0.94048 -1.28946 0
M  V30 3063 C 298.714 2.00154 -0.23249 0
M  V30 3064 O 297.77 2.49651 0.378237 0
M  V30 3065 C 299.083 1.39433 -2.66419 0
M  V30 3066 C 300.631 1.50927 -2.74208 0
M  V30 3067 C 301.106 1.99692 -4.12174 0
M  V30 3068 N 302.597 2.06947 -4.144 0
M  V30 3069 C 303.332 2.45871 -5.1801 0
M  V30 3070 N 302.828 2.83862 -6.31977 0
M  V30 3071 N 304.621 2.46092 -5.05366 0
M  V30 3072 H 296.772 -0.0803548 -2.12248 0
M  V30 3073 H 299.035 0.0266913 -0.947624 0
M  V30 3074 H 298.741 0.688925 -3.44887 0
M  V30 3075 H 298.615 2.36347 -2.93973 0
M  V30 3076 H 301.002 2.20561 -1.96053 0
M  V30 3077 H 301.083 0.523627 -2.50383 0
M  V30 3078 H 300.727 1.30649 -4.90809 0
M  V30 3079 H 300.657 2.99146 -4.33381 0
M  V30 3080 H 303.148 1.80232 -3.32152 0
M  V30 3081 H 303.461 3.12405 -7.0684 0
M  V30 3082 H 301.806 2.8159 -6.35399 0
M  V30 3083 H 304.997 2.1581 -4.15384 0
M  V30 3084 H 305.17 2.76102 -5.86235 0
M  V30 3085 N 298.576 1.31904 0.862503 0
M  V30 3086 C 299.822 1.22197 1.61851 0
M  V30 3087 C 300.155 -0.217641 1.92977 0
M  V30 3088 O 299.43 -1.15264 1.56666 0
M  V30 3089 C 299.713 2.07378 2.94391 0
M  V30 3090 C 299.566 3.59678 2.70096 0
M  V30 3091 C 300.885 1.92891 3.95577 0
M  V30 3092 H 298.004 0.445255 0.587296 0
M  V30 3093 H 300.646 1.6177 0.99651 0
M  V30 3094 H 298.796 1.73758 3.47477 0
M  V30 3095 H 300.468 4.03472 2.23625 0
M  V30 3096 H 298.711 3.82735 2.04197 0
M  V30 3097 H 299.382 4.14595 3.64438 0
M  V30 3098 H 301.858 2.22327 3.51724 0
M  V30 3099 H 300.734 2.54781 4.86187 0
M  V30 3100 H 300.995 0.894315 4.3296 0
M  V30 3101 N 300.054 -1.07777 1.14986 0
M  V30 3102 C 301.004 -2.13082 0.811181 0
M  V30 3103 C 301.988 -1.59619 -0.202597 0
M  V30 3104 O 303.18 -1.77 -0.00398275 0
M  V30 3105 C 300.309 -3.42009 0.297439 0
M  V30 3106 C 299.395 -4.02337 1.34112 0
M  V30 3107 N 299.786 -4.36982 2.54716 0
M  V30 3108 C 298.084 -4.29752 1.19285 0
M  V30 3109 C 298.785 -4.84729 3.21578 0
M  V30 3110 N 297.761 -4.83233 2.48972 0
M  V30 3111 H 301.563 -2.37696 1.72853 0
M  V30 3112 H 299.077 -1.25173 1.03468 0
M  V30 3113 H 301.074 -4.16884 0.0364777 0
M  V30 3114 H 299.734 -3.18841 -0.614022 0
M  V30 3115 H 300.745 -4.27807 2.91894 0
M  V30 3116 H 297.422 -4.16106 0.340926 0
M  V30 3117 H 298.812 -5.20863 4.24442 0
M  V30 3118 N 301.532 -0.945985 -1.26051 0
M  V30 3119 C 302.778 -0.597002 -1.93814 0
M  V30 3120 C 303.111 0.862484 -1.73997 0
M  V30 3121 O 302.386 1.61769 -1.07986 0
M  V30 3122 C 302.669 -0.945937 -3.47454 0
M  V30 3123 C 302.522 -2.46052 -3.76535 0
M  V30 3124 C 303.841 -0.464785 -4.37639 0
M  V30 3125 H 300.96 -0.218366 -0.703907 0
M  V30 3126 H 303.602 -1.18107 -1.48831 0
M  V30 3127 H 301.752 -0.448902 -3.85898 0
M  V30 3128 H 303.424 -3.03065 -3.47778 0
M  V30 3129 H 301.667 -2.90194 -3.22444 0
M  V30 3130 H 302.338 -2.65517 -4.83947 0
M  V30 3131 H 304.814 -0.891016 -4.06448 0
M  V30 3132 H 303.69 -0.737712 -5.4392 0
M  V30 3133 H 303.951 0.635274 -4.37512 0
M  V30 3134 N 303.011 1.40521 -0.713556 0
M  V30 3135 C 303.959 2.32549 -0.0485227 0
M  V30 3136 C 304.953 1.51931 0.74922 0
M  V30 3137 O 306.159 1.67745 0.652816 0
M  V30 3138 H 302.534 0.751994 0.00311138 0
M  V30 3139 H 304.505 2.86291 -0.841443 0
M  V30 3140 C 303.254 3.36879 0.860687 0
M  V30 3141 H 302.577 3.98978 0.256246 0
M  V30 3142 H 304.017 4.03772 1.294 0
M  V30 3143 C 302.476 2.72197 1.9852 0
M  V30 3144 O 303.006 2.5837 3.07584 0
M  V30 3145 N 301.212 2.30612 1.76823 0
M  V30 3146 H 300.759 2.42059 0.881217 0
M  V30 3147 H 300.717 1.87672 2.52243 0
M  V30 3148 N 304.489 0.459591 1.5075 0
M  V30 3149 C 305.452 -0.329093 2.26825 0
M  V30 3150 C 306.452 -0.930481 1.31144 0
M  V30 3151 O 307.642 -0.801453 1.54669 0
M  V30 3152 C 304.774 -1.46768 3.07688 0
M  V30 3153 H 305.967 0.337924 2.9799 0
M  V30 3154 H 303.52 0.213336 1.54837 0
M  V30 3155 H 304.255 -2.17009 2.40993 0
M  V30 3156 H 304.04 -1.04238 3.77991 0
M  V30 3157 H 305.53 -2.02433 3.65254 0
M  V30 3158 N 305.967 -1.56429 0.191757 0
M  V30 3159 C 306.897 -2.21937 -0.725696 0
M  V30 3160 C 307.878 -1.1814 -1.2238 0
M  V30 3161 O 309.063 -1.46636 -1.27325 0
M  V30 3162 C 306.193 -2.87611 -1.94672 0
M  V30 3163 C 305.147 -3.97623 -1.58366 0
M  V30 3164 C 304.473 -4.50446 -2.88102 0
M  V30 3165 C 305.773 -5.16197 -0.796133 0
M  V30 3166 H 307.467 -2.98861 -0.179606 0
M  V30 3167 H 305.013 -1.43749 -0.0849464 0
M  V30 3168 H 306.966 -3.3212 -2.59373 0
M  V30 3169 H 305.69 -2.08087 -2.51728 0
M  V30 3170 H 304.349 -3.53801 -0.960247 0
M  V30 3171 H 303.997 -3.67688 -3.43241 0
M  V30 3172 H 303.697 -5.24675 -2.64556 0
M  V30 3173 H 305.221 -4.97654 -3.53798 0
M  V30 3174 H 306.635 -5.57271 -1.34618 0
M  V30 3175 H 305.032 -5.96471 -0.658928 0
M  V30 3176 H 306.102 -4.84473 0.203478 0
M  V30 3177 N 307.445 0.0818655 -1.57387 0
M  V30 3178 C 308.67 0.799946 -1.91352 0
M  V30 3179 C 309.095 1.70833 -0.787258 0
M  V30 3180 O 308.453 1.79419 0.26048 0
M  V30 3181 C 308.501 1.57812 -3.24234 0
M  V30 3182 O 307.605 2.68806 -3.12757 0
M  V30 3183 H 306.946 0.21891 -0.626877 0
M  V30 3184 H 309.476 0.0531256 -2.04531 0
M  V30 3185 H 309.486 1.95952 -3.57864 0
M  V30 3186 H 308.161 0.911548 -4.05788 0
M  V30 3187 H 306.738 2.33597 -2.90666 0
M  V30 3188 N 308.923 1.53595 0.353017 0
M  V30 3189 C 310.148 1.7462 1.11904 0
M  V30 3190 C 310.573 0.479721 1.8188 0
M  V30 3191 O 309.931 -0.567066 1.72204 0
M  V30 3192 C 309.979 2.92029 2.11545 0
M  V30 3193 O 309.083 2.61516 3.18878 0
M  V30 3194 H 308.424 0.579531 0.324099 0
M  V30 3195 H 310.954 2.00525 0.406301 0
M  V30 3196 H 310.964 3.18551 2.5493 0
M  V30 3197 H 309.639 3.83888 1.60008 0
M  V30 3198 H 308.216 2.45852 2.80377 0
M  V30 3199 N 310.401 -0.613514 1.45168 0
M  V30 3200 C 311.678 -1.37263 1.39349 0
M  V30 3201 C 312.058 -2.11012 0.0610848 0
M  V30 3202 O 311.406 -2.07502 -0.956825 0
M  V30 3203 C 311.616 -2.3244 2.60332 0
M  V30 3204 C 312.964 -2.9523 3.05163 0
M  V30 3205 O 313.988 -2.42762 2.60663 0
M  V30 3206 O 312.847 -3.90454 3.82372 0
M  V30 3207 H 309.941 -0.615188 0.552696 0
M  V30 3208 H 312.487 -0.637097 1.57287 0
M  V30 3209 H 311.259 -1.77164 3.48896 0
M  V30 3210 H 310.882 -3.13383 2.44698 0
M  V30 3211 N 311.879 -1.3236 -0.855495 0
M  V30 3212 C 312.809 -1.23833 -1.97958 0
M  V30 3213 C 313.79 -0.122361 -1.69659 0
M  V30 3214 O 314.975 -0.30939 -1.9172 0
M  V30 3215 C 312.105 -0.959772 -3.33775 0
M  V30 3216 C 311.059 -2.03689 -3.76424 0
M  V30 3217 C 310.385 -1.61075 -5.09862 0
M  V30 3218 C 311.685 -3.4518 -3.9198 0
M  V30 3219 H 313.379 -2.1788 -2.0535 0
M  V30 3220 H 310.925 -1.04891 -0.986605 0
M  V30 3221 H 312.878 -0.886678 -4.11966 0
M  V30 3222 H 311.602 0.0163404 -3.26596 0
M  V30 3223 H 310.261 -2.10012 -3.00484 0
M  V30 3224 H 309.909 -0.622107 -4.99138 0
M  V30 3225 H 309.609 -2.33143 -5.39368 0
M  V30 3226 H 311.133 -1.55201 -5.90546 0
M  V30 3227 H 312.547 -3.4145 -4.60526 0
M  V30 3228 H 310.944 -4.1559 -4.32903 0
M  V30 3229 H 312.014 -3.84903 -2.94919 0
M  V30 3230 N 313.357 1.07166 -1.15556 0
M  V30 3231 C 314.604 1.79798 -0.931604 0
M  V30 3232 C 314.932 1.8682 0.54115 0
M  V30 3233 O 314.187 1.34942 1.41736 0
M  V30 3234 C 314.486 3.24707 -1.49332 0
M  V30 3235 C 314.152 3.37781 -2.98688 0
M  V30 3236 C 312.814 3.41057 -3.39461 0
M  V30 3237 C 315.166 3.40424 -3.94665 0
M  V30 3238 C 312.494 3.4458 -4.74849 0
M  V30 3239 C 314.846 3.45485 -5.29927 0
M  V30 3240 C 313.51 3.47039 -5.70193 0
M  V30 3241 H 312.78 0.657928 -0.340898 0
M  V30 3242 H 315.427 1.26091 -1.44129 0
M  V30 3243 H 313.732 3.81208 -0.904859 0
M  V30 3244 H 315.429 3.79486 -1.29582 0
M  V30 3245 H 312.019 3.35932 -2.66172 0
M  V30 3246 H 316.203 3.37113 -3.64237 0
M  V30 3247 H 311.459 3.44083 -5.05388 0
M  V30 3248 H 315.633 3.46476 -6.04092 0
M  V30 3249 H 313.26 3.49522 -6.75084 0
M  V30 3250 N 314.835 0.952656 1.25548 0
M  V30 3251 C 315.798 0.475794 2.24207 0
M  V30 3252 C 316.798 -0.419428 1.55234 0
M  V30 3253 O 317.988 -0.216994 1.72843 0
M  V30 3254 C 315.12 -0.312814 3.39462 0
M  V30 3255 H 316.313 1.34779 2.67908 0
M  V30 3256 H 313.866 0.735739 1.37901 0
M  V30 3257 H 314.601 -1.20257 3.01179 0
M  V30 3258 H 314.386 0.329404 3.90714 0
M  V30 3259 H 315.876 -0.635986 4.12729 0
M  V30 3260 N 316.313 -1.40141 0.720998 0
M  V30 3261 C 317.561 -2.0039 0.262323 0
M  V30 3262 C 317.882 -1.57469 -1.15015 0
M  V30 3263 O 317.152 -0.816582 -1.78069 0
M  V30 3264 H 315.732 -0.741063 0.093996 0
M  V30 3265 H 318.394 -1.71398 0.927835 0
M  V30 3266 H 317.49 -3.10658 0.299671 0
M  V30 3267 N 317.792 -0.46758 -1.50504 0
M  V30 3268 C 319.041 0.0902868 -2.01498 0
M  V30 3269 C 319.354 1.411 -1.35463 0
M  V30 3270 O 320.56 2.0536 -1.77594 0
M  V30 3271 C 319.016 0.21142 -3.59278 0
M  V30 3272 C 318.624 -1.10065 -4.34269 0
M  V30 3273 C 320.368 0.721433 -4.18325 0
M  V30 3274 C 318.275 -0.943505 -5.83825 0
M  V30 3275 H 317.205 0.037517 -0.753066 0
M  V30 3276 H 319.856 -0.601943 -1.73346 0
M  V30 3277 H 318.238 0.967352 -3.84003 0
M  V30 3278 H 319.412 -1.86726 -4.21272 0
M  V30 3279 H 317.727 -1.5415 -3.86816 0
M  V30 3280 H 320.324 0.85598 -5.27804 0
M  V30 3281 H 320.667 1.71186 -3.79475 0
M  V30 3282 H 321.2 0.0229843 -3.97793 0
M  V30 3283 H 317.939 -1.90719 -6.27141 0
M  V30 3284 H 317.459 -0.217213 -5.99407 0
M  V30 3285 H 319.138 -0.608715 -6.4413 0
M  V30 3286 N 319.27 1.56325 -0.20005 0
M  V30 3287 C 320.681 1.8408 0.31167 0
M  V30 3288 C 321.032 1.12087 1.61031 0
M  V30 3289 O 320.157 0.38332 2.12978 0
M  V30 3290 C 320.752 3.33932 0.57226 0
M  V30 3291 C 319.311 3.6208 1.02834 0
M  V30 3292 C 318.458 2.77186 0.079634 0
M  V30 3293 H 321.409 1.52939 -0.423729 0
M  V30 3294 H 321.43 3.52971 1.42096 0
M  V30 3295 H 320.942 3.86303 -0.37308 0
M  V30 3296 H 319.043 3.15147 1.98778 0
M  V30 3297 H 319.156 4.7023 0.917624 0
M  V30 3298 H 317.52 2.47951 0.582448 0
M  V30 3299 H 318.303 3.32347 -0.860238 0
M  V30 3300 N 320.748 -0.0735177 1.57428 0
M  V30 3301 C 321.976 -0.785969 1.9139 0
M  V30 3302 C 322.391 -1.71207 0.795847 0
M  V30 3303 O 321.748 -1.81033 -0.230915 0
M  V30 3304 C 321.799 -1.58107 3.25091 0
M  V30 3305 O 321.52 -0.6922 4.32597 0
M  V30 3306 C 323.021 -2.39467 3.73055 0
M  V30 3307 H 320.241 -0.223558 0.632663 0
M  V30 3308 H 322.785 -0.044302 2.04452 0
M  V30 3309 H 320.94 -2.27503 3.13562 0
M  V30 3310 H 321.354 -1.24504 5.09508 0
M  V30 3311 H 322.828 -2.90716 4.69242 0
M  V30 3312 H 323.305 -3.18913 3.01979 0
M  V30 3313 H 323.911 -1.7523 3.87523 0
M  V30 3314 N 322.226 -1.5378 -0.344866 0
M  V30 3315 C 323.475 -1.7018 -1.08267 0
M  V30 3316 C 323.788 -0.471 -1.89845 0
M  V30 3317 O 324.994 -0.515917 -2.66553 0
M  V30 3318 C 323.45 -3.00923 -1.97417 0
M  V30 3319 C 323.058 -4.31335 -1.21053 0
M  V30 3320 C 324.802 -3.26688 -2.71063 0
M  V30 3321 C 322.709 -5.53153 -2.09225 0
M  V30 3322 H 321.639 -0.634138 -0.407903 0
M  V30 3323 H 324.29 -1.8028 -0.342246 0
M  V30 3324 H 322.672 -2.84676 -2.75274 0
M  V30 3325 H 323.846 -4.58281 -0.481159 0
M  V30 3326 H 322.161 -4.12173 -0.591813 0
M  V30 3327 H 324.758 -4.1489 -3.37299 0
M  V30 3328 H 325.101 -2.43639 -3.37558 0
M  V30 3329 H 325.634 -3.43705 -2.0028 0
M  V30 3330 H 322.373 -6.38741 -1.47274 0
M  V30 3331 H 321.893 -5.30458 -2.79955 0
M  V30 3332 H 323.572 -5.88744 -2.68308 0
M  V30 3333 N 323.704 0.605807 -1.45491 0
M  V30 3334 C 324.651 1.7164 -1.54299 0
M  V30 3335 C 325.621 1.61486 -0.388761 0
M  V30 3336 O 326.806 1.81039 -0.602445 0
M  V30 3337 C 323.946 3.09953 -1.51734 0
M  V30 3338 C 323.059 3.309 -2.77721 0
M  V30 3339 C 322.194 4.59329 -2.66816 0
M  V30 3340 C 321.233 4.7354 -3.87848 0
M  V30 3341 N 320.37 5.9327 -3.75467 0
M  V30 3342 H 325.21 1.63449 -2.49176 0
M  V30 3343 H 322.747 0.796957 -1.23641 0
M  V30 3344 H 324.705 3.89977 -1.48235 0
M  V30 3345 H 323.335 3.17098 -0.604068 0
M  V30 3346 H 322.387 2.44639 -2.913 0
M  V30 3347 H 323.699 3.37274 -3.67488 0
M  V30 3348 H 322.853 5.4755 -2.61292 0
M  V30 3349 H 321.592 4.55355 -1.74651 0
M  V30 3350 H 320.597 3.83741 -3.93729 0
M  V30 3351 H 321.822 4.79309 -4.81082 0
M  V30 3352 H 319.768 5.90338 -2.86072 0
M  V30 3353 H 319.685 6.00811 -4.5887 0
M  V30 3354 H 320.953 6.83984 -3.73879 0
M  V30 3355 N 325.182 1.32811 0.848464 0
M  V30 3356 C 326.407 1.26882 1.6406 0
M  V30 3357 C 326.832 -0.15913 1.87426 0
M  V30 3358 O 326.19 -1.11258 1.43148 0
M  V30 3359 C 326.238 2.03997 2.97351 0
M  V30 3360 O 325.342 1.39201 3.88197 0
M  V30 3361 H 324.683 0.436982 0.499943 0
M  V30 3362 H 327.213 1.75224 1.0563 0
M  V30 3363 H 327.223 2.14403 3.47124 0
M  V30 3364 H 325.898 3.0783 2.79666 0
M  V30 3365 H 324.475 1.37381 3.46671 0
M  V30 3366 N 326.66 -1.06551 1.16123 0
M  V30 3367 C 328.071 -1.60768 0.949232 0
M  V30 3368 C 328.422 -1.89523 -0.507508 0
M  V30 3369 O 327.547 -1.66671 -1.38021 0
M  V30 3370 C 328.142 -2.92086 1.71671 0
M  V30 3371 C 326.701 -3.43015 1.54977 0
M  V30 3372 C 325.848 -2.16947 1.72711 0
M  V30 3373 H 328.799 -0.895354 1.31031 0
M  V30 3374 H 328.82 -3.6138 1.19099 0
M  V30 3375 H 328.332 -2.71127 2.7769 0
M  V30 3376 H 326.433 -3.69039 0.513873 0
M  V30 3377 H 326.546 -4.18516 2.33198 0
M  V30 3378 H 324.91 -2.27041 1.15431 0
M  V30 3379 H 325.693 -1.98473 2.80113 0
M  V30 3380 N 328.138 -0.959301 -1.25041 0
M  V30 3381 C 329.366 -0.633949 -1.96948 0
M  V30 3382 C 329.781 0.794916 -1.7125 0
M  V30 3383 O 329.138 1.53231 -0.991287 0
M  V30 3384 C 329.189 -0.888805 -3.50403 0
M  V30 3385 O 328.91 -2.26149 -3.75218 0
M  V30 3386 C 330.411 -0.576482 -4.39536 0
M  V30 3387 H 327.631 -0.237263 -0.627652 0
M  V30 3388 H 330.175 -1.28495 -1.59089 0
M  V30 3389 H 328.33 -0.284145 -3.86357 0
M  V30 3390 H 328.744 -2.33514 -4.6965 0
M  V30 3391 H 330.218 -0.805314 -5.46094 0
M  V30 3392 H 330.695 0.489075 -4.36468 0
M  V30 3393 H 331.301 -1.16067 -4.09156 0
M  V30 3394 N 329.616 1.39756 -0.72842 0
M  V30 3395 C 330.526 2.34444 -0.0855374 0
M  V30 3396 C 331.542 1.57976 0.729356 0
M  V30 3397 O 332.718 1.90301 0.659346 0
M  V30 3398 C 329.783 3.36965 0.815798 0
M  V30 3399 C 328.844 4.29299 -0.0105996 0
M  V30 3400 C 328.077 5.26923 0.84781 0
M  V30 3401 O 328.3 5.30859 2.08673 0
M  V30 3402 O 327.234 6.01249 0.279969 0
M  V30 3403 H 331.06 2.91065 -0.866892 0
M  V30 3404 H 328.645 1.4117 -0.48902 0
M  V30 3405 H 330.527 3.99804 1.33171 0
M  V30 3406 H 329.202 2.82739 1.57608 0
M  V30 3407 H 328.109 3.69703 -0.571877 0
M  V30 3408 H 329.442 4.86712 -0.73295 0
M  V30 3409 N 331.094 0.475555 1.50254 0
M  V30 3410 C 332.34 -0.0780073 2.0265 0
M  V30 3411 C 332.673 -1.38968 1.35652 0
M  V30 3412 O 331.948 -1.8839 0.483691 0
M  V30 3413 C 332.231 -0.257161 3.59181 0
M  V30 3414 C 332.084 1.07585 4.36744 0
M  V30 3415 C 333.403 -1.00965 4.28362 0
M  V30 3416 H 330.522 -0.0268758 0.73651 0
M  V30 3417 H 333.164 0.622015 1.7953 0
M  V30 3418 H 331.314 -0.853412 3.79011 0
M  V30 3419 H 332.986 1.70902 4.28474 0
M  V30 3420 H 331.229 1.6714 4.00308 0
M  V30 3421 H 331.9 0.904088 5.44546 0
M  V30 3422 H 334.376 -0.504214 4.13034 0
M  V30 3423 H 333.252 -1.10381 5.37687 0
M  V30 3424 H 333.513 -2.04731 3.91839 0
M  V30 3425 N 332.573 -1.56217 0.208337 0
M  V30 3426 C 333.801 -2.02337 -0.43215 0
M  V30 3427 C 334.216 -1.08834 -1.54275 0
M  V30 3428 O 333.573 -0.0955462 -1.8225 0
M  V30 3429 C 333.624 -3.48072 -0.976138 0
M  V30 3430 O 333.345 -4.38007 0.0901621 0
M  V30 3431 C 334.846 -4.09773 -1.69119 0
M  V30 3432 H 332.066 -0.662385 -0.10718 0
M  V30 3433 H 334.61 -2.01966 0.320923 0
M  V30 3434 H 332.765 -3.49099 -1.67954 0
M  V30 3435 H 333.179 -5.23543 -0.316701 0
M  V30 3436 H 334.653 -5.13556 -2.02397 0
M  V30 3437 H 335.13 -3.53999 -2.59964 0
M  V30 3438 H 335.736 -4.12556 -1.03332 0
M  V30 3439 N 334.051 0.0651679 -1.57465 0
M  V30 3440 C 334.981 1.07693 -2.07182 0
M  V30 3441 C 335.962 1.39962 -0.966673 0
M  V30 3442 O 337.147 1.49475 -1.2398 0
M  V30 3443 C 334.277 2.3885 -2.52127 0
M  V30 3444 C 333.231 2.20917 -3.66579 0
M  V30 3445 C 332.557 3.57515 -3.97601 0
M  V30 3446 C 333.857 1.62493 -4.9638 0
M  V30 3447 H 335.551 0.663199 -2.91962 0
M  V30 3448 H 333.097 0.317569 -1.40455 0
M  V30 3449 H 335.05 3.09928 -2.85522 0
M  V30 3450 H 333.774 2.82215 -1.64384 0
M  V30 3451 H 332.433 1.52279 -3.33477 0
M  V30 3452 H 332.081 3.98463 -3.06979 0
M  V30 3453 H 331.781 3.46353 -4.74672 0
M  V30 3454 H 333.305 4.30013 -4.33499 0
M  V30 3455 H 334.719 2.23445 -5.27963 0
M  V30 3456 H 333.116 1.62009 -5.77818 0
M  V30 3457 H 334.186 0.587041 -4.81333 0
M  V30 3458 N 335.529 1.53961 0.336706 0
M  V30 3459 C 336.459 1.85417 1.41925 0
M  V30 3460 C 337.44 0.709856 1.5458 0
M  V30 3461 O 338.625 0.962396 1.68676 0
M  V30 3462 C 335.755 2.06985 2.78881 0
M  V30 3463 C 334.709 3.22813 2.81026 0
M  V30 3464 C 334.035 3.29727 4.20932 0
M  V30 3465 C 335.335 4.60767 2.45949 0
M  V30 3466 H 337.029 2.76079 1.15848 0
M  V30 3467 H 334.575 1.32839 0.555859 0
M  V30 3468 H 336.528 2.27575 3.54665 0
M  V30 3469 H 335.252 1.13061 3.06406 0
M  V30 3470 H 333.911 3.0209 2.07695 0
M  V30 3471 H 333.559 2.33385 4.45579 0
M  V30 3472 H 333.259 4.07566 4.23277 0
M  V30 3473 H 334.783 3.52536 4.98549 0
M  V30 3474 H 336.197 4.81325 3.11446 0
M  V30 3475 H 334.594 5.4106 2.59566 0
M  V30 3476 H 335.664 4.6391 1.41122 0
M  V30 3477 N 337.007 -0.598083 1.45811 0
M  V30 3478 C 337.917 -1.73632 1.57763 0
M  V30 3479 C 338.933 -1.67763 0.461676 0
M  V30 3480 O 340.109 -1.87949 0.723685 0
M  V30 3481 C 337.174 -3.10114 1.55018 0
M  V30 3482 C 336.235 -3.27364 2.77726 0
M  V30 3483 C 335.468 -4.57334 2.75102 0
M  V30 3484 O 335.691 -5.40258 1.8297 0
M  V30 3485 O 334.625 -4.77502 3.66437 0
M  V30 3486 H 338.451 -1.66498 2.53992 0
M  V30 3487 H 336.036 -0.763308 1.28429 0
M  V30 3488 H 337.918 -3.9141 1.56129 0
M  V30 3489 H 336.593 -3.17718 0.619431 0
M  V30 3490 H 335.5 -2.45619 2.82174 0
M  V30 3491 H 336.833 -3.24641 3.69958 0
M  V30 3492 N 338.485 -1.33259 -0.841409 0
M  V30 3493 C 339.395 -1.25332 -1.98316 0
M  V30 3494 C 340.411 -0.164364 -1.73222 0
M  V30 3495 O 341.587 -0.387486 -1.97637 0
M  V30 3496 C 338.652 -0.990078 -3.32262 0
M  V30 3497 C 337.713 -2.16879 -3.70489 0
M  V30 3498 C 336.946 -1.91801 -4.98044 0
M  V30 3499 O 337.169 -0.867075 -5.63771 0
M  V30 3500 O 336.103 -2.78267 -5.33714 0
M  V30 3501 H 339.929 -2.21344 -2.07944 0
M  V30 3502 H 337.514 -1.1328 -0.974058 0
M  V30 3503 H 339.396 -0.860321 -4.12524 0
M  V30 3504 H 338.071 -0.0602155 -3.23644 0
M  V30 3505 H 336.978 -2.35407 -2.90748 0
M  V30 3506 H 338.311 -3.0819 -3.8377 0
M  V30 3507 N 339.963 1.05934 -1.16686 0
M  V30 3508 C 341.24 1.75643 -0.860747 0
M  V30 3509 C 341.62 2.01144 0.640641 0
M  V30 3510 O 340.968 1.64147 1.58959 0
M  V30 3511 C 341.178 3.05493 -1.68745 0
M  V30 3512 C 342.526 3.79581 -1.90271 0
M  V30 3513 O 343.55 3.15344 -1.65641 0
M  V30 3514 O 342.409 4.9499 -2.31618 0
M  V30 3515 H 339.503 0.763426 -0.317977 0
M  V30 3516 H 342.049 1.1217 -1.27342 0
M  V30 3517 H 340.821 2.8264 -2.70611 0
M  V30 3518 H 340.444 3.76702 -1.27206 0
M  V30 3519 N 341.441 0.965919 1.2453 0
M  V30 3520 C 342.388 0.49402 2.25451 0
M  V30 3521 C 343.358 -0.45948 1.59618 0
M  V30 3522 O 344.543 -0.370238 1.87173 0
M  V30 3523 C 341.683 -0.211359 3.44452 0
M  V30 3524 C 340.796 0.7807 4.24887 0
M  V30 3525 C 339.931 0.0516105 5.31175 0
M  V30 3526 C 338.97 1.03385 6.03306 0
M  V30 3527 N 338.107 0.334887 7.01301 0
M  V30 3528 H 342.947 1.35946 2.65184 0
M  V30 3529 H 340.484 0.681515 1.3036 0
M  V30 3530 H 342.442 -0.637 4.12308 0
M  V30 3531 H 341.072 -1.04077 3.05562 0
M  V30 3532 H 340.124 1.32479 3.56586 0
M  V30 3533 H 341.436 1.52978 4.74762 0
M  V30 3534 H 340.59 -0.432114 6.05159 0
M  V30 3535 H 339.329 -0.730179 4.82203 0
M  V30 3536 H 338.334 1.52847 5.28127 0
M  V30 3537 H 339.559 1.81606 6.54367 0
M  V30 3538 H 337.505 -0.427959 6.54603 0
M  V30 3539 H 337.422 1.02287 7.49048 0
M  V30 3540 H 338.69 -0.126928 7.79397 0
M  V30 3541 N 342.919 -1.39368 0.735821 0
M  V30 3542 C 344.168 -1.99733 0.281004 0
M  V30 3543 C 344.481 -1.59055 -1.13846 0
M  V30 3544 O 345.687 -2.12262 -1.69284 0
M  V30 3545 C 344.143 -3.57057 0.451462 0
M  V30 3546 C 343.751 -4.06697 1.87886 0
M  V30 3547 C 345.495 -4.2446 0.0584616 0
M  V30 3548 C 343.402 -5.56598 1.99883 0
M  V30 3549 H 342.332 -0.747163 0.101311 0
M  V30 3550 H 344.983 -1.59357 0.909819 0
M  V30 3551 H 343.365 -3.95234 -0.246263 0
M  V30 3552 H 344.539 -3.79853 2.60861 0
M  V30 3553 H 342.854 -3.5196 2.22515 0
M  V30 3554 H 345.451 -5.34549 0.127099 0
M  V30 3555 H 345.794 -4.04444 -0.986433 0
M  V30 3556 H 346.327 -3.9146 0.707374 0
M  V30 3557 H 343.066 -5.81494 3.02564 0
M  V30 3558 H 342.586 -5.85242 1.31346 0
M  V30 3559 H 344.265 -6.22022 1.78039 0
M  V30 3560 N 344.397 -0.483516 -1.5 0
M  V30 3561 C 345.637 0.0657469 -2.04294 0
M  V30 3562 C 346.001 1.35869 -1.35659 0
M  V30 3563 O 347.202 1.99111 -1.80578 0
M  V30 3564 C 345.473 0.232758 -3.56641 0
M  V30 3565 S 347.032 0.738788 -4.32536 0
M  V30 3566 H 343.85 0.0100755 -0.710929 0
M  V30 3567 H 346.452 -0.653494 -1.84254 0
M  V30 3568 H 345.156 -0.713847 -4.04144 0
M  V30 3569 H 344.687 0.977751 -3.81056 0
M  V30 3570 H 346.702 2.01048 -4.53645 0
M  V30 3571 N 345.875 1.56104 -0.216619 0
M  V30 3572 C 347.123 1.97781 0.415593 0
M  V30 3573 C 347.444 1.10536 1.60645 0
M  V30 3574 O 346.714 0.181303 1.95059 0
M  V30 3575 H 345.294 0.730415 0.156534 0
M  V30 3576 H 347.956 1.92445 -0.308366 0
M  V30 3577 H 347.052 3.03072 0.74525 0
M  V30 3578 N 347.353 -0.0568162 1.57498 0
M  V30 3579 C 348.583 -0.764515 1.91934 0
M  V30 3580 C 348.991 -1.70877 0.81227 0
M  V30 3581 O 348.334 -1.82351 -0.222213 0
M  V30 3582 C 348.396 -1.5994 3.21962 0
M  V30 3583 C 348.06 -0.822925 4.4953 0
M  V30 3584 C 349.057 -0.135464 5.19723 0
M  V30 3585 C 346.742 -0.785666 4.96117 0
M  V30 3586 C 348.736 0.578861 6.34766 0
M  V30 3587 C 346.423 -0.0675784 6.11063 0
M  V30 3588 C 347.421 0.613471 6.80239 0
M  V30 3589 O 347.109 1.31996 7.92989 0
M  V30 3590 H 346.841 -0.221647 0.63863 0
M  V30 3591 H 349.395 -0.0268218 2.05382 0
M  V30 3592 H 347.625 -2.38026 3.04763 0
M  V30 3593 H 349.314 -2.18715 3.41934 0
M  V30 3594 H 350.08 -0.155458 4.84751 0
M  V30 3595 H 345.959 -1.30524 4.42136 0
M  V30 3596 H 349.503 1.111 6.88696 0
M  V30 3597 H 345.4 -0.0455636 6.45484 0
M  V30 3598 H 346.168 1.23077 8.09194 0
M  V30 3599 N 348.832 -1.54138 -0.328536 0
M  V30 3600 C 350.078 -1.7236 -1.06865 0
M  V30 3601 C 350.411 -0.493231 -1.87832 0
M  V30 3602 O 349.686 0.5098 -1.877 0
M  V30 3603 C 349.969 -2.99621 -1.99747 0
M  V30 3604 C 349.822 -4.32899 -1.22143 0
M  V30 3605 C 351.141 -3.22615 -2.99345 0
M  V30 3606 H 348.26 -0.627151 -0.387105 0
M  V30 3607 H 350.902 -1.86827 -0.345767 0
M  V30 3608 H 349.052 -2.87418 -2.61387 0
M  V30 3609 H 350.724 -4.56978 -0.630017 0
M  V30 3610 H 348.967 -4.30628 -0.523628 0
M  V30 3611 H 349.638 -5.18154 -1.90318 0
M  V30 3612 H 352.114 -3.34248 -2.47826 0
M  V30 3613 H 350.99 -4.13027 -3.61524 0
M  V30 3614 H 351.251 -2.3961 -3.71536 0
M  V30 3615 N 350.31 0.590341 -1.46126 0
M  V30 3616 C 351.273 1.68194 -1.55703 0
M  V30 3617 C 352.273 1.54808 -0.434868 0
M  V30 3618 O 353.463 1.59564 -0.698928 0
M  V30 3619 C 350.595 3.07575 -1.47005 0
M  V30 3620 H 351.788 1.61064 -2.52979 0
M  V30 3621 H 349.341 0.807541 -1.33823 0
M  V30 3622 H 350.076 3.20268 -0.509785 0
M  V30 3623 H 349.861 3.187 -2.28414 0
M  V30 3624 H 351.351 3.87055 -1.56776 0
M  V30 3625 N 351.788 1.33704 0.83433 0
M  V30 3626 C 353.036 1.25169 1.58673 0
M  V30 3627 C 353.357 -0.18127 1.94156 0
M  V30 3628 O 352.627 -1.11113 1.6134 0
M  V30 3629 H 351.207 0.4603 0.58833 0
M  V30 3630 H 353.869 1.67478 0.996847 0
M  V30 3631 H 352.965 1.84856 2.51465 0
M  V30 3632 N 353.266 -1.05314 1.17247 0
M  V30 3633 C 354.514 -1.77941 0.958194 0
M  V30 3634 C 354.835 -1.88089 -0.514556 0
M  V30 3635 O 354.105 -1.39676 -1.37359 0
M  V30 3636 H 352.685 -0.659116 0.351533 0
M  V30 3637 H 355.347 -1.27166 1.47699 0
M  V30 3638 H 354.443 -2.79663 1.38546 0
M  V30 3639 N 354.744 -0.972509 -1.24016 0
M  V30 3640 C 355.674 -0.525548 -2.27509 0
M  V30 3641 C 356.655 0.437262 -1.64384 0
M  V30 3642 O 357.84 0.332343 -1.91335 0
M  V30 3643 C 354.97 0.180448 -3.46831 0
M  V30 3644 C 353.924 -0.698859 -4.22256 0
M  V30 3645 C 353.25 0.138903 -5.3452 0
M  V30 3646 C 354.55 -1.98582 -4.83076 0
M  V30 3647 H 356.244 -1.39058 -2.65148 0
M  V30 3648 H 353.79 -0.67009 -1.27459 0
M  V30 3649 H 355.743 0.504387 -4.18371 0
M  V30 3650 H 354.467 1.07987 -3.08231 0
M  V30 3651 H 353.126 -1.00614 -3.52523 0
M  V30 3652 H 352.774 1.03862 -4.9216 0
M  V30 3653 H 352.474 -0.446259 -5.85903 0
M  V30 3654 H 353.998 0.457404 -6.08884 0
M  V30 3655 H 355.412 -1.72715 -5.46665 0
M  V30 3656 H 353.809 -2.5181 -5.44713 0
M  V30 3657 H 354.879 -2.67769 -4.04262 0
M  V30 3658 N 356.222 1.38976 -0.743202 0
M  V30 3659 C 357.155 2.28128 -0.0572165 0
M  V30 3660 C 358.133 1.44827 0.739182 0
M  V30 3661 O 359.317 1.74207 0.720009 0
M  V30 3662 C 356.444 3.25796 0.926001 0
M  V30 3663 C 355.49 4.25947 0.217099 0
M  V30 3664 S 356.323 5.24604 -1.07477 0
M  V30 3665 C 357.479 6.25829 -0.0943545 0
M  V30 3666 H 357.712 2.85961 -0.813246 0
M  V30 3667 H 355.245 1.44822 -0.535341 0
M  V30 3668 H 357.203 3.82583 1.48797 0
M  V30 3669 H 355.864 2.66966 1.65493 0
M  V30 3670 H 355.057 4.94746 0.961372 0
M  V30 3671 H 354.659 3.73002 -0.273059 0
M  V30 3672 H 356.951 6.73411 0.743239 0
M  V30 3673 H 357.894 7.0412 -0.749713 0
M  V30 3674 H 358.302 5.63797 0.281706 0
M  V30 3675 N 357.7 0.491464 1.49741 0
M  V30 3676 C 358.93 -0.0534375 2.06531 0
M  V30 3677 C 359.338 -1.32233 1.35318 0
M  V30 3678 O 358.681 -1.78781 0.422243 0
M  V30 3679 C 358.743 -0.387034 3.57411 0
M  V30 3680 C 358.407 0.782764 4.50246 0
M  V30 3681 C 359.404 1.67059 4.92329 0
M  V30 3682 C 357.089 0.978866 4.9267 0
M  V30 3683 C 359.083 2.73874 5.75562 0
M  V30 3684 C 356.77 2.05022 5.75682 0
M  V30 3685 C 357.768 2.92851 6.17031 0
M  V30 3686 O 357.456 3.98138 6.98385 0
M  V30 3687 H 357.188 0.0129324 0.675876 0
M  V30 3688 H 359.742 0.685238 1.93633 0
M  V30 3689 H 357.972 -1.17918 3.68283 0
M  V30 3690 H 359.661 -0.869419 3.96479 0
M  V30 3691 H 360.427 1.53086 4.60206 0
M  V30 3692 H 356.306 0.304646 4.59992 0
M  V30 3693 H 359.85 3.42458 6.07757 0
M  V30 3694 H 355.747 2.18993 6.07217 0
M  V30 3695 H 356.515 3.95374 7.16674 0
M  V30 3696 N 359.178 -1.55987 0.224894 0
M  V30 3697 C 360.141 -2.19178 -0.670348 0
M  V30 3698 C 361.141 -1.15461 -1.11917 0
M  V30 3699 O 362.331 -1.40675 -1.02743 0
M  V30 3700 C 359.463 -2.81777 -1.9187 0
M  V30 3701 H 360.656 -2.99662 -0.119364 0
M  V30 3702 H 358.209 -1.5628 -0.0247128 0
M  V30 3703 H 358.944 -2.05172 -2.51147 0
M  V30 3704 H 358.729 -3.57732 -1.60531 0
M  V30 3705 H 360.219 -3.30205 -2.55645 0
M  V30 3706 N 360.656 0.0484629 -1.57525 0
M  V30 3707 C 361.619 1.03956 -2.04269 0
M  V30 3708 C 362.619 1.30211 -0.943496 0
M  V30 3709 O 363.809 1.25539 -1.20771 0
M  V30 3710 C 360.941 2.37742 -2.44319 0
M  V30 3711 H 362.134 0.636182 -2.93075 0
M  V30 3712 H 359.687 0.294811 -1.53494 0
M  V30 3713 H 360.422 2.82866 -1.5861 0
M  V30 3714 H 360.207 2.20021 -3.24551 0
M  V30 3715 H 361.697 3.08936 -2.80978 0
M  V30 3716 N 362.134 1.5431 0.320358 0
M  V30 3717 C 363.545 1.63872 0.894594 0
M  V30 3718 C 363.896 0.534847 1.88769 0
M  V30 3719 O 363.021 -0.331732 2.13842 0
M  V30 3720 C 363.616 2.97049 1.62934 0
M  V30 3721 C 362.175 3.08796 2.15226 0
M  V30 3722 C 361.322 2.59456 0.978671 0
M  V30 3723 H 364.273 1.58398 0.0978544 0
M  V30 3724 H 364.294 2.87388 2.49376 0
M  V30 3725 H 363.806 3.7737 0.906302 0
M  V30 3726 H 361.907 2.33156 2.90636 0
M  V30 3727 H 362.02 4.14649 2.40006 0
M  V30 3728 H 360.384 2.1543 1.35875 0
M  V30 3729 H 361.167 3.42237 0.269895 0
M  V30 3730 N 363.613 -0.582584 1.46437 0
M  V30 3731 C 364.56 -1.69164 1.5701 0
M  V30 3732 C 365.53 -1.60847 0.414403 0
M  V30 3733 O 366.715 -1.80058 0.631171 0
M  V30 3734 C 363.855 -3.075 1.56646 0
M  V30 3735 C 362.968 -3.2644 2.82951 0
M  V30 3736 C 362.103 -4.55026 2.7409 0
M  V30 3737 C 361.142 -4.6731 3.95333 0
M  V30 3738 N 360.279 -5.87221 3.84858 0
M  V30 3739 H 365.119 -1.59464 2.51744 0
M  V30 3740 H 362.656 -0.777186 1.24893 0
M  V30 3741 H 364.614 -3.8757 1.5442 0
M  V30 3742 H 363.244 -3.16096 0.654439 0
M  V30 3743 H 362.296 -2.39974 2.95155 0
M  V30 3744 H 363.608 -3.31385 3.72808 0
M  V30 3745 H 362.762 -5.43324 2.6997 0
M  V30 3746 H 361.501 -4.52519 1.81873 0
M  V30 3747 H 360.506 -3.77429 3.99784 0
M  V30 3748 H 361.731 -4.71595 4.88646 0
M  V30 3749 H 359.677 -5.85712 2.95427 0
M  V30 3750 H 359.594 -5.93435 4.6837 0
M  V30 3751 H 360.862 -6.7795 3.84713 0
M  V30 3752 N 365.091 -1.34144 -0.827227 0
M  V30 3753 C 366.507 -1.13732 -1.11969 0
M  V30 3754 C 366.707 0.0640463 -2.01398 0
M  V30 3755 O 365.763 0.740856 -2.41387 0
M  V30 3756 C 367.076 -2.43047 -1.77055 0
M  V30 3757 C 368.624 -2.49063 -1.89569 0
M  V30 3758 C 369.099 -3.78369 -2.58072 0
M  V30 3759 N 370.59 -3.79505 -2.65575 0
M  V30 3760 C 371.325 -4.76274 -3.19297 0
M  V30 3761 N 370.821 -5.83424 -3.73616 0
M  V30 3762 N 372.614 -4.63735 -3.17658 0
M  V30 3763 H 364.765 -2.11126 -0.232296 0
M  V30 3764 H 367.028 -0.933424 -0.165602 0
M  V30 3765 H 366.734 -3.31025 -1.18807 0
M  V30 3766 H 366.608 -2.56066 -2.76966 0
M  V30 3767 H 368.995 -1.61527 -2.46968 0
M  V30 3768 H 369.076 -2.39975 -0.885745 0
M  V30 3769 H 368.72 -4.66293 -2.01329 0
M  V30 3770 H 368.65 -3.84737 -3.59562 0
M  V30 3771 H 371.141 -3.02074 -2.27068 0
M  V30 3772 H 371.454 -6.53282 -4.12846 0
M  V30 3773 H 369.799 -5.87143 -3.71871 0
M  V30 3774 H 372.99 -3.79177 -2.74486 0
M  V30 3775 H 373.163 -5.39318 -3.59221 0
M  V30 3776 N 366.569 1.04691 -1.17803 0
M  V30 3777 C 367.516 2.12557 -0.899343 0
M  V30 3778 C 368.486 1.65339 0.158771 0
M  V30 3779 O 369.671 1.90789 0.0204797 0
M  V30 3780 C 366.811 3.42481 -0.424315 0
M  V30 3781 C 365.924 4.03346 -1.54713 0
M  V30 3782 C 365.059 5.21208 -1.02546 0
M  V30 3783 C 364.098 5.74089 -2.12339 0
M  V30 3784 N 363.235 6.83247 -1.61612 0
M  V30 3785 H 368.075 2.35734 -1.823 0
M  V30 3786 H 365.612 1.1564 -0.909159 0
M  V30 3787 H 367.57 4.16996 -0.130421 0
M  V30 3788 H 366.2 3.19471 0.462377 0
M  V30 3789 H 365.252 3.2622 -1.95664 0
M  V30 3790 H 366.564 4.38628 -2.37501 0
M  V30 3791 H 365.718 6.02812 -0.685718 0
M  V30 3792 H 364.457 4.87414 -0.167084 0
M  V30 3793 H 363.462 4.91111 -2.47165 0
M  V30 3794 H 364.687 6.0993 -2.98601 0
M  V30 3795 H 362.633 6.5134 -0.780533 0
M  V30 3796 H 362.55 7.17559 -2.38003 0
M  V30 3797 H 363.818 7.68491 -1.30545 0
M  V30 3798 N 368.047 0.979072 1.23499 0
M  V30 3799 C 369.272 0.664845 1.96455 0
M  V30 3800 C 369.697 -0.761287 1.72006 0
M  V30 3801 O 369.055 -1.51837 0.990713 0
M  V30 3802 C 369.103 0.959479 3.47601 0
M  V30 3803 O 368.207 0.0508168 4.12369 0
M  V30 3804 H 367.548 0.250185 0.615064 0
M  V30 3805 H 370.078 1.31231 1.5697 0
M  V30 3806 H 370.088 0.895642 3.98048 0
M  V30 3807 H 368.763 1.99876 3.64723 0
M  V30 3808 H 367.34 0.16895 3.72517 0
M  V30 3809 N 369.525 -1.3858 0.750561 0
M  V30 3810 C 370.771 -2.00481 0.305825 0
M  V30 3811 C 371.104 -1.5944 -1.10872 0
M  V30 3812 O 370.379 -0.83052 -1.75877 0
M  V30 3813 C 370.662 -3.5758 0.425287 0
M  V30 3814 C 370.515 -4.08594 1.88072 0
M  V30 3815 C 371.834 -4.39719 -0.183122 0
M  V30 3816 H 368.953 -0.728348 0.112598 0
M  V30 3817 H 371.595 -1.64566 0.949638 0
M  V30 3818 H 369.745 -3.88306 -0.122828 0
M  V30 3819 H 371.417 -3.88523 2.48691 0
M  V30 3820 H 369.66 -3.61574 2.39681 0
M  V30 3821 H 370.331 -5.177 1.91548 0
M  V30 3822 H 372.807 -4.15128 0.284303 0
M  V30 3823 H 371.683 -5.48856 -0.0692757 0
M  V30 3824 H 371.944 -4.23434 -1.27106 0
M  V30 3825 N 371.003 -0.499398 -1.49478 0
M  V30 3826 C 372.249 0.0457576 -2.02748 0
M  V30 3827 C 372.582 1.36793 -1.37846 0
M  V30 3828 O 371.857 1.87596 -0.513601 0
M  V30 3829 C 372.14 0.199986 -3.59544 0
M  V30 3830 C 371.993 -1.1452 -4.34977 0
M  V30 3831 C 373.312 0.94137 -4.29914 0
M  V30 3832 H 370.431 0.0151552 -0.736844 0
M  V30 3833 H 373.073 -0.650498 -1.78518 0
M  V30 3834 H 371.223 0.793007 -3.8032 0
M  V30 3835 H 372.895 -1.77697 -4.25701 0
M  V30 3836 H 371.138 -1.73488 -3.97598 0
M  V30 3837 H 371.809 -0.990607 -5.43039 0
M  V30 3838 H 374.285 0.43844 -4.13784 0
M  V30 3839 H 373.161 1.01812 -5.39375 0
M  V30 3840 H 373.422 1.98471 -3.95046 0
M  V30 3841 N 372.481 1.55866 -0.233164 0
M  V30 3842 C 373.444 2.1953 0.658715 0
M  V30 3843 C 374.444 1.16053 1.11303 0
M  V30 3844 O 375.634 1.41218 1.01996 0
M  V30 3845 C 372.766 2.82791 1.90373 0
M  V30 3846 H 373.959 2.99721 0.10347 0
M  V30 3847 H 371.512 1.56291 0.0164245 0
M  V30 3848 H 372.247 2.06501 2.50056 0
M  V30 3849 H 372.032 3.58578 1.58632 0
M  V30 3850 H 373.522 3.31556 2.53891 0
M  V30 3851 N 373.959 -0.0401083 1.57549 0
M  V30 3852 C 374.922 -1.02871 2.04817 0
M  V30 3853 C 375.922 -1.29708 0.950388 0
M  V30 3854 O 377.112 -1.24897 1.21435 0
M  V30 3855 C 374.244 -2.36443 2.45576 0
M  V30 3856 H 375.437 -0.620631 2.93408 0
M  V30 3857 H 372.99 -0.286667 1.53649 0
M  V30 3858 H 373.725 -2.82021 1.60108 0
M  V30 3859 H 373.51 -2.18296 3.25713 0
M  V30 3860 H 375 -3.07441 2.82612 0
M  V30 3861 N 375.437 -1.54477 -0.31217 0
M  V30 3862 C 376.37 -1.79519 -1.40884 0
M  V30 3863 C 377.348 -0.645753 -1.49227 0
M  V30 3864 O 378.532 -0.884468 -1.66461 0
M  V30 3865 C 375.659 -1.92194 -2.78889 0
M  V30 3866 C 374.705 -3.14555 -2.88023 0
M  V30 3867 S 375.538 -4.72893 -2.51262 0
M  V30 3868 C 376.694 -4.8849 -3.91317 0
M  V30 3869 H 376.927 -2.72256 -1.19432 0
M  V30 3870 H 374.46 -1.45746 -0.509654 0
M  V30 3871 H 376.418 -2.00182 -3.58382 0
M  V30 3872 H 375.079 -1.00414 -2.97617 0
M  V30 3873 H 374.272 -3.20193 -3.89221 0
M  V30 3874 H 373.874 -3.04955 -2.16514 0
M  V30 3875 H 376.166 -4.71826 -4.86196 0
M  V30 3876 H 377.109 -5.90588 -3.90656 0
M  V30 3877 H 377.517 -4.16715 -3.80801 0
M  V30 3878 N 376.915 0.57481 -1.46744 0
M  V30 3879 C 377.845 1.69337 -1.60771 0
M  V30 3880 C 378.826 1.63825 -0.457736 0
M  V30 3881 O 380.011 1.8172 -0.684947 0
M  V30 3882 C 377.141 3.0798 -1.60517 0
M  V30 3883 C 376.095 3.28327 -2.74564 0
M  V30 3884 C 375.421 4.67578 -2.59373 0
M  V30 3885 C 376.721 3.15398 -4.16319 0
M  V30 3886 H 378.415 1.57853 -2.54407 0
M  V30 3887 H 375.961 0.75799 -1.22436 0
M  V30 3888 H 377.914 3.86061 -1.68923 0
M  V30 3889 H 376.638 3.20381 -0.634305 0
M  V30 3890 H 375.297 2.52649 -2.65639 0
M  V30 3891 H 374.945 4.76755 -1.60353 0
M  V30 3892 H 374.645 4.82144 -3.35873 0
M  V30 3893 H 376.169 5.47817 -2.69682 0
M  V30 3894 H 377.583 3.83315 -4.26313 0
M  V30 3895 H 375.98 3.41482 -4.93468 0
M  V30 3896 H 377.05 2.12372 -4.3592 0
M  V30 3897 N 378.394 1.34581 0.820102 0
M  V30 3898 C 379.357 1.2628 1.91275 0
M  V30 3899 C 380.357 0.177344 1.59819 0
M  V30 3900 O 381.547 0.430156 1.68806 0
M  V30 3901 C 378.679 0.950327 3.27386 0
M  V30 3902 H 379.872 2.23421 2.00057 0
M  V30 3903 H 377.425 1.1891 1.0144 0
M  V30 3904 H 378.16 -0.0177938 3.24295 0
M  V30 3905 H 377.945 1.73549 3.51601 0
M  V30 3906 H 379.435 0.917492 4.07396 0
M  V30 3907 N 379.872 -1.04064 1.18357 0
M  V30 3908 C 380.782 -2.15569 0.925596 0
M  V30 3909 C 381.798 -1.7365 -0.110295 0
M  V30 3910 O 382.974 -2.01273 0.0716218 0
M  V30 3911 C 380.039 -3.43704 0.454836 0
M  V30 3912 C 379.1 -4.00004 1.55869 0
M  V30 3913 C 378.333 -5.22023 1.1103 0
M  V30 3914 O 378.556 -5.70392 -0.0309756 0
M  V30 3915 O 377.49 -5.70856 1.90805 0
M  V30 3916 H 381.316 -2.40187 1.8586 0
M  V30 3917 H 378.901 -1.1402 0.965394 0
M  V30 3918 H 380.783 -4.20923 0.200382 0
M  V30 3919 H 379.458 -3.20559 -0.449876 0
M  V30 3920 H 378.365 -3.24172 1.86716 0
M  V30 3921 H 379.698 -4.2749 2.43953 0
M  V30 3922 N 381.35 -0.985608 -1.22978 0
M  V30 3923 C 382.58 -0.674603 -1.95276 0
M  V30 3924 C 382.988 0.763483 -1.73111 0
M  V30 3925 O 382.331 1.52601 -1.02268 0
M  V30 3926 C 382.393 -0.891597 -3.48268 0
M  V30 3927 C 382.057 -2.31275 -3.94158 0
M  V30 3928 C 383.054 -3.29179 -4.02415 0
M  V30 3929 C 380.739 -2.64524 -4.27004 0
M  V30 3930 C 382.733 -4.58407 -4.42879 0
M  V30 3931 C 380.42 -3.93974 -4.67149 0
M  V30 3932 C 381.418 -4.90727 -4.75053 0
M  V30 3933 O 381.106 -6.17865 -5.14294 0
M  V30 3934 H 380.838 -0.249251 -0.628371 0
M  V30 3935 H 383.392 -1.32106 -1.5728 0
M  V30 3936 H 381.622 -0.187962 -3.86243 0
M  V30 3937 H 383.311 -0.576957 -4.01779 0
M  V30 3938 H 384.077 -3.04823 -3.77237 0
M  V30 3939 H 379.956 -1.89923 -4.2006 0
M  V30 3940 H 383.5 -5.33926 -4.48964 0
M  V30 3941 H 379.397 -4.18122 -4.91777 0
M  V30 3942 H 380.165 -6.21694 -5.32389 0
M  V30 3943 N 382.828 1.3818 -0.7579 0
M  V30 3944 C 383.791 2.28764 -0.141286 0
M  V30 3945 C 384.791 1.47388 0.642907 0
M  V30 3946 O 385.981 1.67781 0.468536 0
M  V30 3947 C 383.113 3.31184 0.808069 0
M  V30 3948 H 384.306 2.848 -0.939633 0
M  V30 3949 H 381.859 1.47212 -0.525191 0
M  V30 3950 H 382.594 2.80247 1.63193 0
M  V30 3951 H 382.379 3.91314 0.248104 0
M  V30 3952 H 383.869 3.98909 1.23536 0
M  V30 3953 O 384.345 0.648902 1.4789 0
M  V30 3954 H 385.036 0.173089 1.92925 0
M  V30 END ATOM
M  V30 BEGIN BOND
M  V30 END BOND
M  V30 END CTAB
M  END
$$$$
