drugbank_target|Q3JP94 Glutaryl-CoA dehydrogenase (DB08685)
 OpenBabel12092120523D

  0  0  0     0  0            999 V3000
M  V30 BEGIN CTAB
M  V30 COUNTS 6048 6109 0 0 0
M  V30 BEGIN ATOM
M  V30 1 H -0.908 1.98254 -0.117106 0
M  V30 2 N 0 1.576 0 0
M  V30 3 C 0.933 2.03868 1.02534 0
M  V30 4 C 1.911 0.928543 1.3348 0
M  V30 5 O 3.095 1.19667 1.45644 0
M  V30 6 C 0.222 2.43627 2.35294 0
M  V30 7 C -0.732 3.65373 2.2001 0
M  V30 8 S 0.101 5.13292 1.52614 0
M  V30 9 C 1.257 5.56322 2.86805 0
M  V30 10 H 1.49 2.90518 0.631377 0
M  V30 11 H -0.977 1.52953 0.210867 0
M  V30 12 H 0.981 2.67203 3.11629 0
M  V30 13 H -0.358 1.57376 2.7183 0
M  V30 14 H -1.165 3.90944 3.18086 0
M  V30 15 H -1.563 3.418 1.51819 0
M  V30 16 H 0.729 5.58782 3.83104 0
M  V30 17 H 1.672 6.56266 2.65933 0
M  V30 18 H 2.08 4.83886 2.90714 0
M  V30 19 N 1.4781 -0.272755 1.55222 0
M  V30 20 C 2.4411 -1.32041 1.87344 0
M  V30 21 C 3.4411 -1.42342 0.74803 0
M  V30 22 O 4.6311 -1.41488 1.0162 0
M  V30 23 C 1.7631 -2.70173 2.07893 0
M  V30 24 H 2.9561 -1.04789 2.80997 0
M  V30 25 H 0.5091 -0.51083 1.47717 0
M  V30 26 H 1.2441 -3.02605 1.16622 0
M  V30 27 H 1.0291 -2.64082 2.89833 0
M  V30 28 H 2.5191 -3.45869 2.34017 0
M  V30 29 N 2.9562 -1.48159 -0.537278 0
M  V30 30 C 3.9192 -1.61665 -1.62472 0
M  V30 31 C 4.9192 -0.490395 -1.5314 0
M  V30 32 O 6.1092 -0.755998 -1.5694 0
M  V30 33 C 3.2412 -1.57997 -3.02076 0
M  V30 34 H 4.4342 -2.58621 -1.51839 0
M  V30 35 H 1.9872 -1.36647 -0.758771 0
M  V30 36 H 2.7222 -0.624913 -3.18222 0
M  V30 37 H 2.5072 -2.39755 -3.10258 0
M  V30 38 H 3.9972 -1.70627 -3.81151 0
M  V30 39 N 4.4343 0.785586 -1.36625 0
M  V30 40 C 5.3973 1.87999 -1.31107 0
M  V30 41 C 6.3973 1.59316 -0.217959 0
M  V30 42 O 7.5873 1.67656 -0.472977 0
M  V30 43 C 4.7193 3.24861 -1.03334 0
M  V30 44 H 5.9123 1.94307 -2.2844 0
M  V30 45 H 3.4653 0.983813 -1.21453 0
M  V30 46 H 4.2003 3.24235 -0.0647432 0
M  V30 47 H 3.9853 3.4707 -1.82441 0
M  V30 48 H 5.4753 4.04929 -1.02088 0
M  V30 49 N 5.9124 1.20967 1.01018 0
M  V30 50 C 7.1404 1.04956 1.78303 0
M  V30 51 C 7.5554 -0.400915 1.84494 0
M  V30 52 O 6.9124 -1.27826 1.30257 0
M  V30 53 C 6.9634 1.63403 3.22462 0
M  V30 54 O 6.6844 3.02775 3.16637 0
M  V30 55 C 8.1854 1.52432 4.16268 0
M  V30 56 H 5.4054 0.368858 0.560522 0
M  V30 57 H 7.9494 1.60193 1.27116 0
M  V30 58 H 6.1044 1.1227 3.70775 0
M  V30 59 H 6.5184 3.30626 4.07169 0
M  V30 60 H 7.9924 1.98078 5.15237 0
M  V30 61 H 8.4694 0.477875 4.36592 0
M  V30 62 H 9.0754 2.02787 3.73841 0
M  V30 63 N 7.3905 -1.2043 1.01659 0
M  V30 64 C 8.6375 -1.89797 0.705917 0
M  V30 65 C 8.9655 -1.78848 -0.764439 0
M  V30 66 O 8.2205 -1.16694 -1.57102 0
M  V30 67 C 8.5195 -3.40464 1.08714 0
M  V30 68 C 8.1855 -3.71614 2.5537 0
M  V30 69 C 6.8475 -3.79826 2.95441 0
M  V30 70 C 9.1995 -3.85915 3.50313 0
M  V30 71 C 6.5275 -3.99797 4.29394 0
M  V30 72 C 8.8795 -4.07396 4.83954 0
M  V30 73 C 7.5435 -4.13837 5.23732 0
M  V30 74 H 6.8135 -0.694518 0.258313 0
M  V30 75 H 9.4605 -1.42691 1.27717 0
M  V30 76 H 7.7655 -3.89385 0.434309 0
M  V30 77 H 9.4625 -3.92433 0.824461 0
M  V30 78 H 6.0525 -3.65822 2.23321 0
M  V30 79 H 10.2365 -3.78926 3.20513 0
M  V30 80 H 5.4925 -4.03018 4.59768 0
M  V30 81 H 9.6665 -4.17404 5.57447 0
M  V30 82 H 7.2935 -4.29064 6.27541 0
M  V30 83 N 8.8686 -0.792821 -1.36206 0
M  V30 84 C 9.8186 -0.166598 -2.27391 0
M  V30 85 C 10.8026 0.651479 -1.47121 0
M  V30 86 O 11.9946 0.510994 -1.69463 0
M  V30 87 C 9.1236 0.695033 -3.36191 0
M  V30 88 C 8.2096 -0.132019 -4.23894 0
M  V30 89 N 8.6006 -1.18822 -4.91645 0
M  V30 90 C 6.8986 0.0885952 -4.45912 0
M  V30 91 C 7.5996 -1.69198 -5.56549 0
M  V30 92 N 6.5756 -1.00065 -5.34311 0
M  V30 93 H 10.3776 -0.974947 -2.77258 0
M  V30 94 H 7.8916 -0.632616 -1.49572 0
M  V30 95 H 9.8886 1.1596 -4.00448 0
M  V30 96 H 8.5486 1.50189 -2.87877 0
M  V30 97 H 9.5596 -1.57069 -4.93507 0
M  V30 98 H 6.2366 0.865688 -4.08426 0
M  V30 99 H 7.6266 -2.57395 -6.20643 0
M  V30 100 N 10.3467 1.47872 -0.545128 0
M  V30 101 C 11.5927 2.03385 -0.0247951 0
M  V30 102 C 11.9477 1.41325 1.30556 0
M  V30 103 O 11.2407 0.5552 1.8338 0
M  V30 104 C 11.4347 3.57131 0.13867 0
M  V30 105 C 11.2637 4.34097 -1.17429 0
M  V30 106 C 10.0337 4.74458 -1.73831 0
M  V30 107 C 12.2317 4.6998 -2.08861 0
M  V30 108 N 10.2137 5.3602 -2.99258 0
M  V30 109 C 11.5847 5.31719 -3.18866 0
M  V30 110 C 13.6397 4.5191 -2.09003 0
M  V30 111 C 12.3427 5.77295 -4.29096 0
M  V30 112 C 14.3687 4.98477 -3.18237 0
M  V30 113 C 13.7307 5.60253 -4.26961 0
M  V30 114 H 9.8297 0.780339 -0.050943 0
M  V30 115 H 12.4137 1.80507 -0.729753 0
M  V30 116 H 10.5847 3.79802 0.812733 0
M  V30 117 H 12.3167 3.99282 0.659976 0
M  V30 118 H 9.0717 4.56037 -1.2778 0
M  V30 119 H 9.4957 5.71355 -3.63157 0
M  V30 120 H 14.1377 4.03516 -1.26234 0
M  V30 121 H 11.8557 6.24687 -5.12633 0
M  V30 122 H 15.4417 4.86274 -3.1942 0
M  V30 123 H 14.3217 5.95631 -5.10091 0
M  V30 124 N 11.8248 0.280983 1.55075 0
M  V30 125 C 13.1018 -0.386207 1.91749 0
M  V30 126 C 13.4818 -1.73264 1.20594 0
M  V30 127 O 12.8298 -2.26034 0.334784 0
M  V30 128 C 13.0398 -0.520687 3.45094 0
M  V30 129 C 14.3878 -0.800865 4.16979 0
M  V30 130 O 15.4118 -0.605271 3.5102 0
M  V30 131 O 14.2708 -1.1753 5.33712 0
M  V30 132 H 11.3648 -0.212408 0.799257 0
M  V30 133 H 13.9108 0.327568 1.66509 0
M  V30 134 H 12.6828 0.426633 3.88967 0
M  V30 135 H 12.3058 -1.2837 3.76307 0
M  V30 136 N 13.3029 -1.57598 0.00835791 0
M  V30 137 C 14.5799 -1.82172 -0.712235 0
M  V30 138 C 14.9599 -0.887873 -1.9152 0
M  V30 139 O 14.3079 0.06146 -2.28417 0
M  V30 140 C 14.5179 -3.30875 -1.11008 0
M  V30 141 C 15.8659 -3.96826 -1.51044 0
M  V30 142 O 16.8899 -3.35248 -1.20364 0
M  V30 143 O 15.7489 -5.05318 -2.08125 0
M  V30 144 H 12.8429 -0.750435 -0.347529 0
M  V30 145 H 15.3889 -1.69665 0.0344523 0
M  V30 146 H 14.1609 -3.90481 -0.252982 0
M  V30 147 H 13.7839 -3.48412 -1.9156 0
M  V30 148 N 14.781 0.264519 -1.55364 0
M  V30 149 C 16.192 0.834936 -1.6699 0
M  V30 150 C 16.543 1.86718 -0.602552 0
M  V30 151 O 15.668 2.14899 0.254425 0
M  V30 152 C 16.263 1.5212 -3.02729 0
M  V30 153 C 14.822 2.03954 -3.16354 0
M  V30 154 C 13.969 0.884498 -2.62815 0
M  V30 155 H 16.92 0.0406869 -1.58648 0
M  V30 156 H 16.941 2.38853 -2.96191 0
M  V30 157 H 16.453 0.769668 -3.80392 0
M  V30 158 H 14.554 2.82041 -2.43482 0
M  V30 159 H 14.667 2.24902 -4.23032 0
M  V30 160 H 13.031 1.2802 -2.20188 0
M  V30 161 H 13.814 0.14634 -3.42988 0
M  V30 162 N 16.2591 1.48442 0.529413 0
M  V30 163 C 17.1891 1.65902 1.64313 0
M  V30 164 C 18.1701 0.507897 1.6234 0
M  V30 165 O 19.3551 0.740503 1.79528 0
M  V30 166 C 16.4851 1.69911 3.02898 0
M  V30 167 C 15.4391 2.8453 3.19729 0
M  V30 168 C 14.7651 2.73629 4.59381 0
M  V30 169 C 16.0651 4.25821 3.02447 0
M  V30 170 H 17.7591 2.5914 1.49955 0
M  V30 171 H 15.3051 1.24709 0.719982 0
M  V30 172 H 17.2581 1.80715 3.80684 0
M  V30 173 H 15.9821 0.732524 3.18279 0
M  V30 174 H 14.6411 2.73283 2.44361 0
M  V30 175 H 14.2891 1.74938 4.71599 0
M  V30 176 H 13.9891 3.50541 4.71588 0
M  V30 177 H 15.5131 2.86401 5.39265 0
M  V30 178 H 16.9271 4.37898 3.70024 0
M  V30 179 H 15.3241 5.03735 3.26146 0
M  V30 180 H 16.3941 4.42244 1.98867 0
M  V30 181 N 17.7372 -0.778329 1.37039 0
M  V30 182 C 18.6672 -1.90546 1.34962 0
M  V30 183 C 19.6482 -1.68681 0.219274 0
M  V30 184 O 20.8332 -1.89634 0.418624 0
M  V30 185 C 17.9632 -3.27734 1.14925 0
M  V30 186 C 16.9172 -3.64147 2.24902 0
M  V30 187 C 16.2432 -4.99806 1.89996 0
M  V30 188 C 17.5432 -3.71579 3.67051 0
M  V30 189 H 19.2372 -1.92541 2.29277 0
M  V30 190 H 16.7832 -0.924948 1.10366 0
M  V30 191 H 18.7362 -4.06215 1.12104 0
M  V30 192 H 17.4602 -3.26154 0.170631 0
M  V30 193 H 16.1192 -2.8797 2.26868 0
M  V30 194 H 15.7672 -4.94759 0.906796 0
M  V30 195 H 15.4672 -5.25139 2.63634 0
M  V30 196 H 16.9912 -5.80694 1.88749 0
M  V30 197 H 18.4052 -4.40227 3.67251 0
M  V30 198 H 16.8022 -4.08405 4.39688 0
M  V30 199 H 17.8722 -2.72404 4.01154 0
M  V30 200 N 19.2153 -1.21501 -1.00376 0
M  V30 201 C 20.1453 -0.999478 -2.11028 0
M  V30 202 C 21.1263 0.0759671 -1.6993 0
M  V30 203 O 22.3113 -0.0841106 -1.94018 0
M  V30 204 C 19.4413 -0.564709 -3.42678 0
M  V30 205 C 18.3953 -1.58486 -3.97576 0
M  V30 206 C 17.7213 -1.00628 -5.25146 0
M  V30 207 C 19.0213 -2.97204 -4.29496 0
M  V30 208 H 20.7153 -1.92495 -2.29317 0
M  V30 209 H 18.2613 -0.92693 -1.102 0
M  V30 210 H 20.2143 -0.401091 -4.19487 0
M  V30 211 H 18.9383 0.396411 -3.24185 0
M  V30 212 H 17.5973 -1.73606 -3.22888 0
M  V30 213 H 17.2453 -0.0368439 -5.02987 0
M  V30 214 H 16.9453 -1.68771 -5.62841 0
M  V30 215 H 18.4693 -0.854015 -6.04598 0
M  V30 216 H 19.8833 -2.8552 -4.97143 0
M  V30 217 H 18.2803 -3.62372 -4.78338 0
M  V30 218 H 19.3503 -3.47956 -3.3772 0
M  V30 219 N 20.6934 1.19889 -1.02296 0
M  V30 220 C 21.9704 1.85148 -0.630832 0
M  V30 221 C 22.3504 1.91385 0.890782 0
M  V30 222 O 21.6984 1.42642 1.78509 0
M  V30 223 C 21.9084 3.24442 -1.28602 0
M  V30 224 C 23.2564 4.00663 -1.4055 0
M  V30 225 O 24.2804 3.33818 -1.24273 0
M  V30 226 O 23.1394 5.20387 -1.66913 0
M  V30 227 H 20.2334 0.797613 -0.218499 0
M  V30 228 H 22.7794 1.27427 -1.12074 0
M  V30 229 H 21.5514 3.14704 -2.32545 0
M  V30 230 H 21.1744 3.89802 -0.7836 0
M  V30 231 N 22.1715 0.800033 1.35784 0
M  V30 232 C 23.1035 0.163596 2.28615 0
M  V30 233 C 24.1165 -0.633317 1.49976 0
M  V30 234 O 25.3055 -0.466754 1.72289 0
M  V30 235 C 22.4055 -0.790958 3.29541 0
M  V30 236 C 21.5785 -0.0418255 4.3738 0
M  V30 237 C 20.6375 -0.91389 5.18203 0
M  V30 238 O 19.6635 -0.367234 5.68014 0
M  V30 239 N 20.8655 -2.23682 5.35674 0
M  V30 240 H 23.6305 0.96105 2.83873 0
M  V30 241 H 21.1915 0.654894 1.48063 0
M  V30 242 H 23.1835 -1.37844 3.80501 0
M  V30 243 H 21.7535 -1.48925 2.74846 0
M  V30 244 H 20.9735 0.726813 3.87442 0
M  V30 245 H 22.2615 0.474719 5.06581 0
M  V30 246 H 21.6595 -2.70497 4.96838 0
M  V30 247 H 20.2165 -2.77369 5.89839 0
M  V30 248 N 23.6496 -1.47581 0.552962 0
M  V30 249 C 24.5816 -2.27997 -0.234533 0
M  V30 250 C 25.5946 -1.36753 -0.883321 0
M  V30 251 O 26.7836 -1.61612 -0.757889 0
M  V30 252 C 23.8836 -3.10879 -1.34935 0
M  V30 253 C 23.0566 -4.30056 -0.798158 0
M  V30 254 C 22.1156 -4.94567 -1.79694 0
M  V30 255 O 21.1416 -5.53087 -1.34474 0
M  V30 256 N 22.3436 -4.88878 -3.13015 0
M  V30 257 H 25.1086 -2.96222 0.455255 0
M  V30 258 H 22.6696 -1.57163 0.388761 0
M  V30 259 H 24.6616 -3.50903 -2.01616 0
M  V30 260 H 23.2316 -2.44924 -1.94244 0
M  V30 261 H 22.4516 -3.94174 0.0453079 0
M  V30 262 H 23.7396 -5.07152 -0.409173 0
M  V30 263 H 23.1376 -4.42526 -3.52402 0
M  V30 264 H 21.6946 -5.32934 -3.75266 0
M  V30 265 N 25.1277 -0.289203 -1.54924 0
M  V30 266 C 26.0577 0.58549 -2.2604 0
M  V30 267 C 27.0387 1.14753 -1.25562 0
M  V30 268 O 28.2237 1.17906 -1.54311 0
M  V30 269 C 25.3537 1.76305 -2.99222 0
M  V30 270 C 24.3077 1.33191 -4.06748 0
M  V30 271 C 23.6337 2.5937 -4.6758 0
M  V30 272 C 24.9337 0.471775 -5.20165 0
M  V30 273 H 26.6277 -0.00763532 -2.99399 0
M  V30 274 H 24.1737 -0.00511229 -1.43999 0
M  V30 275 H 26.1267 2.38097 -3.47689 0
M  V30 276 H 24.8507 2.38223 -2.23422 0
M  V30 277 H 23.5097 0.737121 -3.59113 0
M  V30 278 H 23.1577 3.19576 -3.88433 0
M  V30 279 H 22.8577 2.31228 -5.40192 0
M  V30 280 H 24.3817 3.21985 -5.18804 0
M  V30 281 H 25.7957 0.995056 -5.64599 0
M  V30 282 H 24.1927 0.284639 -5.99425 0
M  V30 283 H 25.2627 -0.506041 -4.82252 0
M  V30 284 N 26.6058 1.57591 -0.0167156 0
M  V30 285 C 27.5688 2.08393 0.954204 0
M  V30 286 C 28.5688 0.996531 1.26198 0
M  V30 287 O 29.7588 1.25858 1.20438 0
M  V30 288 C 26.8908 2.5394 2.27436 0
M  V30 289 H 28.0838 2.95455 0.514451 0
M  V30 290 H 25.6368 1.54582 0.231089 0
M  V30 291 H 26.3718 1.70171 2.76066 0
M  V30 292 H 26.1568 3.33371 2.06412 0
M  V30 293 H 27.6468 2.93512 2.97053 0
M  V30 294 N 28.0839 -0.256276 1.55502 0
M  V30 295 C 29.3609 -1.00789 1.67633 0
M  V30 296 C 29.7409 -2.03706 0.553826 0
M  V30 297 O 29.0889 -2.24145 -0.443969 0
M  V30 298 C 29.2989 -1.64968 3.07549 0
M  V30 299 C 30.6469 -2.15505 3.65845 0
M  V30 300 O 31.6709 -1.74925 3.1029 0
M  V30 301 O 30.5299 -2.89986 4.63217 0
M  V30 302 H 27.6239 -0.468553 0.681459 0
M  V30 303 H 30.1699 -0.250806 1.67836 0
M  V30 304 H 28.9419 -0.904785 3.80696 0
M  V30 305 H 28.5649 -2.47321 3.11317 0
M  V30 306 N 29.562 -1.4872 -0.521534 0
M  V30 307 C 30.839 -1.4766 -1.2828 0
M  V30 308 C 31.219 -0.19292 -2.10217 0
M  V30 309 O 30.567 0.825193 -2.13079 0
M  V30 310 C 30.777 -2.74358 -2.15705 0
M  V30 311 C 32.125 -3.23028 -2.75569 0
M  V30 312 O 33.149 -2.75333 -2.25987 0
M  V30 313 O 32.008 -4.0604 -3.65778 0
M  V30 314 H 29.102 -0.590085 -0.579421 0
M  V30 315 H 31.648 -1.60963 -0.537492 0
M  V30 316 H 30.42 -3.59292 -1.54999 0
M  V30 317 H 30.043 -2.63816 -2.97467 0
M  V30 318 N 31.0401 0.771051 -1.3745 0
M  V30 319 C 31.9501 1.91538 -1.35464 0
M  V30 320 C 32.9661 1.72134 -0.254123 0
M  V30 321 O 34.1421 1.95358 -0.489626 0
M  V30 322 C 31.2071 3.26671 -1.16134 0
M  V30 323 C 30.2681 3.58723 -2.35831 0
M  V30 324 C 29.5011 4.87409 -2.17413 0
M  V30 325 O 29.7241 5.58506 -1.15876 0
M  V30 326 O 28.6581 5.18539 -3.05615 0
M  V30 327 H 32.4841 1.96165 -2.31847 0
M  V30 328 H 30.0691 0.9139 -1.18187 0
M  V30 329 H 31.9511 4.07499 -1.07345 0
M  V30 330 H 30.6261 3.22894 -0.228251 0
M  V30 331 H 29.5331 2.78127 -2.50192 0
M  V30 332 H 30.8661 3.67243 -3.27709 0
M  V30 333 N 32.5182 1.22032 0.997298 0
M  V30 334 C 33.9342 0.979326 1.26021 0
M  V30 335 C 34.1342 -0.32972 1.98784 0
M  V30 336 O 33.1902 -1.05345 2.29475 0
M  V30 337 C 34.5032 2.17509 2.07631 0
M  V30 338 C 36.0512 2.21817 2.2083 0
M  V30 339 C 36.5262 3.40933 3.05825 0
M  V30 340 N 38.0172 3.41067 3.13412 0
M  V30 341 C 38.7522 4.29885 3.79455 0
M  V30 342 N 38.2482 5.28914 4.47462 0
M  V30 343 N 40.0412 4.17673 3.76173 0
M  V30 344 H 32.1922 2.06202 0.509352 0
M  V30 345 H 34.4552 0.90334 0.287541 0
M  V30 346 H 34.1612 3.12415 1.61524 0
M  V30 347 H 34.0352 2.17206 3.08385 0
M  V30 348 H 36.4222 1.27462 2.66153 0
M  V30 349 H 36.5032 2.2616 1.1952 0
M  V30 350 H 36.1472 4.35586 2.61203 0
M  V30 351 H 36.0772 3.33829 4.07266 0
M  V30 352 H 38.5682 2.69406 2.65007 0
M  V30 353 H 38.8812 5.92973 4.95583 0
M  V30 354 H 37.2262 5.32831 4.46224 0
M  V30 355 H 40.4172 3.39564 3.22202 0
M  V30 356 H 40.5902 4.87098 4.27363 0
M  V30 357 N 33.9963 -1.19345 1.0293 0
M  V30 358 C 34.9293 -2.21347 0.555029 0
M  V30 359 C 35.9073 -1.57492 -0.404351 0
M  V30 360 O 37.0913 -1.85741 -0.321352 0
M  V30 361 C 34.2183 -3.38163 -0.19064 0
M  V30 362 C 33.2643 -4.20375 0.720236 0
M  V30 363 S 34.0973 -4.88371 2.19668 0
M  V30 364 C 35.2533 -6.08597 1.46153 0
M  V30 365 H 35.4863 -2.61235 1.41929 0
M  V30 366 H 33.0193 -1.29598 0.839272 0
M  V30 367 H 34.9773 -4.05871 -0.614724 0
M  V30 368 H 33.6383 -2.9671 -1.03063 0
M  V30 369 H 32.8313 -5.03793 0.14455 0
M  V30 370 H 32.4333 -3.57987 1.08266 0
M  V30 371 H 34.7253 -6.73354 0.748357 0
M  V30 372 H 35.6683 -6.7065 2.27233 0
M  V30 373 H 36.0763 -5.56297 0.958842 0
M  V30 374 N 35.4744 -0.807222 -1.35358 0
M  V30 375 C 36.7204 -0.388463 -1.99045 0
M  V30 376 C 37.0534 1.04184 -1.63888 0
M  V30 377 O 36.3284 1.72292 -0.902535 0
M  V30 378 C 36.6114 -0.572783 -3.55515 0
M  V30 379 C 36.4644 -2.04807 -4.00468 0
M  V30 380 C 37.7834 0.00114064 -4.401 0
M  V30 381 H 34.9024 -0.142619 -0.723069 0
M  V30 382 H 37.5444 -1.01687 -1.60498 0
M  V30 383 H 35.6944 -0.0378425 -3.88482 0
M  V30 384 H 37.3664 -2.64544 -3.77908 0
M  V30 385 H 35.6094 -2.54427 -3.51353 0
M  V30 386 H 36.2804 -2.12792 -5.09337 0
M  V30 387 H 38.7564 -0.455716 -4.13597 0
M  V30 388 H 37.6324 -0.157737 -5.48673 0
M  V30 389 H 37.8934 1.09488 -4.28328 0
M  V30 390 N 36.9525 1.47285 -0.560781 0
M  V30 391 C 38.3685 1.58065 -0.22081 0
M  V30 392 C 38.5685 1.55892 1.27671 0
M  V30 393 O 37.6245 1.46422 2.0571 0
M  V30 394 C 38.9375 2.88418 -0.850625 0
M  V30 395 C 40.4855 3.02009 -0.822184 0
M  V30 396 C 40.9605 4.35066 -1.43113 0
M  V30 397 N 42.4515 4.41711 -1.39448 0
M  V30 398 C 43.1865 5.43237 -1.83525 0
M  V30 399 N 42.6825 6.51555 -2.35474 0
M  V30 400 N 44.4755 5.34304 -1.74574 0
M  V30 401 H 36.6265 1.46941 -1.53369 0
M  V30 402 H 38.8895 0.699558 -0.639783 0
M  V30 403 H 38.5955 2.95755 -1.9032 0
M  V30 404 H 38.4695 3.75612 -0.345773 0
M  V30 405 H 40.8565 2.94266 0.221714 0
M  V30 406 H 40.9375 2.16347 -1.36483 0
M  V30 407 H 40.5815 4.43565 -2.47412 0
M  V30 408 H 40.5115 5.19465 -0.863899 0
M  V30 409 H 43.0025 3.64027 -1.01452 0
M  V30 410 H 43.3155 7.25203 -2.67021 0
M  V30 411 H 41.6605 6.52435 -2.39487 0
M  V30 412 H 44.8515 4.48581 -1.33763 0
M  V30 413 H 45.0245 6.13288 -2.09242 0
M  V30 414 N 38.4306 0.297415 1.54768 0
M  V30 415 C 39.7076 -0.365847 1.92148 0
M  V30 416 C 40.0876 -1.71975 1.22424 0
M  V30 417 O 39.4356 -2.25666 0.358739 0
M  V30 418 C 39.6456 -0.484056 3.45627 0
M  V30 419 C 40.9936 -0.756594 4.17805 0
M  V30 420 O 42.0176 -0.568007 3.51642 0
M  V30 421 O 40.8766 -1.11863 5.34929 0
M  V30 422 H 37.9706 -0.203919 0.801465 0
M  V30 423 H 40.5166 0.34521 1.66152 0
M  V30 424 H 39.2886 0.467865 3.88493 0
M  V30 425 H 38.9116 -1.24372 3.77647 0
M  V30 426 N 39.9087 -1.5758 0.0250728 0
M  V30 427 C 40.8717 -2.08896 -0.943139 0
M  V30 428 C 41.8717 -1.00321 -1.25668 0
M  V30 429 O 43.0617 -1.26495 -1.19769 0
M  V30 430 C 40.1937 -2.55143 -2.26086 0
M  V30 431 H 41.3867 -2.95723 -0.498775 0
M  V30 432 H 38.9397 -1.54703 -0.222888 0
M  V30 433 H 39.6747 -1.71633 -2.75159 0
M  V30 434 H 39.4597 -3.34461 -2.04641 0
M  V30 435 H 40.9497 -2.95083 -2.95492 0
M  V30 436 N 41.3868 0.248026 -1.55636 0
M  V30 437 C 42.3498 1.29044 -1.89421 0
M  V30 438 C 43.3498 1.41134 -0.770581 0
M  V30 439 O 44.5398 1.39854 -1.03858 0
M  V30 440 C 41.6718 2.66831 -2.12165 0
M  V30 441 H 42.8648 1.00305 -2.82629 0
M  V30 442 H 40.4178 0.487265 -1.48511 0
M  V30 443 H 41.1528 3.00711 -1.21422 0
M  V30 444 H 40.9378 2.59438 -2.93997 0
M  V30 445 H 42.4278 3.42103 -2.3949 0
M  V30 446 N 42.8649 1.48995 0.513639 0
M  V30 447 C 43.8149 1.61127 1.61314 0
M  V30 448 C 44.7989 0.467521 1.53958 0
M  V30 449 O 45.9909 0.719826 1.61702 0
M  V30 450 C 43.1199 1.66937 2.99978 0
M  V30 451 C 42.2059 2.86847 3.12377 0
M  V30 452 N 42.5969 4.11078 2.94701 0
M  V30 453 C 40.8949 2.84521 3.43459 0
M  V30 454 C 41.5959 4.91615 3.10949 0
M  V30 455 N 40.5719 4.24739 3.3926 0
M  V30 456 H 44.3739 2.54909 1.46282 0
M  V30 457 H 41.8879 1.45593 0.719483 0
M  V30 458 H 43.8849 1.73725 3.78979 0
M  V30 459 H 42.5449 0.742831 3.16089 0
M  V30 460 H 43.5559 4.41258 2.71131 0
M  V30 461 H 40.2329 2.01192 3.65825 0
M  V30 462 H 41.6229 6.00264 3.01882 0
M  V30 463 N 44.343 -0.763751 1.37857 0
M  V30 464 C 45.306 -1.85889 1.34081 0
M  V30 465 C 46.306 -1.58949 0.243277 0
M  V30 466 O 47.496 -1.66882 0.499589 0
M  V30 467 C 44.628 -3.23176 1.08489 0
M  V30 468 H 45.821 -1.90648 2.31502 0
M  V30 469 H 43.374 -0.964367 1.23003 0
M  V30 470 H 44.109 -3.24091 0.116318 0
M  V30 471 H 43.894 -3.44124 1.8794 0
M  V30 472 H 45.384 -4.03254 1.08517 0
M  V30 473 N 45.8211 -1.22559 -0.990812 0
M  V30 474 C 47.0511 -1.07623 -1.76355 0
M  V30 475 C 47.4591 0.37601 -1.85426 0
M  V30 476 O 46.8021 1.27228 -1.32509 0
M  V30 477 C 46.8641 -1.61507 -3.21179 0
M  V30 478 C 46.5281 -3.10146 -3.35646 0
M  V30 479 C 47.5251 -4.07553 -3.22796 0
M  V30 480 C 45.2101 -3.49644 -3.60631 0
M  V30 481 C 47.2041 -5.42442 -3.34716 0
M  V30 482 C 44.8911 -4.84682 -3.72192 0
M  V30 483 C 45.8891 -5.8089 -3.59243 0
M  V30 484 O 45.5771 -7.13476 -3.70415 0
M  V30 485 H 45.3091 -0.377745 -0.560611 0
M  V30 486 H 47.8631 -1.62658 -1.25425 0
M  V30 487 H 46.0931 -1.00881 -3.73309 0
M  V30 488 H 47.7821 -1.42202 -3.80175 0
M  V30 489 H 48.5481 -3.78381 -3.03403 0
M  V30 490 H 44.4271 -2.75282 -3.69785 0
M  V30 491 H 47.9711 -6.17518 -3.24526 0
M  V30 492 H 43.8681 -5.13534 -3.91092 0
M  V30 493 H 44.6361 -7.21083 -3.87275 0
M  V30 494 N 47.2992 1.18797 -1.03562 0
M  V30 495 C 48.2622 2.20464 -0.626769 0
M  V30 496 C 49.2622 1.57721 0.313173 0
M  V30 497 O 50.4522 1.73917 0.0992615 0
M  V30 498 C 47.5842 3.40802 0.0818498 0
M  V30 499 H 48.7772 2.58149 -1.5264 0
M  V30 500 H 46.3302 1.32593 -0.827578 0
M  V30 501 H 47.0652 3.08642 0.995518 0
M  V30 502 H 46.8502 3.8758 -0.593652 0
M  V30 503 H 48.3402 4.16092 0.354584 0
M  V30 504 N 48.7773 0.814389 1.34928 0
M  V30 505 C 49.7093 0.187834 2.28429 0
M  V30 506 C 50.7223 -0.617374 1.5064 0
M  V30 507 O 51.9113 -0.448454 1.72775 0
M  V30 508 C 49.0113 -0.755962 3.30361 0
M  V30 509 C 48.1843 0.00456686 4.374 0
M  V30 510 C 47.2433 -0.858876 5.19143 0
M  V30 511 O 46.2693 -0.306968 5.68372 0
M  V30 512 N 47.4713 -2.17988 5.38016 0
M  V30 513 H 50.2363 0.991105 2.82838 0
M  V30 514 H 47.7973 0.670561 1.4736 0
M  V30 515 H 49.7893 -1.338 3.81942 0
M  V30 516 H 48.3593 -1.46001 2.7641 0
M  V30 517 H 47.5793 0.767865 3.86649 0
M  V30 518 H 48.8673 0.528422 5.06049 0
M  V30 519 H 48.2653 -2.65212 4.99679 0
M  V30 520 H 46.8223 -2.71098 5.92747 0
M  V30 521 N 50.2554 -1.46986 0.568584 0
M  V30 522 C 51.5034 -2.02041 0.0487022 0
M  V30 523 C 51.8244 -1.44408 -1.31039 0
M  V30 524 O 51.0944 -0.623477 -1.85714 0
M  V30 525 H 49.6744 -0.746849 0.015014 0
M  V30 526 H 52.3364 -1.80257 0.741168 0
M  V30 527 H 51.4324 -3.12085 -0.0308961 0
M  V30 528 N 51.7335 -0.305618 -1.54608 0
M  V30 529 C 52.6805 0.568421 -2.23691 0
M  V30 530 C 53.6505 1.12592 -1.22116 0
M  V30 531 O 54.8355 1.16959 -1.50749 0
M  V30 532 C 51.9755 1.7322 -2.98477 0
M  V30 533 C 51.0885 1.20566 -4.14835 0
M  V30 534 C 50.2235 2.33368 -4.77193 0
M  V30 535 C 49.2625 1.7787 -5.85686 0
M  V30 536 N 48.3995 2.84263 -6.4198 0
M  V30 537 H 53.2395 -0.0272867 -2.97988 0
M  V30 538 H 50.7765 -0.0252363 -1.47078 0
M  V30 539 H 52.7345 2.41675 -3.40072 0
M  V30 540 H 51.3645 2.29947 -2.26548 0
M  V30 541 H 50.4165 0.413223 -3.78149 0
M  V30 542 H 51.7285 0.759417 -4.92985 0
M  V30 543 H 50.8825 3.09761 -5.21664 0
M  V30 544 H 49.6215 2.8132 -3.98385 0
M  V30 545 H 48.6265 0.99968 -5.40635 0
M  V30 546 H 49.8515 1.30816 -6.66381 0
M  V30 547 H 47.7975 3.31541 -5.66053 0
M  V30 548 H 47.7145 2.44149 -7.15491 0
M  V30 549 H 48.9825 3.6054 -6.91109 0
M  V30 550 N 53.2116 1.57565 -0.0334293 0
M  V30 551 C 54.1416 2.13511 0.945265 0
M  V30 552 C 55.1226 1.05231 1.33643 0
M  V30 553 O 56.3076 1.33084 1.41429 0
M  V30 554 C 53.4376 2.6657 2.22616 0
M  V30 555 C 52.3916 3.79676 1.97561 0
M  V30 556 C 51.7176 4.1918 3.31952 0
M  V30 557 C 53.0176 5.0557 1.31135 0
M  V30 558 H 54.7116 2.95538 0.479325 0
M  V30 559 H 52.2576 1.42166 0.229115 0
M  V30 560 H 54.2106 3.04344 2.91466 0
M  V30 561 H 52.9346 1.8171 2.71384 0
M  V30 562 H 51.5936 3.42347 1.31127 0
M  V30 563 H 51.2416 3.31296 3.78487 0
M  V30 564 H 50.9416 4.95402 3.15992 0
M  V30 565 H 52.4656 4.59541 4.02063 0
M  V30 566 H 53.8796 5.40903 1.89992 0
M  V30 567 H 52.2766 5.86818 1.25559 0
M  V30 568 H 53.3466 4.84062 0.284894 0
M  V30 569 N 54.6897 -0.239769 1.55765 0
M  V30 570 C 55.6527 -1.28038 1.90103 0
M  V30 571 C 56.6527 -1.40723 0.778055 0
M  V30 572 O 57.8427 -1.39301 1.04599 0
M  V30 573 C 54.9747 -2.65702 2.13577 0
M  V30 574 H 56.1677 -0.988048 2.83157 0
M  V30 575 H 53.7207 -0.479382 1.48767 0
M  V30 576 H 54.4557 -3.00063 1.23015 0
M  V30 577 H 54.2407 -2.57875 2.95369 0
M  V30 578 H 55.7307 -3.40828 2.41301 0
M  V30 579 N 56.1678 -1.49265 -0.50573 0
M  V30 580 C 57.5788 -1.51769 -1.08734 0
M  V30 581 C 57.9298 -0.301192 -1.93874 0
M  V30 582 O 57.0548 0.589456 -2.08217 0
M  V30 583 C 57.6498 -2.75017 -1.97867 0
M  V30 584 C 56.2088 -2.80314 -2.51199 0
M  V30 585 C 55.3558 -2.4562 -1.28709 0
M  V30 586 H 58.3068 -1.56031 -0.289855 0
M  V30 587 H 58.3278 -2.5491 -2.82491 0
M  V30 588 H 57.8398 -3.63539 -1.35873 0
M  V30 589 H 55.9408 -1.96061 -3.16845 0
M  V30 590 H 56.0538 -3.82366 -2.88675 0
M  V30 591 H 54.4178 -1.97297 -1.61078 0
M  V30 592 H 55.2008 -3.36411 -0.6843 0
M  V30 593 N 57.6459 0.756429 -1.3826 0
M  V30 594 C 59.0619 1.0591 -1.19395 0
M  V30 595 C 59.2619 2.01459 -0.0406567 0
M  V30 596 O 58.3179 2.44909 0.614467 0
M  V30 597 C 59.6309 1.64191 -2.51916 0
M  V30 598 C 61.1789 1.76376 -2.58574 0
M  V30 599 C 61.6539 2.38069 -3.91264 0
M  V30 600 N 63.1449 2.45503 -3.92788 0
M  V30 601 C 63.8799 2.94126 -4.92217 0
M  V30 602 N 63.3759 3.42805 -6.02043 0
M  V30 603 N 65.1689 2.9314 -4.7961 0
M  V30 604 H 57.3199 0.122313 -2.12048 0
M  V30 605 H 59.5829 0.116892 -0.940766 0
M  V30 606 H 59.2889 1.01451 -3.3675 0
M  V30 607 H 59.1629 2.6329 -2.70108 0
M  V30 608 H 61.5499 2.38244 -1.74137 0
M  V30 609 H 61.6309 0.759894 -2.44252 0
M  V30 610 H 61.2749 1.76835 -4.76121 0
M  V30 611 H 61.2049 3.39091 -4.02895 0
M  V30 612 H 63.6959 2.1107 -3.13461 0
M  V30 613 H 64.0089 3.78354 -6.73846 0
M  V30 614 H 62.3539 3.4087 -6.05667 0
M  V30 615 H 65.5449 2.54419 -3.92923 0
M  V30 616 H 65.7179 3.30721 -5.5725 0
M  V30 617 N 59.124 1.23083 0.984299 0
M  V30 618 C 60.37 1.06214 1.72761 0
M  V30 619 C 60.703 -0.400584 1.90024 0
M  V30 620 O 59.978 -1.29672 1.44967 0
M  V30 621 C 60.261 1.78375 3.12817 0
M  V30 622 C 60.114 3.32296 3.03149 0
M  V30 623 C 61.433 1.54309 4.12161 0
M  V30 624 H 58.552 0.387251 0.627061 0
M  V30 625 H 61.194 1.51536 1.14616 0
M  V30 626 H 59.344 1.39848 3.62457 0
M  V30 627 H 61.016 3.8032 2.61064 0
M  V30 628 H 59.259 3.6153 2.39747 0
M  V30 629 H 59.93 3.77972 4.02295 0
M  V30 630 H 62.406 1.87791 3.71314 0
M  V30 631 H 61.282 2.07281 5.08258 0
M  V30 632 H 61.543 0.477572 4.39513 0
M  V30 633 N 60.6021 -1.18246 1.0419 0
M  V30 634 C 61.8301 -1.92195 0.766072 0
M  V30 635 C 62.2451 -1.76247 -0.676933 0
M  V30 636 O 61.6021 -1.09293 -1.46155 0
M  V30 637 C 61.6531 -3.43568 1.12442 0
M  V30 638 O 61.3741 -3.59015 2.51078 0
M  V30 639 C 62.8751 -4.34613 0.873275 0
M  V30 640 H 60.0951 -0.610114 0.279288 0
M  V30 641 H 62.6391 -1.50007 1.38989 0
M  V30 642 H 60.7941 -3.8354 0.545542 0
M  V30 643 H 61.2081 -4.5273 2.64831 0
M  V30 644 H 62.6821 -5.39374 1.17385 0
M  V30 645 H 63.1591 -4.38781 -0.191909 0
M  V30 646 H 63.7651 -4.00341 1.43551 0
M  V30 647 N 62.0802 -0.821533 -1.34494 0
M  V30 648 C 62.9902 -0.244355 -2.33324 0
M  V30 649 C 64.0062 0.620527 -1.62559 0
M  V30 650 O 65.1822 0.528754 -1.94335 0
M  V30 651 C 62.2472 0.585368 -3.41723 0
M  V30 652 C 61.3082 -0.301752 -4.28238 0
M  V30 653 C 60.5412 0.488466 -5.3146 0
M  V30 654 O 60.7642 1.72186 -5.4379 0
M  V30 655 O 59.6982 -0.12848 -6.01763 0
M  V30 656 H 63.5242 -1.06231 -2.84515 0
M  V30 657 H 61.1092 -0.583645 -1.37528 0
M  V30 658 H 62.9912 1.05747 -4.07916 0
M  V30 659 H 61.6662 1.38068 -2.92778 0
M  V30 660 H 60.5732 -0.821315 -3.64973 0
M  V30 661 H 61.9062 -1.06138 -4.8062 0
M  V30 662 N 63.5583 1.46682 -0.576371 0
M  V30 663 C 64.5213 2.28707 0.150239 0
M  V30 664 C 65.5213 1.38035 0.824794 0
M  V30 665 O 66.7113 1.60476 0.677719 0
M  V30 666 C 63.8433 3.18248 1.22192 0
M  V30 667 H 65.0363 2.94423 -0.570521 0
M  V30 668 H 62.5893 1.52688 -0.334078 0
M  V30 669 H 63.3243 2.57265 1.97447 0
M  V30 670 H 63.1093 3.85 0.742812 0
M  V30 671 H 64.5993 3.80001 1.73172 0
M  V30 672 N 65.0364 0.313813 1.54444 0
M  V30 673 C 66.2834 -0.291675 2.00388 0
M  V30 674 C 66.6114 -1.52904 1.2021 0
M  V30 675 O 65.8664 -1.93833 0.269707 0
M  V30 676 C 66.1654 -0.680386 3.50864 0
M  V30 677 C 65.8314 0.456699 4.48581 0
M  V30 678 C 64.4934 0.768824 4.75018 0
M  V30 679 C 66.8454 1.22098 5.06697 0
M  V30 680 C 64.1734 1.84812 5.56831 0
M  V30 681 C 66.5254 2.29029 5.89685 0
M  V30 682 C 65.1894 2.60834 6.14428 0
M  V30 683 H 64.4594 -0.106732 0.733273 0
M  V30 684 H 67.1064 0.43557 1.86481 0
M  V30 685 H 65.4114 -1.48791 3.62448 0
M  V30 686 H 67.1084 -1.16026 3.83847 0
M  V30 687 H 63.6984 0.203337 4.28117 0
M  V30 688 H 67.8824 0.993096 4.86263 0
M  V30 689 H 63.1384 2.09912 5.74236 0
M  V30 690 H 67.3124 2.887 6.33739 0
M  V30 691 H 64.9394 3.44596 6.77612 0
M  V30 692 N 66.5145 -1.57545 0.0417849 0
M  V30 693 C 67.9305 -1.56467 -0.314704 0
M  V30 694 C 68.1305 -1.04859 -1.72066 0
M  V30 695 O 67.1865 -0.700983 -2.42575 0
M  V30 696 C 68.4995 -3.00317 -0.15174 0
M  V30 697 C 70.0475 -3.12201 -0.223553 0
M  V30 698 C 70.5225 -4.57913 -0.0892295 0
M  V30 699 N 72.0135 -4.6297 -0.145808 0
M  V30 700 C 72.7485 -5.73362 -0.0658459 0
M  V30 701 N 72.2445 -6.92769 0.0659282 0
M  V30 702 N 74.0375 -5.6197 -0.12075 0
M  V30 703 H 66.1885 -1.89416 0.961014 0
M  V30 704 H 68.4515 -0.871862 0.372237 0
M  V30 705 H 68.1575 -3.42073 0.817254 0
M  V30 706 H 68.0315 -3.65892 -0.916692 0
M  V30 707 H 70.4185 -2.70349 -1.18301 0
M  V30 708 H 70.4995 -2.49323 0.571994 0
M  V30 709 H 70.1435 -5.00448 0.866867 0
M  V30 710 H 70.0735 -5.18786 -0.903802 0
M  V30 711 H 72.5645 -3.7709 -0.247286 0
M  V30 712 H 72.8775 -7.72707 0.119905 0
M  V30 713 H 71.2225 -6.94927 0.100885 0
M  V30 714 H 74.4135 -4.67572 -0.222187 0
M  V30 715 H 74.5865 -6.47977 -0.0549735 0
M  V30 716 N 67.9926 0.231505 -1.5589 0
M  V30 717 C 68.9426 1.29007 -1.87993 0
M  V30 718 C 69.9266 1.42764 -0.742102 0
M  V30 719 O 71.1186 1.45747 -1.00433 0
M  V30 720 C 68.2476 2.6425 -2.1915 0
M  V30 721 C 67.3336 2.54435 -3.39299 0
M  V30 722 N 67.7246 2.14262 -4.58176 0
M  V30 723 C 66.0226 2.85416 -3.42715 0
M  V30 724 C 66.7236 2.15455 -5.40328 0
M  V30 725 N 65.6996 2.55558 -4.79783 0
M  V30 726 H 69.5016 0.970213 -2.77424 0
M  V30 727 H 67.0156 0.440097 -1.56323 0
M  V30 728 H 69.0126 3.40665 -2.40319 0
M  V30 729 H 67.6726 2.9709 -1.31025 0
M  V30 730 H 68.6836 1.85554 -4.83518 0
M  V30 731 H 65.3606 3.22693 -2.64906 0
M  V30 732 H 66.7506 1.86605 -6.45467 0
M  V30 733 N 69.4707 1.49531 0.497807 0
M  V30 734 C 70.3807 1.69176 1.62532 0
M  V30 735 C 71.3967 0.5744 1.64246 0
M  V30 736 O 72.5727 0.849497 1.82608 0
M  V30 737 C 69.6377 1.75695 2.98885 0
M  V30 738 C 68.6987 2.9929 3.07773 0
M  V30 739 C 67.9317 3.05488 4.37622 0
M  V30 740 O 68.1547 2.19192 5.26603 0
M  V30 741 O 67.0887 3.9798 4.51548 0
M  V30 742 H 70.9147 2.647 1.48887 0
M  V30 743 H 68.4997 1.3331 0.674441 0
M  V30 744 H 70.3817 1.82317 3.79919 0
M  V30 745 H 69.0567 0.8335 3.12785 0
M  V30 746 H 67.9637 2.98183 2.25915 0
M  V30 747 H 69.2967 3.91125 2.98801 0
M  V30 748 N 70.9488 -0.749086 1.3866 0
M  V30 749 C 72.1768 -1.53834 1.38358 0
M  V30 750 C 72.5918 -1.88783 -0.0255219 0
M  V30 751 O 71.9488 -1.53101 -0.993292 0
M  V30 752 C 71.9998 -2.83468 2.2434 0
M  V30 753 O 71.7208 -2.50008 3.5976 0
M  V30 754 C 73.2218 -3.7758 2.32267 0
M  V30 755 H 70.4418 -0.47585 0.473083 0
M  V30 756 H 72.9858 -0.926726 1.82297 0
M  V30 757 H 71.1408 -3.40995 1.83851 0
M  V30 758 H 71.5548 -3.33182 4.05081 0
M  V30 759 H 73.0288 -4.65478 2.96706 0
M  V30 760 H 73.5058 -4.18334 1.33765 0
M  V30 761 H 74.1118 -3.25976 2.73166 0
M  V30 762 N 72.4269 -1.23603 -0.977757 0
M  V30 763 C 73.6549 -1.09646 -1.75458 0
M  V30 764 C 74.0699 0.351859 -1.85492 0
M  V30 765 O 73.4269 1.24327 -1.336 0
M  V30 766 C 73.4779 -1.71895 -3.18016 0
M  V30 767 O 73.1989 -3.11063 -3.08498 0
M  V30 768 C 74.6999 -1.63415 -4.12081 0
M  V30 769 H 71.9199 -0.38359 -0.550545 0
M  V30 770 H 74.4639 -1.63507 -1.22824 0
M  V30 771 H 72.6189 -1.22061 -3.67668 0
M  V30 772 H 73.0329 -3.41305 -3.9826 0
M  V30 773 H 74.5069 -2.11669 -5.09804 0
M  V30 774 H 74.9839 -0.593462 -4.35172 0
M  V30 775 H 75.5899 -2.12628 -3.68334 0
M  V30 776 N 73.905 1.17692 -1.04816 0
M  V30 777 C 75.182 1.83768 -0.669963 0
M  V30 778 C 75.562 1.93232 0.849986 0
M  V30 779 O 74.91 1.46397 1.75443 0
M  V30 780 C 75.12 3.21641 -1.35455 0
M  V30 781 C 76.468 3.97592 -1.49017 0
M  V30 782 O 77.492 3.31107 -1.31326 0
M  V30 783 O 76.351 5.16729 -1.77914 0
M  V30 784 H 73.445 0.792799 -0.235368 0
M  V30 785 H 75.991 1.25021 -1.14751 0
M  V30 786 H 74.763 3.097 -2.39168 0
M  V30 787 H 74.386 3.88052 -0.866107 0
M  V30 788 N 75.3831 0.828654 1.34056 0
M  V30 789 C 76.3461 0.259927 2.27721 0
M  V30 790 C 77.3461 -0.565478 1.50529 0
M  V30 791 O 78.5361 -0.38075 1.69988 0
M  V30 792 C 75.6681 -0.634944 3.34935 0
M  V30 793 H 76.8611 1.0863 2.79534 0
M  V30 794 H 74.4141 0.600951 1.44285 0
M  V30 795 H 75.1491 -1.48416 2.88346 0
M  V30 796 H 74.9341 -0.0444999 3.92075 0
M  V30 797 H 76.4241 -1.02648 4.04788 0
M  V30 798 N 76.8612 -1.46375 0.584142 0
M  V30 799 C 77.8242 -2.28784 -0.138108 0
M  V30 800 C 78.8242 -1.38471 -0.817462 0
M  V30 801 O 80.0142 -1.60833 -0.669199 0
M  V30 802 C 77.1462 -3.18892 -1.20503 0
M  V30 803 H 78.3392 -2.94117 0.586127 0
M  V30 804 H 75.8922 -1.52509 0.342171 0
M  V30 805 H 76.6272 -2.58309 -1.96079 0
M  V30 806 H 76.4122 -3.85388 -0.722384 0
M  V30 807 H 77.9022 -3.80914 -1.71155 0
M  V30 808 N 78.3393 -0.321999 -1.54275 0
M  V30 809 C 79.5883 0.281931 -1.9972 0
M  V30 810 C 79.9013 1.53369 -1.21397 0
M  V30 811 O 81.1073 2.21352 -1.57211 0
M  V30 812 C 79.5633 0.5529 -3.55628 0
M  V30 813 C 79.1713 -0.681721 -4.42783 0
M  V30 814 C 80.9153 1.11687 -4.09544 0
M  V30 815 C 78.8223 -0.382742 -5.9016 0
M  V30 816 H 77.7523 0.109124 -0.746062 0
M  V30 817 H 80.4033 -0.43398 -1.78294 0
M  V30 818 H 78.7853 1.32896 -3.73035 0
M  V30 819 H 79.9593 -1.45723 -4.37151 0
M  V30 820 H 78.2743 -1.1658 -3.99748 0
M  V30 821 H 80.8713 1.35515 -5.17242 0
M  V30 822 H 81.2143 2.06575 -3.61431 0
M  V30 823 H 81.7473 0.402032 -3.95763 0
M  V30 824 H 78.4863 -1.30076 -6.42464 0
M  V30 825 H 78.0063 0.355094 -5.98748 0
M  V30 826 H 79.6853 0.00800157 -6.47 0
M  V30 827 N 79.8174 1.5752 -0.0501392 0
M  V30 828 C 81.0644 1.9265 0.623874 0
M  V30 829 C 81.3924 0.928411 1.70912 0
M  V30 830 O 80.6474 -0.0594525 1.9561 0
M  V30 831 C 80.9464 3.34467 1.25963 0
M  V30 832 C 80.6124 4.49883 0.302689 0
M  V30 833 C 79.2744 4.81184 0.0393636 0
M  V30 834 C 81.6264 5.20002 -0.353205 0
M  V30 835 C 78.9544 5.79951 -0.887308 0
M  V30 836 C 81.3064 6.1976 -1.26806 0
M  V30 837 C 79.9704 6.49491 -1.54007 0
M  V30 838 H 79.2404 0.704957 0.228292 0
M  V30 839 H 81.8874 1.91146 -0.116398 0
M  V30 840 H 80.1924 3.32333 2.07514 0
M  V30 841 H 81.8894 3.58928 1.78806 0
M  V30 842 H 78.4794 4.25457 0.518109 0
M  V30 843 H 82.6634 4.96033 -0.162854 0
M  V30 844 H 77.9194 6.01322 -1.10553 0
M  V30 845 H 82.0934 6.73205 -1.78236 0
M  V30 846 H 79.7204 7.25837 -2.25976 0
M  V30 847 N 81.2955 -0.223234 1.56011 0
M  V30 848 C 82.7115 -0.572856 1.48965 0
M  V30 849 C 82.9115 -1.87225 0.74492 0
M  V30 850 O 81.9675 -2.50899 0.283896 0
M  V30 851 C 83.2805 -0.653646 2.9351 0
M  V30 852 C 84.8285 -0.744386 3.0402 0
M  V30 853 C 85.3035 -0.856535 4.49919 0
M  V30 854 N 86.7945 -0.9208 4.53955 0
M  V30 855 C 87.5295 -1.02726 5.64123 0
M  V30 856 N 87.0255 -1.09777 6.84047 0
M  V30 857 N 88.8185 -1.06226 5.51971 0
M  V30 858 H 80.9695 0.629462 2.02858 0
M  V30 859 H 83.2325 0.220621 0.921971 0
M  V30 860 H 82.9385 0.231518 3.50937 0
M  V30 861 H 82.8125 -1.51781 3.45315 0
M  V30 862 H 85.1995 -1.61999 2.46658 0
M  V30 863 H 85.2805 0.14541 2.55386 0
M  V30 864 H 84.9245 0.0146069 5.07898 0
M  V30 865 H 84.8545 -1.76172 4.96257 0
M  V30 866 H 87.3455 -0.876694 3.6759 0
M  V30 867 H 87.6585 -1.17872 7.63758 0
M  V30 868 H 86.0035 -1.06693 6.86762 0
M  V30 869 H 89.1945 -1.00382 4.5721 0
M  V30 870 H 89.3675 -1.14177 6.37862 0
M  V30 871 N 82.7736 -1.49793 -0.48987 0
M  V30 872 C 83.6836 -1.70036 -1.61632 0
M  V30 873 C 84.6996 -0.583102 -1.63939 0
M  V30 874 O 85.8756 -0.859169 -1.82154 0
M  V30 875 C 82.9406 -1.77277 -2.97949 0
M  V30 876 C 82.0016 -3.00918 -3.06181 0
M  V30 877 C 81.2346 -3.07804 -4.35996 0
M  V30 878 O 81.4576 -2.21982 -5.25433 0
M  V30 879 O 80.3916 -4.00369 -4.49431 0
M  V30 880 H 84.2176 -2.65486 -1.47482 0
M  V30 881 H 81.8026 -1.33666 -0.667362 0
M  V30 882 H 83.6846 -1.84329 -3.78947 0
M  V30 883 H 82.3596 -0.850076 -3.12339 0
M  V30 884 H 81.2666 -2.99377 -2.2433 0
M  V30 885 H 82.5996 -3.92704 -2.96723 0
M  V30 886 N 84.2517 0.741722 -1.39055 0
M  V30 887 C 85.1847 1.86416 -1.31622 0
M  V30 888 C 86.1627 1.61473 -0.191076 0
M  V30 889 O 87.3467 1.84825 -0.370399 0
M  V30 890 C 84.4737 3.22266 -1.04221 0
M  V30 891 C 83.5197 3.66079 -2.18834 0
M  V30 892 S 84.3527 3.7623 -3.81066 0
M  V30 893 C 85.5087 5.14881 -3.55877 0
M  V30 894 H 85.7417 1.92437 -2.26617 0
M  V30 895 H 83.2747 0.905907 -1.25031 0
M  V30 896 H 85.2327 4.00714 -0.890964 0
M  V30 897 H 83.8937 3.1391 -0.109237 0
M  V30 898 H 83.0867 4.64648 -1.95238 0
M  V30 899 H 82.6887 2.94817 -2.30128 0
M  V30 900 H 84.9807 6.01006 -3.12726 0
M  V30 901 H 85.9237 5.43503 -4.53884 0
M  V30 902 H 86.3317 4.84239 -2.90126 0
M  V30 903 N 85.7298 1.2412 0.971189 0
M  V30 904 C 86.9778 1.07668 1.71032 0
M  V30 905 C 87.2988 -0.385797 1.91146 0
M  V30 906 O 86.5688 -1.27569 1.4867 0
M  V30 907 H 85.1488 0.395429 0.633755 0
M  V30 908 H 87.8108 1.55984 1.16855 0
M  V30 909 H 86.9068 1.57195 2.69622 0
M  V30 910 N 87.2079 -1.17134 1.05439 0
M  V30 911 C 88.1179 -2.24878 0.668365 0
M  V30 912 C 89.1339 -1.71186 -0.311687 0
M  V30 913 O 90.3099 -2.00738 -0.163161 0
M  V30 914 C 87.3749 -3.46662 0.051648 0
M  V30 915 C 86.4359 -4.15429 1.08246 0
M  V30 916 C 85.6689 -5.31399 0.495082 0
M  V30 917 O 85.8919 -5.66153 -0.694743 0
M  V30 918 O 84.8259 -5.89187 1.23056 0
M  V30 919 H 88.6519 -2.60189 1.56637 0
M  V30 920 H 86.2369 -1.24482 0.826104 0
M  V30 921 H 88.1189 -4.20394 -0.290966 0
M  V30 922 H 86.7939 -3.13142 -0.819971 0
M  V30 923 H 85.7009 -3.43704 1.47711 0
M  V30 924 H 87.0339 -4.52982 1.92532 0
M  V30 925 N 88.686 -0.835752 -1.33615 0
M  V30 926 C 89.935 -0.426289 -1.97144 0
M  V30 927 C 90.248 1.01912 -1.66953 0
M  V30 928 O 91.454 1.53311 -2.24072 0
M  V30 929 C 89.91 -0.711321 -3.52801 0
M  V30 930 C 89.518 -2.1712 -3.91871 0
M  V30 931 C 91.262 -0.368654 -4.22896 0
M  V30 932 C 89.169 -2.40044 -5.40493 0
M  V30 933 H 88.099 -0.15567 -0.737755 0
M  V30 934 H 90.75 -1.0239 -1.52278 0
M  V30 935 H 89.132 -0.0433766 -3.95976 0
M  V30 936 H 90.306 -2.87936 -3.59763 0
M  V30 937 H 88.621 -2.47654 -3.34749 0
M  V30 938 H 91.218 -0.517601 -5.32189 0
M  V30 939 H 91.561 0.688078 -4.10574 0
M  V30 940 H 92.094 -0.991702 -3.8524 0
M  V30 941 H 88.833 -3.44271 -5.57815 0
M  V30 942 H 88.353 -1.73785 -5.74072 0
M  V30 943 H 90.032 -2.23042 -6.0734 0
M  V30 944 N 90.1641 1.46063 -0.591896 0
M  V30 945 C 91.4121 2.01938 -0.0808391 0
M  V30 946 C 91.7331 1.46475 1.28725 0
M  V30 947 O 91.0031 0.652944 1.84698 0
M  V30 948 H 89.5831 0.746516 -0.0268938 0
M  V30 949 H 92.2451 1.79055 -0.769752 0
M  V30 950 H 91.3411 3.12094 -0.0187578 0
M  V30 951 N 91.6422 0.330177 1.54103 0
M  V30 952 C 92.5722 -0.525353 2.27513 0
M  V30 953 C 93.5532 -1.11383 1.2856 0
M  V30 954 O 94.7382 -1.13773 1.57383 0
M  V30 955 C 91.8682 -1.6831 3.03791 0
M  V30 956 C 90.8222 -1.2236 4.10137 0
M  V30 957 C 90.1482 -2.46882 4.74293 0
M  V30 958 C 91.4482 -0.333697 5.21233 0
M  V30 959 H 93.1422 0.087013 2.99274 0
M  V30 960 H 90.6882 0.0432893 1.43935 0
M  V30 961 H 92.6412 -2.28795 3.5388 0
M  V30 962 H 91.3652 -2.32216 2.29659 0
M  V30 963 H 90.0242 -0.64165 3.60941 0
M  V30 964 H 89.6722 -3.09165 3.96769 0
M  V30 965 H 89.3722 -2.16825 5.46133 0
M  V30 966 H 90.8962 -3.08117 5.27159 0
M  V30 967 H 92.3102 -0.845013 5.67038 0
M  V30 968 H 90.7072 -0.125612 5.99969 0
M  V30 969 H 91.7772 0.633724 4.80741 0
M  V30 970 N 93.1203 -1.57491 0.0584922 0
M  V30 971 C 94.0503 -2.14988 -0.911178 0
M  V30 972 C 95.0313 -1.07343 -1.31952 0
M  V30 973 O 96.2163 -1.35318 -1.39294 0
M  V30 974 C 93.3463 -2.70078 -2.18347 0
M  V30 975 C 92.3003 -3.82771 -1.91495 0
M  V30 976 C 91.6263 -4.24408 -3.25241 0
M  V30 977 C 92.9263 -5.07592 -1.23075 0
M  V30 978 H 94.6203 -2.96263 -0.432246 0
M  V30 979 H 92.1663 -1.42512 -0.206469 0
M  V30 980 H 94.1193 -3.08943 -2.86587 0
M  V30 981 H 92.8433 -1.86005 -2.68458 0
M  V30 982 H 91.5023 -3.44389 -1.25664 0
M  V30 983 H 91.1503 -3.37275 -3.73168 0
M  V30 984 H 90.8503 -5.00366 -3.08071 0
M  V30 985 H 92.3743 -4.65879 -3.94701 0
M  V30 986 H 93.7883 -5.43857 -1.81362 0
M  V30 987 H 92.1853 -5.88741 -1.16207 0
M  V30 988 H 93.2553 -4.84454 -0.207847 0
M  V30 989 N 94.5984 0.214957 -1.56127 0
M  V30 990 C 95.8464 0.936518 -1.79091 0
M  V30 991 C 96.1674 1.84606 -0.628148 0
M  V30 992 O 95.4374 1.92664 0.35462 0
M  V30 993 H 94.0174 0.3488 -0.660566 0
M  V30 994 H 96.6794 0.22523 -1.93594 0
M  V30 995 H 95.7754 1.53943 -2.71492 0
M  V30 996 N 96.0765 1.50051 0.48192 0
M  V30 997 C 97.4875 1.5348 1.06305 0
M  V30 998 C 97.8385 0.331997 1.93371 0
M  V30 999 O 96.9635 -0.556256 2.09129 0
M  V30 1000 C 97.5585 2.7813 1.93466 0
M  V30 1001 C 96.1175 2.84275 2.46707 0
M  V30 1002 C 95.2645 2.47637 1.24785 0
M  V30 1003 H 98.2155 1.56472 0.264995 0
M  V30 1004 H 98.2365 2.59372 2.78399 0
M  V30 1005 H 97.7485 3.65654 1.30072 0
M  V30 1006 H 95.8495 2.01077 3.13686 0
M  V30 1007 H 95.9625 3.8691 2.82555 0
M  V30 1008 H 94.3265 1.99835 1.57918 0
M  V30 1009 H 95.1095 3.37457 0.630694 0
M  V30 1010 N 97.5546 -0.734337 1.39446 0
M  V30 1011 C 98.7826 -1.52358 1.39981 0
M  V30 1012 C 99.1976 -1.88799 -0.0054975 0
M  V30 1013 O 98.5546 -1.54146 -0.976998 0
M  V30 1014 C 98.6056 -2.81072 2.27333 0
M  V30 1015 O 98.3266 -2.46178 3.62392 0
M  V30 1016 C 99.8276 -3.75096 2.36259 0
M  V30 1017 H 97.0476 -0.470806 0.478103 0
M  V30 1018 H 99.5916 -0.907339 1.83269 0
M  V30 1019 H 97.7466 -3.39026 1.87457 0
M  V30 1020 H 98.1606 -3.28866 4.08592 0
M  V30 1021 H 99.6346 -4.62305 3.01626 0
M  V30 1022 H 100.112 -4.16892 1.38194 0
M  V30 1023 H 100.718 -3.23061 2.76608 0
M  V30 1024 N 99.0327 -1.24633 -0.964593 0
M  V30 1025 C 100.282 -1.08188 -1.7023 0
M  V30 1026 C 100.595 0.37873 -1.91898 0
M  V30 1027 O 101.801 0.663427 -2.6327 0
M  V30 1028 C 100.257 -1.88773 -3.06419 0
M  V30 1029 C 99.8647 -3.39263 -2.92582 0
M  V30 1030 C 101.609 -1.80867 -3.84041 0
M  V30 1031 C 99.5157 -4.1218 -4.24101 0
M  V30 1032 H 98.4457 -0.401245 -0.638372 0
M  V30 1033 H 101.097 -1.48742 -1.07462 0
M  V30 1034 H 99.4787 -1.41035 -3.70034 0
M  V30 1035 H 100.653 -3.94603 -2.37961 0
M  V30 1036 H 98.9677 -3.48154 -2.28424 0
M  V30 1037 H 101.565 -2.32646 -4.81435 0
M  V30 1038 H 101.908 -0.774543 -4.09031 0
M  V30 1039 H 102.441 -2.26301 -3.27159 0
M  V30 1040 H 99.1797 -5.15965 -4.04303 0
M  V30 1041 H 98.6997 -3.61626 -4.78526 0
M  V30 1042 H 100.379 -4.19349 -4.92702 0
M  V30 1043 N 100.511 1.16574 -1.06058 0
M  V30 1044 C 101.922 1.68662 -0.800632 0
M  V30 1045 C 102.273 1.84184 0.67608 0
M  V30 1046 O 101.398 1.53568 1.52466 0
M  V30 1047 C 101.993 3.06356 -1.44676 0
M  V30 1048 C 100.552 3.55575 -1.23465 0
M  V30 1049 C 99.6988 2.31616 -1.52477 0
M  V30 1050 H 102.65 1.00969 -1.22438 0
M  V30 1051 H 102.671 3.70636 -0.860788 0
M  V30 1052 H 102.183 2.95027 -2.52152 0
M  V30 1053 H 100.284 3.72167 -0.179527 0
M  V30 1054 H 100.397 4.37812 -1.94571 0
M  V30 1055 H 98.7608 2.36512 -0.945209 0
M  V30 1056 H 99.5438 2.22887 -2.61106 0
M  V30 1057 N 101.989 0.842826 1.3317 0
M  V30 1058 C 102.899 0.281444 2.32906 0
M  V30 1059 C 103.915 -0.594587 1.63526 0
M  V30 1060 O 105.091 -0.49777 1.95152 0
M  V30 1061 C 102.156 -0.530929 3.42611 0
M  V30 1062 C 101.217 0.369843 4.27704 0
M  V30 1063 C 100.45 -0.403853 5.3217 0
M  V30 1064 O 100.673 -1.63513 5.46461 0
M  V30 1065 O 99.6069 0.224199 6.01482 0
M  V30 1066 H 103.433 1.10744 2.82789 0
M  V30 1067 H 101.018 0.60545 1.36582 0
M  V30 1068 H 102.9 -0.992437 4.09547 0
M  V30 1069 H 101.575 -1.33392 2.94938 0
M  V30 1070 H 100.482 0.879275 3.6362 0
M  V30 1071 H 101.815 1.13771 4.78871 0
M  V30 1072 N 103.467 -1.45747 0.599634 0
M  V30 1073 C 104.399 -2.28628 -0.161879 0
M  V30 1074 C 105.412 -1.39494 -0.839367 0
M  V30 1075 O 106.601 -1.63941 -0.706089 0
M  V30 1076 C 103.701 -3.15014 -1.24976 0
M  V30 1077 C 102.874 -4.32378 -0.660935 0
M  V30 1078 C 101.933 -5.00033 -1.63869 0
M  V30 1079 O 100.959 -5.57085 -1.1681 0
M  V30 1080 N 102.161 -4.98589 -2.97303 0
M  V30 1081 H 104.926 -2.94624 0.549265 0
M  V30 1082 H 102.487 -1.55847 0.438565 0
M  V30 1083 H 104.479 -3.5714 -1.9035 0
M  V30 1084 H 103.049 -2.5098 -1.86354 0
M  V30 1085 H 102.269 -3.9383 0.170688 0
M  V30 1086 H 103.557 -5.08197 -0.247619 0
M  V30 1087 H 102.955 -4.53514 -3.38145 0
M  V30 1088 H 101.512 -5.44603 -3.58121 0
M  V30 1089 N 104.945 -0.338344 -1.53925 0
M  V30 1090 C 106.175 0.260919 -2.04946 0
M  V30 1091 C 106.583 1.45174 -1.2133 0
M  V30 1092 O 105.926 1.82122 -0.240262 0
M  V30 1093 C 105.988 0.744596 -3.51704 0
M  V30 1094 C 105.652 -0.325883 -4.55837 0
M  V30 1095 C 106.649 -1.16687 -5.06636 0
M  V30 1096 C 104.334 -0.478317 -5.00017 0
M  V30 1097 C 106.328 -2.14588 -6.00192 0
M  V30 1098 C 104.015 -1.46073 -5.93385 0
M  V30 1099 C 105.013 -2.29297 -6.4336 0
M  V30 1100 O 104.701 -3.25867 -7.34892 0
M  V30 1101 H 104.433 0.0551207 -0.673749 0
M  V30 1102 H 106.987 -0.486984 -1.99544 0
M  V30 1103 H 105.217 1.54366 -3.54553 0
M  V30 1104 H 106.906 1.26383 -3.85723 0
M  V30 1105 H 107.672 -1.06016 -4.73271 0
M  V30 1106 H 103.551 0.159613 -4.60724 0
M  V30 1107 H 107.095 -2.79585 -6.39123 0
M  V30 1108 H 102.992 -1.56802 -6.26166 0
M  V30 1109 H 103.76 -3.21278 -7.5281 0
M  V30 1110 N 106.423 1.57458 -0.0668435 0
M  V30 1111 C 107.671 1.92919 0.602214 0
M  V30 1112 C 107.992 0.947215 1.70449 0
M  V30 1113 O 107.262 -0.00544117 1.95899 0
M  V30 1114 H 105.842 0.71217 0.22544 0
M  V30 1115 H 108.504 1.94508 -0.123535 0
M  V30 1116 H 107.6 2.94589 1.03073 0
M  V30 1117 N 107.901 -0.206675 1.56239 0
M  V30 1118 C 109.149 -0.927007 1.79586 0
M  V30 1119 C 109.47 -1.8427 0.637929 0
M  V30 1120 O 108.74 -1.92849 -0.344398 0
M  V30 1121 H 107.32 -0.345292 0.662407 0
M  V30 1122 H 109.982 -0.21496 1.93711 0
M  V30 1123 H 109.078 -1.52501 2.72305 0
M  V30 1124 N 109.379 -1.50304 -0.473955 0
M  V30 1125 C 110.79 -1.54042 -1.0549 0
M  V30 1126 C 111.141 -0.342248 -1.93192 0
M  V30 1127 O 110.266 0.545157 -2.09421 0
M  V30 1128 C 110.861 -2.79152 -1.91989 0
M  V30 1129 C 109.42 -2.8558 -2.45196 0
M  V30 1130 C 108.567 -2.48295 -1.2347 0
M  V30 1131 H 111.518 -1.5661 -0.256693 0
M  V30 1132 H 111.539 -2.60845 -2.7702 0
M  V30 1133 H 111.051 -3.66339 -1.28131 0
M  V30 1134 H 109.152 -2.02738 -3.12615 0
M  V30 1135 H 109.265 -3.88403 -2.80499 0
M  V30 1136 H 107.629 -2.00669 -1.56856 0
M  V30 1137 H 108.412 -3.37787 -0.612789 0
M  V30 1138 N 110.857 0.726932 -1.39834 0
M  V30 1139 C 112.105 1.4837 -1.37225 0
M  V30 1140 C 112.426 1.94979 0.0284857 0
M  V30 1141 O 111.696 1.69555 0.981213 0
M  V30 1142 H 110.276 0.55043 -0.505011 0
M  V30 1143 H 112.938 0.862468 -1.74778 0
M  V30 1144 H 112.034 2.36198 -2.04003 0
M  V30 1145 N 112.336 1.25143 0.95797 0
M  V30 1146 C 113.266 1.07711 2.07173 0
M  V30 1147 C 114.247 -0.0128462 1.70095 0
M  V30 1148 O 115.432 0.156061 1.93572 0
M  V30 1149 C 112.562 0.691503 3.40346 0
M  V30 1150 C 111.516 1.73132 3.9142 0
M  V30 1151 C 110.842 1.20049 5.21049 0
M  V30 1152 C 112.142 3.1294 4.1817 0
M  V30 1153 H 113.836 2.00873 2.22014 0
M  V30 1154 H 111.382 0.967191 1.06684 0
M  V30 1155 H 113.335 0.556505 4.17709 0
M  V30 1156 H 112.059 -0.275819 3.25433 0
M  V30 1157 H 110.718 1.8547 3.16222 0
M  V30 1158 H 110.366 0.223499 5.02503 0
M  V30 1159 H 110.066 1.89545 5.56189 0
M  V30 1160 H 111.59 1.07782 6.01012 0
M  V30 1161 H 113.004 3.03775 4.86203 0
M  V30 1162 H 111.401 3.79875 4.64559 0
M  V30 1163 H 112.471 3.6025 3.24573 0
M  V30 1164 N 113.814 -1.1601 1.06675 0
M  V30 1165 C 115.091 -1.82679 0.699114 0
M  V30 1166 C 115.471 -1.94559 -0.819137 0
M  V30 1167 O 114.819 -1.49169 -1.73092 0
M  V30 1168 C 115.029 -3.19445 1.40555 0
M  V30 1169 C 116.377 -3.95171 1.55323 0
M  V30 1170 O 117.401 -3.28976 1.36577 0
M  V30 1171 O 116.26 -5.13833 1.86112 0
M  V30 1172 H 113.354 -0.788954 0.247951 0
M  V30 1173 H 115.9 -1.23179 1.16726 0
M  V30 1174 H 114.672 -3.05856 2.44065 0
M  V30 1175 H 114.295 -3.86625 0.927733 0
M  V30 1176 N 115.292 -0.849877 -1.32721 0
M  V30 1177 C 116.522 -0.46408 -2.0132 0
M  V30 1178 C 116.93 0.94246 -1.64056 0
M  V30 1179 O 116.273 1.6257 -0.855379 0
M  V30 1180 C 116.335 -0.517887 -3.5575 0
M  V30 1181 C 115.999 -1.88248 -4.16427 0
M  V30 1182 C 116.996 -2.84726 -4.35002 0
M  V30 1183 C 114.681 -2.17832 -4.52609 0
M  V30 1184 C 116.675 -4.08945 -4.8892 0
M  V30 1185 C 114.362 -3.42304 -5.06232 0
M  V30 1186 C 115.36 -4.37677 -5.24335 0
M  V30 1187 O 115.048 -5.59946 -5.76815 0
M  V30 1188 H 114.78 -0.181327 -0.651227 0
M  V30 1189 H 117.334 -1.14713 -1.70382 0
M  V30 1190 H 115.564 0.221997 -3.86062 0
M  V30 1191 H 117.253 -0.148366 -4.05629 0
M  V30 1192 H 118.019 -2.63174 -4.07388 0
M  V30 1193 H 113.898 -1.44385 -4.37806 0
M  V30 1194 H 117.442 -4.83396 -5.02966 0
M  V30 1195 H 113.339 -3.63709 -5.33278 0
M  V30 1196 H 114.107 -5.61838 -5.95214 0
M  V30 1197 N 116.77 1.45427 -0.607355 0
M  V30 1198 C 118.016 2.0254 -0.102607 0
M  V30 1199 C 118.349 1.47478 1.26348 0
M  V30 1200 O 117.624 0.64939 1.83339 0
M  V30 1201 C 117.907 3.60044 -0.0634347 0
M  V30 1202 C 117.76 4.2544 -1.46017 0
M  V30 1203 C 119.079 4.35646 0.624514 0
M  V30 1204 H 116.198 0.73598 -0.0387607 0
M  V30 1205 H 118.84 1.73284 -0.779282 0
M  V30 1206 H 116.99 3.85101 0.512808 0
M  V30 1207 H 118.662 4.11569 -2.08347 0
M  V30 1208 H 116.905 3.83849 -2.02094 0
M  V30 1209 H 117.576 5.34342 -1.385 0
M  V30 1210 H 120.052 4.15882 0.134723 0
M  V30 1211 H 118.928 5.45376 0.621028 0
M  V30 1212 H 119.189 4.08501 1.69055 0
M  V30 1213 N 118.248 0.346503 1.53744 0
M  V30 1214 C 119.473 -0.253074 2.0585 0
M  V30 1215 C 119.898 -1.43202 1.21962 0
M  V30 1216 O 119.256 -1.79783 0.234073 0
M  V30 1217 C 119.304 -0.643193 3.54817 0
M  V30 1218 O 118.408 -1.74286 3.73762 0
M  V30 1219 H 117.749 -0.0413583 0.662711 0
M  V30 1220 H 120.279 0.501574 1.98357 0
M  V30 1221 H 120.289 -0.919526 3.97503 0
M  V30 1222 H 118.964 0.218966 4.15323 0
M  V30 1223 H 117.541 -1.46356 3.42979 0
M  V30 1224 N 119.726 -1.57421 0.075193 0
M  V30 1225 C 120.956 -1.97659 -0.601203 0
M  V30 1226 C 121.364 -0.952427 -1.63479 0
M  V30 1227 O 120.707 0.0688241 -1.83571 0
M  V30 1228 C 120.769 -3.34218 -1.32434 0
M  V30 1229 C 120.433 -4.5484 -0.443826 0
M  V30 1230 C 121.43 -5.19034 0.299969 0
M  V30 1231 C 119.115 -5.00952 -0.367709 0
M  V30 1232 C 121.109 -6.27695 1.10807 0
M  V30 1233 C 118.796 -6.09484 0.444058 0
M  V30 1234 C 119.794 -6.72719 1.18061 0
M  V30 1235 O 119.482 -7.79161 1.97898 0
M  V30 1236 H 119.214 -0.65494 -0.167422 0
M  V30 1237 H 121.768 -2.04886 0.145157 0
M  V30 1238 H 119.998 -3.23615 -2.11685 0
M  V30 1239 H 121.687 -3.59038 -1.89331 0
M  V30 1240 H 122.453 -4.84351 0.250776 0
M  V30 1241 H 118.332 -4.51509 -0.930638 0
M  V30 1242 H 121.876 -6.76982 1.68347 0
M  V30 1243 H 117.773 -6.43601 0.494803 0
M  V30 1244 H 118.541 -7.96055 1.90367 0
M  V30 1245 N 121.204 0.198386 -1.56346 0
M  V30 1246 C 122.452 0.91747 -1.80075 0
M  V30 1247 C 122.773 1.83929 -0.647692 0
M  V30 1248 O 122.043 1.93029 0.334166 0
M  V30 1249 H 120.623 0.341774 -0.664228 0
M  V30 1250 H 123.285 0.204684 -1.93822 0
M  V30 1251 H 122.381 1.51055 -2.7311 0
M  V30 1252 N 122.682 1.50554 0.465978 0
M  V30 1253 C 123.612 1.72722 1.57128 0
M  V30 1254 C 124.593 0.576294 1.6004 0
M  V30 1255 O 125.778 0.81598 1.76225 0
M  V30 1256 C 122.908 1.82605 2.95419 0
M  V30 1257 C 121.862 2.97835 3.07373 0
M  V30 1258 C 121.188 2.92867 4.47363 0
M  V30 1259 C 122.488 4.38265 2.84114 0
M  V30 1260 H 124.182 2.65267 1.38829 0
M  V30 1261 H 121.728 1.2765 0.666441 0
M  V30 1262 H 123.681 1.96698 3.72677 0
M  V30 1263 H 122.405 0.866858 3.14886 0
M  V30 1264 H 121.064 2.83401 2.3255 0
M  V30 1265 H 120.712 1.94783 4.63755 0
M  V30 1266 H 120.412 3.70227 4.56296 0
M  V30 1267 H 121.936 3.09015 5.26633 0
M  V30 1268 H 123.35 4.53198 3.51118 0
M  V30 1269 H 121.747 5.17115 3.04487 0
M  V30 1270 H 122.817 4.50281 1.7993 0
M  V30 1271 N 124.16 -0.719506 1.40217 0
M  V30 1272 C 125.409 -1.47486 1.37589 0
M  V30 1273 C 125.722 -1.9559 -0.0201568 0
M  V30 1274 O 126.928 -2.70973 -0.169049 0
M  V30 1275 C 125.384 -2.66575 2.41796 0
M  V30 1276 C 124.992 -2.25358 3.87192 0
M  V30 1277 C 126.736 -3.4433 2.48269 0
M  V30 1278 C 124.643 -3.41262 4.83005 0
M  V30 1279 H 123.573 -0.553901 0.511576 0
M  V30 1280 H 126.224 -0.783427 1.65936 0
M  V30 1281 H 124.606 -3.3787 2.06543 0
M  V30 1282 H 125.78 -1.61509 4.31569 0
M  V30 1283 H 124.095 -1.60657 3.84159 0
M  V30 1284 H 126.692 -4.30569 3.17041 0
M  V30 1285 H 127.035 -3.87872 1.51198 0
M  V30 1286 H 127.568 -2.80076 2.82493 0
M  V30 1287 H 124.307 -3.02755 5.81394 0
M  V30 1288 H 123.827 -4.0404 4.43297 0
M  V30 1289 H 125.506 -4.07383 5.02641 0
M  V30 1290 N 125.638 -1.25649 -0.95132 0
M  V30 1291 C 126.601 -1.06399 -2.03007 0
M  V30 1292 C 127.601 -0.0156794 -1.60792 0
M  V30 1293 O 128.791 -0.25817 -1.72276 0
M  V30 1294 C 125.923 -0.616184 -3.35285 0
M  V30 1295 H 127.116 -2.02164 -2.21517 0
M  V30 1296 H 124.669 -1.08103 -1.12887 0
M  V30 1297 H 125.404 0.343917 -3.22471 0
M  V30 1298 H 125.189 -1.37301 -3.67275 0
M  V30 1299 H 126.679 -0.503032 -4.14559 0
M  V30 1300 N 127.117 1.15442 -1.07289 0
M  V30 1301 C 128.533 1.38201 -0.798288 0
M  V30 1302 C 128.733 1.92429 0.597769 0
M  V30 1303 O 127.789 2.12962 1.3566 0
M  V30 1304 C 129.102 2.35357 -1.87156 0
M  V30 1305 C 130.65 2.49021 -1.89624 0
M  V30 1306 C 131.125 3.49468 -2.96034 0
M  V30 1307 N 132.616 3.57003 -2.95132 0
M  V30 1308 C 133.351 4.34543 -3.74112 0
M  V30 1309 N 132.847 5.15421 -4.6294 0
M  V30 1310 N 134.64 4.29625 -3.62462 0
M  V30 1311 H 126.791 0.78584 -1.97328 0
M  V30 1312 H 129.054 0.408065 -0.855679 0
M  V30 1313 H 128.76 2.02626 -2.87464 0
M  V30 1314 H 128.634 3.35129 -1.73114 0
M  V30 1315 H 131.021 2.81051 -0.899687 0
M  V30 1316 H 131.102 1.4925 -2.07745 0
M  V30 1317 H 130.746 3.18173 -3.95889 0
M  V30 1318 H 130.676 4.48992 -2.75161 0
M  V30 1319 H 133.167 2.99276 -2.30743 0
M  V30 1320 H 133.48 5.7183 -5.19837 0
M  V30 1321 H 131.825 5.14729 -4.66989 0
M  V30 1322 H 135.016 3.65505 -2.92444 0
M  V30 1323 H 135.189 4.89807 -4.24256 0
M  V30 1324 N 128.595 0.856903 1.32268 0
M  V30 1325 C 129.505 0.306131 2.32594 0
M  V30 1326 C 130.521 -0.577209 1.64147 0
M  V30 1327 O 131.697 -0.477043 1.95669 0
M  V30 1328 C 128.762 -0.494561 3.43154 0
M  V30 1329 C 127.823 0.415186 4.27288 0
M  V30 1330 C 127.056 -0.347387 5.32568 0
M  V30 1331 O 127.279 -1.57708 5.48165 0
M  V30 1332 O 126.213 0.287982 6.01211 0
M  V30 1333 H 130.039 1.13737 2.81598 0
M  V30 1334 H 127.624 0.619902 1.35932 0
M  V30 1335 H 129.506 -0.948944 4.10576 0
M  V30 1336 H 128.181 -1.30257 2.96336 0
M  V30 1337 H 127.088 0.917793 3.62667 0
M  V30 1338 H 128.421 1.18844 4.77637 0
M  V30 1339 N 130.073 -1.45103 0.615059 0
M  V30 1340 C 131.319 -2.02483 0.113347 0
M  V30 1341 C 131.652 -1.48146 -1.25564 0
M  V30 1342 O 130.927 -0.659104 -1.82992 0
M  V30 1343 C 131.21 -3.60005 0.0825278 0
M  V30 1344 C 131.063 -4.2466 1.48271 0
M  V30 1345 C 132.382 -4.35972 -0.601401 0
M  V30 1346 H 129.501 -0.735764 0.0426632 0
M  V30 1347 H 132.143 -1.72868 0.788461 0
M  V30 1348 H 130.293 -3.85367 -0.492378 0
M  V30 1349 H 131.965 -4.10458 2.10527 0
M  V30 1350 H 130.208 -3.82772 2.04127 0
M  V30 1351 H 130.879 -5.336 1.41332 0
M  V30 1352 H 133.355 -4.15947 -0.112666 0
M  V30 1353 H 132.231 -5.45697 -0.592097 0
M  V30 1354 H 132.492 -4.09391 -1.66887 0
M  V30 1355 N 131.551 -0.354651 -1.53558 0
M  V30 1356 C 132.461 0.50515 -2.29097 0
M  V30 1357 C 133.477 1.10223 -1.34636 0
M  V30 1358 O 134.653 1.11553 -1.67684 0
M  V30 1359 C 131.718 1.63479 -3.05738 0
M  V30 1360 C 130.779 1.06636 -4.15845 0
M  V30 1361 C 130.012 2.14217 -4.88822 0
M  V30 1362 O 130.235 3.35137 -4.61562 0
M  V30 1363 O 129.169 1.77887 -5.75013 0
M  V30 1364 H 132.995 -0.109237 -3.03503 0
M  V30 1365 H 130.58 -0.119357 -1.48922 0
M  V30 1366 H 132.462 2.2918 -3.5363 0
M  V30 1367 H 131.137 2.23478 -2.34178 0
M  V30 1368 H 130.044 0.373565 -3.7223 0
M  V30 1369 H 131.377 0.511081 -4.89539 0
M  V30 1370 N 133.029 1.57378 -0.0835403 0
M  V30 1371 C 134.445 1.57246 0.273109 0
M  V30 1372 C 134.645 1.09385 1.69225 0
M  V30 1373 O 133.701 0.765051 2.40631 0
M  V30 1374 C 135.014 3.00614 0.0720628 0
M  V30 1375 C 136.562 3.12684 0.1407 0
M  V30 1376 C 137.037 4.57989 -0.0322094 0
M  V30 1377 N 138.528 4.63194 0.0230085 0
M  V30 1378 C 139.263 5.73335 -0.0861941 0
M  V30 1379 N 138.759 6.9235 -0.24958 0
M  V30 1380 N 140.552 5.62093 -0.0282886 0
M  V30 1381 H 132.703 1.86801 -1.0109 0
M  V30 1382 H 134.966 0.861687 -0.395222 0
M  V30 1383 H 134.672 3.39786 -0.907662 0
M  V30 1384 H 134.546 3.68193 0.81936 0
M  V30 1385 H 136.933 2.73391 1.11092 0
M  V30 1386 H 137.014 2.47719 -0.637896 0
M  V30 1387 H 136.658 4.97973 -0.999247 0
M  V30 1388 H 136.588 5.21 0.765937 0
M  V30 1389 H 139.079 3.77613 0.14722 0
M  V30 1390 H 139.392 7.72117 -0.324733 0
M  V30 1391 H 137.737 6.94415 -0.285097 0
M  V30 1392 H 140.928 4.67997 0.0981408 0
M  V30 1393 H 141.101 6.47895 -0.116845 0
M  V30 1394 N 134.507 -0.190092 1.56449 0
M  V30 1395 C 135.753 -0.911052 1.81184 0
M  V30 1396 C 136.086 -1.82699 0.658396 0
M  V30 1397 O 135.361 -1.91491 -0.340775 0
M  V30 1398 C 135.644 -1.72297 3.16205 0
M  V30 1399 C 135.497 -0.831419 4.42049 0
M  V30 1400 C 136.816 -2.69454 3.47969 0
M  V30 1401 H 133.935 -0.32977 0.659106 0
M  V30 1402 H 136.577 -0.178169 1.89163 0
M  V30 1403 H 134.727 -2.34778 3.09534 0
M  V30 1404 H 136.399 -0.220929 4.60771 0
M  V30 1405 H 134.642 -0.138406 4.33579 0
M  V30 1406 H 135.313 -1.43461 5.33032 0
M  V30 1407 H 137.789 -2.17104 3.54972 0
M  V30 1408 H 136.665 -3.23342 4.43555 0
M  V30 1409 H 136.926 -3.48744 2.71717 0
M  V30 1410 N 135.985 -1.50799 -0.457987 0
M  V30 1411 C 137.262 -1.52968 -1.21902 0
M  V30 1412 C 137.642 -0.281906 -2.09209 0
M  V30 1413 O 136.99 0.734076 -2.16388 0
M  V30 1414 C 137.2 -2.8326 -2.03875 0
M  V30 1415 C 138.548 -3.34425 -2.6162 0
M  V30 1416 O 139.572 -2.8467 -2.14106 0
M  V30 1417 O 138.431 -4.21188 -3.48228 0
M  V30 1418 H 135.525 -0.614129 -0.553873 0
M  V30 1419 H 138.071 -1.63098 -0.468739 0
M  V30 1420 H 136.843 -3.65543 -1.39621 0
M  V30 1421 H 136.466 -2.76195 -2.8601 0
M  V30 1422 N 137.463 0.71206 -1.40597 0
M  V30 1423 C 138.688 1.50617 -1.42581 0
M  V30 1424 C 139.113 1.88079 -0.0282102 0
M  V30 1425 O 138.471 1.53511 0.964579 0
M  V30 1426 C 138.519 2.7557 -2.3258 0
M  V30 1427 O 137.623 3.72414 -1.77148 0
M  V30 1428 H 136.964 0.453966 -0.484573 0
M  V30 1429 H 139.494 0.876649 -1.84868 0
M  V30 1430 H 139.504 3.2406 -2.47889 0
M  V30 1431 H 138.179 2.47639 -3.34138 0
M  V30 1432 H 136.756 3.31276 -1.71204 0
M  V30 1433 N 138.941 1.26152 0.944643 0
M  V30 1434 C 140.189 1.11271 1.6871 0
M  V30 1435 C 140.51 -0.345166 1.91921 0
M  V30 1436 O 139.78 -1.24387 1.51343 0
M  V30 1437 H 138.36 0.408783 0.625224 0
M  V30 1438 H 141.022 1.58427 1.1352 0
M  V30 1439 H 140.118 1.62879 2.66227 0
M  V30 1440 N 140.419 -1.14872 1.07899 0
M  V30 1441 C 141.649 -1.89386 0.825631 0
M  V30 1442 C 142.057 -1.78565 -0.625406 0
M  V30 1443 O 141.4 -1.13918 -1.44113 0
M  V30 1444 C 141.462 -3.40206 1.16191 0
M  V30 1445 C 141.126 -3.74812 2.61467 0
M  V30 1446 C 142.123 -3.75367 3.59716 0
M  V30 1447 C 139.808 -4.0495 2.97189 0
M  V30 1448 C 141.802 -4.05574 4.9172 0
M  V30 1449 C 139.489 -4.34821 4.29388 0
M  V30 1450 C 140.487 -4.35116 5.26463 0
M  V30 1451 O 140.175 -4.64267 6.56286 0
M  V30 1452 H 139.907 -0.606894 0.297751 0
M  V30 1453 H 142.461 -1.46438 1.44031 0
M  V30 1454 H 140.691 -3.8358 0.490214 0
M  V30 1455 H 142.38 -3.96018 0.890193 0
M  V30 1456 H 143.146 -3.52176 3.33462 0
M  V30 1457 H 139.025 -4.03876 2.22273 0
M  V30 1458 H 142.569 -4.05719 5.67484 0
M  V30 1459 H 138.466 -4.5748 4.55392 0
M  V30 1460 H 139.234 -4.82007 6.61522 0
M  V30 1461 N 141.898 -0.863906 -1.31812 0
M  V30 1462 C 143.314 -0.555004 -1.49639 0
M  V30 1463 C 143.514 0.912266 -1.79666 0
M  V30 1464 O 142.57 1.69479 -1.87171 0
M  V30 1465 C 143.883 -1.44998 -2.63431 0
M  V30 1466 C 145.431 -1.45138 -2.77316 0
M  V30 1467 C 145.906 -2.33179 -3.94197 0
M  V30 1468 N 147.397 -2.31025 -4.01474 0
M  V30 1469 C 148.132 -2.95871 -4.9117 0
M  V30 1470 N 147.628 -3.69863 -5.8581 0
M  V30 1471 N 149.421 -2.85211 -4.84367 0
M  V30 1472 H 141.572 -1.81339 -1.10589 0
M  V30 1473 H 143.835 -0.77505 -0.545895 0
M  V30 1474 H 143.541 -2.49377 -2.48 0
M  V30 1475 H 143.415 -1.14409 -3.59431 0
M  V30 1476 H 145.802 -0.415201 -2.92164 0
M  V30 1477 H 145.883 -1.79747 -1.82001 0
M  V30 1478 H 145.527 -3.3687 -3.80107 0
M  V30 1479 H 145.457 -1.95897 -4.88807 0
M  V30 1480 H 147.948 -1.77238 -3.33759 0
M  V30 1481 H 148.261 -4.16486 -6.50968 0
M  V30 1482 H 146.606 -3.73971 -5.85808 0
M  V30 1483 H 149.797 -2.26948 -4.09405 0
M  V30 1484 H 149.97 -3.36027 -5.54066 0
M  V30 1485 N 143.376 1.44774 -0.622745 0
M  V30 1486 C 144.601 2.06999 -0.128968 0
M  V30 1487 C 145.026 1.4617 1.1839 0
M  V30 1488 O 144.384 0.560007 1.72434 0
M  V30 1489 C 144.432 3.60595 -0.0188351 0
M  V30 1490 O 143.536 3.99398 1.02739 0
M  V30 1491 H 142.877 0.659047 -0.0809544 0
M  V30 1492 H 145.407 1.85784 -0.85705 0
M  V30 1493 H 145.417 4.07627 0.174476 0
M  V30 1494 H 144.092 4.04252 -0.977384 0
M  V30 1495 H 142.669 3.64011 0.809326 0
M  V30 1496 N 144.854 0.36279 1.53368 0
M  V30 1497 C 145.787 -0.528507 2.21996 0
M  V30 1498 C 146.765 -1.0852 1.21087 0
M  V30 1499 O 147.949 -1.14186 1.4998 0
M  V30 1500 C 145.076 -1.72893 2.91249 0
M  V30 1501 C 144.122 -1.29994 4.06207 0
M  V30 1502 S 144.955 -0.303575 5.34639 0
M  V30 1503 C 146.111 -1.51039 6.07403 0
M  V30 1504 H 146.344 0.0543423 2.9725 0
M  V30 1505 H 143.877 0.146889 1.537 0
M  V30 1506 H 145.835 -2.41751 3.31763 0
M  V30 1507 H 144.496 -2.28303 2.15724 0
M  V30 1508 H 143.689 -2.19549 4.53667 0
M  V30 1509 H 143.291 -0.690608 3.67569 0
M  V30 1510 H 145.583 -2.44186 6.31965 0
M  V30 1511 H 146.526 -1.07721 6.99858 0
M  V30 1512 H 146.934 -1.71518 5.37812 0
M  V30 1513 N 146.332 -1.57332 0.0918853 0
M  V30 1514 C 147.265 -2.09499 -0.904735 0
M  V30 1515 C 148.243 -1.00479 -1.27839 0
M  V30 1516 O 149.427 -1.27954 -1.38419 0
M  V30 1517 C 146.554 -2.56931 -2.2069 0
M  V30 1518 C 145.6 -3.77579 -1.98334 0
M  V30 1519 S 146.433 -5.21317 -1.22428 0
M  V30 1520 C 147.589 -5.72097 -2.53882 0
M  V30 1521 H 147.822 -2.93705 -0.460922 0
M  V30 1522 H 145.355 -1.53923 -0.121332 0
M  V30 1523 H 147.313 -2.84917 -2.95521 0
M  V30 1524 H 145.974 -1.72956 -2.62192 0
M  V30 1525 H 145.167 -4.08824 -2.94752 0
M  V30 1526 H 144.769 -3.5007 -1.31633 0
M  V30 1527 H 147.061 -5.80168 -3.49874 0
M  V30 1528 H 148.004 -6.70654 -2.27219 0
M  V30 1529 H 148.412 -5.00012 -2.62007 0
M  V30 1530 N 147.81 0.181792 -1.56548 0
M  V30 1531 C 149.035 0.920019 -1.85877 0
M  V30 1532 C 149.46 1.75494 -0.677021 0
M  V30 1533 O 148.818 1.77399 0.374056 0
M  V30 1534 C 148.866 1.78112 -3.13542 0
M  V30 1535 O 147.97 2.88152 -2.95029 0
M  V30 1536 H 147.311 0.258334 -0.611686 0
M  V30 1537 H 149.841 0.183092 -2.03779 0
M  V30 1538 H 149.851 2.18314 -3.44678 0
M  V30 1539 H 148.526 1.16777 -3.99169 0
M  V30 1540 H 147.103 2.51609 -2.75222 0
M  V30 1541 N 149.288 1.51039 0.449983 0
M  V30 1542 C 150.534 1.63322 1.20223 0
M  V30 1543 C 150.867 0.34241 1.91158 0
M  V30 1544 O 150.142 -0.657344 1.83055 0
M  V30 1545 C 150.425 2.82801 2.22925 0
M  V30 1546 C 150.278 4.21823 1.56157 0
M  V30 1547 C 151.597 2.97807 3.24035 0
M  V30 1548 H 148.716 0.594407 0.435718 0
M  V30 1549 H 151.358 1.83489 0.493136 0
M  V30 1550 H 149.508 2.65738 2.834 0
M  V30 1551 H 151.18 4.50526 0.991162 0
M  V30 1552 H 149.423 4.25105 0.864172 0
M  V30 1553 H 150.094 5.01391 2.30891 0
M  V30 1554 H 152.57 3.13497 2.73603 0
M  V30 1555 H 151.446 3.82992 3.93202 0
M  V30 1556 H 151.707 2.09328 3.89402 0
M  V30 1557 N 150.766 -0.704594 1.40972 0
M  V30 1558 C 151.698 -1.82974 1.38033 0
M  V30 1559 C 152.711 -1.60305 0.283931 0
M  V30 1560 O 153.9 -1.69975 0.545042 0
M  V30 1561 C 151 -3.19578 1.12795 0
M  V30 1562 C 150.173 -3.69352 2.34302 0
M  V30 1563 C 149.232 -4.84601 2.05058 0
M  V30 1564 O 148.258 -4.96682 2.7802 0
M  V30 1565 N 149.46 -5.71194 1.03528 0
M  V30 1566 H 152.225 -1.85991 2.35005 0
M  V30 1567 H 149.786 -0.886567 1.35468 0
M  V30 1568 H 151.778 -3.9429 0.911987 0
M  V30 1569 H 150.348 -3.11642 0.24452 0
M  V30 1570 H 149.568 -2.85649 2.71659 0
M  V30 1571 H 150.856 -3.99345 3.1528 0
M  V30 1572 H 150.254 -5.64054 0.431217 0
M  V30 1573 H 148.811 -6.45843 0.879205 0
M  V30 1574 N 152.244 -1.26651 -0.937939 0
M  V30 1575 C 153.469 -1.15279 -1.72411 0
M  V30 1576 C 153.894 0.287866 -1.85884 0
M  V30 1577 O 153.252 1.20855 -1.35143 0
M  V30 1578 C 153.3 -1.83028 -3.10698 0
M  V30 1579 O 152.404 -1.12128 -3.96864 0
M  V30 1580 H 151.745 -0.401504 -0.528858 0
M  V30 1581 H 154.275 -1.67531 -1.1745 0
M  V30 1582 H 154.285 -1.89981 -3.6107 0
M  V30 1583 H 152.96 -2.87833 -3.00208 0
M  V30 1584 H 151.537 -1.13173 -3.55312 0
M  V30 1585 N 153.722 1.14298 -1.08507 0
M  V30 1586 C 154.947 1.8976 -0.837001 0
M  V30 1587 C 155.372 1.78097 0.605228 0
M  V30 1588 O 154.73 1.12188 1.4242 0
M  V30 1589 C 154.778 3.37685 -1.26495 0
M  V30 1590 O 153.882 4.10281 -0.417514 0
M  V30 1591 H 153.223 0.590365 -0.303917 0
M  V30 1592 H 155.753 1.44672 -1.44676 0
M  V30 1593 H 155.763 3.88501 -1.24625 0
M  V30 1594 H 154.438 3.45492 -2.31534 0
M  V30 1595 H 153.015 3.69536 -0.499722 0
M  V30 1596 N 155.201 0.870884 1.31352 0
M  V30 1597 C 156.131 0.343096 2.30966 0
M  V30 1598 C 157.112 -0.566507 1.60389 0
M  V30 1599 O 158.297 -0.483336 1.88089 0
M  V30 1600 C 155.427 -0.455487 3.443 0
M  V30 1601 C 154.381 0.361103 4.26474 0
M  V30 1602 C 153.707 -0.563221 5.31725 0
M  V30 1603 C 155.007 1.59566 4.97329 0
M  V30 1604 H 156.701 1.17548 2.75359 0
M  V30 1605 H 154.247 0.566686 1.32381 0
M  V30 1606 H 156.2 -0.83525 4.13039 0
M  V30 1607 H 154.924 -1.32139 2.98675 0
M  V30 1608 H 153.583 0.722825 3.59403 0
M  V30 1609 H 153.231 -1.42643 4.82351 0
M  V30 1610 H 152.931 -0.0207409 5.87596 0
M  V30 1611 H 154.455 -0.939808 6.03324 0
M  V30 1612 H 155.869 1.28728 5.58661 0
M  V30 1613 H 154.266 2.07728 5.63 0
M  V30 1614 H 155.336 2.34798 4.24262 0
M  V30 1615 N 156.679 -1.44442 0.630414 0
M  V30 1616 C 157.925 -2.02351 0.134816 0
M  V30 1617 C 158.258 -1.4947 -1.23986 0
M  V30 1618 O 157.533 -0.678475 -1.82283 0
M  V30 1619 C 157.816 -3.59898 0.120707 0
M  V30 1620 C 157.669 -4.23063 1.52767 0
M  V30 1621 C 158.988 -4.36585 -0.555127 0
M  V30 1622 H 156.107 -0.73527 0.0504646 0
M  V30 1623 H 158.749 -1.72022 0.806751 0
M  V30 1624 H 156.899 -3.85868 -0.451477 0
M  V30 1625 H 158.571 -4.08202 2.14869 0
M  V30 1626 H 156.814 -3.80586 2.08175 0
M  V30 1627 H 157.485 -5.32071 1.46984 0
M  V30 1628 H 159.961 -4.16044 -0.0685429 0
M  V30 1629 H 158.837 -5.46294 -0.534185 0
M  V30 1630 H 159.098 -4.11138 -1.62535 0
M  V30 1631 N 158.157 -0.370918 -1.53173 0
M  V30 1632 C 159.09 0.516727 -2.22273 0
M  V30 1633 C 160.068 1.07877 -1.21661 0
M  V30 1634 O 161.252 1.13389 -1.50583 0
M  V30 1635 C 158.379 1.71346 -2.92161 0
M  V30 1636 C 157.425 1.27838 -4.0689 0
M  V30 1637 S 158.258 0.275217 -5.34792 0
M  V30 1638 C 159.414 1.47816 -6.08195 0
M  V30 1639 H 159.647 -0.0701054 -2.97217 0
M  V30 1640 H 157.18 -0.155038 -1.5362 0
M  V30 1641 H 159.138 2.39988 -3.3304 0
M  V30 1642 H 157.799 2.27156 -2.16931 0
M  V30 1643 H 156.992 2.17141 -4.54825 0
M  V30 1644 H 156.594 0.671105 -3.6793 0
M  V30 1645 H 158.886 2.40831 -6.33251 0
M  V30 1646 H 159.829 1.04008 -7.0042 0
M  V30 1647 H 160.237 1.68663 -5.38714 0
M  V30 1648 N 159.635 1.57281 -0.100228 0
M  V30 1649 C 160.881 1.94826 0.563101 0
M  V30 1650 C 161.214 0.982475 1.67514 0
M  V30 1651 O 160.489 0.0164069 1.94493 0
M  V30 1652 C 160.772 3.42453 1.11346 0
M  V30 1653 C 160.625 4.498 0.00612081 0
M  V30 1654 C 161.944 3.91506 2.01024 0
M  V30 1655 H 159.063 0.708428 0.203221 0
M  V30 1656 H 161.705 1.8922 -0.171979 0
M  V30 1657 H 159.855 3.47361 1.7399 0
M  V30 1658 H 161.527 4.57 -0.628357 0
M  V30 1659 H 159.77 4.28756 -0.659581 0
M  V30 1660 H 160.441 5.50306 0.432109 0
M  V30 1661 H 162.917 3.88784 1.48278 0
M  V30 1662 H 161.793 4.95358 2.36457 0
M  V30 1663 H 162.054 3.31099 2.92961 0
M  V30 1664 N 161.113 -0.173488 1.56642 0
M  V30 1665 C 162.524 -0.736155 1.71574 0
M  V30 1666 C 162.875 -1.82888 0.710389 0
M  V30 1667 O 162 -2.16017 -0.1287 0
M  V30 1668 C 162.595 -1.34211 3.11083 0
M  V30 1669 C 161.154 -1.85162 3.27707 0
M  V30 1670 C 160.301 -0.729765 2.67525 0
M  V30 1671 H 163.252 0.0518786 1.58615 0
M  V30 1672 H 163.273 -2.21178 3.09613 0
M  V30 1673 H 162.785 -0.546579 3.84232 0
M  V30 1674 H 160.886 -2.67366 2.59512 0
M  V30 1675 H 160.999 -1.99855 4.35425 0
M  V30 1676 H 159.363 -1.14965 2.27278 0
M  V30 1677 H 160.146 0.0538806 3.43258 0
M  V30 1678 N 162.591 -1.51276 -0.441967 0
M  V30 1679 C 163.84 -1.6295 -1.18871 0
M  V30 1680 C 164.153 -0.349312 -1.92456 0
M  V30 1681 O 165.359 -0.345355 -2.69295 0
M  V30 1682 C 163.815 -2.87759 -2.16155 0
M  V30 1683 C 163.423 -4.22764 -1.48239 0
M  V30 1684 C 165.167 -3.08788 -2.91291 0
M  V30 1685 C 163.074 -5.38728 -2.4398 0
M  V30 1686 H 162.004 -0.606913 -0.447406 0
M  V30 1687 H 164.655 -1.77739 -0.456205 0
M  V30 1688 H 163.037 -2.66593 -2.92821 0
M  V30 1689 H 164.211 -4.54293 -0.771635 0
M  V30 1690 H 162.526 -4.07575 -0.852741 0
M  V30 1691 H 165.123 -3.92599 -3.63002 0
M  V30 1692 H 165.466 -2.21679 -3.5237 0
M  V30 1693 H 165.999 -3.30272 -2.21733 0
M  V30 1694 H 162.738 -6.28082 -1.87598 0
M  V30 1695 H 162.258 -5.1158 -3.13123 0
M  V30 1696 H 163.937 -5.70489 -3.05207 0
M  V30 1697 N 164.069 0.697108 -1.41344 0
M  V30 1698 C 165.316 1.45714 -1.40619 0
M  V30 1699 C 165.644 1.94494 -0.0147907 0
M  V30 1700 O 164.899 1.69794 0.973066 0
M  V30 1701 C 165.198 2.68553 -2.35826 0
M  V30 1702 C 164.864 2.38438 -3.82698 0
M  V30 1703 C 163.526 2.29936 -4.22709 0
M  V30 1704 C 165.878 2.13567 -4.75435 0
M  V30 1705 C 163.206 1.94656 -5.53467 0
M  V30 1706 C 165.558 1.79797 -6.06511 0
M  V30 1707 C 164.222 1.69789 -6.45545 0
M  V30 1708 H 163.492 0.533206 -0.51456 0
M  V30 1709 H 166.139 0.796901 -1.74131 0
M  V30 1710 H 164.444 3.39503 -1.95563 0
M  V30 1711 H 166.141 3.2669 -2.32539 0
M  V30 1712 H 162.731 2.4595 -3.51008 0
M  V30 1713 H 166.915 2.19082 -4.45328 0
M  V30 1714 H 162.171 1.8546 -5.82593 0
M  V30 1715 H 166.345 1.59572 -6.77872 0
M  V30 1716 H 163.972 1.4222 -7.46778 0
M  V30 1717 N 165.547 1.27147 0.931209 0
M  V30 1718 C 166.457 1.11372 2.06478 0
M  V30 1719 C 167.473 0.044645 1.73943 0
M  V30 1720 O 168.649 0.250417 1.99837 0
M  V30 1721 C 165.714 0.758838 3.38294 0
M  V30 1722 C 164.775 1.90841 3.84549 0
M  V30 1723 C 164.008 1.57036 5.10074 0
M  V30 1724 O 164.231 0.476645 5.68405 0
M  V30 1725 O 163.165 2.40839 5.51616 0
M  V30 1726 H 166.991 2.06493 2.22698 0
M  V30 1727 H 164.576 1.06301 1.04978 0
M  V30 1728 H 166.458 0.574098 4.17471 0
M  V30 1729 H 165.133 -0.162879 3.2329 0
M  V30 1730 H 164.04 2.14819 3.06274 0
M  V30 1731 H 165.373 2.81021 4.04089 0
M  V30 1732 N 167.025 -1.13721 1.09112 0
M  V30 1733 C 168.272 -1.84924 0.825192 0
M  V30 1734 C 168.6 -1.83347 -0.649151 0
M  V30 1735 O 167.855 -1.26449 -1.49362 0
M  V30 1736 C 168.154 -3.32861 1.30146 0
M  V30 1737 C 167.82 -3.54621 2.78486 0
M  V30 1738 C 166.482 -3.60268 3.18999 0
M  V30 1739 C 168.834 -3.62855 3.74146 0
M  V30 1740 C 166.162 -3.71679 4.53951 0
M  V30 1741 C 168.514 -3.75793 5.08883 0
M  V30 1742 C 167.178 -3.79692 5.4899 0
M  V30 1743 H 166.448 -0.676684 0.301959 0
M  V30 1744 H 169.095 -1.3428 1.36533 0
M  V30 1745 H 167.4 -3.85835 0.681064 0
M  V30 1746 H 169.097 -3.86395 1.07236 0
M  V30 1747 H 165.687 -3.50879 2.46134 0
M  V30 1748 H 169.871 -3.57775 3.43963 0
M  V30 1749 H 165.127 -3.72963 4.84467 0
M  V30 1750 H 169.301 -3.81107 5.82864 0
M  V30 1751 H 166.928 -3.88287 6.53558 0
M  V30 1752 N 168.503 -0.877838 -1.30888 0
M  V30 1753 C 169.751 -0.491723 -1.96027 0
M  V30 1754 C 170.072 0.960827 -1.69685 0
M  V30 1755 O 169.342 1.67462 -1.01654 0
M  V30 1756 H 167.922 -0.17885 -0.725273 0
M  V30 1757 H 170.584 -1.11935 -1.59551 0
M  V30 1758 H 169.68 -0.656016 -3.05128 0
M  V30 1759 N 169.982 1.44106 -0.638065 0
M  V30 1760 C 171.207 2.0685 -0.150916 0
M  V30 1761 C 171.632 1.47417 1.16833 0
M  V30 1762 O 170.99 0.578264 1.71831 0
M  V30 1763 C 171.038 3.60555 -0.05708 0
M  V30 1764 O 170.142 4.00465 0.984972 0
M  V30 1765 H 169.483 0.658151 -0.0879399 0
M  V30 1766 H 172.013 1.84865 -0.876707 0
M  V30 1767 H 172.023 4.07789 0.131232 0
M  V30 1768 H 170.698 4.03193 -1.02021 0
M  V30 1769 H 169.275 3.64849 0.770672 0
M  V30 1770 N 171.46 0.379036 1.52974 0
M  V30 1771 C 172.737 -0.263479 1.93817 0
M  V30 1772 C 173.117 -1.65244 1.31368 0
M  V30 1773 O 172.465 -2.23448 0.477856 0
M  V30 1774 C 172.675 -0.300166 3.47707 0
M  V30 1775 C 174.023 -0.534061 4.21228 0
M  V30 1776 O 175.047 -0.38081 3.54159 0
M  V30 1777 O 173.906 -0.833501 5.40106 0
M  V30 1778 H 171 -0.161149 0.811147 0
M  V30 1779 H 173.546 0.432798 1.64088 0
M  V30 1780 H 172.318 0.673138 3.85467 0
M  V30 1781 H 171.941 -1.04179 3.83709 0
M  V30 1782 N 172.938 -1.57226 0.108567 0
M  V30 1783 C 173.901 -2.13602 -0.831082 0
M  V30 1784 C 174.901 -1.06841 -1.20173 0
M  V30 1785 O 176.091 -1.32666 -1.12895 0
M  V30 1786 C 173.223 -2.66769 -2.12243 0
M  V30 1787 H 174.416 -2.97951 -0.341317 0
M  V30 1788 H 171.969 -1.55667 -0.14057 0
M  V30 1789 H 172.704 -1.85977 -2.65675 0
M  V30 1790 H 172.489 -3.44839 -1.86625 0
M  V30 1791 H 173.979 -3.10332 -2.79435 0
M  V30 1792 N 174.416 0.165178 -1.56732 0
M  V30 1793 C 175.348 1.22911 -1.93457 0
M  V30 1794 C 176.361 1.40152 -0.828333 0
M  V30 1795 O 177.55 1.40046 -1.10677 0
M  V30 1796 C 174.65 2.59686 -2.17753 0
M  V30 1797 C 173.823 2.63663 -3.48999 0
M  V30 1798 C 172.882 3.81845 -3.62051 0
M  V30 1799 O 171.908 3.67559 -4.34613 0
M  V30 1800 N 173.11 4.98557 -2.97357 0
M  V30 1801 H 175.875 0.917118 -2.85323 0
M  V30 1802 H 173.436 0.354895 -1.57962 0
M  V30 1803 H 175.428 3.37225 -2.23743 0
M  V30 1804 H 173.998 2.83251 -1.32242 0
M  V30 1805 H 173.218 1.72173 -3.54612 0
M  V30 1806 H 174.506 2.63336 -4.35352 0
M  V30 1807 H 173.904 5.13065 -2.38287 0
M  V30 1808 H 172.461 5.73936 -3.08934 0
M  V30 1809 N 175.894 1.51508 0.433938 0
M  V30 1810 C 176.841 1.73068 1.52696 0
M  V30 1811 C 177.811 0.572441 1.55924 0
M  V30 1812 O 178.996 0.807253 1.72882 0
M  V30 1813 C 176.136 1.86474 2.90381 0
M  V30 1814 C 175.249 3.14037 2.96656 0
M  V30 1815 C 174.384 3.18019 4.25485 0
M  V30 1816 C 173.423 4.39882 4.2564 0
M  V30 1817 N 172.56 4.41394 5.45999 0
M  V30 1818 H 177.4 2.66366 1.33615 0
M  V30 1819 H 174.937 1.32008 0.649018 0
M  V30 1820 H 176.895 1.92229 3.70275 0
M  V30 1821 H 175.525 0.965809 3.08013 0
M  V30 1822 H 174.577 3.17575 2.09404 0
M  V30 1823 H 175.889 4.0394 2.92633 0
M  V30 1824 H 175.043 3.22708 5.13755 0
M  V30 1825 H 173.782 2.2601 4.3217 0
M  V30 1826 H 172.787 4.35366 3.35763 0
M  V30 1827 H 174.012 5.33159 4.20617 0
M  V30 1828 H 171.958 3.52258 5.53399 0
M  V30 1829 H 171.875 5.25111 5.4387 0
M  V30 1830 H 173.143 4.50281 6.36292 0
M  V30 1831 N 177.372 -0.689602 1.41712 0
M  V30 1832 C 178.282 -1.83314 1.46401 0
M  V30 1833 C 179.298 -1.7036 0.35405 0
M  V30 1834 O 180.474 -1.92171 0.602692 0
M  V30 1835 C 177.539 -3.19344 1.34982 0
M  V30 1836 C 176.6 -3.44363 2.56344 0
M  V30 1837 C 175.833 -4.73904 2.45461 0
M  V30 1838 O 176.056 -5.508 1.48241 0
M  V30 1839 O 174.99 -4.99839 3.35328 0
M  V30 1840 H 178.816 -1.82314 2.42889 0
M  V30 1841 H 176.401 -0.843438 1.23315 0
M  V30 1842 H 178.283 -4.00547 1.3092 0
M  V30 1843 H 176.958 -3.21014 0.41612 0
M  V30 1844 H 175.865 -2.63067 2.65982 0
M  V30 1845 H 177.198 -3.47512 3.48563 0
M  V30 1846 N 178.85 -1.27639 -0.924453 0
M  V30 1847 C 179.797 -1.10644 -2.0255 0
M  V30 1848 C 180.767 -0.00658438 -1.66099 0
M  V30 1849 O 181.952 -0.16952 -1.90045 0
M  V30 1850 C 179.092 -0.76309 -3.36557 0
M  V30 1851 C 178.205 -1.94091 -3.85944 0
M  V30 1852 C 177.34 -1.53914 -5.08413 0
M  V30 1853 C 176.379 -2.68425 -5.50104 0
M  V30 1854 N 175.516 -2.28815 -6.63768 0
M  V30 1855 H 180.356 -2.04858 -2.16419 0
M  V30 1856 H 177.893 -1.01974 -1.06017 0
M  V30 1857 H 179.851 -0.544822 -4.13627 0
M  V30 1858 H 178.481 0.142102 -3.22487 0
M  V30 1859 H 177.533 -2.27162 -3.05125 0
M  V30 1860 H 178.845 -2.7998 -4.12811 0
M  V30 1861 H 177.999 -1.28231 -5.92994 0
M  V30 1862 H 176.738 -0.651391 -4.8333 0
M  V30 1863 H 175.743 -2.94819 -4.64071 0
M  V30 1864 H 176.968 -3.57826 -5.7718 0
M  V30 1865 H 174.914 -1.42495 -6.40337 0
M  V30 1866 H 174.831 -3.08242 -6.90306 0
M  V30 1867 H 176.099 -2.06387 -7.51681 0
M  V30 1868 N 180.328 1.1314 -1.09713 0
M  V30 1869 C 181.558 1.88048 -0.855656 0
M  V30 1870 C 181.966 1.79537 0.596919 0
M  V30 1871 O 181.309 1.16196 1.42282 0
M  V30 1872 C 181.371 3.38314 -1.21589 0
M  V30 1873 C 181.035 3.70605 -2.67397 0
M  V30 1874 C 182.032 3.69596 -3.65643 0
M  V30 1875 C 179.717 4.0017 -3.03593 0
M  V30 1876 C 181.711 3.977 -4.9811 0
M  V30 1877 C 179.398 4.27935 -4.36251 0
M  V30 1878 C 180.396 4.26685 -5.33318 0
M  V30 1879 O 180.084 4.53767 -6.63589 0
M  V30 1880 H 179.816 0.60208 -0.307368 0
M  V30 1881 H 182.37 1.44128 -1.46343 0
M  V30 1882 H 180.6 3.82752 -0.551177 0
M  V30 1883 H 182.289 3.94552 -0.953083 0
M  V30 1884 H 183.055 3.46826 -3.39023 0
M  V30 1885 H 178.934 4.00289 -2.2867 0
M  V30 1886 H 182.478 3.9664 -5.73866 0
M  V30 1887 H 178.375 4.50178 -4.62613 0
M  V30 1888 H 179.143 4.71422 -6.69107 0
M  V30 1889 N 181.806 0.884767 1.30421 0
M  V30 1890 C 182.736 0.367574 2.30589 0
M  V30 1891 C 183.717 -0.549464 1.60981 0
M  V30 1892 O 184.902 -0.46336 1.88591 0
M  V30 1893 C 182.032 -0.418944 3.44764 0
M  V30 1894 C 180.986 0.406316 4.26067 0
M  V30 1895 C 180.312 -0.506793 5.32293 0
M  V30 1896 C 181.612 1.64832 4.95608 0
M  V30 1897 H 183.306 1.20462 2.74097 0
M  V30 1898 H 180.852 0.580695 1.31772 0
M  V30 1899 H 182.805 -0.791395 4.13902 0
M  V30 1900 H 181.529 -1.28964 3.0006 0
M  V30 1901 H 180.188 0.760903 3.58617 0
M  V30 1902 H 179.836 -1.37519 4.83836 0
M  V30 1903 H 179.536 0.0415828 5.87585 0
M  V30 1904 H 181.06 -0.875764 6.04287 0
M  V30 1905 H 182.474 1.34646 5.57264 0
M  V30 1906 H 180.871 2.13688 5.60765 0
M  V30 1907 H 181.941 2.39284 4.21748 0
M  V30 1908 N 183.284 -1.43765 0.645699 0
M  V30 1909 C 184.695 -1.85193 0.236719 0
M  V30 1910 C 185.046 -1.54045 -1.21509 0
M  V30 1911 O 184.171 -0.985694 -1.92647 0
M  V30 1912 C 184.766 -3.36151 0.422845 0
M  V30 1913 C 183.325 -3.76338 0.0682492 0
M  V30 1914 C 182.472 -2.67538 0.729306 0
M  V30 1915 H 185.423 -1.34025 0.849883 0
M  V30 1916 H 185.444 -3.79032 -0.333904 0
M  V30 1917 H 184.956 -3.5879 1.47958 0
M  V30 1918 H 183.057 -3.59312 -0.986179 0
M  V30 1919 H 183.17 -4.76603 0.488469 0
M  V30 1920 H 181.534 -2.54176 0.163235 0
M  V30 1921 H 182.317 -2.93006 1.78892 0
M  V30 1922 N 184.763 -0.387143 -1.52771 0
M  V30 1923 C 185.71 0.449048 -2.26389 0
M  V30 1924 C 186.68 1.05961 -1.27912 0
M  V30 1925 O 187.865 1.08804 -1.56737 0
M  V30 1926 C 185.005 1.57155 -3.0724 0
M  V30 1927 C 184.118 0.984066 -4.20643 0
M  V30 1928 C 183.253 2.07745 -4.88892 0
M  V30 1929 C 182.292 1.46574 -5.94292 0
M  V30 1930 N 181.429 2.49834 -6.56146 0
M  V30 1931 H 186.269 -0.185205 -2.97424 0
M  V30 1932 H 183.806 -0.103164 -1.46738 0
M  V30 1933 H 185.764 2.23309 -3.52405 0
M  V30 1934 H 184.394 2.17615 -2.38419 0
M  V30 1935 H 183.446 0.212193 -3.79808 0
M  V30 1936 H 184.758 0.497029 -4.96318 0
M  V30 1937 H 183.912 2.81673 -5.3735 0
M  V30 1938 H 182.651 2.59807 -4.12737 0
M  V30 1939 H 181.656 0.711696 -5.45174 0
M  V30 1940 H 182.881 0.953088 -6.72379 0
M  V30 1941 H 180.827 3.0107 -5.82832 0
M  V30 1942 H 180.744 2.05879 -7.27427 0
M  V30 1943 H 182.012 3.23399 -7.09249 0
M  V30 1944 N 186.241 1.57166 -0.116904 0
M  V30 1945 C 187.171 2.18222 0.830759 0
M  V30 1946 C 188.152 1.12167 1.27877 0
M  V30 1947 O 189.337 1.40394 1.34176 0
M  V30 1948 C 186.467 2.77996 2.08172 0
M  V30 1949 C 185.421 3.89614 1.77157 0
M  V30 1950 C 184.747 4.36187 3.09265 0
M  V30 1951 C 186.047 5.1181 1.04151 0
M  V30 1952 H 187.741 2.97664 0.321992 0
M  V30 1953 H 185.287 1.4318 0.153434 0
M  V30 1954 H 187.24 3.19366 2.74924 0
M  V30 1955 H 185.964 1.9584 2.6137 0
M  V30 1956 H 184.623 3.48816 1.12796 0
M  V30 1957 H 184.271 3.50893 3.60393 0
M  V30 1958 H 183.971 5.11455 2.89288 0
M  V30 1959 H 185.495 4.80207 3.77139 0
M  V30 1960 H 186.909 5.50214 1.61052 0
M  V30 1961 H 185.306 5.92648 0.942762 0
M  V30 1962 H 186.376 4.84892 0.0279022 0
M  V30 1963 N 187.719 -0.156864 1.56817 0
M  V30 1964 C 188.682 -1.17781 1.96622 0
M  V30 1965 C 189.682 -1.36401 0.851555 0
M  V30 1966 O 190.872 -1.33561 1.11836 0
M  V30 1967 C 188.004 -2.54008 2.27361 0
M  V30 1968 H 189.197 -0.836564 2.87996 0
M  V30 1969 H 186.75 -0.39985 1.51099 0
M  V30 1970 H 187.485 -2.9312 1.38748 0
M  V30 1971 H 187.27 -2.41856 3.08623 0
M  V30 1972 H 188.76 -3.27558 2.59029 0
M  V30 1973 N 189.197 -1.51736 -0.425897 0
M  V30 1974 C 190.425 -1.68794 -1.1965 0
M  V30 1975 C 190.84 -0.390164 -1.84725 0
M  V30 1976 O 190.197 0.632376 -1.71194 0
M  V30 1977 C 190.248 -2.81174 -2.27208 0
M  V30 1978 O 189.969 -4.05925 -1.64793 0
M  V30 1979 C 191.47 -3.09599 -3.17275 0
M  V30 1980 H 188.69 -0.566128 -0.360194 0
M  V30 1981 H 191.234 -1.98211 -0.503249 0
M  V30 1982 H 189.389 -2.54324 -2.9223 0
M  V30 1983 H 189.803 -4.68423 -2.35967 0
M  V30 1984 H 191.277 -3.91786 -3.88854 0
M  V30 1985 H 191.754 -2.22468 -3.78688 0
M  V30 1986 H 192.36 -3.38151 -2.57941 0
M  V30 1987 N 190.675 0.682077 -1.42076 0
M  V30 1988 C 191.923 1.4393 -1.41876 0
M  V30 1989 C 192.244 1.94971 -0.0335599 0
M  V30 1990 O 191.514 1.72591 0.926773 0
M  V30 1991 H 190.094 0.534085 -0.522267 0
M  V30 1992 H 192.756 0.806427 -1.77434 0
M  V30 1993 H 191.852 2.29588 -2.11414 0
M  V30 1994 N 192.153 1.28127 0.917671 0
M  V30 1995 C 193.063 1.13556 2.05286 0
M  V30 1996 C 194.079 0.0630914 1.73886 0
M  V30 1997 O 195.255 0.271598 1.9956 0
M  V30 1998 C 192.32 0.794676 3.3747 0
M  V30 1999 C 191.381 1.94909 3.82504 0
M  V30 2000 C 190.614 1.62437 5.0838 0
M  V30 2001 O 190.837 0.536905 5.67867 0
M  V30 2002 O 189.771 2.46677 5.4903 0
M  V30 2003 H 193.597 2.08844 2.20495 0
M  V30 2004 H 191.182 1.07409 1.03845 0
M  V30 2005 H 193.064 0.618344 4.16839 0
M  V30 2006 H 191.739 -0.128581 3.23445 0
M  V30 2007 H 190.646 2.18055 3.03978 0
M  V30 2008 H 191.979 2.85291 4.01086 0
M  V30 2009 N 193.631 -1.12557 1.10312 0
M  V30 2010 C 194.877 -1.84515 0.855901 0
M  V30 2011 C 195.232 -1.82409 -0.611936 0
M  V30 2012 O 194.525 -1.25778 -1.44535 0
M  V30 2013 C 194.719 -3.31462 1.33669 0
M  V30 2014 C 194.548 -3.47879 2.84974 0
M  V30 2015 C 193.318 -3.61589 3.52961 0
M  V30 2016 C 195.516 -3.43152 3.83081 0
M  V30 2017 N 193.498 -3.66359 4.926 0
M  V30 2018 C 194.869 -3.54401 5.08724 0
M  V30 2019 C 196.924 -3.2661 3.75807 0
M  V30 2020 C 195.627 -3.50815 6.2795 0
M  V30 2021 C 197.653 -3.24335 4.94531 0
M  V30 2022 C 197.015 -3.36144 6.19021 0
M  V30 2023 H 193.114 -0.690967 0.366182 0
M  V30 2024 H 195.698 -1.34763 1.40524 0
M  V30 2025 H 193.869 -3.7976 0.814686 0
M  V30 2026 H 195.601 -3.91272 1.03385 0
M  V30 2027 H 192.356 -3.63652 3.03404 0
M  V30 2028 H 192.78 -3.72411 5.65366 0
M  V30 2029 H 197.422 -3.16375 2.80476 0
M  V30 2030 H 195.14 -3.5982 7.23571 0
M  V30 2031 H 198.726 -3.12719 4.9061 0
M  V30 2032 H 197.606 -3.34357 7.09348 0
M  V30 2033 N 195.109 -0.891671 -1.2995 0
M  V30 2034 C 196.358 -0.509521 -1.95158 0
M  V30 2035 C 196.671 0.947388 -1.71125 0
M  V30 2036 O 197.877 1.43669 -2.30372 0
M  V30 2037 C 196.333 -0.860315 -3.49466 0
M  V30 2038 C 195.941 -2.33545 -3.8231 0
M  V30 2039 C 197.685 -0.547687 -4.20952 0
M  V30 2040 C 195.592 -2.62752 -5.29826 0
M  V30 2041 H 194.522 -0.18682 -0.730489 0
M  V30 2042 H 197.173 -1.08756 -1.47798 0
M  V30 2043 H 195.555 -0.211285 -3.95436 0
M  V30 2044 H 196.729 -3.02936 -3.47227 0
M  V30 2045 H 195.044 -2.61629 -3.23944 0
M  V30 2046 H 197.641 -0.742854 -5.29515 0
M  V30 2047 H 197.984 0.51332 -4.13123 0
M  V30 2048 H 198.517 -1.1542 -3.80688 0
M  V30 2049 H 195.256 -3.6762 -5.42712 0
M  V30 2050 H 194.776 -1.97977 -5.66185 0
M  V30 2051 H 196.455 -2.48601 -5.97333 0
M  V30 2052 N 196.587 1.43421 -0.653314 0
M  V30 2053 C 197.835 2.01414 -0.166415 0
M  V30 2054 C 198.156 1.51803 1.22397 0
M  V30 2055 O 197.426 0.730693 1.81763 0
M  V30 2056 H 196.006 0.744703 -0.0585319 0
M  V30 2057 H 198.668 1.75629 -0.845003 0
M  V30 2058 H 197.764 3.11734 -0.151111 0
M  V30 2059 N 198.065 0.39524 1.52563 0
M  V30 2060 C 199.305 -0.184744 2.03563 0
M  V30 2061 C 199.669 -1.43548 1.27507 0
M  V30 2062 O 200.87 -2.093 1.68662 0
M  V30 2063 C 199.141 -0.440294 3.54678 0
M  V30 2064 S 200.7 -0.989712 4.27493 0
M  V30 2065 H 197.518 -0.0515075 0.709132 0
M  V30 2066 H 200.12 0.544957 1.87751 0
M  V30 2067 H 198.824 0.477005 4.07618 0
M  V30 2068 H 198.355 -1.19825 3.74707 0
M  V30 2069 H 200.37 -2.27155 4.41152 0
M  V30 2070 N 199.544 -1.57102 0.125237 0
M  V30 2071 C 200.791 -1.95407 -0.531248 0
M  V30 2072 C 201.119 -1.0089 -1.66287 0
M  V30 2073 O 200.374 -0.0339431 -1.95671 0
M  V30 2074 C 200.673 -3.40096 -1.09862 0
M  V30 2075 C 200.339 -4.50815 -0.0876989 0
M  V30 2076 C 199.001 -4.80824 0.19026 0
M  V30 2077 C 201.353 -5.17724 0.600902 0
M  V30 2078 C 198.681 -5.75058 1.163 0
M  V30 2079 C 201.033 -6.13005 1.56231 0
M  V30 2080 C 199.697 -6.41403 1.8482 0
M  V30 2081 H 198.967 -0.715046 -0.194397 0
M  V30 2082 H 201.614 -1.90373 0.207463 0
M  V30 2083 H 199.919 -3.41855 -1.91422 0
M  V30 2084 H 201.616 -3.6705 -1.61478 0
M  V30 2085 H 198.206 -4.27444 -0.314528 0
M  V30 2086 H 202.39 -4.94691 0.399333 0
M  V30 2087 H 197.646 -5.95362 1.39117 0
M  V30 2088 H 201.82 -6.63934 2.10153 0
M  V30 2089 H 199.447 -7.14229 2.60349 0
M  V30 2090 N 201.022 0.148545 -1.56898 0
M  V30 2091 C 202.27 0.859717 -1.82902 0
M  V30 2092 C 202.591 1.81775 -0.70588 0
M  V30 2093 O 201.861 1.93994 0.272586 0
M  V30 2094 H 200.441 0.320469 -0.674766 0
M  V30 2095 H 203.103 0.142918 -1.94375 0
M  V30 2096 H 202.199 1.4229 -2.77777 0
M  V30 2097 N 202.5 1.5196 0.417844 0
M  V30 2098 C 203.43 1.77634 1.51554 0
M  V30 2099 C 204.411 0.626918 1.58126 0
M  V30 2100 O 205.596 0.871632 1.7354 0
M  V30 2101 C 202.726 1.91911 2.8946 0
M  V30 2102 C 201.68 3.07463 2.97743 0
M  V30 2103 C 201.006 3.06951 4.37819 0
M  V30 2104 C 202.306 4.47082 2.70027 0
M  V30 2105 H 204 2.6955 1.3032 0
M  V30 2106 H 201.546 1.29706 0.625492 0
M  V30 2107 H 203.499 2.08455 3.6623 0
M  V30 2108 H 202.223 0.966598 3.11969 0
M  V30 2109 H 200.882 2.90656 2.23416 0
M  V30 2110 H 200.53 2.09438 4.57323 0
M  V30 2111 H 200.23 3.84556 4.44286 0
M  V30 2112 H 201.754 3.25613 5.16535 0
M  V30 2113 H 203.168 4.6414 3.36522 0
M  V30 2114 H 201.565 5.2654 2.87881 0
M  V30 2115 H 202.635 4.55777 1.65514 0
M  V30 2116 N 203.978 -0.674533 1.42435 0
M  V30 2117 C 205.206 -1.46283 1.46317 0
M  V30 2118 C 205.621 -1.88653 0.0745836 0
M  V30 2119 O 204.978 -1.58151 -0.91074 0
M  V30 2120 C 205.029 -2.71178 2.3905 0
M  V30 2121 O 204.75 -2.30586 3.72507 0
M  V30 2122 C 206.251 -3.64738 2.51955 0
M  V30 2123 H 203.471 -0.450104 0.497642 0
M  V30 2124 H 206.015 -0.828792 1.86953 0
M  V30 2125 H 204.17 -3.3077 2.01667 0
M  V30 2126 H 204.584 -3.11241 4.22172 0
M  V30 2127 H 206.058 -4.49096 3.20962 0
M  V30 2128 H 206.535 -4.10656 1.55752 0
M  V30 2129 H 207.141 -3.11038 2.90061 0
M  V30 2130 N 205.456 -1.28612 -0.910864 0
M  V30 2131 C 206.366 -1.14643 -2.0468 0
M  V30 2132 C 207.382 -0.0723121 -1.7385 0
M  V30 2133 O 208.558 -0.282178 -1.99413 0
M  V30 2134 C 205.623 -0.812561 -3.37044 0
M  V30 2135 C 204.684 -1.96935 -3.81465 0
M  V30 2136 C 203.917 -1.65131 -5.07511 0
M  V30 2137 O 204.14 -0.567013 -5.67575 0
M  V30 2138 O 203.074 -2.49585 -5.47714 0
M  V30 2139 H 206.9 -2.1001 -2.19384 0
M  V30 2140 H 204.485 -1.07958 -1.03274 0
M  V30 2141 H 206.367 -0.640441 -4.16505 0
M  V30 2142 H 205.042 0.111426 -3.23508 0
M  V30 2143 H 203.949 -2.19664 -3.02818 0
M  V30 2144 H 205.282 -2.87414 -3.99567 0
M  V30 2145 N 206.934 1.1197 -1.10907 0
M  V30 2146 C 208.345 1.65114 -0.871446 0
M  V30 2147 C 208.696 1.86885 0.597353 0
M  V30 2148 O 207.821 1.59896 1.45816 0
M  V30 2149 C 208.416 2.99944 -1.5754 0
M  V30 2150 C 206.975 3.50018 -1.38435 0
M  V30 2151 C 206.122 2.24941 -1.62164 0
M  V30 2152 H 209.073 0.956851 -1.2661 0
M  V30 2153 H 209.094 3.66651 -1.01721 0
M  V30 2154 H 208.606 2.84067 -2.64438 0
M  V30 2155 H 206.707 3.71071 -0.337214 0
M  V30 2156 H 206.82 4.29165 -2.12965 0
M  V30 2157 H 205.184 2.3229 -1.04467 0
M  V30 2158 H 205.967 2.11612 -2.70324 0
M  V30 2159 N 208.412 0.89855 1.29475 0
M  V30 2160 C 209.36 0.365253 2.29714 0
M  V30 2161 C 210.354 -0.534993 1.6073 0
M  V30 2162 O 211.56 -0.417921 1.75081 0
M  V30 2163 H 207.935 0.0994853 0.74539 0
M  V30 2164 H 209.906 1.22406 2.72138 0
M  V30 2165 C 208.655 -0.393159 3.4547 0
M  V30 2166 H 207.978 0.290332 3.98744 0
M  V30 2167 H 209.418 -0.731189 4.17648 0
M  V30 2168 C 207.877 -1.59539 2.9673 0
M  V30 2169 O 208.407 -2.69469 2.97908 0
M  V30 2170 N 206.613 -1.43716 2.52575 0
M  V30 2171 H 206.16 -0.542828 2.51816 0
M  V30 2172 H 206.118 -2.24288 2.20323 0
M  V30 2173 N 209.89 -1.43072 0.660911 0
M  V30 2174 C 210.84 -2.27948 -0.04847 0
M  V30 2175 C 211.824 -1.40325 -0.787246 0
M  V30 2176 O 213.016 -1.63893 -0.668446 0
M  V30 2177 C 210.145 -3.28143 -1.00881 0
M  V30 2178 C 209.231 -4.23252 -0.268108 0
M  V30 2179 N 209.622 -5.00656 0.719528 0
M  V30 2180 C 207.92 -4.43092 -0.508493 0
M  V30 2181 C 208.621 -5.70019 1.15988 0
M  V30 2182 N 207.597 -5.41364 0.492584 0
M  V30 2183 H 211.399 -2.85213 0.709279 0
M  V30 2184 H 208.913 -1.54869 0.488822 0
M  V30 2185 H 210.91 -3.87736 -1.53188 0
M  V30 2186 H 209.57 -2.7244 -1.76654 0
M  V30 2187 H 210.581 -5.06115 1.09855 0
M  V30 2188 H 207.258 -3.98449 -1.24679 0
M  V30 2189 H 208.648 -6.4214 1.97751 0
M  V30 2190 N 211.368 -0.403325 -1.52352 0
M  V30 2191 C 212.616 0.174003 -2.0135 0
M  V30 2192 C 212.937 1.46139 -1.29106 0
M  V30 2193 O 212.207 1.91448 -0.415253 0
M  V30 2194 H 210.787 0.0672911 -0.743963 0
M  V30 2195 H 213.449 -0.538235 -1.87321 0
M  V30 2196 H 212.545 0.374254 -3.09848 0
M  V30 2197 N 212.846 1.57033 -0.133567 0
M  V30 2198 C 214.071 2.00475 0.531477 0
M  V30 2199 C 214.496 1.01291 1.58499 0
M  V30 2200 O 213.854 -0.0133279 1.81295 0
M  V30 2201 C 213.902 3.42729 1.12113 0
M  V30 2202 O 213.006 3.46498 2.23636 0
M  V30 2203 H 212.347 0.650876 0.131362 0
M  V30 2204 H 214.877 2.03344 -0.22634 0
M  V30 2205 H 214.887 3.81246 1.4531 0
M  V30 2206 H 213.562 4.14428 0.349557 0
M  V30 2207 H 212.139 3.19811 1.91769 0
M  V30 2208 N 214.325 -0.140222 1.56975 0
M  V30 2209 C 215.602 -0.880769 1.74648 0
M  V30 2210 C 215.982 -1.99036 0.703404 0
M  V30 2211 O 215.33 -2.26821 -0.27648 0
M  V30 2212 C 215.54 -1.417 3.18939 0
M  V30 2213 C 216.888 -1.87774 3.80823 0
M  V30 2214 O 217.912 -1.51427 3.2241 0
M  V30 2215 O 216.771 -2.54827 4.83452 0
M  V30 2216 H 213.865 -0.416713 0.714338 0
M  V30 2217 H 216.411 -0.125618 1.69234 0
M  V30 2218 H 215.183 -0.619902 3.86359 0
M  V30 2219 H 214.806 -2.23546 3.28805 0
M  V30 2220 N 215.803 -1.52179 -0.40978 0
M  V30 2221 C 217.214 -1.58377 -0.988615 0
M  V30 2222 C 217.565 -0.423879 -1.91566 0
M  V30 2223 O 216.69 0.455844 -2.11544 0
M  V30 2224 C 217.285 -2.87044 -1.79976 0
M  V30 2225 C 215.844 -2.95722 -2.32863 0
M  V30 2226 C 214.991 -2.53309 -1.12828 0
M  V30 2227 H 217.942 -1.57558 -0.190039 0
M  V30 2228 H 217.963 -2.7236 -2.65707 0
M  V30 2229 H 217.475 -3.71444 -1.12478 0
M  V30 2230 H 215.576 -2.15814 -3.03735 0
M  V30 2231 H 215.689 -3.99951 -2.63773 0
M  V30 2232 H 214.053 -2.07142 -1.48204 0
M  V30 2233 H 214.836 -3.40082 -0.46897 0
M  V30 2234 N 217.281 0.66697 -1.42791 0
M  V30 2235 C 218.529 1.42417 -1.43394 0
M  V30 2236 C 218.85 1.94925 -0.0542373 0
M  V30 2237 O 218.12 1.73564 0.908415 0
M  V30 2238 H 216.7 0.528515 -0.527902 0
M  V30 2239 H 219.362 0.787562 -1.78279 0
M  V30 2240 H 218.458 2.27333 -2.13837 0
M  V30 2241 N 218.759 1.29093 0.90403 0
M  V30 2242 C 219.984 1.19809 1.69294 0
M  V30 2243 C 220.409 -0.238481 1.86582 0
M  V30 2244 O 219.767 -1.1723 1.383 0
M  V30 2245 C 219.815 1.91202 3.05736 0
M  V30 2246 O 218.919 1.22611 3.93752 0
M  V30 2247 H 218.26 0.415385 0.518027 0
M  V30 2248 H 220.79 1.70586 1.12967 0
M  V30 2249 H 220.8 1.99487 3.55906 0
M  V30 2250 H 219.475 2.95692 2.92471 0
M  V30 2251 H 218.052 1.22554 3.52186 0
M  V30 2252 N 220.237 -1.11381 1.11499 0
M  V30 2253 C 221.17 -2.16621 0.71769 0
M  V30 2254 C 222.148 -1.60058 -0.286413 0
M  V30 2255 O 223.332 -1.87613 -0.182689 0
M  V30 2256 C 220.459 -3.38646 0.0607265 0
M  V30 2257 C 219.505 -4.13874 1.03008 0
M  V30 2258 S 220.338 -4.70731 2.55289 0
M  V30 2259 C 221.494 -5.96079 1.90895 0
M  V30 2260 H 221.727 -2.49987 1.60915 0
M  V30 2261 H 219.26 -1.23015 0.933092 0
M  V30 2262 H 221.218 -4.09313 -0.311965 0
M  V30 2263 H 219.879 -3.03537 -0.807702 0
M  V30 2264 H 219.072 -5.01333 0.517853 0
M  V30 2265 H 218.674 -3.4897 1.34522 0
M  V30 2266 H 220.966 -6.65948 1.24577 0
M  V30 2267 H 221.909 -6.51946 2.76354 0
M  V30 2268 H 222.317 -5.47652 1.36885 0
M  V30 2269 N 221.715 -0.905404 -1.28997 0
M  V30 2270 C 222.961 -0.535039 -1.95615 0
M  V30 2271 C 223.294 0.917404 -1.71165 0
M  V30 2272 O 222.569 1.65123 -1.02785 0
M  V30 2273 C 222.852 -0.834918 -3.50287 0
M  V30 2274 C 222.705 -2.33948 -3.84172 0
M  V30 2275 C 224.024 -0.325318 -4.38896 0
M  V30 2276 H 221.143 -0.195861 -0.710498 0
M  V30 2277 H 223.785 -1.13313 -1.52513 0
M  V30 2278 H 221.935 -0.325904 -3.87131 0
M  V30 2279 H 223.607 -2.91847 -3.57243 0
M  V30 2280 H 221.85 -2.79789 -3.31513 0
M  V30 2281 H 222.521 -2.49987 -4.92149 0
M  V30 2282 H 224.997 -0.761256 -4.09077 0
M  V30 2283 H 223.873 -0.564295 -5.45992 0
M  V30 2284 H 224.134 0.774144 -4.35269 0
M  V30 2285 N 223.193 1.4272 -0.668489 0
M  V30 2286 C 224.421 2.05966 -0.196348 0
M  V30 2287 C 224.836 1.50191 1.14403 0
M  V30 2288 O 224.193 0.639208 1.7094 0
M  V30 2289 C 224.244 3.61314 -0.115815 0
M  V30 2290 O 223.965 4.1502 -1.40322 0
M  V30 2291 C 225.466 4.41663 0.380579 0
M  V30 2292 H 222.686 0.663954 -0.0969829 0
M  V30 2293 H 225.23 1.82966 -0.913446 0
M  V30 2294 H 223.385 3.83448 0.551931 0
M  V30 2295 H 223.799 5.08832 -1.27243 0
M  V30 2296 H 225.273 5.5065 0.385848 0
M  V30 2297 H 225.75 4.15792 1.41471 0
M  V30 2298 H 226.356 4.24534 -0.255209 0
M  V30 2299 N 224.671 0.411399 1.52136 0
M  V30 2300 C 226.087 0.0623865 1.59478 0
M  V30 2301 C 226.287 -1.42554 1.4241 0
M  V30 2302 O 225.343 -2.19263 1.2522 0
M  V30 2303 C 226.656 0.559331 2.95452 0
M  V30 2304 C 228.204 0.517503 3.08692 0
M  V30 2305 C 228.679 0.990994 4.4715 0
M  V30 2306 N 230.17 0.947908 4.53397 0
M  V30 2307 C 230.905 1.28544 5.58806 0
M  V30 2308 N 230.401 1.69454 6.71757 0
M  V30 2309 N 232.194 1.20526 5.49026 0
M  V30 2310 H 224.345 1.37982 1.61477 0
M  V30 2311 H 226.608 0.566977 0.759764 0
M  V30 2312 H 226.314 1.59938 3.1323 0
M  V30 2313 H 226.188 -0.0298014 3.77188 0
M  V30 2314 H 228.575 -0.513505 2.90598 0
M  V30 2315 H 228.656 1.14272 2.28857 0
M  V30 2316 H 228.3 2.02034 4.65988 0
M  V30 2317 H 228.23 0.34257 5.25485 0
M  V30 2318 H 230.721 0.647157 3.72317 0
M  V30 2319 H 231.034 1.93513 7.48179 0
M  V30 2320 H 229.379 1.73359 6.73032 0
M  V30 2321 H 232.57 0.884505 4.59667 0
M  V30 2322 H 232.743 1.47161 6.31069 0
M  V30 2323 N 226.149 -1.5696 0.141893 0
M  V30 2324 C 227.112 -2.15316 -0.785587 0
M  V30 2325 C 228.112 -1.09366 -1.1788 0
M  V30 2326 O 229.302 -1.35031 -1.10056 0
M  V30 2327 C 226.434 -2.71211 -2.06537 0
M  V30 2328 H 227.627 -2.98608 -0.278041 0
M  V30 2329 H 225.18 -1.5593 -0.107519 0
M  V30 2330 H 225.915 -1.91571 -2.6167 0
M  V30 2331 H 225.7 -3.4872 -1.79268 0
M  V30 2332 H 227.19 -3.16189 -2.72789 0
M  V30 2333 N 227.627 0.131896 -1.57047 0
M  V30 2334 C 229.043 0.485031 -1.52051 0
M  V30 2335 C 229.243 1.82563 -0.85281 0
M  V30 2336 O 228.299 2.48817 -0.429694 0
M  V30 2337 C 229.612 0.481409 -2.96821 0
M  V30 2338 C 231.16 0.565868 -3.07842 0
M  V30 2339 C 231.635 0.592762 -4.54148 0
M  V30 2340 N 233.126 0.654564 -4.58552 0
M  V30 2341 C 233.861 0.696608 -5.69153 0
M  V30 2342 N 233.357 0.697078 -6.89284 0
M  V30 2343 N 235.15 0.738639 -5.57226 0
M  V30 2344 H 227.301 -0.746664 -1.98843 0
M  V30 2345 H 229.564 -0.273999 -0.90754 0
M  V30 2346 H 229.27 -0.435731 -3.4899 0
M  V30 2347 H 229.144 1.3139 -3.53577 0
M  V30 2348 H 231.531 1.47343 -2.55684 0
M  V30 2349 H 231.612 -0.29406 -2.54104 0
M  V30 2350 H 231.256 -0.310701 -5.06949 0
M  V30 2351 H 231.186 1.46939 -5.05684 0
M  V30 2352 H 233.677 0.660887 -3.72076 0
M  V30 2353 H 233.99 0.731426 -7.69331 0
M  V30 2354 H 232.335 0.66471 -6.91814 0
M  V30 2355 H 235.526 0.735545 -4.62285 0
M  V30 2356 H 235.699 0.767938 -6.43434 0
M  V30 2357 N 229.106 1.52395 0.401703 0
M  V30 2358 C 230.053 1.76268 1.48991 0
M  V30 2359 C 231.023 0.605386 1.54675 0
M  V30 2360 O 232.208 0.843742 1.7113 0
M  V30 2361 C 229.348 1.92592 2.86361 0
M  V30 2362 C 228.461 3.20259 2.89928 0
M  V30 2363 C 227.596 3.26972 4.18644 0
M  V30 2364 C 226.635 4.48812 4.16214 0
M  V30 2365 N 225.772 4.52877 5.36514 0
M  V30 2366 H 230.612 2.6914 1.27935 0
M  V30 2367 H 228.149 1.33355 0.620871 0
M  V30 2368 H 230.107 2.0004 3.66115 0
M  V30 2369 H 228.737 1.03093 3.05895 0
M  V30 2370 H 227.789 3.21945 2.02621 0
M  V30 2371 H 229.101 4.10056 2.83999 0
M  V30 2372 H 228.255 3.33533 5.06794 0
M  V30 2373 H 226.994 2.35126 4.27278 0
M  V30 2374 H 225.999 4.4239 3.26453 0
M  V30 2375 H 227.224 5.41961 4.09213 0
M  V30 2376 H 225.17 3.63917 5.45802 0
M  V30 2377 H 225.087 5.36529 5.32609 0
M  V30 2378 H 226.355 4.63676 6.26597 0
M  V30 2379 N 230.584 -0.659388 1.43143 0
M  V30 2380 C 231.83 -1.42145 1.44647 0
M  V30 2381 C 232.163 -1.9408 0.0681907 0
M  V30 2382 O 231.438 -1.71899 -0.910007 0
M  V30 2383 C 231.721 -2.60735 2.48373 0
M  V30 2384 C 231.574 -2.14332 3.95451 0
M  V30 2385 C 232.893 -3.62951 2.48906 0
M  V30 2386 H 230.012 -0.51552 0.526696 0
M  V30 2387 H 232.654 -0.748069 1.74654 0
M  V30 2388 H 230.804 -3.18184 2.22916 0
M  V30 2389 H 232.476 -1.61932 4.31944 0
M  V30 2390 H 230.719 -1.4576 4.08578 0
M  V30 2391 H 231.39 -2.99583 4.63631 0
M  V30 2392 H 233.866 -3.1525 2.71582 0
M  V30 2393 H 232.742 -4.43487 3.23435 0
M  V30 2394 H 233.003 -4.15126 1.52061 0
M  V30 2395 N 232.062 -1.29571 -0.897171 0
M  V30 2396 C 233.473 -1.15964 -1.46319 0
M  V30 2397 C 233.824 0.244267 -1.94674 0
M  V30 2398 O 232.949 1.13998 -1.83939 0
M  V30 2399 C 233.544 -2.09906 -2.65942 0
M  V30 2400 C 232.103 -2.00314 -3.18671 0
M  V30 2401 C 231.25 -2.00687 -1.91363 0
M  V30 2402 H 234.201 -1.42019 -0.708268 0
M  V30 2403 H 234.222 -1.67276 -3.41759 0
M  V30 2404 H 233.734 -3.12075 -2.30718 0
M  V30 2405 H 231.835 -1.01242 -3.58582 0
M  V30 2406 H 231.948 -2.88102 -3.82798 0
M  V30 2407 H 230.312 -1.45319 -2.09175 0
M  V30 2408 H 231.095 -3.04566 -1.58413 0
M  V30 2409 N 233.54 1.10788 -1.12088 0
M  V30 2410 C 234.788 1.8231 -0.872205 0
M  V30 2411 C 235.109 1.85419 0.603709 0
M  V30 2412 O 234.379 1.32963 1.43867 0
M  V30 2413 H 232.959 0.675137 -0.319686 0
M  V30 2414 H 235.621 1.34068 -1.41463 0
M  V30 2415 H 234.717 2.85955 -1.25045 0
M  V30 2416 N 235.018 0.912232 1.28515 0
M  V30 2417 C 236.266 0.543523 1.94654 0
M  V30 2418 C 236.587 -0.9155 1.72173 0
M  V30 2419 O 235.857 -1.64708 1.06058 0
M  V30 2420 H 234.437 0.198017 0.720277 0
M  V30 2421 H 237.099 1.16126 1.56527 0
M  V30 2422 H 236.195 0.736684 3.03281 0
M  V30 2423 N 236.496 -1.42363 0.676048 0
M  V30 2424 C 237.726 -2.05561 0.206967 0
M  V30 2425 C 238.134 -1.50887 -1.14148 0
M  V30 2426 O 237.477 -0.643933 -1.72044 0
M  V30 2427 C 237.539 -3.5944 0.0659508 0
M  V30 2428 C 237.203 -4.36812 1.34331 0
M  V30 2429 C 238.2 -4.67383 2.27704 0
M  V30 2430 C 235.885 -4.76429 1.59125 0
M  V30 2431 C 237.879 -5.36509 3.44147 0
M  V30 2432 C 235.566 -5.45294 2.75857 0
M  V30 2433 C 236.564 -5.75259 3.68193 0
M  V30 2434 O 236.252 -6.42712 4.82883 0
M  V30 2435 H 235.984 -0.668872 0.0979084 0
M  V30 2436 H 238.538 -1.83467 0.923531 0
M  V30 2437 H 236.768 -3.80197 -0.706204 0
M  V30 2438 H 238.457 -4.0427 -0.363418 0
M  V30 2439 H 239.223 -4.37275 2.09799 0
M  V30 2440 H 235.102 -4.52498 0.881258 0
M  V30 2441 H 238.646 -5.59814 4.16238 0
M  V30 2442 H 234.543 -5.7482 2.93688 0
M  V30 2443 H 235.311 -6.61204 4.82444 0
M  V30 2444 N 237.974 -0.419461 -1.51915 0
M  V30 2445 C 239.199 0.154572 -2.06823 0
M  V30 2446 C 239.624 1.3722 -1.28656 0
M  V30 2447 O 238.982 1.78461 -0.319583 0
M  V30 2448 C 239.03 0.473172 -3.57482 0
M  V30 2449 O 238.134 1.56255 -3.81652 0
M  V30 2450 H 237.475 0.0096924 -0.663929 0
M  V30 2451 H 240.005 -0.595642 -1.95738 0
M  V30 2452 H 240.015 0.728825 -4.01438 0
M  V30 2453 H 238.69 -0.416873 -4.13805 0
M  V30 2454 H 237.267 1.29825 -3.49571 0
M  V30 2455 N 239.452 1.56882 -0.150215 0
M  V30 2456 C 240.382 2.19935 0.784284 0
M  V30 2457 C 241.363 1.14854 1.25469 0
M  V30 2458 O 242.548 1.43209 1.31168 0
M  V30 2459 C 239.678 2.82349 2.02229 0
M  V30 2460 C 238.632 3.93285 1.68853 0
M  V30 2461 C 237.958 4.42649 2.99944 0
M  V30 2462 C 239.258 5.13904 0.932714 0
M  V30 2463 H 240.952 2.9828 0.258781 0
M  V30 2464 H 238.498 1.43473 0.123029 0
M  V30 2465 H 240.451 3.25126 2.68088 0
M  V30 2466 H 239.175 2.0134 2.57157 0
M  V30 2467 H 237.834 3.5113 1.05371 0
M  V30 2468 H 237.482 3.58458 3.52869 0
M  V30 2469 H 237.182 5.17476 2.78374 0
M  V30 2470 H 238.706 4.88099 3.66868 0
M  V30 2471 H 240.12 5.53506 1.49345 0
M  V30 2472 H 238.517 5.94515 0.81684 0
M  V30 2473 H 239.587 4.84842 -0.0749568 0
M  V30 2474 N 240.93 -0.123565 1.57115 0
M  V30 2475 C 242.155 -0.850398 1.89164 0
M  V30 2476 C 242.58 -1.7286 0.741688 0
M  V30 2477 O 241.938 -1.78665 -0.307958 0
M  V30 2478 C 241.986 -1.66353 3.19936 0
M  V30 2479 O 241.09 -2.77004 3.0552 0
M  V30 2480 H 240.431 -0.235454 0.620852 0
M  V30 2481 H 242.961 -0.107335 2.04318 0
M  V30 2482 H 242.971 -2.05372 3.52543 0
M  V30 2483 H 241.646 -1.01881 4.03228 0
M  V30 2484 H 240.223 -2.41221 2.84371 0
M  V30 2485 N 242.408 -1.52605 -0.393616 0
M  V30 2486 C 243.656 -1.67093 -1.13685 0
M  V30 2487 C 243.977 -0.411011 -1.90619 0
M  V30 2488 O 243.247 0.574491 -1.87287 0
M  V30 2489 H 241.827 -0.615923 -0.422668 0
M  V30 2490 H 244.489 -1.89704 -0.447039 0
M  V30 2491 H 243.585 -2.51922 -1.84232 0
M  V30 2492 N 243.887 0.651787 -1.4349 0
M  V30 2493 C 245.112 1.44434 -1.48841 0
M  V30 2494 C 245.537 1.8779 -0.107955 0
M  V30 2495 O 244.895 1.57464 0.898602 0
M  V30 2496 C 244.943 2.65458 -2.44059 0
M  V30 2497 O 244.047 3.64566 -1.92784 0
M  V30 2498 H 243.388 0.433005 -0.503391 0
M  V30 2499 H 245.918 0.797451 -1.88419 0
M  V30 2500 H 245.928 3.13255 -2.6141 0
M  V30 2501 H 244.603 2.33244 -3.4434 0
M  V30 2502 H 243.18 3.23716 -1.851 0
M  V30 2503 N 245.365 1.30045 0.890287 0
M  V30 2504 C 246.312 1.15976 1.99545 0
M  V30 2505 C 247.282 0.0506202 1.66023 0
M  V30 2506 O 248.467 0.219847 1.89529 0
M  V30 2507 C 245.607 0.852054 3.34416 0
M  V30 2508 C 244.72 2.04255 3.80662 0
M  V30 2509 C 243.855 1.6734 5.04154 0
M  V30 2510 C 242.894 2.82916 5.42794 0
M  V30 2511 N 242.031 2.46333 6.57468 0
M  V30 2512 H 246.871 2.10524 2.10911 0
M  V30 2513 H 244.408 1.04749 1.03276 0
M  V30 2514 H 246.366 0.654296 4.12037 0
M  V30 2515 H 244.996 -0.0565502 3.2275 0
M  V30 2516 H 244.048 2.35172 2.98995 0
M  V30 2517 H 245.36 2.90826 4.05242 0
M  V30 2518 H 244.514 1.43908 5.89386 0
M  V30 2519 H 243.253 0.779308 4.81433 0
M  V30 2520 H 242.258 3.0702 4.56091 0
M  V30 2521 H 243.483 3.73004 5.6749 0
M  V30 2522 H 241.429 1.59423 6.36334 0
M  V30 2523 H 241.346 3.26436 6.81891 0
M  V30 2524 H 242.614 2.26244 7.45945 0
M  V30 2525 N 246.843 -1.10192 1.12674 0
M  V30 2526 C 247.776 -2.15847 0.740625 0
M  V30 2527 C 248.754 -1.60352 -0.269421 0
M  V30 2528 O 249.938 -1.87796 -0.16278 0
M  V30 2529 C 247.065 -3.38562 0.096641 0
M  V30 2530 C 246.111 -4.12758 1.07391 0
M  V30 2531 S 246.944 -4.67997 2.60267 0
M  V30 2532 C 248.1 -5.94021 1.97206 0
M  V30 2533 H 248.333 -2.48266 1.63558 0
M  V30 2534 H 245.866 -1.22019 0.946087 0
M  V30 2535 H 247.824 -4.09621 -0.268535 0
M  V30 2536 H 246.485 -3.04377 -0.775462 0
M  V30 2537 H 245.678 -5.00755 0.570997 0
M  V30 2538 H 245.28 -3.47523 1.38216 0
M  V30 2539 H 247.572 -6.64589 1.31634 0
M  V30 2540 H 248.515 -6.48979 2.83253 0
M  V30 2541 H 248.923 -5.46169 1.42686 0
M  V30 2542 N 248.321 -0.919034 -1.28029 0
M  V30 2543 C 249.567 -0.565221 -1.95389 0
M  V30 2544 C 249.922 0.882325 -1.70976 0
M  V30 2545 O 249.215 1.61988 -1.02325 0
M  V30 2546 C 249.409 -0.816855 -3.4794 0
M  V30 2547 C 249.238 -2.28731 -3.87185 0
M  V30 2548 C 248.008 -2.93841 -4.11079 0
M  V30 2549 C 250.206 -3.26415 -3.97439 0
M  V30 2550 N 248.188 -4.31129 -4.37037 0
M  V30 2551 C 249.559 -4.48884 -4.27672 0
M  V30 2552 C 251.614 -3.21742 -3.79982 0
M  V30 2553 C 250.317 -5.67268 -4.42266 0
M  V30 2554 C 252.343 -4.39431 -3.95796 0
M  V30 2555 C 251.705 -5.60675 -4.26407 0
M  V30 2556 H 247.804 -0.256797 -0.738633 0
M  V30 2557 H 250.388 -1.18386 -1.54573 0
M  V30 2558 H 248.559 -0.227445 -3.87733 0
M  V30 2559 H 250.291 -0.426542 -4.02446 0
M  V30 2560 H 247.046 -2.44547 -4.05578 0
M  V30 2561 H 247.47 -5.02127 -4.5409 0
M  V30 2562 H 252.112 -2.29079 -3.55363 0
M  V30 2563 H 249.83 -6.60406 -4.65714 0
M  V30 2564 H 253.416 -4.37323 -3.83719 0
M  V30 2565 H 252.296 -6.50223 -4.38383 0
M  V30 2566 N 249.799 1.42003 -0.683588 0
M  V30 2567 C 251.048 2.00638 -0.206681 0
M  V30 2568 C 251.361 1.5472 1.19671 0
M  V30 2569 O 252.567 2.05833 1.77045 0
M  V30 2570 C 251.023 3.58487 -0.318632 0
M  V30 2571 C 250.631 4.1339 -1.72663 0
M  V30 2572 C 252.375 4.24384 0.0991141 0
M  V30 2573 C 250.282 5.63633 -1.79087 0
M  V30 2574 H 249.212 0.750408 -0.0735107 0
M  V30 2575 H 251.863 1.62624 -0.850048 0
M  V30 2576 H 250.245 3.94047 0.392781 0
M  V30 2577 H 251.419 3.89273 -2.46583 0
M  V30 2578 H 249.734 3.59976 -2.09299 0
M  V30 2579 H 252.331 5.34652 0.0713833 0
M  V30 2580 H 252.674 4.00505 1.13586 0
M  V30 2581 H 253.207 3.93816 -0.561599 0
M  V30 2582 H 249.946 5.92323 -2.80774 0
M  V30 2583 H 249.466 5.89714 -1.09535 0
M  V30 2584 H 251.145 6.28201 -1.5483 0
M  V30 2585 N 251.277 0.427512 1.51691 0
M  V30 2586 C 252.505 -0.141191 2.06418 0
M  V30 2587 C 252.92 -1.37303 1.29589 0
M  V30 2588 O 252.277 -1.79059 0.352732 0
M  V30 2589 C 252.328 -0.473266 3.58389 0
M  V30 2590 O 252.049 0.709673 4.32314 0
M  V30 2591 C 253.55 -1.09371 4.29596 0
M  V30 2592 H 250.77 -0.0122747 0.670888 0
M  V30 2593 H 253.314 0.603764 1.95384 0
M  V30 2594 H 251.469 -1.16812 3.69369 0
M  V30 2595 H 251.883 0.42807 5.2275 0
M  V30 2596 H 253.357 -1.27613 5.37046 0
M  V30 2597 H 253.834 -2.072 3.87253 0
M  V30 2598 H 254.44 -0.43853 4.23033 0
M  V30 2599 N 252.755 -1.56801 0.158532 0
M  V30 2600 C 253.703 -2.18638 -0.793729 0
M  V30 2601 C 254.697 -1.14669 -1.24689 0
M  V30 2602 O 255.903 -1.32895 -1.21403 0
M  V30 2603 H 252.278 -0.700226 -0.274204 0
M  V30 2604 H 254.249 -2.97367 -0.248095 0
M  V30 2605 C 252.998 -2.83139 -2.0181 0
M  V30 2606 H 252.321 -3.62863 -1.67841 0
M  V30 2607 H 253.761 -3.29894 -2.66357 0
M  V30 2608 C 252.22 -1.82244 -2.83353 0
M  V30 2609 O 252.75 -1.3 -3.80083 0
M  V30 2610 N 250.956 -1.51288 -2.48114 0
M  V30 2611 H 250.503 -1.93964 -1.69516 0
M  V30 2612 H 250.461 -0.840296 -3.02963 0
M  V30 2613 N 254.233 0.115231 -1.57178 0
M  V30 2614 C 255.458 0.840354 -1.89612 0
M  V30 2615 C 255.883 1.72464 -0.750845 0
M  V30 2616 O 255.241 1.78826 0.298478 0
M  V30 2617 C 255.289 1.64654 -3.20814 0
M  V30 2618 O 254.393 2.7538 -3.06985 0
M  V30 2619 H 253.734 0.232158 -0.622092 0
M  V30 2620 H 256.264 0.0964977 -2.04372 0
M  V30 2621 H 256.274 2.03499 -3.53627 0
M  V30 2622 H 254.949 0.997416 -4.03763 0
M  V30 2623 H 253.526 2.3971 -2.85646 0
M  V30 2624 N 255.711 1.52812 0.385517 0
M  V30 2625 C 257.122 1.5993 0.963293 0
M  V30 2626 C 257.473 0.454302 1.90868 0
M  V30 2627 O 256.598 -0.422132 2.12243 0
M  V30 2628 C 257.193 2.89871 1.75387 0
M  V30 2629 C 255.752 2.99389 2.28129 0
M  V30 2630 C 254.899 2.55071 1.08783 0
M  V30 2631 H 257.85 1.5784 0.164948 0
M  V30 2632 H 257.871 2.76553 2.61341 0
M  V30 2633 H 257.383 3.73186 1.06554 0
M  V30 2634 H 255.484 2.20619 3.00263 0
M  V30 2635 H 255.597 4.04096 2.57377 0
M  V30 2636 H 253.961 2.09473 1.4489 0
M  V30 2637 H 254.744 3.40785 0.414807 0
M  V30 2638 N 257.189 -0.644168 1.43834 0
M  V30 2639 C 258.438 -1.39985 1.45214 0
M  V30 2640 C 258.751 -1.95421 0.0835494 0
M  V30 2641 O 259.957 -2.71488 -0.0251748 0
M  V30 2642 C 258.413 -2.53384 2.55587 0
M  V30 2643 C 258.021 -2.04517 3.98594 0
M  V30 2644 C 259.765 -3.30685 2.66172 0
M  V30 2645 C 257.672 -3.1518 5.00416 0
M  V30 2646 H 256.602 -0.526005 0.540218 0
M  V30 2647 H 259.253 -0.694367 1.69855 0
M  V30 2648 H 257.635 -3.26446 2.24163 0
M  V30 2649 H 258.809 -1.38405 4.39523 0
M  V30 2650 H 257.124 -1.40068 3.92135 0
M  V30 2651 H 259.721 -4.13158 3.39418 0
M  V30 2652 H 260.064 -3.79312 1.71546 0
M  V30 2653 H 260.597 -2.64708 2.96942 0
M  V30 2654 H 257.336 -2.71511 5.96625 0
M  V30 2655 H 256.856 -3.79974 4.64091 0
M  V30 2656 H 258.535 -3.80166 5.23529 0
M  V30 2657 N 258.668 -1.30515 -0.883378 0
M  V30 2658 C 259.631 -1.1701 -1.97082 0
M  V30 2659 C 260.631 -0.10089 -1.60483 0
M  V30 2660 O 261.821 -0.349127 -1.70666 0
M  V30 2661 C 258.953 -0.793045 -3.31547 0
M  V30 2662 H 260.146 -2.13622 -2.10489 0
M  V30 2663 H 257.699 -1.13935 -1.06998 0
M  V30 2664 H 258.434 0.172499 -3.23841 0
M  V30 2665 H 258.219 -1.56576 -3.5948 0
M  V30 2666 H 259.709 -0.722073 -4.1131 0
M  V30 2667 N 260.146 1.09593 -1.13257 0
M  V30 2668 C 261.423 1.78293 -0.804432 0
M  V30 2669 C 261.803 1.99004 0.70431 0
M  V30 2670 O 261.151 1.59007 1.641 0
M  V30 2671 C 261.361 3.10707 -1.5894 0
M  V30 2672 C 262.709 3.85443 -1.78099 0
M  V30 2673 O 263.733 3.20454 -1.55525 0
M  V30 2674 O 262.592 5.02108 -2.15753 0
M  V30 2675 H 259.686 0.773156 -0.293528 0
M  V30 2676 H 262.232 1.16164 -1.23709 0
M  V30 2677 H 261.004 2.91106 -2.61482 0
M  V30 2678 H 260.627 3.80558 -1.15157 0
M  V30 2679 N 261.624 0.925811 1.2754 0
M  V30 2680 C 262.87 0.566092 1.94739 0
M  V30 2681 C 263.203 -0.890057 1.72603 0
M  V30 2682 O 262.478 -1.63467 1.05399 0
M  V30 2683 C 262.761 0.89054 3.48915 0
M  V30 2684 C 262.614 2.4003 3.80402 0
M  V30 2685 C 263.933 0.395101 4.38323 0
M  V30 2686 H 261.052 0.20714 0.707292 0
M  V30 2687 H 263.694 1.15725 1.50691 0
M  V30 2688 H 261.844 0.387452 3.86563 0
M  V30 2689 H 263.516 2.97494 3.52555 0
M  V30 2690 H 261.759 2.85028 3.2702 0
M  V30 2691 H 262.43 2.57785 4.8811 0
M  V30 2692 H 264.906 0.826241 4.07814 0
M  V30 2693 H 263.782 0.651086 5.45025 0
M  V30 2694 H 264.043 -0.704798 4.36446 0
M  V30 2695 N 263.102 -1.41638 0.69111 0
M  V30 2696 C 264.349 -2.01299 0.220193 0
M  V30 2697 C 264.677 -1.54715 -1.17871 0
M  V30 2698 O 263.932 -0.747193 -1.80874 0
M  V30 2699 C 264.231 -3.56714 0.221277 0
M  V30 2700 C 263.897 -4.22792 1.56709 0
M  V30 2701 C 262.559 -4.40557 1.93554 0
M  V30 2702 C 264.911 -4.59883 2.45268 0
M  V30 2703 C 262.239 -4.92688 3.18552 0
M  V30 2704 C 264.591 -5.13403 3.69595 0
M  V30 2705 C 263.255 -5.29379 4.06589 0
M  V30 2706 H 262.525 -0.736606 0.0805743 0
M  V30 2707 H 265.172 -1.69598 0.889319 0
M  V30 2708 H 263.477 -3.8818 -0.531391 0
M  V30 2709 H 265.174 -4.00678 -0.160547 0
M  V30 2710 H 261.764 -4.09336 1.2705 0
M  V30 2711 H 265.948 -4.45817 2.18084 0
M  V30 2712 H 261.204 -5.03242 3.47214 0
M  V30 2713 H 265.378 -5.41084 4.38407 0
M  V30 2714 H 263.005 -5.69537 5.03519 0
M  V30 2715 N 264.58 -0.43555 -1.51462 0
M  V30 2716 C 265.826 0.131709 -2.02372 0
M  V30 2717 C 266.159 1.42516 -1.3192 0
M  V30 2718 O 265.434 1.89606 -0.433573 0
M  V30 2719 C 265.717 0.352301 -3.58373 0
M  V30 2720 C 265.57 -0.959676 -4.39443 0
M  V30 2721 C 266.889 1.12286 -4.25535 0
M  V30 2722 H 264.008 0.0463936 -0.735538 0
M  V30 2723 H 266.65 -0.574197 -1.81116 0
M  V30 2724 H 264.8 0.9536 -3.76615 0
M  V30 2725 H 266.472 -1.59482 -4.32855 0
M  V30 2726 H 264.715 -1.56468 -4.04599 0
M  V30 2727 H 265.386 -0.759394 -5.46752 0
M  V30 2728 H 267.862 0.613545 -4.11552 0
M  V30 2729 H 266.738 1.24598 -5.34571 0
M  V30 2730 H 266.999 2.15048 -3.86273 0
M  V30 2731 N 266.058 1.56714 -0.166846 0
M  V30 2732 C 267.304 1.97039 0.479962 0
M  V30 2733 C 267.637 1.05264 1.63197 0
M  V30 2734 O 266.912 0.0988833 1.94248 0
M  V30 2735 C 267.195 3.46867 0.967212 0
M  V30 2736 C 267.048 4.49421 -0.18466 0
M  V30 2737 C 268.367 3.9968 1.84238 0
M  V30 2738 H 265.486 0.71641 0.172992 0
M  V30 2739 H 268.128 1.8832 -0.252079 0
M  V30 2740 H 266.278 3.54428 1.59101 0
M  V30 2741 H 267.95 4.53924 -0.821621 0
M  V30 2742 H 266.193 4.25573 -0.840837 0
M  V30 2743 H 266.864 5.51644 0.198317 0
M  V30 2744 H 269.34 3.94723 1.31655 0
M  V30 2745 H 268.216 5.04941 2.15234 0
M  V30 2746 H 268.477 3.43226 2.78654 0
M  V30 2747 N 267.536 -0.106894 1.57237 0
M  V30 2748 C 268.782 -0.808678 1.86633 0
M  V30 2749 C 269.137 -1.76917 0.756178 0
M  V30 2750 O 268.43 -1.90055 -0.242834 0
M  V30 2751 C 268.624 -1.58628 3.20268 0
M  V30 2752 C 268.453 -0.702592 4.44178 0
M  V30 2753 C 267.223 -0.352808 5.04067 0
M  V30 2754 C 269.421 -0.0148031 5.14298 0
M  V30 2755 N 267.403 0.540279 6.11518 0
M  V30 2756 C 268.774 0.736809 6.15606 0
M  V30 2757 C 270.829 0.0603524 4.97863 0
M  V30 2758 C 269.532 1.55654 7.02257 0
M  V30 2759 C 271.558 0.866942 5.85011 0
M  V30 2760 C 270.92 1.60671 6.85831 0
M  V30 2761 H 267.019 -0.27246 0.733001 0
M  V30 2762 H 269.603 -0.0717858 1.94568 0
M  V30 2763 H 267.774 -2.29413 3.13408 0
M  V30 2764 H 269.506 -2.23434 3.3743 0
M  V30 2765 H 266.261 -0.697802 4.68431 0
M  V30 2766 H 266.685 0.979029 6.69884 0
M  V30 2767 H 271.327 -0.497236 4.19866 0
M  V30 2768 H 269.045 2.12524 7.79653 0
M  V30 2769 H 272.631 0.927612 5.74358 0
M  V30 2770 H 271.511 2.2208 7.52097 0
M  V30 2771 N 269.014 -1.53014 -0.377408 0
M  V30 2772 C 269.977 -1.77957 -1.44444 0
M  V30 2773 C 270.977 -0.649763 -1.47087 0
M  V30 2774 O 272.167 -0.917897 -1.48055 0
M  V30 2775 C 269.299 -1.89089 -2.83651 0
M  V30 2776 H 270.492 -2.73243 -1.23606 0
M  V30 2777 H 268.045 -1.43912 -0.609844 0
M  V30 2778 H 268.78 -0.958293 -3.09818 0
M  V30 2779 H 268.565 -2.71254 -2.83132 0
M  V30 2780 H 270.055 -2.1002 -3.60945 0
M  V30 2781 N 270.492 0.636531 -1.44174 0
M  V30 2782 C 271.439 1.74875 -1.50624 0
M  V30 2783 C 272.409 1.62275 -0.35442 0
M  V30 2784 O 273.594 1.82276 -0.563908 0
M  V30 2785 C 270.734 3.13102 -1.45125 0
M  V30 2786 C 269.847 3.36717 -2.7064 0
M  V30 2787 C 268.982 4.64885 -2.57013 0
M  V30 2788 C 268.021 4.8166 -3.77717 0
M  V30 2789 N 267.158 6.01101 -3.62798 0
M  V30 2790 H 271.998 1.68697 -2.45653 0
M  V30 2791 H 269.535 0.823004 -1.21922 0
M  V30 2792 H 271.493 3.93034 -1.39929 0
M  V30 2793 H 270.123 3.18308 -0.536671 0
M  V30 2794 H 269.175 2.50763 -2.86046 0
M  V30 2795 H 270.487 3.44993 -3.60252 0
M  V30 2796 H 269.641 5.52969 -2.49619 0
M  V30 2797 H 268.38 4.58957 -1.64953 0
M  V30 2798 H 267.385 3.92007 -3.85501 0
M  V30 2799 H 268.61 4.89406 -4.70807 0
M  V30 2800 H 266.556 5.96273 -2.73486 0
M  V30 2801 H 266.473 6.10409 -4.46023 0
M  V30 2802 H 267.741 6.91761 -3.59286 0
M  V30 2803 N 271.97 1.30982 0.876444 0
M  V30 2804 C 272.9 1.20668 1.99903 0
M  V30 2805 C 273.881 0.095354 1.69833 0
M  V30 2806 O 275.066 0.27885 1.92188 0
M  V30 2807 C 272.196 0.90655 3.3526 0
M  V30 2808 C 271.15 1.97675 3.79617 0
M  V30 2809 C 270.476 1.52943 5.1236 0
M  V30 2810 C 271.776 3.389 3.97422 0
M  V30 2811 H 273.47 2.14586 2.0879 0
M  V30 2812 H 271.016 1.03308 1.00317 0
M  V30 2813 H 272.969 0.821025 4.13324 0
M  V30 2814 H 271.693 -0.0682969 3.26529 0
M  V30 2815 H 270.352 2.05205 3.03787 0
M  V30 2816 H 270 0.54262 5.00065 0
M  V30 2817 H 269.7 2.24532 5.43009 0
M  V30 2818 H 271.224 1.45786 5.92941 0
M  V30 2819 H 272.638 3.34081 4.659 0
M  V30 2820 H 271.035 4.0865 4.3946 0
M  V30 2821 H 272.105 3.80163 3.01006 0
M  V30 2822 N 273.449 -1.08991 1.13837 0
M  V30 2823 C 274.726 -1.77863 0.813876 0
M  V30 2824 C 275.106 -1.99375 -0.693746 0
M  V30 2825 O 274.454 -1.59875 -1.63255 0
M  V30 2826 C 274.664 -3.0986 1.60586 0
M  V30 2827 C 276.012 -3.84493 1.8014 0
M  V30 2828 O 277.036 -3.19624 1.57222 0
M  V30 2829 O 275.895 -5.00957 2.18413 0
M  V30 2830 H 272.989 -0.771589 0.297624 0
M  V30 2831 H 275.535 -1.15507 1.24323 0
M  V30 2832 H 274.307 -2.89715 2.63022 0
M  V30 2833 H 273.93 -3.79942 1.17173 0
M  V30 2834 N 274.927 -0.932562 -1.27047 0
M  V30 2835 C 275.837 -0.441219 -2.30414 0
M  V30 2836 C 276.853 0.480525 -1.67233 0
M  V30 2837 O 278.029 0.362151 -1.98117 0
M  V30 2838 C 275.094 0.293651 -3.45454 0
M  V30 2839 C 274.155 -0.663601 -4.2414 0
M  V30 2840 C 273.388 0.0362932 -5.33688 0
M  V30 2841 O 273.611 1.2548 -5.56427 0
M  V30 2842 O 272.545 -0.638015 -5.98509 0
M  V30 2843 H 276.371 -1.29962 -2.74488 0
M  V30 2844 H 273.956 -0.6981 -1.32087 0
M  V30 2845 H 275.838 0.707951 -4.15411 0
M  V30 2846 H 274.513 1.12758 -3.03426 0
M  V30 2847 H 273.42 -1.12768 -3.56699 0
M  V30 2848 H 274.753 -1.46489 -4.69896 0
M  V30 2849 N 276.405 1.4127 -0.698611 0
M  V30 2850 C 277.682 1.94955 -0.158762 0
M  V30 2851 C 278.062 1.63781 1.33188 0
M  V30 2852 O 277.41 0.946423 2.07979 0
M  V30 2853 C 277.62 3.46044 -0.453309 0
M  V30 2854 C 278.968 4.22872 -0.382707 0
M  V30 2855 O 279.992 3.54076 -0.388396 0
M  V30 2856 O 278.851 5.45407 -0.345463 0
M  V30 2857 H 275.945 0.82683 -0.0167505 0
M  V30 2858 H 278.491 1.50971 -0.77498 0
M  V30 2859 H 277.263 3.62028 -1.48498 0
M  V30 2860 H 276.886 3.97128 0.19373 0
M  V30 2861 N 277.883 0.443576 1.51229 0
M  V30 2862 C 279.131 -0.120557 2.0174 0
M  V30 2863 C 279.452 -1.42665 1.32935 0
M  V30 2864 O 278.722 -1.9028 0.465866 0
M  V30 2865 H 277.302 -0.0475426 0.745486 0
M  V30 2866 H 279.964 0.587711 1.85828 0
M  V30 2867 H 279.06 -0.291972 3.10731 0
M  V30 2868 N 279.361 -1.56624 0.175154 0
M  V30 2869 C 280.777 -1.58571 -0.180966 0
M  V30 2870 C 280.977 -1.19065 -1.6256 0
M  V30 2871 O 280.033 -0.904044 -2.35761 0
M  V30 2872 C 281.346 -3.00522 0.103326 0
M  V30 2873 C 282.894 -3.12972 0.0418426 0
M  V30 2874 C 283.369 -4.57022 0.299175 0
M  V30 2875 N 284.86 -4.62541 0.247086 0
M  V30 2876 C 285.595 -5.71857 0.420318 0
M  V30 2877 N 285.091 -6.89717 0.652816 0
M  V30 2878 N 286.884 -5.60972 0.355957 0
M  V30 2879 H 279.035 -1.80589 1.11809 0
M  V30 2880 H 281.298 -0.837178 0.444788 0
M  V30 2881 H 281.004 -3.33916 1.10422 0
M  V30 2882 H 280.878 -3.72344 -0.603299 0
M  V30 2883 H 283.265 -2.79403 -0.949636 0
M  V30 2884 H 283.346 -2.43578 0.781238 0
M  V30 2885 H 282.99 -4.913 1.28788 0
M  V30 2886 H 282.92 -5.24579 -0.460876 0
M  V30 2887 H 285.411 -3.77829 0.0731895 0
M  V30 2888 H 285.724 -7.68911 0.774347 0
M  V30 2889 H 284.069 -6.91572 0.689476 0
M  V30 2890 H 287.26 -4.67773 0.174882 0
M  V30 2891 H 287.433 -6.46111 0.494388 0
M  V30 2892 N 280.839 0.0985539 -1.57292 0
M  V30 2893 C 282.116 0.834155 -1.76921 0
M  V30 2894 C 282.496 1.97101 -0.755928 0
M  V30 2895 O 281.844 2.27474 0.216245 0
M  V30 2896 C 282.054 1.33194 -3.22584 0
M  V30 2897 C 283.402 1.77611 -3.85668 0
M  V30 2898 O 284.426 1.42825 -3.26312 0
M  V30 2899 O 283.285 2.4192 -4.90038 0
M  V30 2900 H 280.379 0.397628 -0.725135 0
M  V30 2901 H 282.925 0.0807044 -1.69508 0
M  V30 2902 H 281.697 0.517248 -3.87866 0
M  V30 2903 H 281.32 2.1475 -3.34616 0
M  V30 2904 N 282.317 1.53212 0.369288 0
M  V30 2905 C 283.227 1.82342 1.47609 0
M  V30 2906 C 284.243 0.711532 1.58787 0
M  V30 2907 O 285.419 1.0012 1.74751 0
M  V30 2908 C 282.484 2.00393 2.8292 0
M  V30 2909 C 281.545 3.24297 2.81301 0
M  V30 2910 C 280.778 3.41478 4.10157 0
M  V30 2911 O 281.001 2.63033 5.06132 0
M  V30 2912 O 279.935 4.34817 4.16194 0
M  V30 2913 H 283.761 2.76366 1.25918 0
M  V30 2914 H 281.346 1.38547 0.559034 0
M  V30 2915 H 283.228 2.13859 3.63101 0
M  V30 2916 H 281.903 1.09559 3.04596 0
M  V30 2917 H 280.81 3.16257 1.99831 0
M  V30 2918 H 282.143 4.15041 2.64578 0
M  V30 2919 N 283.795 -0.628877 1.44509 0
M  V30 2920 C 285.044 -1.38437 1.4669 0
M  V30 2921 C 285.357 -1.95322 0.104272 0
M  V30 2922 O 286.563 -2.715 0.00362163 0
M  V30 2923 C 285.019 -2.50659 2.5826 0
M  V30 2924 C 284.627 -2.00277 4.0074 0
M  V30 2925 C 286.371 -3.27844 2.69664 0
M  V30 2926 C 284.278 -3.09854 5.0373 0
M  V30 2927 H 283.208 -0.520245 0.545766 0
M  V30 2928 H 285.859 -0.676313 1.70582 0
M  V30 2929 H 284.241 -3.2405 2.27612 0
M  V30 2930 H 285.415 -1.33736 4.40966 0
M  V30 2931 H 283.73 -1.35901 3.93599 0
M  V30 2932 H 286.327 -4.09534 3.43781 0
M  V30 2933 H 286.67 -3.77471 1.75559 0
M  V30 2934 H 287.203 -2.61543 2.99733 0
M  V30 2935 H 283.942 -2.65168 5.99472 0
M  V30 2936 H 283.462 -3.7503 4.68095 0
M  V30 2937 H 285.141 -3.74592 5.27532 0
M  V30 2938 N 285.273 -1.31445 -0.869486 0
M  V30 2939 C 286.689 -1.10113 -1.15531 0
M  V30 2940 C 286.889 0.128087 -2.01092 0
M  V30 2941 O 285.945 0.817276 -2.38908 0
M  V30 2942 C 287.258 -2.37291 -1.84698 0
M  V30 2943 C 288.806 -2.42906 -1.97397 0
M  V30 2944 C 289.281 -3.69967 -2.69979 0
M  V30 2945 N 290.772 -3.70864 -2.77514 0
M  V30 2946 C 291.507 -4.65875 -3.34287 0
M  V30 2947 N 291.003 -5.71242 -3.91988 0
M  V30 2948 N 292.796 -4.53394 -3.3225 0
M  V30 2949 H 284.947 -2.1028 -0.299347 0
M  V30 2950 H 287.21 -0.927683 -0.195214 0
M  V30 2951 H 286.916 -3.27078 -1.29278 0
M  V30 2952 H 286.79 -2.47125 -2.84972 0
M  V30 2953 H 289.177 -1.53588 -2.51982 0
M  V30 2954 H 289.258 -2.37036 -0.961643 0
M  V30 2955 H 288.902 -4.59652 -2.16062 0
M  V30 2956 H 288.832 -3.73103 -3.7162 0
M  V30 2957 H 291.323 -2.94697 -2.36563 0
M  V30 2958 H 291.636 -6.39817 -4.33421 0
M  V30 2959 H 289.981 -5.75015 -3.90362 0
M  V30 2960 H 293.172 -3.70252 -2.8641 0
M  V30 2961 H 293.345 -5.27617 -3.76197 0
M  V30 2962 N 286.751 1.08385 -1.14413 0
M  V30 2963 C 287.999 1.80419 -0.910679 0
M  V30 2964 C 288.32 1.86658 0.564243 0
M  V30 2965 O 287.59 1.35985 1.41014 0
M  V30 2966 H 286.17 0.668204 -0.333934 0
M  V30 2967 H 288.832 1.31037 -1.44275 0
M  V30 2968 H 287.928 2.83238 -1.31082 0
M  V30 2969 N 288.23 0.939286 1.26551 0
M  V30 2970 C 289.477 0.585847 1.9384 0
M  V30 2971 C 289.805 -0.874784 1.73718 0
M  V30 2972 O 289.06 -1.64092 1.06642 0
M  V30 2973 C 289.359 0.872106 3.46596 0
M  V30 2974 C 289.025 2.31632 3.86856 0
M  V30 2975 C 287.687 2.71111 3.97558 0
M  V30 2976 C 290.039 3.25494 4.07066 0
M  V30 2977 C 287.367 4.03553 4.25866 0
M  V30 2978 C 289.719 4.57531 4.36862 0
M  V30 2979 C 288.383 4.96828 4.45778 0
M  V30 2980 H 287.653 0.214377 0.709312 0
M  V30 2981 H 290.3 1.18544 1.50398 0
M  V30 2982 H 288.605 0.18996 3.91339 0
M  V30 2983 H 290.302 0.577442 3.96821 0
M  V30 2984 H 286.892 2.00008 3.79071 0
M  V30 2985 H 291.076 2.9619 3.98227 0
M  V30 2986 H 286.332 4.33665 4.30981 0
M  V30 2987 H 290.506 5.30254 4.51446 0
M  V30 2988 H 288.133 5.99482 4.67468 0
M  V30 2989 N 289.708 -1.40897 0.706093 0
M  V30 2990 C 290.957 -2.00284 0.238574 0
M  V30 2991 C 291.27 -1.56604 -1.17194 0
M  V30 2992 O 292.476 -2.08624 -1.73748 0
M  V30 2993 C 290.932 -3.57934 0.375623 0
M  V30 2994 C 290.54 -4.10591 1.79217 0
M  V30 2995 C 292.284 -4.24488 -0.0315857 0
M  V30 2996 C 290.191 -5.60712 1.88032 0
M  V30 2997 H 289.121 -0.749144 0.0854398 0
M  V30 2998 H 291.772 -1.61251 0.875813 0
M  V30 2999 H 290.154 -3.94622 -0.330042 0
M  V30 3000 H 291.328 -3.85301 2.52745 0
M  V30 3001 H 289.643 -3.56601 2.15 0
M  V30 3002 H 292.24 -5.34698 0.0136842 0
M  V30 3003 H 292.583 -4.02261 -1.072 0
M  V30 3004 H 293.116 -3.92873 0.624181 0
M  V30 3005 H 289.855 -5.87781 2.90161 0
M  V30 3006 H 289.375 -5.87896 1.18903 0
M  V30 3007 H 291.054 -6.25658 1.64805 0
M  V30 3008 N 291.186 -0.45159 -1.50991 0
M  V30 3009 C 292.116 0.342898 -2.30969 0
M  V30 3010 C 293.097 1.00815 -1.37005 0
M  V30 3011 O 294.282 1.00907 -1.65926 0
M  V30 3012 C 291.412 1.43637 -3.16205 0
M  V30 3013 C 290.366 0.893818 -4.18563 0
M  V30 3014 C 289.692 2.08411 -4.92411 0
M  V30 3015 C 290.992 -0.0815568 -5.22236 0
M  V30 3016 H 292.686 -0.324556 -2.97636 0
M  V30 3017 H 290.232 -0.157531 -1.43136 0
M  V30 3018 H 292.185 1.9995 -3.70942 0
M  V30 3019 H 290.909 2.13232 -2.47386 0
M  V30 3020 H 289.568 0.352798 -3.64898 0
M  V30 3021 H 289.216 2.76658 -4.20082 0
M  V30 3022 H 288.916 1.72741 -5.61636 0
M  V30 3023 H 290.44 2.65251 -5.49976 0
M  V30 3024 H 291.854 0.391742 -5.7196 0
M  V30 3025 H 290.251 -0.351551 -5.99069 0
M  V30 3026 H 291.321 -1.01374 -4.74185 0
M  V30 3027 N 292.664 1.56529 -0.183458 0
M  V30 3028 C 293.574 2.22144 0.754272 0
M  V30 3029 C 294.59 1.21684 1.24374 0
M  V30 3030 O 295.766 1.54385 1.29333 0
M  V30 3031 C 292.831 2.85884 1.96141 0
M  V30 3032 C 291.892 4.01579 1.51765 0
M  V30 3033 C 291.125 4.6227 2.66725 0
M  V30 3034 O 291.348 4.21865 3.83909 0
M  V30 3035 O 290.282 5.51936 2.40104 0
M  V30 3036 H 294.108 3.02861 0.225527 0
M  V30 3037 H 291.693 1.49331 0.0453032 0
M  V30 3038 H 293.575 3.26253 2.66715 0
M  V30 3039 H 292.25 2.08154 2.47899 0
M  V30 3040 H 291.157 3.65856 0.781049 0
M  V30 3041 H 292.49 4.80938 1.04686 0
M  V30 3042 N 294.142 -0.090211 1.57342 0
M  V30 3043 C 295.089 -1.10909 2.02405 0
M  V30 3044 C 296.059 -1.39523 0.901252 0
M  V30 3045 O 297.244 -1.50903 1.1676 0
M  V30 3046 C 294.384 -2.42277 2.45755 0
M  V30 3047 C 293.497 -2.20352 3.71576 0
M  V30 3048 C 292.632 -3.45154 4.03785 0
M  V30 3049 C 291.671 -3.18512 5.22701 0
M  V30 3050 N 290.808 -4.35593 5.50639 0
M  V30 3051 H 295.648 -0.71782 2.89225 0
M  V30 3052 H 293.185 -0.342901 1.43048 0
M  V30 3053 H 295.143 -3.18951 2.68935 0
M  V30 3054 H 293.773 -2.79242 1.61938 0
M  V30 3055 H 292.825 -1.34458 3.55844 0
M  V30 3056 H 294.137 -1.96661 4.58395 0
M  V30 3057 H 293.291 -4.30233 4.27767 0
M  V30 3058 H 292.03 -3.71904 3.15498 0
M  V30 3059 H 291.035 -2.31827 4.98534 0
M  V30 3060 H 292.26 -2.93103 6.12591 0
M  V30 3061 H 290.206 -4.6241 4.6531 0
M  V30 3062 H 290.123 -4.1511 6.31838 0
M  V30 3063 H 291.391 -5.21723 5.7916 0
M  V30 3064 N 295.62 -1.53406 -0.361157 0
M  V30 3065 C 296.868 -1.69467 -1.10115 0
M  V30 3066 C 297.189 -0.451352 -1.89705 0
M  V30 3067 O 296.459 0.534636 -1.88463 0
M  V30 3068 H 295.039 -0.624749 -0.409508 0
M  V30 3069 H 297.701 -1.90609 -0.406699 0
M  V30 3070 H 296.797 -2.55774 -1.78847 0
M  V30 3071 N 297.098 0.621204 -1.44841 0
M  V30 3072 C 298.338 1.39201 -1.49674 0
M  V30 3073 C 298.702 1.91561 -0.129764 0
M  V30 3074 O 299.903 2.68748 -0.0527814 0
M  V30 3075 C 298.174 2.519 -2.53537 0
M  V30 3076 S 299.733 3.39916 -2.77494 0
M  V30 3077 H 296.551 0.474758 -0.529269 0
M  V30 3078 H 299.153 0.718171 -1.81831 0
M  V30 3079 H 297.857 2.11761 -3.51547 0
M  V30 3080 H 297.388 3.241 -2.22986 0
M  V30 3081 H 299.403 4.49646 -2.0984 0
M  V30 3082 N 298.576 1.31904 0.862503 0
M  V30 3083 C 299.523 1.20182 1.9704 0
M  V30 3084 C 300.493 0.0858247 1.65878 0
M  V30 3085 O 301.678 0.26 1.8902 0
M  V30 3086 C 298.818 0.922797 3.32533 0
M  V30 3087 C 297.931 2.12284 3.76244 0
M  V30 3088 C 297.066 1.77996 5.00491 0
M  V30 3089 C 296.105 2.94366 5.36671 0
M  V30 3090 N 295.242 2.60223 6.52095 0
M  V30 3091 H 300.082 2.14951 2.06398 0
M  V30 3092 H 297.619 1.06917 1.01031 0
M  V30 3093 H 299.577 0.741548 4.10557 0
M  V30 3094 H 298.207 0.0119227 3.22798 0
M  V30 3095 H 297.259 2.41461 2.9394 0
M  V30 3096 H 298.571 2.99357 3.98982 0
M  V30 3097 H 297.725 1.56377 5.862 0
M  V30 3098 H 296.464 0.881252 4.79672 0
M  V30 3099 H 295.469 3.16625 4.49476 0
M  V30 3100 H 296.694 3.84957 5.59451 0
M  V30 3101 H 294.64 1.72884 6.32809 0
M  V30 3102 H 294.557 3.40827 6.74814 0
M  V30 3103 H 295.825 2.42016 7.40978 0
M  V30 3104 N 300.054 -1.07777 1.14986 0
M  V30 3105 C 301.302 -1.79934 0.920235 0
M  V30 3106 C 301.623 -1.86955 -0.554336 0
M  V30 3107 O 300.893 -1.36731 -1.40291 0
M  V30 3108 H 299.473 -0.666424 0.337473 0
M  V30 3109 H 302.135 -1.3027 1.44968 0
M  V30 3110 H 301.231 -2.82539 1.32583 0
M  V30 3111 N 301.532 -0.945985 -1.26051 0
M  V30 3112 C 302.462 -0.477172 -2.28572 0
M  V30 3113 C 303.443 0.472032 -1.63419 0
M  V30 3114 O 304.628 0.372853 -1.90587 0
M  V30 3115 C 301.758 0.253975 -3.4637 0
M  V30 3116 C 300.712 -0.609135 -4.23643 0
M  V30 3117 C 300.038 0.252252 -5.34105 0
M  V30 3118 C 301.338 -1.8829 -4.8718 0
M  V30 3119 H 303.032 -1.33402 -2.68038 0
M  V30 3120 H 300.578 -0.642904 -1.28852 0
M  V30 3121 H 302.531 0.593016 -4.17207 0
M  V30 3122 H 301.255 1.145 -3.05871 0
M  V30 3123 H 299.914 -0.931138 -3.54578 0
M  V30 3124 H 299.562 1.14278 -4.89846 0
M  V30 3125 H 299.262 -0.32188 -5.86718 0
M  V30 3126 H 300.786 0.586454 -6.07777 0
M  V30 3127 H 302.2 -1.61081 -5.50205 0
M  V30 3128 H 300.597 -2.40199 -5.49931 0
M  V30 3129 H 301.667 -2.59134 -4.09851 0
M  V30 3130 N 303.011 1.40521 -0.713556 0
M  V30 3131 C 304.236 2.05759 -0.26035 0
M  V30 3132 C 304.661 1.53403 1.08854 0
M  V30 3133 O 304.019 0.668535 1.68524 0
M  V30 3134 C 304.067 3.59745 -0.248122 0
M  V30 3135 O 303.171 4.05123 0.77131 0
M  V30 3136 H 302.512 0.652564 -0.122703 0
M  V30 3137 H 305.042 1.79958 -0.973467 0
M  V30 3138 H 305.052 4.07911 -0.0851129 0
M  V30 3139 H 303.727 3.97218 -1.2325 0
M  V30 3140 H 302.304 3.68422 0.57619 0
M  V30 3141 N 304.489 0.459591 1.5075 0
M  V30 3142 C 305.452 -0.329093 2.26825 0
M  V30 3143 C 306.452 -0.930481 1.31144 0
M  V30 3144 O 307.642 -0.801453 1.54669 0
M  V30 3145 C 304.774 -1.46768 3.07688 0
M  V30 3146 H 305.967 0.337924 2.9799 0
M  V30 3147 H 303.52 0.213336 1.54837 0
M  V30 3148 H 304.255 -2.17009 2.40993 0
M  V30 3149 H 304.04 -1.04238 3.77991 0
M  V30 3150 H 305.53 -2.02433 3.65254 0
M  V30 3151 N 305.967 -1.56429 0.191757 0
M  V30 3152 C 307.378 -1.83912 -0.321428 0
M  V30 3153 C 307.729 -1.11231 -1.61623 0
M  V30 3154 O 306.854 -0.37202 -2.13178 0
M  V30 3155 C 307.449 -3.33624 -0.589961 0
M  V30 3156 C 306.008 -3.6153 -1.04753 0
M  V30 3157 C 305.155 -2.7714 -0.0943327 0
M  V30 3158 H 308.106 -1.53161 0.415612 0
M  V30 3159 H 308.127 -3.52213 -1.43966 0
M  V30 3160 H 307.639 -3.86495 0.352588 0
M  V30 3161 H 305.74 -3.14089 -2.00447 0
M  V30 3162 H 305.853 -4.69737 -0.942549 0
M  V30 3163 H 304.217 -2.47638 -0.595589 0
M  V30 3164 H 305 -3.32799 0.842601 0
M  V30 3165 N 307.445 0.0818655 -1.57387 0
M  V30 3166 C 308.408 1.08265 -2.02018 0
M  V30 3167 C 309.408 1.32183 -0.915664 0
M  V30 3168 O 310.598 1.28073 -1.18081 0
M  V30 3169 C 307.73 2.42871 -2.39221 0
M  V30 3170 H 308.923 0.698204 -2.91659 0
M  V30 3171 H 306.476 0.327303 -1.52835 0
M  V30 3172 H 307.211 2.86167 -1.52575 0
M  V30 3173 H 306.996 2.26855 -3.19811 0
M  V30 3174 H 308.486 3.14826 -2.74362 0
M  V30 3175 N 308.923 1.53595 0.353017 0
M  V30 3176 C 310.172 1.69603 1.09168 0
M  V30 3177 C 310.485 0.460925 1.90092 0
M  V30 3178 O 311.691 0.501774 2.66823 0
M  V30 3179 C 310.147 2.99872 1.9901 0
M  V30 3180 C 309.755 4.30687 1.23339 0
M  V30 3181 C 311.499 3.25246 2.72792 0
M  V30 3182 C 309.406 5.52036 2.12156 0
M  V30 3183 H 308.336 0.631966 0.411261 0
M  V30 3184 H 310.987 1.80096 0.351802 0
M  V30 3185 H 309.369 2.83212 2.7678 0
M  V30 3186 H 310.543 4.58019 0.505456 0
M  V30 3187 H 308.858 4.11853 0.613663 0
M  V30 3188 H 311.455 4.13095 3.39495 0
M  V30 3189 H 311.798 2.41846 3.38846 0
M  V30 3190 H 312.331 3.42638 2.021 0
M  V30 3191 H 309.07 6.37951 1.50659 0
M  V30 3192 H 308.59 5.28966 2.82764 0
M  V30 3193 H 310.269 5.87313 2.71427 0
M  V30 3194 N 310.401 -0.613514 1.45168 0
M  V30 3195 C 311.351 -1.71871 1.49815 0
M  V30 3196 C 312.335 -1.56774 0.362021 0
M  V30 3197 O 313.527 -1.66212 0.608493 0
M  V30 3198 C 310.656 -3.1061 1.46207 0
M  V30 3199 C 309.742 -3.31114 2.64999 0
M  V30 3200 N 310.133 -3.21904 3.90143 0
M  V30 3201 C 308.431 -3.61966 2.6057 0
M  V30 3202 C 309.132 -3.43577 4.69393 0
M  V30 3203 N 308.108 -3.67287 4.00751 0
M  V30 3204 H 311.91 -1.63235 2.444 0
M  V30 3205 H 309.424 -0.816577 1.40377 0
M  V30 3206 H 311.421 -3.8989 1.4762 0
M  V30 3207 H 310.081 -3.20399 0.52673 0
M  V30 3208 H 311.092 -3.00436 4.21852 0
M  V30 3209 H 307.769 -3.78629 1.75916 0
M  V30 3210 H 309.159 -3.41901 5.78406 0
M  V30 3211 N 311.879 -1.3236 -0.855495 0
M  V30 3212 C 313.127 -1.22629 -1.60644 0
M  V30 3213 C 313.448 0.212136 -1.93843 0
M  V30 3214 O 312.718 1.13666 -1.59552 0
M  V30 3215 H 311.298 -0.450882 -0.595579 0
M  V30 3216 H 313.96 -1.65871 -1.02337 0
M  V30 3217 H 313.056 -1.80832 -2.54374 0
M  V30 3218 N 313.357 1.07166 -1.15556 0
M  V30 3219 C 314.304 2.14417 -0.854055 0
M  V30 3220 C 315.274 1.64965 0.193806 0
M  V30 3221 O 316.459 1.90703 0.0609443 0
M  V30 3222 C 313.599 3.43304 -0.351574 0
M  V30 3223 C 312.712 4.06537 -1.46123 0
M  V30 3224 C 311.847 5.23266 -0.914677 0
M  V30 3225 C 310.886 5.78464 -2.00114 0
M  V30 3226 N 310.023 6.86521 -1.47083 0
M  V30 3227 H 314.863 2.39548 -1.77259 0
M  V30 3228 H 312.4 1.17543 -0.884425 0
M  V30 3229 H 314.358 4.17179 -0.0419409 0
M  V30 3230 H 312.988 3.18419 0.530037 0
M  V30 3231 H 312.04 3.30297 -1.88701 0
M  V30 3232 H 313.352 4.43567 -2.28144 0
M  V30 3233 H 312.506 6.04131 -0.557698 0
M  V30 3234 H 311.245 4.87658 -0.0636583 0
M  V30 3235 H 310.25 4.96243 -2.36692 0
M  V30 3236 H 311.475 6.16126 -2.85597 0
M  V30 3237 H 309.421 6.52849 -0.642198 0
M  V30 3238 H 309.338 7.22446 -2.22729 0
M  V30 3239 H 310.606 7.71087 -1.14215 0
M  V30 3240 N 314.835 0.952656 1.25548 0
M  V30 3241 C 316.081 0.607272 1.93494 0
M  V30 3242 C 316.414 -0.853245 1.74452 0
M  V30 3243 O 315.689 -1.61194 1.08843 0
M  V30 3244 C 315.972 0.96435 3.46947 0
M  V30 3245 C 315.825 2.48045 3.75225 0
M  V30 3246 C 317.144 0.487987 4.37386 0
M  V30 3247 H 314.263 0.222096 0.702739 0
M  V30 3248 H 316.905 1.18895 1.48203 0
M  V30 3249 H 315.055 0.469361 3.85654 0
M  V30 3250 H 316.727 3.04905 3.46166 0
M  V30 3251 H 314.97 2.919 3.209 0
M  V30 3252 H 315.641 2.6808 4.82532 0
M  V30 3253 H 318.117 0.912558 4.0597 0
M  V30 3254 H 316.993 0.766547 5.43521 0
M  V30 3255 H 317.254 -0.612063 4.37843 0
M  V30 3256 N 316.313 -1.40141 0.720998 0
M  V30 3257 C 317.561 -2.0039 0.262323 0
M  V30 3258 C 317.882 -1.57469 -1.15015 0
M  V30 3259 O 317.152 -0.816582 -1.78069 0
M  V30 3260 H 315.732 -0.741063 0.093996 0
M  V30 3261 H 318.394 -1.71398 0.927835 0
M  V30 3262 H 317.49 -3.10658 0.299671 0
M  V30 3263 N 317.792 -0.46758 -1.50504 0
M  V30 3264 C 318.722 0.318381 -2.31319 0
M  V30 3265 C 319.703 0.993564 -1.38066 0
M  V30 3266 O 320.888 0.991411 -1.66987 0
M  V30 3267 C 318.018 1.40275 -3.17711 0
M  V30 3268 C 316.972 0.849373 -4.19487 0
M  V30 3269 C 316.298 2.03177 -4.94594 0
M  V30 3270 C 317.598 -0.136942 -5.2212 0
M  V30 3271 H 319.292 -0.356106 -2.97275 0
M  V30 3272 H 316.838 -0.172703 -1.42961 0
M  V30 3273 H 318.791 1.96004 -3.73042 0
M  V30 3274 H 317.515 2.10596 -2.49634 0
M  V30 3275 H 316.174 0.314076 -3.65252 0
M  V30 3276 H 315.822 2.72187 -4.22993 0
M  V30 3277 H 315.522 1.66774 -5.63436 0
M  V30 3278 H 317.046 2.59403 -5.52759 0
M  V30 3279 H 318.46 0.331056 -5.72343 0
M  V30 3280 H 316.857 -0.41507 -5.98663 0
M  V30 3281 H 317.927 -1.06398 -4.73083 0
M  V30 3282 N 319.27 1.56325 -0.20005 0
M  V30 3283 C 320.686 1.58839 0.155716 0
M  V30 3284 C 320.886 1.21636 1.60645 0
M  V30 3285 O 319.942 0.941437 2.34293 0
M  V30 3286 C 321.255 3.0032 -0.151124 0
M  V30 3287 C 322.803 3.12866 -0.0916284 0
M  V30 3288 C 323.278 4.56488 -0.371845 0
M  V30 3289 N 324.769 4.62089 -0.320641 0
M  V30 3290 C 325.504 5.71116 -0.511243 0
M  V30 3291 N 325 6.88592 -0.762461 0
M  V30 3292 N 326.793 5.60335 -0.445157 0
M  V30 3293 H 318.944 1.78788 -1.14668 0
M  V30 3294 H 321.207 0.829996 -0.458051 0
M  V30 3295 H 320.913 3.32117 -1.15721 0
M  V30 3296 H 320.787 3.73257 0.543986 0
M  V30 3297 H 323.174 2.80878 0.905065 0
M  V30 3298 H 323.255 2.42304 -0.81989 0
M  V30 3299 H 322.899 4.89189 -1.36588 0
M  V30 3300 H 322.829 5.25246 0.377362 0
M  V30 3301 H 325.32 3.77665 -0.13329 0
M  V30 3302 H 325.633 7.67581 -0.896576 0
M  V30 3303 H 323.978 6.90387 -0.799412 0
M  V30 3304 H 327.169 4.67436 -0.249278 0
M  V30 3305 H 327.342 6.45243 -0.597116 0
M  V30 3306 N 320.748 -0.0735177 1.57428 0
M  V30 3307 C 321.711 -1.07192 2.02589 0
M  V30 3308 C 322.711 -1.31695 0.922661 0
M  V30 3309 O 323.901 -1.27445 1.18758 0
M  V30 3310 C 321.033 -2.41599 2.40506 0
M  V30 3311 H 322.226 -0.682727 2.92025 0
M  V30 3312 H 319.779 -0.319193 1.53006 0
M  V30 3313 H 320.514 -2.85354 1.5409 0
M  V30 3314 H 320.299 -2.25156 3.21009 0
M  V30 3315 H 321.789 -3.13367 2.76027 0
M  V30 3316 N 322.226 -1.5378 -0.344866 0
M  V30 3317 C 323.451 -1.75211 -1.10977 0
M  V30 3318 C 323.876 -0.48936 -1.81623 0
M  V30 3319 O 323.234 0.557925 -1.72502 0
M  V30 3320 C 323.282 -2.93147 -2.09993 0
M  V30 3321 O 322.386 -2.63203 -3.17487 0
M  V30 3322 H 321.727 -0.581241 -0.321021 0
M  V30 3323 H 324.257 -2.00738 -0.395661 0
M  V30 3324 H 324.267 -3.19898 -2.53237 0
M  V30 3325 H 322.942 -3.84731 -1.5797 0
M  V30 3326 H 321.519 -2.47336 -2.79069 0
M  V30 3327 N 323.704 0.605807 -1.45491 0
M  V30 3328 C 324.953 1.36086 -1.48874 0
M  V30 3329 C 325.266 1.95131 -0.135333 0
M  V30 3330 O 326.472 2.7146 -0.0468144 0
M  V30 3331 C 324.928 2.46518 -2.62215 0
M  V30 3332 C 324.536 1.93877 -4.03876 0
M  V30 3333 C 326.28 3.23512 -2.74846 0
M  V30 3334 C 324.187 3.01801 -5.08596 0
M  V30 3335 H 323.117 0.511497 -0.553974 0
M  V30 3336 H 325.768 0.649089 -1.71636 0
M  V30 3337 H 324.15 3.20388 -2.32739 0
M  V30 3338 H 325.324 1.26704 -4.43038 0
M  V30 3339 H 323.639 1.29622 -3.95711 0
M  V30 3340 H 326.236 4.04013 -3.50253 0
M  V30 3341 H 326.579 3.74631 -1.81542 0
M  V30 3342 H 327.112 2.56742 -3.03856 0
M  V30 3343 H 323.851 2.55597 -6.03614 0
M  V30 3344 H 323.371 3.67535 -4.74002 0
M  V30 3345 H 325.05 3.66152 -5.33424 0
M  V30 3346 N 325.182 1.32811 0.848464 0
M  V30 3347 C 326.41 1.26739 1.63538 0
M  V30 3348 C 326.825 -0.163484 1.88091 0
M  V30 3349 O 326.182 -1.10258 1.45429 0
M  V30 3350 C 326.233 2.03013 2.99112 0
M  V30 3351 O 325.954 3.40518 2.75643 0
M  V30 3352 C 327.455 2.04038 3.93552 0
M  V30 3353 H 324.675 0.437024 0.509167 0
M  V30 3354 H 327.219 1.75033 1.05753 0
M  V30 3355 H 325.374 1.58426 3.53525 0
M  V30 3356 H 325.788 3.79635 3.61908 0
M  V30 3357 H 327.262 2.61877 4.85926 0
M  V30 3358 H 327.739 1.0282 4.26995 0
M  V30 3359 H 328.345 2.486 3.45077 0
M  V30 3360 N 326.66 -1.06551 1.16123 0
M  V30 3361 C 327.908 -1.78947 0.939267 0
M  V30 3362 C 328.229 -1.87532 -0.534476 0
M  V30 3363 O 327.499 -1.38211 -1.38833 0
M  V30 3364 H 326.079 -0.662807 0.344523 0
M  V30 3365 H 328.741 -1.28725 1.46342 0
M  V30 3366 H 327.837 -2.81117 1.35572 0
M  V30 3367 N 328.138 -0.959301 -1.25041 0
M  V30 3368 C 329.048 -0.489994 -2.29426 0
M  V30 3369 C 330.064 0.444944 -1.68215 0
M  V30 3370 O 331.24 0.320046 -1.98841 0
M  V30 3371 C 328.305 0.220309 -3.45999 0
M  V30 3372 C 327.366 -0.753418 -4.22637 0
M  V30 3373 C 326.599 -0.076918 -5.33645 0
M  V30 3374 O 326.822 1.13649 -5.58963 0
M  V30 3375 O 325.756 -0.764824 -5.97021 0
M  V30 3376 H 329.582 -1.35755 -2.71669 0
M  V30 3377 H 327.167 -0.725961 -1.30576 0
M  V30 3378 H 329.049 0.619677 -4.16819 0
M  V30 3379 H 327.724 1.06296 -3.0575 0
M  V30 3380 H 326.631 -1.20308 -3.54227 0
M  V30 3381 H 327.964 -1.56423 -4.66683 0
M  V30 3382 N 329.616 1.39756 -0.72842 0
M  V30 3383 C 330.865 1.99879 -0.270407 0
M  V30 3384 C 331.178 1.58449 1.14688 0
M  V30 3385 O 332.384 2.11362 1.70407 0
M  V30 3386 C 330.84 3.57292 -0.43252 0
M  V30 3387 C 330.448 4.07688 -1.85727 0
M  V30 3388 C 332.192 4.24485 -0.0359507 0
M  V30 3389 C 330.099 5.5765 -1.96928 0
M  V30 3390 H 329.029 0.747689 -0.0973472 0
M  V30 3391 H 331.68 1.59837 -0.901355 0
M  V30 3392 H 330.062 3.95097 0.267219 0
M  V30 3393 H 331.236 3.81231 -2.58843 0
M  V30 3394 H 329.551 3.53135 -2.20646 0
M  V30 3395 H 332.148 5.34609 -0.0987484 0
M  V30 3396 H 332.491 4.03915 1.00787 0
M  V30 3397 H 333.024 3.9183 -0.686604 0
M  V30 3398 H 329.763 5.8309 -2.99476 0
M  V30 3399 H 329.283 5.8593 -1.28241 0
M  V30 3400 H 330.962 6.22957 -1.74737 0
M  V30 3401 N 331.094 0.475555 1.50254 0
M  V30 3402 C 332.34 -0.0780073 2.0265 0
M  V30 3403 C 332.673 -1.38968 1.35652 0
M  V30 3404 O 331.948 -1.8839 0.483691 0
M  V30 3405 C 332.231 -0.257161 3.59181 0
M  V30 3406 C 332.084 1.07585 4.36744 0
M  V30 3407 C 333.403 -1.00965 4.28362 0
M  V30 3408 H 330.522 -0.0268758 0.73651 0
M  V30 3409 H 333.164 0.622015 1.7953 0
M  V30 3410 H 331.314 -0.853412 3.79011 0
M  V30 3411 H 332.986 1.70902 4.28474 0
M  V30 3412 H 331.229 1.6714 4.00308 0
M  V30 3413 H 331.9 0.904088 5.44546 0
M  V30 3414 H 334.376 -0.504214 4.13034 0
M  V30 3415 H 333.252 -1.10381 5.37687 0
M  V30 3416 H 333.513 -2.04731 3.91839 0
M  V30 3417 N 332.573 -1.56217 0.208337 0
M  V30 3418 C 333.503 -2.22694 -0.702116 0
M  V30 3419 C 334.484 -1.19432 -1.2112 0
M  V30 3420 O 335.669 -1.47978 -1.25762 0
M  V30 3421 C 332.799 -2.8966 -1.9161 0
M  V30 3422 C 331.753 -3.9928 -1.5414 0
M  V30 3423 C 331.079 -4.53476 -2.83308 0
M  V30 3424 C 332.379 -5.17012 -0.741339 0
M  V30 3425 H 334.073 -2.99034 -0.147898 0
M  V30 3426 H 331.619 -1.43831 -0.0696951 0
M  V30 3427 H 333.572 -3.34852 -2.55836 0
M  V30 3428 H 332.296 -2.10746 -2.49507 0
M  V30 3429 H 330.955 -3.54799 -0.922668 0
M  V30 3430 H 330.603 -3.71308 -3.39322 0
M  V30 3431 H 330.303 -5.27451 -2.58976 0
M  V30 3432 H 331.827 -5.01378 -3.485 0
M  V30 3433 H 333.241 -5.58667 -1.28699 0
M  V30 3434 H 331.638 -5.97137 -0.595627 0
M  V30 3435 H 332.708 -4.8423 0.254851 0
M  V30 3436 N 334.051 0.0651679 -1.57465 0
M  V30 3437 C 335.328 0.79644 -1.78651 0
M  V30 3438 C 335.708 1.95454 -0.797566 0
M  V30 3439 O 335.056 2.27882 0.167946 0
M  V30 3440 C 335.266 1.26322 -3.25337 0
M  V30 3441 C 336.614 1.6939 -3.89348 0
M  V30 3442 O 337.638 1.35872 -3.29268 0
M  V30 3443 O 336.497 2.31471 -4.95059 0
M  V30 3444 H 333.591 0.382157 -0.733407 0
M  V30 3445 H 336.137 0.0447311 -1.69641 0
M  V30 3446 H 334.909 0.434859 -3.88876 0
M  V30 3447 H 334.532 2.07604 -3.39096 0
M  V30 3448 N 335.529 1.53961 0.336706 0
M  V30 3449 C 336.439 1.85432 1.43708 0
M  V30 3450 C 337.455 0.745053 1.57242 0
M  V30 3451 O 338.631 1.03804 1.72588 0
M  V30 3452 C 335.696 2.06349 2.78605 0
M  V30 3453 C 334.757 3.30191 2.74358 0
M  V30 3454 C 333.99 3.50101 4.02822 0
M  V30 3455 O 334.213 2.7371 5.00439 0
M  V30 3456 O 333.147 4.43547 4.06878 0
M  V30 3457 H 336.973 2.78975 1.20028 0
M  V30 3458 H 334.558 1.39701 0.52952 0
M  V30 3459 H 336.44 2.21513 3.58483 0
M  V30 3460 H 335.115 1.15995 3.02203 0
M  V30 3461 H 334.022 3.20425 1.93078 0
M  V30 3462 H 335.355 4.2056 2.55715 0
M  V30 3463 N 337.007 -0.598083 1.45811 0
M  V30 3464 C 337.97 -1.69018 1.54808 0
M  V30 3465 C 338.97 -1.55037 0.426652 0
M  V30 3466 O 340.16 -1.59932 0.690456 0
M  V30 3467 C 337.292 -3.0835 1.45371 0
M  V30 3468 H 338.485 -1.62403 2.52121 0
M  V30 3469 H 336.038 -0.814626 1.33392 0
M  V30 3470 H 336.773 -3.20534 0.492793 0
M  V30 3471 H 336.558 -3.19907 2.26721 0
M  V30 3472 H 338.048 -3.8788 1.54721 0
M  V30 3473 N 338.485 -1.33259 -0.841409 0
M  V30 3474 C 339.732 -1.24572 -1.5965 0
M  V30 3475 C 340.06 0.189137 -1.93578 0
M  V30 3476 O 339.315 1.14566 -1.5866 0
M  V30 3477 C 339.614 -2.06381 -2.9179 0
M  V30 3478 C 339.28 -3.556 -2.77235 0
M  V30 3479 C 337.942 -3.96282 -2.72973 0
M  V30 3480 C 340.294 -4.50433 -2.62221 0
M  V30 3481 C 337.622 -5.30017 -2.51592 0
M  V30 3482 C 339.974 -5.84327 -2.42374 0
M  V30 3483 C 338.638 -6.24194 -2.36512 0
M  V30 3484 H 337.908 -0.455842 -0.5842 0
M  V30 3485 H 340.555 -1.6482 -0.975016 0
M  V30 3486 H 338.86 -1.58903 -3.5813 0
M  V30 3487 H 340.557 -1.97019 -3.49263 0
M  V30 3488 H 337.147 -3.23298 -2.81384 0
M  V30 3489 H 341.331 -4.19914 -2.64549 0
M  V30 3490 H 336.587 -5.59947 -2.45499 0
M  V30 3491 H 340.761 -6.57414 -2.29739 0
M  V30 3492 H 338.388 -7.27759 -2.19706 0
M  V30 3493 N 339.963 1.05934 -1.16686 0
M  V30 3494 C 341.209 1.79065 -0.95203 0
M  V30 3495 C 341.542 1.87147 0.518629 0
M  V30 3496 O 340.817 1.36574 1.38484 0
M  V30 3497 C 341.1 3.23359 -1.58464 0
M  V30 3498 C 340.953 3.23336 -3.12689 0
M  V30 3499 C 342.272 4.21004 -1.28232 0
M  V30 3500 H 339.391 0.65005 -0.34728 0
M  V30 3501 H 342.033 1.23868 -1.44072 0
M  V30 3502 H 340.183 3.70493 -1.16908 0
M  V30 3503 H 341.855 2.84336 -3.6325 0
M  V30 3504 H 340.098 2.61886 -3.4583 0
M  V30 3505 H 340.769 4.25144 -3.52075 0
M  V30 3506 H 343.245 3.8233 -1.64203 0
M  V30 3507 H 342.121 5.20225 -1.75092 0
M  V30 3508 H 342.382 4.41639 -0.201791 0
M  V30 3509 N 341.441 0.965919 1.2453 0
M  V30 3510 C 342.852 0.665929 1.7442 0
M  V30 3511 C 343.203 -0.818407 1.78316 0
M  V30 3512 O 342.328 -1.64037 1.41141 0
M  V30 3513 C 342.923 1.20211 3.16757 0
M  V30 3514 C 341.482 0.952059 3.6416 0
M  V30 3515 C 340.629 1.33848 2.42858 0
M  V30 3516 H 343.58 1.14144 1.10258 0
M  V30 3517 H 343.601 0.567544 3.76244 0
M  V30 3518 H 343.113 2.28244 3.13889 0
M  V30 3519 H 341.214 -0.112821 3.72429 0
M  V30 3520 H 341.327 1.59645 4.51719 0
M  V30 3521 H 339.691 0.756864 2.43195 0
M  V30 3522 H 340.474 2.42827 2.42673 0
M  V30 3523 N 342.919 -1.39368 0.735821 0
M  V30 3524 C 343.829 -2.34395 0.0979693 0
M  V30 3525 C 344.845 -1.58361 -0.720968 0
M  V30 3526 O 346.021 -1.90648 -0.649245 0
M  V30 3527 C 343.086 -3.37393 -0.797916 0
M  V30 3528 C 342.147 -4.29287 0.0333662 0
M  V30 3529 C 341.38 -5.27365 -0.819854 0
M  V30 3530 O 341.603 -5.31959 -2.05855 0
M  V30 3531 O 340.537 -6.01389 -0.248079 0
M  V30 3532 H 344.363 -2.90601 0.882315 0
M  V30 3533 H 341.948 -1.40909 0.4965 0
M  V30 3534 H 343.83 -4.00505 -1.31048 0
M  V30 3535 H 342.505 -2.83571 -1.56106 0
M  V30 3536 H 341.412 -3.69395 0.591475 0
M  V30 3537 H 342.745 -4.86317 0.758752 0
M  V30 3538 N 344.397 -0.483516 -1.5 0
M  V30 3539 C 345.307 0.309172 -2.32554 0
M  V30 3540 C 346.323 0.984159 -1.43493 0
M  V30 3541 O 347.499 0.969399 -1.76535 0
M  V30 3542 C 344.564 1.36979 -3.18493 0
M  V30 3543 C 343.625 0.710095 -4.23387 0
M  V30 3544 C 342.858 1.72018 -5.05218 0
M  V30 3545 O 343.081 2.94813 -4.88305 0
M  V30 3546 O 342.015 1.28515 -5.8802 0
M  V30 3547 H 345.841 -0.366064 -3.01486 0
M  V30 3548 H 343.426 -0.24514 -1.47375 0
M  V30 3549 H 345.308 1.98385 -3.71781 0
M  V30 3550 H 343.983 2.02828 -2.52275 0
M  V30 3551 H 342.89 0.0567539 -3.74057 0
M  V30 3552 H 344.223 0.0943557 -4.9211 0
M  V30 3553 N 345.875 1.56104 -0.216619 0
M  V30 3554 C 346.823 2.21434 0.712036 0
M  V30 3555 C 347.817 1.19218 1.20348 0
M  V30 3556 O 349.023 1.3731 1.16387 0
M  V30 3557 H 345.398 0.70992 0.248026 0
M  V30 3558 H 347.369 2.98083 0.137558 0
M  V30 3559 C 346.118 2.90434 1.91163 0
M  V30 3560 H 345.441 3.68842 1.54258 0
M  V30 3561 H 346.881 3.39552 2.5393 0
M  V30 3562 C 345.34 1.92635 2.76394 0
M  V30 3563 O 345.87 1.44017 3.74996 0
M  V30 3564 N 344.076 1.60392 2.42328 0
M  V30 3565 H 343.623 2.00122 1.622 0
M  V30 3566 H 343.581 0.952159 2.99635 0
M  V30 3567 N 347.353 -0.0568162 1.57498 0
M  V30 3568 C 348.602 -0.752001 1.87157 0
M  V30 3569 C 348.915 -1.77978 0.811375 0
M  V30 3570 O 350.121 -2.52559 0.996293 0
M  V30 3571 C 348.577 -1.38844 3.3204 0
M  V30 3572 C 348.185 -0.398456 4.46225 0
M  V30 3573 C 349.929 -2.06512 3.70882 0
M  V30 3574 C 347.836 -1.04166 5.82154 0
M  V30 3575 H 346.766 -0.28461 0.698222 0
M  V30 3576 H 349.417 -0.00561272 1.83499 0
M  V30 3577 H 347.799 -2.1836 3.30356 0
M  V30 3578 H 348.973 0.367977 4.59328 0
M  V30 3579 H 347.288 0.174592 4.16034 0
M  V30 3580 H 349.885 -2.55437 4.6974 0
M  V30 3581 H 350.228 -2.87117 3.01445 0
M  V30 3582 H 350.761 -1.33808 3.7462 0
M  V30 3583 H 347.5 -0.275614 6.5492 0
M  V30 3584 H 347.02 -1.7786 5.72823 0
M  V30 3585 H 348.699 -1.55715 6.27982 0
M  V30 3586 N 348.832 -1.54138 -0.328536 0
M  V30 3587 C 349.762 -1.86167 -1.40939 0
M  V30 3588 C 350.743 -0.718044 -1.54202 0
M  V30 3589 O 351.928 -0.971328 -1.68163 0
M  V30 3590 C 349.058 -2.08461 -2.77779 0
M  V30 3591 C 348.012 -3.24299 -2.7931 0
M  V30 3592 C 347.338 -3.31955 -4.19178 0
M  V30 3593 C 348.638 -4.62065 -2.43502 0
M  V30 3594 H 350.332 -2.76689 -1.14383 0
M  V30 3595 H 347.878 -1.33132 -0.548806 0
M  V30 3596 H 349.831 -2.29453 -3.53454 0
M  V30 3597 H 348.555 -1.14684 -3.05802 0
M  V30 3598 H 347.214 -3.03187 -2.0609 0
M  V30 3599 H 346.862 -2.35745 -4.44335 0
M  V30 3600 H 346.562 -4.09805 -4.2111 0
M  V30 3601 H 348.086 -3.55175 -4.96672 0
M  V30 3602 H 349.5 -4.8297 -3.08889 0
M  V30 3603 H 347.897 -5.42429 -2.56693 0
M  V30 3604 H 348.967 -4.64652 -1.38659 0
M  V30 3605 N 350.31 0.590341 -1.46126 0
M  V30 3606 C 351.721 1.17243 -1.45296 0
M  V30 3607 C 352.072 1.95281 -0.189723 0
M  V30 3608 O 351.197 2.04502 0.707674 0
M  V30 3609 C 351.792 2.13284 -2.6324 0
M  V30 3610 C 350.351 2.66832 -2.65476 0
M  V30 3611 C 349.498 1.42557 -2.3785 0
M  V30 3612 H 352.449 0.378692 -1.54116 0
M  V30 3613 H 352.47 2.96619 -2.38323 0
M  V30 3614 H 351.982 1.56459 -3.55165 0
M  V30 3615 H 350.083 3.27548 -1.77603 0
M  V30 3616 H 350.196 3.10088 -3.65215 0
M  V30 3617 H 348.56 1.72107 -1.87753 0
M  V30 3618 H 349.343 0.875741 -3.31942 0
M  V30 3619 N 351.788 1.33704 0.83433 0
M  V30 3620 C 352.738 1.20899 1.93306 0
M  V30 3621 C 353.722 0.110783 1.60518 0
M  V30 3622 O 354.914 0.339331 1.73717 0
M  V30 3623 C 352.043 0.955018 3.29749 0
M  V30 3624 C 351.129 2.09587 3.68692 0
M  V30 3625 N 351.52 3.34621 3.79292 0
M  V30 3626 C 349.818 2.00358 3.98463 0
M  V30 3627 C 350.519 4.09472 4.13167 0
M  V30 3628 N 349.495 3.37954 4.25779 0
M  V30 3629 H 353.297 2.15665 1.99664 0
M  V30 3630 H 350.811 1.25777 1.02732 0
M  V30 3631 H 352.808 0.844208 4.08263 0
M  V30 3632 H 351.468 0.0159317 3.24696 0
M  V30 3633 H 352.479 3.69313 3.63082 0
M  V30 3634 H 349.156 1.14137 4.01596 0
M  V30 3635 H 350.546 5.17391 4.28668 0
M  V30 3636 N 353.266 -1.05314 1.17247 0
M  V30 3637 C 354.512 -1.78557 0.961513 0
M  V30 3638 C 354.845 -1.87419 -0.508697 0
M  V30 3639 O 354.12 -1.37307 -1.37757 0
M  V30 3640 C 354.403 -3.22514 1.60176 0
M  V30 3641 C 354.256 -3.21673 3.14399 0
M  V30 3642 C 355.575 -4.20318 1.30463 0
M  V30 3643 H 352.694 -0.6482 0.350723 0
M  V30 3644 H 355.336 -1.23102 1.44727 0
M  V30 3645 H 353.486 -3.69867 1.18871 0
M  V30 3646 H 355.158 -2.82405 3.64753 0
M  V30 3647 H 353.401 -2.60048 3.47214 0
M  V30 3648 H 354.072 -4.23271 3.54324 0
M  V30 3649 H 356.548 -3.81454 1.66229 0
M  V30 3650 H 355.424 -5.19289 1.77848 0
M  V30 3651 H 355.685 -4.41526 0.22521 0
M  V30 3652 N 354.744 -0.972509 -1.24016 0
M  V30 3653 C 355.691 -0.505969 -2.25186 0
M  V30 3654 C 356.661 0.451009 -1.5986 0
M  V30 3655 O 357.846 0.360307 -1.87367 0
M  V30 3656 C 354.986 0.193089 -3.44559 0
M  V30 3657 C 354.099 -0.803222 -4.24467 0
M  V30 3658 C 353.234 -0.0797793 -5.3114 0
M  V30 3659 C 352.273 -1.06583 -6.02749 0
M  V30 3660 N 351.41 -0.372074 -7.01113 0
M  V30 3661 H 356.25 -1.37351 -2.64459 0
M  V30 3662 H 353.787 -0.688419 -1.29997 0
M  V30 3663 H 355.745 0.615125 -4.1264 0
M  V30 3664 H 354.375 1.02455 -3.06109 0
M  V30 3665 H 353.427 -1.34368 -3.55878 0
M  V30 3666 H 354.739 -1.55494 -4.73944 0
M  V30 3667 H 353.893 0.400015 -6.0538 0
M  V30 3668 H 352.632 0.704597 -4.82583 0
M  V30 3669 H 351.637 -1.55645 -5.27309 0
M  V30 3670 H 352.862 -1.85074 -6.53395 0
M  V30 3671 H 350.808 0.393238 -6.5482 0
M  V30 3672 H 350.725 -1.06258 -7.48495 0
M  V30 3673 H 351.993 0.0855932 -7.79453 0
M  V30 3674 N 356.222 1.38976 -0.743202 0
M  V30 3675 C 357.47 1.99948 -0.29417 0
M  V30 3676 C 357.791 1.59279 1.12495 0
M  V30 3677 O 357.061 0.844808 1.76748 0
M  V30 3678 H 355.641 0.739473 -0.105774 0
M  V30 3679 H 358.303 1.699 -0.954986 0
M  V30 3680 H 357.399 3.10142 -0.349056 0
M  V30 3681 N 357.7 0.491464 1.49741 0
M  V30 3682 C 358.63 -0.28154 2.31796 0
M  V30 3683 C 359.611 -0.971473 1.3963 0
M  V30 3684 O 360.796 -0.964719 1.68543 0
M  V30 3685 C 357.926 -1.35203 3.19902 0
M  V30 3686 C 356.88 -0.782529 4.20786 0
M  V30 3687 C 356.206 -1.95283 4.97764 0
M  V30 3688 C 357.506 0.21999 5.21837 0
M  V30 3689 H 359.2 0.403355 2.96671 0
M  V30 3690 H 356.746 0.195425 1.42668 0
M  V30 3691 H 358.699 -1.90045 3.76113 0
M  V30 3692 H 357.423 -2.06598 2.52953 0
M  V30 3693 H 356.082 -0.255928 3.65706 0
M  V30 3694 H 355.73 -2.65423 4.2727 0
M  V30 3695 H 355.43 -1.57789 5.66018 0
M  V30 3696 H 356.954 -2.50577 5.56816 0
M  V30 3697 H 358.368 -0.23996 5.72798 0
M  V30 3698 H 356.765 0.51026 5.97927 0
M  V30 3699 H 357.835 1.13911 4.7133 0
M  V30 3700 N 359.178 -1.55987 0.224894 0
M  V30 3701 C 360.594 -1.59066 -0.130426 0
M  V30 3702 C 360.794 -1.24176 -1.5869 0
M  V30 3703 O 359.85 -0.978592 -2.32766 0
M  V30 3704 C 361.163 -3.00042 0.198883 0
M  V30 3705 C 362.711 -3.1268 0.141391 0
M  V30 3706 C 363.186 -4.55839 0.444422 0
M  V30 3707 N 364.677 -4.6152 0.394115 0
M  V30 3708 C 365.412 -5.70231 0.602038 0
M  V30 3709 N 364.908 -6.87291 0.871914 0
M  V30 3710 N 366.701 -5.59555 0.534245 0
M  V30 3711 H 358.852 -1.76941 1.17497 0
M  V30 3712 H 361.115 -0.822604 0.471197 0
M  V30 3713 H 360.821 -3.30234 1.2099 0
M  V30 3714 H 360.695 -3.74075 -0.484535 0
M  V30 3715 H 363.082 -2.82283 -0.860265 0
M  V30 3716 H 363.163 -2.40969 0.858335 0
M  V30 3717 H 362.807 -4.86954 1.44353 0
M  V30 3718 H 362.737 -5.2578 -0.293752 0
M  V30 3719 H 365.228 -3.77405 0.193356 0
M  V30 3720 H 365.541 -7.66058 1.01858 0
M  V30 3721 H 363.886 -6.89028 0.909145 0
M  V30 3722 H 367.077 -4.6698 0.323612 0
M  V30 3723 H 367.25 -6.44211 0.699693 0
M  V30 3724 N 360.656 0.0484629 -1.57525 0
M  V30 3725 C 361.904 0.741657 -1.88 0
M  V30 3726 C 362.225 1.76918 -0.820054 0
M  V30 3727 O 361.495 1.95335 0.148661 0
M  V30 3728 H 360.075 0.276908 -0.69378 0
M  V30 3729 H 362.737 0.019013 -1.94891 0
M  V30 3730 H 361.833 1.24336 -2.86264 0
M  V30 3731 N 362.134 1.5431 0.320358 0
M  V30 3732 C 363.545 1.63872 0.894594 0
M  V30 3733 C 363.896 0.534847 1.88769 0
M  V30 3734 O 363.021 -0.331732 2.13842 0
M  V30 3735 C 363.616 2.97049 1.62934 0
M  V30 3736 C 362.175 3.08796 2.15226 0
M  V30 3737 C 361.322 2.59456 0.978671 0
M  V30 3738 H 364.273 1.58398 0.0978544 0
M  V30 3739 H 364.294 2.87388 2.49376 0
M  V30 3740 H 363.806 3.7737 0.906302 0
M  V30 3741 H 361.907 2.33156 2.90636 0
M  V30 3742 H 362.02 4.14649 2.40006 0
M  V30 3743 H 360.384 2.1543 1.35875 0
M  V30 3744 H 361.167 3.42237 0.269895 0
M  V30 3745 N 363.613 -0.582584 1.46437 0
M  V30 3746 C 364.86 -1.34079 1.51753 0
M  V30 3747 C 365.188 -1.93762 0.169299 0
M  V30 3748 O 364.443 -1.76989 -0.835062 0
M  V30 3749 C 364.742 -2.48964 2.56421 0
M  V30 3750 C 364.408 -2.07273 4.00436 0
M  V30 3751 C 363.07 -1.95618 4.39644 0
M  V30 3752 C 365.422 -1.75111 4.90903 0
M  V30 3753 C 362.75 -1.5006 5.67185 0
M  V30 3754 C 365.102 -1.31032 6.18881 0
M  V30 3755 C 363.766 -1.17954 6.56996 0
M  V30 3756 H 363.036 -0.49063 0.555304 0
M  V30 3757 H 365.683 -0.656007 1.79913 0
M  V30 3758 H 363.988 -3.22889 2.21923 0
M  V30 3759 H 365.685 -3.07178 2.57765 0
M  V30 3760 H 362.275 -2.17279 3.69443 0
M  V30 3761 H 366.459 -1.83001 4.61329 0
M  V30 3762 H 361.715 -1.38577 5.95488 0
M  V30 3763 H 365.889 -1.052 6.88408 0
M  V30 3764 H 363.516 -0.824279 7.55718 0
M  V30 3765 N 365.091 -1.34144 -0.827227 0
M  V30 3766 C 366.319 -1.29325 -1.61501 0
M  V30 3767 C 366.734 0.13354 -1.88327 0
M  V30 3768 O 366.091 1.0793 -1.47164 0
M  V30 3769 C 366.142 -2.07746 -2.95844 0
M  V30 3770 O 365.863 -3.4486 -2.70191 0
M  V30 3771 C 367.364 -2.10273 -3.90256 0
M  V30 3772 H 364.584 -0.445069 -0.50215 0
M  V30 3773 H 367.128 -1.76693 -1.02955 0
M  V30 3774 H 365.283 -1.6403 -3.5096 0
M  V30 3775 H 365.697 -3.85345 -3.55822 0
M  V30 3776 H 367.171 -2.69575 -4.81698 0
M  V30 3777 H 367.648 -1.096 -4.25305 0
M  V30 3778 H 368.254 -2.54059 -3.41078 0
M  V30 3779 N 366.569 1.04691 -1.17803 0
M  V30 3780 C 367.809 1.79352 -0.980423 0
M  V30 3781 C 368.173 1.85853 0.481958 0
M  V30 3782 O 369.374 2.56656 0.798809 0
M  V30 3783 C 367.645 3.19088 -1.6099 0
M  V30 3784 S 369.204 4.10164 -1.55918 0
M  V30 3785 H 366.022 0.617631 -0.352211 0
M  V30 3786 H 368.624 1.25575 -1.49837 0
M  V30 3787 H 367.328 3.11962 -2.66661 0
M  V30 3788 H 366.859 3.77941 -1.09197 0
M  V30 3789 H 368.874 4.92907 -0.570685 0
M  V30 3790 N 368.047 0.979072 1.23499 0
M  V30 3791 C 368.977 0.537606 2.27227 0
M  V30 3792 C 369.958 -0.428539 1.64613 0
M  V30 3793 O 371.143 -0.322191 1.91509 0
M  V30 3794 C 368.273 -0.162052 3.46922 0
M  V30 3795 C 367.227 0.721242 4.21879 0
M  V30 3796 C 366.553 -0.110555 5.34586 0
M  V30 3797 C 367.853 2.01141 4.82016 0
M  V30 3798 H 369.547 1.40462 2.64406 0
M  V30 3799 H 367.093 0.67684 1.27102 0
M  V30 3800 H 369.046 -0.482192 4.18632 0
M  V30 3801 H 367.77 -1.06351 3.08799 0
M  V30 3802 H 366.429 1.02482 3.51984 0
M  V30 3803 H 366.077 -1.0125 4.92704 0
M  V30 3804 H 365.777 0.477325 5.85658 0
M  V30 3805 H 367.301 -0.425107 6.09118 0
M  V30 3806 H 368.715 1.75612 5.45741 0
M  V30 3807 H 367.112 2.54695 5.43369 0
M  V30 3808 H 368.182 2.69909 4.02836 0
M  V30 3809 N 369.525 -1.3858 0.750561 0
M  V30 3810 C 370.473 -2.32339 0.110162 0
M  V30 3811 C 371.467 -1.53864 -0.708674 0
M  V30 3812 O 372.673 -1.69417 -0.608112 0
M  V30 3813 H 369.048 -0.751812 0.0168275 0
M  V30 3814 H 371.019 -2.83959 0.917053 0
M  V30 3815 C 369.768 -3.39043 -0.771067 0
M  V30 3816 H 369.091 -3.99517 -0.150374 0
M  V30 3817 H 370.531 -4.07061 -1.1865 0
M  V30 3818 C 368.99 -2.77365 -1.91234 0
M  V30 3819 O 369.52 -2.66434 -3.00626 0
M  V30 3820 N 367.726 -2.35219 -1.70646 0
M  V30 3821 H 367.273 -2.4431 -0.81673 0
M  V30 3822 H 367.231 -1.94294 -2.47178 0
M  V30 3823 N 371.003 -0.499398 -1.49478 0
M  V30 3824 C 372.228 0.044722 -2.07352 0
M  V30 3825 C 372.653 1.30207 -1.35749 0
M  V30 3826 O 372.011 1.76516 -0.413732 0
M  V30 3827 C 372.059 0.283013 -3.59488 0
M  V30 3828 O 371.163 1.35804 -3.89398 0
M  V30 3829 H 370.504 -0.0255147 -0.66351 0
M  V30 3830 H 373.034 -0.698561 -1.92305 0
M  V30 3831 H 373.044 0.515007 -4.04737 0
M  V30 3832 H 371.719 -0.635636 -4.11014 0
M  V30 3833 H 370.296 1.11113 -3.55961 0
M  V30 3834 N 372.481 1.55866 -0.233164 0
M  V30 3835 C 373.444 2.1953 0.658715 0
M  V30 3836 C 374.444 1.16053 1.11303 0
M  V30 3837 O 375.634 1.41218 1.01996 0
M  V30 3838 C 372.766 2.82791 1.90373 0
M  V30 3839 H 373.959 2.99721 0.10347 0
M  V30 3840 H 371.512 1.56291 0.0164245 0
M  V30 3841 H 372.247 2.06501 2.50056 0
M  V30 3842 H 372.032 3.58578 1.58632 0
M  V30 3843 H 373.522 3.31556 2.53891 0
M  V30 3844 N 373.959 -0.0401083 1.57549 0
M  V30 3845 C 375.375 -0.395556 1.54621 0
M  V30 3846 C 375.575 -1.77281 0.957799 0
M  V30 3847 O 374.631 -2.45888 0.574031 0
M  V30 3848 C 375.944 -0.307535 2.99123 0
M  V30 3849 C 377.492 -0.385425 3.10618 0
M  V30 3850 C 377.967 -0.326973 4.56831 0
M  V30 3851 N 379.458 -0.386102 4.61588 0
M  V30 3852 C 380.193 -0.363591 5.72246 0
M  V30 3853 N 379.689 -0.29402 6.92176 0
M  V30 3854 N 381.482 -0.412503 5.60584 0
M  V30 3855 H 373.633 0.861325 1.94152 0
M  V30 3856 H 375.896 0.326445 0.890021 0
M  V30 3857 H 375.602 0.638461 3.45856 0
M  V30 3858 H 375.476 -1.10552 3.60636 0
M  V30 3859 H 377.863 -1.32185 2.63839 0
M  V30 3860 H 377.944 0.44171 2.51957 0
M  V30 3861 H 377.588 0.605738 5.04275 0
M  V30 3862 H 377.518 -1.17207 5.13391 0
M  V30 3863 H 380.009 -0.442832 3.75296 0
M  V30 3864 H 380.322 -0.28164 7.72287 0
M  V30 3865 H 378.667 -0.260232 6.94513 0
M  V30 3866 H 381.858 -0.464769 4.65787 0
M  V30 3867 H 382.031 -0.391492 6.46816 0
M  V30 3868 N 375.437 -1.54477 -0.31217 0
M  V30 3869 C 376.667 -1.76948 -1.06645 0
M  V30 3870 C 377.075 -0.523593 -1.81811 0
M  V30 3871 O 376.418 0.51578 -1.76311 0
M  V30 3872 C 376.48 -2.91668 -2.10166 0
M  V30 3873 C 376.144 -4.30165 -1.54296 0
M  V30 3874 C 377.141 -5.10603 -0.978793 0
M  V30 3875 C 374.826 -4.76738 -1.58196 0
M  V30 3876 C 376.82 -6.3573 -0.461048 0
M  V30 3877 C 374.507 -6.01831 -1.06034 0
M  V30 3878 C 375.505 -6.81161 -0.500844 0
M  V30 3879 O 375.193 -8.03899 0.0128958 0
M  V30 3880 H 374.925 -0.594088 -0.322546 0
M  V30 3881 H 377.479 -2.02213 -0.360441 0
M  V30 3882 H 375.709 -2.62001 -2.84416 0
M  V30 3883 H 377.398 -3.01817 -2.71406 0
M  V30 3884 H 378.164 -4.75771 -0.941651 0
M  V30 3885 H 374.043 -4.15027 -2.00683 0
M  V30 3886 H 377.587 -6.97596 -0.0236894 0
M  V30 3887 H 373.484 -6.36152 -1.09459 0
M  V30 3888 H 374.252 -8.18437 -0.101457 0
M  V30 3889 N 376.915 0.57481 -1.46744 0
M  V30 3890 C 378.163 1.33009 -1.52161 0
M  V30 3891 C 378.484 1.94185 -0.178092 0
M  V30 3892 O 377.754 1.7899 0.796196 0
M  V30 3893 H 376.334 0.493873 -0.560445 0
M  V30 3894 H 378.996 0.672589 -1.82927 0
M  V30 3895 H 378.092 2.13273 -2.27862 0
M  V30 3896 N 378.394 1.34581 0.820102 0
M  V30 3897 C 379.643 1.26437 1.57151 0
M  V30 3898 C 379.956 -0.163111 1.94919 0
M  V30 3899 O 381.162 -0.366722 2.69012 0
M  V30 3900 C 379.618 2.21658 2.83541 0
M  V30 3901 C 379.226 3.69679 2.53065 0
M  V30 3902 C 380.97 2.22428 3.61561 0
M  V30 3903 C 378.877 4.56761 3.75664 0
M  V30 3904 H 377.807 0.469707 0.589823 0
M  V30 3905 H 380.458 1.59763 0.902656 0
M  V30 3906 H 378.84 1.81287 3.52067 0
M  V30 3907 H 380.014 4.18605 1.92631 0
M  V30 3908 H 378.329 3.71384 1.88316 0
M  V30 3909 H 380.926 2.8471 4.52597 0
M  V30 3910 H 381.269 1.22434 3.97889 0
M  V30 3911 H 381.802 2.61259 2.99981 0
M  V30 3912 H 378.541 5.57702 3.44454 0
M  V30 3913 H 378.061 4.12568 4.35371 0
M  V30 3914 H 379.74 4.71509 4.43044 0
M  V30 3915 N 379.872 -1.04064 1.18357 0
M  V30 3916 C 380.835 -2.10243 0.912707 0
M  V30 3917 C 381.835 -1.60477 -0.101928 0
M  V30 3918 O 383.025 -1.73703 0.131517 0
M  V30 3919 C 380.157 -3.38893 0.369387 0
M  V30 3920 H 381.35 -2.35706 1.85426 0
M  V30 3921 H 378.903 -1.20489 0.995594 0
M  V30 3922 H 379.638 -3.19094 -0.578776 0
M  V30 3923 H 379.423 -3.76331 1.1008 0
M  V30 3924 H 380.913 -4.17128 0.198575 0
M  V30 3925 N 381.35 -0.985608 -1.22978 0
M  V30 3926 C 382.596 -0.667998 -1.92118 0
M  V30 3927 C 382.951 0.790454 -1.75413 0
M  V30 3928 O 382.244 1.56336 -1.10768 0
M  V30 3929 C 382.438 -1.00014 -3.43121 0
M  V30 3930 C 382.267 -2.48933 -3.74516 0
M  V30 3931 C 381.037 -3.15218 -3.94925 0
M  V30 3932 C 383.235 -3.47024 -3.79577 0
M  V30 3933 N 381.217 -4.53689 -4.13569 0
M  V30 3934 C 382.588 -4.70923 -4.03276 0
M  V30 3935 C 384.643 -3.41432 -3.62393 0
M  V30 3936 C 383.346 -5.89914 -4.11574 0
M  V30 3937 C 385.372 -4.59793 -3.71947 0
M  V30 3938 C 384.734 -5.82489 -3.96088 0
M  V30 3939 H 380.833 -0.295589 -0.723983 0
M  V30 3940 H 383.417 -1.26413 -1.4808 0
M  V30 3941 H 381.588 -0.432655 -3.85983 0
M  V30 3942 H 383.32 -0.63927 -3.99619 0
M  V30 3943 H 380.075 -2.65702 -3.92045 0
M  V30 3944 H 380.499 -5.25492 -4.26834 0
M  V30 3945 H 385.141 -2.47594 -3.4272 0
M  V30 3946 H 382.859 -6.84164 -4.30053 0
M  V30 3947 H 386.445 -4.57048 -3.59998 0
M  V30 3948 H 385.325 -6.72546 -4.033 0
M  V30 3949 N 382.828 1.3818 -0.7579 0
M  V30 3950 C 384.076 1.99624 -0.315361 0
M  V30 3951 C 384.397 1.60464 1.10799 0
M  V30 3952 O 383.667 0.863507 1.75842 0
M  V30 3953 H 382.247 0.73831 -0.113611 0
M  V30 3954 H 384.909 1.68878 -0.972952 0
M  V30 3955 H 384.005 3.09754 -0.381931 0
M  V30 3956 N 384.306 0.507319 1.49211 0
M  V30 3957 C 385.269 -0.256763 2.27757 0
M  V30 3958 C 386.269 -0.888287 1.34038 0
M  V30 3959 O 387.459 -0.751841 1.5714 0
M  V30 3960 C 384.591 -1.36905 3.12202 0
M  V30 3961 H 385.784 0.432557 2.96764 0
M  V30 3962 H 383.337 0.262488 1.5408 0
M  V30 3963 H 384.072 -2.09233 2.47775 0
M  V30 3964 H 383.857 -0.921599 3.81115 0
M  V30 3965 H 385.347 -1.9071 3.7151 0
M  V30 3966 N 385.784 -1.5574 0.241426 0
M  V30 3967 C 386.714 -2.24133 -0.654722 0
M  V30 3968 C 387.695 -1.21974 -1.1856 0
M  V30 3969 O 388.88 -1.50612 -1.22595 0
M  V30 3970 C 386.01 -2.93659 -1.85423 0
M  V30 3971 C 384.964 -4.0246 -1.45636 0
M  V30 3972 C 384.29 -4.59383 -2.73626 0
M  V30 3973 C 385.59 -5.18468 -0.631506 0
M  V30 3974 H 387.284 -2.99281 -0.0844353 0
M  V30 3975 H 384.83 -1.43947 -0.0391707 0
M  V30 3976 H 386.783 -3.40203 -2.48676 0
M  V30 3977 H 385.507 -2.15991 -2.44981 0
M  V30 3978 H 384.166 -3.56676 -0.847202 0
M  V30 3979 H 383.814 -3.78422 -3.3137 0
M  V30 3980 H 383.514 -5.32826 -2.4773 0
M  V30 3981 H 385.038 -5.08658 -3.37786 0
M  V30 3982 H 386.452 -5.61272 -1.1682 0
M  V30 3983 H 384.849 -5.98266 -0.468831 0
M  V30 3984 H 385.919 -4.8358 0.357506 0
M  V30 3985 N 387.262 0.0317525 -1.57568 0
M  V30 3986 C 388.51 0.721676 -1.88776 0
M  V30 3987 C 388.831 1.76039 -0.838772 0
M  V30 3988 O 388.101 1.95482 0.127935 0
M  V30 3989 H 386.681 0.269534 -0.696678 0
M  V30 3990 H 389.343 -0.00165879 -1.949 0
M  V30 3991 H 388.439 1.21293 -2.87566 0
M  V30 3992 N 388.74 1.54641 0.303973 0
M  V30 3993 C 389.703 1.84646 1.35789 0
M  V30 3994 C 390.703 0.7192 1.4382 0
M  V30 3995 O 391.893 0.987491 1.43507 0
M  V30 3996 C 389.025 2.02407 2.74307 0
M  V30 3997 H 390.218 2.78829 1.10429 0
M  V30 3998 H 387.771 1.46658 0.540487 0
M  V30 3999 H 388.506 1.10502 3.04893 0
M  V30 4000 H 388.291 2.84453 2.69868 0
M  V30 4001 H 389.781 2.27002 3.50514 0
M  V30 4002 N 390.218 -0.567019 1.47046 0
M  V30 4003 C 391.181 -1.65696 1.58359 0
M  V30 4004 C 392.181 -1.54097 0.459441 0
M  V30 4005 O 393.371 -1.58432 0.724225 0
M  V30 4006 C 390.503 -3.05197 1.51879 0
M  V30 4007 H 391.696 -1.57019 2.5551 0
M  V30 4008 H 389.249 -0.786148 1.3509 0
M  V30 4009 H 389.984 -3.19417 0.560673 0
M  V30 4010 H 389.769 -3.15025 2.33455 0
M  V30 4011 H 391.259 -3.84511 1.62913 0
M  V30 4012 N 391.696 -1.35014 -0.812953 0
M  V30 4013 C 392.606 -1.2951 -1.95613 0
M  V30 4014 C 393.622 -0.20107 -1.72834 0
M  V30 4015 O 394.798 -0.42932 -1.96771 0
M  V30 4016 C 391.863 -1.06033 -3.30088 0
M  V30 4017 C 390.924 -2.24688 -3.65805 0
M  V30 4018 C 390.157 -2.02322 -4.93864 0
M  V30 4019 O 390.38 -0.986464 -5.61805 0
M  V30 4020 O 389.314 -2.89525 -5.27692 0
M  V30 4021 H 393.14 -2.25705 -2.03202 0
M  V30 4022 H 390.725 -1.15321 -0.949811 0
M  V30 4023 H 392.607 -0.94763 -4.10607 0
M  V30 4024 H 391.282 -0.128852 -3.23443 0
M  V30 4025 H 390.189 -2.41521 -2.85689 0
M  V30 4026 H 391.522 -3.16261 -3.77147 0
M  V30 4027 N 393.175 1.03435 -1.18907 0
M  V30 4028 C 394.4 1.80919 -1.01406 0
M  V30 4029 C 394.825 1.83055 0.432721 0
M  V30 4030 O 394.183 1.25252 1.31079 0
M  V30 4031 C 394.231 3.24091 -1.58105 0
M  V30 4032 O 393.335 4.04434 -0.806669 0
M  V30 4033 H 392.676 0.558709 -0.358803 0
M  V30 4034 H 395.206 1.30223 -1.57807 0
M  V30 4035 H 395.216 3.74853 -1.61087 0
M  V30 4036 H 393.891 3.21851 -2.6341 0
M  V30 4037 H 392.468 3.63091 -0.849666 0
M  V30 4038 N 394.653 0.992116 1.22453 0
M  V30 4039 C 395.893 0.675727 1.92907 0
M  V30 4040 C 396.257 -0.777762 1.75542 0
M  V30 4041 O 397.458 -1.20553 2.40251 0
M  V30 4042 C 395.729 1.0696 3.4102 0
M  V30 4043 S 397.288 0.871456 4.30059 0
M  V30 4044 H 394.106 0.247089 0.666684 0
M  V30 4045 H 396.708 1.27423 1.48269 0
M  V30 4046 H 395.412 2.12383 3.51172 0
M  V30 4047 H 394.943 0.462858 3.90668 0
M  V30 4048 H 396.958 -0.238436 4.95627 0
M  V30 4049 N 396.131 -1.37776 0.765217 0
M  V30 4050 C 397.377 -2.00604 0.336066 0
M  V30 4051 C 397.732 -1.59657 -1.07366 0
M  V30 4052 O 397.025 -0.829565 -1.7271 0
M  V30 4053 C 397.219 -3.5504 0.410053 0
M  V30 4054 C 397.048 -4.10985 1.82542 0
M  V30 4055 C 395.818 -4.42229 2.44461 0
M  V30 4056 C 398.016 -4.32438 2.78392 0
M  V30 4057 N 395.998 -4.8385 3.77839 0
M  V30 4058 C 397.369 -4.76596 3.96556 0
M  V30 4059 C 399.424 -4.14559 2.75764 0
M  V30 4060 C 398.127 -5.04748 5.12466 0
M  V30 4061 C 400.153 -4.43843 3.90842 0
M  V30 4062 C 399.515 -4.88235 5.07746 0
M  V30 4063 H 395.614 -0.763325 0.169881 0
M  V30 4064 H 398.198 -1.67197 0.997656 0
M  V30 4065 H 396.369 -3.87769 -0.221325 0
M  V30 4066 H 398.101 -4.0468 -0.0405285 0
M  V30 4067 H 394.856 -4.31079 1.96131 0
M  V30 4068 H 395.28 -5.08979 4.46396 0
M  V30 4069 H 399.922 -3.79415 1.86558 0
M  V30 4070 H 397.64 -5.38783 6.02277 0
M  V30 4071 H 401.226 -4.31603 3.90141 0
M  V30 4072 H 400.106 -5.10461 5.95315 0
M  V30 4073 N 397.609 -0.515225 -1.4894 0
M  V30 4074 C 398.559 0.275113 -2.26334 0
M  V30 4075 C 399.543 0.923007 -1.31793 0
M  V30 4076 O 400.735 0.828254 -1.56426 0
M  V30 4077 C 397.864 1.33041 -3.16473 0
M  V30 4078 C 396.95 0.688051 -4.18481 0
M  V30 4079 N 397.341 -0.217638 -5.05332 0
M  V30 4080 C 395.639 0.94699 -4.3583 0
M  V30 4081 C 396.34 -0.58676 -5.78733 0
M  V30 4082 N 395.316 0.0486966 -5.43578 0
M  V30 4083 H 399.118 -0.421876 -2.90856 0
M  V30 4084 H 396.632 -0.332249 -1.58965 0
M  V30 4085 H 398.629 1.9102 -3.70563 0
M  V30 4086 H 397.289 2.02894 -2.53504 0
M  V30 4087 H 398.3 -0.589343 -5.14536 0
M  V30 4088 H 394.977 1.63719 -3.8406 0
M  V30 4089 H 396.367 -1.32855 -6.58634 0
M  V30 4090 N 399.087 1.5561 -0.249682 0
M  V30 4091 C 400.336 1.98187 0.37479 0
M  V30 4092 C 400.649 1.14111 1.58865 0
M  V30 4093 O 401.855 1.46714 2.28445 0
M  V30 4094 C 400.311 3.52661 0.718192 0
M  V30 4095 C 399.919 4.45481 -0.474428 0
M  V30 4096 C 401.663 4.03888 1.3067 0
M  V30 4097 C 399.57 5.91303 -0.107026 0
M  V30 4098 H 398.5 0.740159 0.143808 0
M  V30 4099 H 401.151 1.80125 -0.350336 0
M  V30 4100 H 399.533 3.66429 1.50152 0
M  V30 4101 H 400.707 4.43473 -1.25172 0
M  V30 4102 H 399.022 4.04751 -0.978052 0
M  V30 4103 H 401.619 5.10358 1.59496 0
M  V30 4104 H 401.962 3.51401 2.23211 0
M  V30 4105 H 402.495 3.93457 0.586211 0
M  V30 4106 H 399.234 6.47833 -0.999642 0
M  V30 4107 H 398.754 5.9644 0.634013 0
M  V30 4108 H 400.433 6.46258 0.309807 0
M  V30 4109 N 400.565 -0.0233959 1.57583 0
M  V30 4110 C 401.528 -1.00693 2.05897 0
M  V30 4111 C 402.528 -1.28693 0.964092 0
M  V30 4112 O 403.718 -1.23602 1.22753 0
M  V30 4113 C 400.85 -2.33825 2.4807 0
M  V30 4114 H 402.043 -0.589476 2.9405 0
M  V30 4115 H 399.596 -0.270354 1.53944 0
M  V30 4116 H 400.331 -2.80307 1.6309 0
M  V30 4117 H 400.116 -2.1483 3.2801 0
M  V30 4118 H 401.606 -3.04426 2.85857 0
M  V30 4119 N 402.043 -1.548 -0.295768 0
M  V30 4120 C 403.459 -1.4613 -0.641722 0
M  V30 4121 C 403.659 -0.656771 -1.90496 0
M  V30 4122 O 402.715 -0.166547 -2.5195 0
M  V30 4123 C 404.028 -2.90141 -0.789852 0
M  V30 4124 C 405.576 -3.00216 -0.885396 0
M  V30 4125 C 406.051 -4.45434 -1.06548 0
M  V30 4126 N 407.542 -4.49166 -1.13156 0
M  V30 4127 C 408.277 -5.58717 -1.28929 0
M  V30 4128 N 407.773 -6.78182 -1.41567 0
M  V30 4129 N 409.566 -5.46415 -1.31859 0
M  V30 4130 H 401.717 -2.05574 0.534147 0
M  V30 4131 H 403.98 -0.931259 0.177372 0
M  V30 4132 H 403.686 -3.51635 0.0675598 0
M  V30 4133 H 403.56 -3.37859 -1.67724 0
M  V30 4134 H 405.947 -2.38833 -1.73329 0
M  V30 4135 H 406.028 -2.55787 0.0261185 0
M  V30 4136 H 405.672 -5.07413 -0.222335 0
M  V30 4137 H 405.602 -4.87499 -1.9913 0
M  V30 4138 H 408.093 -3.631 -1.04721 0
M  V30 4139 H 408.406 -7.57428 -1.53372 0
M  V30 4140 H 406.751 -6.81037 -1.38613 0
M  V30 4141 H 409.942 -4.5203 -1.21601 0
M  V30 4142 H 410.115 -6.31841 -1.43808 0
M  V30 4143 N 403.521 0.559213 -1.47345 0
M  V30 4144 C 404.453 1.68161 -1.55738 0
M  V30 4145 C 405.466 1.56636 -0.443744 0
M  V30 4146 O 406.655 1.6363 -0.713258 0
M  V30 4147 C 403.755 3.06611 -1.4437 0
M  V30 4148 C 402.928 3.4391 -2.70268 0
M  V30 4149 C 401.987 4.61515 -2.52765 0
M  V30 4150 O 401.013 4.66197 -3.26572 0
M  V30 4151 N 402.215 5.57883 -1.6046 0
M  V30 4152 H 404.98 1.61408 -2.52522 0
M  V30 4153 H 402.541 0.7458 -1.43699 0
M  V30 4154 H 404.533 3.83117 -1.30398 0
M  V30 4155 H 403.103 3.07602 -0.556766 0
M  V30 4156 H 402.323 2.56873 -2.99015 0
M  V30 4157 H 403.611 3.65605 -3.53851 0
M  V30 4158 H 403.009 5.56855 -0.996422 0
M  V30 4159 H 401.566 6.33723 -1.52441 0
M  V30 4160 N 404.999 1.35443 0.805782 0
M  V30 4161 C 406.229 1.31687 1.59192 0
M  V30 4162 C 406.637 -0.10756 1.88894 0
M  V30 4163 O 405.98 -1.07017 1.49309 0
M  V30 4164 C 406.042 2.05686 2.94845 0
M  V30 4165 C 405.706 3.54868 2.87954 0
M  V30 4166 C 406.703 4.49444 2.61335 0
M  V30 4167 C 404.388 3.97528 3.07046 0
M  V30 4168 C 406.382 5.84655 2.53885 0
M  V30 4169 C 404.069 5.32833 2.99219 0
M  V30 4170 C 405.067 6.26209 2.72674 0
M  V30 4171 O 404.755 7.59032 2.64811 0
M  V30 4172 H 404.487 0.453878 0.50097 0
M  V30 4173 H 407.041 1.78892 1.0093 0
M  V30 4174 H 405.271 1.5312 3.55093 0
M  V30 4175 H 406.96 1.94998 3.55993 0
M  V30 4176 H 407.726 4.17804 2.46303 0
M  V30 4177 H 403.605 3.25233 3.26718 0
M  V30 4178 H 407.149 6.57508 2.33086 0
M  V30 4179 H 403.046 5.64087 3.13809 0
M  V30 4180 H 403.814 7.68967 2.80413 0
M  V30 4181 N 406.477 -1.02803 1.19454 0
M  V30 4182 C 407.723 -1.76478 0.999171 0
M  V30 4183 C 408.056 -1.88456 -0.468828 0
M  V30 4184 O 407.331 -1.40198 -1.34814 0
M  V30 4185 C 407.614 -3.19044 1.66981 0
M  V30 4186 C 407.467 -3.14932 3.21151 0
M  V30 4187 C 408.786 -4.17456 1.39349 0
M  V30 4188 H 405.905 -0.640614 0.364393 0
M  V30 4189 H 408.547 -1.20005 1.47305 0
M  V30 4190 H 406.697 -3.67263 1.2669 0
M  V30 4191 H 408.369 -2.74605 3.70661 0
M  V30 4192 H 406.612 -2.52625 3.52652 0
M  V30 4193 H 407.283 -4.1566 3.63223 0
M  V30 4194 H 409.759 -3.77842 1.74283 0
M  V30 4195 H 408.635 -5.154 1.88823 0
M  V30 4196 H 408.896 -4.40949 0.318813 0
M  V30 4197 N 407.956 -0.998596 -1.21925 0
M  V30 4198 C 408.886 -0.573688 -2.26343 0
M  V30 4199 C 409.867 0.402296 -1.65274 0
M  V30 4200 O 411.052 0.291683 -1.91997 0
M  V30 4201 C 408.182 0.106839 -3.47136 0
M  V30 4202 C 407.136 -0.788269 -4.20678 0
M  V30 4203 C 406.462 0.0254927 -5.34694 0
M  V30 4204 C 407.762 -2.08784 -4.78755 0
M  V30 4205 H 409.456 -1.44651 -2.62138 0
M  V30 4206 H 407.002 -0.696975 -1.26009 0
M  V30 4207 H 408.955 0.415531 -4.19346 0
M  V30 4208 H 407.679 1.01424 -3.10452 0
M  V30 4209 H 406.338 -1.08069 -3.50309 0
M  V30 4210 H 405.986 0.933989 -4.94253 0
M  V30 4211 H 405.686 -0.570437 -5.84825 0
M  V30 4212 H 407.21 0.328147 -6.09718 0
M  V30 4213 H 408.624 -1.84272 -5.42878 0
M  V30 4214 H 407.021 -2.63307 -5.39249 0
M  V30 4215 H 408.091 -2.76284 -3.98491 0
M  V30 4216 N 409.434 1.37368 -0.772513 0
M  V30 4217 C 410.711 1.93839 -0.26188 0
M  V30 4218 C 411.091 1.7061 1.24319 0
M  V30 4219 O 410.439 1.05534 2.02669 0
M  V30 4220 C 410.649 3.43154 -0.636102 0
M  V30 4221 C 411.997 4.20249 -0.606324 0
M  V30 4222 O 413.021 3.5152 -0.575538 0
M  V30 4223 O 411.88 5.42809 -0.634086 0
M  V30 4224 H 408.974 0.82478 -0.0605555 0
M  V30 4225 H 411.52 1.4665 -0.853917 0
M  V30 4226 H 410.292 3.53647 -1.6748 0
M  V30 4227 H 409.915 3.97596 -0.0170516 0
M  V30 4228 N 410.912 0.523116 1.48665 0
M  V30 4229 C 412.328 0.180511 1.58576 0
M  V30 4230 C 412.528 -1.31597 1.52592 0
M  V30 4231 O 411.584 -2.0937 1.4114 0
M  V30 4232 C 412.897 0.776949 2.90489 0
M  V30 4233 C 414.445 0.745058 3.04003 0
M  V30 4234 C 414.92 1.31995 4.38567 0
M  V30 4235 N 416.411 1.28162 4.45117 0
M  V30 4236 C 417.146 1.6964 5.47731 0
M  V30 4237 N 416.642 2.18816 6.57337 0
M  V30 4238 N 418.435 1.6092 5.38573 0
M  V30 4239 H 410.586 1.4958 1.50797 0
M  V30 4240 H 412.849 0.621772 0.715614 0
M  V30 4241 H 412.555 1.82732 3.00503 0
M  V30 4242 H 412.429 0.25007 3.7637 0
M  V30 4243 H 414.816 -0.296532 2.93606 0
M  V30 4244 H 414.897 1.30933 2.1975 0
M  V30 4245 H 414.541 2.36043 4.49718 0
M  V30 4246 H 414.471 0.731418 5.21496 0
M  V30 4247 H 416.962 0.92155 3.66491 0
M  V30 4248 H 417.275 2.48478 7.31764 0
M  V30 4249 H 415.62 2.22805 6.58318 0
M  V30 4250 H 418.811 1.22304 4.5184 0
M  V30 4251 H 418.984 1.93567 6.18414 0
M  V30 4252 N 412.39 -1.55475 0.257931 0
M  V30 4253 C 413.337 -2.21837 -0.636939 0
M  V30 4254 C 414.307 -1.18596 -1.16294 0
M  V30 4255 O 415.492 -1.47081 -1.21539 0
M  V30 4256 C 412.632 -2.9301 -1.82317 0
M  V30 4257 C 411.745 -4.10931 -1.33265 0
M  V30 4258 C 410.88 -4.69791 -2.47931 0
M  V30 4259 C 409.919 -5.7994 -1.95796 0
M  V30 4260 N 409.056 -6.32935 -3.0387 0
M  V30 4261 H 413.896 -2.9793 -0.0643591 0
M  V30 4262 H 411.433 -1.47086 -0.0200031 0
M  V30 4263 H 413.391 -3.3248 -2.52018 0
M  V30 4264 H 412.021 -2.1937 -2.36805 0
M  V30 4265 H 411.073 -3.76699 -0.52931 0
M  V30 4266 H 412.385 -4.90417 -0.910654 0
M  V30 4267 H 411.539 -5.11892 -3.25656 0
M  V30 4268 H 410.278 -3.89545 -2.93438 0
M  V30 4269 H 409.283 -5.37305 -1.16546 0
M  V30 4270 H 410.508 -6.62043 -1.51246 0
M  V30 4271 H 408.454 -5.55591 -3.48791 0
M  V30 4272 H 408.371 -7.07645 -2.66035 0
M  V30 4273 H 409.639 -6.79695 -3.81621 0
M  V30 4274 N 413.868 0.0150385 -1.57593 0
M  V30 4275 C 414.8 1.03912 -2.04291 0
M  V30 4276 C 415.813 1.31618 -0.958146 0
M  V30 4277 O 417.002 1.28859 -1.23522 0
M  V30 4278 C 414.102 2.37749 -2.41514 0
M  V30 4279 C 413.275 2.29198 -3.72541 0
M  V30 4280 C 412.334 3.45598 -3.96797 0
M  V30 4281 O 411.36 3.24461 -4.67668 0
M  V30 4282 N 412.562 4.67945 -3.43523 0
M  V30 4283 H 415.327 0.64099 -2.92765 0
M  V30 4284 H 412.888 0.20272 -1.60626 0
M  V30 4285 H 414.88 3.14364 -2.54867 0
M  V30 4286 H 413.45 2.69357 -1.58637 0
M  V30 4287 H 412.67 1.3759 -3.69408 0
M  V30 4288 H 413.958 2.20642 -4.5847 0
M  V30 4289 H 413.356 4.88017 -2.86104 0
M  V30 4290 H 411.913 5.41878 -3.62232 0
M  V30 4291 N 415.346 1.54954 0.287554 0
M  V30 4292 C 416.593 1.74873 1.02106 0
M  V30 4293 C 416.921 0.541829 1.86801 0
M  V30 4294 O 416.176 -0.475992 1.89823 0
M  V30 4295 C 416.475 2.99833 1.94512 0
M  V30 4296 C 416.141 4.33029 1.25686 0
M  V30 4297 C 414.803 4.69233 1.06649 0
M  V30 4298 C 417.155 5.15542 0.765913 0
M  V30 4299 C 414.483 5.85518 0.372222 0
M  V30 4300 C 416.835 6.32542 0.0853101 0
M  V30 4301 C 415.499 6.67398 -0.1169 0
M  V30 4302 H 414.769 0.639906 0.373632 0
M  V30 4303 H 417.416 1.89219 0.294665 0
M  V30 4304 H 415.721 2.80325 2.73725 0
M  V30 4305 H 417.418 3.1244 2.51361 0
M  V30 4306 H 414.008 4.04564 1.41512 0
M  V30 4307 H 418.192 4.88059 0.90066 0
M  V30 4308 H 413.448 6.11057 0.204695 0
M  V30 4309 H 417.622 6.95741 -0.302936 0
M  V30 4310 H 415.249 7.57357 -0.656859 0
M  V30 4311 N 416.824 -0.551391 1.4764 0
M  V30 4312 C 418.072 -1.30572 1.54258 0
M  V30 4313 C 418.393 -1.93877 0.208963 0
M  V30 4314 O 417.663 -1.80234 -0.767619 0
M  V30 4315 H 416.243 -0.484894 0.568231 0
M  V30 4316 H 418.905 -0.643402 1.83974 0
M  V30 4317 H 418.001 -2.09621 2.31226 0
M  V30 4318 N 418.302 -1.35869 -0.798587 0
M  V30 4319 C 419.718 -1.16082 -1.09532 0
M  V30 4320 C 419.918 0.0213124 -2.01489 0
M  V30 4321 O 418.974 0.689488 -2.42904 0
M  V30 4322 C 420.287 -2.46748 -1.7186 0
M  V30 4323 C 421.835 -2.53028 -1.84244 0
M  V30 4324 C 422.31 -3.83758 -2.49988 0
M  V30 4325 N 423.801 -3.85053 -2.57465 0
M  V30 4326 C 424.536 -4.8294 -3.09122 0
M  V30 4327 N 424.032 -5.91217 -3.61157 0
M  V30 4328 N 425.825 -4.70369 -3.0775 0
M  V30 4329 H 417.976 -2.11571 -0.187461 0
M  V30 4330 H 420.239 -0.936726 -0.145765 0
M  V30 4331 H 419.945 -3.33471 -1.11759 0
M  V30 4332 H 419.819 -2.61883 -2.71472 0
M  V30 4333 H 422.206 -1.66729 -2.43486 0
M  V30 4334 H 422.287 -2.418 -0.834643 0
M  V30 4335 H 421.931 -4.70459 -1.91393 0
M  V30 4336 H 421.861 -3.92278 -3.5132 0
M  V30 4337 H 424.352 -3.06822 -2.20609 0
M  V30 4338 H 424.665 -6.61892 -3.98896 0
M  V30 4339 H 423.01 -5.94899 -3.59333 0
M  V30 4340 H 426.201 -3.84914 -2.66381 0
M  V30 4341 H 426.374 -5.46816 -3.47701 0
M  V30 4342 N 419.78 1.02168 -1.19998 0
M  V30 4343 C 421.191 1.57135 -1.00825 0
M  V30 4344 C 421.542 1.91276 0.436818 0
M  V30 4345 O 420.667 1.71679 1.3174 0
M  V30 4346 C 421.262 2.85514 -1.82393 0
M  V30 4347 C 419.821 3.37027 -1.67601 0
M  V30 4348 C 418.968 2.10388 -1.80644 0
M  V30 4349 H 421.919 0.846106 -1.34264 0
M  V30 4350 H 421.94 3.56711 -1.32429 0
M  V30 4351 H 421.452 2.60634 -2.87561 0
M  V30 4352 H 419.553 3.66878 -0.650485 0
M  V30 4353 H 419.666 4.09572 -2.4857 0
M  V30 4354 H 418.03 2.22601 -1.23778 0
M  V30 4355 H 418.813 1.8794 -2.87286 0
M  V30 4356 N 421.258 1.00505 1.21394 0
M  V30 4357 C 422.188 0.585684 2.26035 0
M  V30 4358 C 423.169 -0.393525 1.65485 0
M  V30 4359 O 424.354 -0.281497 1.92149 0
M  V30 4360 C 421.484 -0.0884283 3.47187 0
M  V30 4361 C 420.438 0.810567 4.20254 0
M  V30 4362 C 419.764 0.00286382 5.347 0
M  V30 4363 C 421.064 2.1132 4.77641 0
M  V30 4364 H 422.758 1.46039 2.61368 0
M  V30 4365 H 420.304 0.703648 1.25638 0
M  V30 4366 H 422.257 -0.393286 4.19561 0
M  V30 4367 H 420.981 -0.997766 3.10986 0
M  V30 4368 H 419.64 1.09925 3.49731 0
M  V30 4369 H 419.288 -0.907765 4.94741 0
M  V30 4370 H 418.988 0.601444 5.84514 0
M  V30 4371 H 420.512 -0.295808 6.09883 0
M  V30 4372 H 421.926 1.87148 5.41893 0
M  V30 4373 H 420.323 2.66164 5.37845 0
M  V30 4374 H 421.393 2.78393 3.9702 0
M  V30 4375 N 422.737 -1.36956 0.779787 0
M  V30 4376 C 423.7 -2.2851 0.177662 0
M  V30 4377 C 424.7 -1.48393 -0.619377 0
M  V30 4378 O 425.89 -1.68505 -0.441785 0
M  V30 4379 C 423.022 -3.32428 -0.755279 0
M  V30 4380 H 424.215 -2.83269 0.984823 0
M  V30 4381 H 421.768 -1.46358 0.548544 0
M  V30 4382 H 422.503 -2.82808 -1.58714 0
M  V30 4383 H 422.288 -3.91659 -0.185817 0
M  V30 4384 H 423.778 -4.00824 -1.17174 0
M  V30 4385 N 424.215 -0.530993 -1.48385 0
M  V30 4386 C 425.178 0.220497 -2.28137 0
M  V30 4387 C 426.178 0.866851 -1.35434 0
M  V30 4388 O 427.368 0.726746 -1.58316 0
M  V30 4389 C 424.5 1.31921 -3.1434 0
M  V30 4390 H 425.693 -0.479714 -2.96038 0
M  V30 4391 H 423.246 -0.286968 -1.53643 0
M  V30 4392 H 423.981 2.05264 -2.51072 0
M  V30 4393 H 423.766 0.86085 -3.82533 0
M  V30 4394 H 425.256 1.84776 -3.74497 0
M  V30 4395 N 425.693 1.55336 -0.266172 0
M  V30 4396 C 426.641 2.23587 0.641228 0
M  V30 4397 C 427.635 1.22986 1.16494 0
M  V30 4398 O 428.841 1.40943 1.1196 0
M  V30 4399 H 425.216 0.717452 0.225315 0
M  V30 4400 H 427.187 2.9837 0.0426561 0
M  V30 4401 C 425.936 2.96369 1.81826 0
M  V30 4402 H 425.259 3.73563 1.42445 0
M  V30 4403 H 426.699 3.47459 2.42998 0
M  V30 4404 C 425.158 2.0133 2.70125 0
M  V30 4405 O 425.688 1.55875 3.70224 0
M  V30 4406 N 423.894 1.6802 2.37102 0
M  V30 4407 H 423.441 2.05181 1.55751 0
M  V30 4408 H 423.399 1.047 2.96454 0
M  V30 4409 N 427.171 -0.0066808 1.57599 0
M  V30 4410 C 428.103 -1.02827 2.04839 0
M  V30 4411 C 429.116 -1.31108 0.965113 0
M  V30 4412 O 430.305 -1.28202 1.24203 0
M  V30 4413 C 427.405 -2.36464 2.42771 0
M  V30 4414 C 426.578 -2.27219 3.73751 0
M  V30 4415 C 425.637 -3.43489 3.98625 0
M  V30 4416 O 424.663 -3.21976 4.69382 0
M  V30 4417 N 425.865 -4.66116 3.46 0
M  V30 4418 H 428.63 -0.625455 2.93101 0
M  V30 4419 H 426.191 -0.194198 1.60731 0
M  V30 4420 H 428.183 -3.13008 2.56531 0
M  V30 4421 H 426.753 -2.68512 1.60063 0
M  V30 4422 H 425.973 -1.35629 3.70133 0
M  V30 4423 H 427.261 -2.18208 4.59633 0
M  V30 4424 H 426.659 -4.86493 2.88688 0
M  V30 4425 H 425.216 -5.39949 3.65101 0
M  V30 4426 N 428.649 -1.55105 -0.279332 0
M  V30 4427 C 429.579 -1.90557 -1.34945 0
M  V30 4428 C 430.56 -0.766738 -1.51839 0
M  V30 4429 O 431.745 -1.02434 -1.64988 0
M  V30 4430 C 428.875 -2.17193 -2.71006 0
M  V30 4431 C 427.829 -3.33021 -2.68851 0
M  V30 4432 C 427.155 -3.45123 -4.08405 0
M  V30 4433 C 428.455 -4.69578 -2.28678 0
M  V30 4434 H 430.149 -2.80188 -1.05522 0
M  V30 4435 H 427.695 -1.34811 -0.506173 0
M  V30 4436 H 429.648 -2.40581 -3.45975 0
M  V30 4437 H 428.372 -1.24355 -3.01999 0
M  V30 4438 H 427.031 -3.0959 -1.9634 0
M  V30 4439 H 426.679 -2.49762 -4.3661 0
M  V30 4440 H 426.379 -4.22995 -4.07859 0
M  V30 4441 H 427.903 -3.70796 -4.85121 0
M  V30 4442 H 429.317 -4.92553 -2.93368 0
M  V30 4443 H 427.714 -5.5032 -2.39306 0
M  V30 4444 H 428.784 -4.68828 -1.23807 0
M  V30 4445 N 430.127 0.543554 -1.4793 0
M  V30 4446 C 431.376 1.29649 -1.54512 0
M  V30 4447 C 431.689 1.94382 -0.217973 0
M  V30 4448 O 432.895 2.71017 -0.161908 0
M  V30 4449 C 431.351 2.35175 -2.72435 0
M  V30 4450 C 430.959 1.76572 -4.11736 0
M  V30 4451 C 432.703 3.11564 -2.8832 0
M  V30 4452 C 430.61 2.79958 -5.20939 0
M  V30 4453 H 429.54 0.487541 -0.57517 0
M  V30 4454 H 432.191 0.575708 -1.74235 0
M  V30 4455 H 430.573 3.10229 -2.46118 0
M  V30 4456 H 431.747 1.07799 -4.48013 0
M  V30 4457 H 430.062 1.12722 -4.00852 0
M  V30 4458 H 432.659 3.88794 -3.67074 0
M  V30 4459 H 433.002 3.66594 -1.97268 0
M  V30 4460 H 433.535 2.43623 -3.14472 0
M  V30 4461 H 430.274 2.29766 -6.13912 0
M  V30 4462 H 429.794 3.47101 -4.89164 0
M  V30 4463 H 431.473 3.43198 -5.48474 0
M  V30 4464 N 431.605 1.3629 0.791371 0
M  V30 4465 C 432.537 1.26321 1.91248 0
M  V30 4466 C 433.55 0.18313 1.61767 0
M  V30 4467 O 434.739 0.437682 1.73051 0
M  V30 4468 C 431.839 0.925901 3.26007 0
M  V30 4469 C 431.012 2.10746 3.83281 0
M  V30 4470 C 430.071 1.74352 4.96475 0
M  V30 4471 O 429.097 2.46416 5.13096 0
M  V30 4472 N 430.299 0.676058 5.7655 0
M  V30 4473 H 433.064 2.22915 2.00323 0
M  V30 4474 H 430.625 1.29659 0.969546 0
M  V30 4475 H 432.617 0.663636 3.99222 0
M  V30 4476 H 431.187 0.0491581 3.12561 0
M  V30 4477 H 430.407 2.53264 3.02077 0
M  V30 4478 H 431.695 2.8969 4.18279 0
M  V30 4479 H 431.093 0.0776467 5.65647 0
M  V30 4480 H 429.65 0.473612 6.50077 0
M  V30 4481 N 433.083 -1.0153 1.20538 0
M  V30 4482 C 434.03 -2.10098 0.955383 0
M  V30 4483 C 435 -1.65702 -0.114878 0
M  V30 4484 O 436.185 -1.90776 0.0301118 0
M  V30 4485 C 433.325 -3.41236 0.514969 0
M  V30 4486 C 432.438 -3.99102 1.65353 0
M  V30 4487 C 431.573 -5.18306 1.16329 0
M  V30 4488 C 430.612 -5.68258 2.27485 0
M  V30 4489 N 429.749 -6.78722 1.7967 0
M  V30 4490 H 434.589 -2.30818 1.88486 0
M  V30 4491 H 432.126 -1.13189 0.939499 0
M  V30 4492 H 434.084 -4.16504 0.240935 0
M  V30 4493 H 432.714 -3.20585 -0.377512 0
M  V30 4494 H 431.766 -3.20918 2.04245 0
M  V30 4495 H 433.078 -4.32177 2.49047 0
M  V30 4496 H 432.232 -6.00782 0.845302 0
M  V30 4497 H 430.971 -4.86799 0.296254 0
M  V30 4498 H 429.976 -4.84385 2.60099 0
M  V30 4499 H 431.201 -6.01798 3.14667 0
M  V30 4500 H 429.147 -6.49042 0.95295 0
M  V30 4501 H 429.064 -7.10996 2.56944 0
M  V30 4502 H 430.332 -7.64759 1.50875 0
M  V30 4503 N 434.561 -1.01147 -1.20859 0
M  V30 4504 C 435.508 -0.577354 -2.23462 0
M  V30 4505 C 436.478 0.399922 -1.61214 0
M  V30 4506 O 437.663 0.300515 -1.88419 0
M  V30 4507 C 434.803 0.083372 -3.44999 0
M  V30 4508 C 433.916 -0.937856 -4.21697 0
M  V30 4509 C 433.051 -0.248717 -5.30617 0
M  V30 4510 C 432.09 -1.25705 -5.99053 0
M  V30 4511 N 431.227 -0.594939 -6.99575 0
M  V30 4512 H 436.067 -1.45695 -2.59956 0
M  V30 4513 H 433.604 -0.729428 -1.27741 0
M  V30 4514 H 435.562 0.483535 -4.14388 0
M  V30 4515 H 434.192 0.926645 -3.09214 0
M  V30 4516 H 433.244 -1.45622 -3.51423 0
M  V30 4517 H 434.556 -1.70493 -4.68757 0
M  V30 4518 H 433.71 0.207215 -6.06346 0
M  V30 4519 H 432.449 0.55071 -4.84581 0
M  V30 4520 H 431.454 -1.72343 -5.2209 0
M  V30 4521 H 432.679 -2.05767 -6.47176 0
M  V30 4522 H 430.625 0.184713 -6.5574 0
M  V30 4523 H 430.542 -1.30017 -7.44736 0
M  V30 4524 H 431.81 -0.162427 -7.79331 0
M  V30 4525 N 436.039 1.36541 -0.78704 0
M  V30 4526 C 436.969 2.32659 -0.197992 0
M  V30 4527 C 437.95 1.56533 0.665697 0
M  V30 4528 O 439.135 1.84698 0.60001 0
M  V30 4529 C 436.265 3.40778 0.669901 0
M  V30 4530 C 435.219 4.27897 -0.0937039 0
M  V30 4531 C 434.545 5.27163 0.894629 0
M  V30 4532 C 435.845 5.06334 -1.28154 0
M  V30 4533 H 437.539 2.82171 -1.00099 0
M  V30 4534 H 435.085 1.35665 -0.482793 0
M  V30 4535 H 437.038 4.07008 1.09191 0
M  V30 4536 H 435.762 2.89827 1.50558 0
M  V30 4537 H 434.421 3.6322 -0.49666 0
M  V30 4538 H 434.069 4.72486 1.72527 0
M  V30 4539 H 433.769 5.86317 0.388149 0
M  V30 4540 H 435.293 5.96266 1.31525 0
M  V30 4541 H 436.707 5.65617 -0.93541 0
M  V30 4542 H 435.104 5.74888 -1.72115 0
M  V30 4543 H 436.174 4.38114 -2.07807 0
M  V30 4544 N 437.518 0.538854 1.48102 0
M  V30 4545 C 438.481 -0.208395 2.28251 0
M  V30 4546 C 439.481 -0.859656 1.35892 0
M  V30 4547 O 440.671 -0.71834 1.58699 0
M  V30 4548 C 437.803 -1.30252 3.15035 0
M  V30 4549 H 438.996 0.495407 2.9578 0
M  V30 4550 H 436.549 0.295112 1.53489 0
M  V30 4551 H 437.284 -2.0393 2.52157 0
M  V30 4552 H 437.069 -0.840551 3.82985 0
M  V30 4553 H 438.559 -1.82787 3.75471 0
M  V30 4554 N 438.996 -1.55193 0.274407 0
M  V30 4555 C 440.273 -1.91584 -0.394331 0
M  V30 4556 C 440.653 -1.19858 -1.73774 0
M  V30 4557 O 440.001 -0.3252 -2.26174 0
M  V30 4558 C 440.211 -3.4487 -0.535311 0
M  V30 4559 C 441.559 -4.16636 -0.818534 0
M  V30 4560 O 442.583 -3.5076 -0.620146 0
M  V30 4561 O 441.442 -5.33209 -1.19792 0
M  V30 4562 H 438.536 -0.798349 -0.215794 0
M  V30 4563 H 441.082 -1.66646 0.320507 0
M  V30 4564 H 439.854 -3.89145 0.410141 0
M  V30 4565 H 439.477 -3.75759 -1.29964 0
M  V30 4566 N 440.474 -0.00167713 -1.576 0
M  V30 4567 C 441.407 1.02317 -2.03977 0
M  V30 4568 C 442.385 1.33381 -0.929963 0
M  V30 4569 O 443.569 1.45517 -1.19822 0
M  V30 4570 C 440.696 2.35035 -2.43878 0
M  V30 4571 C 439.742 2.19621 -3.65607 0
M  V30 4572 S 440.575 1.52068 -5.13455 0
M  V30 4573 C 441.731 2.86212 -5.56627 0
M  V30 4574 H 441.964 0.628285 -2.90585 0
M  V30 4575 H 439.497 0.209239 -1.52976 0
M  V30 4576 H 441.455 3.11345 -2.67534 0
M  V30 4577 H 440.116 2.71663 -1.57665 0
M  V30 4578 H 439.309 3.1767 -3.91282 0
M  V30 4579 H 438.911 1.51455 -3.41961 0
M  V30 4580 H 441.203 3.82509 -5.59189 0
M  V30 4581 H 442.146 2.65235 -6.56549 0
M  V30 4582 H 442.554 2.90199 -4.84195 0
M  V30 4583 N 441.952 1.55251 0.271103 0
M  V30 4584 C 442.884 1.84675 1.35749 0
M  V30 4585 C 443.897 0.731366 1.45447 0
M  V30 4586 O 445.086 1.00924 1.4723 0
M  V30 4587 C 442.186 1.99638 2.73857 0
M  V30 4588 C 441.359 3.30312 2.86727 0
M  V30 4589 C 440.418 3.35318 4.05522 0
M  V30 4590 O 439.444 4.08682 3.96191 0
M  V30 4591 N 440.646 2.62857 5.17577 0
M  V30 4592 H 443.411 2.78445 1.10853 0
M  V30 4593 H 440.972 1.55191 0.461218 0
M  V30 4594 H 442.964 2.00355 3.51625 0
M  V30 4595 H 441.534 1.12725 2.91568 0
M  V30 4596 H 440.754 3.42118 1.95829 0
M  V30 4597 H 442.042 4.16488 2.92258 0
M  V30 4598 H 441.44 2.02939 5.28046 0
M  V30 4599 H 439.997 2.69295 5.93568 0
M  V30 4600 N 443.43 -0.535701 1.48216 0
M  V30 4601 C 444.658 -1.31671 1.59594 0
M  V30 4602 C 445.073 -1.87083 0.254056 0
M  V30 4603 O 444.43 -1.66112 -0.755854 0
M  V30 4604 C 444.481 -2.47158 2.63809 0
M  V30 4605 O 444.202 -1.94032 3.92789 0
M  V30 4606 C 445.703 -3.39062 2.85573 0
M  V30 4607 H 442.923 -0.400623 0.538277 0
M  V30 4608 H 445.467 -0.646827 1.94001 0
M  V30 4609 H 443.622 -3.10043 2.32276 0
M  V30 4610 H 444.036 -2.69585 4.49916 0
M  V30 4611 H 445.51 -4.16459 3.62306 0
M  V30 4612 H 445.987 -3.93941 1.94184 0
M  V30 4613 H 446.593 -2.81975 3.18387 0
M  V30 4614 N 444.908 -1.36708 -0.784132 0
M  V30 4615 C 445.818 -1.3363 -1.92822 0
M  V30 4616 C 446.834 -0.237686 -1.72369 0
M  V30 4617 O 448.01 -0.470962 -1.95816 0
M  V30 4618 C 445.075 -1.13011 -3.27764 0
M  V30 4619 C 444.136 -2.32397 -3.60957 0
M  V30 4620 C 443.369 -2.12752 -4.89461 0
M  V30 4621 O 443.592 -1.10541 -5.59586 0
M  V30 4622 O 442.526 -3.00653 -5.21432 0
M  V30 4623 H 446.352 -2.29964 -1.98369 0
M  V30 4624 H 443.937 -1.1731 -0.925136 0
M  V30 4625 H 445.819 -1.03451 -4.08504 0
M  V30 4626 H 444.494 -0.19743 -3.23097 0
M  V30 4627 H 443.401 -2.47527 -2.80502 0
M  V30 4628 H 444.734 -3.2419 -3.70354 0
M  V30 4629 N 446.386 1.0089 -1.21074 0
M  V30 4630 C 447.635 1.74019 -1.01981 0
M  V30 4631 C 447.948 1.90408 0.447665 0
M  V30 4632 O 449.154 2.60707 0.757906 0
M  V30 4633 C 447.61 3.13026 -1.77603 0
M  V30 4634 C 447.218 3.04623 -3.28495 0
M  V30 4635 C 448.962 3.90312 -1.66904 0
M  V30 4636 C 446.869 4.38685 -3.96623 0
M  V30 4637 H 445.799 0.652422 -0.377971 0
M  V30 4638 H 448.45 1.12755 -1.44771 0
M  V30 4639 H 446.832 3.74878 -1.27604 0
M  V30 4640 H 448.006 2.52032 -3.85767 0
M  V30 4641 H 446.321 2.40827 -3.39693 0
M  V30 4642 H 448.918 4.8951 -2.15138 0
M  V30 4643 H 449.261 4.11558 -0.62658 0
M  V30 4644 H 449.794 3.35104 -2.14359 0
M  V30 4645 H 446.533 4.22641 -5.01054 0
M  V30 4646 H 446.053 4.91252 -3.4414 0
M  V30 4647 H 447.732 5.075 -4.01314 0
M  V30 4648 N 447.864 1.01787 1.20321 0
M  V30 4649 C 449.092 0.727194 1.937 0
M  V30 4650 C 449.507 -0.712305 1.74848 0
M  V30 4651 O 448.864 -1.48327 1.06327 0
M  V30 4652 C 448.915 1.05497 3.45764 0
M  V30 4653 O 448.636 2.43794 3.64 0
M  V30 4654 C 450.137 0.785534 4.36285 0
M  V30 4655 H 447.357 0.266939 0.615617 0
M  V30 4656 H 449.901 1.35939 1.52777 0
M  V30 4657 H 448.056 0.468158 3.84561 0
M  V30 4658 H 448.47 2.55656 4.57974 0
M  V30 4659 H 449.944 1.06495 5.4163 0
M  V30 4660 H 450.421 -0.280273 4.38305 0
M  V30 4661 H 451.027 1.35456 4.03152 0
M  V30 4662 N 449.342 -1.36122 0.79427 0
M  V30 4663 C 450.272 -2.32551 0.210328 0
M  V30 4664 C 451.253 -1.56884 -0.657386 0
M  V30 4665 O 452.438 -1.85014 -0.590207 0
M  V30 4666 C 449.568 -3.41128 -0.651819 0
M  V30 4667 C 448.522 -4.27842 0.116395 0
M  V30 4668 C 447.848 -5.2763 -0.86666 0
M  V30 4669 C 449.148 -5.05647 1.30837 0
M  V30 4670 H 450.842 -2.81636 1.01594 0
M  V30 4671 H 448.388 -1.35407 0.489981 0
M  V30 4672 H 450.341 -4.07581 -1.07031 0
M  V30 4673 H 449.065 -2.90622 -1.49019 0
M  V30 4674 H 447.724 -3.62952 0.515915 0
M  V30 4675 H 447.372 -4.73395 -1.70019 0
M  V30 4676 H 447.072 -5.86514 -0.35705 0
M  V30 4677 H 448.596 -5.96955 -1.28361 0
M  V30 4678 H 450.01 -5.65113 0.965393 0
M  V30 4679 H 448.407 -5.73967 1.75161 0
M  V30 4680 H 449.477 -4.37006 2.10128 0
M  V30 4681 N 450.82 -0.546701 -1.47814 0
M  V30 4682 C 452.068 -0.0187037 -2.02091 0
M  V30 4683 C 452.389 1.33168 -1.42447 0
M  V30 4684 O 451.659 1.86619 -0.595839 0
M  V30 4685 H 450.239 -0.00392531 -0.74699 0
M  V30 4686 H 452.901 -0.714327 -1.81338 0
M  V30 4687 H 451.997 0.0772219 -3.12004 0
M  V30 4688 N 452.299 1.55045 -0.282633 0
M  V30 4689 C 453.229 2.2579 0.595066 0
M  V30 4690 C 454.21 1.25074 1.15284 0
M  V30 4691 O 455.395 1.5381 1.18559 0
M  V30 4692 C 452.525 2.98472 1.77572 0
M  V30 4693 C 451.479 4.0618 1.34914 0
M  V30 4694 C 450.805 4.66477 2.6135 0
M  V30 4695 C 452.105 5.1996 0.493821 0
M  V30 4696 H 453.799 2.994 0.00505653 0
M  V30 4697 H 451.345 1.44 0.000992001 0
M  V30 4698 H 453.298 3.46677 2.39568 0
M  V30 4699 H 452.022 2.2241 2.39168 0
M  V30 4700 H 450.681 3.58797 0.752338 0
M  V30 4701 H 450.329 3.87074 3.2122 0
M  V30 4702 H 450.029 5.39207 2.33516 0
M  V30 4703 H 451.553 5.17435 3.24181 0
M  V30 4704 H 452.967 5.64172 1.01898 0
M  V30 4705 H 451.364 5.99299 0.310047 0
M  V30 4706 H 452.434 4.82462 -0.485593 0
M  V30 4707 N 453.777 0.010035 1.57597 0
M  V30 4708 C 454.709 -1.00649 2.05918 0
M  V30 4709 C 455.722 -1.30077 0.978964 0
M  V30 4710 O 456.911 -1.26878 1.25556 0
M  V30 4711 C 454.011 -2.33876 2.45265 0
M  V30 4712 C 453.184 -2.23242 3.7614 0
M  V30 4713 C 452.243 -3.39242 4.02245 0
M  V30 4714 O 451.269 -3.1698 4.72771 0
M  V30 4715 N 452.471 -4.6242 3.50924 0
M  V30 4716 H 455.236 -0.594333 2.93748 0
M  V30 4717 H 452.797 -0.17714 1.60928 0
M  V30 4718 H 454.789 -3.1027 2.59836 0
M  V30 4719 H 453.359 -2.66799 1.62902 0
M  V30 4720 H 452.579 -1.31696 3.71551 0
M  V30 4721 H 453.867 -2.13321 4.61922 0
M  V30 4722 H 453.265 -4.83404 2.93832 0
M  V30 4723 H 451.822 -5.36046 3.70807 0
M  V30 4724 N 455.255 -1.55392 -0.262866 0
M  V30 4725 C 456.503 -1.76127 -0.991147 0
M  V30 4726 C 456.824 -0.571083 -1.8645 0
M  V30 4727 O 456.094 0.413698 -1.91482 0
M  V30 4728 H 454.674 -0.649528 -0.368948 0
M  V30 4729 H 457.336 -1.9281 -0.284655 0
M  V30 4730 H 456.432 -2.6663 -1.62219 0
M  V30 4731 N 456.733 0.527833 -1.48498 0
M  V30 4732 C 457.979 1.28545 -1.56857 0
M  V30 4733 C 458.312 1.92678 -0.242651 0
M  V30 4734 O 457.587 1.79394 0.751545 0
M  V30 4735 C 457.87 2.37314 -2.70839 0
M  V30 4736 C 457.723 1.77858 -4.13142 0
M  V30 4737 C 459.042 3.39068 -2.80573 0
M  V30 4738 H 456.161 0.466006 -0.570971 0
M  V30 4739 H 458.803 0.587784 -1.8068 0
M  V30 4740 H 456.953 2.96821 -2.50658 0
M  V30 4741 H 458.625 1.22385 -4.44769 0
M  V30 4742 H 456.868 1.08383 -4.20042 0
M  V30 4743 H 457.539 2.56624 -4.88721 0
M  V30 4744 H 460.015 2.89518 -2.98862 0
M  V30 4745 H 458.891 4.12566 -3.6205 0
M  V30 4746 H 459.152 3.9975 -1.88818 0
M  V30 4747 N 458.211 1.37122 0.776871 0
M  V30 4748 C 459.141 1.35164 1.90402 0
M  V30 4749 C 460.122 0.221069 1.68657 0
M  V30 4750 O 461.307 0.420642 1.8959 0
M  V30 4751 C 458.437 1.15274 3.27611 0
M  V30 4752 C 457.391 2.25289 3.63908 0
M  V30 4753 C 456.717 1.90527 4.99603 0
M  V30 4754 C 458.017 3.67446 3.71188 0
M  V30 4755 H 459.711 2.29482 1.92297 0
M  V30 4756 H 457.257 1.10465 0.923773 0
M  V30 4757 H 459.21 1.12536 4.06096 0
M  V30 4758 H 457.934 0.174102 3.26136 0
M  V30 4759 H 456.593 2.27174 2.87728 0
M  V30 4760 H 456.241 0.91206 4.94662 0
M  V30 4761 H 455.941 2.64193 5.24858 0
M  V30 4762 H 457.465 1.89367 5.80493 0
M  V30 4763 H 458.879 3.67719 4.39836 0
M  V30 4764 H 457.276 4.40123 4.07936 0
M  V30 4765 H 458.346 4.01443 2.71977 0
M  V30 4766 N 459.689 -1.00246 1.21608 0
M  V30 4767 C 461.105 -1.26435 0.973975 0
M  V30 4768 C 461.305 -1.98642 -0.338143 0
M  V30 4769 O 460.361 -2.29026 -1.06317 0
M  V30 4770 C 461.674 -2.08551 2.16626 0
M  V30 4771 C 463.222 -2.21769 2.20879 0
M  V30 4772 C 463.697 -3.07267 3.39633 0
M  V30 4773 N 465.188 -3.14855 3.39736 0
M  V30 4774 C 465.923 -3.81274 4.28273 0
M  V30 4775 N 465.419 -4.497 5.27012 0
M  V30 4776 N 467.212 -3.7794 4.16074 0
M  V30 4777 H 459.363 -0.518089 2.05984 0
M  V30 4778 H 461.626 -0.291368 0.902113 0
M  V30 4779 H 461.332 -1.62847 3.11727 0
M  V30 4780 H 461.206 -3.09303 2.15897 0
M  V30 4781 H 463.593 -2.66691 1.26332 0
M  V30 4782 H 463.674 -1.20478 2.25652 0
M  V30 4783 H 463.318 -2.63047 4.34475 0
M  V30 4784 H 463.248 -4.08678 3.321 0
M  V30 4785 H 465.739 -2.66147 2.6828 0
M  V30 4786 H 466.052 -4.98092 5.90867 0
M  V30 4787 H 464.397 -4.48479 5.30935 0
M  V30 4788 H 467.588 -3.23638 3.38195 0
M  V30 4789 H 467.761 -4.29424 4.85282 0
M  V30 4790 N 461.167 -1.02423 -1.1978 0
M  V30 4791 C 462.097 -0.62157 -2.25075 0
M  V30 4792 C 463.078 0.367148 -1.6609 0
M  V30 4793 O 464.263 0.250892 -1.92573 0
M  V30 4794 C 461.393 0.0331826 -3.47284 0
M  V30 4795 C 460.347 -0.877323 -4.18912 0
M  V30 4796 C 459.673 -0.0879296 -5.34628 0
M  V30 4797 C 460.973 -2.18892 -4.74219 0
M  V30 4798 H 462.667 -1.50179 -2.59011 0
M  V30 4799 H 460.213 -0.723547 -1.24502 0
M  V30 4800 H 462.166 0.326488 -4.20133 0
M  V30 4801 H 460.89 0.948164 -3.12534 0
M  V30 4802 H 459.549 -1.15475 -3.47938 0
M  V30 4803 H 459.197 0.828941 -4.96123 0
M  V30 4804 H 458.897 -0.694359 -5.83483 0
M  V30 4805 H 460.421 0.198743 -6.10276 0
M  V30 4806 H 461.835 -1.95746 -5.38847 0
M  V30 4807 H 460.232 -2.74686 -5.33542 0
M  V30 4808 H 461.302 -2.84674 -3.92541 0
M  V30 4809 N 462.645 1.35699 -0.801477 0
M  V30 4810 C 463.893 1.9852 -0.37871 0
M  V30 4811 C 464.214 1.63907 1.05638 0
M  V30 4812 O 463.484 0.919013 1.73006 0
M  V30 4813 H 462.064 0.734322 -0.137042 0
M  V30 4814 H 464.726 1.65697 -1.02619 0
M  V30 4815 H 463.822 3.08382 -0.480284 0
M  V30 4816 N 464.123 0.554532 1.47522 0
M  V30 4817 C 465.539 0.214107 1.58157 0
M  V30 4818 C 465.739 -1.28331 1.55349 0
M  V30 4819 O 464.795 -2.06329 1.45549 0
M  V30 4820 C 466.108 0.838391 2.88776 0
M  V30 4821 C 467.656 0.809374 3.02354 0
M  V30 4822 C 468.131 1.41268 4.35669 0
M  V30 4823 N 469.622 1.37574 4.42298 0
M  V30 4824 C 470.357 1.8122 5.4401 0
M  V30 4825 N 469.853 2.3271 6.52547 0
M  V30 4826 N 471.646 1.72307 5.35039 0
M  V30 4827 H 463.797 1.52744 1.4759 0
M  V30 4828 H 466.06 0.636812 0.702264 0
M  V30 4829 H 465.766 1.89065 2.96559 0
M  V30 4830 H 465.64 0.329847 3.75755 0
M  V30 4831 H 468.027 -0.234187 2.94169 0
M  V30 4832 H 468.108 1.35565 2.16924 0
M  V30 4833 H 467.752 2.45529 4.4461 0
M  V30 4834 H 467.682 0.841871 5.19827 0
M  V30 4835 H 470.173 0.999081 3.64454 0
M  V30 4836 H 470.486 2.63944 7.26329 0
M  V30 4837 H 468.831 2.36719 6.53444 0
M  V30 4838 H 472.022 1.3186 4.49144 0
M  V30 4839 H 472.195 2.06641 6.14169 0
M  V30 4840 N 465.601 -1.54893 0.290851 0
M  V30 4841 C 466.534 -2.19289 -0.631489 0
M  V30 4842 C 467.512 -1.15893 -1.14051 0
M  V30 4843 O 468.696 -1.4449 -1.21058 0
M  V30 4844 C 465.823 -2.82866 -1.86291 0
M  V30 4845 C 464.869 -3.997 -1.48801 0
M  V30 4846 S 465.702 -5.32641 -0.552644 0
M  V30 4847 C 466.858 -5.99696 -1.79209 0
M  V30 4848 H 467.091 -2.9718 -0.0843791 0
M  V30 4849 H 464.624 -1.54218 0.075031 0
M  V30 4850 H 466.582 -3.20124 -2.56964 0
M  V30 4851 H 465.243 -2.04839 -2.38117 0
M  V30 4852 H 464.436 -4.42932 -2.40473 0
M  V30 4853 H 464.038 -3.63947 -0.861321 0
M  V30 4854 H 466.33 -6.19886 -2.734 0
M  V30 4855 H 467.273 -6.94071 -1.40251 0
M  V30 4856 H 467.681 -5.29226 -1.96419 0
M  V30 4857 N 467.08 -0.0183926 -1.57589 0
M  V30 4858 C 468.027 0.967022 -2.09565 0
M  V30 4859 C 468.997 1.32983 -0.995225 0
M  V30 4860 O 470.182 1.42501 -1.26878 0
M  V30 4861 C 467.322 2.24772 -2.61861 0
M  V30 4862 C 466.435 1.94232 -3.85873 0
M  V30 4863 C 465.57 3.16518 -4.26603 0
M  V30 4864 C 464.609 2.81748 -5.43401 0
M  V30 4865 N 463.746 3.96626 -5.79338 0
M  V30 4866 H 468.586 0.516874 -2.93483 0
M  V30 4867 H 466.123 0.243544 -1.4507 0
M  V30 4868 H 468.081 2.99667 -2.90268 0
M  V30 4869 H 466.711 2.67423 -1.8079 0
M  V30 4870 H 465.763 1.09625 -3.64262 0
M  V30 4871 H 467.075 1.64616 -4.70853 0
M  V30 4872 H 466.229 3.99743 -4.56389 0
M  V30 4873 H 464.968 3.49286 -3.40368 0
M  V30 4874 H 463.973 1.96933 -5.1332 0
M  V30 4875 H 465.198 2.50207 -6.31327 0
M  V30 4876 H 463.144 4.29257 -4.96059 0
M  V30 4877 H 463.061 3.70598 -6.58933 0
M  V30 4878 H 464.329 4.80586 -6.13724 0
M  V30 4879 N 468.558 1.5553 0.254621 0
M  V30 4880 C 469.835 1.6774 1.00611 0
M  V30 4881 C 470.215 0.555993 2.03647 0
M  V30 4882 O 469.563 -0.441583 2.24193 0
M  V30 4883 C 469.773 3.07725 1.6464 0
M  V30 4884 C 471.121 3.66074 2.15116 0
M  V30 4885 O 472.145 3.10476 1.74595 0
M  V30 4886 O 471.004 4.63526 2.89493 0
M  V30 4887 H 468.098 0.681958 0.467828 0
M  V30 4888 H 470.644 1.67863 0.24902 0
M  V30 4889 H 469.416 3.80792 0.900734 0
M  V30 4890 H 469.039 3.1158 2.46989 0
M  V30 4891 N 470.036 -0.519951 1.48776 0
M  V30 4892 C 470.946 -1.65025 1.66745 0
M  V30 4893 C 471.962 -1.6508 0.549954 0
M  V30 4894 O 473.138 -1.83848 0.822295 0
M  V30 4895 C 470.203 -3.0146 1.71238 0
M  V30 4896 C 469.264 -3.12182 2.94688 0
M  V30 4897 C 468.497 -4.42109 2.98958 0
M  V30 4898 O 468.72 -5.29799 2.1135 0
M  V30 4899 O 467.654 -4.57406 3.91233 0
M  V30 4900 H 471.48 -1.52801 2.62461 0
M  V30 4901 H 469.065 -0.694157 1.32294 0
M  V30 4902 H 470.947 -3.82584 1.76657 0
M  V30 4903 H 469.622 -3.13988 0.786975 0
M  V30 4904 H 468.529 -2.30316 2.94797 0
M  V30 4905 H 469.862 -3.04574 3.86646 0
M  V30 4906 N 471.514 -1.37532 -0.769588 0
M  V30 4907 C 472.762 -1.32597 -1.5252 0
M  V30 4908 C 473.083 0.0884294 -1.94799 0
M  V30 4909 O 472.353 1.03289 -1.66458 0
M  V30 4910 H 470.933 -0.487846 -0.565699 0
M  V30 4911 H 473.595 -1.72044 -0.915806 0
M  V30 4912 H 472.691 -1.96643 -2.42359 0
M  V30 4913 N 472.992 0.995999 -1.22138 0
M  V30 4914 C 474.22 1.77066 -1.07029 0
M  V30 4915 C 474.635 1.8495 0.379357 0
M  V30 4916 O 473.992 1.3174 1.26297 0
M  V30 4917 C 474.043 3.20533 -1.67155 0
M  V30 4918 O 473.764 3.13082 -3.06449 0
M  V30 4919 C 475.265 4.14461 -1.5728 0
M  V30 4920 H 472.485 0.556179 -0.375374 0
M  V30 4921 H 475.029 1.25238 -1.61666 0
M  V30 4922 H 473.184 3.6944 -1.16589 0
M  V30 4923 H 473.598 4.03283 -3.35355 0
M  V30 4924 H 475.072 5.1289 -2.04078 0
M  V30 4925 H 475.549 4.36005 -0.528795 0
M  V30 4926 H 476.155 3.71449 -2.07136 0
M  V30 4927 N 474.47 1.03057 1.19235 0
M  V30 4928 C 475.433 0.617418 2.20727 0
M  V30 4929 C 476.433 -0.319856 1.57587 0
M  V30 4930 O 477.623 -0.106633 1.73873 0
M  V30 4931 C 474.755 -0.096296 3.40764 0
M  V30 4932 H 475.948 1.51544 2.58794 0
M  V30 4933 H 473.501 0.821949 1.32942 0
M  V30 4934 H 474.236 -1.00859 3.08217 0
M  V30 4935 H 474.021 0.577217 3.87828 0
M  V30 4936 H 475.511 -0.372219 4.15938 0
M  V30 4937 N 475.948 -1.35272 0.808662 0
M  V30 4938 C 476.911 -2.28082 0.226093 0
M  V30 4939 C 477.911 -1.49673 -0.587762 0
M  V30 4940 O 479.101 -1.69404 -0.405943 0
M  V30 4941 C 476.233 -3.33955 -0.684596 0
M  V30 4942 H 477.426 -2.81116 1.04469 0
M  V30 4943 H 474.979 -1.45162 0.579466 0
M  V30 4944 H 475.714 -2.86111 -1.5268 0
M  V30 4945 H 475.499 -3.91965 -0.102699 0
M  V30 4946 H 476.989 -4.03219 -1.08646 0
M  V30 4947 N 477.426 -0.562348 -1.47226 0
M  V30 4948 C 478.672 -0.0402761 -2.0276 0
M  V30 4949 C 479.005 1.30823 -1.43523 0
M  V30 4950 O 478.28 1.85249 -0.592705 0
M  V30 4951 C 478.563 0.047311 -3.60069 0
M  V30 4952 C 478.416 -1.32865 -4.29729 0
M  V30 4953 C 479.735 0.758182 -4.3352 0
M  V30 4954 H 476.854 -0.0161105 -0.736824 0
M  V30 4955 H 479.496 -0.725628 -1.75598 0
M  V30 4956 H 477.646 0.630986 -3.83342 0
M  V30 4957 H 479.318 -1.95593 -4.17781 0
M  V30 4958 H 477.561 -1.90195 -3.89882 0
M  V30 4959 H 478.232 -1.22004 -5.38349 0
M  V30 4960 H 480.708 0.262546 -4.15271 0
M  V30 4961 H 479.584 0.78844 -5.43208 0
M  V30 4962 H 479.845 1.81537 -4.03109 0
M  V30 4963 N 478.904 1.54736 -0.299062 0
M  V30 4964 C 479.814 2.27127 0.587413 0
M  V30 4965 C 480.83 1.30575 1.15005 0
M  V30 4966 O 482.006 1.63554 1.17525 0
M  V30 4967 C 479.071 2.99645 1.74395 0
M  V30 4968 C 478.132 4.11731 1.21559 0
M  V30 4969 C 477.365 4.80781 2.317 0
M  V30 4970 O 477.588 4.4918 3.51558 0
M  V30 4971 O 476.522 5.68226 1.98501 0
M  V30 4972 H 480.348 3.037 0.000250109 0
M  V30 4973 H 477.933 1.49256 -0.0655919 0
M  V30 4974 H 479.815 3.45138 2.4178 0
M  V30 4975 H 478.49 2.25969 2.31775 0
M  V30 4976 H 477.397 3.70641 0.507514 0
M  V30 4977 H 478.73 4.87379 0.687233 0
M  V30 4978 N 480.382 0.0267497 1.57577 0
M  V30 4979 C 481.631 -0.651736 1.9088 0
M  V30 4980 C 481.944 -1.73427 0.904576 0
M  V30 4981 O 483.15 -2.46923 1.12877 0
M  V30 4982 C 481.606 -1.21048 3.38933 0
M  V30 4983 C 481.214 -0.161362 4.47709 0
M  V30 4984 C 482.958 -1.86562 3.81307 0
M  V30 4985 C 480.865 -0.731611 5.86857 0
M  V30 4986 H 479.795 -0.247198 0.712326 0
M  V30 4987 H 482.446 0.0916641 1.83271 0
M  V30 4988 H 480.828 -2.00542 3.41466 0
M  V30 4989 H 482.002 0.61094 4.56732 0
M  V30 4990 H 480.317 0.394877 4.14523 0
M  V30 4991 H 482.914 -2.30178 4.8262 0
M  V30 4992 H 483.257 -2.70735 3.16241 0
M  V30 4993 H 483.79 -1.13762 3.81186 0
M  V30 4994 H 480.529 0.0719329 6.55461 0
M  V30 4995 H 480.049 -1.47245 5.81445 0
M  V30 4996 H 481.728 -1.22208 6.35354 0
M  V30 4997 N 481.861 -1.55662 -0.24637 0
M  V30 4998 C 483.089 -1.81575 -0.991876 0
M  V30 4999 C 483.504 -0.602545 -1.78927 0
M  V30 5000 O 482.861 0.428795 -1.77391 0
M  V30 5001 C 482.912 -3.05711 -1.92933 0
M  V30 5002 O 482.633 -4.22348 -1.1642 0
M  V30 5003 C 484.134 -3.44428 -2.79078 0
M  V30 5004 H 481.354 -0.604209 -0.291844 0
M  V30 5005 H 483.898 -2.02722 -0.269095 0
M  V30 5006 H 482.053 -2.86612 -2.60638 0
M  V30 5007 H 482.467 -4.92706 -1.79835 0
M  V30 5008 H 483.941 -4.34388 -3.40603 0
M  V30 5009 H 484.418 -2.65037 -3.50217 0
M  V30 5010 H 485.024 -3.65879 -2.16824 0
M  V30 5011 N 483.339 0.512053 -1.4905 0
M  V30 5012 C 484.564 1.2959 -1.6193 0
M  V30 5013 C 484.989 1.85906 -0.286454 0
M  V30 5014 O 484.347 1.65312 0.744426 0
M  V30 5015 C 484.395 2.40987 -2.68249 0
M  V30 5016 O 483.499 3.44531 -2.26654 0
M  V30 5017 H 482.84 0.383053 -0.542371 0
M  V30 5018 H 485.37 0.614231 -1.95162 0
M  V30 5019 H 485.38 2.86913 -2.90078 0
M  V30 5020 H 484.055 1.99361 -3.65004 0
M  V30 5021 H 482.632 3.046 -2.15112 0
M  V30 5022 N 484.817 1.37938 0.762283 0
M  V30 5023 C 486.066 1.32989 1.51647 0
M  V30 5024 C 486.379 -0.0802922 1.95435 0
M  V30 5025 O 487.585 -0.252295 2.70325 0
M  V30 5026 C 486.041 2.33485 2.73885 0
M  V30 5027 C 485.649 3.80079 2.37157 0
M  V30 5028 C 487.393 2.37563 3.51801 0
M  V30 5029 C 485.3 4.72283 3.55954 0
M  V30 5030 H 484.23 0.494301 0.56937 0
M  V30 5031 H 486.881 1.63448 0.834083 0
M  V30 5032 H 485.263 1.96056 3.44061 0
M  V30 5033 H 486.437 4.26398 1.74704 0
M  V30 5034 H 484.752 3.79037 1.72395 0
M  V30 5035 H 487.349 3.0365 4.40114 0
M  V30 5036 H 487.692 1.39199 3.92338 0
M  V30 5037 H 488.225 2.73747 2.8863 0
M  V30 5038 H 484.964 5.7181 3.2049 0
M  V30 5039 H 484.484 4.30663 4.1748 0
M  V30 5040 H 486.163 4.89876 4.22647 0
M  V30 5041 N 486.295 -0.989507 1.22664 0
M  V30 5042 C 487.228 -2.07805 0.942985 0
M  V30 5043 C 488.206 -1.6219 -0.115356 0
M  V30 5044 O 489.39 -1.88492 0.0169565 0
M  V30 5045 C 486.517 -3.361 0.418898 0
M  V30 5046 C 485.563 -4.00643 1.46244 0
M  V30 5047 S 486.396 -4.41059 3.03689 0
M  V30 5048 C 487.552 -5.7252 2.52927 0
M  V30 5049 H 487.785 -2.31547 1.86476 0
M  V30 5050 H 485.318 -1.12446 1.05808 0
M  V30 5051 H 487.276 -4.10315 0.123114 0
M  V30 5052 H 485.937 -3.10383 -0.481818 0
M  V30 5053 H 485.13 -4.93033 1.04569 0
M  V30 5054 H 484.732 -3.32767 1.7071 0
M  V30 5055 H 487.024 -6.49017 1.94379 0
M  V30 5056 H 487.967 -6.19026 3.4382 0
M  V30 5057 H 488.375 -5.30083 1.94094 0
M  V30 5058 N 487.773 -1.03688 -1.18687 0
M  V30 5059 C 488.72 -0.624624 -2.22187 0
M  V30 5060 C 489.69 0.365636 -1.62026 0
M  V30 5061 O 490.875 0.260481 -1.89014 0
M  V30 5062 C 488.015 0.0101738 -3.45099 0
M  V30 5063 C 487.128 -1.02709 -4.19613 0
M  V30 5064 C 486.263 -0.361213 -5.2997 0
M  V30 5065 C 485.302 -1.38384 -5.96252 0
M  V30 5066 N 484.439 -0.743196 -6.98155 0
M  V30 5067 H 489.279 -1.51176 -2.56807 0
M  V30 5068 H 486.816 -0.75636 -1.26165 0
M  V30 5069 H 488.774 0.395528 -4.15321 0
M  V30 5070 H 487.404 0.860848 -3.1111 0
M  V30 5071 H 486.456 -1.53043 -3.48256 0
M  V30 5072 H 487.768 -1.80398 -4.65036 0
M  V30 5073 H 486.922 0.0785537 -6.06649 0
M  V30 5074 H 485.661 0.447799 -4.8564 0
M  V30 5075 H 484.666 -1.83378 -5.18317 0
M  V30 5076 H 485.891 -2.19448 -6.42666 0
M  V30 5077 H 483.837 0.0455789 -6.55984 0
M  V30 5078 H 483.754 -1.45784 -7.41811 0
M  V30 5079 H 485.022 -0.327698 -7.78811 0
M  V30 5080 N 489.251 1.34841 -0.815825 0
M  V30 5081 C 490.667 1.51543 -0.500697 0
M  V30 5082 C 490.867 1.76261 0.976444 0
M  V30 5083 O 489.923 1.8094 1.76117 0
M  V30 5084 C 491.236 2.68487 -1.35407 0
M  V30 5085 C 492.784 2.82368 -1.35046 0
M  V30 5086 C 493.259 4.02347 -2.18816 0
M  V30 5087 N 494.75 4.09542 -2.16402 0
M  V30 5088 C 495.485 5.01517 -2.77971 0
M  V30 5089 N 494.981 5.98763 -3.48503 0
M  V30 5090 N 496.774 4.94334 -2.67563 0
M  V30 5091 H 488.925 1.17055 -1.77234 0
M  V30 5092 H 491.188 0.573481 -0.754866 0
M  V30 5093 H 490.894 2.56829 -2.40274 0
M  V30 5094 H 490.768 3.63321 -1.01377 0
M  V30 5095 H 493.155 2.93471 -0.309604 0
M  V30 5096 H 493.236 1.88363 -1.73069 0
M  V30 5097 H 492.88 3.92004 -3.22948 0
M  V30 5098 H 492.81 4.95551 -1.78148 0
M  V30 5099 H 495.301 3.39932 -1.65091 0
M  V30 5100 H 495.614 6.6556 -3.92747 0
M  V30 5101 H 493.959 5.98909 -3.52609 0
M  V30 5102 H 497.15 4.1732 -2.12041 0
M  V30 5103 H 497.323 5.6582 -3.15834 0
M  V30 5104 N 490.729 0.570148 1.46925 0
M  V30 5105 C 491.677 -0.183181 2.31878 0
M  V30 5106 C 492.671 -0.896721 1.43719 0
M  V30 5107 O 493.877 -0.816536 1.60414 0
M  V30 5108 H 490.252 -0.077944 0.74795 0
M  V30 5109 H 492.223 0.552312 2.93244 0
M  V30 5110 C 490.972 -1.19172 3.2664 0
M  V30 5111 H 490.295 -0.652088 3.94446 0
M  V30 5112 H 491.735 -1.68946 3.88887 0
M  V30 5113 C 490.194 -2.24627 2.51086 0
M  V30 5114 O 490.724 -3.31773 2.26472 0
M  V30 5115 N 488.93 -1.98898 2.11867 0
M  V30 5116 H 488.477 -1.11777 2.32086 0
M  V30 5117 H 488.435 -2.6967 1.61634 0
M  V30 5118 N 492.207 -1.54576 0.307264 0
M  V30 5119 C 493.432 -2.05139 -0.305379 0
M  V30 5120 C 493.857 -1.18278 -1.46259 0
M  V30 5121 O 493.215 -0.188243 -1.8032 0
M  V30 5122 C 493.263 -3.53066 -0.733283 0
M  V30 5123 O 492.367 -3.69206 -1.83741 0
M  V30 5124 H 491.708 -0.661444 -0.0582105 0
M  V30 5125 H 494.238 -1.99569 0.450931 0
M  V30 5126 H 494.248 -3.95034 -1.02039 0
M  V30 5127 H 492.923 -4.15746 0.113198 0
M  V30 5128 H 491.5 -3.39143 -1.55037 0
M  V30 5129 N 493.685 -0.035106 -1.57561 0
M  V30 5130 C 494.925 0.646316 -1.93913 0
M  V30 5131 C 495.289 1.68947 -0.912185 0
M  V30 5132 O 496.49 2.42381 -1.1621 0
M  V30 5133 C 494.761 1.24136 -3.35149 0
M  V30 5134 S 496.32 1.94302 -3.93436 0
M  V30 5135 H 493.138 0.212642 -0.678457 0
M  V30 5136 H 495.74 -0.100203 -1.95243 0
M  V30 5137 H 494.444 0.46979 -4.07702 0
M  V30 5138 H 493.975 2.02505 -3.37276 0
M  V30 5139 H 495.99 3.22205 -3.77357 0
M  V30 5140 N 495.163 1.55791 0.238111 0
M  V30 5141 C 496.411 1.77681 0.963001 0
M  V30 5142 C 496.732 0.600674 1.85518 0
M  V30 5143 O 496.002 -0.383182 1.92116 0
M  V30 5144 H 494.582 0.655315 0.358568 0
M  V30 5145 H 497.244 1.93239 0.253945 0
M  V30 5146 H 496.34 2.69177 1.57956 0
M  V30 5147 N 496.642 -0.504142 1.49319 0
M  V30 5148 C 497.589 -1.60603 1.65756 0
M  V30 5149 C 498.559 -1.58425 0.499082 0
M  V30 5150 O 499.744 -1.76459 0.725728 0
M  V30 5151 C 496.884 -2.98764 1.72726 0
M  V30 5152 C 495.997 -3.10982 2.99857 0
M  V30 5153 C 495.132 -4.39857 2.97824 0
M  V30 5154 C 494.171 -4.45697 4.19548 0
M  V30 5155 N 493.308 -5.65995 4.15444 0
M  V30 5156 H 498.148 -1.45895 2.59843 0
M  V30 5157 H 495.685 -0.709891 1.28837 0
M  V30 5158 H 497.643 -3.78839 1.74747 0
M  V30 5159 H 496.273 -3.12183 0.821075 0
M  V30 5160 H 495.325 -2.23991 3.07461 0
M  V30 5161 H 496.637 -3.11157 3.89849 0
M  V30 5162 H 495.791 -5.2825 2.98391 0
M  V30 5163 H 494.53 -4.42242 2.05604 0
M  V30 5164 H 493.535 -3.55707 4.19229 0
M  V30 5165 H 494.76 -4.4503 5.12957 0
M  V30 5166 H 492.706 -5.69229 3.26059 0
M  V30 5167 H 492.623 -5.67773 4.99169 0
M  V30 5168 H 493.891 -6.56604 4.20109 0
M  V30 5169 N 498.12 -1.38341 -0.754957 0
M  V30 5170 C 499.083 -1.35262 -1.85032 0
M  V30 5171 C 500.083 -0.253393 -1.58791 0
M  V30 5172 O 501.273 -0.510205 -1.66561 0
M  V30 5173 C 498.405 -1.10544 -3.22479 0
M  V30 5174 H 499.598 -2.32712 -1.8917 0
M  V30 5175 H 497.151 -1.23614 -0.956515 0
M  V30 5176 H 497.886 -0.136952 -3.24011 0
M  V30 5177 H 497.671 -1.90127 -3.4292 0
M  V30 5178 H 499.161 -1.11082 -4.02555 0
M  V30 5179 N 499.598 0.982988 -1.23187 0
M  V30 5180 C 500.528 2.09301 -1.03515 0
M  V30 5181 C 501.509 1.70035 0.0471136 0
M  V30 5182 O 502.694 1.93847 -0.117029 0
M  V30 5183 C 499.824 3.4167 -0.622791 0
M  V30 5184 C 498.778 3.94828 -1.65211 0
M  V30 5185 C 498.104 5.23362 -1.09527 0
M  V30 5186 C 499.404 4.2439 -3.04451 0
M  V30 5187 H 501.098 2.26016 -1.96359 0
M  V30 5188 H 498.644 1.08611 -0.945501 0
M  V30 5189 H 500.597 4.18746 -0.472233 0
M  V30 5190 H 499.321 3.24811 0.341329 0
M  V30 5191 H 497.98 3.19895 -1.79061 0
M  V30 5192 H 497.628 5.02852 -0.122211 0
M  V30 5193 H 497.328 5.59895 -1.783 0
M  V30 5194 H 498.852 6.03062 -0.956511 0
M  V30 5195 H 500.266 4.92225 -2.93917 0
M  V30 5196 H 498.663 4.72118 -3.70438 0
M  V30 5197 H 499.733 3.31765 -3.53638 0
M  V30 5198 N 501.076 1.04316 1.18135 0
M  V30 5199 C 502.353 0.662166 1.84051 0
M  V30 5200 C 502.733 -0.858169 1.9287 0
M  V30 5201 O 502.081 -1.76062 1.45652 0
M  V30 5202 C 502.291 1.3409 3.22212 0
M  V30 5203 C 503.639 1.4733 3.9822 0
M  V30 5204 O 504.663 1.29921 3.31661 0
M  V30 5205 O 503.522 1.75722 5.17479 0
M  V30 5206 H 500.616 0.232005 0.79379 0
M  V30 5207 H 503.162 1.1422 1.25506 0
M  V30 5208 H 501.934 2.37853 3.10711 0
M  V30 5209 H 501.557 0.849649 3.88416 0
M  V30 5210 N 502.554 -1.34406 0.822964 0
M  V30 5211 C 503.803 -1.97542 0.407458 0
M  V30 5212 C 504.116 -1.65973 -1.035 0
M  V30 5213 O 505.322 -2.22598 -1.55442 0
M  V30 5214 C 503.778 -3.53463 0.677623 0
M  V30 5215 C 503.386 -3.93925 2.1337 0
M  V30 5216 C 505.13 -4.23229 0.328284 0
M  V30 5217 C 503.037 -5.42759 2.34876 0
M  V30 5218 H 501.967 -0.739207 0.148623 0
M  V30 5219 H 504.618 -1.53248 1.00932 0
M  V30 5220 H 503 -3.96 0.00558965 0
M  V30 5221 H 504.174 -3.62494 2.8449 0
M  V30 5222 H 502.489 -3.37097 2.44448 0
M  V30 5223 H 505.086 -5.32659 0.466794 0
M  V30 5224 H 505.429 -4.09899 -0.727224 0
M  V30 5225 H 505.962 -3.86169 0.954896 0
M  V30 5226 H 502.701 -5.61075 3.38932 0
M  V30 5227 H 502.221 -5.75704 1.68299 0
M  V30 5228 H 503.9 -6.0944 2.17236 0
M  V30 5229 N 504.032 -0.577932 -1.46621 0
M  V30 5230 C 504.995 0.147805 -2.28723 0
M  V30 5231 C 505.995 0.823325 -1.38123 0
M  V30 5232 O 507.185 0.676011 -1.60548 0
M  V30 5233 C 504.317 1.21853 -3.18378 0
M  V30 5234 H 505.51 -0.573654 -2.94362 0
M  V30 5235 H 503.063 -0.335703 -1.52652 0
M  V30 5236 H 503.798 1.97173 -2.57475 0
M  V30 5237 H 503.583 0.738714 -3.85078 0
M  V30 5238 H 505.073 1.72768 -3.80186 0
M  V30 5239 N 505.51 1.54411 -0.315457 0
M  V30 5240 C 506.926 1.59556 0.037464 0
M  V30 5241 C 507.126 1.33217 1.5118 0
M  V30 5242 O 506.182 1.11264 2.26664 0
M  V30 5243 C 507.495 2.98372 -0.373477 0
M  V30 5244 C 509.043 3.11324 -0.323452 0
M  V30 5245 C 509.518 4.52472 -0.709433 0
M  V30 5246 N 511.009 4.58437 -0.662524 0
M  V30 5247 C 511.744 5.65751 -0.933474 0
M  V30 5248 N 511.24 6.81039 -1.27114 0
M  V30 5249 N 513.033 5.55489 -0.859573 0
M  V30 5250 H 505.184 1.6979 -1.27614 0
M  V30 5251 H 507.447 0.793732 -0.518356 0
M  V30 5252 H 507.153 3.22618 -1.40037 0
M  V30 5253 H 507.027 3.76264 0.265615 0
M  V30 5254 H 509.414 2.86818 0.694223 0
M  V30 5255 H 509.495 2.35555 -0.997367 0
M  V30 5256 H 509.139 4.7771 -1.72498 0
M  V30 5257 H 509.069 5.26598 -0.0132923 0
M  V30 5258 H 511.56 3.75636 -0.413065 0
M  V30 5259 H 511.873 7.58816 -1.46348 0
M  V30 5260 H 510.218 6.82555 -1.30932 0
M  V30 5261 H 513.409 4.64299 -0.595324 0
M  V30 5262 H 513.582 6.39036 -1.0741 0
M  V30 5263 N 506.988 0.0434614 1.5754 0
M  V30 5264 C 507.918 -0.931651 2.14109 0
M  V30 5265 C 508.899 -1.32971 1.06079 0
M  V30 5266 O 510.084 -1.40579 1.33982 0
M  V30 5267 C 507.214 -2.20914 2.67982 0
M  V30 5268 C 506.168 -1.95139 3.80926 0
M  V30 5269 C 505.494 -3.29276 4.21285 0
M  V30 5270 C 506.794 -1.27913 5.06395 0
M  V30 5271 H 508.488 -0.460497 2.95837 0
M  V30 5272 H 506.034 -0.220058 1.42309 0
M  V30 5273 H 507.987 -2.89522 3.06194 0
M  V30 5274 H 506.711 -2.70221 1.83434 0
M  V30 5275 H 505.37 -1.28945 3.43175 0
M  V30 5276 H 505.018 -3.76369 3.33699 0
M  V30 5277 H 504.718 -3.12831 4.97404 0
M  V30 5278 H 506.242 -3.99129 4.62091 0
M  V30 5279 H 507.656 -1.86544 5.42102 0
M  V30 5280 H 506.053 -1.2182 5.87605 0
M  V30 5281 H 507.123 -0.254066 4.84234 0
M  V30 5282 N 508.466 -1.55915 -0.229846 0
M  V30 5283 C 509.429 -1.90914 -1.26824 0
M  V30 5284 C 510.429 -0.786999 -1.40225 0
M  V30 5285 O 511.619 -1.05484 -1.38632 0
M  V30 5286 C 508.751 -2.15264 -2.64337 0
M  V30 5287 H 509.944 -2.8378 -0.969998 0
M  V30 5288 H 507.497 -1.49069 -0.4699 0
M  V30 5289 H 508.232 -1.24923 -2.99274 0
M  V30 5290 H 508.017 -2.97005 -2.55989 0
M  V30 5291 H 509.507 -2.43467 -3.39284 0
M  V30 5292 N 509.944 0.496216 -1.49584 0
M  V30 5293 C 511.36 0.827814 -1.36453 0
M  V30 5294 C 511.56 1.97464 -0.401285 0
M  V30 5295 O 510.616 2.51958 0.165296 0
M  V30 5296 C 511.929 1.16352 -2.77277 0
M  V30 5297 C 513.477 1.27145 -2.86013 0
M  V30 5298 C 513.952 1.64042 -4.27615 0
M  V30 5299 N 515.443 1.71082 -4.30448 0
M  V30 5300 C 516.178 2.01085 -5.36984 0
M  V30 5301 N 515.674 2.2928 -6.5376 0
M  V30 5302 N 517.467 2.02376 -5.24405 0
M  V30 5303 H 509.618 -0.259947 -2.10803 0
M  V30 5304 H 511.881 -0.0537163 -0.946477 0
M  V30 5305 H 511.587 0.394153 -3.49484 0
M  V30 5306 H 511.461 2.10582 -3.12946 0
M  V30 5307 H 513.848 2.03152 -2.1404 0
M  V30 5308 H 513.929 0.309542 -2.5392 0
M  V30 5309 H 513.573 0.88583 -5.00115 0
M  V30 5310 H 513.503 2.6134 -4.57175 0
M  V30 5311 H 515.994 1.51434 -3.46232 0
M  V30 5312 H 516.307 2.51376 -7.30774 0
M  V30 5313 H 514.652 2.26726 -6.56978 0
M  V30 5314 H 517.843 1.79829 -4.32179 0
M  V30 5315 H 518.016 2.25425 -6.07526 0
M  V30 5316 N 511.423 1.38739 0.74761 0
M  V30 5317 C 512.7 1.25791 1.49786 0
M  V30 5318 C 513.08 -0.138075 2.10648 0
M  V30 5319 O 512.428 -1.14815 1.9756 0
M  V30 5320 C 512.638 2.37265 2.55942 0
M  V30 5321 C 513.986 2.75978 3.22679 0
M  V30 5322 O 515.01 2.36621 2.6625 0
M  V30 5323 O 513.869 3.43867 4.24756 0
M  V30 5324 H 510.963 0.492251 0.664543 0
M  V30 5325 H 513.509 1.50582 0.782511 0
M  V30 5326 H 512.281 3.30644 2.0926 0
M  V30 5327 H 511.904 2.14071 3.35051 0
M  V30 5328 N 512.901 -0.976442 1.23707 0
M  V30 5329 C 513.834 -2.06793 0.964973 0
M  V30 5330 C 514.812 -1.62304 -0.0981472 0
M  V30 5331 O 515.996 -1.88464 0.0369477 0
M  V30 5332 C 513.123 -3.35636 0.454522 0
M  V30 5333 C 512.169 -3.99069 1.50485 0
M  V30 5334 S 513.002 -4.37814 3.0835 0
M  V30 5335 C 514.158 -5.69805 2.58985 0
M  V30 5336 H 514.391 -2.29556 1.88922 0
M  V30 5337 H 511.924 -1.11317 1.06995 0
M  V30 5338 H 513.882 -4.10162 0.166626 0
M  V30 5339 H 512.543 -3.10876 -0.448871 0
M  V30 5340 H 511.736 -4.91896 1.09792 0
M  V30 5341 H 511.338 -3.30938 1.7423 0
M  V30 5342 H 513.63 -6.46919 2.01252 0
M  V30 5343 H 514.573 -6.15345 3.50366 0
M  V30 5344 H 514.981 -5.27994 1.99705 0
M  V30 5345 N 514.379 -1.04941 -1.1758 0
M  V30 5346 C 515.309 -0.669172 -2.23706 0
M  V30 5347 C 516.29 0.331835 -1.66832 0
M  V30 5348 O 517.475 0.209988 -1.93061 0
M  V30 5349 C 514.605 -0.0404889 -3.47276 0
M  V30 5350 C 513.559 -0.965983 -4.16957 0
M  V30 5351 C 512.885 -0.201312 -5.34321 0
M  V30 5352 C 514.185 -2.28902 -4.69469 0
M  V30 5353 H 515.879 -1.55639 -2.55767 0
M  V30 5354 H 513.425 -0.749793 -1.22939 0
M  V30 5355 H 515.378 0.237298 -4.20731 0
M  V30 5356 H 514.102 0.881658 -3.14475 0
M  V30 5357 H 512.761 -1.22829 -3.45411 0
M  V30 5358 H 512.409 0.723519 -4.97769 0
M  V30 5359 H 512.109 -0.817968 -5.81879 0
M  V30 5360 H 513.633 0.0692499 -6.10561 0
M  V30 5361 H 515.047 -2.07132 -5.34574 0
M  V30 5362 H 513.444 -2.85942 -5.27596 0
M  V30 5363 H 514.514 -2.92937 -3.86414 0
M  V30 5364 N 515.857 1.33968 -0.830081 0
M  V30 5365 C 517.105 1.97672 -0.420734 0
M  V30 5366 C 517.426 1.66111 1.02138 0
M  V30 5367 O 516.696 0.955503 1.71017 0
M  V30 5368 H 515.276 0.73125 -0.152587 0
M  V30 5369 H 517.938 1.63483 -1.0611 0
M  V30 5370 H 517.034 3.07294 -0.545588 0
M  V30 5371 N 517.335 0.585699 1.46312 0
M  V30 5372 C 518.583 0.072278 2.01971 0
M  V30 5373 C 518.904 -1.29345 1.45928 0
M  V30 5374 O 518.174 -1.84973 0.645109 0
M  V30 5375 H 516.754 0.023729 0.746623 0
M  V30 5376 H 519.416 0.762155 1.7938 0
M  V30 5377 H 518.512 0.00552767 3.121 0
M  V30 5378 N 518.813 -1.54241 0.323641 0
M  V30 5379 C 519.761 -2.25813 -0.557804 0
M  V30 5380 C 520.755 -1.27225 -1.11849 0
M  V30 5381 O 521.961 -1.45001 -1.06652 0
M  V30 5382 H 518.336 -0.72532 -0.198532 0
M  V30 5383 H 520.307 -2.98322 0.0681112 0
M  V30 5384 C 519.056 -3.02913 -1.70701 0
M  V30 5385 H 518.379 -3.78593 -1.28482 0
M  V30 5386 H 519.819 -3.56238 -2.29935 0
M  V30 5387 C 518.278 -2.11217 -2.62467 0
M  V30 5388 O 518.808 -1.69508 -3.64184 0
M  V30 5389 N 517.014 -1.76704 -2.30703 0
M  V30 5390 H 516.561 -2.1082 -1.48029 0
M  V30 5391 H 516.519 -1.15631 -2.92364 0
M  V30 5392 N 520.291 -0.0518155 -1.57515 0
M  V30 5393 C 521.539 0.620595 -1.92336 0
M  V30 5394 C 521.86 1.71345 -0.930907 0
M  V30 5395 O 521.13 1.95885 0.0241341 0
M  V30 5396 H 519.71 0.232226 -0.709986 0
M  V30 5397 H 522.372 -0.104969 -1.94617 0
M  V30 5398 H 521.468 1.05879 -2.93592 0
M  V30 5399 N 521.769 1.56035 0.221574 0
M  V30 5400 C 523.018 1.78245 0.944016 0
M  V30 5401 C 523.331 0.620371 1.85501 0
M  V30 5402 O 524.537 0.726103 2.6161 0
M  V30 5403 C 522.993 3.15659 1.7288 0
M  V30 5404 C 522.601 4.39591 0.863942 0
M  V30 5405 C 524.345 3.47195 2.44246 0
M  V30 5406 C 522.252 5.6803 1.64607 0
M  V30 5407 H 521.182 0.664547 0.356222 0
M  V30 5408 H 523.833 1.8243 0.197904 0
M  V30 5409 H 522.215 3.0565 2.51781 0
M  V30 5410 H 523.389 4.60655 0.115464 0
M  V30 5411 H 521.704 4.15572 0.262407 0
M  V30 5412 H 524.301 4.40381 3.03263 0
M  V30 5413 H 524.644 2.69693 3.1713 0
M  V30 5414 H 525.177 3.58533 1.72334 0
M  V30 5415 H 521.916 6.48425 0.960507 0
M  V30 5416 H 521.436 5.51027 2.36917 0
M  V30 5417 H 523.115 6.08203 2.20675 0
M  V30 5418 N 523.247 -0.488276 1.49845 0
M  V30 5419 C 524.472 -1.26997 1.63971 0
M  V30 5420 C 524.897 -1.85427 0.315994 0
M  V30 5421 O 524.255 -1.66475 -0.718032 0
M  V30 5422 C 524.303 -2.36689 2.72049 0
M  V30 5423 O 523.407 -3.40882 2.32107 0
M  V30 5424 H 522.748 -0.374376 0.548396 0
M  V30 5425 H 525.278 -0.583104 1.96115 0
M  V30 5426 H 525.288 -2.82262 2.94605 0
M  V30 5427 H 523.963 -1.93529 3.68129 0
M  V30 5428 H 522.54 -3.01139 2.19931 0
M  V30 5429 N 524.725 -1.39134 -0.740242 0
M  V30 5430 C 526.002 -1.26584 -1.49117 0
M  V30 5431 C 526.382 0.126902 -2.10718 0
M  V30 5432 O 525.73 1.13765 -1.98166 0
M  V30 5433 C 525.94 -2.38619 -2.54681 0
M  V30 5434 C 527.288 -2.77685 -3.21211 0
M  V30 5435 O 528.312 -2.38029 -2.64991 0
M  V30 5436 O 527.171 -3.46115 -4.22926 0
M  V30 5437 H 524.265 -0.495769 -0.661923 0
M  V30 5438 H 526.811 -1.50995 -0.774514 0
M  V30 5439 H 525.583 -3.3175 -2.07504 0
M  V30 5440 H 525.206 -2.15845 -3.33911 0
M  V30 5441 N 526.204 0.969867 -1.24223 0
M  V30 5442 C 527.114 2.09806 -1.0497 0
M  V30 5443 C 528.13 1.73998 0.00886455 0
M  V30 5444 O 529.306 2.00513 -0.188848 0
M  V30 5445 C 526.371 3.40467 -0.654452 0
M  V30 5446 C 525.432 3.90236 -1.78926 0
M  V30 5447 C 524.665 5.14662 -1.41277 0
M  V30 5448 O 524.888 5.69602 -0.301632 0
M  V30 5449 O 523.822 5.58761 -2.23763 0
M  V30 5450 H 527.648 2.28942 -1.99548 0
M  V30 5451 H 525.233 1.08197 -1.03023 0
M  V30 5452 H 527.115 4.19039 -0.445452 0
M  V30 5453 H 525.79 3.22636 0.262216 0
M  V30 5454 H 524.697 3.12735 -2.05299 0
M  V30 5455 H 526.03 4.1254 -2.68462 0
M  V30 5456 N 527.682 1.05563 1.17022 0
M  V30 5457 C 528.929 0.767937 1.87374 0
M  V30 5458 C 529.257 -0.705224 1.81265 0
M  V30 5459 O 528.512 -1.5318 1.21796 0
M  V30 5460 C 528.811 1.19849 3.36706 0
M  V30 5461 C 528.477 2.6745 3.63017 0
M  V30 5462 C 527.139 3.0777 3.69907 0
M  V30 5463 C 529.491 3.62811 3.74189 0
M  V30 5464 C 526.819 4.42307 3.85463 0
M  V30 5465 C 529.171 4.97087 3.91264 0
M  V30 5466 C 527.835 5.37055 3.96394 0
M  V30 5467 H 527.105 0.281008 0.68565 0
M  V30 5468 H 529.752 1.32339 1.38415 0
M  V30 5469 H 528.057 0.562096 3.87747 0
M  V30 5470 H 529.754 0.953038 3.8951 0
M  V30 5471 H 526.344 2.35228 3.58282 0
M  V30 5472 H 530.528 3.32798 3.68183 0
M  V30 5473 H 525.784 4.72769 3.87684 0
M  V30 5474 H 529.958 5.70869 3.9885 0
M  V30 5475 H 527.585 6.41308 4.082 0
M  V30 5476 N 529.16 -1.33526 0.837174 0
M  V30 5477 C 530.408 -1.97446 0.431211 0
M  V30 5478 C 530.729 -1.6665 -1.01255 0
M  V30 5479 O 529.999 -0.964559 -1.70508 0
M  V30 5480 H 528.579 -0.73043 0.156463 0
M  V30 5481 H 531.241 -1.62918 1.06976 0
M  V30 5482 H 530.337 -3.07001 0.561877 0
M  V30 5483 N 530.638 -0.59345 -1.46 0
M  V30 5484 C 531.884 -0.0832754 -2.02629 0
M  V30 5485 C 532.217 1.27749 -1.46266 0
M  V30 5486 O 531.492 1.8395 -0.631866 0
M  V30 5487 C 531.775 -0.0290756 -3.60088 0
M  V30 5488 C 531.628 -1.41951 -4.26814 0
M  V30 5489 C 532.947 0.666055 -4.35031 0
M  V30 5490 H 530.066 -0.031736 -0.736316 0
M  V30 5491 H 532.708 -0.762711 -1.74019 0
M  V30 5492 H 530.858 0.549532 -3.84594 0
M  V30 5493 H 532.53 -2.04411 -4.13538 0
M  V30 5494 H 530.773 -1.98422 -3.8576 0
M  V30 5495 H 531.444 -1.33395 -5.3564 0
M  V30 5496 H 533.92 0.174401 -4.15734 0
M  V30 5497 H 532.796 0.673041 -5.44758 0
M  V30 5498 H 533.057 1.72946 -4.06869 0
M  V30 5499 N 532.116 1.54067 -0.331816 0
M  V30 5500 C 533.079 2.23275 0.517768 0
M  V30 5501 C 534.079 1.22897 1.03697 0
M  V30 5502 O 535.269 1.47419 0.928084 0
M  V30 5503 C 532.401 2.94326 1.72004 0
M  V30 5504 H 533.594 2.99773 -0.0873507 0
M  V30 5505 H 531.147 1.56079 -0.0830042 0
M  V30 5506 H 531.882 2.21986 2.36417 0
M  V30 5507 H 531.667 3.67941 1.35507 0
M  V30 5508 H 533.157 3.47031 2.32291 0
M  V30 5509 N 533.594 0.0601682 1.57485 0
M  V30 5510 C 535.01 -0.296422 1.56823 0
M  V30 5511 C 535.21 -1.70831 1.0686 0
M  V30 5512 O 534.266 -2.4174 0.729245 0
M  V30 5513 C 535.579 -0.116681 3.00474 0
M  V30 5514 C 537.127 -0.187103 3.1244 0
M  V30 5515 C 537.602 -0.035783 4.57986 0
M  V30 5516 N 539.093 -0.0917676 4.63109 0
M  V30 5517 C 539.828 0.00107251 5.734 0
M  V30 5518 N 539.324 0.146773 6.92645 0
M  V30 5519 N 541.117 -0.0551577 5.62073 0
M  V30 5520 H 533.268 0.983055 1.88281 0
M  V30 5521 H 535.531 0.382386 0.867459 0
M  V30 5522 H 535.237 0.85712 3.41096 0
M  V30 5523 H 535.111 -0.873929 3.66936 0
M  V30 5524 H 537.498 -1.15138 2.71712 0
M  V30 5525 H 537.579 0.601052 2.48638 0
M  V30 5526 H 537.223 0.925212 4.99402 0
M  V30 5527 H 537.153 -0.843196 5.19806 0
M  V30 5528 H 539.644 -0.203261 3.77353 0
M  V30 5529 H 539.957 0.210076 7.72514 0
M  V30 5530 H 538.302 0.181979 6.94762 0
M  V30 5531 H 541.493 -0.167605 4.678 0
M  V30 5532 H 541.666 0.020652 6.47997 0
M  V30 5533 N 535.072 -1.5615 -0.213296 0
M  V30 5534 C 536.022 -1.89485 -1.26804 0
M  V30 5535 C 537.006 -0.758713 -1.41889 0
M  V30 5536 O 538.198 -1.02127 -1.44565 0
M  V30 5537 C 535.327 -2.22219 -2.61675 0
M  V30 5538 C 534.413 -3.42245 -2.50458 0
M  V30 5539 N 534.804 -4.60645 -2.089 0
M  V30 5540 C 533.102 -3.46023 -2.81397 0
M  V30 5541 C 533.803 -5.42805 -2.09135 0
M  V30 5542 N 532.779 -4.82732 -2.49941 0
M  V30 5543 H 536.581 -2.78537 -0.937771 0
M  V30 5544 H 534.095 -1.56826 -0.421824 0
M  V30 5545 H 536.092 -2.44278 -3.37837 0
M  V30 5546 H 534.752 -1.34484 -2.95541 0
M  V30 5547 H 535.763 -4.85651 -1.79899 0
M  V30 5548 H 532.44 -2.68654 -3.1958 0
M  V30 5549 H 533.83 -6.47601 -1.79059 0
M  V30 5550 N 536.55 0.480323 -1.50102 0
M  V30 5551 C 537.48 1.58769 -1.71215 0
M  V30 5552 C 538.461 1.60583 -0.560997 0
M  V30 5553 O 539.646 1.76996 -0.799127 0
M  V30 5554 C 536.776 2.97148 -1.79778 0
M  V30 5555 C 535.73 3.10201 -2.94888 0
M  V30 5556 C 535.056 4.50137 -2.88584 0
M  V30 5557 C 536.356 2.88283 -4.35534 0
M  V30 5558 H 538.05 1.41354 -2.6393 0
M  V30 5559 H 535.596 0.678591 -1.27008 0
M  V30 5560 H 537.549 3.74536 -1.93133 0
M  V30 5561 H 536.273 3.15699 -0.836772 0
M  V30 5562 H 534.932 2.35244 -2.81169 0
M  V30 5563 H 534.58 4.65593 -1.90349 0
M  V30 5564 H 534.28 4.59808 -3.65856 0
M  V30 5565 H 535.804 5.29558 -3.03976 0
M  V30 5566 H 537.218 3.55427 -4.49827 0
M  V30 5567 H 535.615 3.09408 -5.14186 0
M  V30 5568 H 536.685 1.84219 -4.48544 0
M  V30 5569 N 538.028 1.39524 0.732853 0
M  V30 5570 C 539.274 1.37068 1.49467 0
M  V30 5571 C 539.607 -0.0327166 1.94172 0
M  V30 5572 O 538.882 -0.998071 1.66939 0
M  V30 5573 C 539.165 2.34494 2.73285 0
M  V30 5574 C 539.018 3.83784 2.34585 0
M  V30 5575 C 540.337 2.29717 3.75391 0
M  V30 5576 H 537.456 0.499206 0.542183 0
M  V30 5577 H 540.098 1.70532 0.837783 0
M  V30 5578 H 538.248 2.06087 3.29333 0
M  V30 5579 H 539.92 4.22949 1.84151 0
M  V30 5580 H 538.163 4.00455 1.66787 0
M  V30 5581 H 538.834 4.47444 3.23262 0
M  V30 5582 H 541.31 2.54839 3.28932 0
M  V30 5583 H 540.186 2.99962 4.59689 0
M  V30 5584 H 540.447 1.30291 4.22465 0
M  V30 5585 N 539.506 -0.963266 1.24736 0
M  V30 5586 C 540.454 -2.07985 1.04139 0
M  V30 5587 C 541.448 -1.69381 -0.0250556 0
M  V30 5588 O 542.654 -1.79531 0.129863 0
M  V30 5589 H 539.029 -0.680627 0.319768 0
M  V30 5590 H 541 -2.22517 1.98818 0
M  V30 5591 C 539.749 -3.4123 0.667615 0
M  V30 5592 H 539.072 -3.71397 1.48 0
M  V30 5593 H 540.512 -4.20244 0.563136 0
M  V30 5594 C 538.971 -3.3104 -0.625647 0
M  V30 5595 O 539.501 -3.65334 -1.67016 0
M  V30 5596 N 537.707 -2.84168 -0.608033 0
M  V30 5597 H 537.254 -2.56458 0.242323 0
M  V30 5598 H 537.212 -2.77732 -1.47352 0
M  V30 5599 N 540.985 -1.06182 -1.16461 0
M  V30 5600 C 541.915 -0.692861 -2.22984 0
M  V30 5601 C 542.896 0.314122 -1.67174 0
M  V30 5602 O 544.081 0.189499 -1.93273 0
M  V30 5603 C 541.211 -0.07732 -3.47214 0
M  V30 5604 C 540.165 -1.01015 -4.15909 0
M  V30 5605 C 539.491 -0.257973 -5.34077 0
M  V30 5606 C 540.791 -2.33868 -4.67015 0
M  V30 5607 H 542.485 -1.58343 -2.54102 0
M  V30 5608 H 540.031 -0.76279 -1.22137 0
M  V30 5609 H 541.984 0.19266 -4.20959 0
M  V30 5610 H 540.708 0.848254 -3.15392 0
M  V30 5611 H 539.367 -1.26486 -3.44088 0
M  V30 5612 H 539.015 0.670684 -4.98509 0
M  V30 5613 H 538.715 -0.879638 -5.80979 0
M  V30 5614 H 540.239 0.00448788 -6.106 0
M  V30 5615 H 541.653 -2.1279 -5.32347 0
M  V30 5616 H 540.05 -2.91522 -5.24533 0
M  V30 5617 H 541.12 -2.97019 -3.83286 0
M  V30 5618 N 542.463 1.3308 -0.844243 0
M  V30 5619 C 543.373 2.32876 -0.283922 0
M  V30 5620 C 544.389 1.63589 0.592846 0
M  V30 5621 O 545.565 1.95205 0.495693 0
M  V30 5622 C 542.63 3.42667 0.527283 0
M  V30 5623 C 541.691 4.27664 -0.374394 0
M  V30 5624 C 540.924 5.32212 0.39819 0
M  V30 5625 O 541.147 5.46635 1.62932 0
M  V30 5626 O 540.081 6.01458 -0.2306 0
M  V30 5627 H 543.907 2.82671 -1.11045 0
M  V30 5628 H 541.492 1.36518 -0.606903 0
M  V30 5629 H 543.374 4.09652 0.988078 0
M  V30 5630 H 542.049 2.95079 1.33078 0
M  V30 5631 H 540.956 3.63526 -0.883144 0
M  V30 5632 H 542.289 4.78749 -1.1428 0
M  V30 5633 N 543.941 0.601185 1.45683 0
M  V30 5634 C 545.187 0.0940202 2.02582 0
M  V30 5635 C 545.52 -1.26972 1.46941 0
M  V30 5636 O 544.795 -1.83613 0.641612 0
M  V30 5637 C 545.078 0.0481715 3.60068 0
M  V30 5638 C 544.931 1.44212 4.26055 0
M  V30 5639 C 546.25 -0.642975 4.35378 0
M  V30 5640 H 543.369 0.0356404 0.736138 0
M  V30 5641 H 546.011 0.771929 1.73612 0
M  V30 5642 H 544.161 -0.529128 3.8488 0
M  V30 5643 H 545.833 2.06601 4.12449 0
M  V30 5644 H 544.076 2.00465 3.84703 0
M  V30 5645 H 544.747 1.36234 5.34925 0
M  V30 5646 H 547.223 -0.152351 4.15821 0
M  V30 5647 H 546.099 -0.644141 5.45107 0
M  V30 5648 H 546.36 -1.70785 4.0778 0
M  V30 5649 N 545.419 -1.53889 0.339982 0
M  V30 5650 C 546.665 -2.01152 -0.258003 0
M  V30 5651 C 546.998 -1.22749 -1.50487 0
M  V30 5652 O 546.273 -0.314156 -1.91946 0
M  V30 5653 C 546.556 -3.55468 -0.575717 0
M  V30 5654 C 546.409 -4.44584 0.682996 0
M  V30 5655 C 547.728 -4.1768 -1.38677 0
M  V30 5656 H 544.847 -0.731198 -0.0922992 0
M  V30 5657 H 547.489 -1.84352 0.459814 0
M  V30 5658 H 545.639 -3.69914 -1.18725 0
M  V30 5659 H 547.311 -4.41981 1.32102 0
M  V30 5660 H 545.554 -4.13592 1.3086 0
M  V30 5661 H 546.225 -5.5043 0.416001 0
M  V30 5662 H 548.701 -4.0691 -0.869705 0
M  V30 5663 H 547.577 -5.25734 -1.57783 0
M  V30 5664 H 547.838 -3.72069 -2.38782 0
M  V30 5665 N 546.897 -0.0685191 -1.57451 0
M  V30 5666 C 547.845 0.917577 -2.13736 0
M  V30 5667 C 548.839 1.31049 -1.07344 0
M  V30 5668 O 550.045 1.28811 -1.25728 0
M  V30 5669 H 546.42 0.313835 -0.683382 0
M  V30 5670 H 548.391 0.417903 -2.95459 0
M  V30 5671 C 547.14 2.17686 -2.71123 0
M  V30 5672 H 546.463 1.88336 -3.52661 0
M  V30 5673 H 547.903 2.84803 -3.14107 0
M  V30 5674 C 546.362 2.9332 -1.65726 0
M  V30 5675 O 546.892 3.86901 -1.08031 0
M  V30 5676 N 545.098 2.56367 -1.36837 0
M  V30 5677 H 544.645 1.80341 -1.83943 0
M  V30 5678 H 544.603 3.07276 -0.665501 0
M  V30 5679 N 548.375 1.56261 0.205012 0
M  V30 5680 C 549.603 1.84141 0.943386 0
M  V30 5681 C 550.018 0.649772 1.77266 0
M  V30 5682 O 549.375 -0.381612 1.78466 0
M  V30 5683 C 549.426 3.10719 1.84759 0
M  V30 5684 O 549.147 4.25286 1.05181 0
M  V30 5685 C 550.648 3.51706 2.69848 0
M  V30 5686 H 547.868 0.611734 0.275721 0
M  V30 5687 H 550.412 2.03364 0.215253 0
M  V30 5688 H 548.567 2.93422 2.52947 0
M  V30 5689 H 548.981 4.97301 1.66709 0
M  V30 5690 H 550.455 4.43266 3.28967 0
M  V30 5691 H 550.932 2.7423 3.43067 0
M  V30 5692 H 551.538 3.71499 2.07047 0
M  V30 5693 N 549.853 -0.472356 1.50355 0
M  V30 5694 C 551.083 -1.24603 1.64796 0
M  V30 5695 C 551.491 -1.86297 0.330156 0
M  V30 5696 O 550.834 -1.69934 -0.697728 0
M  V30 5697 C 550.896 -2.39578 2.68035 0
M  V30 5698 C 550.56 -1.98531 4.11624 0
M  V30 5699 C 551.557 -1.50856 4.97532 0
M  V30 5700 C 549.242 -2.0729 4.57532 0
M  V30 5701 C 551.236 -1.12481 6.27397 0
M  V30 5702 C 548.923 -1.68527 5.87403 0
M  V30 5703 C 549.921 -1.212 6.7216 0
M  V30 5704 O 549.609 -0.829728 7.99607 0
M  V30 5705 H 549.341 -0.383035 0.55701 0
M  V30 5706 H 551.895 -0.570392 1.97321 0
M  V30 5707 H 550.125 -3.10309 2.30749 0
M  V30 5708 H 551.814 -3.01544 2.71709 0
M  V30 5709 H 552.58 -1.43511 4.63281 0
M  V30 5710 H 548.459 -2.43076 3.91708 0
M  V30 5711 H 552.003 -0.754698 6.93506 0
M  V30 5712 H 547.9 -1.7553 6.21176 0
M  V30 5713 H 548.668 -0.958689 8.12866 0
M  V30 5714 N 551.331 -1.39911 -0.725443 0
M  V30 5715 C 552.241 -1.41688 -1.8698 0
M  V30 5716 C 553.257 -0.310579 -1.71206 0
M  V30 5717 O 554.433 -0.55359 -1.93642 0
M  V30 5718 C 551.498 -1.26811 -3.22676 0
M  V30 5719 C 550.559 -2.47497 -3.50776 0
M  V30 5720 C 549.792 -2.3332 -4.79997 0
M  V30 5721 O 550.015 -1.34175 -5.54394 0
M  V30 5722 O 548.949 -3.22498 -5.08211 0
M  V30 5723 H 552.775 -2.38171 -1.88436 0
M  V30 5724 H 550.36 -1.21128 -0.874548 0
M  V30 5725 H 552.242 -1.20684 -4.03749 0
M  V30 5726 H 550.917 -0.334289 -3.21969 0
M  V30 5727 H 549.824 -2.59201 -2.69751 0
M  V30 5728 H 551.157 -3.39606 -3.5627 0
M  V30 5729 N 552.809 0.956637 -1.25245 0
M  V30 5730 C 554.057 1.69764 -1.09657 0
M  V30 5731 C 554.378 1.91583 0.363464 0
M  V30 5732 O 553.648 1.50149 1.25825 0
M  V30 5733 H 552.228 0.629097 -0.402798 0
M  V30 5734 H 554.89 1.15026 -1.57337 0
M  V30 5735 H 553.986 2.67769 -1.60331 0
M  V30 5736 N 554.287 1.06798 1.15896 0
M  V30 5737 C 555.515 0.808694 1.90441 0
M  V30 5738 C 555.93 -0.637506 1.77711 0
M  V30 5739 O 555.287 -1.43684 1.12522 0
M  V30 5740 C 555.338 1.20068 3.40978 0
M  V30 5741 O 555.059 2.59013 3.53333 0
M  V30 5742 C 556.56 0.96987 4.3256 0
M  V30 5743 H 553.78 0.292809 0.603742 0
M  V30 5744 H 556.324 1.42296 1.46874 0
M  V30 5745 H 554.479 0.630842 3.82229 0
M  V30 5746 H 554.893 2.7485 4.46719 0
M  V30 5747 H 556.367 1.29371 5.36626 0
M  V30 5748 H 556.844 -0.0941209 4.39099 0
M  V30 5749 H 557.45 1.52433 3.97044 0
M  V30 5750 N 555.766 -1.3263 0.851289 0
M  V30 5751 C 556.716 -2.26451 0.265302 0
M  V30 5752 C 557.7 -1.49814 -0.586899 0
M  V30 5753 O 558.892 -1.71525 -0.436834 0
M  V30 5754 C 556.021 -3.38895 -0.548212 0
M  V30 5755 C 555.107 -4.2292 0.316189 0
M  V30 5756 N 555.498 -4.86014 1.40084 0
M  V30 5757 C 553.796 -4.45876 0.105356 0
M  V30 5758 C 554.497 -5.48667 1.93235 0
M  V30 5759 N 553.473 -5.29455 1.232 0
M  V30 5760 H 557.275 -2.72757 1.09457 0
M  V30 5761 H 554.789 -1.4668 0.697047 0
M  V30 5762 H 556.786 -4.05111 -0.984402 0
M  V30 5763 H 555.446 -2.94135 -1.37531 0
M  V30 5764 H 556.457 -4.86212 1.78377 0
M  V30 5765 H 553.134 -4.11804 -0.687299 0
M  V30 5766 H 554.524 -6.08865 2.84135 0
M  V30 5767 N 557.244 -0.608902 -1.45362 0
M  V30 5768 C 558.521 -0.0365378 -1.95566 0
M  V30 5769 C 558.901 1.43169 -1.55131 0
M  V30 5770 O 558.249 2.1349 -0.814513 0
M  V30 5771 C 558.459 -0.236026 -3.48201 0
M  V30 5772 C 559.807 -0.117518 -4.24437 0
M  V30 5773 O 560.831 -0.166217 -3.55812 0
M  V30 5774 O 559.69 -0.00372127 -5.465 0
M  V30 5775 H 556.784 0.0349874 -0.82626 0
M  V30 5776 H 559.33 -0.679055 -1.55521 0
M  V30 5777 H 558.102 -1.25569 -3.70605 0
M  V30 5778 H 557.725 0.441691 -3.95139 0
M  V30 5779 N 558.722 1.53707 -0.348139 0
M  V30 5780 C 559.971 2.0017 0.247992 0
M  V30 5781 C 560.284 1.23983 1.51286 0
M  V30 5782 O 561.49 1.60946 2.18652 0
M  V30 5783 C 559.946 3.56515 0.492459 0
M  V30 5784 C 559.554 4.41562 -0.756777 0
M  V30 5785 C 561.298 4.11381 1.0472 0
M  V30 5786 C 559.205 5.89426 -0.482856 0
M  V30 5787 H 558.135 0.747806 0.0964452 0
M  V30 5788 H 560.786 1.77532 -0.464179 0
M  V30 5789 H 559.168 3.75236 1.26545 0
M  V30 5790 H 560.342 4.34615 -1.53122 0
M  V30 5791 H 558.657 3.97711 -1.23348 0
M  V30 5792 H 561.254 5.19468 1.26717 0
M  V30 5793 H 561.597 3.64885 2.00411 0
M  V30 5794 H 562.13 3.96389 0.334801 0
M  V30 5795 H 558.869 6.40164 -1.40962 0
M  V30 5796 H 558.389 5.99264 0.253416 0
M  V30 5797 H 560.068 6.4692 -0.101816 0
M  V30 5798 N 560.2 0.0768682 1.57412 0
M  V30 5799 C 561.15 -0.898795 2.09537 0
M  V30 5800 C 562.134 -1.25556 1.0062 0
M  V30 5801 O 563.326 -1.23369 1.26921 0
M  V30 5802 C 560.455 -2.16453 2.66464 0
M  V30 5803 C 559.541 -1.83401 3.82393 0
M  V30 5804 N 559.932 -1.20823 4.91157 0
M  V30 5805 C 558.23 -2.13121 3.91785 0
M  V30 5806 C 558.931 -1.05976 5.71965 0
M  V30 5807 N 557.907 -1.57113 5.204 0
M  V30 5808 H 561.709 -0.410718 2.91016 0
M  V30 5809 H 559.223 -0.126878 1.61904 0
M  V30 5810 H 561.22 -2.87274 3.02125 0
M  V30 5811 H 559.88 -2.65844 1.86433 0
M  V30 5812 H 560.891 -0.877249 5.10416 0
M  V30 5813 H 557.568 -2.64854 3.22736 0
M  V30 5814 H 558.958 -0.571809 6.69462 0
M  V30 5815 N 561.678 -1.56367 -0.196722 0
M  V30 5816 C 562.641 -1.93561 -1.22746 0
M  V30 5817 C 563.641 -0.816566 -1.38524 0
M  V30 5818 O 564.831 -1.084 -1.36363 0
M  V30 5819 C 561.963 -2.20823 -2.59712 0
M  V30 5820 H 563.156 -2.85774 -0.909586 0
M  V30 5821 H 560.709 -1.50032 -0.438174 0
M  V30 5822 H 561.444 -1.31243 -2.96557 0
M  V30 5823 H 561.229 -3.02368 -2.49632 0
M  V30 5824 H 562.719 -2.50608 -3.34044 0
M  V30 5825 N 563.156 0.464375 -1.50603 0
M  V30 5826 C 564.086 1.56944 -1.72889 0
M  V30 5827 C 565.067 1.59979 -0.577997 0
M  V30 5828 O 566.252 1.76138 -0.817855 0
M  V30 5829 C 563.382 2.95225 -1.8292 0
M  V30 5830 C 562.336 3.07056 -2.98162 0
M  V30 5831 C 561.662 4.47051 -2.93343 0
M  V30 5832 C 562.962 2.83648 -4.38567 0
M  V30 5833 H 564.656 1.38547 -2.65415 0
M  V30 5834 H 562.202 0.665082 -1.27721 0
M  V30 5835 H 564.155 3.72467 -1.97095 0
M  V30 5836 H 562.879 3.14793 -0.870209 0
M  V30 5837 H 561.538 2.32248 -2.83648 0
M  V30 5838 H 561.186 4.63547 -1.95276 0
M  V30 5839 H 560.886 4.55902 -3.70712 0
M  V30 5840 H 562.41 5.26304 -3.09575 0
M  V30 5841 H 563.824 3.50636 -4.53572 0
M  V30 5842 H 562.221 3.03937 -5.17438 0
M  V30 5843 H 563.291 1.79451 -4.50472 0
M  V30 5844 N 564.634 1.40294 0.718013 0
M  V30 5845 C 565.883 1.37746 1.4734 0
M  V30 5846 C 566.196 -0.0180754 1.95592 0
M  V30 5847 O 567.402 -0.166166 2.70991 0
M  V30 5848 C 565.858 2.4208 2.66318 0
M  V30 5849 C 565.466 3.87432 2.24945 0
M  V30 5850 C 567.21 2.48635 3.44065 0
M  V30 5851 C 565.117 4.83368 3.40748 0
M  V30 5852 H 564.047 0.512165 0.553356 0
M  V30 5853 H 566.698 1.66019 0.781661 0
M  V30 5854 H 565.08 2.06903 3.3765 0
M  V30 5855 H 566.254 4.3174 1.6105 0
M  V30 5856 H 564.569 3.8433 1.60249 0
M  V30 5857 H 567.166 3.17499 4.30231 0
M  V30 5858 H 567.509 1.51611 3.87711 0
M  V30 5859 H 568.042 2.82791 2.79775 0
M  V30 5860 H 564.781 5.81716 3.02136 0
M  V30 5861 H 564.301 4.43726 4.03568 0
M  V30 5862 H 565.98 5.03074 4.06848 0
M  V30 5863 N 566.112 -0.949982 1.2575 0
M  V30 5864 C 567.042 -2.06483 1.09028 0
M  V30 5865 C 568.023 -1.701 -0.00201532 0
M  V30 5866 O 569.208 -1.93469 0.168383 0
M  V30 5867 C 566.338 -3.39899 0.71316 0
M  V30 5868 C 565.292 -3.90309 1.75621 0
M  V30 5869 C 564.618 -5.20274 1.23365 0
M  V30 5870 C 565.918 -4.16169 3.15596 0
M  V30 5871 H 567.612 -2.20731 2.02283 0
M  V30 5872 H 565.158 -1.06066 0.973964 0
M  V30 5873 H 567.111 -4.17346 0.58309 0
M  V30 5874 H 565.835 -3.25602 -0.255091 0
M  V30 5875 H 564.494 -3.15035 1.8748 0
M  V30 5876 H 564.142 -5.02351 0.255491 0
M  V30 5877 H 563.842 -5.54971 1.93082 0
M  V30 5878 H 565.366 -6.00314 1.11607 0
M  V30 5879 H 566.78 -4.84259 3.06864 0
M  V30 5880 H 565.177 -4.62131 3.82825 0
M  V30 5881 H 566.247 -3.22273 3.6231 0
M  V30 5882 N 567.59 -1.07411 -1.15328 0
M  V30 5883 C 568.838 -0.796073 -1.85761 0
M  V30 5884 C 569.159 0.679864 -1.82764 0
M  V30 5885 O 568.429 1.49242 -1.269 0
M  V30 5886 H 567.009 -0.291495 -0.687779 0
M  V30 5887 H 569.671 -1.35799 -1.39802 0
M  V30 5888 H 568.767 -1.13114 -2.90881 0
M  V30 5889 N 569.068 1.32177 -0.85831 0
M  V30 5890 C 570.484 1.49873 -0.548656 0
M  V30 5891 C 570.684 1.79278 0.919874 0
M  V30 5892 O 569.74 1.86451 1.70271 0
M  V30 5893 C 571.053 2.64043 -1.4388 0
M  V30 5894 C 572.601 2.77928 -1.43961 0
M  V30 5895 C 573.076 3.95182 -2.31506 0
M  V30 5896 N 574.567 4.0245 -2.29321 0
M  V30 5897 C 575.302 4.9242 -2.93786 0
M  V30 5898 N 574.798 5.87373 -3.67376 0
M  V30 5899 N 576.591 4.85572 -2.83155 0
M  V30 5900 H 568.742 1.11357 -1.80868 0
M  V30 5901 H 571.005 0.549175 -0.772729 0
M  V30 5902 H 570.711 2.49055 -2.48324 0
M  V30 5903 H 570.585 3.59912 -1.12885 0
M  V30 5904 H 572.972 2.92338 -0.402813 0
M  V30 5905 H 573.053 1.82762 -1.78974 0
M  V30 5906 H 572.697 3.81531 -3.35256 0
M  V30 5907 H 572.627 4.89633 -1.93823 0
M  V30 5908 H 575.118 3.34507 -1.75822 0
M  V30 5909 H 575.431 6.52728 -4.13722 0
M  V30 5910 H 573.776 5.87388 -3.71484 0
M  V30 5911 H 576.967 4.10363 -2.25211 0
M  V30 5912 H 577.14 5.55486 -3.33676 0
M  V30 5913 N 570.547 0.616602 1.45037 0
M  V30 5914 C 571.51 -0.0871112 2.29034 0
M  V30 5915 C 572.51 -0.786414 1.40258 0
M  V30 5916 O 573.7 -0.633207 1.62284 0
M  V30 5917 C 570.832 -1.13369 3.21497 0
M  V30 5918 H 572.025 0.651497 2.92738 0
M  V30 5919 H 569.578 0.376058 1.51709 0
M  V30 5920 H 570.313 -1.90277 2.62612 0
M  V30 5921 H 570.098 -0.636358 3.86902 0
M  V30 5922 H 571.588 -1.62627 3.84633 0
M  V30 5923 N 572.025 -1.5352 0.356285 0
M  V30 5924 C 572.957 -2.23009 -0.529127 0
M  V30 5925 C 573.97 -1.241 -1.05371 0
M  V30 5926 O 575.159 -1.50379 -0.961679 0
M  V30 5927 C 572.259 -2.90685 -1.74229 0
M  V30 5928 C 571.432 -4.16019 -1.35081 0
M  V30 5929 C 570.491 -4.66989 -2.42502 0
M  V30 5930 O 569.517 -5.30895 -2.05279 0
M  V30 5931 N 570.719 -4.44006 -3.7395 0
M  V30 5932 H 573.484 -2.99627 0.0660501 0
M  V30 5933 H 571.045 -1.60885 0.181014 0
M  V30 5934 H 573.037 -3.21695 -2.4555 0
M  V30 5935 H 571.607 -2.17575 -2.24454 0
M  V30 5936 H 570.827 -3.91414 -0.467833 0
M  V30 5937 H 572.115 -4.9752 -1.06542 0
M  V30 5938 H 571.513 -3.92924 -4.06973 0
M  V30 5939 H 570.07 -4.7959 -4.41403 0
M  V30 5940 N 573.503 -0.0852151 -1.57369 0
M  V30 5941 C 574.731 0.58946 -1.98325 0
M  V30 5942 C 575.146 1.62333 -0.96403 0
M  V30 5943 O 574.503 1.82438 0.0476395 0
M  V30 5944 C 574.554 1.24604 -3.39347 0
M  V30 5945 O 574.275 0.253532 -4.37366 0
M  V30 5946 C 575.776 2.00726 -3.95252 0
M  V30 5947 H 572.996 0.158783 -0.651942 0
M  V30 5948 H 575.54 -0.161584 -2.03861 0
M  V30 5949 H 573.695 1.94808 -3.34856 0
M  V30 5950 H 574.109 0.726207 -5.19448 0
M  V30 5951 H 575.583 2.42039 -4.96106 0
M  V30 5952 H 576.06 2.86919 -3.32527 0
M  V30 5953 H 576.666 1.3536 -4.03185 0
M  V30 5954 N 574.981 1.5647 0.188427 0
M  V30 5955 C 576.229 1.80655 0.905986 0
M  V30 5956 C 576.55 0.659391 1.83513 0
M  V30 5957 O 575.82 -0.321868 1.93238 0
M  V30 5958 H 574.4 0.666391 0.337538 0
M  V30 5959 H 577.062 1.93949 0.192339 0
M  V30 5960 H 576.158 2.74066 1.49313 0
M  V30 5961 N 576.459 -0.456382 1.50847 0
M  V30 5962 C 577.708 -1.2042 1.61808 0
M  V30 5963 C 578.021 -1.9278 0.330932 0
M  V30 5964 O 579.227 -2.69612 0.319643 0
M  V30 5965 C 577.683 -2.18891 2.85683 0
M  V30 5966 C 577.291 -1.52267 4.2133 0
M  V30 5967 C 579.035 -2.94224 3.05994 0
M  V30 5968 C 576.942 -2.4911 5.36375 0
M  V30 5969 H 575.872 -0.453177 0.602616 0
M  V30 5970 H 578.523 -0.473144 1.77295 0
M  V30 5971 H 576.905 -2.95351 2.63787 0
M  V30 5972 H 578.079 -0.814949 4.53536 0
M  V30 5973 H 576.394 -0.891594 4.06743 0
M  V30 5974 H 578.991 -3.66732 3.89117 0
M  V30 5975 H 579.334 -3.54469 2.18306 0
M  V30 5976 H 579.867 -2.24874 3.28141 0
M  V30 5977 H 576.606 -1.93582 6.26264 0
M  V30 5978 H 576.126 -3.17991 5.08569 0
M  V30 5979 H 577.805 -3.10637 5.67551 0
M  V30 5980 N 577.937 -1.40673 -0.710563 0
M  V30 5981 C 578.869 -1.37256 -1.83558 0
M  V30 5982 C 579.882 -0.277133 -1.60424 0
M  V30 5983 O 581.071 -0.537831 -1.70205 0
M  V30 5984 C 578.171 -1.1144 -3.20054 0
M  V30 5985 C 577.344 -2.32734 -3.70342 0
M  V30 5986 C 576.403 -2.03002 -4.85465 0
M  V30 5987 O 575.429 -2.75912 -4.97857 0
M  V30 5988 N 576.631 -1.01105 -5.71627 0
M  V30 5989 H 579.396 -2.34215 -1.86985 0
M  V30 5990 H 576.957 -1.35091 -0.892301 0
M  V30 5991 H 578.949 -0.895265 -3.94673 0
M  V30 5992 H 577.519 -0.231307 -3.11743 0
M  V30 5993 H 576.739 -2.70446 -2.86798 0
M  V30 5994 H 578.027 -3.13584 -4.00678 0
M  V30 5995 H 577.425 -0.407303 -5.64232 0
M  V30 5996 H 575.982 -0.85182 -6.4621 0
M  V30 5997 N 579.415 0.9433 -1.26252 0
M  V30 5998 C 580.378 2.02326 -1.07689 0
M  V30 5999 C 581.378 1.60779 -0.0259174 0
M  V30 6000 O 582.568 1.72108 -0.269134 0
M  V30 6001 C 579.7 3.34886 -0.63752 0
M  V30 6002 H 580.893 2.20225 -2.0357 0
M  V30 6003 H 578.446 1.12197 -1.08819 0
M  V30 6004 H 579.181 3.22684 0.323377 0
M  V30 6005 H 578.966 3.66393 -1.39637 0
M  V30 6006 H 580.456 4.14231 -0.529418 0
M  V30 6007 N 580.893 1.08022 1.14757 0
M  V30 6008 C 582.14 0.807509 1.85703 0
M  V30 6009 C 582.468 -0.666617 1.8272 0
M  V30 6010 O 581.723 -1.50562 1.25018 0
M  V30 6011 C 582.022 1.26964 3.34088 0
M  V30 6012 C 581.688 2.7509 3.57262 0
M  V30 6013 C 580.35 3.15547 3.63296 0
M  V30 6014 C 582.702 3.70667 3.66409 0
M  V30 6015 C 580.03 4.50384 3.75994 0
M  V30 6016 C 582.382 5.05274 3.80632 0
M  V30 6017 C 581.046 5.45342 3.84913 0
M  V30 6018 H 580.316 0.295488 0.679535 0
M  V30 6019 H 582.963 1.35245 1.35577 0
M  V30 6020 H 581.268 0.644216 3.86467 0
M  V30 6021 H 582.965 1.03544 3.87401 0
M  V30 6022 H 579.555 2.42775 3.53212 0
M  V30 6023 H 583.739 3.40533 3.61041 0
M  V30 6024 H 578.995 4.80886 3.77569 0
M  V30 6025 H 583.169 5.79201 3.86652 0
M  V30 6026 H 580.796 6.49823 3.94505 0
M  V30 6027 N 582.371 -1.3172 0.865308 0
M  V30 6028 C 583.618 -1.96876 0.473931 0
M  V30 6029 C 583.946 -1.68425 -0.972786 0
M  V30 6030 O 583.201 -0.970742 -1.69927 0
M  V30 6031 C 583.5 -3.5102 0.672283 0
M  V30 6032 C 583.166 -3.9948 2.09108 0
M  V30 6033 C 581.828 -4.12425 2.4791 0
M  V30 6034 C 584.18 -4.2503 3.0166 0
M  V30 6035 C 581.508 -4.48267 3.78515 0
M  V30 6036 C 583.86 -4.62335 4.31774 0
M  V30 6037 C 582.524 -4.73486 4.70497 0
M  V30 6038 H 581.794 -0.72042 0.173424 0
M  V30 6039 H 584.441 -1.56937 1.0974 0
M  V30 6040 H 582.746 -3.91785 -0.034356 0
M  V30 6041 H 584.443 -3.99475 0.349353 0
M  V30 6042 H 581.033 -3.89898 1.77981 0
M  V30 6043 H 585.217 -4.14529 2.7291 0
M  V30 6044 H 580.473 -4.55097 4.08285 0
M  V30 6045 H 584.647 -4.81058 5.03543 0
M  V30 6046 H 582.274 -5.01016 5.71741 0
M  V30 6047 O 583.888 -0.764371 -1.42266 0
M  V30 6048 H 584.579 -0.325849 -1.9094 0
M  V30 END ATOM
M  V30 BEGIN BOND
M  V30 END BOND
M  V30 END CTAB
M  END
$$$$
