drugbank_target|Q44048 3,4-dihydroxyphenylacetate 2,3-dioxygenase (DB01702)
 OpenBabel12092120223D

  0  0  0     0  0            999 V3000
M  V30 BEGIN CTAB
M  V30 COUNTS 5359 5436 0 0 0
M  V30 BEGIN ATOM
M  V30 1 H -0.908 1.98254 -0.117106 0
M  V30 2 N 0 1.576 0 0
M  V30 3 C 0.933 2.03868 1.02534 0
M  V30 4 C 1.911 0.928543 1.3348 0
M  V30 5 O 3.095 1.19667 1.45644 0
M  V30 6 C 0.222 2.43627 2.35294 0
M  V30 7 C -0.732 3.65373 2.2001 0
M  V30 8 S 0.101 5.13292 1.52614 0
M  V30 9 C 1.257 5.56322 2.86805 0
M  V30 10 H 1.49 2.90518 0.631377 0
M  V30 11 H -0.977 1.52953 0.210867 0
M  V30 12 H 0.981 2.67203 3.11629 0
M  V30 13 H -0.358 1.57376 2.7183 0
M  V30 14 H -1.165 3.90944 3.18086 0
M  V30 15 H -1.563 3.418 1.51819 0
M  V30 16 H 0.729 5.58782 3.83104 0
M  V30 17 H 1.672 6.56266 2.65933 0
M  V30 18 H 2.08 4.83886 2.90714 0
M  V30 19 N 1.4781 -0.272755 1.55222 0
M  V30 20 C 2.7061 -1.02255 1.79865 0
M  V30 21 C 3.1211 -1.79924 0.572088 0
M  V30 22 O 2.4781 -1.76638 -0.458842 0
M  V30 23 C 2.5291 -1.98094 3.02392 0
M  V30 24 O 2.2501 -1.23572 4.20311 0
M  V30 25 C 3.7511 -2.84884 3.39641 0
M  V30 26 H 0.9711 -0.302057 0.599168 0
M  V30 27 H 3.5151 -0.303465 2.02236 0
M  V30 28 H 1.6701 -2.65465 2.82147 0
M  V30 29 H 2.0841 -1.88172 4.89583 0
M  V30 30 H 3.5581 -3.47927 4.28545 0
M  V30 31 H 4.0351 -3.54665 2.59055 0
M  V30 32 H 4.6411 -2.23003 3.62146 0
M  V30 33 N 2.9562 -1.48159 -0.537278 0
M  V30 34 C 3.9042 -1.62573 -1.66352 0
M  V30 35 C 4.8982 -0.492366 -1.62087 0
M  V30 36 O 6.1042 -0.670847 -1.67032 0
M  V30 37 H 2.4792 -0.511992 -0.550789 0
M  V30 38 H 4.4502 -2.57176 -1.51337 0
M  V30 39 C 3.1992 -1.67583 -3.04649 0
M  V30 40 H 2.5222 -2.54151 -3.08622 0
M  V30 41 H 3.9622 -1.81713 -3.83088 0
M  V30 42 C 2.4212 -0.413039 -3.34358 0
M  V30 43 O 2.9512 0.477259 -3.98855 0
M  V30 44 N 1.1572 -0.286961 -2.8918 0
M  V30 45 H 0.7042 -1.01241 -2.36871 0
M  V30 46 H 0.6622 0.556963 -3.09427 0
M  V30 47 N 4.4343 0.785586 -1.36625 0
M  V30 48 C 5.6813 1.54362 -1.31067 0
M  V30 49 C 6.0093 1.94195 0.10893 0
M  V30 50 O 5.2643 1.63262 1.07908 0
M  V30 51 C 5.5633 2.83007 -2.1827 0
M  V30 52 C 5.2293 2.62294 -3.6676 0
M  V30 53 C 3.8913 2.56353 -4.0723 0
M  V30 54 C 6.2433 2.43371 -4.6089 0
M  V30 55 C 3.5713 2.29461 -5.39967 0
M  V30 56 C 5.9233 2.18005 -5.93849 0
M  V30 57 C 4.5873 2.105 -6.3344 0
M  V30 58 H 3.8573 0.564851 -0.479609 0
M  V30 59 H 6.5043 0.906028 -1.68711 0
M  V30 60 H 4.8093 3.51253 -1.73576 0
M  V30 61 H 6.5063 3.40817 -2.11292 0
M  V30 62 H 3.0963 2.67774 -3.34656 0
M  V30 63 H 7.2803 2.46959 -4.30494 0
M  V30 64 H 2.5363 2.22135 -5.69619 0
M  V30 65 H 6.7103 2.02359 -6.66351 0
M  V30 66 H 4.3373 1.89425 -7.36222 0
M  V30 67 N 5.9124 1.20967 1.01018 0
M  V30 68 C 7.1584 1.02526 1.74975 0
M  V30 69 C 7.4914 -0.4408 1.89131 0
M  V30 70 O 6.7664 -1.32718 1.42184 0
M  V30 71 C 7.0494 1.71699 3.1653 0
M  V30 72 C 6.9024 3.25791 3.10129 0
M  V30 73 C 8.2214 1.45531 4.15342 0
M  V30 74 H 5.3404 0.373863 0.635134 0
M  V30 75 H 7.9824 1.49071 1.17805 0
M  V30 76 H 6.1324 1.32128 3.65341 0
M  V30 77 H 7.8044 3.74697 2.69072 0
M  V30 78 H 6.0474 3.56363 2.47362 0
M  V30 79 H 6.7184 3.69353 4.10222 0
M  V30 80 H 9.1944 1.79872 3.75213 0
M  V30 81 H 8.0704 1.96453 5.1254 0
M  V30 82 H 8.3314 0.384237 4.40427 0
M  V30 83 N 7.3905 -1.2043 1.01659 0
M  V30 84 C 8.8015 -1.71517 0.737482 0
M  V30 85 C 9.1525 -1.81547 -0.743973 0
M  V30 86 O 8.2775 -1.47803 -1.58061 0
M  V30 87 C 8.8725 -3.11515 1.33206 0
M  V30 88 C 7.4315 -3.59912 1.10183 0
M  V30 89 C 6.5785 -2.37116 1.43776 0
M  V30 90 H 9.5295 -1.05444 1.18606 0
M  V30 91 H 9.5505 -3.73575 0.722636 0
M  V30 92 H 9.0625 -3.04182 2.41028 0
M  V30 93 H 7.1635 -3.72577 0.0412756 0
M  V30 94 H 7.2765 -4.44731 1.78188 0
M  V30 95 H 5.6405 -2.39857 0.856778 0
M  V30 96 H 6.4235 -2.32424 2.52654 0
M  V30 97 N 8.8686 -0.792821 -1.36206 0
M  V30 98 C 10.0966 -0.378825 -2.03402 0
M  V30 99 C 10.5116 1.00586 -1.59774 0
M  V30 100 O 9.8686 1.64574 -0.788764 0
M  V30 101 C 9.9196 -0.43683 -3.58851 0
M  V30 102 O 9.6406 -1.76691 -4.00889 0
M  V30 103 C 11.1416 -0.0138943 -4.43298 0
M  V30 104 H 8.3616 -0.155673 -0.652692 0
M  V30 105 H 10.9056 -1.07261 -1.74113 0
M  V30 106 H 9.0606 0.208575 -3.86838 0
M  V30 107 H 9.4746 -1.72011 -4.95492 0
M  V30 108 H 10.9486 -0.105615 -5.51899 0
M  V30 109 H 11.4256 1.03915 -4.2673 0
M  V30 110 H 12.0316 -0.63192 -4.20579 0
M  V30 111 N 10.3467 1.47872 -0.545128 0
M  V30 112 C 11.7577 1.86384 -0.108581 0
M  V30 113 C 12.1087 1.45309 1.31832 0
M  V30 114 O 11.2337 0.850641 1.9898 0
M  V30 115 C 11.8287 3.38265 -0.190274 0
M  V30 116 C 10.3877 3.75914 0.191164 0
M  V30 117 C 9.5347 2.71926 -0.543273 0
M  V30 118 H 12.4857 1.39561 -0.755537 0
M  V30 119 H 12.5067 3.75831 0.594217 0
M  V30 120 H 12.0187 3.6813 -1.2289 0
M  V30 121 H 10.1197 3.51665 1.23136 0
M  V30 122 H 10.2327 4.78836 -0.158987 0
M  V30 123 H 8.5967 2.54697 0.0122495 0
M  V30 124 H 9.3797 3.04634 -1.58282 0
M  V30 125 N 11.8248 0.280983 1.55075 0
M  V30 126 C 13.0498 -0.340154 2.04592 0
M  V30 127 C 13.4748 -1.48246 1.15779 0
M  V30 128 O 12.8328 -1.80614 0.15761 0
M  V30 129 C 12.8808 -0.793104 3.5177 0
M  V30 130 O 11.9848 -1.89981 3.66034 0
M  V30 131 H 11.3258 -0.0694289 0.66036 0
M  V30 132 H 13.8558 0.416993 2.00306 0
M  V30 133 H 13.8658 -1.08729 3.93245 0
M  V30 134 H 12.5408 0.0426163 4.15878 0
M  V30 135 H 11.1178 -1.60771 3.36463 0
M  V30 136 N 13.3029 -1.57598 0.00835791 0
M  V30 137 C 14.5489 -1.91211 -0.675732 0
M  V30 138 C 14.8819 -0.883139 -1.72958 0
M  V30 139 O 14.1569 0.097016 -1.94258 0
M  V30 140 C 14.4399 -3.35379 -1.31123 0
M  V30 141 C 14.2929 -4.48999 -0.268356 0
M  V30 142 C 15.6119 -3.7912 -2.23508 0
M  V30 143 H 12.7309 -0.695374 -0.244179 0
M  V30 144 H 15.3729 -1.89901 0.0613655 0
M  V30 145 H 13.5229 -3.36626 -1.93946 0
M  V30 146 H 15.1949 -4.59887 0.360844 0
M  V30 147 H 13.4379 -4.31873 0.408482 0
M  V30 148 H 14.1089 -5.46851 -0.752218 0
M  V30 149 H 16.5849 -3.79477 -1.70693 0
M  V30 150 H 15.4609 -4.80729 -2.64936 0
M  V30 151 H 15.7219 -3.13455 -3.11766 0
M  V30 152 N 14.781 0.264519 -1.55364 0
M  V30 153 C 16.192 0.834936 -1.6699 0
M  V30 154 C 16.543 1.86718 -0.602552 0
M  V30 155 O 15.668 2.14899 0.254425 0
M  V30 156 C 16.263 1.5212 -3.02729 0
M  V30 157 C 14.822 2.03954 -3.16354 0
M  V30 158 C 13.969 0.884498 -2.62815 0
M  V30 159 H 16.92 0.0406869 -1.58648 0
M  V30 160 H 16.941 2.38853 -2.96191 0
M  V30 161 H 16.453 0.769668 -3.80392 0
M  V30 162 H 14.554 2.82041 -2.43482 0
M  V30 163 H 14.667 2.24902 -4.23032 0
M  V30 164 H 13.031 1.2802 -2.20188 0
M  V30 165 H 13.814 0.14634 -3.42988 0
M  V30 166 N 16.2591 1.48442 0.529413 0
M  V30 167 C 17.2221 1.62524 1.61612 0
M  V30 168 C 18.2221 0.498509 1.52877 0
M  V30 169 O 19.4121 0.76431 1.56537 0
M  V30 170 C 16.5441 1.59597 3.01233 0
M  V30 171 H 17.7371 2.59423 1.50465 0
M  V30 172 H 15.2901 1.37047 0.751514 0
M  V30 173 H 16.0251 0.641781 3.17886 0
M  V30 174 H 15.8101 2.41397 3.08982 0
M  V30 175 H 17.3001 1.72646 3.80241 0
M  V30 176 N 17.7372 -0.778329 1.37039 0
M  V30 177 C 19.1482 -1.35421 1.28523 0
M  V30 178 C 19.4992 -1.96075 -0.0700901 0
M  V30 179 O 18.6242 -1.93352 -0.971801 0
M  V30 180 C 19.2192 -2.46211 2.32735 0
M  V30 181 C 17.7782 -2.99585 2.27873 0
M  V30 182 C 16.9252 -1.72748 2.16918 0
M  V30 183 H 19.8762 -0.5791 1.47757 0
M  V30 184 H 19.8972 -3.2552 1.9702 0
M  V30 185 H 19.4092 -2.02036 3.31365 0
M  V30 186 H 17.5102 -3.48152 1.32745 0
M  V30 187 H 17.6232 -3.55646 3.21018 0
M  V30 188 H 15.9872 -1.95416 1.63354 0
M  V30 189 H 16.7702 -1.30686 3.17452 0
M  V30 190 N 19.2153 -1.21501 -1.00376 0
M  V30 191 C 20.4923 -0.941745 -1.71437 0
M  V30 192 C 20.8723 0.546114 -2.03914 0
M  V30 193 O 20.2203 1.51128 -1.71384 0
M  V30 194 C 20.4303 -1.82812 -2.97289 0
M  V30 195 C 21.7783 -2.07771 -3.70292 0
M  V30 196 O 22.8023 -1.80171 -3.07273 0
M  V30 197 O 21.6613 -2.54456 -4.83647 0
M  V30 198 H 18.7553 -0.353243 -0.747762 0
M  V30 199 H 21.3013 -1.32436 -1.06108 0
M  V30 200 H 20.0733 -2.83501 -2.69709 0
M  V30 201 H 19.6963 -1.4464 -3.70358 0
M  V30 202 N 20.6934 1.19889 -1.02296 0
M  V30 203 C 21.9424 1.88743 -0.711257 0
M  V30 204 C 22.2554 1.80112 0.762817 0
M  V30 205 O 23.4614 2.44161 1.18733 0
M  V30 206 C 21.9174 3.38525 -1.22185 0
M  V30 207 C 21.5254 3.55727 -2.72328 0
M  V30 208 C 23.2694 4.12893 -0.985864 0
M  V30 209 C 21.1764 4.99369 -3.16835 0
M  V30 210 H 20.1064 0.706885 -0.262353 0
M  V30 211 H 22.7574 1.35586 -1.23648 0
M  V30 212 H 21.1394 3.91044 -0.624571 0
M  V30 213 H 22.3134 3.13564 -3.3766 0
M  V30 214 H 20.6284 2.94739 -2.9414 0
M  V30 215 H 23.2254 5.18813 -1.29374 0
M  V30 216 H 23.5684 4.16228 0.0775055 0
M  V30 217 H 24.1014 3.66494 -1.54684 0
M  V30 218 H 20.8404 5.01193 -4.22476 0
M  V30 219 H 20.3604 5.42317 -2.56228 0
M  V30 220 H 22.0394 5.67988 -3.09837 0
M  V30 221 N 22.1715 0.800033 1.35784 0
M  V30 222 C 23.4175 0.377901 1.99248 0
M  V30 223 C 23.7505 -1.05052 1.63333 0
M  V30 224 O 23.0255 -1.72768 0.893385 0
M  V30 225 C 23.3085 0.553922 3.55814 0
M  V30 226 C 23.1615 2.0268 4.01548 0
M  V30 227 C 24.4805 -0.0244802 4.40093 0
M  V30 228 H 21.5995 0.138782 0.723815 0
M  V30 229 H 24.2415 1.00835 1.61035 0
M  V30 230 H 22.3915 0.0172398 3.88496 0
M  V30 231 H 24.0635 2.62536 3.79305 0
M  V30 232 H 22.3065 2.5256 3.52698 0
M  V30 233 H 22.9775 2.10087 5.10458 0
M  V30 234 H 25.4535 0.433775 4.13833 0
M  V30 235 H 24.3295 0.128637 5.48749 0
M  V30 236 H 24.5905 -1.11758 4.27741 0
M  V30 237 N 23.6496 -1.47581 0.552962 0
M  V30 238 C 25.0656 -1.5818 0.212424 0
M  V30 239 C 25.2656 -1.55213 -1.28496 0
M  V30 240 O 24.3216 -1.45329 -2.06484 0
M  V30 241 C 25.6346 -2.88865 0.835318 0
M  V30 242 C 27.1826 -3.0244 0.806156 0
M  V30 243 C 27.6576 -4.35819 1.40804 0
M  V30 244 N 29.1486 -4.42444 1.37103 0
M  V30 245 C 29.8836 -5.44202 1.80641 0
M  V30 246 N 29.3796 -6.52795 2.32015 0
M  V30 247 N 31.1726 -5.35222 1.71738 0
M  V30 248 H 23.3236 -1.47753 1.52587 0
M  V30 249 H 25.5866 -0.702941 0.636064 0
M  V30 250 H 25.2926 -2.9676 1.88749 0
M  V30 251 H 25.1666 -3.7579 0.325848 0
M  V30 252 H 27.5536 -2.94144 -0.237317 0
M  V30 253 H 27.6346 -2.17068 1.35334 0
M  V30 254 H 27.2786 -4.44871 2.45056 0
M  V30 255 H 27.2086 -5.19916 0.836338 0
M  V30 256 H 29.6996 -3.6456 0.995202 0
M  V30 257 H 30.0126 -7.26609 2.63171 0
M  V30 258 H 28.3576 -6.53696 2.36023 0
M  V30 259 H 31.5486 -4.49284 1.31382 0
M  V30 260 H 31.7216 -6.14389 2.05987 0
M  V30 261 N 25.1277 -0.289203 -1.54924 0
M  V30 262 C 26.3677 0.324536 -2.01807 0
M  V30 263 C 26.7317 1.5199 -1.17316 0
M  V30 264 O 27.9327 2.20422 -1.53843 0
M  V30 265 C 26.2037 0.683578 -3.50802 0
M  V30 266 S 27.7627 1.28185 -4.19659 0
M  V30 267 H 24.5807 0.100236 -0.703899 0
M  V30 268 H 27.1827 -0.414325 -1.91059 0
M  V30 269 H 25.8867 -0.195073 -4.09936 0
M  V30 270 H 25.4177 1.45354 -3.65562 0
M  V30 271 H 27.4327 2.57006 -4.24456 0
M  V30 272 N 26.6058 1.57591 -0.0167156 0
M  V30 273 C 27.5688 2.08393 0.954204 0
M  V30 274 C 28.5688 0.996531 1.26198 0
M  V30 275 O 29.7588 1.25858 1.20438 0
M  V30 276 C 26.8908 2.5394 2.27436 0
M  V30 277 H 28.0838 2.95455 0.514451 0
M  V30 278 H 25.6368 1.54582 0.231089 0
M  V30 279 H 26.3718 1.70171 2.76066 0
M  V30 280 H 26.1568 3.33371 2.06412 0
M  V30 281 H 27.6468 2.93512 2.97053 0
M  V30 282 N 28.0839 -0.256276 1.55502 0
M  V30 283 C 29.3139 -1.00196 1.80677 0
M  V30 284 C 29.7219 -1.79805 0.588797 0
M  V30 285 O 29.0649 -1.78055 -0.451883 0
M  V30 286 C 29.1269 -1.99515 2.99055 0
M  V30 287 C 28.7909 -1.38688 4.35448 0
M  V30 288 C 29.7879 -0.794079 5.138 0
M  V30 289 C 27.4729 -1.40906 4.82132 0
M  V30 290 C 29.4669 -0.231562 6.36979 0
M  V30 291 C 27.1539 -0.842684 6.05262 0
M  V30 292 C 28.1519 -0.254953 6.82524 0
M  V30 293 O 27.8399 0.3027 8.0333 0
M  V30 294 H 27.5719 -0.300919 0.60533 0
M  V30 295 H 30.1259 -0.287307 2.03381 0
M  V30 296 H 28.3559 -2.74785 2.72084 0
M  V30 297 H 30.0449 -2.60349 3.11405 0
M  V30 298 H 30.8109 -0.769519 4.78856 0
M  V30 299 H 26.6899 -1.85591 4.21992 0
M  V30 300 H 30.2339 0.227816 6.97228 0
M  V30 301 H 26.1309 -0.86454 6.39684 0
M  V30 302 H 26.8989 0.193662 8.18271 0
M  V30 303 N 29.562 -1.4872 -0.521534 0
M  V30 304 C 30.495 -1.58451 -1.64221 0
M  V30 305 C 31.473 -0.434513 -1.56687 0
M  V30 306 O 32.657 -0.647275 -1.77038 0
M  V30 307 C 29.784 -1.52037 -3.02659 0
M  V30 308 C 28.83 -2.71981 -3.28525 0
M  V30 309 S 29.663 -4.33869 -3.13876 0
M  V30 310 C 30.819 -4.30067 -4.54745 0
M  V30 311 H 31.052 -2.53256 -1.55719 0
M  V30 312 H 28.585 -1.37358 -0.705143 0
M  V30 313 H 30.543 -1.49023 -3.82495 0
M  V30 314 H 29.204 -0.585541 -3.08594 0
M  V30 315 H 28.397 -2.63656 -4.29536 0
M  V30 316 H 27.999 -2.72302 -2.56374 0
M  V30 317 H 30.291 -4.00521 -5.46433 0
M  V30 318 H 31.234 -5.31287 -4.68123 0
M  V30 319 H 31.642 -3.60419 -4.34463 0
M  V30 320 N 31.0401 0.771051 -1.3745 0
M  V30 321 C 31.9501 1.91538 -1.35464 0
M  V30 322 C 32.9661 1.72134 -0.254123 0
M  V30 323 O 34.1421 1.95358 -0.489626 0
M  V30 324 C 31.2071 3.26671 -1.16134 0
M  V30 325 C 30.2681 3.58723 -2.35831 0
M  V30 326 C 29.5011 4.87409 -2.17413 0
M  V30 327 O 29.7241 5.58506 -1.15876 0
M  V30 328 O 28.6581 5.18539 -3.05615 0
M  V30 329 H 32.4841 1.96165 -2.31847 0
M  V30 330 H 30.0691 0.9139 -1.18187 0
M  V30 331 H 31.9511 4.07499 -1.07345 0
M  V30 332 H 30.6261 3.22894 -0.228251 0
M  V30 333 H 29.5331 2.78127 -2.50192 0
M  V30 334 H 30.8661 3.67243 -3.27709 0
M  V30 335 N 32.5182 1.22032 0.997298 0
M  V30 336 C 33.7672 1.03637 1.73038 0
M  V30 337 C 34.0802 -0.429475 1.90827 0
M  V30 338 O 35.2862 -0.732995 2.61418 0
M  V30 339 C 33.7422 1.80582 3.11317 0
M  V30 340 C 33.3502 3.31387 3.01474 0
M  V30 341 C 35.0942 1.70621 3.88701 0
M  V30 342 C 33.0012 4.00791 4.3488 0
M  V30 343 H 31.9312 0.384179 0.648785 0
M  V30 344 H 34.5822 1.4584 1.11368 0
M  V30 345 H 32.9642 1.31175 3.73643 0
M  V30 346 H 34.1382 3.88155 2.4834 0
M  V30 347 H 32.4532 3.41976 2.37575 0
M  V30 348 H 35.0502 2.19799 4.87434 0
M  V30 349 H 35.3932 0.665823 4.10941 0
M  V30 350 H 35.9262 2.17547 3.33044 0
M  V30 351 H 32.6652 5.05064 4.1784 0
M  V30 352 H 32.1852 3.48811 4.87945 0
M  V30 353 H 33.8642 4.06139 5.03647 0
M  V30 354 N 33.9963 -1.19345 1.0293 0
M  V30 355 C 35.2423 -1.89318 0.727083 0
M  V30 356 C 35.5753 -1.79446 -0.742483 0
M  V30 357 O 34.8503 -1.1871 -1.54072 0
M  V30 358 C 35.1333 -3.40238 1.17942 0
M  V30 359 C 34.9863 -3.58979 2.71024 0
M  V30 360 C 36.3053 -4.33479 0.760548 0
M  V30 361 H 33.4243 -0.687475 0.265606 0
M  V30 362 H 36.0663 -1.40477 1.2793 0
M  V30 363 H 34.2163 -3.81964 0.709608 0
M  V30 364 H 35.8883 -3.26421 3.25955 0
M  V30 365 H 34.1313 -3.02018 3.11396 0
M  V30 366 H 34.8023 -4.64823 2.9773 0
M  V30 367 H 37.2783 -3.99469 1.16464 0
M  V30 368 H 36.1543 -5.37664 1.10493 0
M  V30 369 H 36.4153 -4.40813 -0.337063 0
M  V30 370 N 35.4744 -0.807222 -1.35358 0
M  V30 371 C 36.7204 -0.388463 -1.99045 0
M  V30 372 C 37.0534 1.04184 -1.63888 0
M  V30 373 O 36.3284 1.72292 -0.902535 0
M  V30 374 C 36.6114 -0.572783 -3.55515 0
M  V30 375 C 36.4644 -2.04807 -4.00468 0
M  V30 376 C 37.7834 0.00114064 -4.401 0
M  V30 377 H 34.9024 -0.142619 -0.723069 0
M  V30 378 H 37.5444 -1.01687 -1.60498 0
M  V30 379 H 35.6944 -0.0378425 -3.88482 0
M  V30 380 H 37.3664 -2.64544 -3.77908 0
M  V30 381 H 35.6094 -2.54427 -3.51353 0
M  V30 382 H 36.2804 -2.12792 -5.09337 0
M  V30 383 H 38.7564 -0.455716 -4.13597 0
M  V30 384 H 37.6324 -0.157737 -5.48673 0
M  V30 385 H 37.8934 1.09488 -4.28328 0
M  V30 386 N 36.9525 1.47285 -0.560781 0
M  V30 387 C 38.1805 2.06855 -0.0430262 0
M  V30 388 C 38.5955 1.41291 1.25229 0
M  V30 389 O 37.9525 0.510648 1.7521 0
M  V30 390 C 38.0035 3.61178 0.152518 0
M  V30 391 O 37.7245 4.24285 -1.0915 0
M  V30 392 C 39.2255 4.37624 0.707145 0
M  V30 393 H 36.4455 0.669319 -0.0474652 0
M  V30 394 H 38.9895 1.89237 -0.77521 0
M  V30 395 H 37.1445 3.78298 0.834843 0
M  V30 396 H 37.5585 5.16868 -0.891482 0
M  V30 397 H 39.0325 5.46271 0.793244 0
M  V30 398 H 39.5095 4.04152 1.71923 0
M  V30 399 H 40.1155 4.25257 0.0604027 0
M  V30 400 N 38.4306 0.297415 1.54768 0
M  V30 401 C 39.7076 -0.365847 1.92148 0
M  V30 402 C 40.0876 -1.71975 1.22424 0
M  V30 403 O 39.4356 -2.25666 0.358739 0
M  V30 404 C 39.6456 -0.484056 3.45627 0
M  V30 405 C 40.9936 -0.756594 4.17805 0
M  V30 406 O 42.0176 -0.568007 3.51642 0
M  V30 407 O 40.8766 -1.11863 5.34929 0
M  V30 408 H 37.9706 -0.203919 0.801465 0
M  V30 409 H 40.5166 0.34521 1.66152 0
M  V30 410 H 39.2886 0.467865 3.88493 0
M  V30 411 H 38.9116 -1.24372 3.77647 0
M  V30 412 N 39.9087 -1.5758 0.0250728 0
M  V30 413 C 40.8387 -2.13007 -0.956575 0
M  V30 414 C 41.8197 -1.0452 -1.342 0
M  V30 415 O 43.0047 -1.32332 -1.42133 0
M  V30 416 C 40.1347 -2.65386 -2.24026 0
M  V30 417 C 39.0887 -3.78623 -1.99571 0
M  V30 418 C 38.4147 -4.17414 -3.3417 0
M  V30 419 C 39.7147 -5.04867 -1.33814 0
M  V30 420 H 41.4087 -2.9528 -0.494991 0
M  V30 421 H 38.9547 -1.42042 -0.236651 0
M  V30 422 H 40.9077 -3.02794 -2.93076 0
M  V30 423 H 39.6317 -1.80268 -2.72343 0
M  V30 424 H 38.2907 -3.41646 -1.32941 0
M  V30 425 H 37.9387 -3.29284 -3.80238 0
M  V30 426 H 37.6387 -4.93719 -3.18615 0
M  V30 427 H 39.1627 -4.57402 -4.04495 0
M  V30 428 H 40.5767 -5.39888 -1.92857 0
M  V30 429 H 38.9737 -5.86144 -1.28669 0
M  V30 430 H 40.0437 -4.83904 -0.310561 0
M  V30 431 N 41.3868 0.248026 -1.55636 0
M  V30 432 C 42.3498 1.29044 -1.89421 0
M  V30 433 C 43.3498 1.41134 -0.770581 0
M  V30 434 O 44.5398 1.39854 -1.03858 0
M  V30 435 C 41.6718 2.66831 -2.12165 0
M  V30 436 H 42.8648 1.00305 -2.82629 0
M  V30 437 H 40.4178 0.487265 -1.48511 0
M  V30 438 H 41.1528 3.00711 -1.21422 0
M  V30 439 H 40.9378 2.59438 -2.93997 0
M  V30 440 H 42.4278 3.42103 -2.3949 0
M  V30 441 N 42.8649 1.48995 0.513639 0
M  V30 442 C 43.8119 1.6473 1.61656 0
M  V30 443 C 44.7819 0.488984 1.58739 0
M  V30 444 O 45.9669 0.714478 1.76918 0
M  V30 445 C 43.1069 1.7082 2.99858 0
M  V30 446 C 42.2199 2.9787 3.12885 0
M  V30 447 C 41.3549 2.95017 4.41744 0
M  V30 448 C 40.3939 4.16702 4.48359 0
M  V30 449 N 39.5309 4.11832 5.68629 0
M  V30 450 H 44.3709 2.58909 1.47547 0
M  V30 451 H 41.9079 1.28382 0.71808 0
M  V30 452 H 43.8659 1.72331 3.79944 0
M  V30 453 H 42.4959 0.801181 3.12699 0
M  V30 454 H 41.5479 3.06029 2.25944 0
M  V30 455 H 42.8599 3.8786 3.13633 0
M  V30 456 H 42.0139 2.95021 5.30139 0
M  V30 457 H 40.7529 2.02784 4.43542 0
M  V30 458 H 39.7579 4.16955 3.58369 0
M  V30 459 H 40.9829 5.10113 4.48287 0
M  V30 460 H 38.9289 3.22428 5.71293 0
M  V30 461 H 38.8459 4.95543 5.7094 0
M  V30 462 H 40.1139 4.1592 6.59266 0
M  V30 463 N 44.343 -0.763751 1.37857 0
M  V30 464 C 45.568 -1.55805 1.36893 0
M  V30 465 C 45.993 -1.88054 -0.0416135 0
M  V30 466 O 45.351 -1.49825 -1.02089 0
M  V30 467 C 45.399 -2.84012 2.22192 0
M  V30 468 O 44.503 -3.78732 1.63204 0
M  V30 469 H 43.844 -0.471638 0.46739 0
M  V30 470 H 46.374 -0.944657 1.81487 0
M  V30 471 H 46.384 -3.33037 2.35691 0
M  V30 472 H 45.059 -2.59869 3.24716 0
M  V30 473 H 43.636 -3.37402 1.58791 0
M  V30 474 N 45.8211 -1.22559 -0.990812 0
M  V30 475 C 47.2371 -0.985996 -1.255 0
M  V30 476 C 47.4371 0.319173 -1.98956 0
M  V30 477 O 46.4931 1.04127 -2.3003 0
M  V30 478 C 47.8061 -2.18607 -2.06474 0
M  V30 479 C 49.3541 -2.22985 -2.19651 0
M  V30 480 C 49.8291 -3.4255 -3.04012 0
M  V30 481 N 51.3201 -3.42725 -3.11599 0
M  V30 482 C 52.0551 -4.31892 -3.7717 0
M  V30 483 N 51.5511 -5.31279 -4.44651 0
M  V30 484 N 53.3441 -4.19662 -3.73952 0
M  V30 485 H 45.4951 -2.06469 -0.49841 0
M  V30 486 H 47.7581 -0.904853 -0.282747 0
M  V30 487 H 47.4641 -3.13267 -1.59865 0
M  V30 488 H 47.3381 -2.18838 -3.07229 0
M  V30 489 H 49.7251 -1.28871 -2.65474 0
M  V30 490 H 49.8061 -2.26791 -1.18319 0
M  V30 491 H 49.4501 -4.36965 -2.58889 0
M  V30 492 H 49.3801 -3.35984 -4.0549 0
M  V30 493 H 51.8711 -2.70807 -2.63575 0
M  V30 494 H 52.1841 -5.95593 -4.92431 0
M  V30 495 H 50.5291 -5.3519 -4.43392 0
M  V30 496 H 53.7201 -3.41268 -3.20396 0
M  V30 497 H 53.8931 -4.89358 -4.24774 0
M  V30 498 N 47.2992 1.18797 -1.03562 0
M  V30 499 C 48.2092 2.25913 -0.632505 0
M  V30 500 C 49.2252 1.70668 0.338882 0
M  V30 501 O 50.4012 2.00453 0.195076 0
M  V30 502 C 47.4662 3.467 0.00350942 0
M  V30 503 C 46.5272 4.17098 -1.01624 0
M  V30 504 C 45.7602 5.32119 -0.410478 0
M  V30 505 O 45.9832 5.64976 0.784725 0
M  V30 506 O 44.9172 5.9107 -1.13667 0
M  V30 507 H 48.7432 2.62648 -1.52478 0
M  V30 508 H 46.3282 1.25781 -0.806195 0
M  V30 509 H 48.2102 4.19878 0.35781 0
M  V30 510 H 46.8852 3.11798 0.869686 0
M  V30 511 H 45.7922 3.4601 -1.42224 0
M  V30 512 H 47.1252 4.55987 -1.85301 0
M  V30 513 N 48.7773 0.814389 1.34928 0
M  V30 514 C 50.0243 0.398423 1.98542 0
M  V30 515 C 50.3523 -1.03638 1.64589 0
M  V30 516 O 49.6073 -1.73509 0.90516 0
M  V30 517 C 49.9063 0.537781 3.53331 0
M  V30 518 C 49.5723 1.93704 4.07172 0
M  V30 519 C 48.2343 2.31984 4.21589 0
M  V30 520 C 50.5863 2.85213 4.36237 0
M  V30 521 C 47.9143 3.61125 4.62391 0
M  V30 522 C 50.2663 4.13809 4.78482 0
M  V30 523 C 48.9303 4.52077 4.91104 0
M  V30 524 H 48.2003 0.145793 0.726516 0
M  V30 525 H 50.8473 1.03669 1.61012 0
M  V30 526 H 49.1523 -0.183906 3.91368 0
M  V30 527 H 50.8493 0.196588 4.00518 0
M  V30 528 H 47.4393 1.62966 3.96409 0
M  V30 529 H 51.6233 2.56885 4.24645 0
M  V30 530 H 46.8793 3.90612 4.70353 0
M  V30 531 H 51.0533 4.84811 4.99932 0
M  V30 532 H 48.6803 5.52196 5.22478 0
M  V30 533 N 50.2554 -1.46986 0.568584 0
M  V30 534 C 51.4854 -2.0653 0.0539173 0
M  V30 535 C 51.8934 -1.42004 -1.25026 0
M  V30 536 O 51.2364 -0.514541 -1.76347 0
M  V30 537 C 51.2984 -3.58938 -0.200854 0
M  V30 538 C 50.9624 -4.45572 1.01559 0
M  V30 539 C 51.9594 -4.82986 1.92407 0
M  V30 540 C 49.6444 -4.8692 1.23346 0
M  V30 541 C 51.6384 -5.60559 3.03402 0
M  V30 542 C 49.3254 -5.64255 2.34649 0
M  V30 543 C 50.3234 -6.00986 3.24507 0
M  V30 544 O 50.0114 -6.76761 4.33878 0
M  V30 545 H 49.7434 -0.674292 0.0480234 0
M  V30 546 H 52.2974 -1.89812 0.784896 0
M  V30 547 H 50.5274 -3.73911 -0.986279 0
M  V30 548 H 52.2164 -4.0046 -0.662294 0
M  V30 549 H 52.9824 -4.51633 1.76785 0
M  V30 550 H 48.8614 -4.57789 0.543178 0
M  V30 551 H 52.4054 -5.89147 3.73565 0
M  V30 552 H 48.3024 -5.95021 2.5024 0
M  V30 553 H 49.0704 -6.95168 4.32068 0
M  V30 554 N 51.7335 -0.305618 -1.54608 0
M  V30 555 C 52.9795 0.302746 -2.00528 0
M  V30 556 C 53.3125 1.53184 -1.19367 0
M  V30 557 O 52.5875 1.92598 -0.271321 0
M  V30 558 C 52.8705 0.654756 -3.54097 0
M  V30 559 C 52.7235 -0.583793 -4.45995 0
M  V30 560 C 54.0425 1.47947 -4.14487 0
M  V30 561 H 51.1615 0.108564 -0.72896 0
M  V30 562 H 53.8035 -0.418634 -1.85331 0
M  V30 563 H 51.9535 1.26935 -3.67178 0
M  V30 564 H 53.6255 -1.22224 -4.44814 0
M  V30 565 H 51.8685 -1.21615 -4.16404 0
M  V30 566 H 52.5395 -0.293287 -5.5122 0
M  V30 567 H 55.0155 0.96013 -4.04871 0
M  V30 568 H 53.8915 1.69454 -5.22088 0
M  V30 569 H 54.1525 2.47011 -3.66658 0
M  V30 570 N 53.2116 1.57565 -0.0334293 0
M  V30 571 C 54.4886 1.83282 0.683163 0
M  V30 572 C 54.8686 0.91823 1.90084 0
M  V30 573 O 54.2166 -0.025113 2.28486 0
M  V30 574 C 54.4266 3.32599 1.0573 0
M  V30 575 C 55.7746 3.99179 1.44711 0
M  V30 576 O 56.7986 3.3712 1.15015 0
M  V30 577 O 55.6576 5.08565 2.0006 0
M  V30 578 H 52.7516 0.755869 0.335546 0
M  V30 579 H 55.2976 1.69589 -0.0614402 0
M  V30 580 H 54.0696 3.90834 0.190828 0
M  V30 581 H 53.6926 3.51415 1.85993 0
M  V30 582 N 54.6897 -0.239769 1.55765 0
M  V30 583 C 55.9357 -0.968234 1.78194 0
M  V30 584 C 56.2687 -1.84701 0.599938 0
M  V30 585 O 55.5437 -1.9031 -0.401524 0
M  V30 586 C 55.8267 -1.8227 3.10564 0
M  V30 587 C 55.6797 -0.971633 4.3918 0
M  V30 588 C 56.9987 -2.80388 3.39221 0
M  V30 589 H 54.1177 -0.350572 0.648281 0
M  V30 590 H 56.7597 -0.238259 1.885 0
M  V30 591 H 54.9097 -2.44507 3.01908 0
M  V30 592 H 56.5817 -0.367408 4.59835 0
M  V30 593 H 54.8247 -0.276276 4.32919 0
M  V30 594 H 55.4957 -1.60346 5.28198 0
M  V30 595 H 57.9717 -2.28287 3.47885 0
M  V30 596 H 56.8477 -3.3729 4.33044 0
M  V30 597 H 57.1087 -3.57212 2.60484 0
M  V30 598 N 56.1678 -1.49265 -0.50573 0
M  V30 599 C 57.0978 -1.68495 -1.61653 0
M  V30 600 C 58.0788 -0.53366 -1.61512 0
M  V30 601 O 59.2638 -0.76897 -1.78327 0
M  V30 602 C 56.3938 -1.74709 -3.00157 0
M  V30 603 C 55.3478 -2.89581 -3.15162 0
M  V30 604 C 54.6738 -2.80903 -4.5497 0
M  V30 605 C 55.9738 -4.30578 -2.95634 0
M  V30 606 H 57.6678 -2.61493 -1.45814 0
M  V30 607 H 55.2138 -1.25838 -0.70005 0
M  V30 608 H 57.1668 -1.86748 -3.77761 0
M  V30 609 H 55.8908 -0.783067 -3.17074 0
M  V30 610 H 54.5498 -2.77136 -2.39982 0
M  V30 611 H 54.1978 -1.82419 -4.68756 0
M  V30 612 H 53.8978 -3.57999 -4.65951 0
M  V30 613 H 55.4218 -2.94944 -5.34641 0
M  V30 614 H 56.8358 -4.4373 -3.63011 0
M  V30 615 H 55.2328 -5.0886 -3.18091 0
M  V30 616 H 56.3028 -4.45352 -1.91806 0
M  V30 617 N 57.6459 0.756429 -1.3826 0
M  V30 618 C 58.8939 1.51248 -1.34047 0
M  V30 619 C 59.2149 1.94875 0.0698372 0
M  V30 620 O 58.4849 1.67436 1.01696 0
M  V30 621 H 57.0649 0.561018 -0.493222 0
M  V30 622 H 59.7269 0.899347 -1.7291 0
M  V30 623 H 58.8229 2.40472 -1.98947 0
M  V30 624 N 59.124 1.23083 0.984299 0
M  V30 625 C 60.054 1.03292 2.09411 0
M  V30 626 C 61.035 -0.048923 1.7003 0
M  V30 627 O 62.22 0.114967 1.93859 0
M  V30 628 C 59.35 0.619155 3.41736 0
M  V30 629 C 58.304 1.64791 3.95004 0
M  V30 630 C 57.63 1.0897 5.23478 0
M  V30 631 C 58.93 3.03999 4.24714 0
M  V30 632 H 60.624 1.96119 2.26225 0
M  V30 633 H 58.17 0.944344 1.08711 0
M  V30 634 H 60.123 0.467777 4.18796 0
M  V30 635 H 58.847 -0.344786 3.24775 0
M  V30 636 H 57.506 1.78721 3.20085 0
M  V30 637 H 57.154 0.11686 5.02864 0
M  V30 638 H 56.854 1.77704 5.60085 0
M  V30 639 H 58.378 0.950093 6.03163 0
M  V30 640 H 59.792 2.93393 4.92538 0
M  V30 641 H 58.189 3.69936 4.72512 0
M  V30 642 H 59.259 3.53285 3.32142 0
M  V30 643 N 60.6021 -1.18246 1.0419 0
M  V30 644 C 61.5521 -2.19843 0.604392 0
M  V30 645 C 62.5361 -1.56962 -0.353814 0
M  V30 646 O 63.7281 -1.76156 -0.17267 0
M  V30 647 C 60.8571 -3.43287 -0.0298975 0
M  V30 648 C 59.9431 -4.13288 0.951531 0
M  V30 649 N 60.3341 -4.59271 2.11906 0
M  V30 650 C 58.6321 -4.39165 0.7778 0
M  V30 651 C 59.3331 -5.13173 2.73912 0
M  V30 652 N 58.3091 -5.04763 2.01779 0
M  V30 653 H 62.1111 -2.53089 1.4941 0
M  V30 654 H 59.6251 -1.34465 0.910658 0
M  V30 655 H 61.6221 -4.15334 -0.361037 0
M  V30 656 H 60.2821 -3.11537 -0.915127 0
M  V30 657 H 61.2931 -4.5368 2.49789 0
M  V30 658 H 57.9701 -4.17461 -0.0572331 0
M  V30 659 H 59.3601 -5.58947 3.72864 0
M  V30 660 N 62.0802 -0.821533 -1.34494 0
M  V30 661 C 63.3262 -0.409552 -1.98622 0
M  V30 662 C 63.6592 1.0244 -1.64984 0
M  V30 663 O 62.9342 1.71325 -0.920758 0
M  V30 664 C 63.2172 -0.610458 -3.54888 0
M  V30 665 C 63.0702 -2.09043 -3.98273 0
M  V30 666 C 64.3892 -0.0455379 -4.40076 0
M  V30 667 H 61.5082 -0.15028 -0.721516 0
M  V30 668 H 64.1502 -1.03384 -1.59411 0
M  V30 669 H 62.3002 -0.079044 -3.8842 0
M  V30 670 H 63.9722 -2.68537 -3.75081 0
M  V30 671 H 62.2152 -2.58139 -3.48635 0
M  V30 672 H 62.8862 -2.18182 -5.07051 0
M  V30 673 H 65.3622 -0.499557 -4.1309 0
M  V30 674 H 64.2382 -0.215922 -5.48475 0
M  V30 675 H 64.4992 1.04939 -4.29465 0
M  V30 676 N 63.5583 1.46682 -0.576371 0
M  V30 677 C 64.7863 2.06798 -0.0649635 0
M  V30 678 C 65.2013 1.42612 1.23723 0
M  V30 679 O 64.5583 0.529203 1.74659 0
M  V30 680 C 64.6093 3.6132 0.114202 0
M  V30 681 O 64.3303 4.23104 -1.13644 0
M  V30 682 C 65.8313 4.38349 0.66069 0
M  V30 683 H 63.0513 0.668778 -0.0545616 0
M  V30 684 H 65.5953 1.88404 -0.795237 0
M  V30 685 H 63.7503 3.79162 0.794673 0
M  V30 686 H 64.1643 5.15894 -0.946253 0
M  V30 687 H 65.6383 5.47081 0.73526 0
M  V30 688 H 66.1153 4.05953 1.67627 0
M  V30 689 H 66.7213 4.25297 0.0152951 0
M  V30 690 N 65.0364 0.313813 1.54444 0
M  V30 691 C 65.9464 -0.565714 2.27677 0
M  V30 692 C 66.9624 -1.13754 1.31666 0
M  V30 693 O 68.1384 -1.15959 1.64668 0
M  V30 694 C 65.2034 -1.71528 3.01296 0
M  V30 695 C 64.2644 -1.17624 4.12872 0
M  V30 696 C 63.4974 -2.27102 4.8297 0
M  V30 697 O 63.7204 -3.47256 4.52514 0
M  V30 698 O 62.6544 -1.9307 5.70094 0
M  V30 699 H 66.4804 0.0287296 3.03686 0
M  V30 700 H 64.0654 0.0798312 1.49187 0
M  V30 701 H 65.9474 -2.38476 3.4743 0
M  V30 702 H 64.6224 -2.29608 2.2817 0
M  V30 703 H 63.5294 -0.472124 3.71109 0
M  V30 704 H 64.8624 -0.640695 4.88012 0
M  V30 705 N 66.5145 -1.57545 0.0417849 0
M  V30 706 C 67.4245 -2.14451 -0.951213 0
M  V30 707 C 68.4405 -1.09992 -1.34825 0
M  V30 708 O 69.6165 -1.42114 -1.42708 0
M  V30 709 C 66.6815 -2.67063 -2.21084 0
M  V30 710 C 65.7425 -3.86284 -1.87304 0
M  V30 711 C 64.9755 -4.36378 -3.07261 0
M  V30 712 O 65.1985 -3.85587 -4.20332 0
M  V30 713 O 64.1325 -5.28077 -2.88822 0
M  V30 714 H 67.9585 -2.99601 -0.497287 0
M  V30 715 H 65.5435 -1.48317 -0.179567 0
M  V30 716 H 67.4255 -3.00914 -2.95006 0
M  V30 717 H 66.1005 -1.84989 -2.65633 0
M  V30 718 H 65.0075 -3.57338 -1.10727 0
M  V30 719 H 66.3405 -4.6956 -1.47562 0
M  V30 720 N 67.9926 0.231505 -1.5589 0
M  V30 721 C 69.2696 0.981096 -1.69215 0
M  V30 722 C 69.6496 2.02799 -0.586164 0
M  V30 723 O 68.9976 2.24823 0.408253 0
M  V30 724 C 69.2076 1.60054 -3.10135 0
M  V30 725 C 70.5556 2.09658 -3.69227 0
M  V30 726 O 71.5796 1.69967 -3.13033 0
M  V30 727 O 70.4386 2.8258 -4.67772 0
M  V30 728 H 67.5326 0.457653 -0.688827 0
M  V30 729 H 70.0786 0.224073 -1.68214 0
M  V30 730 H 68.8506 0.844105 -3.82087 0
M  V30 731 H 68.4736 2.42336 -3.15212 0
M  V30 732 N 69.4707 1.49531 0.497807 0
M  V30 733 C 70.3807 1.69176 1.62532 0
M  V30 734 C 71.3967 0.5744 1.64246 0
M  V30 735 O 72.5727 0.849497 1.82608 0
M  V30 736 C 69.6377 1.75695 2.98885 0
M  V30 737 C 68.6987 2.9929 3.07773 0
M  V30 738 C 67.9317 3.05488 4.37622 0
M  V30 739 O 68.1547 2.19192 5.26603 0
M  V30 740 O 67.0887 3.9798 4.51548 0
M  V30 741 H 70.9147 2.647 1.48887 0
M  V30 742 H 68.4997 1.3331 0.674441 0
M  V30 743 H 70.3817 1.82317 3.79919 0
M  V30 744 H 69.0567 0.8335 3.12785 0
M  V30 745 H 67.9637 2.98183 2.25915 0
M  V30 746 H 69.2967 3.91125 2.98801 0
M  V30 747 N 70.9488 -0.749086 1.3866 0
M  V30 748 C 71.8968 -1.88428 1.36373 0
M  V30 749 C 72.8908 -1.67561 0.248929 0
M  V30 750 O 74.0968 -1.75074 0.41821 0
M  V30 751 H 70.4718 -0.620023 0.42553 0
M  V30 752 H 72.4428 -1.87473 2.32156 0
M  V30 753 C 71.1918 -3.25961 1.21014 0
M  V30 754 H 70.5148 -3.42607 2.06059 0
M  V30 755 H 71.9548 -4.05625 1.23469 0
M  V30 756 C 70.4138 -3.36799 -0.0825941 0
M  V30 757 O 70.9438 -3.87517 -1.05797 0
M  V30 758 N 69.1498 -2.90258 -0.140939 0
M  V30 759 H 68.6968 -2.49174 0.653477 0
M  V30 760 H 68.6548 -2.97889 -1.00545 0
M  V30 761 N 72.4269 -1.23603 -0.977757 0
M  V30 762 C 73.6549 -1.09646 -1.75458 0
M  V30 763 C 74.0699 0.351859 -1.85492 0
M  V30 764 O 73.4269 1.24327 -1.336 0
M  V30 765 C 73.4779 -1.71895 -3.18016 0
M  V30 766 O 73.1989 -3.11063 -3.08498 0
M  V30 767 C 74.6999 -1.63415 -4.12081 0
M  V30 768 H 71.9199 -0.38359 -0.550545 0
M  V30 769 H 74.4639 -1.63507 -1.22824 0
M  V30 770 H 72.6189 -1.22061 -3.67668 0
M  V30 771 H 73.0329 -3.41305 -3.9826 0
M  V30 772 H 74.5069 -2.11669 -5.09804 0
M  V30 773 H 74.9839 -0.593462 -4.35172 0
M  V30 774 H 75.5899 -2.12628 -3.68334 0
M  V30 775 N 73.905 1.17692 -1.04816 0
M  V30 776 C 75.154 1.87192 -0.751132 0
M  V30 777 C 75.467 1.8169 0.724441 0
M  V30 778 O 76.673 2.46625 1.13527 0
M  V30 779 C 75.129 3.35857 -1.29338 0
M  V30 780 C 74.737 3.4987 -2.79812 0
M  V30 781 C 76.481 4.10709 -1.07322 0
M  V30 782 C 74.388 4.92536 -3.27356 0
M  V30 783 H 73.318 0.701162 -0.277288 0
M  V30 784 H 75.969 1.32932 -1.26496 0
M  V30 785 H 74.351 3.89631 -0.707376 0
M  V30 786 H 75.525 3.06332 -3.44235 0
M  V30 787 H 73.84 2.88433 -3.00325 0
M  V30 788 H 76.437 5.15952 -1.4035 0
M  V30 789 H 76.78 4.16299 -0.0108001 0
M  V30 790 H 77.313 3.6313 -1.62423 0
M  V30 791 H 74.052 4.92119 -4.33012 0
M  V30 792 H 73.572 5.3676 -2.67673 0
M  V30 793 H 75.251 5.61288 -3.21815 0
M  V30 794 N 75.3831 0.828654 1.34056 0
M  V30 795 C 76.6131 0.431993 2.02033 0
M  V30 796 C 77.0211 -0.96844 1.62536 0
M  V30 797 O 76.3641 -1.6391 0.829408 0
M  V30 798 C 76.4261 0.461224 3.56529 0
M  V30 799 C 76.0901 1.81599 4.1937 0
M  V30 800 C 77.0871 2.7777 4.39477 0
M  V30 801 C 74.7721 2.10604 4.56017 0
M  V30 802 C 76.7661 4.01115 4.95364 0
M  V30 803 C 74.4531 3.34207 5.11614 0
M  V30 804 C 75.4511 4.2928 5.31232 0
M  V30 805 O 75.1391 5.50699 5.8565 0
M  V30 806 H 74.8711 0.170943 0.654029 0
M  V30 807 H 77.4251 1.11988 1.72185 0
M  V30 808 H 75.6551 -0.283388 3.8566 0
M  V30 809 H 77.3441 0.0838149 4.05813 0
M  V30 810 H 78.1101 2.56659 4.11523 0
M  V30 811 H 73.9891 1.37402 4.40047 0
M  V30 812 H 77.5331 4.75333 5.10592 0
M  V30 813 H 73.4301 3.55179 5.38997 0
M  V30 814 H 74.1981 5.52298 6.04077 0
M  V30 815 N 76.8612 -1.46375 0.584142 0
M  V30 816 C 77.7912 -2.33103 -0.136037 0
M  V30 817 C 78.7722 -1.45431 -0.882255 0
M  V30 818 O 79.9572 -1.74246 -0.857434 0
M  V30 819 C 77.0872 -3.27731 -1.14933 0
M  V30 820 C 76.0412 -4.24855 -0.517862 0
M  V30 821 C 75.3672 -5.09001 -1.63773 0
M  V30 822 C 76.6672 -5.19439 0.545886 0
M  V30 823 H 78.3612 -2.93568 0.588086 0
M  V30 824 H 75.9072 -1.41166 0.284259 0
M  V30 825 H 77.8602 -3.87261 -1.66153 0
M  V30 826 H 76.5842 -2.65377 -1.90375 0
M  V30 827 H 75.2432 -3.6659 -0.0267361 0
M  V30 828 H 74.8912 -4.43031 -2.38185 0
M  V30 829 H 74.5912 -5.74777 -1.22085 0
M  V30 830 H 76.1152 -5.71396 -2.15266 0
M  V30 831 H 77.5292 -5.73177 0.118704 0
M  V30 832 H 75.9262 -5.93566 0.88317 0
M  V30 833 H 76.9962 -4.63285 1.43162 0
M  V30 834 N 78.3393 -0.321999 -1.54275 0
M  V30 835 C 79.7553 0.0306999 -1.5957 0
M  V30 836 C 79.9553 1.50614 -1.33857 0
M  V30 837 O 79.0113 2.2619 -1.12223 0
M  V30 838 C 80.3243 -0.386122 -2.98211 0
M  V30 839 C 81.8723 -0.336647 -3.11184 0
M  V30 840 C 82.3473 -0.728607 -4.52167 0
M  V30 841 N 83.8383 -0.681952 -4.58152 0
M  V30 842 C 84.5733 -0.957449 -5.6535 0
M  V30 843 N 84.0693 -1.3 -6.80494 0
M  V30 844 N 85.8623 -0.883113 -5.55119 0
M  V30 845 H 78.0133 -1.28332 -1.69247 0
M  V30 846 H 80.2763 -0.521716 -0.791528 0
M  V30 847 H 79.9823 -1.41404 -3.22022 0
M  V30 848 H 79.8563 0.249662 -3.76373 0
M  V30 849 H 82.2433 0.682058 -2.8711 0
M  V30 850 H 82.3243 -1.00734 -2.3513 0
M  V30 851 H 81.9683 -1.74522 -4.76974 0
M  V30 852 H 81.8983 -0.0356152 -5.26588 0
M  V30 853 H 84.3893 -0.428985 -3.75457 0
M  V30 854 H 84.7023 -1.49563 -7.58189 0
M  V30 855 H 83.0473 -1.33824 -6.81994 0
M  V30 856 H 86.2383 -0.615001 -4.64042 0
M  V30 857 H 86.4113 -1.10118 -6.38575 0
M  V30 858 N 79.8174 1.5752 -0.0501392 0
M  V30 859 C 81.0424 1.97376 0.636997 0
M  V30 860 C 81.4674 0.927466 1.63645 0
M  V30 861 O 80.8254 -0.10941 1.8097 0
M  V30 862 C 80.8734 3.36304 1.30123 0
M  V30 863 O 79.9774 3.34156 2.41689 0
M  V30 864 H 79.3184 0.642998 0.165679 0
M  V30 865 H 81.8484 2.04258 -0.118233 0
M  V30 866 H 81.8584 3.73008 1.65315 0
M  V30 867 H 80.5334 4.11993 0.568746 0
M  V30 868 H 79.1104 3.09196 2.08451 0
M  V30 869 N 81.2955 -0.223234 1.56011 0
M  V30 870 C 82.2255 -1.27988 1.95298 0
M  V30 871 C 83.2065 -1.48976 0.820979 0
M  V30 872 O 84.3915 -1.61188 1.08315 0
M  V30 873 C 81.5215 -2.63 2.26822 0
M  V30 874 C 80.4755 -2.56671 3.42497 0
M  V30 875 C 79.8015 -3.95697 3.59622 0
M  V30 876 C 81.1015 -2.11601 4.77517 0
M  V30 877 H 82.7955 -0.953525 2.8381 0
M  V30 878 H 80.3415 -0.457244 1.36548 0
M  V30 879 H 82.2945 -3.37077 2.52898 0
M  V30 880 H 81.0185 -2.9732 1.35161 0
M  V30 881 H 79.6775 -1.85051 3.16467 0
M  V30 882 H 79.3255 -4.27322 2.6534 0
M  V30 883 H 79.0255 -3.92345 4.37424 0
M  V30 884 H 80.5495 -4.71438 3.88044 0
M  V30 885 H 81.9635 -2.7542 5.02809 0
M  V30 886 H 80.3605 -2.19311 5.5859 0
M  V30 887 H 81.4305 -1.06824 4.72987 0
M  V30 888 N 82.7736 -1.49793 -0.48987 0
M  V30 889 C 83.6836 -1.70036 -1.61632 0
M  V30 890 C 84.6996 -0.583102 -1.63939 0
M  V30 891 O 85.8756 -0.859169 -1.82154 0
M  V30 892 C 82.9406 -1.77277 -2.97949 0
M  V30 893 C 82.0016 -3.00918 -3.06181 0
M  V30 894 C 81.2346 -3.07804 -4.35996 0
M  V30 895 O 81.4576 -2.21982 -5.25433 0
M  V30 896 O 80.3916 -4.00369 -4.49431 0
M  V30 897 H 84.2176 -2.65486 -1.47482 0
M  V30 898 H 81.8026 -1.33666 -0.667362 0
M  V30 899 H 83.6846 -1.84329 -3.78947 0
M  V30 900 H 82.3596 -0.850076 -3.12339 0
M  V30 901 H 81.2666 -2.99377 -2.2433 0
M  V30 902 H 82.5996 -3.92704 -2.96723 0
M  V30 903 N 84.2517 0.741722 -1.39055 0
M  V30 904 C 85.1617 1.88621 -1.39496 0
M  V30 905 C 86.1777 1.71557 -0.290578 0
M  V30 906 O 87.3537 1.94275 -0.530954 0
M  V30 907 C 84.4187 3.24134 -1.23037 0
M  V30 908 C 83.4797 3.5364 -2.43387 0
M  V30 909 C 82.7127 4.82687 -2.27703 0
M  V30 910 O 82.9357 5.55922 -1.27696 0
M  V30 911 O 81.8697 5.1194 -3.16545 0
M  V30 912 H 85.6957 1.91203 -2.35956 0
M  V30 913 H 83.2807 0.888625 -1.20099 0
M  V30 914 H 85.1627 4.0513 -1.15964 0
M  V30 915 H 83.8377 3.22337 -0.296691 0
M  V30 916 H 82.7447 2.72758 -2.56035 0
M  V30 917 H 84.0777 3.60209 -3.35425 0
M  V30 918 N 85.7298 1.2412 0.971189 0
M  V30 919 C 86.9768 1.07881 1.71371 0
M  V30 920 C 87.3048 -0.382901 1.90694 0
M  V30 921 O 86.5598 -1.29945 1.46331 0
M  V30 922 C 86.8588 1.75983 3.11071 0
M  V30 923 C 86.5248 3.25909 3.11599 0
M  V30 924 C 85.1868 3.66813 3.11451 0
M  V30 925 C 87.5388 4.21771 3.062 0
M  V30 926 C 84.8668 5.02021 3.03631 0
M  V30 927 C 87.2188 5.56982 2.99923 0
M  V30 928 C 85.8828 5.97237 2.98102 0
M  V30 929 H 85.1528 0.394764 0.62709 0
M  V30 930 H 87.7998 1.54176 1.13587 0
M  V30 931 H 86.1048 1.22072 3.72298 0
M  V30 932 H 87.8018 1.60887 3.6731 0
M  V30 933 H 84.3918 2.93353 3.12477 0
M  V30 934 H 88.5758 3.91172 3.05447 0
M  V30 935 H 83.8318 5.32411 3.0058 0
M  V30 936 H 88.0058 6.30969 2.94704 0
M  V30 937 H 85.6328 7.01967 2.91798 0
M  V30 938 N 87.2079 -1.17134 1.05439 0
M  V30 939 C 88.4569 -1.86791 0.761049 0
M  V30 940 C 88.7699 -1.82072 -0.714795 0
M  V30 941 O 89.9759 -2.47223 -1.12218 0
M  V30 942 C 88.4319 -3.35166 1.31117 0
M  V30 943 C 88.0399 -3.48381 2.81664 0
M  V30 944 C 89.7839 -4.10134 1.09499 0
M  V30 945 C 87.6909 -4.90793 3.29964 0
M  V30 946 H 86.6209 -0.699681 0.281002 0
M  V30 947 H 89.2719 -1.3226 1.27199 0
M  V30 948 H 87.6539 -3.8925 0.72803 0
M  V30 949 H 88.8279 -3.04502 3.45855 0
M  V30 950 H 87.1429 -2.86836 3.01851 0
M  V30 951 H 89.7399 -5.152 1.43084 0
M  V30 952 H 90.0829 -4.16287 0.0328772 0
M  V30 953 H 90.6159 -3.62264 1.64346 0
M  V30 954 H 87.3549 -4.89816 4.35616 0
M  V30 955 H 86.8749 -5.35333 2.70516 0
M  V30 956 H 88.5539 -5.59573 3.24787 0
M  V30 957 N 88.686 -0.835752 -1.33615 0
M  V30 958 C 89.636 -0.238856 -2.26745 0
M  V30 959 C 90.62 0.604343 -1.49119 0
M  V30 960 O 91.812 0.456822 -1.71003 0
M  V30 961 C 88.941 0.587725 -3.38232 0
M  V30 962 C 88.027 -0.266811 -4.2326 0
M  V30 963 N 88.418 -1.34403 -4.87616 0
M  V30 964 C 86.716 -0.0533131 -4.45968 0
M  V30 965 C 87.417 -1.86819 -5.50884 0
M  V30 966 N 86.393 -1.17013 -5.30857 0
M  V30 967 H 90.195 -1.06266 -2.74016 0
M  V30 968 H 87.709 -0.679881 -1.47483 0
M  V30 969 H 89.706 1.03161 -4.03935 0
M  V30 970 H 88.366 1.40954 -2.9251 0
M  V30 971 H 89.377 -1.7269 -4.88261 0
M  V30 972 H 86.054 0.735312 -4.10974 0
M  V30 973 H 87.444 -2.7701 -6.1214 0
M  V30 974 N 90.1641 1.46063 -0.591896 0
M  V30 975 C 91.1141 2.27458 0.157172 0
M  V30 976 C 92.0981 1.3641 0.853301 0
M  V30 977 O 93.2901 1.60517 0.74588 0
M  V30 978 C 90.4191 3.22956 1.16423 0
M  V30 979 C 89.5051 4.2149 0.469742 0
M  V30 980 N 89.8961 5.03519 -0.479839 0
M  V30 981 C 88.1941 4.40161 0.719319 0
M  V30 982 C 88.8951 5.74904 -0.886591 0
M  V30 983 N 87.8711 5.43097 -0.233731 0
M  V30 984 H 91.6731 2.88272 -0.572392 0
M  V30 985 H 89.1871 1.57024 -0.414375 0
M  V30 986 H 91.1841 3.79986 1.71513 0
M  V30 987 H 89.8441 2.63701 1.89451 0
M  V30 988 H 90.8551 5.1078 -0.855823 0
M  V30 989 H 87.5321 3.92046 1.43548 0
M  V30 990 H 88.9221 6.50844 -1.66888 0
M  V30 991 N 91.6422 0.330177 1.54103 0
M  V30 992 C 92.5902 -0.548226 2.26047 0
M  V30 993 C 93.5842 -1.11309 1.27698 0
M  V30 994 O 94.7902 -1.06036 1.45452 0
M  V30 995 H 91.1652 -0.195456 0.726155 0
M  V30 996 H 93.1362 0.0807567 2.98291 0
M  V30 997 C 91.8852 -1.69415 3.03634 0
M  V30 998 H 91.2082 -1.26876 3.79134 0
M  V30 999 H 92.6482 -2.28423 3.5721 0
M  V30 1000 C 91.1072 -2.61569 2.12328 0
M  V30 1001 O 91.6372 -3.63462 1.7105 0
M  V30 1002 N 89.8432 -2.29952 1.77681 0
M  V30 1003 H 89.3902 -1.47134 2.11446 0
M  V30 1004 H 89.3482 -2.91871 1.16869 0
M  V30 1005 N 93.1203 -1.57491 0.0584922 0
M  V30 1006 C 94.0503 -2.14988 -0.911178 0
M  V30 1007 C 95.0313 -1.07343 -1.31952 0
M  V30 1008 O 96.2163 -1.35318 -1.39294 0
M  V30 1009 C 93.3463 -2.70078 -2.18347 0
M  V30 1010 C 92.3003 -3.82771 -1.91495 0
M  V30 1011 C 91.6263 -4.24408 -3.25241 0
M  V30 1012 C 92.9263 -5.07592 -1.23075 0
M  V30 1013 H 94.6203 -2.96263 -0.432246 0
M  V30 1014 H 92.1663 -1.42512 -0.206469 0
M  V30 1015 H 94.1193 -3.08943 -2.86587 0
M  V30 1016 H 92.8433 -1.86005 -2.68458 0
M  V30 1017 H 91.5023 -3.44389 -1.25664 0
M  V30 1018 H 91.1503 -3.37275 -3.73168 0
M  V30 1019 H 90.8503 -5.00366 -3.08071 0
M  V30 1020 H 92.3743 -4.65879 -3.94701 0
M  V30 1021 H 93.7883 -5.43857 -1.81362 0
M  V30 1022 H 92.1853 -5.88741 -1.16207 0
M  V30 1023 H 93.2553 -4.84454 -0.207847 0
M  V30 1024 N 94.5984 0.214957 -1.56127 0
M  V30 1025 C 95.8444 0.939762 -1.79712 0
M  V30 1026 C 96.1774 1.83723 -0.629247 0
M  V30 1027 O 95.4524 1.90925 0.371197 0
M  V30 1028 C 95.7354 1.77306 -3.13424 0
M  V30 1029 C 95.5884 0.90164 -4.40671 0
M  V30 1030 C 96.9074 2.74956 -3.43638 0
M  V30 1031 H 94.0264 0.340214 -0.653776 0
M  V30 1032 H 96.6684 0.20824 -1.88855 0
M  V30 1033 H 94.8184 2.39673 -3.0576 0
M  V30 1034 H 96.4904 0.294206 -4.60361 0
M  V30 1035 H 94.7334 0.207368 -4.33304 0
M  V30 1036 H 95.4044 1.51923 -5.30682 0
M  V30 1037 H 97.8804 2.22724 -3.51473 0
M  V30 1038 H 96.7564 3.30358 -4.38355 0
M  V30 1039 H 97.0174 3.53023 -2.66134 0
M  V30 1040 N 96.0765 1.50051 0.48192 0
M  V30 1041 C 97.0065 1.71046 1.58951 0
M  V30 1042 C 97.9875 0.559288 1.60642 0
M  V30 1043 O 99.1725 0.797243 1.77081 0
M  V30 1044 C 96.3025 1.79462 2.97339 0
M  V30 1045 C 95.2565 2.94558 3.10515 0
M  V30 1046 C 94.5825 2.88105 4.50444 0
M  V30 1047 C 95.8825 4.35227 2.88747 0
M  V30 1048 H 97.5765 2.6378 1.41635 0
M  V30 1049 H 95.1225 1.26936 0.679942 0
M  V30 1050 H 97.0755 1.92734 3.74742 0
M  V30 1051 H 95.7995 0.833412 3.15788 0
M  V30 1052 H 94.4585 2.80918 2.35543 0
M  V30 1053 H 94.1065 1.89853 4.65795 0
M  V30 1054 H 93.8065 3.65366 4.60197 0
M  V30 1055 H 95.3305 3.03412 5.29881 0
M  V30 1056 H 96.7445 4.49449 3.55905 0
M  V30 1057 H 95.1415 5.13856 3.09955 0
M  V30 1058 H 96.2115 4.48347 1.84696 0
M  V30 1059 N 97.5546 -0.734337 1.39446 0
M  V30 1060 C 98.9706 -1.03997 1.21065 0
M  V30 1061 C 99.1706 -2.01369 0.0727019 0
M  V30 1062 O 98.2266 -2.45856 -0.575426 0
M  V30 1063 C 99.5396 -1.60163 2.54496 0
M  V30 1064 C 101.088 -1.7224 2.61347 0
M  V30 1065 C 101.563 -2.31814 3.95002 0
M  V30 1066 N 103.054 -2.39223 3.96644 0
M  V30 1067 C 103.789 -2.86258 4.96834 0
M  V30 1068 N 103.285 -3.33184 6.07421 0
M  V30 1069 N 105.078 -2.85473 4.84213 0
M  V30 1070 H 97.2286 -0.0885624 2.12215 0
M  V30 1071 H 99.4916 -0.10191 0.942506 0
M  V30 1072 H 99.1976 -0.960811 3.38321 0
M  V30 1073 H 99.0716 -2.5896 2.74262 0
M  V30 1074 H 101.459 -2.35443 1.77906 0
M  V30 1075 H 101.54 -0.720939 2.4543 0
M  V30 1076 H 101.184 -1.69238 4.78875 0
M  V30 1077 H 101.114 -3.32638 4.08239 0
M  V30 1078 H 103.605 -2.06057 3.16779 0
M  V30 1079 H 103.918 -3.67586 6.7978 0
M  V30 1080 H 102.263 -3.31191 6.11013 0
M  V30 1081 H 105.454 -2.48136 3.96921 0
M  V30 1082 H 105.627 -3.21814 5.62441 0
M  V30 1083 N 99.0327 -1.24633 -0.964593 0
M  V30 1084 C 99.9647 -0.999302 -2.06268 0
M  V30 1085 C 100.978 0.0323226 -1.62768 0
M  V30 1086 O 102.167 -0.205079 -1.77318 0
M  V30 1087 C 99.2667 -0.486816 -3.35385 0
M  V30 1088 C 98.4397 -1.5823 -4.07777 0
M  V30 1089 C 97.4987 -1.07191 -5.15166 0
M  V30 1090 O 96.5247 -1.76426 -5.41168 0
M  V30 1091 N 97.7267 0.0920373 -5.80427 0
M  V30 1092 H 100.492 -1.94477 -2.28033 0
M  V30 1093 H 98.0527 -1.15704 -1.13244 0
M  V30 1094 H 100.045 -0.130066 -4.04491 0
M  V30 1095 H 98.6147 0.364459 -3.10468 0
M  V30 1096 H 97.8347 -2.11109 -3.32906 0
M  V30 1097 H 99.1227 -2.31854 -4.52903 0
M  V30 1098 H 98.5207 0.670784 -5.61709 0
M  V30 1099 H 97.0777 0.389905 -6.50633 0
M  V30 1100 N 100.511 1.16574 -1.06058 0
M  V30 1101 C 101.759 1.86677 -0.77434 0
M  V30 1102 C 102.08 1.81959 0.701147 0
M  V30 1103 O 101.35 1.2515 1.50713 0
M  V30 1104 H 99.9298 0.691134 -0.283449 0
M  V30 1105 H 102.592 1.41378 -1.34158 0
M  V30 1106 H 101.688 2.92181 -1.09711 0
M  V30 1107 N 101.989 0.842826 1.3317 0
M  V30 1108 C 103.4 0.496651 1.79973 0
M  V30 1109 C 103.751 -0.984641 1.69703 0
M  V30 1110 O 102.876 -1.76743 1.24863 0
M  V30 1111 C 103.471 0.894727 3.26772 0
M  V30 1112 C 102.03 0.600629 3.71577 0
M  V30 1113 C 101.177 1.10091 2.5451 0
M  V30 1114 H 104.128 1.03116 1.20635 0
M  V30 1115 H 104.149 0.206347 3.7994 0
M  V30 1116 H 103.661 1.97287 3.34215 0
M  V30 1117 H 101.762 -0.467284 3.69658 0
M  V30 1118 H 101.875 1.15863 4.64879 0
M  V30 1119 H 100.239 0.52162 2.49301 0
M  V30 1120 H 101.022 2.18591 2.64713 0
M  V30 1121 N 103.467 -1.45747 0.599634 0
M  V30 1122 C 104.716 -2.01502 0.0893511 0
M  V30 1123 C 105.029 -1.4748 -1.28488 0
M  V30 1124 O 106.235 -1.95161 -1.88745 0
M  V30 1125 C 104.691 -3.59735 0.109082 0
M  V30 1126 C 104.299 -4.22754 1.48267 0
M  V30 1127 C 106.043 -4.23085 -0.346374 0
M  V30 1128 C 103.95 -5.73115 1.45921 0
M  V30 1129 H 102.88 -0.753417 0.0296347 0
M  V30 1130 H 105.531 -1.67303 0.753788 0
M  V30 1131 H 103.913 -3.91087 -0.621854 0
M  V30 1132 H 105.087 -4.02987 2.23468 0
M  V30 1133 H 103.402 -3.71567 1.87955 0
M  V30 1134 H 105.999 -5.33327 -0.38298 0
M  V30 1135 H 106.342 -3.93201 -1.36743 0
M  V30 1136 H 106.875 -3.9642 0.331038 0
M  V30 1137 H 103.614 -6.07685 2.45762 0
M  V30 1138 H 103.134 -5.95097 0.749665 0
M  V30 1139 H 104.813 -6.3616 1.17941 0
M  V30 1140 N 104.945 -0.338344 -1.53925 0
M  V30 1141 C 105.908 0.508299 -2.23493 0
M  V30 1142 C 106.908 1.03175 -1.23335 0
M  V30 1143 O 108.098 0.921826 -1.47811 0
M  V30 1144 C 105.23 1.70754 -2.95052 0
M  V30 1145 H 106.423 -0.100058 -2.99733 0
M  V30 1146 H 103.976 -0.0896198 -1.56043 0
M  V30 1147 H 104.711 2.35474 -2.22986 0
M  V30 1148 H 104.496 1.33946 -3.68512 0
M  V30 1149 H 105.986 2.30818 -3.48013 0
M  V30 1150 N 106.423 1.57458 -0.0668435 0
M  V30 1151 C 107.386 2.11323 0.887422 0
M  V30 1152 C 108.386 1.03618 1.22964 0
M  V30 1153 O 109.576 1.29626 1.16373 0
M  V30 1154 C 106.708 2.61048 2.19242 0
M  V30 1155 H 107.901 2.96942 0.420194 0
M  V30 1156 H 105.454 1.55239 0.181793 0
M  V30 1157 H 106.189 1.78868 2.70512 0
M  V30 1158 H 105.974 3.39769 1.95702 0
M  V30 1159 H 107.464 3.02814 2.87565 0
M  V30 1160 N 107.901 -0.206675 1.56239 0
M  V30 1161 C 109.147 -0.930218 1.80208 0
M  V30 1162 C 109.48 -1.83387 0.638981 0
M  V30 1163 O 108.755 -1.91119 -0.361066 0
M  V30 1164 C 109.038 -1.75641 3.1436 0
M  V30 1165 C 108.891 -0.878257 4.41142 0
M  V30 1166 C 110.21 -2.73129 3.45092 0
M  V30 1167 H 107.329 -0.336742 0.655571 0
M  V30 1168 H 109.971 -0.198222 1.88963 0
M  V30 1169 H 108.121 -2.38048 3.07027 0
M  V30 1170 H 109.793 -0.269787 4.6051 0
M  V30 1171 H 108.036 -0.184385 4.33408 0
M  V30 1172 H 108.707 -1.49106 5.3148 0
M  V30 1173 H 111.183 -2.20856 3.52649 0
M  V30 1174 H 110.059 -3.28028 4.40101 0
M  V30 1175 H 110.32 -3.51606 2.68003 0
M  V30 1176 N 109.379 -1.50304 -0.473955 0
M  V30 1177 C 110.342 -1.6841 -1.55469 0
M  V30 1178 C 111.342 -0.554905 -1.50922 0
M  V30 1179 O 112.532 -0.821882 -1.53593 0
M  V30 1180 C 109.664 -1.70667 -2.95102 0
M  V30 1181 H 110.857 -2.64828 -1.40733 0
M  V30 1182 H 108.41 -1.39742 -0.700132 0
M  V30 1183 H 109.145 -0.75932 -3.15285 0
M  V30 1184 H 108.93 -2.52698 -2.9981 0
M  V30 1185 H 110.42 -1.8664 -3.73571 0
M  V30 1186 N 110.857 0.726932 -1.39834 0
M  V30 1187 C 111.82 1.82269 -1.38962 0
M  V30 1188 C 112.82 1.58248 -0.285334 0
M  V30 1189 O 114.01 1.65499 -0.54366 0
M  V30 1190 C 111.142 3.20186 -1.17019 0
M  V30 1191 H 112.335 1.84443 -2.36476 0
M  V30 1192 H 109.888 0.931416 -1.25516 0
M  V30 1193 H 110.623 3.23669 -0.202204 0
M  V30 1194 H 110.408 3.3902 -1.96998 0
M  V30 1195 H 111.898 4.00235 -1.1917 0
M  V30 1196 N 112.336 1.25143 0.95797 0
M  V30 1197 C 113.583 1.09692 1.70217 0
M  V30 1198 C 113.911 -0.362654 1.91089 0
M  V30 1199 O 113.166 -1.28386 1.47701 0
M  V30 1200 C 113.465 1.79272 3.09187 0
M  V30 1201 C 113.131 3.29196 3.08125 0
M  V30 1202 C 111.793 3.70096 3.07543 0
M  V30 1203 C 114.145 4.24995 3.0171 0
M  V30 1204 C 111.473 5.05213 2.9829 0
M  V30 1205 C 113.825 5.60132 2.93999 0
M  V30 1206 C 112.489 6.00365 2.9175 0
M  V30 1207 H 111.759 0.401393 0.622868 0
M  V30 1208 H 114.406 1.55372 1.11945 0
M  V30 1209 H 112.711 1.26014 3.70982 0
M  V30 1210 H 114.408 1.64773 3.65583 0
M  V30 1211 H 110.998 2.96651 3.09348 0
M  V30 1212 H 115.182 3.9439 3.01281 0
M  V30 1213 H 110.438 5.35569 2.94916 0
M  V30 1214 H 114.612 6.3406 2.87996 0
M  V30 1215 H 112.239 7.05023 2.84336 0
M  V30 1216 N 113.814 -1.1601 1.06675 0
M  V30 1217 C 114.777 -2.18724 0.685001 0
M  V30 1218 C 115.777 -1.58496 -0.271246 0
M  V30 1219 O 116.967 -1.74119 -0.0531156 0
M  V30 1220 C 114.099 -3.40899 0.00853648 0
M  V30 1221 H 115.292 -2.54011 1.59431 0
M  V30 1222 H 112.845 -1.30352 0.862441 0
M  V30 1223 H 113.58 -3.11173 -0.913337 0
M  V30 1224 H 113.365 -3.8587 0.696204 0
M  V30 1225 H 114.855 -4.16886 -0.24414 0
M  V30 1226 N 115.292 -0.849877 -1.32721 0
M  V30 1227 C 116.522 -0.46408 -2.0132 0
M  V30 1228 C 116.93 0.94246 -1.64056 0
M  V30 1229 O 116.273 1.6257 -0.855379 0
M  V30 1230 C 116.335 -0.517887 -3.5575 0
M  V30 1231 C 115.999 -1.88248 -4.16427 0
M  V30 1232 C 116.996 -2.84726 -4.35002 0
M  V30 1233 C 114.681 -2.17832 -4.52609 0
M  V30 1234 C 116.675 -4.08945 -4.8892 0
M  V30 1235 C 114.362 -3.42304 -5.06232 0
M  V30 1236 C 115.36 -4.37677 -5.24335 0
M  V30 1237 O 115.048 -5.59946 -5.76815 0
M  V30 1238 H 114.78 -0.181327 -0.651227 0
M  V30 1239 H 117.334 -1.14713 -1.70382 0
M  V30 1240 H 115.564 0.221997 -3.86062 0
M  V30 1241 H 117.253 -0.148366 -4.05629 0
M  V30 1242 H 118.019 -2.63174 -4.07388 0
M  V30 1243 H 113.898 -1.44385 -4.37806 0
M  V30 1244 H 117.442 -4.83396 -5.02966 0
M  V30 1245 H 113.339 -3.63709 -5.33278 0
M  V30 1246 H 114.107 -5.61838 -5.95214 0
M  V30 1247 N 116.77 1.45427 -0.607355 0
M  V30 1248 C 118.186 1.57283 -0.270985 0
M  V30 1249 C 118.386 1.59875 1.22647 0
M  V30 1250 O 117.442 1.52893 2.00948 0
M  V30 1251 C 118.755 2.85566 -0.941952 0
M  V30 1252 C 120.303 2.9924 -0.917849 0
M  V30 1253 C 120.778 4.30293 -1.56882 0
M  V30 1254 N 122.269 4.37051 -1.5343 0
M  V30 1255 C 123.004 5.37123 -2.00715 0
M  V30 1256 N 122.5 6.43734 -2.56084 0
M  V30 1257 N 124.293 5.28479 -1.91484 0
M  V30 1258 H 116.444 1.41988 -1.57966 0
M  V30 1259 H 118.707 0.67885 -0.661715 0
M  V30 1260 H 118.413 2.8955 -1.99633 0
M  V30 1261 H 118.287 3.74322 -0.465096 0
M  V30 1262 H 120.674 2.94822 0.127984 0
M  V30 1263 H 120.755 2.11895 -1.43297 0
M  V30 1264 H 120.399 4.35469 -2.61398 0
M  V30 1265 H 120.329 5.16454 -1.02873 0
M  V30 1266 H 122.82 3.60615 -1.12982 0
M  V30 1267 H 123.133 7.16341 -2.89958 0
M  V30 1268 H 121.478 6.44485 -2.60122 0
M  V30 1269 H 124.669 4.44098 -1.47967 0
M  V30 1270 H 124.842 6.0632 -2.28648 0
M  V30 1271 N 118.248 0.346503 1.53744 0
M  V30 1272 C 119.494 -0.249473 2.0126 0
M  V30 1273 C 119.827 -1.49965 1.23386 0
M  V30 1274 O 119.102 -1.91811 0.32229 0
M  V30 1275 C 119.385 -0.560643 3.55709 0
M  V30 1276 C 119.238 0.701836 4.44291 0
M  V30 1277 C 120.557 -1.36905 4.18264 0
M  V30 1278 H 117.676 -0.0891987 0.731582 0
M  V30 1279 H 120.318 0.467624 1.84156 0
M  V30 1280 H 118.468 -1.17156 3.70414 0
M  V30 1281 H 120.14 1.33974 4.41417 0
M  V30 1282 H 118.383 1.32612 4.13033 0
M  V30 1283 H 119.054 0.43933 5.50249 0
M  V30 1284 H 121.53 -0.852448 4.07275 0
M  V30 1285 H 120.406 -1.55553 5.26398 0
M  V30 1286 H 120.667 -2.37203 3.73078 0
M  V30 1287 N 119.726 -1.57421 0.075193 0
M  V30 1288 C 120.673 -2.12915 -0.890843 0
M  V30 1289 C 121.643 -1.04252 -1.29309 0
M  V30 1290 O 122.828 -1.31933 -1.37834 0
M  V30 1291 C 119.968 -2.69795 -2.15186 0
M  V30 1292 C 119.081 -3.92624 -1.80194 0
M  V30 1293 C 118.216 -4.37736 -3.00933 0
M  V30 1294 C 117.255 -5.53205 -2.61974 0
M  V30 1295 N 116.392 -5.9326 -3.75483 0
M  V30 1296 H 121.232 -2.95156 -0.410735 0
M  V30 1297 H 118.769 -1.45854 -0.191086 0
M  V30 1298 H 120.727 -3.00883 -2.89008 0
M  V30 1299 H 119.357 -1.90313 -2.60731 0
M  V30 1300 H 118.409 -3.67977 -0.964218 0
M  V30 1301 H 119.721 -4.76482 -1.47534 0
M  V30 1302 H 118.875 -4.70503 -3.8303 0
M  V30 1303 H 117.614 -3.52739 -3.36789 0
M  V30 1304 H 116.619 -5.20086 -1.783 0
M  V30 1305 H 117.844 -6.39936 -2.27284 0
M  V30 1306 H 115.79 -5.11212 -4.11094 0
M  V30 1307 H 115.707 -6.71865 -3.46602 0
M  V30 1308 H 116.975 -6.30651 -4.58148 0
M  V30 1309 N 121.204 0.198386 -1.56346 0
M  V30 1310 C 122.429 0.939682 -1.84891 0
M  V30 1311 C 122.854 1.76202 -0.658369 0
M  V30 1312 O 122.212 1.76993 0.392851 0
M  V30 1313 C 122.26 1.81428 -3.11635 0
M  V30 1314 O 121.364 2.91265 -2.91956 0
M  V30 1315 H 120.705 0.264807 -0.608912 0
M  V30 1316 H 123.235 0.204695 -2.03573 0
M  V30 1317 H 123.245 2.21958 -3.42343 0
M  V30 1318 H 121.92 1.21004 -3.97908 0
M  V30 1319 H 120.497 2.54514 -2.72538 0
M  V30 1320 N 122.682 1.50554 0.465978 0
M  V30 1321 C 124.093 1.54599 1.04671 0
M  V30 1322 C 124.444 0.352488 1.93008 0
M  V30 1323 O 123.569 -0.534044 2.09707 0
M  V30 1324 C 124.164 2.80166 1.90505 0
M  V30 1325 C 122.723 2.86876 2.43678 0
M  V30 1326 C 121.87 2.48947 1.22151 0
M  V30 1327 H 124.821 1.56744 0.248384 0
M  V30 1328 H 124.842 2.62311 2.75633 0
M  V30 1329 H 124.354 3.67013 1.26186 0
M  V30 1330 H 122.455 2.04393 3.11536 0
M  V30 1331 H 122.568 3.89885 2.78436 0
M  V30 1332 H 120.932 2.01498 1.5579 0
M  V30 1333 H 121.715 3.38107 0.594866 0
M  V30 1334 N 124.16 -0.719506 1.40217 0
M  V30 1335 C 125.123 -1.8153 1.39927 0
M  V30 1336 C 126.123 -1.58095 0.293723 0
M  V30 1337 O 127.313 -1.65209 0.552429 0
M  V30 1338 C 124.445 -3.19561 1.18716 0
M  V30 1339 H 125.638 -1.83186 2.37451 0
M  V30 1340 H 123.191 -0.924746 1.26008 0
M  V30 1341 H 123.926 -3.23557 0.219366 0
M  V30 1342 H 123.711 -3.3797 1.98793 0
M  V30 1343 H 125.201 -3.99598 1.21291 0
M  V30 1344 N 125.638 -1.25649 -0.95132 0
M  V30 1345 C 126.548 -1.08073 -2.08224 0
M  V30 1346 C 127.564 -0.0169666 -1.73992 0
M  V30 1347 O 128.74 -0.218593 -2.0021 0
M  V30 1348 C 125.805 -0.704922 -3.39458 0
M  V30 1349 C 124.866 -1.84699 -3.87537 0
M  V30 1350 C 124.099 -1.48902 -5.12508 0
M  V30 1351 O 124.322 -0.386156 -5.69091 0
M  V30 1352 O 123.256 -2.32033 -5.55378 0
M  V30 1353 H 127.082 -2.02924 -2.25954 0
M  V30 1354 H 124.667 -1.04618 -1.06656 0
M  V30 1355 H 126.549 -0.507609 -4.18332 0
M  V30 1356 H 125.224 0.214291 -3.2299 0
M  V30 1357 H 124.131 -2.09919 -3.09653 0
M  V30 1358 H 125.464 -2.74557 -4.08509 0
M  V30 1359 N 127.117 1.15442 -1.07289 0
M  V30 1360 C 128.363 1.86489 -0.796846 0
M  V30 1361 C 128.696 1.82078 0.675371 0
M  V30 1362 O 127.971 1.24346 1.4956 0
M  V30 1363 C 128.254 3.35626 -1.30489 0
M  V30 1364 C 128.107 3.48673 -2.84161 0
M  V30 1365 C 129.426 4.30357 -0.920907 0
M  V30 1366 H 126.545 0.677144 -0.290939 0
M  V30 1367 H 129.187 1.35633 -1.33056 0
M  V30 1368 H 127.337 3.79068 -0.850883 0
M  V30 1369 H 129.009 3.14099 -3.37846 0
M  V30 1370 H 127.252 2.90253 -3.22391 0
M  V30 1371 H 127.923 4.53453 -3.14777 0
M  V30 1372 H 130.399 3.94871 -1.3121 0
M  V30 1373 H 129.275 5.33193 -1.30372 0
M  V30 1374 H 129.536 4.4176 0.173226 0
M  V30 1375 N 128.595 0.856903 1.32268 0
M  V30 1376 C 129.872 0.382583 1.91822 0
M  V30 1377 C 130.252 -1.13407 1.78051 0
M  V30 1378 O 129.6 -1.95673 1.18001 0
M  V30 1379 C 129.81 0.849446 3.38505 0
M  V30 1380 C 131.158 0.867936 4.15634 0
M  V30 1381 O 132.182 0.794232 3.47232 0
M  V30 1382 O 131.041 0.972286 5.37781 0
M  V30 1383 H 128.135 0.112014 0.819379 0
M  V30 1384 H 130.681 0.943952 1.41024 0
M  V30 1385 H 129.453 1.89267 3.42482 0
M  V30 1386 H 129.076 0.265652 3.96712 0
M  V30 1387 N 130.073 -1.45103 0.615059 0
M  V30 1388 C 131.036 -2.29025 -0.0895485 0
M  V30 1389 C 132.036 -1.40174 -0.787906 0
M  V30 1390 O 133.226 -1.62217 -0.634933 0
M  V30 1391 C 130.358 -3.21376 -1.13711 0
M  V30 1392 H 131.551 -2.92807 0.648382 0
M  V30 1393 H 129.104 -1.51749 0.374444 0
M  V30 1394 H 129.839 -2.6241 -1.90556 0
M  V30 1395 H 129.624 -3.86834 -0.640475 0
M  V30 1396 H 131.114 -3.84459 -1.63036 0
M  V30 1397 N 131.551 -0.354651 -1.53558 0
M  V30 1398 C 132.514 0.484566 -2.24019 0
M  V30 1399 C 133.514 1.01861 -1.24422 0
M  V30 1400 O 134.704 0.906097 -1.4878 0
M  V30 1401 C 131.836 1.67615 -2.96847 0
M  V30 1402 H 133.029 -0.131843 -2.9961 0
M  V30 1403 H 130.582 -0.106165 -1.55939 0
M  V30 1404 H 131.317 2.33095 -2.25471 0
M  V30 1405 H 131.102 1.30029 -3.69912 0
M  V30 1406 H 132.592 2.27114 -3.50441 0
M  V30 1407 N 133.029 1.57378 -0.0835403 0
M  V30 1408 C 133.939 2.16897 0.894021 0
M  V30 1409 C 134.955 1.13528 1.31861 0
M  V30 1410 O 136.131 1.45848 1.3889 0
M  V30 1411 C 133.196 2.72831 2.13925 0
M  V30 1412 C 132.257 3.91115 1.76997 0
M  V30 1413 C 131.49 4.44371 2.95584 0
M  V30 1414 O 131.713 3.96596 4.09961 0
M  V30 1415 O 130.647 5.35549 2.74719 0
M  V30 1416 H 134.473 3.00814 0.417679 0
M  V30 1417 H 132.058 1.48741 0.140181 0
M  V30 1418 H 133.94 3.0863 2.86924 0
M  V30 1419 H 132.615 1.91967 2.60635 0
M  V30 1420 H 131.522 3.60148 1.01214 0
M  V30 1421 H 132.855 4.73307 1.3506 0
M  V30 1422 N 134.507 -0.190092 1.56449 0
M  V30 1423 C 135.47 -1.21925 1.9408 0
M  V30 1424 C 136.47 -1.38176 0.822431 0
M  V30 1425 O 137.66 -1.35903 1.08977 0
M  V30 1426 C 134.792 -2.58773 2.21922 0
M  V30 1427 H 135.985 -0.897464 2.86157 0
M  V30 1428 H 133.538 -0.43181 1.50217 0
M  V30 1429 H 134.273 -2.95998 1.32499 0
M  V30 1430 H 134.058 -2.48348 3.03424 0
M  V30 1431 H 135.548 -3.32978 2.52022 0
M  V30 1432 N 135.985 -1.50799 -0.457987 0
M  V30 1433 C 137.215 -1.65977 -1.23025 0
M  V30 1434 C 137.623 -0.347918 -1.85974 0
M  V30 1435 O 136.966 0.68148 -1.70592 0
M  V30 1436 C 137.028 -2.70309 -2.3701 0
M  V30 1437 C 136.692 -4.135 -1.94594 0
M  V30 1438 C 137.689 -4.98949 -1.46101 0
M  V30 1439 C 135.374 -4.5949 -2.02915 0
M  V30 1440 C 137.368 -6.28442 -1.06489 0
M  V30 1441 C 135.055 -5.88984 -1.62914 0
M  V30 1442 C 136.053 -6.73286 -1.1478 0
M  V30 1443 O 135.741 -8.00362 -0.75339 0
M  V30 1444 H 135.473 -0.56064 -0.377702 0
M  V30 1445 H 138.027 -1.97857 -0.551537 0
M  V30 1446 H 136.257 -2.337 -3.08093 0
M  V30 1447 H 137.946 -2.74574 -2.98938 0
M  V30 1448 H 138.712 -4.6463 -1.39084 0
M  V30 1449 H 134.591 -3.94009 -2.39328 0
M  V30 1450 H 138.135 -6.94194 -0.688488 0
M  V30 1451 H 134.032 -6.22822 -1.69595 0
M  V30 1452 H 134.8 -8.13744 -0.88108 0
M  V30 1453 N 137.463 0.71206 -1.40597 0
M  V30 1454 C 138.693 1.49894 -1.42181 0
M  V30 1455 C 139.101 1.89189 -0.0208078 0
M  V30 1456 O 138.444 1.56223 0.966436 0
M  V30 1457 C 138.506 2.80215 -2.25211 0
M  V30 1458 C 138.17 2.63221 -3.73582 0
M  V30 1459 C 139.167 2.30249 -4.66135 0
M  V30 1460 C 136.852 2.79376 -4.17438 0
M  V30 1461 C 138.846 2.13645 -6.00529 0
M  V30 1462 C 136.533 2.6239 -5.51901 0
M  V30 1463 C 137.531 2.29573 -6.43262 0
M  V30 1464 O 137.219 2.12719 -7.75246 0
M  V30 1465 H 136.951 0.469031 -0.486812 0
M  V30 1466 H 139.505 0.88564 -1.85326 0
M  V30 1467 H 137.735 3.4389 -1.76852 0
M  V30 1468 H 139.424 3.41947 -2.18694 0
M  V30 1469 H 140.19 2.17398 -4.33547 0
M  V30 1470 H 136.069 3.03906 -3.46644 0
M  V30 1471 H 139.613 1.87953 -6.71803 0
M  V30 1472 H 135.51 2.74826 -5.84073 0
M  V30 1473 H 136.278 2.27611 -7.86216 0
M  V30 1474 N 138.941 1.26152 0.944643 0
M  V30 1475 C 139.888 1.07408 2.04285 0
M  V30 1476 C 140.858 -0.0198413 1.66088 0
M  V30 1477 O 142.043 0.139264 1.90291 0
M  V30 1478 C 139.183 0.70945 3.37729 0
M  V30 1479 C 138.296 1.87926 3.88983 0
M  V30 1480 C 137.431 1.45807 5.10797 0
M  V30 1481 C 136.47 2.5964 5.54305 0
M  V30 1482 N 135.607 2.18226 6.67324 0
M  V30 1483 H 140.447 2.01389 2.1965 0
M  V30 1484 H 137.984 1.00275 1.07626 0
M  V30 1485 H 139.942 0.478948 4.14442 0
M  V30 1486 H 138.572 -0.193389 3.2222 0
M  V30 1487 H 137.624 2.22279 3.08701 0
M  V30 1488 H 138.936 2.73377 4.17213 0
M  V30 1489 H 138.09 1.18781 5.94959 0
M  V30 1490 H 136.829 0.574414 4.84305 0
M  V30 1491 H 135.834 2.87399 4.68702 0
M  V30 1492 H 137.059 3.48599 5.828 0
M  V30 1493 H 135.005 1.3229 6.42523 0
M  V30 1494 H 134.922 2.97221 6.95123 0
M  V30 1495 H 136.19 1.94403 7.54869 0
M  V30 1496 N 140.419 -1.14872 1.07899 0
M  V30 1497 C 141.329 -2.2341 0.715915 0
M  V30 1498 C 142.345 -1.71808 -0.275306 0
M  V30 1499 O 143.521 -2.01039 -0.120545 0
M  V30 1500 C 140.586 -3.46474 0.125168 0
M  V30 1501 C 139.647 -4.13039 1.17034 0
M  V30 1502 C 138.88 -5.30229 0.607688 0
M  V30 1503 O 139.103 -5.675 -0.574497 0
M  V30 1504 O 138.037 -5.86444 1.35526 0
M  V30 1505 H 141.863 -2.56808 1.62121 0
M  V30 1506 H 139.448 -1.22702 0.852322 0
M  V30 1507 H 141.33 -4.20917 -0.201729 0
M  V30 1508 H 140.005 -3.14811 -0.753364 0
M  V30 1509 H 138.912 -3.40493 1.54968 0
M  V30 1510 H 140.245 -4.48796 2.02097 0
M  V30 1511 N 141.898 -0.863906 -1.31812 0
M  V30 1512 C 142.828 -0.330843 -2.31144 0
M  V30 1513 C 143.809 0.575005 -1.60087 0
M  V30 1514 O 144.994 0.493304 -1.8783 0
M  V30 1515 C 142.124 0.47374 -3.44054 0
M  V30 1516 C 141.078 -0.338481 -4.26659 0
M  V30 1517 C 140.404 0.591412 -5.31419 0
M  V30 1518 C 141.704 -1.56926 -4.98168 0
M  V30 1519 H 143.398 -1.16086 -2.75979 0
M  V30 1520 H 140.944 -0.559657 -1.32679 0
M  V30 1521 H 142.897 0.857143 -4.12591 0
M  V30 1522 H 141.621 1.33721 -2.9797 0
M  V30 1523 H 140.28 -0.703754 -3.59782 0
M  V30 1524 H 139.928 1.45199 -4.81587 0
M  V30 1525 H 139.628 0.0519022 -5.87577 0
M  V30 1526 H 141.152 0.97179 -6.02817 0
M  V30 1527 H 142.566 -1.25764 -5.59336 0
M  V30 1528 H 140.963 -2.04739 -5.64094 0
M  V30 1529 H 142.033 -2.32544 -4.25501 0
M  V30 1530 N 143.376 1.44774 -0.622745 0
M  V30 1531 C 144.624 2.01721 -0.123655 0
M  V30 1532 C 144.945 1.49172 1.25589 0
M  V30 1533 O 144.215 0.691974 1.83272 0
M  V30 1534 H 142.795 0.745777 -0.0427225 0
M  V30 1535 H 145.457 1.77382 -0.807559 0
M  V30 1536 H 144.553 3.11984 -0.0849534 0
M  V30 1537 N 144.854 0.36279 1.53368 0
M  V30 1538 C 146.094 -0.227882 2.03126 0
M  V30 1539 C 146.458 -1.4622 1.24434 0
M  V30 1540 O 147.659 -2.12831 1.64184 0
M  V30 1541 C 145.93 -0.515427 3.53664 0
M  V30 1542 S 147.489 -1.08017 4.25297 0
M  V30 1543 H 144.307 -0.0665377 0.70788 0
M  V30 1544 H 146.909 0.50501 1.88865 0
M  V30 1545 H 145.613 0.390436 4.08539 0
M  V30 1546 H 145.144 -1.27747 3.72081 0
M  V30 1547 H 147.159 -2.36462 4.36234 0
M  V30 1548 N 146.332 -1.57332 0.0918853 0
M  V30 1549 C 147.748 -1.57389 -0.264766 0
M  V30 1550 C 147.948 -1.10281 -1.68643 0
M  V30 1551 O 147.004 -0.777801 -2.40222 0
M  V30 1552 C 148.317 -3.00648 -0.0561195 0
M  V30 1553 C 149.865 -3.12754 -0.124116 0
M  V30 1554 C 150.34 -4.57965 0.0564972 0
M  V30 1555 N 151.831 -4.632 0.00155611 0
M  V30 1556 C 152.566 -5.73281 0.116598 0
M  V30 1557 N 152.062 -6.92208 0.286294 0
M  V30 1558 N 153.855 -5.6207 0.0580973 0
M  V30 1559 H 146.006 -1.86262 1.02079 0
M  V30 1560 H 148.269 -0.859579 0.399786 0
M  V30 1561 H 147.975 -3.393 0.925669 0
M  V30 1562 H 147.849 -3.68623 -0.799823 0
M  V30 1563 H 150.236 -2.73976 -1.09641 0
M  V30 1564 H 150.317 -2.47377 0.651024 0
M  V30 1565 H 149.961 -4.97436 1.02564 0
M  V30 1566 H 149.891 -5.21399 -0.738297 0
M  V30 1567 H 152.382 -3.77686 -0.127192 0
M  V30 1568 H 152.695 -7.71934 0.365676 0
M  V30 1569 H 151.04 -6.94254 0.32192 0
M  V30 1570 H 154.231 -4.68043 -0.0733204 0
M  V30 1571 H 154.404 -6.47824 0.151203 0
M  V30 1572 N 147.81 0.181792 -1.56548 0
M  V30 1573 C 149.038 0.915947 -1.85521 0
M  V30 1574 C 149.453 1.76282 -0.676016 0
M  V30 1575 O 148.81 1.79012 0.355077 0
M  V30 1576 C 148.861 1.80126 -3.13427 0
M  V30 1577 O 148.582 0.988562 -4.26801 0
M  V30 1578 C 150.083 2.64597 -3.55673 0
M  V30 1579 H 147.303 0.26661 -0.61576 0
M  V30 1580 H 149.847 0.185039 -2.03661 0
M  V30 1581 H 148.002 2.48563 -2.97145 0
M  V30 1582 H 148.416 1.59308 -4.99721 0
M  V30 1583 H 149.89 3.2235 -4.48101 0
M  V30 1584 H 150.367 3.38958 -2.79292 0
M  V30 1585 H 150.973 2.0151 -3.74532 0
M  V30 1586 N 149.288 1.51039 0.449983 0
M  V30 1587 C 150.198 1.74261 1.57067 0
M  V30 1588 C 151.214 0.626363 1.62335 0
M  V30 1589 O 152.39 0.907162 1.79812 0
M  V30 1590 C 149.455 1.85114 2.93144 0
M  V30 1591 C 148.516 3.0893 2.98095 0
M  V30 1592 C 147.749 3.19256 4.27681 0
M  V30 1593 O 147.972 2.35835 5.19363 0
M  V30 1594 O 146.906 4.12144 4.38658 0
M  V30 1595 H 150.732 2.69303 1.40391 0
M  V30 1596 H 148.317 1.35389 0.631688 0
M  V30 1597 H 150.199 1.94311 3.73926 0
M  V30 1598 H 148.874 0.932588 3.09975 0
M  V30 1599 H 147.781 3.0522 2.16314 0
M  V30 1600 H 149.114 4.00433 2.86206 0
M  V30 1601 N 150.766 -0.704594 1.40972 0
M  V30 1602 C 152.182 -1.01406 1.23244 0
M  V30 1603 C 152.382 -2.01169 0.115399 0
M  V30 1604 O 151.438 -2.47021 -0.523147 0
M  V30 1605 C 152.751 -1.54728 2.57836 0
M  V30 1606 C 154.299 -1.66658 2.64942 0
M  V30 1607 C 154.774 -2.23383 3.9983 0
M  V30 1608 N 156.265 -2.30756 4.01629 0
M  V30 1609 C 157 -2.75655 5.02794 0
M  V30 1610 N 156.496 -3.20225 6.14352 0
M  V30 1611 N 158.289 -2.75138 4.90159 0
M  V30 1612 H 150.44 -0.0435285 2.12355 0
M  V30 1613 H 152.703 -0.0818951 0.944456 0
M  V30 1614 H 152.409 -0.888832 3.40283 0
M  V30 1615 H 152.283 -2.53084 2.79693 0
M  V30 1616 H 154.67 -2.31617 1.8286 0
M  V30 1617 H 154.751 -0.668717 2.46904 0
M  V30 1618 H 154.395 -1.59043 4.82357 0
M  V30 1619 H 154.325 -3.23904 4.15203 0
M  V30 1620 H 156.816 -1.99291 3.21079 0
M  V30 1621 H 157.129 -3.53084 6.87424 0
M  V30 1622 H 155.474 -3.18156 6.17901 0
M  V30 1623 H 158.665 -2.39661 4.02095 0
M  V30 1624 H 158.838 -3.09812 5.6914 0
M  V30 1625 N 152.244 -1.26651 -0.937939 0
M  V30 1626 C 153.66 -1.03834 -1.21205 0
M  V30 1627 C 153.86 0.234502 -2.00131 0
M  V30 1628 O 152.916 0.942767 -2.3424 0
M  V30 1629 C 154.229 -2.27167 -1.97017 0
M  V30 1630 C 155.777 -2.32101 -2.09996 0
M  V30 1631 C 156.252 -3.55136 -2.8921 0
M  V30 1632 N 157.743 -3.55632 -2.96783 0
M  V30 1633 C 158.478 -4.475 -3.58512 0
M  V30 1634 N 157.974 -5.4966 -4.21717 0
M  V30 1635 N 159.767 -4.35145 -3.55816 0
M  V30 1636 H 151.918 -2.08398 -0.410391 0
M  V30 1637 H 154.181 -0.916031 -0.244114 0
M  V30 1638 H 153.887 -3.19765 -1.46434 0
M  V30 1639 H 153.761 -2.31672 -2.97671 0
M  V30 1640 H 156.148 -1.40015 -2.59769 0
M  V30 1641 H 156.229 -2.31605 -1.08594 0
M  V30 1642 H 155.873 -4.47553 -2.40123 0
M  V30 1643 H 155.803 -3.5288 -3.90875 0
M  V30 1644 H 158.294 -2.81743 -2.51852 0
M  V30 1645 H 158.607 -6.15943 -4.66727 0
M  V30 1646 H 156.952 -5.53514 -4.20294 0
M  V30 1647 H 160.143 -3.5455 -3.05634 0
M  V30 1648 H 160.316 -5.06934 -4.03636 0
M  V30 1649 N 153.722 1.14298 -1.08507 0
M  V30 1650 C 154.669 2.19414 -0.715965 0
M  V30 1651 C 155.639 1.63399 0.298326 0
M  V30 1652 O 156.824 1.89929 0.182101 0
M  V30 1653 C 153.964 3.44845 -0.132534 0
M  V30 1654 C 153.077 4.15007 -1.19973 0
M  V30 1655 C 152.212 5.28024 -0.580048 0
M  V30 1656 C 151.251 5.9002 -1.62921 0
M  V30 1657 N 150.388 6.94485 -1.03125 0
M  V30 1658 H 155.228 2.50336 -1.61666 0
M  V30 1659 H 152.765 1.2293 -0.807882 0
M  V30 1660 H 154.723 4.16601 0.223454 0
M  V30 1661 H 153.353 3.14403 0.731467 0
M  V30 1662 H 152.405 3.41629 -1.67313 0
M  V30 1663 H 153.717 4.57178 -1.99473 0
M  V30 1664 H 152.871 6.06455 -0.172364 0
M  V30 1665 H 151.61 4.87076 0.246603 0
M  V30 1666 H 150.615 5.10291 -2.04654 0
M  V30 1667 H 151.84 6.33042 -2.45835 0
M  V30 1668 H 149.786 6.55612 -0.225711 0
M  V30 1669 H 149.703 7.35148 -1.76334 0
M  V30 1670 H 150.971 7.7679 -0.649458 0
M  V30 1671 N 155.201 0.870884 1.31352 0
M  V30 1672 C 156.111 0.330783 2.32256 0
M  V30 1673 C 157.127 -0.559767 1.6475 0
M  V30 1674 O 158.303 -0.456263 1.96164 0
M  V30 1675 C 155.368 -0.458137 3.4366 0
M  V30 1676 C 154.429 0.460482 4.26823 0
M  V30 1677 C 153.662 -0.290881 5.32907 0
M  V30 1678 O 153.885 -1.51885 5.49806 0
M  V30 1679 O 152.819 0.351732 6.00871 0
M  V30 1680 H 156.645 1.16718 2.80376 0
M  V30 1681 H 154.23 0.634285 1.35267 0
M  V30 1682 H 156.112 -0.905343 4.1156 0
M  V30 1683 H 154.787 -1.27106 2.97701 0
M  V30 1684 H 153.694 0.956207 3.61673 0
M  V30 1685 H 155.027 1.23903 4.7635 0
M  V30 1686 N 156.679 -1.44442 0.630414 0
M  V30 1687 C 157.927 -2.01653 0.134351 0
M  V30 1688 C 158.248 -1.49836 -1.24796 0
M  V30 1689 O 157.518 -0.701684 -1.82902 0
M  V30 1690 H 156.098 -0.74554 0.0466769 0
M  V30 1691 H 158.76 -1.76952 0.816955 0
M  V30 1692 H 157.856 -3.11935 0.101498 0
M  V30 1693 N 158.157 -0.370918 -1.53173 0
M  V30 1694 C 159.404 0.217102 -2.01333 0
M  V30 1695 C 159.732 1.48338 -1.25802 0
M  V30 1696 O 158.987 1.92698 -0.34146 0
M  V30 1697 C 159.286 0.549696 -3.53147 0
M  V30 1698 C 158.952 -0.622872 -4.46577 0
M  V30 1699 C 157.614 -0.944595 -4.71838 0
M  V30 1700 C 159.966 -1.40819 -5.01816 0
M  V30 1701 C 157.294 -2.05351 -5.49589 0
M  V30 1702 C 159.646 -2.50757 -5.80778 0
M  V30 1703 C 158.31 -2.83458 -6.04324 0
M  V30 1704 H 157.58 0.0794431 -0.736729 0
M  V30 1705 H 160.227 -0.504481 -1.84736 0
M  V30 1706 H 158.532 1.35237 -3.6772 0
M  V30 1707 H 160.229 1.017 -3.87889 0
M  V30 1708 H 156.819 -0.36209 -4.27068 0
M  V30 1709 H 161.003 -1.17289 -4.82242 0
M  V30 1710 H 156.259 -2.3108 -5.6605 0
M  V30 1711 H 160.433 -3.12022 -6.22588 0
M  V30 1712 H 158.06 -3.69508 -6.64355 0
M  V30 1713 N 159.635 1.57281 -0.100228 0
M  V30 1714 C 160.863 1.98879 0.570509 0
M  V30 1715 C 161.278 0.979476 1.61405 0
M  V30 1716 O 160.635 -0.0302288 1.82475 0
M  V30 1717 C 160.686 3.4052 1.2136 0
M  V30 1718 O 160.407 4.37588 0.211786 0
M  V30 1719 C 161.908 3.97149 1.96945 0
M  V30 1720 H 159.128 0.653428 0.152555 0
M  V30 1721 H 161.672 2.03697 -0.18103 0
M  V30 1722 H 159.827 3.367 1.91603 0
M  V30 1723 H 160.241 5.20118 0.676607 0
M  V30 1724 H 161.715 4.98393 2.37294 0
M  V30 1725 H 162.192 3.3525 2.83733 0
M  V30 1726 H 162.798 4.04458 1.31506 0
M  V30 1727 N 161.113 -0.173488 1.56642 0
M  V30 1728 C 162.06 -1.21482 1.96242 0
M  V30 1729 C 163.03 -1.44104 0.826027 0
M  V30 1730 O 164.215 -1.5688 1.08597 0
M  V30 1731 C 161.355 -2.54964 2.32567 0
M  V30 1732 C 160.468 -2.39739 3.59373 0
M  V30 1733 C 159.603 -3.66072 3.84921 0
M  V30 1734 C 158.642 -3.45771 5.05083 0
M  V30 1735 N 157.779 -4.64169 5.26775 0
M  V30 1736 H 162.619 -0.870123 2.85014 0
M  V30 1737 H 160.156 -0.418245 1.41029 0
M  V30 1738 H 162.114 -3.32758 2.5165 0
M  V30 1739 H 160.744 -2.87433 1.46908 0
M  V30 1740 H 159.796 -1.53131 3.48217 0
M  V30 1741 H 161.108 -2.20683 4.47326 0
M  V30 1742 H 160.262 -4.52303 4.0436 0
M  V30 1743 H 159.001 -3.88105 2.9534 0
M  V30 1744 H 158.006 -2.57927 4.85545 0
M  V30 1745 H 159.231 -3.25163 5.96193 0
M  V30 1746 H 157.177 -4.86425 4.40144 0
M  V30 1747 H 157.094 -4.48019 6.08946 0
M  V30 1748 H 158.362 -5.51689 5.5069 0
M  V30 1749 N 162.591 -1.51276 -0.441967 0
M  V30 1750 C 163.839 -1.63392 -1.18943 0
M  V30 1751 C 164.16 -0.350159 -1.9183 0
M  V30 1752 O 163.43 0.633784 -1.85364 0
M  V30 1753 H 162.01 -0.602164 -0.442049 0
M  V30 1754 H 164.672 -1.88186 -0.507165 0
M  V30 1755 H 163.768 -2.45934 -1.92154 0
M  V30 1756 N 164.069 0.697108 -1.41344 0
M  V30 1757 C 165.318 1.45279 -1.39918 0
M  V30 1758 C 165.631 1.95597 -0.0109624 0
M  V30 1759 O 166.837 2.71208 0.125919 0
M  V30 1760 C 165.293 2.62695 -2.46007 0
M  V30 1761 C 164.901 2.19169 -3.90729 0
M  V30 1762 C 166.645 3.40336 -2.53715 0
M  V30 1763 C 164.552 3.33535 -4.88373 0
M  V30 1764 H 163.482 0.545692 -0.520323 0
M  V30 1765 H 166.133 0.756929 -1.67161 0
M  V30 1766 H 164.515 3.34541 -2.11892 0
M  V30 1767 H 165.689 1.54623 -4.34083 0
M  V30 1768 H 164.004 1.54525 -3.86666 0
M  V30 1769 H 166.601 4.2547 -3.2385 0
M  V30 1770 H 166.944 3.85418 -1.5735 0
M  V30 1771 H 167.477 2.75546 -2.86913 0
M  V30 1772 H 164.216 2.93468 -5.86137 0
M  V30 1773 H 163.736 3.96936 -4.49668 0
M  V30 1774 H 165.415 3.99335 -5.09059 0
M  V30 1775 N 165.547 1.27147 0.931209 0
M  V30 1776 C 166.795 1.13055 1.6752 0
M  V30 1777 C 167.116 -0.324791 1.92276 0
M  V30 1778 O 166.386 -1.22775 1.52654 0
M  V30 1779 H 164.966 0.415391 0.620854 0
M  V30 1780 H 167.628 1.59623 1.11833 0
M  V30 1781 H 166.724 1.65694 2.64485 0
M  V30 1782 N 167.025 -1.13721 1.09112 0
M  V30 1783 C 168.302 -1.81155 0.737706 0
M  V30 1784 C 168.682 -1.96253 -0.777683 0
M  V30 1785 O 168.03 -1.52807 -1.69889 0
M  V30 1786 C 168.24 -3.16392 1.47299 0
M  V30 1787 C 169.588 -3.91787 1.63671 0
M  V30 1788 O 170.612 -3.26005 1.43524 0
M  V30 1789 O 169.471 -5.0977 1.96969 0
M  V30 1790 H 166.565 -0.783518 0.26463 0
M  V30 1791 H 169.111 -1.20676 1.19312 0
M  V30 1792 H 167.883 -3.0061 2.50498 0
M  V30 1793 H 167.506 -3.8457 1.00953 0
M  V30 1794 N 168.503 -0.877838 -1.30888 0
M  V30 1795 C 169.728 -0.506629 -2.01117 0
M  V30 1796 C 170.153 0.895564 -1.65412 0
M  V30 1797 O 169.511 1.5923 -0.866922 0
M  V30 1798 C 169.559 -0.680223 -3.54126 0
M  V30 1799 O 168.663 0.277033 -4.11468 0
M  V30 1800 H 168.004 -0.200518 -0.633 0
M  V30 1801 H 170.534 -1.18342 -1.66902 0
M  V30 1802 H 170.544 -0.5765 -4.03907 0
M  V30 1803 H 169.219 -1.70261 -3.79452 0
M  V30 1804 H 167.796 0.127606 -3.72682 0
M  V30 1805 N 169.982 1.44106 -0.638065 0
M  V30 1806 C 171.228 2.02277 -0.145546 0
M  V30 1807 C 171.561 1.50125 1.23191 0
M  V30 1808 O 170.836 0.688133 1.8192 0
M  V30 1809 C 171.119 3.59829 -0.139791 0
M  V30 1810 C 170.972 4.22247 -1.55008 0
M  V30 1811 C 172.291 4.36873 0.531966 0
M  V30 1812 H 169.41 0.734992 -0.0543632 0
M  V30 1813 H 172.052 1.71592 -0.815863 0
M  V30 1814 H 170.202 3.86102 0.431007 0
M  V30 1815 H 171.874 4.07057 -2.1703 0
M  V30 1816 H 170.117 3.79476 -2.10191 0
M  V30 1817 H 170.788 5.31284 -1.49804 0
M  V30 1818 H 173.264 4.16074 0.0464781 0
M  V30 1819 H 172.14 5.4657 0.505206 0
M  V30 1820 H 172.401 4.11995 1.60352 0
M  V30 1821 N 171.46 0.379036 1.52974 0
M  V30 1822 C 172.876 0.0285448 1.59574 0
M  V30 1823 C 173.076 -1.45542 1.39355 0
M  V30 1824 O 172.132 -2.2187 1.20541 0
M  V30 1825 C 173.445 0.496535 2.96572 0
M  V30 1826 C 174.993 0.451909 3.0972 0
M  V30 1827 C 175.468 0.895924 4.49152 0
M  V30 1828 N 176.959 0.851522 4.55306 0
M  V30 1829 C 177.694 1.16661 5.61407 0
M  V30 1830 N 177.19 1.55166 6.752 0
M  V30 1831 N 178.983 1.08853 5.51459 0
M  V30 1832 H 171.134 1.34525 1.64367 0
M  V30 1833 H 173.397 0.550733 0.771619 0
M  V30 1834 H 173.103 1.53258 3.16552 0
M  V30 1835 H 172.977 -0.109802 3.7704 0
M  V30 1836 H 175.364 -0.575029 2.89443 0
M  V30 1837 H 175.445 1.09392 2.3123 0
M  V30 1838 H 175.089 1.92104 4.70168 0
M  V30 1839 H 175.019 0.23103 5.26093 0
M  V30 1840 H 177.51 0.568038 3.73606 0
M  V30 1841 H 177.823 1.776 7.52116 0
M  V30 1842 H 176.168 1.59044 6.76557 0
M  V30 1843 H 179.359 0.786803 4.6144 0
M  V30 1844 H 179.532 1.33742 6.34048 0
M  V30 1845 N 172.938 -1.57226 0.108567 0
M  V30 1846 C 174.184 -1.95121 -0.552761 0
M  V30 1847 C 174.517 -0.991345 -1.66991 0
M  V30 1848 O 173.792 -0.0267211 -1.94482 0
M  V30 1849 C 174.075 -3.43039 -1.09528 0
M  V30 1850 C 173.928 -4.49797 0.0177332 0
M  V30 1851 C 175.247 -3.92567 -1.98945 0
M  V30 1852 H 172.366 -0.709496 -0.199461 0
M  V30 1853 H 175.008 -1.89126 0.182011 0
M  V30 1854 H 173.158 -3.48279 -1.72146 0
M  V30 1855 H 174.83 -4.56661 0.652584 0
M  V30 1856 H 173.073 -4.284 0.682309 0
M  V30 1857 H 173.744 -5.50528 -0.402919 0
M  V30 1858 H 176.22 -3.89565 -1.46214 0
M  V30 1859 H 175.096 -4.96605 -2.33827 0
M  V30 1860 H 175.357 -3.32648 -2.91201 0
M  V30 1861 N 174.416 0.165178 -1.56732 0
M  V30 1862 C 175.326 1.22423 -2.00125 0
M  V30 1863 C 176.342 1.48084 -0.913619 0
M  V30 1864 O 177.518 1.60112 -1.22172 0
M  V30 1865 C 174.583 2.54197 -2.35764 0
M  V30 1866 C 173.644 2.36343 -3.58386 0
M  V30 1867 C 172.877 3.61834 -3.92316 0
M  V30 1868 O 173.1 4.67267 -3.27135 0
M  V30 1869 O 172.034 3.55579 -4.85641 0
M  V30 1870 H 175.86 0.885886 -2.90492 0
M  V30 1871 H 173.445 0.372518 -1.44681 0
M  V30 1872 H 175.327 3.3192 -2.59629 0
M  V30 1873 H 174.002 2.87598 -1.48557 0
M  V30 1874 H 172.909 1.56632 -3.39731 0
M  V30 1875 H 174.242 2.07865 -4.46154 0
M  V30 1876 N 175.894 1.51508 0.433938 0
M  V30 1877 C 177.171 1.54888 1.19453 0
M  V30 1878 C 177.551 0.315154 2.08734 0
M  V30 1879 O 176.899 -0.699558 2.17528 0
M  V30 1880 C 177.109 2.86467 1.99342 0
M  V30 1881 C 178.457 3.38545 2.56267 0
M  V30 1882 O 179.481 2.88041 2.0955 0
M  V30 1883 O 178.34 4.26675 3.41483 0
M  V30 1884 H 175.434 0.622863 0.544032 0
M  V30 1885 H 177.98 1.63823 0.442732 0
M  V30 1886 H 176.752 3.67718 1.33788 0
M  V30 1887 H 176.375 2.8071 2.8158 0
M  V30 1888 N 177.372 -0.689602 1.41712 0
M  V30 1889 C 178.783 -1.26973 1.36875 0
M  V30 1890 C 179.134 -1.96124 0.054748 0
M  V30 1891 O 178.259 -1.99141 -0.84687 0
M  V30 1892 C 178.854 -2.30912 2.47922 0
M  V30 1893 C 177.413 -2.84486 2.46464 0
M  V30 1894 C 176.56 -1.58603 2.27465 0
M  V30 1895 H 179.511 -0.48396 1.51141 0
M  V30 1896 H 179.532 -3.12331 2.17323 0
M  V30 1897 H 179.044 -1.80554 3.43543 0
M  V30 1898 H 177.145 -3.39005 1.54617 0
M  V30 1899 H 177.258 -3.34511 3.42986 0
M  V30 1900 H 175.622 -1.84632 1.75451 0
M  V30 1901 H 176.405 -1.10233 3.25121 0
M  V30 1902 N 178.85 -1.27639 -0.924453 0
M  V30 1903 C 179.78 -1.13166 -2.04244 0
M  V30 1904 C 180.761 -0.032256 -1.70069 0
M  V30 1905 O 181.946 -0.207328 -1.9309 0
M  V30 1906 C 179.076 -0.781496 -3.38393 0
M  V30 1907 C 178.03 -1.83449 -3.86692 0
M  V30 1908 C 177.356 -1.33822 -5.17683 0
M  V30 1909 C 178.656 -3.23917 -4.09726 0
M  V30 1910 H 180.35 -2.06689 -2.1661 0
M  V30 1911 H 177.896 -0.995136 -1.04082 0
M  V30 1912 H 179.849 -0.667057 -4.16087 0
M  V30 1913 H 178.573 0.189439 -3.2605 0
M  V30 1914 H 177.232 -1.93789 -3.11193 0
M  V30 1915 H 176.88 -0.35665 -5.01734 0
M  V30 1916 H 176.58 -2.04224 -5.50968 0
M  V30 1917 H 178.104 -1.23679 -5.97943 0
M  V30 1918 H 179.518 -3.16559 -4.77978 0
M  V30 1919 H 177.915 -3.92059 -4.54324 0
M  V30 1920 H 178.985 -3.68729 -3.14908 0
M  V30 1921 N 180.328 1.1314 -1.09713 0
M  V30 1922 C 181.576 1.84119 -0.833338 0
M  V30 1923 C 181.897 1.84097 0.642904 0
M  V30 1924 O 181.167 1.29881 1.46655 0
M  V30 1925 H 179.747 0.681766 -0.305293 0
M  V30 1926 H 182.409 1.37038 -1.38588 0
M  V30 1927 H 181.505 2.88543 -1.18951 0
M  V30 1928 N 181.806 0.884767 1.30421 0
M  V30 1929 C 183.053 0.503105 1.96151 0
M  V30 1930 C 183.381 -0.947676 1.69851 0
M  V30 1931 O 182.636 -1.68467 0.995861 0
M  V30 1932 C 182.935 0.724318 3.49983 0
M  V30 1933 C 182.601 2.15015 3.96332 0
M  V30 1934 C 181.263 2.54005 4.08699 0
M  V30 1935 C 183.615 3.07936 4.20505 0
M  V30 1936 C 180.943 3.85128 4.42599 0
M  V30 1937 C 183.295 4.3859 4.55874 0
M  V30 1938 C 181.959 4.77474 4.66449 0
M  V30 1939 H 181.229 0.184099 0.717766 0
M  V30 1940 H 183.876 1.12058 1.55291 0
M  V30 1941 H 182.181 0.0238086 3.91793 0
M  V30 1942 H 183.878 0.408617 3.98913 0
M  V30 1943 H 180.468 1.8375 3.87213 0
M  V30 1944 H 184.652 2.79033 4.10431 0
M  V30 1945 H 179.908 4.14996 4.48986 0
M  V30 1946 H 184.082 5.10629 4.7353 0
M  V30 1947 H 181.709 5.79115 4.92473 0
M  V30 1948 N 183.284 -1.43765 0.645699 0
M  V30 1949 C 184.695 -1.85193 0.236719 0
M  V30 1950 C 185.046 -1.54045 -1.21509 0
M  V30 1951 O 184.171 -0.985694 -1.92647 0
M  V30 1952 C 184.766 -3.36151 0.422845 0
M  V30 1953 C 183.325 -3.76338 0.0682492 0
M  V30 1954 C 182.472 -2.67538 0.729306 0
M  V30 1955 H 185.423 -1.34025 0.849883 0
M  V30 1956 H 185.444 -3.79032 -0.333904 0
M  V30 1957 H 184.956 -3.5879 1.47958 0
M  V30 1958 H 183.057 -3.59312 -0.986179 0
M  V30 1959 H 183.17 -4.76603 0.488469 0
M  V30 1960 H 181.534 -2.54176 0.163235 0
M  V30 1961 H 182.317 -2.93006 1.78892 0
M  V30 1962 N 184.763 -0.387143 -1.52771 0
M  V30 1963 C 185.993 0.195585 -2.05672 0
M  V30 1964 C 186.401 1.41241 -1.25887 0
M  V30 1965 O 185.744 1.81265 -0.298081 0
M  V30 1966 C 185.806 0.632327 -3.53895 0
M  V30 1967 C 185.47 -0.470739 -4.54569 0
M  V30 1968 C 186.467 -1.32746 -5.02667 0
M  V30 1969 C 184.152 -0.637151 -4.98243 0
M  V30 1970 C 186.146 -2.33574 -5.93061 0
M  V30 1971 C 183.833 -1.64877 -5.88438 0
M  V30 1972 C 184.831 -2.49649 -6.35739 0
M  V30 1973 O 184.519 -3.49082 -7.24153 0
M  V30 1974 H 184.251 0.033658 -0.675162 0
M  V30 1975 H 186.805 -0.550221 -1.97893 0
M  V30 1976 H 185.035 1.43008 -3.59285 0
M  V30 1977 H 186.724 1.14048 -3.89548 0
M  V30 1978 H 187.49 -1.21019 -4.69659 0
M  V30 1979 H 183.369 0.0129567 -4.60998 0
M  V30 1980 H 186.913 -2.99777 -6.29904 0
M  V30 1981 H 182.81 -1.76643 -6.2086 0
M  V30 1982 H 183.578 -3.45065 -7.42208 0
M  V30 1983 N 186.241 1.57166 -0.116904 0
M  V30 1984 C 187.151 2.18745 0.847812 0
M  V30 1985 C 188.167 1.163 1.29423 0
M  V30 1986 O 189.343 1.48761 1.35765 0
M  V30 1987 C 186.408 2.77307 2.0809 0
M  V30 1988 C 185.469 3.94781 1.68661 0
M  V30 1989 C 184.702 4.50541 2.86091 0
M  V30 1990 O 184.925 4.05202 4.01456 0
M  V30 1991 O 183.859 5.41256 2.63298 0
M  V30 1992 H 187.685 3.01632 0.353778 0
M  V30 1993 H 185.27 1.49005 0.108599 0
M  V30 1994 H 187.152 3.14647 2.80313 0
M  V30 1995 H 185.827 1.97452 2.56504 0
M  V30 1996 H 184.734 3.62214 0.935518 0
M  V30 1997 H 186.067 4.76065 1.24991 0
M  V30 1998 N 187.719 -0.156864 1.56817 0
M  V30 1999 C 188.966 -0.871125 1.82805 0
M  V30 2000 C 189.294 -1.81611 0.696262 0
M  V30 2001 O 188.549 -1.93141 -0.315459 0
M  V30 2002 C 188.848 -1.68737 3.1506 0
M  V30 2003 C 188.514 -0.890045 4.42028 0
M  V30 2004 C 187.176 -0.670042 4.76512 0
M  V30 2005 C 189.528 -0.331769 5.20143 0
M  V30 2006 C 186.856 0.119104 5.86579 0
M  V30 2007 C 189.208 0.444365 6.31037 0
M  V30 2008 C 187.872 0.675035 6.64078 0
M  V30 2009 H 187.142 -0.318767 0.668931 0
M  V30 2010 H 189.789 -0.135274 1.91022 0
M  V30 2011 H 188.094 -2.49304 3.0225 0
M  V30 2012 H 189.791 -2.24331 3.3238 0
M  V30 2013 H 186.381 -1.07157 4.14988 0
M  V30 2014 H 190.565 -0.489043 4.93885 0
M  V30 2015 H 185.821 0.307417 6.10627 0
M  V30 2016 H 189.995 0.884139 6.90765 0
M  V30 2017 H 187.622 1.28839 7.49203 0
M  V30 2018 N 189.197 -1.51736 -0.425897 0
M  V30 2019 C 190.444 -1.6497 -1.17436 0
M  V30 2020 C 190.772 -0.371445 -1.9092 0
M  V30 2021 O 190.027 0.644963 -1.84767 0
M  V30 2022 C 190.326 -2.81103 -2.20717 0
M  V30 2023 C 189.992 -4.19954 -1.64162 0
M  V30 2024 C 188.654 -4.57725 -1.48462 0
M  V30 2025 C 191.006 -5.06552 -1.22696 0
M  V30 2026 C 188.334 -5.79789 -0.897873 0
M  V30 2027 C 190.686 -6.29205 -0.654464 0
M  V30 2028 C 189.35 -6.6574 -0.484456 0
M  V30 2029 H 188.62 -0.603668 -0.429727 0
M  V30 2030 H 191.267 -1.85798 -0.463829 0
M  V30 2031 H 189.572 -2.54542 -2.97852 0
M  V30 2032 H 191.269 -2.8854 -2.78471 0
M  V30 2033 H 187.859 -3.90181 -1.77361 0
M  V30 2034 H 192.043 -4.77968 -1.33642 0
M  V30 2035 H 187.299 -6.06733 -0.75402 0
M  V30 2036 H 191.473 -6.95643 -0.324694 0
M  V30 2037 H 189.1 -7.60195 -0.0276833 0
M  V30 2038 N 190.675 0.682077 -1.42076 0
M  V30 2039 C 191.905 1.46844 -1.45329 0
M  V30 2040 C 192.313 1.89102 -0.0609328 0
M  V30 2041 O 191.656 1.58238 0.933082 0
M  V30 2042 C 191.718 2.75375 -2.31104 0
M  V30 2043 C 191.382 2.55238 -3.79081 0
M  V30 2044 C 192.379 2.20309 -4.70914 0
M  V30 2045 C 190.064 2.70459 -4.2327 0
M  V30 2046 C 192.058 2.00859 -6.04925 0
M  V30 2047 C 189.745 2.50624 -5.57343 0
M  V30 2048 C 190.743 2.15876 -6.47986 0
M  V30 2049 O 190.431 1.96227 -7.79583 0
M  V30 2050 H 190.163 0.4586 -0.496651 0
M  V30 2051 H 192.717 0.846131 -1.87162 0
M  V30 2052 H 190.947 3.40061 -1.84107 0
M  V30 2053 H 192.636 3.37231 -2.25898 0
M  V30 2054 H 193.402 2.08153 -4.38061 0
M  V30 2055 H 189.281 2.96485 -3.53012 0
M  V30 2056 H 192.825 1.7366 -6.75639 0
M  V30 2057 H 188.722 2.62375 -5.89771 0
M  V30 2058 H 189.49 2.10883 -7.90867 0
M  V30 2059 N 192.153 1.28127 0.917671 0
M  V30 2060 C 193.063 1.13556 2.05286 0
M  V30 2061 C 194.079 0.0630914 1.73886 0
M  V30 2062 O 195.255 0.271598 1.9956 0
M  V30 2063 C 192.32 0.794676 3.3747 0
M  V30 2064 C 191.381 1.94909 3.82504 0
M  V30 2065 C 190.614 1.62437 5.0838 0
M  V30 2066 O 190.837 0.536905 5.67867 0
M  V30 2067 O 189.771 2.46677 5.4903 0
M  V30 2068 H 193.597 2.08844 2.20495 0
M  V30 2069 H 191.182 1.07409 1.03845 0
M  V30 2070 H 193.064 0.618344 4.16839 0
M  V30 2071 H 191.739 -0.128581 3.23445 0
M  V30 2072 H 190.646 2.18055 3.03978 0
M  V30 2073 H 191.979 2.85291 4.01086 0
M  V30 2074 N 193.631 -1.12557 1.10312 0
M  V30 2075 C 194.859 -1.87864 0.866873 0
M  V30 2076 C 195.274 -1.79588 -0.582557 0
M  V30 2077 O 194.631 -1.16887 -1.40156 0
M  V30 2078 C 194.682 -3.37125 1.30496 0
M  V30 2079 O 194.403 -3.45201 2.69755 0
M  V30 2080 C 195.904 -4.29373 1.10243 0
M  V30 2081 H 193.124 -0.594452 0.311236 0
M  V30 2082 H 195.668 -1.42429 1.46745 0
M  V30 2083 H 193.823 -3.80109 0.748081 0
M  V30 2084 H 194.237 -4.38056 2.88457 0
M  V30 2085 H 195.711 -5.32394 1.45811 0
M  V30 2086 H 196.188 -4.39181 0.0409492 0
M  V30 2087 H 196.794 -3.92169 1.64571 0
M  V30 2088 N 195.109 -0.891671 -1.2995 0
M  V30 2089 C 196.019 -0.367691 -2.31701 0
M  V30 2090 C 197.035 0.533486 -1.6562 0
M  V30 2091 O 198.211 0.424997 -1.96865 0
M  V30 2092 C 195.276 0.403406 -3.44345 0
M  V30 2093 C 194.337 -0.528328 -4.26037 0
M  V30 2094 C 193.57 0.206063 -5.33302 0
M  V30 2095 O 193.793 1.43119 -5.52153 0
M  V30 2096 O 192.727 -0.447281 -6.00236 0
M  V30 2097 H 196.553 -1.21163 -2.78484 0
M  V30 2098 H 194.138 -0.655725 -1.34241 0
M  V30 2099 H 196.02 0.839753 -4.12948 0
M  V30 2100 H 194.695 1.22354 -2.99685 0
M  V30 2101 H 193.602 -1.01362 -3.60106 0
M  V30 2102 H 194.935 -1.31465 -4.74318 0
M  V30 2103 N 196.587 1.43421 -0.653314 0
M  V30 2104 C 197.537 2.2792 0.060558 0
M  V30 2105 C 198.521 1.39906 0.794677 0
M  V30 2106 O 199.713 1.63536 0.677128 0
M  V30 2107 C 196.842 3.27603 1.0262 0
M  V30 2108 C 195.928 4.23104 0.290551 0
M  V30 2109 N 196.319 5.01031 -0.692967 0
M  V30 2110 C 194.617 4.42816 0.531984 0
M  V30 2111 C 195.318 5.70626 -1.12963 0
M  V30 2112 N 194.294 5.41617 -0.463867 0
M  V30 2113 H 198.096 2.85585 -0.694143 0
M  V30 2114 H 195.61 1.55126 -0.480602 0
M  V30 2115 H 197.607 3.86918 1.55242 0
M  V30 2116 H 196.267 2.71499 1.78096 0
M  V30 2117 H 197.278 5.0669 -1.07169 0
M  V30 2118 H 193.955 3.97782 1.26791 0
M  V30 2119 H 195.345 6.4318 -1.94343 0
M  V30 2120 N 198.065 0.39524 1.52563 0
M  V30 2121 C 199.311 -0.185318 2.01952 0
M  V30 2122 C 199.644 -1.45964 1.28095 0
M  V30 2123 O 198.919 -1.90689 0.38315 0
M  V30 2124 C 199.202 -0.447193 3.57312 0
M  V30 2125 C 199.055 0.842828 4.41833 0
M  V30 2126 C 200.374 -1.23529 4.22408 0
M  V30 2127 H 197.493 -0.0658788 0.73405 0
M  V30 2128 H 200.135 0.525975 1.82575 0
M  V30 2129 H 198.285 -1.05312 3.73954 0
M  V30 2130 H 199.957 1.4795 4.36931 0
M  V30 2131 H 198.2 1.45686 4.08605 0
M  V30 2132 H 198.871 0.614165 5.48573 0
M  V30 2133 H 201.347 -0.722445 4.0978 0
M  V30 2134 H 200.223 -1.38727 5.3108 0
M  V30 2135 H 200.484 -2.25213 3.80436 0
M  V30 2136 N 199.544 -1.57102 0.125237 0
M  V30 2137 C 200.454 -2.19191 -0.8362 0
M  V30 2138 C 201.47 -1.16985 -1.28805 0
M  V30 2139 O 202.646 -1.49479 -1.34974 0
M  V30 2140 C 199.711 -2.78407 -2.06617 0
M  V30 2141 C 198.772 -3.9567 -1.66565 0
M  V30 2142 C 198.005 -4.52052 -2.83698 0
M  V30 2143 O 198.228 -4.07326 -3.99302 0
M  V30 2144 O 197.162 -5.42645 -2.60423 0
M  V30 2145 H 200.988 -3.01816 -0.337776 0
M  V30 2146 H 198.573 -1.4906 -0.100695 0
M  V30 2147 H 200.455 -3.16129 -2.7864 0
M  V30 2148 H 199.13 -1.9881 -2.55453 0
M  V30 2149 H 198.037 -3.62705 -0.916296 0
M  V30 2150 H 199.37 -4.76722 -1.22464 0
M  V30 2151 N 201.022 0.148545 -1.56898 0
M  V30 2152 C 202.438 0.501131 -1.51528 0
M  V30 2153 C 202.638 1.83458 -0.833399 0
M  V30 2154 O 201.694 2.49259 -0.40328 0
M  V30 2155 C 203.007 0.512864 -2.96294 0
M  V30 2156 C 204.555 0.598487 -3.07225 0
M  V30 2157 C 205.03 0.640897 -4.53494 0
M  V30 2158 N 206.521 0.703163 -4.57832 0
M  V30 2159 C 207.256 0.756935 -5.68382 0
M  V30 2160 N 206.752 0.770147 -6.88506 0
M  V30 2161 N 208.545 0.797698 -5.56411 0
M  V30 2162 H 200.696 -0.725532 -1.99624 0
M  V30 2163 H 202.959 -0.264358 -0.910395 0
M  V30 2164 H 202.665 -0.398691 -3.49433 0
M  V30 2165 H 202.539 1.35133 -3.52163 0
M  V30 2166 H 204.926 1.50046 -2.54106 0
M  V30 2167 H 205.007 -0.267093 -2.54402 0
M  V30 2168 H 204.651 -0.256915 -5.0725 0
M  V30 2169 H 204.581 1.52295 -5.04097 0
M  V30 2170 H 207.072 0.700314 -3.71354 0
M  V30 2171 H 207.385 0.812983 -7.68512 0
M  V30 2172 H 205.73 0.738049 -6.9107 0
M  V30 2173 H 208.921 0.784535 -4.61479 0
M  V30 2174 H 209.094 0.83614 -6.42583 0
M  V30 2175 N 202.5 1.5196 0.417844 0
M  V30 2176 C 203.43 1.77634 1.51554 0
M  V30 2177 C 204.411 0.626918 1.58126 0
M  V30 2178 O 205.596 0.871632 1.7354 0
M  V30 2179 C 202.726 1.91911 2.8946 0
M  V30 2180 C 201.68 3.07463 2.97743 0
M  V30 2181 C 201.006 3.06951 4.37819 0
M  V30 2182 C 202.306 4.47082 2.70027 0
M  V30 2183 H 204 2.6955 1.3032 0
M  V30 2184 H 201.546 1.29706 0.625492 0
M  V30 2185 H 203.499 2.08455 3.6623 0
M  V30 2186 H 202.223 0.966598 3.11969 0
M  V30 2187 H 200.882 2.90656 2.23416 0
M  V30 2188 H 200.53 2.09438 4.57323 0
M  V30 2189 H 200.23 3.84556 4.44286 0
M  V30 2190 H 201.754 3.25613 5.16535 0
M  V30 2191 H 203.168 4.6414 3.36522 0
M  V30 2192 H 201.565 5.2654 2.87881 0
M  V30 2193 H 202.635 4.55777 1.65514 0
M  V30 2194 N 203.978 -0.674533 1.42435 0
M  V30 2195 C 205.206 -1.46283 1.46317 0
M  V30 2196 C 205.621 -1.88653 0.0745836 0
M  V30 2197 O 204.978 -1.58151 -0.91074 0
M  V30 2198 C 205.029 -2.71178 2.3905 0
M  V30 2199 O 204.75 -2.30586 3.72507 0
M  V30 2200 C 206.251 -3.64738 2.51955 0
M  V30 2201 H 203.471 -0.450104 0.497642 0
M  V30 2202 H 206.015 -0.828792 1.86953 0
M  V30 2203 H 204.17 -3.3077 2.01667 0
M  V30 2204 H 204.584 -3.11241 4.22172 0
M  V30 2205 H 206.058 -4.49096 3.20962 0
M  V30 2206 H 206.535 -4.10656 1.55752 0
M  V30 2207 H 207.141 -3.11038 2.90061 0
M  V30 2208 N 205.456 -1.28612 -0.910864 0
M  V30 2209 C 206.388 -1.08589 -2.01844 0
M  V30 2210 C 207.401 -0.0367419 -1.62759 0
M  V30 2211 O 208.59 -0.280101 -1.76289 0
M  V30 2212 C 205.69 -0.628626 -3.33019 0
M  V30 2213 C 204.863 -1.75382 -4.00699 0
M  V30 2214 C 203.922 -1.28945 -5.10156 0
M  V30 2215 O 202.948 -1.9922 -5.33198 0
M  V30 2216 N 204.15 -0.154224 -5.80295 0
M  V30 2217 H 206.915 -2.03973 -2.19579 0
M  V30 2218 H 204.476 -1.20403 -1.08234 0
M  V30 2219 H 206.468 -0.301508 -4.03575 0
M  V30 2220 H 205.038 0.232451 -3.11735 0
M  V30 2221 H 204.258 -2.25039 -3.23653 0
M  V30 2222 H 205.546 -2.50854 -4.42662 0
M  V30 2223 H 204.944 0.43194 -5.64049 0
M  V30 2224 H 203.501 0.113599 -6.51701 0
M  V30 2225 N 206.934 1.1197 -1.10907 0
M  V30 2226 C 208.35 1.35591 -0.841852 0
M  V30 2227 C 208.55 1.94233 0.536246 0
M  V30 2228 O 207.606 2.1717 1.28816 0
M  V30 2229 C 208.919 2.29284 -1.94549 0
M  V30 2230 C 210.467 2.42862 -1.97451 0
M  V30 2231 C 210.942 3.39873 -3.07002 0
M  V30 2232 N 212.433 3.47433 -3.06341 0
M  V30 2233 C 213.168 4.22421 -3.87748 0
M  V30 2234 N 212.664 5.00432 -4.79103 0
M  V30 2235 N 214.457 4.17876 -3.75946 0
M  V30 2236 H 206.608 0.722664 -1.99728 0
M  V30 2237 H 208.871 0.380635 -0.868229 0
M  V30 2238 H 208.577 1.93378 -2.93765 0
M  V30 2239 H 208.451 3.29452 -1.83688 0
M  V30 2240 H 210.838 2.78046 -0.988645 0
M  V30 2241 H 210.919 1.42566 -2.12388 0
M  V30 2242 H 210.563 3.05417 -4.05811 0
M  V30 2243 H 210.493 4.40011 -2.89306 0
M  V30 2244 H 212.984 2.91784 -2.40147 0
M  V30 2245 H 213.297 5.55002 -5.37766 0
M  V30 2246 H 211.642 4.99612 -4.83128 0
M  V30 2247 H 214.833 3.56016 -3.03924 0
M  V30 2248 H 215.006 4.76061 -4.39624 0
M  V30 2249 N 208.412 0.89855 1.29475 0
M  V30 2250 C 209.642 0.538479 1.99459 0
M  V30 2251 C 210.05 -0.880922 1.67441 0
M  V30 2252 O 209.393 -1.59283 0.915127 0
M  V30 2253 C 209.455 0.649564 3.53583 0
M  V30 2254 C 209.119 2.03573 4.09154 0
M  V30 2255 C 210.116 3.00675 4.24135 0
M  V30 2256 C 207.801 2.3448 4.44212 0
M  V30 2257 C 209.795 4.26809 4.73405 0
M  V30 2258 C 207.482 3.60857 4.93179 0
M  V30 2259 C 208.48 4.56836 5.0773 0
M  V30 2260 O 208.168 5.80969 5.55635 0
M  V30 2261 H 207.9 0.205372 0.644048 0
M  V30 2262 H 210.454 1.20958 1.66007 0
M  V30 2263 H 208.684 -0.0785592 3.8662 0
M  V30 2264 H 210.373 0.29881 4.04799 0
M  V30 2265 H 211.139 2.78112 3.97339 0
M  V30 2266 H 207.018 1.60534 4.32145 0
M  V30 2267 H 210.562 5.0173 4.84678 0
M  V30 2268 H 206.459 3.83251 5.19412 0
M  V30 2269 H 207.227 5.83542 5.73952 0
M  V30 2270 N 209.89 -1.43072 0.660911 0
M  V30 2271 C 211.167 -1.95307 0.107017 0
M  V30 2272 C 211.547 -1.60192 -1.37484 0
M  V30 2273 O 210.895 -0.890949 -2.10415 0
M  V30 2274 C 211.105 -3.47124 0.361402 0
M  V30 2275 C 212.453 -4.23738 0.270455 0
M  V30 2276 O 213.477 -3.54981 0.294382 0
M  V30 2277 O 212.336 -5.46131 0.200737 0
M  V30 2278 H 209.43 -0.826984 -0.00517729 0
M  V30 2279 H 211.976 -1.52972 0.734681 0
M  V30 2280 H 210.748 -3.65837 1.38848 0
M  V30 2281 H 210.371 -3.96475 -0.298953 0
M  V30 2282 N 211.368 -0.403325 -1.52352 0
M  V30 2283 C 212.298 0.416205 -2.29761 0
M  V30 2284 C 213.279 1.05123 -1.33728 0
M  V30 2285 O 214.464 1.06134 -1.62632 0
M  V30 2286 C 211.594 1.53624 -3.11475 0
M  V30 2287 C 210.548 1.02653 -4.15507 0
M  V30 2288 C 209.874 2.23971 -4.85532 0
M  V30 2289 C 211.174 0.08463 -5.22231 0
M  V30 2290 H 212.868 -0.229701 -2.98518 0
M  V30 2291 H 210.414 -0.111913 -1.43564 0
M  V30 2292 H 212.367 2.1165 -3.64393 0
M  V30 2293 H 211.091 2.20994 -2.40477 0
M  V30 2294 H 209.75 0.46871 -3.63591 0
M  V30 2295 H 209.398 2.89883 -4.11068 0
M  V30 2296 H 209.098 1.90521 -5.55856 0
M  V30 2297 H 210.622 2.82614 -5.41259 0
M  V30 2298 H 212.036 0.573509 -5.70424 0
M  V30 2299 H 210.433 -0.160783 -5.99885 0
M  V30 2300 H 211.503 -0.86237 -4.7717 0
M  V30 2301 N 212.846 1.57033 -0.133567 0
M  V30 2302 C 214.076 1.99754 0.527429 0
M  V30 2303 C 214.484 1.01245 1.59832 0
M  V30 2304 O 213.827 -0.000645496 1.837 0
M  V30 2305 C 213.889 3.38903 1.19939 0
M  V30 2306 C 213.553 4.56174 0.274709 0
M  V30 2307 C 214.55 5.17563 -0.492398 0
M  V30 2308 C 212.235 5.01972 0.18153 0
M  V30 2309 C 214.229 6.2315 -1.34027 0
M  V30 2310 C 211.916 6.07416 -0.669958 0
M  V30 2311 C 212.914 6.67874 -1.42947 0
M  V30 2312 O 212.602 7.71279 -2.2668 0
M  V30 2313 H 212.334 0.660702 0.142999 0
M  V30 2314 H 214.888 2.04207 -0.221099 0
M  V30 2315 H 213.118 3.31248 1.99528 0
M  V30 2316 H 214.807 3.65818 1.75875 0
M  V30 2317 H 215.573 4.83087 -0.430367 0
M  V30 2318 H 211.452 4.54652 0.762422 0
M  V30 2319 H 214.996 6.70268 -1.93357 0
M  V30 2320 H 210.893 6.41321 -0.73333 0
M  V30 2321 H 211.661 7.88441 -2.1978 0
M  V30 2322 N 214.325 -0.140222 1.56975 0
M  V30 2323 C 215.55 -0.870414 1.88251 0
M  V30 2324 C 215.975 -1.73637 0.723312 0
M  V30 2325 O 215.333 -1.78329 -0.32689 0
M  V30 2326 C 215.381 -1.69737 3.18154 0
M  V30 2327 O 214.485 -2.80229 3.02565 0
M  V30 2328 H 213.826 -0.242025 0.61832 0
M  V30 2329 H 216.356 -0.128999 2.04193 0
M  V30 2330 H 216.366 -2.09099 3.50345 0
M  V30 2331 H 215.041 -1.06152 4.02125 0
M  V30 2332 H 213.618 -2.44224 2.81796 0
M  V30 2333 N 215.803 -1.52179 -0.40978 0
M  V30 2334 C 216.766 -1.74853 -1.48186 0
M  V30 2335 C 217.766 -0.618417 -1.48433 0
M  V30 2336 O 218.956 -0.886286 -1.49969 0
M  V30 2337 C 216.088 -1.8303 -2.87598 0
M  V30 2338 H 217.281 -2.70559 -1.29374 0
M  V30 2339 H 214.834 -1.42586 -0.640233 0
M  V30 2340 H 215.569 -0.89236 -3.11781 0
M  V30 2341 H 215.354 -2.65187 -2.88822 0
M  V30 2342 H 216.844 -2.02316 -3.65319 0
M  V30 2343 N 217.281 0.66697 -1.42791 0
M  V30 2344 C 218.529 1.42417 -1.43394 0
M  V30 2345 C 218.85 1.94925 -0.0542373 0
M  V30 2346 O 218.12 1.73564 0.908415 0
M  V30 2347 H 216.7 0.528515 -0.527902 0
M  V30 2348 H 219.362 0.787562 -1.78279 0
M  V30 2349 H 218.458 2.27333 -2.13837 0
M  V30 2350 N 218.759 1.29093 0.90403 0
M  V30 2351 C 219.669 1.15727 2.0407 0
M  V30 2352 C 220.685 0.0815308 1.73809 0
M  V30 2353 O 221.861 0.292749 1.99261 0
M  V30 2354 C 218.926 0.830424 3.36608 0
M  V30 2355 C 217.987 1.98955 3.80415 0
M  V30 2356 C 217.22 1.6782 5.06628 0
M  V30 2357 O 217.443 0.597105 5.67266 0
M  V30 2358 O 216.377 2.52486 5.46383 0
M  V30 2359 H 220.203 2.11171 2.18267 0
M  V30 2360 H 217.788 1.08504 1.027 0
M  V30 2361 H 219.67 0.662521 4.16159 0
M  V30 2362 H 218.345 -0.0942678 3.23563 0
M  V30 2363 H 217.252 2.21267 3.01648 0
M  V30 2364 H 218.585 2.89529 3.98037 0
M  V30 2365 N 220.237 -1.11381 1.11499 0
M  V30 2366 C 221.167 -2.19509 0.796125 0
M  V30 2367 C 222.148 -1.68458 -0.235796 0
M  V30 2368 O 223.333 -1.93947 -0.0991344 0
M  V30 2369 C 220.463 -3.46475 0.239205 0
M  V30 2370 C 219.417 -4.10744 1.20307 0
M  V30 2371 C 218.743 -5.32293 0.50683 0
M  V30 2372 C 220.043 -4.55597 2.55399 0
M  V30 2373 H 221.737 -2.46439 1.70024 0
M  V30 2374 H 219.283 -1.18446 0.818935 0
M  V30 2375 H 221.236 -4.214 0.00392006 0
M  V30 2376 H 219.96 -3.19006 -0.700206 0
M  V30 2377 H 218.619 -3.37813 1.42399 0
M  V30 2378 H 218.267 -5.01095 -0.437408 0
M  V30 2379 H 217.967 -5.76243 1.1497 0
M  V30 2380 H 219.491 -6.09956 0.280351 0
M  V30 2381 H 220.905 -5.21841 2.37391 0
M  V30 2382 H 219.302 -5.10363 3.15673 0
M  V30 2383 H 220.372 -3.69013 3.14575 0
M  V30 2384 N 221.715 -0.905404 -1.28997 0
M  V30 2385 C 222.961 -0.535039 -1.95615 0
M  V30 2386 C 223.294 0.917404 -1.71165 0
M  V30 2387 O 222.569 1.65123 -1.02785 0
M  V30 2388 C 222.852 -0.834918 -3.50287 0
M  V30 2389 C 222.705 -2.33948 -3.84172 0
M  V30 2390 C 224.024 -0.325318 -4.38896 0
M  V30 2391 H 221.143 -0.195861 -0.710498 0
M  V30 2392 H 223.785 -1.13313 -1.52513 0
M  V30 2393 H 221.935 -0.325904 -3.87131 0
M  V30 2394 H 223.607 -2.91847 -3.57243 0
M  V30 2395 H 221.85 -2.79789 -3.31513 0
M  V30 2396 H 222.521 -2.49987 -4.92149 0
M  V30 2397 H 224.997 -0.761256 -4.09077 0
M  V30 2398 H 223.873 -0.564295 -5.45992 0
M  V30 2399 H 224.134 0.774144 -4.35269 0
M  V30 2400 N 223.193 1.4272 -0.668489 0
M  V30 2401 C 224.609 1.55992 -0.33745 0
M  V30 2402 C 224.809 1.64933 1.15756 0
M  V30 2403 O 223.865 1.61278 1.94282 0
M  V30 2404 C 225.178 2.81314 -1.06222 0
M  V30 2405 C 226.726 2.95078 -1.04394 0
M  V30 2406 C 227.201 4.23252 -1.74991 0
M  V30 2407 N 228.692 4.3015 -1.71829 0
M  V30 2408 C 229.427 5.28127 -2.23315 0
M  V30 2409 N 228.923 6.32293 -2.83156 0
M  V30 2410 N 230.716 5.19882 -2.13726 0
M  V30 2411 H 222.867 1.3516 -1.63846 0
M  V30 2412 H 225.13 0.650174 -0.689912 0
M  V30 2413 H 224.836 2.80823 -2.11734 0
M  V30 2414 H 224.71 3.72012 -0.62344 0
M  V30 2415 H 227.097 2.951 0.0028244 0
M  V30 2416 H 227.178 2.05627 -1.52155 0
M  V30 2417 H 226.822 4.2399 -2.79633 0
M  V30 2418 H 226.752 5.11626 -1.24685 0
M  V30 2419 H 229.243 3.55499 -1.28175 0
M  V30 2420 H 229.556 7.03398 -3.20079 0
M  V30 2421 H 227.901 6.32873 -2.87223 0
M  V30 2422 H 231.092 4.37423 -1.66669 0
M  V30 2423 H 231.265 5.96077 -2.54158 0
M  V30 2424 N 224.671 0.411399 1.52136 0
M  V30 2425 C 225.601 -0.404015 2.29978 0
M  V30 2426 C 226.582 -1.04412 1.34284 0
M  V30 2427 O 227.767 -1.0527 1.63192 0
M  V30 2428 C 224.897 -1.5197 3.12286 0
M  V30 2429 C 223.851 -1.00448 4.16046 0
M  V30 2430 C 223.177 -2.21393 4.86712 0
M  V30 2431 C 224.477 -0.0569336 5.22269 0
M  V30 2432 H 226.171 0.245529 2.98392 0
M  V30 2433 H 223.717 0.119525 1.43503 0
M  V30 2434 H 225.67 -2.09715 3.6551 0
M  V30 2435 H 224.394 -2.19716 2.41646 0
M  V30 2436 H 223.053 -0.449421 3.63835 0
M  V30 2437 H 222.701 -2.87699 4.12599 0
M  V30 2438 H 222.401 -1.87571 5.56858 0
M  V30 2439 H 223.925 -2.7974 5.4275 0
M  V30 2440 H 225.339 -0.54325 5.7072 0
M  V30 2441 H 223.736 0.192594 5.99791 0
M  V30 2442 H 224.806 0.887663 4.76706 0
M  V30 2443 N 226.149 -1.5696 0.141893 0
M  V30 2444 C 227.426 -1.87553 -0.555281 0
M  V30 2445 C 227.806 -1.04699 -1.83306 0
M  V30 2446 O 227.154 -0.132346 -2.28116 0
M  V30 2447 C 227.364 -3.39093 -0.825664 0
M  V30 2448 C 228.712 -4.08199 -1.16869 0
M  V30 2449 O 229.736 -3.44242 -0.915185 0
M  V30 2450 O 228.595 -5.21139 -1.6455 0
M  V30 2451 H 225.689 -0.777188 -0.282679 0
M  V30 2452 H 228.235 -1.68763 0.17812 0
M  V30 2453 H 227.007 -3.91221 0.0788633 0
M  V30 2454 H 226.63 -3.63393 -1.61343 0
M  V30 2455 N 227.627 0.131896 -1.57047 0
M  V30 2456 C 228.577 1.1679 -1.95816 0
M  V30 2457 C 229.561 1.37756 -0.831393 0
M  V30 2458 O 230.753 1.39065 -1.09499 0
M  V30 2459 C 227.882 2.49778 -2.35512 0
M  V30 2460 C 226.968 2.32342 -3.54793 0
M  V30 2461 N 227.359 1.8469 -4.70875 0
M  V30 2462 C 225.657 2.63043 -3.60173 0
M  V30 2463 C 226.358 1.80656 -5.52936 0
M  V30 2464 N 225.334 2.24528 -4.95064 0
M  V30 2465 H 229.136 0.791818 -2.83033 0
M  V30 2466 H 226.65 0.339791 -1.58805 0
M  V30 2467 H 228.647 3.24692 -2.61498 0
M  V30 2468 H 227.307 2.88156 -1.49654 0
M  V30 2469 H 228.318 1.54429 -4.9434 0
M  V30 2470 H 224.995 3.05193 -2.84892 0
M  V30 2471 H 226.385 1.45178 -6.56028 0
M  V30 2472 N 229.106 1.52395 0.401703 0
M  V30 2473 C 230.353 1.66817 1.14796 0
M  V30 2474 C 230.681 0.401772 1.90305 0
M  V30 2475 O 229.936 -0.615487 1.85769 0
M  V30 2476 C 230.235 2.84578 2.16217 0
M  V30 2477 C 229.901 4.22513 1.5746 0
M  V30 2478 C 228.563 4.60029 1.41161 0
M  V30 2479 C 230.915 5.0844 1.14622 0
M  V30 2480 C 228.243 5.81144 0.80552 0
M  V30 2481 C 230.595 6.30167 0.55428 0
M  V30 2482 C 229.259 6.66426 0.378482 0
M  V30 2483 H 228.529 0.610428 0.420069 0
M  V30 2484 H 231.176 1.86512 0.434212 0
M  V30 2485 H 229.481 2.59248 2.93764 0
M  V30 2486 H 231.178 2.92933 2.73845 0
M  V30 2487 H 227.768 3.92953 1.71132 0
M  V30 2488 H 231.952 4.80034 1.26021 0
M  V30 2489 H 227.208 6.07855 0.657399 0
M  V30 2490 H 231.382 6.96071 0.213983 0
M  V30 2491 H 229.009 7.60143 -0.0932606 0
M  V30 2492 N 230.584 -0.659388 1.43143 0
M  V30 2493 C 231.532 -1.79374 1.4808 0
M  V30 2494 C 232.526 -1.65639 0.354988 0
M  V30 2495 O 233.732 -1.7206 0.528704 0
M  V30 2496 H 230.107 -0.591705 0.4641 0
M  V30 2497 H 232.078 -1.72329 2.43609 0
M  V30 2498 C 230.827 -3.17606 1.41499 0
M  V30 2499 H 230.15 -3.28809 2.27431 0
M  V30 2500 H 231.59 -3.96951 1.49015 0
M  V30 2501 C 230.049 -3.36642 0.131765 0
M  V30 2502 O 230.579 -3.93461 -0.809386 0
M  V30 2503 N 228.785 -2.90567 0.0439396 0
M  V30 2504 H 228.332 -2.44513 0.810619 0
M  V30 2505 H 228.29 -3.03681 -0.813969 0
M  V30 2506 N 232.062 -1.29571 -0.897171 0
M  V30 2507 C 232.994 -1.10724 -2.00681 0
M  V30 2508 C 234.007 -0.0540026 -1.6271 0
M  V30 2509 O 235.196 -0.298783 -1.75982 0
M  V30 2510 C 232.296 -0.663912 -3.32333 0
M  V30 2511 C 231.469 -1.79622 -3.98816 0
M  V30 2512 C 230.528 -1.34349 -5.0876 0
M  V30 2513 O 229.554 -2.04864 -5.31055 0
M  V30 2514 N 230.756 -0.215764 -5.80099 0
M  V30 2515 H 233.521 -2.06291 -2.17403 0
M  V30 2516 H 231.082 -1.21544 -1.06951 0
M  V30 2517 H 233.074 -0.344295 -4.03233 0
M  V30 2518 H 231.644 0.199375 -3.11964 0
M  V30 2519 H 230.864 -2.28459 -3.21248 0
M  V30 2520 H 232.152 -2.55535 -4.39976 0
M  V30 2521 H 231.55 0.372091 -5.64475 0
M  V30 2522 H 230.107 0.0444707 -6.51785 0
M  V30 2523 N 233.54 1.10788 -1.12088 0
M  V30 2524 C 234.786 1.82942 -0.875226 0
M  V30 2525 C 235.119 1.84779 0.597538 0
M  V30 2526 O 234.394 1.30578 1.44152 0
M  V30 2527 C 234.677 3.29789 -1.44606 0
M  V30 2528 C 234.53 3.36307 -2.98693 0
M  V30 2529 C 235.849 4.26064 -1.10261 0
M  V30 2530 H 232.968 0.664195 -0.319397 0
M  V30 2531 H 235.61 1.29867 -1.38689 0
M  V30 2532 H 233.76 3.75118 -1.01089 0
M  V30 2533 H 235.432 2.99487 -3.50864 0
M  V30 2534 H 233.675 2.76318 -3.34411 0
M  V30 2535 H 234.346 4.39694 -3.33726 0
M  V30 2536 H 236.822 3.88951 -1.4784 0
M  V30 2537 H 235.698 5.27183 -1.52869 0
M  V30 2538 H 235.959 4.42098 -0.0142953 0
M  V30 2539 N 235.018 0.912232 1.28515 0
M  V30 2540 C 236.246 0.560416 1.99166 0
M  V30 2541 C 236.661 -0.857927 1.68182 0
M  V30 2542 O 236.018 -1.56805 0.933733 0
M  V30 2543 C 236.069 0.758142 3.53461 0
M  V30 2544 O 235.79 2.12067 3.83352 0
M  V30 2545 C 237.291 0.412954 4.41372 0
M  V30 2546 H 234.511 0.213805 0.636026 0
M  V30 2547 H 237.055 1.22502 1.63749 0
M  V30 2548 H 235.21 0.140556 3.87145 0
M  V30 2549 H 235.624 2.15923 4.77993 0
M  V30 2550 H 237.098 0.60208 5.48707 0
M  V30 2551 H 237.575 -0.65073 4.34353 0
M  V30 2552 H 238.181 1.00802 4.13182 0
M  V30 2553 N 236.496 -1.42363 0.676048 0
M  V30 2554 C 237.907 -1.84649 0.275948 0
M  V30 2555 C 238.258 -1.56588 -1.18214 0
M  V30 2556 O 237.383 -1.02634 -1.90513 0
M  V30 2557 C 237.978 -3.35178 0.494053 0
M  V30 2558 C 236.537 -3.76109 0.148061 0
M  V30 2559 C 235.684 -2.65931 0.785891 0
M  V30 2560 H 238.635 -1.32192 0.878121 0
M  V30 2561 H 238.656 -3.79655 -0.25343 0
M  V30 2562 H 238.168 -3.55571 1.55535 0
M  V30 2563 H 236.269 -3.61323 -0.909742 0
M  V30 2564 H 236.382 -4.7546 0.589454 0
M  V30 2565 H 234.746 -2.53773 0.217113 0
M  V30 2566 H 235.529 -2.89146 1.85067 0
M  V30 2567 N 237.974 -0.419461 -1.51915 0
M  V30 2568 C 239.251 0.211999 -1.94448 0
M  V30 2569 C 239.631 1.61703 -1.35703 0
M  V30 2570 O 238.979 2.22102 -0.536931 0
M  V30 2571 C 239.189 0.207872 -3.4838 0
M  V30 2572 C 240.537 0.422192 -4.22496 0
M  V30 2573 O 241.561 0.286778 -3.55044 0
M  V30 2574 O 240.42 0.690009 -5.42126 0
M  V30 2575 H 237.514 0.139586 -0.815135 0
M  V30 2576 H 240.06 -0.476151 -1.62883 0
M  V30 2577 H 238.832 -0.775102 -3.83546 0
M  V30 2578 H 238.455 0.939688 -3.86336 0
M  V30 2579 N 239.452 1.56882 -0.150215 0
M  V30 2580 C 240.698 1.96518 0.500834 0
M  V30 2581 C 241.031 1.03527 1.64304 0
M  V30 2582 O 240.306 0.0782751 1.94342 0
M  V30 2583 C 240.589 3.45822 1.00395 0
M  V30 2584 C 240.442 4.49591 -0.136983 0
M  V30 2585 C 241.761 3.97704 1.88467 0
M  V30 2586 H 238.88 0.714535 0.18058 0
M  V30 2587 H 241.522 1.88577 -0.232091 0
M  V30 2588 H 239.672 3.5272 1.62851 0
M  V30 2589 H 241.344 4.5477 -0.77343 0
M  V30 2590 H 239.587 4.26441 -0.795652 0
M  V30 2591 H 240.258 5.51402 0.256815 0
M  V30 2592 H 242.734 3.93304 1.35834 0
M  V30 2593 H 241.61 5.0263 2.20578 0
M  V30 2594 H 241.871 3.40252 2.82279 0
M  V30 2595 N 240.93 -0.123565 1.57115 0
M  V30 2596 C 242.341 -0.681198 1.73829 0
M  V30 2597 C 242.692 -1.80535 0.768214 0
M  V30 2598 O 241.817 -2.16317 -0.0599103 0
M  V30 2599 C 242.412 -1.24246 3.15196 0
M  V30 2600 C 240.971 -1.74643 3.33432 0
M  V30 2601 C 240.118 -0.644284 2.69711 0
M  V30 2602 H 243.069 0.102315 1.5837 0
M  V30 2603 H 243.09 -2.11216 3.16493 0
M  V30 2604 H 242.602 -0.424062 3.85776 0
M  V30 2605 H 240.703 -2.58974 2.67886 0
M  V30 2606 H 240.816 -1.85902 4.41562 0
M  V30 2607 H 239.18 -1.07676 2.3082 0
M  V30 2608 H 239.963 0.163058 3.42913 0
M  V30 2609 N 242.408 -1.52605 -0.393616 0
M  V30 2610 C 243.824 -1.41753 -0.733357 0
M  V30 2611 C 244.024 -0.534293 -1.94287 0
M  V30 2612 O 243.08 -0.0059787 -2.52499 0
M  V30 2613 C 244.393 -2.84531 -0.972772 0
M  V30 2614 C 245.941 -2.93978 -1.07453 0
M  V30 2615 C 246.416 -4.37756 -1.3466 0
M  V30 2616 N 247.907 -4.4106 -1.41492 0
M  V30 2617 C 248.642 -5.49387 -1.642 0
M  V30 2618 N 248.138 -6.67806 -1.8441 0
M  V30 2619 N 249.931 -5.36923 -1.66342 0
M  V30 2620 H 242.082 -2.08555 0.402328 0
M  V30 2621 H 244.345 -0.940654 0.117789 0
M  V30 2622 H 244.051 -3.51353 -0.156204 0
M  V30 2623 H 243.925 -3.26508 -1.88871 0
M  V30 2624 H 246.312 -2.27326 -1.88167 0
M  V30 2625 H 246.393 -2.55435 -0.136605 0
M  V30 2626 H 246.037 -5.04972 -0.544581 0
M  V30 2627 H 245.967 -4.73848 -2.2973 0
M  V30 2628 H 248.458 -3.55705 -1.27601 0
M  V30 2629 H 248.771 -7.46141 -2.01231 0
M  V30 2630 H 247.116 -6.70843 -1.81644 0
M  V30 2631 H 250.307 -4.43381 -1.50102 0
M  V30 2632 H 250.48 -6.21416 -1.837 0
M  V30 2633 N 243.887 0.651787 -1.4349 0
M  V30 2634 C 245.135 1.40888 -1.44897 0
M  V30 2635 C 245.456 1.94856 -0.0749086 0
M  V30 2636 O 244.726 1.74518 0.889956 0
M  V30 2637 H 243.306 0.522887 -0.533478 0
M  V30 2638 H 245.968 0.768609 -1.79104 0
M  V30 2639 H 245.064 2.25052 -2.16236 0
M  V30 2640 N 245.365 1.30045 0.890287 0
M  V30 2641 C 246.781 1.08261 1.17268 0
M  V30 2642 C 246.981 -0.160063 2.00863 0
M  V30 2643 O 246.037 -0.855181 2.37577 0
M  V30 2644 C 247.35 2.34323 1.8845 0
M  V30 2645 C 248.898 2.39735 2.01237 0
M  V30 2646 C 249.373 3.65625 2.7583 0
M  V30 2647 N 250.864 3.66402 2.83379 0
M  V30 2648 C 251.599 4.60498 3.41657 0
M  V30 2649 N 251.095 5.64933 4.01026 0
M  V30 2650 N 252.888 4.48051 3.39421 0
M  V30 2651 H 245.039 2.09777 0.332762 0
M  V30 2652 H 247.302 0.92446 0.209948 0
M  V30 2653 H 247.008 3.2498 1.34465 0
M  V30 2654 H 246.882 2.4256 2.88867 0
M  V30 2655 H 249.269 1.4956 2.54393 0
M  V30 2656 H 249.35 2.35476 0.999232 0
M  V30 2657 H 248.994 4.56156 2.23347 0
M  V30 2658 H 248.924 3.67144 3.77509 0
M  V30 2659 H 251.415 2.90896 2.41222 0
M  V30 2660 H 251.728 6.32841 4.43545 0
M  V30 2661 H 250.073 5.68732 3.99461 0
M  V30 2662 H 253.264 3.65649 2.92264 0
M  V30 2663 H 253.437 5.21565 3.84544 0
M  V30 2664 N 246.843 -1.10192 1.12674 0
M  V30 2665 C 247.806 -2.14786 0.799979 0
M  V30 2666 C 248.806 -1.59711 -0.18685 0
M  V30 2667 O 249.996 -1.74156 0.0392558 0
M  V30 2668 C 247.128 -3.40374 0.189228 0
M  V30 2669 H 248.321 -2.45203 1.72671 0
M  V30 2670 H 245.874 -1.25597 0.930326 0
M  V30 2671 H 246.609 -3.15577 -0.747107 0
M  V30 2672 H 246.394 -3.81637 0.899766 0
M  V30 2673 H 247.884 -4.17594 -0.0228143 0
M  V30 2674 N 248.321 -0.919034 -1.28029 0
M  V30 2675 C 249.551 -0.570143 -1.98577 0
M  V30 2676 C 249.959 0.854172 -1.68821 0
M  V30 2677 O 249.302 1.57807 -0.940351 0
M  V30 2678 C 249.364 -0.705734 -3.52505 0
M  V30 2679 C 249.028 -2.10057 -4.05863 0
M  V30 2680 C 250.025 -3.07385 -4.19298 0
M  V30 2681 C 247.71 -2.41517 -4.40426 0
M  V30 2682 C 249.704 -4.34287 -4.66555 0
M  V30 2683 C 247.391 -3.68657 -4.87376 0
M  V30 2684 C 248.389 -4.64856 -5.00398 0
M  V30 2685 O 248.077 -5.89735 -5.46322 0
M  V30 2686 H 247.809 -0.215592 -0.6407 0
M  V30 2687 H 250.363 -1.23583 -1.64062 0
M  V30 2688 H 248.593 0.0170414 -3.86696 0
M  V30 2689 H 250.282 -0.363172 -4.04272 0
M  V30 2690 H 251.048 -2.84398 -3.92865 0
M  V30 2691 H 246.927 -1.67389 -4.29537 0
M  V30 2692 H 250.471 -5.09377 -4.76635 0
M  V30 2693 H 246.368 -3.91466 -5.13249 0
M  V30 2694 H 247.136 -5.92599 -5.64596 0
M  V30 2695 N 249.799 1.42003 -0.683588 0
M  V30 2696 C 250.729 2.33487 -0.024866 0
M  V30 2697 C 251.71 1.51163 0.779975 0
M  V30 2698 O 252.895 1.79739 0.735362 0
M  V30 2699 C 250.025 3.3487 0.920836 0
M  V30 2700 C 248.979 4.27414 0.223958 0
M  V30 2701 C 248.305 5.19074 1.2832 0
M  V30 2702 C 249.605 5.14445 -0.90242 0
M  V30 2703 H 251.299 2.88819 -0.788921 0
M  V30 2704 H 248.845 1.38873 -0.38083 0
M  V30 2705 H 250.798 3.97787 1.39081 0
M  V30 2706 H 249.522 2.77861 1.71642 0
M  V30 2707 H 248.181 3.65904 -0.225864 0
M  V30 2708 H 247.829 4.58387 2.071 0
M  V30 2709 H 247.529 5.81822 0.821995 0
M  V30 2710 H 249.053 5.84867 1.75392 0
M  V30 2711 H 250.467 5.70998 -0.513272 0
M  V30 2712 H 248.864 5.86072 -1.28997 0
M  V30 2713 H 249.934 4.52322 -1.74737 0
M  V30 2714 N 251.277 0.427512 1.51691 0
M  V30 2715 C 252.187 -0.39527 2.31246 0
M  V30 2716 C 253.203 -1.03674 1.39742 0
M  V30 2717 O 254.379 -1.03425 1.72816 0
M  V30 2718 C 251.444 -1.48706 3.13189 0
M  V30 2719 C 250.505 -0.866743 4.20459 0
M  V30 2720 C 249.738 -1.90651 4.98486 0
M  V30 2721 O 249.961 -3.12733 4.77026 0
M  V30 2722 O 248.895 -1.5025 5.82845 0
M  V30 2723 H 252.721 0.253918 3.02637 0
M  V30 2724 H 250.306 0.190274 1.48183 0
M  V30 2725 H 252.188 -2.12047 3.64162 0
M  V30 2726 H 250.863 -2.12051 2.44573 0
M  V30 2727 H 249.77 -0.195544 3.73589 0
M  V30 2728 H 251.103 -0.276934 4.9142 0
M  V30 2729 N 252.755 -1.56801 0.158532 0
M  V30 2730 C 254.032 -1.88131 -0.535357 0
M  V30 2731 C 254.412 -1.06638 -1.82186 0
M  V30 2732 O 253.76 -0.156533 -2.27963 0
M  V30 2733 C 253.97 -3.39949 -0.789653 0
M  V30 2734 C 255.318 -4.09416 -1.12533 0
M  V30 2735 O 256.342 -3.45194 -0.878622 0
M  V30 2736 O 255.201 -5.22855 -1.59014 0
M  V30 2737 H 252.295 -0.780143 -0.27442 0
M  V30 2738 H 254.841 -1.68564 0.19601 0
M  V30 2739 H 253.613 -3.91115 0.120353 0
M  V30 2740 H 253.236 -3.65084 -1.57479 0
M  V30 2741 N 254.233 0.115231 -1.57178 0
M  V30 2742 C 255.163 1.1423 -2.03651 0
M  V30 2743 C 256.144 1.42967 -0.921655 0
M  V30 2744 O 257.329 1.53343 -1.19162 0
M  V30 2745 C 254.459 2.4675 -2.44401 0
M  V30 2746 C 253.413 2.32467 -3.59365 0
M  V30 2747 C 252.739 3.69984 -3.86026 0
M  V30 2748 C 254.039 1.78203 -4.90959 0
M  V30 2749 H 255.733 0.755749 -2.89705 0
M  V30 2750 H 253.279 0.362093 -1.39373 0
M  V30 2751 H 255.232 3.18854 -2.75517 0
M  V30 2752 H 253.956 2.87302 -1.55322 0
M  V30 2753 H 252.615 1.62811 -3.28463 0
M  V30 2754 H 252.263 4.08028 -2.94147 0
M  V30 2755 H 251.963 3.61279 -4.63412 0
M  V30 2756 H 253.487 4.43587 -4.19599 0
M  V30 2757 H 254.901 2.40128 -5.20587 0
M  V30 2758 H 253.298 1.8031 -5.72371 0
M  V30 2759 H 254.368 0.739876 -4.79222 0
M  V30 2760 N 255.711 1.52812 0.385517 0
M  V30 2761 C 256.959 1.67694 1.12797 0
M  V30 2762 C 257.28 0.421115 1.90399 0
M  V30 2763 O 256.55 -0.564551 1.87589 0
M  V30 2764 H 255.13 0.618155 0.419396 0
M  V30 2765 H 257.792 1.89938 0.436972 0
M  V30 2766 H 256.888 2.52896 1.82894 0
M  V30 2767 N 257.189 -0.644168 1.43834 0
M  V30 2768 C 258.436 -1.40395 1.4593 0
M  V30 2769 C 258.764 -1.94305 0.0869658 0
M  V30 2770 O 258.019 -1.73288 -0.909378 0
M  V30 2771 C 258.318 -2.59615 2.45631 0
M  V30 2772 C 257.984 -2.2407 3.91284 0
M  V30 2773 C 256.646 -2.14089 4.30952 0
M  V30 2774 C 258.998 -1.95775 4.83034 0
M  V30 2775 C 256.326 -1.73981 5.6031 0
M  V30 2776 C 258.678 -1.57163 6.12766 0
M  V30 2777 C 257.342 -1.45713 6.51402 0
M  V30 2778 H 256.612 -0.513741 0.533995 0
M  V30 2779 H 259.259 -0.731724 1.76969 0
M  V30 2780 H 257.564 -3.32011 2.08028 0
M  V30 2781 H 259.261 -3.17834 2.44504 0
M  V30 2782 H 255.851 -2.32753 3.59895 0
M  V30 2783 H 260.035 -2.02403 4.53152 0
M  V30 2784 H 255.291 -1.63709 5.89075 0
M  V30 2785 H 259.465 -1.34303 6.83327 0
M  V30 2786 H 257.092 -1.14406 7.51542 0
M  V30 2787 N 258.668 -1.30515 -0.883378 0
M  V30 2788 C 260.084 -1.08881 -1.16692 0
M  V30 2789 C 260.284 0.149409 -2.00945 0
M  V30 2790 O 259.34 0.84257 -2.38027 0
M  V30 2791 C 260.653 -2.35319 -1.87204 0
M  V30 2792 C 262.201 -2.40799 -1.99962 0
M  V30 2793 C 262.676 -3.67083 -2.73887 0
M  V30 2794 N 264.167 -3.679 -2.81432 0
M  V30 2795 C 264.902 -4.62303 -3.3921 0
M  V30 2796 N 264.398 -5.67052 -3.98025 0
M  V30 2797 N 266.191 -4.49845 -3.3704 0
M  V30 2798 H 258.342 -2.09951 -0.321633 0
M  V30 2799 H 260.605 -0.92556 -0.205043 0
M  V30 2800 H 260.311 -3.25689 -1.3274 0
M  V30 2801 H 260.185 -2.44089 -2.87577 0
M  V30 2802 H 262.572 -1.50907 -2.53597 0
M  V30 2803 H 262.653 -2.36003 -0.98673 0
M  V30 2804 H 262.297 -4.57334 -2.20925 0
M  V30 2805 H 262.227 -3.69141 -3.75556 0
M  V30 2806 H 264.718 -2.92171 -2.39676 0
M  V30 2807 H 265.031 -6.35184 -4.40183 0
M  V30 2808 H 263.376 -5.70842 -3.96439 0
M  V30 2809 H 266.567 -3.67194 -2.90321 0
M  V30 2810 H 266.74 -5.23597 -3.81772 0
M  V30 2811 N 260.146 1.09593 -1.13257 0
M  V30 2812 C 261.392 1.82003 -0.89458 0
M  V30 2813 C 261.725 1.85402 0.577906 0
M  V30 2814 O 261 1.32099 1.42759 0
M  V30 2815 C 261.283 3.28237 -1.48096 0
M  V30 2816 C 261.136 3.3312 -3.02244 0
M  V30 2817 C 262.455 4.24871 -1.14774 0
M  V30 2818 H 259.574 0.66077 -0.326424 0
M  V30 2819 H 262.216 1.28389 -1.40058 0
M  V30 2820 H 260.366 3.74024 -1.05062 0
M  V30 2821 H 262.038 2.95748 -3.54021 0
M  V30 2822 H 260.281 2.72756 -3.37323 0
M  V30 2823 H 260.952 4.3613 -3.38371 0
M  V30 2824 H 263.428 3.87361 -1.51957 0
M  V30 2825 H 262.304 5.25532 -1.58452 0
M  V30 2826 H 262.565 4.42058 -0.0611849 0
M  V30 2827 N 261.624 0.925811 1.2754 0
M  V30 2828 C 262.849 0.580924 1.99098 0
M  V30 2829 C 263.274 -0.833555 1.68622 0
M  V30 2830 O 262.632 -1.55903 0.925422 0
M  V30 2831 C 262.68 0.811186 3.51358 0
M  V30 2832 O 261.784 -0.124129 4.12213 0
M  V30 2833 H 261.125 0.223873 0.625122 0
M  V30 2834 H 263.655 1.24455 1.62395 0
M  V30 2835 H 263.665 0.72601 4.01489 0
M  V30 2836 H 262.34 1.84227 3.72872 0
M  V30 2837 H 260.917 0.0108006 3.72898 0
M  V30 2838 N 263.102 -1.41638 0.69111 0
M  V30 2839 C 264.012 -2.34588 0.0233487 0
M  V30 2840 C 265.028 -1.55987 -0.770984 0
M  V30 2841 O 266.204 -1.88486 -0.709569 0
M  V30 2842 C 263.269 -3.34684 -0.904851 0
M  V30 2843 C 262.33 -4.29176 -0.103225 0
M  V30 2844 C 261.563 -5.2449 -0.987216 0
M  V30 2845 O 261.786 -5.2514 -2.22674 0
M  V30 2846 O 260.72 -6.00295 -0.439281 0
M  V30 2847 H 264.546 -2.93261 0.789416 0
M  V30 2848 H 262.131 -1.42417 0.45142 0
M  V30 2849 H 264.013 -3.96133 -1.43724 0
M  V30 2850 H 262.688 -2.78461 -1.65049 0
M  V30 2851 H 261.595 -3.71089 0.473655 0
M  V30 2852 H 262.928 -4.88484 0.60365 0
M  V30 2853 N 264.58 -0.43555 -1.51462 0
M  V30 2854 C 265.857 0.191364 -1.94662 0
M  V30 2855 C 266.237 1.60254 -1.37411 0
M  V30 2856 O 265.585 2.2152 -0.560458 0
M  V30 2857 C 265.795 0.17091 -3.48581 0
M  V30 2858 C 267.143 0.377357 -4.2292 0
M  V30 2859 O 268.167 0.249104 -3.55328 0
M  V30 2860 O 267.026 0.63247 -5.42828 0
M  V30 2861 H 264.12 0.130932 -0.816569 0
M  V30 2862 H 266.666 -0.4934 -1.62369 0
M  V30 2863 H 265.438 -0.815738 -3.82703 0
M  V30 2864 H 265.061 0.898659 -3.87311 0
M  V30 2865 N 266.058 1.56714 -0.166846 0
M  V30 2866 C 267.307 1.95922 0.479318 0
M  V30 2867 C 267.62 1.05529 1.6469 0
M  V30 2868 O 268.826 1.34399 2.35901 0
M  V30 2869 C 267.282 3.48359 0.90412 0
M  V30 2870 C 266.89 4.47369 -0.237621 0
M  V30 2871 C 268.634 3.96394 1.51896 0
M  V30 2872 C 266.541 5.91039 0.206561 0
M  V30 2873 H 265.471 0.731495 0.18284 0
M  V30 2874 H 268.122 1.81728 -0.254363 0
M  V30 2875 H 266.504 3.57955 1.69365 0
M  V30 2876 H 267.678 4.49485 -1.01489 0
M  V30 2877 H 265.993 4.09366 -0.762128 0
M  V30 2878 H 268.59 5.01186 1.86325 0
M  V30 2879 H 268.933 3.39075 2.41524 0
M  V30 2880 H 269.466 3.89796 0.79395 0
M  V30 2881 H 266.205 6.52221 -0.654834 0
M  V30 2882 H 265.725 5.9224 0.949282 0
M  V30 2883 H 267.404 6.43707 0.651939 0
M  V30 2884 N 267.536 -0.106894 1.57237 0
M  V30 2885 C 268.483 -1.13049 2.01217 0
M  V30 2886 C 269.453 -1.40471 0.886403 0
M  V30 2887 O 270.638 -1.52133 1.15153 0
M  V30 2888 C 267.778 -2.4487 2.43172 0
M  V30 2889 C 266.891 -2.24281 3.69218 0
M  V30 2890 C 266.026 -3.49417 4.00101 0
M  V30 2891 C 265.065 -3.24038 5.19294 0
M  V30 2892 N 264.202 -4.41409 5.45988 0
M  V30 2893 H 269.042 -0.748456 2.88448 0
M  V30 2894 H 266.579 -0.358054 1.42676 0
M  V30 2895 H 268.537 -3.21786 2.65537 0
M  V30 2896 H 267.167 -2.80944 1.58967 0
M  V30 2897 H 266.219 -1.38224 3.54398 0
M  V30 2898 H 267.531 -2.01512 4.56283 0
M  V30 2899 H 266.685 -4.34746 4.2318 0
M  V30 2900 H 265.424 -3.75229 3.11535 0
M  V30 2901 H 264.429 -2.37102 4.96047 0
M  V30 2902 H 265.654 -2.99584 6.09447 0
M  V30 2903 H 263.6 -4.67319 4.60379 0
M  V30 2904 H 263.517 -4.21788 6.274 0
M  V30 2905 H 264.785 -5.27836 5.73593 0
M  V30 2906 N 269.014 -1.53014 -0.377408 0
M  V30 2907 C 270.291 -1.59215 -1.13622 0
M  V30 2908 C 270.671 -0.392407 -2.07421 0
M  V30 2909 O 270.019 0.618342 -2.19975 0
M  V30 2910 C 270.229 -2.93669 -1.88573 0
M  V30 2911 C 271.577 -3.47822 -2.43526 0
M  V30 2912 O 272.601 -2.9562 -1.98715 0
M  V30 2913 O 271.46 -4.39055 -3.25412 0
M  V30 2914 H 268.554 -0.642625 -0.52054 0
M  V30 2915 H 271.1 -1.65353 -0.381625 0
M  V30 2916 H 269.872 -3.7243 -1.20048 0
M  V30 2917 H 269.495 -2.90968 -2.70968 0
M  V30 2918 N 270.492 0.636531 -1.44174 0
M  V30 2919 C 271.717 1.42847 -1.50364 0
M  V30 2920 C 272.142 1.87665 -0.127867 0
M  V30 2921 O 271.5 1.58408 0.88185 0
M  V30 2922 C 271.548 2.62854 -2.4686 0
M  V30 2923 O 270.652 3.62501 -1.9664 0
M  V30 2924 H 269.993 0.427642 -0.507955 0
M  V30 2925 H 272.523 0.777422 -1.89255 0
M  V30 2926 H 272.533 3.10465 -2.64718 0
M  V30 2927 H 271.208 2.29578 -3.46795 0
M  V30 2928 H 269.785 3.21735 -1.88523 0
M  V30 2929 N 271.97 1.30982 0.876444 0
M  V30 2930 C 273.247 1.10942 1.61094 0
M  V30 2931 C 273.627 -0.338223 2.08373 0
M  V30 2932 O 272.975 -1.33122 1.85717 0
M  V30 2933 C 273.185 2.11789 2.77392 0
M  V30 2934 C 274.533 2.43965 3.47514 0
M  V30 2935 O 275.557 2.10166 2.87591 0
M  V30 2936 O 274.416 3.01817 4.55597 0
M  V30 2937 H 271.51 0.42667 0.708436 0
M  V30 2938 H 274.056 1.42438 0.922474 0
M  V30 2939 H 272.828 3.09194 2.39823 0
M  V30 2940 H 272.451 1.81161 3.5393 0
M  V30 2941 N 273.449 -1.08991 1.13837 0
M  V30 2942 C 274.697 -1.80899 0.901098 0
M  V30 2943 C 275.018 -1.86356 -0.574134 0
M  V30 2944 O 274.288 -1.35235 -1.41733 0
M  V30 2945 H 272.868 -0.669966 0.330386 0
M  V30 2946 H 275.53 -1.318 1.43578 0
M  V30 2947 H 274.626 -2.83929 1.29578 0
M  V30 2948 N 274.927 -0.932562 -1.27047 0
M  V30 2949 C 276.173 -0.576412 -1.94436 0
M  V30 2950 C 276.506 0.880891 -1.73072 0
M  V30 2951 O 275.781 1.62905 -1.06264 0
M  V30 2952 C 276.064 -0.909031 -3.48437 0
M  V30 2953 C 275.917 -2.42044 -3.79123 0
M  V30 2954 C 277.236 -0.418341 -4.38107 0
M  V30 2955 H 274.355 -0.210888 -0.706184 0
M  V30 2956 H 276.997 -1.16522 -1.50075 0
M  V30 2957 H 275.147 -0.407947 -3.86352 0
M  V30 2958 H 276.819 -2.99359 -3.50973 0
M  V30 2959 H 275.062 -2.86758 -3.25503 0
M  V30 2960 H 275.733 -2.6037 -4.86736 0
M  V30 2961 H 278.209 -0.847856 -4.0737 0
M  V30 2962 H 277.085 -0.679981 -5.44672 0
M  V30 2963 H 277.346 0.681642 -4.36814 0
M  V30 2964 N 276.405 1.4127 -0.698611 0
M  V30 2965 C 277.633 2.05503 -0.239992 0
M  V30 2966 C 278.048 1.52584 1.11191 0
M  V30 2967 O 277.405 0.675323 1.69545 0
M  V30 2968 C 277.456 3.60987 -0.192429 0
M  V30 2969 O 277.177 4.1195 -1.49094 0
M  V30 2970 C 278.678 4.42371 0.28681 0
M  V30 2971 H 275.898 0.661748 -0.111045 0
M  V30 2972 H 278.442 1.80987 -0.95205 0
M  V30 2973 H 276.597 3.84533 0.470472 0
M  V30 2974 H 277.011 5.06018 -1.38007 0
M  V30 2975 H 278.485 5.51344 0.26896 0
M  V30 2976 H 278.962 4.18699 1.32619 0
M  V30 2977 H 279.568 4.23897 -0.345201 0
M  V30 2978 N 277.883 0.443576 1.51229 0
M  V30 2979 C 279.113 -0.119117 2.06256 0
M  V30 2980 C 279.521 -1.36471 1.31043 0
M  V30 2981 O 278.864 -1.80034 0.365151 0
M  V30 2982 C 278.926 -0.500546 3.55998 0
M  V30 2983 C 278.59 0.639125 4.52509 0
M  V30 2984 C 279.587 1.51311 4.97394 0
M  V30 2985 C 277.272 0.821632 4.95535 0
M  V30 2986 C 279.266 2.55425 5.83984 0
M  V30 2987 C 276.953 1.86603 5.81913 0
M  V30 2988 C 277.951 2.73072 6.26036 0
M  V30 2989 O 277.639 3.75718 7.10698 0
M  V30 2990 H 277.371 -0.00857665 0.675946 0
M  V30 2991 H 279.925 0.623288 1.95715 0
M  V30 2992 H 278.155 -1.29575 3.64345 0
M  V30 2993 H 279.844 -0.995116 3.93513 0
M  V30 2994 H 280.61 1.38367 4.64844 0
M  V30 2995 H 276.489 0.158149 4.60729 0
M  V30 2996 H 280.033 3.22949 6.18344 0
M  V30 2997 H 275.93 1.99564 6.13876 0
M  V30 2998 H 276.698 3.72374 7.2889 0
M  V30 2999 N 279.361 -1.56624 0.175154 0
M  V30 3000 C 280.324 -2.16934 -0.739738 0
M  V30 3001 C 281.324 -1.11842 -1.15533 0
M  V30 3002 O 282.514 -1.37335 -1.07167 0
M  V30 3003 C 279.646 -2.75531 -2.00738 0
M  V30 3004 H 280.839 -2.99131 -0.214639 0
M  V30 3005 H 278.392 -1.56123 -0.0744197 0
M  V30 3006 H 279.127 -1.97078 -2.57548 0
M  V30 3007 H 278.912 -3.52444 -1.71831 0
M  V30 3008 H 280.402 -3.21904 -2.66021 0
M  V30 3009 N 280.839 0.0985539 -1.57292 0
M  V30 3010 C 281.802 1.10402 -2.00858 0
M  V30 3011 C 282.802 1.33146 -0.901593 0
M  V30 3012 O 283.992 1.29318 -1.16716 0
M  V30 3013 C 281.124 2.45394 -2.36632 0
M  V30 3014 H 282.317 0.729099 -2.90902 0
M  V30 3015 H 279.87 0.343495 -1.52479 0
M  V30 3016 H 280.605 2.87769 -1.49531 0
M  V30 3017 H 280.39 2.30235 -3.17387 0
M  V30 3018 H 281.88 3.17718 -2.71007 0
M  V30 3019 N 282.317 1.53212 0.369288 0
M  V30 3020 C 283.563 1.70413 1.11046 0
M  V30 3021 C 283.918 0.448509 1.87099 0
M  V30 3022 O 283.211 -0.558382 1.83283 0
M  V30 3023 C 283.405 2.89101 2.10132 0
M  V30 3024 C 283.234 4.26084 1.43814 0
M  V30 3025 C 282.004 4.90994 1.19384 0
M  V30 3026 C 284.202 5.06754 0.877802 0
M  V30 3027 N 282.184 6.11911 0.49377 0
M  V30 3028 C 283.555 6.1924 0.306891 0
M  V30 3029 C 285.61 4.91814 0.776129 0
M  V30 3030 C 284.313 7.1842 -0.355774 0
M  V30 3031 C 286.339 5.91263 0.127252 0
M  V30 3032 C 285.701 7.03069 -0.432801 0
M  V30 3033 H 281.8 0.676872 0.391623 0
M  V30 3034 H 284.384 1.90603 0.397334 0
M  V30 3035 H 282.555 2.70456 2.78761 0
M  V30 3036 H 284.287 2.95142 2.76899 0
M  V30 3037 H 281.042 4.50074 1.47413 0
M  V30 3038 H 281.466 6.76813 0.159207 0
M  V30 3039 H 286.108 4.05564 1.19489 0
M  V30 3040 H 283.826 8.04264 -0.786499 0
M  V30 3041 H 287.412 5.81779 0.0495613 0
M  V30 3042 H 286.292 7.78702 -0.926958 0
M  V30 3043 N 283.795 -0.628877 1.44509 0
M  V30 3044 C 284.728 -1.75367 1.46019 0
M  V30 3045 C 285.706 -1.59444 0.318787 0
M  V30 3046 O 286.89 -1.81297 0.516099 0
M  V30 3047 C 284.017 -3.12965 1.29501 0
M  V30 3048 C 283.063 -3.47532 2.47233 0
M  V30 3049 S 283.896 -3.44758 4.09758 0
M  V30 3050 C 285.052 -4.84973 3.95667 0
M  V30 3051 H 285.285 -1.7382 2.41193 0
M  V30 3052 H 282.818 -0.803686 1.31834 0
M  V30 3053 H 284.776 -3.92367 1.20658 0
M  V30 3054 H 283.437 -3.12049 0.358341 0
M  V30 3055 H 282.63 -4.47664 2.31544 0
M  V30 3056 H 282.232 -2.75598 2.52828 0
M  V30 3057 H 284.524 -5.74255 3.59496 0
M  V30 3058 H 285.467 -5.05716 4.95638 0
M  V30 3059 H 285.875 -4.59653 3.27688 0
M  V30 3060 N 285.273 -1.31445 -0.869486 0
M  V30 3061 C 286.223 -1.15731 -1.96444 0
M  V30 3062 C 287.207 -0.0681855 -1.60755 0
M  V30 3063 O 288.399 -0.293154 -1.74555 0
M  V30 3064 C 285.528 -0.867255 -3.32165 0
M  V30 3065 C 284.614 -1.99738 -3.74119 0
M  V30 3066 N 285.005 -3.24447 -3.88031 0
M  V30 3067 C 283.303 -1.89723 -4.03635 0
M  V30 3068 C 284.004 -3.98374 -4.23879 0
M  V30 3069 N 282.98 -3.26547 -4.3459 0
M  V30 3070 H 286.782 -2.10296 -2.05312 0
M  V30 3071 H 284.296 -1.23009 -1.06031 0
M  V30 3072 H 286.293 -0.735668 -4.10358 0
M  V30 3073 H 284.953 0.0701614 -3.24624 0
M  V30 3074 H 285.964 -3.59557 -3.72746 0
M  V30 3075 H 282.641 -1.03449 -4.04481 0
M  V30 3076 H 284.031 -5.05844 -4.42235 0
M  V30 3077 N 286.751 1.08385 -1.14413 0
M  V30 3078 C 288.167 1.32844 -0.884563 0
M  V30 3079 C 288.367 1.95841 0.474181 0
M  V30 3080 O 287.423 2.21158 1.21842 0
M  V30 3081 C 288.736 2.22978 -2.01745 0
M  V30 3082 C 290.284 2.36458 -2.05077 0
M  V30 3083 C 290.759 3.29934 -3.1766 0
M  V30 3084 N 292.25 3.37511 -3.17239 0
M  V30 3085 C 292.985 4.09871 -4.0099 0
M  V30 3086 N 292.481 4.84936 -4.94781 0
M  V30 3087 N 294.274 4.05704 -3.89051 0
M  V30 3088 H 286.425 0.658756 -2.01926 0
M  V30 3089 H 288.688 0.352821 -0.879899 0
M  V30 3090 H 288.394 1.83934 -2.99769 0
M  V30 3091 H 288.268 3.23441 -1.94077 0
M  V30 3092 H 290.655 2.7476 -1.0766 0
M  V30 3093 H 290.736 1.35736 -2.16816 0
M  V30 3094 H 290.38 2.92352 -4.15322 0
M  V30 3095 H 290.31 4.30584 -3.03158 0
M  V30 3096 H 292.801 2.83996 -2.49308 0
M  V30 3097 H 293.114 5.37612 -5.55151 0
M  V30 3098 H 291.459 4.83988 -4.98779 0
M  V30 3099 H 294.65 3.46167 -3.15097 0
M  V30 3100 H 294.823 4.61834 -4.54547 0
M  V30 3101 N 288.23 0.939286 1.26551 0
M  V30 3102 C 289.177 0.446088 2.26448 0
M  V30 3103 C 290.147 -0.493234 1.58608 0
M  V30 3104 O 291.332 -0.409857 1.86346 0
M  V30 3105 C 288.472 -0.284375 3.43926 0
M  V30 3106 C 287.585 0.690399 4.26448 0
M  V30 3107 C 286.72 -0.0610712 5.31165 0
M  V30 3108 C 285.759 0.905649 6.05363 0
M  V30 3109 N 284.896 0.186055 7.01853 0
M  V30 3110 H 289.736 1.30291 2.68008 0
M  V30 3111 H 287.273 0.65371 1.31776 0
M  V30 3112 H 289.231 -0.724313 4.10864 0
M  V30 3113 H 287.861 -1.10535 3.03285 0
M  V30 3114 H 286.913 1.24885 3.59316 0
M  V30 3115 H 288.225 1.42873 4.779 0
M  V30 3116 H 287.379 -0.56038 6.04106 0
M  V30 3117 H 286.118 -0.832297 4.80546 0
M  V30 3118 H 285.123 1.4161 5.3125 0
M  V30 3119 H 286.348 1.67685 6.58072 0
M  V30 3120 H 284.294 -0.566714 6.53548 0
M  V30 3121 H 284.211 0.863752 7.51049 0
M  V30 3122 H 285.479 -0.292221 7.78952 0
M  V30 3123 N 289.708 -1.40897 0.706093 0
M  V30 3124 C 290.64 -2.29199 0.00815776 0
M  V30 3125 C 291.653 -1.45336 -0.733582 0
M  V30 3126 O 292.842 -1.68727 -0.582537 0
M  V30 3127 C 289.942 -3.23417 -1.01265 0
M  V30 3128 C 289.115 -4.36089 -0.338387 0
M  V30 3129 C 288.174 -5.10811 -1.26326 0
M  V30 3130 O 287.2 -5.64215 -0.751651 0
M  V30 3131 N 288.402 -5.19269 -2.595 0
M  V30 3132 H 291.167 -2.89738 0.766297 0
M  V30 3133 H 288.728 -1.52164 0.55296 0
M  V30 3134 H 290.72 -3.70276 -1.63334 0
M  V30 3135 H 289.29 -2.64112 -1.67223 0
M  V30 3136 H 288.51 -3.91479 0.462352 0
M  V30 3137 H 289.798 -5.08634 0.130031 0
M  V30 3138 H 289.196 -4.77347 -3.03573 0
M  V30 3139 H 287.753 -5.69667 -3.16737 0
M  V30 3140 N 291.186 -0.45159 -1.50991 0
M  V30 3141 C 292.414 0.108334 -2.06616 0
M  V30 3142 C 292.829 1.35224 -1.31757 0
M  V30 3143 O 292.186 1.78475 -0.381174 0
M  V30 3144 C 292.237 0.41619 -3.59096 0
M  V30 3145 O 291.958 -0.778361 -4.3113 0
M  V30 3146 C 293.459 1.02523 -4.31282 0
M  V30 3147 H 290.679 0.00159995 -0.670998 0
M  V30 3148 H 293.223 -0.634771 -1.94399 0
M  V30 3149 H 291.378 1.10921 -3.71181 0
M  V30 3150 H 291.792 -0.511181 -5.22003 0
M  V30 3151 H 293.266 1.19053 -5.39009 0
M  V30 3152 H 293.743 2.01013 -3.905 0
M  V30 3153 H 294.349 0.371173 -4.23677 0
M  V30 3154 N 292.664 1.56529 -0.183458 0
M  V30 3155 C 293.91 1.97537 0.459036 0
M  V30 3156 C 294.243 1.06989 1.62071 0
M  V30 3157 O 293.518 0.11948 1.94133 0
M  V30 3158 C 293.801 3.47874 0.930368 0
M  V30 3159 C 293.654 4.492 -0.232317 0
M  V30 3160 C 294.973 4.01612 1.79989 0
M  V30 3161 H 292.092 0.718204 0.165383 0
M  V30 3162 H 294.734 1.88042 -0.272038 0
M  V30 3163 H 292.884 3.56095 1.55333 0
M  V30 3164 H 294.556 4.53027 -0.86972 0
M  V30 3165 H 292.799 4.24657 -0.885928 0
M  V30 3166 H 293.47 5.51823 0.139796 0
M  V30 3167 H 295.946 3.96097 1.27461 0
M  V30 3168 H 294.822 5.07195 2.09867 0
M  V30 3169 H 295.083 3.46163 2.74998 0
M  V30 3170 N 294.142 -0.090211 1.57342 0
M  V30 3171 C 295.092 -1.11557 1.98844 0
M  V30 3172 C 296.076 -1.35503 0.867624 0
M  V30 3173 O 297.268 -1.36113 1.13148 0
M  V30 3174 C 294.397 -2.43446 2.42051 0
M  V30 3175 C 293.483 -2.22853 3.60828 0
M  V30 3176 N 293.874 -1.72141 4.75606 0
M  V30 3177 C 292.172 -2.53401 3.67021 0
M  V30 3178 C 292.873 -1.65932 5.57531 0
M  V30 3179 N 291.849 -2.11323 5.00843 0
M  V30 3180 H 295.651 -0.716499 2.85032 0
M  V30 3181 H 293.165 -0.297567 1.59651 0
M  V30 3182 H 295.162 -3.17644 2.70014 0
M  V30 3183 H 293.822 -2.84087 1.57241 0
M  V30 3184 H 294.833 -1.41268 4.98261 0
M  V30 3185 H 291.51 -2.97532 2.92884 0
M  V30 3186 H 292.9 -1.27733 6.59647 0
M  V30 3187 N 295.62 -1.53406 -0.361157 0
M  V30 3188 C 296.897 -1.60411 -1.11927 0
M  V30 3189 C 297.277 -0.414385 -2.06993 0
M  V30 3190 O 296.625 0.594976 -2.20618 0
M  V30 3191 C 296.835 -2.95652 -1.85448 0
M  V30 3192 C 298.183 -3.50386 -2.39823 0
M  V30 3193 O 299.207 -2.97711 -1.95568 0
M  V30 3194 O 298.066 -4.42482 -3.20737 0
M  V30 3195 H 295.16 -0.64811 -0.513695 0
M  V30 3196 H 297.706 -1.65749 -0.364065 0
M  V30 3197 H 296.478 -3.73682 -1.16091 0
M  V30 3198 H 296.101 -2.93825 -2.67866 0
M  V30 3199 N 297.098 0.621204 -1.44841 0
M  V30 3200 C 298.326 1.40752 -1.51646 0
M  V30 3201 C 298.741 1.88246 -0.144549 0
M  V30 3202 O 298.098 1.61422 0.851416 0
M  V30 3203 C 298.149 2.62119 -2.4895 0
M  V30 3204 O 297.87 2.16602 -3.80808 0
M  V30 3205 C 299.371 3.55135 -2.65319 0
M  V30 3206 H 296.591 0.431325 -0.514004 0
M  V30 3207 H 299.135 0.758835 -1.899 0
M  V30 3208 H 297.29 3.23058 -2.13805 0
M  V30 3209 H 297.704 2.95358 -4.33433 0
M  V30 3210 H 299.178 4.36874 -3.37409 0
M  V30 3211 H 299.655 4.04592 -1.70886 0
M  V30 3212 H 300.261 3.00058 -3.01405 0
M  V30 3213 N 298.576 1.31904 0.862503 0
M  V30 3214 C 299.539 1.20131 1.95195 0
M  V30 3215 C 300.539 0.126409 1.60302 0
M  V30 3216 O 301.729 0.376234 1.70089 0
M  V30 3217 C 298.861 0.845691 3.30244 0
M  V30 3218 H 300.054 2.16943 2.07064 0
M  V30 3219 H 297.607 1.15622 1.05172 0
M  V30 3220 H 298.342 -0.120957 3.24074 0
M  V30 3221 H 298.127 1.62276 3.56944 0
M  V30 3222 H 299.617 0.787418 4.10109 0
M  V30 3223 N 300.054 -1.07777 1.14986 0
M  V30 3224 C 300.984 -2.16865 0.865557 0
M  V30 3225 C 301.965 -1.69123 -0.182083 0
M  V30 3226 O 303.15 -1.94164 -0.0373815 0
M  V30 3227 C 300.28 -3.45539 0.349313 0
M  V30 3228 C 299.234 -4.06708 1.33313 0
M  V30 3229 C 298.56 -5.30411 0.675918 0
M  V30 3230 C 299.86 -4.47241 2.69764 0
M  V30 3231 H 301.554 -2.40905 1.77778 0
M  V30 3232 H 299.1 -1.15781 0.856203 0
M  V30 3233 H 301.053 -4.21174 0.137983 0
M  V30 3234 H 299.777 -3.21072 -0.598362 0
M  V30 3235 H 298.436 -3.33112 1.53075 0
M  V30 3236 H 298.084 -5.02232 -0.277767 0
M  V30 3237 H 297.784 -5.72293 1.33244 0
M  V30 3238 H 299.308 -6.08755 0.474262 0
M  V30 3239 H 300.722 -5.14025 2.53873 0
M  V30 3240 H 299.119 -5.00062 3.3175 0
M  V30 3241 H 300.189 -3.58818 3.26156 0
M  V30 3242 N 301.532 -0.945985 -1.26051 0
M  V30 3243 C 302.76 -0.613025 -1.9761 0
M  V30 3244 C 303.175 0.813035 -1.70397 0
M  V30 3245 O 302.532 1.54274 -0.974979 0
M  V30 3246 C 302.583 -0.85159 -3.51326 0
M  V30 3247 O 302.304 -2.22157 -3.77595 0
M  V30 3248 C 303.805 -0.529831 -4.40122 0
M  V30 3249 H 301.025 -0.230593 -0.630133 0
M  V30 3250 H 303.569 -1.268 -1.60443 0
M  V30 3251 H 301.724 -0.243151 -3.86636 0
M  V30 3252 H 302.138 -2.2852 -4.721 0
M  V30 3253 H 303.612 -0.747348 -5.46917 0
M  V30 3254 H 304.089 0.535341 -4.35925 0
M  V30 3255 H 304.695 -1.11721 -4.10364 0
M  V30 3256 N 303.011 1.40521 -0.713556 0
M  V30 3257 C 304.259 2.00527 -0.251692 0
M  V30 3258 C 304.58 1.56857 1.15848 0
M  V30 3259 O 303.85 0.807127 1.785 0
M  V30 3260 H 302.43 0.741551 -0.0900646 0
M  V30 3261 H 305.092 1.71887 -0.918733 0
M  V30 3262 H 304.188 3.10813 -0.283192 0
M  V30 3263 N 304.489 0.459591 1.5075 0
M  V30 3264 C 305.737 -0.0991532 2.01857 0
M  V30 3265 C 306.058 -1.41247 1.34441 0
M  V30 3266 O 305.328 -1.89775 0.486022 0
M  V30 3267 H 303.908 -0.039633 0.745948 0
M  V30 3268 H 306.57 0.607387 1.85194 0
M  V30 3269 H 305.666 -0.258998 3.11023 0
M  V30 3270 N 305.967 -1.56429 0.191757 0
M  V30 3271 C 306.915 -2.20273 -0.747174 0
M  V30 3272 C 307.909 -1.17288 -1.22229 0
M  V30 3273 O 309.115 -1.35441 -1.18557 0
M  V30 3274 H 305.49 -0.705885 -0.259289 0
M  V30 3275 H 307.461 -2.97826 -0.184963 0
M  V30 3276 C 306.21 -2.87356 -1.95759 0
M  V30 3277 H 305.533 -3.66341 -1.60106 0
M  V30 3278 H 306.973 -3.3547 -2.59299 0
M  V30 3279 C 305.432 -1.88213 -2.79423 0
M  V30 3280 O 305.962 -1.38033 -3.7724 0
M  V30 3281 N 304.168 -1.56516 -2.44849 0
M  V30 3282 H 303.715 -1.97516 -1.65364 0
M  V30 3283 H 303.673 -0.904369 -3.01112 0
M  V30 3284 N 307.445 0.0818655 -1.57387 0
M  V30 3285 C 308.693 0.781368 -1.86384 0
M  V30 3286 C 309.014 1.78618 -0.782342 0
M  V30 3287 O 308.284 1.94976 0.190061 0
M  V30 3288 H 306.864 0.291562 -0.687751 0
M  V30 3289 H 309.526 0.060348 -1.94807 0
M  V30 3290 H 308.622 1.3038 -2.83562 0
M  V30 3291 N 308.923 1.53595 0.353017 0
M  V30 3292 C 310.334 1.61937 0.929153 0
M  V30 3293 C 310.685 0.494686 1.89861 0
M  V30 3294 O 309.81 -0.377017 2.1309 0
M  V30 3295 C 310.405 2.93526 1.69199 0
M  V30 3296 C 308.964 3.04161 2.21727 0
M  V30 3297 C 308.111 2.57322 1.03348 0
M  V30 3298 H 311.062 1.58155 0.131431 0
M  V30 3299 H 311.083 2.82034 2.55416 0
M  V30 3300 H 310.595 3.75362 0.986144 0
M  V30 3301 H 308.696 2.26938 2.95516 0
M  V30 3302 H 308.809 4.09465 2.48748 0
M  V30 3303 H 307.173 2.12499 1.40414 0
M  V30 3304 H 307.956 3.41588 0.342428 0
M  V30 3305 N 310.401 -0.613514 1.45168 0
M  V30 3306 C 311.817 -0.933629 1.29443 0
M  V30 3307 C 312.017 -2.00028 0.243101 0
M  V30 3308 O 311.073 -2.49848 -0.364992 0
M  V30 3309 C 312.386 -1.38018 2.67155 0
M  V30 3310 C 313.934 -1.49471 2.75004 0
M  V30 3311 C 314.409 -1.97503 4.13227 0
M  V30 3312 N 315.9 -2.04746 4.15491 0
M  V30 3313 C 316.635 -2.43121 5.19307 0
M  V30 3314 N 316.131 -2.80506 6.33473 0
M  V30 3315 N 317.924 -2.43408 5.06664 0
M  V30 3316 H 310.075 0.0916097 2.12202 0
M  V30 3317 H 312.338 -0.0216655 0.947752 0
M  V30 3318 H 312.044 -0.670625 3.45247 0
M  V30 3319 H 311.918 -2.34784 2.95222 0
M  V30 3320 H 314.305 -2.19519 1.9722 0
M  V30 3321 H 314.386 -0.510342 2.50657 0
M  V30 3322 H 314.03 -1.28045 4.91495 0
M  V30 3323 H 313.96 -2.96843 4.34962 0
M  V30 3324 H 316.451 -1.78468 3.33103 0
M  V30 3325 H 316.764 -3.08652 7.08487 0
M  V30 3326 H 315.109 -2.78216 6.36884 0
M  V30 3327 H 318.3 -2.13604 4.16523 0
M  V30 3328 H 318.473 -2.72989 5.87691 0
M  V30 3329 N 311.879 -1.3236 -0.855495 0
M  V30 3330 C 312.812 -1.15559 -1.96777 0
M  V30 3331 C 313.79 -0.0552681 -1.62506 0
M  V30 3332 O 314.974 -0.214419 -1.87277 0
M  V30 3333 C 312.101 -0.768851 -3.29858 0
M  V30 3334 C 311.147 -1.87429 -3.83109 0
M  V30 3335 S 311.98 -3.48243 -4.06801 0
M  V30 3336 C 313.136 -3.11539 -5.42858 0
M  V30 3337 H 313.369 -2.09717 -2.10727 0
M  V30 3338 H 310.902 -1.17011 -1.00737 0
M  V30 3339 H 312.86 -0.55248 -4.06765 0
M  V30 3340 H 311.521 0.153857 -3.13723 0
M  V30 3341 H 310.714 -1.55667 -4.79358 0
M  V30 3342 H 310.316 -2.04647 -3.13042 0
M  V30 3343 H 312.608 -2.61331 -6.2507 0
M  V30 3344 H 313.551 -4.06806 -5.79582 0
M  V30 3345 H 313.959 -2.48582 -5.06821 0
M  V30 3346 N 313.357 1.07166 -1.15556 0
M  V30 3347 C 314.307 2.12649 -0.82247 0
M  V30 3348 C 315.291 1.59725 0.194129 0
M  V30 3349 O 316.483 1.76999 -0.00540402 0
M  V30 3350 C 313.612 3.41847 -0.315572 0
M  V30 3351 C 312.698 4.0162 -1.36244 0
M  V30 3352 N 313.089 4.35625 -2.5703 0
M  V30 3353 C 311.387 4.29114 -1.21562 0
M  V30 3354 C 312.088 4.83017 -3.24144 0
M  V30 3355 N 311.064 4.81906 -2.51531 0
M  V30 3356 H 314.866 2.36776 -1.74111 0
M  V30 3357 H 312.38 1.24622 -1.0413 0
M  V30 3358 H 314.377 4.16859 -0.0585855 0
M  V30 3359 H 313.037 3.19163 0.597105 0
M  V30 3360 H 314.048 4.26253 -2.94158 0
M  V30 3361 H 310.725 4.15919 -0.362988 0
M  V30 3362 H 312.115 5.18605 -4.27198 0
M  V30 3363 N 314.835 0.952656 1.25548 0
M  V30 3364 C 315.785 0.442033 2.23674 0
M  V30 3365 C 316.769 -0.467632 1.53955 0
M  V30 3366 O 317.961 -0.301006 1.74422 0
M  V30 3367 C 315.09 -0.280816 3.4215 0
M  V30 3368 C 314.176 0.646803 4.19139 0
M  V30 3369 N 314.567 1.77759 4.73535 0
M  V30 3370 C 312.865 0.454617 4.43677 0
M  V30 3371 C 313.566 2.35658 5.31827 0
M  V30 3372 N 312.542 1.64333 5.18166 0
M  V30 3373 H 316.344 1.30505 2.63336 0
M  V30 3374 H 313.858 0.809904 1.40763 0
M  V30 3375 H 315.855 -0.663747 4.11582 0
M  V30 3376 H 314.515 -1.14046 3.04012 0
M  V30 3377 H 315.526 2.15949 4.7073 0
M  V30 3378 H 312.203 -0.362312 4.15925 0
M  V30 3379 H 313.593 3.30998 5.84713 0
M  V30 3380 N 316.313 -1.40141 0.720998 0
M  V30 3381 C 317.559 -2.01084 0.263231 0
M  V30 3382 C 317.892 -1.57052 -1.14229 0
M  V30 3383 O 317.167 -0.793027 -1.77599 0
M  V30 3384 C 317.45 -3.58401 0.349344 0
M  V30 3385 C 317.303 -4.12491 1.79363 0
M  V30 3386 C 318.622 -4.39231 -0.276351 0
M  V30 3387 H 315.741 -0.730572 0.0971228 0
M  V30 3388 H 318.383 -1.66543 0.914518 0
M  V30 3389 H 316.533 -3.87958 -0.205165 0
M  V30 3390 H 318.205 -3.93711 2.40394 0
M  V30 3391 H 316.448 -3.66576 2.31958 0
M  V30 3392 H 317.119 -5.21646 1.80524 0
M  V30 3393 H 319.595 -4.15637 0.196184 0
M  V30 3394 H 318.471 -5.48586 -0.185681 0
M  V30 3395 H 318.732 -4.20643 -1.36059 0
M  V30 3396 N 317.792 -0.46758 -1.50504 0
M  V30 3397 C 318.755 0.317059 -2.26996 0
M  V30 3398 C 319.755 0.923513 -1.31635 0
M  V30 3399 O 320.945 0.793239 -1.55091 0
M  V30 3400 C 318.077 1.45134 -3.08462 0
M  V30 3401 H 319.27 -0.353723 -2.97807 0
M  V30 3402 H 316.823 -0.221545 -1.54722 0
M  V30 3403 H 317.558 2.15728 -2.4214 0
M  V30 3404 H 317.343 1.02232 -3.78538 0
M  V30 3405 H 318.833 2.00493 -3.66323 0
M  V30 3406 N 319.27 1.56325 -0.20005 0
M  V30 3407 C 320.517 1.97719 0.437411 0
M  V30 3408 C 320.845 1.08709 1.61284 0
M  V30 3409 O 320.1 0.127261 1.95286 0
M  V30 3410 C 320.399 3.4495 0.935103 0
M  V30 3411 C 320.065 4.5072 -0.12749 0
M  V30 3412 C 318.727 4.79368 -0.419451 0
M  V30 3413 C 321.079 5.14268 -0.847231 0
M  V30 3414 C 318.407 5.68854 -1.43604 0
M  V30 3415 C 320.759 6.04852 -1.85301 0
M  V30 3416 C 319.423 6.31855 -2.15211 0
M  V30 3417 H 318.693 0.723507 0.16006 0
M  V30 3418 H 321.34 1.89166 -0.298056 0
M  V30 3419 H 319.645 3.50599 1.74894 0
M  V30 3420 H 321.342 3.74337 1.43781 0
M  V30 3421 H 317.932 4.28458 0.11023 0
M  V30 3422 H 322.116 4.92222 -0.634901 0
M  V30 3423 H 317.372 5.88047 -1.67364 0
M  V30 3424 H 321.546 6.53152 -2.41591 0
M  V30 3425 H 319.173 7.00994 -2.94129 0
M  V30 3426 N 320.748 -0.0735177 1.57428 0
M  V30 3427 C 321.711 -1.07192 2.02589 0
M  V30 3428 C 322.711 -1.31695 0.922661 0
M  V30 3429 O 323.901 -1.27445 1.18758 0
M  V30 3430 C 321.033 -2.41599 2.40506 0
M  V30 3431 H 322.226 -0.682727 2.92025 0
M  V30 3432 H 319.779 -0.319193 1.53006 0
M  V30 3433 H 320.514 -2.85354 1.5409 0
M  V30 3434 H 320.299 -2.25156 3.21009 0
M  V30 3435 H 321.789 -3.13367 2.76027 0
M  V30 3436 N 322.226 -1.5378 -0.344866 0
M  V30 3437 C 323.454 -1.74899 -1.10534 0
M  V30 3438 C 323.869 -0.487534 -1.82397 0
M  V30 3439 O 323.226 0.540741 -1.74305 0
M  V30 3440 C 323.277 -2.92822 -2.11984 0
M  V30 3441 O 322.998 -4.14089 -1.43044 0
M  V30 3442 C 324.499 -3.25982 -3.00417 0
M  V30 3443 H 321.719 -0.584426 -0.329678 0
M  V30 3444 H 324.263 -2.006 -0.397474 0
M  V30 3445 H 322.418 -2.69457 -2.78338 0
M  V30 3446 H 322.832 -4.80272 -2.10805 0
M  V30 3447 H 324.306 -4.11848 -3.67539 0
M  V30 3448 H 324.783 -2.42228 -3.66363 0
M  V30 3449 H 325.389 -3.51349 -2.39654 0
M  V30 3450 N 323.704 0.605807 -1.45491 0
M  V30 3451 C 324.654 1.71074 -1.50724 0
M  V30 3452 C 325.638 1.5658 -0.37033 0
M  V30 3453 O 326.83 1.65887 -0.617299 0
M  V30 3454 C 323.959 3.0983 -1.47852 0
M  V30 3455 C 323.045 3.29704 -2.66751 0
M  V30 3456 N 323.436 3.19831 -3.91844 0
M  V30 3457 C 321.734 3.60579 -2.62486 0
M  V30 3458 C 322.435 3.41083 -4.71208 0
M  V30 3459 N 321.411 3.65157 -4.02693 0
M  V30 3460 H 325.213 1.61937 -2.45263 0
M  V30 3461 H 322.727 0.80912 -1.40808 0
M  V30 3462 H 324.724 3.89101 -1.49686 0
M  V30 3463 H 323.384 3.20115 -0.543714 0
M  V30 3464 H 324.395 2.98194 -4.23439 0
M  V30 3465 H 321.072 3.7769 -1.77922 0
M  V30 3466 H 322.462 3.38828 -5.80211 0
M  V30 3467 N 325.182 1.32811 0.848464 0
M  V30 3468 C 326.092 1.24278 1.98978 0
M  V30 3469 C 327.108 0.155176 1.73307 0
M  V30 3470 O 328.284 0.376999 1.9784 0
M  V30 3471 C 325.349 0.972444 3.32783 0
M  V30 3472 C 324.41 2.14911 3.71634 0
M  V30 3473 C 323.643 1.89157 4.99054 0
M  V30 3474 O 323.866 0.837165 5.64223 0
M  V30 3475 O 322.8 2.75433 5.35183 0
M  V30 3476 H 326.626 2.20238 2.09115 0
M  V30 3477 H 324.211 1.12762 0.980052 0
M  V30 3478 H 326.093 0.838432 4.12975 0
M  V30 3479 H 324.768 0.043051 3.23671 0
M  V30 3480 H 323.675 2.33862 2.91992 0
M  V30 3481 H 325.008 3.06151 3.85399 0
M  V30 3482 N 326.66 -1.06551 1.16123 0
M  V30 3483 C 327.607 -2.13961 0.865414 0
M  V30 3484 C 328.577 -1.65066 -0.185055 0
M  V30 3485 O 329.762 -1.90732 -0.05083 0
M  V30 3486 C 326.902 -3.43113 0.369776 0
M  V30 3487 C 326.015 -4.05756 1.48276 0
M  V30 3488 C 325.15 -5.22773 0.942414 0
M  V30 3489 C 324.189 -5.77395 2.03179 0
M  V30 3490 N 323.326 -6.85731 1.50721 0
M  V30 3491 H 328.166 -2.38605 1.78527 0
M  V30 3492 H 325.703 -1.17072 0.890646 0
M  V30 3493 H 327.661 -4.17151 0.0640643 0
M  V30 3494 H 326.291 -3.18695 -0.513143 0
M  V30 3495 H 325.343 -3.29292 1.9045 0
M  V30 3496 H 326.655 -4.42351 2.30493 0
M  V30 3497 H 325.809 -6.03827 0.589729 0
M  V30 3498 H 324.548 -4.87618 0.0895191 0
M  V30 3499 H 323.553 -4.94981 2.3932 0
M  V30 3500 H 324.778 -6.14603 2.8886 0
M  V30 3501 H 322.724 -6.52499 0.676811 0
M  V30 3502 H 322.641 -7.21254 2.26557 0
M  V30 3503 H 323.909 -7.7047 1.18303 0
M  V30 3504 N 328.138 -0.959301 -1.25041 0
M  V30 3505 C 329.088 -0.453888 -2.23436 0
M  V30 3506 C 330.072 0.459461 -1.542 0
M  V30 3507 O 331.264 0.291752 -1.74579 0
M  V30 3508 C 328.393 0.262667 -3.42294 0
M  V30 3509 C 327.479 -0.669022 -4.1879 0
M  V30 3510 N 327.87 -1.80267 -4.72586 0
M  V30 3511 C 326.168 -0.47814 -4.4343 0
M  V30 3512 C 326.869 -2.38475 -5.3057 0
M  V30 3513 N 325.845 -1.67078 -5.17287 0
M  V30 3514 H 329.647 -1.319 -2.6264 0
M  V30 3515 H 327.161 -0.817358 -1.40332 0
M  V30 3516 H 329.158 0.641911 -4.11929 0
M  V30 3517 H 327.818 1.12432 -3.04613 0
M  V30 3518 H 328.829 -2.18442 -4.69578 0
M  V30 3519 H 325.506 0.340249 -4.16111 0
M  V30 3520 H 326.896 -3.34094 -5.8295 0
M  V30 3521 N 329.616 1.39756 -0.72842 0
M  V30 3522 C 330.564 2.32485 -0.0731849 0
M  V30 3523 C 331.558 1.52717 0.733063 0
M  V30 3524 O 332.764 1.68428 0.634988 0
M  V30 3525 H 329.139 0.751984 -0.00486469 0
M  V30 3526 H 331.11 2.85382 -0.871761 0
M  V30 3527 C 329.859 3.37773 0.824908 0
M  V30 3528 H 329.182 3.99227 0.213915 0
M  V30 3529 H 330.622 4.05121 1.25111 0
M  V30 3530 C 329.081 2.74287 1.95622 0
M  V30 3531 O 329.611 2.61618 3.04826 0
M  V30 3532 N 327.817 2.32475 1.74367 0
M  V30 3533 H 327.364 2.4298 0.855494 0
M  V30 3534 H 327.322 1.90337 2.50238 0
M  V30 3535 N 331.094 0.475555 1.50254 0
M  V30 3536 C 332.343 -0.0795996 2.01543 0
M  V30 3537 C 332.656 -1.4038 1.36209 0
M  V30 3538 O 333.862 -2.04415 1.7868 0
M  V30 3539 C 332.318 -0.192363 3.59386 0
M  V30 3540 C 331.926 1.12367 4.33679 0
M  V30 3541 C 333.67 -0.699238 4.18701 0
M  V30 3542 C 331.577 0.974453 5.83317 0
M  V30 3543 H 330.507 -0.0335228 0.753254 0
M  V30 3544 H 333.158 0.611128 1.73025 0
M  V30 3545 H 331.54 -0.946974 3.84511 0
M  V30 3546 H 332.714 1.88958 4.20276 0
M  V30 3547 H 331.029 1.562 3.85993 0
M  V30 3548 H 333.626 -0.827978 5.28251 0
M  V30 3549 H 333.969 -1.69171 3.80377 0
M  V30 3550 H 334.502 -0.00188807 3.978 0
M  V30 3551 H 331.241 1.94042 6.26121 0
M  V30 3552 H 330.761 0.248998 5.99283 0
M  V30 3553 H 332.44 0.642867 6.43798 0
M  V30 3554 N 332.573 -1.56217 0.208337 0
M  V30 3555 C 333.822 -1.97124 -0.427204 0
M  V30 3556 C 334.135 -1.09859 -1.61835 0
M  V30 3557 O 335.341 -1.40606 -2.32255 0
M  V30 3558 C 333.797 -3.50633 -0.811442 0
M  V30 3559 C 333.405 -4.46582 0.35615 0
M  V30 3560 C 335.149 -4.00282 -1.41332 0
M  V30 3561 C 333.056 -5.91379 -0.0497852 0
M  V30 3562 H 331.986 -0.736086 -0.163381 0
M  V30 3563 H 334.637 -1.8099 0.302456 0
M  V30 3564 H 333.019 -3.62319 -1.59815 0
M  V30 3565 H 334.193 -4.46636 1.1337 0
M  V30 3566 H 332.508 -4.07202 0.870396 0
M  V30 3567 H 335.105 -5.0595 -1.72972 0
M  V30 3568 H 335.448 -3.45359 -2.32449 0
M  V30 3569 H 335.981 -3.91764 -0.690323 0
M  V30 3570 H 332.72 -6.50255 0.827529 0
M  V30 3571 H 332.24 -5.94549 -0.791926 0
M  V30 3572 H 333.919 -6.45209 -0.481042 0
M  V30 3573 N 334.051 0.0651679 -1.57465 0
M  V30 3574 C 334.983 1.10359 -2.00882 0
M  V30 3575 C 335.996 1.346 -0.915788 0
M  V30 3576 O 337.185 1.32723 -1.1936 0
M  V30 3577 C 334.285 2.45312 -2.33828 0
M  V30 3578 C 333.458 2.40934 -3.65061 0
M  V30 3579 C 332.517 3.58047 -3.85602 0
M  V30 3580 O 331.543 3.39175 -4.57109 0
M  V30 3581 N 332.745 4.78637 -3.28462 0
M  V30 3582 H 335.51 0.733807 -2.90578 0
M  V30 3583 H 333.071 0.253719 -1.599 0
M  V30 3584 H 335.063 3.22314 -2.44737 0
M  V30 3585 H 333.633 2.74267 -1.49988 0
M  V30 3586 H 332.853 1.49273 -3.64844 0
M  V30 3587 H 334.141 2.35117 -4.51218 0
M  V30 3588 H 333.539 4.96872 -2.70433 0
M  V30 3589 H 332.096 5.53127 -3.44809 0
M  V30 3590 N 335.529 1.53961 0.336706 0
M  V30 3591 C 336.778 1.70751 1.07363 0
M  V30 3592 C 337.091 0.481061 1.89592 0
M  V30 3593 O 338.297 0.530046 2.66276 0
M  V30 3594 C 336.753 3.01965 1.95818 0
M  V30 3595 C 336.361 4.31971 1.18764 0
M  V30 3596 C 338.105 3.28121 2.69327 0
M  V30 3597 C 336.012 5.54255 2.06289 0
M  V30 3598 H 334.942 0.636292 0.404535 0
M  V30 3599 H 337.593 1.80459 0.332681 0
M  V30 3600 H 335.975 2.86132 2.7376 0
M  V30 3601 H 337.149 4.5853 0.456849 0
M  V30 3602 H 335.464 4.12481 0.569946 0
M  V30 3603 H 338.061 4.16673 3.35094 0
M  V30 3604 H 338.404 2.45426 3.36261 0
M  V30 3605 H 338.937 3.44762 1.98454 0
M  V30 3606 H 335.676 6.39513 1.43885 0
M  V30 3607 H 335.196 5.31935 2.77138 0
M  V30 3608 H 336.875 5.90159 2.65182 0
M  V30 3609 N 337.007 -0.598083 1.45811 0
M  V30 3610 C 338.247 -1.36802 1.5187 0
M  V30 3611 C 338.611 -1.9133 0.160224 0
M  V30 3612 O 339.812 -2.6863 0.0955302 0
M  V30 3613 C 338.083 -2.47835 2.57513 0
M  V30 3614 S 339.642 -3.35458 2.82866 0
M  V30 3615 H 336.46 -0.466278 0.536755 0
M  V30 3616 H 339.062 -0.689152 1.82951 0
M  V30 3617 H 337.766 -2.06141 3.54872 0
M  V30 3618 H 337.297 -3.20512 2.28114 0
M  V30 3619 H 339.312 -4.46251 2.16967 0
M  V30 3620 N 338.485 -1.33259 -0.841409 0
M  V30 3621 C 339.762 -1.15174 -1.58096 0
M  V30 3622 C 340.142 0.282858 -2.09196 0
M  V30 3623 O 339.49 1.28151 -1.89181 0
M  V30 3624 C 339.7 -2.1907 -2.71679 0
M  V30 3625 C 341.048 -2.53093 -3.40924 0
M  V30 3626 O 342.072 -2.17717 -2.81918 0
M  V30 3627 O 340.931 -3.1379 -4.47435 0
M  V30 3628 H 338.025 -0.445303 -0.696875 0
M  V30 3629 H 340.571 -1.44833 -0.884385 0
M  V30 3630 H 339.343 -3.15443 -2.31541 0
M  V30 3631 H 338.966 -1.90481 -3.49002 0
M  V30 3632 N 339.963 1.05934 -1.16686 0
M  V30 3633 C 340.91 2.13499 -0.876748 0
M  V30 3634 C 341.88 1.65162 0.176299 0
M  V30 3635 O 343.065 1.90757 0.0407143 0
M  V30 3636 C 340.205 3.42912 -0.387967 0
M  V30 3637 C 339.318 4.04964 -1.50426 0
M  V30 3638 C 338.453 5.22266 -0.970125 0
M  V30 3639 C 337.492 5.76309 -2.06238 0
M  V30 3640 N 336.629 6.84922 -1.54356 0
M  V30 3641 H 341.469 2.37654 -1.7979 0
M  V30 3642 H 339.006 1.16598 -0.896843 0
M  V30 3643 H 340.964 4.17111 -0.086186 0
M  V30 3644 H 339.594 3.18963 0.496235 0
M  V30 3645 H 338.646 3.28277 -1.92193 0
M  V30 3646 H 339.958 4.41122 -2.32836 0
M  V30 3647 H 339.112 6.03506 -0.621743 0
M  V30 3648 H 337.851 4.87564 -0.115377 0
M  V30 3649 H 336.856 4.93704 -2.41942 0
M  V30 3650 H 338.081 6.13062 -2.92115 0
M  V30 3651 H 336.027 6.52131 -0.711406 0
M  V30 3652 H 335.944 7.20043 -2.30379 0
M  V30 3653 H 337.212 7.69832 -1.22387 0
M  V30 3654 N 341.441 0.965919 1.2453 0
M  V30 3655 C 342.374 0.4393 2.23932 0
M  V30 3656 C 343.352 -0.485615 1.55179 0
M  V30 3657 O 344.536 -0.417402 1.83821 0
M  V30 3658 C 341.663 -0.366042 3.36716 0
M  V30 3659 C 340.709 0.5009 4.23548 0
M  V30 3660 S 341.542 1.94002 4.99123 0
M  V30 3661 C 342.698 1.14342 6.15367 0
M  V30 3662 H 342.931 1.28167 2.68254 0
M  V30 3663 H 340.464 0.770819 1.33782 0
M  V30 3664 H 342.422 -0.824724 4.0213 0
M  V30 3665 H 341.083 -1.18337 2.90956 0
M  V30 3666 H 340.276 -0.117341 5.03863 0
M  V30 3667 H 339.878 0.89524 3.63127 0
M  V30 3668 H 342.17 0.397572 6.76332 0
M  V30 3669 H 343.113 1.92089 6.81548 0
M  V30 3670 H 343.521 0.668579 5.60527 0
M  V30 3671 N 342.919 -1.39368 0.735821 0
M  V30 3672 C 344.335 -1.54204 0.411492 0
M  V30 3673 C 344.535 -1.70268 -1.07755 0
M  V30 3674 O 343.591 -1.70364 -1.86366 0
M  V30 3675 C 344.904 -2.75925 1.19523 0
M  V30 3676 C 346.452 -2.89761 1.18354 0
M  V30 3677 C 346.927 -4.14421 1.94986 0
M  V30 3678 N 348.418 -4.21462 1.92156 0
M  V30 3679 C 349.153 -5.16871 2.48258 0
M  V30 3680 N 348.649 -6.18063 3.13001 0
M  V30 3681 N 350.442 -5.09093 2.38287 0
M  V30 3682 H 342.593 -1.27189 1.70108 0
M  V30 3683 H 344.856 -0.616517 0.720147 0
M  V30 3684 H 344.562 -2.70401 2.24892 0
M  V30 3685 H 344.436 -3.68614 0.800222 0
M  V30 3686 H 346.823 -2.94777 0.137975 0
M  V30 3687 H 346.904 -1.98133 1.61793 0
M  V30 3688 H 346.548 -4.10166 2.99543 0
M  V30 3689 H 346.478 -5.05095 1.48953 0
M  V30 3690 H 348.969 -3.48979 1.44991 0
M  V30 3691 H 349.282 -6.87326 3.53275 0
M  V30 3692 H 347.627 -6.18448 3.17091 0
M  V30 3693 H 350.818 -4.28973 1.8735 0
M  V30 3694 H 350.991 -5.83272 2.82308 0
M  V30 3695 N 344.397 -0.483516 -1.5 0
M  V30 3696 C 345.808 -0.0314176 -1.86674 0
M  V30 3697 C 346.159 1.37728 -1.39733 0
M  V30 3698 O 345.284 2.02327 -0.767635 0
M  V30 3699 C 345.879 -0.0502376 -3.38763 0
M  V30 3700 C 344.438 0.346442 -3.74802 0
M  V30 3701 C 343.585 -0.430366 -2.7394 0
M  V30 3702 H 346.536 -0.697182 -1.42566 0
M  V30 3703 H 346.557 0.749116 -3.73053 0
M  V30 3704 H 346.069 -1.07563 -3.72897 0
M  V30 3705 H 344.17 1.37572 -3.46273 0
M  V30 3706 H 344.283 0.0391486 -4.79084 0
M  V30 3707 H 342.647 0.117557 -2.54429 0
M  V30 3708 H 343.43 -1.4555 -3.10918 0
M  V30 3709 N 345.875 1.56104 -0.216619 0
M  V30 3710 C 347.115 2.00074 0.418322 0
M  V30 3711 C 347.479 1.10098 1.57297 0
M  V30 3712 O 348.68 1.43393 2.27359 0
M  V30 3713 C 346.951 3.47231 0.846477 0
M  V30 3714 S 348.51 4.13223 1.47622 0
M  V30 3715 H 345.328 0.698457 0.132962 0
M  V30 3716 H 347.93 1.92784 -0.324748 0
M  V30 3717 H 346.634 4.104 -0.0036319 0
M  V30 3718 H 346.165 3.58384 1.62248 0
M  V30 3719 H 348.18 4.12005 2.76526 0
M  V30 3720 N 347.353 -0.0568162 1.57498 0
M  V30 3721 C 348.316 -1.05038 2.03715 0
M  V30 3722 C 349.316 -1.30709 0.936577 0
M  V30 3723 O 350.506 -1.26178 1.20103 0
M  V30 3724 C 347.638 -2.39034 2.43055 0
M  V30 3725 H 348.831 -0.651715 2.92733 0
M  V30 3726 H 346.384 -0.302947 1.53336 0
M  V30 3727 H 347.119 -2.83703 1.57108 0
M  V30 3728 H 346.904 -2.21739 3.2338 0
M  V30 3729 H 348.394 -3.10421 2.79336 0
M  V30 3730 N 348.832 -1.54138 -0.328536 0
M  V30 3731 C 350.057 -1.76378 -1.09112 0
M  V30 3732 C 350.482 -0.508596 -1.81094 0
M  V30 3733 O 349.84 0.539598 -1.73084 0
M  V30 3734 C 349.888 -2.95358 -2.06872 0
M  V30 3735 O 348.992 -2.66556 -3.14677 0
M  V30 3736 H 348.333 -0.584614 -0.314838 0
M  V30 3737 H 350.863 -2.01146 -0.374348 0
M  V30 3738 H 350.873 -3.22566 -2.4983 0
M  V30 3739 H 349.548 -3.86385 -1.5388 0
M  V30 3740 H 348.125 -2.50282 -2.7643 0
M  V30 3741 N 350.31 0.590341 -1.46126 0
M  V30 3742 C 351.273 1.68194 -1.55703 0
M  V30 3743 C 352.273 1.54808 -0.434868 0
M  V30 3744 O 353.463 1.59564 -0.698928 0
M  V30 3745 C 350.595 3.07575 -1.47005 0
M  V30 3746 H 351.788 1.61064 -2.52979 0
M  V30 3747 H 349.341 0.807541 -1.33823 0
M  V30 3748 H 350.076 3.20268 -0.509785 0
M  V30 3749 H 349.861 3.187 -2.28414 0
M  V30 3750 H 351.351 3.87055 -1.56776 0
M  V30 3751 N 351.788 1.33704 0.83433 0
M  V30 3752 C 353.016 1.28467 1.62185 0
M  V30 3753 C 353.431 -0.143526 1.88254 0
M  V30 3754 O 352.788 -1.08709 1.4659 0
M  V30 3755 C 352.839 2.06174 2.96942 0
M  V30 3756 O 352.56 3.43422 2.72016 0
M  V30 3757 C 354.061 2.08201 3.91366 0
M  V30 3758 H 351.281 0.4424 0.504503 0
M  V30 3759 H 353.825 1.76145 1.03891 0
M  V30 3760 H 351.98 1.62167 3.51825 0
M  V30 3761 H 352.394 3.83453 3.57861 0
M  V30 3762 H 353.868 2.67017 4.83121 0
M  V30 3763 H 354.345 1.07343 4.2588 0
M  V30 3764 H 354.951 2.52246 3.42421 0
M  V30 3765 N 353.266 -1.05314 1.17247 0
M  V30 3766 C 354.514 -1.77941 0.958194 0
M  V30 3767 C 354.835 -1.88089 -0.514556 0
M  V30 3768 O 354.105 -1.39676 -1.37359 0
M  V30 3769 H 352.685 -0.659116 0.351533 0
M  V30 3770 H 355.347 -1.27166 1.47699 0
M  V30 3771 H 354.443 -2.79663 1.38546 0
M  V30 3772 N 354.744 -0.972509 -1.24016 0
M  V30 3773 C 355.969 -0.654417 -1.96805 0
M  V30 3774 C 356.394 0.770398 -1.716 0
M  V30 3775 O 355.752 1.52361 -0.982647 0
M  V30 3776 C 355.8 -0.941031 -3.48105 0
M  V30 3777 O 354.904 -0.0289472 -4.1239 0
M  V30 3778 H 354.245 -0.24692 -0.616382 0
M  V30 3779 H 356.775 -1.30396 -1.57664 0
M  V30 3780 H 356.785 -0.87452 -3.98517 0
M  V30 3781 H 355.46 -1.97939 -3.65777 0
M  V30 3782 H 354.037 -0.149192 -3.72601 0
M  V30 3783 N 356.222 1.38976 -0.743202 0
M  V30 3784 C 357.17 2.32394 -0.0978389 0
M  V30 3785 C 358.164 1.53486 0.716824 0
M  V30 3786 O 359.37 1.69092 0.617088 0
M  V30 3787 H 355.745 0.75189 -0.0128402 0
M  V30 3788 H 357.716 2.84441 -0.901981 0
M  V30 3789 C 356.465 3.38629 0.789036 0
M  V30 3790 H 355.788 3.99432 0.171559 0
M  V30 3791 H 357.228 4.06426 1.20807 0
M  V30 3792 C 355.687 2.76347 1.92702 0
M  V30 3793 O 356.217 2.64836 3.02034 0
M  V30 3794 N 354.423 2.34311 1.71891 0
M  V30 3795 H 353.97 2.43873 0.829675 0
M  V30 3796 H 353.928 1.9298 2.48205 0
M  V30 3797 N 357.7 0.491464 1.49741 0
M  V30 3798 C 358.948 -0.0563141 2.02022 0
M  V30 3799 C 359.269 -1.38363 1.37407 0
M  V30 3800 O 358.539 -1.88702 0.526166 0
M  V30 3801 H 357.119 -0.0238014 0.746621 0
M  V30 3802 H 359.781 0.646533 1.83864 0
M  V30 3803 H 358.877 -0.192967 3.11503 0
M  V30 3804 N 359.178 -1.55987 0.224894 0
M  V30 3805 C 360.589 -1.84553 -0.282345 0
M  V30 3806 C 360.94 -1.14634 -1.59227 0
M  V30 3807 O 360.065 -0.417155 -2.12341 0
M  V30 3808 C 360.66 -3.348 -0.519062 0
M  V30 3809 C 359.219 -3.63671 -0.970604 0
M  V30 3810 C 358.366 -2.77277 -0.0355261 0
M  V30 3811 H 361.317 -1.52245 0.448006 0
M  V30 3812 H 361.338 -3.55187 -1.36463 0
M  V30 3813 H 360.85 -3.8566 0.43449 0
M  V30 3814 H 358.951 -3.1827 -1.9374 0
M  V30 3815 H 359.064 -4.71631 -0.842698 0
M  V30 3816 H 357.428 -2.48846 -0.542927 0
M  V30 3817 H 358.211 -3.30937 0.913003 0
M  V30 3818 N 360.656 0.0484629 -1.57525 0
M  V30 3819 C 362.072 0.40375 -1.54409 0
M  V30 3820 C 362.272 1.77786 -0.948384 0
M  V30 3821 O 361.328 2.46189 -0.560983 0
M  V30 3822 C 362.641 0.323394 -2.98956 0
M  V30 3823 C 364.189 0.401892 -3.10409 0
M  V30 3824 C 364.664 0.351195 -4.56652 0
M  V30 3825 N 366.155 0.410576 -4.61377 0
M  V30 3826 C 366.89 0.393933 -5.72045 0
M  V30 3827 N 366.386 0.330724 -6.9201 0
M  V30 3828 N 368.179 0.442227 -5.60358 0
M  V30 3829 H 360.33 -0.851016 -1.94606 0
M  V30 3830 H 362.593 -0.321721 -0.89174 0
M  V30 3831 H 362.299 -0.62011 -3.4619 0
M  V30 3832 H 362.173 1.12463 -3.60044 0
M  V30 3833 H 364.56 1.33582 -2.63134 0
M  V30 3834 H 364.641 -0.428342 -2.52188 0
M  V30 3835 H 364.285 -0.578987 -5.04589 0
M  V30 3836 H 364.215 1.19928 -5.12762 0
M  V30 3837 H 366.706 0.462729 -3.75056 0
M  V30 3838 H 367.019 0.322592 -7.72126 0
M  V30 3839 H 365.364 0.29706 -6.94365 0
M  V30 3840 H 368.555 0.489464 -4.65534 0
M  V30 3841 H 368.728 0.425788 -6.466 0
M  V30 3842 N 362.134 1.5431 0.320358 0
M  V30 3843 C 363.545 1.63872 0.894594 0
M  V30 3844 C 363.896 0.534847 1.88769 0
M  V30 3845 O 363.021 -0.331732 2.13842 0
M  V30 3846 C 363.616 2.97049 1.62934 0
M  V30 3847 C 362.175 3.08796 2.15226 0
M  V30 3848 C 361.322 2.59456 0.978671 0
M  V30 3849 H 364.273 1.58398 0.0978544 0
M  V30 3850 H 364.294 2.87388 2.49376 0
M  V30 3851 H 363.806 3.7737 0.906302 0
M  V30 3852 H 361.907 2.33156 2.90636 0
M  V30 3853 H 362.02 4.14649 2.40006 0
M  V30 3854 H 360.384 2.1543 1.35875 0
M  V30 3855 H 361.167 3.42237 0.269895 0
M  V30 3856 N 363.613 -0.582584 1.46437 0
M  V30 3857 C 364.576 -1.67366 1.56592 0
M  V30 3858 C 365.576 -1.54575 0.443072 0
M  V30 3859 O 366.766 -1.59191 0.707381 0
M  V30 3860 C 363.898 -3.06791 1.48634 0
M  V30 3861 H 365.091 -1.5972 2.5383 0
M  V30 3862 H 362.644 -0.800432 1.34249 0
M  V30 3863 H 363.379 -3.19993 0.526763 0
M  V30 3864 H 363.164 -3.17484 2.30101 0
M  V30 3865 H 364.654 -3.86218 1.58826 0
M  V30 3866 N 365.091 -1.34144 -0.827227 0
M  V30 3867 C 366.502 -1.23557 -1.39966 0
M  V30 3868 C 366.853 0.140731 -1.95695 0
M  V30 3869 O 365.978 1.04087 -1.89723 0
M  V30 3870 C 366.573 -2.23708 -2.54441 0
M  V30 3871 C 365.132 -2.16924 -3.07605 0
M  V30 3872 C 364.279 -2.10549 -1.80456 0
M  V30 3873 H 367.23 -1.45573 -0.631991 0
M  V30 3874 H 367.251 -1.85157 -3.32411 0
M  V30 3875 H 366.763 -3.23866 -2.13851 0
M  V30 3876 H 364.864 -1.20107 -3.52711 0
M  V30 3877 H 364.977 -3.07988 -3.66988 0
M  V30 3878 H 363.341 -1.56203 -2.01178 0
M  V30 3879 H 364.124 -3.12535 -1.42046 0
M  V30 3880 N 366.569 1.04691 -1.17803 0
M  V30 3881 C 367.815 1.78045 -0.970969 0
M  V30 3882 C 368.148 1.87686 0.498751 0
M  V30 3883 O 367.423 1.38035 1.37027 0
M  V30 3884 C 367.706 3.2166 -1.61884 0
M  V30 3885 C 367.559 3.20001 -3.161 0
M  V30 3886 C 368.878 4.1962 -1.3269 0
M  V30 3887 H 365.997 0.64633 -0.354155 0
M  V30 3888 H 368.639 1.22333 -1.45378 0
M  V30 3889 H 366.789 3.69232 -1.20831 0
M  V30 3890 H 368.461 2.80467 -3.66246 0
M  V30 3891 H 366.704 2.58203 -3.48588 0
M  V30 3892 H 367.375 4.21386 -3.56564 0
M  V30 3893 H 369.851 3.80567 -1.68249 0
M  V30 3894 H 368.727 5.18339 -1.80599 0
M  V30 3895 H 368.988 4.414 -0.248622 0
M  V30 3896 N 368.047 0.979072 1.23499 0
M  V30 3897 C 369.272 0.664845 1.96455 0
M  V30 3898 C 369.697 -0.761287 1.72006 0
M  V30 3899 O 369.055 -1.51837 0.990713 0
M  V30 3900 C 369.103 0.959479 3.47601 0
M  V30 3901 O 368.207 0.0508168 4.12369 0
M  V30 3902 H 367.548 0.250185 0.615064 0
M  V30 3903 H 370.078 1.31231 1.5697 0
M  V30 3904 H 370.088 0.895642 3.98048 0
M  V30 3905 H 368.763 1.99876 3.64723 0
M  V30 3906 H 367.34 0.16895 3.72517 0
M  V30 3907 N 369.525 -1.3858 0.750561 0
M  V30 3908 C 370.473 -2.32339 0.110162 0
M  V30 3909 C 371.467 -1.53864 -0.708674 0
M  V30 3910 O 372.673 -1.69417 -0.608112 0
M  V30 3911 H 369.048 -0.751812 0.0168275 0
M  V30 3912 H 371.019 -2.83959 0.917053 0
M  V30 3913 C 369.768 -3.39043 -0.771067 0
M  V30 3914 H 369.091 -3.99517 -0.150374 0
M  V30 3915 H 370.531 -4.07061 -1.1865 0
M  V30 3916 C 368.99 -2.77365 -1.91234 0
M  V30 3917 O 369.52 -2.66434 -3.00626 0
M  V30 3918 N 367.726 -2.35219 -1.70646 0
M  V30 3919 H 367.273 -2.4431 -0.81673 0
M  V30 3920 H 367.231 -1.94294 -2.47178 0
M  V30 3921 N 371.003 -0.499398 -1.49478 0
M  V30 3922 C 371.966 0.268838 -2.27618 0
M  V30 3923 C 372.966 0.895383 -1.33565 0
M  V30 3924 O 374.156 0.760164 -1.56739 0
M  V30 3925 C 371.288 1.38559 -3.11471 0
M  V30 3926 H 372.481 -0.416812 -2.96989 0
M  V30 3927 H 370.034 -0.254313 -1.54217 0
M  V30 3928 H 370.769 2.10544 -2.46661 0
M  V30 3929 H 370.554 0.941797 -3.80621 0
M  V30 3930 H 372.044 1.92678 -3.70493 0
M  V30 3931 N 372.481 1.55866 -0.233164 0
M  V30 3932 C 373.728 1.98603 0.395374 0
M  V30 3933 C 374.056 1.12105 1.58942 0
M  V30 3934 O 373.311 0.168656 1.94972 0
M  V30 3935 C 373.61 3.46856 0.861724 0
M  V30 3936 C 373.276 4.50348 -0.223066 0
M  V30 3937 C 371.938 4.78371 -0.521038 0
M  V30 3938 C 374.29 5.12355 -0.956124 0
M  V30 3939 C 371.618 5.6568 -1.55638 0
M  V30 3940 C 373.97 6.00786 -1.98089 0
M  V30 3941 C 372.634 6.27148 -2.28565 0
M  V30 3942 H 371.904 0.726739 0.144677 0
M  V30 3943 H 374.551 1.88491 -0.338114 0
M  V30 3944 H 372.856 3.5423 1.67418 0
M  V30 3945 H 374.553 3.77302 1.35809 0
M  V30 3946 H 371.143 4.28596 0.0193234 0
M  V30 3947 H 375.327 4.90765 -0.739166 0
M  V30 3948 H 370.583 5.84365 -1.798 0
M  V30 3949 H 374.757 6.4788 -2.55391 0
M  V30 3950 H 372.384 6.94597 -3.08932 0
M  V30 3951 N 373.959 -0.0401083 1.57549 0
M  V30 3952 C 375.189 -0.744115 1.92734 0
M  V30 3953 C 375.597 -1.70005 0.830348 0
M  V30 3954 O 374.94 -1.82576 -0.20286 0
M  V30 3955 C 375.002 -1.56516 3.2364 0
M  V30 3956 C 374.666 -0.7752 4.50377 0
M  V30 3957 C 375.663 -0.0803326 5.19838 0
M  V30 3958 C 373.348 -0.733002 4.96923 0
M  V30 3959 C 375.342 0.646154 6.34116 0
M  V30 3960 C 373.029 -0.00276321 6.111 0
M  V30 3961 C 374.027 0.685585 6.7955 0
M  V30 3962 O 373.715 1.40399 7.91545 0
M  V30 3963 H 373.447 -0.214861 0.640945 0
M  V30 3964 H 376.001 -0.00503675 2.05399 0
M  V30 3965 H 374.231 -2.3478 3.07271 0
M  V30 3966 H 375.92 -2.15076 3.44234 0
M  V30 3967 H 376.686 -0.104035 4.84888 0
M  V30 3968 H 372.565 -1.25827 4.43496 0
M  V30 3969 H 376.109 1.18398 6.87479 0
M  V30 3970 H 372.006 0.0229012 6.45496 0
M  V30 3971 H 372.774 1.31653 8.07843 0
M  V30 3972 N 375.437 -1.54477 -0.31217 0
M  V30 3973 C 376.367 -1.87652 -1.38957 0
M  V30 3974 C 377.348 -0.734358 -1.53431 0
M  V30 3975 O 378.533 -0.98911 -1.67123 0
M  V30 3976 C 375.663 -2.11396 -2.75552 0
M  V30 3977 C 374.617 -3.27243 -2.75855 0
M  V30 3978 C 373.943 -3.36382 -4.15633 0
M  V30 3979 C 375.243 -4.64622 -2.38587 0
M  V30 3980 H 376.937 -2.77887 -1.11442 0
M  V30 3981 H 374.483 -1.33707 -0.534655 0
M  V30 3982 H 376.436 -2.33189 -3.51 0
M  V30 3983 H 375.16 -1.17921 -3.04569 0
M  V30 3984 H 373.819 -3.05356 -2.02863 0
M  V30 3985 H 373.467 -2.40445 -4.41809 0
M  V30 3986 H 373.167 -4.14249 -4.1674 0
M  V30 3987 H 374.691 -3.60422 -4.92877 0
M  V30 3988 H 376.105 -4.86219 -3.03749 0
M  V30 3989 H 374.502 -5.45121 -2.50925 0
M  V30 3990 H 375.572 -4.66097 -1.33723 0
M  V30 3991 N 376.915 0.57481 -1.46744 0
M  V30 3992 C 378.145 1.35659 -1.55821 0
M  V30 3993 C 378.553 1.88129 -0.201036 0
M  V30 3994 O 377.896 1.64723 0.813134 0
M  V30 3995 C 377.958 2.57473 -2.50894 0
M  V30 3996 C 377.622 2.26415 -3.9697 0
M  V30 3997 C 378.619 1.84771 -4.85958 0
M  V30 3998 C 376.304 2.38316 -4.42166 0
M  V30 3999 C 378.298 1.55434 -6.18158 0
M  V30 4000 C 375.985 2.08591 -5.74398 0
M  V30 4001 C 376.983 1.67216 -6.62214 0
M  V30 4002 O 376.671 1.37859 -7.91991 0
M  V30 4003 H 376.403 0.420496 -0.529301 0
M  V30 4004 H 378.957 0.704967 -1.92923 0
M  V30 4005 H 377.187 3.25468 -2.08824 0
M  V30 4006 H 378.876 3.19546 -2.50291 0
M  V30 4007 H 379.642 1.75085 -4.52295 0
M  V30 4008 H 375.521 2.69483 -3.74032 0
M  V30 4009 H 379.065 1.23065 -6.86659 0
M  V30 4010 H 374.962 2.17905 -6.07608 0
M  V30 4011 H 375.73 1.51638 -8.04331 0
M  V30 4012 N 378.394 1.34581 0.820102 0
M  V30 4013 C 379.643 1.26437 1.57151 0
M  V30 4014 C 379.956 -0.163111 1.94919 0
M  V30 4015 O 381.162 -0.366722 2.69012 0
M  V30 4016 C 379.618 2.21658 2.83541 0
M  V30 4017 C 379.226 3.69679 2.53065 0
M  V30 4018 C 380.97 2.22428 3.61561 0
M  V30 4019 C 378.877 4.56761 3.75664 0
M  V30 4020 H 377.807 0.469707 0.589823 0
M  V30 4021 H 380.458 1.59763 0.902656 0
M  V30 4022 H 378.84 1.81287 3.52067 0
M  V30 4023 H 380.014 4.18605 1.92631 0
M  V30 4024 H 378.329 3.71384 1.88316 0
M  V30 4025 H 380.926 2.8471 4.52597 0
M  V30 4026 H 381.269 1.22434 3.97889 0
M  V30 4027 H 381.802 2.61259 2.99981 0
M  V30 4028 H 378.541 5.57702 3.44454 0
M  V30 4029 H 378.061 4.12568 4.35371 0
M  V30 4030 H 379.74 4.71509 4.43044 0
M  V30 4031 N 379.872 -1.04064 1.18357 0
M  V30 4032 C 380.802 -2.14001 0.934113 0
M  V30 4033 C 381.783 -1.69616 -0.128186 0
M  V30 4034 O 382.968 -1.94185 0.0244093 0
M  V30 4035 C 380.098 -3.44253 0.459066 0
M  V30 4036 C 379.052 -4.02261 1.46185 0
M  V30 4037 C 378.378 -5.27992 0.844322 0
M  V30 4038 C 379.678 -4.38432 2.83856 0
M  V30 4039 H 381.372 -2.35127 1.85352 0
M  V30 4040 H 378.918 -1.12998 0.892604 0
M  V30 4041 H 380.871 -4.20522 0.271907 0
M  V30 4042 H 379.595 -3.22813 -0.495912 0
M  V30 4043 H 378.254 -3.28074 1.63595 0
M  V30 4044 H 377.902 -5.02862 -0.117845 0
M  V30 4045 H 377.602 -5.67765 1.51384 0
M  V30 4046 H 379.126 -6.06938 0.667693 0
M  V30 4047 H 380.54 -5.05688 2.70098 0
M  V30 4048 H 378.937 -4.89254 3.47491 0
M  V30 4049 H 380.007 -3.4826 3.37406 0
M  V30 4050 N 381.35 -0.985608 -1.22978 0
M  V30 4051 C 382.627 -0.573599 -1.87001 0
M  V30 4052 C 383.007 0.949213 -1.88555 0
M  V30 4053 O 382.355 1.82811 -1.37086 0
M  V30 4054 C 382.565 -1.18564 -3.28243 0
M  V30 4055 C 383.913 -1.28163 -4.04796 0
M  V30 4056 O 384.937 -1.13949 -3.37482 0
M  V30 4057 O 383.796 -1.50832 -5.25273 0
M  V30 4058 H 380.89 -0.193868 -0.803955 0
M  V30 4059 H 383.436 -1.08102 -1.30813 0
M  V30 4060 H 382.208 -2.22758 -3.21706 0
M  V30 4061 H 381.831 -0.663363 -3.92027 0
M  V30 4062 N 382.828 1.3818 -0.7579 0
M  V30 4063 C 384.239 1.82726 -0.383134 0
M  V30 4064 C 384.59 1.63214 1.08884 0
M  V30 4065 O 383.715 1.13566 1.84205 0
M  V30 4066 C 384.31 3.31728 -0.688631 0
M  V30 4067 C 382.869 3.74606 -0.367091 0
M  V30 4068 C 382.016 2.60896 -0.939599 0
M  V30 4069 H 384.967 1.26847 -0.953699 0
M  V30 4070 H 384.988 3.80487 0.0316492 0
M  V30 4071 H 384.5 3.45898 -1.76001 0
M  V30 4072 H 382.601 3.66013 0.697532 0
M  V30 4073 H 382.714 4.71215 -0.865658 0
M  V30 4074 H 381.078 2.52075 -0.3647 0
M  V30 4075 H 381.861 2.77864 -2.0161 0
M  V30 4076 N 384.306 0.507319 1.49211 0
M  V30 4077 C 385.583 -0.0982702 1.95353 0
M  V30 4078 C 385.963 -1.53516 1.449 0
M  V30 4079 O 385.311 -2.18594 0.66551 0
M  V30 4080 C 385.521 -0.00440283 3.49 0
M  V30 4081 C 386.869 -0.175147 4.24239 0
M  V30 4082 O 387.893 -0.0792891 3.56112 0
M  V30 4083 O 386.752 -0.37276 5.45227 0
M  V30 4084 H 383.846 -0.0918236 0.821887 0
M  V30 4085 H 386.392 0.570307 1.5983 0
M  V30 4086 H 385.164 0.997402 3.78375 0
M  V30 4087 H 384.787 -0.712845 3.91158 0
M  V30 4088 N 385.784 -1.5574 0.241426 0
M  V30 4089 C 387.032 -1.98417 -0.384075 0
M  V30 4090 C 387.353 -1.13078 -1.58866 0
M  V30 4091 O 386.623 -0.212312 -1.94746 0
M  V30 4092 H 385.203 -0.732813 -0.144894 0
M  V30 4093 H 387.865 -1.9193 0.338943 0
M  V30 4094 H 386.961 -3.04219 -0.696939 0
M  V30 4095 N 387.262 0.0317525 -1.57568 0
M  V30 4096 C 388.212 1.04101 -2.02847 0
M  V30 4097 C 389.196 1.3219 -0.917317 0
M  V30 4098 O 390.388 1.31819 -1.18121 0
M  V30 4099 C 387.517 2.34295 -2.5092 0
M  V30 4100 C 386.603 2.09308 -3.68851 0
M  V30 4101 N 386.994 1.5437 -4.81667 0
M  V30 4102 C 385.292 2.39604 -3.76172 0
M  V30 4103 C 385.993 1.45126 -5.63306 0
M  V30 4104 N 384.969 1.92589 -5.08341 0
M  V30 4105 H 388.771 0.610217 -2.87495 0
M  V30 4106 H 386.285 0.238108 -1.60645 0
M  V30 4107 H 388.282 3.07404 -2.81617 0
M  V30 4108 H 386.942 2.78055 -1.67677 0
M  V30 4109 H 387.953 1.22678 -5.03161 0
M  V30 4110 H 384.63 2.86457 -3.03724 0
M  V30 4111 H 386.02 1.03163 -6.63933 0
M  V30 4112 N 388.74 1.54641 0.303973 0
M  V30 4113 C 390.156 1.45788 0.649463 0
M  V30 4114 C 390.356 0.64666 1.90842 0
M  V30 4115 O 389.412 0.153183 2.52035 0
M  V30 4116 C 390.725 2.89718 0.805227 0
M  V30 4117 C 392.273 2.99742 0.901305 0
M  V30 4118 C 392.748 4.44863 1.08909 0
M  V30 4119 N 394.239 4.48559 1.15536 0
M  V30 4120 C 394.974 5.58026 1.3189 0
M  V30 4121 N 394.47 6.77422 1.45161 0
M  V30 4122 N 396.263 5.45708 1.34755 0
M  V30 4123 H 388.414 2.05854 -0.523237 0
M  V30 4124 H 390.677 0.932186 -0.172431 0
M  V30 4125 H 390.383 3.51666 -0.0489108 0
M  V30 4126 H 390.257 3.36964 1.69513 0
M  V30 4127 H 392.644 2.3791 1.74593 0
M  V30 4128 H 392.725 2.55797 -0.0125531 0
M  V30 4129 H 392.369 5.07288 0.249241 0
M  V30 4130 H 392.299 4.86436 2.01713 0
M  V30 4131 H 394.79 3.6254 1.06646 0
M  V30 4132 H 395.103 7.56604 1.57387 0
M  V30 4133 H 393.448 6.80292 1.42223 0
M  V30 4134 H 396.639 4.51378 1.23996 0
M  V30 4135 H 396.812 6.3107 1.47157 0
M  V30 4136 N 390.218 -0.567019 1.47046 0
M  V30 4137 C 391.467 -1.32091 1.5243 0
M  V30 4138 C 391.78 -1.94704 0.187021 0
M  V30 4139 O 392.986 -2.7124 0.118771 0
M  V30 4140 C 391.442 -2.39479 2.68659 0
M  V30 4141 C 391.05 -1.831 4.08874 0
M  V30 4142 C 392.794 -3.16111 2.83327 0
M  V30 4143 C 390.701 -2.8821 5.16419 0
M  V30 4144 H 389.631 -0.496629 0.56734 0
M  V30 4145 H 392.282 -0.603354 1.73297 0
M  V30 4146 H 390.664 -3.14105 2.41152 0
M  V30 4147 H 391.838 -1.14913 4.46242 0
M  V30 4148 H 390.153 -1.19085 3.99008 0
M  V30 4149 H 392.75 -3.94585 3.60842 0
M  V30 4150 H 393.093 -3.69686 1.91411 0
M  V30 4151 H 393.626 -2.48595 3.10556 0
M  V30 4152 H 390.365 -2.39504 6.10179 0
M  V30 4153 H 389.885 -3.54839 4.8358 0
M  V30 4154 H 391.564 -3.51881 5.42945 0
M  V30 4155 N 391.696 -1.35014 -0.812953 0
M  V30 4156 C 392.606 -1.2951 -1.95613 0
M  V30 4157 C 393.622 -0.20107 -1.72834 0
M  V30 4158 O 394.798 -0.42932 -1.96771 0
M  V30 4159 C 391.863 -1.06033 -3.30088 0
M  V30 4160 C 390.924 -2.24688 -3.65805 0
M  V30 4161 C 390.157 -2.02322 -4.93864 0
M  V30 4162 O 390.38 -0.986464 -5.61805 0
M  V30 4163 O 389.314 -2.89525 -5.27692 0
M  V30 4164 H 393.14 -2.25705 -2.03202 0
M  V30 4165 H 390.725 -1.15321 -0.949811 0
M  V30 4166 H 392.607 -0.94763 -4.10607 0
M  V30 4167 H 391.282 -0.128852 -3.23443 0
M  V30 4168 H 390.189 -2.41521 -2.85689 0
M  V30 4169 H 391.522 -3.16261 -3.77147 0
M  V30 4170 N 393.175 1.03435 -1.18907 0
M  V30 4171 C 394.424 1.76143 -0.982669 0
M  V30 4172 C 394.737 1.89416 0.487953 0
M  V30 4173 O 395.943 2.59041 0.813036 0
M  V30 4174 C 394.399 3.16722 -1.70924 0
M  V30 4175 C 394.007 3.11522 -3.21959 0
M  V30 4176 C 395.751 3.93764 -1.58588 0
M  V30 4177 C 393.658 4.46999 -3.87228 0
M  V30 4178 H 392.588 0.660292 -0.364047 0
M  V30 4179 H 395.239 1.158 -1.42347 0
M  V30 4180 H 393.621 3.775 -1.19623 0
M  V30 4181 H 394.795 2.60158 -3.80335 0
M  V30 4182 H 393.11 2.47978 -3.34508 0
M  V30 4183 H 395.707 4.93963 -2.04707 0
M  V30 4184 H 396.05 4.12794 -0.539142 0
M  V30 4185 H 396.583 3.39576 -2.07203 0
M  V30 4186 H 393.322 4.33174 -4.91976 0
M  V30 4187 H 392.842 4.98441 -3.33642 0
M  V30 4188 H 394.521 5.15898 -3.90459 0
M  V30 4189 N 394.653 0.992116 1.22453 0
M  V30 4190 C 395.883 0.684949 1.94915 0
M  V30 4191 C 396.291 -0.754292 1.73514 0
M  V30 4192 O 395.634 -1.52056 1.03076 0
M  V30 4193 C 395.696 0.910054 3.47791 0
M  V30 4194 C 395.36 2.33363 3.92926 0
M  V30 4195 C 396.357 3.31308 4.00663 0
M  V30 4196 C 394.042 2.66785 4.25595 0
M  V30 4197 C 396.036 4.6075 4.40441 0
M  V30 4198 C 393.723 3.96446 4.65053 0
M  V30 4199 C 394.721 4.9324 4.72444 0
M  V30 4200 O 394.409 6.20584 5.1101 0
M  V30 4201 H 394.141 0.25258 0.62704 0
M  V30 4202 H 396.695 1.32939 1.56577 0
M  V30 4203 H 394.925 0.208443 3.86138 0
M  V30 4204 H 396.614 0.598257 4.01467 0
M  V30 4205 H 397.38 3.0682 3.75615 0
M  V30 4206 H 393.259 1.92148 4.19047 0
M  V30 4207 H 396.803 5.363 4.46126 0
M  V30 4208 H 392.7 4.20724 4.89552 0
M  V30 4209 H 393.468 6.24509 5.29085 0
M  V30 4210 N 396.131 -1.37776 0.765217 0
M  V30 4211 C 397.359 -2.04124 0.337767 0
M  V30 4212 C 397.774 -1.57715 -1.03785 0
M  V30 4213 O 397.131 -0.755447 -1.6613 0
M  V30 4214 C 397.182 -3.59658 0.364442 0
M  V30 4215 O 396.903 -4.04367 1.68579 0
M  V30 4216 C 398.404 -4.43236 -0.0754221 0
M  V30 4217 H 395.624 -0.655696 0.142491 0
M  V30 4218 H 398.168 -1.76238 1.03732 0
M  V30 4219 H 396.323 -3.86339 -0.286471 0
M  V30 4220 H 396.737 -4.98857 1.61993 0
M  V30 4221 H 398.211 -5.52 -0.00560067 0
M  V30 4222 H 398.688 -4.2455 -1.12491 0
M  V30 4223 H 399.294 -4.21767 0.547055 0
M  V30 4224 N 397.609 -0.515225 -1.4894 0
M  V30 4225 C 398.541 0.292481 -2.27326 0
M  V30 4226 C 399.554 0.917838 -1.3446 0
M  V30 4227 O 400.743 0.798772 -1.5963 0
M  V30 4228 C 397.843 1.42803 -3.07344 0
M  V30 4229 C 397.016 0.907347 -4.27885 0
M  V30 4230 C 396.075 1.92222 -4.89834 0
M  V30 4231 O 395.101 1.48506 -5.49486 0
M  V30 4232 N 396.303 3.25355 -4.80754 0
M  V30 4233 H 399.068 -0.379721 -2.97285 0
M  V30 4234 H 396.629 -0.348638 -1.58102 0
M  V30 4235 H 398.621 2.10481 -3.45658 0
M  V30 4236 H 397.191 2.00414 -2.39902 0
M  V30 4237 H 396.411 0.0550218 -3.94162 0
M  V30 4238 H 397.699 0.538108 -5.05946 0
M  V30 4239 H 397.097 3.6355 -4.33414 0
M  V30 4240 H 395.654 3.88707 -5.23211 0
M  V30 4241 N 399.087 1.5561 -0.249682 0
M  V30 4242 C 400.364 1.90932 0.424761 0
M  V30 4243 C 400.744 1.17078 1.75658 0
M  V30 4244 O 400.092 0.289176 2.26663 0
M  V30 4245 C 400.302 3.43975 0.590109 0
M  V30 4246 C 401.65 4.15281 0.884714 0
M  V30 4247 O 402.674 3.49729 0.67587 0
M  V30 4248 O 401.533 5.31236 1.28259 0
M  V30 4249 H 398.627 0.794815 0.228468 0
M  V30 4250 H 401.173 1.67135 -0.293954 0
M  V30 4251 H 399.945 3.89748 -0.34818 0
M  V30 4252 H 399.568 3.73644 1.35926 0
M  V30 4253 N 400.565 -0.0233959 1.57583 0
M  V30 4254 C 401.795 -0.723631 1.93513 0
M  V30 4255 C 402.203 -1.69115 0.848333 0
M  V30 4256 O 401.546 -1.82781 -0.183484 0
M  V30 4257 C 401.608 -1.53075 3.25282 0
M  V30 4258 C 401.272 -0.727388 4.51174 0
M  V30 4259 C 402.269 -0.0251924 5.19894 0
M  V30 4260 C 399.954 -0.680256 4.97672 0
M  V30 4261 C 401.948 0.713374 6.33395 0
M  V30 4262 C 399.635 0.0620523 6.11068 0
M  V30 4263 C 400.633 0.757622 6.78785 0
M  V30 4264 O 400.321 1.48787 7.90011 0
M  V30 4265 H 400.053 -0.208051 0.643188 0
M  V30 4266 H 402.607 0.0167489 2.05393 0
M  V30 4267 H 400.837 -2.31508 3.09744 0
M  V30 4268 H 402.526 -2.11413 3.46496 0
M  V30 4269 H 403.292 -0.0526003 4.84971 0
M  V30 4270 H 399.171 -1.21116 4.44805 0
M  V30 4271 H 402.715 1.25683 6.86185 0
M  V30 4272 H 398.612 0.0913634 6.45435 0
M  V30 4273 H 399.38 1.40213 8.06401 0
M  V30 4274 N 402.043 -1.548 -0.295768 0
M  V30 4275 C 403.273 -1.78069 -1.04762 0
M  V30 4276 C 403.681 -0.542847 -1.81245 0
M  V30 4277 O 403.024 0.497051 -1.76848 0
M  V30 4278 C 403.086 -2.93881 -2.07061 0
M  V30 4279 C 402.75 -4.31777 -1.49725 0
M  V30 4280 C 403.747 -5.11613 -0.924581 0
M  V30 4281 C 401.432 -4.78389 -1.5313 0
M  V30 4282 C 403.426 -6.36184 -0.393594 0
M  V30 4283 C 401.113 -6.02921 -0.996447 0
M  V30 4284 C 402.111 -6.81654 -0.428569 0
M  V30 4285 O 401.799 -8.0384 0.0981593 0
M  V30 4286 H 401.531 -0.597475 -0.316226 0
M  V30 4287 H 404.085 -2.02584 -0.338973 0
M  V30 4288 H 402.315 -2.65003 -2.81621 0
M  V30 4289 H 404.004 -3.04679 -2.6819 0
M  V30 4290 H 404.77 -4.76743 -0.891136 0
M  V30 4291 H 400.649 -4.17132 -1.9627 0
M  V30 4292 H 404.193 -6.97582 0.0503014 0
M  V30 4293 H 400.09 -6.37277 -1.02706 0
M  V30 4294 H 400.858 -8.18499 -0.0146455 0
M  V30 4295 N 403.521 0.559213 -1.47345 0
M  V30 4296 C 404.749 1.34194 -1.57479 0
M  V30 4297 C 405.164 1.87463 -0.224261 0
M  V30 4298 O 404.521 1.64888 0.782185 0
M  V30 4299 C 404.572 2.51324 -2.59843 0
M  V30 4300 O 404.293 2.00256 -3.89653 0
M  V30 4301 C 405.794 3.43563 -2.80142 0
M  V30 4302 H 403.014 0.409136 -0.531835 0
M  V30 4303 H 405.558 0.677609 -1.92947 0
M  V30 4304 H 403.713 3.13699 -2.27314 0
M  V30 4305 H 404.127 2.76708 -4.4557 0
M  V30 4306 H 405.601 4.2217 -3.55635 0
M  V30 4307 H 406.078 3.9698 -1.87892 0
M  V30 4308 H 406.684 2.87005 -3.1386 0
M  V30 4309 N 404.999 1.35443 0.805782 0
M  V30 4310 C 406.247 1.28507 1.55982 0
M  V30 4311 C 406.568 -0.140046 1.94496 0
M  V30 4312 O 405.838 -1.07666 1.63661 0
M  V30 4313 H 404.418 0.472676 0.578434 0
M  V30 4314 H 407.08 1.69555 0.961098 0
M  V30 4315 H 406.176 1.90148 2.47488 0
M  V30 4316 N 406.477 -1.02803 1.19454 0
M  V30 4317 C 407.754 -1.73299 0.907013 0
M  V30 4318 C 408.134 -2.02772 -0.587086 0
M  V30 4319 O 407.482 -1.68304 -1.54551 0
M  V30 4320 C 407.692 -3.00912 1.76785 0
M  V30 4321 C 409.04 -3.74403 2.00268 0
M  V30 4322 O 410.064 -3.10841 1.73943 0
M  V30 4323 O 408.923 -4.88675 2.4466 0
M  V30 4324 H 406.017 -0.754727 0.338106 0
M  V30 4325 H 408.563 -1.08754 1.30271 0
M  V30 4326 H 407.335 -2.75366 2.7801 0
M  V30 4327 H 406.958 -3.73197 1.37149 0
M  V30 4328 N 407.956 -0.998596 -1.21925 0
M  V30 4329 C 409.367 -0.711939 -1.72593 0
M  V30 4330 C 409.718 0.770842 -1.80423 0
M  V30 4331 O 408.843 1.60237 -1.4544 0
M  V30 4332 C 409.438 -1.28567 -3.13458 0
M  V30 4333 C 407.997 -1.04828 -3.61508 0
M  V30 4334 C 407.144 -1.4024 -2.39224 0
M  V30 4335 H 410.095 -1.17027 -1.07193 0
M  V30 4336 H 410.116 -0.667098 -3.74607 0
M  V30 4337 H 409.628 -2.36486 -3.07727 0
M  V30 4338 H 407.729 0.0140383 -3.72597 0
M  V30 4339 H 407.842 -1.71566 -4.47328 0
M  V30 4340 H 406.206 -0.821077 -2.41103 0
M  V30 4341 H 406.989 -2.49176 -2.36149 0
M  V30 4342 N 409.434 1.37368 -0.772513 0
M  V30 4343 C 410.711 1.93839 -0.26188 0
M  V30 4344 C 411.091 1.7061 1.24319 0
M  V30 4345 O 410.439 1.05534 2.02669 0
M  V30 4346 C 410.649 3.43154 -0.636102 0
M  V30 4347 C 411.997 4.20249 -0.606324 0
M  V30 4348 O 413.021 3.5152 -0.575538 0
M  V30 4349 O 411.88 5.42809 -0.634086 0
M  V30 4350 H 408.974 0.82478 -0.0605555 0
M  V30 4351 H 411.52 1.4665 -0.853917 0
M  V30 4352 H 410.292 3.53647 -1.6748 0
M  V30 4353 H 409.915 3.97596 -0.0170516 0
M  V30 4354 N 410.912 0.523116 1.48665 0
M  V30 4355 C 411.86 -0.256859 2.31177 0
M  V30 4356 C 412.854 -0.94199 1.40794 0
M  V30 4357 O 414.06 -0.867157 1.57735 0
M  V30 4358 H 410.435 -0.1017 0.745091 0
M  V30 4359 H 412.406 0.458739 2.94853 0
M  V30 4360 C 411.155 -1.29503 3.22683 0
M  V30 4361 H 410.478 -0.777248 3.92172 0
M  V30 4362 H 411.918 -1.81233 3.83315 0
M  V30 4363 C 410.377 -2.32501 2.43813 0
M  V30 4364 O 410.907 -3.3881 2.15803 0
M  V30 4365 N 409.113 -2.05538 2.05432 0
M  V30 4366 H 408.66 -1.19104 2.28412 0
M  V30 4367 H 408.618 -2.74676 1.52973 0
M  V30 4368 N 412.39 -1.55475 0.257931 0
M  V30 4369 C 413.801 -1.8511 -0.243135 0
M  V30 4370 C 414.152 -1.17986 -1.5676 0
M  V30 4371 O 413.277 -0.462102 -2.11409 0
M  V30 4372 C 413.872 -3.35826 -0.447929 0
M  V30 4373 C 412.431 -3.65647 -0.893245 0
M  V30 4374 C 411.578 -2.7729 0.0232965 0
M  V30 4375 H 414.529 -1.51261 0.480199 0
M  V30 4376 H 414.55 -3.58002 -1.28898 0
M  V30 4377 H 414.062 -3.84652 0.516196 0
M  V30 4378 H 412.163 -3.22308 -1.86945 0
M  V30 4379 H 412.276 -4.73312 -0.742469 0
M  V30 4380 H 410.64 -2.49942 -0.490021 0
M  V30 4381 H 411.423 -3.28926 0.982994 0
M  V30 4382 N 413.868 0.0150385 -1.57593 0
M  V30 4383 C 415.096 0.714395 -1.94175 0
M  V30 4384 C 415.511 1.68135 -0.858841 0
M  V30 4385 O 414.868 1.81766 0.163567 0
M  V30 4386 C 414.919 1.45933 -3.30735 0
M  V30 4387 O 414.64 0.531167 -4.34868 0
M  V30 4388 C 416.141 2.25456 -3.81686 0
M  V30 4389 H 413.361 0.199923 -0.640525 0
M  V30 4390 H 415.905 -0.0316096 -2.04476 0
M  V30 4391 H 414.06 2.15709 -3.21789 0
M  V30 4392 H 414.474 1.05509 -5.13778 0
M  V30 4393 H 415.948 2.731 -4.79709 0
M  V30 4394 H 416.425 3.07485 -3.13607 0
M  V30 4395 H 417.031 1.60727 -3.9376 0
M  V30 4396 N 415.346 1.54954 0.287554 0
M  V30 4397 C 416.595 1.74081 1.01877 0
M  V30 4398 C 416.908 0.541135 1.87966 0
M  V30 4399 O 418.114 0.614491 2.64455 0
M  V30 4400 C 416.57 3.08042 1.86113 0
M  V30 4401 C 416.178 4.35531 1.04961 0
M  V30 4402 C 417.922 3.36523 2.58752 0
M  V30 4403 C 415.829 5.60538 1.88551 0
M  V30 4404 H 414.759 0.64884 0.384087 0
M  V30 4405 H 417.41 1.81426 0.275101 0
M  V30 4406 H 415.792 2.94696 2.64519 0
M  V30 4407 H 416.966 4.59751 0.31074 0
M  V30 4408 H 415.281 4.14085 0.43843 0
M  V30 4409 H 417.878 4.27122 3.21668 0
M  V30 4410 H 418.221 2.56 3.28283 0
M  V30 4411 H 418.754 3.50901 1.87386 0
M  V30 4412 H 415.493 6.43767 1.23466 0
M  V30 4413 H 415.013 5.40483 2.60074 0
M  V30 4414 H 416.692 5.98297 2.46273 0
M  V30 4415 N 416.824 -0.551391 1.4764 0
M  V30 4416 C 418.052 -1.33357 1.58189 0
M  V30 4417 C 418.467 -1.87342 0.234199 0
M  V30 4418 O 417.824 -1.65301 -0.77343 0
M  V30 4419 C 417.875 -2.49942 2.61173 0
M  V30 4420 O 417.596 -1.98187 3.90709 0
M  V30 4421 C 419.097 -3.42072 2.8196 0
M  V30 4422 H 416.317 -0.40631 0.533998 0
M  V30 4423 H 418.861 -0.667367 1.93304 0
M  V30 4424 H 417.016 -3.12489 2.28975 0
M  V30 4425 H 417.43 -2.74342 4.47031 0
M  V30 4426 H 418.904 -4.20278 3.57869 0
M  V30 4427 H 419.381 -3.95978 1.89995 0
M  V30 4428 H 419.987 -2.85336 3.15378 0
M  V30 4429 N 418.302 -1.35869 -0.798587 0
M  V30 4430 C 419.548 -1.30788 -1.55775 0
M  V30 4431 C 419.903 0.114558 -1.92059 0
M  V30 4432 O 419.196 1.06691 -1.59147 0
M  V30 4433 C 419.39 -2.1556 -2.85077 0
M  V30 4434 C 419.219 -3.65904 -2.61428 0
M  V30 4435 C 417.989 -4.35112 -2.56915 0
M  V30 4436 C 420.187 -4.59375 -2.31255 0
M  V30 4437 N 418.169 -5.71155 -2.25068 0
M  V30 4438 C 419.54 -5.83598 -2.09316 0
M  V30 4439 C 421.595 -4.48035 -2.17185 0
M  V30 4440 C 420.298 -6.97755 -1.74731 0
M  V30 4441 C 422.324 -5.62049 -1.83998 0
M  V30 4442 C 421.686 -6.85305 -1.629 0
M  V30 4443 H 417.785 -0.533855 -0.571422 0
M  V30 4444 H 420.369 -1.7083 -0.934079 0
M  V30 4445 H 418.54 -1.77776 -3.45326 0
M  V30 4446 H 420.272 -2.01938 -3.50718 0
M  V30 4447 H 417.027 -3.87812 -2.71843 0
M  V30 4448 H 417.451 -6.42978 -2.11916 0
M  V30 4449 H 422.093 -3.53338 -2.3219 0
M  V30 4450 H 419.811 -7.92411 -1.58464 0
M  V30 4451 H 423.397 -5.55232 -1.73808 0
M  V30 4452 H 422.277 -7.72034 -1.37596 0
M  V30 4453 N 419.78 1.02168 -1.19998 0
M  V30 4454 C 421.057 1.72816 -0.916191 0
M  V30 4455 C 421.437 2.03081 0.576325 0
M  V30 4456 O 420.785 1.69122 1.53656 0
M  V30 4457 C 420.995 2.9997 -1.78378 0
M  V30 4458 C 422.343 3.73336 -2.02251 0
M  V30 4459 O 423.367 3.09914 -1.75589 0
M  V30 4460 O 422.226 4.87371 -2.47249 0
M  V30 4461 H 419.32 0.752924 -0.342103 0
M  V30 4462 H 421.866 1.08062 -1.30846 0
M  V30 4463 H 420.638 2.73888 -2.79466 0
M  V30 4464 H 420.261 3.72464 -1.39126 0
M  V30 4465 N 421.258 1.00505 1.21394 0
M  V30 4466 C 422.504 0.688793 1.90745 0
M  V30 4467 C 422.837 -0.778486 1.77914 0
M  V30 4468 O 422.112 -1.56433 1.15581 0
M  V30 4469 C 422.395 1.11063 3.42545 0
M  V30 4470 C 422.248 2.63737 3.64367 0
M  V30 4471 C 423.567 0.673059 4.34923 0
M  V30 4472 H 420.686 0.251702 0.692687 0
M  V30 4473 H 423.328 1.25074 1.43026 0
M  V30 4474 H 421.478 0.632508 3.83317 0
M  V30 4475 H 423.15 3.19313 3.32922 0
M  V30 4476 H 421.393 3.05248 3.08231 0
M  V30 4477 H 422.064 2.88305 4.70727 0
M  V30 4478 H 424.54 1.08392 4.01734 0
M  V30 4479 H 423.416 0.996383 5.39781 0
M  V30 4480 H 423.677 -0.425808 4.40045 0
M  V30 4481 N 422.737 -1.36956 0.779787 0
M  V30 4482 C 423.687 -2.27539 0.144892 0
M  V30 4483 C 424.671 -1.46493 -0.665488 0
M  V30 4484 O 425.863 -1.68968 -0.527141 0
M  V30 4485 C 422.992 -3.35512 -0.727082 0
M  V30 4486 C 422.078 -4.24001 0.0915642 0
M  V30 4487 N 422.469 -4.92757 1.14125 0
M  V30 4488 C 420.767 -4.45807 -0.131141 0
M  V30 4489 C 421.468 -5.58138 1.6388 0
M  V30 4490 N 420.444 -5.35241 0.94962 0
M  V30 4491 H 424.246 -2.78176 0.948446 0
M  V30 4492 H 421.76 -1.50169 0.618315 0
M  V30 4493 H 423.757 -3.99324 -1.19776 0
M  V30 4494 H 422.417 -2.86431 -1.52929 0
M  V30 4495 H 423.428 -4.94984 1.52353 0
M  V30 4496 H 420.105 -4.07582 -0.904621 0
M  V30 4497 H 421.495 -6.23071 2.51461 0
M  V30 4498 N 424.215 -0.530993 -1.48385 0
M  V30 4499 C 425.492 0.0671788 -1.95485 0
M  V30 4500 C 425.872 1.51191 -1.47324 0
M  V30 4501 O 425.22 2.17507 -0.700202 0
M  V30 4502 C 425.43 -0.0511206 -3.48963 0
M  V30 4503 C 426.778 0.107632 -4.24464 0
M  V30 4504 O 427.802 0.0226248 -3.56193 0
M  V30 4505 O 426.661 0.285972 -5.45751 0
M  V30 4506 H 423.755 0.0787365 -0.823243 0
M  V30 4507 H 426.301 -0.595662 -1.58902 0
M  V30 4508 H 425.073 -1.05747 -3.7674 0
M  V30 4509 H 424.696 0.650525 -3.92242 0
M  V30 4510 N 425.693 1.55336 -0.266172 0
M  V30 4511 C 426.641 2.23587 0.641228 0
M  V30 4512 C 427.635 1.22986 1.16494 0
M  V30 4513 O 428.841 1.40943 1.1196 0
M  V30 4514 H 425.216 0.717452 0.225315 0
M  V30 4515 H 427.187 2.9837 0.0426561 0
M  V30 4516 C 425.936 2.96369 1.81826 0
M  V30 4517 H 425.259 3.73563 1.42445 0
M  V30 4518 H 426.699 3.47459 2.42998 0
M  V30 4519 C 425.158 2.0133 2.70125 0
M  V30 4520 O 425.688 1.55875 3.70224 0
M  V30 4521 N 423.894 1.6802 2.37102 0
M  V30 4522 H 423.441 2.05181 1.55751 0
M  V30 4523 H 423.399 1.047 2.96454 0
M  V30 4524 N 427.171 -0.0066808 1.57599 0
M  V30 4525 C 428.103 -1.02827 2.04839 0
M  V30 4526 C 429.116 -1.31108 0.965113 0
M  V30 4527 O 430.305 -1.28202 1.24203 0
M  V30 4528 C 427.405 -2.36464 2.42771 0
M  V30 4529 C 426.578 -2.27219 3.73751 0
M  V30 4530 C 425.637 -3.43489 3.98625 0
M  V30 4531 O 424.663 -3.21976 4.69382 0
M  V30 4532 N 425.865 -4.66116 3.46 0
M  V30 4533 H 428.63 -0.625455 2.93101 0
M  V30 4534 H 426.191 -0.194198 1.60731 0
M  V30 4535 H 428.183 -3.13008 2.56531 0
M  V30 4536 H 426.753 -2.68512 1.60063 0
M  V30 4537 H 425.973 -1.35629 3.70133 0
M  V30 4538 H 427.261 -2.18208 4.59633 0
M  V30 4539 H 426.659 -4.86493 2.88688 0
M  V30 4540 H 425.216 -5.39949 3.65101 0
M  V30 4541 N 428.649 -1.55105 -0.279332 0
M  V30 4542 C 430.065 -1.46803 -0.626187 0
M  V30 4543 C 430.265 -0.676939 -1.89789 0
M  V30 4544 O 429.321 -0.19326 -2.51759 0
M  V30 4545 C 430.634 -2.90962 -0.759034 0
M  V30 4546 C 432.182 -3.01138 -0.853504 0
M  V30 4547 C 432.657 -4.46539 -1.01818 0
M  V30 4548 N 434.148 -4.50341 -1.08386 0
M  V30 4549 C 434.883 -5.60053 -1.22996 0
M  V30 4550 N 434.379 -6.79645 -1.34366 0
M  V30 4551 N 436.172 -5.47783 -1.26056 0
M  V30 4552 H 428.323 -2.04996 0.555921 0
M  V30 4553 H 430.586 -0.929325 0.187239 0
M  V30 4554 H 430.292 -3.51544 0.104852 0
M  V30 4555 H 430.166 -3.39619 -1.64131 0
M  V30 4556 H 432.553 -2.40658 -1.70786 0
M  V30 4557 H 432.634 -2.55745 0.0532466 0
M  V30 4558 H 432.278 -5.0762 -0.168504 0
M  V30 4559 H 432.208 -4.89583 -1.93948 0
M  V30 4560 H 434.699 -3.64191 -1.00864 0
M  V30 4561 H 435.012 -7.59012 -1.4533 0
M  V30 4562 H 433.357 -6.82469 -1.31382 0
M  V30 4563 H 436.548 -4.53294 -1.168 0
M  V30 4564 H 436.721 -6.33331 -1.37098 0
M  V30 4565 N 430.127 0.543554 -1.4793 0
M  V30 4566 C 431.543 0.870806 -1.3375 0
M  V30 4567 C 431.743 1.9864 -0.338261 0
M  V30 4568 O 430.799 2.51305 0.245371 0
M  V30 4569 C 432.112 1.25114 -2.73435 0
M  V30 4570 C 433.66 1.3618 -2.81823 0
M  V30 4571 C 434.135 1.77563 -4.22179 0
M  V30 4572 N 435.626 1.8469 -4.24787 0
M  V30 4573 C 436.361 2.18067 -5.30315 0
M  V30 4574 N 435.857 2.49963 -6.46135 0
M  V30 4575 N 437.65 2.18958 -5.17701 0
M  V30 4576 H 429.801 -0.19275 -2.11524 0
M  V30 4577 H 432.064 -0.0235777 -0.947707 0
M  V30 4578 H 431.77 0.50514 -3.48053 0
M  V30 4579 H 431.644 2.20431 -3.06088 0
M  V30 4580 H 434.031 2.09859 -2.07468 0
M  V30 4581 H 434.112 0.390169 -2.52807 0
M  V30 4582 H 433.756 1.04449 -4.97044 0
M  V30 4583 H 433.686 2.75753 -4.48629 0
M  V30 4584 H 436.177 1.62372 -3.41239 0
M  V30 4585 H 436.49 2.74497 -7.22406 0
M  V30 4586 H 434.835 2.47513 -6.49432 0
M  V30 4587 H 438.026 1.93488 -4.2624 0
M  V30 4588 H 438.199 2.44639 -6.00047 0
M  V30 4589 N 431.605 1.3629 0.791371 0
M  V30 4590 C 432.882 1.20962 1.53712 0
M  V30 4591 C 433.262 -0.205021 2.10102 0
M  V30 4592 O 432.61 -1.21042 1.93807 0
M  V30 4593 C 432.82 2.29002 2.63361 0
M  V30 4594 C 434.168 2.65572 3.31295 0
M  V30 4595 O 435.192 2.2803 2.73643 0
M  V30 4596 O 434.051 3.3018 4.35481 0
M  V30 4597 H 431.145 0.47086 0.679867 0
M  V30 4598 H 433.691 1.48016 0.830021 0
M  V30 4599 H 432.463 3.2382 2.19674 0
M  V30 4600 H 432.086 2.03303 3.41692 0
M  V30 4601 N 433.083 -1.0153 1.20538 0
M  V30 4602 C 434.329 -1.75517 1.02787 0
M  V30 4603 C 434.684 -1.87411 -0.435289 0
M  V30 4604 O 433.977 -1.38982 -1.31889 0
M  V30 4605 C 434.171 -3.17213 1.64654 0
M  V30 4606 C 434 -3.19134 3.16834 0
M  V30 4607 C 432.77 -3.26301 3.85818 0
M  V30 4608 C 434.968 -3.05077 4.14044 0
M  V30 4609 N 432.95 -3.17739 5.25276 0
M  V30 4610 C 434.321 -3.04299 5.40187 0
M  V30 4611 C 436.376 -2.89303 4.05226 0
M  V30 4612 C 435.079 -2.89365 6.58529 0
M  V30 4613 C 437.105 -2.75723 5.23193 0
M  V30 4614 C 436.467 -2.75612 6.48242 0
M  V30 4615 H 432.566 -0.652919 0.430373 0
M  V30 4616 H 435.15 -1.20755 1.52729 0
M  V30 4617 H 433.321 -3.70266 1.17294 0
M  V30 4618 H 435.053 -3.79637 1.40208 0
M  V30 4619 H 431.808 -3.33078 3.36684 0
M  V30 4620 H 432.232 -3.16829 5.98288 0
M  V30 4621 H 436.874 -2.88201 3.09354 0
M  V30 4622 H 434.592 -2.89216 7.54573 0
M  V30 4623 H 438.178 -2.64533 5.18183 0
M  V30 4624 H 437.058 -2.65224 7.37988 0
M  V30 4625 N 434.561 -1.01147 -1.20859 0
M  V30 4626 C 435.807 -0.708598 -1.90658 0
M  V30 4627 C 436.162 0.753069 -1.7705 0
M  V30 4628 O 435.455 1.53952 -1.14059 0
M  V30 4629 C 435.649 -1.0727 -3.40922 0
M  V30 4630 C 435.478 -2.56821 -3.69152 0
M  V30 4631 C 434.248 -3.23524 -3.8815 0
M  V30 4632 C 436.446 -3.54997 -3.72131 0
M  V30 4633 N 434.428 -4.62359 -4.03853 0
M  V30 4634 C 435.799 -4.79371 -3.93196 0
M  V30 4635 C 437.854 -3.49042 -3.55069 0
M  V30 4636 C 436.557 -5.98512 -3.98969 0
M  V30 4637 C 438.583 -4.67579 -3.6211 0
M  V30 4638 C 437.945 -5.9076 -3.83643 0
M  V30 4639 H 434.044 -0.31088 -0.71755 0
M  V30 4640 H 436.628 -1.29526 -1.45366 0
M  V30 4641 H 434.799 -0.51443 -3.84978 0
M  V30 4642 H 436.531 -0.723891 -3.98173 0
M  V30 4643 H 433.286 -2.73958 -3.86321 0
M  V30 4644 H 433.71 -5.34427 -4.15592 0
M  V30 4645 H 438.352 -2.54808 -3.37391 0
M  V30 4646 H 436.07 -6.93132 -4.15444 0
M  V30 4647 H 439.656 -4.64581 -3.50222 0
M  V30 4648 H 438.536 -6.8095 -3.88944 0
M  V30 4649 N 436.039 1.36541 -0.78704 0
M  V30 4650 C 437.287 1.98911 -0.357633 0
M  V30 4651 C 437.608 1.62778 1.07371 0
M  V30 4652 O 436.878 0.900612 1.73971 0
M  V30 4653 H 435.458 0.735734 -0.129246 0
M  V30 4654 H 438.12 1.66776 -1.00855 0
M  V30 4655 H 437.216 3.08874 -0.447549 0
M  V30 4656 N 437.518 0.538854 1.48102 0
M  V30 4657 C 438.466 -0.232325 2.31437 0
M  V30 4658 C 439.46 -0.927004 1.41785 0
M  V30 4659 O 440.666 -0.850378 1.58646 0
M  V30 4660 H 437.041 -0.0937916 0.746128 0
M  V30 4661 H 439.012 0.489986 2.9435 0
M  V30 4662 C 437.761 -1.26074 3.24038 0
M  V30 4663 H 437.084 -0.735609 3.92974 0
M  V30 4664 H 438.524 -1.77157 3.85216 0
M  V30 4665 C 436.983 -2.29902 2.46265 0
M  V30 4666 O 437.513 -3.36502 2.19384 0
M  V30 4667 N 435.719 -2.03348 2.07601 0
M  V30 4668 H 435.266 -1.16675 2.29662 0
M  V30 4669 H 435.224 -2.73038 1.55877 0
M  V30 4670 N 438.996 -1.55193 0.274407 0
M  V30 4671 C 440.407 -1.85358 -0.223488 0
M  V30 4672 C 440.758 -1.19642 -1.555 0
M  V30 4673 O 439.883 -0.484498 -2.10907 0
M  V30 4674 C 440.478 -3.36282 -0.412285 0
M  V30 4675 C 439.037 -3.66574 -0.854413 0
M  V30 4676 C 438.184 -2.7725 0.0527056 0
M  V30 4677 H 441.135 -1.50743 0.496215 0
M  V30 4678 H 441.156 -3.59349 -1.25094 0
M  V30 4679 H 440.668 -3.84083 0.556965 0
M  V30 4680 H 438.769 -3.24273 -1.83516 0
M  V30 4681 H 438.882 -4.74073 -0.692226 0
M  V30 4682 H 437.246 -2.50447 -0.463484 0
M  V30 4683 H 438.029 -3.27865 1.01783 0
M  V30 4684 N 440.474 -0.00167713 -1.576 0
M  V30 4685 C 441.72 0.683832 -1.90923 0
M  V30 4686 C 442.053 1.7333 -0.875799 0
M  V30 4687 O 441.328 1.94215 0.10525 0
M  V30 4688 C 441.611 1.32543 -3.3482 0
M  V30 4689 C 441.464 0.287387 -4.48881 0
M  V30 4690 C 442.783 2.25114 -3.78169 0
M  V30 4691 H 439.902 0.247125 -0.694333 0
M  V30 4692 H 442.544 -0.0533149 -1.89925 0
M  V30 4693 H 440.694 1.95372 -3.35801 0
M  V30 4694 H 442.366 -0.341346 -4.60035 0
M  V30 4695 H 440.609 -0.39017 -4.32042 0
M  V30 4696 H 441.28 0.775393 -5.46527 0
M  V30 4697 H 443.756 1.723 -3.7875 0
M  V30 4698 H 442.632 2.66971 -4.79602 0
M  V30 4699 H 442.893 3.13092 -3.12131 0
M  V30 4700 N 441.952 1.55251 0.271103 0
M  V30 4701 C 443.198 1.76207 1.00394 0
M  V30 4702 C 443.531 0.562604 1.85872 0
M  V30 4703 O 442.806 -0.439785 1.89463 0
M  V30 4704 C 443.089 3.06828 1.8849 0
M  V30 4705 C 442.942 4.37134 1.05992 0
M  V30 4706 C 444.261 3.33503 2.87165 0
M  V30 4707 H 441.38 0.641086 0.363562 0
M  V30 4708 H 444.022 1.87982 0.276189 0
M  V30 4709 H 442.172 2.96921 2.5054 0
M  V30 4710 H 443.844 4.59001 0.459978 0
M  V30 4711 H 442.087 4.32275 0.363443 0
M  V30 4712 H 442.758 5.2486 1.70955 0
M  V30 4713 H 445.234 3.43215 2.3525 0
M  V30 4714 H 444.11 4.2616 3.45946 0
M  V30 4715 H 444.371 2.53235 3.62387 0
M  V30 4716 N 443.43 -0.535701 1.48216 0
M  V30 4717 C 444.841 -1.11769 1.49548 0
M  V30 4718 C 445.192 -1.94442 0.26207 0
M  V30 4719 O 444.317 -2.06987 -0.631287 0
M  V30 4720 C 444.912 -2.03367 2.70975 0
M  V30 4721 C 443.471 -2.56795 2.75196 0
M  V30 4722 C 442.618 -1.33631 2.42977 0
M  V30 4723 H 445.569 -0.321232 1.55415 0
M  V30 4724 H 445.59 -2.87569 2.49167 0
M  V30 4725 H 445.102 -1.43169 3.60727 0
M  V30 4726 H 443.203 -3.20731 1.89638 0
M  V30 4727 H 443.316 -2.9632 3.76472 0
M  V30 4728 H 441.68 -1.6502 1.94012 0
M  V30 4729 H 442.463 -0.75194 3.34964 0
M  V30 4730 N 444.908 -1.36708 -0.784132 0
M  V30 4731 C 446.133 -1.34565 -1.5782 0
M  V30 4732 C 446.558 0.0695257 -1.87971 0
M  V30 4733 O 445.916 1.04302 -1.48293 0
M  V30 4734 C 445.964 -2.17952 -2.87279 0
M  V30 4735 O 445.068 -1.57563 -3.81114 0
M  V30 4736 H 444.409 -0.460337 -0.478524 0
M  V30 4737 H 446.939 -1.80064 -0.971495 0
M  V30 4738 H 446.949 -2.30721 -3.365 0
M  V30 4739 H 445.624 -3.20823 -2.64661 0
M  V30 4740 H 444.201 -1.53764 -3.39722 0
M  V30 4741 N 446.386 1.0089 -1.21074 0
M  V30 4742 C 447.632 1.7497 -1.03717 0
M  V30 4743 C 447.987 1.8764 0.425344 0
M  V30 4744 O 447.28 1.39679 1.3115 0
M  V30 4745 C 447.474 3.16335 -1.66334 0
M  V30 4746 C 447.303 3.17449 -3.18522 0
M  V30 4747 C 446.073 3.2425 -3.87543 0
M  V30 4748 C 448.271 3.02877 -4.15656 0
M  V30 4749 N 446.253 3.14949 -5.26954 0
M  V30 4750 C 447.624 3.0143 -5.41793 0
M  V30 4751 C 449.679 2.8715 -4.06755 0
M  V30 4752 C 448.382 2.85869 -6.60054 0
M  V30 4753 C 450.408 2.72944 -5.24648 0
M  V30 4754 C 449.77 2.72171 -6.49694 0
M  V30 4755 H 445.869 0.650627 -0.43383 0
M  V30 4756 H 448.453 1.19944 -1.53367 0
M  V30 4757 H 446.624 3.69638 -1.19256 0
M  V30 4758 H 448.356 3.78888 -1.42219 0
M  V30 4759 H 445.111 3.31288 -3.38446 0
M  V30 4760 H 445.535 3.13651 -5.9996 0
M  V30 4761 H 450.177 2.86557 -3.10878 0
M  V30 4762 H 447.895 2.8521 -7.56096 0
M  V30 4763 H 451.481 2.61782 -5.19578 0
M  V30 4764 H 450.361 2.61307 -7.39384 0
M  V30 4765 N 447.864 1.01787 1.20321 0
M  V30 4766 C 449.094 0.72614 1.93419 0
M  V30 4767 C 449.502 -0.717317 1.75075 0
M  V30 4768 O 448.845 -1.49836 1.06278 0
M  V30 4769 C 448.907 0.983621 3.45782 0
M  V30 4770 C 448.571 2.41645 3.87888 0
M  V30 4771 C 449.568 3.39732 3.93545 0
M  V30 4772 C 447.253 2.75752 4.19841 0
M  V30 4773 C 449.247 4.69988 4.30569 0
M  V30 4774 C 446.934 4.06221 4.56539 0
M  V30 4775 C 447.932 5.0315 4.61876 0
M  V30 4776 O 447.62 6.31284 4.97731 0
M  V30 4777 H 447.352 0.265824 0.621541 0
M  V30 4778 H 449.906 1.3623 1.53722 0
M  V30 4779 H 448.136 0.290301 3.85609 0
M  V30 4780 H 449.825 0.683279 4.00108 0
M  V30 4781 H 450.591 3.14718 3.69022 0
M  V30 4782 H 446.47 2.00993 4.14877 0
M  V30 4783 H 450.014 5.45642 4.3465 0
M  V30 4784 H 445.911 4.31013 4.80518 0
M  V30 4785 H 446.679 6.35591 5.15719 0
M  V30 4786 N 449.342 -1.36122 0.79427 0
M  V30 4787 C 450.57 -2.03362 0.380989 0
M  V30 4788 C 450.985 -1.59881 -1.00416 0
M  V30 4789 O 450.342 -0.790515 -1.6449 0
M  V30 4790 C 450.393 -3.58804 0.440649 0
M  V30 4791 O 450.114 -4.007 1.77118 0
M  V30 4792 C 451.615 -4.43296 0.0186117 0
M  V30 4793 H 448.835 -0.652526 0.156367 0
M  V30 4794 H 451.379 -1.73998 1.07447 0
M  V30 4795 H 449.534 -3.8686 -0.204458 0
M  V30 4796 H 449.948 -4.95309 1.72538 0
M  V30 4797 H 451.422 -5.51887 0.111488 0
M  V30 4798 H 451.899 -4.2684 -1.03461 0
M  V30 4799 H 452.505 -4.20512 0.636395 0
M  V30 4800 N 450.82 -0.546701 -1.47814 0
M  V30 4801 C 451.73 0.21026 -2.33656 0
M  V30 4802 C 452.746 0.922413 -1.47538 0
M  V30 4803 O 453.922 0.893652 -1.80488 0
M  V30 4804 C 450.987 1.23348 -3.24016 0
M  V30 4805 C 450.048 0.529883 -4.26017 0
M  V30 4806 C 449.281 1.50435 -5.12059 0
M  V30 4807 O 449.504 2.73837 -5.00369 0
M  V30 4808 O 448.438 1.03459 -5.92942 0
M  V30 4809 H 452.264 -0.493605 -2.99662 0
M  V30 4810 H 449.849 -0.307427 -1.46203 0
M  V30 4811 H 451.731 1.82438 -3.79861 0
M  V30 4812 H 450.406 1.91945 -2.60651 0
M  V30 4813 H 449.313 -0.101948 -3.73961 0
M  V30 4814 H 450.646 -0.11445 -4.92067 0
M  V30 4815 N 452.299 1.55045 -0.282633 0
M  V30 4816 C 453.262 2.21515 0.588539 0
M  V30 4817 C 454.262 1.19535 1.07554 0
M  V30 4818 O 455.452 1.44391 0.974514 0
M  V30 4819 C 452.584 2.88704 1.8128 0
M  V30 4820 H 453.777 2.99899 0.00806397 0
M  V30 4821 H 451.33 1.56265 -0.0333067 0
M  V30 4822 H 452.065 2.14352 2.43359 0
M  V30 4823 H 451.85 3.63443 1.47144 0
M  V30 4824 H 453.34 3.39465 2.43214 0
M  V30 4825 N 453.777 0.010035 1.57597 0
M  V30 4826 C 455.002 -0.687021 1.95691 0
M  V30 4827 C 455.427 -1.65952 0.885519 0
M  V30 4828 O 454.785 -1.80633 -0.15543 0
M  V30 4829 C 454.833 -1.3864 3.32884 0
M  V30 4830 O 453.937 -2.50115 3.27897 0
M  V30 4831 H 453.278 -0.181989 0.638573 0
M  V30 4832 H 455.808 0.0662122 2.04493 0
M  V30 4833 H 455.818 -1.74754 3.6868 0
M  V30 4834 H 454.493 -0.673411 4.10412 0
M  V30 4835 H 453.07 -2.16253 3.03791 0
M  V30 4836 N 455.255 -1.55392 -0.262866 0
M  V30 4837 C 456.185 -1.91978 -1.32917 0
M  V30 4838 C 457.166 -0.7828 -1.51017 0
M  V30 4839 O 458.351 -1.04178 -1.63892 0
M  V30 4840 C 455.481 -2.20055 -2.68687 0
M  V30 4841 C 454.435 -3.35854 -2.65304 0
M  V30 4842 C 453.761 -3.49435 -4.04721 0
M  V30 4843 C 455.061 -4.71977 -2.23685 0
M  V30 4844 H 456.755 -2.81292 -1.02544 0
M  V30 4845 H 454.301 -1.3534 -0.491846 0
M  V30 4846 H 456.254 -2.44237 -3.43404 0
M  V30 4847 H 454.978 -1.27551 -3.00663 0
M  V30 4848 H 453.637 -3.11655 -1.93045 0
M  V30 4849 H 453.285 -2.54379 -4.33936 0
M  V30 4850 H 452.985 -4.27297 -4.0335 0
M  V30 4851 H 454.509 -3.7592 -4.81161 0
M  V30 4852 H 455.923 -4.95637 -2.88127 0
M  V30 4853 H 454.32 -5.52828 -2.33456 0
M  V30 4854 H 455.39 -4.70115 -1.18827 0
M  V30 4855 N 456.733 0.527833 -1.48498 0
M  V30 4856 C 457.979 1.28545 -1.56857 0
M  V30 4857 C 458.312 1.92678 -0.242651 0
M  V30 4858 O 457.587 1.79394 0.751545 0
M  V30 4859 C 457.87 2.37314 -2.70839 0
M  V30 4860 C 457.723 1.77858 -4.13142 0
M  V30 4861 C 459.042 3.39068 -2.80573 0
M  V30 4862 H 456.161 0.466006 -0.570971 0
M  V30 4863 H 458.803 0.587784 -1.8068 0
M  V30 4864 H 456.953 2.96821 -2.50658 0
M  V30 4865 H 458.625 1.22385 -4.44769 0
M  V30 4866 H 456.868 1.08383 -4.20042 0
M  V30 4867 H 457.539 2.56624 -4.88721 0
M  V30 4868 H 460.015 2.89518 -2.98862 0
M  V30 4869 H 458.891 4.12566 -3.6205 0
M  V30 4870 H 459.152 3.9975 -1.88818 0
M  V30 4871 N 458.211 1.37122 0.776871 0
M  V30 4872 C 459.141 1.35164 1.90402 0
M  V30 4873 C 460.122 0.221069 1.68657 0
M  V30 4874 O 461.307 0.420642 1.8959 0
M  V30 4875 C 458.437 1.15274 3.27611 0
M  V30 4876 C 457.391 2.25289 3.63908 0
M  V30 4877 C 456.717 1.90527 4.99603 0
M  V30 4878 C 458.017 3.67446 3.71188 0
M  V30 4879 H 459.711 2.29482 1.92297 0
M  V30 4880 H 457.257 1.10465 0.923773 0
M  V30 4881 H 459.21 1.12536 4.06096 0
M  V30 4882 H 457.934 0.174102 3.26136 0
M  V30 4883 H 456.593 2.27174 2.87728 0
M  V30 4884 H 456.241 0.91206 4.94662 0
M  V30 4885 H 455.941 2.64193 5.24858 0
M  V30 4886 H 457.465 1.89367 5.80493 0
M  V30 4887 H 458.879 3.67719 4.39836 0
M  V30 4888 H 457.276 4.40123 4.07936 0
M  V30 4889 H 458.346 4.01443 2.71977 0
M  V30 4890 N 459.689 -1.00246 1.21608 0
M  V30 4891 C 460.966 -1.71336 0.943568 0
M  V30 4892 C 461.346 -2.03972 -0.543943 0
M  V30 4893 O 460.694 -1.71545 -1.50946 0
M  V30 4894 C 460.904 -2.97094 1.83128 0
M  V30 4895 C 462.252 -3.70071 2.08165 0
M  V30 4896 O 463.276 -3.07081 1.80498 0
M  V30 4897 O 462.135 -4.83376 2.54971 0
M  V30 4898 H 459.229 -0.747386 0.354039 0
M  V30 4899 H 461.775 -1.05967 1.32549 0
M  V30 4900 H 460.547 -2.69407 2.83788 0
M  V30 4901 H 460.17 -3.70204 1.45034 0
M  V30 4902 N 461.167 -1.02423 -1.1978 0
M  V30 4903 C 462.097 -0.62157 -2.25075 0
M  V30 4904 C 463.078 0.367148 -1.6609 0
M  V30 4905 O 464.263 0.250892 -1.92573 0
M  V30 4906 C 461.393 0.0331826 -3.47284 0
M  V30 4907 C 460.347 -0.877323 -4.18912 0
M  V30 4908 C 459.673 -0.0879296 -5.34628 0
M  V30 4909 C 460.973 -2.18892 -4.74219 0
M  V30 4910 H 462.667 -1.50179 -2.59011 0
M  V30 4911 H 460.213 -0.723547 -1.24502 0
M  V30 4912 H 462.166 0.326488 -4.20133 0
M  V30 4913 H 460.89 0.948164 -3.12534 0
M  V30 4914 H 459.549 -1.15475 -3.47938 0
M  V30 4915 H 459.197 0.828941 -4.96123 0
M  V30 4916 H 458.897 -0.694359 -5.83483 0
M  V30 4917 H 460.421 0.198743 -6.10276 0
M  V30 4918 H 461.835 -1.95746 -5.38847 0
M  V30 4919 H 460.232 -2.74686 -5.33542 0
M  V30 4920 H 461.302 -2.84674 -3.92541 0
M  V30 4921 N 462.645 1.35699 -0.801477 0
M  V30 4922 C 463.922 1.9324 -0.302937 0
M  V30 4923 C 464.302 1.73209 1.20672 0
M  V30 4924 O 463.65 1.09809 2.00385 0
M  V30 4925 C 463.86 3.41728 -0.708747 0
M  V30 4926 C 465.208 4.18868 -0.695328 0
M  V30 4927 O 466.232 3.5022 -0.649971 0
M  V30 4928 O 465.091 5.41342 -0.749081 0
M  V30 4929 H 462.185 0.82331 -0.0780367 0
M  V30 4930 H 464.731 1.44806 -0.884832 0
M  V30 4931 H 463.503 3.50015 -1.74944 0
M  V30 4932 H 463.126 3.97471 -0.101384 0
M  V30 4933 N 464.123 0.554532 1.47522 0
M  V30 4934 C 465.371 0.0294208 2.02079 0
M  V30 4935 C 465.692 -1.32411 1.43151 0
M  V30 4936 O 464.962 -1.863 0.605728 0
M  V30 4937 H 463.542 0.00788672 0.746958 0
M  V30 4938 H 466.204 0.723934 1.80956 0
M  V30 4939 H 465.3 -0.0606745 3.12041 0
M  V30 4940 N 465.601 -1.54893 0.290851 0
M  V30 4941 C 466.549 -2.24579 -0.605576 0
M  V30 4942 C 467.543 -1.24824 -1.14522 0
M  V30 4943 O 468.749 -1.42706 -1.09704 0
M  V30 4944 H 465.124 -0.720946 -0.213872 0
M  V30 4945 H 467.095 -2.984 0.0048173 0
M  V30 4946 C 465.844 -2.99224 -1.77088 0
M  V30 4947 H 465.167 -3.75782 -1.36484 0
M  V30 4948 H 466.607 -3.51281 -2.3744 0
M  V30 4949 C 465.066 -2.05602 -2.66888 0
M  V30 4950 O 465.596 -1.61745 -3.67698 0
M  V30 4951 N 463.802 -1.71771 -2.34399 0
M  V30 4952 H 463.349 -2.07633 -1.52468 0
M  V30 4953 H 463.307 -1.09403 -2.94751 0
M  V30 4954 N 467.08 -0.0183926 -1.57589 0
M  V30 4955 C 468.491 0.521927 -1.79256 0
M  V30 4956 C 468.842 1.72885 -0.927636 0
M  V30 4957 O 467.967 2.15978 -0.135091 0
M  V30 4958 C 468.562 0.953632 -3.25102 0
M  V30 4959 C 467.121 1.43913 -3.47801 0
M  V30 4960 C 466.268 0.398837 -2.74417 0
M  V30 4961 H 469.219 -0.244485 -1.56805 0
M  V30 4962 H 469.24 1.81863 -3.34224 0
M  V30 4963 H 468.752 0.0750123 -3.88028 0
M  V30 4964 H 466.853 2.33804 -2.90115 0
M  V30 4965 H 466.966 1.45391 -4.56507 0
M  V30 4966 H 465.33 0.864572 -2.39577 0
M  V30 4967 H 466.113 -0.471132 -3.40052 0
M  V30 4968 N 468.558 1.5553 0.254621 0
M  V30 4969 C 469.49 1.86104 1.33783 0
M  V30 4970 C 470.503 0.746752 1.44663 0
M  V30 4971 O 471.692 1.0248 1.46151 0
M  V30 4972 C 468.792 2.02532 2.71724 0
M  V30 4973 C 467.965 3.33335 2.83208 0
M  V30 4974 C 467.024 3.396 4.01943 0
M  V30 4975 O 466.05 4.12862 3.91834 0
M  V30 4976 N 467.252 2.68332 5.1476 0
M  V30 4977 H 470.017 2.79605 1.07893 0
M  V30 4978 H 467.578 1.55672 0.444732 0
M  V30 4979 H 469.57 2.04074 3.4948 0
M  V30 4980 H 468.14 1.15811 2.90356 0
M  V30 4981 H 467.36 3.44176 1.92189 0
M  V30 4982 H 468.648 4.19565 2.87824 0
M  V30 4983 H 468.046 2.08528 5.25864 0
M  V30 4984 H 466.603 2.75575 5.90679 0
M  V30 4985 N 470.036 -0.519951 1.48776 0
M  V30 4986 C 471.447 -1.10177 1.50725 0
M  V30 4987 C 471.798 -1.94153 0.282678 0
M  V30 4988 O 470.923 -2.07645 -0.609298 0
M  V30 4989 C 471.518 -2.00482 2.73116 0
M  V30 4990 C 470.077 -2.53862 2.77905 0
M  V30 4991 C 469.224 -1.31047 2.44381 0
M  V30 4992 H 472.175 -0.30473 1.55747 0
M  V30 4993 H 472.196 -2.8491 2.52203 0
M  V30 4994 H 471.708 -1.39335 3.62225 0
M  V30 4995 H 469.809 -3.18702 1.93029 0
M  V30 4996 H 469.922 -2.9231 3.79594 0
M  V30 4997 H 468.286 -1.62953 1.95751 0
M  V30 4998 H 469.069 -0.71637 3.35743 0
M  V30 4999 N 471.514 -1.37532 -0.769588 0
M  V30 5000 C 472.76 -1.33057 -1.53048 0
M  V30 5001 C 473.093 0.0841865 -1.94017 0
M  V30 5002 O 472.368 1.04198 -1.64235 0
M  V30 5003 C 472.651 -2.27166 -2.79406 0
M  V30 5004 C 472.504 -3.77429 -2.44677 0
M  V30 5005 C 473.823 -2.19683 -3.81349 0
M  V30 5006 H 470.942 -0.484655 -0.555228 0
M  V30 5007 H 473.584 -1.68251 -0.882702 0
M  V30 5008 H 471.734 -1.97283 -3.34682 0
M  V30 5009 H 473.406 -4.17918 -1.953 0
M  V30 5010 H 471.649 -3.95892 -1.77346 0
M  V30 5011 H 472.32 -4.38716 -3.35011 0
M  V30 5012 H 474.796 -2.46029 -3.35573 0
M  V30 5013 H 473.672 -2.87668 -4.67481 0
M  V30 5014 H 473.933 -1.19045 -4.25771 0
M  V30 5015 N 472.992 0.995999 -1.22138 0
M  V30 5016 C 474.241 1.72928 -1.03821 0
M  V30 5017 C 474.554 1.90872 0.427444 0
M  V30 5018 O 475.76 2.61496 0.730212 0
M  V30 5019 C 474.216 3.11124 -1.80913 0
M  V30 5020 C 473.824 3.01122 -3.31707 0
M  V30 5021 C 475.568 3.8852 -1.71035 0
M  V30 5022 C 473.475 4.34453 -4.01253 0
M  V30 5023 H 472.405 0.648376 -0.384869 0
M  V30 5024 H 475.056 1.11213 -1.45959 0
M  V30 5025 H 473.438 3.73503 -1.31573 0
M  V30 5026 H 474.612 2.47926 -3.88419 0
M  V30 5027 H 472.927 2.3721 -3.42228 0
M  V30 5028 H 475.524 4.872 -2.20318 0
M  V30 5029 H 475.867 4.1087 -0.670196 0
M  V30 5030 H 476.4 3.32812 -2.17902 0
M  V30 5031 H 473.139 4.17303 -5.05508 0
M  V30 5032 H 472.659 4.87574 -3.49331 0
M  V30 5033 H 474.338 5.03215 -4.06674 0
M  V30 5034 N 474.47 1.03057 1.19235 0
M  V30 5035 C 475.716 0.729098 1.89241 0
M  V30 5036 C 476.049 -0.740573 1.79525 0
M  V30 5037 O 475.324 -1.53946 1.18874 0
M  V30 5038 C 475.607 1.18304 3.40112 0
M  V30 5039 C 475.46 2.71406 3.5869 0
M  V30 5040 C 476.779 0.765161 4.33397 0
M  V30 5041 H 473.898 0.266338 0.687192 0
M  V30 5042 H 476.54 1.28079 1.40341 0
M  V30 5043 H 474.69 0.713672 3.81889 0
M  V30 5044 H 476.362 3.26303 3.26074 0
M  V30 5045 H 474.605 3.11717 3.01687 0
M  V30 5046 H 475.276 2.98225 4.64506 0
M  V30 5047 H 477.752 1.16889 3.99345 0
M  V30 5048 H 476.628 1.11065 5.37546 0
M  V30 5049 H 476.889 -0.332372 4.40849 0
M  V30 5050 N 475.948 -1.35272 0.808662 0
M  V30 5051 C 477.364 -1.51806 0.492653 0
M  V30 5052 C 477.564 -1.7574 -0.985778 0
M  V30 5053 O 476.62 -1.80003 -1.77074 0
M  V30 5054 C 477.933 -2.69202 1.33981 0
M  V30 5055 C 479.481 -2.8308 1.33547 0
M  V30 5056 C 479.956 -4.03502 2.16679 0
M  V30 5057 N 481.447 -4.10684 2.14227 0
M  V30 5058 C 482.182 -5.02984 2.75308 0
M  V30 5059 N 481.678 -6.00603 3.45323 0
M  V30 5060 N 483.471 -4.95746 2.64938 0
M  V30 5061 H 475.622 -1.17993 1.76611 0
M  V30 5062 H 477.885 -0.577476 0.751814 0
M  V30 5063 H 477.591 -2.581 2.38909 0
M  V30 5064 H 477.465 -3.63854 0.994491 0
M  V30 5065 H 479.852 -2.93631 0.294036 0
M  V30 5066 H 479.933 -1.89278 1.72068 0
M  V30 5067 H 479.577 -3.93711 3.20864 0
M  V30 5068 H 479.507 -4.96489 1.75517 0
M  V30 5069 H 481.998 -3.40802 1.63285 0
M  V30 5070 H 482.311 -6.67633 3.89212 0
M  V30 5071 H 480.656 -6.0077 3.49428 0
M  V30 5072 H 483.847 -4.18439 2.09825 0
M  V30 5073 H 484.02 -5.67487 3.12829 0
M  V30 5074 N 477.426 -0.562348 -1.47226 0
M  V30 5075 C 478.336 0.185466 -2.33866 0
M  V30 5076 C 479.352 0.906713 -1.48508 0
M  V30 5077 O 480.528 0.874458 -1.81425 0
M  V30 5078 C 477.593 1.19904 -3.25306 0
M  V30 5079 C 476.654 0.484669 -4.26555 0
M  V30 5080 C 475.887 1.44996 -5.13626 0
M  V30 5081 O 476.11 2.68515 -5.03245 0
M  V30 5082 O 475.044 0.971642 -5.94006 0
M  V30 5083 H 478.87 -0.525361 -2.99121 0
M  V30 5084 H 476.455 -0.322916 -1.45868 0
M  V30 5085 H 478.337 1.78399 -3.81774 0
M  V30 5086 H 477.012 1.8917 -2.62672 0
M  V30 5087 H 475.919 -0.141605 -3.73832 0
M  V30 5088 H 477.252 -0.166634 -4.91918 0
M  V30 5089 N 478.904 1.54736 -0.299062 0
M  V30 5090 C 479.814 2.27127 0.587413 0
M  V30 5091 C 480.83 1.30575 1.15005 0
M  V30 5092 O 482.006 1.63554 1.17525 0
M  V30 5093 C 479.071 2.99645 1.74395 0
M  V30 5094 C 478.132 4.11731 1.21559 0
M  V30 5095 C 477.365 4.80781 2.317 0
M  V30 5096 O 477.588 4.4918 3.51558 0
M  V30 5097 O 476.522 5.68226 1.98501 0
M  V30 5098 H 480.348 3.037 0.000250109 0
M  V30 5099 H 477.933 1.49256 -0.0655919 0
M  V30 5100 H 479.815 3.45138 2.4178 0
M  V30 5101 H 478.49 2.25969 2.31775 0
M  V30 5102 H 477.397 3.70641 0.507514 0
M  V30 5103 H 478.73 4.87379 0.687233 0
M  V30 5104 N 480.382 0.0267497 1.57577 0
M  V30 5105 C 481.329 -0.955894 2.10075 0
M  V30 5106 C 482.299 -1.32453 1.00226 0
M  V30 5107 O 483.484 -1.41826 1.27632 0
M  V30 5108 C 480.624 -2.2338 2.6305 0
M  V30 5109 C 479.737 -1.92183 3.86898 0
M  V30 5110 C 478.872 -3.14251 4.28275 0
M  V30 5111 C 477.911 -2.78862 5.44888 0
M  V30 5112 N 477.048 -3.93548 5.81433 0
M  V30 5113 H 481.888 -0.501303 2.93753 0
M  V30 5114 H 479.425 -0.235847 1.45197 0
M  V30 5115 H 481.383 -2.98124 2.91853 0
M  V30 5116 H 480.013 -2.6646 1.82205 0
M  V30 5117 H 479.065 -1.07692 3.64838 0
M  V30 5118 H 480.377 -1.62117 4.7172 0
M  V30 5119 H 479.531 -3.97317 4.58502 0
M  V30 5120 H 478.27 -3.47476 3.42215 0
M  V30 5121 H 477.275 -1.94208 5.14357 0
M  V30 5122 H 478.5 -2.46855 6.32645 0
M  V30 5123 H 476.446 -4.2662 4.98328 0
M  V30 5124 H 476.363 -3.67098 6.6089 0
M  V30 5125 H 477.631 -4.77325 6.16264 0
M  V30 5126 N 481.861 -1.55662 -0.24637 0
M  V30 5127 C 483.086 -1.81914 -0.996093 0
M  V30 5128 C 483.511 -0.603875 -1.78143 0
M  V30 5129 O 482.869 0.447091 -1.75701 0
M  V30 5130 C 482.917 -3.05908 -1.90925 0
M  V30 5131 O 482.021 -2.82861 -3.00105 0
M  V30 5132 H 481.362 -0.600481 -0.283406 0
M  V30 5133 H 483.892 -2.02848 -0.267199 0
M  V30 5134 H 483.902 -3.35356 -2.3238 0
M  V30 5135 H 482.577 -3.93999 -1.33183 0
M  V30 5136 H 481.154 -2.64583 -2.62775 0
M  V30 5137 N 483.339 0.512053 -1.4905 0
M  V30 5138 C 484.249 1.64139 -1.67617 0
M  V30 5139 C 485.265 1.64786 -0.558701 0
M  V30 5140 O 486.441 1.8341 -0.832034 0
M  V30 5141 C 483.506 3.00548 -1.72835 0
M  V30 5142 C 482.567 3.10615 -2.96339 0
M  V30 5143 C 481.8 4.40517 -3.01298 0
M  V30 5144 O 482.023 5.28671 -2.14157 0
M  V30 5145 O 480.957 4.55325 -3.93653 0
M  V30 5146 H 484.783 1.51407 -2.63267 0
M  V30 5147 H 482.368 0.687131 -1.32661 0
M  V30 5148 H 484.25 3.81641 -1.78683 0
M  V30 5149 H 482.925 3.13566 -0.803616 0
M  V30 5150 H 481.832 2.2875 -2.96014 0
M  V30 5151 H 483.165 3.0252 -3.88256 0
M  V30 5152 N 484.817 1.37938 0.762283 0
M  V30 5153 C 485.75 1.2884 1.88349 0
M  V30 5154 C 486.728 0.167084 1.61739 0
M  V30 5155 O 487.912 0.34292 1.85355 0
M  V30 5156 C 485.039 0.994257 3.23778 0
M  V30 5157 C 484.085 2.13376 3.69287 0
M  V30 5158 S 484.918 3.75439 3.81845 0
M  V30 5159 C 486.074 3.48195 5.20107 0
M  V30 5160 H 486.307 2.23736 1.95779 0
M  V30 5161 H 483.84 1.23672 0.924368 0
M  V30 5162 H 485.798 0.83138 4.01993 0
M  V30 5163 H 484.459 0.0626251 3.14038 0
M  V30 5164 H 483.652 1.88319 4.67495 0
M  V30 5165 H 483.254 2.25726 2.98201 0
M  V30 5166 H 485.546 3.0377 6.05583 0
M  V30 5167 H 486.489 4.45765 5.50181 0
M  V30 5168 H 486.897 2.82905 4.88493 0
M  V30 5169 N 486.295 -0.989507 1.22664 0
M  V30 5170 C 487.258 -2.06183 1.00106 0
M  V30 5171 C 488.258 -1.60765 -0.0337726 0
M  V30 5172 O 489.448 -1.72989 0.205072 0
M  V30 5173 C 486.58 -3.37021 0.51279 0
M  V30 5174 H 487.773 -2.27629 1.95256 0
M  V30 5175 H 485.326 -1.16158 1.0458 0
M  V30 5176 H 486.061 -3.21261 -0.442917 0
M  V30 5177 H 485.846 -3.71323 1.25942 0
M  V30 5178 H 487.336 -4.1591 0.375315 0
M  V30 5179 N 487.773 -1.03688 -1.18687 0
M  V30 5180 C 489.019 -0.739123 -1.88851 0
M  V30 5181 C 489.352 0.731042 -1.79915 0
M  V30 5182 O 488.627 1.53313 -1.19688 0
M  V30 5183 C 488.91 -1.20106 -3.3948 0
M  V30 5184 C 488.763 -2.73304 -3.57246 0
M  V30 5185 C 490.082 -0.788134 -4.32986 0
M  V30 5186 H 487.201 -0.269978 -0.68577 0
M  V30 5187 H 489.843 -1.28822 -1.3966 0
M  V30 5188 H 487.993 -0.733915 -3.81505 0
M  V30 5189 H 489.665 -3.28027 -3.24339 0
M  V30 5190 H 487.908 -3.13313 -3.00029 0
M  V30 5191 H 488.579 -3.00684 -4.62918 0
M  V30 5192 H 491.055 -1.19005 -3.98719 0
M  V30 5193 H 489.931 -1.13915 -5.36949 0
M  V30 5194 H 490.192 0.308988 -4.41019 0
M  V30 5195 N 489.251 1.34841 -0.815825 0
M  V30 5196 C 490.479 2.0273 -0.413294 0
M  V30 5197 C 490.894 1.61459 0.978599 0
M  V30 5198 O 490.251 0.816584 1.63212 0
M  V30 5199 C 490.302 3.58058 -0.497676 0
M  V30 5200 O 490.023 3.97832 -1.8347 0
M  V30 5201 C 491.524 4.4321 -0.0891339 0
M  V30 5202 H 488.744 0.649956 -0.166728 0
M  V30 5203 H 491.288 1.72267 -1.10201 0
M  V30 5204 H 489.443 3.87136 0.142886 0
M  V30 5205 H 489.857 4.92501 -1.80396 0
M  V30 5206 H 491.331 5.5164 -0.199274 0
M  V30 5207 H 491.808 4.28432 0.966571 0
M  V30 5208 H 492.414 4.19446 -0.703214 0
M  V30 5209 N 490.729 0.570148 1.46925 0
M  V30 5210 C 491.975 0.0510284 2.02736 0
M  V30 5211 C 492.308 -1.3006 1.44215 0
M  V30 5212 O 491.583 -1.84932 0.602521 0
M  V30 5213 C 491.866 -0.028215 3.60089 0
M  V30 5214 C 491.719 1.35142 4.29018 0
M  V30 5215 C 493.038 -0.735181 4.33916 0
M  V30 5216 H 490.157 0.0200178 0.736728 0
M  V30 5217 H 492.799 0.73493 1.75211 0
M  V30 5218 H 490.949 -0.610648 3.83671 0
M  V30 5219 H 492.621 1.97806 4.16738 0
M  V30 5220 H 490.864 1.9226 3.88868 0
M  V30 5221 H 491.535 1.24857 5.37694 0
M  V30 5222 H 494.011 -0.240519 4.15404 0
M  V30 5223 H 492.887 -0.759622 5.43618 0
M  V30 5224 H 493.148 -1.79397 4.04066 0
M  V30 5225 N 492.207 -1.54576 0.307264 0
M  V30 5226 C 493.455 -1.99867 -0.299574 0
M  V30 5227 C 493.776 -1.19714 -1.53927 0
M  V30 5228 O 493.046 -0.29472 -1.9367 0
M  V30 5229 H 491.626 -0.738299 -0.113683 0
M  V30 5230 H 494.288 -1.9032 0.420042 0
M  V30 5231 H 493.384 -3.06901 -0.567283 0
M  V30 5232 N 493.685 -0.035106 -1.57561 0
M  V30 5233 C 494.648 0.929819 -2.09492 0
M  V30 5234 C 495.648 1.25026 -1.01119 0
M  V30 5235 O 496.838 1.18961 -1.27255 0
M  V30 5236 C 493.97 2.24457 -2.56577 0
M  V30 5237 H 495.163 0.479935 -2.96035 0
M  V30 5238 H 492.716 0.213033 -1.54841 0
M  V30 5239 H 493.451 2.74061 -1.73382 0
M  V30 5240 H 493.236 2.02508 -3.35757 0
M  V30 5241 H 494.726 2.93607 -2.96959 0
M  V30 5242 N 495.163 1.55791 0.238111 0
M  V30 5243 C 496.073 1.94196 1.31625 0
M  V30 5244 C 497.089 0.843545 1.52185 0
M  V30 5245 O 498.265 1.1457 1.65637 0
M  V30 5246 C 495.33 2.2365 2.64918 0
M  V30 5247 C 494.391 3.46971 2.52804 0
M  V30 5248 C 493.624 3.7501 3.79741 0
M  V30 5249 O 493.847 3.04982 4.82019 0
M  V30 5250 O 492.781 4.68525 3.77846 0
M  V30 5251 H 496.607 2.86044 1.02043 0
M  V30 5252 H 494.192 1.42786 0.439603 0
M  V30 5253 H 496.074 2.43863 3.4367 0
M  V30 5254 H 494.749 1.34979 2.94215 0
M  V30 5255 H 493.656 3.32055 1.72309 0
M  V30 5256 H 494.989 4.35971 2.28451 0
M  V30 5257 N 496.642 -0.504142 1.49319 0
M  V30 5258 C 498.053 -1.08572 1.51885 0
M  V30 5259 C 498.404 -1.93842 0.303255 0
M  V30 5260 O 497.529 -2.0828 -0.58724 0
M  V30 5261 C 498.124 -1.97574 2.75227 0
M  V30 5262 C 496.683 -2.509 2.80581 0
M  V30 5263 C 495.83 -1.28447 2.45757 0
M  V30 5264 H 498.781 -0.288194 1.56061 0
M  V30 5265 H 498.802 -2.82219 2.55211 0
M  V30 5266 H 498.314 -1.35486 3.63683 0
M  V30 5267 H 496.415 -3.16636 1.96398 0
M  V30 5268 H 496.528 -2.88268 3.82673 0
M  V30 5269 H 494.892 -1.60868 1.97468 0
M  V30 5270 H 495.675 -0.68072 3.36483 0
M  V30 5271 N 498.12 -1.38341 -0.754957 0
M  V30 5272 C 499.345 -1.37882 -1.5493 0
M  V30 5273 C 499.77 0.0296385 -1.88077 0
M  V30 5274 O 499.128 1.01133 -1.50472 0
M  V30 5275 C 499.176 -2.23996 -2.82592 0
M  V30 5276 O 498.28 -1.65612 -3.77686 0
M  V30 5277 H 497.621 -0.470384 -0.468652 0
M  V30 5278 H 500.151 -1.82084 -0.933082 0
M  V30 5279 H 500.161 -2.37806 -3.3153 0
M  V30 5280 H 498.836 -3.26365 -2.57796 0
M  V30 5281 H 497.413 -1.60936 -3.36384 0
M  V30 5282 N 499.598 0.982988 -1.23187 0
M  V30 5283 C 501.009 1.53847 -1.05773 0
M  V30 5284 C 501.36 1.92568 0.375744 0
M  V30 5285 O 500.485 1.75783 1.26211 0
M  V30 5286 C 501.08 2.79567 -1.91384 0
M  V30 5287 C 499.639 3.31524 -1.78238 0
M  V30 5288 C 498.786 2.04534 -1.87246 0
M  V30 5289 H 501.737 0.802962 -1.36888 0
M  V30 5290 H 501.758 3.52317 -1.43711 0
M  V30 5291 H 501.27 2.51353 -2.95708 0
M  V30 5292 H 499.371 3.64623 -0.766875 0
M  V30 5293 H 499.484 4.01457 -2.61475 0
M  V30 5294 H 497.848 2.1855 -1.30797 0
M  V30 5295 H 498.631 1.78706 -2.9312 0
M  V30 5296 N 501.076 1.04316 1.18135 0
M  V30 5297 C 502.304 0.768117 1.92113 0
M  V30 5298 C 502.719 -0.675057 1.76319 0
M  V30 5299 O 502.076 -1.46038 1.09449 0
M  V30 5300 C 502.127 1.12808 3.43448 0
M  V30 5301 O 501.848 2.5146 3.58747 0
M  V30 5302 C 503.349 0.8779 4.3452 0
M  V30 5303 H 500.569 0.279937 0.609817 0
M  V30 5304 H 503.113 1.39149 1.49859 0
M  V30 5305 H 501.268 0.549623 3.83481 0
M  V30 5306 H 501.682 2.65313 4.52448 0
M  V30 5307 H 503.156 1.17959 5.39249 0
M  V30 5308 H 503.633 -0.187239 4.38801 0
M  V30 5309 H 504.239 1.43977 4.00188 0
M  V30 5310 N 502.554 -1.34406 0.822964 0
M  V30 5311 C 503.965 -1.8069 0.469879 0
M  V30 5312 C 504.316 -1.68223 -1.00972 0
M  V30 5313 O 503.441 -1.22226 -1.78577 0
M  V30 5314 C 504.036 -3.28064 0.846118 0
M  V30 5315 C 502.595 -3.72428 0.545402 0
M  V30 5316 C 501.742 -2.56116 1.06301 0
M  V30 5317 H 504.693 -1.22153 1.01313 0
M  V30 5318 H 504.714 -3.80205 0.149922 0
M  V30 5319 H 504.226 -3.37107 1.92304 0
M  V30 5320 H 502.327 -3.68924 -0.522109 0
M  V30 5321 H 502.44 -4.66548 1.0895 0
M  V30 5322 H 500.804 -2.50048 0.484554 0
M  V30 5323 H 501.587 -2.67928 2.14638 0
M  V30 5324 N 504.032 -0.577932 -1.46621 0
M  V30 5325 C 504.995 0.147805 -2.28723 0
M  V30 5326 C 505.995 0.823325 -1.38123 0
M  V30 5327 O 507.185 0.676011 -1.60548 0
M  V30 5328 C 504.317 1.21853 -3.18378 0
M  V30 5329 H 505.51 -0.573654 -2.94362 0
M  V30 5330 H 503.063 -0.335703 -1.52652 0
M  V30 5331 H 503.798 1.97173 -2.57475 0
M  V30 5332 H 503.583 0.738714 -3.85078 0
M  V30 5333 H 505.073 1.72768 -3.80186 0
M  V30 5334 N 505.51 1.54411 -0.315457 0
M  V30 5335 C 506.926 1.59556 0.037464 0
M  V30 5336 C 507.126 1.33217 1.5118 0
M  V30 5337 O 506.182 1.11264 2.26664 0
M  V30 5338 C 507.495 2.98372 -0.373477 0
M  V30 5339 C 509.043 3.11324 -0.323452 0
M  V30 5340 C 509.518 4.52472 -0.709433 0
M  V30 5341 N 511.009 4.58437 -0.662524 0
M  V30 5342 C 511.744 5.65751 -0.933474 0
M  V30 5343 N 511.24 6.81039 -1.27114 0
M  V30 5344 N 513.033 5.55489 -0.859573 0
M  V30 5345 H 505.184 1.6979 -1.27614 0
M  V30 5346 H 507.447 0.793732 -0.518356 0
M  V30 5347 H 507.153 3.22618 -1.40037 0
M  V30 5348 H 507.027 3.76264 0.265615 0
M  V30 5349 H 509.414 2.86818 0.694223 0
M  V30 5350 H 509.495 2.35555 -0.997367 0
M  V30 5351 H 509.139 4.7771 -1.72498 0
M  V30 5352 H 509.069 5.26598 -0.0132923 0
M  V30 5353 H 511.56 3.75636 -0.413065 0
M  V30 5354 H 511.873 7.58816 -1.46348 0
M  V30 5355 H 510.218 6.82555 -1.30932 0
M  V30 5356 H 513.409 4.64299 -0.595324 0
M  V30 5357 H 513.582 6.39036 -1.0741 0
M  V30 5358 O 507.027 0.182621 1.60464 0
M  V30 5359 H 507.718 -0.405074 1.89417 0
M  V30 END ATOM
M  V30 BEGIN BOND
M  V30 END BOND
M  V30 END CTAB
M  END
$$$$
