drugbank_target|Q44532 Ferredoxin--NADP reductase (DB03147)
 OpenBabel12092120263D

  0  0  0     0  0            999 V3000
M  V30 BEGIN CTAB
M  V30 COUNTS 4113 4161 0 0 0
M  V30 BEGIN ATOM
M  V30 1 H -0.908 1.98254 -0.117106 0
M  V30 2 N 0 1.576 0 0
M  V30 3 C 0.933 2.03868 1.02534 0
M  V30 4 C 1.911 0.928543 1.3348 0
M  V30 5 O 3.095 1.19667 1.45644 0
M  V30 6 C 0.222 2.43627 2.35294 0
M  V30 7 C -0.732 3.65373 2.2001 0
M  V30 8 S 0.101 5.13292 1.52614 0
M  V30 9 C 1.257 5.56322 2.86805 0
M  V30 10 H 1.49 2.90518 0.631377 0
M  V30 11 H -0.977 1.52953 0.210867 0
M  V30 12 H 0.981 2.67203 3.11629 0
M  V30 13 H -0.358 1.57376 2.7183 0
M  V30 14 H -1.165 3.90944 3.18086 0
M  V30 15 H -1.563 3.418 1.51819 0
M  V30 16 H 0.729 5.58782 3.83104 0
M  V30 17 H 1.672 6.56266 2.65933 0
M  V30 18 H 2.08 4.83886 2.90714 0
M  V30 19 N 1.4781 -0.272755 1.55222 0
M  V30 20 C 2.7031 -1.02683 1.80197 0
M  V30 21 C 3.1281 -1.79142 0.573551 0
M  V30 22 O 2.4861 -1.74917 -0.476849 0
M  V30 23 C 2.5341 -1.9609 3.02624 0
M  V30 24 O 1.6381 -3.04863 2.77727 0
M  V30 25 H 0.9791 -0.293557 0.595584 0
M  V30 26 H 3.5091 -0.30159 2.02365 0
M  V30 27 H 3.5191 -2.38039 3.31363 0
M  V30 28 H 2.1941 -1.39851 3.91682 0
M  V30 29 H 0.7711 -2.67228 2.60084 0
M  V30 30 N 2.9562 -1.48159 -0.537278 0
M  V30 31 C 3.9042 -1.62573 -1.66352 0
M  V30 32 C 4.8982 -0.492366 -1.62087 0
M  V30 33 O 6.1042 -0.670847 -1.67032 0
M  V30 34 H 2.4792 -0.511992 -0.550789 0
M  V30 35 H 4.4502 -2.57176 -1.51337 0
M  V30 36 C 3.1992 -1.67583 -3.04649 0
M  V30 37 H 2.5222 -2.54151 -3.08622 0
M  V30 38 H 3.9622 -1.81713 -3.83088 0
M  V30 39 C 2.4212 -0.413039 -3.34358 0
M  V30 40 O 2.9512 0.477259 -3.98855 0
M  V30 41 N 1.1572 -0.286961 -2.8918 0
M  V30 42 H 0.7042 -1.01241 -2.36871 0
M  V30 43 H 0.6622 0.556963 -3.09427 0
M  V30 44 N 4.4343 0.785586 -1.36625 0
M  V30 45 C 5.3643 1.91259 -1.33949 0
M  V30 46 C 6.3453 1.68795 -0.210325 0
M  V30 47 O 7.5303 1.89854 -0.408561 0
M  V30 48 C 4.6603 3.28339 -1.13186 0
M  V30 49 C 3.6143 3.65335 -2.22967 0
M  V30 50 C 2.9403 5.00806 -1.87342 0
M  V30 51 C 4.2403 3.7352 -3.65075 0
M  V30 52 H 5.9343 1.93755 -2.28253 0
M  V30 53 H 3.4803 0.930788 -1.09874 0
M  V30 54 H 5.4333 4.06804 -1.09948 0
M  V30 55 H 4.1573 3.2624 -0.153332 0
M  V30 56 H 2.8163 2.89169 -2.25337 0
M  V30 57 H 2.4643 4.95233 -0.880545 0
M  V30 58 H 2.1643 5.26529 -2.60846 0
M  V30 59 H 3.6883 5.81687 -1.85667 0
M  V30 60 H 5.1023 4.42168 -3.64911 0
M  V30 61 H 3.4993 4.10731 -4.37516 0
M  V30 62 H 4.5693 2.74527 -3.99703 0
M  V30 63 N 5.9124 1.20967 1.01018 0
M  V30 64 C 6.8604 0.961223 2.1181 0
M  V30 65 C 7.8544 -0.0897034 1.69162 0
M  V30 66 O 9.0604 0.0612271 1.79896 0
M  V30 67 H 5.4354 0.29355 0.692338 0
M  V30 68 H 7.4064 1.90178 2.29946 0
M  V30 69 C 6.1554 0.536854 3.4353 0
M  V30 70 H 5.4784 1.33713 3.76777 0
M  V30 71 H 6.9184 0.402286 4.22087 0
M  V30 72 C 5.3774 -0.751574 3.2841 0
M  V30 73 O 5.9074 -1.80841 3.58691 0
M  V30 74 N 4.1134 -0.716079 2.81639 0
M  V30 75 H 3.6604 0.144236 2.57196 0
M  V30 76 H 3.6184 -1.57847 2.71904 0
M  V30 77 N 7.3905 -1.2043 1.01659 0
M  V30 78 C 8.6365 -1.90079 0.706963 0
M  V30 79 C 8.9695 -1.78648 -0.761474 0
M  V30 80 O 8.2445 -1.17069 -1.55323 0
M  V30 81 C 8.5275 -3.41469 1.14327 0
M  V30 82 C 8.3805 -3.61833 2.67201 0
M  V30 83 C 9.6995 -4.34261 0.714529 0
M  V30 84 H 6.8185 -0.690254 0.2583 0
M  V30 85 H 9.4605 -1.41826 1.26433 0
M  V30 86 H 7.6105 -3.82696 0.669056 0
M  V30 87 H 9.2825 -3.2986 3.22475 0
M  V30 88 H 7.5255 -3.05304 3.08175 0
M  V30 89 H 8.1965 -4.67955 2.92783 0
M  V30 90 H 10.6725 -4.00682 1.12221 0
M  V30 91 H 9.5485 -5.38806 1.04784 0
M  V30 92 H 9.8095 -4.40431 -0.383799 0
M  V30 93 N 8.8686 -0.792821 -1.36206 0
M  V30 94 C 9.7786 -0.194808 -2.3379 0
M  V30 95 C 10.7946 0.654869 -1.61206 0
M  V30 96 O 11.9706 0.569856 -1.9317 0
M  V30 97 C 9.0356 0.657721 -3.40404 0
M  V30 98 C 8.0966 -0.210849 -4.28782 0
M  V30 99 C 7.3296 0.601086 -5.30304 0
M  V30 100 O 7.5526 1.83682 -5.40016 0
M  V30 101 O 6.4866 -0.000808277 -6.019 0
M  V30 102 H 10.3126 -1.00172 -2.86704 0
M  V30 103 H 7.8976 -0.554341 -1.38735 0
M  V30 104 H 9.7796 1.14375 -4.05581 0
M  V30 105 H 8.4546 1.44247 -2.89784 0
M  V30 106 H 7.3616 -0.743714 -3.66633 0
M  V30 107 H 8.6946 -0.959195 -4.82763 0
M  V30 108 N 10.3467 1.47872 -0.545128 0
M  V30 109 C 11.7627 1.5829 -0.204032 0
M  V30 110 C 11.9627 1.54529 1.29317 0
M  V30 111 O 11.0187 1.44232 2.07252 0
M  V30 112 C 12.3317 2.89304 -0.819987 0
M  V30 113 C 13.8797 3.02864 -0.790105 0
M  V30 114 C 14.3547 4.3656 -1.38491 0
M  V30 115 N 15.8457 4.43165 -1.34755 0
M  V30 116 C 16.5807 5.45153 -1.77753 0
M  V30 117 N 16.0767 6.54016 -2.2855 0
M  V30 118 N 17.8697 5.36125 -1.68897 0
M  V30 119 H 10.0207 1.4856 -1.51802 0
M  V30 120 H 12.2837 0.706305 -0.632327 0
M  V30 121 H 11.9897 2.97757 -1.87173 0
M  V30 122 H 11.8637 3.75957 -0.305915 0
M  V30 123 H 14.2507 2.94014 0.252913 0
M  V30 124 H 14.3317 2.17782 -1.34181 0
M  V30 125 H 13.9757 4.46164 -2.42693 0
M  V30 126 H 13.9057 5.20353 -0.808754 0
M  V30 127 H 16.3967 3.65083 -0.975855 0
M  V30 128 H 16.7097 7.27994 -2.59314 0
M  V30 129 H 15.0547 6.54938 -2.32553 0
M  V30 130 H 18.2457 4.49975 -1.28998 0
M  V30 131 H 18.4187 6.15472 -2.02726 0
M  V30 132 N 11.8248 0.280983 1.55075 0
M  V30 133 C 13.0708 -0.33461 2.00021 0
M  V30 134 C 13.4038 -1.55063 1.16915 0
M  V30 135 O 12.6788 -1.93006 0.240646 0
M  V30 136 C 12.9618 -0.711007 3.53011 0
M  V30 137 C 12.8148 0.512766 4.46868 0
M  V30 138 C 14.1338 -1.54522 4.12081 0
M  V30 139 H 11.2528 -0.120147 0.727141 0
M  V30 140 H 13.8948 0.389097 1.85973 0
M  V30 141 H 12.0448 -1.32761 3.65112 0
M  V30 142 H 13.7168 1.15131 4.46702 0
M  V30 143 H 11.9598 1.14975 4.18286 0
M  V30 144 H 12.6308 0.205556 5.51617 0
M  V30 145 H 15.1068 -1.02442 4.03293 0
M  V30 146 H 13.9828 -1.77739 5.19327 0
M  V30 147 H 14.2438 -2.52813 3.62682 0
M  V30 148 N 13.3029 -1.57598 0.00835791 0
M  V30 149 C 14.2329 -2.1198 -0.979113 0
M  V30 150 C 15.2139 -1.03091 -1.35301 0
M  V30 151 O 16.3989 -1.30818 -1.43528 0
M  V30 152 C 13.5289 -2.62995 -2.26828 0
M  V30 153 C 12.4829 -3.76485 -2.03576 0
M  V30 154 C 11.8089 -4.13846 -3.38579 0
M  V30 155 C 13.1089 -5.0342 -1.39161 0
M  V30 156 H 14.8029 -2.94738 -0.526281 0
M  V30 157 H 12.3489 -1.41783 -0.251704 0
M  V30 158 H 14.3019 -2.99669 -2.96271 0
M  V30 159 H 13.0259 -1.7737 -2.7424 0
M  V30 160 H 11.6849 -3.40217 -1.36557 0
M  V30 161 H 11.3329 -3.25232 -3.83709 0
M  V30 162 H 11.0329 -4.90312 -3.23834 0
M  V30 163 H 12.5569 -4.53086 -4.09323 0
M  V30 164 H 13.9709 -5.37812 -1.98573 0
M  V30 165 H 12.3679 -5.84746 -1.34878 0
M  V30 166 H 13.4379 -4.83548 -0.361868 0
M  V30 167 N 14.781 0.264519 -1.55364 0
M  V30 168 C 16.006 1.01726 -1.80739 0
M  V30 169 C 16.431 1.78836 -0.583044 0
M  V30 170 O 15.789 1.75167 0.467566 0
M  V30 171 C 15.837 1.94482 -3.03659 0
M  V30 172 O 14.941 3.03386 -2.7934 0
M  V30 173 H 14.282 0.290395 -0.597132 0
M  V30 174 H 16.812 0.290854 -2.02522 0
M  V30 175 H 16.822 2.36278 -3.32621 0
M  V30 176 H 15.497 1.37772 -3.92418 0
M  V30 177 H 14.074 2.65844 -2.61498 0
M  V30 178 N 16.2591 1.48442 0.529413 0
M  V30 179 C 17.5051 1.5672 1.28711 0
M  V30 180 C 17.8381 0.2406 1.92704 0
M  V30 181 O 17.1131 -0.753454 1.79313 0
M  V30 182 C 17.3961 2.70587 2.37603 0
M  V30 183 C 17.2491 4.12953 1.78297 0
M  V30 184 C 18.5681 2.80212 3.39366 0
M  V30 185 H 15.6871 0.570474 0.466613 0
M  V30 186 H 18.3291 1.80617 0.589706 0
M  V30 187 H 16.4791 2.50342 2.97088 0
M  V30 188 H 18.1511 4.44639 1.22858 0
M  V30 189 H 16.3941 4.19927 1.0883 0
M  V30 190 H 17.0651 4.88448 2.57144 0
M  V30 191 H 19.5411 2.98553 2.89836 0
M  V30 192 H 18.4171 3.61611 4.12951 0
M  V30 193 H 18.6781 1.88393 3.99951 0
M  V30 194 N 17.7372 -0.778329 1.37039 0
M  V30 195 C 18.6872 -1.88142 1.28789 0
M  V30 196 C 19.6712 -1.59923 0.177063 0
M  V30 197 O 20.8632 -1.72165 0.410873 0
M  V30 198 C 17.9922 -3.25518 1.09055 0
M  V30 199 C 17.0782 -3.5971 2.24654 0
M  V30 200 N 17.4692 -3.65131 3.50018 0
M  V30 201 C 15.7672 -3.89837 2.16663 0
M  V30 202 C 16.4682 -3.95882 4.26207 0
M  V30 203 N 15.4442 -4.11441 3.55271 0
M  V30 204 H 19.2462 -1.90575 2.23737 0
M  V30 205 H 16.7602 -0.974435 1.29917 0
M  V30 206 H 18.7572 -4.04423 1.0123 0
M  V30 207 H 17.4172 -3.24353 0.15018 0
M  V30 208 H 18.4282 -3.475 3.84011 0
M  V30 209 H 15.1052 -3.96533 1.30645 0
M  V30 210 H 16.4952 -4.06907 5.34674 0
M  V30 211 N 19.2153 -1.21501 -1.00376 0
M  V30 212 C 20.1653 -0.942843 -2.07592 0
M  V30 213 C 21.1493 0.102384 -1.60574 0
M  V30 214 O 22.3413 -0.10671 -1.76678 0
M  V30 215 C 19.4703 -0.510729 -3.3948 0
M  V30 216 C 18.5563 -1.59009 -3.93163 0
M  V30 217 N 18.9473 -2.81544 -4.20198 0
M  V30 218 C 17.2453 -1.45925 -4.21452 0
M  V30 219 C 17.9463 -3.51261 -4.63671 0
M  V30 220 N 16.9223 -2.78703 -4.66718 0
M  V30 221 H 20.7243 -1.87378 -2.26421 0
M  V30 222 H 18.2383 -1.11093 -1.18458 0
M  V30 223 H 20.2353 -0.297101 -4.1584 0
M  V30 224 H 18.8953 0.413436 -3.22057 0
M  V30 225 H 19.9063 -3.18075 -4.08716 0
M  V30 226 H 16.5833 -0.600467 -4.13159 0
M  V30 227 H 17.9733 -4.56183 -4.93302 0
M  V30 228 N 20.6934 1.19889 -1.02296 0
M  V30 229 C 21.9394 1.89973 -0.726759 0
M  V30 230 C 22.2944 1.7776 0.73614 0
M  V30 231 O 21.5874 1.15523 1.52856 0
M  V30 232 C 21.7814 3.39883 -1.10518 0
M  V30 233 C 21.6104 3.66684 -2.60332 0
M  V30 234 C 20.3804 3.85045 -3.27213 0
M  V30 235 C 22.5784 3.68727 -3.58532 0
M  V30 236 N 20.5604 3.99422 -4.66192 0
M  V30 237 C 21.9314 3.88604 -4.83101 0
M  V30 238 C 23.9864 3.51722 -3.52414 0
M  V30 239 C 22.6894 3.9324 -6.02292 0
M  V30 240 C 24.7154 3.57632 -4.71013 0
M  V30 241 C 24.0774 3.77988 -5.94394 0
M  V30 242 H 20.1764 0.714551 -0.317712 0
M  V30 243 H 22.7604 1.44123 -1.30907 0
M  V30 244 H 20.9314 3.8447 -0.551142 0
M  V30 245 H 22.6634 3.97464 -0.761853 0
M  V30 246 H 19.4184 3.83689 -2.77632 0
M  V30 247 H 19.8424 4.10473 -5.38368 0
M  V30 248 H 24.4844 3.34945 -2.58015 0
M  V30 249 H 22.2024 4.08811 -6.97065 0
M  V30 250 H 25.7884 3.45773 -4.67902 0
M  V30 251 H 24.6684 3.82428 -6.8463 0
M  V30 252 N 22.1715 0.800033 1.35784 0
M  V30 253 C 23.1195 0.193851 2.31791 0
M  V30 254 C 24.1135 -0.652744 1.56319 0
M  V30 255 O 25.3195 -0.546641 1.71499 0
M  V30 256 H 21.6945 0.04392 0.750716 0
M  V30 257 H 23.6655 1.01883 2.80468 0
M  V30 258 C 22.4145 -0.648338 3.41602 0
M  V30 259 H 21.7375 -0.00624665 3.998 0
M  V30 260 H 23.1775 -1.03898 4.11073 0
M  V30 261 C 21.6365 -1.8111 2.84079 0
M  V30 262 O 22.1665 -2.90825 2.77099 0
M  V30 263 N 20.3725 -1.62056 2.41218 0
M  V30 264 H 19.9195 -0.728123 2.47095 0
M  V30 265 H 19.8775 -2.40013 2.03079 0
M  V30 266 N 23.6496 -1.47581 0.552962 0
M  V30 267 C 24.9266 -1.95563 -0.0381515 0
M  V30 268 C 25.3066 -1.49552 -1.48988 0
M  V30 269 O 24.6546 -0.732414 -2.16444 0
M  V30 270 C 24.8646 -3.48848 0.102919 0
M  V30 271 C 26.2126 -4.24577 -0.0446082 0
M  V30 272 O 27.2366 -3.56187 0.0302548 0
M  V30 273 O 26.0956 -5.46116 -0.204923 0
M  V30 274 H 23.1896 -0.824321 -0.0665067 0
M  V30 275 H 25.7356 -1.58001 0.619186 0
M  V30 276 H 24.5076 -3.75129 1.11328 0
M  V30 277 H 24.1306 -3.93165 -0.592224 0
M  V30 278 N 25.1277 -0.289203 -1.54924 0
M  V30 279 C 26.3557 0.326463 -2.04308 0
M  V30 280 C 26.7707 1.48413 -1.16701 0
M  V30 281 O 26.1277 1.81507 -0.190087 0
M  V30 282 C 26.1787 0.794014 -3.52672 0
M  V30 283 O 25.8997 -0.317564 -4.36948 0
M  V30 284 C 27.4007 1.47605 -4.18004 0
M  V30 285 H 24.6207 0.0726272 -0.667058 0
M  V30 286 H 27.1647 -0.425401 -2.00026 0
M  V30 287 H 25.3197 1.49593 -3.57352 0
M  V30 288 H 25.7337 0.0443186 -5.24481 0
M  V30 289 H 27.2077 1.75447 -5.23376 0
M  V30 290 H 27.6847 2.41224 -3.67025 0
M  V30 291 H 28.2907 0.81762 -4.17367 0
M  V30 292 N 26.6058 1.57591 -0.0167156 0
M  V30 293 C 27.5358 2.12496 0.967858 0
M  V30 294 C 28.5168 1.03807 1.34752 0
M  V30 295 O 29.7018 1.31577 1.42833 0
M  V30 296 C 26.8318 2.64194 2.25431 0
M  V30 297 C 25.7858 3.77559 2.01576 0
M  V30 298 C 25.1118 4.15636 3.36379 0
M  V30 299 C 26.4118 5.04151 1.36489 0
M  V30 300 H 28.1058 2.95013 0.510643 0
M  V30 301 H 25.6518 1.41915 0.244181 0
M  V30 302 H 27.6048 3.01236 2.94678 0
M  V30 303 H 26.3288 1.78821 2.73296 0
M  V30 304 H 24.9878 3.40937 1.34751 0
M  V30 305 H 24.6358 3.27263 3.81979 0
M  V30 306 H 24.3358 4.92022 3.21229 0
M  V30 307 H 25.8598 4.5525 4.06915 0
M  V30 308 H 27.2738 5.38857 1.95718 0
M  V30 309 H 25.6708 5.85453 1.31776 0
M  V30 310 H 26.7408 4.83733 0.336219 0
M  V30 311 N 28.0839 -0.256276 1.55502 0
M  V30 312 C 29.3309 -0.985619 1.76895 0
M  V30 313 C 29.6589 -1.85671 0.579355 0
M  V30 314 O 28.9139 -1.90744 -0.437651 0
M  V30 315 C 29.2129 -1.88432 3.03691 0
M  V30 316 C 28.8789 -1.16936 4.35473 0
M  V30 317 C 27.5409 -0.97173 4.71286 0
M  V30 318 C 29.8929 -0.661889 5.1698 0
M  V30 319 C 27.2209 -0.254179 5.86149 0
M  V30 320 C 29.5729 0.042149 6.32586 0
M  V30 321 C 28.2369 0.25134 6.67027 0
M  V30 322 H 27.5069 -0.360663 0.647304 0
M  V30 323 H 30.1539 -0.256483 1.89775 0
M  V30 324 H 28.4589 -2.68021 2.85783 0
M  V30 325 H 30.1559 -2.45015 3.1744 0
M  V30 326 H 26.7459 -1.33332 4.07333 0
M  V30 327 H 30.9299 -0.802145 4.89775 0
M  V30 328 H 26.1859 -0.0815408 6.11346 0
M  V30 329 H 30.3599 0.443049 6.94989 0
M  V30 330 H 27.9869 0.809314 7.5588 0
M  V30 331 N 29.562 -1.4872 -0.521534 0
M  V30 332 C 30.787 -1.61101 -1.30618 0
M  V30 333 C 31.212 -0.274611 -1.86085 0
M  V30 334 O 30.57 0.754937 -1.64834 0
M  V30 335 C 30.618 -2.66709 -2.4269 0
M  V30 336 O 29.722 -2.24456 -3.45967 0
M  V30 337 H 29.063 -0.539921 -0.386499 0
M  V30 338 H 31.593 -1.94767 -0.626645 0
M  V30 339 H 31.603 -2.88245 -2.88754 0
M  V30 340 H 30.278 -3.63727 -2.01682 0
M  V30 341 H 28.855 -2.13168 -3.05964 0
M  V30 342 N 31.0401 0.771051 -1.3745 0
M  V30 343 C 32.2871 1.52963 -1.32697 0
M  V30 344 C 32.6151 1.94299 0.0883274 0
M  V30 345 O 31.8701 1.64397 1.0617 0
M  V30 346 C 32.1691 2.80676 -2.2126 0
M  V30 347 C 31.8351 2.58389 -3.69521 0
M  V30 348 C 30.4971 2.52019 -4.09927 0
M  V30 349 C 32.8491 2.38469 -4.63446 0
M  V30 350 C 30.1771 2.23721 -5.42371 0
M  V30 351 C 32.5291 2.11694 -5.96128 0
M  V30 352 C 31.1931 2.03769 -6.35637 0
M  V30 353 H 30.4631 0.559732 -0.485573 0
M  V30 354 H 33.1101 0.888083 -1.69662 0
M  V30 355 H 31.4151 3.49392 -1.77291 0
M  V30 356 H 33.1121 3.38557 -2.14895 0
M  V30 357 H 29.7021 2.6421 -3.37478 0
M  V30 358 H 33.8861 2.4238 -4.33089 0
M  V30 359 H 29.1421 2.16081 -5.71943 0
M  V30 360 H 33.3161 1.9528 -6.6846 0
M  V30 361 H 30.9431 1.81606 -7.38189 0
M  V30 362 N 32.5182 1.22032 0.997298 0
M  V30 363 C 33.4652 0.986467 2.08656 0
M  V30 364 C 34.4352 -0.0902671 1.65855 0
M  V30 365 O 35.6202 0.0584294 1.90711 0
M  V30 366 C 32.7602 0.565569 3.40434 0
M  V30 367 C 31.8732 1.71259 3.96604 0
M  V30 368 C 31.0082 1.24011 5.16522 0
M  V30 369 C 30.0472 2.35896 5.64818 0
M  V30 370 N 29.1842 1.89726 6.7598 0
M  V30 371 H 34.0242 1.91892 2.27994 0
M  V30 372 H 31.5612 0.956199 1.11782 0
M  V30 373 H 33.5192 0.302738 4.161 0
M  V30 374 H 32.1492 -0.329879 3.2111 0
M  V30 375 H 31.2012 2.08986 3.17851 0
M  V30 376 H 32.5132 2.55436 4.28432 0
M  V30 377 H 31.6672 0.934395 5.99461 0
M  V30 378 H 30.4062 0.368487 4.86306 0
M  V30 379 H 29.4112 2.67261 4.8047 0
M  V30 380 H 30.6362 3.23567 5.97061 0
M  V30 381 H 28.5822 1.0492 6.47555 0
M  V30 382 H 28.4992 2.67471 7.07103 0
M  V30 383 H 29.7672 1.62211 7.62435 0
M  V30 384 N 33.9963 -1.19345 1.0293 0
M  V30 385 C 35.2243 -1.92997 0.745644 0
M  V30 386 C 35.6393 -1.75519 -0.695589 0
M  V30 387 O 34.9963 -1.07737 -1.47306 0
M  V30 388 C 35.0473 -3.44741 1.08792 0
M  V30 389 O 34.7683 -3.61658 2.47256 0
M  V30 390 C 36.2693 -4.35515 0.827129 0
M  V30 391 H 33.4893 -0.613042 0.272801 0
M  V30 392 H 36.0333 -1.51473 1.3739 0
M  V30 393 H 34.1883 -3.84097 0.504832 0
M  V30 394 H 34.6023 -4.55514 2.60015 0
M  V30 395 H 36.0763 -5.40589 1.11658 0
M  V30 396 H 36.5533 -4.38552 -0.238436 0
M  V30 397 H 37.1593 -4.01841 1.39297 0
M  V30 398 N 35.4744 -0.807222 -1.35358 0
M  V30 399 C 36.7024 -0.400377 -2.02989 0
M  V30 400 C 37.1174 0.988859 -1.60832 0
M  V30 401 O 36.4744 1.63729 -0.806175 0
M  V30 402 C 36.5254 -0.474867 -3.58368 0
M  V30 403 O 36.2464 -1.80933 -3.98992 0
M  V30 404 C 37.7474 -0.0609112 -4.43258 0
M  V30 405 H 34.9674 -0.162587 -0.651004 0
M  V30 406 H 37.5114 -1.09102 -1.72965 0
M  V30 407 H 35.6664 0.167534 -3.87038 0
M  V30 408 H 36.0804 -1.77256 -4.9364 0
M  V30 409 H 37.5544 -0.164145 -5.51756 0
M  V30 410 H 38.0314 0.993831 -4.27808 0
M  V30 411 H 38.6374 -0.676492 -4.19885 0
M  V30 412 N 36.9525 1.47285 -0.560781 0
M  V30 413 C 38.3685 1.58065 -0.22081 0
M  V30 414 C 38.5685 1.55892 1.27671 0
M  V30 415 O 37.6245 1.46422 2.0571 0
M  V30 416 C 38.9375 2.88418 -0.850625 0
M  V30 417 C 40.4855 3.02009 -0.822184 0
M  V30 418 C 40.9605 4.35066 -1.43113 0
M  V30 419 N 42.4515 4.41711 -1.39448 0
M  V30 420 C 43.1865 5.43237 -1.83525 0
M  V30 421 N 42.6825 6.51555 -2.35474 0
M  V30 422 N 44.4755 5.34304 -1.74574 0
M  V30 423 H 36.6265 1.46941 -1.53369 0
M  V30 424 H 38.8895 0.699558 -0.639783 0
M  V30 425 H 38.5955 2.95755 -1.9032 0
M  V30 426 H 38.4695 3.75612 -0.345773 0
M  V30 427 H 40.8565 2.94266 0.221714 0
M  V30 428 H 40.9375 2.16347 -1.36483 0
M  V30 429 H 40.5815 4.43565 -2.47412 0
M  V30 430 H 40.5115 5.19465 -0.863899 0
M  V30 431 H 43.0025 3.64027 -1.01452 0
M  V30 432 H 43.3155 7.25203 -2.67021 0
M  V30 433 H 41.6605 6.52435 -2.39487 0
M  V30 434 H 44.8515 4.48581 -1.33763 0
M  V30 435 H 45.0245 6.13288 -2.09242 0
M  V30 436 N 38.4306 0.297415 1.54768 0
M  V30 437 C 39.3786 -0.596051 2.24833 0
M  V30 438 C 40.3726 -1.13992 1.25308 0
M  V30 439 O 41.5786 -1.09098 1.4317 0
M  V30 440 H 37.9536 -0.210814 0.721846 0
M  V30 441 H 39.9246 0.0174667 2.98395 0
M  V30 442 C 38.6736 -1.75818 2.99972 0
M  V30 443 H 37.9966 -1.3489 3.76357 0
M  V30 444 H 39.4366 -2.35949 3.52284 0
M  V30 445 C 37.8956 -2.66014 2.06732 0
M  V30 446 O 38.4256 -3.67009 1.63302 0
M  V30 447 N 36.6316 -2.33669 1.72763 0
M  V30 448 H 36.1786 -1.51586 2.08277 0
M  V30 449 H 36.1366 -2.94285 1.10652 0
M  V30 450 N 39.9087 -1.5758 0.0250728 0
M  V30 451 C 41.3197 -1.79476 -0.514323 0
M  V30 452 C 41.6707 -0.934956 -1.72491 0
M  V30 453 O 40.7957 -0.144245 -2.15919 0
M  V30 454 C 41.3907 -3.25503 -0.939842 0
M  V30 455 C 39.9497 -3.48408 -1.42438 0
M  V30 456 C 39.0967 -2.74583 -0.387201 0
M  V30 457 H 42.0477 -1.567 0.25113 0
M  V30 458 H 42.0687 -3.34992 -1.80445 0
M  V30 459 H 41.5807 -3.88056 -0.0585628 0
M  V30 460 H 39.6817 -2.91103 -2.32572 0
M  V30 461 H 39.7947 -4.57119 -1.43455 0
M  V30 462 H 38.1587 -2.39942 -0.854409 0
M  V30 463 H 38.9417 -3.39849 0.485543 0
M  V30 464 N 41.3868 0.248026 -1.55636 0
M  V30 465 C 42.6118 0.998028 -1.81808 0
M  V30 466 C 43.0368 1.78207 -0.601979 0
M  V30 467 O 42.3948 1.75653 0.448961 0
M  V30 468 C 42.4428 1.9125 -3.05705 0
M  V30 469 O 41.5468 3.00406 -2.82542 0
M  V30 470 H 40.8878 0.284045 -0.600179 0
M  V30 471 H 43.4178 0.269357 -2.02819 0
M  V30 472 H 43.4278 2.32737 -3.35108 0
M  V30 473 H 42.1028 1.33602 -3.93857 0
M  V30 474 H 40.6798 2.63056 -2.64303 0
M  V30 475 N 42.8649 1.48995 0.513639 0
M  V30 476 C 43.7949 1.67636 1.62544 0
M  V30 477 C 44.7759 0.525087 1.61793 0
M  V30 478 O 45.9609 0.759502 1.78732 0
M  V30 479 C 43.0909 1.73114 3.01079 0
M  V30 480 C 42.0449 2.87905 3.16693 0
M  V30 481 C 41.3709 2.78486 4.56453 0
M  V30 482 C 42.6709 4.29005 2.97913 0
M  V30 483 H 44.3649 2.60716 1.47198 0
M  V30 484 H 41.9109 1.25465 0.706714 0
M  V30 485 H 43.8639 1.84742 3.78746 0
M  V30 486 H 42.5879 0.766241 3.17484 0
M  V30 487 H 41.2469 2.75859 2.41448 0
M  V30 488 H 40.8949 1.7993 4.69717 0
M  V30 489 H 40.5949 3.55523 4.67843 0
M  V30 490 H 42.1189 2.92104 5.36197 0
M  V30 491 H 43.5329 4.41798 3.65359 0
M  V30 492 H 41.9299 5.07166 3.20785 0
M  V30 493 H 42.9999 4.44329 1.94165 0
M  V30 494 N 44.343 -0.763751 1.37857 0
M  V30 495 C 45.759 -1.06542 1.18832 0
M  V30 496 C 45.959 -2.01478 0.0299722 0
M  V30 497 O 45.015 -2.4458 -0.627447 0
M  V30 498 C 46.328 -1.65525 2.51042 0
M  V30 499 C 47.876 -1.77745 2.57635 0
M  V30 500 C 48.351 -2.4014 3.89996 0
M  V30 501 N 49.842 -2.47582 3.91481 0
M  V30 502 C 50.577 -2.96732 4.9065 0
M  V30 503 N 50.073 -3.45993 6.00217 0
M  V30 504 N 51.866 -2.95679 4.78048 0
M  V30 505 H 44.017 -0.133556 2.1198 0
M  V30 506 H 46.28 -0.121879 0.940133 0
M  V30 507 H 45.986 -1.03236 3.36207 0
M  V30 508 H 45.86 -2.64719 2.68707 0
M  V30 509 H 48.247 -2.39164 1.72872 0
M  V30 510 H 48.328 -0.772836 2.43846 0
M  V30 511 H 47.972 -1.79358 4.75177 0
M  V30 512 H 47.902 -3.41223 4.01092 0
M  V30 513 H 50.393 -2.1273 3.12337 0
M  V30 514 H 50.706 -3.81922 6.7183 0
M  V30 515 H 49.051 -3.44077 6.03851 0
M  V30 516 H 52.242 -2.56499 3.91568 0
M  V30 517 H 52.415 -3.33672 5.55488 0
M  V30 518 N 45.8211 -1.22559 -0.990812 0
M  V30 519 C 47.0681 -1.05141 -1.73065 0
M  V30 520 C 47.3961 0.413191 -1.9006 0
M  V30 521 O 46.6511 1.32257 -1.44245 0
M  V30 522 C 46.9501 -1.71011 -3.13831 0
M  V30 523 C 46.6161 -3.20911 -3.16745 0
M  V30 524 C 45.2781 -3.61812 -3.17247 0
M  V30 525 C 47.6301 -4.16846 -3.12872 0
M  V30 526 C 44.9581 -4.97127 -3.1158 0
M  V30 527 C 47.3101 -5.5214 -3.08746 0
M  V30 528 C 45.9741 -5.92419 -3.07565 0
M  V30 529 H 45.2441 -0.384738 -0.633291 0
M  V30 530 H 47.8911 -1.5235 -1.16025 0
M  V30 531 H 46.1961 -1.16133 -3.74193 0
M  V30 532 H 47.8931 -1.55023 -3.69823 0
M  V30 533 H 44.4831 -2.88344 -3.17105 0
M  V30 534 H 48.6671 -3.86263 -3.11632 0
M  V30 535 H 43.9231 -5.27562 -3.09012 0
M  V30 536 H 48.0971 -6.26201 -3.04705 0
M  V30 537 H 45.7241 -6.97236 -3.02929 0
M  V30 538 N 47.2992 1.18797 -1.03562 0
M  V30 539 C 48.2092 2.25913 -0.632505 0
M  V30 540 C 49.2252 1.70668 0.338882 0
M  V30 541 O 50.4012 2.00453 0.195076 0
M  V30 542 C 47.4662 3.467 0.00350942 0
M  V30 543 C 46.5272 4.17098 -1.01624 0
M  V30 544 C 45.7602 5.32119 -0.410478 0
M  V30 545 O 45.9832 5.64976 0.784725 0
M  V30 546 O 44.9172 5.9107 -1.13667 0
M  V30 547 H 48.7432 2.62648 -1.52478 0
M  V30 548 H 46.3282 1.25781 -0.806195 0
M  V30 549 H 48.2102 4.19878 0.35781 0
M  V30 550 H 46.8852 3.11798 0.869686 0
M  V30 551 H 45.7922 3.4601 -1.42224 0
M  V30 552 H 47.1252 4.55987 -1.85301 0
M  V30 553 N 48.7773 0.814389 1.34928 0
M  V30 554 C 49.7253 0.218424 2.31572 0
M  V30 555 C 50.7193 -0.636128 1.57002 0
M  V30 556 O 51.9253 -0.52842 1.72069 0
M  V30 557 H 48.3003 0.0518799 0.750208 0
M  V30 558 H 50.2713 1.04852 2.79372 0
M  V30 559 C 49.0203 -0.61207 3.4227 0
M  V30 560 H 48.3433 0.0361578 3.99784 0
M  V30 561 H 49.7833 -0.995317 4.12152 0
M  V30 562 C 48.2423 -1.78087 2.85984 0
M  V30 563 O 48.7723 -2.8787 2.80168 0
M  V30 564 N 46.9783 -1.59488 2.42924 0
M  V30 565 H 46.5253 -0.701874 2.47854 0
M  V30 566 H 46.4833 -2.37846 2.05613 0
M  V30 567 N 50.2554 -1.46986 0.568584 0
M  V30 568 C 51.5034 -2.02041 0.0487022 0
M  V30 569 C 51.8244 -1.44408 -1.31039 0
M  V30 570 O 51.0944 -0.623477 -1.85714 0
M  V30 571 H 49.6744 -0.746849 0.015014 0
M  V30 572 H 52.3364 -1.80257 0.741168 0
M  V30 573 H 51.4324 -3.12085 -0.0308961 0
M  V30 574 N 51.7335 -0.305618 -1.54608 0
M  V30 575 C 52.6655 0.602161 -2.21149 0
M  V30 576 C 53.6785 1.09394 -1.20569 0
M  V30 577 O 54.8675 1.0106 -1.47136 0
M  V30 578 C 51.9675 1.83692 -2.84799 0
M  V30 579 C 51.1405 1.48686 -4.11353 0
M  V30 580 C 50.1995 2.57725 -4.58764 0
M  V30 581 O 49.2255 2.22623 -5.23858 0
M  V30 582 N 50.4275 3.88346 -4.31471 0
M  V30 583 H 53.1925 0.0324966 -2.99682 0
M  V30 584 H 50.7535 -0.128021 -1.61393 0
M  V30 585 H 52.7455 2.55994 -3.13448 0
M  V30 586 H 51.3155 2.31486 -2.10078 0
M  V30 587 H 50.5355 0.596269 -3.89664 0
M  V30 588 H 51.8235 1.22842 -4.93748 0
M  V30 589 H 51.2215 4.19671 -3.79331 0
M  V30 590 H 49.7785 4.56932 -4.64818 0
M  V30 591 N 53.2116 1.57565 -0.0334293 0
M  V30 592 C 54.4586 1.91978 0.644272 0
M  V30 593 C 54.7866 0.910231 1.71887 0
M  V30 594 O 54.0416 -0.0801961 1.95536 0
M  V30 595 C 54.3406 3.33112 1.29504 0
M  V30 596 C 54.0066 4.49537 0.350388 0
M  V30 597 C 52.6686 4.81115 0.0903974 0
M  V30 598 C 55.0206 5.20347 -0.298032 0
M  V30 599 C 52.3486 5.8086 -0.825746 0
M  V30 600 C 54.7006 6.2107 -1.20226 0
M  V30 601 C 53.3646 6.51088 -1.4711 0
M  V30 602 H 52.6346 0.702496 0.235756 0
M  V30 603 H 55.2816 1.91259 -0.0961176 0
M  V30 604 H 53.5866 3.30113 2.11028 0
M  V30 605 H 55.2836 3.57011 1.82603 0
M  V30 606 H 51.8736 4.24883 0.563205 0
M  V30 607 H 56.0576 4.96178 -0.110234 0
M  V30 608 H 51.3136 6.02461 -1.04169 0
M  V30 609 H 55.4876 6.75057 -1.71086 0
M  V30 610 H 53.1146 7.28193 -2.18264 0
M  V30 611 N 54.6897 -0.239769 1.55765 0
M  V30 612 C 55.9357 -0.968234 1.78194 0
M  V30 613 C 56.2687 -1.84701 0.599938 0
M  V30 614 O 55.5437 -1.9031 -0.401524 0
M  V30 615 C 55.8267 -1.8227 3.10564 0
M  V30 616 C 55.6797 -0.971633 4.3918 0
M  V30 617 C 56.9987 -2.80388 3.39221 0
M  V30 618 H 54.1177 -0.350572 0.648281 0
M  V30 619 H 56.7597 -0.238259 1.885 0
M  V30 620 H 54.9097 -2.44507 3.01908 0
M  V30 621 H 56.5817 -0.367408 4.59835 0
M  V30 622 H 54.8247 -0.276276 4.32919 0
M  V30 623 H 55.4957 -1.60346 5.28198 0
M  V30 624 H 57.9717 -2.28287 3.47885 0
M  V30 625 H 56.8477 -3.3729 4.33044 0
M  V30 626 H 57.1087 -3.57212 2.60484 0
M  V30 627 N 56.1678 -1.49265 -0.50573 0
M  V30 628 C 57.1008 -1.60183 -1.62532 0
M  V30 629 C 58.0788 -0.451107 -1.56217 0
M  V30 630 O 59.2628 -0.666016 -1.76342 0
M  V30 631 C 56.3898 -1.55238 -3.01029 0
M  V30 632 C 55.4358 -2.7545 -3.25621 0
M  V30 633 S 56.2688 -4.37174 -3.09256 0
M  V30 634 C 57.4248 -4.34866 -4.50158 0
M  V30 635 H 57.6578 -2.54894 -1.53025 0
M  V30 636 H 55.1908 -1.38098 -0.690535 0
M  V30 637 H 57.1488 -1.53071 -3.80893 0
M  V30 638 H 55.8098 -0.618238 -3.07956 0
M  V30 639 H 55.0028 -2.68197 -4.26716 0
M  V30 640 H 54.6048 -2.75005 -2.53472 0
M  V30 641 H 56.8968 -4.06295 -5.42154 0
M  V30 642 H 57.8398 -5.36223 -4.62462 0
M  V30 643 H 58.2478 -3.65007 -4.30616 0
M  V30 644 N 57.6459 0.756429 -1.3826 0
M  V30 645 C 58.8949 1.51082 -1.3363 0
M  V30 646 C 59.2079 1.95467 0.0720068 0
M  V30 647 O 60.4139 2.7043 0.240834 0
M  V30 648 C 58.8699 2.72893 -2.34644 0
M  V30 649 C 58.4779 2.35544 -3.81081 0
M  V30 650 C 60.2219 3.50791 -2.39052 0
M  V30 651 C 58.1289 3.53948 -4.73787 0
M  V30 652 H 57.0589 0.56727 -0.49671 0
M  V30 653 H 59.7099 0.827147 -1.638 0
M  V30 654 H 58.0919 3.43227 -1.97513 0
M  V30 655 H 59.2659 1.72894 -4.27135 0
M  V30 656 H 57.5809 1.70786 -3.79764 0
M  V30 657 H 60.1779 4.38823 -3.05513 0
M  V30 658 H 60.5209 3.91745 -1.40861 0
M  V30 659 H 61.0539 2.87467 -2.74968 0
M  V30 660 H 57.7929 3.18064 -5.73163 0
M  V30 661 H 57.3129 4.15651 -4.32428 0
M  V30 662 H 58.9919 4.20566 -4.91663 0
M  V30 663 N 59.124 1.23083 0.984299 0
M  V30 664 C 60.372 1.05848 1.72165 0
M  V30 665 C 60.693 -0.406049 1.90726 0
M  V30 666 O 59.963 -1.29139 1.47309 0
M  V30 667 H 58.543 0.388685 0.637913 0
M  V30 668 H 61.205 1.54736 1.18503 0
M  V30 669 H 60.301 1.54327 2.71274 0
M  V30 670 N 60.6021 -1.18246 1.0419 0
M  V30 671 C 61.5321 -2.24127 0.654914 0
M  V30 672 C 62.5131 -1.66617 -0.342451 0
M  V30 673 O 63.6981 -1.92924 -0.222277 0
M  V30 674 C 60.8281 -3.47295 0.0183757 0
M  V30 675 C 59.7821 -4.17563 0.939414 0
M  V30 676 C 59.1081 -5.34438 0.167286 0
M  V30 677 C 60.4081 -4.70917 2.25908 0
M  V30 678 H 62.1021 -2.56753 1.54007 0
M  V30 679 H 59.6481 -1.23414 0.74195 0
M  V30 680 H 61.6011 -4.20572 -0.264082 0
M  V30 681 H 60.3251 -3.13907 -0.901664 0
M  V30 682 H 58.9841 -3.46186 1.20628 0
M  V30 683 H 58.6321 -4.97298 -0.7552 0
M  V30 684 H 58.3321 -5.82388 0.780901 0
M  V30 685 H 59.8561 -6.10504 -0.108125 0
M  V30 686 H 61.2701 -5.35882 2.03724 0
M  V30 687 H 59.6671 -5.29406 2.82577 0
M  V30 688 H 60.7371 -3.88272 2.9047 0
M  V30 689 N 62.0802 -0.821533 -1.34494 0
M  V30 690 C 62.9902 -0.244355 -2.33324 0
M  V30 691 C 64.0062 0.620527 -1.62559 0
M  V30 692 O 65.1822 0.528754 -1.94335 0
M  V30 693 C 62.2472 0.585368 -3.41723 0
M  V30 694 C 61.3082 -0.301752 -4.28238 0
M  V30 695 C 60.5412 0.488466 -5.3146 0
M  V30 696 O 60.7642 1.72186 -5.4379 0
M  V30 697 O 59.6982 -0.12848 -6.01763 0
M  V30 698 H 63.5242 -1.06231 -2.84515 0
M  V30 699 H 61.1092 -0.583645 -1.37528 0
M  V30 700 H 62.9912 1.05747 -4.07916 0
M  V30 701 H 61.6662 1.38068 -2.92778 0
M  V30 702 H 60.5732 -0.821315 -3.64973 0
M  V30 703 H 61.9062 -1.06138 -4.8062 0
M  V30 704 N 63.5583 1.46682 -0.576371 0
M  V30 705 C 64.8043 2.02712 -0.0596221 0
M  V30 706 C 65.1373 1.44765 1.29448 0
M  V30 707 O 64.4123 0.610355 1.84675 0
M  V30 708 C 64.6953 3.60098 0.0129503 0
M  V30 709 C 64.5483 4.28441 -1.3696 0
M  V30 710 C 65.8673 4.34224 0.71678 0
M  V30 711 H 62.9863 0.736637 -0.0231407 0
M  V30 712 H 65.6283 1.74898 -0.742351 0
M  V30 713 H 63.7783 3.83926 0.594378 0
M  V30 714 H 65.4503 4.15896 -1.9957 0
M  V30 715 H 63.6933 3.8805 -1.93907 0
M  V30 716 H 64.3643 5.3716 -1.27135 0
M  V30 717 H 66.8403 4.15503 0.222908 0
M  V30 718 H 65.7163 5.43936 0.73657 0
M  V30 719 H 65.9773 4.04823 1.77682 0
M  V30 720 N 65.0364 0.313813 1.54444 0
M  V30 721 C 66.3134 -0.345447 1.92525 0
M  V30 722 C 66.6934 -1.70667 1.24242 0
M  V30 723 O 66.0414 -2.25273 0.382654 0
M  V30 724 C 66.2514 -0.44737 3.46121 0
M  V30 725 C 67.5994 -0.712238 4.18584 0
M  V30 726 O 68.6234 -0.530678 3.52225 0
M  V30 727 O 67.4824 -1.06183 5.36085 0
M  V30 728 H 64.5764 -0.195407 0.803583 0
M  V30 729 H 67.1224 0.362813 1.65776 0
M  V30 730 H 65.8944 0.509043 3.87975 0
M  V30 731 H 65.5174 -1.20359 3.78945 0
M  V30 732 N 66.5145 -1.57545 0.0417849 0
M  V30 733 C 67.7625 -1.91937 -0.632829 0
M  V30 734 C 68.0835 -0.919978 -1.71934 0
M  V30 735 O 67.3535 0.0366064 -1.95866 0
M  V30 736 H 65.9335 -0.708493 -0.236742 0
M  V30 737 H 68.5955 -1.9468 0.0925745 0
M  V30 738 H 67.6915 -2.92912 -1.07746 0
M  V30 739 N 67.9926 0.231505 -1.5589 0
M  V30 740 C 69.4086 0.580748 -1.48659 0
M  V30 741 C 69.6086 1.87617 -0.73498 0
M  V30 742 O 68.6646 2.51046 -0.270586 0
M  V30 743 C 69.9776 0.669202 -2.93159 0
M  V30 744 C 71.5256 0.760499 -3.03621 0
M  V30 745 C 72.0006 0.880383 -4.49459 0
M  V30 746 N 73.4916 0.944861 -4.53461 0
M  V30 747 C 74.2266 1.05716 -5.63571 0
M  V30 748 N 73.7226 1.13403 -6.83456 0
M  V30 749 N 75.5156 1.09152 -5.514 0
M  V30 750 H 67.6666 -0.618695 -2.03189 0
M  V30 751 H 69.9296 -0.215728 -0.923128 0
M  V30 752 H 69.6356 -0.212904 -3.51055 0
M  V30 753 H 69.5096 1.5361 -3.44505 0
M  V30 754 H 71.8966 1.63305 -2.45796 0
M  V30 755 H 71.9776 -0.131864 -2.5546 0
M  V30 756 H 71.6216 0.0123284 -5.07899 0
M  V30 757 H 71.5516 1.78802 -4.95316 0
M  V30 758 H 74.0426 0.896176 -3.6712 0
M  V30 759 H 74.3556 1.21921 -7.63122 0
M  V30 760 H 72.7006 1.10333 -6.86186 0
M  V30 761 H 75.8916 1.02805 -4.56671 0
M  V30 762 H 76.0646 1.17558 -6.37247 0
M  V30 763 N 69.4707 1.49531 0.497807 0
M  V30 764 C 70.8817 1.52344 1.07927 0
M  V30 765 C 71.2327 0.311469 1.93712 0
M  V30 766 O 70.3577 -0.578405 2.08527 0
M  V30 767 C 70.9527 2.76062 1.96405 0
M  V30 768 C 69.5117 2.81643 2.49709 0
M  V30 769 C 68.6587 2.46299 1.27404 0
M  V30 770 H 71.6097 1.56182 0.281576 0
M  V30 771 H 71.6307 2.56405 2.81135 0
M  V30 772 H 71.1427 3.64254 1.33943 0
M  V30 773 H 69.2437 1.97739 3.15801 0
M  V30 774 H 69.3567 3.83891 2.86643 0
M  V30 775 H 67.7207 1.98148 1.60029 0
M  V30 776 H 68.5037 3.36769 0.66645 0
M  V30 777 N 70.9488 -0.749086 1.3866 0
M  V30 778 C 71.8788 -1.8764 1.38973 0
M  V30 779 C 72.8598 -1.68178 0.255004 0
M  V30 780 O 74.0448 -1.88704 0.458754 0
M  V30 781 C 71.1748 -3.25222 1.21851 0
M  V30 782 C 70.1288 -3.59295 2.32575 0
M  V30 783 C 69.4548 -4.95663 2.00555 0
M  V30 784 C 70.7548 -3.63709 3.7485 0
M  V30 785 H 72.4488 -1.87635 2.3331 0
M  V30 786 H 69.9948 -0.901329 1.12303 0
M  V30 787 H 71.9478 -4.03746 1.20695 0
M  V30 788 H 70.6718 -3.25719 0.239775 0
M  V30 789 H 69.3308 -2.83093 2.32925 0
M  V30 790 H 68.9788 -4.92724 1.01154 0
M  V30 791 H 68.6788 -5.19429 2.74714 0
M  V30 792 H 70.2028 -5.7656 2.01024 0
M  V30 793 H 71.6168 -4.32338 3.76506 0
M  V30 794 H 70.0138 -3.98986 4.48252 0
M  V30 795 H 71.0838 -2.63834 4.06841 0
M  V30 796 N 72.4269 -1.23603 -0.977757 0
M  V30 797 C 73.3599 -0.962772 -2.06896 0
M  V30 798 C 74.3379 0.0998743 -1.62293 0
M  V30 799 O 75.5219 -0.0349421 -1.88468 0
M  V30 800 C 72.6489 -0.45095 -3.35685 0
M  V30 801 C 71.6949 -1.50061 -3.99229 0
M  V30 802 S 72.5279 -3.07884 -4.38142 0
M  V30 803 C 73.6839 -2.58378 -5.7008 0
M  V30 804 H 73.9169 -1.88677 -2.29757 0
M  V30 805 H 71.4499 -1.06876 -1.11431 0
M  V30 806 H 73.4079 -0.162261 -4.10179 0
M  V30 807 H 72.0689 0.452179 -3.10828 0
M  V30 808 H 71.2619 -1.09269 -4.92013 0
M  V30 809 H 70.8639 -1.73878 -3.31123 0
M  V30 810 H 73.1559 -2.00563 -6.47133 0
M  V30 811 H 74.0989 -3.49711 -6.15717 0
M  V30 812 H 74.5069 -1.99143 -5.28207 0
M  V30 813 N 73.905 1.17692 -1.04816 0
M  V30 814 C 75.321 1.39863 -0.768794 0
M  V30 815 C 75.521 1.91118 0.638451 0
M  V30 816 O 74.577 2.10036 1.40146 0
M  V30 817 C 75.89 2.39274 -1.82122 0
M  V30 818 C 77.438 2.52987 -1.843 0
M  V30 819 C 77.913 3.55669 -2.88555 0
M  V30 820 N 79.404 3.63183 -2.87493 0
M  V30 821 C 80.139 4.42381 -3.64811 0
M  V30 822 N 79.635 5.25125 -4.51903 0
M  V30 823 N 81.428 4.37217 -3.53267 0
M  V30 824 H 73.579 0.82752 -1.95617 0
M  V30 825 H 75.842 0.426123 -0.846831 0
M  V30 826 H 75.548 2.08678 -2.83102 0
M  V30 827 H 75.422 3.38725 -1.65967 0
M  V30 828 H 77.809 2.82896 -0.839869 0
M  V30 829 H 77.89 1.53623 -2.04532 0
M  V30 830 H 77.534 3.26499 -3.89051 0
M  V30 831 H 77.464 4.54728 -2.65575 0
M  V30 832 H 79.955 3.04103 -2.24343 0
M  V30 833 H 80.268 5.82728 -5.07591 0
M  V30 834 H 78.613 5.24519 -4.55966 0
M  V30 835 H 81.804 3.71626 -2.84625 0
M  V30 836 H 81.977 4.98696 -4.13771 0
M  V30 837 N 75.3831 0.828654 1.34056 0
M  V30 838 C 76.3461 0.259927 2.27721 0
M  V30 839 C 77.3461 -0.565478 1.50529 0
M  V30 840 O 78.5361 -0.38075 1.69988 0
M  V30 841 C 75.6681 -0.634944 3.34935 0
M  V30 842 H 76.8611 1.0863 2.79534 0
M  V30 843 H 74.4141 0.600951 1.44285 0
M  V30 844 H 75.1491 -1.48416 2.88346 0
M  V30 845 H 74.9341 -0.0444999 3.92075 0
M  V30 846 H 76.4241 -1.02648 4.04788 0
M  V30 847 N 76.8612 -1.46375 0.584142 0
M  V30 848 C 78.0912 -2.06461 0.0758195 0
M  V30 849 C 78.4992 -1.43322 -1.23512 0
M  V30 850 O 77.8422 -0.533216 -1.75791 0
M  V30 851 C 77.9042 -3.59131 -0.162773 0
M  V30 852 C 77.5682 -4.4447 1.06279 0
M  V30 853 C 78.5652 -4.80918 1.97519 0
M  V30 854 C 76.2502 -4.85584 1.28504 0
M  V30 855 C 78.2442 -5.57309 3.09331 0
M  V30 856 C 75.9312 -5.61734 2.4062 0
M  V30 857 C 76.9292 -5.9751 3.30863 0
M  V30 858 O 76.6172 -6.72121 4.41032 0
M  V30 859 H 76.3492 -0.673745 0.0551725 0
M  V30 860 H 78.9032 -1.88969 0.804984 0
M  V30 861 H 77.1332 -3.74936 -0.946565 0
M  V30 862 H 78.8222 -4.0114 -0.619782 0
M  V30 863 H 79.5882 -4.49732 1.81565 0
M  V30 864 H 75.4672 -4.57187 0.591702 0
M  V30 865 H 79.0112 -5.85152 3.79793 0
M  V30 866 H 74.9082 -5.92334 2.56537 0
M  V30 867 H 75.6762 -6.90547 4.39417 0
M  V30 868 N 78.3393 -0.321999 -1.54275 0
M  V30 869 C 79.5643 0.285791 -2.05422 0
M  V30 870 C 79.9893 1.45124 -1.19669 0
M  V30 871 O 79.3473 1.80132 -0.205441 0
M  V30 872 C 79.3953 0.69956 -3.53749 0
M  V30 873 O 78.4993 1.8021 -3.70942 0
M  V30 874 H 77.8403 0.0518962 -0.661969 0
M  V30 875 H 80.3703 -0.469954 -1.9913 0
M  V30 876 H 80.3803 0.982649 -3.9599 0
M  V30 877 H 79.0553 -0.152864 -4.15619 0
M  V30 878 H 77.6323 1.51794 -3.40607 0
M  V30 879 N 79.8174 1.5752 -0.0501392 0
M  V30 880 C 81.0664 1.91827 0.623328 0
M  V30 881 C 81.3794 0.930222 1.72065 0
M  V30 882 O 82.5854 1.1653 2.4522 0
M  V30 883 C 81.0414 3.40692 1.16003 0
M  V30 884 C 80.6494 4.479 0.0948811 0
M  V30 885 C 82.3934 3.84034 1.80881 0
M  V30 886 C 80.3004 5.87879 0.644411 0
M  V30 887 H 79.2304 0.715918 0.236596 0
M  V30 888 H 81.8814 1.83115 -0.118861 0
M  V30 889 H 80.2634 3.44405 1.9545 0
M  V30 890 H 81.4374 4.55775 -0.678675 0
M  V30 891 H 79.7524 4.13892 -0.45637 0
M  V30 892 H 82.3494 4.85984 2.22988 0
M  V30 893 H 82.6924 3.20225 2.6601 0
M  V30 894 H 83.2254 3.82833 1.0809 0
M  V30 895 H 79.9644 6.55282 -0.169229 0
M  V30 896 H 79.4844 5.83567 1.38598 0
M  V30 897 H 81.1634 6.37098 1.12763 0
M  V30 898 N 81.2955 -0.223234 1.56011 0
M  V30 899 C 82.2585 -1.26014 1.9145 0
M  V30 900 C 83.2585 -1.3989 0.792937 0
M  V30 901 O 84.4485 -1.38184 1.0607 0
M  V30 902 C 81.5805 -2.63422 2.16383 0
M  V30 903 H 82.7735 -0.95796 2.84189 0
M  V30 904 H 80.3265 -0.463576 1.49267 0
M  V30 905 H 81.0615 -2.98741 1.2619 0
M  V30 906 H 80.8465 -2.54728 2.98088 0
M  V30 907 H 82.3365 -3.38249 2.44903 0
M  V30 908 N 82.7736 -1.49793 -0.48987 0
M  V30 909 C 83.9986 -1.63836 -1.27172 0
M  V30 910 C 84.4236 -0.31402 -1.8546 0
M  V30 911 O 83.7816 0.719803 -1.66399 0
M  V30 912 C 83.8296 -2.71797 -2.36978 0
M  V30 913 O 82.9336 -2.31744 -3.41128 0
M  V30 914 H 82.2746 -0.547997 -0.37496 0
M  V30 915 H 84.8046 -1.96053 -0.585191 0
M  V30 916 H 84.8146 -2.94305 -2.82575 0
M  V30 917 H 83.4896 -3.67923 -1.93921 0
M  V30 918 H 82.0666 -2.1961 -3.01373 0
M  V30 919 N 84.2517 0.741722 -1.39055 0
M  V30 920 C 85.6627 1.31966 -1.32068 0
M  V30 921 C 86.0137 1.96192 0.0180797 0
M  V30 922 O 85.1387 1.95861 0.920196 0
M  V30 923 C 85.7337 2.39954 -2.39181 0
M  V30 924 C 84.2927 2.93438 -2.35735 0
M  V30 925 C 83.4397 1.66936 -2.21422 0
M  V30 926 H 86.3907 0.539721 -1.4924 0
M  V30 927 H 86.4117 3.20182 -2.05581 0
M  V30 928 H 85.9237 1.9318 -3.36605 0
M  V30 929 H 84.0247 3.4451 -1.41929 0
M  V30 930 H 84.1377 3.4701 -3.30335 0
M  V30 931 H 82.5017 1.91016 -1.68478 0
M  V30 932 H 83.2847 1.22224 -3.20806 0
M  V30 933 N 85.7298 1.2412 0.971189 0
M  V30 934 C 86.6778 1.02812 2.08644 0
M  V30 935 C 87.6718 -0.0358403 1.69362 0
M  V30 936 O 88.8778 0.118429 1.7961 0
M  V30 937 H 85.2528 0.315428 0.682649 0
M  V30 938 H 87.2238 1.97397 2.23779 0
M  V30 939 C 85.9728 0.645874 3.41649 0
M  V30 940 H 85.2958 1.45632 3.72332 0
M  V30 941 H 86.7358 0.536366 4.20594 0
M  V30 942 C 85.1948 -0.646713 3.30635 0
M  V30 943 O 85.7248 -1.69338 3.64263 0
M  V30 944 N 83.9308 -0.626115 2.83775 0
M  V30 945 H 83.4778 0.225988 2.56607 0
M  V30 946 H 83.4358 -1.49117 2.76788 0
M  V30 947 N 87.2079 -1.17134 1.05439 0
M  V30 948 C 88.4379 -1.91094 0.785274 0
M  V30 949 C 88.8459 -1.77198 -0.663142 0
M  V30 950 O 88.1889 -1.10835 -1.46497 0
M  V30 951 C 88.2509 -3.42594 1.08949 0
M  V30 952 C 87.9149 -3.80274 2.53458 0
M  V30 953 C 88.9119 -3.82912 3.51673 0
M  V30 954 C 86.5969 -4.11162 2.88532 0
M  V30 955 C 88.5909 -4.15913 4.83006 0
M  V30 956 C 86.2779 -4.43831 4.20068 0
M  V30 957 C 87.2759 -4.46185 5.17115 0
M  V30 958 O 86.9639 -4.78083 6.46291 0
M  V30 959 H 86.6959 -0.613073 0.284811 0
M  V30 960 H 89.2499 -1.49461 1.40893 0
M  V30 961 H 87.4799 -3.84534 0.408741 0
M  V30 962 H 89.1689 -3.97817 0.805991 0
M  V30 963 H 89.9349 -3.5917 3.25917 0
M  V30 964 H 85.8139 -4.085 2.13656 0
M  V30 965 H 89.3579 -4.17665 5.5875 0
M  V30 966 H 85.2549 -4.67037 4.45586 0
M  V30 967 H 86.0229 -4.9593 6.51149 0
M  V30 968 N 88.686 -0.835752 -1.33615 0
M  V30 969 C 89.596 -0.269088 -2.33052 0
M  V30 970 C 90.612 0.603251 -1.63208 0
M  V30 971 O 91.788 0.508112 -1.94885 0
M  V30 972 C 88.853 0.549091 -3.42324 0
M  V30 973 C 87.914 -0.347156 -4.27894 0
M  V30 974 C 87.147 0.43207 -5.31948 0
M  V30 975 O 87.37 1.66409 -5.45586 0
M  V30 976 O 86.304 -0.192298 -6.01593 0
M  V30 977 H 90.13 -1.09243 -2.83372 0
M  V30 978 H 87.715 -0.598198 -1.36901 0
M  V30 979 H 89.597 1.01414 -4.09015 0
M  V30 980 H 88.272 1.34955 -2.94226 0
M  V30 981 H 87.179 -0.859979 -3.64081 0
M  V30 982 H 88.512 -1.1123 -4.79467 0
M  V30 983 N 90.1641 1.46063 -0.591896 0
M  V30 984 C 91.0741 2.34192 0.13831 0
M  V30 985 C 92.0901 1.50305 0.876608 0
M  V30 986 O 93.2661 1.8315 0.837728 0
M  V30 987 C 90.3311 3.27656 1.13326 0
M  V30 988 C 89.3921 4.27445 0.39863 0
M  V30 989 C 88.6251 5.16443 1.34618 0
M  V30 990 O 88.8481 5.08553 2.58321 0
M  V30 991 O 87.7821 5.95843 0.851768 0
M  V30 992 H 91.6081 2.98002 -0.58552 0
M  V30 993 H 89.1931 1.45188 -0.352239 0
M  V30 994 H 91.0751 3.85291 1.70671 0
M  V30 995 H 89.7501 2.6643 1.83839 0
M  V30 996 H 88.6571 3.73471 -0.216895 0
M  V30 997 H 89.9901 4.91482 -0.265709 0
M  V30 998 N 91.6422 0.330177 1.54103 0
M  V30 999 C 92.5922 -0.548456 2.21305 0
M  V30 1000 C 93.5762 -1.07651 1.19583 0
M  V30 1001 O 94.7682 -1.01243 1.45186 0
M  V30 1002 C 91.8972 -1.70559 2.97934 0
M  V30 1003 C 90.9832 -1.19212 4.07 0
M  V30 1004 N 91.3742 -0.398831 5.04225 0
M  V30 1005 C 89.6722 -1.47024 4.2107 0
M  V30 1006 C 90.3732 -0.121761 5.81573 0
M  V30 1007 N 89.3492 -0.709722 5.38947 0
M  V30 1008 H 93.1512 0.0648483 2.93828 0
M  V30 1009 H 90.6652 0.136363 1.61826 0
M  V30 1010 H 92.6622 -2.34688 3.44568 0
M  V30 1011 H 91.3222 -2.32231 2.26934 0
M  V30 1012 H 92.3332 -0.0410869 5.17884 0
M  V30 1013 H 89.0102 -2.09232 3.61287 0
M  V30 1014 H 90.4002 0.517298 6.69906 0
M  V30 1015 N 93.1203 -1.57491 0.0584922 0
M  V30 1016 C 94.0503 -2.14988 -0.911178 0
M  V30 1017 C 95.0313 -1.07343 -1.31952 0
M  V30 1018 O 96.2163 -1.35318 -1.39294 0
M  V30 1019 C 93.3463 -2.70078 -2.18347 0
M  V30 1020 C 92.3003 -3.82771 -1.91495 0
M  V30 1021 C 91.6263 -4.24408 -3.25241 0
M  V30 1022 C 92.9263 -5.07592 -1.23075 0
M  V30 1023 H 94.6203 -2.96263 -0.432246 0
M  V30 1024 H 92.1663 -1.42512 -0.206469 0
M  V30 1025 H 94.1193 -3.08943 -2.86587 0
M  V30 1026 H 92.8433 -1.86005 -2.68458 0
M  V30 1027 H 91.5023 -3.44389 -1.25664 0
M  V30 1028 H 91.1503 -3.37275 -3.73168 0
M  V30 1029 H 90.8503 -5.00366 -3.08071 0
M  V30 1030 H 92.3743 -4.65879 -3.94701 0
M  V30 1031 H 93.7883 -5.43857 -1.81362 0
M  V30 1032 H 92.1853 -5.88741 -1.16207 0
M  V30 1033 H 93.2553 -4.84454 -0.207847 0
M  V30 1034 N 94.5984 0.214957 -1.56127 0
M  V30 1035 C 95.5084 1.28727 -1.96129 0
M  V30 1036 C 96.5244 1.50916 -0.866044 0
M  V30 1037 O 97.7004 1.63918 -1.17016 0
M  V30 1038 C 94.7654 2.61569 -2.27558 0
M  V30 1039 C 93.8264 2.47625 -3.50685 0
M  V30 1040 C 93.0594 3.74132 -3.80606 0
M  V30 1041 O 93.2824 4.77438 -3.12104 0
M  V30 1042 O 92.2164 3.70849 -4.74083 0
M  V30 1043 H 96.0424 0.977855 -2.87527 0
M  V30 1044 H 93.6274 0.418358 -1.43423 0
M  V30 1045 H 95.5094 3.40012 -2.48938 0
M  V30 1046 H 94.1844 2.92178 -1.39332 0
M  V30 1047 H 93.0914 1.67361 -3.34576 0
M  V30 1048 H 94.4244 2.21954 -4.39315 0
M  V30 1049 N 96.0765 1.50051 0.48192 0
M  V30 1050 C 97.3235 1.60498 1.23477 0
M  V30 1051 C 97.6515 0.300331 1.92167 0
M  V30 1052 O 96.9065 -0.713094 1.82246 0
M  V30 1053 C 97.2055 2.72717 2.30998 0
M  V30 1054 C 96.8715 4.13572 1.79636 0
M  V30 1055 C 95.5335 4.519 1.65348 0
M  V30 1056 C 97.8855 5.01649 1.41412 0
M  V30 1057 C 95.2135 5.76057 1.11244 0
M  V30 1058 C 97.5655 6.26343 0.887538 0
M  V30 1059 C 96.2295 6.63483 0.731207 0
M  V30 1060 H 95.4995 0.587303 0.451836 0
M  V30 1061 H 98.1465 1.83948 0.532468 0
M  V30 1062 H 96.4515 2.43312 3.07094 0
M  V30 1063 H 98.1485 2.78006 2.88988 0
M  V30 1064 H 94.7385 3.83329 1.91721 0
M  V30 1065 H 98.9225 4.72679 1.51289 0
M  V30 1066 H 94.1785 6.03516 0.978686 0
M  V30 1067 H 98.3525 6.93958 0.582654 0
M  V30 1068 H 95.9795 7.59568 0.309806 0
M  V30 1069 N 97.5546 -0.734337 1.39446 0
M  V30 1070 C 98.8016 -1.49391 1.36706 0
M  V30 1071 C 99.1296 -1.94465 -0.0367813 0
M  V30 1072 O 98.3846 -1.67154 -1.01774 0
M  V30 1073 C 98.6836 -2.74711 2.28623 0
M  V30 1074 C 98.3496 -2.48501 3.76242 0
M  V30 1075 C 97.0116 -2.41062 4.16464 0
M  V30 1076 C 99.3636 -2.26098 4.69606 0
M  V30 1077 C 96.6916 -2.09262 5.48112 0
M  V30 1078 C 99.0436 -1.95814 6.01531 0
M  V30 1079 C 97.7076 -1.86845 6.40816 0
M  V30 1080 H 96.9776 -0.546661 0.500243 0
M  V30 1081 H 99.6246 -0.842788 1.71957 0
M  V30 1082 H 97.9296 -3.44569 1.86492 0
M  V30 1083 H 99.6266 -3.32741 2.23796 0
M  V30 1084 H 96.2166 -2.55169 3.44364 0
M  V30 1085 H 100.401 -2.30812 4.39363 0
M  V30 1086 H 95.6566 -2.00841 5.77471 0
M  V30 1087 H 99.8306 -1.77488 6.73403 0
M  V30 1088 H 97.4576 -1.6197 7.42745 0
M  V30 1089 N 99.0327 -1.24633 -0.964593 0
M  V30 1090 C 100.258 -1.11596 -1.74818 0
M  V30 1091 C 100.683 0.32723 -1.85232 0
M  V30 1092 O 100.041 1.23695 -1.32549 0
M  V30 1093 C 100.089 -1.76397 -3.1451 0
M  V30 1094 O 99.1927 -1.03685 -3.99153 0
M  V30 1095 H 98.5337 -0.390196 -0.537255 0
M  V30 1096 H 101.064 -1.65002 -1.20977 0
M  V30 1097 H 101.074 -1.8228 -3.65018 0
M  V30 1098 H 99.7487 -2.81401 -3.06246 0
M  V30 1099 H 98.3257 -1.05611 -3.57632 0
M  V30 1100 N 100.511 1.16574 -1.06058 0
M  V30 1101 C 101.76 1.86385 -0.770944 0
M  V30 1102 C 102.073 1.82448 0.705129 0
M  V30 1103 O 103.279 2.47815 1.10905 0
M  V30 1104 C 101.735 3.34466 -1.32893 0
M  V30 1105 C 101.343 3.46883 -2.83507 0
M  V30 1106 C 103.087 4.09548 -1.11672 0
M  V30 1107 C 100.994 4.89036 -3.32562 0
M  V30 1108 H 99.9238 0.698181 -0.284709 0
M  V30 1109 H 102.575 1.31583 -1.27899 0
M  V30 1110 H 100.957 3.88859 -0.748662 0
M  V30 1111 H 102.131 3.02663 -3.47465 0
M  V30 1112 H 100.446 2.85232 -3.03368 0
M  V30 1113 H 103.043 5.14434 -1.45814 0
M  V30 1114 H 103.386 4.16264 -0.0549535 0
M  V30 1115 H 103.919 3.61387 -1.66265 0
M  V30 1116 H 100.658 4.87499 -4.38207 0
M  V30 1117 H 100.178 5.3389 -2.73351 0
M  V30 1118 H 101.857 5.57843 -3.2775 0
M  V30 1119 N 101.989 0.842826 1.3317 0
M  V30 1120 C 102.936 0.276885 2.29133 0
M  V30 1121 C 103.906 -0.609527 1.54512 0
M  V30 1122 O 105.091 -0.546955 1.82792 0
M  V30 1123 C 102.231 -0.538707 3.40869 0
M  V30 1124 C 101.344 0.372169 4.30394 0
M  V30 1125 C 100.479 -0.454908 5.29249 0
M  V30 1126 C 99.5179 0.45411 6.10413 0
M  V30 1127 N 98.6549 -0.335075 7.013 0
M  V30 1128 H 103.495 1.10052 2.76934 0
M  V30 1129 H 101.032 0.554161 1.36262 0
M  V30 1130 H 102.99 -1.02709 4.0436 0
M  V30 1131 H 101.62 -1.32727 2.9425 0
M  V30 1132 H 100.672 0.97888 3.6759 0
M  V30 1133 H 101.984 1.0703 4.87182 0
M  V30 1134 H 101.138 -1.00695 5.98285 0
M  V30 1135 H 99.8769 -1.18646 4.73048 0
M  V30 1136 H 98.8819 1.01813 5.40291 0
M  V30 1137 H 100.107 1.18409 6.68697 0
M  V30 1138 H 98.0529 -1.04994 6.47543 0
M  V30 1139 H 97.9699 0.304262 7.55387 0
M  V30 1140 H 99.2379 -0.869224 7.74638 0
M  V30 1141 N 103.467 -1.45747 0.599634 0
M  V30 1142 C 104.713 -2.02592 0.0918643 0
M  V30 1143 C 105.046 -1.46806 -1.27128 0
M  V30 1144 O 104.321 -0.639658 -1.83681 0
M  V30 1145 C 104.604 -3.60073 0.0443398 0
M  V30 1146 C 104.457 -4.26208 1.43759 0
M  V30 1147 C 105.776 -4.35309 -0.647608 0
M  V30 1148 H 102.895 -0.736175 0.034857 0
M  V30 1149 H 105.537 -1.73694 0.770081 0
M  V30 1150 H 103.687 -3.84823 -0.533224 0
M  V30 1151 H 105.359 -4.12668 2.06162 0
M  V30 1152 H 103.602 -3.84916 2.00056 0
M  V30 1153 H 104.273 -5.35069 1.35665 0
M  V30 1154 H 106.749 -4.15805 -0.156776 0
M  V30 1155 H 105.625 -5.45038 -0.649942 0
M  V30 1156 H 105.886 -4.07598 -1.71219 0
M  V30 1157 N 104.945 -0.338344 -1.53925 0
M  V30 1158 C 105.877 0.555117 -2.22376 0
M  V30 1159 C 106.89 1.06812 -1.22862 0
M  V30 1160 O 108.079 0.979163 -1.49247 0
M  V30 1161 C 105.179 1.77609 -2.88631 0
M  V30 1162 C 104.352 1.39927 -4.14414 0
M  V30 1163 C 103.411 2.47936 -4.64127 0
M  V30 1164 O 102.437 2.11461 -5.28463 0
M  V30 1165 N 103.639 3.79107 -4.39612 0
M  V30 1166 H 106.404 -0.0310778 -2.99684 0
M  V30 1167 H 103.965 -0.162226 -1.61085 0
M  V30 1168 H 105.957 2.49287 -3.18807 0
M  V30 1169 H 104.527 2.26978 -2.14941 0
M  V30 1170 H 103.747 0.513481 -3.90841 0
M  V30 1171 H 105.035 1.12341 -4.96243 0
M  V30 1172 H 104.433 4.11531 -3.88148 0
M  V30 1173 H 102.99 4.4697 -4.74406 0
M  V30 1174 N 106.423 1.57458 -0.0668435 0
M  V30 1175 C 107.371 2.13639 0.919851 0
M  V30 1176 C 108.365 1.07204 1.31163 0
M  V30 1177 O 109.571 1.25591 1.28945 0
M  V30 1178 H 105.946 0.683048 0.314562 0
M  V30 1179 H 107.917 2.95415 0.421047 0
M  V30 1180 C 106.666 2.70892 2.17975 0
M  V30 1181 H 105.989 3.5246 1.88711 0
M  V30 1182 H 107.429 3.13803 2.85138 0
M  V30 1183 C 105.888 1.65414 2.93496 0
M  V30 1184 O 106.418 1.07619 3.87015 0
M  V30 1185 N 104.624 1.36564 2.56512 0
M  V30 1186 H 104.171 1.83751 1.80536 0
M  V30 1187 H 104.129 0.66223 3.07347 0
M  V30 1188 N 107.901 -0.206675 1.56239 0
M  V30 1189 C 109.149 -0.927007 1.79586 0
M  V30 1190 C 109.47 -1.8427 0.637929 0
M  V30 1191 O 108.74 -1.92849 -0.344398 0
M  V30 1192 H 107.32 -0.345292 0.662407 0
M  V30 1193 H 109.982 -0.21496 1.93711 0
M  V30 1194 H 109.078 -1.52501 2.72305 0
M  V30 1195 N 109.379 -1.50304 -0.473955 0
M  V30 1196 C 110.79 -1.54042 -1.0549 0
M  V30 1197 C 111.141 -0.342248 -1.93192 0
M  V30 1198 O 110.266 0.545157 -2.09421 0
M  V30 1199 C 110.861 -2.79152 -1.91989 0
M  V30 1200 C 109.42 -2.8558 -2.45196 0
M  V30 1201 C 108.567 -2.48295 -1.2347 0
M  V30 1202 H 111.518 -1.5661 -0.256693 0
M  V30 1203 H 111.539 -2.60845 -2.7702 0
M  V30 1204 H 111.051 -3.66339 -1.28131 0
M  V30 1205 H 109.152 -2.02738 -3.12615 0
M  V30 1206 H 109.265 -3.88403 -2.80499 0
M  V30 1207 H 107.629 -2.00669 -1.56856 0
M  V30 1208 H 108.412 -3.37787 -0.612789 0
M  V30 1209 N 110.857 0.726932 -1.39834 0
M  V30 1210 C 111.787 1.85405 -1.41941 0
M  V30 1211 C 112.768 1.67751 -0.281728 0
M  V30 1212 O 113.953 1.8795 -0.488717 0
M  V30 1213 C 111.083 3.23243 -1.2701 0
M  V30 1214 C 110.037 3.55549 -2.38262 0
M  V30 1215 C 109.363 4.9241 -2.08415 0
M  V30 1216 C 110.663 3.577 -3.80589 0
M  V30 1217 H 112.357 1.83899 -2.36266 0
M  V30 1218 H 109.903 0.883349 -1.13723 0
M  V30 1219 H 111.856 4.01775 -1.27103 0
M  V30 1220 H 110.58 3.25296 -0.291564 0
M  V30 1221 H 109.239 2.79351 -2.37399 0
M  V30 1222 H 108.887 4.91052 -1.0898 0
M  V30 1223 H 108.587 5.14992 -2.82943 0
M  V30 1224 H 110.111 5.73289 -2.10171 0
M  V30 1225 H 111.525 4.26293 -3.83337 0
M  V30 1226 H 109.922 3.91804 -4.54543 0
M  V30 1227 H 110.992 2.57328 -4.10987 0
M  V30 1228 N 112.336 1.25143 0.95797 0
M  V30 1229 C 113.564 1.12424 1.73691 0
M  V30 1230 C 113.979 -0.322304 1.86029 0
M  V30 1231 O 113.336 -1.22186 1.35561 0
M  V30 1232 C 113.387 1.76933 3.15241 0
M  V30 1233 O 113.108 3.15932 3.03511 0
M  V30 1234 C 114.609 1.6995 4.09429 0
M  V30 1235 H 111.829 0.3923 0.544373 0
M  V30 1236 H 114.373 1.6544 1.20207 0
M  V30 1237 H 112.528 1.27895 3.6568 0
M  V30 1238 H 112.942 3.47598 3.9278 0
M  V30 1239 H 114.416 2.19753 5.06372 0
M  V30 1240 H 114.893 0.662619 4.34173 0
M  V30 1241 H 115.499 2.18461 3.64904 0
M  V30 1242 N 113.814 -1.1601 1.06675 0
M  V30 1243 C 115.039 -1.91068 0.806706 0
M  V30 1244 C 115.464 -1.77112 -0.633485 0
M  V30 1245 O 114.822 -1.09908 -1.44187 0
M  V30 1246 C 114.87 -3.39655 1.21106 0
M  V30 1247 O 113.974 -4.10893 0.352189 0
M  V30 1248 H 113.315 -0.595125 0.294486 0
M  V30 1249 H 115.845 -1.46955 1.42356 0
M  V30 1250 H 115.855 -3.90434 1.18428 0
M  V30 1251 H 114.53 -3.49132 2.26008 0
M  V30 1252 H 113.107 -3.70285 0.440868 0
M  V30 1253 N 115.292 -0.849877 -1.32721 0
M  V30 1254 C 116.708 -0.539102 -1.50219 0
M  V30 1255 C 116.908 0.931271 -1.78689 0
M  V30 1256 O 115.964 1.71455 -1.85363 0
M  V30 1257 C 117.277 -1.42196 -2.64954 0
M  V30 1258 C 118.825 -1.42189 -2.78839 0
M  V30 1259 C 119.3 -2.28985 -3.96648 0
M  V30 1260 N 120.791 -2.26754 -4.03902 0
M  V30 1261 C 121.526 -2.90644 -4.94281 0
M  V30 1262 N 121.022 -3.63629 -5.897 0
M  V30 1263 N 122.815 -2.80057 -4.87365 0
M  V30 1264 H 114.966 -1.80156 -1.12506 0
M  V30 1265 H 117.229 -0.769217 -0.554085 0
M  V30 1266 H 116.935 -2.46733 -2.50631 0
M  V30 1267 H 116.809 -1.10591 -3.60624 0
M  V30 1268 H 119.196 -0.38419 -2.92588 0
M  V30 1269 H 119.277 -1.77807 -1.83898 0
M  V30 1270 H 118.921 -3.32819 -3.83658 0
M  V30 1271 H 118.851 -1.90702 -4.90857 0
M  V30 1272 H 121.342 -1.73688 -3.3562 0
M  V30 1273 H 121.655 -4.09558 -6.55349 0
M  V30 1274 H 120 -3.67737 -5.89741 0
M  V30 1275 H 123.191 -2.22593 -4.11789 0
M  V30 1276 H 123.364 -3.30132 -5.57599 0
M  V30 1277 N 116.77 1.45427 -0.607355 0
M  V30 1278 C 117.7 2.3329 0.0989352 0
M  V30 1279 C 118.681 1.46816 0.859007 0
M  V30 1280 O 119.866 1.75588 0.829604 0
M  V30 1281 C 116.996 3.29518 1.09705 0
M  V30 1282 C 115.95 4.25626 0.450206 0
M  V30 1283 C 115.276 5.11542 1.55655 0
M  V30 1284 C 116.576 5.18505 -0.628455 0
M  V30 1285 H 118.27 2.92595 -0.634716 0
M  V30 1286 H 115.816 1.40696 -0.306681 0
M  V30 1287 H 117.769 3.89855 1.59971 0
M  V30 1288 H 116.493 2.68372 1.86129 0
M  V30 1289 H 115.152 3.66586 -0.0315886 0
M  V30 1290 H 114.8 4.46765 2.31107 0
M  V30 1291 H 114.5 5.76647 1.12925 0
M  V30 1292 H 116.024 5.74748 2.06148 0
M  V30 1293 H 117.438 5.72916 -0.209877 0
M  V30 1294 H 115.835 5.92085 -0.977489 0
M  V30 1295 H 116.905 4.60948 -1.50514 0
M  V30 1296 N 118.248 0.346503 1.53744 0
M  V30 1297 C 119.18 -0.543316 2.22667 0
M  V30 1298 C 120.193 -1.06159 1.23427 0
M  V30 1299 O 121.382 -0.971235 1.49764 0
M  V30 1300 C 118.482 -1.76076 2.89569 0
M  V30 1301 C 117.655 -1.37727 4.15151 0
M  V30 1302 C 116.714 -2.45471 4.65436 0
M  V30 1303 O 115.74 -2.08655 5.29577 0
M  V30 1304 N 116.942 -3.7677 4.41616 0
M  V30 1305 H 119.707 0.0469703 2.99663 0
M  V30 1306 H 117.268 0.170766 1.60997 0
M  V30 1307 H 119.26 -2.47593 3.20125 0
M  V30 1308 H 117.83 -2.25835 2.16142 0
M  V30 1309 H 117.05 -0.492746 3.91108 0
M  V30 1310 H 118.338 -1.09708 4.96832 0
M  V30 1311 H 117.736 -4.09467 3.90325 0
M  V30 1312 H 116.293 -4.44448 4.7677 0
M  V30 1313 N 119.726 -1.57421 0.075193 0
M  V30 1314 C 120.676 -2.09441 -0.901025 0
M  V30 1315 C 121.66 -1.00486 -1.25663 0
M  V30 1316 O 122.852 -1.2679 -1.23504 0
M  V30 1317 C 119.981 -2.66233 -2.16737 0
M  V30 1318 C 119.067 -3.82198 -1.83808 0
M  V30 1319 N 119.458 -4.91028 -1.21345 0
M  V30 1320 C 117.756 -3.91558 -2.13538 0
M  V30 1321 C 118.457 -5.71852 -1.06585 0
M  V30 1322 N 117.433 -5.20233 -1.57667 0
M  V30 1323 H 121.235 -2.90972 -0.413815 0
M  V30 1324 H 118.749 -1.6189 -0.128601 0
M  V30 1325 H 120.746 -3.01819 -2.87595 0
M  V30 1326 H 119.406 -1.8615 -2.66042 0
M  V30 1327 H 120.417 -5.10323 -0.88268 0
M  V30 1328 H 117.094 -3.22454 -2.65197 0
M  V30 1329 H 118.484 -6.69401 -0.578933 0
M  V30 1330 N 121.204 0.198386 -1.56346 0
M  V30 1331 C 122.134 1.24865 -1.9731 0
M  V30 1332 C 123.115 1.47651 -0.844576 0
M  V30 1333 O 124.3 1.59444 -1.10866 0
M  V30 1334 C 121.43 2.59358 -2.30977 0
M  V30 1335 C 120.384 2.5119 -3.46537 0
M  V30 1336 C 119.71 3.89926 -3.65871 0
M  V30 1337 C 121.01 2.03977 -4.80823 0
M  V30 1338 H 122.704 0.908252 -2.85291 0
M  V30 1339 H 120.25 0.435462 -1.37258 0
M  V30 1340 H 122.203 3.33011 -2.58228 0
M  V30 1341 H 120.927 2.95132 -1.39874 0
M  V30 1342 H 119.586 1.79993 -3.19371 0
M  V30 1343 H 119.234 4.23046 -2.72105 0
M  V30 1344 H 118.934 3.85336 -4.4361 0
M  V30 1345 H 120.458 4.65205 -3.95495 0
M  V30 1346 H 121.872 2.67386 -5.07127 0
M  V30 1347 H 120.269 2.10397 -5.62008 0
M  V30 1348 H 121.339 0.992861 -4.74626 0
M  V30 1349 N 122.682 1.50554 0.465978 0
M  V30 1350 C 123.629 1.6979 1.56333 0
M  V30 1351 C 124.599 0.539239 1.57103 0
M  V30 1352 O 125.784 0.770401 1.74555 0
M  V30 1353 C 122.924 1.80273 2.94271 0
M  V30 1354 C 122.037 3.07674 3.0325 0
M  V30 1355 C 121.172 3.08922 4.32135 0
M  V30 1356 C 120.211 4.30755 4.34875 0
M  V30 1357 N 119.348 4.29714 5.55239 0
M  V30 1358 H 124.188 2.63472 1.39235 0
M  V30 1359 H 121.725 1.30602 0.676873 0
M  V30 1360 H 123.683 1.84332 3.74269 0
M  V30 1361 H 122.313 0.900258 3.09992 0
M  V30 1362 H 121.365 3.13062 2.16094 0
M  V30 1363 H 122.677 3.97642 3.01135 0
M  V30 1364 H 121.831 3.11738 5.20485 0
M  V30 1365 H 120.57 2.16792 4.36866 0
M  V30 1366 H 119.575 4.28146 3.44922 0
M  V30 1367 H 120.8 5.24117 4.31831 0
M  V30 1368 H 118.746 3.4044 5.60746 0
M  V30 1369 H 118.663 5.13456 5.54886 0
M  V30 1370 H 119.931 4.36683 6.457 0
M  V30 1371 N 124.16 -0.719506 1.40217 0
M  V30 1372 C 125.07 -1.86378 1.42479 0
M  V30 1373 C 126.086 -1.71073 0.317834 0
M  V30 1374 O 127.262 -1.93406 0.561794 0
M  V30 1375 C 124.327 -3.22136 1.28178 0
M  V30 1376 C 123.388 -3.49723 2.48982 0
M  V30 1377 C 122.621 -4.79004 2.35353 0
M  V30 1378 O 122.844 -5.53821 1.36524 0
M  V30 1379 O 121.778 -5.06839 3.2465 0
M  V30 1380 H 125.604 -1.87425 2.38968 0
M  V30 1381 H 123.189 -0.869405 1.21498 0
M  V30 1382 H 125.071 -4.03234 1.22395 0
M  V30 1383 H 123.746 -3.21825 0.347934 0
M  V30 1384 H 122.653 -2.6865 2.60342 0
M  V30 1385 H 123.986 -3.54828 3.41113 0
M  V30 1386 N 125.638 -1.25649 -0.95132 0
M  V30 1387 C 126.886 -1.10375 -1.69298 0
M  V30 1388 C 127.207 0.355339 -1.91735 0
M  V30 1389 O 126.477 1.25188 -1.50681 0
M  V30 1390 H 125.057 -0.405461 -0.627384 0
M  V30 1391 H 127.719 -1.57823 -1.14358 0
M  V30 1392 H 126.815 -1.61465 -2.67087 0
M  V30 1393 N 127.117 1.15442 -1.07289 0
M  V30 1394 C 128.394 1.82306 -0.708792 0
M  V30 1395 C 128.774 1.94991 0.808807 0
M  V30 1396 O 128.122 1.50085 1.72298 0
M  V30 1397 C 128.332 3.18695 -1.42247 0
M  V30 1398 C 129.68 3.94341 -1.57417 0
M  V30 1399 O 130.704 3.28247 -1.38319 0
M  V30 1400 O 129.563 5.12839 -1.88834 0
M  V30 1401 H 126.657 0.787628 -0.252132 0
M  V30 1402 H 129.203 1.22559 -1.17377 0
M  V30 1403 H 127.975 3.04557 -2.45684 0
M  V30 1404 H 127.598 3.86128 -0.948223 0
M  V30 1405 N 128.595 0.856903 1.32268 0
M  V30 1406 C 129.505 0.306131 2.32594 0
M  V30 1407 C 130.521 -0.577209 1.64147 0
M  V30 1408 O 131.697 -0.477043 1.95669 0
M  V30 1409 C 128.762 -0.494561 3.43154 0
M  V30 1410 C 127.823 0.415186 4.27288 0
M  V30 1411 C 127.056 -0.347387 5.32568 0
M  V30 1412 O 127.279 -1.57708 5.48165 0
M  V30 1413 O 126.213 0.287982 6.01211 0
M  V30 1414 H 130.039 1.13737 2.81598 0
M  V30 1415 H 127.624 0.619902 1.35932 0
M  V30 1416 H 129.506 -0.948944 4.10576 0
M  V30 1417 H 128.181 -1.30257 2.96336 0
M  V30 1418 H 127.088 0.917793 3.62667 0
M  V30 1419 H 128.421 1.18844 4.77637 0
M  V30 1420 N 130.073 -1.45103 0.615059 0
M  V30 1421 C 131.003 -2.33339 -0.0865619 0
M  V30 1422 C 131.984 -1.4727 -0.851209 0
M  V30 1423 O 133.169 -1.76026 -0.820281 0
M  V30 1424 C 130.299 -3.30095 -1.07956 0
M  V30 1425 C 129.253 -4.25858 -0.427628 0
M  V30 1426 C 128.579 -5.12361 -1.5294 0
M  V30 1427 C 129.879 -5.18165 0.655944 0
M  V30 1428 H 131.573 -2.92254 0.650224 0
M  V30 1429 H 129.119 -1.40532 0.314138 0
M  V30 1430 H 131.072 -3.90698 -1.57901 0
M  V30 1431 H 129.796 -2.69355 -1.84703 0
M  V30 1432 H 128.455 -3.66564 0.0510292 0
M  V30 1433 H 128.103 -4.47984 -2.28734 0
M  V30 1434 H 127.803 -5.77238 -1.09865 0
M  V30 1435 H 129.327 -5.75833 -2.03098 0
M  V30 1436 H 130.741 -5.72796 0.240257 0
M  V30 1437 H 129.138 -5.91559 1.00888 0
M  V30 1438 H 130.208 -4.60144 1.52957 0
M  V30 1439 N 131.551 -0.354651 -1.53558 0
M  V30 1440 C 132.484 0.540273 -2.21712 0
M  V30 1441 C 133.462 1.09161 -1.2051 0
M  V30 1442 O 134.646 1.14979 -1.49372 0
M  V30 1443 C 131.773 1.74435 -2.90328 0
M  V30 1444 C 130.819 1.32146 -4.05512 0
M  V30 1445 S 131.652 0.331924 -5.3447 0
M  V30 1446 C 132.808 1.54258 -6.06593 0
M  V30 1447 H 133.041 -0.0385776 -2.97275 0
M  V30 1448 H 130.574 -0.138736 -1.53775 0
M  V30 1449 H 132.532 2.43507 -3.30476 0
M  V30 1450 H 131.193 2.29444 -2.1451 0
M  V30 1451 H 130.386 2.21952 -4.52497 0
M  V30 1452 H 129.988 0.710091 -3.67197 0
M  V30 1453 H 132.28 2.47534 -6.30661 0
M  V30 1454 H 133.223 1.11431 -6.99277 0
M  V30 1455 H 133.631 1.74367 -5.36895 0
M  V30 1456 N 133.029 1.57378 -0.0835403 0
M  V30 1457 C 134.275 1.94217 0.583733 0
M  V30 1458 C 134.608 0.964653 1.68547 0
M  V30 1459 O 133.883 -0.00422258 1.945 0
M  V30 1460 C 134.166 3.41253 1.14972 0
M  V30 1461 C 134.019 4.49768 0.0538277 0
M  V30 1462 C 135.338 3.89352 2.05166 0
M  V30 1463 H 132.457 0.706233 0.210724 0
M  V30 1464 H 135.099 1.89392 -0.1519 0
M  V30 1465 H 133.249 3.45496 1.77665 0
M  V30 1466 H 134.921 4.57641 -0.579851 0
M  V30 1467 H 133.164 4.29432 -0.614068 0
M  V30 1468 H 133.835 5.49817 0.490452 0
M  V30 1469 H 136.311 3.87189 1.52393 0
M  V30 1470 H 135.187 4.92822 2.41698 0
M  V30 1471 H 135.448 3.27973 2.96456 0
M  V30 1472 N 134.507 -0.190092 1.56449 0
M  V30 1473 C 135.732 -0.929864 1.85387 0
M  V30 1474 C 136.157 -1.7585 0.667704 0
M  V30 1475 O 135.515 -1.77198 -0.383459 0
M  V30 1476 C 135.563 -1.79773 3.12593 0
M  V30 1477 O 134.667 -2.89713 2.93496 0
M  V30 1478 H 134.008 -0.261574 0.610307 0
M  V30 1479 H 136.538 -0.193896 2.03679 0
M  V30 1480 H 136.548 -2.20139 3.43515 0
M  V30 1481 H 135.223 -1.18892 3.98544 0
M  V30 1482 H 133.8 -2.53065 2.73884 0
M  V30 1483 N 135.985 -1.50799 -0.457987 0
M  V30 1484 C 137.401 -1.38515 -0.792819 0
M  V30 1485 C 137.601 -0.451409 -1.96379 0
M  V30 1486 O 136.657 0.10112 -2.52297 0
M  V30 1487 C 137.97 -2.80149 -1.09258 0
M  V30 1488 C 139.518 -2.89156 -1.19825 0
M  V30 1489 C 139.993 -4.31651 -1.53106 0
M  V30 1490 N 141.484 -4.34662 -1.60072 0
M  V30 1491 C 142.219 -5.41928 -1.87354 0
M  V30 1492 N 141.715 -6.59384 -2.12568 0
M  V30 1493 N 143.508 -5.29385 -1.88965 0
M  V30 1494 H 135.659 -2.10073 0.313511 0
M  V30 1495 H 137.922 -0.944803 0.0777862 0
M  V30 1496 H 137.628 -3.50374 -0.305084 0
M  V30 1497 H 137.502 -3.18204 -2.02549 0
M  V30 1498 H 139.889 -2.19141 -1.97639 0
M  V30 1499 H 139.97 -2.54626 -0.244821 0
M  V30 1500 H 139.614 -5.02208 -0.758266 0
M  V30 1501 H 139.544 -4.63678 -2.49621 0
M  V30 1502 H 142.035 -3.49973 -1.42573 0
M  V30 1503 H 142.348 -7.36934 -2.32696 0
M  V30 1504 H 140.693 -6.62535 -2.09933 0
M  V30 1505 H 143.884 -4.36616 -1.68772 0
M  V30 1506 H 144.057 -6.13066 -2.09891 0
M  V30 1507 N 137.463 0.71206 -1.40597 0
M  V30 1508 C 138.41 1.82613 -1.41142 0
M  V30 1509 C 139.38 1.63925 -0.267903 0
M  V30 1510 O 140.565 1.85009 -0.466495 0
M  V30 1511 C 137.705 3.20354 -1.28324 0
M  V30 1512 C 136.818 3.50589 -2.52411 0
M  V30 1513 C 135.953 4.77855 -2.32009 0
M  V30 1514 C 134.992 5.01005 -3.51654 0
M  V30 1515 N 134.129 6.19487 -3.30425 0
M  V30 1516 H 138.969 1.81482 -2.36365 0
M  V30 1517 H 136.506 0.886475 -1.17388 0
M  V30 1518 H 138.464 3.99899 -1.18899 0
M  V30 1519 H 137.094 3.20705 -0.367189 0
M  V30 1520 H 136.146 2.65573 -2.72351 0
M  V30 1521 H 137.458 3.63604 -3.41458 0
M  V30 1522 H 136.612 5.65424 -2.19956 0
M  V30 1523 H 135.351 4.67056 -1.40392 0
M  V30 1524 H 134.356 4.1189 -3.64179 0
M  V30 1525 H 135.581 5.13674 -4.44202 0
M  V30 1526 H 133.527 6.09932 -2.41494 0
M  V30 1527 H 133.444 6.33194 -4.13039 0
M  V30 1528 H 134.712 7.09834 -3.22113 0
M  V30 1529 N 138.941 1.26152 0.944643 0
M  V30 1530 C 140.352 1.10454 1.50522 0
M  V30 1531 C 140.703 -0.31635 1.93633 0
M  V30 1532 O 139.828 -1.20746 1.79581 0
M  V30 1533 C 140.423 1.99891 2.73549 0
M  V30 1534 C 138.982 1.88348 3.25886 0
M  V30 1535 C 138.129 1.93447 1.9868 0
M  V30 1536 H 141.08 1.39292 0.760489 0
M  V30 1537 H 141.101 1.54477 3.47732 0
M  V30 1538 H 140.613 3.03297 2.42141 0
M  V30 1539 H 138.714 0.878636 3.62092 0
M  V30 1540 H 138.827 2.73696 3.93227 0
M  V30 1541 H 137.191 1.37456 2.14425 0
M  V30 1542 H 137.974 2.98476 1.69607 0
M  V30 1543 N 140.419 -1.14872 1.07899 0
M  V30 1544 C 141.647 -1.89661 0.82683 0
M  V30 1545 C 142.062 -1.78312 -0.620519 0
M  V30 1546 O 141.419 -1.13888 -1.42604 0
M  V30 1547 C 141.47 -3.39817 1.23316 0
M  V30 1548 O 141.191 -3.50845 2.62372 0
M  V30 1549 C 142.692 -4.31615 1.0111 0
M  V30 1550 H 139.912 -0.60092 0.298557 0
M  V30 1551 H 142.456 -1.4551 1.43691 0
M  V30 1552 H 140.611 -3.8161 0.667286 0
M  V30 1553 H 141.025 -4.44076 2.79101 0
M  V30 1554 H 142.499 -5.35367 1.34486 0
M  V30 1555 H 142.976 -4.39169 -0.0522168 0
M  V30 1556 H 143.582 -3.95572 1.56215 0
M  V30 1557 N 141.898 -0.863906 -1.31812 0
M  V30 1558 C 143.146 -0.470904 -1.96537 0
M  V30 1559 C 143.467 0.978771 -1.68657 0
M  V30 1560 O 142.737 1.6853 -0.998717 0
M  V30 1561 H 141.317 -0.171148 -0.72713 0
M  V30 1562 H 143.979 -1.10236 -1.60729 0
M  V30 1563 H 143.075 -0.623616 -3.05806 0
M  V30 1564 N 143.376 1.44774 -0.622745 0
M  V30 1565 C 144.604 2.06487 -0.130722 0
M  V30 1566 C 145.019 1.46476 1.19123 0
M  V30 1567 O 144.376 0.584502 1.72887 0
M  V30 1568 C 144.427 3.615 -0.000807207 0
M  V30 1569 O 144.148 4.19274 -1.27048 0
M  V30 1570 C 145.649 4.40229 0.520898 0
M  V30 1571 H 142.869 0.666704 -0.0758106 0
M  V30 1572 H 145.413 1.85779 -0.854774 0
M  V30 1573 H 143.568 3.81498 0.673643 0
M  V30 1574 H 143.982 5.12622 -1.1099 0
M  V30 1575 H 145.456 5.49144 0.560838 0
M  V30 1576 H 145.933 4.1108 1.54627 0
M  V30 1577 H 146.539 4.25131 -0.120018 0
M  V30 1578 N 144.854 0.36279 1.53368 0
M  V30 1579 C 145.784 -0.476976 2.28576 0
M  V30 1580 C 146.765 -1.08631 1.30894 0
M  V30 1581 O 147.95 -1.10409 1.59761 0
M  V30 1582 C 145.08 -1.61828 3.07293 0
M  V30 1583 C 144.034 -1.13633 4.1264 0
M  V30 1584 C 143.36 -2.36766 4.79423 0
M  V30 1585 C 144.66 -0.223061 5.21823 0
M  V30 1586 H 146.354 0.150474 2.99022 0
M  V30 1587 H 143.9 0.0738103 1.43811 0
M  V30 1588 H 145.853 -2.21237 3.58653 0
M  V30 1589 H 144.577 -2.27292 2.34533 0
M  V30 1590 H 143.236 -0.564945 3.62221 0
M  V30 1591 H 142.884 -3.0068 4.03238 0
M  V30 1592 H 142.584 -2.05192 5.50609 0
M  V30 1593 H 144.108 -2.96865 5.33576 0
M  V30 1594 H 145.522 -0.724545 5.68703 0
M  V30 1595 H 143.919 0.001678 6.001 0
M  V30 1596 H 144.989 0.735553 4.79289 0
M  V30 1597 N 146.332 -1.57332 0.0918853 0
M  V30 1598 C 147.578 -1.94524 -0.573425 0
M  V30 1599 C 147.911 -0.973578 -1.68033 0
M  V30 1600 O 147.186 -0.00609226 -1.94499 0
M  V30 1601 C 147.469 -3.41858 -1.13161 0
M  V30 1602 C 147.322 -4.4979 -0.0299747 0
M  V30 1603 C 148.641 -3.90435 -2.03098 0
M  V30 1604 H 145.76 -0.70734 -0.206975 0
M  V30 1605 H 148.402 -1.89309 0.161942 0
M  V30 1606 H 146.552 -3.46433 -1.7583 0
M  V30 1607 H 148.224 -4.57327 0.604112 0
M  V30 1608 H 146.467 -4.291 0.636833 0
M  V30 1609 H 147.138 -5.50069 -0.461287 0
M  V30 1610 H 149.614 -3.87992 -1.50338 0
M  V30 1611 H 148.49 -4.94097 -2.39081 0
M  V30 1612 H 148.751 -3.29541 -2.94712 0
M  V30 1613 N 147.81 0.181792 -1.56548 0
M  V30 1614 C 149.038 0.915947 -1.85521 0
M  V30 1615 C 149.453 1.76282 -0.676016 0
M  V30 1616 O 148.81 1.79012 0.355077 0
M  V30 1617 C 148.861 1.80126 -3.13427 0
M  V30 1618 O 148.582 0.988562 -4.26801 0
M  V30 1619 C 150.083 2.64597 -3.55673 0
M  V30 1620 H 147.303 0.26661 -0.61576 0
M  V30 1621 H 149.847 0.185039 -2.03661 0
M  V30 1622 H 148.002 2.48563 -2.97145 0
M  V30 1623 H 148.416 1.59308 -4.99721 0
M  V30 1624 H 149.89 3.2235 -4.48101 0
M  V30 1625 H 150.367 3.38958 -2.79292 0
M  V30 1626 H 150.973 2.0151 -3.74532 0
M  V30 1627 N 149.288 1.51039 0.449983 0
M  V30 1628 C 150.513 1.6715 1.22783 0
M  V30 1629 C 150.938 0.363081 1.84563 0
M  V30 1630 O 150.296 -0.675433 1.68249 0
M  V30 1631 C 150.344 2.77985 2.29689 0
M  V30 1632 O 149.448 2.40707 3.34864 0
M  V30 1633 H 148.789 0.557746 0.360299 0
M  V30 1634 H 151.319 1.97535 0.533005 0
M  V30 1635 H 151.329 3.01693 2.74673 0
M  V30 1636 H 150.004 3.72935 1.84098 0
M  V30 1637 H 148.581 2.27523 2.95445 0
M  V30 1638 N 150.766 -0.704594 1.40972 0
M  V30 1639 C 152.043 -1.45847 1.30338 0
M  V30 1640 C 152.423 -2.10973 -0.0732344 0
M  V30 1641 O 151.771 -2.00997 -1.08685 0
M  V30 1642 C 151.981 -2.48525 2.45023 0
M  V30 1643 C 153.329 -3.1404 2.8577 0
M  V30 1644 O 154.353 -2.58848 2.44696 0
M  V30 1645 O 153.212 -4.13981 3.56766 0
M  V30 1646 H 150.306 -0.649092 0.512454 0
M  V30 1647 H 152.852 -0.735836 1.52917 0
M  V30 1648 H 151.624 -1.98994 3.36923 0
M  V30 1649 H 151.247 -3.2831 2.24272 0
M  V30 1650 N 152.244 -1.26651 -0.937939 0
M  V30 1651 C 153.174 -1.10993 -2.05433 0
M  V30 1652 C 154.155 -0.0142161 -1.70094 0
M  V30 1653 O 155.34 -0.186837 -1.93299 0
M  V30 1654 C 152.47 -0.745561 -3.39203 0
M  V30 1655 C 151.424 -1.79337 -3.88616 0
M  V30 1656 C 150.75 -1.28324 -5.19073 0
M  V30 1657 C 152.05 -3.19553 -4.13138 0
M  V30 1658 H 153.744 -2.0438 -2.1879 0
M  V30 1659 H 151.29 -0.984041 -1.05131 0
M  V30 1660 H 153.243 -0.622888 -4.16771 0
M  V30 1661 H 151.967 0.22401 -3.25831 0
M  V30 1662 H 150.626 -1.90477 -3.13231 0
M  V30 1663 H 150.274 -0.303414 -5.02084 0
M  V30 1664 H 149.974 -1.98369 -5.53103 0
M  V30 1665 H 151.498 -1.1733 -5.99221 0
M  V30 1666 H 152.912 -3.11471 -4.81309 0
M  V30 1667 H 151.309 -3.87218 -4.58457 0
M  V30 1668 H 152.379 -3.65368 -3.18801 0
M  V30 1669 N 153.722 1.14298 -1.08507 0
M  V30 1670 C 154.652 2.21542 -0.737646 0
M  V30 1671 C 155.633 1.67773 0.280377 0
M  V30 1672 O 156.818 1.93616 0.150521 0
M  V30 1673 C 153.948 3.46988 -0.147259 0
M  V30 1674 C 152.902 4.13789 -1.09374 0
M  V30 1675 C 152.228 5.33449 -0.365524 0
M  V30 1676 C 153.528 4.62208 -2.4323 0
M  V30 1677 H 155.222 2.5086 -1.6343 0
M  V30 1678 H 152.768 1.20576 -0.787243 0
M  V30 1679 H 154.721 4.21262 0.107808 0
M  V30 1680 H 153.445 3.17037 0.784538 0
M  V30 1681 H 152.104 3.4147 -1.33393 0
M  V30 1682 H 151.752 4.99759 0.57011 0
M  V30 1683 H 151.452 5.79088 -0.996512 0
M  V30 1684 H 152.976 6.10485 -0.118534 0
M  V30 1685 H 154.39 5.27952 -2.23472 0
M  V30 1686 H 152.787 5.18553 -3.02031 0
M  V30 1687 H 153.857 3.77224 -3.04681 0
M  V30 1688 N 155.201 0.870884 1.31352 0
M  V30 1689 C 156.612 0.534714 1.78879 0
M  V30 1690 C 156.963 -0.948423 1.71754 0
M  V30 1691 O 156.088 -1.74055 1.28584 0
M  V30 1692 C 156.683 0.963839 3.24801 0
M  V30 1693 C 155.242 0.679311 3.70219 0
M  V30 1694 C 154.389 1.15465 2.52117 0
M  V30 1695 H 157.34 1.05651 1.18421 0
M  V30 1696 H 157.361 0.286892 3.79417 0
M  V30 1697 H 156.873 2.04332 3.29955 0
M  V30 1698 H 154.974 -0.388769 3.70566 0
M  V30 1699 H 155.087 1.25698 4.62317 0
M  V30 1700 H 153.451 0.574383 2.48139 0
M  V30 1701 H 154.234 2.24157 2.60016 0
M  V30 1702 N 156.679 -1.44442 0.630414 0
M  V30 1703 C 157.927 -2.01653 0.134351 0
M  V30 1704 C 158.248 -1.49836 -1.24796 0
M  V30 1705 O 157.518 -0.701684 -1.82902 0
M  V30 1706 H 156.098 -0.74554 0.0466769 0
M  V30 1707 H 158.76 -1.76952 0.816955 0
M  V30 1708 H 157.856 -3.11935 0.101498 0
M  V30 1709 N 158.157 -0.370918 -1.53173 0
M  V30 1710 C 159.104 0.473035 -2.259 0
M  V30 1711 C 160.074 1.07311 -1.26781 0
M  V30 1712 O 161.259 1.1046 -1.55574 0
M  V30 1713 C 158.399 1.60405 -3.05556 0
M  V30 1714 C 157.512 1.02863 -4.19575 0
M  V30 1715 C 156.647 2.12918 -4.86661 0
M  V30 1716 C 155.686 1.52869 -5.92704 0
M  V30 1717 N 154.823 2.56779 -6.53459 0
M  V30 1718 H 159.663 -0.153649 -2.97604 0
M  V30 1719 H 157.2 -0.0875946 -1.46839 0
M  V30 1720 H 159.158 2.27034 -3.50016 0
M  V30 1721 H 157.788 2.20131 -2.36097 0
M  V30 1722 H 156.84 0.252465 -3.79561 0
M  V30 1723 H 158.152 0.549642 -4.95762 0
M  V30 1724 H 157.306 2.87356 -5.34333 0
M  V30 1725 H 156.045 2.6417 -4.09958 0
M  V30 1726 H 155.05 0.769479 -5.44389 0
M  V30 1727 H 156.275 1.02435 -6.7133 0
M  V30 1728 H 154.221 3.07235 -5.79606 0
M  V30 1729 H 154.138 2.13583 -7.25202 0
M  V30 1730 H 155.406 3.30903 -7.05779 0
M  V30 1731 N 159.635 1.57281 -0.100228 0
M  V30 1732 C 160.585 2.10848 0.86759 0
M  V30 1733 C 161.569 1.02473 1.24049 0
M  V30 1734 O 162.761 1.28739 1.21471 0
M  V30 1735 C 159.89 2.69648 2.12474 0
M  V30 1736 C 158.976 3.85074 1.77704 0
M  V30 1737 N 159.367 4.92897 1.13518 0
M  V30 1738 C 157.665 3.94905 2.07282 0
M  V30 1739 C 158.366 5.73475 0.974735 0
M  V30 1740 N 157.342 5.22675 1.4937 0
M  V30 1741 H 161.144 2.91594 0.367471 0
M  V30 1742 H 158.658 1.62074 0.102829 0
M  V30 1743 H 160.655 3.06356 2.82757 0
M  V30 1744 H 159.315 1.90359 2.63047 0
M  V30 1745 H 160.326 5.11662 0.801381 0
M  V30 1746 H 157.003 3.26633 2.60033 0
M  V30 1747 H 158.393 6.70238 0.472364 0
M  V30 1748 N 161.113 -0.173488 1.56642 0
M  V30 1749 C 162.043 -1.2171 1.99271 0
M  V30 1750 C 163.024 -1.46289 0.867959 0
M  V30 1751 O 164.209 -1.5766 1.13388 0
M  V30 1752 C 161.339 -2.55651 2.35074 0
M  V30 1753 C 160.293 -2.45645 3.50489 0
M  V30 1754 C 159.619 -3.84056 3.72028 0
M  V30 1755 C 160.919 -1.96302 4.84007 0
M  V30 1756 H 162.613 -0.86275 2.867 0
M  V30 1757 H 160.159 -0.413571 1.37933 0
M  V30 1758 H 162.112 -3.2886 2.63494 0
M  V30 1759 H 160.836 -2.92869 1.44552 0
M  V30 1760 H 159.495 -1.7489 3.22194 0
M  V30 1761 H 159.143 -4.18664 2.788 0
M  V30 1762 H 158.843 -3.7823 4.49684 0
M  V30 1763 H 160.367 -4.58854 4.02846 0
M  V30 1764 H 161.781 -2.59284 5.11317 0
M  V30 1765 H 160.178 -2.01429 5.65284 0
M  V30 1766 H 161.248 -0.917226 4.76146 0
M  V30 1767 N 162.591 -1.51276 -0.441967 0
M  V30 1768 C 163.821 -1.67273 -1.21257 0
M  V30 1769 C 164.229 -0.367624 -1.85594 0
M  V30 1770 O 163.572 0.663349 -1.71305 0
M  V30 1771 C 163.634 -2.72807 -2.34129 0
M  V30 1772 C 163.298 -4.1554 -1.90198 0
M  V30 1773 C 164.295 -5.00471 -1.40801 0
M  V30 1774 C 161.98 -4.61616 -1.9803 0
M  V30 1775 C 163.974 -6.29536 -0.998174 0
M  V30 1776 C 161.661 -5.90679 -1.56658 0
M  V30 1777 C 162.659 -6.74466 -1.07633 0
M  V30 1778 O 162.347 -8.01116 -0.668459 0
M  V30 1779 H 162.079 -0.564614 -0.371734 0
M  V30 1780 H 164.633 -1.9843 -0.530521 0
M  V30 1781 H 162.863 -2.36954 -3.05597 0
M  V30 1782 H 164.552 -2.77729 -2.96009 0
M  V30 1783 H 165.318 -4.66079 -1.34148 0
M  V30 1784 H 161.197 -3.96526 -2.35135 0
M  V30 1785 H 164.741 -6.94885 -0.61482 0
M  V30 1786 H 160.638 -6.24586 -1.62979 0
M  V30 1787 H 161.406 -8.14633 -0.794722 0
M  V30 1788 N 164.069 0.697108 -1.41344 0
M  V30 1789 C 165.002 1.82134 -1.37486 0
M  V30 1790 C 165.98 1.60784 -0.242351 0
M  V30 1791 O 167.164 1.83553 -0.429012 0
M  V30 1792 C 164.291 3.18788 -1.14421 0
M  V30 1793 C 163.337 3.58932 -2.3037 0
M  V30 1794 S 164.17 3.63916 -3.92843 0
M  V30 1795 C 165.326 5.03298 -3.72078 0
M  V30 1796 H 165.559 1.85129 -2.32625 0
M  V30 1797 H 163.092 0.865671 -1.2785 0
M  V30 1798 H 165.05 3.97677 -1.018 0
M  V30 1799 H 163.711 3.13404 -0.20905 0
M  V30 1800 H 162.904 4.58202 -2.09922 0
M  V30 1801 H 162.506 2.87347 -2.39391 0
M  V30 1802 H 164.798 5.90753 -3.31688 0
M  V30 1803 H 165.741 5.28788 -4.70945 0
M  V30 1804 H 166.149 4.74764 -3.05384 0
M  V30 1805 N 165.547 1.27147 0.931209 0
M  V30 1806 C 166.477 1.12081 2.04842 0
M  V30 1807 C 167.458 0.0232364 1.70084 0
M  V30 1808 O 168.643 0.197085 1.93197 0
M  V30 1809 C 165.773 0.76354 3.38803 0
M  V30 1810 C 164.727 1.81396 3.87659 0
M  V30 1811 C 164.053 1.31075 5.18385 0
M  V30 1812 C 165.353 3.21739 4.11438 0
M  V30 1813 H 167.047 2.05537 2.17703 0
M  V30 1814 H 164.593 0.989603 1.04608 0
M  V30 1815 H 166.546 0.644982 4.16435 0
M  V30 1816 H 165.27 -0.206727 3.25945 0
M  V30 1817 H 163.929 1.92136 3.12217 0
M  V30 1818 H 163.577 0.330037 5.01916 0
M  V30 1819 H 163.277 2.013 5.52044 0
M  V30 1820 H 164.801 1.20506 5.98591 0
M  V30 1821 H 166.215 3.14019 4.79651 0
M  V30 1822 H 164.612 3.89644 4.56397 0
M  V30 1823 H 165.682 3.67054 3.16859 0
M  V30 1824 N 167.025 -1.13721 1.09112 0
M  V30 1825 C 168.25 -1.89314 0.847053 0
M  V30 1826 C 168.675 -1.78416 -0.595774 0
M  V30 1827 O 168.033 -1.12942 -1.41823 0
M  V30 1828 C 168.081 -3.3701 1.28284 0
M  V30 1829 O 167.185 -4.10054 0.439267 0
M  V30 1830 H 166.526 -0.588745 0.307044 0
M  V30 1831 H 169.056 -1.43902 1.45442 0
M  V30 1832 H 169.066 -3.87834 1.26683 0
M  V30 1833 H 167.741 -3.4426 2.33363 0
M  V30 1834 H 166.318 -3.69266 0.519312 0
M  V30 1835 N 168.503 -0.877838 -1.30888 0
M  V30 1836 C 169.731 -0.507414 -2.00581 0
M  V30 1837 C 170.146 0.902216 -1.65848 0
M  V30 1838 O 169.503 1.59225 -0.891831 0
M  V30 1839 C 169.554 -0.664162 -3.55347 0
M  V30 1840 O 169.275 -2.01829 -3.8884 0
M  V30 1841 C 170.776 -0.295787 -4.42312 0
M  V30 1842 H 167.996 -0.196866 -0.641471 0
M  V30 1843 H 170.54 -1.18117 -1.66939 0
M  V30 1844 H 168.695 -0.0378619 -3.87381 0
M  V30 1845 H 169.109 -2.03174 -4.8355 0
M  V30 1846 H 170.583 -0.456388 -5.5011 0
M  V30 1847 H 171.06 0.765663 -4.32475 0
M  V30 1848 H 171.666 -0.898113 -4.15709 0
M  V30 1849 N 169.982 1.44106 -0.638065 0
M  V30 1850 C 171.23 2.01579 -0.145043 0
M  V30 1851 C 171.551 1.50496 1.24 0
M  V30 1852 O 170.821 0.711374 1.82527 0
M  V30 1853 H 169.401 0.745282 -0.05063 0
M  V30 1854 H 172.063 1.76516 -0.826327 0
M  V30 1855 H 171.159 3.11877 -0.118039 0
M  V30 1856 N 171.46 0.379036 1.52974 0
M  V30 1857 C 172.688 -0.20679 2.05864 0
M  V30 1858 C 173.103 -1.41356 1.25155 0
M  V30 1859 O 172.46 -1.8009 0.295588 0
M  V30 1860 C 172.511 -0.587045 3.56702 0
M  V30 1861 O 172.232 0.571776 4.34353 0
M  V30 1862 C 173.733 -1.22983 4.25899 0
M  V30 1863 H 170.953 -0.0336123 0.670158 0
M  V30 1864 H 173.497 0.541298 1.97206 0
M  V30 1865 H 171.652 -1.28504 3.65466 0
M  V30 1866 H 172.066 0.261544 5.23847 0
M  V30 1867 H 173.54 -1.44635 5.32715 0
M  V30 1868 H 174.017 -2.19416 3.80465 0
M  V30 1869 H 174.623 -0.572892 4.21424 0
M  V30 1870 N 172.938 -1.57226 0.108567 0
M  V30 1871 C 174.186 -1.94448 -0.550853 0
M  V30 1872 C 174.507 -0.992074 -1.67878 0
M  V30 1873 O 173.777 -0.0465 -1.95845 0
M  V30 1874 H 172.357 -0.717897 -0.206479 0
M  V30 1875 H 175.019 -1.94112 0.175062 0
M  V30 1876 H 174.115 -2.97218 -0.952259 0
M  V30 1877 N 174.416 0.165178 -1.56732 0
M  V30 1878 C 175.346 1.20651 -1.99914 0
M  V30 1879 C 176.327 1.45827 -0.875705 0
M  V30 1880 O 177.512 1.57057 -1.14223 0
M  V30 1881 C 174.642 2.54401 -2.36427 0
M  V30 1882 C 173.596 2.43782 -3.51787 0
M  V30 1883 C 172.922 3.82078 -3.7406 0
M  V30 1884 C 174.222 1.93732 -4.85041 0
M  V30 1885 H 175.916 0.847534 -2.87154 0
M  V30 1886 H 173.462 0.40625 -1.38151 0
M  V30 1887 H 175.415 3.27458 -2.65234 0
M  V30 1888 H 174.139 2.92098 -1.46103 0
M  V30 1889 H 172.798 1.73178 -3.23117 0
M  V30 1890 H 172.446 4.17179 -2.81017 0
M  V30 1891 H 172.146 3.7584 -4.51684 0
M  V30 1892 H 173.67 4.56712 -4.05274 0
M  V30 1893 H 175.084 2.56569 -5.12684 0
M  V30 1894 H 173.481 1.98428 -5.66345 0
M  V30 1895 H 174.551 0.891962 -4.76626 0
M  V30 1896 N 175.894 1.51508 0.433938 0
M  V30 1897 C 176.857 1.72473 1.50949 0
M  V30 1898 C 177.857 0.594725 1.49398 0
M  V30 1899 O 179.047 0.862315 1.5136 0
M  V30 1900 C 176.179 1.78431 2.90474 0
M  V30 1901 H 177.372 2.68467 1.33662 0
M  V30 1902 H 174.925 1.41549 0.662836 0
M  V30 1903 H 175.66 0.842645 3.13161 0
M  V30 1904 H 175.445 2.60558 2.93005 0
M  V30 1905 H 176.935 1.96479 3.68491 0
M  V30 1906 N 177.372 -0.689602 1.41712 0
M  V30 1907 C 178.783 -1.26973 1.36875 0
M  V30 1908 C 179.134 -1.96124 0.054748 0
M  V30 1909 O 178.259 -1.99141 -0.84687 0
M  V30 1910 C 178.854 -2.30912 2.47922 0
M  V30 1911 C 177.413 -2.84486 2.46464 0
M  V30 1912 C 176.56 -1.58603 2.27465 0
M  V30 1913 H 179.511 -0.48396 1.51141 0
M  V30 1914 H 179.532 -3.12331 2.17323 0
M  V30 1915 H 179.044 -1.80554 3.43543 0
M  V30 1916 H 177.145 -3.39005 1.54617 0
M  V30 1917 H 177.258 -3.34511 3.42986 0
M  V30 1918 H 175.622 -1.84632 1.75451 0
M  V30 1919 H 176.405 -1.10233 3.25121 0
M  V30 1920 N 178.85 -1.27639 -0.924453 0
M  V30 1921 C 180.097 -1.14167 -1.67249 0
M  V30 1922 C 180.425 0.311863 -1.91984 0
M  V30 1923 O 179.68 1.24425 -1.51053 0
M  V30 1924 C 179.979 -1.87407 -3.04325 0
M  V30 1925 C 179.645 -3.37249 -2.99289 0
M  V30 1926 C 178.307 -3.7812 -2.97622 0
M  V30 1927 C 180.659 -4.32845 -2.90336 0
M  V30 1928 C 177.987 -5.12944 -2.8479 0
M  V30 1929 C 180.339 -5.6773 -2.79045 0
M  V30 1930 C 179.003 -6.07889 -2.7573 0
M  V30 1931 H 178.273 -0.417766 -0.612007 0
M  V30 1932 H 180.92 -1.58286 -1.07786 0
M  V30 1933 H 179.225 -1.35805 -3.67511 0
M  V30 1934 H 180.922 -1.74408 -3.61086 0
M  V30 1935 H 177.512 -3.04748 -3.01374 0
M  V30 1936 H 181.696 -4.02239 -2.90719 0
M  V30 1937 H 176.952 -5.432 -2.80612 0
M  V30 1938 H 181.126 -6.41472 -2.71083 0
M  V30 1939 H 178.753 -7.12314 -2.65544 0
M  V30 1940 N 180.328 1.1314 -1.09713 0
M  V30 1941 C 181.261 2.17735 -0.683137 0
M  V30 1942 C 182.239 1.59582 0.311841 0
M  V30 1943 O 183.423 1.87298 0.212514 0
M  V30 1944 C 180.55 3.38699 -0.00684324 0
M  V30 1945 C 179.596 4.1546 -0.964102 0
M  V30 1946 S 180.429 4.74733 -2.47767 0
M  V30 1947 C 181.585 5.9904 -1.81387 0
M  V30 1948 H 181.818 2.52515 -1.56918 0
M  V30 1949 H 179.351 1.24484 -0.913404 0
M  V30 1950 H 181.309 4.08765 0.377044 0
M  V30 1951 H 179.97 3.02214 0.85589 0
M  V30 1952 H 179.163 5.02093 -0.43803 0
M  V30 1953 H 178.765 3.51066 -1.28953 0
M  V30 1954 H 181.057 6.67846 -1.13967 0
M  V30 1955 H 182 6.56261 -2.65947 0
M  V30 1956 H 182.408 5.4976 -1.28155 0
M  V30 1957 N 181.806 0.884767 1.30421 0
M  V30 1958 C 183.031 0.517288 2.00845 0
M  V30 1959 C 183.456 -0.886779 1.65885 0
M  V30 1960 O 182.814 -1.58768 0.875354 0
M  V30 1961 C 182.862 0.698994 3.5376 0
M  V30 1962 O 181.966 -0.255208 4.1161 0
M  V30 1963 H 181.307 0.203872 0.631927 0
M  V30 1964 H 183.837 1.19225 1.66272 0
M  V30 1965 H 183.847 0.597912 4.03595 0
M  V30 1966 H 182.522 1.72271 3.78544 0
M  V30 1967 H 181.099 -0.10784 3.72744 0
M  V30 1968 N 183.284 -1.43765 0.645699 0
M  V30 1969 C 184.214 -2.33471 -0.0370477 0
M  V30 1970 C 185.195 -1.49042 -0.819779 0
M  V30 1971 O 186.38 -1.77726 -0.782758 0
M  V30 1972 C 183.51 -3.32311 -1.0093 0
M  V30 1973 C 182.464 -4.2667 -0.337201 0
M  V30 1974 C 181.79 -5.1549 -1.42037 0
M  V30 1975 C 183.09 -5.16657 0.765706 0
M  V30 1976 H 184.784 -2.90809 0.712069 0
M  V30 1977 H 182.33 -1.39834 0.343876 0
M  V30 1978 H 184.283 -3.9396 -1.49578 0
M  V30 1979 H 183.007 -2.73213 -1.78948 0
M  V30 1980 H 181.666 -3.66374 0.128771 0
M  V30 1981 H 181.314 -4.52735 -2.1918 0
M  V30 1982 H 181.014 -5.79438 -0.975966 0
M  V30 1983 H 182.538 -5.80012 -1.90838 0
M  V30 1984 H 183.952 -5.72158 0.361702 0
M  V30 1985 H 182.349 -5.89286 1.13413 0
M  V30 1986 H 183.419 -4.56796 1.62683 0
M  V30 1987 N 184.763 -0.387143 -1.52771 0
M  V30 1988 C 186.012 0.19697 -2.00736 0
M  V30 1989 C 186.325 1.48082 -1.27793 0
M  V30 1990 O 187.531 2.14485 -1.66458 0
M  V30 1991 C 185.987 0.401568 -3.57653 0
M  V30 1992 C 185.595 -0.868907 -4.39493 0
M  V30 1993 C 187.339 0.942164 -4.13912 0
M  V30 1994 C 185.246 -0.632705 -5.88006 0
M  V30 1995 H 184.176 0.0773827 -0.750019 0
M  V30 1996 H 186.827 -0.50921 -1.76293 0
M  V30 1997 H 185.209 1.16954 -3.78335 0
M  V30 1998 H 186.383 -1.64133 -4.30577 0
M  V30 1999 H 184.698 -1.33429 -3.94443 0
M  V30 2000 H 187.295 1.13455 -5.22525 0
M  V30 2001 H 187.638 1.9106 -3.69867 0
M  V30 2002 H 188.171 0.233814 -3.97112 0
M  V30 2003 H 184.91 -1.57208 -6.36369 0
M  V30 2004 H 184.43 0.100825 -5.99715 0
M  V30 2005 H 186.109 -0.26642 -6.46451 0
M  V30 2006 N 186.241 1.57166 -0.116904 0
M  V30 2007 C 187.173 2.12271 0.864507 0
M  V30 2008 C 188.186 1.06494 1.23138 0
M  V30 2009 O 189.375 1.33873 1.18069 0
M  V30 2010 C 186.475 2.60564 2.16702 0
M  V30 2011 C 185.648 3.90416 1.97216 0
M  V30 2012 C 184.707 4.24329 3.11178 0
M  V30 2013 O 183.733 4.93182 2.84184 0
M  V30 2014 N 184.935 3.8148 4.37554 0
M  V30 2015 H 187.7 2.97102 0.393726 0
M  V30 2016 H 185.261 1.61759 0.0675805 0
M  V30 2017 H 187.253 2.80282 2.91932 0
M  V30 2018 H 185.823 1.80623 2.55135 0
M  V30 2019 H 185.043 3.79627 1.06192 0
M  V30 2020 H 186.331 4.75327 1.81499 0
M  V30 2021 H 185.729 3.25943 4.62361 0
M  V30 2022 H 184.286 4.06311 5.09661 0
M  V30 2023 N 187.719 -0.156864 1.56817 0
M  V30 2024 C 188.996 -0.899244 1.73704 0
M  V30 2025 C 189.376 -1.99771 0.682254 0
M  V30 2026 O 188.724 -2.26515 -0.300522 0
M  V30 2027 C 188.934 -1.45075 3.17418 0
M  V30 2028 C 190.282 -1.91802 3.7881 0
M  V30 2029 O 191.306 -1.54838 3.20786 0
M  V30 2030 O 190.165 -2.5994 4.80722 0
M  V30 2031 H 187.259 -0.424267 0.709878 0
M  V30 2032 H 189.805 -0.143561 1.69092 0
M  V30 2033 H 188.577 -0.660846 3.85679 0
M  V30 2034 H 188.2 -2.27021 3.26416 0
M  V30 2035 N 189.197 -1.51736 -0.425897 0
M  V30 2036 C 190.608 -1.5732 -1.00536 0
M  V30 2037 C 190.959 -0.403537 -1.92005 0
M  V30 2038 O 190.084 0.478256 -2.11049 0
M  V30 2039 C 190.679 -2.85119 -1.8301 0
M  V30 2040 C 189.238 -2.93236 -2.35987 0
M  V30 2041 C 188.385 -2.52098 -1.15508 0
M  V30 2042 H 191.336 -1.57348 -0.206739 0
M  V30 2043 H 191.357 -2.69526 -2.68581 0
M  V30 2044 H 190.869 -3.7023 -1.16411 0
M  V30 2045 H 188.97 -2.12581 -3.06007 0
M  V30 2046 H 189.083 -3.9713 -2.68001 0
M  V30 2047 H 187.447 -2.05558 -1.50393 0
M  V30 2048 H 188.23 -3.39565 -0.505014 0
M  V30 2049 N 190.675 0.682077 -1.42076 0
M  V30 2050 C 191.585 1.82535 -1.47371 0
M  V30 2051 C 192.601 1.7017 -0.363079 0
M  V30 2052 O 193.777 1.91848 -0.612875 0
M  V30 2053 C 190.842 3.18624 -1.36674 0
M  V30 2054 C 189.903 3.42999 -2.58167 0
M  V30 2055 C 189.136 4.72595 -2.4797 0
M  V30 2056 O 189.359 5.50006 -1.5116 0
M  V30 2057 O 188.293 4.98054 -3.37974 0
M  V30 2058 H 192.119 1.81023 -2.43853 0
M  V30 2059 H 189.704 0.836887 -1.2376 0
M  V30 2060 H 191.586 3.99847 -1.33043 0
M  V30 2061 H 190.261 3.20789 -0.433138 0
M  V30 2062 H 189.168 2.61653 -2.67373 0
M  V30 2063 H 190.501 3.45659 -3.50401 0
M  V30 2064 N 192.153 1.28127 0.917671 0
M  V30 2065 C 193.399 1.15223 1.66888 0
M  V30 2066 C 193.732 -0.299293 1.9188 0
M  V30 2067 O 193.007 -1.21805 1.51637 0
M  V30 2068 C 193.29 1.94706 3.02922 0
M  V30 2069 C 193.143 3.47898 2.85109 0
M  V30 2070 C 194.462 1.75939 4.03402 0
M  V30 2071 H 191.581 0.419946 0.605652 0
M  V30 2072 H 194.223 1.57398 1.06423 0
M  V30 2073 H 192.373 1.58864 3.54534 0
M  V30 2074 H 194.045 3.93624 2.40537 0
M  V30 2075 H 192.288 3.7373 2.20246 0
M  V30 2076 H 192.959 3.98765 3.81694 0
M  V30 2077 H 195.435 2.07209 3.60837 0
M  V30 2078 H 194.311 2.33931 4.96556 0
M  V30 2079 H 194.572 0.709877 4.36364 0
M  V30 2080 N 193.631 -1.12557 1.10312 0
M  V30 2081 C 194.861 -1.87592 0.865617 0
M  V30 2082 C 195.269 -1.79851 -0.587389 0
M  V30 2083 O 194.612 -1.16949 -1.41664 0
M  V30 2084 C 194.674 -3.37665 1.23381 0
M  V30 2085 C 194.338 -3.69181 2.69359 0
M  V30 2086 C 195.335 -3.67652 3.67597 0
M  V30 2087 C 193.02 -3.98555 3.05711 0
M  V30 2088 C 195.014 -3.95053 5.00212 0
M  V30 2089 C 192.701 -4.25616 4.38514 0
M  V30 2090 C 193.699 -4.23851 5.35574 0
M  V30 2091 O 193.387 -4.50242 6.65986 0
M  V30 2092 H 193.119 -0.600442 0.310557 0
M  V30 2093 H 195.673 -1.4335 1.47105 0
M  V30 2094 H 193.903 -3.82454 0.571467 0
M  V30 2095 H 195.592 -3.94041 0.973994 0
M  V30 2096 H 196.358 -3.45024 3.40857 0
M  V30 2097 H 192.237 -3.99071 2.30789 0
M  V30 2098 H 195.781 -3.93591 5.75962 0
M  V30 2099 H 191.678 -4.47718 4.64994 0
M  V30 2100 H 192.446 -4.67867 6.71597 0
M  V30 2101 N 195.109 -0.891671 -1.2995 0
M  V30 2102 C 196.019 -0.367691 -2.31701 0
M  V30 2103 C 197.035 0.533486 -1.6562 0
M  V30 2104 O 198.211 0.424997 -1.96865 0
M  V30 2105 C 195.276 0.403406 -3.44345 0
M  V30 2106 C 194.337 -0.528328 -4.26037 0
M  V30 2107 C 193.57 0.206063 -5.33302 0
M  V30 2108 O 193.793 1.43119 -5.52153 0
M  V30 2109 O 192.727 -0.447281 -6.00236 0
M  V30 2110 H 196.553 -1.21163 -2.78484 0
M  V30 2111 H 194.138 -0.655725 -1.34241 0
M  V30 2112 H 196.02 0.839753 -4.12948 0
M  V30 2113 H 194.695 1.22354 -2.99685 0
M  V30 2114 H 193.602 -1.01362 -3.60106 0
M  V30 2115 H 194.935 -1.31465 -4.74318 0
M  V30 2116 N 196.587 1.43421 -0.653314 0
M  V30 2117 C 198.003 1.56341 -0.320886 0
M  V30 2118 C 198.203 1.63696 1.17499 0
M  V30 2119 O 197.259 1.59208 1.95982 0
M  V30 2120 C 198.572 2.82424 -1.03233 0
M  V30 2121 C 200.12 2.96168 -1.01259 0
M  V30 2122 C 200.595 4.25084 -1.70492 0
M  V30 2123 N 202.086 4.31948 -1.67257 0
M  V30 2124 C 202.821 5.30466 -2.17701 0
M  V30 2125 N 202.317 6.35261 -2.76434 0
M  V30 2126 N 204.11 5.2212 -2.082 0
M  V30 2127 H 196.261 1.3689 -1.62403 0
M  V30 2128 H 198.524 0.657455 -0.682977 0
M  V30 2129 H 198.23 2.83053 -2.08744 0
M  V30 2130 H 198.104 3.72653 -0.583948 0
M  V30 2131 H 200.491 2.9508 0.0341235 0
M  V30 2132 H 200.572 2.07229 -1.49966 0
M  V30 2133 H 200.216 4.26932 -2.7512 0
M  V30 2134 H 200.146 5.1292 -1.19251 0
M  V30 2135 H 202.637 3.56838 -1.24398 0
M  V30 2136 H 202.95 7.06754 -3.12601 0
M  V30 2137 H 201.295 6.35884 -2.80495 0
M  V30 2138 H 204.486 4.39166 -1.62021 0
M  V30 2139 H 204.659 5.98739 -2.47822 0
M  V30 2140 N 198.065 0.39524 1.52563 0
M  V30 2141 C 199.312 -0.185044 2.01653 0
M  V30 2142 C 199.64 -1.46317 1.28146 0
M  V30 2143 O 198.895 -1.9213 0.372074 0
M  V30 2144 C 199.194 -0.493444 3.53977 0
M  V30 2145 C 198.86 0.69384 4.4553 0
M  V30 2146 C 197.522 1.01954 4.70275 0
M  V30 2147 C 199.874 1.48785 4.99512 0
M  V30 2148 C 197.202 2.14069 5.46252 0
M  V30 2149 C 199.554 2.59965 5.76716 0
M  V30 2150 C 198.218 2.93037 5.99738 0
M  V30 2151 H 197.488 -0.0677123 0.7379 0
M  V30 2152 H 200.135 0.533807 1.8391 0
M  V30 2153 H 198.44 -1.29369 3.69825 0
M  V30 2154 H 200.137 -0.955163 3.89458 0
M  V30 2155 H 196.727 0.429987 4.26438 0
M  V30 2156 H 200.911 1.24946 4.80315 0
M  V30 2157 H 196.167 2.40056 5.62302 0
M  V30 2158 H 200.341 3.21887 6.17545 0
M  V30 2159 H 197.968 3.8003 6.58393 0
M  V30 2160 N 199.544 -1.57102 0.125237 0
M  V30 2161 C 200.454 -2.19191 -0.8362 0
M  V30 2162 C 201.47 -1.16985 -1.28805 0
M  V30 2163 O 202.646 -1.49479 -1.34974 0
M  V30 2164 C 199.711 -2.78407 -2.06617 0
M  V30 2165 C 198.772 -3.9567 -1.66565 0
M  V30 2166 C 198.005 -4.52052 -2.83698 0
M  V30 2167 O 198.228 -4.07326 -3.99302 0
M  V30 2168 O 197.162 -5.42645 -2.60423 0
M  V30 2169 H 200.988 -3.01816 -0.337776 0
M  V30 2170 H 198.573 -1.4906 -0.100695 0
M  V30 2171 H 200.455 -3.16129 -2.7864 0
M  V30 2172 H 199.13 -1.9881 -2.55453 0
M  V30 2173 H 198.037 -3.62705 -0.916296 0
M  V30 2174 H 199.37 -4.76722 -1.22464 0
M  V30 2175 N 201.022 0.148545 -1.56898 0
M  V30 2176 C 201.969 1.18345 -1.98149 0
M  V30 2177 C 202.939 1.42772 -0.848848 0
M  V30 2178 O 204.124 1.55132 -1.11079 0
M  V30 2179 C 201.264 2.51231 -2.36594 0
M  V30 2180 C 200.377 2.33991 -3.63142 0
M  V30 2181 C 199.512 3.59902 -3.90697 0
M  V30 2182 C 198.551 3.37692 -5.1052 0
M  V30 2183 N 197.688 4.5573 -5.34092 0
M  V30 2184 H 202.528 0.82467 -2.86362 0
M  V30 2185 H 200.065 0.395756 -1.41676 0
M  V30 2186 H 202.023 3.28713 -2.56912 0
M  V30 2187 H 200.653 2.85059 -1.51463 0
M  V30 2188 H 199.705 1.47572 -3.50609 0
M  V30 2189 H 201.017 2.13539 -4.5078 0
M  V30 2190 H 200.171 4.45813 -4.11505 0
M  V30 2191 H 198.91 3.83357 -3.01477 0
M  V30 2192 H 197.915 2.5017 -4.89587 0
M  V30 2193 H 199.14 3.15637 -6.0129 0
M  V30 2194 H 197.086 4.79361 -4.47827 0
M  V30 2195 H 197.003 4.38274 -6.15996 0
M  V30 2196 H 198.271 5.42858 -5.59397 0
M  V30 2197 N 202.5 1.5196 0.417844 0
M  V30 2198 C 203.746 1.65836 1.16732 0
M  V30 2199 C 204.079 0.382881 1.90388 0
M  V30 2200 O 203.354 -0.618368 1.84408 0
M  V30 2201 C 203.637 2.87466 2.16876 0
M  V30 2202 C 203.49 4.25041 1.47174 0
M  V30 2203 C 204.809 3.04613 3.17646 0
M  V30 2204 H 201.928 0.603515 0.423011 0
M  V30 2205 H 204.57 1.84494 0.454105 0
M  V30 2206 H 202.72 2.71689 2.777 0
M  V30 2207 H 204.392 4.52527 0.895376 0
M  V30 2208 H 202.635 4.26843 0.773806 0
M  V30 2209 H 203.306 5.06176 2.20204 0
M  V30 2210 H 205.782 3.1923 2.66892 0
M  V30 2211 H 204.658 3.91247 3.8499 0
M  V30 2212 H 204.919 2.17541 3.84874 0
M  V30 2213 N 203.978 -0.674533 1.42435 0
M  V30 2214 C 205.224 -1.43671 1.43131 0
M  V30 2215 C 205.557 -1.94142 0.0476021 0
M  V30 2216 O 204.832 -1.70924 -0.928188 0
M  V30 2217 C 205.115 -2.63355 2.45594 0
M  V30 2218 C 204.968 -2.18514 3.93156 0
M  V30 2219 C 206.287 -3.65571 2.45043 0
M  V30 2220 H 203.406 -0.521077 0.521198 0
M  V30 2221 H 206.048 -0.766551 1.7385 0
M  V30 2222 H 204.198 -3.2053 2.19528 0
M  V30 2223 H 205.87 -1.66504 4.30202 0
M  V30 2224 H 204.113 -1.50086 4.07009 0
M  V30 2225 H 204.784 -3.04484 4.60428 0
M  V30 2226 H 207.26 -3.18113 2.68223 0
M  V30 2227 H 206.136 -4.46893 3.18713 0
M  V30 2228 H 206.397 -4.16716 1.47649 0
M  V30 2229 N 205.456 -1.28612 -0.910864 0
M  V30 2230 C 206.386 -1.15326 -2.03032 0
M  V30 2231 C 207.367 -0.0502924 -1.70026 0
M  V30 2232 O 208.552 -0.227797 -1.92859 0
M  V30 2233 C 205.682 -0.817343 -3.37545 0
M  V30 2234 C 204.636 -1.8754 -3.84724 0
M  V30 2235 C 203.962 -1.39305 -5.16235 0
M  V30 2236 C 205.262 -3.28244 -4.06267 0
M  V30 2237 H 206.956 -2.08975 -2.14406 0
M  V30 2238 H 204.502 -1.00612 -1.03021 0
M  V30 2239 H 206.455 -0.711151 -4.15356 0
M  V30 2240 H 205.179 0.154846 -3.26233 0
M  V30 2241 H 203.838 -1.97079 -3.09121 0
M  V30 2242 H 203.486 -0.409846 -5.01328 0
M  V30 2243 H 203.186 -2.10057 -5.48771 0
M  V30 2244 H 204.71 -1.30014 -5.96598 0
M  V30 2245 H 206.124 -3.21611 -4.74594 0
M  V30 2246 H 204.521 -3.96855 -4.5014 0
M  V30 2247 H 205.591 -3.72048 -3.10979 0
M  V30 2248 N 206.934 1.1197 -1.10907 0
M  V30 2249 C 208.183 1.82947 -0.849302 0
M  V30 2250 C 208.496 1.85275 0.627112 0
M  V30 2251 O 209.702 2.52296 1.00295 0
M  V30 2252 C 208.158 3.28529 -1.46959 0
M  V30 2253 C 207.766 3.34546 -2.97965 0
M  V30 2254 C 209.51 4.04443 -1.28942 0
M  V30 2255 C 207.417 4.74491 -3.53004 0
M  V30 2256 H 206.347 0.685477 -0.314065 0
M  V30 2257 H 208.998 1.2604 -1.33365 0
M  V30 2258 H 207.38 3.85333 -0.912917 0
M  V30 2259 H 208.554 2.87654 -3.59989 0
M  V30 2260 H 206.869 2.72108 -3.15192 0
M  V30 2261 H 209.466 5.07787 -1.67502 0
M  V30 2262 H 209.809 4.15656 -0.231456 0
M  V30 2263 H 210.342 3.5401 -1.81443 0
M  V30 2264 H 207.081 4.68474 -4.58489 0
M  V30 2265 H 206.601 5.21816 -2.9575 0
M  V30 2266 H 208.28 5.4344 -3.51115 0
M  V30 2267 N 208.412 0.89855 1.29475 0
M  V30 2268 C 209.362 0.346767 2.25348 0
M  V30 2269 C 210.346 -0.532509 1.51833 0
M  V30 2270 O 211.538 -0.374714 1.72988 0
M  V30 2271 C 208.667 -0.425681 3.40651 0
M  V30 2272 C 207.753 0.46845 4.21505 0
M  V30 2273 N 208.144 1.57514 4.80648 0
M  V30 2274 C 206.442 0.26603 4.45206 0
M  V30 2275 C 207.143 2.12889 5.41344 0
M  V30 2276 N 206.119 1.42208 5.24669 0
M  V30 2277 H 209.921 1.19219 2.68634 0
M  V30 2278 H 207.435 0.749473 1.44072 0
M  V30 2279 H 209.432 -0.837716 4.08397 0
M  V30 2280 H 208.092 -1.26838 2.98902 0
M  V30 2281 H 209.103 1.95789 4.79465 0
M  V30 2282 H 205.78 -0.538394 4.14014 0
M  V30 2283 H 207.17 3.05901 5.98226 0
M  V30 2284 N 209.89 -1.43072 0.660911 0
M  V30 2285 C 211.138 -2.01323 0.177094 0
M  V30 2286 C 211.459 -1.5245 -1.2159 0
M  V30 2287 O 210.729 -0.740322 -1.81373 0
M  V30 2288 H 209.309 -0.744382 0.0624804 0
M  V30 2289 H 211.971 -1.75179 0.854305 0
M  V30 2290 H 211.067 -3.11649 0.167641 0
M  V30 2291 N 211.368 -0.403325 -1.52352 0
M  V30 2292 C 212.614 0.174605 -2.02047 0
M  V30 2293 C 212.947 1.45282 -1.28867 0
M  V30 2294 O 212.222 1.90483 -0.393257 0
M  V30 2295 C 212.505 0.428238 -3.57545 0
M  V30 2296 C 212.358 -0.866248 -4.4138 0
M  V30 2297 C 213.677 1.21287 -4.23057 0
M  V30 2298 H 210.796 0.0619851 -0.734389 0
M  V30 2299 H 213.438 -0.53565 -1.82293 0
M  V30 2300 H 211.588 1.03327 -3.74507 0
M  V30 2301 H 213.26 -1.50265 -4.3614 0
M  V30 2302 H 211.503 -1.47851 -4.07827 0
M  V30 2303 H 212.174 -0.643249 -5.48239 0
M  V30 2304 H 214.65 0.700703 -4.10158 0
M  V30 2305 H 213.526 1.35909 -5.31808 0
M  V30 2306 H 213.787 2.23193 -3.81625 0
M  V30 2307 N 212.846 1.57033 -0.133567 0
M  V30 2308 C 214.262 1.58035 0.222944 0
M  V30 2309 C 214.462 1.14713 1.6566 0
M  V30 2310 O 213.518 0.841218 2.38075 0
M  V30 2311 C 214.831 3.00691 -0.0236116 0
M  V30 2312 C 216.379 3.12973 0.0411512 0
M  V30 2313 C 216.854 4.57654 -0.177899 0
M  V30 2314 N 218.345 4.63033 -0.124365 0
M  V30 2315 C 219.08 5.72771 -0.268553 0
M  V30 2316 N 218.576 6.91206 -0.46972 0
M  V30 2317 N 220.369 5.61718 -0.2071 0
M  V30 2318 H 212.52 1.8349 -1.06981 0
M  V30 2319 H 214.783 0.848677 -0.422436 0
M  V30 2320 H 214.489 3.36726 -1.0153 0
M  V30 2321 H 214.363 3.70614 0.701808 0
M  V30 2322 H 216.75 2.76787 1.02338 0
M  V30 2323 H 216.831 2.45564 -0.716383 0
M  V30 2324 H 216.475 4.94542 -1.15717 0
M  V30 2325 H 216.405 5.23173 0.599797 0
M  V30 2326 H 218.896 3.7789 0.027011 0
M  V30 2327 H 219.209 7.70693 -0.570212 0
M  V30 2328 H 217.554 6.93156 -0.505876 0
M  V30 2329 H 220.745 4.68072 -0.0507986 0
M  V30 2330 H 220.918 6.47195 -0.322909 0
M  V30 2331 N 214.325 -0.140222 1.56975 0
M  V30 2332 C 215.257 -1.19818 1.95388 0
M  V30 2333 C 216.27 -1.38816 0.850525 0
M  V30 2334 O 217.459 -1.38267 1.12891 0
M  V30 2335 C 214.559 -2.56189 2.21857 0
M  V30 2336 C 213.732 -2.58077 3.5315 0
M  V30 2337 C 212.791 -3.76037 3.6808 0
M  V30 2338 O 211.817 -3.60598 4.40406 0
M  V30 2339 N 213.019 -4.93763 3.05251 0
M  V30 2340 H 215.784 -0.871609 2.86746 0
M  V30 2341 H 213.345 -0.32972 1.58507 0
M  V30 2342 H 215.337 -3.33623 2.2908 0
M  V30 2343 H 213.907 -2.81111 1.36731 0
M  V30 2344 H 213.127 -1.6651 3.57307 0
M  V30 2345 H 214.415 -2.56377 4.39486 0
M  V30 2346 H 213.813 -5.09209 2.46419 0
M  V30 2347 H 212.37 -5.68949 3.18026 0
M  V30 2348 N 215.803 -1.52179 -0.40978 0
M  V30 2349 C 217.049 -1.66453 -1.15851 0
M  V30 2350 C 217.382 -0.392972 -1.90182 0
M  V30 2351 O 216.657 0.608579 -1.84734 0
M  V30 2352 C 216.94 -2.88612 -2.15349 0
M  V30 2353 C 216.793 -4.25815 -1.44918 0
M  V30 2354 C 218.112 -3.06294 -3.16026 0
M  V30 2355 H 215.231 -0.60575 -0.419805 0
M  V30 2356 H 217.873 -1.84732 -0.444314 0
M  V30 2357 H 216.023 -2.73158 -2.76255 0
M  V30 2358 H 217.695 -4.52995 -0.871365 0
M  V30 2359 H 215.938 -4.27247 -0.751159 0
M  V30 2360 H 216.609 -5.07337 -2.17516 0
M  V30 2361 H 219.085 -3.20641 -2.65195 0
M  V30 2362 H 217.961 -3.93283 -3.8291 0
M  V30 2363 H 218.222 -2.19579 -3.83715 0
M  V30 2364 N 217.281 0.66697 -1.42791 0
M  V30 2365 C 218.229 1.80157 -1.47127 0
M  V30 2366 C 219.223 1.65825 -0.346199 0
M  V30 2367 O 220.429 1.72338 -0.519572 0
M  V30 2368 H 216.804 0.594158 -0.460956 0
M  V30 2369 H 218.775 1.73619 -2.42692 0
M  V30 2370 C 217.524 3.18351 -1.39813 0
M  V30 2371 H 216.847 3.3001 -2.25684 0
M  V30 2372 H 218.287 3.97736 -1.46908 0
M  V30 2373 C 216.746 3.36707 -0.11391 0
M  V30 2374 O 217.276 3.93027 0.830241 0
M  V30 2375 N 215.482 2.90586 -0.0285295 0
M  V30 2376 H 215.029 2.4494 -0.79764 0
M  V30 2377 H 214.987 3.03245 0.830063 0
M  V30 2378 N 218.759 1.29093 0.90403 0
M  V30 2379 C 219.669 1.15727 2.0407 0
M  V30 2380 C 220.685 0.0815308 1.73809 0
M  V30 2381 O 221.861 0.292749 1.99261 0
M  V30 2382 C 218.926 0.830424 3.36608 0
M  V30 2383 C 217.987 1.98955 3.80415 0
M  V30 2384 C 217.22 1.6782 5.06628 0
M  V30 2385 O 217.443 0.597105 5.67266 0
M  V30 2386 O 216.377 2.52486 5.46383 0
M  V30 2387 H 220.203 2.11171 2.18267 0
M  V30 2388 H 217.788 1.08504 1.027 0
M  V30 2389 H 219.67 0.662521 4.16159 0
M  V30 2390 H 218.345 -0.0942678 3.23563 0
M  V30 2391 H 217.252 2.21267 3.01648 0
M  V30 2392 H 218.585 2.89529 3.98037 0
M  V30 2393 N 220.237 -1.11381 1.11499 0
M  V30 2394 C 221.167 -2.19509 0.796125 0
M  V30 2395 C 222.148 -1.68458 -0.235796 0
M  V30 2396 O 223.333 -1.93947 -0.0991344 0
M  V30 2397 C 220.463 -3.46475 0.239205 0
M  V30 2398 C 219.417 -4.10744 1.20307 0
M  V30 2399 C 218.743 -5.32293 0.50683 0
M  V30 2400 C 220.043 -4.55597 2.55399 0
M  V30 2401 H 221.737 -2.46439 1.70024 0
M  V30 2402 H 219.283 -1.18446 0.818935 0
M  V30 2403 H 221.236 -4.214 0.00392006 0
M  V30 2404 H 219.96 -3.19006 -0.700206 0
M  V30 2405 H 218.619 -3.37813 1.42399 0
M  V30 2406 H 218.267 -5.01095 -0.437408 0
M  V30 2407 H 217.967 -5.76243 1.1497 0
M  V30 2408 H 219.491 -6.09956 0.280351 0
M  V30 2409 H 220.905 -5.21841 2.37391 0
M  V30 2410 H 219.302 -5.10363 3.15673 0
M  V30 2411 H 220.372 -3.69013 3.14575 0
M  V30 2412 N 221.715 -0.905404 -1.28997 0
M  V30 2413 C 222.678 -0.392253 -2.25819 0
M  V30 2414 C 223.678 0.476753 -1.5357 0
M  V30 2415 O 224.868 0.280994 -1.71919 0
M  V30 2416 C 222 0.438588 -3.38067 0
M  V30 2417 H 223.193 -1.24743 -2.72725 0
M  V30 2418 H 220.746 -0.684051 -1.40536 0
M  V30 2419 H 221.481 1.31352 -2.96508 0
M  V30 2420 H 221.266 -0.184167 -3.91667 0
M  V30 2421 H 222.756 0.78873 -4.10084 0
M  V30 2422 N 223.193 1.4272 -0.668489 0
M  V30 2423 C 224.423 2.05668 -0.196063 0
M  V30 2424 C 224.831 1.5028 1.14946 0
M  V30 2425 O 224.174 0.6348 1.72383 0
M  V30 2426 C 224.236 3.59469 -0.0468879 0
M  V30 2427 C 223.9 4.37518 -1.32012 0
M  V30 2428 C 224.897 4.68584 -2.25222 0
M  V30 2429 C 222.582 4.77266 -1.56596 0
M  V30 2430 C 224.576 5.38326 -3.41297 0
M  V30 2431 C 222.263 5.4675 -2.72962 0
M  V30 2432 C 223.261 5.77204 -3.65137 0
M  V30 2433 O 222.949 6.45264 -4.79468 0
M  V30 2434 H 222.681 0.669382 -0.0943599 0
M  V30 2435 H 225.235 1.83954 -0.913788 0
M  V30 2436 H 223.465 3.79817 0.726357 0
M  V30 2437 H 225.154 4.04071 0.384852 0
M  V30 2438 H 225.92 4.38382 -2.07477 0
M  V30 2439 H 221.799 4.52959 -0.857249 0
M  V30 2440 H 225.343 5.62014 -4.13263 0
M  V30 2441 H 221.24 5.76369 -2.90635 0
M  V30 2442 H 222.008 6.63753 -4.78931 0
M  V30 2443 N 224.671 0.411399 1.52136 0
M  V30 2444 C 225.603 -0.448386 2.24771 0
M  V30 2445 C 226.616 -1.00828 1.27818 0
M  V30 2446 O 227.805 -0.906841 1.53749 0
M  V30 2447 C 224.905 -1.63636 2.96777 0
M  V30 2448 C 224.078 -1.19995 4.20618 0
M  V30 2449 C 223.137 -2.25509 4.75428 0
M  V30 2450 O 222.163 -1.86007 5.3795 0
M  V30 2451 N 223.365 -3.577 4.57199 0
M  V30 2452 H 226.13 0.174025 2.99194 0
M  V30 2453 H 223.691 0.238897 1.60128 0
M  V30 2454 H 225.683 -2.33793 3.30338 0
M  V30 2455 H 224.253 -2.16465 2.25526 0
M  V30 2456 H 223.473 -0.326421 3.92846 0
M  V30 2457 H 224.761 -0.885365 5.01038 0
M  V30 2458 H 224.159 -3.92543 4.07341 0
M  V30 2459 H 222.716 -4.23827 4.95191 0
M  V30 2460 N 226.149 -1.5696 0.141893 0
M  V30 2461 C 227.081 -2.13619 -0.830627 0
M  V30 2462 C 228.094 -1.08439 -1.21428 0
M  V30 2463 O 229.283 -1.35734 -1.15925 0
M  V30 2464 C 226.383 -2.63978 -2.12529 0
M  V30 2465 C 225.556 -3.93504 -1.9098 0
M  V30 2466 C 224.615 -4.29225 -3.04388 0
M  V30 2467 O 223.641 -4.97641 -2.76302 0
M  V30 2468 N 224.843 -3.88393 -4.31429 0
M  V30 2469 H 227.608 -2.97691 -0.34641 0
M  V30 2470 H 225.169 -1.61846 -0.0418375 0
M  V30 2471 H 227.161 -2.84891 -2.87436 0
M  V30 2472 H 225.731 -1.84659 -2.52229 0
M  V30 2473 H 224.951 -3.81269 -1.00139 0
M  V30 2474 H 226.239 -4.78154 -1.73914 0
M  V30 2475 H 225.637 -3.33257 -4.57117 0
M  V30 2476 H 224.194 -4.14368 -5.03133 0
M  V30 2477 N 227.627 0.131896 -1.57047 0
M  V30 2478 C 228.874 0.841932 -1.84168 0
M  V30 2479 C 229.202 1.8048 -0.725066 0
M  V30 2480 O 228.457 1.93618 0.284692 0
M  V30 2481 C 228.756 1.63703 -3.17704 0
M  V30 2482 C 228.422 0.81961 -4.43388 0
M  V30 2483 C 227.084 0.594148 -4.77518 0
M  V30 2484 C 229.436 0.248977 -5.20605 0
M  V30 2485 C 226.764 -0.212409 -5.86315 0
M  V30 2486 C 229.116 -0.544701 -6.30251 0
M  V30 2487 C 227.78 -0.780599 -6.6292 0
M  V30 2488 H 227.05 0.308085 -0.673917 0
M  V30 2489 H 229.697 0.104867 -1.91213 0
M  V30 2490 H 228.002 2.44464 -3.06177 0
M  V30 2491 H 229.699 2.19015 -3.35907 0
M  V30 2492 H 226.289 1.00542 -4.16641 0
M  V30 2493 H 230.473 0.410408 -4.946 0
M  V30 2494 H 225.729 -0.404524 -6.1006 0
M  V30 2495 H 229.903 -0.993922 -6.89271 0
M  V30 2496 H 227.53 -1.40742 -7.47058 0
M  V30 2497 N 229.106 1.52395 0.401703 0
M  V30 2498 C 230.355 1.66044 1.14509 0
M  V30 2499 C 230.668 0.400216 1.91462 0
M  V30 2500 O 231.874 0.416632 2.68284 0
M  V30 2501 C 230.33 2.93388 2.0845 0
M  V30 2502 C 229.938 4.26545 1.36978 0
M  V30 2503 C 231.682 3.16402 2.83001 0
M  V30 2504 C 229.589 5.45007 2.29611 0
M  V30 2505 H 228.519 0.618562 0.431158 0
M  V30 2506 H 231.17 1.78886 0.40892 0
M  V30 2507 H 229.552 2.74263 2.8565 0
M  V30 2508 H 230.726 4.56179 0.650916 0
M  V30 2509 H 229.041 4.09692 0.74438 0
M  V30 2510 H 231.638 4.02085 3.52465 0
M  V30 2511 H 231.981 2.30943 3.46368 0
M  V30 2512 H 232.514 3.36034 2.12898 0
M  V30 2513 H 229.253 6.32835 1.70879 0
M  V30 2514 H 228.773 5.19702 2.9945 0
M  V30 2515 H 230.452 5.7838 2.89974 0
M  V30 2516 N 230.584 -0.659388 1.43143 0
M  V30 2517 C 231.812 -1.44723 1.47861 0
M  V30 2518 C 232.227 -1.88563 0.0945886 0
M  V30 2519 O 231.584 -1.59108 -0.893915 0
M  V30 2520 C 231.635 -2.68627 2.41913 0
M  V30 2521 O 231.356 -2.26623 3.74932 0
M  V30 2522 C 232.857 -3.62045 2.55809 0
M  V30 2523 H 230.077 -0.444801 0.502387 0
M  V30 2524 H 232.621 -0.808916 1.87821 0
M  V30 2525 H 230.776 -3.28613 2.05164 0
M  V30 2526 H 231.19 -3.06745 4.2545 0
M  V30 2527 H 232.664 -4.45666 3.25708 0
M  V30 2528 H 233.141 -4.08981 1.60099 0
M  V30 2529 H 233.747 -3.07944 2.93344 0
M  V30 2530 N 232.062 -1.29571 -0.897171 0
M  V30 2531 C 232.972 -1.16808 -2.03453 0
M  V30 2532 C 233.988 -0.0907471 -1.73763 0
M  V30 2533 O 235.164 -0.303312 -1.99103 0
M  V30 2534 C 232.229 -0.848264 -3.36163 0
M  V30 2535 C 231.29 -2.0097 -3.79354 0
M  V30 2536 C 230.523 -1.70505 -5.05731 0
M  V30 2537 O 230.746 -0.62718 -5.66941 0
M  V30 2538 O 229.68 -2.5538 -5.45036 0
M  V30 2539 H 233.506 -2.12325 -2.17144 0
M  V30 2540 H 231.091 -1.09047 -1.02123 0
M  V30 2541 H 232.973 -0.684581 -4.15802 0
M  V30 2542 H 231.648 0.0771071 -3.23608 0
M  V30 2543 H 230.555 -2.22863 -3.00471 0
M  V30 2544 H 231.888 -2.91636 -3.96496 0
M  V30 2545 N 233.54 1.10788 -1.12088 0
M  V30 2546 C 234.49 2.15158 -0.754401 0
M  V30 2547 C 235.474 1.59026 0.244846 0
M  V30 2548 O 236.666 1.76927 0.0509097 0
M  V30 2549 C 233.795 3.42677 -0.206657 0
M  V30 2550 C 232.881 4.05751 -1.23398 0
M  V30 2551 N 233.272 4.43582 -2.43041 0
M  V30 2552 C 231.57 4.32764 -1.07848 0
M  V30 2553 C 232.271 4.93085 -3.08613 0
M  V30 2554 N 231.247 4.89664 -2.36072 0
M  V30 2555 H 235.049 2.42195 -1.6649 0
M  V30 2556 H 232.563 1.27872 -1.00112 0
M  V30 2557 H 234.56 4.16834 0.0740646 0
M  V30 2558 H 233.22 3.17101 0.698342 0
M  V30 2559 H 234.231 4.35395 -2.80449 0
M  V30 2560 H 230.908 4.16863 -0.230483 0
M  V30 2561 H 232.298 5.31933 -4.10483 0
M  V30 2562 N 235.018 0.912232 1.28515 0
M  V30 2563 C 235.948 0.416403 2.29757 0
M  V30 2564 C 236.929 -0.515194 1.6211 0
M  V30 2565 O 238.114 -0.423253 1.89532 0
M  V30 2566 C 235.244 -0.34572 3.45575 0
M  V30 2567 C 234.198 0.496599 4.25109 0
M  V30 2568 C 233.524 -0.393771 5.33248 0
M  V30 2569 C 234.824 1.75307 4.92001 0
M  V30 2570 H 236.518 1.26249 2.7148 0
M  V30 2571 H 234.064 0.608515 1.30511 0
M  V30 2572 H 236.017 -0.703422 4.15488 0
M  V30 2573 H 234.741 -1.2257 3.02728 0
M  V30 2574 H 233.4 0.8368 3.56922 0
M  V30 2575 H 233.048 -1.27225 4.86644 0
M  V30 2576 H 232.748 0.166209 5.87365 0
M  V30 2577 H 234.272 -0.747389 6.06009 0
M  V30 2578 H 235.686 1.46437 5.54283 0
M  V30 2579 H 234.083 2.25534 5.56106 0
M  V30 2580 H 235.153 2.48176 4.16577 0
M  V30 2581 N 236.496 -1.42363 0.676048 0
M  V30 2582 C 237.907 -1.84649 0.275948 0
M  V30 2583 C 238.258 -1.56588 -1.18214 0
M  V30 2584 O 237.383 -1.02634 -1.90513 0
M  V30 2585 C 237.978 -3.35178 0.494053 0
M  V30 2586 C 236.537 -3.76109 0.148061 0
M  V30 2587 C 235.684 -2.65931 0.785891 0
M  V30 2588 H 238.635 -1.32192 0.878121 0
M  V30 2589 H 238.656 -3.79655 -0.25343 0
M  V30 2590 H 238.168 -3.55571 1.55535 0
M  V30 2591 H 236.269 -3.61323 -0.909742 0
M  V30 2592 H 236.382 -4.7546 0.589454 0
M  V30 2593 H 234.746 -2.53773 0.217113 0
M  V30 2594 H 235.529 -2.89146 1.85067 0
M  V30 2595 N 237.974 -0.419461 -1.51915 0
M  V30 2596 C 238.906 0.43646 -2.25006 0
M  V30 2597 C 239.919 1.00149 -1.28351 0
M  V30 2598 O 241.108 0.898674 -1.54227 0
M  V30 2599 C 238.208 1.6206 -2.9764 0
M  V30 2600 C 237.381 1.17763 -4.21249 0
M  V30 2601 C 236.44 2.22985 -4.76617 0
M  V30 2602 O 235.466 1.83151 -5.38929 0
M  V30 2603 N 236.668 3.55271 -4.59089 0
M  V30 2604 H 239.433 -0.18989 -2.99098 0
M  V30 2605 H 236.994 -0.247386 -1.59999 0
M  V30 2606 H 238.986 2.32038 -3.31573 0
M  V30 2607 H 237.556 2.15266 -2.2667 0
M  V30 2608 H 236.776 0.305582 -3.93014 0
M  V30 2609 H 238.064 0.858781 -5.015 0
M  V30 2610 H 237.462 3.90377 -4.09417 0
M  V30 2611 H 236.019 4.21195 -4.97432 0
M  V30 2612 N 239.452 1.56882 -0.150215 0
M  V30 2613 C 240.677 2.01027 0.510184 0
M  V30 2614 C 241.102 1.02966 1.57415 0
M  V30 2615 O 240.46 0.00590158 1.81299 0
M  V30 2616 C 240.508 3.43899 1.08472 0
M  V30 2617 O 239.612 3.4885 2.19948 0
M  V30 2618 H 238.953 0.652233 0.124451 0
M  V30 2619 H 241.483 2.03093 -0.247894 0
M  V30 2620 H 241.493 3.82766 1.41259 0
M  V30 2621 H 240.168 4.14776 0.305582 0
M  V30 2622 H 238.745 3.21827 1.88366 0
M  V30 2623 N 240.93 -0.123565 1.57115 0
M  V30 2624 C 241.84 -1.17074 2.033 0
M  V30 2625 C 242.856 -1.4561 0.952559 0
M  V30 2626 O 244.032 -1.56817 1.26374 0
M  V30 2627 C 241.097 -2.47857 2.42421 0
M  V30 2628 C 240.158 -2.26758 3.64526 0
M  V30 2629 C 239.391 -3.51305 4.01771 0
M  V30 2630 O 239.614 -4.5843 3.39409 0
M  V30 2631 O 238.548 -3.42578 4.94898 0
M  V30 2632 H 242.374 -0.808555 2.92739 0
M  V30 2633 H 239.959 -0.334027 1.45618 0
M  V30 2634 H 241.841 -3.2492 2.68338 0
M  V30 2635 H 240.516 -2.83558 1.5613 0
M  V30 2636 H 239.423 -1.47569 3.43765 0
M  V30 2637 H 240.756 -1.95963 4.51508 0
M  V30 2638 N 242.408 -1.52605 -0.393616 0
M  V30 2639 C 243.638 -1.71046 -1.15874 0
M  V30 2640 C 244.046 -0.426483 -1.84331 0
M  V30 2641 O 243.389 0.608513 -1.73329 0
M  V30 2642 C 243.451 -2.80118 -2.25332 0
M  V30 2643 C 243.115 -4.21381 -1.76881 0
M  V30 2644 C 244.112 -5.04697 -1.24808 0
M  V30 2645 C 241.797 -4.67683 -1.83244 0
M  V30 2646 C 243.791 -6.32393 -0.797387 0
M  V30 2647 C 241.478 -5.95364 -1.37787 0
M  V30 2648 C 242.476 -6.77549 -0.861208 0
M  V30 2649 O 242.164 -8.02837 -0.413252 0
M  V30 2650 H 241.896 -0.576155 -0.353583 0
M  V30 2651 H 244.45 -2.00018 -0.467123 0
M  V30 2652 H 242.68 -2.46557 -2.97904 0
M  V30 2653 H 244.369 -2.87006 -2.87023 0
M  V30 2654 H 245.135 -4.70111 -1.19252 0
M  V30 2655 H 241.014 -4.03805 -2.22401 0
M  V30 2656 H 244.558 -6.9649 -0.393437 0
M  V30 2657 H 240.455 -6.29455 -1.43026 0
M  V30 2658 H 241.223 -8.16749 -0.53515 0
M  V30 2659 N 243.887 0.651787 -1.4349 0
M  V30 2660 C 245.134 1.41167 -1.45183 0
M  V30 2661 C 245.462 1.94349 -0.0766601 0
M  V30 2662 O 244.717 1.72804 0.918555 0
M  V30 2663 C 245.016 2.60914 -2.44251 0
M  V30 2664 C 244.682 2.26142 -3.9009 0
M  V30 2665 C 243.344 2.16371 -4.2981 0
M  V30 2666 C 245.696 1.98334 -4.81989 0
M  V30 2667 C 243.024 1.7695 -5.5938 0
M  V30 2668 C 245.376 1.6041 -6.11924 0
M  V30 2669 C 244.04 1.49166 -6.5062 0
M  V30 2670 H 243.31 0.516566 -0.531263 0
M  V30 2671 H 245.957 0.741099 -1.76579 0
M  V30 2672 H 244.262 3.3311 -2.06265 0
M  V30 2673 H 245.959 3.19127 -2.42815 0
M  V30 2674 H 242.549 2.34658 -3.58655 0
M  V30 2675 H 246.733 2.04803 -4.52072 0
M  V30 2676 H 241.989 1.66831 -5.88198 0
M  V30 2677 H 246.163 1.37925 -6.82605 0
M  V30 2678 H 243.79 1.1839 -7.50925 0
M  V30 2679 N 245.365 1.30045 0.890287 0
M  V30 2680 C 246.613 1.18327 1.63839 0
M  V30 2681 C 246.934 -0.263455 1.93212 0
M  V30 2682 O 246.204 -1.17856 1.56482 0
M  V30 2683 H 244.784 0.434933 0.607324 0
M  V30 2684 H 247.446 1.631 1.06698 0
M  V30 2685 H 246.542 1.74024 2.59079 0
M  V30 2686 N 246.843 -1.10192 1.12674 0
M  V30 2687 C 247.753 -2.20172 0.810026 0
M  V30 2688 C 248.769 -1.72821 -0.202188 0
M  V30 2689 O 249.945 -2.01369 -0.0351691 0
M  V30 2690 C 247.01 -3.45631 0.272007 0
M  V30 2691 C 246.071 -4.07704 1.34447 0
M  V30 2692 C 245.304 -5.27175 0.832029 0
M  V30 2693 O 245.527 -5.69425 -0.333284 0
M  V30 2694 O 244.461 -5.80168 1.60277 0
M  V30 2695 H 248.287 -2.49701 1.72867 0
M  V30 2696 H 245.872 -1.18977 0.903597 0
M  V30 2697 H 247.754 -4.21394 -0.0230219 0
M  V30 2698 H 246.429 -3.17723 -0.619164 0
M  V30 2699 H 245.336 -3.33614 1.6927 0
M  V30 2700 H 246.669 -4.3982 2.2095 0
M  V30 2701 N 248.321 -0.919034 -1.28029 0
M  V30 2702 C 249.284 -0.416182 -2.2539 0
M  V30 2703 C 250.284 0.460438 -1.54067 0
M  V30 2704 O 251.474 0.262744 -1.72207 0
M  V30 2705 C 248.606 0.402707 -3.38513 0
M  V30 2706 H 249.799 -1.27629 -2.71387 0
M  V30 2707 H 247.352 -0.698919 -1.39803 0
M  V30 2708 H 248.087 1.282 -2.97885 0
M  V30 2709 H 247.872 -0.225698 -3.9145 0
M  V30 2710 H 249.362 0.745191 -4.10897 0
M  V30 2711 N 249.799 1.42003 -0.683588 0
M  V30 2712 C 251.045 2.01712 -0.209825 0
M  V30 2713 C 251.378 1.53968 1.18353 0
M  V30 2714 O 250.653 0.745661 1.79639 0
M  V30 2715 C 250.936 3.59202 -0.254197 0
M  V30 2716 C 250.789 4.17102 -1.68363 0
M  V30 2717 C 252.108 4.38344 0.392709 0
M  V30 2718 H 249.227 0.732891 -0.0777189 0
M  V30 2719 H 251.869 1.68909 -0.87004 0
M  V30 2720 H 250.019 3.87278 0.307954 0
M  V30 2721 H 251.691 3.99946 -2.29871 0
M  V30 2722 H 249.934 3.72597 -2.22157 0
M  V30 2723 H 250.605 5.26249 -1.6663 0
M  V30 2724 H 253.081 4.16011 -0.0859162 0
M  V30 2725 H 251.957 5.47901 0.331063 0
M  V30 2726 H 252.218 4.16887 1.47164 0
M  V30 2727 N 251.277 0.427512 1.51691 0
M  V30 2728 C 252.224 -0.388867 2.275 0
M  V30 2729 C 253.194 -1.02532 1.30677 0
M  V30 2730 O 254.379 -1.0461 1.59566 0
M  V30 2731 C 251.519 -1.48954 3.11298 0
M  V30 2732 C 250.632 -0.872194 4.23104 0
M  V30 2733 C 249.767 -1.94709 4.94228 0
M  V30 2734 C 248.806 -1.30766 5.97969 0
M  V30 2735 N 247.943 -2.32349 6.62539 0
M  V30 2736 H 252.783 0.263997 2.96828 0
M  V30 2737 H 250.32 0.142033 1.46413 0
M  V30 2738 H 252.278 -2.13887 3.58201 0
M  V30 2739 H 250.908 -2.11217 2.44105 0
M  V30 2740 H 249.96 -0.111419 3.80237 0
M  V30 2741 H 251.272 -0.365264 4.97461 0
M  V30 2742 H 250.426 -2.67327 5.44629 0
M  V30 2743 H 249.165 -2.48773 4.1948 0
M  V30 2744 H 248.17 -0.566902 5.4687 0
M  V30 2745 H 249.395 -0.774483 6.74669 0
M  V30 2746 H 247.341 -2.85511 5.90609 0
M  V30 2747 H 247.258 -1.8652 7.3263 0
M  V30 2748 H 248.526 -3.04481 7.17574 0
M  V30 2749 N 252.755 -1.56801 0.158532 0
M  V30 2750 C 253.665 -2.20916 -0.789518 0
M  V30 2751 C 254.681 -1.1969 -1.26294 0
M  V30 2752 O 255.857 -1.52308 -1.31773 0
M  V30 2753 C 252.922 -2.82727 -2.00665 0
M  V30 2754 C 251.983 -3.99114 -1.58134 0
M  V30 2755 C 251.216 -4.57968 -2.74045 0
M  V30 2756 O 251.439 -4.15704 -3.90572 0
M  V30 2757 O 250.373 -5.48047 -2.48855 0
M  V30 2758 H 254.199 -3.02464 -0.273681 0
M  V30 2759 H 251.784 -1.4924 -0.0690548 0
M  V30 2760 H 253.666 -3.21968 -2.71872 0
M  V30 2761 H 252.341 -2.04184 -2.51179 0
M  V30 2762 H 251.248 -3.64567 -0.839155 0
M  V30 2763 H 252.581 -4.79212 -1.12325 0
M  V30 2764 N 254.233 0.115231 -1.57178 0
M  V30 2765 C 255.18 1.14115 -2.00615 0
M  V30 2766 C 256.15 1.40939 -0.878941 0
M  V30 2767 O 257.335 1.52741 -1.14345 0
M  V30 2768 C 254.475 2.46156 -2.4187 0
M  V30 2769 C 253.588 2.26236 -3.68024 0
M  V30 2770 C 252.723 3.51534 -3.98243 0
M  V30 2771 C 251.762 3.26787 -5.17568 0
M  V30 2772 N 250.899 4.44298 -5.43639 0
M  V30 2773 H 255.739 0.763743 -2.88047 0
M  V30 2774 H 253.276 0.365615 -1.42484 0
M  V30 2775 H 255.234 3.23189 -2.63827 0
M  V30 2776 H 253.864 2.81783 -1.57475 0
M  V30 2777 H 252.916 1.40102 -3.5366 0
M  V30 2778 H 254.228 2.03929 -4.55208 0
M  V30 2779 H 253.382 4.36984 -4.20868 0
M  V30 2780 H 252.121 3.76876 -3.09541 0
M  V30 2781 H 251.126 2.39729 -4.94783 0
M  V30 2782 H 252.351 3.02812 -6.0785 0
M  V30 2783 H 250.297 4.69754 -4.57895 0
M  V30 2784 H 250.214 4.25109 -6.25154 0
M  V30 2785 H 251.482 5.3087 -5.70786 0
M  V30 2786 N 255.711 1.52812 0.385517 0
M  V30 2787 C 256.641 1.80808 1.47752 0
M  V30 2788 C 257.622 0.660318 1.5676 0
M  V30 2789 O 258.807 0.908246 1.71652 0
M  V30 2790 C 255.937 1.98008 2.85324 0
M  V30 2791 C 254.891 3.13709 2.91154 0
M  V30 2792 C 254.217 3.16169 4.31209 0
M  V30 2793 C 255.517 4.52709 2.60483 0
M  V30 2794 H 257.211 2.72253 1.24573 0
M  V30 2795 H 254.757 1.31003 0.597839 0
M  V30 2796 H 256.71 2.16176 3.61726 0
M  V30 2797 H 255.434 1.03255 3.09848 0
M  V30 2798 H 254.093 2.95329 2.17201 0
M  V30 2799 H 253.741 2.19092 4.52778 0
M  V30 2800 H 253.441 3.93894 4.36029 0
M  V30 2801 H 254.965 3.36496 5.09512 0
M  V30 2802 H 256.379 4.71173 3.26602 0
M  V30 2803 H 254.776 5.32528 2.76648 0
M  V30 2804 H 255.846 4.59186 1.55809 0
M  V30 2805 N 257.189 -0.644168 1.43834 0
M  V30 2806 C 258.438 -1.39985 1.45214 0
M  V30 2807 C 258.751 -1.95421 0.0835494 0
M  V30 2808 O 259.957 -2.71488 -0.0251748 0
M  V30 2809 C 258.413 -2.53384 2.55587 0
M  V30 2810 C 258.021 -2.04517 3.98594 0
M  V30 2811 C 259.765 -3.30685 2.66172 0
M  V30 2812 C 257.672 -3.1518 5.00416 0
M  V30 2813 H 256.602 -0.526005 0.540218 0
M  V30 2814 H 259.253 -0.694367 1.69855 0
M  V30 2815 H 257.635 -3.26446 2.24163 0
M  V30 2816 H 258.809 -1.38405 4.39523 0
M  V30 2817 H 257.124 -1.40068 3.92135 0
M  V30 2818 H 259.721 -4.13158 3.39418 0
M  V30 2819 H 260.064 -3.79312 1.71546 0
M  V30 2820 H 260.597 -2.64708 2.96942 0
M  V30 2821 H 257.336 -2.71511 5.96625 0
M  V30 2822 H 256.856 -3.79974 4.64091 0
M  V30 2823 H 258.535 -3.80166 5.23529 0
M  V30 2824 N 258.668 -1.30515 -0.883378 0
M  V30 2825 C 259.898 -1.22182 -1.66599 0
M  V30 2826 C 260.306 0.217507 -1.87946 0
M  V30 2827 O 259.649 1.1554 -1.42815 0
M  V30 2828 C 259.711 -1.88146 -3.06335 0
M  V30 2829 C 259.375 -3.37476 -3.08154 0
M  V30 2830 C 260.372 -4.33443 -2.87094 0
M  V30 2831 C 258.057 -3.7895 -3.29701 0
M  V30 2832 C 260.051 -5.68858 -2.8754 0
M  V30 2833 C 257.738 -5.14482 -3.29776 0
M  V30 2834 C 258.736 -6.09246 -3.0872 0
M  V30 2835 O 258.424 -7.42302 -3.08615 0
M  V30 2836 H 258.156 -0.423898 -0.52658 0
M  V30 2837 H 260.71 -1.72703 -1.11188 0
M  V30 2838 H 258.94 -1.32157 -3.63416 0
M  V30 2839 H 260.629 -1.7391 -3.66756 0
M  V30 2840 H 261.395 -4.02733 -2.70243 0
M  V30 2841 H 257.274 -3.05631 -3.45124 0
M  V30 2842 H 260.818 -6.428 -2.71024 0
M  V30 2843 H 256.715 -5.44832 -3.46163 0
M  V30 2844 H 257.483 -7.5131 -3.24769 0
M  V30 2845 N 260.146 1.09593 -1.13257 0
M  V30 2846 C 261.376 1.85231 -0.915049 0
M  V30 2847 C 261.784 1.81345 0.539498 0
M  V30 2848 O 261.127 1.20664 1.38513 0
M  V30 2849 C 261.189 3.34275 -1.3229 0
M  V30 2850 C 260.853 3.6191 -2.79052 0
M  V30 2851 C 261.85 3.57777 -3.77216 0
M  V30 2852 C 259.535 3.90309 -3.16171 0
M  V30 2853 C 261.529 3.81652 -5.1051 0
M  V30 2854 C 259.216 4.13839 -4.49644 0
M  V30 2855 C 260.214 4.09502 -5.46623 0
M  V30 2856 O 259.902 4.32426 -6.77689 0
M  V30 2857 H 259.634 0.591997 -0.326367 0
M  V30 2858 H 262.188 1.394 -1.50854 0
M  V30 2859 H 260.418 3.80805 -0.672667 0
M  V30 2860 H 262.107 3.9132 -1.07812 0
M  V30 2861 H 262.873 3.35865 -3.49885 0
M  V30 2862 H 258.752 3.92811 -2.41289 0
M  V30 2863 H 262.296 3.78182 -5.86195 0
M  V30 2864 H 258.193 4.35232 -4.767 0
M  V30 2865 H 258.961 4.49896 -6.83766 0
M  V30 2866 N 261.624 0.925811 1.2754 0
M  V30 2867 C 263.035 0.610102 1.7645 0
M  V30 2868 C 263.386 -0.874723 1.75622 0
M  V30 2869 O 262.511 -1.68444 1.35851 0
M  V30 2870 C 263.106 1.10073 3.20421 0
M  V30 2871 C 261.665 0.835723 3.67005 0
M  V30 2872 C 260.812 1.26054 2.46993 0
M  V30 2873 H 263.763 1.10579 1.13833 0
M  V30 2874 H 263.784 0.447557 3.77859 0
M  V30 2875 H 263.296 2.18143 3.20991 0
M  V30 2876 H 261.397 -0.231249 3.71882 0
M  V30 2877 H 261.51 1.45193 4.56569 0
M  V30 2878 H 259.874 0.679111 2.45479 0
M  V30 2879 H 260.657 2.34984 2.50275 0
M  V30 2880 N 263.102 -1.41638 0.69111 0
M  V30 2881 C 264.33 -2.05628 0.22909 0
M  V30 2882 C 264.745 -1.51992 -1.11999 0
M  V30 2883 O 264.102 -0.666322 -1.69901 0
M  V30 2884 C 264.153 -3.61084 0.173283 0
M  V30 2885 O 263.874 -4.12735 1.46907 0
M  V30 2886 C 265.375 -4.42213 -0.310266 0
M  V30 2887 H 262.595 -0.662327 0.107534 0
M  V30 2888 H 265.139 -1.81489 0.942438 0
M  V30 2889 H 263.294 -3.84278 -0.490858 0
M  V30 2890 H 263.708 -5.06743 1.35322 0
M  V30 2891 H 265.182 -5.51194 -0.298196 0
M  V30 2892 H 265.659 -4.1799 -1.34838 0
M  V30 2893 H 266.265 -4.24074 0.322716 0
M  V30 2894 N 264.58 -0.43555 -1.51462 0
M  V30 2895 C 265.826 0.131709 -2.02372 0
M  V30 2896 C 266.159 1.42516 -1.3192 0
M  V30 2897 O 265.434 1.89606 -0.433573 0
M  V30 2898 C 265.717 0.352301 -3.58373 0
M  V30 2899 C 265.57 -0.959676 -4.39443 0
M  V30 2900 C 266.889 1.12286 -4.25535 0
M  V30 2901 H 264.008 0.0463936 -0.735538 0
M  V30 2902 H 266.65 -0.574197 -1.81116 0
M  V30 2903 H 264.8 0.9536 -3.76615 0
M  V30 2904 H 266.472 -1.59482 -4.32855 0
M  V30 2905 H 264.715 -1.56468 -4.04599 0
M  V30 2906 H 265.386 -0.759394 -5.46752 0
M  V30 2907 H 267.862 0.613545 -4.11552 0
M  V30 2908 H 266.738 1.24598 -5.34571 0
M  V30 2909 H 266.999 2.15048 -3.86273 0
M  V30 2910 N 266.058 1.56714 -0.166846 0
M  V30 2911 C 267.286 2.0112 0.485644 0
M  V30 2912 C 267.701 1.04705 1.57106 0
M  V30 2913 O 267.058 0.0471923 1.82439 0
M  V30 2914 C 267.109 3.45361 1.06808 0
M  V30 2915 O 266.83 4.38092 0.0259995 0
M  V30 2916 C 268.331 4.05145 1.79924 0
M  V30 2917 H 265.551 0.65931 0.124704 0
M  V30 2918 H 268.095 2.02746 -0.267262 0
M  V30 2919 H 266.25 3.44524 1.7715 0
M  V30 2920 H 266.664 5.22519 0.455398 0
M  V30 2921 H 268.138 5.08009 2.15942 0
M  V30 2922 H 268.615 3.46982 2.69258 0
M  V30 2923 H 269.221 4.09672 1.14234 0
M  V30 2924 N 267.536 -0.106894 1.57237 0
M  V30 2925 C 268.952 -0.46078 1.52804 0
M  V30 2926 C 269.152 -1.81184 0.881746 0
M  V30 2927 O 268.208 -2.48102 0.469224 0
M  V30 2928 C 269.521 -0.434127 2.9755 0
M  V30 2929 C 271.069 -0.516821 3.08704 0
M  V30 2930 C 271.544 -0.520436 4.55033 0
M  V30 2931 N 273.035 -0.58153 4.59535 0
M  V30 2932 C 273.77 -0.605973 5.70189 0
M  V30 2933 N 273.266 -0.587331 6.90306 0
M  V30 2934 N 275.059 -0.649895 5.5833 0
M  V30 2935 H 267.21 0.778203 1.9763 0
M  V30 2936 H 269.473 0.288403 0.903066 0
M  V30 2937 H 269.179 0.491197 3.48253 0
M  V30 2938 H 269.053 -1.25748 3.55622 0
M  V30 2939 H 271.44 -1.43256 2.57995 0
M  V30 2940 H 271.521 0.334449 2.53604 0
M  V30 2941 H 271.165 0.391313 5.0639 0
M  V30 2942 H 271.095 -1.38876 5.07958 0
M  V30 2943 H 273.586 -0.60161 3.73081 0
M  V30 2944 H 273.899 -0.60894 7.70397 0
M  V30 2945 H 272.244 -0.554564 6.92784 0
M  V30 2946 H 275.435 -0.661907 4.63397 0
M  V30 2947 H 275.608 -0.665476 6.44574 0
M  V30 2948 N 269.014 -1.53014 -0.377408 0
M  V30 2949 C 269.924 -1.81557 -1.48574 0
M  V30 2950 C 270.94 -0.703102 -1.59162 0
M  V30 2951 O 272.116 -0.99192 -1.75279 0
M  V30 2952 C 269.181 -1.9889 -2.83978 0
M  V30 2953 C 268.242 -3.22801 -2.83016 0
M  V30 2954 C 267.475 -3.39298 -4.11962 0
M  V30 2955 O 267.698 -2.60345 -5.0752 0
M  V30 2956 O 266.632 -4.32604 -4.18494 0
M  V30 2957 H 270.458 -2.75695 -1.27382 0
M  V30 2958 H 268.043 -1.38248 -0.566373 0
M  V30 2959 H 269.925 -2.11931 -3.6423 0
M  V30 2960 H 268.6 -1.07942 -3.05172 0
M  V30 2961 H 267.507 -3.15193 -2.01505 0
M  V30 2962 H 268.84 -4.13632 -2.66775 0
M  V30 2963 N 270.492 0.636531 -1.44174 0
M  V30 2964 C 271.717 1.42847 -1.50364 0
M  V30 2965 C 272.142 1.87665 -0.127867 0
M  V30 2966 O 271.5 1.58408 0.88185 0
M  V30 2967 C 271.548 2.62854 -2.4686 0
M  V30 2968 O 270.652 3.62501 -1.9664 0
M  V30 2969 H 269.993 0.427642 -0.507955 0
M  V30 2970 H 272.523 0.777422 -1.89255 0
M  V30 2971 H 272.533 3.10465 -2.64718 0
M  V30 2972 H 271.208 2.29578 -3.46795 0
M  V30 2973 H 269.785 3.21735 -1.88523 0
M  V30 2974 N 271.97 1.30982 0.876444 0
M  V30 2975 C 273.217 1.20296 1.62896 0
M  V30 2976 C 273.545 -0.240395 1.93009 0
M  V30 2977 O 272.8 -1.18733 1.55567 0
M  V30 2978 C 273.099 1.98572 2.9716 0
M  V30 2979 C 272.765 3.48125 2.86566 0
M  V30 2980 C 271.427 3.88905 2.83383 0
M  V30 2981 C 273.779 4.43322 2.74071 0
M  V30 2982 C 271.107 5.2316 2.65556 0
M  V30 2983 C 273.459 5.77695 2.57781 0
M  V30 2984 C 272.123 6.17704 2.52979 0
M  V30 2985 H 271.393 0.440193 0.59608 0
M  V30 2986 H 274.04 1.62177 1.01837 0
M  V30 2987 H 272.345 1.49352 3.62217 0
M  V30 2988 H 274.042 1.8769 3.54364 0
M  V30 2989 H 270.632 3.15723 2.89856 0
M  V30 2990 H 274.816 4.12752 2.75589 0
M  V30 2991 H 270.072 5.53241 2.60259 0
M  V30 2992 H 274.246 6.51091 2.47089 0
M  V30 2993 H 271.873 7.21678 2.38924 0
M  V30 2994 N 273.449 -1.08991 1.13837 0
M  V30 2995 C 274.399 -2.1393 0.788535 0
M  V30 2996 C 275.383 -1.59396 -0.219516 0
M  V30 2997 O 276.575 -1.76985 -0.0227557 0
M  V30 2998 C 273.704 -3.42305 0.261147 0
M  V30 2999 C 272.79 -4.03736 1.29837 0
M  V30 3000 N 273.181 -4.39659 2.50067 0
M  V30 3001 C 271.479 -4.30993 1.1472 0
M  V30 3002 C 272.18 -4.88113 3.16419 0
M  V30 3003 N 271.156 -4.85846 2.43832 0
M  V30 3004 H 274.958 -2.39516 1.70322 0
M  V30 3005 H 272.472 -1.26263 1.02134 0
M  V30 3006 H 274.469 -4.16899 -0.0077405 0
M  V30 3007 H 273.129 -3.18172 -0.647805 0
M  V30 3008 H 274.14 -4.30878 2.8734 0
M  V30 3009 H 270.817 -4.16444 0.296773 0
M  V30 3010 H 272.207 -5.25336 4.18894 0
M  V30 3011 N 274.927 -0.932562 -1.27047 0
M  V30 3012 C 275.875 -0.42603 -2.28665 0
M  V30 3013 C 276.869 0.49219 -1.62092 0
M  V30 3014 O 278.075 0.371355 -1.76128 0
M  V30 3015 H 274.45 -0.119213 -0.742491 0
M  V30 3016 H 276.421 -1.29579 -2.68797 0
M  V30 3017 C 275.17 0.301426 -3.46391 0
M  V30 3018 H 274.493 -0.39595 -3.97834 0
M  V30 3019 H 275.933 0.6202 -4.1944 0
M  V30 3020 C 274.392 1.51616 -3.00856 0
M  V30 3021 O 274.922 2.61476 -3.04948 0
M  V30 3022 N 273.128 1.36969 -2.56296 0
M  V30 3023 H 272.675 0.475873 -2.53166 0
M  V30 3024 H 272.633 2.18368 -2.26192 0
M  V30 3025 N 276.405 1.4127 -0.698611 0
M  V30 3026 C 277.337 2.292 0.00399731 0
M  V30 3027 C 278.35 1.44944 0.741279 0
M  V30 3028 O 279.539 1.68416 0.591477 0
M  V30 3029 C 276.639 3.22875 1.02979 0
M  V30 3030 C 275.812 4.35904 0.36151 0
M  V30 3031 C 274.871 5.10134 1.29033 0
M  V30 3032 O 273.897 5.63809 0.781562 0
M  V30 3033 N 275.099 5.17885 2.6225 0
M  V30 3034 H 277.864 2.9014 -0.750921 0
M  V30 3035 H 275.425 1.52455 -0.544882 0
M  V30 3036 H 277.417 3.69404 1.65296 0
M  V30 3037 H 275.987 2.63221 1.68622 0
M  V30 3038 H 275.207 3.91719 -0.441584 0
M  V30 3039 H 276.495 5.08696 -0.103055 0
M  V30 3040 H 275.893 4.7573 3.061 0
M  V30 3041 H 274.45 5.6798 3.19754 0
M  V30 3042 N 277.883 0.443576 1.51229 0
M  V30 3043 C 279.131 -0.120557 2.0174 0
M  V30 3044 C 279.452 -1.42665 1.32935 0
M  V30 3045 O 278.722 -1.9028 0.465866 0
M  V30 3046 H 277.302 -0.0475426 0.745486 0
M  V30 3047 H 279.964 0.587711 1.85828 0
M  V30 3048 H 279.06 -0.291972 3.10731 0
M  V30 3049 N 279.361 -1.56624 0.175154 0
M  V30 3050 C 280.777 -1.58571 -0.180966 0
M  V30 3051 C 280.977 -1.19065 -1.6256 0
M  V30 3052 O 280.033 -0.904044 -2.35761 0
M  V30 3053 C 281.346 -3.00522 0.103326 0
M  V30 3054 C 282.894 -3.12972 0.0418426 0
M  V30 3055 C 283.369 -4.57022 0.299175 0
M  V30 3056 N 284.86 -4.62541 0.247086 0
M  V30 3057 C 285.595 -5.71857 0.420318 0
M  V30 3058 N 285.091 -6.89717 0.652816 0
M  V30 3059 N 286.884 -5.60972 0.355957 0
M  V30 3060 H 279.035 -1.80589 1.11809 0
M  V30 3061 H 281.298 -0.837178 0.444788 0
M  V30 3062 H 281.004 -3.33916 1.10422 0
M  V30 3063 H 280.878 -3.72344 -0.603299 0
M  V30 3064 H 283.265 -2.79403 -0.949636 0
M  V30 3065 H 283.346 -2.43578 0.781238 0
M  V30 3066 H 282.99 -4.913 1.28788 0
M  V30 3067 H 282.92 -5.24579 -0.460876 0
M  V30 3068 H 285.411 -3.77829 0.0731895 0
M  V30 3069 H 285.724 -7.68911 0.774347 0
M  V30 3070 H 284.069 -6.91572 0.689476 0
M  V30 3071 H 287.26 -4.67773 0.174882 0
M  V30 3072 H 287.433 -6.46111 0.494388 0
M  V30 3073 N 280.839 0.0985539 -1.57292 0
M  V30 3074 C 281.769 1.12064 -2.04851 0
M  V30 3075 C 282.75 1.41981 -0.936767 0
M  V30 3076 O 283.935 1.52071 -1.20781 0
M  V30 3077 C 281.065 2.44144 -2.47004 0
M  V30 3078 C 280.019 2.28643 -3.6181 0
M  V30 3079 C 279.345 3.65869 -3.89929 0
M  V30 3080 C 280.645 1.72986 -4.92822 0
M  V30 3081 H 282.339 0.724979 -2.9049 0
M  V30 3082 H 279.885 0.34729 -1.39749 0
M  V30 3083 H 281.838 3.15914 -2.78884 0
M  V30 3084 H 280.562 2.85639 -1.5836 0
M  V30 3085 H 279.221 1.59318 -3.30172 0
M  V30 3086 H 278.869 4.04885 -2.98458 0
M  V30 3087 H 278.569 3.56344 -4.67218 0
M  V30 3088 H 280.093 4.39112 -4.2428 0
M  V30 3089 H 281.507 2.34593 -5.23105 0
M  V30 3090 H 279.904 1.74229 -5.74251 0
M  V30 3091 H 280.974 0.689007 -4.7998 0
M  V30 3092 N 282.317 1.53212 0.369288 0
M  V30 3093 C 283.545 1.73119 1.13303 0
M  V30 3094 C 283.96 0.458455 1.83149 0
M  V30 3095 O 283.317 -0.568403 1.73423 0
M  V30 3096 C 283.368 2.89413 2.16616 0
M  V30 3097 O 283.089 4.11761 1.49614 0
M  V30 3098 C 284.59 3.21161 3.05566 0
M  V30 3099 H 281.81 0.579107 0.338934 0
M  V30 3100 H 284.354 1.99942 0.429338 0
M  V30 3101 H 282.509 2.64994 2.82589 0
M  V30 3102 H 282.923 4.76858 2.18419 0
M  V30 3103 H 284.397 4.05949 3.74045 0
M  V30 3104 H 284.874 2.36369 3.70171 0
M  V30 3105 H 285.48 3.47492 2.45213 0
M  V30 3106 N 283.795 -0.628877 1.44509 0
M  V30 3107 C 285.072 -1.38733 1.37886 0
M  V30 3108 C 285.452 -2.11065 0.0387008 0
M  V30 3109 O 284.8 -2.06476 -0.97878 0
M  V30 3110 C 285.01 -2.35188 2.57852 0
M  V30 3111 C 286.358 -2.9845 3.02014 0
M  V30 3112 O 287.382 -2.45513 2.58073 0
M  V30 3113 O 286.241 -3.94487 3.78209 0
M  V30 3114 H 283.335 -0.621015 0.54614 0
M  V30 3115 H 285.881 -0.653744 1.56602 0
M  V30 3116 H 284.653 -1.80855 3.46998 0
M  V30 3117 H 284.276 -3.1596 2.4136 0
M  V30 3118 N 285.273 -1.31445 -0.869486 0
M  V30 3119 C 286.203 -1.21727 -1.99261 0
M  V30 3120 C 287.184 -0.104359 -1.6978 0
M  V30 3121 O 288.369 -0.289038 -1.92037 0
M  V30 3122 C 285.499 -0.924317 -3.34774 0
M  V30 3123 C 284.453 -1.99685 -3.78563 0
M  V30 3124 C 283.779 -1.55658 -5.11541 0
M  V30 3125 C 285.079 -3.41003 -3.95619 0
M  V30 3126 H 286.773 -2.1569 -2.07649 0
M  V30 3127 H 284.319 -1.03839 -0.997675 0
M  V30 3128 H 286.272 -0.842934 -4.12883 0
M  V30 3129 H 284.996 0.0509793 -3.2656 0
M  V30 3130 H 283.655 -2.06813 -3.02694 0
M  V30 3131 H 283.303 -0.569132 -4.9977 0
M  V30 3132 H 283.003 -2.27409 -5.41811 0
M  V30 3133 H 284.527 -1.48928 -5.92159 0
M  V30 3134 H 285.941 -3.36547 -4.64122 0
M  V30 3135 H 284.338 -4.10975 -4.37286 0
M  V30 3136 H 285.408 -3.81754 -2.98985 0
M  V30 3137 N 286.751 1.08385 -1.14413 0
M  V30 3138 C 287.684 2.14642 -0.774871 0
M  V30 3139 C 288.662 1.60761 0.243876 0
M  V30 3140 O 289.846 1.88031 0.132883 0
M  V30 3141 C 286.973 3.38366 -0.150491 0
M  V30 3142 C 286.019 4.10997 -1.13945 0
M  V30 3143 S 286.852 4.63797 -2.67679 0
M  V30 3144 C 288.008 5.90808 -2.06631 0
M  V30 3145 H 288.241 2.45633 -1.67487 0
M  V30 3146 H 285.774 1.20498 -0.96538 0
M  V30 3147 H 287.732 4.09996 0.203334 0
M  V30 3148 H 286.393 3.05572 0.72694 0
M  V30 3149 H 285.586 4.99783 -0.65059 0
M  V30 3150 H 285.188 3.4528 -1.43727 0
M  V30 3151 H 287.48 6.62411 -1.4219 0
M  V30 3152 H 288.423 6.4439 -2.93542 0
M  V30 3153 H 288.831 5.4383 -1.51357 0
M  V30 3154 N 288.23 0.939286 1.26551 0
M  V30 3155 C 289.646 0.641304 1.46149 0
M  V30 3156 C 289.846 -0.805964 1.84679 0
M  V30 3157 O 288.902 -1.58278 1.96734 0
M  V30 3158 C 290.215 1.6011 2.54529 0
M  V30 3159 C 291.763 1.6106 2.68382 0
M  V30 3160 C 292.238 2.55765 3.79932 0
M  V30 3161 N 293.729 2.5404 3.87322 0
M  V30 3162 C 294.464 3.24004 4.73085 0
M  V30 3163 N 293.96 4.03388 5.63249 0
M  V30 3164 N 295.753 3.12965 4.66914 0
M  V30 3165 H 287.904 1.87478 0.998285 0
M  V30 3166 H 290.167 0.805559 0.499779 0
M  V30 3167 H 289.873 2.63412 2.33039 0
M  V30 3168 H 289.747 1.35171 3.52149 0
M  V30 3169 H 292.134 0.584835 2.89247 0
M  V30 3170 H 292.215 1.90053 1.71212 0
M  V30 3171 H 291.859 3.58458 3.5982 0
M  V30 3172 H 291.789 2.24063 4.76554 0
M  V30 3173 H 294.28 1.96396 3.22858 0
M  V30 3174 H 294.593 4.5373 6.25579 0
M  V30 3175 H 292.938 4.07489 5.63008 0
M  V30 3176 H 296.129 2.50432 3.95476 0
M  V30 3177 H 296.302 3.67759 5.33533 0
M  V30 3178 N 289.708 -1.40897 0.706093 0
M  V30 3179 C 290.933 -2.05895 0.249435 0
M  V30 3180 C 291.358 -1.52823 -1.09666 0
M  V30 3181 O 290.716 -0.659589 -1.68876 0
M  V30 3182 C 290.764 -3.59872 0.22904 0
M  V30 3183 O 289.868 -4.04708 -0.792784 0
M  V30 3184 H 289.209 -0.653206 0.119241 0
M  V30 3185 H 291.739 -1.80471 0.96391 0
M  V30 3186 H 291.749 -4.07951 0.0634791 0
M  V30 3187 H 290.424 -3.97866 1.21141 0
M  V30 3188 H 289.001 -3.68111 -0.59572 0
M  V30 3189 N 291.186 -0.45159 -1.50991 0
M  V30 3190 C 292.434 0.109857 -2.01801 0
M  V30 3191 C 292.755 1.41958 -1.3369 0
M  V30 3192 O 292.025 1.9003 -0.475951 0
M  V30 3193 H 290.605 0.0435884 -0.745727 0
M  V30 3194 H 293.267 -0.597557 -1.85514 0
M  V30 3195 H 292.363 0.275489 -3.10882 0
M  V30 3196 N 292.664 1.56529 -0.183458 0
M  V30 3197 C 293.611 2.18546 0.742055 0
M  V30 3198 C 294.581 1.12912 1.2182 0
M  V30 3199 O 295.766 1.41115 1.28418 0
M  V30 3200 C 292.906 2.83977 1.96089 0
M  V30 3201 C 292.019 4.04105 1.52719 0
M  V30 3202 C 291.154 4.57427 2.70063 0
M  V30 3203 C 290.193 5.69938 2.23243 0
M  V30 3204 N 289.33 6.17717 3.33722 0
M  V30 3205 H 294.17 2.97284 0.206432 0
M  V30 3206 H 291.707 1.46823 0.0901571 0
M  V30 3207 H 293.665 3.20077 2.67594 0
M  V30 3208 H 292.295 2.07822 2.47002 0
M  V30 3209 H 291.347 3.73745 0.708436 0
M  V30 3210 H 292.659 4.85513 1.1436 0
M  V30 3211 H 291.813 4.95772 3.49708 0
M  V30 3212 H 290.552 3.75101 3.11689 0
M  V30 3213 H 289.557 5.31133 1.42048 0
M  V30 3214 H 290.782 6.54073 1.82661 0
M  V30 3215 H 288.728 5.38317 3.74902 0
M  V30 3216 H 288.645 6.94146 2.99495 0
M  V30 3217 H 289.913 6.60713 4.13616 0
M  V30 3218 N 294.142 -0.090211 1.57342 0
M  V30 3219 C 295.072 -1.10976 2.05443 0
M  V30 3220 C 296.053 -1.41482 0.944284 0
M  V30 3221 O 297.238 -1.51428 1.21586 0
M  V30 3222 C 294.368 -2.42831 2.48295 0
M  V30 3223 C 293.322 -2.26721 3.63018 0
M  V30 3224 C 292.648 -3.63796 3.91863 0
M  V30 3225 C 293.948 -1.7037 4.93732 0
M  V30 3226 H 295.642 -0.709564 2.9087 0
M  V30 3227 H 293.188 -0.339874 1.39932 0
M  V30 3228 H 295.141 -3.14431 2.80555 0
M  V30 3229 H 293.865 -2.84795 1.59873 0
M  V30 3230 H 292.524 -1.57565 3.31012 0
M  V30 3231 H 292.172 -4.03297 3.00601 0
M  V30 3232 H 291.872 -3.53861 4.69101 0
M  V30 3233 H 293.396 -4.36855 4.26603 0
M  V30 3234 H 294.81 -2.31816 5.24342 0
M  V30 3235 H 293.207 -1.71181 5.75167 0
M  V30 3236 H 294.277 -0.663542 4.80339 0
M  V30 3237 N 295.62 -1.53406 -0.361157 0
M  V30 3238 C 296.867 -1.69802 -1.10333 0
M  V30 3239 C 297.195 -0.452087 -1.89173 0
M  V30 3240 O 296.45 0.566017 -1.87336 0
M  V30 3241 C 296.749 -2.90211 -2.08596 0
M  V30 3242 C 296.415 -4.26539 -1.46203 0
M  V30 3243 C 295.077 -4.6361 -1.28915 0
M  V30 3244 C 297.429 -5.113 -1.01101 0
M  V30 3245 C 294.757 -5.83075 -0.651157 0
M  V30 3246 C 297.109 -6.31415 -0.387007 0
M  V30 3247 C 295.773 -6.67195 -0.201657 0
M  V30 3248 H 295.043 -0.621351 -0.403737 0
M  V30 3249 H 297.69 -1.87598 -0.384609 0
M  V30 3250 H 295.995 -2.66946 -2.86788 0
M  V30 3251 H 297.692 -3.00091 -2.65982 0
M  V30 3252 H 294.282 -3.97352 -1.60653 0
M  V30 3253 H 298.466 -4.83206 -1.13249 0
M  V30 3254 H 293.722 -6.09385 -0.496006 0
M  V30 3255 H 297.896 -6.96394 -0.0293563 0
M  V30 3256 H 295.523 -7.59628 0.294766 0
M  V30 3257 N 297.098 0.621204 -1.44841 0
M  V30 3258 C 298.008 1.7612 -1.5498 0
M  V30 3259 C 299.024 1.68477 -0.434927 0
M  V30 3260 O 300.2 1.89076 -0.693693 0
M  V30 3261 C 297.265 3.1254 -1.50065 0
M  V30 3262 C 296.326 3.31741 -2.72482 0
M  V30 3263 C 295.559 4.61653 -2.67792 0
M  V30 3264 O 295.782 5.431 -1.74352 0
M  V30 3265 O 294.716 4.83271 -3.58794 0
M  V30 3266 H 298.542 1.70518 -2.51311 0
M  V30 3267 H 296.127 0.783643 -1.27198 0
M  V30 3268 H 298.009 3.93844 -1.49882 0
M  V30 3269 H 296.684 3.18663 -0.568806 0
M  V30 3270 H 295.591 2.50077 -2.7823 0
M  V30 3271 H 296.924 3.30486 -3.64746 0
M  V30 3272 N 298.576 1.31904 0.862503 0
M  V30 3273 C 299.853 1.12644 1.59908 0
M  V30 3274 C 300.233 -0.316104 2.0872 0
M  V30 3275 O 299.581 -1.31145 1.87118 0
M  V30 3276 C 299.791 2.1472 2.7513 0
M  V30 3277 C 301.139 2.47637 3.44907 0
M  V30 3278 O 302.163 2.13205 2.85346 0
M  V30 3279 O 301.022 3.06632 4.52371 0
M  V30 3280 H 298.116 0.43416 0.703871 0
M  V30 3281 H 300.662 1.43408 0.907314 0
M  V30 3282 H 299.434 3.1172 2.3653 0
M  V30 3283 H 299.057 1.84905 3.51989 0
M  V30 3284 N 300.054 -1.07777 1.14986 0
M  V30 3285 C 301.303 -1.79669 0.916617 0
M  V30 3286 C 301.616 -1.87474 -0.557917 0
M  V30 3287 O 302.822 -2.55845 -0.908617 0
M  V30 3288 C 301.278 -3.22848 1.59051 0
M  V30 3289 C 300.886 -3.23257 3.10176 0
M  V30 3290 C 302.63 -3.99379 1.43864 0
M  V30 3291 C 300.537 -4.61063 3.70372 0
M  V30 3292 H 299.467 -0.673349 0.33929 0
M  V30 3293 H 302.118 -1.21003 1.37951 0
M  V30 3294 H 300.5 -3.8168 1.0553 0
M  V30 3295 H 301.674 -2.74095 3.70417 0
M  V30 3296 H 299.989 -2.60222 3.25074 0
M  V30 3297 H 302.586 -5.0122 1.86232 0
M  V30 3298 H 302.929 -4.14511 0.385564 0
M  V30 3299 H 303.462 -3.47032 1.94457 0
M  V30 3300 H 300.201 -4.51135 4.7556 0
M  V30 3301 H 299.721 -5.1048 3.14913 0
M  V30 3302 H 301.4 -5.30034 3.71043 0
M  V30 3303 N 301.532 -0.945985 -1.26051 0
M  V30 3304 C 302.78 -0.594941 -1.93145 0
M  V30 3305 C 303.101 0.86953 -1.7454 0
M  V30 3306 O 302.371 1.61838 -1.10387 0
M  V30 3307 H 300.951 -0.217044 -0.714773 0
M  V30 3308 H 303.613 -1.20235 -1.53393 0
M  V30 3309 H 302.709 -0.816835 -3.01221 0
M  V30 3310 N 303.011 1.40521 -0.713556 0
M  V30 3311 C 303.941 2.33381 -0.0743864 0
M  V30 3312 C 304.922 1.52784 0.747735 0
M  V30 3313 O 306.107 1.81258 0.697071 0
M  V30 3314 C 303.237 3.36748 0.849598 0
M  V30 3315 C 302.191 4.27793 0.133247 0
M  V30 3316 C 301.517 5.21679 1.17281 0
M  V30 3317 C 302.817 5.12415 -1.01134 0
M  V30 3318 H 304.511 2.87081 -0.850007 0
M  V30 3319 H 302.057 1.38034 -0.410201 0
M  V30 3320 H 304.01 4.00648 1.30612 0
M  V30 3321 H 302.734 2.81439 1.65709 0
M  V30 3322 H 301.393 3.65342 -0.303426 0
M  V30 3323 H 301.041 4.62677 1.9733 0
M  V30 3324 H 300.741 5.83435 0.698397 0
M  V30 3325 H 302.265 5.88456 1.62947 0
M  V30 3326 H 303.679 5.69781 -0.634274 0
M  V30 3327 H 302.076 5.83203 -1.41399 0
M  V30 3328 H 303.146 4.48514 -1.84292 0
M  V30 3329 N 304.489 0.459591 1.5075 0
M  V30 3330 C 305.9 0.00171547 1.867 0
M  V30 3331 C 306.251 -1.39934 1.37525 0
M  V30 3332 O 305.376 -2.03523 0.735349 0
M  V30 3333 C 305.971 -0.00366298 3.388 0
M  V30 3334 C 304.53 -0.406026 3.74204 0
M  V30 3335 C 303.677 0.38673 2.7459 0
M  V30 3336 H 306.628 0.674413 1.43657 0
M  V30 3337 H 306.649 -0.808371 3.71814 0
M  V30 3338 H 306.161 1.01617 3.74561 0
M  V30 3339 H 304.262 -1.43063 3.4404 0
M  V30 3340 H 304.375 -0.115362 4.78961 0
M  V30 3341 H 302.739 -0.158019 2.54209 0
M  V30 3342 H 303.522 1.40585 3.13194 0
M  V30 3343 N 305.967 -1.56429 0.191757 0
M  V30 3344 C 307.378 -1.83912 -0.321428 0
M  V30 3345 C 307.729 -1.11231 -1.61623 0
M  V30 3346 O 306.854 -0.37202 -2.13178 0
M  V30 3347 C 307.449 -3.33624 -0.589961 0
M  V30 3348 C 306.008 -3.6153 -1.04753 0
M  V30 3349 C 305.155 -2.7714 -0.0943327 0
M  V30 3350 H 308.106 -1.53161 0.415612 0
M  V30 3351 H 308.127 -3.52213 -1.43966 0
M  V30 3352 H 307.639 -3.86495 0.352588 0
M  V30 3353 H 305.74 -3.14089 -2.00447 0
M  V30 3354 H 305.853 -4.69737 -0.942549 0
M  V30 3355 H 304.217 -2.47638 -0.595589 0
M  V30 3356 H 305 -3.32799 0.842601 0
M  V30 3357 N 307.445 0.0818655 -1.57387 0
M  V30 3358 C 308.694 0.781681 -1.85937 0
M  V30 3359 C 309.007 1.79246 -0.782957 0
M  V30 3360 O 310.213 2.54112 -0.955987 0
M  V30 3361 C 308.669 1.44109 -3.29789 0
M  V30 3362 C 308.277 0.469396 -4.45534 0
M  V30 3363 C 310.021 2.12386 -3.67549 0
M  V30 3364 C 307.928 1.13415 -5.80423 0
M  V30 3365 H 306.858 0.295682 -0.693605 0
M  V30 3366 H 309.509 0.0348051 -1.83467 0
M  V30 3367 H 307.891 2.23588 -3.2684 0
M  V30 3368 H 309.065 -0.294856 -4.59856 0
M  V30 3369 H 307.38 -0.108383 -4.16259 0
M  V30 3370 H 309.977 2.62878 -4.65617 0
M  V30 3371 H 310.32 2.91877 -2.96839 0
M  V30 3372 H 310.853 1.39751 -3.72444 0
M  V30 3373 H 307.592 0.379771 -6.54399 0
M  V30 3374 H 307.112 1.8695 -5.69921 0
M  V30 3375 H 308.791 1.65686 -6.25426 0
M  V30 3376 N 308.923 1.53595 0.353017 0
M  V30 3377 C 309.871 1.81605 1.45335 0
M  V30 3378 C 310.865 0.685923 1.54892 0
M  V30 3379 O 312.071 0.869095 1.57628 0
M  V30 3380 H 308.446 0.575204 0.484401 0
M  V30 3381 H 310.417 2.73679 1.18921 0
M  V30 3382 C 309.166 2.03406 2.81995 0
M  V30 3383 H 308.489 2.89814 2.75405 0
M  V30 3384 H 309.929 2.26975 3.58132 0
M  V30 3385 C 308.388 0.816794 3.26849 0
M  V30 3386 O 308.918 0.0115856 4.01698 0
M  V30 3387 N 307.124 0.636682 2.8354 0
M  V30 3388 H 306.671 1.2931 2.22793 0
M  V30 3389 H 306.629 -0.176336 3.13905 0
M  V30 3390 N 310.401 -0.613514 1.45168 0
M  V30 3391 C 311.812 -1.19539 1.43413 0
M  V30 3392 C 312.163 -1.95558 0.158632 0
M  V30 3393 O 311.288 -2.0335 -0.740119 0
M  V30 3394 C 311.883 -2.17445 2.59813 0
M  V30 3395 C 310.442 -2.71022 2.61197 0
M  V30 3396 C 309.589 -1.46323 2.35552 0
M  V30 3397 H 312.54 -0.403163 1.53494 0
M  V30 3398 H 312.561 -3.00373 2.33574 0
M  V30 3399 H 312.073 -1.62089 3.52631 0
M  V30 3400 H 310.174 -3.30332 1.7237 0
M  V30 3401 H 310.287 -3.15859 3.60236 0
M  V30 3402 H 308.651 -1.75072 1.84992 0
M  V30 3403 H 309.434 -0.92844 3.30507 0
M  V30 3404 N 311.879 -1.3236 -0.855495 0
M  V30 3405 C 312.811 -1.17052 -1.97057 0
M  V30 3406 C 313.824 -0.10574 -1.62456 0
M  V30 3407 O 315.013 -0.354619 -1.74942 0
M  V30 3408 C 312.113 -0.769305 -3.30053 0
M  V30 3409 C 311.286 -1.9222 -3.929 0
M  V30 3410 C 310.345 -1.50466 -5.04228 0
M  V30 3411 O 309.371 -2.21655 -5.24269 0
M  V30 3412 N 310.573 -0.400209 -5.79119 0
M  V30 3413 H 313.338 -2.13103 -2.1073 0
M  V30 3414 H 310.899 -1.24885 -1.0303 0
M  V30 3415 H 312.891 -0.472407 -4.01933 0
M  V30 3416 H 311.461 0.100025 -3.1244 0
M  V30 3417 H 310.681 -2.38563 -3.13817 0
M  V30 3418 H 311.969 -2.69403 -4.31624 0
M  V30 3419 H 311.367 0.192319 -5.65373 0
M  V30 3420 H 309.924 -0.162912 -6.51596 0
M  V30 3421 N 313.357 1.07166 -1.15556 0
M  V30 3422 C 314.634 1.76546 -0.842069 0
M  V30 3423 C 315.014 2.00453 0.661939 0
M  V30 3424 O 314.362 1.62452 1.60691 0
M  V30 3425 C 314.572 3.07266 -1.65495 0
M  V30 3426 C 315.92 3.81578 -1.86234 0
M  V30 3427 O 316.944 3.17083 -1.62287 0
M  V30 3428 O 315.803 4.97419 -2.26355 0
M  V30 3429 H 312.897 0.766756 -0.309862 0
M  V30 3430 H 315.443 1.13514 -1.26145 0
M  V30 3431 H 314.215 2.85494 -2.67598 0
M  V30 3432 H 313.838 3.7803 -1.23203 0
M  V30 3433 N 314.835 0.952656 1.25548 0
M  V30 3434 C 316.112 0.523818 1.88456 0
M  V30 3435 C 316.492 -0.998871 1.85973 0
M  V30 3436 O 315.84 -1.86381 1.3219 0
M  V30 3437 C 316.05 1.0982 3.31271 0
M  V30 3438 C 317.398 1.17385 4.08051 0
M  V30 3439 O 318.422 1.04961 3.40384 0
M  V30 3440 O 317.281 1.36852 5.29088 0
M  V30 3441 H 314.375 0.172485 0.808813 0
M  V30 3442 H 316.921 1.04596 1.33633 0
M  V30 3443 H 315.693 2.1415 3.27499 0
M  V30 3444 H 315.316 0.559191 3.93648 0
M  V30 3445 N 316.313 -1.40141 0.720998 0
M  V30 3446 C 317.729 -1.54632 0.395113 0
M  V30 3447 C 317.929 -1.69115 -1.09555 0
M  V30 3448 O 316.985 -1.68377 -1.88163 0
M  V30 3449 C 318.298 -2.77177 1.1659 0
M  V30 3450 C 319.846 -2.91 1.15274 0
M  V30 3451 C 320.321 -4.16465 1.90579 0
M  V30 3452 N 321.812 -4.23476 1.87675 0
M  V30 3453 C 322.547 -5.19475 2.42762 0
M  V30 3454 N 322.043 -6.21348 3.06428 0
M  V30 3455 N 323.836 -5.11592 2.32874 0
M  V30 3456 H 315.987 -1.28986 1.68749 0
M  V30 3457 H 318.25 -0.62412 0.713567 0
M  V30 3458 H 317.956 -2.72771 2.22011 0
M  V30 3459 H 317.83 -3.69442 0.76108 0
M  V30 3460 H 320.217 -2.94907 0.106702 0
M  V30 3461 H 320.298 -1.99838 1.59682 0
M  V30 3462 H 319.942 -4.1332 2.95176 0
M  V30 3463 H 319.872 -5.06646 1.43587 0
M  V30 3464 H 322.363 -3.50497 1.41281 0
M  V30 3465 H 322.676 -6.91034 3.45965 0
M  V30 3466 H 321.021 -6.21777 3.10514 0
M  V30 3467 H 324.212 -4.30936 1.82789 0
M  V30 3468 H 324.385 -5.86233 2.76106 0
M  V30 3469 N 317.792 -0.46758 -1.50504 0
M  V30 3470 C 318.755 0.317059 -2.26996 0
M  V30 3471 C 319.755 0.923513 -1.31635 0
M  V30 3472 O 320.945 0.793239 -1.55091 0
M  V30 3473 C 318.077 1.45134 -3.08462 0
M  V30 3474 H 319.27 -0.353723 -2.97807 0
M  V30 3475 H 316.823 -0.221545 -1.54722 0
M  V30 3476 H 317.558 2.15728 -2.4214 0
M  V30 3477 H 317.343 1.02232 -3.78538 0
M  V30 3478 H 318.833 2.00493 -3.66323 0
M  V30 3479 N 319.27 1.56325 -0.20005 0
M  V30 3480 C 320.203 2.15234 0.758267 0
M  V30 3481 C 321.181 1.09046 1.20614 0
M  V30 3482 O 322.365 1.37186 1.29276 0
M  V30 3483 C 319.492 2.71524 2.02466 0
M  V30 3484 C 318.538 3.90345 1.71852 0
M  V30 3485 S 319.371 5.28513 0.862249 0
M  V30 3486 C 320.527 5.88227 2.13868 0
M  V30 3487 H 320.76 2.96183 0.2575 0
M  V30 3488 H 318.293 1.54393 0.0150099 0
M  V30 3489 H 320.251 3.04598 2.75191 0
M  V30 3490 H 318.912 1.90607 2.49655 0
M  V30 3491 H 318.105 4.28158 2.65888 0
M  V30 3492 H 317.707 3.58306 1.07205 0
M  V30 3493 H 319.999 6.02891 3.09076 0
M  V30 3494 H 320.942 6.84714 1.80479 0
M  V30 3495 H 321.35 5.16874 2.2694 0
M  V30 3496 N 320.748 -0.0735177 1.57428 0
M  V30 3497 C 321.997 -0.771809 1.86349 0
M  V30 3498 C 322.31 -1.78828 0.792452 0
M  V30 3499 O 323.516 -2.53602 0.96945 0
M  V30 3500 C 321.972 -1.42358 3.30548 0
M  V30 3501 C 321.58 -0.445761 4.45777 0
M  V30 3502 C 323.324 -2.10434 3.6867 0
M  V30 3503 C 321.231 -1.10335 5.81016 0
M  V30 3504 H 320.161 -0.291999 0.695164 0
M  V30 3505 H 322.812 -0.0250749 1.83483 0
M  V30 3506 H 321.194 -2.21852 3.28021 0
M  V30 3507 H 322.368 0.319239 4.59693 0
M  V30 3508 H 320.683 0.130457 4.16196 0
M  V30 3509 H 323.28 -2.60405 4.67004 0
M  V30 3510 H 323.623 -2.90298 2.98383 0
M  V30 3511 H 324.156 -1.37773 3.7318 0
M  V30 3512 H 320.895 -0.345061 6.54591 0
M  V30 3513 H 320.415 -1.83925 5.70904 0
M  V30 3514 H 322.094 -1.62367 6.26295 0
M  V30 3515 N 322.226 -1.5378 -0.344866 0
M  V30 3516 C 323.466 -1.72677 -1.09371 0
M  V30 3517 C 323.83 -0.479084 -1.85927 0
M  V30 3518 O 325.031 -0.54505 -2.63216 0
M  V30 3519 C 323.302 -2.95457 -2.01097 0
M  V30 3520 S 324.861 -3.35158 -2.83222 0
M  V30 3521 H 321.679 -0.607402 -0.369573 0
M  V30 3522 H 324.281 -1.91922 -0.372307 0
M  V30 3523 H 322.985 -3.84437 -1.43655 0
M  V30 3524 H 322.516 -2.78673 -2.77678 0
M  V30 3525 H 324.531 -2.88789 -4.03504 0
M  V30 3526 N 323.704 0.605807 -1.45491 0
M  V30 3527 C 324.952 1.36207 -1.49305 0
M  V30 3528 C 325.273 1.94519 -0.136863 0
M  V30 3529 O 324.543 1.77261 0.833983 0
M  V30 3530 H 323.123 0.50565 -0.549843 0
M  V30 3531 H 325.785 0.711239 -1.81459 0
M  V30 3532 H 324.881 2.18058 -2.23287 0
M  V30 3533 N 325.182 1.32811 0.848464 0
M  V30 3534 C 326.407 1.26882 1.6406 0
M  V30 3535 C 326.832 -0.15913 1.87426 0
M  V30 3536 O 326.19 -1.11258 1.43148 0
M  V30 3537 C 326.238 2.03997 2.97351 0
M  V30 3538 O 325.342 1.39201 3.88197 0
M  V30 3539 H 324.683 0.436982 0.499943 0
M  V30 3540 H 327.213 1.75224 1.0563 0
M  V30 3541 H 327.223 2.14403 3.47124 0
M  V30 3542 H 325.898 3.0783 2.79666 0
M  V30 3543 H 324.475 1.37381 3.46671 0
M  V30 3544 N 326.66 -1.06551 1.16123 0
M  V30 3545 C 328.071 -1.60768 0.949232 0
M  V30 3546 C 328.422 -1.89523 -0.507508 0
M  V30 3547 O 327.547 -1.66671 -1.38021 0
M  V30 3548 C 328.142 -2.92086 1.71671 0
M  V30 3549 C 326.701 -3.43015 1.54977 0
M  V30 3550 C 325.848 -2.16947 1.72711 0
M  V30 3551 H 328.799 -0.895354 1.31031 0
M  V30 3552 H 328.82 -3.6138 1.19099 0
M  V30 3553 H 328.332 -2.71127 2.7769 0
M  V30 3554 H 326.433 -3.69039 0.513873 0
M  V30 3555 H 326.546 -4.18516 2.33198 0
M  V30 3556 H 324.91 -2.27041 1.15431 0
M  V30 3557 H 325.693 -1.98473 2.80113 0
M  V30 3558 N 328.138 -0.959301 -1.25041 0
M  V30 3559 C 329.363 -0.633507 -1.97488 0
M  V30 3560 C 329.788 0.788555 -1.70773 0
M  V30 3561 O 329.146 1.53394 -0.966431 0
M  V30 3562 C 329.194 -0.904057 -3.49083 0
M  V30 3563 O 328.298 0.0147939 -4.12397 0
M  V30 3564 H 327.639 -0.240368 -0.618966 0
M  V30 3565 H 330.169 -1.28717 -1.59038 0
M  V30 3566 H 330.179 -0.832203 -3.99423 0
M  V30 3567 H 328.854 -1.94048 -3.67856 0
M  V30 3568 H 327.431 -0.109664 -3.72739 0
M  V30 3569 N 329.616 1.39756 -0.72842 0
M  V30 3570 C 330.549 2.28176 -0.0330172 0
M  V30 3571 C 331.527 1.44035 0.754501 0
M  V30 3572 O 332.711 1.73434 0.738445 0
M  V30 3573 C 329.838 3.24795 0.960504 0
M  V30 3574 C 328.884 4.25693 0.262264 0
M  V30 3575 S 329.717 5.25714 -1.01906 0
M  V30 3576 C 330.873 6.25894 -0.0279717 0
M  V30 3577 H 331.106 2.86807 -0.78287 0
M  V30 3578 H 328.639 1.45382 -0.519951 0
M  V30 3579 H 330.597 3.80983 1.52846 0
M  V30 3580 H 329.258 2.65196 1.68315 0
M  V30 3581 H 328.451 4.93699 1.01379 0
M  V30 3582 H 328.053 3.7327 -0.233482 0
M  V30 3583 H 330.345 6.72585 0.814621 0
M  V30 3584 H 331.288 7.04876 -0.67499 0
M  V30 3585 H 331.696 5.63466 0.341489 0
M  V30 3586 N 331.094 0.475555 1.50254 0
M  V30 3587 C 332.024 -0.30611 2.31485 0
M  V30 3588 C 333.005 -0.986228 1.38591 0
M  V30 3589 O 334.19 -0.982541 1.67511 0
M  V30 3590 C 331.32 -1.38588 3.1845 0
M  V30 3591 C 330.274 -0.827115 4.19932 0
M  V30 3592 C 329.6 -2.00551 4.95665 0
M  V30 3593 C 330.9 0.16463 5.2204 0
M  V30 3594 H 332.594 0.371866 2.97082 0
M  V30 3595 H 330.14 0.180282 1.42867 0
M  V30 3596 H 332.093 -1.94023 3.74076 0
M  V30 3597 H 330.817 -2.09269 2.50747 0
M  V30 3598 H 329.476 -0.294702 3.65414 0
M  V30 3599 H 329.124 -2.6994 4.2443 0
M  V30 3600 H 328.824 -1.63784 5.64313 0
M  V30 3601 H 330.348 -2.56468 5.54127 0
M  V30 3602 H 331.762 -0.300699 5.72511 0
M  V30 3603 H 330.159 0.446813 5.98434 0
M  V30 3604 H 331.229 1.08905 4.72512 0
M  V30 3605 N 332.573 -1.56217 0.208337 0
M  V30 3606 C 333.85 -1.89739 -0.475234 0
M  V30 3607 C 334.23 -1.1238 -1.78701 0
M  V30 3608 O 333.578 -0.228979 -2.2735 0
M  V30 3609 C 333.788 -3.42289 -0.681101 0
M  V30 3610 C 335.136 -4.12789 -0.994507 0
M  V30 3611 O 336.16 -3.47814 -0.768357 0
M  V30 3612 O 335.019 -5.27649 -1.42299 0
M  V30 3613 H 332.113 -0.788478 -0.249461 0
M  V30 3614 H 334.659 -1.67855 0.249538 0
M  V30 3615 H 333.431 -3.90534 0.244722 0
M  V30 3616 H 333.054 -3.69909 -1.45785 0
M  V30 3617 N 334.051 0.0651679 -1.57465 0
M  V30 3618 C 334.961 1.09448 -2.07505 0
M  V30 3619 C 335.977 1.41974 -1.00595 0
M  V30 3620 O 337.153 1.52018 -1.32107 0
M  V30 3621 C 334.218 2.38689 -2.51453 0
M  V30 3622 C 333.279 2.13073 -3.72691 0
M  V30 3623 C 332.512 3.36152 -4.14533 0
M  V30 3624 O 332.735 4.45517 -3.56189 0
M  V30 3625 O 331.669 3.23974 -5.07272 0
M  V30 3626 H 335.495 0.69935 -2.95538 0
M  V30 3627 H 333.08 0.279752 -1.46757 0
M  V30 3628 H 334.962 3.14736 -2.80212 0
M  V30 3629 H 333.637 2.77568 -1.66546 0
M  V30 3630 H 332.544 1.34709 -3.49005 0
M  V30 3631 H 333.877 1.79071 -4.5847 0
M  V30 3632 N 335.529 1.53961 0.336706 0
M  V30 3633 C 336.754 1.75797 1.10046 0
M  V30 3634 C 337.179 0.498985 1.81361 0
M  V30 3635 O 336.537 -0.548769 1.72795 0
M  V30 3636 C 336.585 2.94257 2.08436 0
M  V30 3637 O 335.689 2.64883 3.16087 0
M  V30 3638 H 335.03 0.582936 0.317934 0
M  V30 3639 H 337.56 2.00945 0.38501 0
M  V30 3640 H 337.57 3.21237 2.51537 0
M  V30 3641 H 336.245 3.85564 1.55927 0
M  V30 3642 H 334.822 2.48812 2.77753 0
M  V30 3643 N 337.007 -0.598083 1.45811 0
M  V30 3644 C 338.247 -1.36802 1.5187 0
M  V30 3645 C 338.611 -1.9133 0.160224 0
M  V30 3646 O 339.812 -2.6863 0.0955302 0
M  V30 3647 C 338.083 -2.47835 2.57513 0
M  V30 3648 S 339.642 -3.35458 2.82866 0
M  V30 3649 H 336.46 -0.466278 0.536755 0
M  V30 3650 H 339.062 -0.689152 1.82951 0
M  V30 3651 H 337.766 -2.06141 3.54872 0
M  V30 3652 H 337.297 -3.20512 2.28114 0
M  V30 3653 H 339.312 -4.46251 2.16967 0
M  V30 3654 N 338.485 -1.33259 -0.841409 0
M  V30 3655 C 339.395 -1.25332 -1.98316 0
M  V30 3656 C 340.411 -0.164364 -1.73222 0
M  V30 3657 O 341.587 -0.387486 -1.97637 0
M  V30 3658 C 338.652 -0.990078 -3.32262 0
M  V30 3659 C 337.713 -2.16879 -3.70489 0
M  V30 3660 C 336.946 -1.91801 -4.98044 0
M  V30 3661 O 337.169 -0.867075 -5.63771 0
M  V30 3662 O 336.103 -2.78267 -5.33714 0
M  V30 3663 H 339.929 -2.21344 -2.07944 0
M  V30 3664 H 337.514 -1.1328 -0.974058 0
M  V30 3665 H 339.396 -0.860321 -4.12524 0
M  V30 3666 H 338.071 -0.0602155 -3.23644 0
M  V30 3667 H 336.978 -2.35407 -2.90748 0
M  V30 3668 H 338.311 -3.0819 -3.8377 0
M  V30 3669 N 339.963 1.05934 -1.16686 0
M  V30 3670 C 341.209 1.79065 -0.95203 0
M  V30 3671 C 341.542 1.87147 0.518629 0
M  V30 3672 O 340.817 1.36574 1.38484 0
M  V30 3673 C 341.1 3.23359 -1.58464 0
M  V30 3674 C 340.953 3.23336 -3.12689 0
M  V30 3675 C 342.272 4.21004 -1.28232 0
M  V30 3676 H 339.391 0.65005 -0.34728 0
M  V30 3677 H 342.033 1.23868 -1.44072 0
M  V30 3678 H 340.183 3.70493 -1.16908 0
M  V30 3679 H 341.855 2.84336 -3.6325 0
M  V30 3680 H 340.098 2.61886 -3.4583 0
M  V30 3681 H 340.769 4.25144 -3.52075 0
M  V30 3682 H 343.245 3.8233 -1.64203 0
M  V30 3683 H 342.121 5.20225 -1.75092 0
M  V30 3684 H 342.382 4.41639 -0.201791 0
M  V30 3685 N 341.441 0.965919 1.2453 0
M  V30 3686 C 342.371 0.513476 2.27784 0
M  V30 3687 C 343.352 -0.445974 1.6415 0
M  V30 3688 O 344.537 -0.342485 1.91156 0
M  V30 3689 C 341.667 -0.198839 3.4673 0
M  V30 3690 C 340.621 0.676456 4.2262 0
M  V30 3691 C 339.947 -0.167248 5.34438 0
M  V30 3692 C 341.247 1.96017 4.84123 0
M  V30 3693 H 342.941 1.3765 2.65881 0
M  V30 3694 H 340.487 0.663321 1.27813 0
M  V30 3695 H 342.44 -0.526567 4.18097 0
M  V30 3696 H 341.164 -1.0962 3.07654 0
M  V30 3697 H 339.823 0.98743 3.53052 0
M  V30 3698 H 339.471 -1.0647 4.91603 0
M  V30 3699 H 339.171 0.415181 5.86131 0
M  V30 3700 H 340.695 -0.489688 6.08633 0
M  V30 3701 H 342.109 1.69814 5.47573 0
M  V30 3702 H 340.506 2.48918 5.4604 0
M  V30 3703 H 341.576 2.65622 4.05676 0
M  V30 3704 N 342.919 -1.39368 0.735821 0
M  V30 3705 C 344.196 -1.94465 0.210395 0
M  V30 3706 C 344.576 -1.67254 -1.28799 0
M  V30 3707 O 343.924 -1.00123 -2.05396 0
M  V30 3708 C 344.134 -3.4472 0.544897 0
M  V30 3709 C 345.482 -4.21708 0.494689 0
M  V30 3710 O 346.506 -3.52922 0.482136 0
M  V30 3711 O 345.365 -5.44299 0.489947 0
M  V30 3712 H 342.459 -0.826096 0.0386666 0
M  V30 3713 H 345.005 -1.48863 0.814735 0
M  V30 3714 H 343.777 -3.57963 1.58045 0
M  V30 3715 H 343.4 -3.97502 -0.08837 0
M  V30 3716 N 344.397 -0.483516 -1.5 0
M  V30 3717 C 345.645 0.067027 -2.01989 0
M  V30 3718 C 345.966 1.3909 -1.36671 0
M  V30 3719 O 345.236 1.88978 -0.516152 0
M  V30 3720 H 343.816 0.0277606 -0.746484 0
M  V30 3721 H 346.478 -0.636773 -1.84204 0
M  V30 3722 H 345.574 0.209484 -3.11396 0
M  V30 3723 N 345.875 1.56104 -0.216619 0
M  V30 3724 C 347.122 1.98172 0.416416 0
M  V30 3725 C 347.45 1.10413 1.60122 0
M  V30 3726 O 346.705 0.147967 1.9514 0
M  V30 3727 C 347.004 3.45923 0.898464 0
M  V30 3728 C 346.67 4.50559 -0.175288 0
M  V30 3729 C 345.332 4.78897 -0.470271 0
M  V30 3730 C 347.684 5.1334 -0.901728 0
M  V30 3731 C 345.012 5.67299 -1.4963 0
M  V30 3732 C 347.364 6.02853 -1.91705 0
M  V30 3733 C 346.028 6.29537 -2.21901 0
M  V30 3734 H 345.298 0.725164 0.152377 0
M  V30 3735 H 347.945 1.88839 -0.318103 0
M  V30 3736 H 346.25 3.52434 1.71165 0
M  V30 3737 H 347.947 3.75841 1.39803 0
M  V30 3738 H 344.537 4.28551 0.0647806 0
M  V30 3739 H 348.721 4.91521 -0.687072 0
M  V30 3740 H 343.977 5.86239 -1.73592 0
M  V30 3741 H 348.151 6.50552 -2.48505 0
M  V30 3742 H 345.778 6.97835 -3.01548 0
M  V30 3743 N 347.353 -0.0568162 1.57498 0
M  V30 3744 C 348.601 -0.751617 1.87604 0
M  V30 3745 C 348.922 -1.77351 0.81066 0
M  V30 3746 O 348.192 -1.95254 -0.159018 0
M  V30 3747 H 346.772 -0.280583 0.692302 0
M  V30 3748 H 349.434 -0.0293483 1.94878 0
M  V30 3749 H 348.53 -1.25852 2.856 0
M  V30 3750 N 348.832 -1.54138 -0.328536 0
M  V30 3751 C 349.762 -1.86167 -1.40939 0
M  V30 3752 C 350.743 -0.718044 -1.54202 0
M  V30 3753 O 351.928 -0.971328 -1.68163 0
M  V30 3754 C 349.058 -2.08461 -2.77779 0
M  V30 3755 C 348.012 -3.24299 -2.7931 0
M  V30 3756 C 347.338 -3.31955 -4.19178 0
M  V30 3757 C 348.638 -4.62065 -2.43502 0
M  V30 3758 H 350.332 -2.76689 -1.14383 0
M  V30 3759 H 347.878 -1.33132 -0.548806 0
M  V30 3760 H 349.831 -2.29453 -3.53454 0
M  V30 3761 H 348.555 -1.14684 -3.05802 0
M  V30 3762 H 347.214 -3.03187 -2.0609 0
M  V30 3763 H 346.862 -2.35745 -4.44335 0
M  V30 3764 H 346.562 -4.09805 -4.2111 0
M  V30 3765 H 348.086 -3.55175 -4.96672 0
M  V30 3766 H 349.5 -4.8297 -3.08889 0
M  V30 3767 H 347.897 -5.42429 -2.56693 0
M  V30 3768 H 348.967 -4.64652 -1.38659 0
M  V30 3769 N 350.31 0.590341 -1.46126 0
M  V30 3770 C 351.257 1.69994 -1.56111 0
M  V30 3771 C 352.227 1.61065 -0.405867 0
M  V30 3772 O 353.412 1.8039 -0.621613 0
M  V30 3773 C 350.552 3.08326 -1.55013 0
M  V30 3774 C 349.665 3.27936 -2.81215 0
M  V30 3775 C 348.8 4.56473 -2.71673 0
M  V30 3776 C 347.839 4.694 -3.92849 0
M  V30 3777 N 346.976 5.89254 -3.81738 0
M  V30 3778 H 351.816 1.60797 -2.50895 0
M  V30 3779 H 349.353 0.783799 -1.24479 0
M  V30 3780 H 351.311 3.88383 -1.52362 0
M  V30 3781 H 349.941 3.16439 -0.637667 0
M  V30 3782 H 348.993 2.41536 -2.93879 0
M  V30 3783 H 350.305 3.33357 -3.71045 0
M  V30 3784 H 349.459 5.44748 -2.67085 0
M  V30 3785 H 348.198 4.53477 -1.7947 0
M  V30 3786 H 347.203 3.79544 -3.97777 0
M  V30 3787 H 348.428 4.7418 -4.86138 0
M  V30 3788 H 346.374 5.87271 -2.92317 0
M  V30 3789 H 346.291 5.95911 -4.65217 0
M  V30 3790 H 347.559 6.79981 -3.81112 0
M  V30 3791 N 351.788 1.33704 0.83433 0
M  V30 3792 C 353.037 1.24763 1.58484 0
M  V30 3793 C 353.35 -0.183775 1.94735 0
M  V30 3794 O 354.556 -0.395234 2.68608 0
M  V30 3795 C 353.012 2.18638 2.85876 0
M  V30 3796 C 352.62 3.66974 2.56971 0
M  V30 3797 C 354.364 2.18581 3.63899 0
M  V30 3798 C 352.271 4.5275 3.80488 0
M  V30 3799 H 351.201 0.463425 0.594772 0
M  V30 3800 H 353.852 1.58797 0.919551 0
M  V30 3801 H 352.234 1.77542 3.5397 0
M  V30 3802 H 353.408 4.16538 1.9706 0
M  V30 3803 H 351.723 3.69366 1.92244 0
M  V30 3804 H 354.32 2.79894 4.55591 0
M  V30 3805 H 354.663 1.18207 3.99165 0
M  V30 3806 H 355.196 2.58062 3.02735 0
M  V30 3807 H 351.935 5.54017 3.5035 0
M  V30 3808 H 351.455 4.07927 4.39722 0
M  V30 3809 H 353.134 4.66784 4.4802 0
M  V30 3810 N 353.266 -1.05314 1.17247 0
M  V30 3811 C 354.491 -1.82509 0.985148 0
M  V30 3812 C 354.916 -1.82343 -0.461788 0
M  V30 3813 O 354.274 -1.23151 -1.33055 0
M  V30 3814 C 354.322 -3.26566 1.52929 0
M  V30 3815 O 353.426 -4.05666 0.742225 0
M  V30 3816 H 352.767 -0.564347 0.349869 0
M  V30 3817 H 355.297 -1.32718 1.55715 0
M  V30 3818 H 355.307 -3.77369 1.55103 0
M  V30 3819 H 353.982 -3.26001 2.58256 0
M  V30 3820 H 352.559 -3.64397 0.791794 0
M  V30 3821 N 354.744 -0.972509 -1.24016 0
M  V30 3822 C 356.155 -0.67517 -1.74064 0
M  V30 3823 C 356.506 0.808939 -1.78747 0
M  V30 3824 O 355.631 1.63286 -1.42009 0
M  V30 3825 C 356.226 -1.21889 -3.16115 0
M  V30 3826 C 354.785 -0.971358 -3.6365 0
M  V30 3827 C 353.932 -1.35134 -2.42145 0
M  V30 3828 H 356.883 -1.14727 -1.09651 0
M  V30 3829 H 356.904 -0.587489 -3.75937 0
M  V30 3830 H 356.416 -2.29906 -3.12674 0
M  V30 3831 H 354.517 0.0930686 -3.72484 0
M  V30 3832 H 354.63 -1.62039 -4.50866 0
M  V30 3833 H 352.994 -0.769751 -2.4279 0
M  V30 3834 H 353.777 -2.4411 -2.41381 0
M  V30 3835 N 356.222 1.38976 -0.743202 0
M  V30 3836 C 357.638 1.53984 -0.419664 0
M  V30 3837 C 357.838 1.70837 1.0685 0
M  V30 3838 O 356.894 1.7135 1.8546 0
M  V30 3839 C 358.207 2.75287 -1.20985 0
M  V30 3840 C 359.755 2.89129 -1.19889 0
M  V30 3841 C 360.23 4.13381 -1.97181 0
M  V30 3842 N 361.721 4.20437 -1.94389 0
M  V30 3843 C 362.456 5.15547 -2.50996 0
M  V30 3844 N 361.952 6.16395 -3.16274 0
M  V30 3845 N 363.745 5.07822 -2.40984 0
M  V30 3846 H 355.896 1.26285 -1.7078 0
M  V30 3847 H 358.159 0.612689 -0.723406 0
M  V30 3848 H 357.865 2.69204 -2.26323 0
M  V30 3849 H 357.739 3.68184 -0.819759 0
M  V30 3850 H 360.126 2.947 -0.153606 0
M  V30 3851 H 360.207 1.97272 -1.62841 0
M  V30 3852 H 359.851 4.08572 -3.01714 0
M  V30 3853 H 359.781 5.04298 -1.51629 0
M  V30 3854 H 362.272 3.48205 -1.46839 0
M  V30 3855 H 362.585 6.85443 -3.56915 0
M  V30 3856 H 360.93 6.16758 -3.20367 0
M  V30 3857 H 364.121 4.27973 -1.89622 0
M  V30 3858 H 364.294 5.81767 -2.85397 0
M  V30 3859 N 357.7 0.491464 1.49741 0
M  V30 3860 C 358.633 -0.338464 2.25676 0
M  V30 3861 C 359.611 -0.978676 1.29849 0
M  V30 3862 O 360.795 -1.01064 1.59117 0
M  V30 3863 C 357.922 -1.47588 3.04853 0
M  V30 3864 C 356.968 -0.951 4.15762 0
M  V30 3865 S 357.801 0.150626 5.35288 0
M  V30 3866 C 358.957 -0.990178 6.18018 0
M  V30 3867 H 359.19 0.306068 2.9572 0
M  V30 3868 H 356.723 0.276622 1.51902 0
M  V30 3869 H 358.681 -2.12764 3.51058 0
M  V30 3870 H 357.342 -2.09199 2.34296 0
M  V30 3871 H 356.535 -1.80311 4.70642 0
M  V30 3872 H 356.137 -0.376607 3.72099 0
M  V30 3873 H 358.429 -1.89748 6.50386 0
M  V30 3874 H 359.372 -0.480205 7.0647 0
M  V30 3875 H 359.78 -1.25321 5.50413 0
M  V30 3876 N 359.178 -1.55987 0.224894 0
M  V30 3877 C 360.426 -1.97998 -0.405099 0
M  V30 3878 C 360.747 -1.11387 -1.60056 0
M  V30 3879 O 360.017 -0.191645 -1.9496 0
M  V30 3880 H 358.597 -0.731235 -0.152658 0
M  V30 3881 H 361.259 -1.92279 0.318567 0
M  V30 3882 H 360.355 -3.03463 -0.729167 0
M  V30 3883 N 360.656 0.0484629 -1.57525 0
M  V30 3884 C 361.566 1.07241 -2.08654 0
M  V30 3885 C 362.582 1.409 -1.02095 0
M  V30 3886 O 363.758 1.50609 -1.33712 0
M  V30 3887 C 360.823 2.36008 -2.5397 0
M  V30 3888 C 359.884 2.09108 -3.7493 0
M  V30 3889 C 359.117 3.31736 -4.18075 0
M  V30 3890 O 359.34 4.41714 -3.60895 0
M  V30 3891 O 358.274 3.18576 -5.10679 0
M  V30 3892 H 362.1 0.667965 -2.96263 0
M  V30 3893 H 359.685 0.26417 -1.47046 0
M  V30 3894 H 361.567 3.11747 -2.83535 0
M  V30 3895 H 360.242 2.75786 -1.69481 0
M  V30 3896 H 359.149 1.31 -3.50414 0
M  V30 3897 H 360.482 1.74198 -4.60343 0
M  V30 3898 N 362.134 1.5431 0.320358 0
M  V30 3899 C 363.545 1.63872 0.894594 0
M  V30 3900 C 363.896 0.534847 1.88769 0
M  V30 3901 O 363.021 -0.331732 2.13842 0
M  V30 3902 C 363.616 2.97049 1.62934 0
M  V30 3903 C 362.175 3.08796 2.15226 0
M  V30 3904 C 361.322 2.59456 0.978671 0
M  V30 3905 H 364.273 1.58398 0.0978544 0
M  V30 3906 H 364.294 2.87388 2.49376 0
M  V30 3907 H 363.806 3.7737 0.906302 0
M  V30 3908 H 361.907 2.33156 2.90636 0
M  V30 3909 H 362.02 4.14649 2.40006 0
M  V30 3910 H 360.384 2.1543 1.35875 0
M  V30 3911 H 361.167 3.42237 0.269895 0
M  V30 3912 N 363.613 -0.582584 1.46437 0
M  V30 3913 C 364.861 -1.33814 1.51453 0
M  V30 3914 C 365.182 -1.94277 0.167792 0
M  V30 3915 O 364.452 -1.78566 -0.805677 0
M  V30 3916 H 363.032 -0.496838 0.557818 0
M  V30 3917 H 365.694 -0.682281 1.82568 0
M  V30 3918 H 364.79 -2.14479 2.26728 0
M  V30 3919 N 365.091 -1.34144 -0.827227 0
M  V30 3920 C 366.368 -1.16844 -1.56865 0
M  V30 3921 C 366.748 0.260654 -2.09485 0
M  V30 3922 O 366.096 1.26138 -1.9053 0
M  V30 3923 C 366.306 -2.21939 -2.6934 0
M  V30 3924 C 367.654 -2.56695 -3.3822 0
M  V30 3925 O 368.678 -2.20695 -2.79593 0
M  V30 3926 O 367.537 -3.18518 -4.44082 0
M  V30 3927 H 364.631 -0.452669 -0.692112 0
M  V30 3928 H 367.177 -1.45763 -0.868973 0
M  V30 3929 H 365.949 -3.17882 -2.28182 0
M  V30 3930 H 365.572 -1.94172 -3.46962 0
M  V30 3931 N 366.569 1.04691 -1.17803 0
M  V30 3932 C 367.799 1.81183 -0.992788 0
M  V30 3933 C 368.207 1.8347 0.462098 0
M  V30 3934 O 367.55 1.2643 1.33271 0
M  V30 3935 C 367.612 3.28363 -1.46349 0
M  V30 3936 C 367.276 3.49749 -2.94151 0
M  V30 3937 C 368.273 3.41456 -3.92051 0
M  V30 3938 C 365.958 3.76548 -3.32441 0
M  V30 3939 C 367.952 3.59656 -5.26238 0
M  V30 3940 C 365.639 3.94396 -4.66792 0
M  V30 3941 C 366.637 3.8595 -5.635 0
M  V30 3942 O 366.325 4.03294 -6.9542 0
M  V30 3943 H 366.057 0.577622 -0.351182 0
M  V30 3944 H 368.611 1.32876 -1.5663 0
M  V30 3945 H 366.841 3.77609 -0.833574 0
M  V30 3946 H 368.53 3.86395 -1.24313 0
M  V30 3947 H 369.296 3.20723 -3.63815 0
M  V30 3948 H 365.175 3.82224 -2.57732 0
M  V30 3949 H 368.719 3.52979 -6.01707 0
M  V30 3950 H 364.616 4.14622 -4.94731 0
M  V30 3951 H 365.384 4.2049 -7.02232 0
M  V30 3952 N 368.047 0.979072 1.23499 0
M  V30 3953 C 368.977 0.537606 2.27227 0
M  V30 3954 C 369.958 -0.428539 1.64613 0
M  V30 3955 O 371.143 -0.322191 1.91509 0
M  V30 3956 C 368.273 -0.162052 3.46922 0
M  V30 3957 C 367.227 0.721242 4.21879 0
M  V30 3958 C 366.553 -0.110555 5.34586 0
M  V30 3959 C 367.853 2.01141 4.82016 0
M  V30 3960 H 369.547 1.40462 2.64406 0
M  V30 3961 H 367.093 0.67684 1.27102 0
M  V30 3962 H 369.046 -0.482192 4.18632 0
M  V30 3963 H 367.77 -1.06351 3.08799 0
M  V30 3964 H 366.429 1.02482 3.51984 0
M  V30 3965 H 366.077 -1.0125 4.92704 0
M  V30 3966 H 365.777 0.477325 5.85658 0
M  V30 3967 H 367.301 -0.425107 6.09118 0
M  V30 3968 H 368.715 1.75612 5.45741 0
M  V30 3969 H 367.112 2.54695 5.43369 0
M  V30 3970 H 368.182 2.69909 4.02836 0
M  V30 3971 N 369.525 -1.3858 0.750561 0
M  V30 3972 C 370.774 -1.99424 0.302172 0
M  V30 3973 C 371.087 -1.60254 -1.12152 0
M  V30 3974 O 372.293 -2.14046 -1.67023 0
M  V30 3975 C 370.749 -3.56558 0.489307 0
M  V30 3976 C 370.357 -4.04682 1.92189 0
M  V30 3977 C 372.101 -4.24374 0.103478 0
M  V30 3978 C 370.008 -5.54446 2.05775 0
M  V30 3979 H 368.938 -0.746046 0.10923 0
M  V30 3980 H 371.589 -1.58383 0.92667 0
M  V30 3981 H 369.971 -3.95472 -0.204329 0
M  V30 3982 H 371.145 -3.77065 2.64875 0
M  V30 3983 H 369.46 -3.4958 2.26236 0
M  V30 3984 H 372.057 -5.34384 0.183787 0
M  V30 3985 H 372.4 -4.05468 -0.943481 0
M  V30 3986 H 372.933 -3.90688 0.748854 0
M  V30 3987 H 369.672 -5.78252 3.08714 0
M  V30 3988 H 369.192 -5.83816 1.37546 0
M  V30 3989 H 370.871 -6.20099 1.84626 0
M  V30 3990 N 371.003 -0.499398 -1.49478 0
M  V30 3991 C 371.913 0.284489 -2.32869 0
M  V30 3992 C 372.929 0.968885 -1.44529 0
M  V30 3993 O 374.105 0.95062 -1.77553 0
M  V30 3994 C 371.17 1.33594 -3.19928 0
M  V30 3995 C 370.231 0.665149 -4.24116 0
M  V30 3996 C 369.464 1.6665 -5.07014 0
M  V30 3997 O 369.687 2.89618 -4.91404 0
M  V30 3998 O 368.621 1.22271 -5.8935 0
M  V30 3999 H 372.447 -0.39802 -3.01081 0
M  V30 4000 H 370.032 -0.260758 -1.47107 0
M  V30 4001 H 371.914 1.94431 -3.73864 0
M  V30 4002 H 370.589 2.0014 -2.54412 0
M  V30 4003 H 369.496 0.0170769 -3.74096 0
M  V30 4004 H 370.829 0.0421555 -4.92182 0
M  V30 4005 N 372.481 1.55866 -0.233164 0
M  V30 4006 C 373.897 1.59133 0.121988 0
M  V30 4007 C 374.097 1.25016 1.58029 0
M  V30 4008 O 373.153 0.990922 2.32243 0
M  V30 4009 C 374.466 2.99932 -0.214792 0
M  V30 4010 C 376.014 3.12601 -0.157971 0
M  V30 4011 C 376.489 4.55597 -0.46859 0
M  V30 4012 N 377.98 4.61305 -0.418585 0
M  V30 4013 C 378.715 5.69903 -0.63227 0
M  V30 4014 N 378.211 6.86819 -0.90835 0
M  V30 4015 N 380.004 5.59264 -0.563913 0
M  V30 4016 H 372.155 1.76315 -1.18434 0
M  V30 4017 H 374.418 0.820093 -0.475553 0
M  V30 4018 H 374.124 3.29588 -1.22739 0
M  V30 4019 H 373.998 3.74327 0.464691 0
M  V30 4020 H 376.385 2.82735 0.845283 0
M  V30 4021 H 376.466 2.40511 -0.871102 0
M  V30 4022 H 376.11 4.86182 -1.46934 0
M  V30 4023 H 376.04 5.25928 0.265865 0
M  V30 4024 H 378.531 3.77297 -0.213368 0
M  V30 4025 H 378.844 7.65507 -1.05919 0
M  V30 4026 H 377.189 6.88536 -0.945673 0
M  V30 4027 H 380.38 4.66802 -0.348372 0
M  V30 4028 H 380.553 6.43831 -0.733847 0
M  V30 4029 N 373.959 -0.0401083 1.57549 0
M  V30 4030 C 374.922 -1.02871 2.04817 0
M  V30 4031 C 375.922 -1.29708 0.950388 0
M  V30 4032 O 377.112 -1.24897 1.21435 0
M  V30 4033 C 374.244 -2.36443 2.45576 0
M  V30 4034 H 375.437 -0.620631 2.93408 0
M  V30 4035 H 372.99 -0.286667 1.53649 0
M  V30 4036 H 373.725 -2.82021 1.60108 0
M  V30 4037 H 373.51 -2.18296 3.25713 0
M  V30 4038 H 375 -3.07441 2.82612 0
M  V30 4039 N 375.437 -1.54477 -0.31217 0
M  V30 4040 C 376.684 -1.73227 -1.04875 0
M  V30 4041 C 377.012 -0.512042 -1.87639 0
M  V30 4042 O 376.267 0.506131 -1.89042 0
M  V30 4043 C 376.566 -2.967 -1.99258 0
M  V30 4044 C 376.232 -4.30974 -1.32559 0
M  V30 4045 C 374.894 -4.67477 -1.141 0
M  V30 4046 C 377.246 -5.14258 -0.847835 0
M  V30 4047 C 374.574 -5.84852 -0.465326 0
M  V30 4048 C 376.926 -6.32327 -0.185931 0
M  V30 4049 C 375.59 -6.67499 0.0107077 0
M  V30 4050 H 374.86 -0.633881 -0.383765 0
M  V30 4051 H 377.507 -1.88727 -0.324731 0
M  V30 4052 H 375.812 -2.75935 -2.7815 0
M  V30 4053 H 377.509 -3.08401 -2.563 0
M  V30 4054 H 374.099 -4.02262 -1.4793 0
M  V30 4055 H 378.283 -4.86565 -0.978192 0
M  V30 4056 H 373.539 -6.10654 -0.301883 0
M  V30 4057 H 377.713 -6.96135 0.192211 0
M  V30 4058 H 375.34 -7.58306 0.536287 0
M  V30 4059 N 376.915 0.57481 -1.46744 0
M  V30 4060 C 378.161 1.3347 -1.52688 0
M  V30 4061 C 378.494 1.93353 -0.181229 0
M  V30 4062 O 377.769 1.76912 0.808237 0
M  V30 4063 C 378.052 2.45811 -2.63152 0
M  V30 4064 C 377.905 1.90912 -4.07275 0
M  V30 4065 C 379.224 3.47822 -2.69644 0
M  V30 4066 H 376.343 0.483935 -0.555856 0
M  V30 4067 H 378.985 0.644968 -1.78718 0
M  V30 4068 H 377.135 3.04646 -2.41088 0
M  V30 4069 H 378.807 1.36473 -4.4065 0
M  V30 4070 H 377.05 1.21691 -4.16382 0
M  V30 4071 H 377.721 2.72042 -4.80309 0
M  V30 4072 H 380.197 2.9888 -2.895 0
M  V30 4073 H 379.073 4.23876 -3.48742 0
M  V30 4074 H 379.334 4.05555 -1.76005 0
M  V30 4075 N 378.394 1.34581 0.820102 0
M  V30 4076 C 379.304 1.28471 1.96297 0
M  V30 4077 C 380.32 0.191902 1.72939 0
M  V30 4078 O 381.496 0.418879 1.96996 0
M  V30 4079 C 378.561 1.04281 3.30645 0
M  V30 4080 C 377.622 2.22745 3.66992 0
M  V30 4081 C 376.855 1.997 4.9493 0
M  V30 4082 O 377.078 0.956656 5.6232 0
M  V30 4083 O 376.012 2.86723 5.2922 0
M  V30 4084 H 379.838 2.24624 2.04396 0
M  V30 4085 H 377.423 1.14816 0.955913 0
M  V30 4086 H 379.305 0.925841 4.11104 0
M  V30 4087 H 377.98 0.111697 3.23507 0
M  V30 4088 H 376.887 2.40003 2.86966 0
M  V30 4089 H 378.22 3.14257 3.78819 0
M  V30 4090 N 379.872 -1.04064 1.18357 0
M  V30 4091 C 380.819 -2.12077 0.910603 0
M  V30 4092 C 381.789 -1.65421 -0.15 0
M  V30 4093 O 382.974 -1.90797 -0.0103614 0
M  V30 4094 C 380.114 -3.42252 0.442472 0
M  V30 4095 C 379.227 -4.0252 1.5685 0
M  V30 4096 C 378.362 -5.20657 1.05309 0
M  V30 4097 C 377.401 -5.72955 2.1538 0
M  V30 4098 N 376.538 -6.8238 1.65233 0
M  V30 4099 H 381.378 -2.34764 1.83548 0
M  V30 4100 H 378.915 -1.15157 0.915279 0
M  V30 4101 H 380.873 -4.16921 0.152534 0
M  V30 4102 H 379.503 -3.19712 -0.445428 0
M  V30 4103 H 378.555 -3.25178 1.97391 0
M  V30 4104 H 379.867 -4.37362 2.39824 0
M  V30 4105 H 379.021 -6.0244 0.717677 0
M  V30 4106 H 377.76 -4.87318 0.19293 0
M  V30 4107 H 376.765 -4.89793 2.49766 0
M  V30 4108 H 377.99 -6.08337 3.01832 0
M  V30 4109 H 375.936 -6.50917 0.815064 0
M  V30 4110 H 375.853 -7.16286 2.41805 0
M  V30 4111 H 377.121 -7.67788 1.34619 0
M  V30 4112 O 381.389 -1.11421 -1.16909 0
M  V30 4113 H 382.08 -0.820425 -1.75467 0
M  V30 END ATOM
M  V30 BEGIN BOND
M  V30 END BOND
M  V30 END CTAB
M  END
$$$$
