drugbank_target|Q45697 Uric acid degradation bifunctional protein (DB01875; DB05321)
 OpenBabel12092119523D

  0  0  0     0  0            999 V3000
M  V30 BEGIN CTAB
M  V30 COUNTS 8133 8222 0 0 0
M  V30 BEGIN ATOM
M  V30 1 H -0.908 1.98254 -0.117106 0
M  V30 2 N 0 1.576 0 0
M  V30 3 C 0.933 2.03868 1.02534 0
M  V30 4 C 1.911 0.928543 1.3348 0
M  V30 5 O 3.095 1.19667 1.45644 0
M  V30 6 C 0.222 2.43627 2.35294 0
M  V30 7 C -0.732 3.65373 2.2001 0
M  V30 8 S 0.101 5.13292 1.52614 0
M  V30 9 C 1.257 5.56322 2.86805 0
M  V30 10 H 1.49 2.90518 0.631377 0
M  V30 11 H -0.977 1.52953 0.210867 0
M  V30 12 H 0.981 2.67203 3.11629 0
M  V30 13 H -0.358 1.57376 2.7183 0
M  V30 14 H -1.165 3.90944 3.18086 0
M  V30 15 H -1.563 3.418 1.51819 0
M  V30 16 H 0.729 5.58782 3.83104 0
M  V30 17 H 1.672 6.56266 2.65933 0
M  V30 18 H 2.08 4.83886 2.90714 0
M  V30 19 N 1.4781 -0.272755 1.55222 0
M  V30 20 C 2.4111 -1.3627 1.83046 0
M  V30 21 C 3.3891 -1.47536 0.683521 0
M  V30 22 O 4.5731 -1.64157 0.926545 0
M  V30 23 C 1.7001 -2.73908 1.99229 0
M  V30 24 C 0.7461 -2.79925 3.21783 0
M  V30 25 S 1.5791 -2.39146 4.79134 0
M  V30 26 C 2.7351 -3.78758 4.9829 0
M  V30 27 H 2.9681 -1.12464 2.75207 0
M  V30 28 H 0.5011 -0.472398 1.46996 0
M  V30 29 H 2.4591 -3.53171 2.09238 0
M  V30 30 H 1.1201 -2.94965 1.07956 0
M  V30 31 H 0.3131 -3.80946 3.29994 0
M  V30 32 H -0.0849 -2.08683 3.10367 0
M  V30 33 H 2.2071 -4.7403 4.84047 0
M  V30 34 H 3.1501 -3.75499 6.00338 0
M  V30 35 H 3.5581 -3.70072 4.26271 0
M  V30 36 N 2.9562 -1.48159 -0.537278 0
M  V30 37 C 4.3722 -1.34118 -0.865129 0
M  V30 38 C 4.5722 -0.346678 -1.98495 0
M  V30 39 O 3.6282 0.234715 -2.51407 0
M  V30 40 C 4.9412 -2.73963 -1.23954 0
M  V30 41 C 6.4892 -2.82397 -1.34984 0
M  V30 42 C 6.9642 -4.22928 -1.75772 0
M  V30 43 N 8.4552 -4.25566 -1.82887 0
M  V30 44 C 9.1902 -5.31235 -2.15817 0
M  V30 45 N 8.6862 -6.47189 -2.47222 0
M  V30 46 N 10.4792 -5.18624 -2.16761 0
M  V30 47 H 2.6302 -2.1144 0.201715 0
M  V30 48 H 4.8932 -0.947598 0.0275949 0
M  V30 49 H 4.5992 -3.48264 -0.490381 0
M  V30 50 H 4.4732 -3.0702 -2.19132 0
M  V30 51 H 6.8602 -2.08356 -2.08978 0
M  V30 52 H 6.9412 -2.5297 -0.379448 0
M  V30 53 H 6.5852 -4.97482 -1.02341 0
M  V30 54 H 6.5152 -4.49794 -2.73848 0
M  V30 55 H 9.0062 -3.41924 -1.60924 0
M  V30 56 H 9.3192 -7.23564 -2.71433 0
M  V30 57 H 7.6642 -6.50476 -2.44757 0
M  V30 58 H 10.8552 -4.27056 -1.91679 0
M  V30 59 H 11.0282 -6.01078 -2.42093 0
M  V30 60 N 4.4343 0.785586 -1.36625 0
M  V30 61 C 5.3643 1.91259 -1.33949 0
M  V30 62 C 6.3453 1.68795 -0.210325 0
M  V30 63 O 7.5303 1.89854 -0.408561 0
M  V30 64 C 4.6603 3.28339 -1.13186 0
M  V30 65 C 3.6143 3.65335 -2.22967 0
M  V30 66 C 2.9403 5.00806 -1.87342 0
M  V30 67 C 4.2403 3.7352 -3.65075 0
M  V30 68 H 5.9343 1.93755 -2.28253 0
M  V30 69 H 3.4803 0.930788 -1.09874 0
M  V30 70 H 5.4333 4.06804 -1.09948 0
M  V30 71 H 4.1573 3.2624 -0.153332 0
M  V30 72 H 2.8163 2.89169 -2.25337 0
M  V30 73 H 2.4643 4.95233 -0.880545 0
M  V30 74 H 2.1643 5.26529 -2.60846 0
M  V30 75 H 3.6883 5.81687 -1.85667 0
M  V30 76 H 5.1023 4.42168 -3.64911 0
M  V30 77 H 3.4993 4.10731 -4.37516 0
M  V30 78 H 4.5693 2.74527 -3.99703 0
M  V30 79 N 5.9124 1.20967 1.01018 0
M  V30 80 C 6.8594 0.964281 2.09691 0
M  V30 81 C 7.8294 -0.107853 1.65749 0
M  V30 82 O 9.0144 0.0381987 1.90762 0
M  V30 83 C 6.1544 0.52943 3.41015 0
M  V30 84 C 5.2674 1.67043 3.98398 0
M  V30 85 C 4.4024 1.18525 5.17808 0
M  V30 86 C 3.4414 2.29892 5.67288 0
M  V30 87 N 2.5784 1.82546 6.77954 0
M  V30 88 H 7.4184 1.89463 2.30017 0
M  V30 89 H 4.9554 0.944289 1.1279 0
M  V30 90 H 6.9134 0.258588 4.16398 0
M  V30 91 H 5.5434 -0.363919 3.20742 0
M  V30 92 H 4.5954 2.05603 3.20049 0
M  V30 93 H 5.9074 2.50877 4.31117 0
M  V30 94 H 5.0614 0.870762 6.00419 0
M  V30 95 H 3.8004 0.316887 4.86669 0
M  V30 96 H 2.8054 2.6215 4.83278 0
M  V30 97 H 4.0304 3.17216 6.00459 0
M  V30 98 H 1.9764 0.980454 6.48632 0
M  V30 99 H 1.8934 2.59956 7.09901 0
M  V30 100 H 3.1614 1.54115 7.64113 0
M  V30 101 N 7.3905 -1.2043 1.01659 0
M  V30 102 C 8.3225 -2.22626 0.544988 0
M  V30 103 C 9.3355 -1.58479 -0.372609 0
M  V30 104 O 10.5245 -1.77679 -0.170958 0
M  V30 105 C 7.6245 -3.38141 -0.22663 0
M  V30 106 C 6.7975 -4.31877 0.692876 0
M  V30 107 C 5.8565 -5.26191 -0.0311616 0
M  V30 108 O 4.8825 -5.6612 0.591343 0
M  V30 109 N 6.0845 -5.65618 -1.30601 0
M  V30 110 H 8.8495 -2.63716 1.42388 0
M  V30 111 H 6.4105 -1.34971 0.894116 0
M  V30 112 H 8.4025 -3.98239 -0.72024 0
M  V30 113 H 6.9725 -2.95943 -1.00681 0
M  V30 114 H 6.1925 -3.69746 1.36679 0
M  V30 115 H 7.4805 -4.91426 1.31824 0
M  V30 116 H 6.8785 -5.3519 -1.83269 0
M  V30 117 H 5.4355 -6.28025 -1.74435 0
M  V30 118 N 8.8686 -0.792821 -1.36206 0
M  V30 119 C 9.7986 -0.207853 -2.32573 0
M  V30 120 C 10.7796 0.659055 -1.56813 0
M  V30 121 O 11.9646 0.592176 -1.84951 0
M  V30 122 C 9.0946 0.655449 -3.41059 0
M  V30 123 C 8.0486 -0.111842 -4.27854 0
M  V30 124 C 7.3746 0.872274 -5.27537 0
M  V30 125 C 8.6746 -1.30299 -5.05786 0
M  V30 126 H 10.3686 -1.01294 -2.81744 0
M  V30 127 H 7.9146 -0.48854 -1.3546 0
M  V30 128 H 9.8676 1.07464 -4.07467 0
M  V30 129 H 8.5916 1.49328 -2.90463 0
M  V30 130 H 7.2506 -0.512053 -3.63006 0
M  V30 131 H 6.8986 1.70523 -4.73214 0
M  V30 132 H 6.5986 0.363291 -5.86476 0
M  V30 133 H 8.1226 1.28996 -5.96818 0
M  V30 134 H 9.5366 -0.959379 -5.65216 0
M  V30 135 H 7.9336 -1.7455 -5.74154 0
M  V30 136 H 9.0036 -2.09663 -4.37229 0
M  V30 137 N 10.3467 1.47872 -0.545128 0
M  V30 138 C 11.2947 2.31533 0.222512 0
M  V30 139 C 12.2887 1.42177 0.920985 0
M  V30 140 O 13.4947 1.59005 0.843645 0
M  V30 141 H 9.8697 0.746519 0.0906278 0
M  V30 142 H 11.8407 2.94139 -0.50246 0
M  V30 143 C 10.5897 3.2457 1.24699 0
M  V30 144 H 9.9127 3.93283 0.718944 0
M  V30 145 H 11.3527 3.85963 1.75523 0
M  V30 146 C 9.8117 2.47237 2.28856 0
M  V30 147 O 10.3417 2.20808 3.35569 0
M  V30 148 N 8.5477 2.08461 2.02466 0
M  V30 149 H 8.0947 2.30155 1.157 0
M  V30 150 H 8.0527 1.57033 2.72375 0
M  V30 151 N 11.8248 0.280983 1.55075 0
M  V30 152 C 12.7348 -0.61388 2.26426 0
M  V30 153 C 13.7508 -1.16521 1.29224 0
M  V30 154 O 14.9268 -1.19426 1.62171 0
M  V30 155 C 11.9918 -1.7788 2.9759 0
M  V30 156 C 11.0528 -1.26355 4.10284 0
M  V30 157 C 10.2858 -2.37295 4.78045 0
M  V30 158 O 10.5088 -3.56777 4.45047 0
M  V30 159 O 9.4428 -2.05119 5.65871 0
M  V30 160 H 13.2688 -0.0356932 3.03679 0
M  V30 161 H 10.8538 0.0481686 1.49322 0
M  V30 162 H 12.7358 -2.45791 3.42293 0
M  V30 163 H 11.4108 -2.34397 2.23249 0
M  V30 164 H 10.3178 -0.550735 3.70024 0
M  V30 165 H 11.6508 -0.744065 4.86543 0
M  V30 166 N 13.3029 -1.57598 0.00835791 0
M  V30 167 C 14.2359 -2.04409 -1.01451 0
M  V30 168 C 15.2139 -0.935609 -1.32985 0
M  V30 169 O 16.3979 -1.20437 -1.45007 0
M  V30 170 C 13.5249 -2.44872 -2.33999 0
M  V30 171 C 12.5709 -3.66535 -2.18069 0
M  V30 172 S 13.4039 -5.14095 -1.4989 0
M  V30 173 C 14.5599 -5.57835 -2.8385 0
M  V30 174 H 14.7929 -2.90849 -0.615961 0
M  V30 175 H 12.3259 -1.53063 -0.202752 0
M  V30 176 H 14.2839 -2.68852 -3.10208 0
M  V30 177 H 12.9449 -1.58815 -2.70992 0
M  V30 178 H 12.1379 -3.92626 -3.16008 0
M  V30 179 H 11.7399 -3.426 -1.50004 0
M  V30 180 H 14.0319 -5.60806 -3.80136 0
M  V30 181 H 14.9749 -6.57667 -2.62449 0
M  V30 182 H 15.3829 -4.85421 -2.88144 0
M  V30 183 N 14.781 0.264519 -1.55364 0
M  V30 184 C 16.006 1.01726 -1.80739 0
M  V30 185 C 16.431 1.78836 -0.583044 0
M  V30 186 O 15.789 1.75167 0.467566 0
M  V30 187 C 15.837 1.94482 -3.03659 0
M  V30 188 O 14.941 3.03386 -2.7934 0
M  V30 189 H 14.282 0.290395 -0.597132 0
M  V30 190 H 16.812 0.290854 -2.02522 0
M  V30 191 H 16.822 2.36278 -3.32621 0
M  V30 192 H 15.497 1.37772 -3.92418 0
M  V30 193 H 14.074 2.65844 -2.61498 0
M  V30 194 N 16.2591 1.48442 0.529413 0
M  V30 195 C 17.2221 1.62524 1.61612 0
M  V30 196 C 18.2221 0.498509 1.52877 0
M  V30 197 O 19.4121 0.76431 1.56537 0
M  V30 198 C 16.5441 1.59597 3.01233 0
M  V30 199 H 17.7371 2.59423 1.50465 0
M  V30 200 H 15.2901 1.37047 0.751514 0
M  V30 201 H 16.0251 0.641781 3.17886 0
M  V30 202 H 15.8101 2.41397 3.08982 0
M  V30 203 H 17.3001 1.72646 3.80241 0
M  V30 204 N 17.7372 -0.778329 1.37039 0
M  V30 205 C 18.9622 -1.57248 1.35233 0
M  V30 206 C 19.3872 -1.87999 -0.0615568 0
M  V30 207 O 18.7452 -1.48734 -1.03672 0
M  V30 208 C 18.7932 -2.86353 2.19167 0
M  V30 209 O 17.8972 -3.80442 1.59178 0
M  V30 210 H 17.2382 -0.476569 0.462362 0
M  V30 211 H 19.7682 -0.963853 1.80474 0
M  V30 212 H 19.7782 -3.35519 2.32145 0
M  V30 213 H 18.4532 -2.63299 3.21942 0
M  V30 214 H 17.0302 -3.39067 1.55203 0
M  V30 215 N 19.2153 -1.21501 -1.00376 0
M  V30 216 C 20.1253 -0.991447 -2.12621 0
M  V30 217 C 21.1413 0.0568446 -1.73907 0
M  V30 218 O 22.3173 -0.13348 -2.00957 0
M  V30 219 C 19.3823 -0.560312 -3.42142 0
M  V30 220 C 18.4433 -1.68096 -3.95022 0
M  V30 221 C 17.6763 -1.2703 -5.18362 0
M  V30 222 O 17.8993 -0.144438 -5.70217 0
M  V30 223 O 16.8333 -2.08269 -5.64719 0
M  V30 224 H 20.6593 -1.93158 -2.34358 0
M  V30 225 H 18.2443 -0.999999 -1.10997 0
M  V30 226 H 20.1263 -0.329724 -4.20108 0
M  V30 227 H 18.8013 0.351089 -3.2179 0
M  V30 228 H 17.7083 -1.96597 -3.18278 0
M  V30 229 H 19.0413 -2.56983 -4.19786 0
M  V30 230 N 20.6934 1.19889 -1.02296 0
M  V30 231 C 21.9404 1.8942 -0.715972 0
M  V30 232 C 22.2684 1.79251 0.754944 0
M  V30 233 O 21.5234 1.17526 1.56481 0
M  V30 234 C 21.8224 3.39883 -1.10518 0
M  V30 235 C 21.4884 3.70254 -2.57337 0
M  V30 236 C 20.1504 3.78254 -2.97452 0
M  V30 237 C 22.5024 3.84052 -3.52354 0
M  V30 238 C 19.8304 3.97514 -4.31509 0
M  V30 239 C 22.1824 4.04824 -4.86108 0
M  V30 240 C 20.8464 4.11054 -5.25919 0
M  V30 241 H 20.1164 0.693138 -0.261993 0
M  V30 242 H 22.7634 1.42012 -1.28472 0
M  V30 243 H 21.0684 3.8915 -0.454953 0
M  V30 244 H 22.7654 3.9199 -0.845261 0
M  V30 245 H 19.3554 3.64632 -2.25258 0
M  V30 246 H 23.5394 3.77221 -3.22518 0
M  V30 247 H 18.7954 4.00574 -4.61898 0
M  V30 248 H 22.9694 4.14442 -5.59653 0
M  V30 249 H 20.5964 4.2573 -6.29808 0
M  V30 250 N 22.1715 0.800033 1.35784 0
M  V30 251 C 23.4205 0.37387 1.98205 0
M  V30 252 C 23.7335 -1.06302 1.64193 0
M  V30 253 O 24.9395 -1.59198 2.19928 0
M  V30 254 C 23.3955 0.617532 3.54562 0
M  V30 255 C 23.0035 2.06654 3.9749 0
M  V30 256 C 24.7475 0.256401 4.23725 0
M  V30 257 C 22.6545 2.2563 5.46667 0
M  V30 258 H 21.5845 0.136055 0.741623 0
M  V30 259 H 24.2355 0.983166 1.54939 0
M  V30 260 H 22.6175 -0.0616248 3.95952 0
M  V30 261 H 23.7915 2.78296 3.67271 0
M  V30 262 H 22.1065 2.38691 3.41197 0
M  V30 263 H 24.7035 0.376318 5.33374 0
M  V30 264 H 25.0465 -0.796692 4.08606 0
M  V30 265 H 25.5795 0.889214 3.87734 0
M  V30 266 H 22.3185 3.2936 5.66747 0
M  V30 267 H 21.8385 1.58504 5.78478 0
M  V30 268 H 23.5175 2.06861 6.1304 0
M  V30 269 N 23.6496 -1.47581 0.552962 0
M  V30 270 C 24.5996 -2.26961 -0.217423 0
M  V30 271 C 25.5836 -1.34099 -0.889168 0
M  V30 272 O 26.7756 -1.58483 -0.788176 0
M  V30 273 C 23.9046 -3.19756 -1.24944 0
M  V30 274 C 22.9906 -4.20097 -0.581327 0
M  V30 275 N 23.3816 -5.04614 0.346171 0
M  V30 276 C 21.6796 -4.38099 -0.835767 0
M  V30 277 C 22.3806 -5.77052 0.733854 0
M  V30 278 N 21.3566 -5.43526 0.0896567 0
M  V30 279 H 25.1586 -2.89688 0.495761 0
M  V30 280 H 22.6726 -1.58068 0.372597 0
M  V30 281 H 24.6696 -3.75305 -1.81527 0
M  V30 282 H 23.3296 -2.58585 -1.96376 0
M  V30 283 H 24.3406 -5.12869 0.720098 0
M  V30 284 H 21.0176 -3.88102 -1.53892 0
M  V30 285 H 22.4076 -6.5504 1.49574 0
M  V30 286 N 25.1277 -0.289203 -1.54924 0
M  V30 287 C 26.0577 0.58549 -2.2604 0
M  V30 288 C 27.0387 1.14753 -1.25562 0
M  V30 289 O 28.2237 1.17906 -1.54311 0
M  V30 290 C 25.3537 1.76305 -2.99222 0
M  V30 291 C 24.3077 1.33191 -4.06748 0
M  V30 292 C 23.6337 2.5937 -4.6758 0
M  V30 293 C 24.9337 0.471775 -5.20165 0
M  V30 294 H 26.6277 -0.00763532 -2.99399 0
M  V30 295 H 24.1737 -0.00511229 -1.43999 0
M  V30 296 H 26.1267 2.38097 -3.47689 0
M  V30 297 H 24.8507 2.38223 -2.23422 0
M  V30 298 H 23.5097 0.737121 -3.59113 0
M  V30 299 H 23.1577 3.19576 -3.88433 0
M  V30 300 H 22.8577 2.31228 -5.40192 0
M  V30 301 H 24.3817 3.21985 -5.18804 0
M  V30 302 H 25.7957 0.995056 -5.64599 0
M  V30 303 H 24.1927 0.284639 -5.99425 0
M  V30 304 H 25.2627 -0.506041 -4.82252 0
M  V30 305 N 26.6058 1.57591 -0.0167156 0
M  V30 306 C 27.5358 2.12496 0.967858 0
M  V30 307 C 28.5168 1.03807 1.34752 0
M  V30 308 O 29.7018 1.31577 1.42833 0
M  V30 309 C 26.8318 2.64194 2.25431 0
M  V30 310 C 25.7858 3.77559 2.01576 0
M  V30 311 C 25.1118 4.15636 3.36379 0
M  V30 312 C 26.4118 5.04151 1.36489 0
M  V30 313 H 28.1058 2.95013 0.510643 0
M  V30 314 H 25.6518 1.41915 0.244181 0
M  V30 315 H 27.6048 3.01236 2.94678 0
M  V30 316 H 26.3288 1.78821 2.73296 0
M  V30 317 H 24.9878 3.40937 1.34751 0
M  V30 318 H 24.6358 3.27263 3.81979 0
M  V30 319 H 24.3358 4.92022 3.21229 0
M  V30 320 H 25.8598 4.5525 4.06915 0
M  V30 321 H 27.2738 5.38857 1.95718 0
M  V30 322 H 25.6708 5.85453 1.31776 0
M  V30 323 H 26.7408 4.83733 0.336219 0
M  V30 324 N 28.0839 -0.256276 1.55502 0
M  V30 325 C 29.3319 -0.983672 1.76545 0
M  V30 326 C 29.6529 -1.86206 0.578982 0
M  V30 327 O 28.9229 -1.91656 -0.405577 0
M  V30 328 H 27.5029 -0.366191 0.651086 0
M  V30 329 H 30.1649 -0.276479 1.92929 0
M  V30 330 H 29.2609 -1.61087 2.67315 0
M  V30 331 N 29.562 -1.4872 -0.521534 0
M  V30 332 C 30.81 -1.56857 -1.27437 0
M  V30 333 C 31.131 -0.247982 -1.93417 0
M  V30 334 O 30.401 0.731151 -1.81744 0
M  V30 335 H 28.981 -0.577885 -0.473347 0
M  V30 336 H 31.643 -1.85233 -0.606205 0
M  V30 337 H 30.739 -2.35402 -2.0492 0
M  V30 338 N 31.0401 0.771051 -1.3745 0
M  V30 339 C 32.2861 1.5319 -1.32894 0
M  V30 340 C 32.6191 1.94008 0.0862511 0
M  V30 341 O 31.8941 1.64124 1.04373 0
M  V30 342 C 32.1771 2.79648 -2.26868 0
M  V30 343 C 32.0301 2.45079 -3.77169 0
M  V30 344 C 33.3491 3.81583 -2.19277 0
M  V30 345 H 30.4681 0.555744 -0.484064 0
M  V30 346 H 33.1101 0.884492 -1.68157 0
M  V30 347 H 31.2601 3.34891 -1.96926 0
M  V30 348 H 32.9321 1.95745 -4.1771 0
M  V30 349 H 31.1751 1.77767 -3.95704 0
M  V30 350 H 31.8461 3.35478 -4.38359 0
M  V30 351 H 34.3221 3.35835 -2.45671 0
M  V30 352 H 33.1981 4.67787 -2.87171 0
M  V30 353 H 33.4591 4.25897 -1.18592 0
M  V30 354 N 32.5182 1.22032 0.997298 0
M  V30 355 C 33.7652 1.04222 1.73621 0
M  V30 356 C 34.0932 -0.423264 1.89839 0
M  V30 357 O 33.3482 -1.3302 1.43542 0
M  V30 358 C 33.6472 1.69345 3.14733 0
M  V30 359 C 33.3132 3.19226 3.18442 0
M  V30 360 C 31.9752 3.60124 3.19161 0
M  V30 361 C 34.3272 4.15181 3.15078 0
M  V30 362 C 31.6552 4.95467 3.14212 0
M  V30 363 C 34.0072 5.50495 3.1167 0
M  V30 364 C 32.6712 5.90779 3.10703 0
M  V30 365 H 31.9412 0.381374 0.635323 0
M  V30 366 H 34.5882 1.51732 1.16831 0
M  V30 367 H 32.8932 1.14147 3.74803 0
M  V30 368 H 34.5902 1.53059 3.7064 0
M  V30 369 H 31.1802 2.86659 3.18629 0
M  V30 370 H 35.3642 3.84605 3.13676 0
M  V30 371 H 30.6202 5.25916 3.11805 0
M  V30 372 H 34.7942 6.24576 3.08022 0
M  V30 373 H 32.4212 6.9562 3.06622 0
M  V30 374 N 33.9963 -1.19345 1.0293 0
M  V30 375 C 34.9063 -2.26245 0.620515 0
M  V30 376 C 35.9223 -1.70486 -0.347928 0
M  V30 377 O 37.0983 -2.00347 -0.205704 0
M  V30 378 C 34.1633 -3.46693 -0.0218957 0
M  V30 379 C 33.2243 -4.17632 0.994102 0
M  V30 380 C 32.4573 -5.32329 0.382253 0
M  V30 381 O 32.6803 -5.64552 -0.814676 0
M  V30 382 O 31.6143 -5.91664 1.10531 0
M  V30 383 H 35.4403 -2.63453 1.51083 0
M  V30 384 H 33.0253 -1.26207 0.799513 0
M  V30 385 H 34.9073 -4.19683 -0.380072 0
M  V30 386 H 33.5823 -3.11333 -0.886209 0
M  V30 387 H 32.4893 -3.4676 1.40387 0
M  V30 388 H 33.8223 -4.56964 1.8288 0
M  V30 389 N 35.4744 -0.807222 -1.35358 0
M  V30 390 C 36.4224 -0.20614 -2.31685 0
M  V30 391 C 37.4164 0.644445 -1.56663 0
M  V30 392 O 38.6224 0.537538 -1.71786 0
M  V30 393 H 34.9974 -0.0479006 -0.750473 0
M  V30 394 H 36.9684 -1.03369 -2.79924 0
M  V30 395 C 35.7174 0.630212 -3.41941 0
M  V30 396 H 35.0404 -0.0149558 -3.99797 0
M  V30 397 H 36.4804 1.01716 -4.11619 0
M  V30 398 C 34.9394 1.79601 -2.85035 0
M  V30 399 O 35.4694 2.89351 -2.78637 0
M  V30 400 N 33.6754 1.60774 -2.42074 0
M  V30 401 H 33.2224 0.715009 -2.47478 0
M  V30 402 H 33.1804 2.38933 -2.04349 0
M  V30 403 N 36.9525 1.47285 -0.560781 0
M  V30 404 C 38.1775 2.07359 -0.0410566 0
M  V30 405 C 38.6025 1.41017 1.24483 0
M  V30 406 O 37.9605 0.486368 1.74654 0
M  V30 407 C 38.0085 3.6035 0.134123 0
M  V30 408 O 37.1125 3.94681 1.19587 0
M  V30 409 H 36.4535 0.661887 -0.0529291 0
M  V30 410 H 38.9835 1.89252 -0.777482 0
M  V30 411 H 38.9935 4.0652 0.347207 0
M  V30 412 H 37.6685 4.08034 -0.805047 0
M  V30 413 H 36.2455 3.60251 0.962987 0
M  V30 414 N 38.4306 0.297415 1.54768 0
M  V30 415 C 39.6556 -0.318435 2.04941 0
M  V30 416 C 40.0806 -1.4701 1.17345 0
M  V30 417 O 39.4386 -1.80436 0.176758 0
M  V30 418 C 39.4866 -0.755749 3.52592 0
M  V30 419 O 38.5906 -1.86088 3.68028 0
M  V30 420 H 37.9316 -0.062421 0.661059 0
M  V30 421 H 40.4616 0.438215 1.99852 0
M  V30 422 H 40.4716 -1.04552 3.94376 0
M  V30 423 H 39.1466 0.0867233 4.1581 0
M  V30 424 H 37.7236 -1.57193 3.38149 0
M  V30 425 N 39.9087 -1.5758 0.0250728 0
M  V30 426 C 41.1547 -1.92746 -0.649648 0
M  V30 427 C 41.5097 -0.901588 -1.69968 0
M  V30 428 O 40.8027 0.0829251 -1.9142 0
M  V30 429 C 40.9967 -3.32421 -1.31268 0
M  V30 430 C 40.8257 -4.48499 -0.328394 0
M  V30 431 C 39.5957 -5.05251 0.070284 0
M  V30 432 C 41.7937 -5.12618 0.415665 0
M  V30 433 N 39.7757 -6.04851 1.05016 0
M  V30 434 C 41.1467 -6.0728 1.24943 0
M  V30 435 C 43.2017 -4.95612 0.476803 0
M  V30 436 C 41.9047 -6.86766 2.1388 0
M  V30 437 C 43.9307 -5.75703 1.3535 0
M  V30 438 C 43.2927 -6.69978 2.17504 0
M  V30 439 H 39.3917 -0.753231 -0.210159 0
M  V30 440 H 41.9757 -1.94486 0.0912999 0
M  V30 441 H 40.1467 -3.31508 -2.02379 0
M  V30 442 H 41.8787 -3.54946 -1.94411 0
M  V30 443 H 38.6337 -4.72628 -0.303323 0
M  V30 444 H 39.0577 -6.5934 1.53622 0
M  V30 445 H 43.6997 -4.22554 -0.144105 0
M  V30 446 H 41.4177 -7.59132 2.77027 0
M  V30 447 H 45.0037 -5.64579 1.40504 0
M  V30 448 H 43.8837 -7.30873 2.84244 0
M  V30 449 N 41.3868 0.248026 -1.55636 0
M  V30 450 C 42.6328 0.97767 -1.77678 0
M  V30 451 C 42.9658 1.85016 -0.590135 0
M  V30 452 O 42.2408 1.90095 0.411611 0
M  V30 453 C 42.5238 1.83914 -3.09593 0
M  V30 454 C 42.3768 0.99491 -4.38659 0
M  V30 455 C 43.6958 2.82183 -3.37729 0
M  V30 456 H 40.8148 0.354005 -0.646413 0
M  V30 457 H 43.4568 0.248253 -1.88371 0
M  V30 458 H 41.6068 2.46104 -3.00608 0
M  V30 459 H 43.2788 0.391789 -4.59633 0
M  V30 460 H 41.5218 0.299231 -4.32767 0
M  V30 461 H 42.1928 1.63145 -5.2734 0
M  V30 462 H 44.6688 2.30129 -3.4667 0
M  V30 463 H 43.5448 3.39582 -4.31249 0
M  V30 464 H 43.8058 3.58588 -2.58586 0
M  V30 465 N 42.8649 1.48995 0.513639 0
M  V30 466 C 43.8279 1.64229 1.59879 0
M  V30 467 C 44.8279 0.514696 1.5234 0
M  V30 468 O 46.0179 0.78087 1.55718 0
M  V30 469 C 43.1499 1.62783 2.99524 0
M  V30 470 H 44.3429 2.61004 1.47705 0
M  V30 471 H 41.8959 1.37837 0.736936 0
M  V30 472 H 42.6309 0.675461 3.17188 0
M  V30 473 H 42.4159 2.4466 3.06404 0
M  V30 474 H 43.9059 1.76669 3.78388 0
M  V30 475 N 44.343 -0.763751 1.37857 0
M  V30 476 C 45.253 -1.90817 1.36478 0
M  V30 477 C 46.269 -1.71997 0.263248 0
M  V30 478 O 47.445 -1.95095 0.499979 0
M  V30 479 C 44.51 -3.2605 1.17864 0
M  V30 480 C 43.571 -3.57467 2.3773 0
M  V30 481 C 42.804 -4.86249 2.19995 0
M  V30 482 O 43.027 -5.57884 1.18836 0
M  V30 483 O 41.961 -5.16911 3.08361 0
M  V30 484 H 45.787 -1.94933 2.32884 0
M  V30 485 H 43.372 -0.907619 1.1867 0
M  V30 486 H 45.254 -4.06924 1.09504 0
M  V30 487 H 43.929 -3.22769 0.245372 0
M  V30 488 H 42.836 -2.76796 2.51664 0
M  V30 489 H 44.169 -3.655 3.29652 0
M  V30 490 N 45.8211 -1.22559 -0.990812 0
M  V30 491 C 47.2371 -0.985996 -1.255 0
M  V30 492 C 47.4371 0.319173 -1.98956 0
M  V30 493 O 46.4931 1.04127 -2.3003 0
M  V30 494 C 47.8061 -2.18607 -2.06474 0
M  V30 495 C 49.3541 -2.22985 -2.19651 0
M  V30 496 C 49.8291 -3.4255 -3.04012 0
M  V30 497 N 51.3201 -3.42725 -3.11599 0
M  V30 498 C 52.0551 -4.31892 -3.7717 0
M  V30 499 N 51.5511 -5.31279 -4.44651 0
M  V30 500 N 53.3441 -4.19662 -3.73952 0
M  V30 501 H 45.4951 -2.06469 -0.49841 0
M  V30 502 H 47.7581 -0.904853 -0.282747 0
M  V30 503 H 47.4641 -3.13267 -1.59865 0
M  V30 504 H 47.3381 -2.18838 -3.07229 0
M  V30 505 H 49.7251 -1.28871 -2.65474 0
M  V30 506 H 49.8061 -2.26791 -1.18319 0
M  V30 507 H 49.4501 -4.36965 -2.58889 0
M  V30 508 H 49.3801 -3.35984 -4.0549 0
M  V30 509 H 51.8711 -2.70807 -2.63575 0
M  V30 510 H 52.1841 -5.95593 -4.92431 0
M  V30 511 H 50.5291 -5.3519 -4.43392 0
M  V30 512 H 53.7201 -3.41268 -3.20396 0
M  V30 513 H 53.8931 -4.89358 -4.24774 0
M  V30 514 N 47.2992 1.18797 -1.03562 0
M  V30 515 C 48.2622 2.20464 -0.626769 0
M  V30 516 C 49.2622 1.57721 0.313173 0
M  V30 517 O 50.4522 1.73917 0.0992615 0
M  V30 518 C 47.5842 3.40802 0.0818498 0
M  V30 519 H 48.7772 2.58149 -1.5264 0
M  V30 520 H 46.3302 1.32593 -0.827578 0
M  V30 521 H 47.0652 3.08642 0.995518 0
M  V30 522 H 46.8502 3.8758 -0.593652 0
M  V30 523 H 48.3402 4.16092 0.354584 0
M  V30 524 N 48.7773 0.814389 1.34928 0
M  V30 525 C 49.6873 0.231978 2.3345 0
M  V30 526 C 50.7033 -0.629139 1.62228 0
M  V30 527 O 51.8793 -0.539052 1.94052 0
M  V30 528 C 48.9443 -0.603482 3.41407 0
M  V30 529 C 48.0053 0.279037 4.28392 0
M  V30 530 C 47.2383 -0.516643 5.31193 0
M  V30 531 O 47.4613 -1.75068 5.4287 0
M  V30 532 O 46.3953 0.0965652 6.01823 0
M  V30 533 H 50.2213 1.04721 2.85074 0
M  V30 534 H 47.8063 0.576343 1.37836 0
M  V30 535 H 49.6883 -1.07908 4.0735 0
M  V30 536 H 48.3633 -1.39618 2.92042 0
M  V30 537 H 47.2703 0.801948 3.65403 0
M  V30 538 H 48.6033 1.03588 4.81176 0
M  V30 539 N 50.2554 -1.46986 0.568584 0
M  V30 540 C 51.6664 -1.86188 0.138219 0
M  V30 541 C 52.0174 -1.47388 -1.29504 0
M  V30 542 O 51.1424 -0.88219 -1.97602 0
M  V30 543 C 51.7374 -3.3792 0.244065 0
M  V30 544 C 50.2964 -3.76171 -0.131335 0
M  V30 545 C 49.4434 -2.71027 0.586465 0
M  V30 546 H 52.3944 -1.38342 0.777645 0
M  V30 547 H 52.4154 -3.76729 -0.534351 0
M  V30 548 H 51.9274 -3.66128 1.28731 0
M  V30 549 H 50.0284 -3.5358 -1.17526 0
M  V30 550 H 50.1414 -4.78523 0.235146 0
M  V30 551 H 48.5054 -2.54684 0.0282722 0
M  V30 552 H 49.2884 -3.02077 1.63109 0
M  V30 553 N 51.7335 -0.305618 -1.54608 0
M  V30 554 C 52.6815 0.584119 -2.25146 0
M  V30 555 C 53.6755 1.13326 -1.25911 0
M  V30 556 O 54.8815 1.08337 -1.43747 0
M  V30 557 H 51.2565 0.206983 -0.722954 0
M  V30 558 H 53.2275 -0.033291 -2.98381 0
M  V30 559 C 51.9765 1.74225 -3.009 0
M  V30 560 H 51.2995 1.32892 -3.77067 0
M  V30 561 H 52.7395 2.34077 -3.53531 0
M  V30 562 C 51.1985 2.64914 -2.0814 0
M  V30 563 O 51.7285 3.66137 -1.65246 0
M  V30 564 N 49.9345 2.3275 -1.74 0
M  V30 565 H 49.4815 1.50479 -2.09078 0
M  V30 566 H 49.4395 2.93694 -1.12211 0
M  V30 567 N 53.2116 1.57565 -0.0334293 0
M  V30 568 C 54.6276 1.56297 0.322997 0
M  V30 569 C 54.8276 1.03945 1.7262 0
M  V30 570 O 53.8836 0.688109 2.42943 0
M  V30 571 C 55.1966 3.00232 0.167664 0
M  V30 572 C 56.7446 3.12078 0.240107 0
M  V30 573 C 57.2196 4.57859 0.113513 0
M  V30 574 N 58.7106 4.62887 0.170359 0
M  V30 575 C 59.4456 5.73319 0.0962517 0
M  V30 576 N 58.9416 6.92794 -0.0291881 0
M  V30 577 N 60.7346 5.61898 0.150551 0
M  V30 578 H 52.8856 1.89923 -0.950956 0
M  V30 579 H 55.1486 0.873824 -0.367608 0
M  V30 580 H 54.8546 3.42501 -0.799102 0
M  V30 581 H 54.7286 3.654 0.936083 0
M  V30 582 H 57.1156 2.69718 1.19733 0
M  V30 583 H 57.1966 2.49623 -0.558763 0
M  V30 584 H 56.8406 5.009 -0.840314 0
M  V30 585 H 56.7706 5.18299 0.931302 0
M  V30 586 H 59.2616 3.76954 0.26728 0
M  V30 587 H 59.5746 7.7276 -0.0789252 0
M  V30 588 H 57.9196 6.94971 -0.0640299 0
M  V30 589 H 61.1106 4.67448 0.246981 0
M  V30 590 H 61.2836 6.47938 0.0893365 0
M  V30 591 N 54.6897 -0.239769 1.55765 0
M  V30 592 C 56.1007 -0.808263 1.68297 0
M  V30 593 C 56.4517 -1.85736 0.632181 0
M  V30 594 O 55.5767 -2.15277 -0.220204 0
M  V30 595 C 56.1717 -1.47284 3.05111 0
M  V30 596 C 54.7307 -1.98895 3.19559 0
M  V30 597 C 53.8777 -0.842575 2.64189 0
M  V30 598 H 56.8287 -0.0154422 1.58692 0
M  V30 599 H 56.8497 -2.34111 2.99954 0
M  V30 600 H 56.3617 -0.709053 3.81568 0
M  V30 601 H 54.4627 -2.78132 2.47938 0
M  V30 602 H 54.5757 -2.18143 4.26556 0
M  V30 603 H 52.9397 -1.24501 2.22197 0
M  V30 604 H 53.7227 -0.0917552 3.43177 0
M  V30 605 N 56.1678 -1.49265 -0.50573 0
M  V30 606 C 57.3978 -1.61979 -1.28243 0
M  V30 607 C 57.8058 -0.288576 -1.86986 0
M  V30 608 O 57.1488 0.735408 -1.68337 0
M  V30 609 C 57.2108 -2.62632 -2.45489 0
M  V30 610 C 56.8748 -4.071 -2.07651 0
M  V30 611 C 57.8718 -4.94049 -1.61901 0
M  V30 612 C 55.5568 -4.52801 -2.17431 0
M  V30 613 C 57.5508 -6.24736 -1.26428 0
M  V30 614 C 55.2378 -5.83503 -1.8157 0
M  V30 615 C 56.2358 -6.69294 -1.36142 0
M  V30 616 O 55.9238 -7.9756 -1.00764 0
M  V30 617 H 55.6558 -0.54834 -0.395347 0
M  V30 618 H 58.2098 -1.96002 -0.614204 0
M  V30 619 H 56.4398 -2.2378 -3.15372 0
M  V30 620 H 58.1288 -2.64925 -3.07522 0
M  V30 621 H 58.8948 -4.5997 -1.53795 0
M  V30 622 H 54.7738 -3.86196 -2.51742 0
M  V30 623 H 58.3178 -6.91652 -0.908992 0
M  V30 624 H 54.2148 -6.17112 -1.89324 0
M  V30 625 H 54.9828 -8.10529 -1.13952 0
M  V30 626 N 57.6459 0.756429 -1.3826 0
M  V30 627 C 58.8709 1.55077 -1.37717 0
M  V30 628 C 59.2959 1.88073 0.03164 0
M  V30 629 O 58.6539 1.50364 1.01293 0
M  V30 630 C 58.7019 2.8283 -2.23695 0
M  V30 631 O 57.8059 3.77862 -1.6521 0
M  V30 632 H 57.1469 0.469152 -0.469885 0
M  V30 633 H 59.6769 0.935019 -1.81985 0
M  V30 634 H 59.6869 3.31783 -2.37453 0
M  V30 635 H 58.3619 2.58144 -3.2609 0
M  V30 636 H 56.9389 3.36555 -1.60578 0
M  V30 637 N 59.124 1.23083 0.984299 0
M  V30 638 C 60.349 1.088 1.76571 0
M  V30 639 C 60.774 -0.356657 1.84688 0
M  V30 640 O 60.132 -1.25788 1.30565 0
M  V30 641 C 60.18 1.71371 3.17277 0
M  V30 642 O 59.284 0.973213 4.00752 0
M  V30 643 H 58.625 0.381599 0.543395 0
M  V30 644 H 61.155 1.63057 1.23587 0
M  V30 645 H 61.165 1.76449 3.67872 0
M  V30 646 H 59.84 2.76493 3.10684 0
M  V30 647 H 58.417 0.999078 3.59267 0
M  V30 648 N 60.6021 -1.18246 1.0419 0
M  V30 649 C 61.8491 -1.88257 0.746017 0
M  V30 650 C 62.1771 -1.80429 -0.726331 0
M  V30 651 O 61.4321 -1.2 -1.54591 0
M  V30 652 C 61.7311 -3.38082 1.15911 0
M  V30 653 C 61.3971 -3.66114 2.63195 0
M  V30 654 C 60.0591 -3.73474 3.03432 0
M  V30 655 C 62.4111 -3.78398 3.5842 0
M  V30 656 C 59.7391 -3.90599 4.37778 0
M  V30 657 C 62.0911 -3.97039 4.92487 0
M  V30 658 C 60.7551 -4.02635 5.32392 0
M  V30 659 H 60.0251 -0.688883 0.272987 0
M  V30 660 H 62.6721 -1.3995 1.30715 0
M  V30 661 H 60.9771 -3.88377 0.516806 0
M  V30 662 H 62.6741 -3.90596 0.907516 0
M  V30 663 H 59.2641 -3.61003 2.3103 0
M  V30 664 H 63.4481 -3.72042 3.28479 0
M  V30 665 H 58.7041 -3.93175 4.68213 0
M  V30 666 H 62.8781 -4.05486 5.66175 0
M  V30 667 H 60.5051 -4.15657 6.36501 0
M  V30 668 N 62.0802 -0.821533 -1.34494 0
M  V30 669 C 63.0122 -0.199946 -2.28326 0
M  V30 670 C 64.0252 0.609377 -1.50965 0
M  V30 671 O 65.2142 0.439285 -1.7301 0
M  V30 672 C 62.3142 0.738431 -3.30757 0
M  V30 673 C 61.4872 -0.0277632 -4.37391 0
M  V30 674 C 60.5462 0.831332 -5.19591 0
M  V30 675 O 59.5722 0.276822 -5.68526 0
M  V30 676 N 60.7742 2.15132 -5.39165 0
M  V30 677 H 63.5392 -1.00609 -2.82308 0
M  V30 678 H 61.1002 -0.678366 -1.47003 0
M  V30 679 H 63.0922 1.31773 -3.82646 0
M  V30 680 H 61.6622 1.44533 -2.7718 0
M  V30 681 H 60.8822 -0.788359 -3.86236 0
M  V30 682 H 62.1702 -0.555251 -5.05761 0
M  V30 683 H 61.5682 2.62559 -5.01078 0
M  V30 684 H 60.1252 2.6795 -5.94177 0
M  V30 685 N 63.5583 1.46682 -0.576371 0
M  V30 686 C 64.7833 2.07304 -0.0630475 0
M  V30 687 C 65.2083 1.42329 1.2298 0
M  V30 688 O 64.5663 0.504865 1.74129 0
M  V30 689 C 64.6143 3.60472 0.095895 0
M  V30 690 O 63.7183 3.95927 1.15394 0
M  V30 691 H 63.0593 0.661288 -0.0599463 0
M  V30 692 H 65.5893 1.88417 -0.797511 0
M  V30 693 H 65.5993 4.06865 0.304071 0
M  V30 694 H 64.2743 4.07157 -0.84828 0
M  V30 695 H 62.8513 3.61252 0.924724 0
M  V30 696 N 65.0364 0.313813 1.54444 0
M  V30 697 C 65.9664 -0.549454 2.26943 0
M  V30 698 C 66.9474 -1.12741 1.27372 0
M  V30 699 O 68.1324 -1.15436 1.56167 0
M  V30 700 C 65.2624 -1.71523 3.01989 0
M  V30 701 C 64.2164 -1.26703 4.08816 0
M  V30 702 C 63.5424 -2.51898 4.71647 0
M  V30 703 C 64.8424 -0.388962 5.2085 0
M  V30 704 H 66.5364 0.0552661 2.99349 0
M  V30 705 H 64.0824 0.0280207 1.43973 0
M  V30 706 H 66.0354 -2.32535 3.51433 0
M  V30 707 H 64.7594 -2.34639 2.27183 0
M  V30 708 H 63.4184 -0.679896 3.6024 0
M  V30 709 H 63.0664 -3.13356 3.93468 0
M  V30 710 H 62.7664 -2.22605 5.43802 0
M  V30 711 H 64.2904 -3.1369 5.23861 0
M  V30 712 H 65.7044 -0.905107 5.6611 0
M  V30 713 H 64.1014 -0.18924 5.99802 0
M  V30 714 H 65.1714 0.582699 4.81386 0
M  V30 715 N 66.5145 -1.57545 0.0417849 0
M  V30 716 C 67.7445 -1.96339 -0.642995 0
M  V30 717 C 68.1525 -0.917536 -1.65463 0
M  V30 718 O 67.4955 0.107747 -1.83384 0
M  V30 719 C 67.5575 -3.31333 -1.39494 0
M  V30 720 C 67.2215 -4.53796 -0.540204 0
M  V30 721 C 68.2185 -5.19553 0.189806 0
M  V30 722 C 65.9035 -5.0006 -0.473886 0
M  V30 723 C 67.8975 -6.29904 0.974674 0
M  V30 724 C 65.5845 -6.10289 0.314677 0
M  V30 725 C 66.5825 -6.75072 1.03765 0
M  V30 726 O 66.2705 -7.83183 1.81327 0
M  V30 727 H 66.0025 -0.651241 -0.181277 0
M  V30 728 H 68.5565 -2.05148 0.101665 0
M  V30 729 H 66.7865 -3.19052 -2.18502 0
M  V30 730 H 68.4755 -3.54942 -1.96904 0
M  V30 731 H 69.2415 -4.84774 0.147981 0
M  V30 732 H 65.1205 -4.49433 -1.0262 0
M  V30 733 H 68.6645 -6.80401 1.5395 0
M  V30 734 H 64.5615 -6.44506 0.358174 0
M  V30 735 H 65.3295 -7.99913 1.73438 0
M  V30 736 N 67.9926 0.231505 -1.5589 0
M  V30 737 C 68.9406 1.30649 -1.92441 0
M  V30 738 C 69.9346 1.49037 -0.805254 0
M  V30 739 O 71.1406 1.50329 -0.990007 0
M  V30 740 H 67.5156 0.437812 -0.611412 0
M  V30 741 H 69.4866 0.970973 -2.82161 0
M  V30 742 C 68.2356 2.65179 -2.24889 0
M  V30 743 H 67.5586 2.51835 -3.10514 0
M  V30 744 H 68.9986 3.39234 -2.54355 0
M  V30 745 C 67.4576 3.19439 -1.07054 0
M  V30 746 O 67.9876 4.00371 -0.326499 0
M  V30 747 N 66.1936 2.77675 -0.85703 0
M  V30 748 H 65.7406 2.11969 -1.46379 0
M  V30 749 H 65.6986 3.14321 -0.0703223 0
M  V30 750 N 69.4707 1.49531 0.497807 0
M  V30 751 C 70.4177 1.66436 1.59899 0
M  V30 752 C 71.3877 0.505793 1.58212 0
M  V30 753 O 72.5727 0.733202 1.7615 0
M  V30 754 C 69.7127 1.7399 2.98029 0
M  V30 755 C 68.8257 3.01172 3.09708 0
M  V30 756 C 67.9607 2.99686 4.38591 0
M  V30 757 C 66.9997 4.21434 4.43914 0
M  V30 758 N 66.1367 4.1784 5.64229 0
M  V30 759 H 70.9767 2.60459 1.44793 0
M  V30 760 H 68.5137 1.29137 0.704423 0
M  V30 761 H 70.4717 1.76352 3.78095 0
M  V30 762 H 69.1017 0.834301 3.11832 0
M  V30 763 H 68.1537 3.08408 2.22685 0
M  V30 764 H 69.4657 3.91165 3.09502 0
M  V30 765 H 68.6197 3.00628 5.2698 0
M  V30 766 H 67.3587 2.07477 4.41367 0
M  V30 767 H 66.3637 4.20733 3.53926 0
M  V30 768 H 67.5887 5.14839 4.42851 0
M  V30 769 H 65.5347 3.28469 5.67841 0
M  V30 770 H 65.4517 5.01571 5.65652 0
M  V30 771 H 66.7197 4.22889 6.54817 0
M  V30 772 N 70.9488 -0.749086 1.3866 0
M  V30 773 C 71.8818 -1.87111 1.30631 0
M  V30 774 C 72.8598 -1.61572 0.18251 0
M  V30 775 O 74.0438 -1.85019 0.360592 0
M  V30 776 C 71.1708 -3.22815 1.02511 0
M  V30 777 C 70.2168 -3.67234 2.1689 0
M  V30 778 S 71.0498 -3.78245 3.79066 0
M  V30 779 C 72.2058 -5.16761 3.53142 0
M  V30 780 H 72.4388 -1.93636 2.25594 0
M  V30 781 H 69.9718 -0.912525 1.24549 0
M  V30 782 H 71.9298 -4.01181 0.869701 0
M  V30 783 H 70.5908 -3.13964 0.0925884 0
M  V30 784 H 69.7838 -4.65677 1.92771 0
M  V30 785 H 69.3858 -2.96034 2.28561 0
M  V30 786 H 71.6778 -6.02656 3.09534 0
M  V30 787 H 72.6208 -5.45902 4.50995 0
M  V30 788 H 73.0288 -4.85771 2.87554 0
M  V30 789 N 72.4269 -1.23603 -0.977757 0
M  V30 790 C 73.6729 -1.07129 -1.72195 0
M  V30 791 C 74.0059 0.390501 -1.90233 0
M  V30 792 O 73.2809 1.28902 -1.45653 0
M  V30 793 C 73.5639 -1.80031 -3.11867 0
M  V30 794 C 73.4169 -3.33899 -3.01383 0
M  V30 795 C 74.7359 -1.56492 -4.11337 0
M  V30 796 H 71.8549 -0.390571 -0.624999 0
M  V30 797 H 74.4969 -1.52142 -1.13811 0
M  V30 798 H 72.6469 -1.41768 -3.6171 0
M  V30 799 H 74.3189 -3.81699 -2.59043 0
M  V30 800 H 72.5619 -3.62796 -2.37827 0
M  V30 801 H 73.2329 -3.801 -4.00285 0
M  V30 802 H 75.7089 -1.89757 -3.70313 0
M  V30 803 H 74.5849 -2.09973 -5.07151 0
M  V30 804 H 74.8459 -0.500874 -4.39254 0
M  V30 805 N 73.905 1.17692 -1.04816 0
M  V30 806 C 74.815 2.25229 -0.65643 0
M  V30 807 C 75.831 1.71018 0.320761 0
M  V30 808 O 77.007 2.00649 0.173805 0
M  V30 809 C 74.072 3.46684 -0.0332629 0
M  V30 810 C 73.133 4.15997 -1.06042 0
M  V30 811 C 72.366 5.31654 -0.466893 0
M  V30 812 O 72.589 5.65777 0.724758 0
M  V30 813 O 71.523 5.89831 -1.1993 0
M  V30 814 H 75.349 2.61016 -1.55255 0
M  V30 815 H 72.934 1.24919 -0.81949 0
M  V30 816 H 74.816 4.20234 0.313256 0
M  V30 817 H 73.491 3.12703 0.836566 0
M  V30 818 H 72.398 3.44482 -1.45886 0
M  V30 819 H 73.731 4.53996 -1.90127 0
M  V30 820 N 75.3831 0.828654 1.34056 0
M  V30 821 C 76.6321 0.415828 1.97367 0
M  V30 822 C 76.9451 -1.02796 1.6641 0
M  V30 823 O 78.1511 -1.54497 2.23255 0
M  V30 824 C 76.6071 0.692601 3.53173 0
M  V30 825 C 76.2151 2.15038 3.93017 0
M  V30 826 C 77.9591 0.346222 4.23086 0
M  V30 827 C 75.8661 2.37174 5.41758 0
M  V30 828 H 74.7961 0.151755 0.738571 0
M  V30 829 H 77.4471 1.01581 1.52819 0
M  V30 830 H 75.8291 0.0223764 3.95994 0
M  V30 831 H 77.0031 2.86024 3.61285 0
M  V30 832 H 75.3181 2.45875 3.36057 0
M  V30 833 H 77.9151 0.48937 5.32456 0
M  V30 834 H 78.2581 -0.709842 4.10204 0
M  V30 835 H 78.7911 0.971258 3.85761 0
M  V30 836 H 75.5301 3.41308 5.59633 0
M  V30 837 H 75.0501 1.70738 5.74986 0
M  V30 838 H 76.7291 2.19818 6.08514 0
M  V30 839 N 76.8612 -1.46375 0.584142 0
M  V30 840 C 78.1072 -2.02678 0.0703716 0
M  V30 841 C 78.4402 -1.4545 -1.28678 0
M  V30 842 O 77.7152 -0.62014 -1.84349 0
M  V30 843 C 77.9982 -3.60099 0.00614674 0
M  V30 844 C 77.8512 -4.27709 1.3923 0
M  V30 845 C 79.1702 -4.34598 -0.693742 0
M  V30 846 H 76.2892 -0.736504 0.027047 0
M  V30 847 H 78.9312 -1.74501 0.751615 0
M  V30 848 H 77.0812 -3.84236 -0.574009 0
M  V30 849 H 78.7532 -4.14832 2.01773 0
M  V30 850 H 76.9962 -3.87016 1.95962 0
M  V30 851 H 77.6672 -5.36478 1.29982 0
M  V30 852 H 80.1432 -4.15615 -0.200869 0
M  V30 853 H 79.0192 -5.44318 -0.707714 0
M  V30 854 H 79.2802 -4.05759 -1.75533 0
M  V30 855 N 78.3393 -0.321999 -1.54275 0
M  V30 856 C 79.2493 0.553631 -2.27974 0
M  V30 857 C 80.2653 1.13054 -1.32268 0
M  V30 858 O 81.4413 1.15084 -1.6528 0
M  V30 859 C 78.5063 1.69927 -3.02201 0
M  V30 860 C 77.5673 1.15433 -4.1349 0
M  V30 861 C 76.8003 2.24537 -4.84168 0
M  V30 862 O 77.0233 3.44852 -4.5435 0
M  V30 863 O 75.9573 1.90044 -5.7111 0
M  V30 864 H 79.7833 -0.0448345 -3.03667 0
M  V30 865 H 77.3683 -0.0877418 -1.49142 0
M  V30 866 H 79.2503 2.3663 -3.48689 0
M  V30 867 H 77.9253 2.28395 -2.29385 0
M  V30 868 H 76.8323 0.452436 -3.71354 0
M  V30 869 H 78.1653 0.614805 -4.88345 0
M  V30 870 N 79.8174 1.5752 -0.0501392 0
M  V30 871 C 81.0454 1.96963 0.633492 0
M  V30 872 C 81.4604 0.927631 1.6444 0
M  V30 873 O 80.8174 -0.0882665 1.82286 0
M  V30 874 C 80.8684 3.36487 1.32132 0
M  V30 875 O 80.5894 4.36693 0.350894 0
M  V30 876 C 82.0904 3.90682 2.09481 0
M  V30 877 H 79.3104 0.648244 0.173266 0
M  V30 878 H 81.8544 2.0417 -0.116134 0
M  V30 879 H 80.0094 3.30434 2.02218 0
M  V30 880 H 80.4234 5.17702 0.841735 0
M  V30 881 H 81.8974 4.90591 2.5303 0
M  V30 882 H 82.3744 3.26053 2.94255 0
M  V30 883 H 82.9804 4.00069 1.44307 0
M  V30 884 N 81.2955 -0.223234 1.56011 0
M  V30 885 C 82.2585 -1.26014 1.9145 0
M  V30 886 C 83.2585 -1.3989 0.792937 0
M  V30 887 O 84.4485 -1.38184 1.0607 0
M  V30 888 C 81.5805 -2.63422 2.16383 0
M  V30 889 H 82.7735 -0.95796 2.84189 0
M  V30 890 H 80.3265 -0.463576 1.49267 0
M  V30 891 H 81.0615 -2.98741 1.2619 0
M  V30 892 H 80.8465 -2.54728 2.98088 0
M  V30 893 H 82.3365 -3.38249 2.44903 0
M  V30 894 N 82.7736 -1.49793 -0.48987 0
M  V30 895 C 83.9986 -1.63836 -1.27172 0
M  V30 896 C 84.4236 -0.31402 -1.8546 0
M  V30 897 O 83.7816 0.719803 -1.66399 0
M  V30 898 C 83.8296 -2.71797 -2.36978 0
M  V30 899 O 82.9336 -2.31744 -3.41128 0
M  V30 900 H 82.2746 -0.547997 -0.37496 0
M  V30 901 H 84.8046 -1.96053 -0.585191 0
M  V30 902 H 84.8146 -2.94305 -2.82575 0
M  V30 903 H 83.4896 -3.67923 -1.93921 0
M  V30 904 H 82.0666 -2.1961 -3.01373 0
M  V30 905 N 84.2517 0.741722 -1.39055 0
M  V30 906 C 85.5287 1.49252 -1.26425 0
M  V30 907 C 85.9087 2.10705 0.129144 0
M  V30 908 O 85.2567 1.98045 1.13976 0
M  V30 909 C 85.4667 2.54934 -2.38347 0
M  V30 910 C 86.8147 3.21506 -2.77343 0
M  V30 911 O 87.8387 2.65245 -2.37747 0
M  V30 912 O 86.6977 4.23294 -3.45665 0
M  V30 913 H 83.7917 0.662451 -0.495064 0
M  V30 914 H 86.3377 0.776121 -1.50912 0
M  V30 915 H 85.1097 2.07857 -3.31529 0
M  V30 916 H 84.7327 3.34141 -2.15489 0
M  V30 917 N 85.7298 1.2412 0.971189 0
M  V30 918 C 86.6778 1.02812 2.08644 0
M  V30 919 C 87.6718 -0.0358403 1.69362 0
M  V30 920 O 88.8778 0.118429 1.7961 0
M  V30 921 H 85.2528 0.315428 0.682649 0
M  V30 922 H 87.2238 1.97397 2.23779 0
M  V30 923 C 85.9728 0.645874 3.41649 0
M  V30 924 H 85.2958 1.45632 3.72332 0
M  V30 925 H 86.7358 0.536366 4.20594 0
M  V30 926 C 85.1948 -0.646713 3.30635 0
M  V30 927 O 85.7248 -1.69338 3.64263 0
M  V30 928 N 83.9308 -0.626115 2.83775 0
M  V30 929 H 83.4778 0.225988 2.56607 0
M  V30 930 H 83.4358 -1.49117 2.76788 0
M  V30 931 N 87.2079 -1.17134 1.05439 0
M  V30 932 C 88.1179 -2.24878 0.668365 0
M  V30 933 C 89.1339 -1.71186 -0.311687 0
M  V30 934 O 90.3099 -2.00738 -0.163161 0
M  V30 935 C 87.3749 -3.46662 0.051648 0
M  V30 936 C 86.4359 -4.15429 1.08246 0
M  V30 937 C 85.6689 -5.31399 0.495082 0
M  V30 938 O 85.8919 -5.66153 -0.694743 0
M  V30 939 O 84.8259 -5.89187 1.23056 0
M  V30 940 H 88.6519 -2.60189 1.56637 0
M  V30 941 H 86.2369 -1.24482 0.826104 0
M  V30 942 H 88.1189 -4.20394 -0.290966 0
M  V30 943 H 86.7939 -3.13142 -0.819971 0
M  V30 944 H 85.7009 -3.43704 1.47711 0
M  V30 945 H 87.0339 -4.52982 1.92532 0
M  V30 946 N 88.686 -0.835752 -1.33615 0
M  V30 947 C 89.618 -0.224151 -2.28101 0
M  V30 948 C 90.631 0.593331 -1.51603 0
M  V30 949 O 91.82 0.420911 -1.73466 0
M  V30 950 C 88.92 0.703309 -3.31522 0
M  V30 951 C 88.093 -0.0741528 -4.37337 0
M  V30 952 C 87.152 0.776176 -5.20444 0
M  V30 953 O 86.178 0.216506 -5.68788 0
M  V30 954 N 87.38 2.09401 -5.41416 0
M  V30 955 H 90.145 -1.03598 -2.81225 0
M  V30 956 H 87.706 -0.69392 -1.46275 0
M  V30 957 H 89.698 1.27707 -3.84022 0
M  V30 958 H 88.268 1.41585 -2.78698 0
M  V30 959 H 87.488 -0.82928 -3.85378 0
M  V30 960 H 88.776 -0.608863 -5.05144 0
M  V30 961 H 88.174 2.57229 -5.03835 0
M  V30 962 H 86.731 2.61633 -5.96985 0
M  V30 963 N 90.1641 1.46063 -0.591896 0
M  V30 964 C 91.0941 2.33172 0.123673 0
M  V30 965 C 92.0751 1.45897 0.87453 0
M  V30 966 O 93.2601 1.74698 0.848181 0
M  V30 967 C 90.3901 3.28336 1.13194 0
M  V30 968 C 89.3441 4.25124 0.495324 0
M  V30 969 C 88.6701 5.09863 1.61071 0
M  V30 970 C 89.9701 5.19143 -0.573425 0
M  V30 971 H 91.6641 2.93252 -0.603646 0
M  V30 972 H 89.2101 1.41014 -0.291741 0
M  V30 973 H 91.1631 3.88137 1.64097 0
M  V30 974 H 89.8871 2.66383 1.88965 0
M  V30 975 H 88.5461 3.66599 0.00729452 0
M  V30 976 H 88.1941 4.44288 2.35832 0
M  V30 977 H 87.8941 5.75417 1.19035 0
M  V30 978 H 89.4181 5.72529 2.12233 0
M  V30 979 H 90.8321 5.73106 -0.1491 0
M  V30 980 H 89.2291 5.93089 -0.914636 0
M  V30 981 H 90.2991 4.62519 -1.45617 0
M  V30 982 N 91.6422 0.330177 1.54103 0
M  V30 983 C 92.5892 -0.532762 2.24567 0
M  V30 984 C 93.5592 -1.10635 1.23892 0
M  V30 985 O 94.7442 -1.14546 1.5259 0
M  V30 986 C 91.8842 -1.6845 3.01195 0
M  V30 987 C 90.9972 -1.13951 4.167 0
M  V30 988 C 90.1322 -2.25746 4.80845 0
M  V30 989 C 89.1712 -1.6853 5.88442 0
M  V30 990 N 88.3082 -2.74014 6.46421 0
M  V30 991 H 93.1482 0.0746905 2.97906 0
M  V30 992 H 90.6852 0.048632 1.4702 0
M  V30 993 H 92.6432 -2.36234 3.43874 0
M  V30 994 H 91.2732 -2.26314 2.30178 0
M  V30 995 H 90.3252 -0.35301 3.78758 0
M  V30 996 H 91.6372 -0.680892 4.94131 0
M  V30 997 H 90.7912 -3.01422 5.26526 0
M  V30 998 H 89.5302 -2.74947 4.0281 0
M  V30 999 H 88.5352 -0.913543 5.42157 0
M  V30 1000 H 89.7602 -1.20198 6.68378 0
M  V30 1001 H 87.7062 -3.22494 5.71256 0
M  V30 1002 H 87.6232 -2.32735 7.19285 0
M  V30 1003 H 88.8912 -3.49499 6.96757 0
M  V30 1004 N 93.1203 -1.57491 0.0584922 0
M  V30 1005 C 94.0503 -2.14988 -0.911178 0
M  V30 1006 C 95.0313 -1.07343 -1.31952 0
M  V30 1007 O 96.2163 -1.35318 -1.39294 0
M  V30 1008 C 93.3463 -2.70078 -2.18347 0
M  V30 1009 C 92.3003 -3.82771 -1.91495 0
M  V30 1010 C 91.6263 -4.24408 -3.25241 0
M  V30 1011 C 92.9263 -5.07592 -1.23075 0
M  V30 1012 H 94.6203 -2.96263 -0.432246 0
M  V30 1013 H 92.1663 -1.42512 -0.206469 0
M  V30 1014 H 94.1193 -3.08943 -2.86587 0
M  V30 1015 H 92.8433 -1.86005 -2.68458 0
M  V30 1016 H 91.5023 -3.44389 -1.25664 0
M  V30 1017 H 91.1503 -3.37275 -3.73168 0
M  V30 1018 H 90.8503 -5.00366 -3.08071 0
M  V30 1019 H 92.3743 -4.65879 -3.94701 0
M  V30 1020 H 93.7883 -5.43857 -1.81362 0
M  V30 1021 H 92.1853 -5.88741 -1.16207 0
M  V30 1022 H 93.2553 -4.84454 -0.207847 0
M  V30 1023 N 94.5984 0.214957 -1.56127 0
M  V30 1024 C 95.8474 0.936451 -1.78643 0
M  V30 1025 C 96.1604 1.85237 -0.628229 0
M  V30 1026 O 97.3664 2.613 -0.737186 0
M  V30 1027 C 95.8224 1.7154 -3.16389 0
M  V30 1028 C 95.4304 0.845299 -4.39953 0
M  V30 1029 C 97.1744 2.42772 -3.48227 0
M  V30 1030 C 95.0814 1.62198 -5.68723 0
M  V30 1031 H 94.0114 0.353401 -0.666051 0
M  V30 1032 H 96.6624 0.190169 -1.82512 0
M  V30 1033 H 95.0444 2.50484 -3.06715 0
M  V30 1034 H 96.2184 0.0959353 -4.607 0
M  V30 1035 H 94.5334 0.244789 -4.1568 0
M  V30 1036 H 97.1304 3.01394 -4.41663 0
M  V30 1037 H 97.4734 3.15984 -2.71035 0
M  V30 1038 H 98.0064 1.70813 -3.5926 0
M  V30 1039 H 94.7454 0.933011 -6.48826 0
M  V30 1040 H 94.2654 2.34579 -5.52026 0
M  V30 1041 H 95.9444 2.18095 -6.09133 0
M  V30 1042 N 96.0765 1.50051 0.48192 0
M  V30 1043 C 97.0085 1.64263 1.59844 0
M  V30 1044 C 98.0215 0.52451 1.54119 0
M  V30 1045 O 99.2105 0.797293 1.59704 0
M  V30 1046 C 96.3105 1.60102 2.98698 0
M  V30 1047 C 95.4835 2.87767 3.29407 0
M  V30 1048 C 94.5425 2.76397 4.47762 0
M  V30 1049 O 93.5685 3.50348 4.48603 0
M  V30 1050 N 94.7705 1.89222 5.48794 0
M  V30 1051 H 97.5355 2.60566 1.48073 0
M  V30 1052 H 95.0965 1.47379 0.670149 0
M  V30 1053 H 97.0885 1.50123 3.75826 0
M  V30 1054 H 95.6585 0.715798 3.04294 0
M  V30 1055 H 94.8785 3.11954 2.40994 0
M  V30 1056 H 96.1665 3.72365 3.4673 0
M  V30 1057 H 95.5645 1.28434 5.50928 0
M  V30 1058 H 94.1215 1.85154 6.24949 0
M  V30 1059 N 97.5546 -0.734337 1.39446 0
M  V30 1060 C 98.4876 -1.85715 1.32609 0
M  V30 1061 C 99.4656 -1.6137 0.199636 0
M  V30 1062 O 100.65 -1.84626 0.380195 0
M  V30 1063 C 97.7766 -3.21709 1.05929 0
M  V30 1064 C 96.8226 -3.64913 2.20773 0
M  V30 1065 S 97.6556 -3.74203 3.83056 0
M  V30 1066 C 98.8116 -5.12986 3.58603 0
M  V30 1067 H 99.0446 -1.91232 2.27635 0
M  V30 1068 H 96.5776 -0.899263 1.25509 0
M  V30 1069 H 98.5356 -4.00236 0.912203 0
M  V30 1070 H 97.1966 -3.13848 0.125883 0
M  V30 1071 H 96.3896 -4.63606 1.97699 0
M  V30 1072 H 95.9916 -2.93593 2.31688 0
M  V30 1073 H 98.2836 -5.99339 3.15909 0
M  V30 1074 H 99.2266 -5.41088 4.5676 0
M  V30 1075 H 99.6346 -4.82694 2.9269 0
M  V30 1076 N 99.0327 -1.24633 -0.964593 0
M  V30 1077 C 99.9827 -1.00841 -2.04487 0
M  V30 1078 C 100.967 0.0512468 -1.60818 0
M  V30 1079 O 102.159 -0.162865 -1.76249 0
M  V30 1080 C 99.2877 -0.618474 -3.37683 0
M  V30 1081 C 98.3737 -1.71437 -3.87905 0
M  V30 1082 N 98.7647 -2.9477 -4.11029 0
M  V30 1083 C 97.0627 -1.5926 -4.16596 0
M  V30 1084 C 97.7637 -3.65834 -4.52261 0
M  V30 1085 N 96.7397 -2.9341 -4.57615 0
M  V30 1086 H 100.542 -1.94487 -2.20345 0
M  V30 1087 H 98.0557 -1.14805 -1.14863 0
M  V30 1088 H 100.053 -0.429247 -4.14684 0
M  V30 1089 H 98.7127 0.310766 -3.23209 0
M  V30 1090 H 99.7237 -3.30917 -3.9839 0
M  V30 1091 H 96.4007 -0.731606 -4.1104 0
M  V30 1092 H 97.7907 -4.71646 -4.78539 0
M  V30 1093 N 100.511 1.16574 -1.06058 0
M  V30 1094 C 101.922 1.68662 -0.800632 0
M  V30 1095 C 102.273 1.84184 0.67608 0
M  V30 1096 O 101.398 1.53568 1.52466 0
M  V30 1097 C 101.993 3.06356 -1.44676 0
M  V30 1098 C 100.552 3.55575 -1.23465 0
M  V30 1099 C 99.6988 2.31616 -1.52477 0
M  V30 1100 H 102.65 1.00969 -1.22438 0
M  V30 1101 H 102.671 3.70636 -0.860788 0
M  V30 1102 H 102.183 2.95027 -2.52152 0
M  V30 1103 H 100.284 3.72167 -0.179527 0
M  V30 1104 H 100.397 4.37812 -1.94571 0
M  V30 1105 H 98.7608 2.36512 -0.945209 0
M  V30 1106 H 99.5438 2.22887 -2.61106 0
M  V30 1107 N 101.989 0.842826 1.3317 0
M  V30 1108 C 102.939 0.250877 2.26616 0
M  V30 1109 C 103.923 -0.596427 1.49437 0
M  V30 1110 O 105.115 -0.447747 1.71243 0
M  V30 1111 C 102.244 -0.569779 3.38539 0
M  V30 1112 C 101.33 0.289254 4.23112 0
M  V30 1113 N 101.721 1.36987 4.86897 0
M  V30 1114 C 100.019 0.0769631 4.45934 0
M  V30 1115 C 100.72 1.89737 5.49886 0
M  V30 1116 N 99.6959 1.19827 5.30229 0
M  V30 1117 H 103.498 1.07718 2.73448 0
M  V30 1118 H 101.012 0.687693 1.47121 0
M  V30 1119 H 103.009 -1.01018 4.04476 0
M  V30 1120 H 101.669 -1.39401 2.93253 0
M  V30 1121 H 102.68 1.75277 4.87338 0
M  V30 1122 H 99.3569 -0.713507 4.11358 0
M  V30 1123 H 100.747 2.80253 6.10662 0
M  V30 1124 N 103.467 -1.45747 0.599634 0
M  V30 1125 C 104.397 -2.33235 -0.111306 0
M  V30 1126 C 105.378 -1.46359 -0.866781 0
M  V30 1127 O 106.563 -1.75146 -0.838904 0
M  V30 1128 C 103.693 -3.28932 -1.11451 0
M  V30 1129 C 102.647 -4.25381 -0.472772 0
M  V30 1130 C 101.973 -5.1071 -1.58365 0
M  V30 1131 C 103.273 -5.18831 0.600948 0
M  V30 1132 H 104.967 -2.92927 0.61919 0
M  V30 1133 H 102.513 -1.40857 0.299215 0
M  V30 1134 H 104.466 -3.89002 -1.62036 0
M  V30 1135 H 103.19 -2.67381 -1.8755 0
M  V30 1136 H 101.849 -3.66598 0.0121472 0
M  V30 1137 H 101.497 -4.45533 -2.33473 0
M  V30 1138 H 101.197 -5.7604 -1.15982 0
M  V30 1139 H 102.721 -5.73647 -2.09194 0
M  V30 1140 H 104.135 -5.73019 0.179491 0
M  V30 1141 H 102.532 -5.92595 0.946076 0
M  V30 1142 H 103.602 -4.6174 1.48068 0
M  V30 1143 N 104.945 -0.338344 -1.53925 0
M  V30 1144 C 106.193 0.259245 -2.0043 0
M  V30 1145 C 106.514 1.51484 -1.22791 0
M  V30 1146 O 105.784 1.93037 -0.33368 0
M  V30 1147 H 104.364 0.0987845 -0.740439 0
M  V30 1148 H 107.026 -0.458302 -1.89435 0
M  V30 1149 H 106.122 0.505334 -3.07982 0
M  V30 1150 N 106.423 1.57458 -0.0668435 0
M  V30 1151 C 107.651 1.97624 0.612565 0
M  V30 1152 C 108.066 0.94502 1.63447 0
M  V30 1153 O 107.423 -0.0689276 1.8237 0
M  V30 1154 C 107.474 3.37869 1.28555 0
M  V30 1155 O 107.195 4.3704 0.304557 0
M  V30 1156 C 108.696 3.92882 2.05325 0
M  V30 1157 H 105.916 0.650045 0.166381 0
M  V30 1158 H 108.46 2.04035 -0.137782 0
M  V30 1159 H 106.615 3.3256 1.98702 0
M  V30 1160 H 107.029 5.18565 0.786779 0
M  V30 1161 H 108.503 4.93247 2.47812 0
M  V30 1162 H 108.98 3.29156 2.9078 0
M  V30 1163 H 109.586 4.01577 1.40056 0
M  V30 1164 N 107.901 -0.206675 1.56239 0
M  V30 1165 C 108.849 -1.27571 1.94495 0
M  V30 1166 C 109.843 -1.47737 0.828862 0
M  V30 1167 O 111.049 -1.48735 1.0138 0
M  V30 1168 H 107.424 -0.428029 0.6183 0
M  V30 1169 H 109.395 -0.925961 2.8367 0
M  V30 1170 C 108.144 -2.61568 2.29079 0
M  V30 1171 H 107.467 -2.46863 3.14482 0
M  V30 1172 H 108.907 -3.35144 2.5972 0
M  V30 1173 C 107.366 -3.17695 1.12123 0
M  V30 1174 O 107.896 -3.99801 0.390153 0
M  V30 1175 N 106.102 -2.76276 0.901097 0
M  V30 1176 H 105.649 -2.09613 1.49733 0
M  V30 1177 H 105.607 -3.1417 0.120319 0
M  V30 1178 N 109.379 -1.50304 -0.473955 0
M  V30 1179 C 110.625 -1.61389 -1.22806 0
M  V30 1180 C 110.958 -0.311955 -1.91678 0
M  V30 1181 O 110.233 0.686384 -1.81986 0
M  V30 1182 C 110.516 -2.79219 -2.27396 0
M  V30 1183 C 110.369 -4.19286 -1.62848 0
M  V30 1184 C 111.688 -2.92614 -3.28732 0
M  V30 1185 H 108.807 -0.587399 -0.445119 0
M  V30 1186 H 111.449 -1.82681 -0.522265 0
M  V30 1187 H 109.599 -2.61195 -2.87592 0
M  V30 1188 H 111.271 -4.48892 -1.06271 0
M  V30 1189 H 109.514 -4.23677 -0.931693 0
M  V30 1190 H 110.185 -4.97655 -2.38838 0
M  V30 1191 H 112.661 -3.09105 -2.78556 0
M  V30 1192 H 111.537 -3.76688 -3.99246 0
M  V30 1193 H 111.798 -2.03107 -3.92683 0
M  V30 1194 N 110.857 0.726932 -1.39834 0
M  V30 1195 C 111.804 1.841 -1.39197 0
M  V30 1196 C 112.774 1.642 -0.250502 0
M  V30 1197 O 113.959 1.85494 -0.446846 0
M  V30 1198 C 111.099 3.21697 -1.24919 0
M  V30 1199 C 110.212 3.53247 -2.48678 0
M  V30 1200 C 109.347 4.80289 -2.26928 0
M  V30 1201 C 108.386 5.04707 -3.4632 0
M  V30 1202 N 107.523 6.22956 -3.23836 0
M  V30 1203 H 112.363 1.83979 -2.34427 0
M  V30 1204 H 109.9 0.898876 -1.16442 0
M  V30 1205 H 111.858 4.01137 -1.1465 0
M  V30 1206 H 110.488 3.21076 -0.333153 0
M  V30 1207 H 109.54 2.68447 -2.69519 0
M  V30 1208 H 110.852 3.67205 -3.37582 0
M  V30 1209 H 110.006 5.67725 -2.13947 0
M  V30 1210 H 108.745 4.68519 -1.35431 0
M  V30 1211 H 107.75 4.1573 -3.5979 0
M  V30 1212 H 108.975 5.18357 -4.38729 0
M  V30 1213 H 106.921 6.12459 -2.35011 0
M  V30 1214 H 106.838 6.37539 -4.063 0
M  V30 1215 H 108.106 7.1321 -3.14566 0
M  V30 1216 N 112.336 1.25143 0.95797 0
M  V30 1217 C 113.585 1.0909 1.69654 0
M  V30 1218 C 113.898 -0.368548 1.92097 0
M  V30 1219 O 115.104 -0.649455 2.63618 0
M  V30 1220 C 113.56 1.90395 3.05414 0
M  V30 1221 C 113.168 3.4081 2.90779 0
M  V30 1222 C 114.912 1.82901 3.83076 0
M  V30 1223 C 112.819 4.14423 4.21909 0
M  V30 1224 H 111.749 0.404625 0.636235 0
M  V30 1225 H 114.4 1.4931 1.06672 0
M  V30 1226 H 112.782 1.42996 3.69281 0
M  V30 1227 H 113.956 3.95859 2.35865 0
M  V30 1228 H 112.271 3.49361 2.26575 0
M  V30 1229 H 114.868 2.35196 4.80195 0
M  V30 1230 H 115.211 0.796224 4.08615 0
M  V30 1231 H 115.744 2.28033 3.25954 0
M  V30 1232 H 112.483 5.18102 4.01561 0
M  V30 1233 H 112.003 3.64159 4.76601 0
M  V30 1234 H 113.682 4.21956 4.90471 0
M  V30 1235 N 113.814 -1.1601 1.06675 0
M  V30 1236 C 115.042 -1.90527 0.806667 0
M  V30 1237 C 115.457 -1.77643 -0.639396 0
M  V30 1238 O 114.814 -1.12369 -1.43803 0
M  V30 1239 C 114.865 -3.41106 1.19705 0
M  V30 1240 O 114.586 -3.53608 2.58636 0
M  V30 1241 C 116.087 -4.32663 0.965266 0
M  V30 1242 H 113.307 -0.604053 0.292166 0
M  V30 1243 H 115.851 -1.47026 1.4214 0
M  V30 1244 H 114.006 -3.82296 0.626774 0
M  V30 1245 H 114.42 -4.47011 2.74375 0
M  V30 1246 H 115.894 -5.36763 1.288 0
M  V30 1247 H 116.371 -4.39089 -0.0987936 0
M  V30 1248 H 116.977 -3.97206 1.52011 0
M  V30 1249 N 115.292 -0.849877 -1.32721 0
M  V30 1250 C 116.569 -0.372405 -1.92022 0
M  V30 1251 C 116.949 1.1435 -1.77447 0
M  V30 1252 O 116.297 1.96296 -1.16962 0
M  V30 1253 C 116.507 -0.831482 -3.3895 0
M  V30 1254 C 117.855 -0.845882 -4.16089 0
M  V30 1255 O 118.879 -0.775806 -3.47649 0
M  V30 1256 O 117.738 -0.943753 -5.38289 0
M  V30 1257 H 114.832 -0.107667 -0.819961 0
M  V30 1258 H 117.378 -0.93646 -1.41522 0
M  V30 1259 H 116.15 -1.87448 -3.4348 0
M  V30 1260 H 115.773 -0.24461 -3.96847 0
M  V30 1261 N 116.77 1.45427 -0.607355 0
M  V30 1262 C 118.017 2.02241 -0.102455 0
M  V30 1263 C 118.345 1.4758 1.26691 0
M  V30 1264 O 117.6 0.640468 1.84923 0
M  V30 1265 C 117.899 3.57398 -0.0129263 0
M  V30 1266 C 117.565 4.3121 -1.31792 0
M  V30 1267 C 116.227 4.51092 -1.67539 0
M  V30 1268 C 118.579 4.73401 -2.18039 0
M  V30 1269 C 115.907 5.10422 -2.89285 0
M  V30 1270 C 118.259 5.34078 -3.39034 0
M  V30 1271 C 116.923 5.52184 -3.75033 0
M  V30 1272 H 116.193 0.740051 -0.037491 0
M  V30 1273 H 118.84 1.74494 -0.788926 0
M  V30 1274 H 117.145 3.84421 0.756806 0
M  V30 1275 H 118.842 3.99061 0.393881 0
M  V30 1276 H 115.432 4.16047 -1.02968 0
M  V30 1277 H 119.616 4.57774 -1.91721 0
M  V30 1278 H 114.872 5.22629 -3.17283 0
M  V30 1279 H 119.046 5.65724 -4.06115 0
M  V30 1280 H 116.673 5.97925 -4.69457 0
M  V30 1281 N 118.248 0.346503 1.53744 0
M  V30 1282 C 119.473 -0.253074 2.0585 0
M  V30 1283 C 119.898 -1.43202 1.21962 0
M  V30 1284 O 119.256 -1.79783 0.234073 0
M  V30 1285 C 119.304 -0.643193 3.54817 0
M  V30 1286 O 118.408 -1.74286 3.73762 0
M  V30 1287 H 117.749 -0.0413583 0.662711 0
M  V30 1288 H 120.279 0.501574 1.98357 0
M  V30 1289 H 120.289 -0.919526 3.97503 0
M  V30 1290 H 118.964 0.218966 4.15323 0
M  V30 1291 H 117.541 -1.46356 3.42979 0
M  V30 1292 N 119.726 -1.57421 0.075193 0
M  V30 1293 C 120.658 -2.09904 -0.920483 0
M  V30 1294 C 121.671 -1.03191 -1.25918 0
M  V30 1295 O 122.86 -1.30695 -1.21577 0
M  V30 1296 C 119.96 -2.54726 -2.23534 0
M  V30 1297 C 119.133 -3.8505 -2.07498 0
M  V30 1298 C 118.192 -4.15929 -3.22319 0
M  V30 1299 O 117.218 -4.85474 -2.9716 0
M  V30 1300 N 118.42 -3.69745 -4.47514 0
M  V30 1301 H 121.185 -2.95954 -0.472359 0
M  V30 1302 H 118.746 -1.61523 -0.110444 0
M  V30 1303 H 120.738 -2.72443 -2.9926 0
M  V30 1304 H 119.308 -1.73795 -2.59835 0
M  V30 1305 H 118.528 -3.76679 -1.16219 0
M  V30 1306 H 119.816 -4.70348 -1.94038 0
M  V30 1307 H 119.214 -3.13569 -4.7084 0
M  V30 1308 H 117.771 -3.92655 -5.20255 0
M  V30 1309 N 121.204 0.198386 -1.56346 0
M  V30 1310 C 122.114 1.2664 -1.97483 0
M  V30 1311 C 123.13 1.49989 -0.882002 0
M  V30 1312 O 124.306 1.62668 -1.18748 0
M  V30 1313 C 121.371 2.59141 -2.30319 0
M  V30 1314 C 120.432 2.43892 -3.53292 0
M  V30 1315 C 119.665 3.70074 -3.84553 0
M  V30 1316 O 119.888 4.74101 -3.1715 0
M  V30 1317 O 118.822 3.658 -4.7799 0
M  V30 1318 H 122.648 0.947304 -2.88548 0
M  V30 1319 H 120.233 0.403123 -1.43859 0
M  V30 1320 H 122.115 3.37352 -2.5253 0
M  V30 1321 H 120.79 2.90684 -1.42423 0
M  V30 1322 H 119.697 1.63803 -3.36332 0
M  V30 1323 H 121.03 2.17282 -4.41644 0
M  V30 1324 N 122.682 1.50554 0.465978 0
M  V30 1325 C 123.592 1.72585 1.58907 0
M  V30 1326 C 124.608 0.60911 1.6299 0
M  V30 1327 O 125.784 0.88804 1.80765 0
M  V30 1328 C 122.849 1.81995 2.95091 0
M  V30 1329 C 121.91 3.05751 3.01355 0
M  V30 1330 C 121.143 3.14702 4.31043 0
M  V30 1331 O 121.366 2.30313 5.21835 0
M  V30 1332 O 120.3 4.07468 4.43005 0
M  V30 1333 H 124.126 2.67799 1.43239 0
M  V30 1334 H 121.711 1.34711 0.646013 0
M  V30 1335 H 123.593 1.90335 3.75966 0
M  V30 1336 H 122.268 0.899659 3.10947 0
M  V30 1337 H 121.175 3.02908 2.19539 0
M  V30 1338 H 122.508 3.97375 2.90437 0
M  V30 1339 N 124.16 -0.719506 1.40217 0
M  V30 1340 C 125.092 -1.84428 1.36084 0
M  V30 1341 C 126.105 -1.60597 0.266913 0
M  V30 1342 O 127.294 -1.70544 0.526983 0
M  V30 1343 C 124.394 -3.20757 1.094 0
M  V30 1344 C 123.567 -3.71817 2.30372 0
M  V30 1345 C 122.626 -4.86748 1.99907 0
M  V30 1346 O 121.652 -4.99603 2.72737 0
M  V30 1347 N 122.854 -5.7226 0.974635 0
M  V30 1348 H 125.619 -1.88473 2.33019 0
M  V30 1349 H 123.18 -0.900885 1.3452 0
M  V30 1350 H 125.172 -3.95235 0.870116 0
M  V30 1351 H 123.742 -3.11884 0.211452 0
M  V30 1352 H 122.962 -2.88514 2.68614 0
M  V30 1353 H 124.25 -4.02666 3.11026 0
M  V30 1354 H 123.648 -5.6448 0.371368 0
M  V30 1355 H 122.205 -6.46739 0.810656 0
M  V30 1356 N 125.638 -1.25649 -0.95132 0
M  V30 1357 C 126.585 -1.06323 -2.04851 0
M  V30 1358 C 127.555 0.0286491 -1.66075 0
M  V30 1359 O 128.74 -0.12917 -1.90362 0
M  V30 1360 C 125.88 -0.691529 -3.381 0
M  V30 1361 C 124.993 -1.85861 -3.89974 0
M  V30 1362 C 124.128 -1.43096 -5.11563 0
M  V30 1363 C 123.167 -2.56696 -5.55674 0
M  V30 1364 N 122.304 -2.14684 -6.68472 0
M  V30 1365 H 127.144 -2.00222 -2.20715 0
M  V30 1366 H 124.681 -0.997027 -1.08156 0
M  V30 1367 H 126.639 -0.456963 -4.1469 0
M  V30 1368 H 125.269 0.210474 -3.22113 0
M  V30 1369 H 124.321 -2.20639 -3.09875 0
M  V30 1370 H 125.633 -2.71161 -4.18657 0
M  V30 1371 H 124.787 -1.15624 -5.9558 0
M  V30 1372 H 123.526 -0.548722 -4.84603 0
M  V30 1373 H 122.531 -2.84909 -4.7022 0
M  V30 1374 H 123.756 -3.45503 -5.8464 0
M  V30 1375 H 121.702 -1.28881 -6.43215 0
M  V30 1376 H 121.619 -2.9353 -6.96689 0
M  V30 1377 H 122.887 -1.90397 -7.5589 0
M  V30 1378 N 127.117 1.15442 -1.07289 0
M  V30 1379 C 128.067 2.18164 -0.662467 0
M  V30 1380 C 129.051 1.57845 0.312074 0
M  V30 1381 O 130.243 1.76552 0.125905 0
M  V30 1382 C 127.372 3.43246 -0.0611295 0
M  V30 1383 C 126.458 4.1062 -1.06077 0
M  V30 1384 N 126.849 4.53491 -2.24008 0
M  V30 1385 C 125.147 4.36949 -0.893964 0
M  V30 1386 C 125.848 5.05731 -2.87422 0
M  V30 1387 N 124.824 4.99236 -2.15091 0
M  V30 1388 H 128.626 2.49038 -1.56068 0
M  V30 1389 H 126.14 1.32003 -0.945988 0
M  V30 1390 H 128.137 4.16145 0.250792 0
M  V30 1391 H 126.797 3.13854 0.832207 0
M  V30 1392 H 127.808 4.46898 -2.6173 0
M  V30 1393 H 124.485 4.17466 -0.0534693 0
M  V30 1394 H 125.875 5.48865 -3.87553 0
M  V30 1395 N 128.595 0.856903 1.32268 0
M  V30 1396 C 129.558 0.308171 2.27119 0
M  V30 1397 C 130.558 -0.533421 1.51695 0
M  V30 1398 O 131.748 -0.344607 1.70757 0
M  V30 1399 C 128.88 -0.563757 3.36206 0
M  V30 1400 H 130.073 1.14535 2.77167 0
M  V30 1401 H 127.626 0.631421 1.42978 0
M  V30 1402 H 128.361 -1.42266 2.91429 0
M  V30 1403 H 128.146 0.0386749 3.92081 0
M  V30 1404 H 129.636 -0.940386 4.06874 0
M  V30 1405 N 130.073 -1.45103 0.615059 0
M  V30 1406 C 131.321 -2.01784 0.112955 0
M  V30 1407 C 131.642 -1.48504 -1.26378 0
M  V30 1408 O 130.912 -0.682245 -1.83636 0
M  V30 1409 H 129.492 -0.745993 0.0387668 0
M  V30 1410 H 132.154 -1.77808 0.798141 0
M  V30 1411 H 131.25 -3.12025 0.0684069 0
M  V30 1412 N 131.551 -0.354651 -1.53558 0
M  V30 1413 C 132.481 0.489091 -2.2832 0
M  V30 1414 C 133.462 1.09324 -1.30316 0
M  V30 1415 O 134.647 1.11255 -1.59173 0
M  V30 1416 C 131.777 1.63456 -3.0643 0
M  V30 1417 C 130.731 1.1582 -4.12031 0
M  V30 1418 C 130.057 2.39305 -4.7816 0
M  V30 1419 C 131.357 0.250731 -5.21698 0
M  V30 1420 H 133.051 -0.134614 -2.99097 0
M  V30 1421 H 130.597 -0.0661826 -1.43848 0
M  V30 1422 H 132.55 2.23136 -3.57475 0
M  V30 1423 H 131.274 2.28533 -2.33325 0
M  V30 1424 H 129.933 0.584146 -3.61916 0
M  V30 1425 H 129.581 3.02814 -4.01637 0
M  V30 1426 H 129.281 2.08109 -5.49513 0
M  V30 1427 H 130.805 2.99691 -5.31994 0
M  V30 1428 H 132.219 0.754695 -5.68311 0
M  V30 1429 H 130.616 0.0301468 -6.00092 0
M  V30 1430 H 131.686 -0.710125 -4.79672 0
M  V30 1431 N 133.029 1.57378 -0.0835403 0
M  V30 1432 C 133.977 2.14602 0.89714 0
M  V30 1433 C 134.971 1.08589 1.30018 0
M  V30 1434 O 136.177 1.26952 1.27606 0
M  V30 1435 H 132.552 0.686346 0.3073 0
M  V30 1436 H 134.523 2.95845 0.38969 0
M  V30 1437 C 133.272 2.73188 2.15089 0
M  V30 1438 H 132.595 3.54442 1.84962 0
M  V30 1439 H 134.035 3.1681 2.81793 0
M  V30 1440 C 132.494 1.68517 2.91725 0
M  V30 1441 O 133.024 1.11718 3.85852 0
M  V30 1442 N 131.23 1.39277 2.55049 0
M  V30 1443 H 130.777 1.85655 1.78577 0
M  V30 1444 H 130.735 0.694791 3.06627 0
M  V30 1445 N 134.507 -0.190092 1.56449 0
M  V30 1446 C 135.417 -1.25591 1.98152 0
M  V30 1447 C 136.433 -1.49519 0.889944 0
M  V30 1448 O 137.609 -1.62036 1.19609 0
M  V30 1449 C 134.674 -2.57916 2.3169 0
M  V30 1450 C 133.735 -2.42015 3.5458 0
M  V30 1451 C 132.968 -3.6803 3.8651 0
M  V30 1452 O 133.191 -4.72413 3.1966 0
M  V30 1453 O 132.125 -3.6326 4.79923 0
M  V30 1454 H 135.951 -0.931988 2.89046 0
M  V30 1455 H 133.536 -0.395488 1.4407 0
M  V30 1456 H 135.418 -3.36008 2.54316 0
M  V30 1457 H 134.093 -2.89925 1.43963 0
M  V30 1458 H 133 -1.62017 3.37196 0
M  V30 1459 H 134.333 -2.14937 4.4279 0
M  V30 1460 N 135.985 -1.50799 -0.457987 0
M  V30 1461 C 136.915 -1.73553 -1.5621 0
M  V30 1462 C 137.896 -0.584774 -1.59732 0
M  V30 1463 O 139.081 -0.825314 -1.7579 0
M  V30 1464 C 136.211 -1.84169 -2.94447 0
M  V30 1465 C 135.165 -2.99461 -3.0579 0
M  V30 1466 C 134.491 -2.95235 -4.45803 0
M  V30 1467 C 135.791 -4.39766 -2.81786 0
M  V30 1468 H 137.485 -2.66 -1.37421 0
M  V30 1469 H 135.031 -1.28002 -0.659662 0
M  V30 1470 H 136.984 -1.98672 -3.71628 0
M  V30 1471 H 135.708 -0.883545 -3.14422 0
M  V30 1472 H 134.367 -2.8463 -2.31044 0
M  V30 1473 H 134.015 -1.97239 -4.62715 0
M  V30 1474 H 133.715 -3.72642 -4.54326 0
M  V30 1475 H 135.239 -3.11803 -5.24987 0
M  V30 1476 H 136.653 -4.55054 -3.4871 0
M  V30 1477 H 135.05 -5.18722 -3.0174 0
M  V30 1478 H 136.12 -4.51229 -1.7754 0
M  V30 1479 N 137.463 0.71206 -1.40597 0
M  V30 1480 C 138.691 1.50111 -1.42388 0
M  V30 1481 C 139.106 1.88784 -0.0245395 0
M  V30 1482 O 138.463 1.55681 0.952351 0
M  V30 1483 C 138.514 2.7742 -2.31776 0
M  V30 1484 O 138.235 2.40382 -3.66262 0
M  V30 1485 C 139.736 3.7129 -2.42196 0
M  V30 1486 H 136.956 0.46314 -0.485533 0
M  V30 1487 H 139.5 0.878068 -1.8469 0
M  V30 1488 H 137.655 3.36001 -1.92827 0
M  V30 1489 H 138.069 3.22324 -4.13772 0
M  V30 1490 H 139.543 4.57448 -3.08943 0
M  V30 1491 H 140.02 4.14641 -1.44809 0
M  V30 1492 H 140.626 3.18619 -2.81712 0
M  V30 1493 N 138.941 1.26152 0.944643 0
M  V30 1494 C 139.888 1.07408 2.04285 0
M  V30 1495 C 140.858 -0.0198413 1.66088 0
M  V30 1496 O 142.043 0.139264 1.90291 0
M  V30 1497 C 139.183 0.70945 3.37729 0
M  V30 1498 C 138.296 1.87926 3.88983 0
M  V30 1499 C 137.431 1.45807 5.10797 0
M  V30 1500 C 136.47 2.5964 5.54305 0
M  V30 1501 N 135.607 2.18226 6.67324 0
M  V30 1502 H 140.447 2.01389 2.1965 0
M  V30 1503 H 137.984 1.00275 1.07626 0
M  V30 1504 H 139.942 0.478948 4.14442 0
M  V30 1505 H 138.572 -0.193389 3.2222 0
M  V30 1506 H 137.624 2.22279 3.08701 0
M  V30 1507 H 138.936 2.73377 4.17213 0
M  V30 1508 H 138.09 1.18781 5.94959 0
M  V30 1509 H 136.829 0.574414 4.84305 0
M  V30 1510 H 135.834 2.87399 4.68702 0
M  V30 1511 H 137.059 3.48599 5.828 0
M  V30 1512 H 135.005 1.3229 6.42523 0
M  V30 1513 H 134.922 2.97221 6.95123 0
M  V30 1514 H 136.19 1.94403 7.54869 0
M  V30 1515 N 140.419 -1.14872 1.07899 0
M  V30 1516 C 141.696 -1.81928 0.71845 0
M  V30 1517 C 142.076 -1.95417 -0.798455 0
M  V30 1518 O 141.424 -1.50997 -1.715 0
M  V30 1519 C 141.634 -3.17937 1.43935 0
M  V30 1520 C 142.982 -3.93501 1.59506 0
M  V30 1521 O 144.006 -3.27509 1.40058 0
M  V30 1522 O 142.865 -5.1183 1.91551 0
M  V30 1523 H 139.959 -0.78628 0.256305 0
M  V30 1524 H 142.505 -1.21934 1.18026 0
M  V30 1525 H 141.277 -3.0325 2.47295 0
M  V30 1526 H 140.9 -3.85619 0.968687 0
M  V30 1527 N 141.898 -0.863906 -1.31812 0
M  V30 1528 C 142.808 -0.318461 -2.32428 0
M  V30 1529 C 143.824 0.568496 -1.64451 0
M  V30 1530 O 145 0.46666 -1.95919 0
M  V30 1531 C 142.065 0.476355 -3.43412 0
M  V30 1532 C 141.126 -0.43784 -4.27061 0
M  V30 1533 C 140.359 0.319138 -5.32745 0
M  V30 1534 O 140.582 1.54799 -5.48993 0
M  V30 1535 O 139.516 -0.319861 -6.01049 0
M  V30 1536 H 143.342 -1.15229 -2.80991 0
M  V30 1537 H 140.927 -0.627103 -1.35602 0
M  V30 1538 H 142.809 0.927156 -4.11074 0
M  V30 1539 H 141.484 1.28683 -2.97022 0
M  V30 1540 H 140.391 -0.937013 -3.62175 0
M  V30 1541 H 141.724 -1.21375 -4.77 0
M  V30 1542 N 143.376 1.44774 -0.622745 0
M  V30 1543 C 144.308 2.28856 0.125485 0
M  V30 1544 C 145.321 1.40811 0.817069 0
M  V30 1545 O 146.51 1.65044 0.679918 0
M  V30 1546 C 143.61 3.16963 1.19949 0
M  V30 1547 C 142.783 4.33374 0.592064 0
M  V30 1548 C 141.842 5.02577 1.55893 0
M  V30 1549 O 140.868 5.58873 1.07933 0
M  V30 1550 N 142.07 5.03256 2.89334 0
M  V30 1551 H 144.835 2.93713 -0.596068 0
M  V30 1552 H 142.396 1.55129 -0.463303 0
M  V30 1553 H 144.388 3.60123 1.84644 0
M  V30 1554 H 142.958 2.53913 1.82337 0
M  V30 1555 H 142.178 3.93509 -0.233322 0
M  V30 1556 H 143.466 5.08527 0.166738 0
M  V30 1557 H 142.864 4.58836 3.30887 0
M  V30 1558 H 141.421 5.50232 3.49412 0
M  V30 1559 N 144.854 0.36279 1.53368 0
M  V30 1560 C 145.802 -0.500155 2.27159 0
M  V30 1561 C 146.796 -1.08575 1.3003 0
M  V30 1562 O 148.002 -1.02927 1.47668 0
M  V30 1563 H 144.377 -0.180009 0.730138 0
M  V30 1564 H 146.348 0.14401 2.98052 0
M  V30 1565 C 145.097 -1.62937 3.07159 0
M  V30 1566 H 144.42 -1.18806 3.8174 0
M  V30 1567 H 145.86 -2.20795 3.61975 0
M  V30 1568 C 144.319 -2.57007 2.17829 0
M  V30 1569 O 144.849 -3.59752 1.78721 0
M  V30 1570 N 143.055 -2.26131 1.82518 0
M  V30 1571 H 142.602 -1.42616 2.14519 0
M  V30 1572 H 142.56 -2.89327 1.23034 0
M  V30 1573 N 146.332 -1.57332 0.0918853 0
M  V30 1574 C 147.282 -2.10385 -0.87876 0
M  V30 1575 C 148.266 -1.01814 -1.24591 0
M  V30 1576 O 149.458 -1.28093 -1.22152 0
M  V30 1577 C 146.587 -2.68517 -2.13901 0
M  V30 1578 C 145.673 -3.84126 -1.79744 0
M  V30 1579 N 146.064 -4.92288 -1.1613 0
M  V30 1580 C 144.362 -3.93801 -2.09373 0
M  V30 1581 C 145.063 -5.7295 -1.00513 0
M  V30 1582 N 144.039 -5.21876 -1.5214 0
M  V30 1583 H 147.841 -2.91395 -0.38293 0
M  V30 1584 H 145.355 -1.62017 -0.111423 0
M  V30 1585 H 147.352 -3.04852 -2.84378 0
M  V30 1586 H 146.012 -1.88961 -2.64053 0
M  V30 1587 H 147.023 -5.1123 -0.828504 0
M  V30 1588 H 143.7 -3.25249 -2.61762 0
M  V30 1589 H 145.09 -6.69978 -0.507902 0
M  V30 1590 N 147.81 0.181792 -1.56548 0
M  V30 1591 C 148.74 1.22765 -1.98623 0
M  V30 1592 C 149.721 1.46747 -0.860189 0
M  V30 1593 O 150.906 1.58259 -1.12551 0
M  V30 1594 C 148.036 2.56894 -2.33715 0
M  V30 1595 C 146.99 2.475 -3.49182 0
M  V30 1596 C 146.316 3.86023 -3.69986 0
M  V30 1597 C 147.616 1.98866 -4.82959 0
M  V30 1598 H 149.31 0.877942 -2.86239 0
M  V30 1599 H 146.856 0.42088 -1.37712 0
M  V30 1600 H 148.809 3.30253 -2.61746 0
M  V30 1601 H 147.533 2.93632 -1.42997 0
M  V30 1602 H 146.192 1.76596 -3.21262 0
M  V30 1603 H 145.84 4.20136 -2.76576 0
M  V30 1604 H 145.54 3.80609 -4.47672 0
M  V30 1605 H 147.064 4.60984 -4.00407 0
M  V30 1606 H 148.478 2.61992 -5.09934 0
M  V30 1607 H 146.875 2.04424 -5.64208 0
M  V30 1608 H 147.945 0.942465 -4.75653 0
M  V30 1609 N 149.288 1.51039 0.449983 0
M  V30 1610 C 150.537 1.62317 1.19733 0
M  V30 1611 C 150.85 0.339101 1.92638 0
M  V30 1612 O 152.056 0.331069 2.69474 0
M  V30 1613 C 150.512 2.86608 2.17678 0
M  V30 1614 C 150.12 4.21972 1.50479 0
M  V30 1615 C 151.864 3.07239 2.92924 0
M  V30 1616 C 149.771 5.37426 2.46834 0
M  V30 1617 H 148.701 0.604532 0.450619 0
M  V30 1618 H 151.352 1.77494 0.465625 0
M  V30 1619 H 149.734 2.65037 2.94231 0
M  V30 1620 H 150.908 4.53878 0.795716 0
M  V30 1621 H 149.223 4.07117 0.874344 0
M  V30 1622 H 151.82 3.90668 3.65079 0
M  V30 1623 H 152.163 2.19807 3.5354 0
M  V30 1624 H 152.696 3.29091 2.23481 0
M  V30 1625 H 149.435 6.27079 1.90926 0
M  V30 1626 H 148.955 5.09912 3.15832 0
M  V30 1627 H 150.634 5.68862 3.08228 0
M  V30 1628 N 150.766 -0.704594 1.40972 0
M  V30 1629 C 151.696 -1.83124 1.44872 0
M  V30 1630 C 152.677 -1.67281 0.30838 0
M  V30 1631 O 153.862 -1.87149 0.518556 0
M  V30 1632 C 150.992 -3.21181 1.32136 0
M  V30 1633 C 149.946 -3.51714 2.43888 0
M  V30 1634 C 149.272 -4.89032 2.16222 0
M  V30 1635 C 150.572 -3.516 3.86232 0
M  V30 1636 H 152.266 -1.80117 2.39161 0
M  V30 1637 H 149.812 -0.865145 1.15114 0
M  V30 1638 H 151.765 -3.99702 1.33479 0
M  V30 1639 H 150.489 -3.24791 0.343279 0
M  V30 1640 H 149.148 -2.75539 2.41813 0
M  V30 1641 H 148.796 -4.89256 1.16778 0
M  V30 1642 H 148.496 -5.10426 2.911 0
M  V30 1643 H 150.02 -5.69873 2.19265 0
M  V30 1644 H 151.434 -4.2014 3.9007 0
M  V30 1645 H 149.831 -3.84523 4.60719 0
M  V30 1646 H 150.901 -2.50757 4.15029 0
M  V30 1647 N 152.244 -1.26651 -0.937939 0
M  V30 1648 C 153.174 -1.10993 -2.05433 0
M  V30 1649 C 154.155 -0.0142161 -1.70094 0
M  V30 1650 O 155.34 -0.186837 -1.93299 0
M  V30 1651 C 152.47 -0.745561 -3.39203 0
M  V30 1652 C 151.424 -1.79337 -3.88616 0
M  V30 1653 C 150.75 -1.28324 -5.19073 0
M  V30 1654 C 152.05 -3.19553 -4.13138 0
M  V30 1655 H 153.744 -2.0438 -2.1879 0
M  V30 1656 H 151.29 -0.984041 -1.05131 0
M  V30 1657 H 153.243 -0.622888 -4.16771 0
M  V30 1658 H 151.967 0.22401 -3.25831 0
M  V30 1659 H 150.626 -1.90477 -3.13231 0
M  V30 1660 H 150.274 -0.303414 -5.02084 0
M  V30 1661 H 149.974 -1.98369 -5.53103 0
M  V30 1662 H 151.498 -1.1733 -5.99221 0
M  V30 1663 H 152.912 -3.11471 -4.81309 0
M  V30 1664 H 151.309 -3.87218 -4.58457 0
M  V30 1665 H 152.379 -3.65368 -3.18801 0
M  V30 1666 N 153.722 1.14298 -1.08507 0
M  V30 1667 C 154.67 2.21483 -0.710483 0
M  V30 1668 C 155.664 1.66998 0.284234 0
M  V30 1669 O 156.87 1.79401 0.146692 0
M  V30 1670 H 153.245 0.721578 -0.211729 0
M  V30 1671 H 155.216 2.50348 -1.62384 0
M  V30 1672 C 153.965 3.4743 -0.137007 0
M  V30 1673 H 153.288 3.89686 -0.893592 0
M  V30 1674 H 154.728 4.2391 0.0872789 0
M  V30 1675 C 153.187 3.17548 1.12538 0
M  V30 1676 O 153.717 3.35437 2.21009 0
M  V30 1677 N 151.923 2.71499 1.03617 0
M  V30 1678 H 151.47 2.57143 0.153403 0
M  V30 1679 H 151.428 2.51881 1.88158 0
M  V30 1680 N 155.201 0.870884 1.31352 0
M  V30 1681 C 156.133 0.28455 2.27427 0
M  V30 1682 C 157.146 -0.552927 1.53123 0
M  V30 1683 O 158.335 -0.374771 1.74521 0
M  V30 1684 C 155.435 -0.615164 3.3327 0
M  V30 1685 C 154.608 0.190079 4.36987 0
M  V30 1686 C 153.667 -0.637917 5.22319 0
M  V30 1687 O 152.693 -0.065626 5.69162 0
M  V30 1688 N 153.895 -1.94973 5.46778 0
M  V30 1689 H 156.66 1.11017 2.7838 0
M  V30 1690 H 154.221 0.732458 1.44384 0
M  V30 1691 H 156.213 -1.1748 3.87273 0
M  V30 1692 H 154.783 -1.34146 2.82354 0
M  V30 1693 H 154.003 0.931165 3.83044 0
M  V30 1694 H 155.291 0.742579 5.03352 0
M  V30 1695 H 154.689 -2.4378 5.10478 0
M  V30 1696 H 153.246 -2.45713 6.03712 0
M  V30 1697 N 156.679 -1.44442 0.630414 0
M  V30 1698 C 157.626 -2.30678 -0.0749355 0
M  V30 1699 C 158.596 -1.4344 -0.837502 0
M  V30 1700 O 159.781 -1.72343 -0.818684 0
M  V30 1701 C 156.921 -3.28706 -1.05103 0
M  V30 1702 C 156.034 -4.31046 -0.286954 0
M  V30 1703 C 155.169 -5.16167 -1.2548 0
M  V30 1704 C 154.208 -6.10216 -0.479843 0
M  V30 1705 N 153.345 -6.88039 -1.39811 0
M  V30 1706 H 158.185 -2.90454 0.666386 0
M  V30 1707 H 155.722 -1.43107 0.340404 0
M  V30 1708 H 157.68 -3.84027 -1.63031 0
M  V30 1709 H 156.31 -2.70632 -1.75949 0
M  V30 1710 H 155.362 -3.78203 0.408243 0
M  V30 1711 H 156.674 -4.97794 0.316657 0
M  V30 1712 H 155.828 -5.76002 -1.90544 0
M  V30 1713 H 154.567 -4.49491 -1.89233 0
M  V30 1714 H 153.572 -5.49491 0.184295 0
M  V30 1715 H 154.797 -6.78928 0.152965 0
M  V30 1716 H 152.743 -6.24032 -2.02287 0
M  V30 1717 H 152.66 -7.51223 -0.848508 0
M  V30 1718 H 153.928 -7.52397 -2.03762 0
M  V30 1719 N 158.157 -0.370918 -1.53173 0
M  V30 1720 C 159.387 0.217389 -2.05453 0
M  V30 1721 C 159.795 1.42568 -1.24382 0
M  V30 1722 O 159.138 1.81571 -0.278839 0
M  V30 1723 C 159.2 0.669827 -3.53205 0
M  V30 1724 C 158.864 -0.4225 -4.55043 0
M  V30 1725 C 159.861 -1.27407 -5.04047 0
M  V30 1726 C 157.546 -0.58427 -4.9889 0
M  V30 1727 C 159.54 -2.27271 -5.95505 0
M  V30 1728 C 157.227 -1.58627 -5.90153 0
M  V30 1729 C 158.225 -2.42892 -6.38351 0
M  V30 1730 O 157.913 -3.41382 -7.27814 0
M  V30 1731 H 157.645 0.0408171 -0.674767 0
M  V30 1732 H 160.199 -0.5292 -1.98466 0
M  V30 1733 H 158.429 1.4681 -3.57748 0
M  V30 1734 H 160.118 1.18173 -3.88317 0
M  V30 1735 H 160.884 -1.16031 -4.70916 0
M  V30 1736 H 156.763 0.061851 -4.60959 0
M  V30 1737 H 160.307 -2.93079 -6.33049 0
M  V30 1738 H 156.204 -1.70048 -6.22699 0
M  V30 1739 H 156.972 -3.37173 -7.45826 0
M  V30 1740 N 159.635 1.57281 -0.100228 0
M  V30 1741 C 160.582 2.14305 0.856858 0
M  V30 1742 C 161.552 1.06296 1.27634 0
M  V30 1743 O 162.737 1.34109 1.35718 0
M  V30 1744 C 159.877 2.73184 2.10866 0
M  V30 1745 C 158.99 3.95442 1.73925 0
M  V30 1746 C 158.125 4.42468 2.93931 0
M  V30 1747 C 157.164 5.57303 2.5314 0
M  V30 1748 N 156.301 5.99158 3.65997 0
M  V30 1749 H 161.141 2.95772 0.363726 0
M  V30 1750 H 158.678 1.46139 0.167858 0
M  V30 1751 H 160.636 3.05442 2.84185 0
M  V30 1752 H 159.266 1.94437 2.57671 0
M  V30 1753 H 158.318 3.69464 0.905554 0
M  V30 1754 H 159.63 4.78769 1.39935 0
M  V30 1755 H 158.784 4.76537 3.75496 0
M  V30 1756 H 157.523 3.58052 3.31134 0
M  V30 1757 H 156.528 5.22857 1.70003 0
M  V30 1758 H 157.753 6.43471 2.17075 0
M  V30 1759 H 155.699 5.17687 4.02909 0
M  V30 1760 H 155.616 6.77295 3.35869 0
M  V30 1761 H 156.884 6.3786 4.48057 0
M  V30 1762 N 161.113 -0.173488 1.56642 0
M  V30 1763 C 162.39 -0.917617 1.7274 0
M  V30 1764 C 162.77 -2.00484 0.661027 0
M  V30 1765 O 162.118 -2.26184 -0.32453 0
M  V30 1766 C 162.328 -1.48433 3.15862 0
M  V30 1767 C 163.676 -1.95809 3.76754 0
M  V30 1768 O 164.7 -1.58231 3.19126 0
M  V30 1769 O 163.559 -2.65024 4.77938 0
M  V30 1770 H 160.653 -0.431772 0.705338 0
M  V30 1771 H 163.199 -0.161487 1.6893 0
M  V30 1772 H 161.971 -0.701715 3.84957 0
M  V30 1773 H 161.594 -2.30471 3.23989 0
M  V30 1774 N 162.591 -1.51276 -0.441967 0
M  V30 1775 C 163.538 -1.72256 -1.53612 0
M  V30 1776 C 164.508 -0.564164 -1.56225 0
M  V30 1777 O 165.693 -0.798074 -1.73307 0
M  V30 1778 C 162.833 -1.84932 -2.91366 0
M  V30 1779 C 161.946 -3.12459 -2.98317 0
M  V30 1780 C 161.081 -3.15758 -4.27166 0
M  V30 1781 C 160.12 -4.37619 -4.27967 0
M  V30 1782 N 159.257 -4.38493 -5.48333 0
M  V30 1783 H 164.097 -2.65654 -1.35026 0
M  V30 1784 H 161.634 -1.31662 -0.656009 0
M  V30 1785 H 163.592 -1.90263 -3.7129 0
M  V30 1786 H 162.222 -0.949461 -3.08521 0
M  V30 1787 H 161.274 -3.1646 -2.11086 0
M  V30 1788 H 162.586 -4.02382 -2.94771 0
M  V30 1789 H 161.74 -3.19979 -5.15459 0
M  V30 1790 H 160.479 -2.23715 -4.33362 0
M  V30 1791 H 159.484 -4.33579 -3.38067 0
M  V30 1792 H 160.709 -5.30921 -4.23438 0
M  V30 1793 H 158.655 -3.49318 -5.55259 0
M  V30 1794 H 158.572 -5.22219 -5.46647 0
M  V30 1795 H 159.84 -4.469 -6.38671 0
M  V30 1796 N 164.069 0.697108 -1.41344 0
M  V30 1797 C 165.316 1.45714 -1.40619 0
M  V30 1798 C 165.644 1.94494 -0.0147907 0
M  V30 1799 O 164.899 1.69794 0.973066 0
M  V30 1800 C 165.198 2.68553 -2.35826 0
M  V30 1801 C 164.864 2.38438 -3.82698 0
M  V30 1802 C 163.526 2.29936 -4.22709 0
M  V30 1803 C 165.878 2.13567 -4.75435 0
M  V30 1804 C 163.206 1.94656 -5.53467 0
M  V30 1805 C 165.558 1.79797 -6.06511 0
M  V30 1806 C 164.222 1.69789 -6.45545 0
M  V30 1807 H 163.492 0.533206 -0.51456 0
M  V30 1808 H 166.139 0.796901 -1.74131 0
M  V30 1809 H 164.444 3.39503 -1.95563 0
M  V30 1810 H 166.141 3.2669 -2.32539 0
M  V30 1811 H 162.731 2.4595 -3.51008 0
M  V30 1812 H 166.915 2.19082 -4.45328 0
M  V30 1813 H 162.171 1.8546 -5.82593 0
M  V30 1814 H 166.345 1.59572 -6.77872 0
M  V30 1815 H 163.972 1.4222 -7.46778 0
M  V30 1816 N 165.547 1.27147 0.931209 0
M  V30 1817 C 166.795 1.13055 1.6752 0
M  V30 1818 C 167.116 -0.324791 1.92276 0
M  V30 1819 O 166.386 -1.22775 1.52654 0
M  V30 1820 H 164.966 0.415391 0.620854 0
M  V30 1821 H 167.628 1.59623 1.11833 0
M  V30 1822 H 166.724 1.65694 2.64485 0
M  V30 1823 N 167.025 -1.13721 1.09112 0
M  V30 1824 C 168.272 -1.84924 0.825192 0
M  V30 1825 C 168.6 -1.83347 -0.649151 0
M  V30 1826 O 167.855 -1.26449 -1.49362 0
M  V30 1827 C 168.154 -3.32861 1.30146 0
M  V30 1828 C 167.82 -3.54621 2.78486 0
M  V30 1829 C 166.482 -3.60268 3.18999 0
M  V30 1830 C 168.834 -3.62855 3.74146 0
M  V30 1831 C 166.162 -3.71679 4.53951 0
M  V30 1832 C 168.514 -3.75793 5.08883 0
M  V30 1833 C 167.178 -3.79692 5.4899 0
M  V30 1834 H 166.448 -0.676684 0.301959 0
M  V30 1835 H 169.095 -1.3428 1.36533 0
M  V30 1836 H 167.4 -3.85835 0.681064 0
M  V30 1837 H 169.097 -3.86395 1.07236 0
M  V30 1838 H 165.687 -3.50879 2.46134 0
M  V30 1839 H 169.871 -3.57775 3.43963 0
M  V30 1840 H 165.127 -3.72963 4.84467 0
M  V30 1841 H 169.301 -3.81107 5.82864 0
M  V30 1842 H 166.928 -3.88287 6.53558 0
M  V30 1843 N 168.503 -0.877838 -1.30888 0
M  V30 1844 C 169.914 -0.544193 -1.78593 0
M  V30 1845 C 170.265 0.939301 -1.72254 0
M  V30 1846 O 169.39 1.7337 -1.29505 0
M  V30 1847 C 169.985 -0.98105 -3.24285 0
M  V30 1848 C 168.544 -0.698935 -3.69854 0
M  V30 1849 C 167.691 -1.168 -2.51502 0
M  V30 1850 H 170.642 -1.06278 -1.17859 0
M  V30 1851 H 170.663 -0.307009 -3.79259 0
M  V30 1852 H 170.175 -2.06079 -3.28866 0
M  V30 1853 H 168.276 0.369112 -3.70767 0
M  V30 1854 H 168.389 -1.28148 -4.61644 0
M  V30 1855 H 166.753 -0.587535 -2.47831 0
M  V30 1856 H 167.536 -2.25533 -2.58824 0
M  V30 1857 N 169.982 1.44106 -0.638065 0
M  V30 1858 C 171.229 2.01978 -0.14533 0
M  V30 1859 C 171.557 1.50234 1.23532 0
M  V30 1860 O 170.812 0.679548 1.83523 0
M  V30 1861 C 171.111 3.5729 -0.0887327 0
M  V30 1862 C 170.777 4.28317 -1.40909 0
M  V30 1863 C 169.439 4.47437 -1.77069 0
M  V30 1864 C 171.791 4.6867 -2.28031 0
M  V30 1865 C 169.119 5.04171 -3.00047 0
M  V30 1866 C 171.471 5.26766 -3.50286 0
M  V30 1867 C 170.135 5.44104 -3.86661 0
M  V30 1868 H 169.405 0.739089 -0.0531801 0
M  V30 1869 H 172.052 1.72781 -0.825761 0
M  V30 1870 H 170.357 3.8594 0.675095 0
M  V30 1871 H 172.054 3.99807 0.309145 0
M  V30 1872 H 168.644 4.1377 -1.1177 0
M  V30 1873 H 172.828 4.53604 -2.01388 0
M  V30 1874 H 168.084 5.15782 -3.28298 0
M  V30 1875 H 172.258 5.56983 -4.18023 0
M  V30 1876 H 169.885 5.87832 -4.82034 0
M  V30 1877 N 171.46 0.379036 1.52974 0
M  V30 1878 C 172.706 -0.206727 2.01744 0
M  V30 1879 C 173.039 -1.47314 1.26539 0
M  V30 1880 O 172.314 -1.91084 0.362903 0
M  V30 1881 C 172.597 -0.485066 3.56818 0
M  V30 1882 C 172.45 0.795919 4.42702 0
M  V30 1883 C 173.769 -1.28003 4.21074 0
M  V30 1884 H 170.888 -0.0736607 0.73331 0
M  V30 1885 H 173.53 0.506581 1.83122 0
M  V30 1886 H 171.68 -1.09272 3.72816 0
M  V30 1887 H 173.352 1.43307 4.38476 0
M  V30 1888 H 171.595 1.41344 4.10127 0
M  V30 1889 H 172.266 0.555947 5.49193 0
M  V30 1890 H 174.742 -0.765867 4.08991 0
M  V30 1891 H 173.618 -1.44352 5.29579 0
M  V30 1892 H 173.879 -2.29236 3.78026 0
M  V30 1893 N 172.938 -1.57226 0.108567 0
M  V30 1894 C 173.871 -2.10447 -0.882464 0
M  V30 1895 C 174.849 -1.01829 -1.26766 0
M  V30 1896 O 176.033 -1.29415 -1.37054 0
M  V30 1897 C 173.16 -2.59258 -2.17952 0
M  V30 1898 C 172.206 -3.79662 -1.94318 0
M  V30 1899 S 173.039 -5.22586 -1.16892 0
M  V30 1900 C 174.195 -5.74758 -2.47799 0
M  V30 1901 H 174.428 -2.94178 -0.429745 0
M  V30 1902 H 171.961 -1.54043 -0.105 0
M  V30 1903 H 173.919 -2.88036 -2.92482 0
M  V30 1904 H 172.58 -1.75728 -2.60343 0
M  V30 1905 H 171.773 -4.11928 -2.90399 0
M  V30 1906 H 171.375 -3.51446 -1.27913 0
M  V30 1907 H 173.667 -5.83846 -3.43701 0
M  V30 1908 H 174.61 -6.73027 -2.20093 0
M  V30 1909 H 175.018 -5.02763 -2.56689 0
M  V30 1910 N 174.416 0.165178 -1.56732 0
M  V30 1911 C 175.379 1.18822 -1.95995 0
M  V30 1912 C 176.379 1.3685 -0.84431 0
M  V30 1913 O 177.569 1.34152 -1.11126 0
M  V30 1914 C 174.701 2.5521 -2.26011 0
M  V30 1915 H 175.894 0.851825 -2.87548 0
M  V30 1916 H 173.447 0.407857 -1.50885 0
M  V30 1917 H 174.182 2.93852 -1.37191 0
M  V30 1918 H 173.967 2.43489 -3.07336 0
M  V30 1919 H 175.457 3.28927 -2.57288 0
M  V30 1920 N 175.894 1.51508 0.433938 0
M  V30 1921 C 177.14 1.64588 1.18484 0
M  V30 1922 C 177.473 0.362666 1.90784 0
M  V30 1923 O 176.748 -0.637892 1.83742 0
M  V30 1924 C 177.031 2.85149 2.19913 0
M  V30 1925 C 176.884 4.23456 1.51674 0
M  V30 1926 C 178.203 3.01227 3.20858 0
M  V30 1927 H 175.322 0.598994 0.429389 0
M  V30 1928 H 177.964 1.84002 0.473647 0
M  V30 1929 H 176.114 2.68729 2.80566 0
M  V30 1930 H 177.786 4.51552 0.943322 0
M  V30 1931 H 176.029 4.25998 0.819035 0
M  V30 1932 H 176.7 5.03812 2.2556 0
M  V30 1933 H 179.176 3.16382 2.70263 0
M  V30 1934 H 178.052 3.87141 3.89118 0
M  V30 1935 H 178.313 2.13447 3.8716 0
M  V30 1936 N 177.372 -0.689602 1.41712 0
M  V30 1937 C 178.788 -1.00093 1.24312 0
M  V30 1938 C 178.988 -2.01036 0.136729 0
M  V30 1939 O 178.044 -2.47562 -0.496918 0
M  V30 1940 C 179.357 -1.51985 2.59463 0
M  V30 1941 C 180.905 -1.63838 2.66695 0
M  V30 1942 C 181.38 -2.1913 4.02177 0
M  V30 1943 N 182.871 -2.26483 4.04054 0
M  V30 1944 C 183.606 -2.70306 5.0569 0
M  V30 1945 N 183.102 -3.13691 6.17713 0
M  V30 1946 N 184.895 -2.69923 4.9305 0
M  V30 1947 H 177.046 -0.0210029 2.1239 0
M  V30 1948 H 179.309 -0.0718733 0.945272 0
M  V30 1949 H 179.015 -0.85269 3.41207 0
M  V30 1950 H 178.889 -2.50103 2.82362 0
M  V30 1951 H 181.276 -2.29664 1.85306 0
M  V30 1952 H 181.357 -0.642492 2.476 0
M  V30 1953 H 181.001 -1.53918 4.84016 0
M  V30 1954 H 180.931 -3.19482 4.18615 0
M  V30 1955 H 183.422 -1.95874 3.23174 0
M  V30 1956 H 183.735 -3.45773 6.9113 0
M  V30 1957 H 182.08 -3.11585 6.21241 0
M  V30 1958 H 185.271 -2.35382 4.04614 0
M  V30 1959 H 185.444 -3.03758 5.72394 0
M  V30 1960 N 178.85 -1.27639 -0.924453 0
M  V30 1961 C 180.098 -1.13941 -1.66918 0
M  V30 1962 C 180.419 0.314589 -1.92446 0
M  V30 1963 O 179.689 1.21964 -1.53303 0
M  V30 1964 H 178.269 -0.418678 -0.618642 0
M  V30 1965 H 180.931 -1.60213 -1.10985 0
M  V30 1966 H 180.027 -1.67094 -2.63602 0
M  V30 1967 N 180.328 1.1314 -1.09713 0
M  V30 1968 C 181.275 2.18642 -0.739196 0
M  V30 1969 C 182.245 1.63706 0.280978 0
M  V30 1970 O 183.43 1.90111 0.161946 0
M  V30 1971 C 180.57 3.44685 -0.169102 0
M  V30 1972 C 179.683 4.13711 -1.24367 0
M  V30 1973 C 178.818 5.27379 -0.636019 0
M  V30 1974 C 177.857 5.88259 -1.69169 0
M  V30 1975 N 176.994 6.93352 -1.10485 0
M  V30 1976 H 181.834 2.48607 -1.64312 0
M  V30 1977 H 179.371 1.22066 -0.820875 0
M  V30 1978 H 181.329 4.16815 0.179256 0
M  V30 1979 H 179.959 3.15161 0.698079 0
M  V30 1980 H 179.011 3.39835 -1.70927 0
M  V30 1981 H 180.323 4.55037 -2.04311 0
M  V30 1982 H 179.477 6.06238 -0.236677 0
M  V30 1983 H 178.216 4.8731 0.194928 0
M  V30 1984 H 177.221 5.08092 -2.10055 0
M  V30 1985 H 178.446 6.30399 -2.52536 0
M  V30 1986 H 176.392 6.55335 -0.295234 0
M  V30 1987 H 176.309 7.33236 -1.84121 0
M  V30 1988 H 177.577 7.76057 -0.73181 0
M  V30 1989 N 181.806 0.884767 1.30421 0
M  V30 1990 C 183.055 0.499164 1.95426 0
M  V30 1991 C 183.368 -0.95645 1.70621 0
M  V30 1992 O 184.574 -1.44889 2.29607 0
M  V30 1993 C 183.03 0.84177 3.49917 0
M  V30 1994 C 182.638 2.31514 3.83543 0
M  V30 1995 C 184.382 0.525355 4.21237 0
M  V30 1996 C 182.289 2.59939 5.31212 0
M  V30 1997 H 181.219 0.182944 0.73147 0
M  V30 1998 H 183.87 1.07971 1.48373 0
M  V30 1999 H 182.252 0.190311 3.95542 0
M  V30 2000 H 183.426 3.0109 3.48829 0
M  V30 2001 H 181.741 2.59907 3.25326 0
M  V30 2002 H 184.338 0.714762 5.29901 0
M  V30 2003 H 184.681 -0.535222 4.12845 0
M  V30 2004 H 185.214 1.134 3.81294 0
M  V30 2005 H 181.953 3.64736 5.44654 0
M  V30 2006 H 181.473 1.94972 5.67227 0
M  V30 2007 H 183.152 2.45429 5.98643 0
M  V30 2008 N 183.284 -1.43765 0.645699 0
M  V30 2009 C 184.231 -2.30745 -0.0504648 0
M  V30 2010 C 185.201 -1.4432 -0.822241 0
M  V30 2011 O 186.386 -1.73202 -0.800358 0
M  V30 2012 C 183.526 -3.29802 -1.0161 0
M  V30 2013 C 182.639 -4.31326 -0.241219 0
M  V30 2014 C 181.774 -5.17469 -1.19998 0
M  V30 2015 C 180.813 -6.10691 -0.415094 0
M  V30 2016 N 179.95 -6.89483 -1.32506 0
M  V30 2017 H 184.79 -2.8973 0.697155 0
M  V30 2018 H 182.327 -1.42738 0.355563 0
M  V30 2019 H 184.285 -3.85734 -1.58949 0
M  V30 2020 H 182.915 -2.72483 -1.73069 0
M  V30 2021 H 181.967 -3.77749 0.448334 0
M  V30 2022 H 183.279 -4.9743 0.369437 0
M  V30 2023 H 182.433 -5.7799 -1.84424 0
M  V30 2024 H 181.172 -4.51473 -1.84455 0
M  V30 2025 H 180.177 -5.49265 0.242565 0
M  V30 2026 H 181.402 -6.78727 0.224966 0
M  V30 2027 H 179.348 -6.26142 -1.95657 0
M  V30 2028 H 179.265 -7.52081 -0.768783 0
M  V30 2029 H 180.533 -7.54516 -1.9577 0
M  V30 2030 N 184.763 -0.387143 -1.52771 0
M  V30 2031 C 185.695 0.484089 -2.2403 0
M  V30 2032 C 186.708 1.02849 -1.26198 0
M  V30 2033 O 187.897 0.931186 -1.52286 0
M  V30 2034 C 184.997 1.68337 -2.94136 0
M  V30 2035 C 184.17 1.26672 -4.18656 0
M  V30 2036 C 183.229 2.33045 -4.7178 0
M  V30 2037 O 182.255 1.94541 -5.34923 0
M  V30 2038 N 183.457 3.64929 -4.5145 0
M  V30 2039 H 186.222 -0.126404 -2.99433 0
M  V30 2040 H 183.783 -0.213392 -1.60488 0
M  V30 2041 H 185.775 2.39019 -3.26577 0
M  V30 2042 H 184.345 2.20025 -2.22053 0
M  V30 2043 H 183.565 0.388878 -3.92277 0
M  V30 2044 H 184.853 0.964964 -4.99566 0
M  V30 2045 H 184.251 3.98974 -4.01044 0
M  V30 2046 H 182.808 4.31651 -4.88386 0
M  V30 2047 N 186.241 1.57166 -0.116904 0
M  V30 2048 C 187.151 2.18745 0.847812 0
M  V30 2049 C 188.167 1.163 1.29423 0
M  V30 2050 O 189.343 1.48761 1.35765 0
M  V30 2051 C 186.408 2.77307 2.0809 0
M  V30 2052 C 185.469 3.94781 1.68661 0
M  V30 2053 C 184.702 4.50541 2.86091 0
M  V30 2054 O 184.925 4.05202 4.01456 0
M  V30 2055 O 183.859 5.41256 2.63298 0
M  V30 2056 H 187.685 3.01632 0.353778 0
M  V30 2057 H 185.27 1.49005 0.108599 0
M  V30 2058 H 187.152 3.14647 2.80313 0
M  V30 2059 H 185.827 1.97452 2.56504 0
M  V30 2060 H 184.734 3.62214 0.935518 0
M  V30 2061 H 186.067 4.76065 1.24991 0
M  V30 2062 N 187.719 -0.156864 1.56817 0
M  V30 2063 C 188.968 -0.869504 1.81996 0
M  V30 2064 C 189.281 -1.82777 0.696545 0
M  V30 2065 O 190.487 -2.58384 0.833658 0
M  V30 2066 C 188.943 -1.59679 3.22538 0
M  V30 2067 C 188.551 -0.681431 4.42787 0
M  V30 2068 C 190.295 -2.2968 3.56997 0
M  V30 2069 C 188.202 -1.40978 5.74351 0
M  V30 2070 H 187.132 -0.328438 0.678708 0
M  V30 2071 H 189.783 -0.1223 1.83092 0
M  V30 2072 H 188.165 -2.38927 3.158 0
M  V30 2073 H 189.339 0.0751166 4.60739 0
M  V30 2074 H 187.654 -0.0903431 4.16302 0
M  V30 2075 H 190.251 -2.84794 4.52544 0
M  V30 2076 H 190.594 -3.05707 2.82576 0
M  V30 2077 H 191.127 -1.57361 3.65352 0
M  V30 2078 H 187.866 -0.691561 6.51842 0
M  V30 2079 H 187.386 -2.13929 5.60352 0
M  V30 2080 H 189.065 -1.95337 6.16808 0
M  V30 2081 N 189.197 -1.51736 -0.425897 0
M  V30 2082 C 190.444 -1.6497 -1.17436 0
M  V30 2083 C 190.772 -0.371445 -1.9092 0
M  V30 2084 O 190.027 0.644963 -1.84767 0
M  V30 2085 C 190.326 -2.81103 -2.20717 0
M  V30 2086 C 189.992 -4.19954 -1.64162 0
M  V30 2087 C 188.654 -4.57725 -1.48462 0
M  V30 2088 C 191.006 -5.06552 -1.22696 0
M  V30 2089 C 188.334 -5.79789 -0.897873 0
M  V30 2090 C 190.686 -6.29205 -0.654464 0
M  V30 2091 C 189.35 -6.6574 -0.484456 0
M  V30 2092 H 188.62 -0.603668 -0.429727 0
M  V30 2093 H 191.267 -1.85798 -0.463829 0
M  V30 2094 H 189.572 -2.54542 -2.97852 0
M  V30 2095 H 191.269 -2.8854 -2.78471 0
M  V30 2096 H 187.859 -3.90181 -1.77361 0
M  V30 2097 H 192.043 -4.77968 -1.33642 0
M  V30 2098 H 187.299 -6.06733 -0.75402 0
M  V30 2099 H 191.473 -6.95643 -0.324694 0
M  V30 2100 H 189.1 -7.60195 -0.0276833 0
M  V30 2101 N 190.675 0.682077 -1.42076 0
M  V30 2102 C 192.091 0.994324 -1.24841 0
M  V30 2103 C 192.291 2.0096 -0.147389 0
M  V30 2104 O 191.347 2.47822 0.483782 0
M  V30 2105 C 192.66 1.50607 -2.60265 0
M  V30 2106 C 194.208 1.62421 -2.6756 0
M  V30 2107 C 194.683 2.16994 -4.03333 0
M  V30 2108 N 196.174 2.24337 -4.0525 0
M  V30 2109 C 196.909 2.67621 -5.07116 0
M  V30 2110 N 196.405 3.1041 -6.19368 0
M  V30 2111 N 198.198 2.67305 -4.94474 0
M  V30 2112 H 190.349 0.00973908 -2.12398 0
M  V30 2113 H 192.612 0.0668593 -0.945639 0
M  V30 2114 H 192.318 0.834583 -3.41654 0
M  V30 2115 H 192.192 2.48602 -2.83684 0
M  V30 2116 H 194.579 2.28678 -1.86521 0
M  V30 2117 H 194.66 0.629352 -2.47937 0
M  V30 2118 H 194.304 1.51349 -4.84826 0
M  V30 2119 H 194.234 3.17258 -4.20304 0
M  V30 2120 H 196.725 1.94158 -3.24209 0
M  V30 2121 H 197.038 3.42103 -6.92954 0
M  V30 2122 H 195.383 3.08286 -6.22884 0
M  V30 2123 H 198.574 2.33233 -4.05857 0
M  V30 2124 H 198.747 3.00718 -5.73997 0
M  V30 2125 N 192.153 1.28127 0.917671 0
M  V30 2126 C 193.381 1.17892 1.70026 0
M  V30 2127 C 193.796 -0.262958 1.8696 0
M  V30 2128 O 193.153 -1.17811 1.3938 0
M  V30 2129 C 193.204 1.86872 3.09453 0
M  V30 2130 O 192.925 3.25428 2.93306 0
M  V30 2131 C 194.426 1.8289 4.03815 0
M  V30 2132 H 191.646 0.40942 0.531617 0
M  V30 2133 H 194.19 1.69181 1.14883 0
M  V30 2134 H 192.345 1.39464 3.61426 0
M  V30 2135 H 192.759 3.59918 3.81523 0
M  V30 2136 H 194.233 2.35751 4.99125 0
M  V30 2137 H 194.71 0.800412 4.31845 0
M  V30 2138 H 195.316 2.29959 3.57769 0
M  V30 2139 N 193.631 -1.12557 1.10312 0
M  V30 2140 C 194.88 -1.83395 0.839588 0
M  V30 2141 C 195.193 -1.84939 -0.636929 0
M  V30 2142 O 196.399 -2.51761 -1.01631 0
M  V30 2143 C 194.855 -3.29303 1.45215 0
M  V30 2144 C 194.463 -3.36122 2.96186 0
M  V30 2145 C 196.207 -4.05121 1.26796 0
M  V30 2146 C 194.114 -4.76357 3.50483 0
M  V30 2147 H 193.044 -0.687133 0.310425 0
M  V30 2148 H 195.695 -1.26746 1.32694 0
M  V30 2149 H 194.077 -3.85812 0.892469 0
M  V30 2150 H 195.251 -2.89559 3.58458 0
M  V30 2151 H 193.566 -2.73776 3.13745 0
M  V30 2152 H 196.163 -5.08668 1.64806 0
M  V30 2153 H 196.506 -4.15773 0.209409 0
M  V30 2154 H 197.039 -3.54967 1.79563 0
M  V30 2155 H 193.778 -4.70899 4.55998 0
M  V30 2156 H 193.298 -5.23377 2.92978 0
M  V30 2157 H 194.977 -5.45294 3.48228 0
M  V30 2158 N 195.109 -0.891671 -1.2995 0
M  V30 2159 C 196.056 -0.361736 -2.27948 0
M  V30 2160 C 197.026 0.551761 -1.56668 0
M  V30 2161 O 198.211 0.478736 -1.84696 0
M  V30 2162 C 195.351 0.411825 -3.42634 0
M  V30 2163 C 194.464 -0.531651 -4.28716 0
M  V30 2164 C 193.599 0.258167 -5.30572 0
M  V30 2165 C 192.638 -0.680349 -6.08307 0
M  V30 2166 N 191.775 0.0745613 -7.0206 0
M  V30 2167 H 196.615 -1.20254 -2.72659 0
M  V30 2168 H 194.152 -0.604352 -1.34112 0
M  V30 2169 H 196.11 0.876304 -4.07893 0
M  V30 2170 H 194.74 1.21715 -2.98974 0
M  V30 2171 H 193.792 -1.11463 -3.63703 0
M  V30 2172 H 195.104 -1.25038 -4.82874 0
M  V30 2173 H 194.258 0.784204 -6.0161 0
M  V30 2174 H 192.997 1.01008 -4.77126 0
M  V30 2175 H 192.002 -1.21796 -5.3614 0
M  V30 2176 H 193.227 -1.43145 -6.63842 0
M  V30 2177 H 191.173 0.808883 -6.50994 0
M  V30 2178 H 191.09 -0.584409 -7.53738 0
M  V30 2179 H 192.358 0.581123 -7.77331 0
M  V30 2180 N 196.587 1.43421 -0.653314 0
M  V30 2181 C 197.497 2.34568 0.0388565 0
M  V30 2182 C 198.513 1.53888 0.81207 0
M  V30 2183 O 199.689 1.86539 0.759294 0
M  V30 2184 C 196.754 3.32167 0.993269 0
M  V30 2185 C 195.815 4.28751 0.216977 0
M  V30 2186 C 195.048 5.21688 1.12593 0
M  V30 2187 O 195.271 5.19052 2.36519 0
M  V30 2188 O 194.205 5.98919 0.598284 0
M  V30 2189 H 198.031 2.95251 -0.711386 0
M  V30 2190 H 195.616 1.43564 -0.413502 0
M  V30 2191 H 197.498 3.92183 1.54176 0
M  V30 2192 H 196.173 2.73987 1.72374 0
M  V30 2193 H 195.08 3.72215 -0.375101 0
M  V30 2194 H 196.413 4.89913 -0.473924 0
M  V30 2195 N 198.065 0.39524 1.52563 0
M  V30 2196 C 199.481 0.0454682 1.59535 0
M  V30 2197 C 199.681 -1.44056 1.4089 0
M  V30 2198 O 198.737 -2.20579 1.22888 0
M  V30 2199 C 200.05 0.527963 2.96029 0
M  V30 2200 C 201.598 0.484733 3.09224 0
M  V30 2201 C 202.073 0.943512 4.48176 0
M  V30 2202 N 203.564 0.899765 4.54377 0
M  V30 2203 C 204.299 1.22609 5.60138 0
M  V30 2204 N 203.795 1.62319 6.73516 0
M  V30 2205 N 205.588 1.14696 5.50274 0
M  V30 2206 H 197.739 1.36261 1.62931 0
M  V30 2207 H 200.002 0.558887 0.765735 0
M  V30 2208 H 199.708 1.56607 3.14908 0
M  V30 2209 H 199.582 -0.0698056 3.77135 0
M  V30 2210 H 201.969 -0.544298 2.90037 0
M  V30 2211 H 202.05 1.11838 2.30056 0
M  V30 2212 H 201.694 1.9708 4.68104 0
M  V30 2213 H 201.624 0.286817 5.25818 0
M  V30 2214 H 204.115 0.607632 3.72983 0
M  V30 2215 H 204.428 1.85567 7.5019 0
M  V30 2216 H 202.773 1.66211 6.74833 0
M  V30 2217 H 205.964 0.835701 4.6058 0
M  V30 2218 H 206.137 1.40459 6.32594 0
M  V30 2219 N 199.544 -1.57102 0.125237 0
M  V30 2220 C 200.474 -2.18659 -0.819174 0
M  V30 2221 C 201.455 -1.12843 -1.27281 0
M  V30 2222 O 202.64 -1.41104 -1.33429 0
M  V30 2223 C 199.77 -2.79096 -2.06695 0
M  V30 2224 C 198.724 -3.90548 -1.75088 0
M  V30 2225 C 198.05 -4.37821 -3.06948 0
M  V30 2226 C 199.35 -5.12356 -1.01435 0
M  V30 2227 H 201.044 -2.9783 -0.306202 0
M  V30 2228 H 198.59 -1.4326 -0.145839 0
M  V30 2229 H 200.543 -3.2082 -2.73226 0
M  V30 2230 H 199.267 -1.97223 -2.60328 0
M  V30 2231 H 197.926 -3.49409 -1.10944 0
M  V30 2232 H 197.574 -3.52799 -3.58527 0
M  V30 2233 H 197.274 -5.12982 -2.86571 0
M  V30 2234 H 198.798 -4.822 -3.74587 0
M  V30 2235 H 200.212 -5.5106 -1.58132 0
M  V30 2236 H 198.609 -5.9314 -0.911319 0
M  V30 2237 H 199.679 -4.849 -0.00218681 0
M  V30 2238 N 201.022 0.148545 -1.56898 0
M  V30 2239 C 201.954 1.20852 -1.9475 0
M  V30 2240 C 202.967 1.39265 -0.843152 0
M  V30 2241 O 204.156 1.38864 -1.12156 0
M  V30 2242 C 201.256 2.57362 -2.20495 0
M  V30 2243 C 200.429 2.59947 -3.51776 0
M  V30 2244 C 199.488 3.77984 -3.6608 0
M  V30 2245 O 198.514 3.62929 -4.38487 0
M  V30 2246 N 199.716 4.95375 -3.02629 0
M  V30 2247 H 202.481 0.886804 -2.86279 0
M  V30 2248 H 200.042 0.338121 -1.5833 0
M  V30 2249 H 202.034 3.34833 -2.27307 0
M  V30 2250 H 200.604 2.81832 -1.35238 0
M  V30 2251 H 199.824 1.68403 -3.56419 0
M  V30 2252 H 201.112 2.58704 -4.38121 0
M  V30 2253 H 200.51 5.10509 -2.43715 0
M  V30 2254 H 199.067 5.70627 -3.15004 0
M  V30 2255 N 202.5 1.5196 0.417844 0
M  V30 2256 C 203.448 1.75278 1.52907 0
M  V30 2257 C 204.442 0.619611 1.57662 0
M  V30 2258 O 205.648 0.801457 1.61173 0
M  V30 2259 H 202.023 0.554141 0.508362 0
M  V30 2260 H 203.994 2.68389 1.30422 0
M  V30 2261 C 202.743 1.91262 2.90369 0
M  V30 2262 H 202.066 2.77872 2.8745 0
M  V30 2263 H 203.506 2.11581 3.67436 0
M  V30 2264 C 201.965 0.677431 3.30019 0
M  V30 2265 O 202.495 -0.158799 4.01386 0
M  V30 2266 N 200.701 0.515851 2.85985 0
M  V30 2267 H 200.248 1.19744 2.28077 0
M  V30 2268 H 200.206 -0.309315 3.12875 0
M  V30 2269 N 203.978 -0.674533 1.42435 0
M  V30 2270 C 204.926 -1.80934 1.46169 0
M  V30 2271 C 205.92 -1.66006 0.3374 0
M  V30 2272 O 207.126 -1.72611 0.510425 0
M  V30 2273 H 203.501 -0.596594 0.457798 0
M  V30 2274 H 205.472 -1.74903 2.41767 0
M  V30 2275 C 204.221 -3.19088 1.38123 0
M  V30 2276 H 203.544 -3.31203 2.23931 0
M  V30 2277 H 204.984 -3.9851 1.44797 0
M  V30 2278 C 203.443 -3.36763 0.0960517 0
M  V30 2279 O 203.973 -3.92581 -0.851073 0
M  V30 2280 N 202.179 -2.90597 0.0131186 0
M  V30 2281 H 201.726 -2.45359 0.784639 0
M  V30 2282 H 201.684 -3.028 -0.846133 0
M  V30 2283 N 205.456 -1.28612 -0.910864 0
M  V30 2284 C 206.406 -1.09423 -2.00026 0
M  V30 2285 C 207.39 -0.0170079 -1.60891 0
M  V30 2286 O 208.582 -0.237472 -1.754 0
M  V30 2287 C 205.711 -0.76114 -3.34756 0
M  V30 2288 C 204.797 -1.87735 -3.80285 0
M  V30 2289 N 205.188 -3.11938 -3.98156 0
M  V30 2290 C 203.486 -1.76786 -4.09467 0
M  V30 2291 C 204.187 -3.84687 -4.36338 0
M  V30 2292 N 203.163 -3.12555 -4.44759 0
M  V30 2293 H 206.965 -2.03658 -2.11898 0
M  V30 2294 H 204.479 -1.19573 -1.09891 0
M  V30 2295 H 206.476 -0.604743 -4.12491 0
M  V30 2296 H 205.136 0.173403 -3.24237 0
M  V30 2297 H 206.147 -3.47516 -3.83996 0
M  V30 2298 H 202.824 -0.905284 -4.07567 0
M  V30 2299 H 204.214 -4.91518 -4.58104 0
M  V30 2300 N 206.934 1.1197 -1.10907 0
M  V30 2301 C 207.866 2.17592 -0.720175 0
M  V30 2302 C 208.879 1.60938 0.245495 0
M  V30 2303 O 210.068 1.78476 0.0292245 0
M  V30 2304 C 207.168 3.38873 -0.0427917 0
M  V30 2305 C 206.341 4.25006 -1.03388 0
M  V30 2306 C 205.4 5.24774 -0.387075 0
M  V30 2307 O 204.426 5.59631 -1.03934 0
M  V30 2308 N 205.628 5.74208 0.852407 0
M  V30 2309 H 208.393 2.51567 -1.62893 0
M  V30 2310 H 205.954 1.27439 -0.998543 0
M  V30 2311 H 207.946 4.02703 0.401501 0
M  V30 2312 H 206.516 3.03007 0.768456 0
M  V30 2313 H 205.736 3.57716 -1.65629 0
M  V30 2314 H 207.024 4.79397 -1.70458 0
M  V30 2315 H 206.422 5.48062 1.40161 0
M  V30 2316 H 204.979 6.39901 1.23977 0
M  V30 2317 N 208.412 0.89855 1.29475 0
M  V30 2318 C 209.64 0.539261 1.99749 0
M  V30 2319 C 210.055 -0.875716 1.67262 0
M  V30 2320 O 209.412 -1.57786 0.917049 0
M  V30 2321 C 209.463 0.72061 3.54245 0
M  V30 2322 O 209.184 2.07989 3.8558 0
M  V30 2323 C 210.685 0.366118 4.41786 0
M  V30 2324 H 207.905 0.207047 0.638258 0
M  V30 2325 H 210.449 1.20758 1.65039 0
M  V30 2326 H 208.604 0.0994862 3.87272 0
M  V30 2327 H 209.018 2.10841 4.80257 0
M  V30 2328 H 210.492 0.543848 5.49314 0
M  V30 2329 H 210.969 -0.696763 4.33638 0
M  V30 2330 H 211.575 0.964135 4.14228 0
M  V30 2331 N 209.89 -1.43072 0.660911 0
M  V30 2332 C 210.8 -2.34585 -0.0264163 0
M  V30 2333 C 211.816 -1.54316 -0.803898 0
M  V30 2334 O 212.992 -1.86939 -0.749391 0
M  V30 2335 C 210.057 -3.32689 -0.975639 0
M  V30 2336 C 209.118 -4.2886 -0.194236 0
M  V30 2337 C 208.351 -5.22278 -1.09825 0
M  V30 2338 O 208.574 -5.20299 -2.33763 0
M  V30 2339 O 207.508 -5.99228 -0.566513 0
M  V30 2340 H 211.334 -2.94869 0.727034 0
M  V30 2341 H 208.919 -1.43342 0.42111 0
M  V30 2342 H 210.801 -3.92995 -1.52094 0
M  V30 2343 H 209.476 -2.74898 -1.70918 0
M  V30 2344 H 208.383 -3.72011 0.394835 0
M  V30 2345 H 209.716 -4.89655 0.499899 0
M  V30 2346 N 211.368 -0.403325 -1.52352 0
M  V30 2347 C 212.615 0.174347 -2.01748 0
M  V30 2348 C 212.943 1.45636 -1.2892 0
M  V30 2349 O 212.198 1.9193 -0.382258 0
M  V30 2350 C 212.497 0.474665 -3.54234 0
M  V30 2351 C 212.163 -0.717458 -4.45155 0
M  V30 2352 C 210.825 -1.04447 -4.69728 0
M  V30 2353 C 213.177 -1.51432 -4.98716 0
M  V30 2354 C 210.505 -2.16963 -5.45109 0
M  V30 2355 C 212.857 -2.6302 -5.75329 0
M  V30 2356 C 211.521 -2.96213 -5.98175 0
M  V30 2357 H 210.791 0.0637981 -0.738248 0
M  V30 2358 H 213.438 -0.543553 -1.83624 0
M  V30 2359 H 211.743 1.27406 -3.70506 0
M  V30 2360 H 213.44 0.934496 -3.89959 0
M  V30 2361 H 210.03 -0.452596 -4.26204 0
M  V30 2362 H 214.214 -1.27491 -4.79645 0
M  V30 2363 H 209.47 -2.43034 -5.61021 0
M  V30 2364 H 213.644 -3.25158 -6.15829 0
M  V30 2365 H 211.271 -3.83516 -6.56368 0
M  V30 2366 N 212.846 1.57033 -0.133567 0
M  V30 2367 C 213.793 2.16074 0.811208 0
M  V30 2368 C 214.763 1.08979 1.2535 0
M  V30 2369 O 215.948 1.36958 1.32843 0
M  V30 2370 C 213.088 2.77595 2.05024 0
M  V30 2371 C 212.201 3.99042 1.65498 0
M  V30 2372 C 211.336 4.48603 2.84479 0
M  V30 2373 C 210.375 5.62547 2.41262 0
M  V30 2374 N 209.512 6.06787 3.53206 0
M  V30 2375 H 214.352 2.96477 0.300906 0
M  V30 2376 H 211.889 1.46462 0.136822 0
M  V30 2377 H 213.847 3.11402 2.77642 0
M  V30 2378 H 212.477 1.99859 2.53488 0
M  V30 2379 H 211.529 3.71302 0.826981 0
M  V30 2380 H 212.841 4.81629 1.29748 0
M  V30 2381 H 211.995 4.84395 3.65303 0
M  V30 2382 H 210.734 3.64995 3.23465 0
M  V30 2383 H 209.739 5.26345 1.58874 0
M  V30 2384 H 210.964 6.47931 2.03377 0
M  V30 2385 H 208.91 5.26117 3.91838 0
M  V30 2386 H 208.827 6.84266 3.21427 0
M  V30 2387 H 210.095 6.4722 4.34427 0
M  V30 2388 N 214.325 -0.140222 1.56975 0
M  V30 2389 C 215.257 -1.19818 1.95388 0
M  V30 2390 C 216.27 -1.38816 0.850525 0
M  V30 2391 O 217.459 -1.38267 1.12891 0
M  V30 2392 C 214.559 -2.56189 2.21857 0
M  V30 2393 C 213.732 -2.58077 3.5315 0
M  V30 2394 C 212.791 -3.76037 3.6808 0
M  V30 2395 O 211.817 -3.60598 4.40406 0
M  V30 2396 N 213.019 -4.93763 3.05251 0
M  V30 2397 H 215.784 -0.871609 2.86746 0
M  V30 2398 H 213.345 -0.32972 1.58507 0
M  V30 2399 H 215.337 -3.33623 2.2908 0
M  V30 2400 H 213.907 -2.81111 1.36731 0
M  V30 2401 H 213.127 -1.6651 3.57307 0
M  V30 2402 H 214.415 -2.56377 4.39486 0
M  V30 2403 H 213.813 -5.09209 2.46419 0
M  V30 2404 H 212.37 -5.68949 3.18026 0
M  V30 2405 N 215.803 -1.52179 -0.40978 0
M  V30 2406 C 216.766 -1.74853 -1.48186 0
M  V30 2407 C 217.766 -0.618417 -1.48433 0
M  V30 2408 O 218.956 -0.886286 -1.49969 0
M  V30 2409 C 216.088 -1.8303 -2.87598 0
M  V30 2410 H 217.281 -2.70559 -1.29374 0
M  V30 2411 H 214.834 -1.42586 -0.640233 0
M  V30 2412 H 215.569 -0.89236 -3.11781 0
M  V30 2413 H 215.354 -2.65187 -2.88822 0
M  V30 2414 H 216.844 -2.02316 -3.65319 0
M  V30 2415 N 217.281 0.66697 -1.42791 0
M  V30 2416 C 218.211 1.79218 -1.49677 0
M  V30 2417 C 219.192 1.66405 -0.352623 0
M  V30 2418 O 220.377 1.85708 -0.567993 0
M  V30 2419 C 217.507 3.17565 -1.40605 0
M  V30 2420 C 216.461 3.45124 -2.53127 0
M  V30 2421 C 215.787 4.83127 -2.29112 0
M  V30 2422 C 217.087 3.41236 -3.95418 0
M  V30 2423 H 218.781 1.73713 -2.43853 0
M  V30 2424 H 216.327 0.83432 -1.17367 0
M  V30 2425 H 218.28 3.96022 -1.44029 0
M  V30 2426 H 217.004 3.23767 -0.429271 0
M  V30 2427 H 215.663 2.69031 -2.49034 0
M  V30 2428 H 215.311 4.85988 -1.29709 0
M  V30 2429 H 215.011 5.02528 -3.04531 0
M  V30 2430 H 216.535 5.63859 -2.34297 0
M  V30 2431 H 217.949 4.09651 -4.01073 0
M  V30 2432 H 216.346 3.72173 -4.70752 0
M  V30 2433 H 217.416 2.39665 -4.21532 0
M  V30 2434 N 218.759 1.29093 0.90403 0
M  V30 2435 C 219.669 1.15727 2.0407 0
M  V30 2436 C 220.685 0.0815308 1.73809 0
M  V30 2437 O 221.861 0.292749 1.99261 0
M  V30 2438 C 218.926 0.830424 3.36608 0
M  V30 2439 C 217.987 1.98955 3.80415 0
M  V30 2440 C 217.22 1.6782 5.06628 0
M  V30 2441 O 217.443 0.597105 5.67266 0
M  V30 2442 O 216.377 2.52486 5.46383 0
M  V30 2443 H 220.203 2.11171 2.18267 0
M  V30 2444 H 217.788 1.08504 1.027 0
M  V30 2445 H 219.67 0.662521 4.16159 0
M  V30 2446 H 218.345 -0.0942678 3.23563 0
M  V30 2447 H 217.252 2.21267 3.01648 0
M  V30 2448 H 218.585 2.89529 3.98037 0
M  V30 2449 N 220.237 -1.11381 1.11499 0
M  V30 2450 C 221.147 -2.21019 0.786628 0
M  V30 2451 C 222.163 -1.72597 -0.220507 0
M  V30 2452 O 223.339 -2.01321 -0.0565251 0
M  V30 2453 C 220.404 -3.459 0.235333 0
M  V30 2454 C 219.465 -4.09107 1.30115 0
M  V30 2455 C 218.698 -5.28027 0.776068 0
M  V30 2456 O 218.921 -5.6904 -0.393661 0
M  V30 2457 O 217.855 -5.81835 1.54114 0
M  V30 2458 H 221.681 -2.51521 1.70209 0
M  V30 2459 H 219.266 -1.19928 0.890928 0
M  V30 2460 H 221.148 -4.21346 -0.067715 0
M  V30 2461 H 219.823 -3.17049 -0.652828 0
M  V30 2462 H 218.73 -3.35391 1.65722 0
M  V30 2463 H 220.063 -4.42139 2.16273 0
M  V30 2464 N 221.715 -0.905404 -1.28997 0
M  V30 2465 C 222.964 -0.530191 -1.94607 0
M  V30 2466 C 223.277 0.929185 -1.72121 0
M  V30 2467 O 224.483 1.41218 -2.31883 0
M  V30 2468 C 222.939 -0.897333 -3.48534 0
M  V30 2469 C 222.547 -2.37587 -3.79811 0
M  V30 2470 C 224.291 -0.592304 -4.20347 0
M  V30 2471 C 222.198 -2.68357 -5.27009 0
M  V30 2472 H 221.128 -0.194558 -0.728466 0
M  V30 2473 H 223.779 -1.10318 -1.46636 0
M  V30 2474 H 222.161 -0.253214 -3.9519 0
M  V30 2475 H 223.335 -3.06602 -3.43994 0
M  V30 2476 H 221.65 -2.6505 -3.2115 0
M  V30 2477 H 224.247 -0.798975 -5.28697 0
M  V30 2478 H 224.59 0.469474 -4.13644 0
M  V30 2479 H 225.123 -1.19452 -3.79442 0
M  V30 2480 H 221.862 -3.73355 -5.38782 0
M  V30 2481 H 221.382 -2.03971 -5.64053 0
M  V30 2482 H 223.061 -2.54922 -5.94663 0
M  V30 2483 N 223.193 1.4272 -0.668489 0
M  V30 2484 C 224.14 2.30796 0.0137489 0
M  V30 2485 C 225.11 1.4561 0.799177 0
M  V30 2486 O 226.295 1.74453 0.772702 0
M  V30 2487 C 223.435 3.31377 0.963507 0
M  V30 2488 C 222.548 4.31655 0.172569 0
M  V30 2489 C 221.683 5.19312 1.1175 0
M  V30 2490 C 220.722 6.11274 0.317886 0
M  V30 2491 N 219.859 6.91504 1.2152 0
M  V30 2492 H 224.699 2.88585 -0.743161 0
M  V30 2493 H 222.236 1.42154 -0.378226 0
M  V30 2494 H 224.194 3.88214 1.52792 0
M  V30 2495 H 222.824 2.75202 1.68712 0
M  V30 2496 H 221.876 3.76988 -0.508374 0
M  V30 2497 H 223.188 4.96779 -0.448527 0
M  V30 2498 H 222.342 5.80851 1.75206 0
M  V30 2499 H 221.081 4.5435 1.77249 0
M  V30 2500 H 220.086 5.48809 -0.329918 0
M  V30 2501 H 221.311 6.78283 -0.332917 0
M  V30 2502 H 219.257 6.29176 1.85671 0
M  V30 2503 H 219.174 7.53209 0.649036 0
M  V30 2504 H 220.442 7.57535 1.83742 0
M  V30 2505 N 224.671 0.411399 1.52136 0
M  V30 2506 C 225.618 -0.412975 2.27075 0
M  V30 2507 C 226.588 -1.03912 1.29582 0
M  V30 2508 O 227.773 -1.06296 1.58448 0
M  V30 2509 C 224.913 -1.52247 3.09701 0
M  V30 2510 C 224.026 -0.917021 4.22155 0
M  V30 2511 C 223.161 -1.9994 4.92135 0
M  V30 2512 C 222.2 -1.37101 5.96548 0
M  V30 2513 N 221.337 -2.39364 6.60038 0
M  V30 2514 H 226.177 0.232499 2.97092 0
M  V30 2515 H 223.714 0.126496 1.46555 0
M  V30 2516 H 225.672 -2.17674 3.55913 0
M  V30 2517 H 224.302 -2.13794 2.41851 0
M  V30 2518 H 223.354 -0.151742 3.80097 0
M  V30 2519 H 224.666 -0.418006 4.97045 0
M  V30 2520 H 223.82 -2.73088 5.41763 0
M  V30 2521 H 222.559 -2.53208 4.16818 0
M  V30 2522 H 221.564 -0.624873 5.46237 0
M  V30 2523 H 222.789 -0.845998 6.7381 0
M  V30 2524 H 220.735 -2.91759 5.87548 0
M  V30 2525 H 220.652 -1.9428 7.3061 0
M  V30 2526 H 221.92 -3.12074 7.14304 0
M  V30 2527 N 226.149 -1.5696 0.141893 0
M  V30 2528 C 227.398 -1.95135 -0.510427 0
M  V30 2529 C 227.711 -1.02896 -1.66348 0
M  V30 2530 O 228.917 -1.30629 -2.38009 0
M  V30 2531 C 227.373 -3.46876 -0.959427 0
M  V30 2532 C 226.981 -4.47691 0.166419 0
M  V30 2533 C 228.725 -3.93927 -1.58183 0
M  V30 2534 C 226.632 -5.90636 -0.300565 0
M  V30 2535 H 225.562 -0.728494 -0.194454 0
M  V30 2536 H 228.213 -1.8211 0.22542 0
M  V30 2537 H 226.595 -3.55215 -1.75038 0
M  V30 2538 H 227.769 -4.51043 0.94325 0
M  V30 2539 H 226.084 -4.10527 0.696905 0
M  V30 2540 H 228.681 -4.98158 -1.94275 0
M  V30 2541 H 229.024 -3.3519 -2.46888 0
M  V30 2542 H 229.557 -3.88484 -0.855863 0
M  V30 2543 H 226.296 -6.5318 0.550989 0
M  V30 2544 H 225.816 -5.90655 -1.04338 0
M  V30 2545 H 227.495 -6.42588 -0.754265 0
M  V30 2546 N 227.627 0.131896 -1.57047 0
M  V30 2547 C 228.59 1.14638 -1.98471 0
M  V30 2548 C 229.59 1.35029 -0.873148 0
M  V30 2549 O 230.78 1.31764 -1.13946 0
M  V30 2550 C 227.912 2.50358 -2.31373 0
M  V30 2551 H 229.105 0.79064 -2.8929 0
M  V30 2552 H 226.658 0.375761 -1.51716 0
M  V30 2553 H 227.393 2.90876 -1.43393 0
M  V30 2554 H 227.178 2.36915 -3.12432 0
M  V30 2555 H 228.668 3.23395 -2.64207 0
M  V30 2556 N 229.106 1.52395 0.401703 0
M  V30 2557 C 230.039 1.70999 1.51111 0
M  V30 2558 C 231.017 0.55765 1.52738 0
M  V30 2559 O 232.201 0.785912 1.71335 0
M  V30 2560 C 229.328 1.75607 2.8962 0
M  V30 2561 C 228.374 2.97227 3.05873 0
M  V30 2562 S 229.207 4.57439 2.78405 0
M  V30 2563 C 230.363 4.64844 4.19131 0
M  V30 2564 H 230.596 2.6483 1.35102 0
M  V30 2565 H 228.129 1.42527 0.593762 0
M  V30 2566 H 230.087 1.78947 3.69443 0
M  V30 2567 H 228.748 0.828914 3.02965 0
M  V30 2568 H 227.941 2.96955 4.07227 0
M  V30 2569 H 227.543 2.91813 2.33925 0
M  V30 2570 H 229.835 4.42677 5.12877 0
M  V30 2571 H 230.778 5.66807 4.24424 0
M  V30 2572 H 231.186 3.93804 4.04448 0
M  V30 2573 N 230.584 -0.659388 1.43143 0
M  V30 2574 C 231.831 -1.41935 1.44433 0
M  V30 2575 C 232.159 -1.94387 0.0663522 0
M  V30 2576 O 231.414 -1.72314 -0.927706 0
M  V30 2577 C 231.713 -2.62206 2.42864 0
M  V30 2578 C 231.379 -2.28208 3.88886 0
M  V30 2579 C 230.041 -2.18647 4.28657 0
M  V30 2580 C 232.393 -2.00887 4.8093 0
M  V30 2581 C 229.721 -1.79914 5.58433 0
M  V30 2582 C 232.073 -1.63653 6.11065 0
M  V30 2583 C 230.737 -1.52614 6.49819 0
M  V30 2584 H 230.007 -0.519376 0.528517 0
M  V30 2585 H 232.654 -0.750453 1.76183 0
M  V30 2586 H 230.959 -3.34199 2.04495 0
M  V30 2587 H 232.656 -3.2041 2.41119 0
M  V30 2588 H 229.246 -2.36557 3.57406 0
M  V30 2589 H 233.43 -2.07198 4.5098 0
M  V30 2590 H 228.686 -1.69948 5.87305 0
M  V30 2591 H 232.86 -1.41543 6.81864 0
M  V30 2592 H 230.487 -1.22371 7.50286 0
M  V30 2593 N 232.062 -1.29571 -0.897171 0
M  V30 2594 C 233.478 -1.07637 -1.17841 0
M  V30 2595 C 233.678 0.170713 -2.00776 0
M  V30 2596 O 232.734 0.867768 -2.3712 0
M  V30 2597 C 234.047 -2.3332 -1.8969 0
M  V30 2598 C 235.595 -2.38664 -2.02505 0
M  V30 2599 C 236.07 -3.64157 -2.77765 0
M  V30 2600 N 237.561 -3.64894 -2.85318 0
M  V30 2601 C 238.296 -4.58679 -3.44094 0
M  V30 2602 N 237.792 -5.62799 -4.04017 0
M  V30 2603 N 239.585 -4.46245 -3.41793 0
M  V30 2604 H 231.736 -2.09598 -0.343883 0
M  V30 2605 H 233.999 -0.923333 -0.214848 0
M  V30 2606 H 233.705 -3.24262 -1.36187 0
M  V30 2607 H 233.579 -2.41025 -2.9015 0
M  V30 2608 H 235.966 -1.48208 -2.55183 0
M  V30 2609 H 236.047 -2.34943 -1.01171 0
M  V30 2610 H 235.691 -4.54965 -2.25763 0
M  V30 2611 H 235.621 -3.65137 -3.7945 0
M  V30 2612 H 238.112 -2.89613 -2.42761 0
M  V30 2613 H 238.425 -6.3048 -4.46895 0
M  V30 2614 H 236.77 -5.66605 -4.02472 0
M  V30 2615 H 239.961 -3.64094 -2.94199 0
M  V30 2616 H 240.134 -5.19518 -3.87304 0
M  V30 2617 N 233.54 1.10788 -1.12088 0
M  V30 2618 C 234.47 2.19083 -0.807755 0
M  V30 2619 C 235.451 1.6858 0.226859 0
M  V30 2620 O 236.636 1.93997 0.0888475 0
M  V30 2621 C 233.766 3.46344 -0.257576 0
M  V30 2622 C 232.72 4.101 -1.22483 0
M  V30 2623 C 232.046 5.32016 -0.535052 0
M  V30 2624 C 233.346 4.54236 -2.57811 0
M  V30 2625 H 235.04 2.45534 -1.71328 0
M  V30 2626 H 232.586 1.1801 -0.825205 0
M  V30 2627 H 234.539 4.21392 -0.0262679 0
M  V30 2628 H 233.263 3.19373 0.683278 0
M  V30 2629 H 231.922 3.37054 -1.44189 0
M  V30 2630 H 231.57 5.01319 0.410827 0
M  V30 2631 H 231.27 5.75625 -1.18024 0
M  V30 2632 H 232.794 6.09799 -0.312695 0
M  V30 2633 H 234.208 5.20575 -2.40155 0
M  V30 2634 H 232.605 5.08682 -3.18375 0
M  V30 2635 H 233.675 3.6734 -3.16528 0
M  V30 2636 N 235.018 0.912232 1.28515 0
M  V30 2637 C 235.95 0.35676 2.26406 0
M  V30 2638 C 236.963 -0.503933 1.54804 0
M  V30 2639 O 238.152 -0.319059 1.75625 0
M  V30 2640 C 235.252 -0.508825 3.35058 0
M  V30 2641 C 234.425 0.329007 4.36161 0
M  V30 2642 C 233.484 -0.471422 5.24084 0
M  V30 2643 O 232.51 0.115482 5.69083 0
M  V30 2644 N 233.712 -1.77479 5.52704 0
M  V30 2645 H 236.477 1.19818 2.74707 0
M  V30 2646 H 234.038 0.778022 1.4198 0
M  V30 2647 H 236.03 -1.051 3.90815 0
M  V30 2648 H 234.6 -1.25095 2.86478 0
M  V30 2649 H 233.82 1.05256 3.79888 0
M  V30 2650 H 235.108 0.90234 5.00735 0
M  V30 2651 H 234.506 -2.27417 5.17975 0
M  V30 2652 H 233.063 -2.26382 6.11224 0
M  V30 2653 N 236.496 -1.42363 0.676048 0
M  V30 2654 C 237.406 -2.346 -0.00153389 0
M  V30 2655 C 238.422 -1.5516 -0.787485 0
M  V30 2656 O 239.598 -1.87723 -0.729521 0
M  V30 2657 C 236.663 -3.33705 -0.940298 0
M  V30 2658 C 235.724 -4.29042 -0.148739 0
M  V30 2659 C 234.957 -5.23413 -1.04279 0
M  V30 2660 O 235.18 -5.22749 -2.28232 0
M  V30 2661 O 234.114 -5.99795 -0.502925 0
M  V30 2662 H 237.94 -2.94082 0.758268 0
M  V30 2663 H 235.525 -1.42888 0.436289 0
M  V30 2664 H 237.407 -3.94586 -1.47917 0
M  V30 2665 H 236.082 -2.76695 -1.67993 0
M  V30 2666 H 234.989 -3.71571 0.43427 0
M  V30 2667 H 236.322 -4.89097 0.551805 0
M  V30 2668 N 237.974 -0.419461 -1.51915 0
M  V30 2669 C 239.223 0.154346 -2.01109 0
M  V30 2670 C 239.536 1.45338 -1.30905 0
M  V30 2671 O 240.742 2.10906 -1.7097 0
M  V30 2672 C 239.198 0.325615 -3.58424 0
M  V30 2673 C 238.806 -0.961934 -4.37551 0
M  V30 2674 C 240.55 0.854155 -4.15818 0
M  V30 2675 C 238.457 -0.757287 -5.86531 0
M  V30 2676 H 237.387 0.0614563 -0.751491 0
M  V30 2677 H 240.038 -0.54649 -1.75173 0
M  V30 2678 H 238.42 1.08903 -3.80731 0
M  V30 2679 H 239.594 -1.7323 -4.26999 0
M  V30 2680 H 237.909 -1.41766 -3.91524 0
M  V30 2681 H 240.506 1.02346 -5.24814 0
M  V30 2682 H 240.849 1.83172 -3.73837 0
M  V30 2683 H 241.382 0.149528 -3.97519 0
M  V30 2684 H 238.121 -1.70671 -6.32892 0
M  V30 2685 H 237.641 -0.0264061 -5.99794 0
M  V30 2686 H 239.32 -0.403482 -6.45741 0
M  V30 2687 N 239.452 1.56882 -0.150215 0
M  V30 2688 C 240.699 1.96228 0.500093 0
M  V30 2689 C 241.027 1.03522 1.64661 0
M  V30 2690 O 240.282 0.0650683 1.95592 0
M  V30 2691 C 240.581 3.41801 1.04437 0
M  V30 2692 C 240.247 4.50897 0.0159671 0
M  V30 2693 C 238.909 4.8046 -0.266731 0
M  V30 2694 C 241.261 5.16703 -0.683192 0
M  V30 2695 C 238.589 5.73135 -1.25434 0
M  V30 2696 C 240.941 6.10441 -1.65964 0
M  V30 2697 C 239.605 6.38382 -1.95 0
M  V30 2698 H 238.875 0.718048 0.182997 0
M  V30 2699 H 241.522 1.90019 -0.237724 0
M  V30 2700 H 239.827 3.44857 1.85959 0
M  V30 2701 H 241.524 3.69573 1.55618 0
M  V30 2702 H 238.114 4.27891 0.246485 0
M  V30 2703 H 242.298 4.93993 -0.477983 0
M  V30 2704 H 237.554 5.93074 -1.48571 0
M  V30 2705 H 241.728 6.60507 -2.20689 0
M  V30 2706 H 239.355 7.09996 -2.71679 0
M  V30 2707 N 240.93 -0.123565 1.57115 0
M  V30 2708 C 242.346 -0.476961 1.52306 0
M  V30 2709 C 242.546 -1.82109 0.86248 0
M  V30 2710 O 241.602 -2.48586 0.442884 0
M  V30 2711 C 242.915 -0.465661 2.97073 0
M  V30 2712 C 244.463 -0.549534 3.08138 0
M  V30 2713 C 244.938 -0.568669 4.54456 0
M  V30 2714 N 246.429 -0.630237 4.58892 0
M  V30 2715 C 247.164 -0.666415 5.69514 0
M  V30 2716 N 246.66 -0.660514 6.89644 0
M  V30 2717 N 248.453 -0.709077 5.5761 0
M  V30 2718 H 240.604 0.757198 1.98445 0
M  V30 2719 H 242.867 0.278808 0.906074 0
M  V30 2720 H 242.573 0.454232 3.48754 0
M  V30 2721 H 242.447 -1.29513 3.54269 0
M  V30 2722 H 244.834 -1.45985 2.56461 0
M  V30 2723 H 244.915 0.307532 2.53945 0
M  V30 2724 H 244.559 0.337581 5.06777 0
M  V30 2725 H 244.489 -1.44256 5.06456 0
M  V30 2726 H 246.98 -0.641146 3.72421 0
M  V30 2727 H 247.293 -0.690616 7.69708 0
M  V30 2728 H 245.638 -0.628012 6.92157 0
M  V30 2729 H 248.829 -0.711019 4.62668 0
M  V30 2730 H 249.002 -0.733804 6.43832 0
M  V30 2731 N 242.408 -1.52605 -0.393616 0
M  V30 2732 C 243.318 -1.79971 -1.50492 0
M  V30 2733 C 244.334 -0.686181 -1.59899 0
M  V30 2734 O 245.51 -0.973274 -1.76322 0
M  V30 2735 C 242.575 -1.95867 -2.86072 0
M  V30 2736 C 241.636 -3.19781 -2.86424 0
M  V30 2737 C 240.869 -3.34909 -4.15538 0
M  V30 2738 O 241.092 -2.54948 -5.10253 0
M  V30 2739 O 240.026 -4.28141 -4.23059 0
M  V30 2740 H 243.852 -2.74328 -1.30299 0
M  V30 2741 H 241.437 -1.3764 -0.581005 0
M  V30 2742 H 243.319 -2.08056 -3.66457 0
M  V30 2743 H 241.994 -1.04699 -3.063 0
M  V30 2744 H 240.901 -3.13038 -2.04837 0
M  V30 2745 H 242.234 -4.1078 -2.71147 0
M  V30 2746 N 243.887 0.651787 -1.4349 0
M  V30 2747 C 245.135 1.40888 -1.44897 0
M  V30 2748 C 245.456 1.94856 -0.0749086 0
M  V30 2749 O 244.726 1.74518 0.889956 0
M  V30 2750 H 243.306 0.522887 -0.533478 0
M  V30 2751 H 245.968 0.768609 -1.79104 0
M  V30 2752 H 245.064 2.25052 -2.16236 0
M  V30 2753 N 245.365 1.30045 0.890287 0
M  V30 2754 C 246.275 1.17885 2.02831 0
M  V30 2755 C 247.291 0.0999609 1.73713 0
M  V30 2756 O 248.467 0.313867 1.98939 0
M  V30 2757 C 245.532 0.866079 3.35708 0
M  V30 2758 C 244.593 2.02979 3.78283 0
M  V30 2759 C 243.826 1.73184 5.0482 0
M  V30 2760 O 244.049 0.657237 5.66601 0
M  V30 2761 O 242.983 2.58267 5.43674 0
M  V30 2762 H 246.809 2.13474 2.16015 0
M  V30 2763 H 244.394 1.09587 1.01543 0
M  V30 2764 H 246.276 0.706623 4.15433 0
M  V30 2765 H 244.951 -0.0599443 3.23644 0
M  V30 2766 H 243.858 2.24454 2.99285 0
M  V30 2767 H 245.191 2.93734 3.94944 0
M  V30 2768 N 246.843 -1.10192 1.12674 0
M  V30 2769 C 247.791 -2.18694 0.792196 0
M  V30 2770 C 248.785 -1.67938 -0.222058 0
M  V30 2771 O 249.991 -1.79822 -0.0800074 0
M  V30 2772 H 246.366 -0.713223 0.238364 0
M  V30 2773 H 248.337 -2.44149 1.71564 0
M  V30 2774 C 247.086 -3.46682 0.265859 0
M  V30 2775 H 246.409 -3.86101 1.03761 0
M  V30 2776 H 247.849 -4.23942 0.0701128 0
M  V30 2777 C 246.308 -3.21506 -1.00675 0
M  V30 2778 O 246.838 -3.43408 -2.08408 0
M  V30 2779 N 245.044 -2.75158 -0.934692 0
M  V30 2780 H 244.591 -2.57535 -0.0578604 0
M  V30 2781 H 244.549 -2.58691 -1.7868 0
M  V30 2782 N 248.321 -0.919034 -1.28029 0
M  V30 2783 C 249.269 -0.401753 -2.29104 0
M  V30 2784 C 250.263 0.509354 -1.61561 0
M  V30 2785 O 251.469 0.390014 -1.75724 0
M  V30 2786 H 247.844 -0.111331 -0.743713 0
M  V30 2787 H 249.815 -1.2672 -2.70156 0
M  V30 2788 C 248.564 0.338148 -3.46052 0
M  V30 2789 H 247.887 -0.353732 -3.98232 0
M  V30 2790 H 249.327 0.664653 -4.18758 0
M  V30 2791 C 247.786 1.54798 -2.99231 0
M  V30 2792 O 248.316 2.64696 -3.02157 0
M  V30 2793 N 246.522 1.3968 -2.54829 0
M  V30 2794 H 246.069 0.502698 -2.52647 0
M  V30 2795 H 246.027 2.20755 -2.23863 0
M  V30 2796 N 249.799 1.42003 -0.683588 0
M  V30 2797 C 251.024 2.06265 -0.216647 0
M  V30 2798 C 251.449 1.51059 1.12083 0
M  V30 2799 O 250.807 0.632638 1.69904 0
M  V30 2800 C 250.855 3.60191 -0.171759 0
M  V30 2801 O 249.959 4.03396 0.857069 0
M  V30 2802 H 249.3 0.65502 -0.108834 0
M  V30 2803 H 251.83 1.81982 -0.935077 0
M  V30 2804 H 251.84 4.08 0.0014303 0
M  V30 2805 H 250.515 3.99743 -1.14796 0
M  V30 2806 H 249.092 3.67117 0.654208 0
M  V30 2807 N 251.277 0.427512 1.51691 0
M  V30 2808 C 252.21 -0.433876 2.24037 0
M  V30 2809 C 253.188 -1.03287 1.25581 0
M  V30 2810 O 254.372 -1.07722 1.54688 0
M  V30 2811 C 251.499 -1.60385 2.98319 0
M  V30 2812 C 250.545 -1.12648 4.11355 0
M  V30 2813 S 251.378 -0.076543 5.35445 0
M  V30 2814 C 252.534 -1.25141 6.13262 0
M  V30 2815 H 252.767 0.180367 2.96752 0
M  V30 2816 H 250.3 0.211946 1.52938 0
M  V30 2817 H 252.258 -2.27462 3.41718 0
M  V30 2818 H 250.919 -2.18948 2.25213 0
M  V30 2819 H 250.112 -2.0011 4.62571 0
M  V30 2820 H 249.714 -0.534088 3.70167 0
M  V30 2821 H 252.006 -2.17162 6.41753 0
M  V30 2822 H 252.949 -0.779411 7.03797 0
M  V30 2823 H 253.357 -1.48553 5.44603 0
M  V30 2824 N 252.755 -1.56801 0.158532 0
M  V30 2825 C 253.983 -2.00859 -0.496303 0
M  V30 2826 C 254.398 -1.03871 -1.57659 0
M  V30 2827 O 253.755 -0.0375165 -1.82461 0
M  V30 2828 C 253.806 -3.4479 -1.08638 0
M  V30 2829 O 253.527 -4.38072 -0.0492322 0
M  V30 2830 C 255.028 -4.04185 -1.8207 0
M  V30 2831 H 252.248 -0.65864 -0.128199 0
M  V30 2832 H 254.792 -2.02885 0.256506 0
M  V30 2833 H 252.947 -3.43579 -1.78975 0
M  V30 2834 H 253.361 -5.2227 -0.483102 0
M  V30 2835 H 254.835 -5.06857 -2.18633 0
M  V30 2836 H 255.312 -3.45549 -2.71095 0
M  V30 2837 H 255.918 -4.0906 -1.16405 0
M  V30 2838 N 254.233 0.115231 -1.57178 0
M  V30 2839 C 255.18 1.14115 -2.00615 0
M  V30 2840 C 256.15 1.40939 -0.878941 0
M  V30 2841 O 257.335 1.52741 -1.14345 0
M  V30 2842 C 254.475 2.46156 -2.4187 0
M  V30 2843 C 253.588 2.26236 -3.68024 0
M  V30 2844 C 252.723 3.51534 -3.98243 0
M  V30 2845 C 251.762 3.26787 -5.17568 0
M  V30 2846 N 250.899 4.44298 -5.43639 0
M  V30 2847 H 255.739 0.763743 -2.88047 0
M  V30 2848 H 253.276 0.365615 -1.42484 0
M  V30 2849 H 255.234 3.23189 -2.63827 0
M  V30 2850 H 253.864 2.81783 -1.57475 0
M  V30 2851 H 252.916 1.40102 -3.5366 0
M  V30 2852 H 254.228 2.03929 -4.55208 0
M  V30 2853 H 253.382 4.36984 -4.20868 0
M  V30 2854 H 252.121 3.76876 -3.09541 0
M  V30 2855 H 251.126 2.39729 -4.94783 0
M  V30 2856 H 252.351 3.02812 -6.0785 0
M  V30 2857 H 250.297 4.69754 -4.57895 0
M  V30 2858 H 250.214 4.25109 -6.25154 0
M  V30 2859 H 251.482 5.3087 -5.70786 0
M  V30 2860 N 255.711 1.52812 0.385517 0
M  V30 2861 C 256.661 1.74219 1.47078 0
M  V30 2862 C 257.645 0.59632 1.49442 0
M  V30 2863 O 258.837 0.85428 1.5502 0
M  V30 2864 C 255.966 1.9176 2.84751 0
M  V30 2865 C 255.052 3.12289 2.86943 0
M  V30 2866 N 255.443 4.34575 2.58802 0
M  V30 2867 C 253.741 3.12605 3.1811 0
M  V30 2868 C 254.442 5.162 2.68166 0
M  V30 2869 N 253.418 4.51964 3.02043 0
M  V30 2870 H 257.22 2.6639 1.24152 0
M  V30 2871 H 254.734 1.51166 0.593504 0
M  V30 2872 H 256.731 2.05218 3.62893 0
M  V30 2873 H 255.391 1.00805 3.08656 0
M  V30 2874 H 256.402 4.62649 2.32759 0
M  V30 2875 H 253.079 2.31472 3.47458 0
M  V30 2876 H 254.469 6.23689 2.49923 0
M  V30 2877 N 257.189 -0.644168 1.43834 0
M  V30 2878 C 258.136 -1.75671 1.49694 0
M  V30 2879 C 259.106 -1.6246 0.345809 0
M  V30 2880 O 260.291 -1.82573 0.554234 0
M  V30 2881 C 257.431 -3.13867 1.43463 0
M  V30 2882 C 256.544 -3.38147 2.6885 0
M  V30 2883 C 255.679 -4.66241 2.54544 0
M  V30 2884 C 254.718 -4.83657 3.75157 0
M  V30 2885 N 253.855 -6.03016 3.59605 0
M  V30 2886 H 258.695 -1.69998 2.44754 0
M  V30 2887 H 256.232 -0.829458 1.21484 0
M  V30 2888 H 258.19 -3.9377 1.37843 0
M  V30 2889 H 256.82 -3.18588 0.519783 0
M  V30 2890 H 255.872 -2.52276 2.84712 0
M  V30 2891 H 257.184 -3.46899 3.58417 0
M  V30 2892 H 256.338 -5.54285 2.46683 0
M  V30 2893 H 255.077 -4.59826 1.62516 0
M  V30 2894 H 254.082 -3.94046 3.83416 0
M  V30 2895 H 255.307 -4.91896 4.68204 0
M  V30 2896 H 253.253 -5.97715 2.7032 0
M  V30 2897 H 253.17 -6.12766 4.42779 0
M  V30 2898 H 254.438 -6.93657 3.55613 0
M  V30 2899 N 258.668 -1.30515 -0.883378 0
M  V30 2900 C 259.578 -1.18959 -2.02203 0
M  V30 2901 C 260.594 -0.109172 -1.73657 0
M  V30 2902 O 261.77 -0.324413 -1.9877 0
M  V30 2903 C 258.835 -0.883871 -3.35244 0
M  V30 2904 C 257.896 -2.04982 -3.77201 0
M  V30 2905 C 257.129 -1.75859 -5.03894 0
M  V30 2906 O 257.352 -0.687276 -5.66244 0
M  V30 2907 O 256.286 -2.61146 -5.42297 0
M  V30 2908 H 260.112 -2.14616 -2.1488 0
M  V30 2909 H 257.697 -1.10124 -1.0096 0
M  V30 2910 H 259.579 -0.728644 -4.15053 0
M  V30 2911 H 258.254 0.0427798 -3.23672 0
M  V30 2912 H 257.161 -2.26038 -2.9809 0
M  V30 2913 H 258.494 -2.95825 -3.93381 0
M  V30 2914 N 260.146 1.09593 -1.13257 0
M  V30 2915 C 261.562 1.33775 -0.870423 0
M  V30 2916 C 261.762 1.95327 0.494926 0
M  V30 2917 O 260.818 2.19853 1.2418 0
M  V30 2918 C 262.131 2.25106 -1.99369 0
M  V30 2919 C 263.679 2.3862 -2.02558 0
M  V30 2920 C 264.154 3.33285 -3.14142 0
M  V30 2921 N 265.645 3.40857 -3.13641 0
M  V30 2922 C 266.38 4.14101 -3.96621 0
M  V30 2923 N 265.876 4.90157 -4.8961 0
M  V30 2924 N 267.669 4.09808 -3.84726 0
M  V30 2925 H 259.82 0.680136 -2.01216 0
M  V30 2926 H 262.083 0.362133 -0.876107 0
M  V30 2927 H 261.789 1.87103 -2.97801 0
M  V30 2928 H 261.663 3.25481 -1.90635 0
M  V30 2929 H 264.05 2.75887 -1.0474 0
M  V30 2930 H 264.131 1.38028 -2.15364 0
M  V30 2931 H 263.775 2.96741 -4.12198 0
M  V30 2932 H 263.705 4.33776 -2.98574 0
M  V30 2933 H 266.196 2.86624 -2.46282 0
M  V30 2934 H 266.509 5.4347 -5.49418 0
M  V30 2935 H 264.854 4.89251 -4.93617 0
M  V30 2936 H 268.045 3.4949 -3.11408 0
M  V30 2937 H 268.218 4.66629 -4.49623 0
M  V30 2938 N 261.624 0.925811 1.2754 0
M  V30 2939 C 262.87 0.566092 1.94739 0
M  V30 2940 C 263.203 -0.890057 1.72603 0
M  V30 2941 O 262.478 -1.63467 1.05399 0
M  V30 2942 C 262.761 0.89054 3.48915 0
M  V30 2943 C 262.614 2.4003 3.80402 0
M  V30 2944 C 263.933 0.395101 4.38323 0
M  V30 2945 H 261.052 0.20714 0.707292 0
M  V30 2946 H 263.694 1.15725 1.50691 0
M  V30 2947 H 261.844 0.387452 3.86563 0
M  V30 2948 H 263.516 2.97494 3.52555 0
M  V30 2949 H 261.759 2.85028 3.2702 0
M  V30 2950 H 262.43 2.57785 4.8811 0
M  V30 2951 H 264.906 0.826241 4.07814 0
M  V30 2952 H 263.782 0.651086 5.45025 0
M  V30 2953 H 264.043 -0.704798 4.36446 0
M  V30 2954 N 263.102 -1.41638 0.69111 0
M  V30 2955 C 264.035 -2.28183 -0.0274913 0
M  V30 2956 C 265.013 -1.41984 -0.792424 0
M  V30 2957 O 266.197 -1.71415 -0.784169 0
M  V30 2958 C 263.324 -3.22135 -1.04628 0
M  V30 2959 C 262.37 -4.24848 -0.375037 0
M  V30 2960 S 263.203 -5.28231 0.879321 0
M  V30 2961 C 264.359 -6.25748 -0.137983 0
M  V30 2962 H 264.592 -2.88782 0.706553 0
M  V30 2963 H 262.125 -1.46709 0.481222 0
M  V30 2964 H 264.083 -3.76797 -1.62894 0
M  V30 2965 H 262.744 -2.6064 -1.75287 0
M  V30 2966 H 261.937 -4.90837 -1.14433 0
M  V30 2967 H 261.539 -3.73758 0.134434 0
M  V30 2968 H 263.831 -6.70188 -0.992659 0
M  V30 2969 H 264.774 -7.06417 0.487867 0
M  V30 2970 H 265.182 -5.62363 -0.490762 0
M  V30 2971 N 264.58 -0.43555 -1.51462 0
M  V30 2972 C 265.81 0.130053 -2.0619 0
M  V30 2973 C 266.218 1.37164 -1.30317 0
M  V30 2974 O 265.561 1.80225 -0.355598 0
M  V30 2975 C 265.623 0.519418 -3.55728 0
M  V30 2976 C 265.287 -0.615119 -4.52841 0
M  V30 2977 C 266.284 -1.48671 -4.9819 0
M  V30 2978 C 263.969 -0.795341 -4.95963 0
M  V30 2979 C 265.963 -2.52324 -5.8533 0
M  V30 2980 C 263.65 -1.83514 -5.82894 0
M  V30 2981 C 264.648 -2.69748 -6.27475 0
M  V30 2982 O 264.336 -3.71944 -7.1268 0
M  V30 2983 H 264.068 0.0121612 -0.675891 0
M  V30 2984 H 266.622 -0.6129 -1.96043 0
M  V30 2985 H 264.852 1.31505 -3.63653 0
M  V30 2986 H 266.541 1.01597 -3.92979 0
M  V30 2987 H 267.307 -1.359 -4.65571 0
M  V30 2988 H 263.186 -0.133713 -4.60806 0
M  V30 2989 H 266.73 -3.19665 -6.20048 0
M  V30 2990 H 262.627 -1.96306 -6.14926 0
M  V30 2991 H 263.395 -3.68503 -7.30854 0
M  V30 2992 N 266.058 1.56714 -0.166846 0
M  V30 2993 C 267.288 2.00828 0.48494 0
M  V30 2994 C 267.696 1.04612 1.57648 0
M  V30 2995 O 267.039 0.0383201 1.8366 0
M  V30 2996 C 267.101 3.4137 1.12723 0
M  V30 2997 C 266.765 4.56654 0.177886 0
M  V30 2998 C 267.762 5.16402 -0.60207 0
M  V30 2999 C 265.447 5.02244 0.0750139 0
M  V30 3000 C 267.441 6.20167 -1.47215 0
M  V30 3001 C 265.128 6.05859 -0.798649 0
M  V30 3002 C 266.126 6.64691 -1.57082 0
M  V30 3003 O 265.814 7.66297 -2.42989 0
M  V30 3004 H 265.546 0.663587 0.128953 0
M  V30 3005 H 268.1 2.03692 -0.264365 0
M  V30 3006 H 266.33 3.35406 1.92457 0
M  V30 3007 H 268.019 3.69466 1.68076 0
M  V30 3008 H 268.785 4.82065 -0.53274 0
M  V30 3009 H 264.664 4.56167 0.665812 0
M  V30 3010 H 268.208 6.66016 -2.07531 0
M  V30 3011 H 264.105 6.39621 -0.869199 0
M  V30 3012 H 264.873 7.83601 -2.36455 0
M  V30 3013 N 267.536 -0.106894 1.57237 0
M  V30 3014 C 268.784 -0.810921 1.85117 0
M  V30 3015 C 269.105 -1.7984 0.753827 0
M  V30 3016 O 268.375 -1.94649 -0.221056 0
M  V30 3017 H 266.955 -0.302466 0.683025 0
M  V30 3018 H 269.617 -0.0913324 1.94686 0
M  V30 3019 H 268.713 -1.34875 2.81452 0
M  V30 3020 N 269.014 -1.53014 -0.377408 0
M  V30 3021 C 269.961 -1.78616 -1.46168 0
M  V30 3022 C 270.931 -0.629917 -1.53692 0
M  V30 3023 O 272.116 -0.870861 -1.69766 0
M  V30 3024 C 269.256 -1.97123 -2.8326 0
M  V30 3025 C 268.369 -3.24831 -2.84796 0
M  V30 3026 C 267.504 -3.33591 -4.13389 0
M  V30 3027 C 266.543 -4.55377 -4.09021 0
M  V30 3028 N 265.68 -4.61355 -5.29241 0
M  V30 3029 H 270.52 -2.71142 -1.23637 0
M  V30 3030 H 268.057 -1.34326 -0.599577 0
M  V30 3031 H 270.015 -2.05839 -3.62886 0
M  V30 3032 H 268.645 -1.07946 -3.04216 0
M  V30 3033 H 267.697 -3.25128 -1.97474 0
M  V30 3034 H 269.009 -4.14523 -2.77439 0
M  V30 3035 H 268.163 -3.41554 -5.01424 0
M  V30 3036 H 266.902 -2.41894 -4.23484 0
M  V30 3037 H 265.907 -4.47527 -3.19373 0
M  V30 3038 H 267.132 -5.48402 -4.00539 0
M  V30 3039 H 265.078 -3.72554 -5.39944 0
M  V30 3040 H 264.995 -5.44935 -5.24006 0
M  V30 3041 H 266.263 -4.73586 -6.19141 0
M  V30 3042 N 270.492 0.636531 -1.44174 0
M  V30 3043 C 271.74 1.39343 -1.46383 0
M  V30 3044 C 272.061 1.94766 -0.0955715 0
M  V30 3045 O 271.331 1.75452 0.871395 0
M  V30 3046 H 269.911 0.517199 -0.538994 0
M  V30 3047 H 272.573 0.74957 -1.7991 0
M  V30 3048 H 271.669 2.22746 -2.18611 0
M  V30 3049 N 271.97 1.30982 0.876444 0
M  V30 3050 C 273.247 1.10942 1.61094 0
M  V30 3051 C 273.627 -0.338223 2.08373 0
M  V30 3052 O 272.975 -1.33122 1.85717 0
M  V30 3053 C 273.185 2.11789 2.77392 0
M  V30 3054 C 274.533 2.43965 3.47514 0
M  V30 3055 O 275.557 2.10166 2.87591 0
M  V30 3056 O 274.416 3.01817 4.55597 0
M  V30 3057 H 271.51 0.42667 0.708436 0
M  V30 3058 H 274.056 1.42438 0.922474 0
M  V30 3059 H 272.828 3.09194 2.39823 0
M  V30 3060 H 272.451 1.81161 3.5393 0
M  V30 3061 N 273.449 -1.08991 1.13837 0
M  V30 3062 C 274.695 -1.81526 0.90422 0
M  V30 3063 C 275.028 -1.85706 -0.568066 0
M  V30 3064 O 274.303 -1.32855 -1.42056 0
M  V30 3065 C 274.586 -3.27447 1.49835 0
M  V30 3066 C 274.439 -3.31512 3.04006 0
M  V30 3067 C 275.758 -4.24256 1.17025 0
M  V30 3068 H 272.877 -0.659029 0.329923 0
M  V30 3069 H 275.519 -1.27644 1.40737 0
M  V30 3070 H 273.669 -3.73462 1.07044 0
M  V30 3071 H 275.341 -2.93867 3.55584 0
M  V30 3072 H 273.584 -2.70963 3.38765 0
M  V30 3073 H 274.255 -4.34329 3.40679 0
M  V30 3074 H 276.731 -3.86549 1.54009 0
M  V30 3075 H 275.607 -5.24684 1.61237 0
M  V30 3076 H 275.868 -4.42019 0.0846274 0
M  V30 3077 N 274.927 -0.932562 -1.27047 0
M  V30 3078 C 276.174 -0.575559 -1.94148 0
M  V30 3079 C 276.502 0.883984 -1.73251 0
M  V30 3080 O 275.757 1.64655 -1.0577 0
M  V30 3081 C 276.056 -0.853713 -3.47054 0
M  V30 3082 C 275.722 -2.29577 -3.88079 0
M  V30 3083 C 274.384 -2.68999 -3.9899 0
M  V30 3084 C 276.736 -3.23331 -4.08787 0
M  V30 3085 C 274.064 -4.01289 -4.28 0
M  V30 3086 C 276.416 -4.55207 -4.39282 0
M  V30 3087 C 275.08 -4.94457 -4.48407 0
M  V30 3088 H 274.35 -0.210612 -0.710439 0
M  V30 3089 H 276.997 -1.17744 -1.51025 0
M  V30 3090 H 275.302 -0.169204 -3.91434 0
M  V30 3091 H 276.999 -0.55639 -3.97121 0
M  V30 3092 H 273.589 -1.97994 -3.80127 0
M  V30 3093 H 277.773 -2.94074 -3.99793 0
M  V30 3094 H 273.029 -4.31374 -4.33275 0
M  V30 3095 H 277.203 -5.27852 -4.54252 0
M  V30 3096 H 274.83 -5.96994 -4.7064 0
M  V30 3097 N 276.405 1.4127 -0.698611 0
M  V30 3098 C 277.368 2.29158 -0.044132 0
M  V30 3099 C 278.368 1.44529 0.704841 0
M  V30 3100 O 279.558 1.65643 0.539276 0
M  V30 3101 C 276.69 3.27459 0.947809 0
M  V30 3102 H 277.883 2.88529 -0.817994 0
M  V30 3103 H 275.436 1.49307 -0.46228 0
M  V30 3104 H 276.171 2.73073 1.74933 0
M  V30 3105 H 275.956 3.8991 0.41385 0
M  V30 3106 H 277.446 3.93311 1.40344 0
M  V30 3107 N 277.883 0.443576 1.51229 0
M  V30 3108 C 279.113 -0.119117 2.06256 0
M  V30 3109 C 279.521 -1.36471 1.31043 0
M  V30 3110 O 278.864 -1.80034 0.365151 0
M  V30 3111 C 278.926 -0.500546 3.55998 0
M  V30 3112 C 278.59 0.639125 4.52509 0
M  V30 3113 C 279.587 1.51311 4.97394 0
M  V30 3114 C 277.272 0.821632 4.95535 0
M  V30 3115 C 279.266 2.55425 5.83984 0
M  V30 3116 C 276.953 1.86603 5.81913 0
M  V30 3117 C 277.951 2.73072 6.26036 0
M  V30 3118 O 277.639 3.75718 7.10698 0
M  V30 3119 H 277.371 -0.00857665 0.675946 0
M  V30 3120 H 279.925 0.623288 1.95715 0
M  V30 3121 H 278.155 -1.29575 3.64345 0
M  V30 3122 H 279.844 -0.995116 3.93513 0
M  V30 3123 H 280.61 1.38367 4.64844 0
M  V30 3124 H 276.489 0.158149 4.60729 0
M  V30 3125 H 280.033 3.22949 6.18344 0
M  V30 3126 H 275.93 1.99564 6.13876 0
M  V30 3127 H 276.698 3.72374 7.2889 0
M  V30 3128 N 279.361 -1.56624 0.175154 0
M  V30 3129 C 280.777 -1.58571 -0.180966 0
M  V30 3130 C 280.977 -1.19065 -1.6256 0
M  V30 3131 O 280.033 -0.904044 -2.35761 0
M  V30 3132 C 281.346 -3.00522 0.103326 0
M  V30 3133 C 282.894 -3.12972 0.0418426 0
M  V30 3134 C 283.369 -4.57022 0.299175 0
M  V30 3135 N 284.86 -4.62541 0.247086 0
M  V30 3136 C 285.595 -5.71857 0.420318 0
M  V30 3137 N 285.091 -6.89717 0.652816 0
M  V30 3138 N 286.884 -5.60972 0.355957 0
M  V30 3139 H 279.035 -1.80589 1.11809 0
M  V30 3140 H 281.298 -0.837178 0.444788 0
M  V30 3141 H 281.004 -3.33916 1.10422 0
M  V30 3142 H 280.878 -3.72344 -0.603299 0
M  V30 3143 H 283.265 -2.79403 -0.949636 0
M  V30 3144 H 283.346 -2.43578 0.781238 0
M  V30 3145 H 282.99 -4.913 1.28788 0
M  V30 3146 H 282.92 -5.24579 -0.460876 0
M  V30 3147 H 285.411 -3.77829 0.0731895 0
M  V30 3148 H 285.724 -7.68911 0.774347 0
M  V30 3149 H 284.069 -6.91572 0.689476 0
M  V30 3150 H 287.26 -4.67773 0.174882 0
M  V30 3151 H 287.433 -6.46111 0.494388 0
M  V30 3152 N 280.839 0.0985539 -1.57292 0
M  V30 3153 C 282.067 0.816318 -1.90115 0
M  V30 3154 C 282.482 1.72451 -0.768509 0
M  V30 3155 O 281.839 1.80643 0.259687 0
M  V30 3156 C 281.89 1.63259 -3.22535 0
M  V30 3157 O 281.611 0.760934 -4.31441 0
M  V30 3158 C 283.112 2.45372 -3.69199 0
M  V30 3159 H 280.332 0.233595 -0.629027 0
M  V30 3160 H 282.876 0.0768229 -2.04356 0
M  V30 3161 H 281.031 2.32463 -3.09903 0
M  V30 3162 H 281.445 1.32595 -5.07463 0
M  V30 3163 H 282.919 2.98144 -4.64558 0
M  V30 3164 H 283.396 3.23677 -2.96867 0
M  V30 3165 H 284.002 1.81373 -3.84687 0
M  V30 3166 N 282.317 1.53212 0.369288 0
M  V30 3167 C 283.547 1.72868 1.13139 0
M  V30 3168 C 283.955 0.455754 1.83629 0
M  V30 3169 O 283.298 -0.580861 1.74275 0
M  V30 3170 C 283.36 2.83667 2.20847 0
M  V30 3171 C 283.024 4.24142 1.70155 0
M  V30 3172 C 284.021 5.06619 1.16763 0
M  V30 3173 C 281.706 4.70539 1.7578 0
M  V30 3174 C 283.7 6.33581 0.696678 0
M  V30 3175 C 281.387 5.97481 1.28297 0
M  V30 3176 C 282.385 6.78833 0.753307 0
M  V30 3177 O 282.073 8.03393 0.285475 0
M  V30 3178 H 281.805 0.581707 0.344373 0
M  V30 3179 H 284.359 2.00736 0.435243 0
M  V30 3180 H 282.589 2.51265 2.93944 0
M  V30 3181 H 284.278 2.91536 2.82421 0
M  V30 3182 H 285.044 4.71948 1.11758 0
M  V30 3183 H 280.923 4.07293 2.15949 0
M  V30 3184 H 284.467 6.97027 0.282581 0
M  V30 3185 H 280.364 6.31651 1.32994 0
M  V30 3186 H 281.132 8.17497 0.405145 0
M  V30 3187 N 283.795 -0.628877 1.44509 0
M  V30 3188 C 284.725 -1.75187 1.54376 0
M  V30 3189 C 285.706 -1.65411 0.396618 0
M  V30 3190 O 286.891 -1.84137 0.617031 0
M  V30 3191 C 284.021 -3.13725 1.48976 0
M  V30 3192 C 282.975 -3.38291 2.62189 0
M  V30 3193 C 282.301 -4.76883 2.41841 0
M  V30 3194 C 283.601 -3.30632 4.04326 0
M  V30 3195 H 285.295 -1.67187 2.48373 0
M  V30 3196 H 282.841 -0.802909 1.19538 0
M  V30 3197 H 284.794 -3.92064 1.54478 0
M  V30 3198 H 283.518 -3.22515 0.514961 0
M  V30 3199 H 282.177 -2.62334 2.56079 0
M  V30 3200 H 281.825 -4.82378 1.42548 0
M  V30 3201 H 281.525 -4.94278 3.17747 0
M  V30 3202 H 283.049 -5.57449 2.49165 0
M  V30 3203 H 284.463 -3.98873 4.11793 0
M  V30 3204 H 282.86 -3.59561 4.80454 0
M  V30 3205 H 283.93 -2.28404 4.27738 0
M  V30 3206 N 285.273 -1.31445 -0.869486 0
M  V30 3207 C 286.22 -1.19135 -1.97675 0
M  V30 3208 C 287.19 -0.0770266 -1.65921 0
M  V30 3209 O 288.375 -0.249972 -1.89155 0
M  V30 3210 C 285.515 -0.905149 -3.33018 0
M  V30 3211 C 284.628 -2.10285 -3.77365 0
M  V30 3212 C 283.763 -1.75339 -5.01427 0
M  V30 3213 C 282.802 -2.91515 -5.38224 0
M  V30 3214 N 281.939 -2.56762 -6.53466 0
M  V30 3215 H 286.779 -2.13853 -2.07535 0
M  V30 3216 H 284.316 -1.06379 -1.01597 0
M  V30 3217 H 286.274 -0.719765 -4.10944 0
M  V30 3218 H 284.904 0.00519624 -3.228 0
M  V30 3219 H 283.956 -2.39899 -2.95216 0
M  V30 3220 H 285.268 -2.97237 -4.00564 0
M  V30 3221 H 284.422 -1.53266 -5.87022 0
M  V30 3222 H 283.161 -0.855801 -4.80133 0
M  V30 3223 H 282.166 -3.14237 -4.51149 0
M  V30 3224 H 283.391 -3.81985 -5.61484 0
M  V30 3225 H 281.337 -1.69526 -6.33717 0
M  V30 3226 H 281.254 -3.37243 -6.76612 0
M  V30 3227 H 282.522 -2.38083 -7.42251 0
M  V30 3228 N 286.751 1.08385 -1.14413 0
M  V30 3229 C 288.162 1.62258 -0.923535 0
M  V30 3230 C 288.513 1.88691 0.537595 0
M  V30 3231 O 287.638 1.64454 1.40655 0
M  V30 3232 C 288.233 2.94781 -1.67002 0
M  V30 3233 C 286.792 3.45437 -1.495 0
M  V30 3234 C 285.939 2.19668 -1.69238 0
M  V30 3235 H 288.89 0.916086 -1.2959 0
M  V30 3236 H 288.911 3.63229 -1.13334 0
M  V30 3237 H 288.423 2.7551 -2.73342 0
M  V30 3238 H 286.524 3.6981 -0.455097 0
M  V30 3239 H 286.637 4.22173 -2.2651 0
M  V30 3240 H 285.001 2.28849 -1.11804 0
M  V30 3241 H 285.784 2.02905 -2.7692 0
M  V30 3242 N 288.23 0.939286 1.26551 0
M  V30 3243 C 289.16 0.465044 2.28822 0
M  V30 3244 C 290.141 -0.480692 1.63167 0
M  V30 3245 O 291.326 -0.382955 1.90387 0
M  V30 3246 C 288.456 -0.27234 3.46231 0
M  V30 3247 C 287.41 0.58666 4.2396 0
M  V30 3248 C 286.736 -0.280573 5.33963 0
M  V30 3249 C 288.036 1.85704 4.88171 0
M  V30 3250 H 289.73 1.31979 2.68741 0
M  V30 3251 H 287.276 0.636061 1.29191 0
M  V30 3252 H 289.229 -0.615133 4.16886 0
M  V30 3253 H 287.953 -1.16121 3.0526 0
M  V30 3254 H 286.612 0.91232 3.55067 0
M  V30 3255 H 286.26 -1.16874 4.89234 0
M  V30 3256 H 285.96 0.29076 5.8688 0
M  V30 3257 H 287.484 -0.618678 6.07458 0
M  V30 3258 H 288.898 1.58161 5.51052 0
M  V30 3259 H 287.295 2.37279 5.51197 0
M  V30 3260 H 288.365 2.56957 4.11219 0
M  V30 3261 N 289.708 -1.40897 0.706093 0
M  V30 3262 C 290.936 -2.05373 0.250887 0
M  V30 3263 C 291.351 -1.53172 -1.10381 0
M  V30 3264 O 290.708 -0.684305 -1.69185 0
M  V30 3265 C 290.759 -3.6088 0.211571 0
M  V30 3266 O 290.48 -4.11153 1.51276 0
M  V30 3267 C 291.981 -4.42517 -0.263346 0
M  V30 3268 H 289.201 -0.66115 0.114552 0
M  V30 3269 H 291.745 -1.80479 0.961635 0
M  V30 3270 H 289.9 -3.84777 -0.450073 0
M  V30 3271 H 290.314 -5.05279 1.40689 0
M  V30 3272 H 291.788 -5.51479 -0.239718 0
M  V30 3273 H 292.265 -4.19396 -1.30397 0
M  V30 3274 H 292.871 -4.23708 0.367677 0
M  V30 3275 N 291.186 -0.45159 -1.50991 0
M  V30 3276 C 292.434 0.109857 -2.01801 0
M  V30 3277 C 292.755 1.41958 -1.3369 0
M  V30 3278 O 292.025 1.9003 -0.475951 0
M  V30 3279 H 290.605 0.0435884 -0.745727 0
M  V30 3280 H 293.267 -0.597557 -1.85514 0
M  V30 3281 H 292.363 0.275489 -3.10882 0
M  V30 3282 N 292.664 1.56529 -0.183458 0
M  V30 3283 C 293.91 1.97537 0.459036 0
M  V30 3284 C 294.243 1.06989 1.62071 0
M  V30 3285 O 293.518 0.11948 1.94133 0
M  V30 3286 C 293.801 3.47874 0.930368 0
M  V30 3287 C 293.654 4.492 -0.232317 0
M  V30 3288 C 294.973 4.01612 1.79989 0
M  V30 3289 H 292.092 0.718204 0.165383 0
M  V30 3290 H 294.734 1.88042 -0.272038 0
M  V30 3291 H 292.884 3.56095 1.55333 0
M  V30 3292 H 294.556 4.53027 -0.86972 0
M  V30 3293 H 292.799 4.24657 -0.885928 0
M  V30 3294 H 293.47 5.51823 0.139796 0
M  V30 3295 H 295.946 3.96097 1.27461 0
M  V30 3296 H 294.822 5.07195 2.09867 0
M  V30 3297 H 295.083 3.46163 2.74998 0
M  V30 3298 N 294.142 -0.090211 1.57342 0
M  V30 3299 C 295.558 -0.444547 1.53284 0
M  V30 3300 C 295.758 -1.80238 0.900914 0
M  V30 3301 O 294.814 -2.4759 0.495513 0
M  V30 3302 C 296.127 -0.402543 2.97993 0
M  V30 3303 C 297.675 -0.48405 3.09234 0
M  V30 3304 C 298.15 -0.472144 4.5556 0
M  V30 3305 N 299.641 -0.532757 4.60126 0
M  V30 3306 C 300.376 -0.545462 5.708 0
M  V30 3307 N 299.872 -0.514082 6.9089 0
M  V30 3308 N 301.665 -0.59064 5.58988 0
M  V30 3309 H 293.816 0.799121 1.96794 0
M  V30 3310 H 296.079 0.297965 0.899956 0
M  V30 3311 H 295.785 0.528106 3.47712 0
M  V30 3312 H 295.659 -1.21969 3.56936 0
M  V30 3313 H 298.046 -1.40512 2.595 0
M  V30 3314 H 298.127 0.361328 2.53235 0
M  V30 3315 H 297.771 0.445 5.05947 0
M  V30 3316 H 297.701 -1.3348 5.09402 0
M  V30 3317 H 300.192 -0.562006 3.73698 0
M  V30 3318 H 300.505 -0.527195 7.71 0
M  V30 3319 H 298.85 -0.481054 6.93333 0
M  V30 3320 H 302.041 -0.61272 4.64073 0
M  V30 3321 H 302.214 -0.597073 6.45243 0
M  V30 3322 N 295.62 -1.53406 -0.361157 0
M  V30 3323 C 296.848 -1.73717 -1.12383 0
M  V30 3324 C 297.263 -0.468161 -1.82904 0
M  V30 3325 O 296.62 0.559198 -1.73722 0
M  V30 3326 C 296.671 -2.90558 -2.15078 0
M  V30 3327 O 296.392 -4.12549 -1.47428 0
M  V30 3328 C 297.893 -3.22777 -3.03858 0
M  V30 3329 H 295.113 -0.580896 -0.335858 0
M  V30 3330 H 297.657 -2.00167 -0.418728 0
M  V30 3331 H 295.812 -2.66489 -2.8118 0
M  V30 3332 H 296.226 -4.78009 -2.15887 0
M  V30 3333 H 297.7 -4.07927 -3.71887 0
M  V30 3334 H 298.177 -2.38329 -3.68912 0
M  V30 3335 H 298.783 -3.48787 -2.43367 0
M  V30 3336 N 297.098 0.621204 -1.44841 0
M  V30 3337 C 298.347 1.37658 -1.47422 0
M  V30 3338 C 298.66 1.95264 -0.114629 0
M  V30 3339 O 299.866 2.71494 -0.0180199 0
M  V30 3340 C 298.322 2.49285 -2.59586 0
M  V30 3341 C 297.93 1.98149 -4.01797 0
M  V30 3342 C 299.674 3.26409 -2.71399 0
M  V30 3343 C 297.581 3.07178 -5.05367 0
M  V30 3344 H 296.511 0.517344 -0.548517 0
M  V30 3345 H 299.162 0.667257 -1.70938 0
M  V30 3346 H 297.544 3.22839 -2.29328 0
M  V30 3347 H 298.718 1.31395 -4.41669 0
M  V30 3348 H 297.033 1.33812 -3.94314 0
M  V30 3349 H 299.63 4.07706 -3.45948 0
M  V30 3350 H 299.973 3.76535 -1.77559 0
M  V30 3351 H 300.506 2.5995 -3.01116 0
M  V30 3352 H 297.245 2.61985 -6.00869 0
M  V30 3353 H 296.765 3.72542 -4.70077 0
M  V30 3354 H 298.444 3.71789 -5.29511 0
M  V30 3355 N 298.576 1.31904 0.862503 0
M  V30 3356 C 299.987 1.19803 1.43193 0
M  V30 3357 C 300.338 -0.192567 1.95253 0
M  V30 3358 O 299.463 -1.09081 1.86896 0
M  V30 3359 C 300.058 2.16883 2.60283 0
M  V30 3360 C 298.617 2.08692 3.13248 0
M  V30 3361 C 297.764 2.05691 1.85975 0
M  V30 3362 H 300.715 1.43846 0.670365 0
M  V30 3363 H 300.736 1.76278 3.37204 0
M  V30 3364 H 300.248 3.18083 2.22363 0
M  V30 3365 H 298.349 1.10713 3.55771 0
M  V30 3366 H 298.462 2.9815 3.75025 0
M  V30 3367 H 296.826 1.50814 2.05249 0
M  V30 3368 H 297.609 3.08659 1.50282 0
M  V30 3369 N 300.054 -1.07777 1.14986 0
M  V30 3370 C 300.964 -2.18404 0.856546 0
M  V30 3371 C 301.98 -1.73211 -0.165485 0
M  V30 3372 O 303.156 -2.01399 0.00755219 0
M  V30 3373 C 300.221 -3.44977 0.34526 0
M  V30 3374 C 299.282 -4.0476 1.43065 0
M  V30 3375 C 298.515 -5.25291 0.943663 0
M  V30 3376 O 298.738 -5.70004 -0.212426 0
M  V30 3377 O 297.672 -5.76638 1.72547 0
M  V30 3378 H 301.498 -2.45978 1.78125 0
M  V30 3379 H 299.083 -1.17033 0.928631 0
M  V30 3380 H 300.965 -4.21348 0.0663671 0
M  V30 3381 H 299.64 -3.18965 -0.551631 0
M  V30 3382 H 298.547 -3.29949 1.76309 0
M  V30 3383 H 299.88 -4.35035 2.30229 0
M  V30 3384 N 301.532 -0.945985 -1.26051 0
M  V30 3385 C 302.757 -0.612525 -1.98149 0
M  V30 3386 C 303.182 0.806623 -1.69927 0
M  V30 3387 O 302.54 1.54411 -0.950108 0
M  V30 3388 C 302.588 -0.866981 -3.50023 0
M  V30 3389 O 301.692 0.0585333 -4.12358 0
M  V30 3390 H 301.033 -0.23379 -0.621481 0
M  V30 3391 H 303.563 -1.27023 -1.60395 0
M  V30 3392 H 303.573 -0.789792 -4.00283 0
M  V30 3393 H 302.248 -1.90135 -3.69894 0
M  V30 3394 H 300.825 -0.0701241 -3.72834 0
M  V30 3395 N 303.011 1.40521 -0.713556 0
M  V30 3396 C 304.422 1.83853 -0.324807 0
M  V30 3397 C 304.773 1.59667 1.14021 0
M  V30 3398 O 303.898 1.07649 1.87725 0
M  V30 3399 C 304.493 3.33751 -0.582746 0
M  V30 3400 C 303.052 3.75584 -0.247727 0
M  V30 3401 C 302.199 2.63753 -0.856121 0
M  V30 3402 H 305.15 1.29817 -0.91286 0
M  V30 3403 H 305.171 3.80194 0.152682 0
M  V30 3404 H 304.683 3.51322 -1.64908 0
M  V30 3405 H 302.784 3.63608 0.813624 0
M  V30 3406 H 302.897 4.7373 -0.715307 0
M  V30 3407 H 301.261 2.53108 -0.28432 0
M  V30 3408 H 302.044 2.84137 -1.92668 0
M  V30 3409 N 304.489 0.459591 1.5075 0
M  V30 3410 C 305.736 -0.0993495 2.02256 0
M  V30 3411 C 306.064 -1.40751 1.34237 0
M  V30 3412 O 305.319 -1.90379 0.453228 0
M  V30 3413 C 305.618 -0.342866 3.55752 0
M  V30 3414 C 305.284 0.88218 4.42186 0
M  V30 3415 C 303.946 1.21808 4.65528 0
M  V30 3416 C 306.298 1.69837 4.92752 0
M  V30 3417 C 303.626 2.37045 5.36681 0
M  V30 3418 C 305.978 2.84192 5.65171 0
M  V30 3419 C 304.642 3.1821 5.8677 0
M  V30 3420 H 303.912 -0.0363545 0.740108 0
M  V30 3421 H 306.559 0.611329 1.8148 0
M  V30 3422 H 304.864 -1.13567 3.7498 0
M  V30 3423 H 306.561 -0.789121 3.93159 0
M  V30 3424 H 303.151 0.610467 4.2423 0
M  V30 3425 H 307.335 1.45205 4.74583 0
M  V30 3426 H 302.591 2.63689 5.51614 0
M  V30 3427 H 306.765 3.4779 6.03337 0
M  V30 3428 H 304.392 4.07613 6.41682 0
M  V30 3429 N 305.967 -1.56429 0.191757 0
M  V30 3430 C 307.192 -2.02309 -0.456706 0
M  V30 3431 C 307.617 -1.07103 -1.5463 0
M  V30 3432 O 306.975 -0.0539677 -1.8122 0
M  V30 3433 C 307.023 -3.46654 -0.993159 0
M  V30 3434 O 306.127 -3.54559 -2.10622 0
M  V30 3435 H 305.468 -0.655303 -0.107114 0
M  V30 3436 H 307.998 -2.02364 0.301653 0
M  V30 3437 H 308.008 -3.86377 -1.31061 0
M  V30 3438 H 306.683 -4.1544 -0.195504 0
M  V30 3439 H 305.26 -3.26708 -1.79767 0
M  V30 3440 N 307.445 0.0818655 -1.57387 0
M  V30 3441 C 308.693 0.781368 -1.86384 0
M  V30 3442 C 309.014 1.78618 -0.782342 0
M  V30 3443 O 308.284 1.94976 0.190061 0
M  V30 3444 H 306.864 0.291562 -0.687751 0
M  V30 3445 H 309.526 0.060348 -1.94807 0
M  V30 3446 H 308.622 1.3038 -2.83562 0
M  V30 3447 N 308.923 1.53595 0.353017 0
M  V30 3448 C 310.339 1.43648 0.695516 0
M  V30 3449 C 310.539 0.585617 1.92802 0
M  V30 3450 O 309.595 0.0729223 2.52395 0
M  V30 3451 C 310.908 2.8701 0.896991 0
M  V30 3452 C 312.456 2.96723 0.996209 0
M  V30 3453 C 312.931 4.41173 1.23007 0
M  V30 3454 N 314.422 4.44657 1.29749 0
M  V30 3455 C 315.157 5.53547 1.49577 0
M  V30 3456 N 314.653 6.72461 1.66639 0
M  V30 3457 N 316.446 5.41145 1.52048 0
M  V30 3458 H 308.597 2.07415 -0.457481 0
M  V30 3459 H 310.86 0.9372 -0.142687 0
M  V30 3460 H 310.566 3.51644 0.0629938 0
M  V30 3461 H 310.44 3.31401 1.80148 0
M  V30 3462 H 312.827 2.32235 1.82074 0
M  V30 3463 H 312.908 2.55707 0.0688331 0
M  V30 3464 H 312.552 5.06238 0.410505 0
M  V30 3465 H 312.482 4.79772 2.17086 0
M  V30 3466 H 314.973 3.58963 1.18126 0
M  V30 3467 H 315.286 7.51214 1.81378 0
M  V30 3468 H 313.631 6.75423 1.63794 0
M  V30 3469 H 316.822 4.47205 1.38294 0
M  V30 3470 H 316.995 6.26068 1.67159 0
M  V30 3471 N 310.401 -0.613514 1.45168 0
M  V30 3472 C 311.678 -1.37263 1.39349 0
M  V30 3473 C 312.058 -2.11012 0.0610848 0
M  V30 3474 O 311.406 -2.07502 -0.956825 0
M  V30 3475 C 311.616 -2.3244 2.60332 0
M  V30 3476 C 312.964 -2.9523 3.05163 0
M  V30 3477 O 313.988 -2.42762 2.60663 0
M  V30 3478 O 312.847 -3.90454 3.82372 0
M  V30 3479 H 309.941 -0.615188 0.552696 0
M  V30 3480 H 312.487 -0.637097 1.57287 0
M  V30 3481 H 311.259 -1.77164 3.48896 0
M  V30 3482 H 310.882 -3.13383 2.44698 0
M  V30 3483 N 311.879 -1.3236 -0.855495 0
M  V30 3484 C 312.829 -1.17809 -1.95205 0
M  V30 3485 C 313.813 -0.0852319 -1.60674 0
M  V30 3486 O 315.005 -0.311651 -1.74235 0
M  V30 3487 C 312.134 -0.902437 -3.31226 0
M  V30 3488 C 311.22 -2.03695 -3.7198 0
M  V30 3489 N 311.611 -3.28544 -3.84568 0
M  V30 3490 C 309.909 -1.93993 -4.016 0
M  V30 3491 C 310.61 -4.02847 -4.19629 0
M  V30 3492 N 309.586 -3.31138 -4.31102 0
M  V30 3493 H 313.388 -2.12462 -2.0307 0
M  V30 3494 H 310.902 -1.24127 -1.0472 0
M  V30 3495 H 312.899 -0.77915 -4.09554 0
M  V30 3496 H 311.559 0.0357267 -3.2468 0
M  V30 3497 H 312.57 -3.6349 -3.68911 0
M  V30 3498 H 309.247 -1.07733 -4.03361 0
M  V30 3499 H 310.637 -5.10506 -4.36845 0
M  V30 3500 N 313.357 1.07166 -1.15556 0
M  V30 3501 C 314.606 1.79181 -0.926132 0
M  V30 3502 C 314.919 1.87768 0.547967 0
M  V30 3503 O 316.125 2.56323 0.895036 0
M  V30 3504 C 314.581 3.22 -1.60761 0
M  V30 3505 C 314.189 3.21607 -3.11886 0
M  V30 3506 C 315.933 3.9861 -1.4598 0
M  V30 3507 C 313.84 4.59092 -3.72812 0
M  V30 3508 H 312.77 0.67154 -0.342856 0
M  V30 3509 H 315.421 1.2027 -1.3859 0
M  V30 3510 H 313.803 3.81115 -1.07553 0
M  V30 3511 H 314.977 2.72127 -3.71865 0
M  V30 3512 H 313.292 2.58495 -3.2645 0
M  V30 3513 H 315.889 5.00225 -1.88888 0
M  V30 3514 H 316.232 4.143 -0.407541 0
M  V30 3515 H 316.765 3.45996 -1.96295 0
M  V30 3516 H 313.504 4.48606 -4.77946 0
M  V30 3517 H 313.024 5.08803 -3.17616 0
M  V30 3518 H 314.703 5.28059 -3.73848 0
M  V30 3519 N 314.835 0.952656 1.25548 0
M  V30 3520 C 315.765 0.489287 2.28316 0
M  V30 3521 C 316.746 -0.463359 1.63667 0
M  V30 3522 O 317.931 -0.36274 1.90782 0
M  V30 3523 C 315.061 -0.235603 3.465 0
M  V30 3524 C 314.015 0.631593 4.23314 0
M  V30 3525 C 313.341 -0.223923 5.34231 0
M  V30 3526 C 314.641 1.90871 4.86174 0
M  V30 3527 H 316.335 1.34822 2.67326 0
M  V30 3528 H 313.881 0.649728 1.28509 0
M  V30 3529 H 315.834 -0.570882 4.17515 0
M  V30 3530 H 314.558 -1.12877 3.06474 0
M  V30 3531 H 313.217 0.949929 3.54079 0
M  V30 3532 H 312.865 -1.11678 4.90446 0
M  V30 3533 H 312.565 0.35299 5.86539 0
M  V30 3534 H 314.089 -0.554214 6.0808 0
M  V30 3535 H 315.503 1.63997 5.49343 0
M  V30 3536 H 313.9 2.43112 5.4865 0
M  V30 3537 H 314.97 2.61304 4.08471 0
M  V30 3538 N 316.313 -1.40141 0.720998 0
M  V30 3539 C 317.56 -2.00787 0.262842 0
M  V30 3540 C 317.888 -1.5718 -1.14563 0
M  V30 3541 O 317.143 -0.785391 -1.79249 0
M  V30 3542 C 317.442 -3.56165 0.296892 0
M  V30 3543 C 317.108 -4.19373 1.65641 0
M  V30 3544 C 315.77 -4.36352 2.02855 0
M  V30 3545 C 318.122 -4.54578 2.54968 0
M  V30 3546 C 315.45 -4.8582 3.28931 0
M  V30 3547 C 317.802 -5.05447 3.80402 0
M  V30 3548 C 316.466 -5.20635 4.17726 0
M  V30 3549 H 315.736 -0.734731 0.0961807 0
M  V30 3550 H 318.383 -1.67673 0.925093 0
M  V30 3551 H 316.688 -3.8922 -0.448932 0
M  V30 3552 H 318.385 -4.00929 -0.0755208 0
M  V30 3553 H 314.975 -4.06549 1.35704 0
M  V30 3554 H 319.159 -4.41091 2.27491 0
M  V30 3555 H 314.415 -4.95764 3.57811 0
M  V30 3556 H 318.589 -5.31663 4.49786 0
M  V30 3557 H 316.216 -5.58728 5.15487 0
M  V30 3558 N 317.792 -0.46758 -1.50504 0
M  V30 3559 C 319.04 0.0884469 -2.01906 0
M  V30 3560 C 319.361 1.40532 -1.35188 0
M  V30 3561 O 318.631 1.89515 -0.496079 0
M  V30 3562 H 317.211 0.0356765 -0.746148 0
M  V30 3563 H 319.873 -0.6172 -1.84869 0
M  V30 3564 H 318.969 0.2425 -3.11156 0
M  V30 3565 N 319.27 1.56325 -0.20005 0
M  V30 3566 C 320.516 1.98012 0.438059 0
M  V30 3567 C 320.849 1.08702 1.60927 0
M  V30 3568 O 320.124 0.140064 1.93995 0
M  V30 3569 C 320.407 3.48841 0.893419 0
M  V30 3570 C 320.26 4.48928 -0.279947 0
M  V30 3571 C 321.579 4.03498 1.75719 0
M  V30 3572 H 318.698 0.719918 0.157757 0
M  V30 3573 H 321.34 1.87743 -0.291968 0
M  V30 3574 H 319.49 3.57723 1.51547 0
M  V30 3575 H 321.162 4.52079 -0.91772 0
M  V30 3576 H 319.405 4.23694 -0.930919 0
M  V30 3577 H 320.076 5.5194 0.0812601 0
M  V30 3578 H 322.552 3.97427 1.23253 0
M  V30 3579 H 321.428 5.09393 2.04476 0
M  V30 3580 H 321.689 3.4906 2.71311 0
M  V30 3581 N 320.748 -0.0735177 1.57428 0
M  V30 3582 C 321.696 -1.10628 2.04607 0
M  V30 3583 C 322.69 -1.40181 0.951088 0
M  V30 3584 O 323.896 -1.39608 1.1362 0
M  V30 3585 H 320.271 -0.374088 0.652351 0
M  V30 3586 H 322.242 -0.682218 2.90497 0
M  V30 3587 C 320.991 -2.41212 2.50423 0
M  V30 3588 H 320.314 -2.19322 3.34272 0
M  V30 3589 H 321.754 -3.11927 2.87189 0
M  V30 3590 C 320.213 -3.0705 1.38644 0
M  V30 3591 O 320.743 -3.95056 0.727582 0
M  V30 3592 N 318.949 -2.67645 1.132 0
M  V30 3593 H 318.496 -1.96169 1.66959 0
M  V30 3594 H 318.454 -3.1202 0.386147 0
M  V30 3595 N 322.226 -1.5378 -0.344866 0
M  V30 3596 C 323.472 -1.71216 -1.08687 0
M  V30 3597 C 323.805 -0.473281 -1.88345 0
M  V30 3598 O 323.08 0.52968 -1.87149 0
M  V30 3599 C 323.363 -2.97486 -2.02914 0
M  V30 3600 C 323.216 -4.31579 -1.26727 0
M  V30 3601 C 324.535 -3.19422 -3.0275 0
M  V30 3602 H 321.654 -0.62301 -0.393735 0
M  V30 3603 H 324.296 -1.8645 -0.365563 0
M  V30 3604 H 322.446 -2.84629 -2.64421 0
M  V30 3605 H 324.118 -4.56284 -0.67845 0
M  V30 3606 H 322.361 -4.30049 -0.569273 0
M  V30 3607 H 323.032 -5.16106 -1.95803 0
M  V30 3608 H 325.508 -3.316 -2.51357 0
M  V30 3609 H 324.384 -4.09169 -3.65885 0
M  V30 3610 H 324.645 -2.35656 -3.74057 0
M  V30 3611 N 323.704 0.605807 -1.45491 0
M  V30 3612 C 324.651 1.7164 -1.54299 0
M  V30 3613 C 325.621 1.61486 -0.388761 0
M  V30 3614 O 326.806 1.81039 -0.602445 0
M  V30 3615 C 323.946 3.09953 -1.51734 0
M  V30 3616 C 323.059 3.309 -2.77721 0
M  V30 3617 C 322.194 4.59329 -2.66816 0
M  V30 3618 C 321.233 4.7354 -3.87848 0
M  V30 3619 N 320.37 5.9327 -3.75467 0
M  V30 3620 H 325.21 1.63449 -2.49176 0
M  V30 3621 H 322.747 0.796957 -1.23641 0
M  V30 3622 H 324.705 3.89977 -1.48235 0
M  V30 3623 H 323.335 3.17098 -0.604068 0
M  V30 3624 H 322.387 2.44639 -2.913 0
M  V30 3625 H 323.699 3.37274 -3.67488 0
M  V30 3626 H 322.853 5.4755 -2.61292 0
M  V30 3627 H 321.592 4.55355 -1.74651 0
M  V30 3628 H 320.597 3.83741 -3.93729 0
M  V30 3629 H 321.822 4.79309 -4.81082 0
M  V30 3630 H 319.768 5.90338 -2.86072 0
M  V30 3631 H 319.685 6.00811 -4.5887 0
M  V30 3632 H 320.953 6.83984 -3.73879 0
M  V30 3633 N 325.182 1.32811 0.848464 0
M  V30 3634 C 326.431 1.23075 1.59798 0
M  V30 3635 C 326.744 -0.204419 1.94529 0
M  V30 3636 O 327.95 -0.423701 2.68173 0
M  V30 3637 C 326.406 2.15594 2.88179 0
M  V30 3638 C 326.014 3.64228 2.60849 0
M  V30 3639 C 327.758 2.14709 3.66197 0
M  V30 3640 C 325.665 4.48689 3.85269 0
M  V30 3641 H 324.595 0.457091 0.599653 0
M  V30 3642 H 327.246 1.57813 0.936342 0
M  V30 3643 H 325.628 1.73778 3.55833 0
M  V30 3644 H 326.802 4.14424 2.01467 0
M  V30 3645 H 325.117 3.67306 1.96151 0
M  V30 3646 H 327.714 2.75046 4.58534 0
M  V30 3647 H 328.057 1.13966 4.00397 0
M  V30 3648 H 328.59 2.54837 3.05455 0
M  V30 3649 H 325.329 5.5027 3.56207 0
M  V30 3650 H 324.849 4.03241 4.44024 0
M  V30 3651 H 326.528 4.62006 4.52946 0
M  V30 3652 N 326.66 -1.06551 1.16123 0
M  V30 3653 C 327.885 -1.83544 0.965735 0
M  V30 3654 C 328.31 -1.81843 -0.481102 0
M  V30 3655 O 327.668 -1.21732 -1.34354 0
M  V30 3656 C 327.716 -3.28169 1.49457 0
M  V30 3657 O 326.82 -4.0643 0.699157 0
M  V30 3658 H 326.161 -0.568026 0.343864 0
M  V30 3659 H 328.691 -1.34362 1.54299 0
M  V30 3660 H 328.701 -3.78992 1.51092 0
M  V30 3661 H 327.376 -3.28722 2.54784 0
M  V30 3662 H 325.953 -3.65216 0.7531 0
M  V30 3663 N 328.138 -0.959301 -1.25041 0
M  V30 3664 C 329.384 -0.617525 -1.9317 0
M  V30 3665 C 329.717 0.843981 -1.74902 0
M  V30 3666 O 328.992 1.60615 -1.09696 0
M  V30 3667 C 329.275 -0.982736 -3.46431 0
M  V30 3668 C 329.128 -2.50032 -3.73904 0
M  V30 3669 C 330.447 -0.511176 -4.37121 0
M  V30 3670 H 327.566 -0.22582 -0.701552 0
M  V30 3671 H 330.208 -1.19679 -1.4757 0
M  V30 3672 H 328.358 -0.489806 -3.854 0
M  V30 3673 H 330.03 -3.06737 -3.44544 0
M  V30 3674 H 328.273 -2.93598 -3.19348 0
M  V30 3675 H 328.944 -2.70635 -4.81103 0
M  V30 3676 H 331.42 -0.934075 -4.0548 0
M  V30 3677 H 330.296 -0.795361 -5.43107 0
M  V30 3678 H 330.557 0.588834 -4.38161 0
M  V30 3679 N 329.616 1.39756 -0.72842 0
M  V30 3680 C 330.864 2.00248 -0.272946 0
M  V30 3681 C 331.185 1.58077 1.14178 0
M  V30 3682 O 330.455 0.826014 1.77634 0
M  V30 3683 H 329.035 0.740554 -0.0979247 0
M  V30 3684 H 331.697 1.70903 -0.936912 0
M  V30 3685 H 330.793 3.10495 -0.316142 0
M  V30 3686 N 331.094 0.475555 1.50254 0
M  V30 3687 C 332.342 -0.077738 2.0195 0
M  V30 3688 C 332.663 -1.39813 1.35931 0
M  V30 3689 O 331.933 -1.89249 0.506123 0
M  V30 3690 H 330.513 -0.031719 0.746326 0
M  V30 3691 H 333.175 0.626995 1.84539 0
M  V30 3692 H 332.271 -0.225995 3.11281 0
M  V30 3693 N 332.573 -1.56217 0.208337 0
M  V30 3694 C 333.801 -2.02337 -0.43215 0
M  V30 3695 C 334.216 -1.08834 -1.54275 0
M  V30 3696 O 333.573 -0.0955462 -1.8225 0
M  V30 3697 C 333.624 -3.48072 -0.976138 0
M  V30 3698 O 333.345 -4.38007 0.0901621 0
M  V30 3699 C 334.846 -4.09773 -1.69119 0
M  V30 3700 H 332.066 -0.662385 -0.10718 0
M  V30 3701 H 334.61 -2.01966 0.320923 0
M  V30 3702 H 332.765 -3.49099 -1.67954 0
M  V30 3703 H 333.179 -5.23543 -0.316701 0
M  V30 3704 H 334.653 -5.13556 -2.02397 0
M  V30 3705 H 335.13 -3.53999 -2.59964 0
M  V30 3706 H 335.736 -4.12556 -1.03332 0
M  V30 3707 N 334.051 0.0651679 -1.57465 0
M  V30 3708 C 334.998 1.07675 -2.04144 0
M  V30 3709 C 335.968 1.38071 -0.923335 0
M  V30 3710 O 337.153 1.49026 -1.19146 0
M  V30 3711 C 334.293 2.38337 -2.49579 0
M  V30 3712 C 333.406 2.14413 -3.75035 0
M  V30 3713 C 332.541 3.38686 -4.09225 0
M  V30 3714 C 331.58 3.10156 -5.27702 0
M  V30 3715 N 330.717 4.26778 -5.57499 0
M  V30 3716 H 335.557 0.671716 -2.90331 0
M  V30 3717 H 333.094 0.3201 -1.43575 0
M  V30 3718 H 335.052 3.14632 -2.73975 0
M  V30 3719 H 333.682 2.7663 -1.6636 0
M  V30 3720 H 332.734 1.2878 -3.57939 0
M  V30 3721 H 334.046 1.89344 -4.61466 0
M  V30 3722 H 333.2 4.23373 -4.34558 0
M  V30 3723 H 331.939 3.66837 -3.21374 0
M  V30 3724 H 330.944 2.23866 -5.02159 0
M  V30 3725 H 332.169 2.8332 -6.17176 0
M  V30 3726 H 330.115 4.54948 -4.72608 0
M  V30 3727 H 330.032 4.05005 -6.38362 0
M  V30 3728 H 331.3 5.12443 -5.87386 0
M  V30 3729 N 335.529 1.53961 0.336706 0
M  V30 3730 C 336.459 1.85417 1.41925 0
M  V30 3731 C 337.44 0.709856 1.5458 0
M  V30 3732 O 338.625 0.962396 1.68676 0
M  V30 3733 C 335.755 2.06985 2.78881 0
M  V30 3734 C 334.709 3.22813 2.81026 0
M  V30 3735 C 334.035 3.29727 4.20932 0
M  V30 3736 C 335.335 4.60767 2.45949 0
M  V30 3737 H 337.029 2.76079 1.15848 0
M  V30 3738 H 334.575 1.32839 0.555859 0
M  V30 3739 H 336.528 2.27575 3.54665 0
M  V30 3740 H 335.252 1.13061 3.06406 0
M  V30 3741 H 333.911 3.0209 2.07695 0
M  V30 3742 H 333.559 2.33385 4.45579 0
M  V30 3743 H 333.259 4.07566 4.23277 0
M  V30 3744 H 334.783 3.52536 4.98549 0
M  V30 3745 H 336.197 4.81325 3.11446 0
M  V30 3746 H 334.594 5.4106 2.59566 0
M  V30 3747 H 335.664 4.6391 1.41122 0
M  V30 3748 N 337.007 -0.598083 1.45811 0
M  V30 3749 C 337.937 -1.71873 1.58057 0
M  V30 3750 C 338.918 -1.64533 0.431615 0
M  V30 3751 O 340.103 -1.82787 0.65595 0
M  V30 3752 C 337.233 -3.10495 1.55597 0
M  V30 3753 C 336.187 -3.32654 2.69305 0
M  V30 3754 C 335.513 -4.71646 2.51902 0
M  V30 3755 C 336.813 -3.21981 4.11248 0
M  V30 3756 H 338.507 -1.61881 2.51863 0
M  V30 3757 H 336.053 -0.777372 1.21214 0
M  V30 3758 H 338.006 -3.88699 1.6276 0
M  V30 3759 H 336.73 -3.2135 0.583255 0
M  V30 3760 H 335.389 -2.56843 2.61586 0
M  V30 3761 H 335.037 -4.79246 1.52748 0
M  V30 3762 H 334.737 -4.87426 3.2816 0
M  V30 3763 H 336.261 -5.52038 2.60933 0
M  V30 3764 H 337.675 -3.90049 4.20161 0
M  V30 3765 H 336.072 -3.49289 4.87972 0
M  V30 3766 H 337.142 -2.1928 4.32486 0
M  V30 3767 N 338.485 -1.33259 -0.841409 0
M  V30 3768 C 339.713 -1.27605 -1.62864 0
M  V30 3769 C 340.128 0.153507 -1.88175 0
M  V30 3770 O 339.485 1.09485 -1.46011 0
M  V30 3771 C 339.536 -2.04596 -2.98031 0
M  V30 3772 O 339.257 -3.41975 -2.73834 0
M  V30 3773 C 340.758 -2.06122 -3.92465 0
M  V30 3774 H 337.978 -0.439718 -0.506842 0
M  V30 3775 H 340.522 -1.75591 -1.04824 0
M  V30 3776 H 338.677 -1.60299 -3.5268 0
M  V30 3777 H 339.091 -3.81549 -3.59889 0
M  V30 3778 H 340.565 -2.64451 -4.84531 0
M  V30 3779 H 341.042 -1.05083 -4.26444 0
M  V30 3780 H 341.648 -2.50427 -3.43753 0
M  V30 3781 N 339.963 1.05934 -1.16686 0
M  V30 3782 C 341.188 1.83029 -0.975455 0
M  V30 3783 C 341.613 1.82096 0.471452 0
M  V30 3784 O 340.971 1.22443 1.33706 0
M  V30 3785 C 341.019 3.27372 -1.51195 0
M  V30 3786 O 340.123 4.06054 -0.720701 0
M  V30 3787 H 339.464 0.566194 -0.346872 0
M  V30 3788 H 341.994 1.33541 -1.55009 0
M  V30 3789 H 342.004 3.78186 -1.53099 0
M  V30 3790 H 340.679 3.27366 -2.56523 0
M  V30 3791 H 339.256 3.64812 -0.772458 0
M  V30 3792 N 341.441 0.965919 1.2453 0
M  V30 3793 C 342.688 0.626831 1.92554 0
M  V30 3794 C 343.016 -0.837739 1.75534 0
M  V30 3795 O 342.271 -1.61793 1.10098 0
M  V30 3796 C 342.57 0.945428 3.44669 0
M  V30 3797 C 342.236 2.39785 3.81856 0
M  V30 3798 C 340.898 2.79483 3.91718 0
M  V30 3799 C 343.25 3.34055 4.00071 0
M  V30 3800 C 340.578 4.12496 4.1721 0
M  V30 3801 C 342.93 4.66694 4.27059 0
M  V30 3802 C 341.594 5.06172 4.3514 0
M  V30 3803 H 340.864 0.229374 0.704605 0
M  V30 3804 H 343.511 1.21707 1.4785 0
M  V30 3805 H 341.816 0.272926 3.90848 0
M  V30 3806 H 343.513 0.661484 3.95507 0
M  V30 3807 H 340.103 2.08003 3.74743 0
M  V30 3808 H 344.287 3.04571 3.91855 0
M  V30 3809 H 339.543 4.42709 4.21685 0
M  V30 3810 H 343.717 5.3971 4.40097 0
M  V30 3811 H 341.344 6.09262 4.54646 0
M  V30 3812 N 342.919 -1.39368 0.735821 0
M  V30 3813 C 344.147 -2.04795 0.294393 0
M  V30 3814 C 344.562 -1.55478 -1.07107 0
M  V30 3815 O 343.919 -0.720038 -1.67695 0
M  V30 3816 C 343.97 -3.6035 0.288071 0
M  V30 3817 O 343.691 -4.07852 1.59963 0
M  V30 3818 C 345.192 -4.42976 -0.169422 0
M  V30 3819 H 342.412 -0.658571 0.128551 0
M  V30 3820 H 344.956 -1.78399 0.999701 0
M  V30 3821 H 343.111 -3.85645 -0.368355 0
M  V30 3822 H 343.525 -5.02181 1.51375 0
M  V30 3823 H 344.999 -5.51864 -0.122687 0
M  V30 3824 H 345.476 -4.22068 -1.21472 0
M  V30 3825 H 346.082 -4.22832 0.457469 0
M  V30 3826 N 344.397 -0.483516 -1.5 0
M  V30 3827 C 345.344 0.304164 -2.28787 0
M  V30 3828 C 346.314 0.976114 -1.34392 0
M  V30 3829 O 347.499 0.986156 -1.63339 0
M  V30 3830 C 344.639 1.37298 -3.16612 0
M  V30 3831 C 343.752 0.714561 -4.26049 0
M  V30 3832 C 342.887 1.76232 -5.01114 0
M  V30 3833 C 341.926 1.08483 -6.0241 0
M  V30 3834 N 341.063 2.076 -6.70706 0
M  V30 3835 H 345.903 -0.373981 -2.95644 0
M  V30 3836 H 343.44 -0.196275 -1.45785 0
M  V30 3837 H 345.398 2.00445 -3.65893 0
M  V30 3838 H 344.028 2.02012 -2.51776 0
M  V30 3839 H 343.08 -0.0297798 -3.80388 0
M  V30 3840 H 344.392 0.180383 -4.98474 0
M  V30 3841 H 343.546 2.46929 -5.54176 0
M  V30 3842 H 342.285 2.33033 -4.28424 0
M  V30 3843 H 341.29 0.363545 -5.48597 0
M  V30 3844 H 342.515 0.523551 -6.77079 0
M  V30 3845 H 340.461 2.63394 -6.00799 0
M  V30 3846 H 340.378 1.59201 -7.39047 0
M  V30 3847 H 341.646 2.77639 -7.2838 0
M  V30 3848 N 345.875 1.56104 -0.216619 0
M  V30 3849 C 347.123 1.97781 0.415593 0
M  V30 3850 C 347.444 1.10536 1.60645 0
M  V30 3851 O 346.714 0.181303 1.95059 0
M  V30 3852 H 345.294 0.730415 0.156534 0
M  V30 3853 H 347.956 1.92445 -0.308366 0
M  V30 3854 H 347.052 3.03072 0.74525 0
M  V30 3855 N 347.353 -0.0568162 1.57498 0
M  V30 3856 C 348.63 -0.786954 1.79071 0
M  V30 3857 C 349.01 -1.95028 0.80792 0
M  V30 3858 O 348.358 -2.27968 -0.155858 0
M  V30 3859 C 348.568 -1.24594 3.26002 0
M  V30 3860 C 349.916 -1.67323 3.90241 0
M  V30 3861 O 350.94 -1.34124 3.29984 0
M  V30 3862 O 349.799 -2.28842 4.9628 0
M  V30 3863 H 346.893 -0.378262 0.735423 0
M  V30 3864 H 349.439 -0.035734 1.69662 0
M  V30 3865 H 348.211 -0.41423 3.89101 0
M  V30 3866 H 347.834 -2.05803 3.40192 0
M  V30 3867 N 348.832 -1.54138 -0.328536 0
M  V30 3868 C 349.78 -1.83894 -1.42428 0
M  V30 3869 C 350.774 -0.710478 -1.53781 0
M  V30 3870 O 351.98 -0.894062 -1.56226 0
M  V30 3871 H 348.355 -0.582837 -0.475189 0
M  V30 3872 H 350.326 -2.75537 -1.14552 0
M  V30 3873 C 349.075 -2.07866 -2.78724 0
M  V30 3874 H 348.398 -2.94158 -2.7076 0
M  V30 3875 H 349.838 -2.32644 -3.54476 0
M  V30 3876 C 348.297 -0.868689 -3.25508 0
M  V30 3877 O 348.827 -0.0754908 -4.01629 0
M  V30 3878 N 347.033 -0.681711 -2.82491 0
M  V30 3879 H 346.58 -1.32838 -2.20708 0
M  V30 3880 H 346.538 0.126374 -3.14146 0
M  V30 3881 N 350.31 0.590341 -1.46126 0
M  V30 3882 C 351.535 1.37991 -1.54833 0
M  V30 3883 C 351.96 1.87163 -0.187506 0
M  V30 3884 O 351.318 1.61133 0.831008 0
M  V30 3885 C 351.366 2.54867 -2.55098 0
M  V30 3886 O 350.47 3.56061 -2.08073 0
M  V30 3887 H 349.811 0.411265 -0.521303 0
M  V30 3888 H 352.341 0.716819 -1.91632 0
M  V30 3889 H 352.351 3.01886 -2.74461 0
M  V30 3890 H 351.026 2.18429 -3.53923 0
M  V30 3891 H 349.603 3.15574 -1.98664 0
M  V30 3892 N 351.788 1.33704 0.83433 0
M  V30 3893 C 352.718 1.26967 1.95963 0
M  V30 3894 C 353.699 0.149337 1.69443 0
M  V30 3895 O 354.884 0.339852 1.91203 0
M  V30 3896 C 352.014 1.01275 3.32206 0
M  V30 3897 C 350.968 2.09652 3.73136 0
M  V30 3898 C 350.294 1.69166 5.07235 0
M  V30 3899 C 351.594 3.51372 3.86439 0
M  V30 3900 H 353.288 2.2112 2.01857 0
M  V30 3901 H 350.834 1.06447 0.969793 0
M  V30 3902 H 352.787 0.952106 4.10503 0
M  V30 3903 H 351.511 0.0356203 3.26581 0
M  V30 3904 H 350.17 2.14766 2.97104 0
M  V30 3905 H 349.818 0.701437 4.98085 0
M  V30 3906 H 349.518 2.41694 5.35591 0
M  V30 3907 H 351.042 1.64576 5.88003 0
M  V30 3908 H 352.456 3.48734 4.55036 0
M  V30 3909 H 350.853 4.22425 4.26236 0
M  V30 3910 H 351.923 3.89546 2.88759 0
M  V30 3911 N 353.266 -1.05314 1.17247 0
M  V30 3912 C 354.512 -1.78557 0.961513 0
M  V30 3913 C 354.845 -1.87419 -0.508697 0
M  V30 3914 O 354.12 -1.37307 -1.37757 0
M  V30 3915 C 354.403 -3.22514 1.60176 0
M  V30 3916 C 354.256 -3.21673 3.14399 0
M  V30 3917 C 355.575 -4.20318 1.30463 0
M  V30 3918 H 352.694 -0.6482 0.350723 0
M  V30 3919 H 355.336 -1.23102 1.44727 0
M  V30 3920 H 353.486 -3.69867 1.18871 0
M  V30 3921 H 355.158 -2.82405 3.64753 0
M  V30 3922 H 353.401 -2.60048 3.47214 0
M  V30 3923 H 354.072 -4.23271 3.54324 0
M  V30 3924 H 356.548 -3.81454 1.66229 0
M  V30 3925 H 355.424 -5.19289 1.77848 0
M  V30 3926 H 355.685 -4.41526 0.22521 0
M  V30 3927 N 354.744 -0.972509 -1.24016 0
M  V30 3928 C 355.99 -0.637978 -1.92504 0
M  V30 3929 C 356.323 0.825383 -1.75787 0
M  V30 3930 O 355.598 1.59442 -1.11393 0
M  V30 3931 C 355.881 -1.01942 -3.45369 0
M  V30 3932 C 355.734 -2.53983 -3.71231 0
M  V30 3933 C 357.053 -0.55751 -4.36555 0
M  V30 3934 H 354.172 -0.233248 -0.699117 0
M  V30 3935 H 356.814 -1.21238 -1.46292 0
M  V30 3936 H 354.964 -0.530656 -3.84859 0
M  V30 3937 H 356.636 -3.10374 -3.41271 0
M  V30 3938 H 354.879 -2.96968 -3.16216 0
M  V30 3939 H 355.55 -2.75723 -4.78206 0
M  V30 3940 H 358.026 -0.977029 -4.04467 0
M  V30 3941 H 356.902 -0.85292 -5.42233 0
M  V30 3942 H 357.163 0.542328 -4.38761 0
M  V30 3943 N 356.222 1.38976 -0.743202 0
M  V30 3944 C 357.185 2.28901 -0.117014 0
M  V30 3945 C 358.185 1.46698 0.658503 0
M  V30 3946 O 359.375 1.67274 0.486305 0
M  V30 3947 C 356.507 3.30309 0.84315 0
M  V30 3948 H 357.7 2.8578 -0.909373 0
M  V30 3949 H 355.253 1.47761 -0.509547 0
M  V30 3950 H 355.988 2.785 1.66157 0
M  V30 3951 H 355.773 3.91029 0.289594 0
M  V30 3952 H 357.263 3.97577 1.2776 0
M  V30 3953 N 357.7 0.491464 1.49741 0
M  V30 3954 C 358.928 -0.0535151 2.06831 0
M  V30 3955 C 359.343 -1.31683 1.35296 0
M  V30 3956 O 358.7 -1.77402 0.42836 0
M  V30 3957 C 358.751 -0.320835 3.60073 0
M  V30 3958 O 358.472 0.892394 4.28915 0
M  V30 3959 C 359.973 -0.910519 4.33848 0
M  V30 3960 H 357.193 0.0161909 0.670805 0
M  V30 3961 H 359.737 0.68609 1.92647 0
M  V30 3962 H 357.892 -1.0104 3.73991 0
M  V30 3963 H 358.306 0.649401 5.20464 0
M  V30 3964 H 359.78 -1.04721 5.41976 0
M  V30 3965 H 360.257 -1.90589 3.95692 0
M  V30 3966 H 360.863 -0.258712 4.24512 0
M  V30 3967 N 359.178 -1.55987 0.224894 0
M  V30 3968 C 360.455 -1.90232 -0.455083 0
M  V30 3969 C 360.835 -1.14269 -1.77499 0
M  V30 3970 O 360.183 -0.253079 -2.27094 0
M  V30 3971 C 360.393 -3.42993 -0.644758 0
M  V30 3972 C 361.741 -4.13821 -0.950669 0
M  V30 3973 O 362.765 -3.4861 -0.731423 0
M  V30 3974 O 361.624 -5.29128 -1.36695 0
M  V30 3975 H 358.718 -0.79108 -0.241084 0
M  V30 3976 H 361.264 -1.67581 0.267327 0
M  V30 3977 H 360.036 -3.90252 0.28613 0
M  V30 3978 H 359.659 -3.71434 -1.41853 0
M  V30 3979 N 360.656 0.0484629 -1.57525 0
M  V30 3980 C 361.881 0.759177 -1.93006 0
M  V30 3981 C 362.306 1.69125 -0.823317 0
M  V30 3982 O 361.664 1.79931 0.222364 0
M  V30 3983 C 361.712 1.50899 -3.27509 0
M  V30 3984 O 360.816 2.62112 -3.18388 0
M  V30 3985 H 360.157 0.205564 -0.631379 0
M  V30 3986 H 362.687 0.00972959 -2.04598 0
M  V30 3987 H 362.697 1.88317 -3.6194 0
M  V30 3988 H 361.372 0.825269 -4.0763 0
M  V30 3989 H 359.949 2.27379 -2.95556 0
M  V30 3990 N 362.134 1.5431 0.320358 0
M  V30 3991 C 363.067 1.78769 1.41834 0
M  V30 3992 C 364.045 0.63783 1.49568 0
M  V30 3993 O 365.229 0.875628 1.66928 0
M  V30 3994 C 362.356 1.90712 2.79905 0
M  V30 3995 C 361.402 3.13023 2.89687 0
M  V30 3996 S 362.235 4.71554 2.53766 0
M  V30 3997 C 363.391 4.86408 3.93902 0
M  V30 3998 H 363.624 2.71619 1.20874 0
M  V30 3999 H 361.157 1.45474 0.517377 0
M  V30 4000 H 363.115 1.98279 3.59438 0
M  V30 4001 H 361.776 0.988343 2.98145 0
M  V30 4002 H 360.969 3.18124 3.90913 0
M  V30 4003 H 360.571 3.03803 2.18128 0
M  V30 4004 H 362.863 4.69241 4.88691 0
M  V30 4005 H 363.806 5.88508 3.93782 0
M  V30 4006 H 364.214 4.14689 3.83005 0
M  V30 4007 N 363.613 -0.582584 1.46437 0
M  V30 4008 C 364.56 -1.69164 1.5701 0
M  V30 4009 C 365.53 -1.60847 0.414403 0
M  V30 4010 O 366.715 -1.80058 0.631171 0
M  V30 4011 C 363.855 -3.075 1.56646 0
M  V30 4012 C 362.968 -3.2644 2.82951 0
M  V30 4013 C 362.103 -4.55026 2.7409 0
M  V30 4014 C 361.142 -4.6731 3.95333 0
M  V30 4015 N 360.279 -5.87221 3.84858 0
M  V30 4016 H 365.119 -1.59464 2.51744 0
M  V30 4017 H 362.656 -0.777186 1.24893 0
M  V30 4018 H 364.614 -3.8757 1.5442 0
M  V30 4019 H 363.244 -3.16096 0.654439 0
M  V30 4020 H 362.296 -2.39974 2.95155 0
M  V30 4021 H 363.608 -3.31385 3.72808 0
M  V30 4022 H 362.762 -5.43324 2.6997 0
M  V30 4023 H 361.501 -4.52519 1.81873 0
M  V30 4024 H 360.506 -3.77429 3.99784 0
M  V30 4025 H 361.731 -4.71595 4.88646 0
M  V30 4026 H 359.677 -5.85712 2.95427 0
M  V30 4027 H 359.594 -5.93435 4.6837 0
M  V30 4028 H 360.862 -6.7795 3.84713 0
M  V30 4029 N 365.091 -1.34144 -0.827227 0
M  V30 4030 C 366.039 -1.25364 -1.95925 0
M  V30 4031 C 367.033 -0.152608 -1.68711 0
M  V30 4032 O 368.239 -0.317311 -1.77181 0
M  V30 4033 H 364.614 -0.389342 -0.643364 0
M  V30 4034 H 366.585 -2.21045 -2.00454 0
M  V30 4035 C 365.334 -1.02158 -3.32354 0
M  V30 4036 H 364.657 -1.86111 -3.5384 0
M  V30 4037 H 366.097 -1.00048 -4.12027 0
M  V30 4038 C 364.556 0.275244 -3.35774 0
M  V30 4039 O 365.086 1.27806 -3.80826 0
M  V30 4040 N 363.292 0.306853 -2.88975 0
M  V30 4041 H 362.839 -0.509777 -2.52506 0
M  V30 4042 H 362.797 1.17432 -2.91646 0
M  V30 4043 N 366.569 1.04691 -1.17803 0
M  V30 4044 C 367.816 1.77782 -0.969532 0
M  V30 4045 C 368.144 1.87926 0.501401 0
M  V30 4046 O 367.399 1.37918 1.38842 0
M  V30 4047 C 367.698 3.21467 -1.56186 0
M  V30 4048 C 367.364 3.3137 -3.05786 0
M  V30 4049 C 366.026 3.3378 -3.46619 0
M  V30 4050 C 368.378 3.31976 -4.01797 0
M  V30 4051 C 365.706 3.34431 -4.82051 0
M  V30 4052 C 368.058 3.34167 -5.37136 0
M  V30 4053 C 366.722 3.34866 -5.77426 0
M  V30 4054 H 365.992 0.650549 -0.354777 0
M  V30 4055 H 368.639 1.23006 -1.46772 0
M  V30 4056 H 366.944 3.79203 -0.985515 0
M  V30 4057 H 368.641 3.76652 -1.37602 0
M  V30 4058 H 365.231 3.3021 -2.73238 0
M  V30 4059 H 369.415 3.29311 -3.71306 0
M  V30 4060 H 364.671 3.33285 -5.12573 0
M  V30 4061 H 368.845 3.33585 -6.11305 0
M  V30 4062 H 366.472 3.35124 -6.82346 0
M  V30 4063 N 368.047 0.979072 1.23499 0
M  V30 4064 C 369.296 0.642751 1.91185 0
M  V30 4065 C 369.609 -0.827253 1.77245 0
M  V30 4066 O 370.815 -1.27458 2.39722 0
M  V30 4067 C 369.271 1.09901 3.42709 0
M  V30 4068 C 368.879 2.59327 3.65313 0
M  V30 4069 C 370.623 0.836371 4.16179 0
M  V30 4070 C 368.53 2.98627 5.10467 0
M  V30 4071 H 367.46 0.236698 0.715884 0
M  V30 4072 H 370.111 1.1868 1.39955 0
M  V30 4073 H 368.493 0.48319 3.93041 0
M  V30 4074 H 369.667 3.26136 3.25533 0
M  V30 4075 H 367.982 2.83323 3.05151 0
M  V30 4076 H 370.579 1.10586 5.23139 0
M  V30 4077 H 370.922 -0.227509 4.15678 0
M  V30 4078 H 371.455 1.41371 3.71832 0
M  V30 4079 H 368.194 4.04133 5.16098 0
M  V30 4080 H 367.714 2.3651 5.51201 0
M  V30 4081 H 369.393 2.89159 5.78788 0
M  V30 4082 N 369.525 -1.3858 0.750561 0
M  V30 4083 C 370.457 -2.29057 0.0810714 0
M  V30 4084 C 371.47 -1.47596 -0.686973 0
M  V30 4085 O 372.659 -1.70495 -0.528563 0
M  V30 4086 C 369.759 -3.26475 -0.909247 0
M  V30 4087 C 368.932 -4.36945 -0.199478 0
M  V30 4088 C 367.991 -5.14572 -1.10011 0
M  V30 4089 O 367.017 -5.66321 -0.57177 0
M  V30 4090 N 368.219 -5.27262 -2.42849 0
M  V30 4091 H 370.984 -2.87153 0.858087 0
M  V30 4092 H 368.545 -1.50328 0.60109 0
M  V30 4093 H 370.537 -3.75285 -1.51471 0
M  V30 4094 H 369.107 -2.69298 -1.58736 0
M  V30 4095 H 368.327 -3.8981 0.586664 0
M  V30 4096 H 369.615 -5.07963 0.291783 0
M  V30 4097 H 369.013 -4.86763 -2.88233 0
M  V30 4098 H 367.57 -5.79456 -2.98453 0
M  V30 4099 N 371.003 -0.499398 -1.49478 0
M  V30 4100 C 371.95 0.279881 -2.29097 0
M  V30 4101 C 372.92 0.961805 -1.3542 0
M  V30 4102 O 374.105 0.968777 -1.64376 0
M  V30 4103 C 371.245 1.33932 -3.18051 0
M  V30 4104 C 370.358 0.669333 -4.26783 0
M  V30 4105 C 369.493 1.70907 -5.02955 0
M  V30 4106 C 368.532 1.02087 -6.03527 0
M  V30 4107 N 367.669 2.00474 -6.7287 0
M  V30 4108 H 372.509 -0.405317 -2.95231 0
M  V30 4109 H 370.046 -0.211726 -1.45568 0
M  V30 4110 H 372.004 1.96553 -3.67998 0
M  V30 4111 H 370.634 1.9933 -2.53904 0
M  V30 4112 H 369.686 -0.0701234 -3.80335 0
M  V30 4113 H 370.998 0.127503 -4.98637 0
M  V30 4114 H 370.152 2.41037 -5.56764 0
M  V30 4115 H 368.891 2.28476 -4.30871 0
M  V30 4116 H 367.896 0.305338 -5.48951 0
M  V30 4117 H 369.121 0.451708 -6.77596 0
M  V30 4118 H 367.067 2.57007 -6.03559 0
M  V30 4119 H 366.984 1.51353 -7.40694 0
M  V30 4120 H 368.252 2.69897 -7.31284 0
M  V30 4121 N 372.481 1.55866 -0.233164 0
M  V30 4122 C 373.431 2.17442 0.685774 0
M  V30 4123 C 374.415 1.12617 1.14918 0
M  V30 4124 O 375.607 1.3857 1.10124 0
M  V30 4125 C 372.736 2.86685 1.88856 0
M  V30 4126 C 371.822 3.98749 1.4443 0
M  V30 4127 N 372.213 5.00744 0.713364 0
M  V30 4128 C 370.511 4.11052 1.73068 0
M  V30 4129 C 371.212 5.79673 0.485205 0
M  V30 4130 N 370.188 5.33454 1.04536 0
M  V30 4131 H 373.99 2.93659 0.119022 0
M  V30 4132 H 371.504 1.62362 -0.0348995 0
M  V30 4133 H 373.501 3.29218 2.55776 0
M  V30 4134 H 372.161 2.11967 2.45967 0
M  V30 4135 H 373.172 5.16613 0.364861 0
M  V30 4136 H 369.849 3.47495 2.31416 0
M  V30 4137 H 371.239 6.71829 -0.097365 0
M  V30 4138 N 373.959 -0.0401083 1.57549 0
M  V30 4139 C 374.889 -1.04384 2.08869 0
M  V30 4140 C 375.87 -1.38407 0.988817 0
M  V30 4141 O 377.055 -1.47483 1.26342 0
M  V30 4142 C 374.185 -2.34808 2.55895 0
M  V30 4143 C 373.139 -2.15057 3.70047 0
M  V30 4144 C 372.465 -3.51145 4.03239 0
M  V30 4145 C 373.765 -1.54576 4.98902 0
M  V30 4146 H 375.459 -0.616666 2.92981 0
M  V30 4147 H 373.005 -0.295184 1.40942 0
M  V30 4148 H 374.958 -3.05346 2.90417 0
M  V30 4149 H 373.682 -2.79565 1.68853 0
M  V30 4150 H 372.341 -1.46954 3.35857 0
M  V30 4151 H 371.989 -3.93529 3.13279 0
M  V30 4152 H 371.689 -3.38758 4.80122 0
M  V30 4153 H 373.213 -4.23062 4.40285 0
M  V30 4154 H 374.627 -2.15017 5.31451 0
M  V30 4155 H 373.024 -1.52796 5.80322 0
M  V30 4156 H 374.094 -0.51039 4.82206 0
M  V30 4157 N 375.437 -1.54477 -0.31217 0
M  V30 4158 C 376.4 -1.83923 -1.36766 0
M  V30 4159 C 377.4 -0.711563 -1.44199 0
M  V30 4160 O 378.59 -0.979866 -1.44029 0
M  V30 4161 C 375.722 -2.0095 -2.75376 0
M  V30 4162 H 376.915 -2.78239 -1.11906 0
M  V30 4163 H 374.468 -1.46369 -0.548257 0
M  V30 4164 H 375.203 -1.08883 -3.05475 0
M  V30 4165 H 374.988 -2.83018 -2.71373 0
M  V30 4166 H 376.478 -2.2514 -3.51713 0
M  V30 4167 N 376.915 0.57481 -1.46744 0
M  V30 4168 C 378.14 1.36341 -1.56288 0
M  V30 4169 C 378.565 1.86954 -0.207347 0
M  V30 4170 O 377.923 1.62006 0.813871 0
M  V30 4171 C 377.971 2.52147 -2.57787 0
M  V30 4172 O 377.075 3.53834 -2.11838 0
M  V30 4173 H 376.416 0.405713 -0.525636 0
M  V30 4174 H 378.946 0.696453 -1.92382 0
M  V30 4175 H 378.956 2.98958 -2.77648 0
M  V30 4176 H 377.631 2.14663 -3.5622 0
M  V30 4177 H 376.208 3.1345 -2.01999 0
M  V30 4178 N 378.394 1.34581 0.820102 0
M  V30 4179 C 379.624 1.29991 1.6058 0
M  V30 4180 C 380.032 -0.127588 1.88769 0
M  V30 4181 O 379.375 -1.08595 1.48165 0
M  V30 4182 C 379.437 2.02548 2.9701 0
M  V30 4183 C 379.101 3.51794 2.91701 0
M  V30 4184 C 380.098 4.46647 2.66087 0
M  V30 4185 C 377.783 3.94249 3.11245 0
M  V30 4186 C 379.777 5.81929 2.60071 0
M  V30 4187 C 377.464 5.2963 3.04853 0
M  V30 4188 C 378.462 6.23282 2.793 0
M  V30 4189 O 378.15 7.56181 2.72847 0
M  V30 4190 H 377.882 0.448539 0.505756 0
M  V30 4191 H 380.436 1.77811 1.02822 0
M  V30 4192 H 378.666 1.49345 3.56697 0
M  V30 4193 H 380.355 1.91211 3.58041 0
M  V30 4194 H 381.121 4.15168 2.5072 0
M  V30 4195 H 377 3.21749 3.30149 0
M  V30 4196 H 380.544 6.54999 2.40046 0
M  V30 4197 H 376.441 5.60727 3.19774 0
M  V30 4198 H 377.209 7.6595 2.88553 0
M  V30 4199 N 379.872 -1.04064 1.18357 0
M  V30 4200 C 381.1 -1.80916 1.00384 0
M  V30 4201 C 381.515 -1.83414 -0.447738 0
M  V30 4202 O 380.872 -1.26962 -1.31099 0
M  V30 4203 C 380.923 -3.26516 1.55144 0
M  V30 4204 O 380.644 -3.2424 2.94618 0
M  V30 4205 C 382.145 -4.20013 1.41789 0
M  V30 4206 H 379.365 -0.569728 0.354474 0
M  V30 4207 H 381.909 -1.31151 1.56906 0
M  V30 4208 H 380.064 -3.73512 1.02798 0
M  V30 4209 H 380.478 -4.15452 3.20156 0
M  V30 4210 H 381.952 -5.20111 1.84901 0
M  V30 4211 H 382.429 -4.37667 0.36661 0
M  V30 4212 H 383.035 -3.78881 1.93207 0
M  V30 4213 N 381.35 -0.985608 -1.22978 0
M  V30 4214 C 382.598 -0.656087 -1.91154 0
M  V30 4215 C 382.919 0.813561 -1.77218 0
M  V30 4216 O 382.189 1.58244 -1.1548 0
M  V30 4217 H 380.769 -0.239674 -0.707506 0
M  V30 4218 H 383.431 -1.25054 -1.49491 0
M  V30 4219 H 382.527 -0.912253 -2.9847 0
M  V30 4220 N 382.828 1.3818 -0.7579 0
M  V30 4221 C 384.056 2.04301 -0.326937 0
M  V30 4222 C 384.471 1.57163 1.0462 0
M  V30 4223 O 383.828 0.746626 1.66529 0
M  V30 4224 C 383.879 3.59846 -0.345363 0
M  V30 4225 O 383.6 4.05256 -1.66432 0
M  V30 4226 C 385.101 4.4319 0.098927 0
M  V30 4227 H 382.321 0.656443 -0.139012 0
M  V30 4228 H 384.865 1.76786 -1.02796 0
M  V30 4229 H 383.02 3.86182 0.306955 0
M  V30 4230 H 383.434 4.99709 -1.59345 0
M  V30 4231 H 384.908 5.51989 0.0348745 0
M  V30 4232 H 385.385 4.23947 1.14741 0
M  V30 4233 H 385.991 4.22051 -0.52468 0
M  V30 4234 N 384.306 0.507319 1.49211 0
M  V30 4235 C 385.534 -0.0315749 2.06876 0
M  V30 4236 C 385.949 -1.30241 1.36685 0
M  V30 4237 O 385.306 -1.76937 0.447152 0
M  V30 4238 C 385.357 -0.282627 3.60393 0
M  V30 4239 O 385.078 0.937835 4.27944 0
M  V30 4240 C 386.579 -0.864453 4.3479 0
M  V30 4241 H 383.799 0.0233048 0.670595 0
M  V30 4242 H 386.343 0.706484 1.91909 0
M  V30 4243 H 384.498 -0.97068 3.75042 0
M  V30 4244 H 384.912 0.704567 5.19746 0
M  V30 4245 H 386.386 -0.989664 5.43056 0
M  V30 4246 H 386.863 -1.86382 3.97692 0
M  V30 4247 H 387.469 -0.213672 4.24763 0
M  V30 4248 N 385.784 -1.5574 0.241426 0
M  V30 4249 C 387.033 -1.97986 -0.385295 0
M  V30 4250 C 387.346 -1.13267 -1.59468 0
M  V30 4251 O 388.552 -1.45501 -2.2922 0
M  V30 4252 C 387.008 -3.52275 -0.736884 0
M  V30 4253 C 386.616 -4.45726 0.450796 0
M  V30 4254 C 388.36 -4.03189 -1.3281 0
M  V30 4255 C 386.267 -5.91352 0.0756662 0
M  V30 4256 H 385.197 -0.739386 -0.147731 0
M  V30 4257 H 387.848 -1.80308 0.340779 0
M  V30 4258 H 386.23 -3.65628 -1.52094 0
M  V30 4259 H 387.404 -4.44131 1.22819 0
M  V30 4260 H 385.719 -4.05264 0.956573 0
M  V30 4261 H 388.316 -5.09505 -1.62201 0
M  V30 4262 H 388.659 -3.50212 -2.25071 0
M  V30 4263 H 389.192 -3.93141 -0.607069 0
M  V30 4264 H 385.931 -6.48354 0.965272 0
M  V30 4265 H 385.451 -5.96095 -0.665635 0
M  V30 4266 H 387.13 -6.46084 -0.344075 0
M  V30 4267 N 387.262 0.0317525 -1.57568 0
M  V30 4268 C 388.172 1.05021 -2.0978 0
M  V30 4269 C 389.188 1.39809 -1.03583 0
M  V30 4270 O 390.364 1.49182 -1.35302 0
M  V30 4271 C 387.429 2.33301 -2.56459 0
M  V30 4272 C 386.49 2.0512 -3.77127 0
M  V30 4273 C 385.723 3.27283 -4.2157 0
M  V30 4274 O 385.946 4.37861 -3.65559 0
M  V30 4275 O 384.88 3.13141 -5.14029 0
M  V30 4276 H 388.706 0.636505 -2.96955 0
M  V30 4277 H 386.291 0.248559 -1.47318 0
M  V30 4278 H 388.173 3.08722 -2.86825 0
M  V30 4279 H 386.848 2.73973 -1.72397 0
M  V30 4280 H 385.755 1.27276 -3.51784 0
M  V30 4281 H 387.088 1.69305 -4.62165 0
M  V30 4282 N 388.74 1.54641 0.303973 0
M  V30 4283 C 389.988 1.73437 1.0375 0
M  V30 4284 C 390.309 0.521449 1.87899 0
M  V30 4285 O 389.579 -0.46432 1.90318 0
M  V30 4286 H 388.159 0.639518 0.386039 0
M  V30 4287 H 390.821 1.91988 0.335675 0
M  V30 4288 H 389.917 2.62235 1.69231 0
M  V30 4289 N 390.218 -0.567019 1.47046 0
M  V30 4290 C 391.465 -1.32462 1.53167 0
M  V30 4291 C 391.793 -1.93571 0.189841 0
M  V30 4292 O 391.048 -1.77865 -0.816243 0
M  V30 4293 C 391.347 -2.4623 2.59047 0
M  V30 4294 C 391.013 -2.03014 4.02612 0
M  V30 4295 C 389.675 -1.90944 4.41694 0
M  V30 4296 C 392.027 -1.69895 4.92732 0
M  V30 4297 C 389.355 -1.44035 5.68745 0
M  V30 4298 C 391.707 -1.2446 6.20236 0
M  V30 4299 C 390.371 -1.10979 6.5821 0
M  V30 4300 H 389.641 -0.484713 0.560477 0
M  V30 4301 H 392.288 -0.636888 1.80599 0
M  V30 4302 H 390.593 -3.20517 2.25335 0
M  V30 4303 H 392.29 -3.04427 2.61008 0
M  V30 4304 H 388.88 -2.13348 3.71726 0
M  V30 4305 H 393.064 -1.78098 4.63244 0
M  V30 4306 H 388.32 -1.32254 5.96925 0
M  V30 4307 H 392.494 -0.978924 6.89485 0
M  V30 4308 H 390.121 -0.744078 7.5655 0
M  V30 4309 N 391.696 -1.35014 -0.812953 0
M  V30 4310 C 392.626 -1.30069 -1.93919 0
M  V30 4311 C 393.607 -0.176275 -1.69184 0
M  V30 4312 O 394.792 -0.370227 -1.90638 0
M  V30 4313 C 391.922 -1.06547 -3.30552 0
M  V30 4314 C 390.876 -2.15561 -3.69753 0
M  V30 4315 C 390.202 -1.77214 -5.04479 0
M  V30 4316 C 391.502 -3.57476 -3.808 0
M  V30 4317 H 393.196 -2.24303 -1.98314 0
M  V30 4318 H 390.742 -1.07977 -0.952736 0
M  V30 4319 H 392.695 -1.01729 -4.08937 0
M  V30 4320 H 391.419 -0.0875719 -3.26483 0
M  V30 4321 H 390.078 -2.19466 -2.9365 0
M  V30 4322 H 389.726 -0.780589 -4.96906 0
M  V30 4323 H 389.426 -2.50184 -5.31678 0
M  V30 4324 H 390.95 -1.7391 -5.8531 0
M  V30 4325 H 392.364 -3.55929 -4.4943 0
M  V30 4326 H 390.761 -4.29152 -4.19462 0
M  V30 4327 H 391.831 -3.94091 -2.82525 0
M  V30 4328 N 393.175 1.03435 -1.18907 0
M  V30 4329 C 394.085 2.15075 -0.937015 0
M  V30 4330 C 395.101 1.73706 0.101085 0
M  V30 4331 O 396.277 2.01232 -0.0822948 0
M  V30 4332 C 393.342 3.43458 -0.473057 0
M  V30 4333 C 392.403 3.99172 -1.57989 0
M  V30 4334 C 391.636 5.21427 -1.13797 0
M  V30 4335 O 391.859 5.704 0.000725941 0
M  V30 4336 O 390.793 5.69837 -1.9383 0
M  V30 4337 H 394.619 2.39198 -1.87131 0
M  V30 4338 H 392.204 1.13506 -0.971427 0
M  V30 4339 H 394.086 4.20811 -0.222702 0
M  V30 4340 H 392.761 3.20793 0.432869 0
M  V30 4341 H 391.668 3.23178 -1.88433 0
M  V30 4342 H 393.001 4.2619 -2.46217 0
M  V30 4343 N 394.653 0.992116 1.22453 0
M  V30 4344 C 395.883 0.684949 1.94915 0
M  V30 4345 C 396.291 -0.754292 1.73514 0
M  V30 4346 O 395.634 -1.52056 1.03076 0
M  V30 4347 C 395.696 0.910054 3.47791 0
M  V30 4348 C 395.36 2.33363 3.92926 0
M  V30 4349 C 396.357 3.31308 4.00663 0
M  V30 4350 C 394.042 2.66785 4.25595 0
M  V30 4351 C 396.036 4.6075 4.40441 0
M  V30 4352 C 393.723 3.96446 4.65053 0
M  V30 4353 C 394.721 4.9324 4.72444 0
M  V30 4354 O 394.409 6.20584 5.1101 0
M  V30 4355 H 394.141 0.25258 0.62704 0
M  V30 4356 H 396.695 1.32939 1.56577 0
M  V30 4357 H 394.925 0.208443 3.86138 0
M  V30 4358 H 396.614 0.598257 4.01467 0
M  V30 4359 H 397.38 3.0682 3.75615 0
M  V30 4360 H 393.259 1.92148 4.19047 0
M  V30 4361 H 396.803 5.363 4.46126 0
M  V30 4362 H 392.7 4.20724 4.89552 0
M  V30 4363 H 393.468 6.24509 5.29085 0
M  V30 4364 N 396.131 -1.37776 0.765217 0
M  V30 4365 C 397.377 -2.00145 0.327072 0
M  V30 4366 C 397.71 -1.60607 -1.09175 0
M  V30 4367 O 396.985 -0.849127 -1.74986 0
M  V30 4368 C 397.268 -3.57109 0.46319 0
M  V30 4369 C 397.121 -4.06576 1.92395 0
M  V30 4370 C 398.44 -4.39888 -0.136473 0
M  V30 4371 H 395.559 -0.727113 0.120316 0
M  V30 4372 H 398.201 -1.63549 0.967039 0
M  V30 4373 H 396.351 -3.88414 -0.0816358 0
M  V30 4374 H 398.023 -3.85864 2.52798 0
M  V30 4375 H 396.266 -3.59011 2.43503 0
M  V30 4376 H 396.937 -5.15639 1.97028 0
M  V30 4377 H 399.413 -4.14803 0.328317 0
M  V30 4378 H 398.289 -5.48899 -0.0110582 0
M  V30 4379 H 398.55 -4.24758 -1.22608 0
M  V30 4380 N 397.609 -0.515225 -1.4894 0
M  V30 4381 C 398.572 0.244681 -2.2789 0
M  V30 4382 C 399.572 0.881166 -1.34507 0
M  V30 4383 O 400.762 0.743497 -1.57537 0
M  V30 4384 C 397.894 1.35247 -3.12923 0
M  V30 4385 H 399.087 -0.448289 -2.96531 0
M  V30 4386 H 396.64 -0.270656 -1.53939 0
M  V30 4387 H 397.375 2.07916 -2.48881 0
M  V30 4388 H 397.16 0.901374 -3.81599 0
M  V30 4389 H 398.65 1.88737 -3.72516 0
M  V30 4390 N 399.087 1.5561 -0.249682 0
M  V30 4391 C 400.315 2.03411 0.378352 0
M  V30 4392 C 400.73 1.12886 1.51335 0
M  V30 4393 O 400.087 0.143833 1.81932 0
M  V30 4394 C 400.138 3.50537 0.88351 0
M  V30 4395 O 399.859 4.37614 -0.20626 0
M  V30 4396 C 401.36 4.14113 1.58195 0
M  V30 4397 H 398.58 0.664994 0.08958 0
M  V30 4398 H 401.124 2.01044 -0.374357 0
M  V30 4399 H 399.279 3.5343 1.58639 0
M  V30 4400 H 399.693 5.24199 0.177782 0
M  V30 4401 H 401.167 5.18741 1.8871 0
M  V30 4402 H 401.644 3.60767 2.50487 0
M  V30 4403 H 402.25 4.15151 0.923573 0
M  V30 4404 N 400.565 -0.0233959 1.57583 0
M  V30 4405 C 401.79 -0.728376 1.94189 0
M  V30 4406 C 402.215 -1.67793 0.850119 0
M  V30 4407 O 401.573 -1.80262 -0.19371 0
M  V30 4408 C 401.621 -1.45669 3.29868 0
M  V30 4409 O 400.725 -2.57013 3.22518 0
M  V30 4410 H 400.066 -0.195493 0.63457 0
M  V30 4411 H 402.596 0.0228214 2.04587 0
M  V30 4412 H 402.606 -1.82535 3.6489 0
M  V30 4413 H 401.281 -0.760314 4.08891 0
M  V30 4414 H 399.858 -2.22648 2.99136 0
M  V30 4415 N 402.043 -1.548 -0.295768 0
M  V30 4416 C 403.29 -1.74329 -1.03032 0
M  V30 4417 C 403.618 -0.531915 -1.87085 0
M  V30 4418 O 402.873 0.486052 -1.89568 0
M  V30 4419 C 403.172 -2.98797 -1.961 0
M  V30 4420 C 402.838 -4.32356 -1.2798 0
M  V30 4421 C 401.5 -4.68661 -1.09135 0
M  V30 4422 C 403.852 -5.15128 -0.793243 0
M  V30 4423 C 401.18 -5.85312 -0.403269 0
M  V30 4424 C 403.532 -6.32488 -0.118854 0
M  V30 4425 C 402.196 -6.6745 0.0815043 0
M  V30 4426 H 401.466 -0.637916 -0.37702 0
M  V30 4427 H 404.113 -1.8906 -0.304696 0
M  V30 4428 H 402.418 -2.78869 -2.75207 0
M  V30 4429 H 404.115 -3.11102 -2.53015 0
M  V30 4430 H 400.705 -4.03808 -1.43655 0
M  V30 4431 H 404.889 -4.87575 -0.92653 0
M  V30 4432 H 400.145 -6.1094 -0.237098 0
M  V30 4433 H 404.319 -6.95892 0.266035 0
M  V30 4434 H 401.946 -7.57695 0.616685 0
M  V30 4435 N 403.521 0.559213 -1.47345 0
M  V30 4436 C 404.451 1.67622 -1.62558 0
M  V30 4437 C 405.432 1.63331 -0.475087 0
M  V30 4438 O 406.617 1.80983 -0.704182 0
M  V30 4439 C 403.747 3.0626 -1.63774 0
M  V30 4440 C 402.701 3.25397 -2.7803 0
M  V30 4441 C 402.027 4.64801 -2.64318 0
M  V30 4442 C 403.327 3.10965 -4.19641 0
M  V30 4443 H 405.021 1.55146 -2.56067 0
M  V30 4444 H 402.567 0.744961 -1.23233 0
M  V30 4445 H 404.52 3.84247 -1.73008 0
M  V30 4446 H 403.244 3.1969 -0.66825 0
M  V30 4447 H 401.903 2.49817 -2.68304 0
M  V30 4448 H 401.551 4.75028 -1.65401 0
M  V30 4449 H 401.251 4.78555 -3.40968 0
M  V30 4450 H 402.775 5.44926 -2.75478 0
M  V30 4451 H 404.189 3.78772 -4.30354 0
M  V30 4452 H 402.586 3.36229 -4.97062 0
M  V30 4453 H 403.656 2.07736 -4.38148 0
M  V30 4454 N 404.999 1.35443 0.805782 0
M  V30 4455 C 405.946 1.28431 1.91766 0
M  V30 4456 C 406.916 0.156102 1.65365 0
M  V30 4457 O 408.101 0.339936 1.87747 0
M  V30 4458 C 405.241 1.06301 3.2832 0
M  V30 4459 C 404.354 2.2805 3.66902 0
M  V30 4460 C 403.489 1.99064 4.92491 0
M  V30 4461 C 402.528 3.16863 5.23703 0
M  V30 4462 N 401.665 2.87647 6.40471 0
M  V30 4463 H 406.505 2.23511 1.97096 0
M  V30 4464 H 404.042 1.11105 0.964054 0
M  V30 4465 H 406 0.915012 4.07042 0
M  V30 4466 H 404.63 0.148822 3.22457 0
M  V30 4467 H 403.682 2.53711 2.83434 0
M  V30 4468 H 404.994 3.1601 3.85927 0
M  V30 4469 H 404.148 1.81099 5.7904 0
M  V30 4470 H 402.887 1.0839 4.75503 0
M  V30 4471 H 401.892 3.35404 4.35642 0
M  V30 4472 H 403.117 4.08339 5.4262 0
M  V30 4473 H 401.063 1.99568 6.24907 0
M  V30 4474 H 400.98 3.69141 6.59751 0
M  V30 4475 H 402.248 2.73226 7.30047 0
M  V30 4476 N 406.477 -1.02803 1.19454 0
M  V30 4477 C 407.424 -2.11099 0.933046 0
M  V30 4478 C 408.394 -1.65571 -0.132447 0
M  V30 4479 O 409.579 -1.90797 0.00987576 0
M  V30 4480 C 406.719 -3.41763 0.478747 0
M  V30 4481 C 405.832 -4.00833 1.6111 0
M  V30 4482 C 404.967 -5.19511 1.10825 0
M  V30 4483 C 404.006 -5.70639 2.21445 0
M  V30 4484 N 403.143 -6.80589 1.72461 0
M  V30 4485 H 407.983 -2.32804 1.86028 0
M  V30 4486 H 405.52 -1.14179 0.927441 0
M  V30 4487 H 407.478 -4.16736 0.196745 0
M  V30 4488 H 406.108 -3.20166 -0.411493 0
M  V30 4489 H 405.16 -3.23066 2.00829 0
M  V30 4490 H 406.472 -4.34794 2.4445 0
M  V30 4491 H 405.626 -6.01645 0.781533 0
M  V30 4492 H 404.365 -4.87086 0.244606 0
M  V30 4493 H 403.37 -4.87116 2.54947 0
M  V30 4494 H 404.595 -6.05102 3.08267 0
M  V30 4495 H 402.541 -6.50016 0.884056 0
M  V30 4496 H 402.458 -7.13681 2.49389 0
M  V30 4497 H 403.726 -7.66317 1.42755 0
M  V30 4498 N 407.956 -0.998596 -1.21925 0
M  V30 4499 C 409.186 -0.695276 -1.94549 0
M  V30 4500 C 409.594 0.745079 -1.73911 0
M  V30 4501 O 408.937 1.51507 -1.03881 0
M  V30 4502 C 408.999 -0.928485 -3.47303 0
M  V30 4503 C 408.663 -2.35443 -3.91683 0
M  V30 4504 C 409.66 -3.33428 -3.98901 0
M  V30 4505 C 407.345 -2.69038 -4.24174 0
M  V30 4506 C 409.339 -4.63079 -4.37992 0
M  V30 4507 C 407.026 -3.98906 -4.62944 0
M  V30 4508 C 408.024 -4.95738 -4.69822 0
M  V30 4509 O 407.712 -6.23285 -5.07711 0
M  V30 4510 H 407.444 -0.255902 -0.625692 0
M  V30 4511 H 409.998 -1.33767 -1.5587 0
M  V30 4512 H 408.228 -0.228917 -3.86022 0
M  V30 4513 H 409.917 -0.619539 -4.01144 0
M  V30 4514 H 410.683 -3.08807 -3.73983 0
M  V30 4515 H 406.562 -1.94367 -4.18022 0
M  V30 4516 H 410.106 -5.38658 -4.43275 0
M  V30 4517 H 406.003 -4.23314 -4.87314 0
M  V30 4518 H 406.771 -6.27306 -5.25766 0
M  V30 4519 N 409.434 1.37368 -0.772513 0
M  V30 4520 C 410.659 2.0447 -0.347386 0
M  V30 4521 C 411.084 1.57882 1.0225 0
M  V30 4522 O 410.442 0.73941 1.65537 0
M  V30 4523 C 410.49 3.58369 -0.400479 0
M  V30 4524 O 409.594 4.0803 0.598789 0
M  V30 4525 H 408.935 0.646773 -0.15027 0
M  V30 4526 H 411.465 1.75667 -1.04892 0
M  V30 4527 H 411.475 4.07183 -0.258045 0
M  V30 4528 H 410.15 3.91633 -1.39986 0
M  V30 4529 H 408.727 3.70534 0.419411 0
M  V30 4530 N 410.912 0.523116 1.48665 0
M  V30 4531 C 411.862 -0.263106 2.26477 0
M  V30 4532 C 412.846 -0.916005 1.32281 0
M  V30 4533 O 414.038 -0.819946 1.56863 0
M  V30 4534 C 411.167 -1.31361 3.17174 0
M  V30 4535 C 410.253 -0.665849 4.1884 0
M  V30 4536 N 410.644 0.244434 5.05209 0
M  V30 4537 C 408.942 -0.923863 4.36326 0
M  V30 4538 C 409.643 0.617443 5.78414 0
M  V30 4539 N 408.619 -0.0198686 5.43596 0
M  V30 4540 H 412.421 0.437295 2.90629 0
M  V30 4541 H 409.935 0.340675 1.58787 0
M  V30 4542 H 411.932 -1.89052 3.71571 0
M  V30 4543 H 410.592 -2.01546 2.54576 0
M  V30 4544 H 411.603 0.616621 5.14216 0
M  V30 4545 H 408.28 -1.6168 3.84923 0
M  V30 4546 H 409.67 1.36346 6.57921 0
M  V30 4547 N 412.39 -1.55475 0.257931 0
M  V30 4548 C 413.639 -1.98383 -0.364275 0
M  V30 4549 C 413.952 -1.14952 -1.58258 0
M  V30 4550 O 415.158 -1.47924 -2.27664 0
M  V30 4551 C 413.614 -3.53037 -0.699479 0
M  V30 4552 C 413.222 -4.45223 0.498046 0
M  V30 4553 C 414.966 -4.04575 -1.28526 0
M  V30 4554 C 412.873 -5.91238 0.138383 0
M  V30 4555 H 411.803 -0.740911 -0.13988 0
M  V30 4556 H 414.454 -1.79936 0.359883 0
M  V30 4557 H 412.836 -3.6722 -1.48207 0
M  V30 4558 H 414.01 -4.42803 1.27522 0
M  V30 4559 H 412.325 -4.04226 0.999503 0
M  V30 4560 H 414.922 -5.11196 -1.56788 0
M  V30 4561 H 415.265 -3.5258 -2.21344 0
M  V30 4562 H 415.798 -3.93762 -0.565337 0
M  V30 4563 H 412.537 -6.47294 1.03398 0
M  V30 4564 H 412.057 -5.96768 -0.602374 0
M  V30 4565 H 413.736 -6.46413 -0.27553 0
M  V30 4566 N 413.868 0.0150385 -1.57593 0
M  V30 4567 C 414.778 1.02791 -2.10882 0
M  V30 4568 C 415.794 1.38702 -1.0506 0
M  V30 4569 O 416.97 1.47739 -1.36877 0
M  V30 4570 C 414.035 2.30568 -2.58919 0
M  V30 4571 C 413.096 2.01108 -3.79281 0
M  V30 4572 C 412.329 3.22794 -4.25018 0
M  V30 4573 O 412.552 4.33959 -3.70183 0
M  V30 4574 O 411.486 3.07672 -5.17322 0
M  V30 4575 H 415.312 0.604973 -2.97613 0
M  V30 4576 H 412.897 0.23292 -1.47573 0
M  V30 4577 H 414.779 3.05662 -2.90084 0
M  V30 4578 H 413.454 2.72129 -1.75293 0
M  V30 4579 H 412.361 1.23537 -3.53114 0
M  V30 4580 H 413.694 1.64394 -4.63935 0
M  V30 4581 N 415.346 1.54954 0.287554 0
M  V30 4582 C 416.293 1.86834 1.35505 0
M  V30 4583 C 417.263 0.718452 1.49758 0
M  V30 4584 O 418.448 0.968358 1.644 0
M  V30 4585 C 415.588 2.13303 2.71286 0
M  V30 4586 C 414.701 3.40883 2.65373 0
M  V30 4587 C 413.836 3.57125 3.93236 0
M  V30 4588 C 412.875 4.78449 3.81776 0
M  V30 4589 N 412.012 4.91426 5.01443 0
M  V30 4590 H 416.852 2.77889 1.07619 0
M  V30 4591 H 414.389 1.37593 0.520241 0
M  V30 4592 H 416.347 2.26646 3.50267 0
M  V30 4593 H 414.977 1.25499 2.97405 0
M  V30 4594 H 414.029 3.36088 1.78182 0
M  V30 4595 H 415.341 4.29993 2.52799 0
M  V30 4596 H 414.495 3.70207 4.80658 0
M  V30 4597 H 413.234 2.66173 4.0866 0
M  V30 4598 H 412.239 4.65386 2.92738 0
M  V30 4599 H 413.464 5.70822 3.67884 0
M  V30 4600 H 411.41 4.03401 5.17304 0
M  V30 4601 H 411.327 5.74559 4.91343 0
M  V30 4602 H 412.595 5.08879 5.90477 0
M  V30 4603 N 416.824 -0.551391 1.4764 0
M  V30 4604 C 418.073 -1.30467 1.53822 0
M  V30 4605 C 418.386 -1.94495 0.207661 0
M  V30 4606 O 419.592 -2.71099 0.147533 0
M  V30 4607 C 418.048 -2.36616 2.71184 0
M  V30 4608 C 417.656 -1.78754 4.10793 0
M  V30 4609 C 419.4 -3.13088 2.86663 0
M  V30 4610 C 417.307 -2.82717 5.19447 0
M  V30 4611 H 416.237 -0.490584 0.572576 0
M  V30 4612 H 418.888 -0.58494 1.73927 0
M  V30 4613 H 417.27 -3.11529 2.4447 0
M  V30 4614 H 418.444 -1.10173 4.47435 0
M  V30 4615 H 416.759 -1.14846 4.00249 0
M  V30 4616 H 419.356 -3.90736 3.65007 0
M  V30 4617 H 419.699 -3.67635 1.95321 0
M  V30 4618 H 420.232 -2.45288 3.13175 0
M  V30 4619 H 416.971 -2.33018 6.12685 0
M  V30 4620 H 416.491 -3.4969 4.87316 0
M  V30 4621 H 418.17 -3.46102 5.46646 0
M  V30 4622 N 418.302 -1.35869 -0.798587 0
M  V30 4623 C 419.527 -1.32883 -1.59238 0
M  V30 4624 C 419.952 0.0894587 -1.87887 0
M  V30 4625 O 419.31 1.05869 -1.47178 0
M  V30 4626 C 419.358 -2.14892 -2.89575 0
M  V30 4627 O 418.462 -1.53512 -3.82763 0
M  V30 4628 H 417.803 -0.455236 -0.48338 0
M  V30 4629 H 420.333 -1.79024 -0.990539 0
M  V30 4630 H 420.343 -2.27139 -3.38928 0
M  V30 4631 H 419.018 -3.17998 -2.68049 0
M  V30 4632 H 417.595 -1.50153 -3.41334 0
M  V30 4633 N 419.78 1.02168 -1.19998 0
M  V30 4634 C 420.71 2.12488 -0.96804 0
M  V30 4635 C 421.691 1.69799 0.101185 0
M  V30 4636 O 422.876 1.94121 -0.0552993 0
M  V30 4637 C 420.006 3.43479 -0.513776 0
M  V30 4638 C 418.96 3.99884 -1.52566 0
M  V30 4639 C 418.286 5.26582 -0.928214 0
M  V30 4640 C 419.586 4.33861 -2.90795 0
M  V30 4641 H 421.28 2.32149 -1.89069 0
M  V30 4642 H 418.826 1.11564 -0.910468 0
M  V30 4643 H 420.779 4.20036 -0.338774 0
M  V30 4644 H 419.503 3.23561 0.444493 0
M  V30 4645 H 418.162 3.25429 -1.68794 0
M  V30 4646 H 417.81 5.02986 0.0378289 0
M  V30 4647 H 417.51 5.65284 -1.60397 0
M  V30 4648 H 419.034 6.05799 -0.764167 0
M  V30 4649 H 420.448 5.01327 -2.78109 0
M  V30 4650 H 418.845 4.83664 -3.55231 0
M  V30 4651 H 419.915 3.42848 -3.42904 0
M  V30 4652 N 421.258 1.00505 1.21394 0
M  V30 4653 C 422.507 0.683159 1.89778 0
M  V30 4654 C 422.82 -0.789471 1.7896 0
M  V30 4655 O 424.026 -1.22344 2.42372 0
M  V30 4656 C 422.482 1.17146 3.40301 0
M  V30 4657 C 422.09 2.67017 3.5973 0
M  V30 4658 C 423.834 0.924461 4.14311 0
M  V30 4659 C 421.741 3.09387 5.04017 0
M  V30 4660 H 420.671 0.25183 0.710702 0
M  V30 4661 H 423.322 1.21622 1.37406 0
M  V30 4662 H 421.704 0.566451 3.91928 0
M  V30 4663 H 422.878 3.32968 3.18542 0
M  V30 4664 H 421.193 2.89732 2.99073 0
M  V30 4665 H 423.79 1.21658 5.20676 0
M  V30 4666 H 424.133 -0.139286 4.16067 0
M  V30 4667 H 424.666 1.49226 3.6875 0
M  V30 4668 H 421.405 4.14989 5.07409 0
M  V30 4669 H 420.925 2.48149 5.46061 0
M  V30 4670 H 422.604 3.01371 5.72525 0
M  V30 4671 N 422.737 -1.36956 0.779787 0
M  V30 4672 C 423.985 -1.99097 0.347079 0
M  V30 4673 C 424.306 -1.62206 -1.08232 0
M  V30 4674 O 423.576 -0.891373 -1.74446 0
M  V30 4675 H 422.156 -0.736409 0.125342 0
M  V30 4676 H 424.818 -1.67308 0.999696 0
M  V30 4677 H 423.914 -3.09107 0.431162 0
M  V30 4678 N 424.215 -0.530993 -1.48385 0
M  V30 4679 C 425.125 0.23503 -2.3342 0
M  V30 4680 C 426.141 0.93801 -1.46552 0
M  V30 4681 O 427.317 0.912745 -1.7953 0
M  V30 4682 C 424.382 1.26778 -3.22689 0
M  V30 4683 C 423.443 0.575038 -4.25431 0
M  V30 4684 C 422.676 1.55858 -5.10435 0
M  V30 4685 O 422.899 2.79129 -4.97437 0
M  V30 4686 O 421.833 1.09742 -5.91811 0
M  V30 4687 H 425.659 -0.461794 -3.00169 0
M  V30 4688 H 423.244 -0.291903 -1.46521 0
M  V30 4689 H 425.126 1.86457 -3.77904 0
M  V30 4690 H 423.801 1.94699 -2.586 0
M  V30 4691 H 422.708 -0.0622782 -3.74048 0
M  V30 4692 H 424.041 -0.062253 -4.92161 0
M  V30 4693 N 425.693 1.55336 -0.266172 0
M  V30 4694 C 426.603 2.2583 0.635458 0
M  V30 4695 C 427.619 1.28106 1.17749 0
M  V30 4696 O 428.795 1.61024 1.20968 0
M  V30 4697 C 425.86 2.95879 1.80712 0
M  V30 4698 C 424.921 4.09059 1.30265 0
M  V30 4699 C 424.154 4.75759 2.41846 0
M  V30 4700 O 424.377 4.41622 3.61007 0
M  V30 4701 O 423.311 5.63888 2.1051 0
M  V30 4702 H 427.137 3.03631 0.0646693 0
M  V30 4703 H 424.722 1.49361 -0.0339177 0
M  V30 4704 H 426.604 3.39932 2.49047 0
M  V30 4705 H 425.279 2.21002 2.36516 0
M  V30 4706 H 424.186 3.69482 0.586019 0
M  V30 4707 H 425.519 4.85811 0.790458 0
M  V30 4708 N 427.171 -0.0066808 1.57599 0
M  V30 4709 C 428.42 -0.692078 1.89455 0
M  V30 4710 C 428.733 -1.75306 0.867586 0
M  V30 4711 O 429.939 -2.49262 1.07614 0
M  V30 4712 C 428.395 -1.2821 3.36289 0
M  V30 4713 C 428.003 -0.256291 4.47266 0
M  V30 4714 C 429.747 -1.94608 3.77264 0
M  V30 4715 C 427.654 -0.855927 5.85173 0
M  V30 4716 H 426.584 -0.262252 0.706923 0
M  V30 4717 H 429.235 0.052769 1.83424 0
M  V30 4718 H 427.617 -2.0774 3.37135 0
M  V30 4719 H 428.791 0.513923 4.57925 0
M  V30 4720 H 427.106 0.306862 4.15268 0
M  V30 4721 H 429.703 -2.40364 4.77629 0
M  V30 4722 H 430.046 -2.77382 3.10427 0
M  V30 4723 H 430.579 -1.21822 3.78688 0
M  V30 4724 H 427.318 -0.0671161 6.55466 0
M  V30 4725 H 426.838 -1.59546 5.78191 0
M  V30 4726 H 428.517 -1.35658 6.32618 0
M  V30 4727 N 428.649 -1.55105 -0.279332 0
M  V30 4728 C 430.06 -1.66186 -0.850832 0
M  V30 4729 C 430.411 -0.584707 -1.87285 0
M  V30 4730 O 429.536 0.274919 -2.14647 0
M  V30 4731 C 430.131 -3.01264 -1.55001 0
M  V30 4732 C 428.69 -3.14394 -2.06963 0
M  V30 4733 C 427.837 -2.61959 -0.909536 0
M  V30 4734 H 430.788 -1.58602 -0.0558235 0
M  V30 4735 H 430.809 -2.93899 -2.41669 0
M  V30 4736 H 430.321 -3.7964 -0.805931 0
M  V30 4737 H 428.422 -2.4078 -2.84352 0
M  V30 4738 H 428.535 -4.20867 -2.28928 0
M  V30 4739 H 426.899 -2.18957 -1.30116 0
M  V30 4740 H 427.682 -3.42833 -0.179062 0
M  V30 4741 N 430.127 0.543554 -1.4793 0
M  V30 4742 C 431.374 1.30008 -1.55255 0
M  V30 4743 C 431.702 1.93245 -0.220612 0
M  V30 4744 O 430.957 1.79141 0.787843 0
M  V30 4745 C 431.256 2.42078 -2.62932 0
M  V30 4746 C 430.922 1.96583 -4.0579 0
M  V30 4747 C 429.584 1.83893 -4.44676 0
M  V30 4748 C 431.936 1.62034 -4.95373 0
M  V30 4749 C 429.264 1.34969 -5.70964 0
M  V30 4750 C 431.616 1.14577 -6.22137 0
M  V30 4751 C 430.28 1.00493 -6.59892 0
M  V30 4752 H 429.55 0.475735 -0.568117 0
M  V30 4753 H 432.197 0.608075 -1.81589 0
M  V30 4754 H 430.502 3.16892 -2.30406 0
M  V30 4755 H 432.199 3.00236 -2.65818 0
M  V30 4756 H 428.789 2.07407 -3.75074 0
M  V30 4757 H 432.973 1.70705 -4.66019 0
M  V30 4758 H 428.229 1.2274 -5.98953 0
M  V30 4759 H 432.403 0.869109 -6.90955 0
M  V30 4760 H 430.03 0.623624 -7.57638 0
M  V30 4761 N 431.605 1.3629 0.791371 0
M  V30 4762 C 432.515 1.32606 1.93527 0
M  V30 4763 C 433.531 0.228541 1.72493 0
M  V30 4764 O 434.707 0.460571 1.96063 0
M  V30 4765 C 431.772 1.11271 3.28359 0
M  V30 4766 C 430.833 2.3048 3.62185 0
M  V30 4767 C 430.066 2.10154 4.90583 0
M  V30 4768 O 430.289 1.07572 5.60165 0
M  V30 4769 O 429.223 2.97884 5.23019 0
M  V30 4770 H 433.049 2.28909 1.99585 0
M  V30 4771 H 430.634 1.16818 0.931344 0
M  V30 4772 H 432.516 1.01283 4.09047 0
M  V30 4773 H 431.191 0.180292 3.23198 0
M  V30 4774 H 430.098 2.46036 2.81811 0
M  V30 4775 H 431.431 3.22221 3.72068 0
M  V30 4776 N 433.083 -1.0153 1.20538 0
M  V30 4777 C 434.311 -1.78746 1.04199 0
M  V30 4778 C 434.726 -1.84323 -0.408733 0
M  V30 4779 O 434.083 -1.29714 -1.28377 0
M  V30 4780 C 434.134 -3.23152 1.62035 0
M  V30 4781 O 433.855 -3.17918 3.0143 0
M  V30 4782 C 435.356 -4.16911 1.50666 0
M  V30 4783 H 432.576 -0.56208 0.366479 0
M  V30 4784 H 435.12 -1.27794 1.59653 0
M  V30 4785 H 433.275 -3.71248 1.10697 0
M  V30 4786 H 433.689 -4.08567 3.28897 0
M  V30 4787 H 435.163 -5.16072 1.95892 0
M  V30 4788 H 435.64 -4.36791 0.459363 0
M  V30 4789 H 436.246 -3.74698 2.01201 0
M  V30 4790 N 434.561 -1.01147 -1.20859 0
M  V30 4791 C 435.789 -0.716911 -1.94082 0
M  V30 4792 C 436.204 0.721568 -1.74467 0
M  V30 4793 O 435.561 1.48889 -1.05539 0
M  V30 4794 C 435.612 -1.03662 -3.46318 0
M  V30 4795 O 435.333 -2.4186 -3.65288 0
M  V30 4796 C 436.834 -0.762386 -4.36695 0
M  V30 4797 H 434.054 -0.26367 -0.617024 0
M  V30 4798 H 436.598 -1.35127 -1.53496 0
M  V30 4799 H 434.753 -0.447757 -3.84804 0
M  V30 4800 H 435.167 -2.53224 -4.59323 0
M  V30 4801 H 436.641 -1.03621 -5.42187 0
M  V30 4802 H 437.118 0.303514 -4.3815 0
M  V30 4803 H 437.724 -1.33316 -4.03865 0
M  V30 4804 N 436.039 1.36541 -0.78704 0
M  V30 4805 C 437.286 1.99304 -0.358341 0
M  V30 4806 C 437.614 1.62467 1.06933 0
M  V30 4807 O 436.869 0.870019 1.75297 0
M  V30 4808 C 437.168 3.54343 -0.466485 0
M  V30 4809 C 436.834 4.10993 -1.85461 0
M  V30 4810 C 435.496 4.26177 -2.23443 0
M  V30 4811 C 437.848 4.41895 -2.76366 0
M  V30 4812 C 435.176 4.69573 -3.51736 0
M  V30 4813 C 437.528 4.86722 -4.04084 0
M  V30 4814 C 436.192 5.00112 -4.42091 0
M  V30 4815 H 435.462 0.729306 -0.131126 0
M  V30 4816 H 438.109 1.63068 -1.00404 0
M  V30 4817 H 436.414 3.90918 0.262719 0
M  V30 4818 H 438.111 4.00833 -0.115854 0
M  V30 4819 H 434.701 3.99612 -1.54946 0
M  V30 4820 H 438.885 4.29735 -2.48277 0
M  V30 4821 H 434.141 4.78127 -3.81057 0
M  V30 4822 H 438.315 5.09598 -4.7464 0
M  V30 4823 H 435.942 5.33498 -5.41557 0
M  V30 4824 N 437.518 0.538854 1.48102 0
M  V30 4825 C 438.481 -0.208395 2.28251 0
M  V30 4826 C 439.481 -0.859656 1.35892 0
M  V30 4827 O 440.671 -0.71834 1.58699 0
M  V30 4828 C 437.803 -1.30252 3.15035 0
M  V30 4829 H 438.996 0.495407 2.9578 0
M  V30 4830 H 436.549 0.295112 1.53489 0
M  V30 4831 H 437.284 -2.0393 2.52157 0
M  V30 4832 H 437.069 -0.840551 3.82985 0
M  V30 4833 H 438.559 -1.82787 3.75471 0
M  V30 4834 N 438.996 -1.55193 0.274407 0
M  V30 4835 C 440.242 -1.99877 -0.343086 0
M  V30 4836 C 440.575 -1.16256 -1.55558 0
M  V30 4837 O 439.85 -0.232462 -1.93106 0
M  V30 4838 C 440.133 -3.52706 -0.725965 0
M  V30 4839 C 439.986 -4.47081 0.493818 0
M  V30 4840 C 441.305 -4.11422 -1.56268 0
M  V30 4841 H 438.424 -0.726625 -0.123229 0
M  V30 4842 H 441.066 -1.86136 0.38121 0
M  V30 4843 H 439.216 -3.64546 -1.34307 0
M  V30 4844 H 440.888 -4.47186 1.13237 0
M  V30 4845 H 439.131 -4.1877 1.13201 0
M  V30 4846 H 439.802 -5.51699 0.18217 0
M  V30 4847 H 442.278 -4.02855 -1.04151 0
M  V30 4848 H 441.154 -5.18568 -1.79939 0
M  V30 4849 H 441.415 -3.61607 -2.54348 0
M  V30 4850 N 440.474 -0.00167713 -1.576 0
M  V30 4851 C 441.421 0.989195 -2.08527 0
M  V30 4852 C 442.391 1.34031 -0.981065 0
M  V30 4853 O 443.576 1.43839 -1.2536 0
M  V30 4854 C 440.716 2.27537 -2.59463 0
M  V30 4855 C 439.829 1.98314 -3.83791 0
M  V30 4856 C 438.964 3.21025 -4.23222 0
M  V30 4857 C 438.003 2.87495 -5.40382 0
M  V30 4858 N 437.14 4.02749 -5.75098 0
M  V30 4859 H 441.98 0.547973 -2.92919 0
M  V30 4860 H 439.517 0.258917 -1.44803 0
M  V30 4861 H 441.475 3.02729 -2.87073 0
M  V30 4862 H 440.105 2.69325 -1.77943 0
M  V30 4863 H 439.157 1.13482 -3.63078 0
M  V30 4864 H 440.469 1.69601 -4.69081 0
M  V30 4865 H 439.623 4.04561 -4.52123 0
M  V30 4866 H 438.362 3.52877 -3.36644 0
M  V30 4867 H 437.367 2.02367 -5.11202 0
M  V30 4868 H 438.592 2.56889 -6.28637 0
M  V30 4869 H 436.538 4.34494 -4.91478 0
M  V30 4870 H 436.455 3.77566 -6.54966 0
M  V30 4871 H 437.723 4.87068 -6.08592 0
M  V30 4872 N 441.952 1.55251 0.271103 0
M  V30 4873 C 442.9 1.89054 1.35504 0
M  V30 4874 C 443.894 0.767064 1.51038 0
M  V30 4875 O 445.1 0.951429 1.528 0
M  V30 4876 H 441.475 0.600072 0.45323 0
M  V30 4877 H 443.446 2.79598 1.04247 0
M  V30 4878 C 442.195 2.18068 2.70817 0
M  V30 4879 H 441.518 3.04005 2.59656 0
M  V30 4880 H 442.958 2.4564 3.45597 0
M  V30 4881 C 441.417 0.988901 3.2206 0
M  V30 4882 O 441.947 0.224501 4.01072 0
M  V30 4883 N 440.153 0.786085 2.79766 0
M  V30 4884 H 439.7 1.40937 2.15626 0
M  V30 4885 H 439.658 -0.00969349 3.14399 0
M  V30 4886 N 443.43 -0.535701 1.48216 0
M  V30 4887 C 444.678 -1.28928 1.55634 0
M  V30 4888 C 444.999 -1.93645 0.229514 0
M  V30 4889 O 444.269 -1.81038 -0.74846 0
M  V30 4890 H 442.849 -0.47884 0.573342 0
M  V30 4891 H 445.511 -0.623853 1.84646 0
M  V30 4892 H 444.607 -2.07157 2.33436 0
M  V30 4893 N 444.908 -1.36708 -0.784132 0
M  V30 4894 C 445.856 -1.31533 -1.91838 0
M  V30 4895 C 446.85 -0.206205 -1.6814 0
M  V30 4896 O 448.056 -0.373519 -1.76082 0
M  V30 4897 H 444.431 -0.409613 -0.630651 0
M  V30 4898 H 446.402 -2.2731 -1.9332 0
M  V30 4899 C 445.151 -1.12679 -3.28936 0
M  V30 4900 H 444.474 -1.97274 -3.4774 0
M  V30 4901 H 445.914 -1.13106 -4.08636 0
M  V30 4902 C 444.373 0.168281 -3.36479 0
M  V30 4903 O 444.903 1.15625 -3.84699 0
M  V30 4904 N 443.109 0.214762 -2.89805 0
M  V30 4905 H 442.656 -0.589852 -2.50756 0
M  V30 4906 H 442.614 1.08094 -2.95234 0
M  V30 4907 N 446.386 1.0089 -1.21074 0
M  V30 4908 C 447.802 1.2695 -0.967257 0
M  V30 4909 C 448.002 1.9846 0.348673 0
M  V30 4910 O 447.058 2.28459 1.0753 0
M  V30 4911 C 448.371 2.09697 -2.15517 0
M  V30 4912 C 449.919 2.22937 -2.197 0
M  V30 4913 C 450.394 3.09064 -3.37999 0
M  V30 4914 N 451.885 3.16653 -3.38061 0
M  V30 4915 C 452.62 3.8354 -4.26245 0
M  V30 4916 N 452.116 4.52488 -5.2462 0
M  V30 4917 N 453.909 3.80141 -4.14064 0
M  V30 4918 H 446.06 0.529005 -2.05707 0
M  V30 4919 H 448.323 0.296148 -0.900556 0
M  V30 4920 H 448.029 1.64497 -3.10859 0
M  V30 4921 H 447.903 3.10444 -2.14253 0
M  V30 4922 H 450.29 2.67357 -1.24916 0
M  V30 4923 H 450.371 1.21673 -2.2501 0
M  V30 4924 H 450.015 2.65347 -4.33074 0
M  V30 4925 H 449.945 4.10433 -3.29928 0
M  V30 4926 H 452.436 2.67566 -2.66865 0
M  V30 4927 H 452.749 5.01219 -5.88217 0
M  V30 4928 H 451.094 4.51288 -5.28549 0
M  V30 4929 H 454.285 3.25427 -3.36474 0
M  V30 4930 H 454.458 4.31992 -4.82998 0
M  V30 4931 N 447.864 1.01787 1.20321 0
M  V30 4932 C 448.827 0.593972 2.2137 0
M  V30 4933 C 449.827 -0.336553 1.57239 0
M  V30 4934 O 451.017 -0.125069 1.7375 0
M  V30 4935 C 448.149 -0.132433 3.40643 0
M  V30 4936 H 449.342 1.48791 2.60387 0
M  V30 4937 H 446.895 0.807803 1.33807 0
M  V30 4938 H 447.63 -1.04123 3.0713 0
M  V30 4939 H 447.415 0.53605 3.88418 0
M  V30 4940 H 448.905 -0.416314 4.1552 0
M  V30 4941 N 449.342 -1.36122 0.79427 0
M  V30 4942 C 450.305 -2.28309 0.201889 0
M  V30 4943 C 451.305 -1.49041 -0.603603 0
M  V30 4944 O 452.495 -1.68964 -0.423888 0
M  V30 4945 C 449.627 -3.3321 -0.719978 0
M  V30 4946 H 450.82 -2.82208 1.01481 0
M  V30 4947 H 448.373 -1.45768 0.564037 0
M  V30 4948 H 449.108 -2.84475 -1.55706 0
M  V30 4949 H 448.893 -3.91835 -0.144266 0
M  V30 4950 H 450.383 -4.02044 -1.12916 0
M  V30 4951 N 450.82 -0.546701 -1.47814 0
M  V30 4952 C 452.045 -0.021268 -2.07389 0
M  V30 4953 C 452.47 1.25822 -1.39822 0
M  V30 4954 O 451.828 1.75111 -0.46968 0
M  V30 4955 C 451.876 0.168502 -3.60206 0
M  V30 4956 O 450.98 1.23347 -3.93522 0
M  V30 4957 H 450.321 -0.0466108 -0.662362 0
M  V30 4958 H 452.851 -0.759387 -1.89985 0
M  V30 4959 H 452.861 0.385982 -4.0617 0
M  V30 4960 H 451.536 -0.766075 -4.08784 0
M  V30 4961 H 450.113 0.997319 -3.59316 0
M  V30 4962 N 452.299 1.55045 -0.282633 0
M  V30 4963 C 453.209 2.26491 0.61147 0
M  V30 4964 C 454.225 1.29348 1.16384 0
M  V30 4965 O 455.401 1.62298 1.19253 0
M  V30 4966 C 452.466 2.97779 1.77563 0
M  V30 4967 C 451.527 4.10418 1.25919 0
M  V30 4968 C 450.76 4.78297 2.36786 0
M  V30 4969 O 450.983 4.45426 3.56303 0
M  V30 4970 O 449.917 5.66089 2.04517 0
M  V30 4971 H 453.743 3.03683 0.0324615 0
M  V30 4972 H 451.328 1.49317 -0.0497576 0
M  V30 4973 H 453.21 3.42554 2.45427 0
M  V30 4974 H 451.885 2.23498 2.34159 0
M  V30 4975 H 450.792 3.70082 0.546797 0
M  V30 4976 H 452.125 4.86622 0.738887 0
M  V30 4977 N 453.777 0.010035 1.57597 0
M  V30 4978 C 454.707 -0.976857 2.12084 0
M  V30 4979 C 455.688 -1.35191 1.03235 0
M  V30 4980 O 456.873 -1.43389 1.3097 0
M  V30 4981 C 454.003 -2.26548 2.63236 0
M  V30 4982 C 452.957 -2.03175 3.76701 0
M  V30 4983 C 452.283 -3.38138 4.14206 0
M  V30 4984 C 453.583 -1.38625 5.03568 0
M  V30 4985 H 455.277 -0.523145 2.94794 0
M  V30 4986 H 452.823 -0.250195 1.4181 0
M  V30 4987 H 454.776 -2.95952 2.99984 0
M  V30 4988 H 453.5 -2.74051 1.77661 0
M  V30 4989 H 452.159 -1.36195 3.40362 0
M  V30 4990 H 451.807 -3.83363 3.25641 0
M  V30 4991 H 451.507 -3.23312 4.90656 0
M  V30 4992 H 453.031 -4.08841 4.53521 0
M  V30 4993 H 454.445 -1.98 5.38023 0
M  V30 4994 H 452.842 -1.34256 5.84889 0
M  V30 4995 H 453.912 -0.356722 4.83586 0
M  V30 4996 N 455.255 -1.55392 -0.262866 0
M  V30 4997 C 456.501 -1.76737 -0.99458 0
M  V30 4998 C 456.834 -0.572453 -1.85571 0
M  V30 4999 O 456.109 0.429732 -1.89693 0
M  V30 5000 C 456.392 -3.07824 -1.8686 0
M  V30 5001 C 456.245 -4.3769 -1.03672 0
M  V30 5002 C 457.564 -3.35021 -2.85393 0
M  V30 5003 H 454.683 -0.643005 -0.360157 0
M  V30 5004 H 457.325 -1.88126 -0.266216 0
M  V30 5005 H 455.475 -2.98245 -2.48962 0
M  V30 5006 H 457.147 -4.59238 -0.43563 0
M  V30 5007 H 455.39 -4.32461 -0.340513 0
M  V30 5008 H 456.061 -5.25759 -1.6817 0
M  V30 5009 H 458.537 -3.44458 -2.33426 0
M  V30 5010 H 457.413 -4.27989 -3.43681 0
M  V30 5011 H 457.674 -2.55153 -3.61039 0
M  V30 5012 N 456.733 0.527833 -1.48498 0
M  V30 5013 C 457.98 1.28354 -1.56625 0
M  V30 5014 C 458.308 1.93 -0.241096 0
M  V30 5015 O 457.563 1.79967 0.768798 0
M  V30 5016 C 457.862 2.39275 -2.65485 0
M  V30 5017 C 457.528 1.92268 -4.07853 0
M  V30 5018 C 456.19 1.79166 -4.46602 0
M  V30 5019 C 458.542 1.56771 -4.97064 0
M  V30 5020 C 455.87 1.28905 -5.72364 0
M  V30 5021 C 458.222 1.07972 -6.23318 0
M  V30 5022 C 456.886 0.934887 -6.60921 0
M  V30 5023 H 456.156 0.469682 -0.573131 0
M  V30 5024 H 458.803 0.588781 -1.82224 0
M  V30 5025 H 457.108 3.1443 -2.33754 0
M  V30 5026 H 458.805 2.974 -2.68988 0
M  V30 5027 H 455.395 2.03417 -3.77252 0
M  V30 5028 H 459.579 1.65753 -4.67803 0
M  V30 5029 H 454.835 1.16381 -6.00221 0
M  V30 5030 H 459.009 0.795775 -6.91838 0
M  V30 5031 H 456.636 0.543231 -7.58257 0
M  V30 5032 N 458.211 1.37122 0.776871 0
M  V30 5033 C 459.158 1.3247 1.88998 0
M  V30 5034 C 460.128 0.191143 1.64997 0
M  V30 5035 O 461.313 0.379683 1.86984 0
M  V30 5036 C 458.453 1.13241 3.25992 0
M  V30 5037 C 457.566 2.35782 3.61982 0
M  V30 5038 C 456.701 2.09465 4.88158 0
M  V30 5039 C 455.74 3.279 5.16864 0
M  V30 5040 N 454.877 3.01167 6.34226 0
M  V30 5041 H 459.717 2.27642 1.9231 0
M  V30 5042 H 457.254 1.13125 0.94027 0
M  V30 5043 H 459.212 1.00115 4.0501 0
M  V30 5044 H 457.842 0.217186 3.22069 0
M  V30 5045 H 456.894 2.59666 2.77989 0
M  V30 5046 H 458.206 3.24125 3.79137 0
M  V30 5047 H 457.36 1.93341 5.75069 0
M  V30 5048 H 456.099 1.18452 4.73097 0
M  V30 5049 H 455.104 3.44569 4.2843 0
M  V30 5050 H 456.329 4.19757 5.33836 0
M  V30 5051 H 454.275 2.12779 6.20533 0
M  V30 5052 H 454.192 3.83052 6.51772 0
M  V30 5053 H 455.46 2.88649 7.24087 0
M  V30 5054 N 459.689 -1.00246 1.21608 0
M  V30 5055 C 460.636 -2.09073 0.977613 0
M  V30 5056 C 461.606 -1.65815 -0.097297 0
M  V30 5057 O 462.791 -1.90734 0.0503445 0
M  V30 5058 C 459.931 -3.40671 0.551133 0
M  V30 5059 C 459.044 -3.97326 1.69576 0
M  V30 5060 C 458.179 -5.17043 1.2182 0
M  V30 5061 C 457.218 -5.65813 2.335 0
M  V30 5062 N 456.355 -6.76778 1.86859 0
M  V30 5063 H 461.195 -2.28806 1.90924 0
M  V30 5064 H 458.732 -1.12186 0.951452 0
M  V30 5065 H 460.69 -4.16225 0.285097 0
M  V30 5066 H 459.32 -3.20967 -0.343489 0
M  V30 5067 H 458.372 -3.18734 2.07637 0
M  V30 5068 H 459.684 -4.29511 2.53617 0
M  V30 5069 H 458.838 -5.99852 0.908975 0
M  V30 5070 H 457.577 -4.86458 0.347869 0
M  V30 5071 H 456.582 -4.81599 2.65222 0
M  V30 5072 H 457.807 -5.98427 3.21033 0
M  V30 5073 H 455.753 -6.47994 1.02174 0
M  V30 5074 H 455.67 -7.08231 2.64471 0
M  V30 5075 H 456.938 -7.63116 1.58978 0
M  V30 5076 N 461.167 -1.02423 -1.1978 0
M  V30 5077 C 462.392 -0.7373 -1.93852 0
M  V30 5078 C 462.817 0.696923 -1.74713 0
M  V30 5079 O 462.175 1.48056 -1.04638 0
M  V30 5080 C 462.223 -1.08783 -3.438 0
M  V30 5081 O 461.327 -0.20383 -4.11896 0
M  V30 5082 H 460.668 -0.27284 -0.605355 0
M  V30 5083 H 463.198 -1.36966 -1.51992 0
M  V30 5084 H 463.208 -1.04276 -3.9445 0
M  V30 5085 H 461.883 -2.13274 -3.57053 0
M  V30 5086 H 460.46 -0.307091 -3.71633 0
M  V30 5087 N 462.645 1.35699 -0.801477 0
M  V30 5088 C 464.061 1.52065 -0.484596 0
M  V30 5089 C 464.261 1.75215 0.995084 0
M  V30 5090 O 463.317 1.79061 1.78026 0
M  V30 5091 C 464.63 2.69908 -1.32552 0
M  V30 5092 C 466.178 2.83784 -1.32044 0
M  V30 5093 C 466.653 4.04646 -2.14536 0
M  V30 5094 N 468.144 4.11814 -2.12046 0
M  V30 5095 C 468.879 5.04437 -2.72636 0
M  V30 5096 N 468.375 6.02426 -3.42133 0
M  V30 5097 N 470.168 4.97144 -2.62305 0
M  V30 5098 H 462.319 1.18928 -1.75983 0
M  V30 5099 H 464.582 0.581455 -0.748741 0
M  V30 5100 H 464.288 2.59363 -2.37537 0
M  V30 5101 H 464.162 3.64376 -0.975181 0
M  V30 5102 H 466.549 2.93783 -0.27846 0
M  V30 5103 H 466.63 1.90188 -1.71062 0
M  V30 5104 H 466.274 3.95407 -3.18772 0
M  V30 5105 H 466.204 4.97413 -1.72882 0
M  V30 5106 H 468.695 3.41664 -1.61476 0
M  V30 5107 H 469.008 6.69688 -3.85666 0
M  V30 5108 H 467.353 6.02615 -3.46237 0
M  V30 5109 H 470.544 4.19546 -2.07603 0
M  V30 5110 H 470.717 5.69138 -3.09815 0
M  V30 5111 N 464.123 0.554532 1.47522 0
M  V30 5112 C 465.071 -0.207765 2.3167 0
M  V30 5113 C 466.065 -0.911914 1.4276 0
M  V30 5114 O 467.271 -0.833504 1.59539 0
M  V30 5115 H 463.646 -0.0858726 0.747081 0
M  V30 5116 H 465.617 0.521178 2.93813 0
M  V30 5117 C 464.366 -1.2263 3.25357 0
M  V30 5118 H 463.689 -0.693887 3.93732 0
M  V30 5119 H 465.129 -1.73062 3.87073 0
M  V30 5120 C 463.588 -2.27278 2.4869 0
M  V30 5121 O 464.118 -3.34156 2.22941 0
M  V30 5122 N 462.324 -2.01134 2.09746 0
M  V30 5123 H 461.871 -1.14232 2.30887 0
M  V30 5124 H 461.829 -2.71369 1.58765 0
M  V30 5125 N 465.601 -1.54893 0.290851 0
M  V30 5126 C 466.511 -2.26812 -0.59945 0
M  V30 5127 C 467.527 -1.29963 -1.15696 0
M  V30 5128 O 468.703 -1.62928 -1.18391 0
M  V30 5129 C 465.768 -2.98716 -1.75982 0
M  V30 5130 C 464.829 -4.1108 -1.2374 0
M  V30 5131 C 464.062 -4.79546 -2.34246 0
M  V30 5132 O 464.285 -4.47309 -3.53936 0
M  V30 5133 O 463.219 -5.67165 -2.01512 0
M  V30 5134 H 467.045 -3.03696 -0.0163561 0
M  V30 5135 H 464.63 -1.49289 0.0576755 0
M  V30 5136 H 466.512 -3.43851 -2.43607 0
M  V30 5137 H 465.187 -2.24737 -2.3297 0
M  V30 5138 H 464.094 -3.70367 -0.527163 0
M  V30 5139 H 465.427 -4.87007 -0.71307 0
M  V30 5140 N 467.08 -0.0183926 -1.57589 0
M  V30 5141 C 468.31 0.67207 -1.95363 0
M  V30 5142 C 468.718 1.66807 -0.892872 0
M  V30 5143 O 468.061 1.83204 0.134958 0
M  V30 5144 C 468.123 1.44397 -3.29226 0
M  V30 5145 C 467.787 0.607511 -4.52944 0
M  V30 5146 C 468.784 -0.112657 -5.19778 0
M  V30 5147 C 466.469 0.548068 -4.99301 0
M  V30 5148 C 468.463 -0.881057 -6.31281 0
M  V30 5149 C 466.15 -0.224044 -6.10689 0
M  V30 5150 C 467.148 -0.937323 -6.76538 0
M  V30 5151 O 466.836 -1.6968 -7.85789 0
M  V30 5152 H 466.568 0.190925 -0.648478 0
M  V30 5153 H 469.122 -0.0711994 -2.05277 0
M  V30 5154 H 467.352 2.23214 -3.15773 0
M  V30 5155 H 469.041 2.02152 -3.51979 0
M  V30 5156 H 469.807 -0.0759998 -4.8494 0
M  V30 5157 H 465.686 1.09281 -4.4786 0
M  V30 5158 H 469.23 -1.43832 -6.82611 0
M  V30 5159 H 465.127 -0.262457 -6.44966 0
M  V30 5160 H 465.895 -1.61544 -8.024 0
M  V30 5161 N 468.558 1.5553 0.254621 0
M  V30 5162 C 469.521 1.88872 1.29846 0
M  V30 5163 C 470.521 0.764591 1.41459 0
M  V30 5164 O 471.711 1.03265 1.40293 0
M  V30 5165 C 468.843 2.11032 2.67728 0
M  V30 5166 H 470.036 2.82201 1.01502 0
M  V30 5167 H 467.589 1.48303 0.493556 0
M  V30 5168 H 468.324 1.20146 3.01223 0
M  V30 5169 H 468.109 2.92895 2.60682 0
M  V30 5170 H 469.599 2.38038 3.43115 0
M  V30 5171 N 470.036 -0.519951 1.48776 0
M  V30 5172 C 471.264 -1.29971 1.60982 0
M  V30 5173 C 471.679 -1.86803 0.273885 0
M  V30 5174 O 471.036 -1.66904 -0.738193 0
M  V30 5175 C 471.087 -2.44346 2.66415 0
M  V30 5176 O 470.808 -1.89855 3.94825 0
M  V30 5177 C 472.309 -3.36014 2.89153 0
M  V30 5178 H 469.529 -0.394891 0.542496 0
M  V30 5179 H 472.073 -0.626214 1.94676 0
M  V30 5180 H 470.228 -3.07562 2.35552 0
M  V30 5181 H 470.642 -2.64798 4.5275 0
M  V30 5182 H 472.116 -4.12593 3.66703 0
M  V30 5183 H 472.593 -3.91859 1.98351 0
M  V30 5184 H 473.199 -2.78582 3.21359 0
M  V30 5185 N 471.514 -1.37532 -0.769588 0
M  V30 5186 C 472.477 -1.33292 -1.86456 0
M  V30 5187 C 473.477 -0.236537 -1.59051 0
M  V30 5188 O 474.667 -0.492511 -1.67093 0
M  V30 5189 C 471.799 -1.07118 -3.23633 0
M  V30 5190 H 472.992 -2.30692 -1.91628 0
M  V30 5191 H 470.545 -1.22593 -0.969572 0
M  V30 5192 H 471.28 -0.102578 -3.24138 0
M  V30 5193 H 471.065 -1.86479 -3.44917 0
M  V30 5194 H 472.555 -1.06806 -4.03711 0
M  V30 5195 N 472.992 0.995999 -1.22138 0
M  V30 5196 C 474.222 1.76809 -1.06874 0
M  V30 5197 C 474.63 1.85265 0.383866 0
M  V30 5198 O 473.973 1.31969 1.27789 0
M  V30 5199 C 474.035 3.2186 -1.60144 0
M  V30 5200 C 473.699 3.36958 -3.0872 0
M  V30 5201 C 474.696 3.2452 -4.0618 0
M  V30 5202 C 472.381 3.62109 -3.48112 0
M  V30 5203 C 474.375 3.37013 -5.41019 0
M  V30 5204 C 472.062 3.74243 -4.831 0
M  V30 5205 C 473.06 3.61702 -5.79362 0
M  V30 5206 O 472.748 3.73436 -7.119 0
M  V30 5207 H 472.48 0.562207 -0.375365 0
M  V30 5208 H 475.034 1.26113 -1.62125 0
M  V30 5209 H 473.264 3.73734 -0.992981 0
M  V30 5210 H 474.953 3.80775 -1.40589 0
M  V30 5211 H 475.719 3.05004 -3.77091 0
M  V30 5212 H 471.598 3.70949 -2.73712 0
M  V30 5213 H 475.142 3.27141 -6.16137 0
M  V30 5214 H 471.039 3.93266 -5.11872 0
M  V30 5215 H 471.807 3.90328 -7.19435 0
M  V30 5216 N 474.47 1.03057 1.19235 0
M  V30 5217 C 475.4 0.633497 2.24742 0
M  V30 5218 C 476.381 -0.358335 1.66283 0
M  V30 5219 O 477.566 -0.240676 1.92703 0
M  V30 5220 C 474.696 -0.0147648 3.47297 0
M  V30 5221 C 473.65 0.899527 4.18441 0
M  V30 5222 C 472.976 0.116281 5.34574 0
M  V30 5223 C 474.276 2.21404 4.73051 0
M  V30 5224 H 475.97 1.5155 2.58211 0
M  V30 5225 H 473.516 0.73014 1.24117 0
M  V30 5226 H 475.469 -0.304202 4.20301 0
M  V30 5227 H 474.193 -0.931577 3.13032 0
M  V30 5228 H 472.852 1.17319 3.47321 0
M  V30 5229 H 472.5 -0.802619 4.96555 0
M  V30 5230 H 472.2 0.725293 5.83107 0
M  V30 5231 H 473.724 -0.166376 6.10373 0
M  V30 5232 H 475.138 1.98601 5.37802 0
M  V30 5233 H 473.535 2.77512 5.32078 0
M  V30 5234 H 474.605 2.86752 3.91026 0
M  V30 5235 N 475.948 -1.35272 0.808662 0
M  V30 5236 C 476.896 -2.31663 0.208606 0
M  V30 5237 C 477.89 -1.56731 -0.642778 0
M  V30 5238 O 479.096 -1.71843 -0.53571 0
M  V30 5239 H 475.471 -0.750421 0.0486993 0
M  V30 5240 H 477.442 -2.79814 1.03666 0
M  V30 5241 C 476.191 -3.42008 -0.626573 0
M  V30 5242 H 475.514 -3.99795 0.0192103 0
M  V30 5243 H 476.954 -4.11727 -1.01278 0
M  V30 5244 C 475.413 -2.85226 -1.79298 0
M  V30 5245 O 475.943 -2.78945 -2.89055 0
M  V30 5246 N 474.149 -2.42245 -1.60516 0
M  V30 5247 H 473.696 -2.47554 -0.712375 0
M  V30 5248 H 473.654 -2.04603 -2.38715 0
M  V30 5249 N 477.426 -0.562348 -1.47226 0
M  V30 5250 C 478.359 0.230405 -2.27034 0
M  V30 5251 C 479.337 0.915609 -1.3437 0
M  V30 5252 O 480.521 0.933573 -1.63758 0
M  V30 5253 C 477.648 1.32874 -3.11548 0
M  V30 5254 C 476.694 0.751552 -4.19826 0
M  V30 5255 S 477.527 -0.405848 -5.3396 0
M  V30 5256 C 478.683 0.694186 -6.22038 0
M  V30 5257 H 478.916 -0.446811 -2.93923 0
M  V30 5258 H 476.449 -0.348781 -1.50409 0
M  V30 5259 H 478.407 1.95773 -3.60809 0
M  V30 5260 H 477.068 1.97782 -2.44011 0
M  V30 5261 H 476.261 1.57651 -4.78709 0
M  V30 5262 H 475.863 0.198645 -3.73472 0
M  V30 5263 H 478.155 1.58501 -6.58698 0
M  V30 5264 H 479.098 0.142592 -7.07956 0
M  V30 5265 H 479.506 0.989169 -5.55766 0
M  V30 5266 N 478.904 1.54736 -0.299062 0
M  V30 5267 C 480.15 2.00397 0.311244 0
M  V30 5268 C 480.483 1.18716 1.53688 0
M  V30 5269 O 479.758 0.263154 1.92712 0
M  V30 5270 C 480.041 3.53817 0.669761 0
M  V30 5271 C 479.894 4.46239 -0.564882 0
M  V30 5272 C 481.213 4.13856 1.49702 0
M  V30 5273 H 478.332 0.728493 0.111653 0
M  V30 5274 H 480.974 1.85506 -0.410774 0
M  V30 5275 H 479.124 3.66637 1.28491 0
M  V30 5276 H 480.796 4.45328 -1.20337 0
M  V30 5277 H 479.039 4.16916 -1.19849 0
M  V30 5278 H 479.71 5.5134 -0.269918 0
M  V30 5279 H 482.186 4.04461 0.977284 0
M  V30 5280 H 481.062 5.21365 1.71666 0
M  V30 5281 H 481.323 3.65608 2.48563 0
M  V30 5282 N 480.382 0.0267497 1.57577 0
M  V30 5283 C 481.798 -0.32962 1.56159 0
M  V30 5284 C 481.998 -1.73059 1.03213 0
M  V30 5285 O 481.054 -2.43233 0.677804 0
M  V30 5286 C 482.367 -0.18039 3.00158 0
M  V30 5287 C 483.915 -0.253334 3.11973 0
M  V30 5288 C 484.39 -0.132921 4.57807 0
M  V30 5289 N 485.881 -0.189979 4.6281 0
M  V30 5290 C 486.616 -0.120554 5.73273 0
M  V30 5291 N 486.112 -0.000180315 6.928 0
M  V30 5292 N 487.905 -0.174369 5.61829 0
M  V30 5293 H 480.056 0.942896 1.90324 0
M  V30 5294 H 482.319 0.3639 0.875375 0
M  V30 5295 H 482.025 0.784576 3.42837 0
M  V30 5296 H 481.899 -0.951565 3.65 0
M  V30 5297 H 484.286 -1.20876 2.69208 0
M  V30 5298 H 484.367 0.548177 2.49857 0
M  V30 5299 H 484.011 0.819073 5.01252 0
M  V30 5300 H 483.941 -0.953264 5.179 0
M  V30 5301 H 486.432 -0.283257 3.76837 0
M  V30 5302 H 486.745 0.0461666 7.72786 0
M  V30 5303 H 485.09 0.034569 6.94991 0
M  V30 5304 H 488.281 -0.266794 4.67339 0
M  V30 5305 H 488.454 -0.116802 6.47895 0
M  V30 5306 N 481.861 -1.55662 -0.24637 0
M  V30 5307 C 482.809 -1.91186 -1.3248 0
M  V30 5308 C 483.803 -0.790996 -1.49799 0
M  V30 5309 O 485.009 -0.975617 -1.51267 0
M  V30 5310 H 481.384 -0.607207 -0.443626 0
M  V30 5311 H 483.355 -2.81221 -0.997853 0
M  V30 5312 C 482.104 -2.22349 -2.67313 0
M  V30 5313 H 481.427 -3.08097 -2.54786 0
M  V30 5314 H 482.867 -2.51107 -3.41645 0
M  V30 5315 C 481.326 -1.04001 -3.20446 0
M  V30 5316 O 481.856 -0.28828 -4.00664 0
M  V30 5317 N 480.062 -0.830494 -2.7848 0
M  V30 5318 H 479.609 -1.4435 -2.13356 0
M  V30 5319 H 479.567 -0.0403258 -3.14374 0
M  V30 5320 N 483.339 0.512053 -1.4905 0
M  V30 5321 C 484.249 1.64139 -1.67617 0
M  V30 5322 C 485.265 1.64786 -0.558701 0
M  V30 5323 O 486.441 1.8341 -0.832034 0
M  V30 5324 C 483.506 3.00548 -1.72835 0
M  V30 5325 C 482.567 3.10615 -2.96339 0
M  V30 5326 C 481.8 4.40517 -3.01298 0
M  V30 5327 O 482.023 5.28671 -2.14157 0
M  V30 5328 O 480.957 4.55325 -3.93653 0
M  V30 5329 H 484.783 1.51407 -2.63267 0
M  V30 5330 H 482.368 0.687131 -1.32661 0
M  V30 5331 H 484.25 3.81641 -1.78683 0
M  V30 5332 H 482.925 3.13566 -0.803616 0
M  V30 5333 H 481.832 2.2875 -2.96014 0
M  V30 5334 H 483.165 3.0252 -3.88256 0
M  V30 5335 N 484.817 1.37938 0.762283 0
M  V30 5336 C 486.094 1.24196 1.51112 0
M  V30 5337 C 486.474 -0.160409 2.1049 0
M  V30 5338 O 485.822 -1.16904 1.96331 0
M  V30 5339 C 486.032 2.34537 2.58445 0
M  V30 5340 C 487.38 2.7254 3.25588 0
M  V30 5341 O 488.404 2.33783 2.68745 0
M  V30 5342 O 487.263 3.39343 4.28379 0
M  V30 5343 H 484.357 0.485175 0.669727 0
M  V30 5344 H 486.903 1.49743 0.798438 0
M  V30 5345 H 485.675 3.28406 2.12756 0
M  V30 5346 H 485.298 2.10505 3.37303 0
M  V30 5347 N 486.295 -0.989507 1.22664 0
M  V30 5348 C 487.243 -2.10148 0.997035 0
M  V30 5349 C 488.237 -1.6929 -0.0609783 0
M  V30 5350 O 489.443 -1.79766 0.0917523 0
M  V30 5351 H 485.818 -0.687256 0.305259 0
M  V30 5352 H 487.789 -2.26685 1.94053 0
M  V30 5353 C 486.538 -3.4257 0.595085 0
M  V30 5354 H 485.861 -3.74453 1.40089 0
M  V30 5355 H 487.301 -4.21344 0.473869 0
M  V30 5356 C 485.76 -3.29638 -0.695725 0
M  V30 5357 O 486.29 -3.61709 -1.74727 0
M  V30 5358 N 484.496 -2.82814 -0.668173 0
M  V30 5359 H 484.043 -2.56914 0.18787 0
M  V30 5360 H 484.001 -2.74544 -1.5321 0
M  V30 5361 N 487.773 -1.03688 -1.18687 0
M  V30 5362 C 489.001 -0.757918 -1.92518 0
M  V30 5363 C 489.416 0.684398 -1.75959 0
M  V30 5364 O 488.773 1.46617 -1.08673 0
M  V30 5365 C 488.824 -1.10985 -3.44042 0
M  V30 5366 O 488.545 -2.49554 -3.60076 0
M  V30 5367 C 490.046 -0.854844 -4.3498 0
M  V30 5368 H 487.266 -0.276699 -0.611293 0
M  V30 5369 H 489.81 -1.38352 -1.50595 0
M  V30 5370 H 487.965 -0.529279 -3.83767 0
M  V30 5371 H 488.379 -2.6291 -4.53849 0
M  V30 5372 H 489.853 -1.15098 -5.39867 0
M  V30 5373 H 490.33 0.210507 -4.38695 0
M  V30 5374 H 490.936 -1.41853 -4.00946 0
M  V30 5375 N 489.251 1.34841 -0.815825 0
M  V30 5376 C 490.181 2.32187 -0.247298 0
M  V30 5377 C 491.162 1.5791 0.632344 0
M  V30 5378 O 492.347 1.8593 0.560698 0
M  V30 5379 C 489.477 3.42122 0.597466 0
M  V30 5380 C 488.431 4.27602 -0.184446 0
M  V30 5381 C 487.757 5.28942 0.782609 0
M  V30 5382 C 489.057 5.03502 -1.38865 0
M  V30 5383 H 490.751 2.79985 -1.06061 0
M  V30 5384 H 488.297 1.34611 -0.511461 0
M  V30 5385 H 490.25 4.09232 1.00533 0
M  V30 5386 H 488.974 2.92956 1.44376 0
M  V30 5387 H 487.633 3.62085 -0.573592 0
M  V30 5388 H 487.281 4.7604 1.62466 0
M  V30 5389 H 486.981 5.87008 0.263695 0
M  V30 5390 H 488.505 5.98922 1.18848 0
M  V30 5391 H 489.919 5.63506 -1.05518 0
M  V30 5392 H 488.316 5.71108 -1.8427 0
M  V30 5393 H 489.386 4.33608 -2.17054 0
M  V30 5394 N 490.729 0.570148 1.46925 0
M  V30 5395 C 491.677 -0.183181 2.31878 0
M  V30 5396 C 492.671 -0.896721 1.43719 0
M  V30 5397 O 493.877 -0.816536 1.60414 0
M  V30 5398 H 490.252 -0.077944 0.74795 0
M  V30 5399 H 492.223 0.552312 2.93244 0
M  V30 5400 C 490.972 -1.19172 3.2664 0
M  V30 5401 H 490.295 -0.652088 3.94446 0
M  V30 5402 H 491.735 -1.68946 3.88887 0
M  V30 5403 C 490.194 -2.24627 2.51086 0
M  V30 5404 O 490.724 -3.31773 2.26472 0
M  V30 5405 N 488.93 -1.98898 2.11867 0
M  V30 5406 H 488.477 -1.11777 2.32086 0
M  V30 5407 H 488.435 -2.6967 1.61634 0
M  V30 5408 N 492.207 -1.54576 0.307264 0
M  V30 5409 C 493.456 -1.99442 -0.300976 0
M  V30 5410 C 493.769 -1.19928 -1.5452 0
M  V30 5411 O 494.975 -1.55092 -2.22842 0
M  V30 5412 C 493.431 -3.55084 -0.586809 0
M  V30 5413 C 493.039 -4.43413 0.639438 0
M  V30 5414 C 494.783 -4.0846 -1.1559 0
M  V30 5415 C 492.69 -5.90499 0.326411 0
M  V30 5416 H 491.62 -0.744986 -0.116238 0
M  V30 5417 H 494.271 -1.787 0.416947 0
M  V30 5418 H 492.653 -3.71749 -1.36449 0
M  V30 5419 H 493.827 -4.38522 1.41545 0
M  V30 5420 H 492.142 -4.00842 1.1276 0
M  V30 5421 H 494.739 -5.15926 -1.40445 0
M  V30 5422 H 495.082 -3.59443 -2.10015 0
M  V30 5423 H 495.615 -3.95362 -0.439778 0
M  V30 5424 H 492.354 -6.43676 1.23939 0
M  V30 5425 H 491.874 -5.98382 -0.412212 0
M  V30 5426 H 493.553 -6.46962 -0.0697393 0
M  V30 5427 N 493.685 -0.035106 -1.57561 0
M  V30 5428 C 494.913 0.652258 -1.9635 0
M  V30 5429 C 495.328 1.65317 -0.911897 0
M  V30 5430 O 494.685 1.82194 0.105657 0
M  V30 5431 C 494.736 1.35337 -3.35211 0
M  V30 5432 O 494.457 0.392548 -4.36338 0
M  V30 5433 C 495.958 2.13199 -3.88666 0
M  V30 5434 H 493.178 0.179444 -0.646561 0
M  V30 5435 H 495.722 -0.0966459 -2.04271 0
M  V30 5436 H 493.877 2.05362 -3.28489 0
M  V30 5437 H 494.291 0.891097 -5.16875 0
M  V30 5438 H 495.765 2.577 -4.88154 0
M  V30 5439 H 496.242 2.97353 -3.23231 0
M  V30 5440 H 496.848 1.48118 -3.98674 0
M  V30 5441 N 495.163 1.55791 0.238111 0
M  V30 5442 C 496.073 1.94196 1.31625 0
M  V30 5443 C 497.089 0.843545 1.52185 0
M  V30 5444 O 498.265 1.1457 1.65637 0
M  V30 5445 C 495.33 2.2365 2.64918 0
M  V30 5446 C 494.391 3.46971 2.52804 0
M  V30 5447 C 493.624 3.7501 3.79741 0
M  V30 5448 O 493.847 3.04982 4.82019 0
M  V30 5449 O 492.781 4.68525 3.77846 0
M  V30 5450 H 496.607 2.86044 1.02043 0
M  V30 5451 H 494.192 1.42786 0.439603 0
M  V30 5452 H 496.074 2.43863 3.4367 0
M  V30 5453 H 494.749 1.34979 2.94215 0
M  V30 5454 H 493.656 3.32055 1.72309 0
M  V30 5455 H 494.989 4.35971 2.28451 0
M  V30 5456 N 496.642 -0.504142 1.49319 0
M  V30 5457 C 497.574 -1.62265 1.61872 0
M  V30 5458 C 498.587 -1.54881 0.501573 0
M  V30 5459 O 499.776 -1.6087 0.773497 0
M  V30 5460 C 496.876 -3.01042 1.55651 0
M  V30 5461 C 496.049 -3.33642 2.82845 0
M  V30 5462 C 495.108 -4.51816 2.69719 0
M  V30 5463 O 494.134 -4.53755 3.4365 0
M  V30 5464 N 495.336 -5.51543 1.81055 0
M  V30 5465 H 498.101 -1.51924 2.58339 0
M  V30 5466 H 495.662 -0.691954 1.46368 0
M  V30 5467 H 497.654 -3.78013 1.44528 0
M  V30 5468 H 496.224 -3.05323 0.670546 0
M  V30 5469 H 495.444 -2.45598 3.08343 0
M  V30 5470 H 496.732 -3.5222 3.67177 0
M  V30 5471 H 496.13 -5.52774 1.20241 0
M  V30 5472 H 494.687 -6.27629 1.75856 0
M  V30 5473 N 498.12 -1.38341 -0.754957 0
M  V30 5474 C 499.052 -1.31347 -1.87831 0
M  V30 5475 C 500.065 -0.225955 -1.61224 0
M  V30 5476 O 501.254 -0.48341 -1.7183 0
M  V30 5477 C 498.354 -1.01201 -3.23437 0
M  V30 5478 C 497.527 -2.20834 -3.77559 0
M  V30 5479 C 496.586 -1.87454 -4.91678 0
M  V30 5480 O 495.612 -2.59934 -5.06382 0
M  V30 5481 N 496.814 -0.828682 -5.74555 0
M  V30 5482 H 499.579 -2.28147 -1.94342 0
M  V30 5483 H 497.14 -1.32184 -0.934828 0
M  V30 5484 H 499.132 -0.769249 -3.97322 0
M  V30 5485 H 497.702 -0.132011 -3.12321 0
M  V30 5486 H 496.922 -2.61184 -2.95256 0
M  V30 5487 H 498.21 -3.00678 -4.10451 0
M  V30 5488 H 497.608 -0.227591 -5.65242 0
M  V30 5489 H 496.165 -0.645802 -6.48593 0
M  V30 5490 N 499.598 0.982988 -1.23187 0
M  V30 5491 C 500.823 1.76455 -1.08988 0
M  V30 5492 C 501.248 1.84726 0.354691 0
M  V30 5493 O 500.606 1.30699 1.25649 0
M  V30 5494 C 500.654 3.17094 -1.71708 0
M  V30 5495 O 499.758 4.00648 -0.977477 0
M  V30 5496 H 499.099 0.542988 -0.382177 0
M  V30 5497 H 501.629 1.23413 -1.63188 0
M  V30 5498 H 501.639 3.67684 -1.76841 0
M  V30 5499 H 500.314 3.10389 -2.76823 0
M  V30 5500 H 498.891 3.59161 -1.0029 0
M  V30 5501 N 501.076 1.04316 1.18135 0
M  V30 5502 C 502.324 0.746542 1.87806 0
M  V30 5503 C 502.645 -0.728082 1.80898 0
M  V30 5504 O 501.915 -1.52554 1.22899 0
M  V30 5505 H 500.495 0.273157 0.695265 0
M  V30 5506 H 503.157 1.32044 1.43354 0
M  V30 5507 H 502.253 1.05362 2.93778 0
M  V30 5508 N 502.554 -1.34406 0.822964 0
M  V30 5509 C 503.484 -2.32052 0.259608 0
M  V30 5510 C 504.465 -1.58243 -0.623961 0
M  V30 5511 O 505.65 -1.86224 -0.55083 0
M  V30 5512 C 502.78 -3.42434 -0.579314 0
M  V30 5513 C 501.734 -4.27499 0.20712 0
M  V30 5514 C 501.06 -5.29349 -0.754547 0
M  V30 5515 C 502.36 -5.02758 1.41533 0
M  V30 5516 H 504.054 -2.79418 1.07545 0
M  V30 5517 H 501.6 -1.34338 0.518593 0
M  V30 5518 H 503.553 -4.0976 -0.983612 0
M  V30 5519 H 502.277 -2.93717 -1.4282 0
M  V30 5520 H 500.936 -3.61776 0.592787 0
M  V30 5521 H 500.584 -4.76895 -1.59939 0
M  V30 5522 H 500.284 -5.8714 -0.232561 0
M  V30 5523 H 501.808 -5.99544 -1.1567 0
M  V30 5524 H 503.222 -5.62938 1.08504 0
M  V30 5525 H 501.619 -5.70123 1.87296 0
M  V30 5526 H 502.689 -4.32451 2.1935 0
M  V30 5527 N 504.032 -0.577932 -1.46621 0
M  V30 5528 C 504.995 0.147805 -2.28723 0
M  V30 5529 C 505.995 0.823325 -1.38123 0
M  V30 5530 O 507.185 0.676011 -1.60548 0
M  V30 5531 C 504.317 1.21853 -3.18378 0
M  V30 5532 H 505.51 -0.573654 -2.94362 0
M  V30 5533 H 503.063 -0.335703 -1.52652 0
M  V30 5534 H 503.798 1.97173 -2.57475 0
M  V30 5535 H 503.583 0.738714 -3.85078 0
M  V30 5536 H 505.073 1.72768 -3.80186 0
M  V30 5537 N 505.51 1.54411 -0.315457 0
M  V30 5538 C 506.758 2.00023 0.288971 0
M  V30 5539 C 507.079 1.20529 1.5329 0
M  V30 5540 O 506.349 0.304986 1.93511 0
M  V30 5541 H 504.929 0.738891 0.109766 0
M  V30 5542 H 507.591 1.90094 -0.430129 0
M  V30 5543 H 506.687 3.07198 0.550999 0
M  V30 5544 N 506.988 0.0434614 1.5754 0
M  V30 5545 C 507.918 -0.931651 2.14109 0
M  V30 5546 C 508.899 -1.32971 1.06079 0
M  V30 5547 O 510.084 -1.40579 1.33982 0
M  V30 5548 C 507.214 -2.20914 2.67982 0
M  V30 5549 C 506.168 -1.95139 3.80926 0
M  V30 5550 C 505.494 -3.29276 4.21285 0
M  V30 5551 C 506.794 -1.27913 5.06395 0
M  V30 5552 H 508.488 -0.460497 2.95837 0
M  V30 5553 H 506.034 -0.220058 1.42309 0
M  V30 5554 H 507.987 -2.89522 3.06194 0
M  V30 5555 H 506.711 -2.70221 1.83434 0
M  V30 5556 H 505.37 -1.28945 3.43175 0
M  V30 5557 H 505.018 -3.76369 3.33699 0
M  V30 5558 H 504.718 -3.12831 4.97404 0
M  V30 5559 H 506.242 -3.99129 4.62091 0
M  V30 5560 H 507.656 -1.86544 5.42102 0
M  V30 5561 H 506.053 -1.2182 5.87605 0
M  V30 5562 H 507.123 -0.254066 4.84234 0
M  V30 5563 N 508.466 -1.55915 -0.229846 0
M  V30 5564 C 509.398 -1.88209 -1.30805 0
M  V30 5565 C 510.411 -0.769672 -1.43457 0
M  V30 5566 O 511.6 -1.04792 -1.44502 0
M  V30 5567 C 508.7 -2.06829 -2.68468 0
M  V30 5568 C 507.873 -3.37798 -2.77869 0
M  V30 5569 C 506.932 -3.45952 -3.96489 0
M  V30 5570 O 505.958 -4.19043 -3.85216 0
M  V30 5571 N 507.16 -2.76488 -5.10426 0
M  V30 5572 H 509.925 -2.81286 -1.03431 0
M  V30 5573 H 507.486 -1.5636 -0.41991 0
M  V30 5574 H 509.478 -2.09608 -3.46189 0
M  V30 5575 H 508.048 -1.20416 -2.88477 0
M  V30 5576 H 507.268 -3.4719 -1.86689 0
M  V30 5577 H 508.556 -4.24091 -2.81113 0
M  V30 5578 H 507.954 -2.16868 -5.2248 0
M  V30 5579 H 506.511 -2.84938 -5.8622 0
M  V30 5580 N 509.944 0.496216 -1.49584 0
M  V30 5581 C 510.874 1.60576 -1.69521 0
M  V30 5582 C 511.855 1.61169 -0.543933 0
M  V30 5583 O 513.04 1.77834 -0.78031 0
M  V30 5584 C 510.17 2.99038 -1.76616 0
M  V30 5585 C 509.124 3.13312 -2.91581 0
M  V30 5586 C 508.45 4.53172 -2.83794 0
M  V30 5587 C 509.75 2.92886 -4.32452 0
M  V30 5588 H 511.444 1.44146 -2.62416 0
M  V30 5589 H 508.99 0.692024 -1.26282 0
M  V30 5590 H 510.943 3.76564 -1.8915 0
M  V30 5591 H 509.667 3.16568 -0.80324 0
M  V30 5592 H 508.326 2.38213 -2.78658 0
M  V30 5593 H 507.974 4.67585 -1.854 0
M  V30 5594 H 507.674 4.63662 -3.60958 0
M  V30 5595 H 509.198 5.32752 -2.98342 0
M  V30 5596 H 510.612 3.60178 -4.46032 0
M  V30 5597 H 509.009 3.14844 -5.10875 0
M  V30 5598 H 510.079 1.88966 -4.46565 0
M  V30 5599 N 511.423 1.38739 0.74761 0
M  V30 5600 C 512.672 1.3459 1.50228 0
M  V30 5601 C 512.985 -0.0595592 1.95509 0
M  V30 5602 O 514.191 -0.22361 2.70578 0
M  V30 5603 C 512.647 2.36377 2.71393 0
M  V30 5604 C 512.255 3.82573 2.33113 0
M  V30 5605 C 513.999 2.41281 3.49262 0
M  V30 5606 C 511.906 4.76032 3.50924 0
M  V30 5607 H 510.836 0.500312 0.564096 0
M  V30 5608 H 513.487 1.64324 0.8167 0
M  V30 5609 H 511.869 1.99694 3.41962 0
M  V30 5610 H 513.043 4.28227 1.70171 0
M  V30 5611 H 511.358 3.80844 1.68365 0
M  V30 5612 H 513.955 3.08301 4.36869 0
M  V30 5613 H 514.298 1.43353 3.9084 0
M  V30 5614 H 514.831 2.76793 2.85711 0
M  V30 5615 H 511.57 5.75177 3.14408 0
M  V30 5616 H 511.09 4.35066 4.12889 0
M  V30 5617 H 512.769 4.94331 4.17427 0
M  V30 5618 N 512.901 -0.976442 1.23707 0
M  V30 5619 C 513.848 -2.06952 1.02174 0
M  V30 5620 C 514.818 -1.65984 -0.0621034 0
M  V30 5621 O 516.003 -1.90584 0.0907906 0
M  V30 5622 C 513.143 -3.39425 0.62327 0
M  V30 5623 C 512.256 -3.9364 1.77966 0
M  V30 5624 C 511.391 -5.14343 1.3276 0
M  V30 5625 C 510.43 -5.60733 2.45449 0
M  V30 5626 N 509.567 -6.72662 2.01172 0
M  V30 5627 H 514.407 -2.24704 1.95734 0
M  V30 5628 H 511.944 -1.10143 0.975034 0
M  V30 5629 H 513.902 -4.15526 0.37332 0
M  V30 5630 H 512.532 -3.21624 -0.275329 0
M  V30 5631 H 511.584 -3.14258 2.14351 0
M  V30 5632 H 512.896 -4.24035 2.62671 0
M  V30 5633 H 512.05 -5.97789 1.03601 0
M  V30 5634 H 510.789 -4.8561 0.450975 0
M  V30 5635 H 509.794 -4.75865 2.75378 0
M  V30 5636 H 511.019 -5.91483 3.33654 0
M  V30 5637 H 508.965 -6.45681 1.15895 0
M  V30 5638 H 508.882 -7.02462 2.79434 0
M  V30 5639 H 510.15 -7.59572 1.75129 0
M  V30 5640 N 514.379 -1.04941 -1.1758 0
M  V30 5641 C 515.625 -0.759112 -1.88057 0
M  V30 5642 C 515.958 0.711918 -1.8068 0
M  V30 5643 O 515.233 1.52035 -1.21308 0
M  V30 5644 C 515.516 -1.237 -3.38187 0
M  V30 5645 C 515.369 -2.77078 -3.54327 0
M  V30 5646 C 516.688 -0.834014 -4.32125 0
M  V30 5647 H 513.807 -0.277237 -0.682868 0
M  V30 5648 H 516.449 -1.30296 -1.38286 0
M  V30 5649 H 514.599 -0.774337 -3.80705 0
M  V30 5650 H 516.271 -3.31449 -3.20842 0
M  V30 5651 H 514.514 -3.16477 -2.96689 0
M  V30 5652 H 515.185 -3.05577 -4.59703 0
M  V30 5653 H 517.661 -1.23228 -3.97434 0
M  V30 5654 H 516.537 -1.19603 -5.35711 0
M  V30 5655 H 516.798 0.262195 -4.41322 0
M  V30 5656 N 515.857 1.33968 -0.830081 0
M  V30 5657 C 517.082 2.02813 -0.433796 0
M  V30 5658 C 517.507 1.62076 0.954614 0
M  V30 5659 O 516.865 0.808955 1.62252 0
M  V30 5660 C 516.913 3.56348 -0.552115 0
M  V30 5661 O 516.017 4.10202 0.425191 0
M  V30 5662 H 515.358 0.639817 -0.177567 0
M  V30 5663 H 517.888 1.7106 -1.12248 0
M  V30 5664 H 517.898 4.05722 -0.430513 0
M  V30 5665 H 516.573 3.85344 -1.56471 0
M  V30 5666 H 515.15 3.71979 0.261878 0
M  V30 5667 N 517.335 0.585699 1.46312 0
M  V30 5668 C 518.583 0.072278 2.01971 0
M  V30 5669 C 518.904 -1.29345 1.45928 0
M  V30 5670 O 518.174 -1.84973 0.645109 0
M  V30 5671 H 516.754 0.023729 0.746623 0
M  V30 5672 H 519.416 0.762155 1.7938 0
M  V30 5673 H 518.512 0.00552767 3.121 0
M  V30 5674 N 518.813 -1.54241 0.323641 0
M  V30 5675 C 519.761 -2.25813 -0.557804 0
M  V30 5676 C 520.755 -1.27225 -1.11849 0
M  V30 5677 O 521.961 -1.45001 -1.06652 0
M  V30 5678 H 518.336 -0.72532 -0.198532 0
M  V30 5679 H 520.307 -2.98322 0.0681112 0
M  V30 5680 C 519.056 -3.02913 -1.70701 0
M  V30 5681 H 518.379 -3.78593 -1.28482 0
M  V30 5682 H 519.819 -3.56238 -2.29935 0
M  V30 5683 C 518.278 -2.11217 -2.62467 0
M  V30 5684 O 518.808 -1.69508 -3.64184 0
M  V30 5685 N 517.014 -1.76704 -2.30703 0
M  V30 5686 H 516.561 -2.1082 -1.48029 0
M  V30 5687 H 516.519 -1.15631 -2.92364 0
M  V30 5688 N 520.291 -0.0518155 -1.57515 0
M  V30 5689 C 521.516 0.634896 -1.97443 0
M  V30 5690 C 521.941 1.63546 -0.929207 0
M  V30 5691 O 521.299 1.80981 0.107484 0
M  V30 5692 C 521.347 1.29765 -3.36442 0
M  V30 5693 O 520.451 2.41333 -3.34413 0
M  V30 5694 H 519.792 0.164994 -0.643174 0
M  V30 5695 H 522.322 -0.120407 -2.04245 0
M  V30 5696 H 522.332 1.64918 -3.73184 0
M  V30 5697 H 521.007 0.564361 -4.12053 0
M  V30 5698 H 519.584 2.08122 -3.09418 0
M  V30 5699 N 521.769 1.56035 0.221574 0
M  V30 5700 C 523.016 1.79047 0.94597 0
M  V30 5701 C 523.344 0.62057 1.84334 0
M  V30 5702 O 522.599 -0.395053 1.91671 0
M  V30 5703 C 522.898 3.07813 1.8162 0
M  V30 5704 C 522.564 4.3797 1.07206 0
M  V30 5705 C 521.226 4.73334 0.866508 0
M  V30 5706 C 523.578 5.18326 0.546565 0
M  V30 5707 C 520.906 5.8657 0.123549 0
M  V30 5708 C 523.258 6.32335 -0.18305 0
M  V30 5709 C 521.922 6.66301 -0.399861 0
M  V30 5710 H 521.192 0.655178 0.346155 0
M  V30 5711 H 523.839 1.90299 0.214146 0
M  V30 5712 H 522.144 2.91682 2.61589 0
M  V30 5713 H 523.841 3.2282 2.37884 0
M  V30 5714 H 520.431 4.10202 1.24226 0
M  V30 5715 H 524.615 4.9144 0.692847 0
M  V30 5716 H 519.871 6.11376 -0.0546591 0
M  V30 5717 H 524.045 6.9383 -0.59775 0
M  V30 5718 H 521.672 7.53889 -0.977489 0
M  V30 5719 N 523.247 -0.488276 1.49845 0
M  V30 5720 C 524.493 -1.24341 1.6021 0
M  V30 5721 C 524.826 -1.91967 0.293651 0
M  V30 5722 O 524.101 -1.81323 -0.703718 0
M  V30 5723 C 524.384 -2.3005 2.77036 0
M  V30 5724 C 524.237 -1.66842 4.17713 0
M  V30 5725 C 525.556 -3.31509 2.89464 0
M  V30 5726 H 522.675 -0.450704 0.583125 0
M  V30 5727 H 525.317 -0.539673 1.82174 0
M  V30 5728 H 523.467 -2.90071 2.58439 0
M  V30 5729 H 525.139 -1.1055 4.47858 0
M  V30 5730 H 523.382 -0.972079 4.22768 0
M  V30 5731 H 524.053 -2.43576 4.95353 0
M  V30 5732 H 526.529 -2.81493 3.06433 0
M  V30 5733 H 525.405 -4.02822 3.72861 0
M  V30 5734 H 525.666 -3.94603 1.99351 0
M  V30 5735 N 524.725 -1.39134 -0.740242 0
M  V30 5736 C 525.973 -1.35803 -1.49673 0
M  V30 5737 C 526.294 0.0470897 -1.94943 0
M  V30 5738 O 525.564 0.997347 -1.68611 0
M  V30 5739 H 524.144 -0.499736 -0.555224 0
M  V30 5740 H 526.806 -1.73947 -0.879107 0
M  V30 5741 H 525.902 -2.0174 -2.38133 0
M  V30 5742 N 526.204 0.969867 -1.24223 0
M  V30 5743 C 527.451 1.71256 -1.08063 0
M  V30 5744 C 527.779 1.90734 0.380872 0
M  V30 5745 O 527.034 1.46469 1.29789 0
M  V30 5746 C 527.333 3.10883 -1.76314 0
M  V30 5747 C 526.999 3.11252 -3.26241 0
M  V30 5748 C 525.661 3.1106 -3.67144 0
M  V30 5749 C 528.013 3.05751 -4.22097 0
M  V30 5750 C 525.341 3.03097 -5.02344 0
M  V30 5751 C 527.693 2.9933 -5.57301 0
M  V30 5752 C 526.357 2.97466 -5.97554 0
M  V30 5753 H 525.627 0.62667 -0.395431 0
M  V30 5754 H 528.274 1.13422 -1.54297 0
M  V30 5755 H 526.579 3.72168 -1.22468 0
M  V30 5756 H 528.276 3.67138 -1.61277 0
M  V30 5757 H 524.866 3.12165 -2.93685 0
M  V30 5758 H 529.05 3.05031 -3.91497 0
M  V30 5759 H 524.306 3.00013 -5.32731 0
M  V30 5760 H 528.48 2.94033 -6.31283 0
M  V30 5761 H 526.107 2.91051 -7.02277 0
M  V30 5762 N 527.682 1.05563 1.17022 0
M  V30 5763 C 528.931 0.763036 1.8671 0
M  V30 5764 C 529.244 -0.712857 1.82147 0
M  V30 5765 O 530.45 -1.11955 2.47343 0
M  V30 5766 C 528.906 1.31474 3.35026 0
M  V30 5767 C 528.514 2.82034 3.48081 0
M  V30 5768 C 530.258 1.09935 4.10018 0
M  V30 5769 C 528.165 3.30486 4.90442 0
M  V30 5770 H 527.095 0.281747 0.699382 0
M  V30 5771 H 529.746 1.2734 1.32124 0
M  V30 5772 H 528.128 0.732171 3.89173 0
M  V30 5773 H 529.302 3.46178 3.04133 0
M  V30 5774 H 527.617 3.02156 2.86515 0
M  V30 5775 H 530.214 1.43632 5.15048 0
M  V30 5776 H 530.557 0.0373072 4.16283 0
M  V30 5777 H 531.09 1.64732 3.62089 0
M  V30 5778 H 527.829 4.36137 4.89352 0
M  V30 5779 H 527.349 2.71086 5.35044 0
M  V30 5780 H 529.028 3.25382 5.59227 0
M  V30 5781 N 529.16 -1.33526 0.837174 0
M  V30 5782 C 530.576 -1.50727 0.524743 0
M  V30 5783 C 530.776 -1.77792 -0.948279 0
M  V30 5784 O 529.832 -1.83719 -1.73216 0
M  V30 5785 C 531.145 -2.66299 1.39661 0
M  V30 5786 C 532.693 -2.80183 1.39521 0
M  V30 5787 C 533.168 -3.98815 2.25189 0
M  V30 5788 N 534.659 -4.06047 2.2289 0
M  V30 5789 C 535.394 -4.97032 2.85915 0
M  V30 5790 N 534.89 -5.93143 3.57985 0
M  V30 5791 N 536.683 -4.90015 2.75394 0
M  V30 5792 H 528.834 -1.1422 1.79074 0
M  V30 5793 H 531.097 -0.561399 0.763894 0
M  V30 5794 H 530.803 -2.52974 2.4433 0
M  V30 5795 H 530.677 -3.61663 1.07145 0
M  V30 5796 H 533.064 -2.92942 0.356253 0
M  V30 5797 H 533.145 -1.85586 1.76044 0
M  V30 5798 H 532.789 -3.86817 3.29143 0
M  V30 5799 H 532.719 -4.92654 1.86009 0
M  V30 5800 H 535.21 -3.37262 1.70478 0
M  V30 5801 H 535.523 -6.59227 4.03286 0
M  V30 5802 H 533.868 -5.93223 3.62093 0
M  V30 5803 H 537.059 -4.13894 2.18654 0
M  V30 5804 H 537.232 -5.60724 3.24796 0
M  V30 5805 N 530.638 -0.59345 -1.46 0
M  V30 5806 C 531.915 -0.0157933 -1.95594 0
M  V30 5807 C 532.295 1.44807 -1.53604 0
M  V30 5808 O 531.643 2.14342 -0.791824 0
M  V30 5809 C 531.853 -0.199081 -3.48432 0
M  V30 5810 C 533.201 -0.0724943 -4.24538 0
M  V30 5811 O 534.225 -0.128469 -3.55968 0
M  V30 5812 O 533.084 0.0542426 -5.46473 0
M  V30 5813 H 530.178 0.043749 -0.825842 0
M  V30 5814 H 532.724 -0.662522 -1.56233 0
M  V30 5815 H 531.496 -1.21631 -3.71916 0
M  V30 5816 H 531.119 0.483576 -3.94648 0
M  V30 5817 N 532.116 1.54067 -0.331816 0
M  V30 5818 C 533.026 2.28322 0.539104 0
M  V30 5819 C 534.042 1.32985 1.1221 0
M  V30 5820 O 535.218 1.6601 1.1403 0
M  V30 5821 C 532.283 3.03277 1.68 0
M  V30 5822 C 531.344 4.14216 1.12798 0
M  V30 5823 C 530.577 4.85588 2.2145 0
M  V30 5824 O 530.8 4.56536 3.41952 0
M  V30 5825 O 529.734 5.72309 1.86404 0
M  V30 5826 H 533.56 3.03632 -0.0641692 0
M  V30 5827 H 531.145 1.49083 -0.0972365 0
M  V30 5828 H 533.027 3.50189 2.34405 0
M  V30 5829 H 531.702 2.30834 2.2693 0
M  V30 5830 H 530.609 3.71635 0.428782 0
M  V30 5831 H 531.942 4.88727 0.583698 0
M  V30 5832 N 533.594 0.0601682 1.57485 0
M  V30 5833 C 534.824 -0.620037 1.97076 0
M  V30 5834 C 535.232 -1.64381 0.936784 0
M  V30 5835 O 534.575 -1.83497 -0.0863377 0
M  V30 5836 C 534.637 -1.35617 3.32939 0
M  V30 5837 C 534.301 -0.487208 4.54396 0
M  V30 5838 C 535.298 0.250428 5.19297 0
M  V30 5839 C 532.983 -0.415494 5.00579 0
M  V30 5840 C 534.977 1.04812 6.28723 0
M  V30 5841 C 532.664 0.385879 6.0988 0
M  V30 5842 C 533.662 1.11637 6.73815 0
M  V30 5843 O 533.35 1.90454 7.81014 0
M  V30 5844 H 533.082 -0.173664 0.653312 0
M  V30 5845 H 535.636 0.1256 2.05016 0
M  V30 5846 H 533.866 -2.14763 3.2158 0
M  V30 5847 H 535.555 -1.92749 3.57215 0
M  V30 5848 H 536.321 0.204546 4.84568 0
M  V30 5849 H 532.2 -0.973679 4.506 0
M  V30 5850 H 535.744 1.6188 6.78558 0
M  V30 5851 H 531.641 0.433366 6.44044 0
M  V30 5852 H 532.409 1.82762 7.97835 0
M  V30 5853 N 535.072 -1.5615 -0.213296 0
M  V30 5854 C 536.3 -1.83638 -0.953139 0
M  V30 5855 C 536.715 -0.640362 -1.77609 0
M  V30 5856 O 536.072 0.391071 -1.78261 0
M  V30 5857 C 536.123 -3.09735 -1.86405 0
M  V30 5858 O 535.844 -4.24723 -1.07435 0
M  V30 5859 C 537.345 -3.5027 -2.71709 0
M  V30 5860 H 534.565 -0.610263 -0.278962 0
M  V30 5861 H 537.109 -2.03247 -0.226035 0
M  V30 5862 H 535.264 -2.92077 -2.545 0
M  V30 5863 H 535.678 -4.9641 -1.69343 0
M  V30 5864 H 537.152 -4.41515 -3.31313 0
M  V30 5865 H 537.629 -2.72406 -3.44516 0
M  V30 5866 H 538.235 -3.70396 -2.09015 0
M  V30 5867 N 536.55 0.480323 -1.50102 0
M  V30 5868 C 537.778 1.25657 -1.64371 0
M  V30 5869 C 538.193 1.86011 -0.323316 0
M  V30 5870 O 537.55 1.68803 0.693682 0
M  V30 5871 C 537.601 2.37197 -2.728 0
M  V30 5872 O 537.322 1.7932 -3.9972 0
M  V30 5873 C 538.823 3.2823 -2.9796 0
M  V30 5874 H 536.043 0.380369 -0.552775 0
M  V30 5875 H 538.587 0.574379 -1.96268 0
M  V30 5876 H 536.742 3.01208 -2.43623 0
M  V30 5877 H 537.156 2.52701 -4.59611 0
M  V30 5878 H 538.63 4.02725 -3.77513 0
M  V30 5879 H 539.107 3.86462 -2.08671 0
M  V30 5880 H 539.713 2.69964 -3.28633 0
M  V30 5881 N 538.028 1.39524 0.732853 0
M  V30 5882 C 538.958 1.41153 1.86005 0
M  V30 5883 C 539.939 0.274614 1.67869 0
M  V30 5884 O 541.124 0.480745 1.88155 0
M  V30 5885 C 538.254 1.25638 3.23778 0
M  V30 5886 C 537.208 2.36752 3.56556 0
M  V30 5887 C 536.534 2.06326 4.93289 0
M  V30 5888 C 537.834 3.79069 3.5931 0
M  V30 5889 H 539.528 2.35484 1.84899 0
M  V30 5890 H 537.074 1.13348 0.888162 0
M  V30 5891 H 539.027 1.25398 4.0231 0
M  V30 5892 H 537.751 0.277772 3.25417 0
M  V30 5893 H 536.41 2.36213 2.80355 0
M  V30 5894 H 536.058 1.06897 4.9151 0
M  V30 5895 H 535.758 2.80757 5.16187 0
M  V30 5896 H 537.282 2.07739 5.74175 0
M  V30 5897 H 538.696 3.81526 4.27914 0
M  V30 5898 H 537.093 4.52878 3.93728 0
M  V30 5899 H 538.163 4.09893 2.59068 0
M  V30 5900 N 539.506 -0.963266 1.24736 0
M  V30 5901 C 540.917 -1.52145 1.08207 0
M  V30 5902 C 541.268 -1.93142 -0.345061 0
M  V30 5903 O 540.393 -1.77769 -1.23399 0
M  V30 5904 C 540.988 -2.76486 1.95808 0
M  V30 5905 C 539.547 -3.28646 1.8349 0
M  V30 5906 C 538.694 -2.01529 1.90476 0
M  V30 5907 H 541.645 -0.781083 1.38148 0
M  V30 5908 H 541.666 -3.49986 1.49297 0
M  V30 5909 H 541.178 -2.46617 2.99669 0
M  V30 5910 H 539.279 -3.63357 0.824787 0
M  V30 5911 H 539.392 -3.97246 2.67829 0
M  V30 5912 H 537.756 -2.16442 1.34258 0
M  V30 5913 H 538.539 -1.7402 2.95926 0
M  V30 5914 N 540.985 -1.06182 -1.16461 0
M  V30 5915 C 541.895 -0.682671 -2.24448 0
M  V30 5916 C 542.911 0.30078 -1.71381 0
M  V30 5917 O 544.087 0.150376 -2.00838 0
M  V30 5918 C 541.152 -0.0737202 -3.46622 0
M  V30 5919 C 540.213 -1.10889 -4.14731 0
M  V30 5920 C 539.446 -0.528908 -5.31073 0
M  V30 5921 O 539.669 0.65868 -5.66584 0
M  V30 5922 O 538.603 -1.26805 -5.88391 0
M  V30 5923 H 542.429 -1.58291 -2.59187 0
M  V30 5924 H 540.014 -0.834013 -1.23954 0
M  V30 5925 H 541.896 0.264192 -4.20571 0
M  V30 5926 H 540.571 0.800015 -3.13658 0
M  V30 5927 H 539.478 -1.49896 -3.42756 0
M  V30 5928 H 540.811 -1.95412 -4.51747 0
M  V30 5929 N 542.463 1.3308 -0.844243 0
M  V30 5930 C 543.74 1.92178 -0.364261 0
M  V30 5931 C 544.12 1.76961 1.15101 0
M  V30 5932 O 543.468 1.16128 1.9679 0
M  V30 5933 C 543.678 3.393 -0.817106 0
M  V30 5934 C 545.026 4.16444 -0.828236 0
M  V30 5935 O 546.05 3.47975 -0.761062 0
M  V30 5936 O 544.909 5.38685 -0.920926 0
M  V30 5937 H 542.003 0.820411 -0.10419 0
M  V30 5938 H 544.549 1.41918 -0.930453 0
M  V30 5939 H 543.321 3.44272 -1.85991 0
M  V30 5940 H 542.944 3.96947 -0.227785 0
M  V30 5941 N 543.941 0.601185 1.45683 0
M  V30 5942 C 545.166 0.0982245 2.07167 0
M  V30 5943 C 545.591 -1.20546 1.44396 0
M  V30 5944 O 544.949 -1.73247 0.534347 0
M  V30 5945 C 544.997 -0.0346976 3.60583 0
M  V30 5946 O 544.101 -1.08657 3.97828 0
M  V30 5947 H 543.442 0.0711618 0.660176 0
M  V30 5948 H 545.972 0.829376 1.87036 0
M  V30 5949 H 545.982 -0.234969 4.07323 0
M  V30 5950 H 544.657 0.917265 4.05659 0
M  V30 5951 H 543.234 -0.863275 3.6277 0
M  V30 5952 N 545.419 -1.53889 0.339982 0
M  V30 5953 C 546.367 -2.26391 -0.533822 0
M  V30 5954 C 547.361 -1.28404 -1.10493 0
M  V30 5955 O 548.567 -1.46124 -1.05108 0
M  V30 5956 H 544.942 -0.727385 -0.190828 0
M  V30 5957 H 546.913 -2.98233 0.0997484 0
M  V30 5958 C 545.662 -3.04707 -1.67479 0
M  V30 5959 H 544.985 -3.79934 -1.2446 0
M  V30 5960 H 546.425 -3.58657 -2.26144 0
M  V30 5961 C 544.884 -2.13989 -2.60212 0
M  V30 5962 O 545.414 -1.73361 -3.62366 0
M  V30 5963 N 543.62 -1.79141 -2.28816 0
M  V30 5964 H 543.167 -2.12378 -1.45785 0
M  V30 5965 H 543.125 -1.18725 -2.91121 0
M  V30 5966 N 546.897 -0.0685191 -1.57451 0
M  V30 5967 C 548.313 0.288101 -1.56978 0
M  V30 5968 C 548.513 1.70262 -1.07765 0
M  V30 5969 O 547.569 2.4135 -0.742054 0
M  V30 5970 C 548.882 0.100745 -3.00531 0
M  V30 5971 C 550.43 0.170531 -3.12535 0
M  V30 5972 C 550.905 0.0114944 -4.57999 0
M  V30 5973 N 552.396 0.0672065 -4.63151 0
M  V30 5974 C 553.131 -0.0314813 -5.73391 0
M  V30 5975 N 552.627 -0.183503 -6.92557 0
M  V30 5976 N 554.42 0.0253489 -5.62094 0
M  V30 5977 H 546.571 -0.993026 -1.87757 0
M  V30 5978 H 548.834 -0.386981 -0.865419 0
M  V30 5979 H 548.54 -0.875197 -3.40636 0
M  V30 5980 H 548.414 0.854457 -3.67395 0
M  V30 5981 H 550.801 1.13696 -2.72318 0
M  V30 5982 H 550.882 -0.614229 -2.48316 0
M  V30 5983 H 550.526 -0.951684 -4.98904 0
M  V30 5984 H 550.456 0.815617 -5.20245 0
M  V30 5985 H 552.947 0.183246 -3.77455 0
M  V30 5986 H 553.26 -0.251041 -7.72392 0
M  V30 5987 H 551.605 -0.218822 -6.94655 0
M  V30 5988 H 554.796 0.142794 -4.67882 0
M  V30 5989 H 554.969 -0.0550166 -6.47977 0
M  V30 5990 N 548.375 1.56261 0.205012 0
M  V30 5991 C 549.786 1.70056 0.770574 0
M  V30 5992 C 550.137 0.673398 1.84282 0
M  V30 5993 O 549.262 -0.172196 2.15714 0
M  V30 5994 C 549.857 3.08316 1.40451 0
M  V30 5995 C 548.416 3.2391 1.91727 0
M  V30 5996 C 547.563 2.66001 0.783516 0
M  V30 5997 H 550.514 1.58688 -0.019911 0
M  V30 5998 H 550.535 3.05094 2.27371 0
M  V30 5999 H 550.047 3.83053 0.623882 0
M  V30 6000 H 548.148 2.54072 2.7254 0
M  V30 6001 H 548.261 4.3131 2.08588 0
M  V30 6002 H 546.625 2.24915 1.19521 0
M  V30 6003 H 547.408 3.43297 0.0152883 0
M  V30 6004 N 549.853 -0.472356 1.50355 0
M  V30 6005 C 550.783 -1.57859 1.72055 0
M  V30 6006 C 551.764 -1.60283 0.569505 0
M  V30 6007 O 552.949 -1.7657 0.808503 0
M  V30 6008 C 550.079 -2.96191 1.81351 0
M  V30 6009 C 549.033 -3.08633 2.96529 0
M  V30 6010 C 548.359 -4.486 2.90968 0
M  V30 6011 C 549.659 -2.85969 4.37057 0
M  V30 6012 H 551.353 -1.39953 2.64676 0
M  V30 6013 H 548.899 -0.671846 1.27367 0
M  V30 6014 H 550.852 -3.73507 1.95117 0
M  V30 6015 H 549.576 -3.15251 0.853502 0
M  V30 6016 H 548.235 -2.33749 2.82413 0
M  V30 6017 H 547.883 -4.64577 1.92815 0
M  V30 6018 H 547.583 -4.57861 3.68289 0
M  V30 6019 H 549.107 -5.27938 3.0678 0
M  V30 6020 H 550.521 -3.53036 4.51706 0
M  V30 6021 H 548.918 -3.06677 5.15819 0
M  V30 6022 H 549.988 -1.81838 4.49514 0
M  V30 6023 N 551.331 -1.39911 -0.725443 0
M  V30 6024 C 552.578 -1.37654 -1.48518 0
M  V30 6025 C 552.906 0.0243982 -1.94485 0
M  V30 6026 O 552.161 1.00708 -1.67799 0
M  V30 6027 C 552.46 -2.30368 -2.7325 0
M  V30 6028 C 552.126 -3.77817 -2.461 0
M  V30 6029 C 550.788 -4.17991 -2.38405 0
M  V30 6030 C 553.14 -4.71036 -2.23103 0
M  V30 6031 C 550.468 -5.49433 -2.05768 0
M  V30 6032 C 552.82 -6.02766 -1.9198 0
M  V30 6033 C 551.484 -6.41993 -1.82761 0
M  V30 6034 H 550.754 -0.503713 -0.543465 0
M  V30 6035 H 553.401 -1.7249 -0.831822 0
M  V30 6036 H 551.706 -1.88683 -3.43375 0
M  V30 6037 H 553.403 -2.2591 -3.31309 0
M  V30 6038 H 549.993 -3.45982 -2.52972 0
M  V30 6039 H 554.177 -4.40823 -2.2801 0
M  V30 6040 H 549.433 -5.78738 -1.9716 0
M  V30 6041 H 553.607 -6.74519 -1.73197 0
M  V30 6042 H 551.234 -7.43761 -1.57237 0
M  V30 6043 N 552.809 0.956637 -1.25245 0
M  V30 6044 C 554.055 1.70352 -1.10036 0
M  V30 6045 C 554.388 1.90869 0.358156 0
M  V30 6046 O 553.663 1.47819 1.26411 0
M  V30 6047 C 553.946 3.08766 -1.85298 0
M  V30 6048 C 553.799 2.95672 -3.38966 0
M  V30 6049 C 555.118 4.08622 -1.63451 0
M  V30 6050 H 552.237 0.618279 -0.401123 0
M  V30 6051 H 554.879 1.11212 -1.54051 0
M  V30 6052 H 553.029 3.59252 -1.47887 0
M  V30 6053 H 554.701 2.52527 -3.86041 0
M  V30 6054 H 552.944 2.31634 -3.6678 0
M  V30 6055 H 553.615 3.93776 -3.86839 0
M  V30 6056 H 556.091 3.67038 -1.96015 0
M  V30 6057 H 554.967 5.03514 -2.18551 0
M  V30 6058 H 555.228 4.3834 -0.575357 0
M  V30 6059 N 554.287 1.06798 1.15896 0
M  V30 6060 C 555.517 0.807522 1.90165 0
M  V30 6061 C 555.925 -0.642417 1.7796 0
M  V30 6062 O 555.268 -1.45193 1.12537 0
M  V30 6063 C 555.33 1.12939 3.41299 0
M  V30 6064 C 554.994 2.57879 3.7729 0
M  V30 6065 C 555.991 3.56118 3.78782 0
M  V30 6066 C 553.676 2.93311 4.07767 0
M  V30 6067 C 555.67 4.87827 4.10248 0
M  V30 6068 C 553.357 4.25219 4.38899 0
M  V30 6069 C 554.355 5.22287 4.4012 0
M  V30 6070 O 554.043 6.51826 4.70508 0
M  V30 6071 H 553.775 0.291946 0.609708 0
M  V30 6072 H 556.329 1.42627 1.47806 0
M  V30 6073 H 554.559 0.45359 3.84031 0
M  V30 6074 H 556.248 0.852363 3.9685 0
M  V30 6075 H 557.014 3.30086 3.55342 0
M  V30 6076 H 552.893 2.18409 4.05979 0
M  V30 6077 H 556.437 5.63586 4.11116 0
M  V30 6078 H 552.334 4.51006 4.61805 0
M  V30 6079 H 553.102 6.56893 4.88298 0
M  V30 6080 N 555.766 -1.3263 0.851289 0
M  V30 6081 C 556.696 -2.31449 0.308771 0
M  V30 6082 C 557.677 -1.59531 -0.590255 0
M  V30 6083 O 558.862 -1.87351 -0.511205 0
M  V30 6084 C 555.992 -3.43586 -0.506548 0
M  V30 6085 C 554.946 -4.26963 0.297753 0
M  V30 6086 C 554.272 -5.30831 -0.642094 0
M  V30 6087 C 555.572 -4.99643 1.52166 0
M  V30 6088 H 557.266 -2.77074 1.13447 0
M  V30 6089 H 554.812 -1.33207 0.546971 0
M  V30 6090 H 556.765 -4.11754 -0.896474 0
M  V30 6091 H 555.489 -2.96681 -1.36558 0
M  V30 6092 H 554.148 -3.60437 0.669391 0
M  V30 6093 H 553.796 -4.8018 -1.49788 0
M  V30 6094 H 553.496 -5.87501 -0.107968 0
M  V30 6095 H 555.02 -6.01862 -1.02927 0
M  V30 6096 H 556.434 -5.6051 1.20421 0
M  V30 6097 H 554.831 -5.66022 1.99347 0
M  V30 6098 H 555.901 -4.27701 2.28474 0
M  V30 6099 N 557.244 -0.608902 -1.45362 0
M  V30 6100 C 558.192 0.121639 -2.32282 0
M  V30 6101 C 559.186 0.858301 -1.46046 0
M  V30 6102 O 560.392 0.773718 -1.62523 0
M  V30 6103 H 556.767 0.058086 -0.749753 0
M  V30 6104 H 558.738 -0.629866 -2.91677 0
M  V30 6105 C 557.487 1.1047 -3.29684 0
M  V30 6106 H 556.81 0.547278 -3.96036 0
M  V30 6107 H 558.25 1.58576 -3.9323 0
M  V30 6108 C 556.709 2.17891 -2.56954 0
M  V30 6109 O 557.239 3.25652 -2.35189 0
M  V30 6110 N 555.445 1.93211 -2.17066 0
M  V30 6111 H 554.992 1.05584 -2.34967 0
M  V30 6112 H 554.95 2.6529 -1.68727 0
M  V30 6113 N 558.722 1.53707 -0.348139 0
M  V30 6114 C 559.971 2.0017 0.247992 0
M  V30 6115 C 560.284 1.23983 1.51286 0
M  V30 6116 O 561.49 1.60946 2.18652 0
M  V30 6117 C 559.946 3.56515 0.492459 0
M  V30 6118 C 559.554 4.41562 -0.756777 0
M  V30 6119 C 561.298 4.11381 1.0472 0
M  V30 6120 C 559.205 5.89426 -0.482856 0
M  V30 6121 H 558.135 0.747806 0.0964452 0
M  V30 6122 H 560.786 1.77532 -0.464179 0
M  V30 6123 H 559.168 3.75236 1.26545 0
M  V30 6124 H 560.342 4.34615 -1.53122 0
M  V30 6125 H 558.657 3.97711 -1.23348 0
M  V30 6126 H 561.254 5.19468 1.26717 0
M  V30 6127 H 561.597 3.64885 2.00411 0
M  V30 6128 H 562.13 3.96389 0.334801 0
M  V30 6129 H 558.869 6.40164 -1.40962 0
M  V30 6130 H 558.389 5.99264 0.253416 0
M  V30 6131 H 560.068 6.4692 -0.101816 0
M  V30 6132 N 560.2 0.0768682 1.57412 0
M  V30 6133 C 561.147 -0.888577 2.13009 0
M  V30 6134 C 562.117 -1.29198 1.0439 0
M  V30 6135 O 563.302 -1.37694 1.3208 0
M  V30 6136 C 560.442 -2.14899 2.70023 0
M  V30 6137 C 559.555 -1.79777 3.92816 0
M  V30 6138 C 558.69 -3.00467 4.38056 0
M  V30 6139 C 557.729 -2.61385 5.53484 0
M  V30 6140 N 556.866 -3.74851 5.93659 0
M  V30 6141 H 561.706 -0.407593 2.95199 0
M  V30 6142 H 559.243 -0.189534 1.45874 0
M  V30 6143 H 561.201 -2.88688 3.0119 0
M  V30 6144 H 559.831 -2.60529 1.9059 0
M  V30 6145 H 558.883 -0.960301 3.68079 0
M  V30 6146 H 560.195 -1.47027 4.76639 0
M  V30 6147 H 559.349 -3.82529 4.7091 0
M  V30 6148 H 558.088 -3.36413 3.53097 0
M  V30 6149 H 557.093 -1.77746 5.20275 0
M  V30 6150 H 558.318 -2.26603 6.40178 0
M  V30 6151 H 556.264 -4.1055 5.11649 0
M  V30 6152 H 556.181 -3.45887 6.72234 0
M  V30 6153 H 557.449 -4.57477 6.31138 0
M  V30 6154 N 561.678 -1.56367 -0.196722 0
M  V30 6155 C 562.924 -1.81698 -0.914182 0
M  V30 6156 C 563.279 -0.65367 -1.80956 0
M  V30 6157 O 562.572 0.351224 -1.88353 0
M  V30 6158 C 562.766 -3.10663 -1.767 0
M  V30 6159 C 562.595 -4.39428 -0.955689 0
M  V30 6160 C 561.365 -5.01221 -0.64076 0
M  V30 6161 C 563.563 -5.1337 -0.309165 0
M  V30 6162 N 561.545 -6.13608 0.189358 0
M  V30 6163 C 562.916 -6.18815 0.383225 0
M  V30 6164 C 564.971 -4.97393 -0.224726 0
M  V30 6165 C 563.674 -7.10015 1.15201 0
M  V30 6166 C 565.7 -5.89014 0.530658 0
M  V30 6167 C 565.062 -6.93903 1.2115 0
M  V30 6168 H 561.161 -0.716203 -0.31397 0
M  V30 6169 H 563.745 -1.93838 -0.18304 0
M  V30 6170 H 561.916 -2.99762 -2.46976 0
M  V30 6171 H 563.648 -3.24088 -2.42382 0
M  V30 6172 H 560.403 -4.63669 -0.96479 0
M  V30 6173 H 560.827 -6.74389 0.593979 0
M  V30 6174 H 565.469 -4.16331 -0.736754 0
M  V30 6175 H 563.187 -7.9054 1.67547 0
M  V30 6176 H 566.773 -5.78726 0.597326 0
M  V30 6177 H 565.653 -7.63576 1.78665 0
M  V30 6178 N 563.156 0.464375 -1.50603 0
M  V30 6179 C 564.103 1.56152 -1.69956 0
M  V30 6180 C 565.073 1.57046 -0.54091 0
M  V30 6181 O 566.258 1.74473 -0.772258 0
M  V30 6182 C 563.398 2.94079 -1.80586 0
M  V30 6183 C 562.511 3.02923 -3.07996 0
M  V30 6184 C 561.646 4.31806 -3.09382 0
M  V30 6185 C 560.685 4.34417 -4.31218 0
M  V30 6186 N 559.822 5.54782 -4.30304 0
M  V30 6187 H 564.662 1.38955 -2.6362 0
M  V30 6188 H 562.199 0.675482 -1.30674 0
M  V30 6189 H 564.157 3.74073 -1.8473 0
M  V30 6190 H 562.787 3.09896 -0.903556 0
M  V30 6191 H 561.839 2.1576 -3.13292 0
M  V30 6192 H 563.151 3.00712 -3.97962 0
M  V30 6193 H 562.305 5.20153 -3.12292 0
M  V30 6194 H 561.044 4.36636 -2.17257 0
M  V30 6195 H 560.049 3.44467 -4.28512 0
M  V30 6196 H 561.274 4.31273 -5.24576 0
M  V30 6197 H 559.22 5.60384 -3.41037 0
M  V30 6198 H 559.137 5.54339 -5.14047 0
M  V30 6199 H 560.405 6.45235 -4.3737 0
M  V30 6200 N 564.634 1.40294 0.718013 0
M  V30 6201 C 565.864 1.41544 1.50495 0
M  V30 6202 C 566.272 0.0127877 1.89196 0
M  V30 6203 O 565.615 -0.97305 1.55812 0
M  V30 6204 C 565.677 2.24021 2.81167 0
M  V30 6205 C 565.341 3.72463 2.64803 0
M  V30 6206 C 566.338 4.65154 2.32223 0
M  V30 6207 C 564.023 4.1625 2.81143 0
M  V30 6208 C 566.017 5.99618 2.16189 0
M  V30 6209 C 563.704 5.50784 2.64727 0
M  V30 6210 C 564.702 6.42283 2.32297 0
M  V30 6211 O 564.39 7.74337 2.16004 0
M  V30 6212 H 564.122 0.484819 0.471091 0
M  V30 6213 H 566.676 1.84948 0.893488 0
M  V30 6214 H 564.906 1.75393 3.44636 0
M  V30 6215 H 566.595 2.17243 3.42871 0
M  V30 6216 H 567.361 4.32622 2.19234 0
M  V30 6217 H 563.24 3.45352 3.05373 0
M  V30 6218 H 566.784 6.71 1.90799 0
M  V30 6219 H 562.681 5.82902 2.773 0
M  V30 6220 H 563.449 7.85244 2.30942 0
M  V30 6221 N 566.112 -0.949982 1.2575 0
M  V30 6222 C 567.059 -2.04738 1.06541 0
M  V30 6223 C 568.029 -1.66078 -0.0268818 0
M  V30 6224 O 569.214 -1.90348 0.131196 0
M  V30 6225 C 566.354 -3.38027 0.695127 0
M  V30 6226 C 565.467 -3.89776 1.86276 0
M  V30 6227 C 564.602 -5.11411 1.4364 0
M  V30 6228 C 563.641 -5.554 2.57287 0
M  V30 6229 N 562.778 -6.68244 2.15395 0
M  V30 6230 H 567.618 -2.20502 2.00457 0
M  V30 6231 H 565.155 -1.0805 0.998178 0
M  V30 6232 H 567.113 -4.14641 0.461375 0
M  V30 6233 H 565.743 -3.22135 -0.207046 0
M  V30 6234 H 564.795 -3.0964 2.20969 0
M  V30 6235 H 566.107 -4.18368 2.71606 0
M  V30 6236 H 565.261 -5.95457 1.16257 0
M  V30 6237 H 564 -4.84545 0.553879 0
M  V30 6238 H 563.005 -4.69916 2.85409 0
M  V30 6239 H 564.23 -5.84272 3.46125 0
M  V30 6240 H 562.176 -6.43078 1.29565 0
M  V30 6241 H 562.093 -6.96377 2.94272 0
M  V30 6242 H 563.361 -7.55687 1.91201 0
M  V30 6243 N 567.59 -1.07411 -1.15328 0
M  V30 6244 C 568.538 -0.689316 -2.22151 0
M  V30 6245 C 569.532 0.300156 -1.6672 0
M  V30 6246 O 570.738 0.163804 -1.79253 0
M  V30 6247 H 567.113 -0.204834 -0.723566 0
M  V30 6248 H 569.084 -1.59988 -2.51886 0
M  V30 6249 C 567.833 -0.103848 -3.47545 0
M  V30 6250 H 567.156 -0.856367 -3.90521 0
M  V30 6251 H 568.596 0.127725 -4.23808 0
M  V30 6252 C 567.055 1.15563 -3.1646 0
M  V30 6253 O 567.585 2.242 -3.33312 0
M  V30 6254 N 565.791 1.06203 -2.70498 0
M  V30 6255 H 565.338 0.177933 -2.56985 0
M  V30 6256 H 565.296 1.90553 -2.50074 0
M  V30 6257 N 569.068 1.32177 -0.85831 0
M  V30 6258 C 570.296 2.01313 -0.477582 0
M  V30 6259 C 570.711 1.6449 0.926736 0
M  V30 6260 O 570.068 0.868096 1.60531 0
M  V30 6261 C 570.119 3.56293 -0.611337 0
M  V30 6262 O 569.84 3.91794 -1.96034 0
M  V30 6263 C 571.341 4.42702 -0.230093 0
M  V30 6264 H 568.561 0.644323 -0.187322 0
M  V30 6265 H 571.105 1.68674 -1.15626 0
M  V30 6266 H 569.26 3.87395 0.0196494 0
M  V30 6267 H 569.674 4.86513 -1.95973 0
M  V30 6268 H 571.148 5.50727 -0.374674 0
M  V30 6269 H 571.625 4.3129 0.829779 0
M  V30 6270 H 572.231 4.16997 -0.836302 0
M  V30 6271 N 570.547 0.616602 1.45037 0
M  V30 6272 C 571.457 -0.0985401 2.34393 0
M  V30 6273 C 572.473 -0.850971 1.51771 0
M  V30 6274 O 573.649 -0.806521 1.84546 0
M  V30 6275 C 570.714 -1.07748 3.29532 0
M  V30 6276 C 569.775 -0.326022 4.2806 0
M  V30 6277 C 569.008 -1.25833 5.18654 0
M  V30 6278 O 569.231 -2.49652 5.12864 0
M  V30 6279 O 568.165 -0.750512 5.97203 0
M  V30 6280 H 571.991 0.636016 2.96966 0
M  V30 6281 H 569.576 0.376832 1.44569 0
M  V30 6282 H 571.458 -1.64107 3.88133 0
M  V30 6283 H 570.133 -1.79291 2.69512 0
M  V30 6284 H 569.04 0.280253 3.73049 0
M  V30 6285 H 570.373 0.349091 4.9096 0
M  V30 6286 N 572.025 -1.5352 0.356285 0
M  V30 6287 C 573.302 -1.93405 -0.292223 0
M  V30 6288 C 573.682 -1.28901 -1.67176 0
M  V30 6289 O 573.03 -0.444632 -2.24132 0
M  V30 6290 C 573.24 -3.47223 -0.35175 0
M  V30 6291 C 574.588 -4.20389 -0.596534 0
M  V30 6292 O 575.612 -3.53554 -0.433344 0
M  V30 6293 O 574.471 -5.3881 -0.913589 0
M  V30 6294 H 571.565 -0.808666 -0.173172 0
M  V30 6295 H 574.111 -1.64713 0.408391 0
M  V30 6296 H 572.883 -3.86423 0.615841 0
M  V30 6297 H 572.506 -3.8212 -1.09864 0
M  V30 6298 N 573.503 -0.0852151 -1.57369 0
M  V30 6299 C 574.728 0.592872 -1.98746 0
M  V30 6300 C 575.153 1.61538 -0.963689 0
M  V30 6301 O 574.511 1.81168 0.069071 0
M  V30 6302 C 574.559 1.22599 -3.39119 0
M  V30 6303 O 573.663 2.34185 -3.39457 0
M  V30 6304 H 573.004 0.151314 -0.646529 0
M  V30 6305 H 575.534 -0.163703 -2.03944 0
M  V30 6306 H 575.544 1.56965 -3.76598 0
M  V30 6307 H 574.219 0.476831 -4.13158 0
M  V30 6308 H 572.796 2.01512 -3.13763 0
M  V30 6309 N 574.981 1.5647 0.188427 0
M  V30 6310 C 576.228 1.81013 0.907779 0
M  V30 6311 C 576.556 0.65953 1.82977 0
M  V30 6312 O 575.811 -0.354308 1.92466 0
M  V30 6313 C 576.11 3.11596 1.7505 0
M  V30 6314 C 575.776 4.40145 0.978922 0
M  V30 6315 C 574.438 4.75066 0.765912 0
M  V30 6316 C 576.79 5.19369 0.436498 0
M  V30 6317 C 574.118 5.867 -0.00089868 0
M  V30 6318 C 576.47 6.31805 -0.317136 0
M  V30 6319 C 575.134 6.65303 -0.541103 0
M  V30 6320 H 574.404 0.662373 0.33218 0
M  V30 6321 H 577.051 1.9071 0.173732 0
M  V30 6322 H 575.356 2.97165 2.55343 0
M  V30 6323 H 577.053 3.27793 2.30983 0
M  V30 6324 H 573.643 4.12745 1.15497 0
M  V30 6325 H 577.827 4.92799 0.588449 0
M  V30 6326 H 573.083 6.11122 -0.184329 0
M  V30 6327 H 577.257 6.92406 -0.744788 0
M  V30 6328 H 574.884 7.51646 -1.13718 0
M  V30 6329 N 576.459 -0.456382 1.50847 0
M  V30 6330 C 577.707 -1.20497 1.62249 0
M  V30 6331 C 578.028 -1.92156 0.331839 0
M  V30 6332 O 577.298 -1.84751 -0.651443 0
M  V30 6333 H 575.878 -0.447775 0.597918 0
M  V30 6334 H 578.54 -0.525099 1.87693 0
M  V30 6335 H 577.636 -1.94492 2.44089 0
M  V30 6336 N 577.937 -1.40673 -0.710563 0
M  V30 6337 C 579.165 -1.42547 -1.4996 0
M  V30 6338 C 579.58 -0.0265485 -1.88781 0
M  V30 6339 O 578.937 0.950694 -1.55782 0
M  V30 6340 C 578.988 -2.32071 -2.77173 0
M  V30 6341 O 578.709 -3.66518 -2.39992 0
M  V30 6342 C 580.21 -2.42591 -3.71032 0
M  V30 6343 H 577.43 -0.486025 -0.462623 0
M  V30 6344 H 579.974 -1.84783 -0.876102 0
M  V30 6345 H 578.129 -1.93184 -3.35795 0
M  V30 6346 H 578.543 -4.14115 -3.21884 0
M  V30 6347 H 580.017 -3.09429 -4.57119 0
M  V30 6348 H 580.494 -1.4525 -4.14486 0
M  V30 6349 H 581.1 -2.82051 -3.18319 0
M  V30 6350 N 579.415 0.9433 -1.26252 0
M  V30 6351 C 580.363 2.06302 -1.07434 0
M  V30 6352 C 581.357 1.694 -0.00189471 0
M  V30 6353 O 582.563 1.79302 -0.158408 0
M  V30 6354 H 578.938 0.675453 -0.330556 0
M  V30 6355 H 580.909 2.19326 -2.02333 0
M  V30 6356 C 579.658 3.40125 -0.721817 0
M  V30 6357 H 578.981 3.68996 -1.5389 0
M  V30 6358 H 580.421 4.19295 -0.629922 0
M  V30 6359 C 578.88 3.31993 0.572902 0
M  V30 6360 O 579.41 3.67945 1.61182 0
M  V30 6361 N 577.616 2.85099 0.562748 0
M  V30 6362 H 577.163 2.5604 -0.283092 0
M  V30 6363 H 577.121 2.80041 1.42915 0
M  V30 6364 N 580.893 1.08022 1.14757 0
M  V30 6365 C 582.304 0.829144 1.67279 0
M  V30 6366 C 582.655 -0.644721 1.85305 0
M  V30 6367 O 581.78 -1.49838 1.56133 0
M  V30 6368 C 582.375 1.49855 3.03857 0
M  V30 6369 C 580.934 1.29482 3.53428 0
M  V30 6370 C 580.081 1.56386 2.28995 0
M  V30 6371 H 583.032 1.24134 0.988762 0
M  V30 6372 H 583.053 0.923572 3.69121 0
M  V30 6373 H 582.565 2.57123 2.90705 0
M  V30 6374 H 580.666 0.242669 3.71809 0
M  V30 6375 H 580.779 2.01974 4.34446 0
M  V30 6376 H 579.143 0.985217 2.34874 0
M  V30 6377 H 579.926 2.64851 2.18423 0
M  V30 6378 N 582.371 -1.3172 0.865308 0
M  V30 6379 C 583.281 -2.32394 0.320935 0
M  V30 6380 C 584.297 -1.64511 -0.566746 0
M  V30 6381 O 585.473 -1.95969 -0.464575 0
M  V30 6382 C 582.538 -3.43462 -0.472701 0
M  V30 6383 C 581.599 -4.27015 0.442385 0
M  V30 6384 C 580.832 -5.32779 -0.313469 0
M  V30 6385 O 581.055 -5.49158 -1.54214 0
M  V30 6386 O 579.989 -6.01015 0.326257 0
M  V30 6387 H 583.815 -2.80868 1.15528 0
M  V30 6388 H 581.4 -1.35535 0.628545 0
M  V30 6389 H 583.282 -4.11172 -0.922781 0
M  V30 6390 H 581.957 -2.97159 -1.28367 0
M  V30 6391 H 580.864 -3.62075 0.940866 0
M  V30 6392 H 582.197 -4.76871 1.21882 0
M  V30 6393 N 583.85 -0.624285 -1.44708 0
M  V30 6394 C 584.798 0.0969952 -2.32398 0
M  V30 6395 C 585.792 0.842762 -1.46949 0
M  V30 6396 O 586.998 0.756436 -1.63334 0
M  V30 6397 H 583.373 0.0501306 -0.750327 0
M  V30 6398 H 585.344 -0.660767 -2.90992 0
M  V30 6399 C 584.093 1.06967 -3.30837 0
M  V30 6400 H 583.416 0.505242 -3.96595 0
M  V30 6401 H 584.856 1.54397 -3.94889 0
M  V30 6402 C 583.315 2.15153 -2.5925 0
M  V30 6403 O 583.845 3.23139 -2.3863 0
M  V30 6404 N 582.051 1.90898 -2.19103 0
M  V30 6405 H 581.598 1.03086 -2.36074 0
M  V30 6406 H 581.556 2.63485 -1.71531 0
M  V30 6407 N 585.328 1.53329 -0.364422 0
M  V30 6408 C 586.558 2.05359 0.226096 0
M  V30 6409 C 586.966 1.23777 1.43094 0
M  V30 6410 O 586.309 0.271139 1.81688 0
M  V30 6411 C 586.371 3.52918 0.684794 0
M  V30 6412 C 586.035 4.55218 -0.403206 0
M  V30 6413 C 587.032 5.04583 -1.2527 0
M  V30 6414 C 584.717 4.99134 -0.563117 0
M  V30 6415 C 586.711 5.96463 -2.24745 0
M  V30 6416 C 584.398 5.9082 -1.56124 0
M  V30 6417 C 585.396 6.39375 -2.40184 0
M  V30 6418 O 585.084 7.29255 -3.38293 0
M  V30 6419 H 584.816 0.674588 0.0436772 0
M  V30 6420 H 587.37 1.98688 -0.520782 0
M  V30 6421 H 585.6 3.57122 1.48326 0
M  V30 6422 H 587.289 3.87812 1.19818 0
M  V30 6423 H 588.055 4.71403 -1.14034 0
M  V30 6424 H 583.934 4.60928 0.0813909 0
M  V30 6425 H 587.478 6.34285 -2.90393 0
M  V30 6426 H 583.375 6.23414 -1.67407 0
M  V30 6427 H 584.143 7.47249 -3.34009 0
M  V30 6428 N 586.806 0.0935595 1.57322 0
M  V30 6429 C 588.052 -0.571355 1.94585 0
M  V30 6430 C 588.385 -1.67929 0.975366 0
M  V30 6431 O 587.66 -1.94498 0.00816206 0
M  V30 6432 C 587.943 -1.12797 3.41978 0
M  V30 6433 C 587.796 -0.0251881 4.49793 0
M  V30 6434 C 589.115 -2.02682 3.90651 0
M  V30 6435 H 586.234 -0.206223 0.70756 0
M  V30 6436 H 588.876 0.163956 1.89291 0
M  V30 6437 H 587.026 -1.75461 3.4662 0
M  V30 6438 H 588.698 0.608979 4.57263 0
M  V30 6439 H 586.941 0.641399 4.29032 0
M  V30 6440 H 587.612 -0.455433 5.50118 0
M  V30 6441 H 590.088 -1.49925 3.88152 0
M  V30 6442 H 588.964 -2.38555 4.94351 0
M  V30 6443 H 589.225 -2.94362 3.29854 0
M  V30 6444 N 588.284 -1.56567 -0.180126 0
M  V30 6445 C 589.247 -1.94852 -1.20686 0
M  V30 6446 C 590.247 -0.831212 -1.3765 0
M  V30 6447 O 591.437 -1.09841 -1.35206 0
M  V30 6448 C 588.569 -2.23565 -2.57355 0
M  V30 6449 H 589.762 -2.86722 -0.879225 0
M  V30 6450 H 587.315 -1.50489 -0.422237 0
M  V30 6451 H 588.05 -1.34381 -2.95148 0
M  V30 6452 H 587.835 -3.04999 -2.46411 0
M  V30 6453 H 589.325 -2.54137 -3.31367 0
M  V30 6454 N 589.762 0.448376 -1.51087 0
M  V30 6455 C 590.725 1.52588 -1.71025 0
M  V30 6456 C 591.725 1.49958 -0.580442 0
M  V30 6457 O 592.915 1.52176 -0.847833 0
M  V30 6458 C 590.047 2.92163 -1.75652 0
M  V30 6459 H 591.24 1.36218 -2.67179 0
M  V30 6460 H 588.793 0.676313 -1.4091 0
M  V30 6461 H 589.528 3.13951 -0.812724 0
M  V30 6462 H 589.313 2.95478 -2.57751 0
M  V30 6463 H 590.803 3.70349 -1.92953 0
M  V30 6464 N 591.24 1.41047 0.703093 0
M  V30 6465 C 592.15 1.44645 1.84703 0
M  V30 6466 C 593.166 0.337778 1.7069 0
M  V30 6467 O 594.342 0.584327 1.92737 0
M  V30 6468 C 591.407 1.31928 3.20618 0
M  V30 6469 C 590.468 2.53047 3.46794 0
M  V30 6470 C 589.701 2.40927 4.76224 0
M  V30 6471 O 589.924 1.42978 5.5219 0
M  V30 6472 O 588.858 3.30543 5.03016 0
M  V30 6473 H 592.684 2.41139 1.84624 0
M  V30 6474 H 590.269 1.22504 0.855167 0
M  V30 6475 H 592.151 1.27092 4.01778 0
M  V30 6476 H 590.826 0.385469 3.21397 0
M  V30 6477 H 589.733 2.6346 2.65593 0
M  V30 6478 H 591.066 3.45231 3.50822 0
M  V30 6479 N 592.718 -0.936591 1.26751 0
M  V30 6480 C 593.65 -2.03991 1.045 0
M  V30 6481 C 594.663 -1.628 0.00394261 0
M  V30 6482 O 595.852 -1.76817 0.244526 0
M  V30 6483 C 592.952 -3.34218 0.561403 0
M  V30 6484 C 592.125 -4.04151 1.67274 0
M  V30 6485 C 591.184 -5.12651 1.1864 0
M  V30 6486 O 590.21 -5.37104 1.88437 0
M  V30 6487 N 591.412 -5.80488 0.037278 0
M  V30 6488 H 594.177 -2.23644 1.99508 0
M  V30 6489 H 591.738 -1.10638 1.18198 0
M  V30 6490 H 593.73 -4.04101 0.220136 0
M  V30 6491 H 592.3 -3.11203 -0.295211 0
M  V30 6492 H 591.52 -3.28121 2.18472 0
M  V30 6493 H 592.808 -4.47626 2.41885 0
M  V30 6494 H 592.206 -5.63064 -0.545494 0
M  V30 6495 H 590.763 -6.5134 -0.244877 0
M  V30 6496 N 594.196 -1.08629 -1.14182 0
M  V30 6497 C 595.445 -0.812271 -1.84621 0
M  V30 6498 C 595.758 0.664313 -1.83973 0
M  V30 6499 O 596.964 1.05357 -2.50224 0
M  V30 6500 C 595.42 -1.4031 -3.31423 0
M  V30 6501 C 595.028 -2.91164 -3.40481 0
M  V30 6502 C 596.772 -1.20767 -4.06959 0
M  V30 6503 C 594.679 -3.43373 -4.81507 0
M  V30 6504 H 593.609 -0.30019 -0.691666 0
M  V30 6505 H 596.26 -1.30798 -1.28701 0
M  V30 6506 H 594.642 -0.835096 -3.87094 0
M  V30 6507 H 595.816 -3.5412 -2.94848 0
M  V30 6508 H 594.131 -3.09646 -2.78403 0
M  V30 6509 H 596.728 -1.57237 -5.11058 0
M  V30 6510 H 597.071 -0.147664 -4.16038 0
M  V30 6511 H 597.604 -1.74274 -3.57594 0
M  V30 6512 H 594.343 -4.48958 -4.77616 0
M  V30 6513 H 593.863 -2.85176 -5.27669 0
M  V30 6514 H 595.542 -3.40095 -5.50404 0
M  V30 6515 N 595.674 1.31259 -0.872281 0
M  V30 6516 C 597.09 1.49283 -0.564521 0
M  V30 6517 C 597.29 1.80243 0.900807 0
M  V30 6518 O 596.346 1.88246 1.68284 0
M  V30 6519 C 597.659 2.62503 -1.46673 0
M  V30 6520 C 599.207 2.76386 -1.46901 0
M  V30 6521 C 599.682 3.92705 -2.35684 0
M  V30 6522 N 601.173 3.99995 -2.33577 0
M  V30 6523 C 601.908 4.89276 -2.98992 0
M  V30 6524 N 601.404 5.83443 -3.73585 0
M  V30 6525 N 603.197 4.82541 -2.88289 0
M  V30 6526 H 595.348 1.09432 -1.82039 0
M  V30 6527 H 597.611 0.540949 -0.77851 0
M  V30 6528 H 597.317 2.46407 -2.50951 0
M  V30 6529 H 597.191 3.58695 -1.16696 0
M  V30 6530 H 599.578 2.91894 -0.433796 0
M  V30 6531 H 599.659 1.80853 -1.80903 0
M  V30 6532 H 599.303 3.77954 -3.39283 0
M  V30 6533 H 599.233 4.87549 -1.99006 0
M  V30 6534 H 601.724 3.32624 -1.7936 0
M  V30 6535 H 602.037 6.48303 -4.20622 0
M  V30 6536 H 600.382 5.83415 -3.77694 0
M  V30 6537 H 603.573 4.07951 -2.2955 0
M  V30 6538 H 603.746 5.51916 -3.39549 0
M  V30 6539 N 597.152 0.631951 1.44375 0
M  V30 6540 C 598.429 0.067646 1.95483 0
M  V30 6541 C 598.809 -1.40683 1.57389 0
M  V30 6542 O 598.157 -2.12167 0.848375 0
M  V30 6543 C 598.367 0.291392 3.47781 0
M  V30 6544 C 599.715 0.185028 4.24197 0
M  V30 6545 O 600.739 0.222803 3.55503 0
M  V30 6546 O 599.598 0.0906642 5.46425 0
M  V30 6547 H 596.692 -0.0218379 0.826712 0
M  V30 6548 H 599.238 0.703711 1.54421 0
M  V30 6549 H 598.01 1.31449 3.68561 0
M  V30 6550 H 597.633 -0.378772 3.95792 0
M  V30 6551 N 598.631 -1.53133 0.372548 0
M  V30 6552 C 599.88 -2.00539 -0.216115 0
M  V30 6553 C 600.193 -1.26374 -1.49295 0
M  V30 6554 O 601.399 -1.64404 -2.16064 0
M  V30 6555 C 599.855 -3.57253 -0.435678 0
M  V30 6556 C 599.463 -4.40302 0.82693 0
M  V30 6557 C 601.207 -4.12995 -0.981618 0
M  V30 6558 C 599.114 -5.88583 0.576567 0
M  V30 6559 H 598.044 -0.749246 -0.084536 0
M  V30 6560 H 600.695 -1.76771 0.492364 0
M  V30 6561 H 599.077 -3.77202 -1.20559 0
M  V30 6562 H 600.251 -4.32124 1.60017 0
M  V30 6563 H 598.566 -3.95699 1.29659 0
M  V30 6564 H 601.163 -5.21418 -1.18436 0
M  V30 6565 H 601.506 -3.68027 -1.94581 0
M  V30 6566 H 602.039 -3.96871 -0.271696 0
M  V30 6567 H 598.778 -6.37841 1.51128 0
M  V30 6568 H 598.298 -5.99592 -0.158047 0
M  V30 6569 H 599.977 -6.46676 0.204722 0
M  V30 6570 N 600.109 -0.101901 -1.5727 0
M  V30 6571 C 601.072 0.840129 -2.13247 0
M  V30 6572 C 602.072 1.20625 -1.06331 0
M  V30 6573 O 603.262 1.13456 -1.32186 0
M  V30 6574 C 600.394 2.13372 -2.65867 0
M  V30 6575 H 601.587 0.353945 -2.97804 0
M  V30 6576 H 599.14 0.147167 -1.55606 0
M  V30 6577 H 599.875 2.66461 -1.84849 0
M  V30 6578 H 599.66 1.88085 -3.44044 0
M  V30 6579 H 601.15 2.80748 -3.09145 0
M  V30 6580 N 601.587 1.56661 0.17182 0
M  V30 6581 C 602.815 1.861 0.904115 0
M  V30 6582 C 603.23 0.687227 1.75848 0
M  V30 6583 O 602.587 -0.343671 1.79235 0
M  V30 6584 C 602.638 3.14568 1.78127 0
M  V30 6585 O 602.359 4.27422 0.961366 0
M  V30 6586 C 603.86 3.5735 2.62327 0
M  V30 6587 H 601.08 0.617445 0.262684 0
M  V30 6588 H 603.624 2.03775 0.172068 0
M  V30 6589 H 601.779 2.98721 2.46666 0
M  V30 6590 H 602.193 5.00725 1.56123 0
M  V30 6591 H 603.667 4.50144 3.1949 0
M  V30 6592 H 604.144 2.81445 3.37173 0
M  V30 6593 H 604.75 3.75807 1.99121 0
M  V30 6594 N 603.065 -0.440357 1.51323 0
M  V30 6595 C 604.29 -1.21716 1.67928 0
M  V30 6596 C 604.715 -1.84328 0.374826 0
M  V30 6597 O 604.073 -1.68675 -0.664706 0
M  V30 6598 C 604.121 -2.27914 2.79442 0
M  V30 6599 O 603.225 -3.33325 2.42834 0
M  V30 6600 H 602.566 -0.35674 0.560029 0
M  V30 6601 H 605.096 -0.520417 1.97871 0
M  V30 6602 H 605.106 -2.72746 3.03436 0
M  V30 6603 H 603.781 -1.8172 3.741 0
M  V30 6604 H 602.358 -2.9399 2.294 0
M  V30 6605 N 604.543 -1.41418 -0.695603 0
M  V30 6606 C 605.789 -1.40982 -1.4578 0
M  V30 6607 C 606.122 -0.0187763 -1.94191 0
M  V30 6608 O 605.397 0.95346 -1.69527 0
M  V30 6609 C 605.68 -2.41657 -2.66972 0
M  V30 6610 C 605.533 -3.89869 -2.24327 0
M  V30 6611 C 606.852 -2.39589 -3.69168 0
M  V30 6612 H 603.971 -0.513405 -0.528757 0
M  V30 6613 H 606.613 -1.72693 -0.792275 0
M  V30 6614 H 604.763 -2.14746 -3.23754 0
M  V30 6615 H 606.435 -4.27683 -1.72872 0
M  V30 6616 H 604.678 -4.04737 -1.56111 0
M  V30 6617 H 605.349 -4.55857 -3.11285 0
M  V30 6618 H 607.825 -2.63471 -3.2206 0
M  V30 6619 H 606.701 -3.12044 -4.51575 0
M  V30 6620 H 606.962 -1.41447 -4.18862 0
M  V30 6621 N 606.021 0.929856 -1.27246 0
M  V30 6622 C 607.268 1.67731 -1.13457 0
M  V30 6623 C 607.596 1.9185 0.319998 0
M  V30 6624 O 606.851 1.50524 1.25064 0
M  V30 6625 C 607.15 3.05116 -1.86115 0
M  V30 6626 C 606.816 3.00715 -3.35978 0
M  V30 6627 C 605.478 2.99222 -3.76855 0
M  V30 6628 C 607.83 2.92168 -4.3161 0
M  V30 6629 C 605.158 2.86962 -5.11732 0
M  V30 6630 C 607.51 2.81449 -5.66542 0
M  V30 6631 C 606.174 2.78305 -6.06715 0
M  V30 6632 H 605.444 0.613772 -0.415168 0
M  V30 6633 H 608.091 1.08456 -1.57827 0
M  V30 6634 H 606.396 3.68083 -1.34246 0
M  V30 6635 H 608.093 3.61822 -1.72876 0
M  V30 6636 H 604.683 3.02664 -3.03468 0
M  V30 6637 H 608.867 2.92421 -4.01003 0
M  V30 6638 H 604.123 2.82913 -5.42006 0
M  V30 6639 H 608.297 2.738 -6.40317 0
M  V30 6640 H 605.924 2.68561 -7.11181 0
M  V30 6641 N 607.499 1.09233 1.13605 0
M  V30 6642 C 608.449 0.6994 2.17008 0
M  V30 6643 C 609.433 -0.285238 1.58352 0
M  V30 6644 O 610.625 -0.09592 1.7674 0
M  V30 6645 C 607.754 0.11938 3.43092 0
M  V30 6646 C 606.84 1.13031 4.0876 0
M  V30 6647 N 607.231 2.31673 4.49623 0
M  V30 6648 C 605.529 0.967999 4.35369 0
M  V30 6649 C 606.23 2.95964 5.00779 0
M  V30 6650 N 605.206 2.23534 4.95513 0
M  V30 6651 H 609.008 1.60272 2.46354 0
M  V30 6652 H 606.522 0.968257 1.30378 0
M  V30 6653 H 608.519 -0.180122 4.16511 0
M  V30 6654 H 607.179 -0.778816 3.15221 0
M  V30 6655 H 608.19 2.69277 4.42391 0
M  V30 6656 H 604.867 0.124319 4.17315 0
M  V30 6657 H 606.257 3.96813 5.42208 0
M  V30 6658 N 608.977 -1.30795 0.87923 0
M  V30 6659 C 609.887 -2.32041 0.345565 0
M  V30 6660 C 610.903 -1.65103 -0.549265 0
M  V30 6661 O 612.079 -1.9645 -0.443763 0
M  V30 6662 C 609.144 -3.43944 -0.436245 0
M  V30 6663 C 608.205 -4.26521 0.48765 0
M  V30 6664 C 607.438 -5.33081 -0.256943 0
M  V30 6665 O 607.661 -5.50762 -1.48381 0
M  V30 6666 O 606.595 -6.00635 0.389985 0
M  V30 6667 H 610.421 -2.79627 1.18501 0
M  V30 6668 H 608.006 -1.3486 0.642885 0
M  V30 6669 H 609.888 -4.12128 -0.879119 0
M  V30 6670 H 608.563 -2.98504 -1.25208 0
M  V30 6671 H 607.47 -3.61057 0.979216 0
M  V30 6672 H 608.803 -4.75551 1.26933 0
M  V30 6673 N 610.455 -0.639598 -1.44038 0
M  V30 6674 C 611.683 -0.154811 -2.0632 0
M  V30 6675 C 612.098 1.17406 -1.47856 0
M  V30 6676 O 611.455 1.72193 -0.604638 0
M  V30 6677 C 611.506 -0.0429958 -3.61474 0
M  V30 6678 O 611.227 -1.31932 -4.17763 0
M  V30 6679 C 612.728 0.469486 -4.40807 0
M  V30 6680 H 609.948 -0.0835862 -0.665773 0
M  V30 6681 H 612.492 -0.876397 -1.84769 0
M  V30 6682 H 610.647 0.629075 -3.82258 0
M  V30 6683 H 611.061 -1.16965 -5.11292 0
M  V30 6684 H 612.535 0.496712 -5.49761 0
M  V30 6685 H 613.012 1.49819 -4.12857 0
M  V30 6686 H 613.618 -0.169624 -4.24962 0
M  V30 6687 N 611.933 1.52934 -0.380664 0
M  V30 6688 C 612.843 2.29921 0.466192 0
M  V30 6689 C 613.859 1.36488 1.07922 0
M  V30 6690 O 615.035 1.69553 1.0869 0
M  V30 6691 C 612.1 3.08468 1.58266 0
M  V30 6692 C 611.161 4.17595 0.995627 0
M  V30 6693 C 610.394 4.92387 2.05889 0
M  V30 6694 O 610.617 4.67184 3.27254 0
M  V30 6695 O 609.551 5.77949 1.68102 0
M  V30 6696 H 613.377 3.03274 -0.160735 0
M  V30 6697 H 610.962 1.48698 -0.144617 0
M  V30 6698 H 612.844 3.57469 2.23145 0
M  V30 6699 H 611.519 2.37937 2.19471 0
M  V30 6700 H 610.426 3.72811 0.310332 0
M  V30 6701 H 611.759 4.90336 0.427918 0
M  V30 6702 N 613.412 0.11024 1.57214 0
M  V30 6703 C 614.64 -0.557834 1.99238 0
M  V30 6704 C 615.055 -1.60778 0.989734 0
M  V30 6705 O 614.412 -1.82491 -0.0186092 0
M  V30 6706 C 614.463 -1.19189 3.41286 0
M  V30 6707 O 614.184 -0.183919 4.37714 0
M  V30 6708 C 615.685 -1.94413 3.98395 0
M  V30 6709 H 612.905 -0.148392 0.654386 0
M  V30 6710 H 615.449 0.193996 2.03578 0
M  V30 6711 H 613.604 -1.89456 3.37913 0
M  V30 6712 H 614.018 -0.643475 5.20538 0
M  V30 6713 H 615.492 -2.34116 4.99894 0
M  V30 6714 H 615.969 -2.81592 3.3705 0
M  V30 6715 H 616.575 -1.28928 4.05287 0
M  V30 6716 N 614.89 -1.56749 -0.16351 0
M  V30 6717 C 615.82 -2.00042 -1.20438 0
M  V30 6718 C 616.801 -0.877256 -1.45733 0
M  V30 6719 O 617.986 -1.1439 -1.56935 0
M  V30 6720 C 615.116 -2.36697 -2.54149 0
M  V30 6721 C 614.07 -3.52046 -2.43408 0
M  V30 6722 C 613.396 -3.74466 -3.81679 0
M  V30 6723 C 614.696 -4.85247 -1.93216 0
M  V30 6724 H 616.39 -2.87244 -0.844477 0
M  V30 6725 H 613.936 -1.38194 -0.40478 0
M  V30 6726 H 615.889 -2.65582 -3.27176 0
M  V30 6727 H 614.613 -1.46414 -2.91943 0
M  V30 6728 H 613.272 -3.23301 -1.72834 0
M  V30 6729 H 612.92 -2.81461 -4.1688 0
M  V30 6730 H 612.62 -4.52084 -3.75359 0
M  V30 6731 H 614.144 -4.0576 -4.5628 0
M  V30 6732 H 615.558 -5.12957 -2.56023 0
M  V30 6733 H 613.955 -5.66556 -1.97825 0
M  V30 6734 H 615.025 -4.7672 -0.88689 0
M  V30 6735 N 616.368 0.432326 -1.51554 0
M  V30 6736 C 617.593 1.20824 -1.68571 0
M  V30 6737 C 618.018 1.84126 -0.384596 0
M  V30 6738 O 617.376 1.69025 0.655751 0
M  V30 6739 C 617.424 2.26429 -2.80646 0
M  V30 6740 O 616.528 3.32032 -2.44598 0
M  V30 6741 H 615.869 0.353765 -0.561913 0
M  V30 6742 H 618.399 0.509916 -1.98144 0
M  V30 6743 H 618.409 2.71133 -3.04878 0
M  V30 6744 H 617.084 1.79733 -3.75058 0
M  V30 6745 H 615.661 2.92769 -2.30956 0
M  V30 6746 N 617.846 1.41785 0.688094 0
M  V30 6747 C 619.095 1.4084 1.44385 0
M  V30 6748 C 619.408 0.0234166 1.95586 0
M  V30 6749 O 620.614 -0.108647 2.71283 0
M  V30 6750 C 619.07 2.47675 2.61123 0
M  V30 6751 C 618.678 3.92116 2.16677 0
M  V30 6752 C 620.422 2.55877 3.38714 0
M  V30 6753 C 618.329 4.90487 3.30419 0
M  V30 6754 H 617.259 0.523787 0.542368 0
M  V30 6755 H 619.91 1.6764 0.74627 0
M  V30 6756 H 618.292 2.14018 3.33185 0
M  V30 6757 H 619.466 4.35059 1.51856 0
M  V30 6758 H 617.781 3.87642 1.5206 0
M  V30 6759 H 620.378 3.26553 4.234 0
M  V30 6760 H 620.721 1.59801 3.84408 0
M  V30 6761 H 621.254 2.88662 2.73714 0
M  V30 6762 H 617.993 5.87994 2.89729 0
M  V30 6763 H 617.513 4.52187 3.94065 0
M  V30 6764 H 619.192 5.11591 3.96085 0
M  V30 6765 N 619.324 -0.923095 1.27737 0
M  V30 6766 C 620.256 -2.02871 1.06658 0
M  V30 6767 C 621.269 -1.62786 0.0212095 0
M  V30 6768 O 622.458 -1.76548 0.263267 0
M  V30 6769 C 619.558 -3.33603 0.59682 0
M  V30 6770 C 618.731 -4.02354 1.71551 0
M  V30 6771 C 617.79 -5.11364 1.24071 0
M  V30 6772 O 616.816 -5.35075 1.94123 0
M  V30 6773 N 618.018 -5.80416 0.0988444 0
M  V30 6774 H 620.783 -2.21515 2.01869 0
M  V30 6775 H 618.344 -1.09378 1.19365 0
M  V30 6776 H 620.336 -4.03845 0.262984 0
M  V30 6777 H 618.906 -3.11499 -0.262187 0
M  V30 6778 H 618.126 -3.25786 2.2194 0
M  V30 6779 H 619.414 -4.45035 2.46619 0
M  V30 6780 H 618.812 -5.63611 -0.485743 0
M  V30 6781 H 617.369 -6.51563 -0.17578 0
M  V30 6782 N 620.802 -1.09834 -1.13024 0
M  V30 6783 C 621.752 -0.710899 -2.16634 0
M  V30 6784 C 622.736 0.276836 -1.58501 0
M  V30 6785 O 623.928 0.0865457 -1.76788 0
M  V30 6786 C 621.057 -0.137574 -3.43024 0
M  V30 6787 C 620.143 -1.15198 -4.08155 0
M  V30 6788 N 620.534 -2.34054 -4.48388 0
M  V30 6789 C 618.832 -0.991074 -4.34849 0
M  V30 6790 C 619.533 -2.98616 -4.99203 0
M  V30 6791 N 618.509 -2.26159 -4.94321 0
M  V30 6792 H 622.311 -1.61576 -2.455 0
M  V30 6793 H 619.825 -0.975158 -1.29863 0
M  V30 6794 H 621.822 0.158031 -4.166 0
M  V30 6795 H 620.482 0.762088 -3.1563 0
M  V30 6796 H 621.493 -2.7162 -4.40957 0
M  V30 6797 H 618.17 -0.146448 -4.17243 0
M  V30 6798 H 619.56 -3.99683 -5.40096 0
M  V30 6799 N 622.28 1.30327 -0.886154 0
M  V30 6800 C 623.21 2.30549 -0.370028 0
M  V30 6801 C 624.191 1.61039 0.547751 0
M  V30 6802 O 625.376 1.8864 0.461353 0
M  V30 6803 C 622.506 3.44808 0.415275 0
M  V30 6804 C 621.46 4.26024 -0.41085 0
M  V30 6805 C 620.786 5.32347 0.501128 0
M  V30 6806 C 622.086 4.95433 -1.65359 0
M  V30 6807 H 623.78 2.73969 -1.20754 0
M  V30 6808 H 621.326 1.3171 -0.582097 0
M  V30 6809 H 623.279 4.13986 0.78699 0
M  V30 6810 H 622.003 3.00197 1.28644 0
M  V30 6811 H 620.662 3.58535 -0.764719 0
M  V30 6812 H 620.31 4.83982 1.37004 0
M  V30 6813 H 620.01 5.87581 -0.0478356 0
M  V30 6814 H 621.534 6.0438 0.869333 0
M  V30 6815 H 622.948 5.5712 -1.35239 0
M  V30 6816 H 621.345 5.60537 -2.14284 0
M  V30 6817 H 622.415 4.21493 -2.39733 0
M  V30 6818 N 623.758 0.647228 1.43697 0
M  V30 6819 C 625.007 0.155552 2.01099 0
M  V30 6820 C 625.32 -1.23569 1.51624 0
M  V30 6821 O 626.526 -1.82226 2.01261 0
M  V30 6822 C 624.982 0.227296 3.59182 0
M  V30 6823 C 624.59 1.62086 4.17651 0
M  V30 6824 C 626.334 -0.207085 4.23995 0
M  V30 6825 C 624.241 1.64685 5.68008 0
M  V30 6826 H 623.171 0.0543895 0.752036 0
M  V30 6827 H 625.822 0.808386 1.64734 0
M  V30 6828 H 624.204 -0.492937 3.9292 0
M  V30 6829 H 625.378 2.36597 3.95422 0
M  V30 6830 H 623.693 2.0007 3.65186 0
M  V30 6831 H 626.29 -0.207426 5.34298 0
M  V30 6832 H 626.633 -1.23742 3.97484 0
M  V30 6833 H 627.166 0.461193 3.95118 0
M  V30 6834 H 623.905 2.65608 5.99277 0
M  V30 6835 H 623.425 0.944914 5.9231 0
M  V30 6836 H 625.104 1.38792 6.31938 0
M  V30 6837 N 625.236 -1.5273 0.388769 0
M  V30 6838 C 626.466 -2.05693 -0.193397 0
M  V30 6839 C 626.874 -1.26038 -1.41107 0
M  V30 6840 O 626.217 -0.30001 -1.81234 0
M  V30 6841 C 626.279 -3.53962 -0.628561 0
M  V30 6842 C 625.943 -4.54519 0.475576 0
M  V30 6843 C 626.94 -5.02526 1.33281 0
M  V30 6844 C 624.625 -4.98174 0.642453 0
M  V30 6845 C 626.619 -5.92812 2.34205 0
M  V30 6846 C 624.306 -5.88262 1.65503 0
M  V30 6847 C 625.304 -6.35473 2.50325 0
M  V30 6848 O 624.992 -7.23781 3.49852 0
M  V30 6849 H 624.724 -0.675197 -0.0329395 0
M  V30 6850 H 627.278 -1.97835 0.552326 0
M  V30 6851 H 625.508 -3.59437 -1.42625 0
M  V30 6852 H 627.197 -3.89669 -1.13633 0
M  V30 6853 H 627.963 -4.6953 1.21519 0
M  V30 6854 H 623.842 -4.60999 -0.00805093 0
M  V30 6855 H 627.386 -6.29585 3.00447 0
M  V30 6856 H 623.283 -6.20672 1.77304 0
M  V30 6857 H 624.051 -7.4184 3.45855 0
M  V30 6858 N 626.714 -0.118576 -1.57153 0
M  V30 6859 C 627.644 0.828436 -2.1831 0
M  V30 6860 C 628.625 1.27758 -1.12303 0
M  V30 6861 O 629.81 1.34026 -1.40537 0
M  V30 6862 C 626.94 2.07876 -2.78217 0
M  V30 6863 C 625.894 1.76742 -3.89803 0
M  V30 6864 C 625.22 3.08801 -4.36516 0
M  V30 6865 C 626.52 1.03606 -5.11921 0
M  V30 6866 H 628.214 0.318824 -2.97698 0
M  V30 6867 H 625.76 0.151911 -1.43196 0
M  V30 6868 H 627.713 2.74584 -3.19659 0
M  V30 6869 H 626.437 2.61161 -1.96118 0
M  V30 6870 H 625.096 1.12424 -3.48936 0
M  V30 6871 H 624.744 3.6002 -3.51276 0
M  V30 6872 H 624.444 2.88743 -5.11763 0
M  V30 6873 H 625.968 3.76627 -4.80608 0
M  V30 6874 H 627.382 1.60467 -5.50385 0
M  V30 6875 H 625.779 0.936454 -5.92748 0
M  V30 6876 H 626.849 0.0227421 -4.84895 0
M  V30 6877 N 628.193 1.56834 0.155195 0
M  V30 6878 C 629.442 1.82088 0.867567 0
M  V30 6879 C 629.755 0.69849 1.82703 0
M  V30 6880 O 630.961 0.836407 2.58295 0
M  V30 6881 C 629.417 3.22707 1.59336 0
M  V30 6882 C 629.025 4.42859 0.676719 0
M  V30 6883 C 630.769 3.57242 2.293 0
M  V30 6884 C 628.676 5.74501 1.40367 0
M  V30 6885 H 627.606 0.679057 0.327715 0
M  V30 6886 H 630.257 1.83105 0.120351 0
M  V30 6887 H 628.639 3.16054 2.38591 0
M  V30 6888 H 629.813 4.60731 -0.0800196 0
M  V30 6889 H 628.128 4.16311 0.0859129 0
M  V30 6890 H 630.725 4.52847 2.84312 0
M  V30 6891 H 631.068 2.82901 3.05406 0
M  V30 6892 H 631.601 3.6552 1.56972 0
M  V30 6893 H 628.34 6.51915 0.684623 0
M  V30 6894 H 627.86 5.60579 2.13332 0
M  V30 6895 H 629.539 6.17016 1.94681 0
M  V30 6896 N 629.671 -0.424282 1.51781 0
M  V30 6897 C 630.919 -1.17028 1.64769 0
M  V30 6898 C 631.24 -1.91409 0.372523 0
M  V30 6899 O 630.51 -1.86091 -0.612108 0
M  V30 6900 H 629.09 -0.434992 0.607282 0
M  V30 6901 H 631.752 -0.485169 1.88765 0
M  V30 6902 H 630.848 -1.8927 2.4816 0
M  V30 6903 N 631.149 -1.42148 -0.680565 0
M  V30 6904 C 632.565 -1.24947 -0.992995 0
M  V30 6905 C 632.765 -0.149527 -2.00944 0
M  V30 6906 O 631.821 0.481145 -2.47873 0
M  V30 6907 C 633.134 -2.60426 -1.5033 0
M  V30 6908 C 634.682 -2.67733 -1.62137 0
M  V30 6909 C 635.157 -4.03564 -2.16565 0
M  V30 6910 N 636.648 -4.05488 -2.23905 0
M  V30 6911 C 637.383 -5.07401 -2.67081 0
M  V30 6912 N 636.879 -6.19698 -3.09751 0
M  V30 6913 N 638.672 -4.94758 -2.66778 0
M  V30 6914 H 630.823 -2.12399 -0.0074788 0
M  V30 6915 H 633.086 -0.94571 -0.0658529 0
M  V30 6916 H 632.792 -3.41743 -0.830947 0
M  V30 6917 H 632.666 -2.83949 -2.483 0
M  V30 6918 H 635.053 -1.86765 -2.2848 0
M  V30 6919 H 635.134 -2.48004 -0.626713 0
M  V30 6920 H 634.778 -4.84987 -1.50833 0
M  V30 6921 H 634.708 -4.20641 -3.1681 0
M  V30 6922 H 637.199 -3.24415 -1.93812 0
M  V30 6923 H 637.512 -6.93318 -3.41365 0
M  V30 6924 H 635.857 -6.23212 -3.07623 0
M  V30 6925 H 639.048 -4.06105 -2.32801 0
M  V30 6926 H 639.221 -5.74317 -3.00107 0
M  V30 6927 N 632.627 0.916307 -1.28225 0
M  V30 6928 C 634.043 1.19425 -1.05876 0
M  V30 6929 C 634.243 2.005 0.2005 0
M  V30 6930 O 633.299 2.35806 0.902873 0
M  V30 6931 C 634.612 1.93133 -2.30478 0
M  V30 6932 C 636.16 2.06026 -2.35632 0
M  V30 6933 C 636.635 2.83141 -3.59994 0
M  V30 6934 N 638.126 2.90704 -3.60618 0
M  V30 6935 C 638.861 3.50865 -4.53521 0
M  V30 6936 N 638.357 4.12327 -5.56739 0
M  V30 6937 N 640.15 3.48379 -4.41122 0
M  V30 6938 H 632.301 0.37496 -2.09064 0
M  V30 6939 H 634.564 0.228531 -0.920042 0
M  V30 6940 H 634.27 1.40985 -3.22205 0
M  V30 6941 H 634.144 2.93696 -2.36691 0
M  V30 6942 H 636.531 2.57355 -1.44404 0
M  V30 6943 H 636.612 1.04647 -2.33415 0
M  V30 6944 H 636.256 2.32492 -4.51564 0
M  V30 6945 H 636.186 3.84829 -3.59464 0
M  V30 6946 H 638.677 2.47034 -2.85977 0
M  V30 6947 H 638.99 4.56205 -6.23776 0
M  V30 6948 H 637.335 4.10839 -5.60568 0
M  V30 6949 H 640.526 2.99572 -3.59686 0
M  V30 6950 H 640.699 3.94974 -5.13712 0
M  V30 6951 N 634.105 1.10431 1.1244 0
M  V30 6952 C 635.354 0.841539 1.83306 0
M  V30 6953 C 635.667 -0.634961 1.85007 0
M  V30 6954 O 636.873 -1.01363 2.51869 0
M  V30 6955 C 635.329 1.45565 3.29149 0
M  V30 6956 C 634.937 2.96544 3.35806 0
M  V30 6957 C 636.681 1.27227 4.04986 0
M  V30 6958 C 634.588 3.5099 4.75983 0
M  V30 6959 H 633.518 0.311156 0.686803 0
M  V30 6960 H 636.169 1.32829 1.26604 0
M  V30 6961 H 634.551 0.896574 3.85717 0
M  V30 6962 H 635.725 3.58766 2.89177 0
M  V30 6963 H 634.04 3.14036 2.73442 0
M  V30 6964 H 636.637 1.65348 5.08492 0
M  V30 6965 H 636.98 0.213834 4.1575 0
M  V30 6966 H 637.513 1.79941 3.54776 0
M  V30 6967 H 634.252 4.56499 4.70413 0
M  V30 6968 H 633.772 2.93535 5.23065 0
M  V30 6969 H 635.451 3.48808 5.44924 0
M  V30 6970 N 635.583 -1.29855 0.893053 0
M  V30 6971 C 636.513 -2.3035 0.382249 0
M  V30 6972 C 637.494 -1.61328 -0.539203 0
M  V30 6973 O 638.679 -1.88882 -0.451342 0
M  V30 6974 C 635.809 -3.45024 -0.396983 0
M  V30 6975 C 634.763 -4.258 0.433437 0
M  V30 6976 C 634.089 -5.32605 -0.472889 0
M  V30 6977 C 635.389 -4.94549 1.67984 0
M  V30 6978 H 637.083 -2.73325 1.22205 0
M  V30 6979 H 634.629 -1.314 0.589073 0
M  V30 6980 H 636.582 -4.14398 -0.765024 0
M  V30 6981 H 635.306 -3.00875 -1.2705 0
M  V30 6982 H 633.965 -3.58125 0.783723 0
M  V30 6983 H 633.613 -4.84702 -1.34435 0
M  V30 6984 H 633.313 -5.87547 0.0789958 0
M  V30 6985 H 634.837 -6.04832 -0.837269 0
M  V30 6986 H 636.251 -5.56395 1.38192 0
M  V30 6987 H 634.648 -5.59393 2.17254 0
M  V30 6988 H 635.718 -4.20215 2.41965 0
M  V30 6989 N 637.061 -0.65484 -1.43351 0
M  V30 6990 C 637.971 0.0363603 -2.34572 0
M  V30 6991 C 638.987 0.810432 -1.53974 0
M  V30 6992 O 640.163 0.757308 -1.86619 0
M  V30 6993 C 637.228 0.989733 -3.32273 0
M  V30 6994 C 636.289 0.212414 -4.28774 0
M  V30 6995 C 635.522 1.12038 -5.21808 0
M  V30 6996 O 635.745 2.35967 -5.19303 0
M  V30 6997 O 634.679 0.59191 -5.98982 0
M  V30 6998 H 638.505 -0.714527 -2.95175 0
M  V30 6999 H 636.09 -0.415029 -1.4352 0
M  V30 7000 H 637.972 1.53759 -3.92347 0
M  V30 7001 H 636.647 1.72082 -2.74171 0
M  V30 7002 H 635.554 -0.379062 -3.72175 0
M  V30 7003 H 636.887 -0.479138 -4.89862 0
M  V30 7004 N 638.539 1.52521 -0.396863 0
M  V30 7005 C 639.955 1.5953 -0.0471659 0
M  V30 7006 C 640.155 1.41044 1.43906 0
M  V30 7007 O 639.211 1.23122 2.20448 0
M  V30 7008 C 640.524 2.95972 -0.531113 0
M  V30 7009 C 642.072 3.09172 -0.488024 0
M  V30 7010 C 642.547 4.48075 -0.948281 0
M  V30 7011 N 644.038 4.54281 -0.9046 0
M  V30 7012 C 644.773 5.60007 -1.23205 0
M  V30 7013 N 644.269 6.73343 -1.63036 0
M  V30 7014 N 646.062 5.50151 -1.15282 0
M  V30 7015 H 638.213 1.62786 -1.36435 0
M  V30 7016 H 640.476 0.76514 -0.559701 0
M  V30 7017 H 640.182 3.14741 -1.56942 0
M  V30 7018 H 640.056 3.77143 0.0657922 0
M  V30 7019 H 642.443 2.90095 0.541211 0
M  V30 7020 H 642.524 2.29937 -1.12083 0
M  V30 7021 H 642.168 4.67894 -1.97578 0
M  V30 7022 H 642.098 5.25788 -0.292412 0
M  V30 7023 H 644.589 3.72918 -0.6116 0
M  V30 7024 H 644.902 7.49992 -1.86365 0
M  V30 7025 H 643.247 6.74655 -1.66929 0
M  V30 7026 H 646.438 4.6049 -0.840602 0
M  V30 7027 H 646.611 6.32444 -1.41133 0
M  V30 7028 N 640.017 0.126909 1.57088 0
M  V30 7029 C 641.264 -0.529168 1.95464 0
M  V30 7030 C 641.592 -1.6618 1.01067 0
M  V30 7031 O 640.847 -1.95667 0.0360254 0
M  V30 7032 C 641.146 -1.095 3.40212 0
M  V30 7033 C 640.812 -0.0829015 4.50824 0
M  V30 7034 C 639.474 0.195377 4.80803 0
M  V30 7035 C 641.826 0.606411 5.1766 0
M  V30 7036 C 639.154 1.16912 5.74933 0
M  V30 7037 C 641.506 1.56884 6.12838 0
M  V30 7038 C 640.17 1.85502 6.41206 0
M  V30 7039 H 639.44 -0.193636 0.715252 0
M  V30 7040 H 642.087 0.209489 1.90351 0
M  V30 7041 H 640.392 -1.91058 3.42059 0
M  V30 7042 H 642.089 -1.61087 3.67222 0
M  V30 7043 H 638.679 -0.309979 4.27478 0
M  V30 7044 H 642.863 0.404597 4.94648 0
M  V30 7045 H 638.119 1.3975 5.95214 0
M  V30 7046 H 642.293 2.10859 6.6371 0
M  V30 7047 H 639.92 2.61109 7.13951 0
M  V30 7048 N 641.495 -1.56914 -0.146875 0
M  V30 7049 C 642.906 -1.72799 -0.706928 0
M  V30 7050 C 643.257 -0.741329 -1.81656 0
M  V30 7051 O 642.382 0.0920162 -2.16204 0
M  V30 7052 C 642.977 -3.13317 -1.28911 0
M  V30 7053 C 641.536 -3.30803 -1.79573 0
M  V30 7054 C 640.683 -2.68725 -0.684252 0
M  V30 7055 H 643.634 -1.58504 0.0787931 0
M  V30 7056 H 643.655 -3.13323 -2.15891 0
M  V30 7057 H 643.167 -3.85104 -0.481284 0
M  V30 7058 H 641.268 -2.64012 -2.62923 0
M  V30 7059 H 641.381 -4.38754 -1.92436 0
M  V30 7060 H 639.745 -2.29196 -1.11091 0
M  V30 7061 H 640.528 -3.43117 0.112134 0
M  V30 7062 N 642.974 0.416227 -1.52004 0
M  V30 7063 C 643.906 1.52552 -1.71058 0
M  V30 7064 C 644.919 1.51693 -0.59102 0
M  V30 7065 O 646.108 1.56087 -0.865973 0
M  V30 7066 C 643.208 2.91455 -1.72937 0
M  V30 7067 C 642.381 3.16584 -3.01816 0
M  V30 7068 C 641.44 4.35322 -2.95603 0
M  V30 7069 O 640.466 4.32947 -3.6952 0
M  V30 7070 N 641.668 5.40049 -2.12903 0
M  V30 7071 H 644.433 1.36604 -2.66757 0
M  V30 7072 H 641.994 0.60544 -1.50153 0
M  V30 7073 H 643.986 3.68944 -1.66321 0
M  V30 7074 H 642.556 3.00895 -0.847418 0
M  V30 7075 H 641.776 2.27203 -3.22137 0
M  V30 7076 H 643.064 3.30213 -3.87088 0
M  V30 7077 H 642.462 5.44823 -1.52265 0
M  V30 7078 H 641.019 6.16308 -2.1215 0
M  V30 7079 N 644.452 1.42507 0.673017 0
M  V30 7080 C 645.382 1.48916 1.79851 0
M  V30 7081 C 646.363 0.345566 1.66553 0
M  V30 7082 O 647.548 0.560116 1.85947 0
M  V30 7083 C 644.678 1.39258 3.18158 0
M  V30 7084 C 643.632 2.51662 3.46194 0
M  V30 7085 C 642.958 2.27062 4.84094 0
M  V30 7086 C 644.258 3.93968 3.42909 0
M  V30 7087 H 645.952 2.43114 1.74745 0
M  V30 7088 H 643.498 1.17013 0.839288 0
M  V30 7089 H 645.451 1.42349 3.96629 0
M  V30 7090 H 644.175 0.415542 3.23946 0
M  V30 7091 H 642.834 2.47891 2.70084 0
M  V30 7092 H 642.482 1.27648 4.86534 0
M  V30 7093 H 642.182 3.02398 5.03815 0
M  V30 7094 H 643.706 2.31905 5.64847 0
M  V30 7095 H 645.12 3.99332 4.11347 0
M  V30 7096 H 643.517 4.6917 3.74165 0
M  V30 7097 H 644.587 4.20512 2.41449 0
M  V30 7098 N 645.93 -0.909495 1.28709 0
M  V30 7099 C 646.862 -2.01729 1.08804 0
M  V30 7100 C 647.875 -1.62755 0.0384739 0
M  V30 7101 O 649.064 -1.76259 0.281977 0
M  V30 7102 C 646.164 -3.32952 0.63217 0
M  V30 7103 C 645.337 -4.00512 1.75809 0
M  V30 7104 C 644.396 -5.10019 1.29488 0
M  V30 7105 O 643.422 -5.32986 1.99787 0
M  V30 7106 N 644.624 -5.80278 0.1604 0
M  V30 7107 H 647.389 -2.19362 2.04207 0
M  V30 7108 H 644.95 -1.08106 1.20518 0
M  V30 7109 H 646.942 -4.03543 0.305802 0
M  V30 7110 H 645.512 -3.11759 -0.229134 0
M  V30 7111 H 644.732 -3.23413 2.25383 0
M  V30 7112 H 646.02 -4.42395 2.51325 0
M  V30 7113 H 645.418 -5.64094 -0.425937 0
M  V30 7114 H 643.975 -6.51713 -0.106663 0
M  V30 7115 N 647.408 -1.11026 -1.11852 0
M  V30 7116 C 648.318 -0.777252 -2.2135 0
M  V30 7117 C 649.334 0.227821 -1.72502 0
M  V30 7118 O 650.51 0.0650587 -2.01295 0
M  V30 7119 C 647.575 -0.220668 -3.45997 0
M  V30 7120 C 646.636 -1.2838 -4.09655 0
M  V30 7121 C 645.869 -0.753678 -5.28352 0
M  V30 7122 O 646.092 0.417779 -5.68868 0
M  V30 7123 O 645.026 -1.51647 -5.82483 0
M  V30 7124 H 648.852 -1.69141 -2.5224 0
M  V30 7125 H 646.437 -0.885836 -1.20305 0
M  V30 7126 H 648.319 0.0855756 -4.21313 0
M  V30 7127 H 646.994 0.666262 -3.16769 0
M  V30 7128 H 645.901 -1.64299 -3.3609 0
M  V30 7129 H 647.234 -2.14396 -4.43052 0
M  V30 7130 N 648.886 1.2938 -0.899927 0
M  V30 7131 C 650.132 1.9584 -0.526742 0
M  V30 7132 C 650.465 1.70774 0.924651 0
M  V30 7133 O 649.74 1.02084 1.65557 0
M  V30 7134 C 650.023 3.50638 -0.820062 0
M  V30 7135 C 649.876 3.85161 -2.32317 0
M  V30 7136 C 651.195 4.3903 -0.30671 0
M  V30 7137 H 648.314 0.711322 -0.192848 0
M  V30 7138 H 650.956 1.52992 -1.12665 0
M  V30 7139 H 649.106 3.87265 -0.309491 0
M  V30 7140 H 650.778 3.58477 -2.9033 0
M  V30 7141 H 649.021 3.32696 -2.78381 0
M  V30 7142 H 649.692 4.93204 -2.47898 0
M  V30 7143 H 652.168 4.09396 -0.743908 0
M  V30 7144 H 651.044 5.46226 -0.541144 0
M  V30 7145 H 651.305 4.34937 0.792588 0
M  V30 7146 N 650.364 0.662433 1.43002 0
M  V30 7147 C 651.594 0.187343 2.05749 0
M  V30 7148 C 652.002 -1.15582 1.49791 0
M  V30 7149 O 651.345 -1.72651 0.627487 0
M  V30 7150 C 651.407 0.0316493 3.59486 0
M  V30 7151 C 651.071 1.30156 4.38073 0
M  V30 7152 C 652.068 2.23234 4.69535 0
M  V30 7153 C 649.753 1.54572 4.77926 0
M  V30 7154 C 651.747 3.39012 5.39768 0
M  V30 7155 C 649.434 2.70641 5.47902 0
M  V30 7156 C 650.432 3.62687 5.78746 0
M  V30 7157 O 650.12 4.76728 6.47291 0
M  V30 7158 H 649.852 0.0915214 0.669776 0
M  V30 7159 H 652.406 0.905982 1.8434 0
M  V30 7160 H 650.636 -0.742451 3.79506 0
M  V30 7161 H 652.325 -0.401977 4.03905 0
M  V30 7162 H 653.091 2.05616 4.39257 0
M  V30 7163 H 648.97 0.83804 4.53319 0
M  V30 7164 H 652.514 4.10877 5.63761 0
M  V30 7165 H 648.411 2.88189 5.77596 0
M  V30 7166 H 649.179 4.76113 6.65777 0
M  V30 7167 N 651.842 -1.52309 0.404946 0
M  V30 7168 C 653.089 -2.01767 -0.1722 0
M  V30 7169 C 653.417 -1.29075 -1.45498 0
M  V30 7170 O 652.672 -0.3843 -1.9189 0
M  V30 7171 C 652.971 -3.54284 -0.470895 0
M  V30 7172 C 652.637 -4.45079 0.722194 0
M  V30 7173 C 651.299 -4.69617 1.04946 0
M  V30 7174 C 653.651 -4.98555 1.51962 0
M  V30 7175 C 650.979 -5.44878 2.17543 0
M  V30 7176 C 653.331 -5.75049 2.63632 0
M  V30 7177 C 651.995 -5.9786 2.9685 0
M  V30 7178 H 651.265 -0.738316 -0.0630125 0
M  V30 7179 H 653.912 -1.83566 0.545506 0
M  V30 7180 H 652.217 -3.70642 -1.27012 0
M  V30 7181 H 653.914 -3.90058 -0.930346 0
M  V30 7182 H 650.504 -4.26155 0.457131 0
M  V30 7183 H 654.688 -4.79509 1.28002 0
M  V30 7184 H 649.944 -5.60762 2.43631 0
M  V30 7185 H 654.118 -6.15483 3.25813 0
M  V30 7186 H 651.745 -6.5596 3.84215 0
M  V30 7187 N 653.32 -0.135238 -1.57019 0
M  V30 7188 C 654.23 0.822226 -2.19719 0
M  V30 7189 C 655.246 1.28057 -1.17802 0
M  V30 7190 O 656.422 1.3402 -1.50335 0
M  V30 7191 C 653.487 2.0484 -2.79717 0
M  V30 7192 C 652.548 1.64042 -3.96723 0
M  V30 7193 C 651.781 2.80814 -4.53849 0
M  V30 7194 O 652.004 3.967 -4.0986 0
M  V30 7195 O 650.938 2.56963 -5.44292 0
M  V30 7196 H 654.764 0.318552 -3.02025 0
M  V30 7197 H 652.349 0.0912021 -1.49121 0
M  V30 7198 H 654.231 2.76622 -3.17897 0
M  V30 7199 H 652.906 2.54182 -2.00432 0
M  V30 7200 H 651.813 0.893182 -3.63281 0
M  V30 7201 H 653.146 1.19426 -4.77492 0
M  V30 7202 N 654.798 1.5699 0.138552 0
M  V30 7203 C 656.023 1.88344 0.86841 0
M  V30 7204 C 656.448 0.725159 1.7356 0
M  V30 7205 O 655.806 -0.324992 1.78363 0
M  V30 7206 C 655.854 3.18334 1.69398 0
M  V30 7207 O 654.958 3.02863 2.79907 0
M  V30 7208 H 654.299 0.618577 0.241367 0
M  V30 7209 H 656.829 2.04207 0.126826 0
M  V30 7210 H 656.839 3.50567 2.08726 0
M  V30 7211 H 655.514 4.02238 1.05725 0
M  V30 7212 H 654.091 2.82056 2.43924 0
M  V30 7213 N 656.276 -0.40816 1.52223 0
M  V30 7214 C 657.208 -1.51642 1.71864 0
M  V30 7215 C 658.221 -1.51378 0.599056 0
M  V30 7216 O 659.41 -1.55626 0.874239 0
M  V30 7217 C 656.51 -2.90534 1.74481 0
M  V30 7218 C 655.683 -3.14979 3.03491 0
M  V30 7219 C 654.742 -4.33749 2.97907 0
M  V30 7220 O 653.768 -4.30982 3.71811 0
M  V30 7221 N 654.97 -5.38912 2.15764 0
M  V30 7222 H 657.735 -1.35188 2.67478 0
M  V30 7223 H 655.296 -0.597468 1.50472 0
M  V30 7224 H 657.288 -3.68056 1.68275 0
M  V30 7225 H 655.858 -3.00441 0.863363 0
M  V30 7226 H 655.078 -2.25492 3.23337 0
M  V30 7227 H 656.366 -3.28156 3.88833 0
M  V30 7228 H 655.764 -5.44008 1.55152 0
M  V30 7229 H 654.321 -6.15174 2.15415 0
M  V30 7230 N 657.755 -1.42862 -0.66545 0
M  V30 7231 C 658.703 -1.47319 -1.8 0
M  V30 7232 C 659.697 -0.347963 -1.65788 0
M  V30 7233 O 660.903 -0.521406 -1.72283 0
M  V30 7234 H 657.278 -0.461588 -0.593667 0
M  V30 7235 H 659.249 -2.42876 -1.7336 0
M  V30 7236 C 657.998 -1.40152 -3.18203 0
M  V30 7237 H 657.321 -2.26035 -3.2977 0
M  V30 7238 H 658.761 -1.47331 -3.9758 0
M  V30 7239 C 657.22 -0.117493 -3.36695 0
M  V30 7240 O 657.75 0.826058 -3.93115 0
M  V30 7241 N 655.956 -0.0316218 -2.90583 0
M  V30 7242 H 655.503 -0.800247 -2.44855 0
M  V30 7243 H 655.461 0.826835 -3.03333 0
M  V30 7244 N 659.233 0.902656 -1.29189 0
M  V30 7245 C 660.183 1.99326 -1.10695 0
M  V30 7246 C 661.167 1.60877 -0.0272521 0
M  V30 7247 O 662.359 1.75245 -0.248635 0
M  V30 7248 C 659.488 3.34265 -0.78244 0
M  V30 7249 C 658.574 3.79081 -1.90153 0
M  V30 7250 N 658.965 3.96162 -3.14466 0
M  V30 7251 C 657.263 4.08333 -1.79389 0
M  V30 7252 C 657.964 4.3388 -3.87458 0
M  V30 7253 N 656.94 4.42759 -3.15381 0
M  V30 7254 H 660.742 2.10597 -2.05003 0
M  V30 7255 H 658.256 1.09127 -1.20271 0
M  V30 7256 H 660.253 4.12097 -0.630996 0
M  V30 7257 H 658.913 3.2434 0.152754 0
M  V30 7258 H 659.924 3.81775 -3.49954 0
M  V30 7259 H 656.601 4.06982 -0.931217 0
M  V30 7260 H 657.991 4.54965 -4.94425 0
M  V30 7261 N 660.711 1.11618 1.11262 0
M  V30 7262 C 661.939 0.888739 1.8684 0
M  V30 7263 C 662.354 -0.561558 1.80255 0
M  V30 7264 O 661.711 -1.38782 1.18515 0
M  V30 7265 C 661.762 1.34422 3.35579 0
M  V30 7266 O 661.483 2.73766 3.42029 0
M  V30 7267 C 662.984 1.15246 4.28058 0
M  V30 7268 H 660.204 0.318152 0.590779 0
M  V30 7269 H 662.748 1.48398 1.40707 0
M  V30 7270 H 660.903 0.79239 3.7921 0
M  V30 7271 H 661.317 2.9355 4.34659 0
M  V30 7272 H 662.791 1.52015 5.30656 0
M  V30 7273 H 663.268 0.0922007 4.39103 0
M  V30 7274 H 663.874 1.69136 3.90222 0
M  V30 7275 N 662.189 -1.289 0.906776 0
M  V30 7276 C 663.435 -1.95919 0.546551 0
M  V30 7277 C 663.79 -1.70126 -0.8986 0
M  V30 7278 O 663.083 -1.00775 -1.62957 0
M  V30 7279 C 663.277 -3.48704 0.783617 0
M  V30 7280 C 663.106 -3.8935 2.25026 0
M  V30 7281 C 661.876 -4.13864 2.89905 0
M  V30 7282 C 664.074 -4.00535 3.22608 0
M  V30 7283 N 662.056 -4.41131 4.26939 0
M  V30 7284 C 663.427 -4.31936 4.44783 0
M  V30 7285 C 665.482 -3.83035 3.18102 0
M  V30 7286 C 664.185 -4.47659 5.63022 0
M  V30 7287 C 666.211 -3.99971 4.35634 0
M  V30 7288 C 665.573 -4.31738 5.5658 0
M  V30 7289 H 661.672 -0.74105 0.249737 0
M  V30 7290 H 664.256 -1.55696 1.16906 0
M  V30 7291 H 662.427 -3.87933 0.190437 0
M  V30 7292 H 664.159 -4.02835 0.38812 0
M  V30 7293 H 660.914 -4.07893 2.40666 0
M  V30 7294 H 661.338 -4.5886 4.97771 0
M  V30 7295 H 665.98 -3.57533 2.25677 0
M  V30 7296 H 663.698 -4.71995 6.55932 0
M  V30 7297 H 667.284 -3.87874 4.33641 0
M  V30 7298 H 666.164 -4.44568 6.4601 0
M  V30 7299 N 663.667 -0.670007 -1.42649 0
M  V30 7300 C 664.944 -0.119451 -1.95235 0
M  V30 7301 C 665.324 1.36461 -1.61064 0
M  V30 7302 O 664.672 2.09843 -0.904329 0
M  V30 7303 C 664.882 -0.383498 -3.46887 0
M  V30 7304 C 666.23 -0.297431 -4.23557 0
M  V30 7305 O 667.254 -0.31698 -3.54787 0
M  V30 7306 O 666.113 -0.235507 -5.45992 0
M  V30 7307 H 663.207 -8.85474e-05 -0.827 0
M  V30 7308 H 665.753 -0.744406 -1.52501 0
M  V30 7309 H 664.525 -1.41174 -3.64946 0
M  V30 7310 H 664.148 0.273702 -3.96657 0
M  V30 7311 N 665.145 1.52092 -0.413018 0
M  V30 7312 C 666.092 2.27119 0.410558 0
M  V30 7313 C 667.062 1.29692 1.03774 0
M  V30 7314 O 668.247 1.58561 1.06128 0
M  V30 7315 C 665.387 3.09863 1.51918 0
M  V30 7316 C 664.5 4.22252 0.912528 0
M  V30 7317 C 663.635 4.92348 1.99417 0
M  V30 7318 C 662.674 5.96694 1.36466 0
M  V30 7319 N 661.811 6.60292 2.38661 0
M  V30 7320 H 666.651 2.97067 -0.235661 0
M  V30 7321 H 664.188 1.46542 -0.128055 0
M  V30 7322 H 666.146 3.56144 2.17295 0
M  V30 7323 H 664.776 2.42078 2.13537 0
M  V30 7324 H 663.828 3.80113 0.147697 0
M  V30 7325 H 665.14 4.9709 0.412717 0
M  V30 7326 H 664.294 5.42054 2.72512 0
M  V30 7327 H 663.033 4.17087 2.52764 0
M  V30 7328 H 662.038 5.46304 0.61906 0
M  V30 7329 H 663.263 6.73899 0.838827 0
M  V30 7330 H 661.209 5.87858 2.91134 0
M  V30 7331 H 661.126 7.30816 1.93503 0
M  V30 7332 H 662.394 7.14635 3.11314 0
M  V30 7333 N 666.623 0.143563 1.56945 0
M  V30 7334 C 667.872 -0.50835 1.95189 0
M  V30 7335 C 668.185 -1.66239 1.03073 0
M  V30 7336 O 669.391 -2.3787 1.30882 0
M  V30 7337 C 667.847 -0.955735 3.46978 0
M  V30 7338 C 667.455 0.171183 4.47673 0
M  V30 7339 C 669.199 -1.57763 3.94095 0
M  V30 7340 C 667.106 -0.294279 5.90667 0
M  V30 7341 H 666.036 -0.193679 0.728701 0
M  V30 7342 H 668.687 0.227357 1.82086 0
M  V30 7343 H 667.069 -1.7466 3.55401 0
M  V30 7344 H 668.243 0.948049 4.50942 0
M  V30 7345 H 666.558 0.701273 4.10452 0
M  V30 7346 H 669.155 -1.93745 4.98364 0
M  V30 7347 H 669.498 -2.46531 3.35452 0
M  V30 7348 H 670.031 -0.851728 3.88575 0
M  V30 7349 H 666.77 0.557939 6.53121 0
M  V30 7350 H 666.29 -1.0371 5.90766 0
M  V30 7351 H 667.969 -0.747426 6.42668 0
M  V30 7352 N 668.101 -1.57061 -0.130224 0
M  V30 7353 C 669.347 -1.8453 -0.841216 0
M  V30 7354 C 669.68 -0.727666 -1.80052 0
M  V30 7355 O 668.955 0.267419 -1.92653 0
M  V30 7356 C 669.238 -3.22553 -1.60099 0
M  V30 7357 C 669.091 -4.44901 -0.662048 0
M  V30 7358 C 670.41 -3.58003 -2.55973 0
M  V30 7359 H 667.529 -0.671215 -0.304366 0
M  V30 7360 H 670.171 -1.89705 -0.105821 0
M  V30 7361 H 668.321 -3.18272 -2.22789 0
M  V30 7362 H 669.993 -4.61278 -0.0448559 0
M  V30 7363 H 668.236 -4.33791 0.0272253 0
M  V30 7364 H 668.907 -5.3812 -1.23006 0
M  V30 7365 H 671.383 -3.63002 -2.03393 0
M  V30 7366 H 670.259 -4.55576 -3.06172 0
M  V30 7367 H 670.52 -2.84833 -3.38116 0
M  V30 7368 N 669.579 0.400081 -1.52437 0
M  V30 7369 C 670.489 1.51253 -1.79331 0
M  V30 7370 C 671.505 1.60188 -0.679396 0
M  V30 7371 O 672.681 1.76733 -0.965791 0
M  V30 7372 C 669.746 2.869 -1.94652 0
M  V30 7373 C 668.807 2.87777 -3.18564 0
M  V30 7374 C 668.04 4.16954 -3.33145 0
M  V30 7375 O 668.263 5.11329 -2.52783 0
M  V30 7376 O 667.197 4.2487 -4.26343 0
M  V30 7377 H 671.023 1.31461 -2.73773 0
M  V30 7378 H 668.608 0.586834 -1.37392 0
M  V30 7379 H 670.49 3.67336 -2.065 0
M  V30 7380 H 669.165 3.06741 -1.034 0
M  V30 7381 H 668.072 2.06162 -3.12167 0
M  V30 7382 H 669.405 2.72886 -4.09627 0
M  V30 7383 N 671.057 1.43213 0.657864 0
M  V30 7384 C 671.967 1.50448 1.80007 0
M  V30 7385 C 672.983 0.39191 1.69529 0
M  V30 7386 O 674.159 0.645349 1.90781 0
M  V30 7387 C 671.224 1.42062 3.16258 0
M  V30 7388 C 670.285 2.63951 3.38568 0
M  V30 7389 C 669.518 2.55956 4.68318 0
M  V30 7390 O 669.741 1.60473 5.47361 0
M  V30 7391 O 668.675 3.46378 4.92245 0
M  V30 7392 H 672.501 2.4689 1.76858 0
M  V30 7393 H 670.086 1.25163 0.81576 0
M  V30 7394 H 671.968 1.3981 3.97531 0
M  V30 7395 H 670.643 0.487524 3.20008 0
M  V30 7396 H 669.55 2.71776 2.57077 0
M  V30 7397 H 670.883 3.56217 3.39662 0
M  V30 7398 N 672.536 -0.895792 1.29666 0
M  V30 7399 C 673.785 -1.64131 1.17234 0
M  V30 7400 C 674.098 -1.93665 -0.274416 0
M  V30 7401 O 675.304 -2.66472 -0.520105 0
M  V30 7402 C 673.76 -2.95764 2.05065 0
M  V30 7403 C 673.368 -2.7381 3.54587 0
M  V30 7404 C 675.112 -3.737 2.01367 0
M  V30 7405 C 673.019 -4.01194 4.34508 0
M  V30 7406 H 671.949 -0.615742 0.435175 0
M  V30 7407 H 674.6 -0.992626 1.54335 0
M  V30 7408 H 672.982 -3.61867 1.60837 0
M  V30 7409 H 674.156 -2.16277 4.06892 0
M  V30 7410 H 672.471 -2.09265 3.59996 0
M  V30 7411 H 675.068 -4.68152 2.58337 0
M  V30 7412 H 675.411 -4.04245 0.994575 0
M  V30 7413 H 675.944 -3.14444 2.43659 0
M  V30 7414 H 672.683 -3.75813 5.37071 0
M  V30 7415 H 672.203 -4.58272 3.86971 0
M  V30 7416 H 673.882 -4.69307 4.45376 0
M  V30 7417 N 674.014 -1.12206 -1.10668 0
M  V30 7418 C 675.425 -0.890657 -1.64086 0
M  V30 7419 C 675.776 0.575502 -1.8757 0
M  V30 7420 O 674.901 1.4394 -1.61587 0
M  V30 7421 C 675.496 -1.61029 -2.98085 0
M  V30 7422 C 674.055 -1.4251 -3.48379 0
M  V30 7423 C 673.202 -1.64778 -2.23033 0
M  V30 7424 H 676.153 -1.27718 -0.94201 0
M  V30 7425 H 676.174 -1.05993 -3.65439 0
M  V30 7426 H 675.686 -2.67735 -2.80962 0
M  V30 7427 H 673.787 -0.380497 -3.70652 0
M  V30 7428 H 673.9 -2.17959 -4.26651 0
M  V30 7429 H 672.264 -1.07171 -2.31055 0
M  V30 7430 H 673.047 -2.72776 -2.08443 0
M  V30 7431 N 675.492 1.28418 -0.913599 0
M  V30 7432 C 676.402 2.31043 -0.406965 0
M  V30 7433 C 677.418 1.66501 0.505298 0
M  V30 7434 O 678.594 1.97558 0.391522 0
M  V30 7435 C 675.659 3.4498 0.344901 0
M  V30 7436 C 674.72 4.25078 -0.600563 0
M  V30 7437 C 673.953 5.33575 0.115516 0
M  V30 7438 O 674.176 5.54503 1.33727 0
M  V30 7439 O 673.11 5.9939 -0.549095 0
M  V30 7440 H 676.936 2.76387 -1.25873 0
M  V30 7441 H 674.521 1.33109 -0.678415 0
M  V30 7442 H 676.403 4.14314 0.769542 0
M  V30 7443 H 675.078 3.01719 1.1725 0
M  V30 7444 H 673.985 3.58334 -1.0746 0
M  V30 7445 H 675.318 4.72018 -1.39497 0
M  V30 7446 N 676.97 0.677563 1.42291 0
M  V30 7447 C 678.195 0.207901 2.06355 0
M  V30 7448 C 678.62 -1.12723 1.50583 0
M  V30 7449 O 677.978 -1.70171 0.62543 0
M  V30 7450 C 678.026 0.156489 3.6026 0
M  V30 7451 O 677.13 -0.874162 4.03029 0
M  V30 7452 H 676.471 0.106056 0.655475 0
M  V30 7453 H 679.001 0.927354 1.82377 0
M  V30 7454 H 679.011 -0.0187258 4.07996 0
M  V30 7455 H 677.686 1.13101 4.00226 0
M  V30 7456 H 676.263 -0.669764 3.66836 0
M  V30 7457 N 678.448 -1.51871 0.421078 0
M  V30 7458 C 679.358 -2.31077 -0.405069 0
M  V30 7459 C 680.374 -1.39301 -1.04265 0
M  V30 7460 O 681.55 -1.72376 -1.04157 0
M  V30 7461 C 678.615 -3.12556 -1.50032 0
M  V30 7462 C 677.676 -4.20088 -0.884559 0
M  V30 7463 C 676.909 -4.97673 -1.92762 0
M  V30 7464 O 677.132 -4.75696 -3.14753 0
M  V30 7465 O 676.066 -5.82203 -1.52719 0
M  V30 7466 H 679.892 -3.02742 0.241086 0
M  V30 7467 H 677.477 -1.48263 0.183991 0
M  V30 7468 H 679.359 -3.6326 -2.13589 0
M  V30 7469 H 678.034 -2.43672 -2.13086 0
M  V30 7470 H 676.941 -3.73502 -0.211379 0
M  V30 7471 H 678.274 -4.91298 -0.297763 0
M  V30 7472 N 679.926 -0.151884 -1.56866 0
M  V30 7473 C 681.174 0.497021 -1.95893 0
M  V30 7474 C 681.495 1.65078 -1.03799 0
M  V30 7475 O 680.765 1.95642 -0.10049 0
M  V30 7476 H 679.345 0.186603 -0.723318 0
M  V30 7477 H 682.007 -0.228525 -1.93556 0
M  V30 7478 H 681.103 0.869933 -2.99731 0
M  V30 7479 N 681.404 1.57128 0.121893 0
M  V30 7480 C 682.351 2.0013 1.14964 0
M  V30 7481 C 683.321 0.872959 1.4131 0
M  V30 7482 O 684.506 1.13696 1.53225 0
M  V30 7483 C 681.646 2.40824 2.4718 0
M  V30 7484 C 680.759 3.67061 2.27794 0
M  V30 7485 C 679.894 3.96749 3.53219 0
M  V30 7486 C 678.933 5.16178 3.28978 0
M  V30 7487 N 678.07 5.41751 4.46599 0
M  V30 7488 H 682.91 2.8772 0.775947 0
M  V30 7489 H 680.447 1.42328 0.371652 0
M  V30 7490 H 682.405 2.62454 3.24305 0
M  V30 7491 H 681.035 1.56279 2.82448 0
M  V30 7492 H 680.087 3.53063 1.416 0
M  V30 7493 H 681.399 4.5434 2.05857 0
M  V30 7494 H 680.553 4.19012 4.38764 0
M  V30 7495 H 679.292 3.07941 3.78185 0
M  V30 7496 H 678.297 4.93762 2.41824 0
M  V30 7497 H 679.522 6.06561 3.05386 0
M  V30 7498 H 677.468 4.55899 4.71691 0
M  V30 7499 H 677.385 6.23347 4.27756 0
M  V30 7500 H 678.653 5.68531 5.33285 0
M  V30 7501 N 682.882 -0.391992 1.52647 0
M  V30 7502 C 684.128 -1.139 1.67793 0
M  V30 7503 C 684.461 -1.89711 0.41514 0
M  V30 7504 O 683.736 -1.85431 -0.586979 0
M  V30 7505 C 684.019 -2.11966 2.91105 0
M  V30 7506 C 683.872 -1.39939 4.27478 0
M  V30 7507 C 685.191 -3.1243 3.09961 0
M  V30 7508 H 682.31 -0.412707 0.610608 0
M  V30 7509 H 684.952 -0.422725 1.85238 0
M  V30 7510 H 683.102 -2.73048 2.76364 0
M  V30 7511 H 684.774 -0.818439 4.53982 0
M  V30 7512 H 683.017 -0.701246 4.28095 0
M  V30 7513 H 683.688 -2.1158 5.09841 0
M  V30 7514 H 686.164 -2.61435 3.23714 0
M  V30 7515 H 685.04 -3.78294 3.97725 0
M  V30 7516 H 685.301 -3.81127 2.24042 0
M  V30 7517 N 684.36 -1.4356 -0.65026 0
M  V30 7518 C 685.59 -1.48563 -1.4357 0
M  V30 7519 C 685.998 -0.103041 -1.88919 0
M  V30 7520 O 685.341 0.897602 -1.60277 0
M  V30 7521 C 685.403 -2.37181 -2.70158 0
M  V30 7522 C 685.067 -3.84673 -2.4673 0
M  V30 7523 C 686.064 -4.75704 -2.09765 0
M  V30 7524 C 683.749 -4.29189 -2.60963 0
M  V30 7525 C 685.743 -6.09249 -1.87334 0
M  V30 7526 C 683.43 -5.62787 -2.38147 0
M  V30 7527 C 684.428 -6.52634 -2.01389 0
M  V30 7528 O 684.116 -7.83761 -1.78813 0
M  V30 7529 H 683.848 -0.506743 -0.447423 0
M  V30 7530 H 686.402 -1.89001 -0.80423 0
M  V30 7531 H 684.632 -1.91636 -3.35876 0
M  V30 7532 H 686.321 -2.33354 -3.32116 0
M  V30 7533 H 687.087 -4.42589 -1.98343 0
M  V30 7534 H 682.966 -3.59529 -2.88548 0
M  V30 7535 H 686.51 -6.7934 -1.58567 0
M  V30 7536 H 682.407 -5.95469 -2.49173 0
M  V30 7537 H 683.175 -7.95368 -1.93214 0
M  V30 7538 N 685.838 0.888903 -1.30139 0
M  V30 7539 C 687.066 1.67358 -1.21651 0
M  V30 7540 C 687.481 1.87499 0.221246 0
M  V30 7541 O 686.838 1.41969 1.14677 0
M  V30 7542 C 686.889 3.05213 -1.93719 0
M  V30 7543 O 686.61 2.85984 -3.31881 0
M  V30 7544 C 688.111 3.9964 -1.9184 0
M  V30 7545 H 685.331 0.522365 -0.42116 0
M  V30 7546 H 687.875 1.11086 -1.71698 0
M  V30 7547 H 686.03 3.5823 -1.4748 0
M  V30 7548 H 686.444 3.73411 -3.68327 0
M  V30 7549 H 687.918 4.93749 -2.46811 0
M  V30 7550 H 688.395 4.29955 -0.896409 0
M  V30 7551 H 689.001 3.52558 -2.37872 0
M  V30 7552 N 687.317 1.12792 1.10072 0
M  V30 7553 C 688.227 0.812369 2.20086 0
M  V30 7554 C 689.243 -0.200349 1.72843 0
M  V30 7555 O 690.419 -0.0330262 2.01373 0
M  V30 7556 C 687.484 0.275685 3.45602 0
M  V30 7557 C 686.545 1.34881 4.07561 0
M  V30 7558 C 685.778 0.837639 5.27086 0
M  V30 7559 O 686.001 -0.327224 5.69461 0
M  V30 7560 O 684.935 1.60894 5.79997 0
M  V30 7561 H 688.761 1.73133 2.49517 0
M  V30 7562 H 686.346 0.904863 1.18881 0
M  V30 7563 H 688.228 -0.0185375 4.21396 0
M  V30 7564 H 686.903 -0.615783 3.17789 0
M  V30 7565 H 685.81 1.69625 3.33434 0
M  V30 7566 H 687.143 2.21418 4.39585 0
M  V30 7567 N 688.795 -1.27931 0.920396 0
M  V30 7568 C 690.206 -1.76707 0.602616 0
M  V30 7569 C 690.557 -1.75249 -0.882159 0
M  V30 7570 O 689.682 -1.35135 -1.69019 0
M  V30 7571 C 690.277 -3.20884 1.08714 0
M  V30 7572 C 688.836 -3.67356 0.820157 0
M  V30 7573 C 687.983 -2.47525 1.25006 0
M  V30 7574 H 690.934 -1.14301 1.10095 0
M  V30 7575 H 690.955 -3.78045 0.431535 0
M  V30 7576 H 690.467 -3.21913 2.1678 0
M  V30 7577 H 688.568 -3.7178 -0.247012 0
M  V30 7578 H 688.681 -4.57181 1.43257 0
M  V30 7579 H 687.045 -2.45765 0.668698 0
M  V30 7580 H 687.828 -2.51269 2.3392 0
M  V30 7581 N 690.273 -0.685099 -1.4193 0
M  V30 7582 C 691.689 -0.355632 -1.55587 0
M  V30 7583 C 691.889 1.13823 -1.66273 0
M  V30 7584 O 690.945 1.92387 -1.63534 0
M  V30 7585 C 692.258 -1.09498 -2.80055 0
M  V30 7586 C 693.806 -1.07831 -2.93839 0
M  V30 7587 C 694.281 -1.79919 -4.21181 0
M  V30 7588 N 695.772 -1.76837 -4.28115 0
M  V30 7589 C 696.507 -2.29463 -5.25485 0
M  V30 7590 N 696.003 -2.90516 -6.28945 0
M  V30 7591 N 697.796 -2.19779 -5.17353 0
M  V30 7592 H 689.947 -1.65412 -1.33239 0
M  V30 7593 H 692.21 -0.697453 -0.642078 0
M  V30 7594 H 691.916 -2.14997 -2.78333 0
M  V30 7595 H 691.79 -0.666813 -3.71259 0
M  V30 7596 H 694.177 -0.0316152 -2.95083 0
M  V30 7597 H 694.258 -1.54545 -2.03837 0
M  V30 7598 H 693.902 -2.84562 -4.20698 0
M  V30 7599 H 693.832 -1.30647 -5.10136 0
M  V30 7600 H 696.323 -1.32315 -3.53979 0
M  V30 7601 H 696.636 -3.28266 -6.99615 0
M  V30 7602 H 694.981 -2.94589 -6.29478 0
M  V30 7603 H 698.172 -1.71763 -4.35448 0
M  V30 7604 H 698.345 -2.61097 -5.9307 0
M  V30 7605 N 691.751 1.51645 -0.429126 0
M  V30 7606 C 693.162 1.86665 0.0359003 0
M  V30 7607 C 693.513 1.34677 1.42676 0
M  V30 7608 O 692.638 0.694195 2.04963 0
M  V30 7609 C 693.233 3.38724 0.0719221 0
M  V30 7610 C 691.792 3.7331 0.481336 0
M  V30 7611 C 690.939 2.75313 -0.331329 0
M  V30 7612 H 693.89 1.44987 -0.645333 0
M  V30 7613 H 693.911 3.7011 0.883118 0
M  V30 7614 H 693.423 3.76532 -0.940495 0
M  V30 7615 H 691.524 3.41088 1.49966 0
M  V30 7616 H 691.637 4.78631 0.211837 0
M  V30 7617 H 690.001 2.53839 0.209204 0
M  V30 7618 H 690.784 3.15963 -1.34247 0
M  V30 7619 N 693.229 0.160201 1.56784 0
M  V30 7620 C 694.64 -0.358417 1.83227 0
M  V30 7621 C 694.991 -1.63831 1.07952 0
M  V30 7622 O 694.116 -2.13885 0.328995 0
M  V30 7623 C 694.711 -0.657058 3.32368 0
M  V30 7624 C 693.27 -1.12015 3.59346 0
M  V30 7625 C 692.417 -0.15015 2.76893 0
M  V30 7626 H 695.368 0.384669 1.53967 0
M  V30 7627 H 695.389 -1.51033 3.49241 0
M  V30 7628 H 694.901 0.274647 3.87127 0
M  V30 7629 H 693.002 -2.06734 3.09987 0
M  V30 7630 H 693.115 -1.037 4.67743 0
M  V30 7631 H 691.479 -0.645361 2.46388 0
M  V30 7632 H 692.262 0.775379 3.34429 0
M  V30 7633 N 694.707 -1.5719 -0.113559 0
M  V30 7634 C 695.937 -1.89053 -0.833212 0
M  V30 7635 C 696.345 -0.750139 -1.73694 0
M  V30 7636 O 695.688 0.287808 -1.81431 0
M  V30 7637 C 695.75 -3.15986 -1.71443 0
M  V30 7638 C 695.414 -4.46271 -0.984449 0
M  V30 7639 C 696.411 -5.18897 -0.322741 0
M  V30 7640 C 694.096 -4.92963 -0.964011 0
M  V30 7641 C 696.09 -6.3644 0.349646 0
M  V30 7642 C 693.777 -6.10422 -0.287828 0
M  V30 7643 C 694.775 -6.82009 0.36784 0
M  V30 7644 O 694.463 -7.97233 1.03322 0
M  V30 7645 H 694.195 -0.630225 -0.244526 0
M  V30 7646 H 696.749 -2.05152 -0.100847 0
M  V30 7647 H 694.979 -2.95984 -2.48858 0
M  V30 7648 H 696.668 -3.33826 -2.309 0
M  V30 7649 H 697.434 -4.83875 -0.330114 0
M  V30 7650 H 693.313 -4.37143 -1.46379 0
M  V30 7651 H 696.857 -6.92254 0.861996 0
M  V30 7652 H 692.754 -6.449 -0.278237 0
M  V30 7653 H 693.522 -8.13105 0.938247 0
M  V30 7654 N 696.185 0.383891 -1.52853 0
M  V30 7655 C 697.433 1.12619 -1.67814 0
M  V30 7656 C 697.754 1.90354 -0.423141 0
M  V30 7657 O 697.024 1.87649 0.562554 0
M  V30 7658 H 695.604 0.418738 -0.618601 0
M  V30 7659 H 698.266 0.43495 -1.89985 0
M  V30 7660 H 697.362 1.82624 -2.5309 0
M  V30 7661 N 697.663 1.43903 0.642637 0
M  V30 7662 C 698.91 1.46079 1.40239 0
M  V30 7663 C 699.238 0.0890335 1.94296 0
M  V30 7664 O 698.493 -0.907533 1.73385 0
M  V30 7665 C 698.792 2.45907 2.59354 0
M  V30 7666 C 698.458 3.91522 2.23654 0
M  V30 7667 C 697.12 4.31179 2.1363 0
M  V30 7668 C 699.472 4.83242 1.95261 0
M  V30 7669 C 696.8 5.60495 1.73384 0
M  V30 7670 C 699.152 6.12933 1.56511 0
M  V30 7671 C 697.816 6.51556 1.4502 0
M  V30 7672 H 697.086 0.534542 0.513172 0
M  V30 7673 H 699.733 1.77047 0.72984 0
M  V30 7674 H 698.038 2.08381 3.3179 0
M  V30 7675 H 699.735 2.44842 3.17574 0
M  V30 7676 H 696.325 3.60142 2.32369 0
M  V30 7677 H 700.509 4.53367 2.0192 0
M  V30 7678 H 695.765 5.89249 1.63082 0
M  V30 7679 H 699.939 6.83469 1.33576 0
M  V30 7680 H 697.566 7.51663 1.13606 0
M  V30 7681 N 699.141 -0.881989 1.30609 0
M  V30 7682 C 700.073 -1.99375 1.13058 0
M  V30 7683 C 701.086 -1.62636 0.0729879 0
M  V30 7684 O 702.275 -1.75621 0.319301 0
M  V30 7685 C 699.375 -3.31536 0.702651 0
M  V30 7686 C 698.548 -3.96693 1.84265 0
M  V30 7687 C 697.607 -5.07158 1.40277 0
M  V30 7688 O 696.633 -5.28628 2.11048 0
M  V30 7689 N 697.835 -5.79808 0.283449 0
M  V30 7690 H 700.6 -2.14981 2.08814 0
M  V30 7691 H 698.161 -1.05526 1.22784 0
M  V30 7692 H 700.153 -4.02804 0.391331 0
M  V30 7693 H 698.723 -3.12175 -0.162954 0
M  V30 7694 H 697.943 -3.1856 2.32192 0
M  V30 7695 H 699.231 -4.36964 2.60653 0
M  V30 7696 H 698.629 -5.64871 -0.306189 0
M  V30 7697 H 697.186 -6.51792 0.0315985 0
M  V30 7698 N 700.619 -1.13374 -1.09472 0
M  V30 7699 C 701.859 -0.905422 -1.83252 0
M  V30 7700 C 702.223 0.558396 -1.83701 0
M  V30 7701 O 703.424 0.904254 -2.53134 0
M  V30 7702 C 701.695 -1.47658 -3.25472 0
M  V30 7703 S 703.254 -1.38825 -4.16261 0
M  V30 7704 H 700.072 -0.326371 -0.631667 0
M  V30 7705 H 702.674 -1.44517 -1.31663 0
M  V30 7706 H 701.378 -2.53533 -3.22722 0
M  V30 7707 H 700.909 -0.934756 -3.82133 0
M  V30 7708 H 702.924 -0.366379 -4.94846 0
M  V30 7709 N 702.098 1.27442 -0.927168 0
M  V30 7710 C 703.345 1.94391 -0.567324 0
M  V30 7711 C 703.673 1.72875 0.891321 0
M  V30 7712 O 702.928 1.05071 1.65102 0
M  V30 7713 C 703.227 3.47413 -0.838994 0
M  V30 7714 C 702.893 3.89049 -2.2793 0
M  V30 7715 C 701.555 4.00127 -2.67305 0
M  V30 7716 C 703.907 4.10154 -3.21595 0
M  V30 7717 C 701.235 4.29697 -3.99471 0
M  V30 7718 C 703.587 4.41208 -4.53341 0
M  V30 7719 C 702.251 4.50499 -4.92551 0
M  V30 7720 H 701.521 0.711325 -0.207598 0
M  V30 7721 H 704.168 1.51523 -1.17103 0
M  V30 7722 H 702.473 3.91503 -0.152609 0
M  V30 7723 H 704.17 3.97354 -0.53955 0
M  V30 7724 H 700.76 3.80962 -1.96381 0
M  V30 7725 H 704.944 4.01036 -2.92377 0
M  V30 7726 H 700.2 4.35099 -4.29533 0
M  V30 7727 H 704.374 4.56486 -5.25922 0
M  V30 7728 H 702.001 4.73167 -5.94994 0
M  V30 7729 N 703.576 0.692616 1.41565 0
M  V30 7730 C 704.804 0.231279 2.05603 0
M  V30 7731 C 705.219 -1.11837 1.52111 0
M  V30 7732 O 704.576 -1.6983 0.66813 0
M  V30 7733 C 704.627 0.177125 3.61066 0
M  V30 7734 O 704.348 1.47346 4.12578 0
M  V30 7735 C 705.849 -0.30556 4.42246 0
M  V30 7736 H 703.069 0.108238 0.662213 0
M  V30 7737 H 705.613 0.944369 1.81389 0
M  V30 7738 H 703.768 -0.486769 3.8433 0
M  V30 7739 H 704.182 1.35861 5.06599 0
M  V30 7740 H 705.656 -0.29233 5.51225 0
M  V30 7741 H 706.133 -1.34393 4.18133 0
M  V30 7742 H 706.739 0.327229 4.24039 0
M  V30 7743 N 705.054 -1.51416 0.437162 0
M  V30 7744 C 706.3 -2.02386 -0.129555 0
M  V30 7745 C 706.633 -1.32071 -1.42376 0
M  V30 7746 O 705.908 -0.43559 -1.8956 0
M  V30 7747 C 706.191 -3.5841 -0.348487 0
M  V30 7748 C 706.044 -4.39341 0.964352 0
M  V30 7749 C 707.363 -4.25654 -1.11834 0
M  V30 7750 H 704.482 -0.735587 -0.0456109 0
M  V30 7751 H 707.124 -1.81055 0.576124 0
M  V30 7752 H 705.274 -3.76716 -0.949592 0
M  V30 7753 H 706.946 -4.32685 1.59942 0
M  V30 7754 H 705.189 -4.04432 1.56898 0
M  V30 7755 H 705.86 -5.4667 0.765212 0
M  V30 7756 H 708.336 -4.11617 -0.609165 0
M  V30 7757 H 707.212 -5.34704 -1.24029 0
M  V30 7758 H 707.473 -3.86502 -2.14636 0
M  V30 7759 N 706.532 -0.168513 -1.56696 0
M  V30 7760 C 707.76 0.483503 -2.01171 0
M  V30 7761 C 708.175 1.56994 -1.04872 0
M  V30 7762 O 707.532 1.82434 -0.0491337 0
M  V30 7763 C 707.583 1.0644 -3.45475 0
M  V30 7764 O 707.304 0.0213375 -4.38095 0
M  V30 7765 C 708.805 1.79493 -4.05336 0
M  V30 7766 H 706.025 0.124002 -0.659443 0
M  V30 7767 H 708.569 -0.269419 -2.02717 0
M  V30 7768 H 706.724 1.76784 -3.44712 0
M  V30 7769 H 707.138 0.449837 -5.22567 0
M  V30 7770 H 708.612 2.15401 -5.08238 0
M  V30 7771 H 709.089 2.68889 -3.47269 0
M  V30 7772 H 709.695 1.13798 -4.09793 0
M  V30 7773 N 708.01 1.57248 0.105221 0
M  V30 7774 C 708.942 1.98008 1.15436 0
M  V30 7775 C 709.955 0.881236 1.36887 0
M  V30 7776 O 711.144 1.15943 1.35718 0
M  V30 7777 C 708.244 2.27509 2.51183 0
M  V30 7778 C 707.417 3.58811 2.50147 0
M  V30 7779 C 706.476 3.76365 3.67745 0
M  V30 7780 O 705.502 4.48329 3.50699 0
M  V30 7781 N 706.704 3.16174 4.86841 0
M  V30 7782 H 709.469 2.88616 0.807519 0
M  V30 7783 H 707.03 1.59202 0.29433 0
M  V30 7784 H 709.022 2.36455 3.28438 0
M  V30 7785 H 707.592 1.42959 2.77995 0
M  V30 7786 H 706.812 3.60927 1.5851 0
M  V30 7787 H 708.1 4.45088 2.46524 0
M  V30 7788 H 707.498 2.57701 5.03594 0
M  V30 7789 H 706.055 3.30621 5.61723 0
M  V30 7790 N 709.488 -0.375779 1.53054 0
M  V30 7791 C 710.398 -1.48381 1.81715 0
M  V30 7792 C 711.414 -1.59087 0.704795 0
M  V30 7793 O 712.59 -1.75174 0.993785 0
M  V30 7794 C 709.655 -2.83767 1.99192 0
M  V30 7795 C 708.716 -2.82673 3.23102 0
M  V30 7796 C 707.949 -4.11601 3.39736 0
M  V30 7797 O 708.172 -5.07243 2.60885 0
M  V30 7798 O 707.106 -4.18034 4.33049 0
M  V30 7799 H 710.932 -1.27089 2.7583 0
M  V30 7800 H 708.517 -0.564902 1.38308 0
M  V30 7801 H 710.399 -3.64004 2.12318 0
M  V30 7802 H 709.074 -3.05057 1.08267 0
M  V30 7803 H 707.981 -2.0117 3.15407 0
M  V30 7804 H 709.314 -2.66335 4.13916 0
M  V30 7805 N 710.966 -1.44241 -0.634997 0
M  V30 7806 C 712.243 -1.37296 -1.39317 0
M  V30 7807 C 712.623 -0.0297532 -2.11079 0
M  V30 7808 O 711.971 0.987524 -2.06059 0
M  V30 7809 C 712.181 -2.56853 -2.36279 0
M  V30 7810 C 713.529 -3.00747 -2.99728 0
M  V30 7811 O 714.553 -2.5703 -2.46605 0
M  V30 7812 O 713.412 -3.76533 -3.96087 0
M  V30 7813 H 710.506 -0.543503 -0.623325 0
M  V30 7814 H 713.052 -1.56324 -0.660376 0
M  V30 7815 H 711.824 -3.46228 -1.82324 0
M  V30 7816 H 711.447 -2.40019 -3.16981 0
M  V30 7817 N 712.444 0.87505 -1.31075 0
M  V30 7818 C 713.374 1.99775 -1.20881 0
M  V30 7819 C 714.355 1.69822 -0.0971612 0
M  V30 7820 O 715.54 1.92158 -0.280895 0
M  V30 7821 C 712.67 3.35163 -0.910118 0
M  V30 7822 C 711.624 3.79406 -1.98078 0
M  V30 7823 C 710.95 5.12197 -1.53488 0
M  V30 7824 C 712.25 3.97061 -3.39323 0
M  V30 7825 H 713.944 2.08562 -2.14808 0
M  V30 7826 H 711.49 1.00207 -1.03415 0
M  V30 7827 H 713.443 4.13237 -0.825423 0
M  V30 7828 H 712.167 3.26536 0.064822 0
M  V30 7829 H 710.826 3.03568 -2.05528 0
M  V30 7830 H 710.474 5.00007 -0.547941 0
M  V30 7831 H 710.174 5.4277 -2.2511 0
M  V30 7832 H 711.698 5.92785 -1.46417 0
M  V30 7833 H 713.112 4.65545 -3.34576 0
M  V30 7834 H 711.509 4.39025 -4.09118 0
M  V30 7835 H 712.579 3.00601 -3.80483 0
M  V30 7836 N 713.922 1.13953 1.08869 0
M  V30 7837 C 715.333 0.916649 1.62648 0
M  V30 7838 C 715.684 -0.545589 1.88462 0
M  V30 7839 O 714.809 -1.41351 1.63856 0
M  V30 7840 C 715.404 1.65751 2.95486 0
M  V30 7841 C 713.963 1.48034 3.46068 0
M  V30 7842 C 713.11 1.68305 2.20383 0
M  V30 7843 H 716.061 1.292 0.921572 0
M  V30 7844 H 716.082 1.11794 3.63707 0
M  V30 7845 H 715.594 2.72171 2.76667 0
M  V30 7846 H 713.695 0.439416 3.7 0
M  V30 7847 H 713.808 2.24719 4.23129 0
M  V30 7848 H 712.172 1.10833 2.29321 0
M  V30 7849 H 712.955 2.76057 2.04077 0
M  V30 7850 N 715.4 -1.26948 0.933913 0
M  V30 7851 C 716.35 -2.24306 0.408779 0
M  V30 7852 C 717.334 -1.53243 -0.490435 0
M  V30 7853 O 718.526 -1.73956 -0.326866 0
M  V30 7854 C 715.655 -3.41695 -0.331578 0
M  V30 7855 C 714.741 -4.20053 0.58451 0
M  V30 7856 N 715.132 -4.76122 1.70709 0
M  V30 7857 C 713.43 -4.44303 0.388703 0
M  V30 7858 C 714.131 -5.35267 2.27737 0
M  V30 7859 N 713.107 -5.20548 1.56622 0
M  V30 7860 H 716.909 -2.65244 1.26582 0
M  V30 7861 H 714.423 -1.4195 0.788919 0
M  V30 7862 H 716.42 -4.10552 -0.724774 0
M  V30 7863 H 715.08 -3.02286 -1.18547 0
M  V30 7864 H 716.091 -4.73884 2.08937 0
M  V30 7865 H 712.768 -4.15341 -0.424016 0
M  V30 7866 H 714.158 -5.89563 3.22282 0
M  V30 7867 N 716.879 -0.700114 -1.41195 0
M  V30 7868 C 717.789 -0.0382854 -2.34569 0
M  V30 7869 C 718.805 0.761036 -1.56474 0
M  V30 7870 O 719.981 0.697553 -1.88934 0
M  V30 7871 C 717.046 0.883522 -3.35253 0
M  V30 7872 C 716.107 0.0758957 -4.29233 0
M  V30 7873 C 715.34 0.9538 -5.25108 0
M  V30 7874 O 715.563 2.19326 -5.26547 0
M  V30 7875 O 714.497 0.401049 -6.00562 0
M  V30 7876 H 718.323 -0.808073 -2.92752 0
M  V30 7877 H 715.908 -0.460479 -1.42127 0
M  V30 7878 H 717.79 1.41199 -3.9704 0
M  V30 7879 H 716.465 1.63272 -2.79506 0
M  V30 7880 H 715.372 -0.497274 -3.7078 0
M  V30 7881 H 716.705 -0.634741 -4.8809 0
M  V30 7882 N 718.357 1.51182 -0.445186 0
M  V30 7883 C 719.305 2.29531 0.376597 0
M  V30 7884 C 720.299 1.35711 1.01385 0
M  V30 7885 O 721.505 1.53018 0.947922 0
M  V30 7886 H 717.88 0.738803 0.140267 0
M  V30 7887 H 719.851 2.96838 -0.304958 0
M  V30 7888 C 718.6 3.1552 1.4609 0
M  V30 7889 H 717.923 3.87605 0.979912 0
M  V30 7890 H 719.363 3.73384 2.009 0
M  V30 7891 C 717.822 2.31406 2.44852 0
M  V30 7892 O 718.352 1.97912 3.49562 0
M  V30 7893 N 716.558 1.94478 2.15932 0
M  V30 7894 H 716.105 2.21917 1.30808 0
M  V30 7895 H 716.063 1.38498 2.82251 0
M  V30 7896 N 719.835 0.176821 1.56605 0
M  V30 7897 C 721.084 -0.466833 1.96223 0
M  V30 7898 C 721.397 -1.64015 1.06576 0
M  V30 7899 O 722.603 -2.3504 1.35898 0
M  V30 7900 C 721.059 -0.881921 3.48927 0
M  V30 7901 C 720.667 0.266102 4.47209 0
M  V30 7902 C 722.411 -1.49368 3.97353 0
M  V30 7903 C 720.318 -0.168923 5.91159 0
M  V30 7904 H 719.248 -0.178178 0.732645 0
M  V30 7905 H 721.899 0.265929 1.81563 0
M  V30 7906 H 720.281 -1.67082 3.59026 0
M  V30 7907 H 721.455 1.04349 4.4883 0
M  V30 7908 H 719.77 0.788178 4.08872 0
M  V30 7909 H 722.367 -1.8313 5.02362 0
M  V30 7910 H 722.71 -2.3936 3.40606 0
M  V30 7911 H 723.243 -0.769114 3.90294 0
M  V30 7912 H 719.982 0.696351 6.51791 0
M  V30 7913 H 719.502 -0.911552 5.92833 0
M  V30 7914 H 721.181 -0.610938 6.44109 0
M  V30 7915 N 721.313 -1.57302 -0.09688 0
M  V30 7916 C 722.243 -2.0497 -1.11846 0
M  V30 7917 C 723.224 -0.938278 -1.41882 0
M  V30 7918 O 724.409 -1.20943 -1.51942 0
M  V30 7919 C 721.539 -2.47264 -2.43881 0
M  V30 7920 C 720.493 -3.62053 -2.28257 0
M  V30 7921 C 719.819 -3.90318 -3.65453 0
M  V30 7922 C 721.119 -4.93005 -1.72461 0
M  V30 7923 H 722.813 -2.90567 -0.721888 0
M  V30 7924 H 720.359 -1.39786 -0.345803 0
M  V30 7925 H 722.312 -2.7922 -3.15617 0
M  V30 7926 H 721.036 -1.58664 -2.8547 0
M  V30 7927 H 719.695 -3.30341 -1.58967 0
M  V30 7928 H 719.343 -2.98889 -4.04567 0
M  V30 7929 H 719.043 -4.67597 -3.55846 0
M  V30 7930 H 720.567 -4.24747 -4.3866 0
M  V30 7931 H 721.981 -5.23354 -2.34036 0
M  V30 7932 H 720.378 -5.74436 -1.73618 0
M  V30 7933 H 721.448 -4.80053 -0.683898 0
M  V30 7934 N 722.791 0.367657 -1.53252 0
M  V30 7935 C 723.724 1.47264 -1.74323 0
M  V30 7936 C 724.702 1.51458 -0.591535 0
M  V30 7937 O 725.886 1.69542 -0.823883 0
M  V30 7938 C 723.013 2.85637 -1.82015 0
M  V30 7939 C 722.059 2.99176 -3.03967 0
M  V30 7940 S 722.892 2.68147 -4.63527 0
M  V30 7941 C 724.048 4.08673 -4.74065 0
M  V30 7942 H 724.281 1.29169 -2.67773 0
M  V30 7943 H 721.814 0.561866 -1.43814 0
M  V30 7944 H 723.772 3.65365 -1.87132 0
M  V30 7945 H 722.433 3.01043 -0.896195 0
M  V30 7946 H 721.626 4.00511 -3.05953 0
M  V30 7947 H 721.228 2.27367 -2.96952 0
M  V30 7948 H 723.52 5.02889 -4.53992 0
M  V30 7949 H 724.463 4.11693 -5.7612 0
M  V30 7950 H 724.871 3.95576 -4.02716 0
M  V30 7951 N 724.269 1.44576 0.627338 0
M  V30 7952 C 725.516 1.47558 1.38682 0
M  V30 7953 C 725.844 0.109636 1.94191 0
M  V30 7954 O 725.099 -0.889092 1.74338 0
M  V30 7955 C 725.398 2.48644 2.56731 0
M  V30 7956 C 725.064 3.93873 2.19489 0
M  V30 7957 C 723.726 4.33421 2.09045 0
M  V30 7958 C 726.078 4.85286 1.90124 0
M  V30 7959 C 723.406 5.62303 1.6743 0
M  V30 7960 C 725.758 6.14559 1.50001 0
M  V30 7961 C 724.422 6.53058 1.38101 0
M  V30 7962 H 723.692 0.539955 0.507474 0
M  V30 7963 H 726.339 1.77811 0.711021 0
M  V30 7964 H 724.644 2.11889 3.29561 0
M  V30 7965 H 726.341 2.48197 3.14959 0
M  V30 7966 H 722.931 3.62587 2.28537 0
M  V30 7967 H 727.115 4.55483 1.971 0
M  V30 7968 H 722.371 5.90945 1.56823 0
M  V30 7969 H 726.545 6.84848 1.26319 0
M  V30 7970 H 724.172 7.52826 1.05628 0
M  V30 7971 N 725.747 -0.868086 1.31537 0
M  V30 7972 C 726.972 -1.65926 1.24432 0
M  V30 7973 C 727.397 -1.87169 -0.186936 0
M  V30 7974 O 726.755 -1.4148 -1.13371 0
M  V30 7975 C 726.803 -3.00347 1.9956 0
M  V30 7976 O 725.907 -3.90221 1.33422 0
M  V30 7977 H 725.248 -0.506375 0.429512 0
M  V30 7978 H 727.778 -1.0822 1.73637 0
M  V30 7979 H 727.788 -3.50269 2.09226 0
M  V30 7980 H 726.463 -2.84205 3.03645 0
M  V30 7981 H 725.04 -3.48672 1.32219 0
M  V30 7982 N 727.225 -1.14528 -1.08264 0
M  V30 7983 C 728.502 -0.825185 -1.77342 0
M  V30 7984 C 728.882 0.681037 -1.99813 0
M  V30 7985 O 728.23 1.62234 -1.60912 0
M  V30 7986 C 728.44 -1.62556 -3.08831 0
M  V30 7987 C 729.788 -1.82585 -3.83338 0
M  V30 7988 O 730.812 -1.59254 -3.18617 0
M  V30 7989 O 729.671 -2.21598 -4.99556 0
M  V30 7990 H 726.765 -0.302531 -0.769678 0
M  V30 7991 H 729.311 -1.25056 -1.14713 0
M  V30 7992 H 728.083 -2.64862 -2.88035 0
M  V30 7993 H 727.706 -1.1959 -3.79189 0
M  V30 7994 N 728.703 1.26451 -0.940633 0
M  V30 7995 C 729.613 2.30128 -0.455881 0
M  V30 7996 C 730.629 1.67536 0.469867 0
M  V30 7997 O 731.805 1.98344 0.349529 0
M  V30 7998 C 728.87 3.45634 0.271648 0
M  V30 7999 C 727.931 4.23709 -0.690594 0
M  V30 8000 C 727.164 5.337 0.00231047 0
M  V30 8001 O 727.387 5.57215 1.21935 0
M  V30 8002 O 726.321 5.98091 -0.676111 0
M  V30 8003 H 730.147 2.73655 -1.31707 0
M  V30 8004 H 727.732 1.3164 -0.706497 0
M  V30 8005 H 729.614 4.15853 0.681486 0
M  V30 8006 H 728.289 3.04138 1.10824 0
M  V30 8007 H 727.196 3.55974 -1.15037 0
M  V30 8008 H 728.529 4.68953 -1.49478 0
M  V30 8009 N 730.181 0.707592 1.40822 0
M  V30 8010 C 731.592 0.317011 1.83989 0
M  V30 8011 C 731.943 -1.14697 1.59182 0
M  V30 8012 O 731.068 -1.8818 1.06852 0
M  V30 8013 C 731.663 0.568593 3.33995 0
M  V30 8014 C 730.222 0.231804 3.75686 0
M  V30 8015 C 729.369 0.844933 2.64114 0
M  V30 8016 H 732.32 0.907349 1.30203 0
M  V30 8017 H 732.341 -0.168798 3.80125 0
M  V30 8018 H 731.853 1.63417 3.52018 0
M  V30 8019 H 729.954 -0.82903 3.6326 0
M  V30 8020 H 730.067 0.695219 4.74029 0
M  V30 8021 H 728.431 0.273588 2.53226 0
M  V30 8022 H 729.214 1.91462 2.84951 0
M  V30 8023 N 731.66 -1.50943 0.453197 0
M  V30 8024 C 732.937 -1.94872 -0.168633 0
M  V30 8025 C 733.317 -1.39272 -1.5864 0
M  V30 8026 O 732.665 -0.586272 -2.20851 0
M  V30 8027 C 732.875 -3.48757 -0.130217 0
M  V30 8028 C 734.223 -4.23331 -0.327975 0
M  V30 8029 O 735.247 -3.55594 -0.207619 0
M  V30 8030 O 734.106 -5.43529 -0.569077 0
M  V30 8031 H 731.2 -0.818042 -0.121394 0
M  V30 8032 H 733.746 -1.61782 0.512316 0
M  V30 8033 H 732.518 -3.81725 0.860346 0
M  V30 8034 H 732.141 -3.88333 -0.853397 0
M  V30 8035 N 733.138 -0.185124 -1.56509 0
M  V30 8036 C 734.088 0.752315 -2.15231 0
M  V30 8037 C 735.072 1.18327 -1.0903 0
M  V30 8038 O 736.264 1.14333 -1.35119 0
M  V30 8039 C 733.393 1.97583 -2.80742 0
M  V30 8040 C 732.479 1.56623 -3.94119 0
M  V30 8041 N 732.87 0.867008 -4.98314 0
M  V30 8042 C 731.168 1.85626 -4.05535 0
M  V30 8043 C 731.869 0.663228 -5.77907 0
M  V30 8044 N 730.845 1.20891 -5.29987 0
M  V30 8045 H 734.647 0.209267 -2.93154 0
M  V30 8046 H 732.161 0.0150444 -1.62393 0
M  V30 8047 H 734.158 2.65779 -3.21197 0
M  V30 8048 H 732.818 2.52369 -2.04303 0
M  V30 8049 H 733.829 0.52355 -5.15247 0
M  V30 8050 H 730.506 2.41992 -3.40215 0
M  V30 8051 H 731.896 0.109273 -6.71811 0
M  V30 8052 N 734.616 1.57351 0.0885366 0
M  V30 8053 C 735.563 2.02523 1.10693 0
M  V30 8054 C 736.533 0.902736 1.39427 0
M  V30 8055 O 737.718 1.16921 1.50779 0
M  V30 8056 C 734.858 2.46013 2.42016 0
M  V30 8057 C 733.971 3.7181 2.19957 0
M  V30 8058 C 733.106 4.04152 3.44724 0
M  V30 8059 C 732.145 5.2304 3.17956 0
M  V30 8060 N 731.282 5.51102 4.35007 0
M  V30 8061 H 736.122 2.89302 0.714742 0
M  V30 8062 H 733.659 1.43084 0.341378 0
M  V30 8063 H 735.617 2.69274 3.18665 0
M  V30 8064 H 734.247 1.62235 2.79069 0
M  V30 8065 H 733.299 3.55987 1.34079 0
M  V30 8066 H 734.611 4.58604 1.96173 0
M  V30 8067 H 733.765 4.28225 4.29777 0
M  V30 8068 H 732.504 3.15893 3.71568 0
M  V30 8069 H 731.509 4.98781 2.31296 0
M  V30 8070 H 732.734 6.12902 2.92451 0
M  V30 8071 H 730.68 4.65802 4.61914 0
M  V30 8072 H 730.597 6.3228 4.14437 0
M  V30 8073 H 731.865 5.79714 5.21106 0
M  V30 8074 N 736.094 -0.359525 1.53444 0
M  V30 8075 C 737.342 -1.09935 1.69584 0
M  V30 8076 C 737.663 -1.89656 0.453371 0
M  V30 8077 O 736.933 -1.8852 -0.53263 0
M  V30 8078 H 735.513 -0.408843 0.625185 0
M  V30 8079 H 738.175 -0.40467 1.90653 0
M  V30 8080 H 737.271 -1.78575 2.55964 0
M  V30 8081 N 737.572 -1.44907 -0.619662 0
M  V30 8082 C 738.535 -1.52282 -1.71297 0
M  V30 8083 C 739.535 -0.40359 -1.55653 0
M  V30 8084 O 740.725 -0.666638 -1.6094 0
M  V30 8085 C 737.857 -1.40778 -3.10474 0
M  V30 8086 H 739.05 -2.49683 -1.66128 0
M  V30 8087 H 736.603 -1.32168 -0.834339 0
M  V30 8088 H 737.338 -0.445156 -3.2123 0
M  V30 8089 H 737.123 -2.21947 -3.23237 0
M  V30 8090 H 738.613 -1.48946 -3.90135 0
M  V30 8091 N 739.05 0.861098 -1.31996 0
M  V30 8092 C 739.98 1.98482 -1.22993 0
M  V30 8093 C 740.961 1.6971 -0.115168 0
M  V30 8094 O 742.146 1.91849 -0.30126 0
M  V30 8095 C 739.276 3.34179 -0.945615 0
M  V30 8096 C 738.23 3.77284 -2.02091 0
M  V30 8097 C 737.556 5.1054 -1.58912 0
M  V30 8098 C 738.856 3.93439 -3.43515 0
M  V30 8099 H 740.55 2.06271 -2.17008 0
M  V30 8100 H 738.096 0.991043 -1.04472 0
M  V30 8101 H 740.049 4.12338 -0.869206 0
M  V30 8102 H 738.773 3.26586 0.0301849 0
M  V30 8103 H 737.432 3.01371 -2.08737 0
M  V30 8104 H 737.08 4.99397 -0.600942 0
M  V30 8105 H 736.78 5.40352 -2.30854 0
M  V30 8106 H 738.304 5.91199 -1.52696 0
M  V30 8107 H 739.718 4.6197 -3.39495 0
M  V30 8108 H 738.115 4.34661 -4.13751 0
M  V30 8109 H 739.185 2.96548 -3.8365 0
M  V30 8110 N 740.528 1.15101 1.07655 0
M  V30 8111 C 741.475 0.844958 2.14777 0
M  V30 8112 C 742.445 -0.200798 1.64882 0
M  V30 8113 O 743.63 -0.0690278 1.90675 0
M  V30 8114 C 740.77 0.337018 3.4345 0
M  V30 8115 C 739.883 1.44398 4.07153 0
M  V30 8116 C 739.018 0.892487 5.23649 0
M  V30 8117 C 738.057 1.9766 5.79307 0
M  V30 8118 N 737.194 1.44171 6.87138 0
M  V30 8119 H 742.034 1.76242 2.40297 0
M  V30 8120 H 739.571 0.879435 1.17917 0
M  V30 8121 H 741.529 0.024256 4.17193 0
M  V30 8122 H 740.159 -0.543531 3.18191 0
M  V30 8123 H 739.211 1.87299 3.31094 0
M  V30 8124 H 740.523 2.26262 4.4453 0
M  V30 8125 H 739.677 0.532083 6.04362 0
M  V30 8126 H 738.416 0.0429854 4.87681 0
M  V30 8127 H 737.421 2.34586 4.97242 0
M  V30 8128 H 738.646 2.82982 6.17331 0
M  V30 8129 H 736.592 0.614518 6.53115 0
M  V30 8130 H 736.509 2.19665 7.23383 0
M  V30 8131 H 737.777 1.10945 7.71564 0
M  V30 8132 O 742.045 -1.2028 1.07773 0
M  V30 8133 H 742.736 -1.77907 0.76608 0
M  V30 END ATOM
M  V30 BEGIN BOND
M  V30 END BOND
M  V30 END CTAB
M  END
$$$$
