drugbank_target|Q46393 Bacteriochlorophyll a protein (DB01853)
 OpenBabel12092119533D

  0  0  0     0  0            999 V3000
M  V30 BEGIN CTAB
M  V30 COUNTS 5635 5706 0 0 0
M  V30 BEGIN ATOM
M  V30 1 H -0.908 1.98254 -0.117106 0
M  V30 2 N 0 1.576 0 0
M  V30 3 C 0.933 2.03868 1.02534 0
M  V30 4 C 1.911 0.928543 1.3348 0
M  V30 5 O 3.095 1.19667 1.45644 0
M  V30 6 C 0.222 2.43627 2.35294 0
M  V30 7 C -0.732 3.65373 2.2001 0
M  V30 8 S 0.101 5.13292 1.52614 0
M  V30 9 C 1.257 5.56322 2.86805 0
M  V30 10 H 1.49 2.90518 0.631377 0
M  V30 11 H -0.977 1.52953 0.210867 0
M  V30 12 H 0.981 2.67203 3.11629 0
M  V30 13 H -0.358 1.57376 2.7183 0
M  V30 14 H -1.165 3.90944 3.18086 0
M  V30 15 H -1.563 3.418 1.51819 0
M  V30 16 H 0.729 5.58782 3.83104 0
M  V30 17 H 1.672 6.56266 2.65933 0
M  V30 18 H 2.08 4.83886 2.90714 0
M  V30 19 N 1.4781 -0.272755 1.55222 0
M  V30 20 C 2.4411 -1.32041 1.87344 0
M  V30 21 C 3.4411 -1.42342 0.74803 0
M  V30 22 O 4.6311 -1.41488 1.0162 0
M  V30 23 C 1.7631 -2.70173 2.07893 0
M  V30 24 H 2.9561 -1.04789 2.80997 0
M  V30 25 H 0.5091 -0.51083 1.47717 0
M  V30 26 H 1.2441 -3.02605 1.16622 0
M  V30 27 H 1.0291 -2.64082 2.89833 0
M  V30 28 H 2.5191 -3.45869 2.34017 0
M  V30 29 N 2.9562 -1.48159 -0.537278 0
M  V30 30 C 3.8862 -1.65029 -1.6519 0
M  V30 31 C 4.8672 -0.499281 -1.62607 0
M  V30 32 O 6.0522 -0.730972 -1.79918 0
M  V30 33 C 3.1822 -1.68303 -3.03795 0
M  V30 34 C 2.1362 -2.8283 -3.21234 0
M  V30 35 C 1.4622 -2.71189 -4.60826 0
M  V30 36 C 2.7622 -4.24211 -3.04701 0
M  V30 37 H 4.4562 -2.58341 -1.51328 0
M  V30 38 H 2.0022 -1.24325 -0.726585 0
M  V30 39 H 3.9552 -1.78693 -3.81637 0
M  V30 40 H 2.6792 -0.715635 -3.18663 0
M  V30 41 H 1.3382 -2.71983 -2.45807 0
M  V30 42 H 0.9862 -1.72435 -4.7252 0
M  V30 43 H 0.6862 -3.48035 -4.7344 0
M  V30 44 H 2.2102 -2.83537 -5.40777 0
M  V30 45 H 3.6242 -4.3593 -3.72341 0
M  V30 46 H 2.0212 -5.01998 -3.28813 0
M  V30 47 H 3.0912 -4.41184 -2.01209 0
M  V30 48 N 4.4343 0.785586 -1.36625 0
M  V30 49 C 5.6813 1.54362 -1.31067 0
M  V30 50 C 6.0093 1.94195 0.10893 0
M  V30 51 O 5.2643 1.63262 1.07908 0
M  V30 52 C 5.5633 2.83007 -2.1827 0
M  V30 53 C 5.2293 2.62294 -3.6676 0
M  V30 54 C 3.8913 2.56353 -4.0723 0
M  V30 55 C 6.2433 2.43371 -4.6089 0
M  V30 56 C 3.5713 2.29461 -5.39967 0
M  V30 57 C 5.9233 2.18005 -5.93849 0
M  V30 58 C 4.5873 2.105 -6.3344 0
M  V30 59 H 3.8573 0.564851 -0.479609 0
M  V30 60 H 6.5043 0.906028 -1.68711 0
M  V30 61 H 4.8093 3.51253 -1.73576 0
M  V30 62 H 6.5063 3.40817 -2.11292 0
M  V30 63 H 3.0963 2.67774 -3.34656 0
M  V30 64 H 7.2803 2.46959 -4.30494 0
M  V30 65 H 2.5363 2.22135 -5.69619 0
M  V30 66 H 6.7103 2.02359 -6.66351 0
M  V30 67 H 4.3373 1.89425 -7.36222 0
M  V30 68 N 5.9124 1.20967 1.01018 0
M  V30 69 C 7.1604 1.02172 1.74371 0
M  V30 70 C 7.4814 -0.446414 1.89821 0
M  V30 71 O 6.7514 -1.32234 1.44537 0
M  V30 72 H 5.3314 0.375066 0.646014 0
M  V30 73 H 7.9934 1.52187 1.21758 0
M  V30 74 H 7.0894 1.48538 2.74487 0
M  V30 75 N 7.3905 -1.2043 1.01659 0
M  V30 76 C 8.6155 -1.94318 0.724942 0
M  V30 77 C 9.0405 -1.74266 -0.708034 0
M  V30 78 O 8.3985 -1.03694 -1.48719 0
M  V30 79 C 8.4465 -3.44486 1.06591 0
M  V30 80 O 7.5505 -4.12017 0.177599 0
M  V30 81 H 6.8915 -0.60708 0.26898 0
M  V30 82 H 9.4215 -1.52861 1.35995 0
M  V30 83 H 9.4315 -3.95106 1.01762 0
M  V30 84 H 8.1065 -3.58404 2.10997 0
M  V30 85 H 6.6835 -3.71821 0.283421 0
M  V30 86 N 8.8686 -0.792821 -1.36206 0
M  V30 87 C 9.8166 -0.181555 -2.3189 0
M  V30 88 C 10.8106 0.661025 -1.55971 0
M  V30 89 O 12.0166 0.555728 -1.71206 0
M  V30 90 H 8.3916 -0.0399382 -0.750939 0
M  V30 91 H 10.3626 -1.00394 -2.81005 0
M  V30 92 C 9.1116 0.666444 -3.41253 0
M  V30 93 H 8.4346 0.0274489 -3.99791 0
M  V30 94 H 9.8746 1.06076 -4.10517 0
M  V30 95 C 8.3336 1.82614 -2.83114 0
M  V30 96 O 8.8636 2.9229 -2.75553 0
M  V30 97 N 7.0696 1.63333 -2.40356 0
M  V30 98 H 6.6166 0.741217 -2.46706 0
M  V30 99 H 6.5746 2.41087 -2.01803 0
M  V30 100 N 10.3467 1.47872 -0.545128 0
M  V30 101 C 11.6237 1.9554 0.0485222 0
M  V30 102 C 12.0037 1.4876 1.49779 0
M  V30 103 O 11.3517 0.720925 2.16829 0
M  V30 104 C 11.5617 3.48898 -0.084417 0
M  V30 105 C 12.9097 4.24547 0.0671239 0
M  V30 106 O 13.9337 3.56198 -0.0113649 0
M  V30 107 O 12.7927 5.45999 0.233882 0
M  V30 108 H 9.8867 0.823957 0.0708773 0
M  V30 109 H 12.4327 1.58327 -0.610798 0
M  V30 110 H 11.2047 3.75714 -1.09337 0
M  V30 111 H 10.8277 3.92845 0.613066 0
M  V30 112 N 11.8248 0.280983 1.55075 0
M  V30 113 C 13.0708 -0.33461 2.00021 0
M  V30 114 C 13.4038 -1.55063 1.16915 0
M  V30 115 O 12.6788 -1.93006 0.240646 0
M  V30 116 C 12.9618 -0.711007 3.53011 0
M  V30 117 C 12.8148 0.512766 4.46868 0
M  V30 118 C 14.1338 -1.54522 4.12081 0
M  V30 119 H 11.2528 -0.120147 0.727141 0
M  V30 120 H 13.8948 0.389097 1.85973 0
M  V30 121 H 12.0448 -1.32761 3.65112 0
M  V30 122 H 13.7168 1.15131 4.46702 0
M  V30 123 H 11.9598 1.14975 4.18286 0
M  V30 124 H 12.6308 0.205556 5.51617 0
M  V30 125 H 15.1068 -1.02442 4.03293 0
M  V30 126 H 13.9828 -1.77739 5.19327 0
M  V30 127 H 14.2438 -2.52813 3.62682 0
M  V30 128 N 13.3029 -1.57598 0.00835791 0
M  V30 129 C 14.5309 -1.95214 -0.68549 0
M  V30 130 C 14.9459 -0.883706 -1.66841 0
M  V30 131 O 14.3029 0.136565 -1.81988 0
M  V30 132 C 14.3539 -3.32865 -1.41007 0
M  V30 133 O 14.0749 -4.35609 -0.466552 0
M  V30 134 C 15.5759 -3.84991 -2.19765 0
M  V30 135 H 12.7959 -0.643422 -0.190392 0
M  V30 136 H 15.3399 -2.04406 0.0619607 0
M  V30 137 H 13.4949 -3.24956 -2.10908 0
M  V30 138 H 13.9089 -5.15288 -0.978699 0
M  V30 139 H 15.3829 -4.8371 -2.65948 0
M  V30 140 H 15.8599 -3.18137 -3.02796 0
M  V30 141 H 16.4659 -3.96103 -1.54864 0
M  V30 142 N 14.781 0.264519 -1.55364 0
M  V30 143 C 16.009 1.013 -1.80405 0
M  V30 144 C 16.424 1.79618 -0.581622 0
M  V30 145 O 15.781 1.76879 0.449468 0
M  V30 146 C 15.832 1.96487 -3.03439 0
M  V30 147 O 15.553 1.21341 -4.20961 0
M  V30 148 C 17.054 2.83079 -3.41147 0
M  V30 149 H 14.274 0.298875 -0.600762 0
M  V30 150 H 16.818 0.292736 -2.02394 0
M  V30 151 H 14.973 2.63965 -2.83551 0
M  V30 152 H 15.387 1.85573 -4.90574 0
M  V30 153 H 16.861 3.4565 -4.30384 0
M  V30 154 H 17.338 3.53286 -2.60932 0
M  V30 155 H 17.944 2.2108 -3.63323 0
M  V30 156 N 16.2591 1.48442 0.529413 0
M  V30 157 C 17.2221 1.62524 1.61612 0
M  V30 158 C 18.2221 0.498509 1.52877 0
M  V30 159 O 19.4121 0.76431 1.56537 0
M  V30 160 C 16.5441 1.59597 3.01233 0
M  V30 161 H 17.7371 2.59423 1.50465 0
M  V30 162 H 15.2901 1.37047 0.751514 0
M  V30 163 H 16.0251 0.641781 3.17886 0
M  V30 164 H 15.8101 2.41397 3.08982 0
M  V30 165 H 17.3001 1.72646 3.80241 0
M  V30 166 N 17.7372 -0.778329 1.37039 0
M  V30 167 C 18.6872 -1.88142 1.28789 0
M  V30 168 C 19.6712 -1.59923 0.177063 0
M  V30 169 O 20.8632 -1.72165 0.410873 0
M  V30 170 C 17.9922 -3.25518 1.09055 0
M  V30 171 C 17.0782 -3.5971 2.24654 0
M  V30 172 N 17.4692 -3.65131 3.50018 0
M  V30 173 C 15.7672 -3.89837 2.16663 0
M  V30 174 C 16.4682 -3.95882 4.26207 0
M  V30 175 N 15.4442 -4.11441 3.55271 0
M  V30 176 H 19.2462 -1.90575 2.23737 0
M  V30 177 H 16.7602 -0.974435 1.29917 0
M  V30 178 H 18.7572 -4.04423 1.0123 0
M  V30 179 H 17.4172 -3.24353 0.15018 0
M  V30 180 H 18.4282 -3.475 3.84011 0
M  V30 181 H 15.1052 -3.96533 1.30645 0
M  V30 182 H 16.4952 -4.06907 5.34674 0
M  V30 183 N 19.2153 -1.21501 -1.00376 0
M  V30 184 C 20.4403 -1.05977 -1.78279 0
M  V30 185 C 20.8653 0.385994 -1.84097 0
M  V30 186 O 20.2233 1.27849 -1.28547 0
M  V30 187 C 20.2713 -1.66302 -3.19963 0
M  V30 188 O 19.3753 -0.909333 -4.0225 0
M  V30 189 H 18.7163 -0.372906 -0.549397 0
M  V30 190 H 21.2463 -1.6107 -1.26165 0
M  V30 191 H 21.2563 -1.70574 -3.70632 0
M  V30 192 H 19.9313 -2.71515 -3.15043 0
M  V30 193 H 18.5083 -0.941795 -3.60811 0
M  V30 194 N 20.6934 1.19889 -1.02296 0
M  V30 195 C 21.9704 1.85148 -0.630832 0
M  V30 196 C 22.3504 1.91385 0.890782 0
M  V30 197 O 21.6984 1.42642 1.78509 0
M  V30 198 C 21.9084 3.24442 -1.28602 0
M  V30 199 C 23.2564 4.00663 -1.4055 0
M  V30 200 O 24.2804 3.33818 -1.24273 0
M  V30 201 O 23.1394 5.20387 -1.66913 0
M  V30 202 H 20.2334 0.797613 -0.218499 0
M  V30 203 H 22.7794 1.27427 -1.12074 0
M  V30 204 H 21.5514 3.14704 -2.32545 0
M  V30 205 H 21.1744 3.89802 -0.7836 0
M  V30 206 N 22.1715 0.800033 1.35784 0
M  V30 207 C 23.4015 0.389041 2.02904 0
M  V30 208 C 23.8095 -1.0027 1.60445 0
M  V30 209 O 23.1525 -1.65633 0.794453 0
M  V30 210 C 23.2145 0.385495 3.57427 0
M  V30 211 C 22.8785 1.72662 4.23127 0
M  V30 212 C 23.8755 2.68385 4.4527 0
M  V30 213 C 21.5605 2.00883 4.60381 0
M  V30 214 C 23.5545 3.90517 5.03761 0
M  V30 215 C 21.2415 3.2328 5.18588 0
M  V30 216 C 22.2395 4.17915 5.40218 0
M  V30 217 O 21.9275 5.38153 5.97199 0
M  V30 218 H 21.6595 0.157032 0.657508 0
M  V30 219 H 24.2135 1.08311 1.74522 0
M  V30 220 H 22.4435 -0.365128 3.84972 0
M  V30 221 H 24.1325 -0.00228296 4.059 0
M  V30 222 H 24.8985 2.47872 4.16874 0
M  V30 223 H 20.7775 1.28037 4.42863 0
M  V30 224 H 24.3215 4.64395 5.2056 0
M  V30 225 H 20.2185 3.43667 5.4641 0
M  V30 226 H 20.9865 5.3936 6.15656 0
M  V30 227 N 23.6496 -1.47581 0.552962 0
M  V30 228 C 24.5596 -2.33743 -0.200353 0
M  V30 229 C 25.5756 -1.47928 -0.916151 0
M  V30 230 O 26.7516 -1.80865 -0.885993 0
M  V30 231 C 23.8166 -3.24536 -1.21973 0
M  V30 232 C 22.8776 -4.26238 -0.511819 0
M  V30 233 C 22.1106 -5.12693 -1.48263 0
M  V30 234 O 22.3336 -5.01525 -2.71714 0
M  V30 235 O 21.2676 -5.93375 -1.00945 0
M  V30 236 H 25.0936 -2.9945 0.506304 0
M  V30 237 H 22.6786 -1.46071 0.313622 0
M  V30 238 H 24.5606 -3.80631 -1.80827 0
M  V30 239 H 23.2356 -2.61462 -1.90839 0
M  V30 240 H 22.1426 -3.73914 0.117799 0
M  V30 241 H 23.4756 -4.92014 0.135308 0
M  V30 242 N 25.1277 -0.289203 -1.54924 0
M  V30 243 C 26.3767 0.324231 -1.99077 0
M  V30 244 C 26.6897 1.5591 -1.18117 0
M  V30 245 O 27.8957 2.24637 -1.52481 0
M  V30 246 C 26.3517 0.628209 -3.54375 0
M  V30 247 C 25.9597 -0.587647 -4.44129 0
M  V30 248 C 27.7037 1.20349 -4.07083 0
M  V30 249 C 25.6107 -0.257475 -5.90839 0
M  V30 250 H 24.5407 0.124924 -0.743579 0
M  V30 251 H 27.1917 -0.396063 -1.79175 0
M  V30 252 H 25.5737 1.40778 -3.70132 0
M  V30 253 H 26.7477 -1.36418 -4.40144 0
M  V30 254 H 25.0627 -1.08074 -4.0213 0
M  V30 255 H 27.6597 1.46456 -5.14252 0
M  V30 256 H 28.0027 2.14195 -3.56968 0
M  V30 257 H 28.5357 0.485889 -3.94821 0
M  V30 258 H 25.2747 -1.16419 -6.45079 0
M  V30 259 H 24.7947 0.482018 -5.9786 0
M  V30 260 H 26.4737 0.145238 -6.46837 0
M  V30 261 N 26.6058 1.57591 -0.0167156 0
M  V30 262 C 27.8518 1.91567 0.665582 0
M  V30 263 C 28.1848 0.892298 1.72487 0
M  V30 264 O 27.4598 -0.0867127 1.94307 0
M  V30 265 C 27.7428 3.36069 1.29342 0
M  V30 266 C 27.5958 4.49135 0.244541 0
M  V30 267 C 28.9148 3.803 2.21495 0
M  V30 268 H 26.0338 0.69666 0.240488 0
M  V30 269 H 28.6758 1.89866 -0.0714356 0
M  V30 270 H 26.8258 3.3765 1.92158 0
M  V30 271 H 28.4978 4.59689 -0.385228 0
M  V30 272 H 26.7408 4.3165 -0.431379 0
M  V30 273 H 27.4118 5.47242 0.723207 0
M  V30 274 H 29.8878 3.80377 1.68678 0
M  V30 275 H 28.7638 4.82127 2.62382 0
M  V30 276 H 29.0248 3.15104 3.101 0
M  V30 277 N 28.0839 -0.256276 1.55502 0
M  V30 278 C 29.0139 -1.32102 1.92539 0
M  V30 279 C 29.9949 -1.50684 0.789194 0
M  V30 280 O 31.1799 -1.63449 1.04872 0
M  V30 281 C 28.3099 -2.67752 2.21192 0
M  V30 282 C 27.2639 -2.63878 3.36975 0
M  V30 283 C 26.5899 -4.03236 3.51147 0
M  V30 284 C 27.8899 -2.21682 4.72921 0
M  V30 285 H 29.5839 -1.01351 2.81724 0
M  V30 286 H 27.1299 -0.486105 1.35547 0
M  V30 287 H 29.0829 -3.42365 2.45691 0
M  V30 288 H 27.8069 -3.0012 1.28824 0
M  V30 289 H 26.4659 -1.91722 3.12471 0
M  V30 290 H 26.1139 -4.32854 2.56216 0
M  V30 291 H 25.8139 -4.01535 4.29003 0
M  V30 292 H 27.3379 -4.79563 3.77957 0
M  V30 293 H 28.7519 -2.86023 4.96854 0
M  V30 294 H 27.1489 -2.3111 5.53812 0
M  V30 295 H 28.2189 -1.16833 4.70615 0
M  V30 296 N 29.562 -1.4872 -0.521534 0
M  V30 297 C 30.472 -1.66569 -1.65203 0
M  V30 298 C 31.488 -0.548197 -1.65139 0
M  V30 299 O 32.664 -0.820339 -1.83936 0
M  V30 300 C 29.729 -1.70917 -3.01642 0
M  V30 301 C 28.79 -2.94356 -3.12495 0
M  V30 302 C 28.023 -2.98487 -4.42426 0
M  V30 303 O 28.246 -2.10786 -5.30024 0
M  V30 304 O 27.18 -3.90746 -4.57822 0
M  V30 305 H 31.006 -2.62298 -1.5308 0
M  V30 306 H 28.591 -1.3222 -0.695565 0
M  V30 307 H 30.473 -1.7625 -3.82771 0
M  V30 308 H 29.148 -0.783633 -3.14071 0
M  V30 309 H 28.055 -2.94552 -2.3063 0
M  V30 310 H 29.388 -3.86322 -3.04986 0
M  V30 311 N 31.0401 0.771051 -1.3745 0
M  V30 312 C 32.2881 1.52661 -1.32435 0
M  V30 313 C 32.6091 1.9479 0.0905024 0
M  V30 314 O 31.8791 1.66348 1.03466 0
M  V30 315 H 30.4591 0.566218 -0.487244 0
M  V30 316 H 33.1211 0.917636 -1.71946 0
M  V30 317 H 32.2171 2.42568 -1.96385 0
M  V30 318 N 32.5182 1.22032 0.997298 0
M  V30 319 C 33.7662 1.04016 1.73278 0
M  V30 320 C 34.0872 -0.426255 1.90284 0
M  V30 321 O 33.3572 -1.30694 1.45931 0
M  V30 322 H 31.9372 0.381897 0.642 0
M  V30 323 H 34.5992 1.5347 1.20137 0
M  V30 324 H 33.6952 1.51441 2.72896 0
M  V30 325 N 33.9963 -1.19345 1.0293 0
M  V30 326 C 35.2213 -1.93538 0.745511 0
M  V30 327 C 35.6463 -1.75007 -0.689511 0
M  V30 328 O 35.0043 -1.05265 -1.47611 0
M  V30 329 C 35.0523 -3.43336 1.10239 0
M  V30 330 O 34.1563 -4.11806 0.221289 0
M  V30 331 H 33.4973 -0.604193 0.275404 0
M  V30 332 H 36.0273 -1.5141 1.37609 0
M  V30 333 H 36.0373 -3.94004 1.05947 0
M  V30 334 H 34.7123 -3.56146 2.14786 0
M  V30 335 H 33.2893 -3.715 0.322842 0
M  V30 336 N 35.4744 -0.807222 -1.35358 0
M  V30 337 C 36.6994 -0.399309 -2.0352 0
M  V30 338 C 37.1244 0.981986 -1.60433 0
M  V30 339 O 36.4824 1.63601 -0.781299 0
M  V30 340 C 36.5304 -0.491552 -3.57234 0
M  V30 341 O 35.6344 0.494754 -4.09421 0
M  V30 342 H 34.9754 -0.166682 -0.642739 0
M  V30 343 H 37.5054 -1.09328 -1.72941 0
M  V30 344 H 37.5154 -0.361588 -4.06395 0
M  V30 345 H 36.1904 -1.49907 -3.87944 0
M  V30 346 H 34.7674 0.324977 -3.71481 0
M  V30 347 N 36.9525 1.47285 -0.560781 0
M  V30 348 C 38.1775 2.07359 -0.0410566 0
M  V30 349 C 38.6025 1.41017 1.24483 0
M  V30 350 O 37.9605 0.486368 1.74654 0
M  V30 351 C 38.0085 3.6035 0.134123 0
M  V30 352 O 37.1125 3.94681 1.19587 0
M  V30 353 H 36.4535 0.661887 -0.0529291 0
M  V30 354 H 38.9835 1.89252 -0.777482 0
M  V30 355 H 38.9935 4.0652 0.347207 0
M  V30 356 H 37.6685 4.08034 -0.805047 0
M  V30 357 H 36.2455 3.60251 0.962987 0
M  V30 358 N 38.4306 0.297415 1.54768 0
M  V30 359 C 39.6766 -0.306263 2.01081 0
M  V30 360 C 40.0316 -1.518 1.18214 0
M  V30 361 O 39.3246 -1.89967 0.249613 0
M  V30 362 C 39.5186 -0.717561 3.50123 0
M  V30 363 C 39.3476 0.45277 4.47415 0
M  V30 364 C 38.1176 0.943651 4.9641 0
M  V30 365 C 40.3156 1.29657 4.97688 0
M  V30 366 N 38.2976 2.08112 5.77549 0
M  V30 367 C 39.6686 2.28158 5.76493 0
M  V30 368 C 41.7236 1.32735 4.79881 0
M  V30 369 C 40.4266 3.29509 6.39387 0
M  V30 370 C 42.4526 2.32943 5.43591 0
M  V30 371 C 41.8146 3.30174 6.22225 0
M  V30 372 H 37.9136 -0.0766274 0.778237 0
M  V30 373 H 40.4976 0.426515 1.89971 0
M  V30 374 H 38.6686 -1.41952 3.6153 0
M  V30 375 H 40.4006 -1.30047 3.83236 0
M  V30 376 H 37.1556 0.51922 4.70745 0
M  V30 377 H 37.5796 2.65414 6.22803 0
M  V30 378 H 42.2216 0.589375 4.18672 0
M  V30 379 H 39.9396 4.04228 6.99732 0
M  V30 380 H 43.5256 2.36094 5.31743 0
M  V30 381 H 42.4056 4.06445 6.7065 0
M  V30 382 N 39.9087 -1.5758 0.0250728 0
M  V30 383 C 41.1567 -1.91255 -0.653151 0
M  V30 384 C 41.4777 -0.901691 -1.729 0
M  V30 385 O 40.7477 0.0573785 -1.95816 0
M  V30 386 H 39.3277 -0.705942 -0.244243 0
M  V30 387 H 41.9897 -1.94767 0.0719209 0
M  V30 388 H 41.0857 -2.91752 -1.10847 0
M  V30 389 N 41.3868 0.248026 -1.55636 0
M  V30 390 C 42.3338 1.30707 -1.90222 0
M  V30 391 C 43.3038 1.47881 -0.756332 0
M  V30 392 O 44.4888 1.61883 -1.00988 0
M  V30 393 C 41.6288 2.65769 -2.20138 0
M  V30 394 C 40.7418 2.56612 -3.47526 0
M  V30 395 C 39.8768 3.8402 -3.67017 0
M  V30 396 C 38.9158 3.69476 -4.8801 0
M  V30 397 N 38.0528 4.88774 -5.04029 0
M  V30 398 H 42.8928 1.00512 -2.80538 0
M  V30 399 H 40.4298 0.485055 -1.38873 0
M  V30 400 H 42.3878 3.44386 -2.35487 0
M  V30 401 H 41.0178 2.94115 -1.33027 0
M  V30 402 H 40.0698 1.69571 -3.40514 0
M  V30 403 H 41.3818 2.41774 -4.36287 0
M  V30 404 H 40.5358 4.7108 -3.8232 0
M  V30 405 H 39.2748 4.01754 -2.76487 0
M  V30 406 H 38.2798 2.80799 -4.72686 0
M  V30 407 H 39.5048 3.53238 -5.8 0
M  V30 408 H 37.4508 5.0687 -4.16435 0
M  V30 409 H 37.3678 4.76562 -5.86877 0
M  V30 410 H 38.6358 5.77335 -5.23741 0
M  V30 411 N 42.8649 1.48995 0.513639 0
M  V30 412 C 44.1109 1.58076 1.27042 0
M  V30 413 C 44.4439 0.261026 1.92438 0
M  V30 414 O 43.7189 -0.734393 1.80103 0
M  V30 415 C 44.0019 2.73091 2.34719 0
M  V30 416 C 43.8549 4.14821 1.73907 0
M  V30 417 C 45.1739 2.83796 3.36375 0
M  V30 418 H 42.2929 0.575391 0.460536 0
M  V30 419 H 44.9349 1.81232 0.570516 0
M  V30 420 H 43.0849 2.53479 2.94416 0
M  V30 421 H 44.7569 4.45917 1.18135 0
M  V30 422 H 42.9999 4.21058 1.0437 0
M  V30 423 H 43.6709 4.91147 2.51949 0
M  V30 424 H 46.1469 3.01611 2.86653 0
M  V30 425 H 45.0229 3.65971 4.09093 0
M  V30 426 H 45.2839 1.92624 3.9793 0
M  V30 427 N 44.343 -0.763751 1.37857 0
M  V30 428 C 45.29 -1.87726 1.34267 0
M  V30 429 C 46.26 -1.64807 0.206879 0
M  V30 430 O 47.445 -1.86613 0.397508 0
M  V30 431 C 44.585 -3.24896 1.16346 0
M  V30 432 C 43.698 -3.59716 2.39225 0
M  V30 433 C 42.833 -4.86137 2.14114 0
M  V30 434 C 41.872 -5.13711 3.32817 0
M  V30 435 N 41.009 -6.31323 3.07206 0
M  V30 436 H 45.849 -1.90129 2.29466 0
M  V30 437 H 43.386 -0.929433 1.14017 0
M  V30 438 H 45.344 -4.04036 1.03975 0
M  V30 439 H 43.974 -3.21847 0.247909 0
M  V30 440 H 43.026 -2.75498 2.62307 0
M  V30 441 H 44.338 -3.76027 3.27728 0
M  V30 442 H 43.492 -5.73198 1.9882 0
M  V30 443 H 42.231 -4.71945 1.22961 0
M  V30 444 H 41.236 -4.25123 3.48641 0
M  V30 445 H 42.461 -5.29807 4.24832 0
M  V30 446 H 40.407 -6.18474 2.1869 0
M  V30 447 H 40.324 -6.48087 3.89254 0
M  V30 448 H 41.592 -7.213 2.95546 0
M  V30 449 N 45.8211 -1.22559 -0.990812 0
M  V30 450 C 46.7841 -0.998863 -2.0629 0
M  V30 451 C 47.7841 0.0354834 -1.60761 0
M  V30 452 O 48.9741 -0.203231 -1.7301 0
M  V30 453 C 46.1061 -0.509203 -3.37076 0
M  V30 454 H 47.2991 -1.95014 -2.27837 0
M  V30 455 H 44.8521 -1.04456 -1.16269 0
M  V30 456 H 45.5871 0.446335 -3.21214 0
M  V30 457 H 45.3721 -1.25547 -3.71457 0
M  V30 458 H 46.8621 -0.370888 -4.1595 0
M  V30 459 N 47.2992 1.18797 -1.03562 0
M  V30 460 C 48.7152 1.40671 -0.753917 0
M  V30 461 C 48.9152 1.9043 0.658686 0
M  V30 462 O 47.9712 2.08538 1.42366 0
M  V30 463 C 49.2842 2.41192 -1.79574 0
M  V30 464 C 50.8322 2.54928 -1.81606 0
M  V30 465 C 51.3072 3.58709 -2.84766 0
M  V30 466 N 52.7982 3.66212 -2.83625 0
M  V30 467 C 53.5332 4.46225 -3.60098 0
M  V30 468 N 53.0292 5.29888 -4.46308 0
M  V30 469 N 54.8222 4.40939 -3.4861 0
M  V30 470 H 46.9732 0.848221 -1.94728 0
M  V30 471 H 49.2362 0.435081 -0.842264 0
M  V30 472 H 48.9422 2.11669 -2.80872 0
M  V30 473 H 48.8162 3.40467 -1.62365 0
M  V30 474 H 51.2032 2.83771 -0.809817 0
M  V30 475 H 51.2842 1.55784 -2.02891 0
M  V30 476 H 50.9282 3.30607 -3.85566 0
M  V30 477 H 50.8582 4.57519 -2.60737 0
M  V30 478 H 53.3492 3.06466 -2.21105 0
M  V30 479 H 53.6622 5.88078 -5.01382 0
M  V30 480 H 52.0072 5.29326 -4.50377 0
M  V30 481 H 55.1982 3.74624 -2.80668 0
M  V30 482 H 55.3712 5.03056 -4.08459 0
M  V30 483 N 48.7773 0.814389 1.34928 0
M  V30 484 C 49.7403 0.235759 2.27984 0
M  V30 485 C 50.7403 -0.581412 1.49921 0
M  V30 486 O 51.9303 -0.398758 1.69575 0
M  V30 487 C 49.0623 -0.670433 3.34242 0
M  V30 488 H 50.2553 1.05659 2.80671 0
M  V30 489 H 47.8083 0.585614 1.44915 0
M  V30 490 H 48.5433 -1.51466 2.86755 0
M  V30 491 H 48.3283 -0.0860822 3.92005 0
M  V30 492 H 49.8183 -1.06935 4.03676 0
M  V30 493 N 50.2554 -1.46986 0.568584 0
M  V30 494 C 51.2024 -2.30153 -0.172707 0
M  V30 495 C 52.1724 -1.39759 -0.897586 0
M  V30 496 O 53.3574 -1.68716 -0.891044 0
M  V30 497 C 50.4974 -3.23952 -1.1895 0
M  V30 498 C 49.6104 -4.29441 -0.469517 0
M  V30 499 C 48.7454 -5.1038 -1.47259 0
M  V30 500 C 47.7844 -6.07632 -0.738225 0
M  V30 501 N 46.9214 -6.8149 -1.68868 0
M  V30 502 H 51.7614 -2.93019 0.542596 0
M  V30 503 H 49.2984 -1.44422 0.279401 0
M  V30 504 H 51.2564 -3.76767 -1.79173 0
M  V30 505 H 49.8864 -2.62926 -1.87269 0
M  V30 506 H 48.9384 -3.79594 0.247467 0
M  V30 507 H 50.2504 -4.98689 0.105241 0
M  V30 508 H 49.4044 -5.67402 -2.14803 0
M  V30 509 H 48.1434 -4.4106 -2.08128 0
M  V30 510 H 47.1484 -5.49778 -0.0489293 0
M  V30 511 H 48.3734 -6.78966 -0.135129 0
M  V30 512 H 46.3194 -6.14891 -2.28573 0
M  V30 513 H 46.2364 -7.46948 -1.16636 0
M  V30 514 H 47.5044 -7.43078 -2.3549 0
M  V30 515 N 51.7335 -0.305618 -1.54608 0
M  V30 516 C 52.9795 0.302746 -2.00528 0
M  V30 517 C 53.3125 1.53184 -1.19367 0
M  V30 518 O 52.5875 1.92598 -0.271321 0
M  V30 519 C 52.8705 0.654756 -3.54097 0
M  V30 520 C 52.7235 -0.583793 -4.45995 0
M  V30 521 C 54.0425 1.47947 -4.14487 0
M  V30 522 H 51.1615 0.108564 -0.72896 0
M  V30 523 H 53.8035 -0.418634 -1.85331 0
M  V30 524 H 51.9535 1.26935 -3.67178 0
M  V30 525 H 53.6255 -1.22224 -4.44814 0
M  V30 526 H 51.8685 -1.21615 -4.16404 0
M  V30 527 H 52.5395 -0.293287 -5.5122 0
M  V30 528 H 55.0155 0.96013 -4.04871 0
M  V30 529 H 53.8915 1.69454 -5.22088 0
M  V30 530 H 54.1525 2.47011 -3.66658 0
M  V30 531 N 53.2116 1.57565 -0.0334293 0
M  V30 532 C 54.1596 2.1164 0.96496 0
M  V30 533 C 55.1536 1.04398 1.33407 0
M  V30 534 O 56.3596 1.22828 1.3158 0
M  V30 535 H 52.7346 0.676222 0.32898 0
M  V30 536 H 54.7056 2.94455 0.483614 0
M  V30 537 C 53.4546 2.66207 2.23672 0
M  V30 538 H 52.7776 3.48378 1.96145 0
M  V30 539 H 54.2176 3.07685 2.9173 0
M  V30 540 C 52.6766 1.59151 2.96939 0
M  V30 541 O 53.2066 0.993858 3.89211 0
M  V30 542 N 51.4126 1.31093 2.59351 0
M  V30 543 H 50.9596 1.7988 1.84393 0
M  V30 544 H 50.9176 0.596889 3.08682 0
M  V30 545 N 54.6897 -0.239769 1.55765 0
M  V30 546 C 55.6527 -1.28038 1.90103 0
M  V30 547 C 56.6527 -1.40723 0.778055 0
M  V30 548 O 57.8427 -1.39301 1.04599 0
M  V30 549 C 54.9747 -2.65702 2.13577 0
M  V30 550 H 56.1677 -0.988048 2.83157 0
M  V30 551 H 53.7207 -0.479382 1.48767 0
M  V30 552 H 54.4557 -3.00063 1.23015 0
M  V30 553 H 54.2407 -2.57875 2.95369 0
M  V30 554 H 55.7307 -3.40828 2.41301 0
M  V30 555 N 56.1678 -1.49265 -0.50573 0
M  V30 556 C 57.5788 -1.51769 -1.08734 0
M  V30 557 C 57.9298 -0.301192 -1.93874 0
M  V30 558 O 57.0548 0.589456 -2.08217 0
M  V30 559 C 57.6498 -2.75017 -1.97867 0
M  V30 560 C 56.2088 -2.80314 -2.51199 0
M  V30 561 C 55.3558 -2.4562 -1.28709 0
M  V30 562 H 58.3068 -1.56031 -0.289855 0
M  V30 563 H 58.3278 -2.5491 -2.82491 0
M  V30 564 H 57.8398 -3.63539 -1.35873 0
M  V30 565 H 55.9408 -1.96061 -3.16845 0
M  V30 566 H 56.0538 -3.82366 -2.88675 0
M  V30 567 H 54.4178 -1.97297 -1.61078 0
M  V30 568 H 55.2008 -3.36411 -0.6843 0
M  V30 569 N 57.6459 0.756429 -1.3826 0
M  V30 570 C 59.0569 1.33359 -1.30661 0
M  V30 571 C 59.4079 1.96161 0.0388875 0
M  V30 572 O 58.5329 1.94874 0.940918 0
M  V30 573 C 59.1279 2.42477 -2.36622 0
M  V30 574 C 57.6869 2.95922 -2.3261 0
M  V30 575 C 56.8339 1.69275 -2.19639 0
M  V30 576 H 59.7849 0.55552 -1.4866 0
M  V30 577 H 59.8059 3.22345 -2.02174 0
M  V30 578 H 59.3179 1.96739 -3.34538 0
M  V30 579 H 57.4189 3.45996 -1.38267 0
M  V30 580 H 57.5319 3.50494 -3.26636 0
M  V30 581 H 55.8959 1.92793 -1.66442 0
M  V30 582 H 56.6789 1.25619 -3.19491 0
M  V30 583 N 59.124 1.23083 0.984299 0
M  V30 584 C 60.087 1.00979 2.05757 0
M  V30 585 C 61.087 -0.0269573 1.60777 0
M  V30 586 O 62.277 0.212403 1.729 0
M  V30 587 C 59.409 0.527072 3.36801 0
M  V30 588 H 60.602 1.9622 2.26799 0
M  V30 589 H 58.155 1.05072 1.15714 0
M  V30 590 H 58.89 -0.429294 3.21446 0
M  V30 591 H 58.675 1.27515 3.70786 0
M  V30 592 H 60.165 0.392942 4.15747 0
M  V30 593 N 60.6021 -1.18246 1.0419 0
M  V30 594 C 61.8271 -1.92736 0.765996 0
M  V30 595 C 62.2521 -1.75728 -0.67091 0
M  V30 596 O 61.6101 -1.06825 -1.46486 0
M  V30 597 C 61.6581 -3.42148 1.13875 0
M  V30 598 O 60.7621 -4.11548 0.264954 0
M  V30 599 H 60.1031 -0.601238 0.281797 0
M  V30 600 H 62.6331 -1.49942 1.39207 0
M  V30 601 H 62.6431 -3.92858 1.1012 0
M  V30 602 H 61.3181 -3.53848 2.18551 0
M  V30 603 H 59.8951 -3.71137 0.362226 0
M  V30 604 N 62.0802 -0.821533 -1.34494 0
M  V30 605 C 63.4912 -0.467956 -1.8074 0
M  V30 606 C 63.8422 1.01151 -1.68116 0
M  V30 607 O 62.9672 1.78707 -1.22036 0
M  V30 608 C 63.5622 -0.842627 -3.28154 0
M  V30 609 C 62.1212 -0.541439 -3.72485 0
M  V30 610 C 61.2682 -1.06028 -2.56229 0
M  V30 611 H 64.2192 -1.01183 -1.22261 0
M  V30 612 H 64.2402 -0.145876 -3.8022 0
M  V30 613 H 63.7522 -1.91945 -3.37311 0
M  V30 614 H 61.8532 0.526034 -3.68868 0
M  V30 615 H 61.9662 -1.08453 -4.66663 0
M  V30 616 H 60.3302 -0.481892 -2.501 0
M  V30 617 H 61.1132 -2.14352 -2.68157 0
M  V30 618 N 63.5583 1.46682 -0.576371 0
M  V30 619 C 64.4883 2.33028 0.148397 0
M  V30 620 C 65.4693 1.44961 0.889956 0
M  V30 621 O 66.6543 1.73789 0.866662 0
M  V30 622 C 63.7843 3.27117 1.1667 0
M  V30 623 C 62.7383 4.24575 0.540386 0
M  V30 624 C 62.0643 5.08126 1.6647 0
M  V30 625 C 63.3643 5.19722 -0.518331 0
M  V30 626 H 65.0583 2.93875 -0.572509 0
M  V30 627 H 62.6043 1.41315 -0.276768 0
M  V30 628 H 64.5573 3.86374 1.68204 0
M  V30 629 H 63.2813 2.64364 1.9178 0
M  V30 630 H 61.9403 3.66571 0.0461769 0
M  V30 631 H 61.5883 4.41762 2.40531 0
M  V30 632 H 61.2883 5.74122 1.25131 0
M  V30 633 H 62.8123 5.70246 2.18293 0
M  V30 634 H 64.2263 5.73232 -0.0883058 0
M  V30 635 H 62.6233 5.94026 -0.851679 0
M  V30 636 H 63.6933 4.64037 -1.40703 0
M  V30 637 N 65.0364 0.313813 1.54444 0
M  V30 638 C 65.9664 -0.549454 2.26943 0
M  V30 639 C 66.9474 -1.12741 1.27372 0
M  V30 640 O 68.1324 -1.15436 1.56167 0
M  V30 641 C 65.2624 -1.71523 3.01989 0
M  V30 642 C 64.2164 -1.26703 4.08816 0
M  V30 643 C 63.5424 -2.51898 4.71647 0
M  V30 644 C 64.8424 -0.388962 5.2085 0
M  V30 645 H 66.5364 0.0552661 2.99349 0
M  V30 646 H 64.0824 0.0280207 1.43973 0
M  V30 647 H 66.0354 -2.32535 3.51433 0
M  V30 648 H 64.7594 -2.34639 2.27183 0
M  V30 649 H 63.4184 -0.679896 3.6024 0
M  V30 650 H 63.0664 -3.13356 3.93468 0
M  V30 651 H 62.7664 -2.22605 5.43802 0
M  V30 652 H 64.2904 -3.1369 5.23861 0
M  V30 653 H 65.7044 -0.905107 5.6611 0
M  V30 654 H 64.1014 -0.18924 5.99802 0
M  V30 655 H 65.1714 0.582699 4.81386 0
M  V30 656 N 66.5145 -1.57545 0.0417849 0
M  V30 657 C 67.9255 -1.80011 -0.495259 0
M  V30 658 C 68.2765 -0.953199 -1.71489 0
M  V30 659 O 67.4015 -0.167138 -2.15754 0
M  V30 660 C 67.9965 -3.26482 -0.905265 0
M  V30 661 C 66.5555 -3.499 -1.38734 0
M  V30 662 C 65.7025 -2.74979 -0.358056 0
M  V30 663 H 68.6535 -1.56425 0.267736 0
M  V30 664 H 68.6745 -3.36887 -1.76882 0
M  V30 665 H 68.1865 -3.88096 -0.017401 0
M  V30 666 H 66.2875 -2.93553 -2.29471 0
M  V30 667 H 66.4005 -4.58615 -1.38598 0
M  V30 668 H 64.7645 -2.40834 -0.828912 0
M  V30 669 H 65.5475 -3.39315 0.521561 0
M  V30 670 N 67.9926 0.231505 -1.5589 0
M  V30 671 C 68.9556 1.27028 -1.90779 0
M  V30 672 C 69.9556 1.40308 -0.785507 0
M  V30 673 O 71.1456 1.38744 -1.05336 0
M  V30 674 C 68.2776 2.64566 -2.14983 0
M  V30 675 H 69.4706 0.973017 -2.83677 0
M  V30 676 H 67.0236 0.471486 -1.49019 0
M  V30 677 H 67.7586 2.99406 -1.24604 0
M  V30 678 H 67.5436 2.56305 -2.96732 0
M  V30 679 H 69.0336 3.39543 -2.43105 0
M  V30 680 N 69.4707 1.49531 0.497807 0
M  V30 681 C 70.7477 1.49682 1.25915 0
M  V30 682 C 71.1277 0.226339 2.09883 0
M  V30 683 O 70.4757 -0.791189 2.14365 0
M  V30 684 C 70.6857 2.77755 2.11313 0
M  V30 685 C 72.0337 3.27371 2.70395 0
M  V30 686 O 73.0577 2.78894 2.21578 0
M  V30 687 O 71.9167 4.11808 3.59272 0
M  V30 688 H 69.0107 0.599228 0.56996 0
M  V30 689 H 71.5567 1.61798 0.511816 0
M  V30 690 H 70.3287 3.61713 1.49264 0
M  V30 691 H 69.9517 2.68515 2.93233 0
M  V30 692 N 70.9488 -0.749086 1.3866 0
M  V30 693 C 72.1888 -1.52112 1.36534 0
M  V30 694 C 72.5528 -1.91951 -0.0432316 0
M  V30 695 O 73.7538 -2.68132 -0.189396 0
M  V30 696 C 72.0248 -2.73704 2.29828 0
M  V30 697 S 73.5838 -3.63519 2.45763 0
M  V30 698 H 70.4018 -0.520482 0.484375 0
M  V30 699 H 73.0038 -0.878963 1.74627 0
M  V30 700 H 71.7078 -2.42552 3.31054 0
M  V30 701 H 71.2388 -3.4286 1.929 0
M  V30 702 H 73.2538 -4.66712 1.68505 0
M  V30 703 N 72.4269 -1.23603 -0.977757 0
M  V30 704 C 73.7039 -0.977897 -1.69401 0
M  V30 705 C 74.0839 0.502738 -2.05026 0
M  V30 706 O 73.4319 1.47459 -1.74551 0
M  V30 707 C 73.6419 -1.89077 -2.93345 0
M  V30 708 C 74.9899 -2.15579 -3.65802 0
M  V30 709 O 76.0139 -1.86648 -3.03383 0
M  V30 710 O 74.8729 -2.64658 -4.78141 0
M  V30 711 H 71.9669 -0.369025 -0.740101 0
M  V30 712 H 74.5129 -1.34657 -1.03274 0
M  V30 713 H 73.2849 -2.89158 -2.63634 0
M  V30 714 H 72.9079 -1.52463 -3.67207 0
M  V30 715 N 73.905 1.17692 -1.04816 0
M  V30 716 C 75.151 1.88137 -0.75711 0
M  V30 717 C 75.484 1.80604 0.713841 0
M  V30 718 O 74.759 1.21146 1.52164 0
M  V30 719 C 75.042 3.38318 -1.2334 0
M  V30 720 C 74.895 3.54622 -2.76701 0
M  V30 721 C 76.214 4.32214 -0.829415 0
M  V30 722 H 73.333 0.683163 -0.27651 0
M  V30 723 H 75.975 1.38424 -1.30149 0
M  V30 724 H 74.125 3.80787 -0.770286 0
M  V30 725 H 75.797 3.21194 -3.31107 0
M  V30 726 H 74.04 2.97026 -3.16161 0
M  V30 727 H 74.711 4.60028 -3.05088 0
M  V30 728 H 77.187 3.97565 -1.22805 0
M  V30 729 H 76.063 5.35838 -1.19033 0
M  V30 730 H 76.324 4.41294 0.266891 0
M  V30 731 N 75.3831 0.828654 1.34056 0
M  V30 732 C 76.3301 0.252567 2.29414 0
M  V30 733 C 77.3001 -0.62588 1.53857 0
M  V30 734 O 78.4851 -0.566312 1.82202 0
M  V30 735 C 75.6251 -0.574831 3.40279 0
M  V30 736 C 74.7381 0.326499 4.30764 0
M  V30 737 C 73.8731 -0.511016 5.28736 0
M  V30 738 C 72.9121 0.389342 6.1086 0
M  V30 739 N 72.0491 -0.409439 7.00905 0
M  V30 740 H 76.8891 1.07108 2.78086 0
M  V30 741 H 74.4261 0.539677 1.36843 0
M  V30 742 H 76.3841 -1.06992 4.03248 0
M  V30 743 H 75.0141 -1.35841 2.92826 0
M  V30 744 H 74.0661 0.939837 3.68607 0
M  V30 745 H 75.3781 1.01857 4.88289 0
M  V30 746 H 74.5321 -1.07035 5.97184 0
M  V30 747 H 73.2711 -1.23657 4.71763 0
M  V30 748 H 72.2761 0.960769 5.4134 0
M  V30 749 H 73.5011 1.1131 6.69916 0
M  V30 750 H 71.4471 -1.11856 6.46393 0
M  V30 751 H 71.3641 0.224126 7.55668 0
M  V30 752 H 72.6321 -0.951336 7.73673 0
M  V30 753 N 76.8612 -1.46375 0.584142 0
M  V30 754 C 77.7912 -2.33103 -0.136037 0
M  V30 755 C 78.7722 -1.45431 -0.882255 0
M  V30 756 O 79.9572 -1.74246 -0.857434 0
M  V30 757 C 77.0872 -3.27731 -1.14933 0
M  V30 758 C 76.0412 -4.24855 -0.517862 0
M  V30 759 C 75.3672 -5.09001 -1.63773 0
M  V30 760 C 76.6672 -5.19439 0.545886 0
M  V30 761 H 78.3612 -2.93568 0.588086 0
M  V30 762 H 75.9072 -1.41166 0.284259 0
M  V30 763 H 77.8602 -3.87261 -1.66153 0
M  V30 764 H 76.5842 -2.65377 -1.90375 0
M  V30 765 H 75.2432 -3.6659 -0.0267361 0
M  V30 766 H 74.8912 -4.43031 -2.38185 0
M  V30 767 H 74.5912 -5.74777 -1.22085 0
M  V30 768 H 76.1152 -5.71396 -2.15266 0
M  V30 769 H 77.5292 -5.73177 0.118704 0
M  V30 770 H 75.9262 -5.93566 0.88317 0
M  V30 771 H 76.9962 -4.63285 1.43162 0
M  V30 772 N 78.3393 -0.321999 -1.54275 0
M  V30 773 C 79.2873 0.560206 -2.25753 0
M  V30 774 C 80.2813 1.11984 -1.27106 0
M  V30 775 O 81.4873 1.06806 -1.44888 0
M  V30 776 H 77.8623 0.199304 -0.725108 0
M  V30 777 H 79.8333 -0.0649365 -2.98329 0
M  V30 778 C 78.5823 1.71023 -3.02731 0
M  V30 779 H 77.9053 1.28885 -3.78456 0
M  V30 780 H 79.3453 2.30314 -3.55993 0
M  V30 781 C 77.8043 2.62692 -2.10938 0
M  V30 782 O 78.3343 3.64364 -1.6912 0
M  V30 783 N 76.5403 2.30891 -1.76459 0
M  V30 784 H 76.0873 1.48253 -2.10663 0
M  V30 785 H 76.0453 2.92487 -1.1532 0
M  V30 786 N 79.8174 1.5752 -0.0501392 0
M  V30 787 C 81.0634 1.92936 0.624798 0
M  V30 788 C 81.3964 0.928685 1.70555 0
M  V30 789 O 80.6714 -0.0454779 1.94447 0
M  V30 790 C 80.9544 3.38737 1.22185 0
M  V30 791 C 80.8074 4.49552 0.149218 0
M  V30 792 C 82.1264 3.84913 2.13378 0
M  V30 793 H 79.2454 0.701604 0.225657 0
M  V30 794 H 81.8874 1.89671 -0.111693 0
M  V30 795 H 80.0374 3.4165 1.84953 0
M  V30 796 H 81.7094 4.58768 -0.482648 0
M  V30 797 H 79.9524 4.30638 -0.522841 0
M  V30 798 H 80.6234 5.48653 0.606966 0
M  V30 799 H 83.0994 3.8387 1.60572 0
M  V30 800 H 81.9754 4.87584 2.52097 0
M  V30 801 H 82.2364 3.21611 3.03346 0
M  V30 802 N 81.2955 -0.223234 1.56011 0
M  V30 803 C 82.2425 -1.27664 1.92277 0
M  V30 804 C 83.2125 -1.46659 0.779763 0
M  V30 805 O 84.3975 -1.60256 1.03551 0
M  V30 806 C 81.5375 -2.62234 2.24338 0
M  V30 807 C 80.6505 -2.51051 3.51564 0
M  V30 808 C 79.7855 -3.78133 3.7308 0
M  V30 809 C 78.8245 -3.61665 4.93827 0
M  V30 810 N 77.9615 -4.80693 5.11741 0
M  V30 811 H 82.8015 -0.960358 2.82101 0
M  V30 812 H 80.3385 -0.462901 1.39627 0
M  V30 813 H 82.2965 -3.40596 2.40936 0
M  V30 814 H 80.9265 -2.91961 1.3769 0
M  V30 815 H 79.9785 -1.64132 3.43169 0
M  V30 816 H 81.2905 -2.34803 4.40079 0
M  V30 817 H 80.4445 -4.64938 3.89766 0
M  V30 818 H 79.1835 -3.97304 2.82844 0
M  V30 819 H 78.1885 -2.73244 4.77093 0
M  V30 820 H 79.4135 -3.43966 5.85546 0
M  V30 821 H 77.3595 -5.00181 4.24446 0
M  V30 822 H 77.2765 -4.67165 5.94384 0
M  V30 823 H 78.5445 -5.6893 5.3286 0
M  V30 824 N 82.7736 -1.49793 -0.48987 0
M  V30 825 C 84.1846 -1.52914 -1.07118 0
M  V30 826 C 84.5356 -0.321738 -1.93544 0
M  V30 827 O 83.6606 0.567338 -2.08831 0
M  V30 828 C 84.2556 -2.771 -1.94938 0
M  V30 829 C 82.8146 -2.82963 -2.48212 0
M  V30 830 C 81.9616 -2.46972 -1.26096 0
M  V30 831 H 84.9126 -1.56329 -0.273289 0
M  V30 832 H 84.9336 -2.57892 -2.79771 0
M  V30 833 H 84.4456 -3.64959 -1.32009 0
M  V30 834 H 82.5466 -1.99411 -3.14748 0
M  V30 835 H 82.6596 -3.85406 -2.84603 0
M  V30 836 H 81.0236 -1.98994 -1.58976 0
M  V30 837 H 81.8066 -3.37118 -0.648581 0
M  V30 838 N 84.2517 0.741722 -1.39055 0
M  V30 839 C 85.1817 1.869 -1.39966 0
M  V30 840 C 86.1627 1.6804 -0.26392 0
M  V30 841 O 87.3477 1.88458 -0.468755 0
M  V30 842 C 84.4777 3.24572 -1.23574 0
M  V30 843 C 83.4317 3.58056 -2.34477 0
M  V30 844 C 82.7577 4.94593 -2.0318 0
M  V30 845 C 84.0577 3.61716 -3.76774 0
M  V30 846 H 85.7517 1.86395 -2.34302 0
M  V30 847 H 83.2977 0.895361 -1.1278 0
M  V30 848 H 85.2507 4.031 -1.22834 0
M  V30 849 H 83.9747 3.25587 -0.257045 0
M  V30 850 H 82.6337 2.81854 -2.34423 0
M  V30 851 H 82.2817 4.92181 -1.03765 0
M  V30 852 H 81.9817 5.17964 -2.77465 0
M  V30 853 H 83.5057 5.75486 -2.04079 0
M  V30 854 H 84.9197 4.30335 -3.78794 0
M  V30 855 H 83.3167 3.96603 -4.50362 0
M  V30 856 H 84.3867 2.61672 -4.08235 0
M  V30 857 N 85.7298 1.2412 0.971189 0
M  V30 858 C 87.0068 0.986867 1.6888 0
M  V30 859 C 87.3868 -0.491857 2.0529 0
M  V30 860 O 86.7348 -1.46531 1.75331 0
M  V30 861 C 86.9448 1.9063 2.92338 0
M  V30 862 C 88.2928 2.17515 3.64654 0
M  V30 863 O 89.3168 1.88254 3.02388 0
M  V30 864 O 88.1758 2.6719 4.7673 0
M  V30 865 H 85.2698 0.372944 0.738134 0
M  V30 866 H 87.8158 1.35203 1.02559 0
M  V30 867 H 86.5878 2.90552 2.62097 0
M  V30 868 H 86.2108 1.54408 3.66393 0
M  V30 869 N 87.2079 -1.17134 1.05439 0
M  V30 870 C 88.6189 -1.69084 0.791676 0
M  V30 871 C 88.9699 -1.83822 -0.685839 0
M  V30 872 O 88.0949 -1.52757 -1.53278 0
M  V30 873 C 88.6899 -3.07119 1.4305 0
M  V30 874 C 87.2489 -3.56225 1.21577 0
M  V30 875 C 86.3959 -2.32421 1.51247 0
M  V30 876 H 89.3469 -1.01617 1.219 0
M  V30 877 H 89.3679 -3.71087 0.84112 0
M  V30 878 H 88.8799 -2.9636 2.50584 0
M  V30 879 H 86.9809 -3.72257 0.159787 0
M  V30 880 H 87.0939 -4.38837 1.92246 0
M  V30 881 H 85.4579 -2.3701 0.932653 0
M  V30 882 H 86.2409 -2.24268 2.5992 0
M  V30 883 N 88.686 -0.835752 -1.33615 0
M  V30 884 C 89.649 -0.272 -2.2758 0
M  V30 885 C 90.649 0.557487 -1.50827 0
M  V30 886 O 91.839 0.37173 -1.70188 0
M  V30 887 C 88.971 0.617173 -3.35267 0
M  V30 888 H 90.164 -1.10111 -2.78954 0
M  V30 889 H 87.717 -0.608594 -1.43965 0
M  V30 890 H 88.452 1.46884 -2.89129 0
M  V30 891 H 88.237 0.0237066 -3.92093 0
M  V30 892 H 89.727 1.005 -4.05326 0
M  V30 893 N 90.1641 1.46063 -0.591896 0
M  V30 894 C 91.1111 2.30399 0.136069 0
M  V30 895 C 92.0811 1.41169 0.875238 0
M  V30 896 O 93.2661 1.70112 0.86409 0
M  V30 897 C 90.4061 3.25804 1.13781 0
M  V30 898 C 89.5191 4.30134 0.401137 0
M  V30 899 C 88.6541 5.12659 1.39121 0
M  V30 900 C 87.6931 6.0873 0.641462 0
M  V30 901 N 86.8301 6.8409 1.58004 0
M  V30 902 H 91.6701 2.92118 -0.589144 0
M  V30 903 H 89.2071 1.43959 -0.302342 0
M  V30 904 H 91.1651 3.79569 1.73156 0
M  V30 905 H 89.7951 2.65872 1.83062 0
M  V30 906 H 88.8471 3.79152 -0.307826 0
M  V30 907 H 90.1591 4.98458 -0.184565 0
M  V30 908 H 89.3131 5.70747 2.05749 0
M  V30 909 H 88.0521 4.44316 2.01084 0
M  V30 910 H 87.0571 5.49786 -0.0385419 0
M  V30 911 H 88.2821 6.79095 0.0270945 0
M  V30 912 H 86.2281 6.18449 2.18761 0
M  V30 913 H 86.1451 7.48709 1.04738 0
M  V30 914 H 87.4131 7.4673 2.23639 0
M  V30 915 N 91.6422 0.330177 1.54103 0
M  V30 916 C 92.8902 -0.269871 2.0029 0
M  V30 917 C 93.2112 -1.52133 1.21986 0
M  V30 918 O 92.4812 -1.93212 0.323438 0
M  V30 919 H 91.0612 -0.10271 0.739905 0
M  V30 920 H 93.7232 0.448249 1.89675 0
M  V30 921 H 92.8192 -0.52166 3.07709 0
M  V30 922 N 93.1203 -1.57491 0.0584922 0
M  V30 923 C 94.3673 -1.92978 -0.613648 0
M  V30 924 C 94.6953 -0.937461 -1.70417 0
M  V30 925 O 93.9503 0.049078 -1.95638 0
M  V30 926 C 94.2493 -3.3513 -1.24188 0
M  V30 927 C 93.9153 -4.50037 -0.278826 0
M  V30 928 C 92.5773 -4.81198 -0.0138447 0
M  V30 929 C 94.9293 -5.19807 0.380777 0
M  V30 930 C 92.2573 -5.79473 0.918052 0
M  V30 931 C 94.6093 -6.19079 1.30091 0
M  V30 932 C 93.2733 -6.48665 1.57449 0
M  V30 933 H 92.5433 -0.706157 -0.22455 0
M  V30 934 H 95.1903 -1.91082 0.126533 0
M  V30 935 H 93.4953 -3.33429 -2.05749 0
M  V30 936 H 95.1923 -3.59871 -1.769 0
M  V30 937 H 91.7823 -4.25726 -0.495539 0
M  V30 938 H 95.9663 -4.95939 0.189158 0
M  V30 939 H 91.2223 -6.00727 1.1374 0
M  V30 940 H 95.3963 -6.7225 1.81804 0
M  V30 941 H 93.0233 -7.24628 2.29822 0
M  V30 942 N 94.5984 0.214957 -1.56127 0
M  V30 943 C 95.8444 0.939762 -1.79712 0
M  V30 944 C 96.1774 1.83723 -0.629247 0
M  V30 945 O 95.4524 1.90925 0.371197 0
M  V30 946 C 95.7354 1.77306 -3.13424 0
M  V30 947 C 95.5884 0.90164 -4.40671 0
M  V30 948 C 96.9074 2.74956 -3.43638 0
M  V30 949 H 94.0264 0.340214 -0.653776 0
M  V30 950 H 96.6684 0.20824 -1.88855 0
M  V30 951 H 94.8184 2.39673 -3.0576 0
M  V30 952 H 96.4904 0.294206 -4.60361 0
M  V30 953 H 94.7334 0.207368 -4.33304 0
M  V30 954 H 95.4044 1.51923 -5.30682 0
M  V30 955 H 97.8804 2.22724 -3.51473 0
M  V30 956 H 96.7564 3.30358 -4.38355 0
M  V30 957 H 97.0174 3.53023 -2.66134 0
M  V30 958 N 96.0765 1.50051 0.48192 0
M  V30 959 C 97.4925 1.37237 0.814756 0
M  V30 960 C 97.6925 0.420109 1.97072 0
M  V30 961 O 96.7485 -0.141246 2.52105 0
M  V30 962 C 98.0615 2.78375 1.13701 0
M  V30 963 C 99.6095 2.87213 1.2441 0
M  V30 964 C 100.084 4.29161 1.59954 0
M  V30 965 N 101.575 4.32061 1.66967 0
M  V30 966 C 102.31 5.38879 1.95952 0
M  V30 967 N 101.806 6.55918 2.23031 0
M  V30 968 N 103.599 5.26312 1.97363 0
M  V30 969 H 95.7505 2.10546 -0.28005 0
M  V30 970 H 98.0135 0.945921 -0.0627454 0
M  V30 971 H 97.7195 3.49845 0.360787 0
M  V30 972 H 97.5935 3.14941 2.07586 0
M  V30 973 H 99.9805 2.15969 2.01101 0
M  V30 974 H 100.061 2.54204 0.285299 0
M  V30 975 H 99.7055 5.00938 0.838067 0
M  V30 976 H 99.6355 4.59648 2.56966 0
M  V30 977 H 102.126 3.47661 1.48123 0
M  V30 978 H 102.439 7.33139 2.44391 0
M  V30 979 H 100.784 6.59112 2.20447 0
M  V30 980 H 103.975 4.33876 1.75697 0
M  V30 981 H 104.148 6.09649 2.19618 0
M  V30 982 N 97.5546 -0.734337 1.39446 0
M  V30 983 C 98.8036 -1.48937 1.36017 0
M  V30 984 C 99.1166 -1.95557 -0.0409005 0
M  V30 985 O 100.323 -2.70779 -0.19778 0
M  V30 986 C 98.7786 -2.69125 2.38955 0
M  V30 987 C 98.3866 -2.29452 3.8478 0
M  V30 988 C 100.131 -3.46944 2.44603 0
M  V30 989 C 98.0376 -3.46366 4.79358 0
M  V30 990 H 96.9676 -0.559296 0.505672 0
M  V30 991 H 99.6186 -0.800983 1.65095 0
M  V30 992 H 98.0006 -3.40041 2.02948 0
M  V30 993 H 99.1746 -1.66077 4.29831 0
M  V30 994 H 97.4896 -1.64723 3.82433 0
M  V30 995 H 100.087 -4.33907 3.12456 0
M  V30 996 H 100.43 -3.89454 1.47076 0
M  V30 997 H 100.963 -2.83056 2.79507 0
M  V30 998 H 97.7016 -3.08905 5.78151 0
M  V30 999 H 97.2216 -4.08719 4.38986 0
M  V30 1000 H 98.9006 -4.12691 4.98292 0
M  V30 1001 N 99.0327 -1.24633 -0.964593 0
M  V30 1002 C 100.258 -1.11596 -1.74818 0
M  V30 1003 C 100.683 0.32723 -1.85232 0
M  V30 1004 O 100.041 1.23695 -1.32549 0
M  V30 1005 C 100.089 -1.76397 -3.1451 0
M  V30 1006 O 99.1927 -1.03685 -3.99153 0
M  V30 1007 H 98.5337 -0.390196 -0.537255 0
M  V30 1008 H 101.064 -1.65002 -1.20977 0
M  V30 1009 H 101.074 -1.8228 -3.65018 0
M  V30 1010 H 99.7487 -2.81401 -3.06246 0
M  V30 1011 H 98.3257 -1.05611 -3.57632 0
M  V30 1012 N 100.511 1.16574 -1.06058 0
M  V30 1013 C 101.474 2.19085 -0.673392 0
M  V30 1014 C 102.474 1.5835 0.279648 0
M  V30 1015 O 103.664 1.74088 0.0623488 0
M  V30 1016 C 100.796 3.40899 0.00954234 0
M  V30 1017 H 101.989 2.54853 -1.58081 0
M  V30 1018 H 99.5418 1.30808 -0.855516 0
M  V30 1019 H 100.277 3.10684 0.929826 0
M  V30 1020 H 100.062 3.86233 -0.67573 0
M  V30 1021 H 101.552 4.1675 0.266245 0
M  V30 1022 N 101.989 0.842826 1.3317 0
M  V30 1023 C 103.235 0.441099 1.97945 0
M  V30 1024 C 103.568 -0.998024 1.66593 0
M  V30 1025 O 102.843 -1.69839 0.947898 0
M  V30 1026 C 103.126 0.666841 3.53872 0
M  V30 1027 C 102.979 2.15352 3.94897 0
M  V30 1028 C 104.298 0.115544 4.39948 0
M  V30 1029 H 101.417 0.161739 0.719034 0
M  V30 1030 H 104.059 1.05907 1.57746 0
M  V30 1031 H 102.209 0.140828 3.88245 0
M  V30 1032 H 103.881 2.7447 3.70761 0
M  V30 1033 H 102.124 2.63653 3.44484 0
M  V30 1034 H 102.795 2.26221 5.03516 0
M  V30 1035 H 105.271 0.565213 4.12243 0
M  V30 1036 H 104.147 0.303152 5.48062 0
M  V30 1037 H 104.408 -0.980935 4.3108 0
M  V30 1038 N 103.467 -1.45747 0.599634 0
M  V30 1039 C 104.714 -2.02292 0.0917284 0
M  V30 1040 C 105.042 -1.46906 -1.27472 0
M  V30 1041 O 104.297 -0.630652 -1.8526 0
M  V30 1042 C 104.596 -3.57399 -0.00602758 0
M  V30 1043 C 104.262 -4.31902 1.29503 0
M  V30 1044 C 102.924 -4.51974 1.65144 0
M  V30 1045 C 105.276 -4.74551 2.15525 0
M  V30 1046 C 102.604 -5.11949 2.86574 0
M  V30 1047 C 104.956 -5.35868 3.36196 0
M  V30 1048 C 103.62 -5.54165 3.72099 0
M  V30 1049 H 102.89 -0.740239 0.0335658 0
M  V30 1050 H 105.537 -1.7491 0.779661 0
M  V30 1051 H 103.842 -3.84014 -0.777183 0
M  V30 1052 H 105.539 -3.98846 -0.415038 0
M  V30 1053 H 102.129 -4.16588 1.00761 0
M  V30 1054 H 106.313 -4.58784 1.8929 0
M  V30 1055 H 101.569 -5.24305 3.14507 0
M  V30 1056 H 105.743 -5.6787 4.03109 0
M  V30 1057 H 103.37 -6.00406 4.6628 0
M  V30 1058 N 104.945 -0.338344 -1.53925 0
M  V30 1059 C 105.855 0.529421 -2.28548 0
M  V30 1060 C 106.871 1.11645 -1.3346 0
M  V30 1061 O 108.047 1.13325 -1.66492 0
M  V30 1062 C 105.112 1.66713 -3.03987 0
M  V30 1063 C 104.173 1.11041 -4.14691 0
M  V30 1064 C 103.406 2.19389 -4.86522 0
M  V30 1065 O 103.629 3.40013 -4.57982 0
M  V30 1066 O 102.563 1.83976 -5.73094 0
M  V30 1067 H 106.389 -0.0770399 -3.03602 0
M  V30 1068 H 103.974 -0.103555 -1.49041 0
M  V30 1069 H 105.856 2.32918 -3.5118 0
M  V30 1070 H 104.531 2.25949 -2.31794 0
M  V30 1071 H 103.438 0.413024 -3.71813 0
M  V30 1072 H 104.771 0.562975 -4.8897 0
M  V30 1073 N 106.423 1.57458 -0.0668435 0
M  V30 1074 C 107.648 1.9804 0.616027 0
M  V30 1075 C 108.073 0.944771 1.62652 0
M  V30 1076 O 107.431 -0.0902094 1.81075 0
M  V30 1077 C 107.479 3.37665 1.26549 0
M  V30 1078 O 106.583 3.36701 2.38131 0
M  V30 1079 H 105.924 0.644719 0.158849 0
M  V30 1080 H 108.454 2.04121 -0.139891 0
M  V30 1081 H 108.464 3.7474 1.6135 0
M  V30 1082 H 107.139 4.12573 0.525016 0
M  V30 1083 H 105.716 3.1139 2.0516 0
M  V30 1084 N 107.901 -0.206675 1.56239 0
M  V30 1085 C 109.15 -0.926964 1.79138 0
M  V30 1086 C 109.463 -1.84901 0.638043 0
M  V30 1087 O 110.669 -2.60906 0.751033 0
M  V30 1088 C 109.125 -1.6986 3.17294 0
M  V30 1089 C 108.733 -0.821956 4.40395 0
M  V30 1090 C 110.477 -2.40922 3.4951 0
M  V30 1091 C 108.384 -1.59179 5.69575 0
M  V30 1092 H 107.314 -0.349864 0.667915 0
M  V30 1093 H 109.965 -0.180487 1.8261 0
M  V30 1094 H 108.347 -2.48853 3.08039 0
M  V30 1095 H 109.521 -0.0715019 4.60745 0
M  V30 1096 H 107.836 -0.222741 4.15804 0
M  V30 1097 H 110.433 -2.99047 4.43255 0
M  V30 1098 H 110.776 -3.14542 2.72707 0
M  V30 1099 H 111.309 -1.68905 3.60161 0
M  V30 1100 H 108.048 -0.898589 6.49312 0
M  V30 1101 H 107.568 -2.31648 5.53262 0
M  V30 1102 H 109.247 -2.14862 6.10281 0
M  V30 1103 N 109.379 -1.50304 -0.473955 0
M  V30 1104 C 110.625 -1.61389 -1.22806 0
M  V30 1105 C 110.958 -0.311955 -1.91678 0
M  V30 1106 O 110.233 0.686384 -1.81986 0
M  V30 1107 C 110.516 -2.79219 -2.27396 0
M  V30 1108 C 110.369 -4.19286 -1.62848 0
M  V30 1109 C 111.688 -2.92614 -3.28732 0
M  V30 1110 H 108.807 -0.587399 -0.445119 0
M  V30 1111 H 111.449 -1.82681 -0.522265 0
M  V30 1112 H 109.599 -2.61195 -2.87592 0
M  V30 1113 H 111.271 -4.48892 -1.06271 0
M  V30 1114 H 109.514 -4.23677 -0.931693 0
M  V30 1115 H 110.185 -4.97655 -2.38838 0
M  V30 1116 H 112.661 -3.09105 -2.78556 0
M  V30 1117 H 111.537 -3.76688 -3.99246 0
M  V30 1118 H 111.798 -2.03107 -3.92683 0
M  V30 1119 N 110.857 0.726932 -1.39834 0
M  V30 1120 C 112.134 1.47902 -1.28001 0
M  V30 1121 C 112.514 2.1083 0.106789 0
M  V30 1122 O 111.862 1.99242 1.11869 0
M  V30 1123 C 112.072 2.52392 -2.41038 0
M  V30 1124 C 113.42 3.18546 -2.80737 0
M  V30 1125 O 114.444 2.62708 -2.40547 0
M  V30 1126 O 113.303 4.19604 -3.50135 0
M  V30 1127 H 110.397 0.657163 -0.502062 0
M  V30 1128 H 112.943 0.760071 -1.51727 0
M  V30 1129 H 111.715 2.04329 -3.33715 0
M  V30 1130 H 111.338 3.31837 -2.19021 0
M  V30 1131 N 112.336 1.25143 0.95797 0
M  V30 1132 C 113.561 1.12521 1.74223 0
M  V30 1133 C 113.986 -0.317402 1.85403 0
M  V30 1134 O 113.344 -1.2299 1.33204 0
M  V30 1135 C 113.392 1.78062 3.1357 0
M  V30 1136 O 112.496 1.058 3.98598 0
M  V30 1137 H 111.837 0.39304 0.535178 0
M  V30 1138 H 114.367 1.65641 1.201 0
M  V30 1139 H 114.377 1.84213 3.64046 0
M  V30 1140 H 113.052 2.83021 3.04749 0
M  V30 1141 H 111.629 1.07506 3.57067 0
M  V30 1142 N 113.814 -1.1601 1.06675 0
M  V30 1143 C 115.042 -1.90527 0.806667 0
M  V30 1144 C 115.457 -1.77643 -0.639396 0
M  V30 1145 O 114.814 -1.12369 -1.43803 0
M  V30 1146 C 114.865 -3.41106 1.19705 0
M  V30 1147 O 114.586 -3.53608 2.58636 0
M  V30 1148 C 116.087 -4.32663 0.965266 0
M  V30 1149 H 113.307 -0.604053 0.292166 0
M  V30 1150 H 115.851 -1.47026 1.4214 0
M  V30 1151 H 114.006 -3.82296 0.626774 0
M  V30 1152 H 114.42 -4.47011 2.74375 0
M  V30 1153 H 115.894 -5.36763 1.288 0
M  V30 1154 H 116.371 -4.39089 -0.0987936 0
M  V30 1155 H 116.977 -3.97206 1.52011 0
M  V30 1156 N 115.292 -0.849877 -1.32721 0
M  V30 1157 C 116.239 -0.289033 -2.28983 0
M  V30 1158 C 117.209 0.601324 -1.54833 0
M  V30 1159 O 118.394 0.537253 -1.8308 0
M  V30 1160 C 115.534 0.520623 -3.4115 0
M  V30 1161 C 114.647 -0.394989 -4.3019 0
M  V30 1162 C 113.782 0.426834 -5.29482 0
M  V30 1163 C 112.821 -0.486476 -6.10164 0
M  V30 1164 N 111.958 0.297879 -7.01468 0
M  V30 1165 H 116.798 -1.11519 -2.76347 0
M  V30 1166 H 114.335 -0.56138 -1.35967 0
M  V30 1167 H 116.293 1.00563 -4.04899 0
M  V30 1168 H 114.923 1.31165 -2.9495 0
M  V30 1169 H 113.975 -0.99836 -3.67065 0
M  V30 1170 H 115.287 -1.09612 -4.86607 0
M  V30 1171 H 114.441 0.975205 -5.98811 0
M  V30 1172 H 113.18 1.16136 -4.73671 0
M  V30 1173 H 112.185 -1.04677 -5.39743 0
M  V30 1174 H 113.41 -1.21953 -6.6806 0
M  V30 1175 H 111.356 1.01558 -6.48091 0
M  V30 1176 H 111.273 -0.344318 -7.55216 0
M  V30 1177 H 112.541 0.828131 -7.75089 0
M  V30 1178 N 116.77 1.45427 -0.607355 0
M  V30 1179 C 117.718 2.32269 0.12411 0
M  V30 1180 C 118.712 1.45955 0.859854 0
M  V30 1181 O 119.918 1.6244 0.775447 0
M  V30 1182 H 116.293 0.749691 0.0588839 0
M  V30 1183 H 118.264 2.91743 -0.626762 0
M  V30 1184 C 117.013 3.29567 1.1082 0
M  V30 1185 H 116.336 3.95978 0.551492 0
M  V30 1186 H 117.776 3.93061 1.58995 0
M  V30 1187 C 116.235 2.56722 2.18164 0
M  V30 1188 O 116.765 2.34842 3.25902 0
M  V30 1189 N 114.971 2.16861 1.93442 0
M  V30 1190 H 114.518 2.34855 1.05834 0
M  V30 1191 H 114.476 1.68444 2.65469 0
M  V30 1192 N 118.248 0.346503 1.53744 0
M  V30 1193 C 119.195 -0.508914 2.25119 0
M  V30 1194 C 120.165 -1.09315 1.25058 0
M  V30 1195 O 121.35 -1.12921 1.53797 0
M  V30 1196 C 118.49 -1.65246 3.02965 0
M  V30 1197 C 117.603 -1.09525 4.17886 0
M  V30 1198 C 116.738 -2.20634 4.83212 0
M  V30 1199 C 115.777 -1.62279 5.90196 0
M  V30 1200 N 114.914 -2.67143 6.49291 0
M  V30 1201 H 119.754 0.106283 2.9781 0
M  V30 1202 H 117.291 0.0642227 1.4696 0
M  V30 1203 H 119.249 -2.32574 3.4636 0
M  V30 1204 H 117.879 -2.2386 2.32565 0
M  V30 1205 H 116.931 -0.312818 3.79112 0
M  V30 1206 H 118.243 -0.628444 4.94825 0
M  V30 1207 H 117.397 -2.95821 5.29693 0
M  V30 1208 H 116.136 -2.70659 4.05703 0
M  V30 1209 H 115.141 -0.855989 5.43096 0
M  V30 1210 H 116.366 -1.13102 6.69615 0
M  V30 1211 H 114.312 -3.16417 5.74645 0
M  V30 1212 H 114.229 -2.25093 7.21713 0
M  V30 1213 H 115.497 -3.4209 7.00425 0
M  V30 1214 N 119.726 -1.57421 0.075193 0
M  V30 1215 C 120.656 -2.15942 -0.888324 0
M  V30 1216 C 121.637 -1.08737 -1.30806 0
M  V30 1217 O 122.822 -1.36787 -1.37851 0
M  V30 1218 C 119.952 -2.72379 -2.1547 0
M  V30 1219 C 118.906 -3.8478 -1.87425 0
M  V30 1220 C 118.232 -4.27834 -3.20721 0
M  V30 1221 C 119.532 -5.08869 -1.17684 0
M  V30 1222 H 121.226 -2.96705 -0.400799 0
M  V30 1223 H 118.772 -1.42723 -0.191342 0
M  V30 1224 H 120.725 -3.11965 -2.83295 0
M  V30 1225 H 119.449 -1.88841 -2.6647 0
M  V30 1226 H 118.108 -3.45703 -1.22004 0
M  V30 1227 H 117.756 -3.41214 -3.6957 0
M  V30 1228 H 117.456 -5.03605 -3.02746 0
M  V30 1229 H 118.98 -4.70039 -3.89738 0
M  V30 1230 H 120.394 -5.4575 -1.75584 0
M  V30 1231 H 118.791 -5.8994 -1.09956 0
M  V30 1232 H 119.861 -4.84648 -0.156453 0
M  V30 1233 N 121.204 0.198386 -1.56346 0
M  V30 1234 C 122.432 0.935572 -1.84539 0
M  V30 1235 C 122.847 1.76989 -0.657281 0
M  V30 1236 O 122.204 1.78626 0.374043 0
M  V30 1237 C 122.255 1.8344 -3.11499 0
M  V30 1238 O 121.976 1.03377 -4.25728 0
M  V30 1239 C 123.477 2.68355 -3.52846 0
M  V30 1240 H 120.697 0.273126 -0.612897 0
M  V30 1241 H 123.241 0.20663 -2.03453 0
M  V30 1242 H 121.396 2.51701 -2.94492 0
M  V30 1243 H 121.81 1.64599 -4.98003 0
M  V30 1244 H 123.284 3.27085 -4.44657 0
M  V30 1245 H 123.761 3.41901 -2.75681 0
M  V30 1246 H 124.367 2.05471 -3.72373 0
M  V30 1247 N 122.682 1.50554 0.465978 0
M  V30 1248 C 123.931 1.61038 1.21448 0
M  V30 1249 C 124.244 0.31865 1.92987 0
M  V30 1250 O 125.45 0.302469 2.6981 0
M  V30 1251 C 123.906 2.84283 2.20706 0
M  V30 1252 C 123.514 4.20352 1.54946 0
M  V30 1253 C 125.258 3.04115 2.96166 0
M  V30 1254 C 123.165 5.34778 2.5252 0
M  V30 1255 H 122.095 0.599718 0.457005 0
M  V30 1256 H 124.746 1.7699 0.484424 0
M  V30 1257 H 123.128 2.61901 2.97025 0
M  V30 1258 H 124.302 4.53008 0.843811 0
M  V30 1259 H 122.617 4.06167 0.917475 0
M  V30 1260 H 125.214 3.86774 3.69202 0
M  V30 1261 H 125.557 2.16045 3.55852 0
M  V30 1262 H 126.09 3.26702 2.26959 0
M  V30 1263 H 122.829 6.25018 1.97566 0
M  V30 1264 H 122.349 5.06534 3.21222 0
M  V30 1265 H 124.028 5.65561 3.14245 0
M  V30 1266 N 124.16 -0.719506 1.40217 0
M  V30 1267 C 125.07 -1.86378 1.42479 0
M  V30 1268 C 126.086 -1.71073 0.317834 0
M  V30 1269 O 127.262 -1.93406 0.561794 0
M  V30 1270 C 124.327 -3.22136 1.28178 0
M  V30 1271 C 123.388 -3.49723 2.48982 0
M  V30 1272 C 122.621 -4.79004 2.35353 0
M  V30 1273 O 122.844 -5.53821 1.36524 0
M  V30 1274 O 121.778 -5.06839 3.2465 0
M  V30 1275 H 125.604 -1.87425 2.38968 0
M  V30 1276 H 123.189 -0.869405 1.21498 0
M  V30 1277 H 125.071 -4.03234 1.22395 0
M  V30 1278 H 123.746 -3.21825 0.347934 0
M  V30 1279 H 122.653 -2.6865 2.60342 0
M  V30 1280 H 123.986 -3.54828 3.41113 0
M  V30 1281 N 125.638 -1.25649 -0.95132 0
M  V30 1282 C 126.601 -1.06399 -2.03007 0
M  V30 1283 C 127.601 -0.0156794 -1.60792 0
M  V30 1284 O 128.791 -0.25817 -1.72276 0
M  V30 1285 C 125.923 -0.616184 -3.35285 0
M  V30 1286 H 127.116 -2.02164 -2.21517 0
M  V30 1287 H 124.669 -1.08103 -1.12887 0
M  V30 1288 H 125.404 0.343917 -3.22471 0
M  V30 1289 H 125.189 -1.37301 -3.67275 0
M  V30 1290 H 126.679 -0.503032 -4.14559 0
M  V30 1291 N 127.117 1.15442 -1.07289 0
M  V30 1292 C 128.394 1.82306 -0.708792 0
M  V30 1293 C 128.774 1.94991 0.808807 0
M  V30 1294 O 128.122 1.50085 1.72298 0
M  V30 1295 C 128.332 3.18695 -1.42247 0
M  V30 1296 C 129.68 3.94341 -1.57417 0
M  V30 1297 O 130.704 3.28247 -1.38319 0
M  V30 1298 O 129.563 5.12839 -1.88834 0
M  V30 1299 H 126.657 0.787628 -0.252132 0
M  V30 1300 H 129.203 1.22559 -1.17377 0
M  V30 1301 H 127.975 3.04557 -2.45684 0
M  V30 1302 H 127.598 3.86128 -0.948223 0
M  V30 1303 N 128.595 0.856903 1.32268 0
M  V30 1304 C 129.844 0.457599 1.96441 0
M  V30 1305 C 130.157 -0.992426 1.68553 0
M  V30 1306 O 131.363 -1.49727 2.26482 0
M  V30 1307 C 129.819 0.767358 3.51624 0
M  V30 1308 C 129.427 2.23326 3.88367 0
M  V30 1309 C 131.171 0.435887 4.22256 0
M  V30 1310 C 129.078 2.48613 5.36606 0
M  V30 1311 H 128.008 0.167387 0.735185 0
M  V30 1312 H 130.659 1.048 1.5063 0
M  V30 1313 H 129.041 0.106367 3.95857 0
M  V30 1314 H 130.215 2.93623 3.55137 0
M  V30 1315 H 128.53 2.52948 3.30766 0
M  V30 1316 H 131.127 0.602202 5.31298 0
M  V30 1317 H 131.47 -0.622672 4.11617 0
M  V30 1318 H 132.003 1.05286 3.83614 0
M  V30 1319 H 128.742 3.53101 5.52268 0
M  V30 1320 H 128.262 1.82896 5.71235 0
M  V30 1321 H 129.941 2.32676 6.03714 0
M  V30 1322 N 130.073 -1.45103 0.615059 0
M  V30 1323 C 131.036 -2.29025 -0.0895485 0
M  V30 1324 C 132.036 -1.40174 -0.787906 0
M  V30 1325 O 133.226 -1.62217 -0.634933 0
M  V30 1326 C 130.358 -3.21376 -1.13711 0
M  V30 1327 H 131.551 -2.92807 0.648382 0
M  V30 1328 H 129.104 -1.51749 0.374444 0
M  V30 1329 H 129.839 -2.6241 -1.90556 0
M  V30 1330 H 129.624 -3.86834 -0.640475 0
M  V30 1331 H 131.114 -3.84459 -1.63036 0
M  V30 1332 N 131.551 -0.354651 -1.53558 0
M  V30 1333 C 132.499 0.512195 -2.26891 0
M  V30 1334 C 133.493 1.09263 -1.29452 0
M  V30 1335 O 134.699 1.03709 -1.47121 0
M  V30 1336 H 131.074 0.183878 -0.729173 0
M  V30 1337 H 133.045 -0.128202 -2.98124 0
M  V30 1338 C 131.794 1.64563 -3.06291 0
M  V30 1339 H 131.117 1.20829 -3.81104 0
M  V30 1340 H 132.557 2.22711 -3.60799 0
M  V30 1341 C 131.016 2.58158 -2.16462 0
M  V30 1342 O 131.546 3.60695 -1.76811 0
M  V30 1343 N 129.752 2.27096 -1.81317 0
M  V30 1344 H 129.299 1.43751 -2.1376 0
M  V30 1345 H 129.257 2.89975 -1.21498 0
M  V30 1346 N 133.029 1.57378 -0.0835403 0
M  V30 1347 C 133.939 2.16897 0.894021 0
M  V30 1348 C 134.955 1.13528 1.31861 0
M  V30 1349 O 136.131 1.45848 1.3889 0
M  V30 1350 C 133.196 2.72831 2.13925 0
M  V30 1351 C 132.257 3.91115 1.76997 0
M  V30 1352 C 131.49 4.44371 2.95584 0
M  V30 1353 O 131.713 3.96596 4.09961 0
M  V30 1354 O 130.647 5.35549 2.74719 0
M  V30 1355 H 134.473 3.00814 0.417679 0
M  V30 1356 H 132.058 1.48741 0.140181 0
M  V30 1357 H 133.94 3.0863 2.86924 0
M  V30 1358 H 132.615 1.91967 2.60635 0
M  V30 1359 H 131.522 3.60148 1.01214 0
M  V30 1360 H 132.855 4.73307 1.3506 0
M  V30 1361 N 134.507 -0.190092 1.56449 0
M  V30 1362 C 135.735 -0.925772 1.85033 0
M  V30 1363 C 136.15 -1.76638 0.666658 0
M  V30 1364 O 135.507 -1.78822 -0.364565 0
M  V30 1365 C 135.558 -1.81786 3.12468 0
M  V30 1366 O 135.279 -1.01118 4.26271 0
M  V30 1367 C 136.78 -2.6648 3.54265 0
M  V30 1368 H 134 -0.269872 0.614337 0
M  V30 1369 H 136.544 -0.195837 2.0356 0
M  V30 1370 H 134.699 -2.50136 2.95822 0
M  V30 1371 H 135.113 -1.61956 4.98869 0
M  V30 1372 H 136.587 -3.24722 4.46385 0
M  V30 1373 H 137.064 -3.40434 2.77491 0
M  V30 1374 H 137.67 -2.03493 3.73458 0
M  V30 1375 N 135.985 -1.50799 -0.457987 0
M  V30 1376 C 136.932 -1.70617 -1.5543 0
M  V30 1377 C 137.902 -0.547562 -1.56815 0
M  V30 1378 O 139.087 -0.779647 -1.74144 0
M  V30 1379 C 136.227 -1.81831 -2.93311 0
M  V30 1380 C 135.34 -3.09278 -3.01615 0
M  V30 1381 C 134.475 -3.11209 -4.30491 0
M  V30 1382 C 133.514 -4.33055 -4.32585 0
M  V30 1383 N 132.651 -4.32652 -5.52952 0
M  V30 1384 H 137.491 -2.64207 -1.37836 0
M  V30 1385 H 135.028 -1.30959 -0.669937 0
M  V30 1386 H 136.986 -1.86314 -3.73287 0
M  V30 1387 H 135.616 -0.916685 -3.0951 0
M  V30 1388 H 134.668 -3.14203 -2.1443 0
M  V30 1389 H 135.98 -3.99233 -2.99022 0
M  V30 1390 H 135.134 -3.14494 -5.18824 0
M  V30 1391 H 133.873 -2.19106 -4.35711 0
M  V30 1392 H 132.878 -4.29969 -3.42647 0
M  V30 1393 H 134.103 -5.264 -4.29046 0
M  V30 1394 H 132.049 -3.43409 -5.58933 0
M  V30 1395 H 131.966 -5.16392 -5.52155 0
M  V30 1396 H 133.234 -4.40101 -6.43375 0
M  V30 1397 N 137.463 0.71206 -1.40597 0
M  V30 1398 C 138.373 1.8562 -1.43466 0
M  V30 1399 C 139.389 1.70902 -0.326902 0
M  V30 1400 O 140.565 1.93105 -0.572043 0
M  V30 1401 C 137.63 3.21451 -1.29884 0
M  V30 1402 C 136.691 3.48398 -2.50833 0
M  V30 1403 C 135.924 4.77749 -2.3789 0
M  V30 1404 O 136.147 5.53089 -1.39459 0
M  V30 1405 O 135.081 5.05111 -3.27333 0
M  V30 1406 H 138.907 1.86155 -2.39958 0
M  V30 1407 H 136.492 0.86295 -1.21957 0
M  V30 1408 H 138.374 4.02579 -1.24531 0
M  V30 1409 H 137.049 3.21636 -0.364997 0
M  V30 1410 H 135.956 2.67265 -2.61763 0
M  V30 1411 H 137.289 3.53014 -3.4299 0
M  V30 1412 N 138.941 1.26152 0.944643 0
M  V30 1413 C 140.357 1.03189 1.21754 0
M  V30 1414 C 140.557 -0.245112 2.00004 0
M  V30 1415 O 139.613 -0.955176 2.33736 0
M  V30 1416 C 140.926 2.26119 1.98219 0
M  V30 1417 C 142.474 2.30984 2.11224 0
M  V30 1418 C 142.949 3.53597 2.91089 0
M  V30 1419 N 144.44 3.54053 2.98664 0
M  V30 1420 C 145.175 4.45593 3.60881 0
M  V30 1421 N 144.671 5.47416 4.24626 0
M  V30 1422 N 146.464 4.33252 3.58119 0
M  V30 1423 H 138.615 2.08177 0.421437 0
M  V30 1424 H 140.878 0.914723 0.248969 0
M  V30 1425 H 140.584 3.18984 1.48128 0
M  V30 1426 H 140.458 2.3009 2.98895 0
M  V30 1427 H 142.845 1.38635 2.60508 0
M  V30 1428 H 142.926 2.31026 1.09821 0
M  V30 1429 H 142.57 4.46273 2.42493 0
M  V30 1430 H 142.5 3.50802 3.92741 0
M  V30 1431 H 144.991 2.80403 2.53343 0
M  V30 1432 H 145.304 6.13459 4.69987 0
M  V30 1433 H 143.649 5.51278 4.23223 0
M  V30 1434 H 146.84 3.52924 3.0751 0
M  V30 1435 H 147.013 5.04786 4.06319 0
M  V30 1436 N 140.419 -1.14872 1.07899 0
M  V30 1437 C 141.835 -1.37776 0.805606 0
M  V30 1438 C 142.035 -1.92743 -0.587555 0
M  V30 1439 O 141.091 -2.13678 -1.34528 0
M  V30 1440 C 142.404 -2.34361 1.88402 0
M  V30 1441 C 143.952 -2.48012 1.90942 0
M  V30 1442 C 144.427 -3.47893 2.97883 0
M  V30 1443 N 145.918 -3.55433 2.97021 0
M  V30 1444 C 146.653 -4.32553 3.76412 0
M  V30 1445 N 146.149 -5.12959 4.65666 0
M  V30 1446 N 147.942 -4.27697 3.64735 0
M  V30 1447 H 140.093 -0.775365 1.97742 0
M  V30 1448 H 142.356 -0.403521 0.857831 0
M  V30 1449 H 142.062 -2.01098 2.88535 0
M  V30 1450 H 141.936 -3.34206 1.74889 0
M  V30 1451 H 144.323 -2.8057 0.914579 0
M  V30 1452 H 144.404 -1.48147 2.08534 0
M  V30 1453 H 144.048 -3.16069 3.97571 0
M  V30 1454 H 143.978 -4.47527 2.77538 0
M  V30 1455 H 146.469 -2.98048 2.32326 0
M  V30 1456 H 146.782 -5.69065 5.22862 0
M  V30 1457 H 145.127 -5.12245 4.69712 0
M  V30 1458 H 148.318 -3.63949 2.94378 0
M  V30 1459 H 148.491 -4.8755 4.26848 0
M  V30 1460 N 141.898 -0.863906 -1.31812 0
M  V30 1461 C 143.147 -0.46801 -1.96195 0
M  V30 1462 C 143.46 0.983474 -1.69077 0
M  V30 1463 O 144.666 1.48523 -2.27273 0
M  V30 1464 C 143.122 -0.785995 -3.51212 0
M  V30 1465 C 142.73 -2.25383 -3.87178 0
M  V30 1466 C 144.474 -0.458274 -4.22019 0
M  V30 1467 C 142.381 -2.51455 -5.3528 0
M  V30 1468 H 141.311 -0.171283 -0.734287 0
M  V30 1469 H 143.962 -1.05597 -1.50072 0
M  V30 1470 H 142.344 -0.127359 -3.95795 0
M  V30 1471 H 143.518 -2.95502 -3.53575 0
M  V30 1472 H 141.833 -2.54698 -3.2942 0
M  V30 1473 H 144.43 -0.630369 -5.30971 0
M  V30 1474 H 144.773 0.600834 -4.11941 0
M  V30 1475 H 145.306 -1.07319 -3.8305 0
M  V30 1476 H 142.045 -3.56025 -5.50387 0
M  V30 1477 H 141.565 -1.85923 -5.70257 0
M  V30 1478 H 143.244 -2.35874 -6.02472 0
M  V30 1479 N 143.376 1.44774 -0.622745 0
M  V30 1480 C 144.601 2.06999 -0.128968 0
M  V30 1481 C 145.026 1.4617 1.1839 0
M  V30 1482 O 144.384 0.560007 1.72434 0
M  V30 1483 C 144.432 3.60595 -0.0188351 0
M  V30 1484 O 143.536 3.99398 1.02739 0
M  V30 1485 H 142.877 0.659047 -0.0809544 0
M  V30 1486 H 145.407 1.85784 -0.85705 0
M  V30 1487 H 145.417 4.07627 0.174476 0
M  V30 1488 H 144.092 4.04252 -0.977384 0
M  V30 1489 H 142.669 3.64011 0.809326 0
M  V30 1490 N 144.854 0.36279 1.53368 0
M  V30 1491 C 146.1 -0.228113 2.01513 0
M  V30 1492 C 146.433 -1.48648 1.2497 0
M  V30 1493 O 145.708 -1.91459 0.342616 0
M  V30 1494 C 145.991 -0.522884 3.56284 0
M  V30 1495 C 145.844 0.74892 4.43521 0
M  V30 1496 C 147.163 -1.32461 4.19693 0
M  V30 1497 H 144.282 -0.0814343 0.732487 0
M  V30 1498 H 146.924 0.48713 1.83649 0
M  V30 1499 H 145.074 -1.1322 3.71636 0
M  V30 1500 H 146.746 1.38648 4.39971 0
M  V30 1501 H 144.989 1.36986 4.11603 0
M  V30 1502 H 145.66 0.497667 5.49752 0
M  V30 1503 H 148.136 -0.809203 4.08156 0
M  V30 1504 H 147.012 -1.49961 5.28018 0
M  V30 1505 H 147.273 -2.33232 3.75573 0
M  V30 1506 N 146.332 -1.57332 0.0918853 0
M  V30 1507 C 147.58 -1.93853 -0.571446 0
M  V30 1508 C 147.901 -0.974212 -1.6892 0
M  V30 1509 O 147.171 -0.0257254 -1.95883 0
M  V30 1510 H 145.751 -0.715666 -0.214082 0
M  V30 1511 H 148.413 -1.94287 0.154464 0
M  V30 1512 H 147.509 -2.96191 -0.983729 0
M  V30 1513 N 147.81 0.181792 -1.56548 0
M  V30 1514 C 148.72 1.24538 -1.98815 0
M  V30 1515 C 149.736 1.49045 -0.897861 0
M  V30 1516 O 150.912 1.61399 -1.20467 0
M  V30 1517 C 147.977 2.56683 -2.33055 0
M  V30 1518 C 147.038 2.40131 -3.55859 0
M  V30 1519 C 146.271 3.65975 -3.88456 0
M  V30 1520 O 146.494 4.70711 -3.22161 0
M  V30 1521 O 145.428 3.6071 -4.81842 0
M  V30 1522 H 149.254 0.916647 -2.89536 0
M  V30 1523 H 146.839 0.387842 -1.44278 0
M  V30 1524 H 148.721 3.34655 -2.56094 0
M  V30 1525 H 147.396 2.89157 -1.45498 0
M  V30 1526 H 146.303 1.60226 -3.38051 0
M  V30 1527 H 147.636 2.12585 -4.43924 0
M  V30 1528 N 149.288 1.51039 0.449983 0
M  V30 1529 C 150.536 1.62759 1.19808 0
M  V30 1530 C 150.857 0.339981 1.92013 0
M  V30 1531 O 150.127 -0.643606 1.85026 0
M  V30 1532 H 148.707 0.599811 0.445237 0
M  V30 1533 H 151.369 1.87914 0.517138 0
M  V30 1534 H 150.465 2.44911 1.93455 0
M  V30 1535 N 150.766 -0.704594 1.40972 0
M  V30 1536 C 151.699 -1.82861 1.36518 0
M  V30 1537 C 152.677 -1.6091 0.23382 0
M  V30 1538 O 153.861 -1.83778 0.419271 0
M  V30 1539 C 150.988 -3.1939 1.12729 0
M  V30 1540 C 150.034 -3.60148 2.28463 0
M  V30 1541 S 150.867 -3.65994 3.90907 0
M  V30 1542 C 152.023 -5.05264 3.69403 0
M  V30 1543 H 152.256 -1.86361 2.3164 0
M  V30 1544 H 149.789 -0.872439 1.27389 0
M  V30 1545 H 151.747 -3.98211 0.996893 0
M  V30 1546 H 150.408 -3.1351 0.192427 0
M  V30 1547 H 149.601 -4.59309 2.07489 0
M  V30 1548 H 149.203 -2.88612 2.37863 0
M  V30 1549 H 151.495 -5.92504 3.28551 0
M  V30 1550 H 152.438 -5.31278 4.68134 0
M  V30 1551 H 152.846 -4.76377 3.02862 0
M  V30 1552 N 152.244 -1.26651 -0.937939 0
M  V30 1553 C 153.49 -1.12553 -1.687 0
M  V30 1554 C 153.823 0.329782 -1.91379 0
M  V30 1555 O 153.098 1.24202 -1.4968 0
M  V30 1556 C 153.381 -1.89862 -3.05981 0
M  V30 1557 C 153.234 -3.43318 -2.90607 0
M  V30 1558 C 154.553 -1.69499 -4.0615 0
M  V30 1559 H 151.672 -0.410257 -0.612257 0
M  V30 1560 H 154.314 -1.55685 -1.08913 0
M  V30 1561 H 152.464 -1.53204 -3.57017 0
M  V30 1562 H 154.136 -3.89747 -2.46769 0
M  V30 1563 H 152.379 -3.70179 -2.26164 0
M  V30 1564 H 153.05 -3.92642 -3.8799 0
M  V30 1565 H 155.526 -2.01442 -3.64088 0
M  V30 1566 H 154.402 -2.26002 -5.00214 0
M  V30 1567 H 154.663 -0.640365 -4.37438 0
M  V30 1568 N 153.722 1.14298 -1.08507 0
M  V30 1569 C 154.947 1.8976 -0.837001 0
M  V30 1570 C 155.372 1.78097 0.605228 0
M  V30 1571 O 154.73 1.12188 1.4242 0
M  V30 1572 C 154.778 3.37685 -1.26495 0
M  V30 1573 O 153.882 4.10281 -0.417514 0
M  V30 1574 H 153.223 0.590365 -0.303917 0
M  V30 1575 H 155.753 1.44672 -1.44676 0
M  V30 1576 H 155.763 3.88501 -1.24625 0
M  V30 1577 H 154.438 3.45492 -2.31534 0
M  V30 1578 H 153.015 3.69536 -0.499722 0
M  V30 1579 N 155.201 0.870884 1.31352 0
M  V30 1580 C 156.447 0.482987 1.96965 0
M  V30 1581 C 156.78 -0.962462 1.68672 0
M  V30 1582 O 156.055 -1.6779 0.98371 0
M  V30 1583 C 156.338 0.741752 3.52378 0
M  V30 1584 C 156.191 2.2368 3.9024 0
M  V30 1585 C 157.51 0.208838 4.39604 0
M  V30 1586 H 154.629 0.176955 0.715441 0
M  V30 1587 H 157.271 1.09229 1.55464 0
M  V30 1588 H 155.421 0.223149 3.87859 0
M  V30 1589 H 157.093 2.82273 3.64856 0
M  V30 1590 H 155.336 2.70901 3.38814 0
M  V30 1591 H 156.007 2.3685 4.98604 0
M  V30 1592 H 158.483 0.652529 4.10952 0
M  V30 1593 H 157.359 0.419336 5.47296 0
M  V30 1594 H 157.62 -0.889275 4.33064 0
M  V30 1595 N 156.679 -1.44442 0.630414 0
M  V30 1596 C 157.927 -2.01653 0.134351 0
M  V30 1597 C 158.248 -1.49836 -1.24796 0
M  V30 1598 O 157.518 -0.701684 -1.82902 0
M  V30 1599 H 156.098 -0.74554 0.0466769 0
M  V30 1600 H 158.76 -1.76952 0.816955 0
M  V30 1601 H 157.856 -3.11935 0.101498 0
M  V30 1602 N 158.157 -0.370918 -1.53173 0
M  V30 1603 C 159.434 0.273754 -1.93675 0
M  V30 1604 C 159.814 1.65938 -1.3049 0
M  V30 1605 O 159.162 2.23698 -0.465999 0
M  V30 1606 C 159.372 0.318602 -3.47543 0
M  V30 1607 C 160.72 0.556392 -4.20939 0
M  V30 1608 O 161.744 0.399587 -3.53952 0
M  V30 1609 O 160.603 0.862133 -5.39657 0
M  V30 1610 H 157.697 0.165448 -0.810281 0
M  V30 1611 H 160.243 -0.42409 -1.64315 0
M  V30 1612 H 159.015 -0.652687 -3.85818 0
M  V30 1613 H 158.638 1.06212 -3.83151 0
M  V30 1614 N 159.635 1.57281 -0.100228 0
M  V30 1615 C 160.882 1.94537 0.562268 0
M  V30 1616 C 161.21 0.982315 1.67871 0
M  V30 1617 O 160.465 0.00280936 1.957 0
M  V30 1618 C 160.764 3.38305 1.15259 0
M  V30 1619 C 160.43 4.50618 0.159409 0
M  V30 1620 C 159.092 4.81066 -0.113741 0
M  V30 1621 C 161.444 5.18615 -0.518461 0
M  V30 1622 C 158.772 5.76835 -1.07137 0
M  V30 1623 C 161.124 6.15412 -1.46459 0
M  V30 1624 C 159.788 6.44262 -1.74592 0
M  V30 1625 H 159.058 0.711863 0.205748 0
M  V30 1626 H 161.705 1.90679 -0.17715 0
M  V30 1627 H 160.01 3.38766 1.96836 0
M  V30 1628 H 161.707 3.64435 1.67297 0
M  V30 1629 H 158.297 4.2689 0.382491 0
M  V30 1630 H 162.481 4.95264 -0.320581 0
M  V30 1631 H 157.737 5.975 -1.29628 0
M  V30 1632 H 161.911 6.67194 -1.99564 0
M  V30 1633 H 159.538 7.1828 -2.48953 0
M  V30 1634 N 161.113 -0.173488 1.56642 0
M  V30 1635 C 162.338 -0.910149 1.86363 0
M  V30 1636 C 162.763 -1.75132 0.686318 0
M  V30 1637 O 162.121 -1.77595 -0.364643 0
M  V30 1638 C 162.169 -1.76447 3.14482 0
M  V30 1639 O 161.273 -2.86584 2.96553 0
M  V30 1640 H 160.614 -0.255086 0.613047 0
M  V30 1641 H 163.144 -0.172283 2.03873 0
M  V30 1642 H 163.154 -2.16483 3.45831 0
M  V30 1643 H 161.829 -1.14658 3.99783 0
M  V30 1644 H 160.406 -2.50146 2.76553 0
M  V30 1645 N 162.591 -1.51276 -0.441967 0
M  V30 1646 C 163.541 -1.6864 -1.53442 0
M  V30 1647 C 164.525 -0.540444 -1.51552 0
M  V30 1648 O 165.717 -0.796157 -1.58083 0
M  V30 1649 C 162.846 -1.8106 -2.91672 0
M  V30 1650 C 161.932 -3.01424 -2.98336 0
M  V30 1651 N 162.323 -4.2467 -2.74752 0
M  V30 1652 C 160.621 -3.00584 -3.29493 0
M  V30 1653 C 161.322 -5.05891 -2.87139 0
M  V30 1654 N 160.298 -4.40442 -3.18609 0
M  V30 1655 H 164.1 -2.61598 -1.33954 0
M  V30 1656 H 161.614 -1.4886 -0.6492 0
M  V30 1657 H 163.611 -1.91609 -3.70259 0
M  V30 1658 H 162.271 -0.892795 -3.12185 0
M  V30 1659 H 163.282 -4.53691 -2.49769 0
M  V30 1660 H 159.959 -2.18417 -3.55809 0
M  V30 1661 H 161.349 -6.13983 -2.72899 0
M  V30 1662 N 164.069 0.697108 -1.41344 0
M  V30 1663 C 165.297 1.48593 -1.43972 0
M  V30 1664 C 165.712 1.88747 -0.0445612 0
M  V30 1665 O 165.069 1.56682 0.935785 0
M  V30 1666 C 165.12 2.74946 -2.34706 0
M  V30 1667 O 164.841 2.36484 -3.68791 0
M  V30 1668 C 166.342 3.687 -2.46121 0
M  V30 1669 H 163.562 0.457964 -0.490418 0
M  V30 1670 H 166.106 0.858429 -1.8561 0
M  V30 1671 H 164.261 3.33937 -1.9638 0
M  V30 1672 H 164.675 3.17918 -4.17167 0
M  V30 1673 H 166.149 4.54145 -3.13777 0
M  V30 1674 H 166.626 4.13081 -1.49199 0
M  V30 1675 H 167.232 3.15613 -2.85076 0
M  V30 1676 N 165.547 1.27147 0.931209 0
M  V30 1677 C 166.794 1.13278 1.67852 0
M  V30 1678 C 167.122 -0.32204 1.91815 0
M  V30 1679 O 166.377 -1.25224 1.50391 0
M  V30 1680 C 166.676 1.8579 3.05314 0
M  V30 1681 C 166.342 3.35657 3.01073 0
M  V30 1682 C 165.004 3.76536 2.99623 0
M  V30 1683 C 167.356 4.31299 2.92627 0
M  V30 1684 C 164.684 5.11426 2.87506 0
M  V30 1685 C 167.036 5.66242 2.82051 0
M  V30 1686 C 165.7 6.06418 2.7895 0
M  V30 1687 H 164.97 0.414515 0.614214 0
M  V30 1688 H 167.617 1.57712 1.08624 0
M  V30 1689 H 165.922 1.33854 3.68226 0
M  V30 1690 H 167.619 1.72491 3.62005 0
M  V30 1691 H 164.209 3.03146 3.02986 0
M  V30 1692 H 168.393 4.00692 2.92848 0
M  V30 1693 H 163.649 5.41705 2.83489 0
M  V30 1694 H 167.823 6.40026 2.74481 0
M  V30 1695 H 165.45 7.10895 2.69318 0
M  V30 1696 N 167.025 -1.13721 1.09112 0
M  V30 1697 C 168.25 -1.89314 0.847053 0
M  V30 1698 C 168.675 -1.78416 -0.595774 0
M  V30 1699 O 168.033 -1.12942 -1.41823 0
M  V30 1700 C 168.081 -3.3701 1.28284 0
M  V30 1701 O 167.185 -4.10054 0.439267 0
M  V30 1702 H 166.526 -0.588745 0.307044 0
M  V30 1703 H 169.056 -1.43902 1.45442 0
M  V30 1704 H 169.066 -3.87834 1.26683 0
M  V30 1705 H 167.741 -3.4426 2.33363 0
M  V30 1706 H 166.318 -3.69266 0.519312 0
M  V30 1707 N 168.503 -0.877838 -1.30888 0
M  V30 1708 C 169.75 -0.492696 -1.96415 0
M  V30 1709 C 170.078 0.956671 -1.69346 0
M  V30 1710 O 169.333 1.68993 -0.986913 0
M  V30 1711 C 169.632 -0.705748 -3.50363 0
M  V30 1712 C 169.298 -2.1291 -3.97467 0
M  V30 1713 C 167.96 -2.51834 -4.1004 0
M  V30 1714 C 170.312 -3.05702 -4.22132 0
M  V30 1715 C 167.64 -3.82775 -4.44635 0
M  V30 1716 C 169.992 -4.36166 -4.58194 0
M  V30 1717 C 168.656 -4.74993 -4.68975 0
M  V30 1718 H 167.926 -0.18029 -0.718733 0
M  V30 1719 H 170.573 -1.11233 -1.55883 0
M  V30 1720 H 168.878 -0.00303058 -3.918 0
M  V30 1721 H 170.575 -0.387456 -3.99124 0
M  V30 1722 H 167.165 -1.81694 -3.88182 0
M  V30 1723 H 171.349 -2.76853 -4.11906 0
M  V30 1724 H 166.605 -4.12609 -4.51181 0
M  V30 1725 H 170.779 -5.08111 -4.76231 0
M  V30 1726 H 168.406 -5.76495 -4.95537 0
M  V30 1727 N 169.982 1.44106 -0.638065 0
M  V30 1728 C 170.892 2.34513 0.0637334 0
M  V30 1729 C 171.908 1.53018 0.828346 0
M  V30 1730 O 173.084 1.85723 0.779036 0
M  V30 1731 C 170.149 3.31095 1.02844 0
M  V30 1732 C 169.21 4.28497 0.26244 0
M  V30 1733 C 168.443 5.20465 1.1812 0
M  V30 1734 O 168.666 5.16514 2.42011 0
M  V30 1735 O 167.6 5.98251 0.661774 0
M  V30 1736 H 171.426 2.95989 -0.68003 0
M  V30 1737 H 169.011 1.43994 -0.398252 0
M  V30 1738 H 170.893 3.90526 1.58327 0
M  V30 1739 H 169.568 2.72144 1.7527 0
M  V30 1740 H 168.475 3.72592 -0.335602 0
M  V30 1741 H 169.808 4.90388 -0.421936 0
M  V30 1742 N 171.46 0.379036 1.52974 0
M  V30 1743 C 172.708 -0.206014 2.01047 0
M  V30 1744 C 173.029 -1.48175 1.26765 0
M  V30 1745 O 172.299 -1.92085 0.384743 0
M  V30 1746 H 170.879 -0.0791184 0.742798 0
M  V30 1747 H 173.541 0.508366 1.88153 0
M  V30 1748 H 172.637 -0.423501 3.09213 0
M  V30 1749 N 172.938 -1.57226 0.108567 0
M  V30 1750 C 174.163 -1.99604 -0.563303 0
M  V30 1751 C 174.588 -0.987563 -1.6009 0
M  V30 1752 O 173.946 0.0421687 -1.81251 0
M  V30 1753 C 173.994 -3.40902 -1.17552 0
M  V30 1754 O 173.098 -3.42896 -2.2912 0
M  V30 1755 H 172.439 -0.648704 -0.1417 0
M  V30 1756 H 174.969 -2.03679 0.193961 0
M  V30 1757 H 174.979 -3.78886 -1.51357 0
M  V30 1758 H 173.654 -4.1382 -0.415445 0
M  V30 1759 H 172.231 -3.1672 -1.96832 0
M  V30 1760 N 174.416 0.165178 -1.56732 0
M  V30 1761 C 175.662 0.882112 -1.82611 0
M  V30 1762 C 175.995 1.81628 -0.687378 0
M  V30 1763 O 175.27 1.92009 0.310267 0
M  V30 1764 C 175.553 1.67245 -3.18906 0
M  V30 1765 C 175.406 0.760987 -4.43316 0
M  V30 1766 C 176.725 2.63884 -3.52212 0
M  V30 1767 H 173.844 0.319242 -0.664269 0
M  V30 1768 H 176.486 0.148052 -1.89422 0
M  V30 1769 H 174.636 2.29824 -3.1323 0
M  V30 1770 H 176.308 0.147596 -4.61064 0
M  V30 1771 H 174.551 0.0694102 -4.33744 0
M  V30 1772 H 175.222 1.34962 -5.35247 0
M  V30 1773 H 177.698 2.11429 -3.58381 0
M  V30 1774 H 176.574 3.16245 -4.48643 0
M  V30 1775 H 176.835 3.44377 -2.77231 0
M  V30 1776 N 175.894 1.51508 0.433938 0
M  V30 1777 C 177.14 1.64588 1.18484 0
M  V30 1778 C 177.473 0.362666 1.90784 0
M  V30 1779 O 176.748 -0.637892 1.83742 0
M  V30 1780 C 177.031 2.85149 2.19913 0
M  V30 1781 C 176.884 4.23456 1.51674 0
M  V30 1782 C 178.203 3.01227 3.20858 0
M  V30 1783 H 175.322 0.598994 0.429389 0
M  V30 1784 H 177.964 1.84002 0.473647 0
M  V30 1785 H 176.114 2.68729 2.80566 0
M  V30 1786 H 177.786 4.51552 0.943322 0
M  V30 1787 H 176.029 4.25998 0.819035 0
M  V30 1788 H 176.7 5.03812 2.2556 0
M  V30 1789 H 179.176 3.16382 2.70263 0
M  V30 1790 H 178.052 3.87141 3.89118 0
M  V30 1791 H 178.313 2.13447 3.8716 0
M  V30 1792 N 177.372 -0.689602 1.41712 0
M  V30 1793 C 178.32 -1.82475 1.44242 0
M  V30 1794 C 179.314 -1.66354 0.319774 0
M  V30 1795 O 180.52 -1.73143 0.492089 0
M  V30 1796 H 176.895 -0.601416 0.451445 0
M  V30 1797 H 178.866 -1.77458 2.39899 0
M  V30 1798 C 177.615 -3.20535 1.3473 0
M  V30 1799 H 176.938 -3.33559 2.20405 0
M  V30 1800 H 178.378 -4.00023 1.40562 0
M  V30 1801 C 176.837 -3.36846 0.0603281 0
M  V30 1802 O 177.367 -3.91656 -0.892663 0
M  V30 1803 N 175.573 -2.90595 -0.0177039 0
M  V30 1804 H 175.12 -2.46178 0.758572 0
M  V30 1805 H 175.078 -3.01886 -0.878201 0
M  V30 1806 N 178.85 -1.27639 -0.924453 0
M  V30 1807 C 179.78 -1.13166 -2.04244 0
M  V30 1808 C 180.761 -0.032256 -1.70069 0
M  V30 1809 O 181.946 -0.207328 -1.9309 0
M  V30 1810 C 179.076 -0.781496 -3.38393 0
M  V30 1811 C 178.03 -1.83449 -3.86692 0
M  V30 1812 C 177.356 -1.33822 -5.17683 0
M  V30 1813 C 178.656 -3.23917 -4.09726 0
M  V30 1814 H 180.35 -2.06689 -2.1661 0
M  V30 1815 H 177.896 -0.995136 -1.04082 0
M  V30 1816 H 179.849 -0.667057 -4.16087 0
M  V30 1817 H 178.573 0.189439 -3.2605 0
M  V30 1818 H 177.232 -1.93789 -3.11193 0
M  V30 1819 H 176.88 -0.35665 -5.01734 0
M  V30 1820 H 176.58 -2.04224 -5.50968 0
M  V30 1821 H 178.104 -1.23679 -5.97943 0
M  V30 1822 H 179.518 -3.16559 -4.77978 0
M  V30 1823 H 177.915 -3.92059 -4.54324 0
M  V30 1824 H 178.985 -3.68729 -3.14908 0
M  V30 1825 N 180.328 1.1314 -1.09713 0
M  V30 1826 C 181.575 1.84484 -0.834987 0
M  V30 1827 C 181.903 1.83689 0.639418 0
M  V30 1828 O 181.158 1.2724 1.4869 0
M  V30 1829 C 181.457 3.32167 -1.3191 0
M  V30 1830 C 181.123 3.53139 -2.80363 0
M  V30 1831 C 179.785 3.58571 -3.20905 0
M  V30 1832 C 182.137 3.60866 -3.76065 0
M  V30 1833 C 179.465 3.69267 -4.55916 0
M  V30 1834 C 181.817 3.73089 -5.10869 0
M  V30 1835 C 180.481 3.76775 -5.50996 0
M  V30 1836 H 179.751 0.675073 -0.305544 0
M  V30 1837 H 182.398 1.33554 -1.37243 0
M  V30 1838 H 180.703 3.85469 -0.701517 0
M  V30 1839 H 182.4 3.85821 -1.09284 0
M  V30 1840 H 178.99 3.49569 -2.47991 0
M  V30 1841 H 183.174 3.55946 -3.45855 0
M  V30 1842 H 178.43 3.70388 -4.86438 0
M  V30 1843 H 182.604 3.78011 -5.84877 0
M  V30 1844 H 180.231 3.84815 -6.55608 0
M  V30 1845 N 181.806 0.884767 1.30421 0
M  V30 1846 C 183.036 0.517293 2.00019 0
M  V30 1847 C 183.444 -0.898632 1.66497 0
M  V30 1848 O 182.787 -1.60245 0.898181 0
M  V30 1849 C 182.849 0.612025 3.54252 0
M  V30 1850 C 182.513 1.99222 4.1129 0
M  V30 1851 C 183.51 2.9616 4.273 0
M  V30 1852 C 181.195 2.29755 4.46674 0
M  V30 1853 C 183.189 4.21764 4.77906 0
M  V30 1854 C 180.876 3.55606 4.96979 0
M  V30 1855 C 181.874 4.51425 5.12547 0
M  V30 1856 O 181.562 5.75043 5.61766 0
M  V30 1857 H 181.294 0.198529 0.64619 0
M  V30 1858 H 183.848 1.1919 1.67281 0
M  V30 1859 H 182.078 -0.119561 3.86515 0
M  V30 1860 H 183.767 0.255859 4.05093 0
M  V30 1861 H 184.533 2.73882 4.00267 0
M  V30 1862 H 180.412 1.55942 4.33824 0
M  V30 1863 H 183.956 4.96561 4.89972 0
M  V30 1864 H 179.853 3.7772 5.23448 0
M  V30 1865 H 180.621 5.77422 5.80109 0
M  V30 1866 N 183.284 -1.43765 0.645699 0
M  V30 1867 C 184.514 -2.05953 0.163318 0
M  V30 1868 C 184.922 -1.48432 -1.17322 0
M  V30 1869 O 184.265 -0.607295 -1.73371 0
M  V30 1870 C 184.327 -3.59499 -0.0103065 0
M  V30 1871 C 183.991 -4.39563 1.25035 0
M  V30 1872 C 184.988 -4.72108 2.17739 0
M  V30 1873 C 182.673 -4.79697 1.48983 0
M  V30 1874 C 184.667 -5.43688 3.3269 0
M  V30 1875 C 182.354 -5.51023 2.64229 0
M  V30 1876 C 183.352 -5.8294 3.55908 0
M  V30 1877 O 183.04 -6.5281 4.69142 0
M  V30 1878 H 182.772 -0.670798 0.0836986 0
M  V30 1879 H 185.326 -1.85384 0.884407 0
M  V30 1880 H 183.556 -3.78613 -0.78669 0
M  V30 1881 H 185.245 -4.03408 -0.449087 0
M  V30 1882 H 186.011 -4.41627 2.00476 0
M  V30 1883 H 181.89 -4.54266 0.785078 0
M  V30 1884 H 185.434 -5.68517 4.04269 0
M  V30 1885 H 181.331 -5.8092 2.81429 0
M  V30 1886 H 182.099 -6.71288 4.6831 0
M  V30 1887 N 184.763 -0.387143 -1.52771 0
M  V30 1888 C 186.179 -0.037007 -1.59557 0
M  V30 1889 C 186.379 1.44801 -1.40124 0
M  V30 1890 O 185.435 2.21227 -1.21716 0
M  V30 1891 C 186.748 -0.512256 -2.96305 0
M  V30 1892 C 188.296 -0.468328 -3.09476 0
M  V30 1893 C 188.771 -0.919731 -4.4867 0
M  V30 1894 N 190.262 -0.875656 -4.54848 0
M  V30 1895 C 190.997 -1.19637 -5.6078 0
M  V30 1896 N 190.493 -1.58745 -6.74368 0
M  V30 1897 N 192.286 -1.11776 -5.50874 0
M  V30 1898 H 184.437 -1.35395 -1.63652 0
M  V30 1899 H 186.7 -0.554818 -0.768688 0
M  V30 1900 H 186.406 -1.54935 -3.15734 0
M  V30 1901 H 186.28 0.089805 -3.77093 0
M  V30 1902 H 188.667 0.559671 -2.89744 0
M  V30 1903 H 188.748 -1.10616 -2.30646 0
M  V30 1904 H 188.392 -1.94595 -4.69143 0
M  V30 1905 H 188.322 -0.258927 -5.25963 0
M  V30 1906 H 190.813 -0.587843 -3.733 0
M  V30 1907 H 191.126 -1.81586 -7.51163 0
M  V30 1908 H 189.471 -1.6263 -6.75705 0
M  V30 1909 H 192.662 -0.811264 -4.61016 0
M  V30 1910 H 192.835 -1.37103 -6.3333 0
M  V30 1911 N 186.241 1.57166 -0.116904 0
M  V30 1912 C 187.466 1.999 0.55271 0
M  V30 1913 C 187.891 0.996039 1.59564 0
M  V30 1914 O 187.249 -0.032556 1.81271 0
M  V30 1915 C 187.297 3.4152 1.15742 0
M  V30 1916 O 186.401 3.44106 2.27299 0
M  V30 1917 H 185.742 0.649447 0.138258 0
M  V30 1918 H 188.272 2.03573 -0.204759 0
M  V30 1919 H 188.282 3.79684 1.49346 0
M  V30 1920 H 186.957 4.14034 0.393493 0
M  V30 1921 H 185.534 3.17759 1.9515 0
M  V30 1922 N 187.719 -0.156864 1.56817 0
M  V30 1923 C 188.996 -0.899244 1.73704 0
M  V30 1924 C 189.376 -1.99771 0.682254 0
M  V30 1925 O 188.724 -2.26515 -0.300522 0
M  V30 1926 C 188.934 -1.45075 3.17418 0
M  V30 1927 C 190.282 -1.91802 3.7881 0
M  V30 1928 O 191.306 -1.54838 3.20786 0
M  V30 1929 O 190.165 -2.5994 4.80722 0
M  V30 1930 H 187.259 -0.424267 0.709878 0
M  V30 1931 H 189.805 -0.143561 1.69092 0
M  V30 1932 H 188.577 -0.660846 3.85679 0
M  V30 1933 H 188.2 -2.27021 3.26416 0
M  V30 1934 N 189.197 -1.51736 -0.425897 0
M  V30 1935 C 190.16 -1.73271 -1.50032 0
M  V30 1936 C 191.16 -0.602639 -1.4908 0
M  V30 1937 O 192.35 -0.87033 -1.509 0
M  V30 1938 C 189.482 -1.79969 -2.89523 0
M  V30 1939 H 190.675 -2.69172 -1.32237 0
M  V30 1940 H 188.228 -1.41899 -0.65532 0
M  V30 1941 H 188.963 -0.859241 -3.1271 0
M  V30 1942 H 188.748 -2.62109 -2.91619 0
M  V30 1943 H 190.238 -1.9843 -3.67444 0
M  V30 1944 N 190.675 0.682077 -1.42076 0
M  V30 1945 C 191.921 1.44428 -1.42367 0
M  V30 1946 C 192.254 1.94164 -0.0373056 0
M  V30 1947 O 191.529 1.70429 0.937239 0
M  V30 1948 C 191.812 2.64654 -2.44194 0
M  V30 1949 C 191.665 2.20596 -3.91991 0
M  V30 1950 C 192.984 3.66865 -2.431 0
M  V30 1951 H 190.103 0.523834 -0.518428 0
M  V30 1952 H 192.745 0.77576 -1.73442 0
M  V30 1953 H 190.895 3.2169 -2.17826 0
M  V30 1954 H 192.567 1.68783 -4.29313 0
M  V30 1955 H 190.81 1.52242 -4.06208 0
M  V30 1956 H 191.481 3.06921 -4.58807 0
M  V30 1957 H 193.957 3.19531 -2.66532 0
M  V30 1958 H 192.833 4.48577 -3.16339 0
M  V30 1959 H 193.094 4.17493 -1.45437 0
M  V30 1960 N 192.153 1.28127 0.917671 0
M  V30 1961 C 193.569 1.05749 1.19538 0
M  V30 1962 C 193.769 -0.202633 2.00479 0
M  V30 1963 O 192.825 -0.905382 2.3571 0
M  V30 1964 C 194.138 2.30273 1.93378 0
M  V30 1965 C 195.686 2.35412 2.06277 0
M  V30 1966 C 196.161 3.59692 2.83524 0
M  V30 1967 N 197.652 3.60309 2.91087 0
M  V30 1968 C 198.387 4.53147 3.51348 0
M  V30 1969 N 197.883 5.563 4.12919 0
M  V30 1970 N 199.676 4.40751 3.48849 0
M  V30 1971 H 191.827 2.09024 0.377184 0
M  V30 1972 H 194.09 0.919798 0.22951 0
M  V30 1973 H 193.796 3.22055 1.41328 0
M  V30 1974 H 193.67 2.36378 2.93947 0
M  V30 1975 H 196.057 1.4413 2.57508 0
M  V30 1976 H 196.138 2.33304 1.04895 0
M  V30 1977 H 195.782 4.51316 2.32973 0
M  V30 1978 H 195.712 3.59054 3.85211 0
M  V30 1979 H 198.203 2.85714 2.47338 0
M  V30 1980 H 198.516 6.2329 4.56869 0
M  V30 1981 H 196.861 5.60131 4.11435 0
M  V30 1982 H 200.052 3.59367 2.99955 0
M  V30 1983 H 200.225 5.13291 3.9552 0
M  V30 1984 N 193.631 -1.12557 1.10312 0
M  V30 1985 C 195.047 -1.36036 0.834649 0
M  V30 1986 C 195.247 -1.93946 -0.546539 0
M  V30 1987 O 194.303 -2.16484 -1.29966 0
M  V30 1988 C 195.616 -2.30312 1.9333 0
M  V30 1989 C 197.164 -2.43906 1.9616 0
M  V30 1990 C 197.639 -3.41496 3.05195 0
M  V30 1991 N 199.13 -3.49053 3.04494 0
M  V30 1992 C 199.865 -4.24471 3.85502 0
M  V30 1993 N 199.361 -5.02966 4.76442 0
M  V30 1994 N 201.154 -4.19864 3.73725 0
M  V30 1995 H 193.305 -0.733246 1.99342 0
M  V30 1996 H 195.568 -0.385234 0.866198 0
M  V30 1997 H 195.274 -1.94933 2.92735 0
M  V30 1998 H 195.148 -3.30421 1.81939 0
M  V30 1999 H 197.535 -2.78567 0.973886 0
M  V30 2000 H 197.616 -1.4369 2.11629 0
M  V30 2001 H 197.26 -3.07565 4.04186 0
M  V30 2002 H 197.19 -4.41539 2.86968 0
M  V30 2003 H 199.681 -2.93053 2.38596 0
M  V30 2004 H 199.994 -5.57846 5.34815 0
M  V30 2005 H 198.339 -5.02167 4.80472 0
M  V30 2006 H 201.53 -3.57623 3.02032 0
M  V30 2007 H 201.703 -4.78386 4.37093 0
M  V30 2008 N 195.109 -0.891671 -1.2995 0
M  V30 2009 C 196.057 -0.353066 -2.29905 0
M  V30 2010 C 197.051 0.543509 -1.60444 0
M  V30 2011 O 198.257 0.4272 -1.74857 0
M  V30 2012 H 194.632 -0.095531 -0.745907 0
M  V30 2013 H 196.603 -1.20961 -2.72784 0
M  V30 2014 C 195.352 0.411475 -3.45257 0
M  V30 2015 H 194.675 -0.269182 -3.98893 0
M  V30 2016 H 196.115 0.753328 -4.17254 0
M  V30 2017 C 194.574 1.6111 -2.9588 0
M  V30 2018 O 195.104 2.71045 -2.96475 0
M  V30 2019 N 193.31 1.45054 -2.51809 0
M  V30 2020 H 192.857 0.556175 -2.51524 0
M  V30 2021 H 192.815 2.25453 -2.1913 0
M  V30 2022 N 196.587 1.43421 -0.653314 0
M  V30 2023 C 197.833 2.02111 -0.166992 0
M  V30 2024 C 198.166 1.51423 1.21592 0
M  V30 2025 O 197.441 0.707389 1.8118 0
M  V30 2026 C 197.724 3.5966 -0.177948 0
M  V30 2027 C 197.577 4.20579 -1.59478 0
M  V30 2028 C 198.896 4.37413 0.4856 0
M  V30 2029 H 196.015 0.734374 -0.0621557 0
M  V30 2030 H 198.657 1.70717 -0.834016 0
M  V30 2031 H 196.807 3.86537 0.390032 0
M  V30 2032 H 198.479 4.04732 -2.21336 0
M  V30 2033 H 196.722 3.77226 -2.14204 0
M  V30 2034 H 197.393 5.29665 -1.5543 0
M  V30 2035 H 199.869 4.161 0.00234528 0
M  V30 2036 H 198.745 5.47075 0.447207 0
M  V30 2037 H 199.006 4.13672 1.55974 0
M  V30 2038 N 198.065 0.39524 1.52563 0
M  V30 2039 C 199.476 -0.0774719 1.86539 0
M  V30 2040 C 199.827 -1.45641 1.31466 0
M  V30 2041 O 198.952 -2.06459 0.648367 0
M  V30 2042 C 199.547 -0.147356 3.38479 0
M  V30 2043 C 198.106 -0.564373 3.72145 0
M  V30 2044 C 197.253 0.269919 2.75983 0
M  V30 2045 H 200.204 0.612876 1.46388 0
M  V30 2046 H 200.225 -0.965343 3.68051 0
M  V30 2047 H 199.737 0.856387 3.78534 0
M  V30 2048 H 197.838 -1.57527 3.37663 0
M  V30 2049 H 197.951 -0.318402 4.78041 0
M  V30 2050 H 196.315 -0.265696 2.5331 0
M  V30 2051 H 197.098 1.27175 3.18875 0
M  V30 2052 N 199.544 -1.57102 0.125237 0
M  V30 2053 C 200.492 -2.16905 -0.839927 0
M  V30 2054 C 201.486 -1.11998 -1.27094 0
M  V30 2055 O 202.692 -1.3029 -1.24195 0
M  V30 2056 H 199.067 -0.694252 -0.288995 0
M  V30 2057 H 201.038 -2.96774 -0.311115 0
M  V30 2058 C 199.787 -2.78795 -2.07771 0
M  V30 2059 H 199.11 -3.59221 -1.755 0
M  V30 2060 H 200.55 -3.2417 -2.73295 0
M  V30 2061 C 199.009 -1.76193 -2.87155 0
M  V30 2062 O 199.539 -1.21909 -3.82755 0
M  V30 2063 N 197.745 -1.45991 -2.51267 0
M  V30 2064 H 197.292 -1.90325 -1.73592 0
M  V30 2065 H 197.25 -0.775844 -3.04677 0
M  V30 2066 N 201.022 0.148545 -1.56898 0
M  V30 2067 C 202.433 0.708766 -1.72723 0
M  V30 2068 C 202.784 1.81734 -0.739395 0
M  V30 2069 O 201.909 2.16194 0.0943169 0
M  V30 2070 C 202.504 1.29245 -3.13179 0
M  V30 2071 C 201.063 1.79925 -3.30611 0
M  V30 2072 C 200.21 0.687111 -2.68652 0
M  V30 2073 H 203.161 -0.0771063 -1.58513 0
M  V30 2074 H 203.182 2.16224 -3.13093 0
M  V30 2075 H 202.694 0.485382 -3.85053 0
M  V30 2076 H 200.795 2.63203 -2.63732 0
M  V30 2077 H 200.908 1.92903 -4.38549 0
M  V30 2078 H 199.272 1.11335 -2.29078 0
M  V30 2079 H 200.055 -0.108483 -3.43129 0
M  V30 2080 N 202.5 1.5196 0.417844 0
M  V30 2081 C 203.749 1.6482 1.16264 0
M  V30 2082 C 204.062 0.379886 1.91876 0
M  V30 2083 O 205.268 0.388154 2.68711 0
M  V30 2084 C 203.724 2.91161 2.1155 0
M  V30 2085 C 203.332 4.25068 1.41495 0
M  V30 2086 C 205.076 3.13383 2.86341 0
M  V30 2087 C 202.983 5.42541 2.35379 0
M  V30 2088 H 201.913 0.613954 0.437694 0
M  V30 2089 H 204.564 1.78442 0.427871 0
M  V30 2090 H 202.946 2.71218 2.88543 0
M  V30 2091 H 204.12 4.55463 0.699263 0
M  V30 2092 H 202.435 4.0888 0.787792 0
M  V30 2093 H 205.032 3.98324 3.5671 0
M  V30 2094 H 205.375 2.27256 3.48798 0
M  V30 2095 H 205.908 3.33757 2.1645 0
M  V30 2096 H 202.647 6.30987 1.77582 0
M  V30 2097 H 202.167 5.16497 3.04945 0
M  V30 2098 H 203.846 5.75272 2.96093 0
M  V30 2099 N 203.978 -0.674533 1.42435 0
M  V30 2100 C 205.208 -1.46071 1.46105 0
M  V30 2101 C 205.616 -1.89067 0.0709605 0
M  V30 2102 O 204.959 -1.58731 -0.924677 0
M  V30 2103 C 205.021 -2.74145 2.32561 0
M  V30 2104 C 204.685 -2.53224 3.8043 0
M  V30 2105 C 205.682 -2.17809 4.72075 0
M  V30 2106 C 203.367 -2.6821 4.24698 0
M  V30 2107 C 205.361 -1.97648 6.05982 0
M  V30 2108 C 203.048 -2.47665 5.58664 0
M  V30 2109 C 204.046 -2.12437 6.49122 0
M  V30 2110 O 203.734 -1.9209 7.80613 0
M  V30 2111 H 203.466 -0.455959 0.499076 0
M  V30 2112 H 206.02 -0.836193 1.87609 0
M  V30 2113 H 204.25 -3.3908 1.85908 0
M  V30 2114 H 205.939 -3.36028 2.27683 0
M  V30 2115 H 206.705 -2.05826 4.39159 0
M  V30 2116 H 202.584 -2.94609 3.54579 0
M  V30 2117 H 206.128 -1.70075 6.7655 0
M  V30 2118 H 202.025 -2.59244 5.91154 0
M  V30 2119 H 202.793 -2.06686 7.91974 0
M  V30 2120 N 205.456 -1.28612 -0.910864 0
M  V30 2121 C 206.389 -1.07109 -2.01502 0
M  V30 2122 C 207.367 0.013706 -1.62594 0
M  V30 2123 O 208.551 -0.134796 -1.88017 0
M  V30 2124 C 205.678 -0.628255 -3.32822 0
M  V30 2125 C 204.724 -1.71012 -3.90714 0
M  V30 2126 S 205.557 -3.30676 -4.21205 0
M  V30 2127 C 206.713 -2.88234 -5.55583 0
M  V30 2128 H 206.946 -2.00591 -2.19432 0
M  V30 2129 H 204.479 -1.12633 -1.05609 0
M  V30 2130 H 206.437 -0.37946 -4.08742 0
M  V30 2131 H 205.098 0.28678 -3.12788 0
M  V30 2132 H 204.291 -1.35195 -4.85529 0
M  V30 2133 H 203.893 -1.91186 -3.21441 0
M  V30 2134 H 206.185 -2.34584 -6.35591 0
M  V30 2135 H 207.128 -3.81857 -5.96314 0
M  V30 2136 H 207.536 -2.26862 -5.16908 0
M  V30 2137 N 206.934 1.1197 -1.10907 0
M  V30 2138 C 207.866 2.17592 -0.720175 0
M  V30 2139 C 208.879 1.60938 0.245495 0
M  V30 2140 O 210.068 1.78476 0.0292245 0
M  V30 2141 C 207.168 3.38873 -0.0427917 0
M  V30 2142 C 206.341 4.25006 -1.03388 0
M  V30 2143 C 205.4 5.24774 -0.387075 0
M  V30 2144 O 204.426 5.59631 -1.03934 0
M  V30 2145 N 205.628 5.74208 0.852407 0
M  V30 2146 H 208.393 2.51567 -1.62893 0
M  V30 2147 H 205.954 1.27439 -0.998543 0
M  V30 2148 H 207.946 4.02703 0.401501 0
M  V30 2149 H 206.516 3.03007 0.768456 0
M  V30 2150 H 205.736 3.57716 -1.65629 0
M  V30 2151 H 207.024 4.79397 -1.70458 0
M  V30 2152 H 206.422 5.48062 1.40161 0
M  V30 2153 H 204.979 6.39901 1.23977 0
M  V30 2154 N 208.412 0.89855 1.29475 0
M  V30 2155 C 209.66 0.522847 1.9522 0
M  V30 2156 C 209.981 -0.93371 1.71192 0
M  V30 2157 O 209.251 -1.65823 1.04305 0
M  V30 2158 H 207.831 0.190366 0.722336 0
M  V30 2159 H 210.493 1.14459 1.5775 0
M  V30 2160 H 209.589 0.704476 3.04045 0
M  V30 2161 N 209.89 -1.43072 0.660911 0
M  V30 2162 C 211.306 -1.56169 0.329173 0
M  V30 2163 C 211.506 -1.64317 -1.16629 0
M  V30 2164 O 210.562 -1.60245 -1.95135 0
M  V30 2165 C 211.875 -2.81873 1.04729 0
M  V30 2166 C 213.423 -2.95627 1.02828 0
M  V30 2167 C 213.898 -4.24174 1.72744 0
M  V30 2168 N 215.389 -4.31055 1.69545 0
M  V30 2169 C 216.124 -5.29304 2.20511 0
M  V30 2170 N 215.62 -6.33786 2.79799 0
M  V30 2171 N 217.413 -5.21008 2.10966 0
M  V30 2172 H 209.564 -1.36027 1.63127 0
M  V30 2173 H 211.827 -0.653823 0.686454 0
M  V30 2174 H 211.533 -2.81942 2.10242 0
M  V30 2175 H 211.407 -3.72338 0.603702 0
M  V30 2176 H 213.794 -2.95094 -0.0184742 0
M  V30 2177 H 213.875 -2.06431 1.51063 0
M  V30 2178 H 213.519 -4.25467 2.7738 0
M  V30 2179 H 213.449 -5.1228 1.2197 0
M  V30 2180 H 215.94 -3.56174 1.26288 0
M  V30 2181 H 216.253 -7.05086 3.16344 0
M  V30 2182 H 214.598 -6.34387 2.83863 0
M  V30 2183 H 217.789 -4.38301 1.64347 0
M  V30 2184 H 217.962 -5.97416 2.50993 0
M  V30 2185 N 211.368 -0.403325 -1.52352 0
M  V30 2186 C 212.3 0.4603 -2.2453 0
M  V30 2187 C 213.313 1.01505 -1.27282 0
M  V30 2188 O 214.502 0.914982 -1.53266 0
M  V30 2189 C 211.602 1.65208 -2.95905 0
M  V30 2190 C 210.775 1.22224 -4.19976 0
M  V30 2191 C 209.834 2.28028 -4.74226 0
M  V30 2192 O 208.86 1.88857 -5.36956 0
M  V30 2193 N 210.062 3.6012 -4.55295 0
M  V30 2194 H 212.827 -0.158156 -2.99282 0
M  V30 2195 H 210.388 -0.230402 -1.60252 0
M  V30 2196 H 212.38 2.35541 -3.29093 0
M  V30 2197 H 210.95 2.17658 -2.24374 0
M  V30 2198 H 210.17 0.34725 -3.92668 0
M  V30 2199 H 211.458 0.911924 -5.00561 0
M  V30 2200 H 210.856 3.94698 -4.05253 0
M  V30 2201 H 209.413 4.26447 -4.92936 0
M  V30 2202 N 212.846 1.57033 -0.133567 0
M  V30 2203 C 214.093 1.95686 0.520877 0
M  V30 2204 C 214.421 1.0177 1.6575 0
M  V30 2205 O 213.676 0.0443195 1.9565 0
M  V30 2206 C 213.975 3.40674 1.08057 0
M  V30 2207 C 213.641 4.50855 0.0637899 0
M  V30 2208 C 212.303 4.80716 -0.215757 0
M  V30 2209 C 214.655 5.17398 -0.62835 0
M  V30 2210 C 211.983 5.74433 -1.19348 0
M  V30 2211 C 214.335 6.12167 -1.5948 0
M  V30 2212 C 212.999 6.40414 -1.88218 0
M  V30 2213 H 212.269 0.716067 0.190602 0
M  V30 2214 H 214.916 1.9026 -0.217556 0
M  V30 2215 H 213.221 3.42865 1.89606 0
M  V30 2216 H 214.918 3.67902 1.59529 0
M  V30 2217 H 211.508 4.27605 0.291855 0
M  V30 2218 H 215.692 4.94472 -0.425562 0
M  V30 2219 H 210.948 5.94616 -1.42272 0
M  V30 2220 H 215.122 6.6281 -2.13671 0
M  V30 2221 H 212.749 7.12838 -2.64133 0
M  V30 2222 N 214.325 -0.140222 1.56975 0
M  V30 2223 C 215.275 -1.17827 1.95194 0
M  V30 2224 C 216.259 -1.38195 0.824075 0
M  V30 2225 O 217.451 -1.39643 1.0876 0
M  V30 2226 C 214.58 -2.51024 2.34184 0
M  V30 2227 C 213.666 -2.3422 3.53556 0
M  V30 2228 N 214.057 -1.87185 4.69889 0
M  V30 2229 C 212.355 -2.64949 3.58773 0
M  V30 2230 C 213.056 -1.83586 5.5197 0
M  V30 2231 N 212.032 -2.2715 4.93866 0
M  V30 2232 H 215.834 -0.806817 2.82609 0
M  V30 2233 H 213.348 -0.348208 1.58623 0
M  V30 2234 H 215.345 -3.26074 2.59772 0
M  V30 2235 H 214.005 -2.88945 1.48124 0
M  V30 2236 H 215.016 -1.57048 4.93514 0
M  V30 2237 H 211.693 -3.067 2.8327 0
M  V30 2238 H 213.083 -1.48655 6.55249 0
M  V30 2239 N 215.803 -1.52179 -0.40978 0
M  V30 2240 C 217.08 -1.56769 -1.16974 0
M  V30 2241 C 217.46 -0.348322 -2.08206 0
M  V30 2242 O 216.808 0.664862 -2.18613 0
M  V30 2243 C 217.018 -2.89603 -1.9476 0
M  V30 2244 C 218.366 -3.42579 -2.50849 0
M  V30 2245 O 219.39 -2.91338 -2.04941 0
M  V30 2246 O 218.249 -4.32054 -3.34652 0
M  V30 2247 H 215.343 -0.631439 -0.534054 0
M  V30 2248 H 217.889 -1.64507 -0.416613 0
M  V30 2249 H 216.661 -3.698 -1.27921 0
M  V30 2250 H 216.284 -2.85155 -2.77079 0
M  V30 2251 N 217.281 0.66697 -1.42791 0
M  V30 2252 C 218.53 1.42278 -1.42968 0
M  V30 2253 C 218.843 1.9553 -0.0524489 0
M  V30 2254 O 220.049 2.71414 0.068363 0
M  V30 2255 C 218.505 2.57418 -2.51524 0
M  V30 2256 C 218.113 2.10832 -3.9529 0
M  V30 2257 C 219.857 3.34878 -2.60877 0
M  V30 2258 C 217.764 3.23101 -4.95338 0
M  V30 2259 H 216.694 0.534533 -0.531781 0
M  V30 2260 H 219.345 0.721302 -1.68729 0
M  V30 2261 H 217.727 3.29971 -2.18941 0
M  V30 2262 H 218.901 1.4538 -4.37266 0
M  V30 2263 H 217.216 1.46289 -3.89857 0
M  V30 2264 H 219.813 4.18505 -3.32802 0
M  V30 2265 H 220.156 3.81993 -1.6549 0
M  V30 2266 H 220.689 2.69398 -2.92693 0
M  V30 2267 H 217.428 2.80969 -5.9223 0
M  V30 2268 H 216.948 3.87309 -4.57987 0
M  V30 2269 H 218.627 3.88447 -5.17415 0
M  V30 2270 N 218.759 1.29093 0.90403 0
M  V30 2271 C 219.689 1.16401 2.02418 0
M  V30 2272 C 220.67 0.0593085 1.69997 0
M  V30 2273 O 221.855 0.238021 1.92736 0
M  V30 2274 C 218.985 0.835233 3.37107 0
M  V30 2275 C 217.939 1.89578 3.83724 0
M  V30 2276 C 217.265 1.42041 5.15489 0
M  V30 2277 C 218.565 3.30394 4.04521 0
M  V30 2278 H 220.259 2.10109 2.13295 0
M  V30 2279 H 217.805 1.01157 1.02486 0
M  V30 2280 H 219.758 0.733169 4.14973 0
M  V30 2281 H 218.482 -0.137543 3.2631 0
M  V30 2282 H 217.141 1.98715 3.08071 0
M  V30 2283 H 216.789 0.436426 5.01103 0
M  V30 2284 H 216.489 2.12964 5.4765 0
M  V30 2285 H 218.013 1.33176 5.959 0
M  V30 2286 H 219.427 3.24123 4.72882 0
M  V30 2287 H 217.824 3.99237 4.48029 0
M  V30 2288 H 218.894 3.73692 3.09002 0
M  V30 2289 N 220.237 -1.11381 1.11499 0
M  V30 2290 C 221.17 -2.16621 0.71769 0
M  V30 2291 C 222.148 -1.60058 -0.286413 0
M  V30 2292 O 223.332 -1.87613 -0.182689 0
M  V30 2293 C 220.459 -3.38646 0.0607265 0
M  V30 2294 C 219.505 -4.13874 1.03008 0
M  V30 2295 S 220.338 -4.70731 2.55289 0
M  V30 2296 C 221.494 -5.96079 1.90895 0
M  V30 2297 H 221.727 -2.49987 1.60915 0
M  V30 2298 H 219.26 -1.23015 0.933092 0
M  V30 2299 H 221.218 -4.09313 -0.311965 0
M  V30 2300 H 219.879 -3.03537 -0.807702 0
M  V30 2301 H 219.072 -5.01333 0.517853 0
M  V30 2302 H 218.674 -3.4897 1.34522 0
M  V30 2303 H 220.966 -6.65948 1.24577 0
M  V30 2304 H 221.909 -6.51946 2.76354 0
M  V30 2305 H 222.317 -5.47652 1.36885 0
M  V30 2306 N 221.715 -0.905404 -1.28997 0
M  V30 2307 C 222.662 -0.385892 -2.27551 0
M  V30 2308 C 223.632 0.535113 -1.57244 0
M  V30 2309 O 224.817 0.459119 -1.85194 0
M  V30 2310 C 221.957 0.375461 -3.43051 0
M  V30 2311 C 221.07 -0.577092 -4.28128 0
M  V30 2312 C 220.205 0.201879 -5.30816 0
M  V30 2313 C 219.244 -0.744829 -6.07551 0
M  V30 2314 N 218.381 9.42587e-05 -7.021 0
M  V30 2315 H 223.221 -1.23139 -2.71368 0
M  V30 2316 H 220.758 -0.618542 -1.33463 0
M  V30 2317 H 222.716 0.832992 -4.088 0
M  V30 2318 H 221.346 1.18537 -3.00248 0
M  V30 2319 H 220.398 -1.15315 -3.62501 0
M  V30 2320 H 221.71 -1.30152 -4.8152 0
M  V30 2321 H 220.864 0.720351 -6.02408 0
M  V30 2322 H 219.603 0.959413 -4.7817 0
M  V30 2323 H 218.608 -1.27475 -5.34818 0
M  V30 2324 H 219.833 -1.50178 -6.62286 0
M  V30 2325 H 217.779 0.739791 -6.51815 0
M  V30 2326 H 217.696 -0.664321 -7.53076 0
M  V30 2327 H 218.964 0.498644 -7.77903 0
M  V30 2328 N 223.193 1.4272 -0.668489 0
M  V30 2329 C 224.439 2.01923 -0.188419 0
M  V30 2330 C 224.772 1.52704 1.19979 0
M  V30 2331 O 224.047 0.726566 1.8042 0
M  V30 2332 C 224.33 3.59451 -0.216085 0
M  V30 2333 C 224.183 4.18864 -1.6393 0
M  V30 2334 C 225.502 4.37903 0.439179 0
M  V30 2335 H 222.621 0.733674 -0.0699412 0
M  V30 2336 H 225.263 1.69822 -0.852076 0
M  V30 2337 H 223.413 3.86929 0.349012 0
M  V30 2338 H 225.085 4.02362 -2.25616 0
M  V30 2339 H 223.328 3.74933 -2.18193 0
M  V30 2340 H 223.999 5.27987 -1.61039 0
M  V30 2341 H 226.475 4.16079 -0.0417878 0
M  V30 2342 H 225.351 5.47519 0.389157 0
M  V30 2343 H 225.612 4.15303 1.51577 0
M  V30 2344 N 224.671 0.411399 1.52136 0
M  V30 2345 C 226.082 -0.0576826 1.86611 0
M  V30 2346 C 226.433 -1.44238 1.33003 0
M  V30 2347 O 225.558 -2.05759 0.670228 0
M  V30 2348 C 226.153 -0.111448 3.38617 0
M  V30 2349 C 224.712 -0.52487 3.72723 0
M  V30 2350 C 223.859 0.299176 2.75681 0
M  V30 2351 H 226.81 0.628368 1.4573 0
M  V30 2352 H 226.831 -0.926252 3.69054 0
M  V30 2353 H 226.343 0.896488 3.77604 0
M  V30 2354 H 224.444 -1.53936 3.39315 0
M  V30 2355 H 224.557 -0.267681 4.78352 0
M  V30 2356 H 222.921 -0.238814 2.53578 0
M  V30 2357 H 223.704 1.3055 3.17508 0
M  V30 2358 N 226.149 -1.5696 0.141893 0
M  V30 2359 C 227.079 -2.19516 -0.795936 0
M  V30 2360 C 228.06 -1.14187 -1.26077 0
M  V30 2361 O 229.245 -1.42511 -1.31925 0
M  V30 2362 C 226.375 -2.81272 -2.03723 0
M  V30 2363 C 225.329 -3.92384 -1.70936 0
M  V30 2364 C 224.655 -4.41052 -3.02287 0
M  V30 2365 C 225.955 -5.13403 -0.959954 0
M  V30 2366 H 227.649 -2.98138 -0.274596 0
M  V30 2367 H 225.195 -1.43406 -0.130636 0
M  V30 2368 H 227.148 -3.237 -2.69808 0
M  V30 2369 H 225.872 -1.99973 -2.58221 0
M  V30 2370 H 224.531 -3.50566 -1.07232 0
M  V30 2371 H 224.179 -3.56582 -3.54765 0
M  V30 2372 H 223.879 -5.15993 -2.81114 0
M  V30 2373 H 225.403 -4.86146 -3.69451 0
M  V30 2374 H 226.817 -5.52706 -1.52279 0
M  V30 2375 H 225.214 -5.94073 -0.848357 0
M  V30 2376 H 226.284 -4.84875 0.0492434 0
M  V30 2377 N 227.627 0.131896 -1.57047 0
M  V30 2378 C 228.904 0.871495 -1.75112 0
M  V30 2379 C 229.284 1.9866 -0.713949 0
M  V30 2380 O 228.632 2.26965 0.264447 0
M  V30 2381 C 228.842 1.40007 -3.19686 0
M  V30 2382 C 230.19 1.85752 -3.81813 0
M  V30 2383 O 231.214 1.49715 -3.23209 0
M  V30 2384 O 230.073 2.5226 -4.84796 0
M  V30 2385 H 227.167 0.412919 -0.716538 0
M  V30 2386 H 229.713 0.116641 -1.69299 0
M  V30 2387 H 228.485 0.599404 -3.86682 0
M  V30 2388 H 228.108 2.218 -3.29986 0
M  V30 2389 N 229.106 1.52395 0.401703 0
M  V30 2390 C 230.054 1.7689 1.51039 0
M  V30 2391 C 231.048 0.636298 1.56996 0
M  V30 2392 O 232.254 0.818507 1.60314 0
M  V30 2393 H 228.629 0.559502 0.502456 0
M  V30 2394 H 230.6 2.69757 1.27568 0
M  V30 2395 C 229.349 1.94331 2.88324 0
M  V30 2396 H 228.672 2.80905 2.84486 0
M  V30 2397 H 230.112 2.15466 3.65172 0
M  V30 2398 C 228.571 0.712396 3.29282 0
M  V30 2399 O 229.101 -0.116218 4.01532 0
M  V30 2400 N 227.307 0.546154 2.85422 0
M  V30 2401 H 226.854 1.22156 2.26794 0
M  V30 2402 H 226.812 -0.276113 3.13185 0
M  V30 2403 N 230.584 -0.659388 1.43143 0
M  V30 2404 C 231.532 -1.79374 1.4808 0
M  V30 2405 C 232.526 -1.65639 0.354988 0
M  V30 2406 O 233.732 -1.7206 0.528704 0
M  V30 2407 H 230.107 -0.591705 0.4641 0
M  V30 2408 H 232.078 -1.72329 2.43609 0
M  V30 2409 C 230.827 -3.17606 1.41499 0
M  V30 2410 H 230.15 -3.28809 2.27431 0
M  V30 2411 H 231.59 -3.96951 1.49015 0
M  V30 2412 C 230.049 -3.36642 0.131765 0
M  V30 2413 O 230.579 -3.93461 -0.809386 0
M  V30 2414 N 228.785 -2.90567 0.0439396 0
M  V30 2415 H 228.332 -2.44513 0.810619 0
M  V30 2416 H 228.29 -3.03681 -0.813969 0
M  V30 2417 N 232.062 -1.29571 -0.897171 0
M  V30 2418 C 233.339 -1.08365 -1.62839 0
M  V30 2419 C 233.719 0.371331 -2.07808 0
M  V30 2420 O 233.067 1.3606 -1.83576 0
M  V30 2421 C 233.277 -2.0735 -2.80726 0
M  V30 2422 C 234.625 -2.38406 -3.51351 0
M  V30 2423 O 235.649 -2.05564 -2.90898 0
M  V30 2424 O 234.508 -2.9453 -4.60341 0
M  V30 2425 H 231.602 -0.415345 -0.715134 0
M  V30 2426 H 234.148 -1.40952 -0.945018 0
M  V30 2427 H 232.92 -3.05339 -2.44711 0
M  V30 2428 H 232.543 -1.75507 -3.56767 0
M  V30 2429 N 233.54 1.10788 -1.12088 0
M  V30 2430 C 234.47 2.19083 -0.807755 0
M  V30 2431 C 235.451 1.6858 0.226859 0
M  V30 2432 O 236.636 1.93997 0.0888475 0
M  V30 2433 C 233.766 3.46344 -0.257576 0
M  V30 2434 C 232.72 4.101 -1.22483 0
M  V30 2435 C 232.046 5.32016 -0.535052 0
M  V30 2436 C 233.346 4.54236 -2.57811 0
M  V30 2437 H 235.04 2.45534 -1.71328 0
M  V30 2438 H 232.586 1.1801 -0.825205 0
M  V30 2439 H 234.539 4.21392 -0.0262679 0
M  V30 2440 H 233.263 3.19373 0.683278 0
M  V30 2441 H 231.922 3.37054 -1.44189 0
M  V30 2442 H 231.57 5.01319 0.410827 0
M  V30 2443 H 231.27 5.75625 -1.18024 0
M  V30 2444 H 232.794 6.09799 -0.312695 0
M  V30 2445 H 234.208 5.20575 -2.40155 0
M  V30 2446 H 232.605 5.08682 -3.18375 0
M  V30 2447 H 233.675 3.6734 -3.16528 0
M  V30 2448 N 235.018 0.912232 1.28515 0
M  V30 2449 C 236.267 0.540504 1.94323 0
M  V30 2450 C 236.58 -0.920044 1.72611 0
M  V30 2451 O 237.786 -1.39986 2.32629 0
M  V30 2452 C 236.242 0.915803 3.48053 0
M  V30 2453 C 235.85 2.39598 3.78546 0
M  V30 2454 C 237.594 0.614588 4.20027 0
M  V30 2455 C 235.501 2.71148 5.25578 0
M  V30 2456 H 234.431 0.198418 0.727424 0
M  V30 2457 H 237.082 1.11094 1.46049 0
M  V30 2458 H 235.464 0.274168 3.9505 0
M  V30 2459 H 236.638 3.08422 3.42364 0
M  V30 2460 H 234.953 2.66749 3.1974 0
M  V30 2461 H 237.55 0.827002 5.28266 0
M  V30 2462 H 237.893 -0.447531 4.13887 0
M  V30 2463 H 238.426 1.21462 3.78803 0
M  V30 2464 H 235.165 3.76207 5.36794 0
M  V30 2465 H 234.685 2.0696 5.62963 0
M  V30 2466 H 236.364 2.58072 5.93302 0
M  V30 2467 N 236.496 -1.42363 0.676048 0
M  V30 2468 C 237.773 -1.95183 0.127726 0
M  V30 2469 C 238.153 -1.61641 -1.35777 0
M  V30 2470 O 237.501 -0.913216 -2.09458 0
M  V30 2471 C 237.711 -3.46721 0.398199 0
M  V30 2472 C 239.059 -4.23427 0.315383 0
M  V30 2473 O 240.083 -3.54649 0.332016 0
M  V30 2474 O 238.942 -5.45888 0.25865 0
M  V30 2475 H 236.036 -0.826992 0.00359427 0
M  V30 2476 H 238.582 -1.52184 0.750864 0
M  V30 2477 H 237.354 -3.64344 1.4272 0
M  V30 2478 H 236.977 -3.96769 -0.256885 0
M  V30 2479 N 237.974 -0.419461 -1.51915 0
M  V30 2480 C 239.202 0.152136 -2.0634 0
M  V30 2481 C 239.617 1.37988 -1.28859 0
M  V30 2482 O 238.974 1.79243 -0.343232 0
M  V30 2483 C 239.025 0.492266 -3.58133 0
M  V30 2484 O 238.746 -0.686736 -4.32684 0
M  V30 2485 C 240.247 1.11648 -4.2901 0
M  V30 2486 H 237.467 0.0158325 -0.670813 0
M  V30 2487 H 240.011 -0.593394 -1.95702 0
M  V30 2488 H 238.166 1.18769 -3.68745 0
M  V30 2489 H 238.58 -0.400341 -5.2297 0
M  V30 2490 H 240.054 1.3046 -5.36362 0
M  V30 2491 H 240.531 2.09251 -3.86148 0
M  V30 2492 H 241.137 0.460958 -4.22795 0
M  V30 2493 N 239.452 1.56882 -0.150215 0
M  V30 2494 C 240.698 1.97299 0.494427 0
M  V30 2495 C 241.053 1.0338 1.62266 0
M  V30 2496 O 240.346 0.0694497 1.91474 0
M  V30 2497 C 240.54 3.41801 1.04437 0
M  V30 2498 C 240.369 4.49691 -0.0290451 0
M  V30 2499 C 239.139 5.03095 -0.47156 0
M  V30 2500 C 241.337 5.07693 -0.821703 0
M  V30 2501 N 239.319 5.94593 -1.52749 0
M  V30 2502 C 240.69 5.95431 -1.72805 0
M  V30 2503 C 242.745 4.90256 -0.869134 0
M  V30 2504 C 241.448 6.67599 -2.67777 0
M  V30 2505 C 243.474 5.63127 -1.8067 0
M  V30 2506 C 242.836 6.50576 -2.70057 0
M  V30 2507 H 238.935 0.76755 0.149639 0
M  V30 2508 H 241.519 1.93145 -0.24556 0
M  V30 2509 H 239.69 3.46541 1.75396 0
M  V30 2510 H 241.422 3.69272 1.6559 0
M  V30 2511 H 238.177 4.73543 -0.0732101 0
M  V30 2512 H 238.601 6.45047 -2.05531 0
M  V30 2513 H 243.243 4.22363 -0.192134 0
M  V30 2514 H 240.961 7.34717 -3.36476 0
M  V30 2515 H 244.547 5.51629 -1.84924 0
M  V30 2516 H 243.427 7.05974 -3.41424 0
M  V30 2517 N 240.93 -0.123565 1.57115 0
M  V30 2518 C 241.84 -1.17074 2.033 0
M  V30 2519 C 242.856 -1.4561 0.952559 0
M  V30 2520 O 244.032 -1.56817 1.26374 0
M  V30 2521 C 241.097 -2.47857 2.42421 0
M  V30 2522 C 240.158 -2.26758 3.64526 0
M  V30 2523 C 239.391 -3.51305 4.01771 0
M  V30 2524 O 239.614 -4.5843 3.39409 0
M  V30 2525 O 238.548 -3.42578 4.94898 0
M  V30 2526 H 242.374 -0.808555 2.92739 0
M  V30 2527 H 239.959 -0.334027 1.45618 0
M  V30 2528 H 241.841 -3.2492 2.68338 0
M  V30 2529 H 240.516 -2.83558 1.5613 0
M  V30 2530 H 239.423 -1.47569 3.43765 0
M  V30 2531 H 240.756 -1.95963 4.51508 0
M  V30 2532 N 242.408 -1.52605 -0.393616 0
M  V30 2533 C 243.656 -1.67093 -1.13685 0
M  V30 2534 C 243.977 -0.411011 -1.90619 0
M  V30 2535 O 243.247 0.574491 -1.87287 0
M  V30 2536 H 241.827 -0.615923 -0.422668 0
M  V30 2537 H 244.489 -1.89704 -0.447039 0
M  V30 2538 H 243.585 -2.51922 -1.84232 0
M  V30 2539 N 243.887 0.651787 -1.4349 0
M  V30 2540 C 245.115 1.43937 -1.48626 0
M  V30 2541 C 245.53 1.8851 -0.104587 0
M  V30 2542 O 244.887 1.5958 0.885464 0
M  V30 2543 C 244.938 2.6734 -2.43334 0
M  V30 2544 O 244.659 2.24631 -3.76128 0
M  V30 2545 C 246.16 3.60683 -2.57726 0
M  V30 2546 H 243.38 0.44213 -0.504739 0
M  V30 2547 H 245.924 0.798944 -1.88248 0
M  V30 2548 H 244.079 3.2752 -2.06904 0
M  V30 2549 H 244.493 3.04485 -4.2707 0
M  V30 2550 H 245.967 4.43933 -3.28067 0
M  V30 2551 H 246.444 4.08126 -1.62265 0
M  V30 2552 H 247.05 3.06384 -2.94973 0
M  V30 2553 N 245.365 1.30045 0.890287 0
M  V30 2554 C 246.611 1.18737 1.64406 0
M  V30 2555 C 246.944 -0.258525 1.92472 0
M  V30 2556 O 246.219 -1.18562 1.54186 0
M  V30 2557 C 246.502 2.01087 2.98724 0
M  V30 2558 C 246.355 3.53867 2.77665 0
M  V30 2559 C 247.674 1.84457 3.9958 0
M  V30 2560 H 244.793 0.432698 0.596608 0
M  V30 2561 H 247.435 1.5962 1.0306 0
M  V30 2562 H 245.585 1.66349 3.51084 0
M  V30 2563 H 247.257 3.98637 2.32133 0
M  V30 2564 H 245.5 3.78318 2.12269 0
M  V30 2565 H 246.171 4.06772 3.7315 0
M  V30 2566 H 248.647 2.14817 3.56361 0
M  V30 2567 H 247.523 2.44411 4.91482 0
M  V30 2568 H 247.784 0.802276 4.3476 0
M  V30 2569 N 246.843 -1.10192 1.12674 0
M  V30 2570 C 247.79 -2.16606 0.796906 0
M  V30 2571 C 248.76 -1.64394 -0.237476 0
M  V30 2572 O 249.945 -1.90474 -0.111484 0
M  V30 2573 C 247.085 -3.44116 0.26043 0
M  V30 2574 C 246.198 -4.10268 1.35293 0
M  V30 2575 C 245.333 -5.25507 0.775621 0
M  V30 2576 C 244.372 -5.83567 1.84706 0
M  V30 2577 N 243.509 -6.90179 1.28829 0
M  V30 2578 H 248.349 -2.44163 1.70846 0
M  V30 2579 H 245.886 -1.19846 0.85295 0
M  V30 2580 H 247.844 -4.17143 -0.0686814 0
M  V30 2581 H 246.474 -3.16901 -0.614274 0
M  V30 2582 H 245.526 -3.35184 1.79877 0
M  V30 2583 H 246.838 -4.4946 2.16303 0
M  V30 2584 H 245.992 -6.05398 0.397327 0
M  V30 2585 H 244.731 -4.87656 -0.0656581 0
M  V30 2586 H 243.736 -5.02344 2.23452 0
M  V30 2587 H 244.961 -6.23482 2.69161 0
M  V30 2588 H 242.907 -6.54322 0.468881 0
M  V30 2589 H 242.824 -7.28097 2.03497 0
M  V30 2590 H 244.092 -7.73844 0.937311 0
M  V30 2591 N 248.321 -0.919034 -1.28029 0
M  V30 2592 C 249.284 -0.416182 -2.2539 0
M  V30 2593 C 250.284 0.460438 -1.54067 0
M  V30 2594 O 251.474 0.262744 -1.72207 0
M  V30 2595 C 248.606 0.402707 -3.38513 0
M  V30 2596 H 249.799 -1.27629 -2.71387 0
M  V30 2597 H 247.352 -0.698919 -1.39803 0
M  V30 2598 H 248.087 1.282 -2.97885 0
M  V30 2599 H 247.872 -0.225698 -3.9145 0
M  V30 2600 H 249.362 0.745191 -4.10897 0
M  V30 2601 N 249.799 1.42003 -0.683588 0
M  V30 2602 C 251.048 2.00638 -0.206681 0
M  V30 2603 C 251.361 1.5472 1.19671 0
M  V30 2604 O 252.567 2.05833 1.77045 0
M  V30 2605 C 251.023 3.58487 -0.318632 0
M  V30 2606 C 250.631 4.1339 -1.72663 0
M  V30 2607 C 252.375 4.24384 0.0991141 0
M  V30 2608 C 250.282 5.63633 -1.79087 0
M  V30 2609 H 249.212 0.750408 -0.0735107 0
M  V30 2610 H 251.863 1.62624 -0.850048 0
M  V30 2611 H 250.245 3.94047 0.392781 0
M  V30 2612 H 251.419 3.89273 -2.46583 0
M  V30 2613 H 249.734 3.59976 -2.09299 0
M  V30 2614 H 252.331 5.34652 0.0713833 0
M  V30 2615 H 252.674 4.00505 1.13586 0
M  V30 2616 H 253.207 3.93816 -0.561599 0
M  V30 2617 H 249.946 5.92323 -2.80774 0
M  V30 2618 H 249.466 5.89714 -1.09535 0
M  V30 2619 H 251.145 6.28201 -1.5483 0
M  V30 2620 N 251.277 0.427512 1.51691 0
M  V30 2621 C 252.525 -0.141948 2.01601 0
M  V30 2622 C 252.846 -1.44067 1.31414 0
M  V30 2623 O 252.116 -1.90763 0.445658 0
M  V30 2624 H 250.696 -0.0554468 0.744939 0
M  V30 2625 H 253.358 0.567968 1.86441 0
M  V30 2626 H 252.454 -0.324913 3.10404 0
M  V30 2627 N 252.755 -1.56801 0.158532 0
M  V30 2628 C 253.98 -2.01295 -0.499516 0
M  V30 2629 C 254.405 -1.03799 -1.56867 0
M  V30 2630 O 253.763 -0.0155162 -1.81293 0
M  V30 2631 C 253.811 -3.44469 -1.06647 0
M  V30 2632 O 252.915 -3.50012 -2.18095 0
M  V30 2633 H 252.256 -0.652884 -0.12099 0
M  V30 2634 H 254.786 -2.02958 0.258661 0
M  V30 2635 H 254.796 -3.8351 -1.39227 0
M  V30 2636 H 253.471 -4.14932 -0.283581 0
M  V30 2637 H 252.048 -3.22822 -1.86656 0
M  V30 2638 N 254.233 0.115231 -1.57178 0
M  V30 2639 C 255.461 0.836437 -1.89239 0
M  V30 2640 C 255.876 1.73256 -0.750175 0
M  V30 2641 O 255.233 1.80357 0.278832 0
M  V30 2642 C 255.284 1.66671 -3.20785 0
M  V30 2643 O 255.005 0.806652 -4.3061 0
M  V30 2644 C 256.506 2.49274 -3.66575 0
M  V30 2645 H 253.726 0.240253 -0.626514 0
M  V30 2646 H 256.27 0.0984932 -2.04263 0
M  V30 2647 H 254.425 2.35737 -3.0742 0
M  V30 2648 H 254.839 1.37969 -5.06028 0
M  V30 2649 H 256.313 3.03055 -4.6137 0
M  V30 2650 H 256.79 3.26807 -2.93417 0
M  V30 2651 H 257.396 1.85443 -3.82741 0
M  V30 2652 N 255.711 1.52812 0.385517 0
M  V30 2653 C 256.959 1.67694 1.12797 0
M  V30 2654 C 257.28 0.421115 1.90399 0
M  V30 2655 O 256.55 -0.564551 1.87589 0
M  V30 2656 H 255.13 0.618155 0.419396 0
M  V30 2657 H 257.792 1.89938 0.436972 0
M  V30 2658 H 256.888 2.52896 1.82894 0
M  V30 2659 N 257.189 -0.644168 1.43834 0
M  V30 2660 C 258.152 -1.73857 1.49353 0
M  V30 2661 C 259.152 -1.56315 0.377112 0
M  V30 2662 O 260.342 -1.62048 0.639226 0
M  V30 2663 C 257.474 -3.12819 1.35488 0
M  V30 2664 H 258.667 -1.70342 2.46827 0
M  V30 2665 H 256.22 -0.856652 1.30733 0
M  V30 2666 H 256.955 -3.2194 0.390569 0
M  V30 2667 H 256.74 -3.26958 2.16428 0
M  V30 2668 H 258.23 -3.92606 1.42302 0
M  V30 2669 N 258.668 -1.30515 -0.883378 0
M  V30 2670 C 259.915 -1.1943 -1.63532 0
M  V30 2671 C 260.243 0.250627 -1.92878 0
M  V30 2672 O 259.498 1.19556 -1.54935 0
M  V30 2673 C 259.797 -1.96994 -2.98209 0
M  V30 2674 C 259.463 -3.466 -2.88408 0
M  V30 2675 C 258.125 -3.87397 -2.85442 0
M  V30 2676 C 260.477 -4.41863 -2.76418 0
M  V30 2677 C 257.805 -5.21745 -2.68327 0
M  V30 2678 C 260.157 -5.7632 -2.60841 0
M  V30 2679 C 258.821 -6.16354 -2.56251 0
M  V30 2680 H 258.091 -0.437025 -0.598406 0
M  V30 2681 H 260.738 -1.61635 -1.02696 0
M  V30 2682 H 259.043 -1.47429 -3.63004 0
M  V30 2683 H 260.74 -1.85808 -3.55354 0
M  V30 2684 H 257.33 -3.14182 -2.91527 0
M  V30 2685 H 261.514 -4.11285 -2.77775 0
M  V30 2686 H 256.77 -5.51853 -2.63189 0
M  V30 2687 H 260.944 -6.49772 -2.50538 0
M  V30 2688 H 258.571 -7.20401 -2.42748 0
M  V30 2689 N 260.146 1.09593 -1.13257 0
M  V30 2690 C 261.094 2.18271 -0.803783 0
M  V30 2691 C 262.088 1.68054 0.213148 0
M  V30 2692 O 263.294 1.79862 0.0704699 0
M  V30 2693 H 259.669 0.711949 -0.242143 0
M  V30 2694 H 261.64 2.43235 -1.72856 0
M  V30 2695 C 260.389 3.46536 -0.28424 0
M  V30 2696 H 259.712 3.85545 -1.05807 0
M  V30 2697 H 261.152 4.23899 -0.0925945 0
M  V30 2698 C 259.611 3.22036 0.989684 0
M  V30 2699 O 260.141 3.44509 2.06584 0
M  V30 2700 N 258.347 2.7565 0.920086 0
M  V30 2701 H 257.894 2.57562 0.0442019 0
M  V30 2702 H 257.852 2.59635 1.77306 0
M  V30 2703 N 261.624 0.925811 1.2754 0
M  V30 2704 C 262.901 0.483726 1.89524 0
M  V30 2705 C 263.281 -1.03809 1.83812 0
M  V30 2706 O 262.629 -1.89143 1.28207 0
M  V30 2707 C 262.839 1.02769 3.33526 0
M  V30 2708 C 264.187 1.08703 4.10449 0
M  V30 2709 O 265.211 0.977175 3.42534 0
M  V30 2710 O 264.07 1.25599 5.31871 0
M  V30 2711 H 261.164 0.15529 0.812289 0
M  V30 2712 H 263.71 1.01738 1.35822 0
M  V30 2713 H 262.482 2.07155 3.31967 0
M  V30 2714 H 262.105 0.475567 3.94746 0
M  V30 2715 N 263.102 -1.41638 0.69111 0
M  V30 2716 C 264.348 -2.02104 0.229258 0
M  V30 2717 C 264.703 -1.53741 -1.15678 0
M  V30 2718 O 263.996 -0.736849 -1.76865 0
M  V30 2719 C 264.19 -3.56714 0.221277 0
M  V30 2720 C 264.019 -4.20083 1.605 0
M  V30 2721 C 262.789 -4.54566 2.20676 0
M  V30 2722 C 264.987 -4.46587 2.55078 0
M  V30 2723 N 262.969 -5.03199 3.5166 0
M  V30 2724 C 264.34 -4.96946 3.70735 0
M  V30 2725 C 266.395 -4.28593 2.53401 0
M  V30 2726 C 265.098 -5.31203 4.8499 0
M  V30 2727 C 267.124 -4.63936 3.66765 0
M  V30 2728 C 266.486 -5.14463 4.81152 0
M  V30 2729 H 262.585 -0.771256 0.12918 0
M  V30 2730 H 265.169 -1.72251 0.907626 0
M  V30 2731 H 263.34 -3.86051 -0.426562 0
M  V30 2732 H 265.072 -4.03896 -0.254983 0
M  V30 2733 H 261.827 -4.4087 1.73005 0
M  V30 2734 H 262.251 -5.31926 4.18789 0
M  V30 2735 H 266.893 -3.88771 1.66184 0
M  V30 2736 H 264.611 -5.69951 5.72871 0
M  V30 2737 H 268.197 -4.51677 3.66714 0
M  V30 2738 H 267.077 -5.41299 5.67419 0
M  V30 2739 N 264.58 -0.43555 -1.51462 0
M  V30 2740 C 265.829 0.133007 -2.01261 0
M  V30 2741 C 266.142 1.43942 -1.32439 0
M  V30 2742 O 267.348 2.09081 -1.73198 0
M  V30 2743 C 265.804 0.287581 -3.58749 0
M  V30 2744 C 265.412 -1.00829 -4.36506 0
M  V30 2745 C 267.156 0.810004 -4.167 0
M  V30 2746 C 265.063 -0.819454 -5.85695 0
M  V30 2747 H 263.993 0.0534822 -0.752101 0
M  V30 2748 H 266.644 -0.565038 -1.74584 0
M  V30 2749 H 265.026 1.04859 -3.81865 0
M  V30 2750 H 266.2 -1.77749 -4.25138 0
M  V30 2751 H 264.515 -1.45911 -3.89999 0
M  V30 2752 H 267.112 0.967743 -5.2587 0
M  V30 2753 H 267.455 1.79196 -3.75758 0
M  V30 2754 H 267.988 0.107357 -3.97655 0
M  V30 2755 H 264.727 -1.77374 -6.31046 0
M  V30 2756 H 264.247 -0.0900208 -5.99732 0
M  V30 2757 H 265.926 -0.471949 -6.45276 0
M  V30 2758 N 266.058 1.56714 -0.166846 0
M  V30 2759 C 267.474 1.58473 0.189372 0
M  V30 2760 C 267.674 1.18201 1.63189 0
M  V30 2761 O 266.73 0.891528 2.36237 0
M  V30 2762 C 268.043 3.00573 -0.0873872 0
M  V30 2763 C 269.591 3.1299 -0.0252443 0
M  V30 2764 C 270.066 4.57174 -0.274934 0
M  V30 2765 N 271.557 4.62665 -0.222553 0
M  V30 2766 C 272.292 5.72072 -0.389985 0
M  V30 2767 N 271.788 6.90054 -0.616229 0
M  V30 2768 N 273.581 5.61153 -0.326202 0
M  V30 2769 H 265.732 1.8118 -1.10849 0
M  V30 2770 H 267.995 0.839525 -0.440342 0
M  V30 2771 H 267.701 3.34497 -1.0865 0
M  V30 2772 H 267.575 3.72019 0.623037 0
M  V30 2773 H 269.962 2.78895 0.96444 0
M  V30 2774 H 270.043 2.43989 -0.768309 0
M  V30 2775 H 269.687 4.91976 -1.26181 0
M  V30 2776 H 269.617 5.24328 0.48869 0
M  V30 2777 H 272.108 3.77863 -0.0531512 0
M  V30 2778 H 272.421 7.69311 -0.733559 0
M  V30 2779 H 270.766 6.91927 -0.652791 0
M  V30 2780 H 273.957 4.67859 -0.150072 0
M  V30 2781 H 274.13 6.46364 -0.460116 0
M  V30 2782 N 267.536 -0.106894 1.57237 0
M  V30 2783 C 268.813 -0.843526 1.76477 0
M  V30 2784 C 269.193 -1.97499 0.745464 0
M  V30 2785 O 268.541 -2.27357 -0.228306 0
M  V30 2786 C 268.751 -1.34903 3.21873 0
M  V30 2787 C 270.099 -1.79654 3.8472 0
M  V30 2788 O 271.123 -1.44554 3.2555 0
M  V30 2789 O 269.982 -2.44515 4.88748 0
M  V30 2790 H 267.076 -0.401468 0.723016 0
M  V30 2791 H 269.622 -0.0896927 1.69463 0
M  V30 2792 H 268.394 -0.53781 3.87586 0
M  V30 2793 H 268.017 -2.16522 3.33473 0
M  V30 2794 N 269.014 -1.53014 -0.377408 0
M  V30 2795 C 270.261 -1.68623 -1.12128 0
M  V30 2796 C 270.589 -0.431997 -1.89642 0
M  V30 2797 O 269.844 0.585855 -1.86725 0
M  V30 2798 C 270.143 -2.87982 -2.11663 0
M  V30 2799 C 269.809 -4.24964 -1.50719 0
M  V30 2800 C 268.471 -4.62217 -1.33825 0
M  V30 2801 C 270.823 -5.10199 -1.06519 0
M  V30 2802 C 268.151 -5.82352 -0.712963 0
M  V30 2803 C 270.503 -6.30969 -0.453955 0
M  V30 2804 C 269.167 -6.66944 -0.272411 0
M  V30 2805 H 268.437 -0.617034 -0.410305 0
M  V30 2806 H 271.084 -1.8718 -0.404484 0
M  V30 2807 H 269.389 -2.63889 -2.89603 0
M  V30 2808 H 271.086 -2.97253 -2.6915 0
M  V30 2809 H 267.676 -3.95626 -1.64858 0
M  V30 2810 H 271.86 -4.81978 -1.18368 0
M  V30 2811 H 267.116 -6.08824 -0.560611 0
M  V30 2812 H 271.29 -6.96324 -0.103217 0
M  V30 2813 H 268.917 -7.59898 0.214181 0
M  V30 2814 N 270.492 0.636531 -1.44174 0
M  V30 2815 C 271.738 1.39649 -1.47884 0
M  V30 2816 C 272.093 1.92098 -0.107747 0
M  V30 2817 O 271.386 1.70391 0.876208 0
M  V30 2818 C 271.58 2.58309 -2.47005 0
M  V30 2819 C 271.409 2.17476 -3.93617 0
M  V30 2820 C 270.179 2.0501 -4.61843 0
M  V30 2821 C 272.377 1.76722 -4.82984 0
M  V30 2822 N 270.359 1.57683 -5.93304 0
M  V30 2823 C 271.73 1.40601 -6.03847 0
M  V30 2824 C 273.785 1.64054 -4.70096 0
M  V30 2825 C 272.488 0.930787 -7.13252 0
M  V30 2826 C 274.514 1.17937 -5.79521 0
M  V30 2827 C 273.876 0.827625 -6.99521 0
M  V30 2828 H 269.975 0.506027 -0.596205 0
M  V30 2829 H 272.559 0.730791 -1.80465 0
M  V30 2830 H 270.73 3.22514 -2.16423 0
M  V30 2831 H 272.462 3.25083 -2.41045 0
M  V30 2832 H 269.217 2.25294 -4.16581 0
M  V30 2833 H 269.641 1.36334 -6.63131 0
M  V30 2834 H 274.283 1.89882 -3.77762 0
M  V30 2835 H 272.001 0.660012 -8.054 0
M  V30 2836 H 275.587 1.08601 -5.71574 0
M  V30 2837 H 274.467 0.476231 -7.82753 0
M  V30 2838 N 271.97 1.30982 0.876444 0
M  V30 2839 C 273.217 1.20296 1.62896 0
M  V30 2840 C 273.545 -0.240395 1.93009 0
M  V30 2841 O 272.8 -1.18733 1.55567 0
M  V30 2842 C 273.099 1.98572 2.9716 0
M  V30 2843 C 272.765 3.48125 2.86566 0
M  V30 2844 C 271.427 3.88905 2.83383 0
M  V30 2845 C 273.779 4.43322 2.74071 0
M  V30 2846 C 271.107 5.2316 2.65556 0
M  V30 2847 C 273.459 5.77695 2.57781 0
M  V30 2848 C 272.123 6.17704 2.52979 0
M  V30 2849 H 271.393 0.440193 0.59608 0
M  V30 2850 H 274.04 1.62177 1.01837 0
M  V30 2851 H 272.345 1.49352 3.62217 0
M  V30 2852 H 274.042 1.8769 3.54364 0
M  V30 2853 H 270.632 3.15723 2.89856 0
M  V30 2854 H 274.816 4.12752 2.75589 0
M  V30 2855 H 270.072 5.53241 2.60259 0
M  V30 2856 H 274.246 6.51091 2.47089 0
M  V30 2857 H 271.873 7.21678 2.38924 0
M  V30 2858 N 273.449 -1.08991 1.13837 0
M  V30 2859 C 274.698 -1.80631 0.897509 0
M  V30 2860 C 275.011 -1.86872 -0.57777 0
M  V30 2861 O 276.217 -2.54866 -0.935701 0
M  V30 2862 C 274.673 -3.24517 1.55618 0
M  V30 2863 C 274.281 -3.26529 3.0673 0
M  V30 2864 C 276.025 -4.00882 1.3962 0
M  V30 2865 C 273.932 -4.64965 3.65461 0
M  V30 2866 H 272.862 -0.67691 0.332129 0
M  V30 2867 H 275.513 -1.2246 1.3666 0
M  V30 2868 H 273.895 -3.82778 1.01476 0
M  V30 2869 H 275.069 -2.78008 3.67489 0
M  V30 2870 H 273.384 -2.63656 3.22296 0
M  V30 2871 H 275.981 -5.03167 1.80906 0
M  V30 2872 H 276.324 -4.14896 0.341578 0
M  V30 2873 H 276.857 -3.49075 1.90766 0
M  V30 2874 H 273.596 -4.56153 4.70749 0
M  V30 2875 H 273.116 -5.13792 3.09481 0
M  V30 2876 H 274.795 -5.3394 3.654 0
M  V30 2877 N 274.927 -0.932562 -1.27047 0
M  V30 2878 C 276.175 -0.574422 -1.93765 0
M  V30 2879 C 276.496 0.887993 -1.73608 0
M  V30 2880 O 275.766 1.62999 -1.08665 0
M  V30 2881 H 274.346 -0.209451 -0.717035 0
M  V30 2882 H 277.008 -1.18601 -1.5466 0
M  V30 2883 H 276.104 -0.784841 -3.02071 0
M  V30 2884 N 276.405 1.4127 -0.698611 0
M  V30 2885 C 277.816 1.84187 -0.305289 0
M  V30 2886 C 278.167 1.58449 1.15708 0
M  V30 2887 O 277.292 1.05651 1.88856 0
M  V30 2888 C 277.887 3.3435 -0.547314 0
M  V30 2889 C 276.446 3.75826 -0.207878 0
M  V30 2890 C 275.593 2.64647 -0.828099 0
M  V30 2891 H 278.544 1.30778 -0.89904 0
M  V30 2892 H 278.565 3.8001 0.192998 0
M  V30 2893 H 278.077 3.53051 -1.61172 0
M  V30 2894 H 276.178 3.62725 0.852143 0
M  V30 2895 H 276.291 4.74462 -0.665021 0
M  V30 2896 H 274.655 2.53395 -0.257458 0
M  V30 2897 H 275.438 2.86165 -1.89643 0
M  V30 2898 N 277.883 0.443576 1.51229 0
M  V30 2899 C 278.846 -0.353132 2.26463 0
M  V30 2900 C 279.846 -0.944338 1.3015 0
M  V30 2901 O 281.036 -0.817813 1.5381 0
M  V30 2902 C 278.168 -1.50023 3.06114 0
M  V30 2903 H 279.361 0.3063 2.98332 0
M  V30 2904 H 276.914 0.196902 1.55055 0
M  V30 2905 H 277.649 -2.19553 2.38677 0
M  V30 2906 H 277.434 -1.08241 3.76864 0
M  V30 2907 H 278.924 -2.06296 3.63087 0
M  V30 2908 N 279.361 -1.56624 0.175154 0
M  V30 2909 C 280.608 -1.96999 -0.468811 0
M  V30 2910 C 280.936 -1.06129 -1.62994 0
M  V30 2911 O 280.191 -0.0961771 -1.95464 0
M  V30 2912 C 280.49 -3.43419 -0.989864 0
M  V30 2913 C 280.156 -4.50866 0.0557687 0
M  V30 2914 C 278.818 -4.79975 0.343134 0
M  V30 2915 C 281.17 -5.15551 0.765308 0
M  V30 2916 C 278.498 -5.71066 1.34536 0
M  V30 2917 C 280.85 -6.07724 1.75654 0
M  V30 2918 C 279.514 -6.35199 2.05132 0
M  V30 2919 H 278.784 -0.720869 -0.17155 0
M  V30 2920 H 281.431 -1.89616 0.267924 0
M  V30 2921 H 279.736 -3.47772 -1.80449 0
M  V30 2922 H 281.433 -3.72002 -1.49719 0
M  V30 2923 H 278.023 -4.28229 -0.178381 0
M  V30 2924 H 282.207 -4.9317 0.556513 0
M  V30 2925 H 277.463 -5.90635 1.57988 0
M  V30 2926 H 281.637 -6.56912 2.31169 0
M  V30 2927 H 279.264 -7.05584 2.8294 0
M  V30 2928 N 280.839 0.0985539 -1.57292 0
M  V30 2929 C 282.067 0.816318 -1.90115 0
M  V30 2930 C 282.482 1.72451 -0.768509 0
M  V30 2931 O 281.839 1.80643 0.259687 0
M  V30 2932 C 281.89 1.63259 -3.22535 0
M  V30 2933 O 281.611 0.760934 -4.31441 0
M  V30 2934 C 283.112 2.45372 -3.69199 0
M  V30 2935 H 280.332 0.233595 -0.629027 0
M  V30 2936 H 282.876 0.0768229 -2.04356 0
M  V30 2937 H 281.031 2.32463 -3.09903 0
M  V30 2938 H 281.445 1.32595 -5.07463 0
M  V30 2939 H 282.919 2.98144 -4.64558 0
M  V30 2940 H 283.396 3.23677 -2.96867 0
M  V30 2941 H 284.002 1.81373 -3.84687 0
M  V30 2942 N 282.317 1.53212 0.369288 0
M  V30 2943 C 283.28 1.7872 1.43498 0
M  V30 2944 C 284.28 0.657554 1.46741 0
M  V30 2945 O 285.47 0.925736 1.47566 0
M  V30 2946 C 282.602 1.90591 2.82645 0
M  V30 2947 H 283.795 2.73894 1.22156 0
M  V30 2948 H 281.348 1.44233 0.602203 0
M  V30 2949 H 282.083 0.974709 3.09306 0
M  V30 2950 H 281.868 2.72751 2.8169 0
M  V30 2951 H 283.358 2.11931 3.59826 0
M  V30 2952 N 283.795 -0.628877 1.44509 0
M  V30 2953 C 284.725 -1.75187 1.54376 0
M  V30 2954 C 285.706 -1.65411 0.396618 0
M  V30 2955 O 286.891 -1.84137 0.617031 0
M  V30 2956 C 284.021 -3.13725 1.48976 0
M  V30 2957 C 282.975 -3.38291 2.62189 0
M  V30 2958 C 282.301 -4.76883 2.41841 0
M  V30 2959 C 283.601 -3.30632 4.04326 0
M  V30 2960 H 285.295 -1.67187 2.48373 0
M  V30 2961 H 282.841 -0.802909 1.19538 0
M  V30 2962 H 284.794 -3.92064 1.54478 0
M  V30 2963 H 283.518 -3.22515 0.514961 0
M  V30 2964 H 282.177 -2.62334 2.56079 0
M  V30 2965 H 281.825 -4.82378 1.42548 0
M  V30 2966 H 281.525 -4.94278 3.17747 0
M  V30 2967 H 283.049 -5.57449 2.49165 0
M  V30 2968 H 284.463 -3.98873 4.11793 0
M  V30 2969 H 282.86 -3.59561 4.80454 0
M  V30 2970 H 283.93 -2.28404 4.27738 0
M  V30 2971 N 285.273 -1.31445 -0.869486 0
M  V30 2972 C 286.221 -1.19067 -1.99814 0
M  V30 2973 C 287.215 -0.0988569 -1.69111 0
M  V30 2974 O 288.421 -0.260781 -1.78101 0
M  V30 2975 H 284.796 -0.368677 -0.655425 0
M  V30 2976 H 286.767 -2.14555 -2.07385 0
M  V30 2977 C 285.516 -0.915323 -3.35436 0
M  V30 2978 H 284.839 -1.74759 -3.59582 0
M  V30 2979 H 286.279 -0.868895 -4.15001 0
M  V30 2980 C 284.738 0.381928 -3.34728 0
M  V30 2981 O 285.268 1.39857 -3.76567 0
M  V30 2982 N 283.474 0.398633 -2.87853 0
M  V30 2983 H 283.021 -0.429186 -2.54 0
M  V30 2984 H 282.979 1.26651 -2.87762 0
M  V30 2985 N 286.751 1.08385 -1.14413 0
M  V30 2986 C 287.661 2.18856 -0.844951 0
M  V30 2987 C 288.677 1.73121 0.174668 0
M  V30 2988 O 289.853 2.014 0.00312857 0
M  V30 2989 C 286.918 3.45155 -0.32696 0
M  V30 2990 C 285.979 4.05513 -1.40916 0
M  V30 2991 C 285.212 5.25784 -0.915793 0
M  V30 2992 O 285.435 5.69884 0.242651 0
M  V30 2993 O 284.369 5.77545 -1.69487 0
M  V30 2994 H 288.195 2.46919 -1.76818 0
M  V30 2995 H 285.78 1.17524 -0.922411 0
M  V30 2996 H 287.662 4.21377 -0.0440211 0
M  V30 2997 H 286.337 3.18668 0.568539 0
M  V30 2998 H 285.244 3.30879 -1.74556 0
M  V30 2999 H 286.577 4.3625 -2.27919 0
M  V30 3000 N 288.23 0.939286 1.26551 0
M  V30 3001 C 289.478 0.58469 1.93457 0
M  V30 3002 C 289.799 -0.878774 1.74076 0
M  V30 3003 O 289.069 -1.62421 1.09528 0
M  V30 3004 H 287.649 0.21325 0.715914 0
M  V30 3005 H 290.311 1.1942 1.54029 0
M  V30 3006 H 289.407 0.800849 3.0165 0
M  V30 3007 N 289.708 -1.40897 0.706093 0
M  V30 3008 C 290.956 -2.00657 0.241054 0
M  V30 3009 C 291.277 -1.56241 -1.16678 0
M  V30 3010 O 290.547 -0.79765 -1.78926 0
M  V30 3011 H 289.127 -0.742018 0.0861308 0
M  V30 3012 H 291.789 -1.72372 0.909604 0
M  V30 3013 H 290.885 -3.10958 0.266705 0
M  V30 3014 N 291.186 -0.45159 -1.50991 0
M  V30 3015 C 292.118 0.388634 -2.25881 0
M  V30 3016 C 293.131 0.974041 -1.30446 0
M  V30 3017 O 294.32 0.865758 -1.56099 0
M  V30 3018 C 291.42 1.5571 -3.01011 0
M  V30 3019 C 290.593 1.08801 -4.23652 0
M  V30 3020 C 289.652 2.12825 -4.8124 0
M  V30 3021 O 288.678 1.71678 -5.42693 0
M  V30 3022 N 289.88 3.45453 -4.66522 0
M  V30 3023 H 292.645 -0.25329 -2.98628 0
M  V30 3024 H 290.206 -0.281268 -1.59438 0
M  V30 3025 H 292.198 2.24952 -3.3642 0
M  V30 3026 H 290.768 2.10409 -2.31186 0
M  V30 3027 H 289.988 0.22215 -3.93574 0
M  V30 3028 H 291.276 0.752213 -5.03209 0
M  V30 3029 H 290.674 3.81605 -4.17605 0
M  V30 3030 H 289.231 4.10549 -5.06254 0
M  V30 3031 N 292.664 1.56529 -0.183458 0
M  V30 3032 C 294.08 1.58664 0.172554 0
M  V30 3033 C 294.28 1.19925 1.61926 0
M  V30 3034 O 293.336 0.916534 2.35278 0
M  V30 3035 C 294.649 3.00463 -0.119262 0
M  V30 3036 C 296.197 3.12945 -0.0584396 0
M  V30 3037 C 296.672 4.56857 -0.323408 0
M  V30 3038 N 298.163 4.62403 -0.271612 0
M  V30 3039 C 298.898 5.71626 -0.450639 0
M  V30 3040 N 298.394 6.89362 -0.689384 0
M  V30 3041 N 300.187 5.60775 -0.385701 0
M  V30 3042 H 292.338 1.79994 -1.12765 0
M  V30 3043 H 294.601 0.834808 -0.449222 0
M  V30 3044 H 294.307 3.33326 -1.12192 0
M  V30 3045 H 294.181 3.72659 0.583544 0
M  V30 3046 H 296.568 2.79902 0.934805 0
M  V30 3047 H 296.649 2.4316 -0.794144 0
M  V30 3048 H 296.293 4.9061 -1.31392 0
M  V30 3049 H 296.223 5.24816 0.43305 0
M  V30 3050 H 298.714 3.77785 -0.0932256 0
M  V30 3051 H 299.027 7.68489 -0.815113 0
M  V30 3052 H 297.372 6.91196 -0.726142 0
M  V30 3053 H 300.563 4.67674 -0.199687 0
M  V30 3054 H 300.736 6.4584 -0.528646 0
M  V30 3055 N 294.142 -0.090211 1.57342 0
M  V30 3056 C 295.391 -0.791531 1.8552 0
M  V30 3057 C 295.704 -1.79659 0.773441 0
M  V30 3058 O 296.91 -2.54616 0.942497 0
M  V30 3059 C 295.366 -1.45856 3.2902 0
M  V30 3060 C 294.974 -0.493017 4.45279 0
M  V30 3061 C 296.718 -2.14332 3.66418 0
M  V30 3062 C 294.625 -1.16491 5.79814 0
M  V30 3063 H 293.555 -0.299356 0.692027 0
M  V30 3064 H 296.206 -0.0445343 1.83446 0
M  V30 3065 H 294.588 -2.25318 3.2565 0
M  V30 3066 H 295.762 0.270464 4.60006 0
M  V30 3067 H 294.077 0.0863061 4.16311 0
M  V30 3068 H 296.674 -2.65344 4.64216 0
M  V30 3069 H 297.017 -2.93447 2.95287 0
M  V30 3070 H 297.55 -1.41724 3.71698 0
M  V30 3071 H 294.289 -0.41447 6.54188 0
M  V30 3072 H 293.809 -1.8997 5.68921 0
M  V30 3073 H 295.488 -1.69001 6.24538 0
M  V30 3074 N 295.62 -1.53406 -0.361157 0
M  V30 3075 C 296.845 -1.74024 -1.12829 0
M  V30 3076 C 297.27 -0.470069 -1.82132 0
M  V30 3077 O 296.628 0.57619 -1.719 0
M  V30 3078 C 296.676 -2.90903 -2.13091 0
M  V30 3079 O 295.78 -2.59821 -3.20261 0
M  V30 3080 H 295.121 -0.577804 -0.327168 0
M  V30 3081 H 297.651 -2.00307 -0.41693 0
M  V30 3082 H 297.661 -3.17194 -2.56616 0
M  V30 3083 H 296.336 -3.83034 -1.62042 0
M  V30 3084 H 294.913 -2.44362 -2.81677 0
M  V30 3085 N 297.098 0.621204 -1.44841 0
M  V30 3086 C 298.514 0.94048 -1.28946 0
M  V30 3087 C 298.714 2.00154 -0.23249 0
M  V30 3088 O 297.77 2.49651 0.378237 0
M  V30 3089 C 299.083 1.39433 -2.66419 0
M  V30 3090 C 300.631 1.50927 -2.74208 0
M  V30 3091 C 301.106 1.99692 -4.12174 0
M  V30 3092 N 302.597 2.06947 -4.144 0
M  V30 3093 C 303.332 2.45871 -5.1801 0
M  V30 3094 N 302.828 2.83862 -6.31977 0
M  V30 3095 N 304.621 2.46092 -5.05366 0
M  V30 3096 H 296.772 -0.0803548 -2.12248 0
M  V30 3097 H 299.035 0.0266913 -0.947624 0
M  V30 3098 H 298.741 0.688925 -3.44887 0
M  V30 3099 H 298.615 2.36347 -2.93973 0
M  V30 3100 H 301.002 2.20561 -1.96053 0
M  V30 3101 H 301.083 0.523627 -2.50383 0
M  V30 3102 H 300.727 1.30649 -4.90809 0
M  V30 3103 H 300.657 2.99146 -4.33381 0
M  V30 3104 H 303.148 1.80232 -3.32152 0
M  V30 3105 H 303.461 3.12405 -7.0684 0
M  V30 3106 H 301.806 2.8159 -6.35399 0
M  V30 3107 H 304.997 2.1581 -4.15384 0
M  V30 3108 H 305.17 2.76102 -5.86235 0
M  V30 3109 N 298.576 1.31904 0.862503 0
M  V30 3110 C 299.825 1.21373 1.61094 0
M  V30 3111 C 300.138 -0.22504 1.94301 0
M  V30 3112 O 301.344 -0.452121 2.67709 0
M  V30 3113 C 299.8 2.12525 2.9045 0
M  V30 3114 C 299.408 3.61441 2.64697 0
M  V30 3115 C 301.152 2.10813 3.68454 0
M  V30 3116 C 299.059 4.44578 3.90006 0
M  V30 3117 H 297.989 0.450705 0.604468 0
M  V30 3118 H 300.64 1.56811 0.953027 0
M  V30 3119 H 299.022 1.69994 3.57656 0
M  V30 3120 H 300.196 4.12264 2.05851 0
M  V30 3121 H 298.511 3.65205 2.00036 0
M  V30 3122 H 301.108 2.70167 4.61426 0
M  V30 3123 H 301.451 1.09713 4.01583 0
M  V30 3124 H 301.984 2.51583 3.08141 0
M  V30 3125 H 298.723 5.46461 3.62023 0
M  V30 3126 H 298.243 3.98508 4.48276 0
M  V30 3127 H 299.922 4.57176 4.5782 0
M  V30 3128 N 300.054 -1.07777 1.14986 0
M  V30 3129 C 300.964 -2.18404 0.856546 0
M  V30 3130 C 301.98 -1.73211 -0.165485 0
M  V30 3131 O 303.156 -2.01399 0.00755219 0
M  V30 3132 C 300.221 -3.44977 0.34526 0
M  V30 3133 C 299.282 -4.0476 1.43065 0
M  V30 3134 C 298.515 -5.25291 0.943663 0
M  V30 3135 O 298.738 -5.70004 -0.212426 0
M  V30 3136 O 297.672 -5.76638 1.72547 0
M  V30 3137 H 301.498 -2.45978 1.78125 0
M  V30 3138 H 299.083 -1.17033 0.928631 0
M  V30 3139 H 300.965 -4.21348 0.0663671 0
M  V30 3140 H 299.64 -3.18965 -0.551631 0
M  V30 3141 H 298.547 -3.29949 1.76309 0
M  V30 3142 H 299.88 -4.35035 2.30229 0
M  V30 3143 N 301.532 -0.945985 -1.26051 0
M  V30 3144 C 302.778 -0.597002 -1.93814 0
M  V30 3145 C 303.111 0.862484 -1.73997 0
M  V30 3146 O 302.386 1.61769 -1.07986 0
M  V30 3147 C 302.669 -0.945937 -3.47454 0
M  V30 3148 C 302.522 -2.46052 -3.76535 0
M  V30 3149 C 303.841 -0.464785 -4.37639 0
M  V30 3150 H 300.96 -0.218366 -0.703907 0
M  V30 3151 H 303.602 -1.18107 -1.48831 0
M  V30 3152 H 301.752 -0.448902 -3.85898 0
M  V30 3153 H 303.424 -3.03065 -3.47778 0
M  V30 3154 H 301.667 -2.90194 -3.22444 0
M  V30 3155 H 302.338 -2.65517 -4.83947 0
M  V30 3156 H 304.814 -0.891016 -4.06448 0
M  V30 3157 H 303.69 -0.737712 -5.4392 0
M  V30 3158 H 303.951 0.635274 -4.37512 0
M  V30 3159 N 303.011 1.40521 -0.713556 0
M  V30 3160 C 303.959 2.32549 -0.0485227 0
M  V30 3161 C 304.953 1.51931 0.74922 0
M  V30 3162 O 306.159 1.67745 0.652816 0
M  V30 3163 H 302.534 0.751994 0.00311138 0
M  V30 3164 H 304.505 2.86291 -0.841443 0
M  V30 3165 C 303.254 3.36879 0.860687 0
M  V30 3166 H 302.577 3.98978 0.256246 0
M  V30 3167 H 304.017 4.03772 1.294 0
M  V30 3168 C 302.476 2.72197 1.9852 0
M  V30 3169 O 303.006 2.5837 3.07584 0
M  V30 3170 N 301.212 2.30612 1.76823 0
M  V30 3171 H 300.759 2.42059 0.881217 0
M  V30 3172 H 300.717 1.87672 2.52243 0
M  V30 3173 N 304.489 0.459591 1.5075 0
M  V30 3174 C 305.737 -0.0991532 2.01857 0
M  V30 3175 C 306.058 -1.41247 1.34441 0
M  V30 3176 O 305.328 -1.89775 0.486022 0
M  V30 3177 H 303.908 -0.039633 0.745948 0
M  V30 3178 H 306.57 0.607387 1.85194 0
M  V30 3179 H 305.666 -0.258998 3.11023 0
M  V30 3180 N 305.967 -1.56429 0.191757 0
M  V30 3181 C 306.897 -2.21937 -0.725696 0
M  V30 3182 C 307.878 -1.1814 -1.2238 0
M  V30 3183 O 309.063 -1.46636 -1.27325 0
M  V30 3184 C 306.193 -2.87611 -1.94672 0
M  V30 3185 C 305.147 -3.97623 -1.58366 0
M  V30 3186 C 304.473 -4.50446 -2.88102 0
M  V30 3187 C 305.773 -5.16197 -0.796133 0
M  V30 3188 H 307.467 -2.98861 -0.179606 0
M  V30 3189 H 305.013 -1.43749 -0.0849464 0
M  V30 3190 H 306.966 -3.3212 -2.59373 0
M  V30 3191 H 305.69 -2.08087 -2.51728 0
M  V30 3192 H 304.349 -3.53801 -0.960247 0
M  V30 3193 H 303.997 -3.67688 -3.43241 0
M  V30 3194 H 303.697 -5.24675 -2.64556 0
M  V30 3195 H 305.221 -4.97654 -3.53798 0
M  V30 3196 H 306.635 -5.57271 -1.34618 0
M  V30 3197 H 305.032 -5.96471 -0.658928 0
M  V30 3198 H 306.102 -4.84473 0.203478 0
M  V30 3199 N 307.445 0.0818655 -1.57387 0
M  V30 3200 C 308.393 1.11712 -2.04018 0
M  V30 3201 C 309.387 1.40683 -0.94364 0
M  V30 3202 O 310.593 1.40209 -1.12878 0
M  V30 3203 H 306.968 0.377542 -0.650358 0
M  V30 3204 H 308.939 0.697614 -2.90131 0
M  V30 3205 C 307.688 2.42537 -2.49141 0
M  V30 3206 H 307.011 2.21092 -3.33104 0
M  V30 3207 H 308.451 3.13446 -2.85531 0
M  V30 3208 C 306.91 3.0778 -1.37014 0
M  V30 3209 O 307.44 3.95436 -0.706621 0
M  V30 3210 N 305.646 2.68242 -1.11779 0
M  V30 3211 H 305.193 1.97052 -1.65917 0
M  V30 3212 H 305.151 3.1222 -0.369594 0
M  V30 3213 N 308.923 1.53595 0.353017 0
M  V30 3214 C 310.151 1.74311 1.1146 0
M  V30 3215 C 310.566 0.477854 1.82653 0
M  V30 3216 O 309.923 -0.549977 1.74016 0
M  V30 3217 C 309.974 2.91694 2.13534 0
M  V30 3218 O 309.695 4.13325 1.45238 0
M  V30 3219 C 311.196 3.24384 3.02142 0
M  V30 3220 H 308.416 0.582669 0.332773 0
M  V30 3221 H 310.96 2.00386 0.408107 0
M  V30 3222 H 309.115 2.67977 2.79763 0
M  V30 3223 H 309.529 4.79148 2.13349 0
M  V30 3224 H 311.003 4.09893 3.69718 0
M  V30 3225 H 311.48 2.40282 3.67643 0
M  V30 3226 H 312.086 3.50073 2.41514 0
M  V30 3227 N 310.401 -0.613514 1.45168 0
M  V30 3228 C 311.311 -1.75296 1.55912 0
M  V30 3229 C 312.327 -1.68244 0.443856 0
M  V30 3230 O 313.503 -1.88706 0.70371 0
M  V30 3231 C 310.568 -3.1174 1.5172 0
M  V30 3232 C 309.629 -3.30291 2.74238 0
M  V30 3233 C 308.862 -4.60226 2.70236 0
M  V30 3234 O 309.085 -5.42168 1.77229 0
M  V30 3235 O 308.019 -4.81361 3.61352 0
M  V30 3236 H 311.845 -1.69183 2.52212 0
M  V30 3237 H 309.43 -0.776886 1.27612 0
M  V30 3238 H 311.312 -3.93044 1.51968 0
M  V30 3239 H 309.987 -3.18357 0.585697 0
M  V30 3240 H 308.894 -2.48598 2.79553 0
M  V30 3241 H 310.227 -3.28547 3.66494 0
M  V30 3242 N 311.879 -1.3236 -0.855495 0
M  V30 3243 C 313.104 -1.2601 -1.64731 0
M  V30 3244 C 313.529 0.169068 -1.87339 0
M  V30 3245 O 312.887 1.12016 -1.42556 0
M  V30 3246 C 312.935 -2.02417 -2.98429 0
M  V30 3247 O 312.039 -1.3714 -3.8893 0
M  V30 3248 H 311.38 -0.434325 -0.502253 0
M  V30 3249 H 313.91 -1.74661 -1.06558 0
M  V30 3250 H 313.92 -2.12559 -3.48257 0
M  V30 3251 H 312.595 -3.06343 -2.81295 0
M  V30 3252 H 311.172 -1.3554 -3.47395 0
M  V30 3253 N 313.357 1.07166 -1.15556 0
M  V30 3254 C 314.605 1.79443 -0.929764 0
M  V30 3255 C 314.926 1.87246 0.544414 0
M  V30 3256 O 314.196 1.37473 1.39564 0
M  V30 3257 H 312.776 0.664625 -0.341003 0
M  V30 3258 H 315.438 1.29499 -1.45657 0
M  V30 3259 H 314.534 2.81832 -1.34079 0
M  V30 3260 N 314.835 0.952656 1.25548 0
M  V30 3261 C 316.246 0.647392 1.75116 0
M  V30 3262 C 316.597 -0.837274 1.77438 0
M  V30 3263 O 315.722 -1.65525 1.39393 0
M  V30 3264 C 316.317 1.16845 3.18014 0
M  V30 3265 C 314.876 0.913382 3.6515 0
M  V30 3266 C 314.023 1.31265 2.44264 0
M  V30 3267 H 316.974 1.12968 1.11462 0
M  V30 3268 H 316.995 0.527606 3.76824 0
M  V30 3269 H 316.507 2.24902 3.16292 0
M  V30 3270 H 314.608 -0.152316 3.72289 0
M  V30 3271 H 314.721 1.54845 4.53387 0
M  V30 3272 H 313.085 0.731028 2.43984 0
M  V30 3273 H 313.868 2.40239 2.45234 0
M  V30 3274 N 316.313 -1.40141 0.720998 0
M  V30 3275 C 317.26 -2.30688 0.071919 0
M  V30 3276 C 318.23 -1.48476 -0.744584 0
M  V30 3277 O 319.415 -1.77201 -0.707423 0
M  V30 3278 C 316.555 -3.34724 -0.839855 0
M  V30 3279 C 315.668 -4.31998 -0.0122438 0
M  V30 3280 C 314.803 -5.23102 -0.923995 0
M  V30 3281 C 313.842 -6.12033 -0.0907969 0
M  V30 3282 N 312.979 -6.95537 -0.957718 0
M  V30 3283 H 317.819 -2.85628 0.849755 0
M  V30 3284 H 315.356 -1.40653 0.430726 0
M  V30 3285 H 317.314 -3.93618 -1.38279 0
M  V30 3286 H 315.944 -2.81274 -1.58381 0
M  V30 3287 H 314.996 -3.74841 0.64794 0
M  V30 3288 H 316.308 -4.94772 0.632595 0
M  V30 3289 H 315.462 -5.86953 -1.53527 0
M  V30 3290 H 314.201 -4.60615 -1.60264 0
M  V30 3291 H 313.206 -5.47207 0.533377 0
M  V30 3292 H 314.431 -6.76581 0.584428 0
M  V30 3293 H 312.377 -6.35633 -1.62192 0
M  V30 3294 H 312.294 -7.55099 -0.36904 0
M  V30 3295 H 313.562 -7.63832 -1.555 0
M  V30 3296 N 317.792 -0.46758 -1.50504 0
M  V30 3297 C 319.04 0.0884469 -2.01906 0
M  V30 3298 C 319.361 1.40532 -1.35188 0
M  V30 3299 O 318.631 1.89515 -0.496079 0
M  V30 3300 H 317.211 0.0356765 -0.746148 0
M  V30 3301 H 319.873 -0.6172 -1.84869 0
M  V30 3302 H 318.969 0.2425 -3.11156 0
M  V30 3303 N 319.27 1.56325 -0.20005 0
M  V30 3304 C 320.681 1.8408 0.31167 0
M  V30 3305 C 321.032 1.12087 1.61031 0
M  V30 3306 O 320.157 0.38332 2.12978 0
M  V30 3307 C 320.752 3.33932 0.57226 0
M  V30 3308 C 319.311 3.6208 1.02834 0
M  V30 3309 C 318.458 2.77186 0.079634 0
M  V30 3310 H 321.409 1.52939 -0.423729 0
M  V30 3311 H 321.43 3.52971 1.42096 0
M  V30 3312 H 320.942 3.86303 -0.37308 0
M  V30 3313 H 319.043 3.15147 1.98778 0
M  V30 3314 H 319.156 4.7023 0.917624 0
M  V30 3315 H 317.52 2.47951 0.582448 0
M  V30 3316 H 318.303 3.32347 -0.860238 0
M  V30 3317 N 320.748 -0.0735177 1.57428 0
M  V30 3318 C 321.994 -0.774145 1.87443 0
M  V30 3319 C 322.327 -1.77311 0.792103 0
M  V30 3320 O 321.602 -1.93492 -0.197793 0
M  V30 3321 C 321.885 -1.48367 3.28115 0
M  V30 3322 C 321.738 -0.501227 4.46999 0
M  V30 3323 C 323.057 -2.429 3.66998 0
M  V30 3324 H 320.176 -0.279971 0.681752 0
M  V30 3325 H 322.818 -0.0373616 1.89963 0
M  V30 3326 H 320.968 -2.11171 3.26097 0
M  V30 3327 H 322.64 0.121468 4.6114 0
M  V30 3328 H 320.883 0.183593 4.33411 0
M  V30 3329 H 321.554 -1.03526 5.42205 0
M  V30 3330 H 324.03 -1.90175 3.70098 0
M  V30 3331 H 322.906 -2.89549 4.66318 0
M  V30 3332 H 323.167 -3.27628 2.96837 0
M  V30 3333 N 322.226 -1.5378 -0.344866 0
M  V30 3334 C 323.474 -1.70625 -1.08311 0
M  V30 3335 C 323.795 -0.471447 -1.89215 0
M  V30 3336 O 323.065 0.514616 -1.8902 0
M  V30 3337 H 321.645 -0.629058 -0.402859 0
M  V30 3338 H 324.307 -1.9103 -0.386459 0
M  V30 3339 H 323.403 -2.57656 -1.76124 0
M  V30 3340 N 323.704 0.605807 -1.45491 0
M  V30 3341 C 324.95 1.36679 -1.49823 0
M  V30 3342 C 325.283 1.93693 -0.140175 0
M  V30 3343 O 324.558 1.75158 0.845581 0
M  V30 3344 C 324.841 2.51337 -2.57879 0
M  V30 3345 C 324.694 1.99508 -4.03134 0
M  V30 3346 C 326.013 3.53463 -2.62205 0
M  V30 3347 H 323.132 0.495617 -0.545466 0
M  V30 3348 H 325.774 0.682732 -1.7731 0
M  V30 3349 H 323.924 3.09691 -2.34571 0
M  V30 3350 H 325.596 1.45789 -4.37656 0
M  V30 3351 H 323.839 1.30496 -4.13707 0
M  V30 3352 H 324.51 2.82169 -4.74431 0
M  V30 3353 H 326.986 3.04953 -2.83095 0
M  V30 3354 H 325.862 4.31178 -3.39672 0
M  V30 3355 H 326.123 4.09197 -1.67363 0
M  V30 3356 N 325.182 1.32811 0.848464 0
M  V30 3357 C 326.407 1.26882 1.6406 0
M  V30 3358 C 326.832 -0.15913 1.87426 0
M  V30 3359 O 326.19 -1.11258 1.43148 0
M  V30 3360 C 326.238 2.03997 2.97351 0
M  V30 3361 O 325.342 1.39201 3.88197 0
M  V30 3362 H 324.683 0.436982 0.499943 0
M  V30 3363 H 327.213 1.75224 1.0563 0
M  V30 3364 H 327.223 2.14403 3.47124 0
M  V30 3365 H 325.898 3.0783 2.79666 0
M  V30 3366 H 324.475 1.37381 3.46671 0
M  V30 3367 N 326.66 -1.06551 1.16123 0
M  V30 3368 C 328.076 -1.3142 0.905585 0
M  V30 3369 C 328.276 -1.96571 -0.442964 0
M  V30 3370 O 327.332 -2.23068 -1.18308 0
M  V30 3371 C 328.645 -2.19741 2.05267 0
M  V30 3372 C 330.193 -2.33165 2.08813 0
M  V30 3373 C 330.668 -3.24838 3.22868 0
M  V30 3374 N 332.159 -3.32421 3.22568 0
M  V30 3375 C 332.894 -4.0344 4.0746 0
M  V30 3376 N 332.39 -4.77003 5.02434 0
M  V30 3377 N 334.183 -3.99464 3.95456 0
M  V30 3378 H 326.334 -0.626548 2.02949 0
M  V30 3379 H 328.597 -0.338777 0.8854 0
M  V30 3380 H 328.303 -1.79142 3.02657 0
M  V30 3381 H 328.177 -3.20313 1.99198 0
M  V30 3382 H 330.564 -2.73013 1.12018 0
M  V30 3383 H 330.645 -1.3227 2.18948 0
M  V30 3384 H 330.289 -2.85708 4.19921 0
M  V30 3385 H 330.219 -4.25707 3.0997 0
M  V30 3386 H 332.71 -2.79994 2.53795 0
M  V30 3387 H 333.023 -5.28712 5.63634 0
M  V30 3388 H 331.368 -4.75992 5.06415 0
M  V30 3389 H 334.559 -3.4111 3.20564 0
M  V30 3390 H 334.732 -4.54544 4.61837 0
M  V30 3391 N 328.138 -0.959301 -1.25041 0
M  V30 3392 C 329.384 -0.627096 -1.93492 0
M  V30 3393 C 329.739 0.827484 -1.73696 0
M  V30 3394 O 329.032 1.58651 -1.07427 0
M  V30 3395 C 329.226 -0.927136 -3.45165 0
M  V30 3396 C 329.055 -2.40933 -3.79712 0
M  V30 3397 C 327.825 -3.0677 -4.01522 0
M  V30 3398 C 330.023 -3.38894 -3.86853 0
M  V30 3399 N 328.005 -4.44815 -4.231 0
M  V30 3400 C 329.376 -4.62263 -4.13174 0
M  V30 3401 C 331.431 -3.33668 -3.69554 0
M  V30 3402 C 330.134 -5.81052 -4.23995 0
M  V30 3403 C 332.16 -4.518 -3.81616 0
M  V30 3404 C 331.522 -5.73957 -4.08354 0
M  V30 3405 H 327.621 -0.280166 -0.73009 0
M  V30 3406 H 330.205 -1.23244 -1.50729 0
M  V30 3407 H 328.376 -0.350685 -3.86814 0
M  V30 3408 H 330.108 -0.554361 -4.00885 0
M  V30 3409 H 326.863 -2.57327 -3.97593 0
M  V30 3410 H 327.287 -5.16319 -4.37885 0
M  V30 3411 H 331.929 -2.40268 -3.47895 0
M  V30 3412 H 329.647 -6.74888 -4.44468 0
M  V30 3413 H 333.233 -4.49309 -3.69612 0
M  V30 3414 H 332.113 -6.6384 -4.17475 0
M  V30 3415 N 329.616 1.39756 -0.72842 0
M  V30 3416 C 331.032 1.5442 -0.403308 0
M  V30 3417 C 331.232 1.69694 1.08656 0
M  V30 3418 O 330.288 1.69373 1.87267 0
M  V30 3419 C 331.601 2.76555 -1.18058 0
M  V30 3420 C 333.149 2.90384 -1.16815 0
M  V30 3421 C 333.624 4.15449 -1.92785 0
M  V30 3422 N 335.115 4.22475 -1.89918 0
M  V30 3423 C 335.85 5.1818 -2.45514 0
M  V30 3424 N 335.346 6.19714 -3.09719 0
M  V30 3425 N 337.139 5.1035 -2.35584 0
M  V30 3426 H 329.29 1.28089 -1.69431 0
M  V30 3427 H 331.553 0.620327 -0.716867 0
M  V30 3428 H 331.259 2.7159 -2.23455 0
M  V30 3429 H 331.133 3.69033 -0.780662 0
M  V30 3430 H 333.52 2.94846 -0.12234 0
M  V30 3431 H 333.601 1.98988 -1.6074 0
M  V30 3432 H 333.245 4.11749 -2.97364 0
M  V30 3433 H 333.175 5.05877 -1.46272 0
M  V30 3434 H 335.666 3.49743 -1.43138 0
M  V30 3435 H 335.979 6.8919 -3.49625 0
M  V30 3436 H 334.324 6.20121 -3.13807 0
M  V30 3437 H 337.515 4.2996 -1.85072 0
M  V30 3438 H 337.688 5.84761 -2.79211 0
M  V30 3439 N 331.094 0.475555 1.50254 0
M  V30 3440 C 332.341 -0.0778919 2.0235 0
M  V30 3441 C 332.669 -1.39319 1.35722 0
M  V30 3442 O 331.924 -1.89888 0.473395 0
M  V30 3443 C 332.223 -0.305114 3.56095 0
M  V30 3444 C 331.889 0.92903 4.41225 0
M  V30 3445 C 330.551 1.26739 4.6421 0
M  V30 3446 C 332.903 1.75054 4.90923 0
M  V30 3447 C 330.231 2.42724 5.34137 0
M  V30 3448 C 332.583 2.9017 5.62125 0
M  V30 3449 C 331.247 3.24416 5.83362 0
M  V30 3450 H 330.517 -0.0285027 0.740452 0
M  V30 3451 H 333.164 0.630543 1.80821 0
M  V30 3452 H 331.469 -1.09584 3.76163 0
M  V30 3453 H 333.166 -0.747377 3.93974 0
M  V30 3454 H 329.756 0.655428 4.23559 0
M  V30 3455 H 333.94 1.50231 4.73016 0
M  V30 3456 H 329.196 2.69525 5.48786 0
M  V30 3457 H 333.37 3.54169 5.99614 0
M  V30 3458 H 330.997 4.14396 6.37323 0
M  V30 3459 N 332.573 -1.56217 0.208337 0
M  V30 3460 C 333.798 -2.02782 -0.435222 0
M  V30 3461 C 334.223 -1.08738 -1.53485 0
M  V30 3462 O 333.581 -0.0731855 -1.81152 0
M  V30 3463 C 333.629 -3.47687 -0.956335 0
M  V30 3464 O 332.733 -3.56773 -2.06849 0
M  V30 3465 H 332.074 -0.656403 -0.100158 0
M  V30 3466 H 334.604 -2.02033 0.3231 0
M  V30 3467 H 334.614 -3.87745 -1.26955 0
M  V30 3468 H 333.289 -4.15624 -0.15143 0
M  V30 3469 H 331.866 -3.28597 -1.76292 0
M  V30 3470 N 334.051 0.0651679 -1.57465 0
M  V30 3471 C 335.001 1.0838 -2.00594 0
M  V30 3472 C 335.985 1.34106 -0.889071 0
M  V30 3473 O 337.177 1.34295 -1.15299 0
M  V30 3474 C 334.306 2.39565 -2.45894 0
M  V30 3475 C 333.392 2.17085 -3.64328 0
M  V30 3476 N 333.783 1.64553 -4.78285 0
M  V30 3477 C 332.081 2.4753 -3.71006 0
M  V30 3478 C 332.782 1.57042 -5.60101 0
M  V30 3479 N 331.758 2.03328 -5.04141 0
M  V30 3480 H 335.56 0.671062 -2.86136 0
M  V30 3481 H 333.074 0.27213 -1.60104 0
M  V30 3482 H 335.071 3.13308 -2.75034 0
M  V30 3483 H 333.731 2.81549 -1.61741 0
M  V30 3484 H 334.742 1.33323 -5.00445 0
M  V30 3485 H 331.419 2.92835 -2.9758 0
M  V30 3486 H 332.809 1.17223 -6.61595 0
M  V30 3487 N 335.529 1.53961 0.336706 0
M  V30 3488 C 336.777 1.71197 1.07405 0
M  V30 3489 C 337.098 0.481475 1.88962 0
M  V30 3490 O 336.368 -0.504585 1.8929 0
M  V30 3491 H 334.948 0.631185 0.399517 0
M  V30 3492 H 337.61 1.91232 0.376323 0
M  V30 3493 H 336.706 2.58587 1.74755 0
M  V30 3494 N 337.007 -0.598083 1.45811 0
M  V30 3495 C 338.255 -1.35413 1.50026 0
M  V30 3496 C 338.576 -1.94444 0.147177 0
M  V30 3497 O 337.846 -1.77701 -0.824571 0
M  V30 3498 H 336.426 -0.502727 0.552517 0
M  V30 3499 H 339.088 -0.701606 1.81834 0
M  V30 3500 H 338.184 -2.16871 2.2444 0
M  V30 3501 N 338.485 -1.33259 -0.841409 0
M  V30 3502 C 339.71 -1.2775 -1.63385 0
M  V30 3503 C 340.135 0.149188 -1.87507 0
M  V30 3504 O 339.493 1.10498 -1.43736 0
M  V30 3505 C 339.541 -2.05571 -2.96265 0
M  V30 3506 O 338.645 -1.41257 -3.87453 0
M  V30 3507 H 337.986 -0.439627 -0.497618 0
M  V30 3508 H 340.516 -1.75782 -1.04699 0
M  V30 3509 H 340.526 -2.16241 -3.45982 0
M  V30 3510 H 339.201 -3.09309 -2.7803 0
M  V30 3511 H 337.778 -1.39217 -3.45938 0
M  V30 3512 N 339.963 1.05934 -1.16686 0
M  V30 3513 C 341.211 1.78447 -0.948744 0
M  V30 3514 C 341.532 1.87813 0.524523 0
M  V30 3515 O 340.802 1.38945 1.38098 0
M  V30 3516 H 339.382 0.660971 -0.348033 0
M  V30 3517 H 342.044 1.27947 -1.47022 0
M  V30 3518 H 341.14 2.80394 -1.37061 0
M  V30 3519 N 341.441 0.965919 1.2453 0
M  V30 3520 C 342.374 0.4393 2.23932 0
M  V30 3521 C 343.352 -0.485615 1.55179 0
M  V30 3522 O 344.536 -0.417402 1.83821 0
M  V30 3523 C 341.663 -0.366042 3.36716 0
M  V30 3524 C 340.709 0.5009 4.23548 0
M  V30 3525 S 341.542 1.94002 4.99123 0
M  V30 3526 C 342.698 1.14342 6.15367 0
M  V30 3527 H 342.931 1.28167 2.68254 0
M  V30 3528 H 340.464 0.770819 1.33782 0
M  V30 3529 H 342.422 -0.824724 4.0213 0
M  V30 3530 H 341.083 -1.18337 2.90956 0
M  V30 3531 H 340.276 -0.117341 5.03863 0
M  V30 3532 H 339.878 0.89524 3.63127 0
M  V30 3533 H 342.17 0.397572 6.76332 0
M  V30 3534 H 343.113 1.92089 6.81548 0
M  V30 3535 H 343.521 0.668579 5.60527 0
M  V30 3536 N 342.919 -1.39368 0.735821 0
M  V30 3537 C 344.165 -2.00794 0.284544 0
M  V30 3538 C 344.498 -1.58255 -1.12557 0
M  V30 3539 O 343.773 -0.811819 -1.76748 0
M  V30 3540 C 344.056 -3.58011 0.387337 0
M  V30 3541 C 343.909 -4.10566 1.83728 0
M  V30 3542 C 345.228 -4.395 -0.22975 0
M  V30 3543 H 342.347 -0.729501 0.104866 0
M  V30 3544 H 344.989 -1.65564 0.93213 0
M  V30 3545 H 343.139 -3.88154 -0.164006 0
M  V30 3546 H 344.811 -3.91139 2.44556 0
M  V30 3547 H 343.054 -3.64095 2.35833 0
M  V30 3548 H 343.725 -5.19702 1.86047 0
M  V30 3549 H 346.201 -4.15406 0.240257 0
M  V30 3550 H 345.077 -5.48752 -0.127485 0
M  V30 3551 H 345.338 -4.22062 -1.3159 0
M  V30 3552 N 344.397 -0.483516 -1.5 0
M  V30 3553 C 345.674 0.129337 -1.95172 0
M  V30 3554 C 346.054 1.55802 -1.4244 0
M  V30 3555 O 345.402 2.19625 -0.630649 0
M  V30 3556 C 345.612 0.0599251 -3.48949 0
M  V30 3557 C 346.96 0.242617 -4.23906 0
M  V30 3558 O 347.984 0.135933 -3.55941 0
M  V30 3559 O 346.843 0.459454 -5.44565 0
M  V30 3560 H 343.937 0.104887 -0.820322 0
M  V30 3561 H 346.483 -0.544807 -1.60717 0
M  V30 3562 H 345.255 -0.937079 -3.79914 0
M  V30 3563 H 344.878 0.774984 -3.89974 0
M  V30 3564 N 345.875 1.56104 -0.216619 0
M  V30 3565 C 347.1 2.0301 0.424462 0
M  V30 3566 C 347.525 1.0955 1.52907 0
M  V30 3567 O 346.883 0.0827914 1.81111 0
M  V30 3568 C 346.931 3.4819 0.937883 0
M  V30 3569 O 346.035 3.57865 2.04955 0
M  V30 3570 H 345.376 0.656925 0.0966755 0
M  V30 3571 H 347.906 2.01859 -0.33381 0
M  V30 3572 H 347.916 3.88413 1.24897 0
M  V30 3573 H 346.591 4.15699 0.129387 0
M  V30 3574 H 345.168 3.29527 1.74546 0
M  V30 3575 N 347.353 -0.0568162 1.57498 0
M  V30 3576 C 348.602 -0.752001 1.87157 0
M  V30 3577 C 348.915 -1.77978 0.811375 0
M  V30 3578 O 350.121 -2.52559 0.996293 0
M  V30 3579 C 348.577 -1.38844 3.3204 0
M  V30 3580 C 348.185 -0.398456 4.46225 0
M  V30 3581 C 349.929 -2.06512 3.70882 0
M  V30 3582 C 347.836 -1.04166 5.82154 0
M  V30 3583 H 346.766 -0.28461 0.698222 0
M  V30 3584 H 349.417 -0.00561272 1.83499 0
M  V30 3585 H 347.799 -2.1836 3.30356 0
M  V30 3586 H 348.973 0.367977 4.59328 0
M  V30 3587 H 347.288 0.174592 4.16034 0
M  V30 3588 H 349.885 -2.55437 4.6974 0
M  V30 3589 H 350.228 -2.87117 3.01445 0
M  V30 3590 H 350.761 -1.33808 3.7462 0
M  V30 3591 H 347.5 -0.275614 6.5492 0
M  V30 3592 H 347.02 -1.7786 5.72823 0
M  V30 3593 H 348.699 -1.55715 6.27982 0
M  V30 3594 N 348.832 -1.54138 -0.328536 0
M  V30 3595 C 350.057 -1.76378 -1.09112 0
M  V30 3596 C 350.482 -0.508596 -1.81094 0
M  V30 3597 O 349.84 0.539598 -1.73084 0
M  V30 3598 C 349.888 -2.95358 -2.06872 0
M  V30 3599 O 348.992 -2.66556 -3.14677 0
M  V30 3600 H 348.333 -0.584614 -0.314838 0
M  V30 3601 H 350.863 -2.01146 -0.374348 0
M  V30 3602 H 350.873 -3.22566 -2.4983 0
M  V30 3603 H 349.548 -3.86385 -1.5388 0
M  V30 3604 H 348.125 -2.50282 -2.7643 0
M  V30 3605 N 350.31 0.590341 -1.46126 0
M  V30 3606 C 351.726 0.912917 -1.30912 0
M  V30 3607 C 351.926 1.99616 -0.274893 0
M  V30 3608 O 350.982 2.50397 0.325197 0
M  V30 3609 C 352.295 1.3375 -2.69317 0
M  V30 3610 C 353.843 1.45077 -2.77348 0
M  V30 3611 C 354.318 1.90904 -4.16317 0
M  V30 3612 N 355.809 1.9811 -4.18696 0
M  V30 3613 C 356.544 2.34828 -5.23109 0
M  V30 3614 N 356.04 2.70393 -6.37856 0
M  V30 3615 N 357.833 2.35317 -5.10473 0
M  V30 3616 H 349.984 -0.125358 -2.1203 0
M  V30 3617 H 352.247 0.00658481 -0.947977 0
M  V30 3618 H 351.953 0.615614 -3.4627 0
M  V30 3619 H 351.827 2.30058 -2.9892 0
M  V30 3620 H 354.214 2.16353 -2.00687 0
M  V30 3621 H 354.295 0.4704 -2.51438 0
M  V30 3622 H 353.939 1.20209 -4.9347 0
M  V30 3623 H 353.869 2.89886 -4.39629 0
M  V30 3624 H 356.36 1.73146 -3.359 0
M  V30 3625 H 356.673 2.97341 -7.13308 0
M  V30 3626 H 355.018 2.68048 -6.41229 0
M  V30 3627 H 358.209 2.0695 -4.19868 0
M  V30 3628 H 358.382 2.63605 -5.9196 0
M  V30 3629 N 351.788 1.33704 0.83433 0
M  V30 3630 C 353.034 1.26612 1.59188 0
M  V30 3631 C 353.389 -0.165439 1.91687 0
M  V30 3632 O 352.682 -1.10873 1.56262 0
M  V30 3633 C 352.876 2.07926 2.90692 0
M  V30 3634 C 352.705 3.58844 2.71038 0
M  V30 3635 C 351.475 4.28148 2.68361 0
M  V30 3636 C 353.673 4.53082 2.43353 0
M  V30 3637 N 351.655 5.64987 2.40132 0
M  V30 3638 C 353.026 5.77843 2.24716 0
M  V30 3639 C 355.081 4.42119 2.28987 0
M  V30 3640 C 353.784 6.92877 1.9317 0
M  V30 3641 C 355.81 5.56973 1.98835 0
M  V30 3642 C 355.172 6.80745 1.81012 0
M  V30 3643 H 351.271 0.518517 0.585375 0
M  V30 3644 H 353.855 1.68294 0.979044 0
M  V30 3645 H 352.026 1.68558 3.49918 0
M  V30 3646 H 353.758 1.92568 3.55949 0
M  V30 3647 H 350.513 3.80469 2.82029 0
M  V30 3648 H 350.937 6.37133 2.28889 0
M  V30 3649 H 355.579 3.47058 2.41477 0
M  V30 3650 H 353.297 7.87931 1.79418 0
M  V30 3651 H 356.883 5.50428 1.88468 0
M  V30 3652 H 355.763 7.68115 1.58017 0
M  V30 3653 N 353.266 -1.05314 1.17247 0
M  V30 3654 C 354.229 -2.112 0.890357 0
M  V30 3655 C 355.229 -1.60359 -0.118943 0
M  V30 3656 O 356.419 -1.73833 0.113086 0
M  V30 3657 C 353.551 -3.39266 0.333422 0
M  V30 3658 H 354.744 -2.37659 1.82916 0
M  V30 3659 H 352.297 -1.21538 0.982758 0
M  V30 3660 H 353.032 -3.18462 -0.612587 0
M  V30 3661 H 352.817 -3.77477 1.06082 0
M  V30 3662 H 354.307 -4.17315 0.154322 0
M  V30 3663 N 354.744 -0.972509 -1.24016 0
M  V30 3664 C 355.654 -0.5143 -2.28893 0
M  V30 3665 C 356.67 0.427078 -1.68677 0
M  V30 3666 O 357.846 0.298939 -1.99169 0
M  V30 3667 C 354.911 0.183598 -3.46214 0
M  V30 3668 C 353.972 -0.798202 -4.21814 0
M  V30 3669 C 353.205 -0.133514 -5.33533 0
M  V30 3670 O 353.428 1.07714 -5.60137 0
M  V30 3671 O 352.362 -0.828103 -5.96176 0
M  V30 3672 H 356.188 -1.38629 -2.70214 0
M  V30 3673 H 353.773 -0.739769 -1.29799 0
M  V30 3674 H 355.655 0.575433 -4.17453 0
M  V30 3675 H 354.33 1.03048 -3.0686 0
M  V30 3676 H 353.237 -1.24059 -3.52931 0
M  V30 3677 H 354.57 -1.61364 -4.64997 0
M  V30 3678 N 356.222 1.38976 -0.743202 0
M  V30 3679 C 357.152 2.33171 -0.123873 0
M  V30 3680 C 358.133 1.54336 0.71516 0
M  V30 3681 O 359.318 1.82696 0.658467 0
M  V30 3682 C 356.448 3.38474 0.777978 0
M  V30 3683 C 355.402 4.27979 0.0424758 0
M  V30 3684 C 354.728 5.2405 1.06189 0
M  V30 3685 C 356.028 5.10155 -1.1198 0
M  V30 3686 H 357.722 2.85213 -0.910709 0
M  V30 3687 H 355.268 1.37133 -0.439388 0
M  V30 3688 H 357.221 4.03328 1.22084 0
M  V30 3689 H 355.945 2.84891 1.59702 0
M  V30 3690 H 354.604 3.64616 -0.380853 0
M  V30 3691 H 354.252 4.66758 1.87472 0
M  V30 3692 H 353.952 5.84785 0.574485 0
M  V30 3693 H 355.476 5.9178 1.50428 0
M  V30 3694 H 356.89 5.68307 -0.75499 0
M  V30 3695 H 355.287 5.80073 -1.53738 0
M  V30 3696 H 356.357 4.44504 -1.93764 0
M  V30 3697 N 357.7 0.491464 1.49741 0
M  V30 3698 C 358.947 -0.0564256 2.02421 0
M  V30 3699 C 359.275 -1.37872 1.37192 0
M  V30 3700 O 358.53 -1.89375 0.493508 0
M  V30 3701 C 358.829 -0.267329 3.56399 0
M  V30 3702 C 358.495 0.975775 4.40215 0
M  V30 3703 C 357.157 1.31655 4.62839 0
M  V30 3704 C 359.509 1.80251 4.89039 0
M  V30 3705 C 356.837 2.48375 5.31532 0
M  V30 3706 C 359.189 2.96116 5.59015 0
M  V30 3707 C 357.853 3.30585 5.79888 0
M  V30 3708 H 357.123 -0.0206476 0.740712 0
M  V30 3709 H 359.77 0.649686 1.80143 0
M  V30 3710 H 358.075 -1.05588 3.77304 0
M  V30 3711 H 359.772 -0.705549 3.94744 0
M  V30 3712 H 356.362 0.700315 4.2284 0
M  V30 3713 H 360.546 1.55239 4.71396 0
M  V30 3714 H 355.802 2.7533 5.45897 0
M  V30 3715 H 359.976 3.60509 5.95824 0
M  V30 3716 H 357.603 4.21132 6.32892 0
M  V30 3717 N 359.178 -1.55987 0.224894 0
M  V30 3718 C 360.589 -1.84553 -0.282345 0
M  V30 3719 C 360.94 -1.14634 -1.59227 0
M  V30 3720 O 360.065 -0.417155 -2.12341 0
M  V30 3721 C 360.66 -3.348 -0.519062 0
M  V30 3722 C 359.219 -3.63671 -0.970604 0
M  V30 3723 C 358.366 -2.77277 -0.0355261 0
M  V30 3724 H 361.317 -1.52245 0.448006 0
M  V30 3725 H 361.338 -3.55187 -1.36463 0
M  V30 3726 H 360.85 -3.8566 0.43449 0
M  V30 3727 H 358.951 -3.1827 -1.9374 0
M  V30 3728 H 359.064 -4.71631 -0.842698 0
M  V30 3729 H 357.428 -2.48846 -0.542927 0
M  V30 3730 H 358.211 -3.30937 0.913003 0
M  V30 3731 N 360.656 0.0484629 -1.57525 0
M  V30 3732 C 361.881 0.759177 -1.93006 0
M  V30 3733 C 362.306 1.69125 -0.823317 0
M  V30 3734 O 361.664 1.79931 0.222364 0
M  V30 3735 C 361.712 1.50899 -3.27509 0
M  V30 3736 O 360.816 2.62112 -3.18388 0
M  V30 3737 H 360.157 0.205564 -0.631379 0
M  V30 3738 H 362.687 0.00972959 -2.04598 0
M  V30 3739 H 362.697 1.88317 -3.6194 0
M  V30 3740 H 361.372 0.825269 -4.0763 0
M  V30 3741 H 359.949 2.27379 -2.95556 0
M  V30 3742 N 362.134 1.5431 0.320358 0
M  V30 3743 C 363.411 1.63322 1.07635 0
M  V30 3744 C 363.791 0.46912 2.05821 0
M  V30 3745 O 363.139 -0.536274 2.22118 0
M  V30 3746 C 363.349 3.00465 1.77544 0
M  V30 3747 C 364.697 3.56621 2.30449 0
M  V30 3748 O 365.721 3.02791 1.87606 0
M  V30 3749 O 364.58 4.5083 3.08892 0
M  V30 3750 H 361.674 0.661502 0.496331 0
M  V30 3751 H 364.22 1.66656 0.319992 0
M  V30 3752 H 362.992 3.76629 1.06143 0
M  V30 3753 H 362.615 3.00824 2.59982 0
M  V30 3754 N 363.613 -0.582584 1.46437 0
M  V30 3755 C 364.56 -1.69164 1.5701 0
M  V30 3756 C 365.53 -1.60847 0.414403 0
M  V30 3757 O 366.715 -1.80058 0.631171 0
M  V30 3758 C 363.855 -3.075 1.56646 0
M  V30 3759 C 362.968 -3.2644 2.82951 0
M  V30 3760 C 362.103 -4.55026 2.7409 0
M  V30 3761 C 361.142 -4.6731 3.95333 0
M  V30 3762 N 360.279 -5.87221 3.84858 0
M  V30 3763 H 365.119 -1.59464 2.51744 0
M  V30 3764 H 362.656 -0.777186 1.24893 0
M  V30 3765 H 364.614 -3.8757 1.5442 0
M  V30 3766 H 363.244 -3.16096 0.654439 0
M  V30 3767 H 362.296 -2.39974 2.95155 0
M  V30 3768 H 363.608 -3.31385 3.72808 0
M  V30 3769 H 362.762 -5.43324 2.6997 0
M  V30 3770 H 361.501 -4.52519 1.81873 0
M  V30 3771 H 360.506 -3.77429 3.99784 0
M  V30 3772 H 361.731 -4.71595 4.88646 0
M  V30 3773 H 359.677 -5.85712 2.95427 0
M  V30 3774 H 359.594 -5.93435 4.6837 0
M  V30 3775 H 360.862 -6.7795 3.84713 0
M  V30 3776 N 365.091 -1.34144 -0.827227 0
M  V30 3777 C 366.021 -1.28005 -1.95287 0
M  V30 3778 C 367.002 -0.158321 -1.69362 0
M  V30 3779 O 368.187 -0.349987 -1.9102 0
M  V30 3780 C 365.317 -1.03036 -3.31664 0
M  V30 3781 C 364.271 -2.11628 -3.72019 0
M  V30 3782 C 363.597 -1.71854 -5.0633 0
M  V30 3783 C 364.897 -3.53417 -3.8457 0
M  V30 3784 H 366.591 -2.22187 -2.00682 0
M  V30 3785 H 364.137 -1.0696 -0.964135 0
M  V30 3786 H 366.09 -0.973863 -4.09993 0
M  V30 3787 H 364.814 -0.0529391 -3.26557 0
M  V30 3788 H 363.473 -2.16339 -2.95961 0
M  V30 3789 H 363.121 -0.727841 -4.97706 0
M  V30 3790 H 362.821 -2.44531 -5.34302 0
M  V30 3791 H 364.345 -1.67692 -5.87122 0
M  V30 3792 H 365.759 -3.51142 -4.5318 0
M  V30 3793 H 364.156 -4.24679 -4.2399 0
M  V30 3794 H 365.226 -3.91072 -2.86689 0
M  V30 3795 N 366.569 1.04691 -1.17803 0
M  V30 3796 C 367.517 2.14665 -0.895635 0
M  V30 3797 C 368.511 1.68806 0.141679 0
M  V30 3798 O 369.717 1.79999 -0.00587914 0
M  V30 3799 H 366.092 0.701038 -0.272121 0
M  V30 3800 H 368.063 2.35685 -1.83017 0
M  V30 3801 C 366.812 3.45019 -0.430962 0
M  V30 3802 H 366.135 3.8071 -1.22064 0
M  V30 3803 H 367.575 4.23125 -0.272301 0
M  V30 3804 C 366.034 3.25943 0.852207 0
M  V30 3805 O 366.564 3.5296 1.91786 0
M  V30 3806 N 364.77 2.79304 0.802346 0
M  V30 3807 H 364.317 2.57518 -0.0650788 0
M  V30 3808 H 364.275 2.66921 1.66134 0
M  V30 3809 N 368.047 0.979072 1.23499 0
M  V30 3810 C 369.463 0.687475 1.44034 0
M  V30 3811 C 369.663 -0.746801 1.8715 0
M  V30 3812 O 368.719 -1.51939 2.0167 0
M  V30 3813 C 370.032 1.68127 2.49307 0
M  V30 3814 C 371.58 1.69516 2.63122 0
M  V30 3815 C 372.055 2.67723 3.71603 0
M  V30 3816 N 373.546 2.66233 3.79044 0
M  V30 3817 C 374.281 3.38891 4.62537 0
M  V30 3818 N 373.777 4.21103 5.50131 0
M  V30 3819 N 375.57 3.27661 4.56721 0
M  V30 3820 H 367.721 1.90559 0.938135 0
M  V30 3821 H 369.984 0.821051 0.473897 0
M  V30 3822 H 369.69 2.70693 2.2454 0
M  V30 3823 H 369.564 1.46306 3.4767 0
M  V30 3824 H 371.951 0.676561 2.8724 0
M  V30 3825 H 372.032 1.95404 1.65079 0
M  V30 3826 H 371.676 3.69724 3.48233 0
M  V30 3827 H 371.606 2.39111 4.69184 0
M  V30 3828 H 374.097 2.06568 3.16446 0
M  V30 3829 H 374.41 4.73403 6.10827 0
M  V30 3830 H 372.755 4.25195 5.49759 0
M  V30 3831 H 375.946 2.62887 3.87309 0
M  V30 3832 H 376.119 3.84547 5.21562 0
M  V30 3833 N 369.525 -1.3858 0.750561 0
M  V30 3834 C 370.936 -1.82927 0.373438 0
M  V30 3835 C 371.287 -1.62634 -1.09748 0
M  V30 3836 O 370.412 -1.12588 -1.84805 0
M  V30 3837 C 371.007 -3.32088 0.671029 0
M  V30 3838 C 369.566 -3.74795 0.34722 0
M  V30 3839 C 368.713 -2.61391 0.92575 0
M  V30 3840 H 371.664 -1.27351 0.946958 0
M  V30 3841 H 371.685 -3.80465 -0.0518269 0
M  V30 3842 H 371.197 -3.46826 1.74164 0
M  V30 3843 H 369.298 -3.65638 -0.716933 0
M  V30 3844 H 369.411 -4.71667 0.840656 0
M  V30 3845 H 367.775 -2.52265 0.351327 0
M  V30 3846 H 368.558 -2.78929 2.00133 0
M  V30 3847 N 371.003 -0.499398 -1.49478 0
M  V30 3848 C 371.966 0.268838 -2.27618 0
M  V30 3849 C 372.966 0.895383 -1.33565 0
M  V30 3850 O 374.156 0.760164 -1.56739 0
M  V30 3851 C 371.288 1.38559 -3.11471 0
M  V30 3852 H 372.481 -0.416812 -2.96989 0
M  V30 3853 H 370.034 -0.254313 -1.54217 0
M  V30 3854 H 370.769 2.10544 -2.46661 0
M  V30 3855 H 370.554 0.941797 -3.80621 0
M  V30 3856 H 372.044 1.92678 -3.70493 0
M  V30 3857 N 372.481 1.55866 -0.233164 0
M  V30 3858 C 373.413 2.18099 0.704668 0
M  V30 3859 C 374.426 1.15334 1.14899 0
M  V30 3860 O 375.615 1.42262 1.07814 0
M  V30 3861 C 372.715 2.7592 1.96777 0
M  V30 3862 C 371.888 4.03969 1.67713 0
M  V30 3863 C 370.947 4.46242 2.78845 0
M  V30 3864 O 369.973 5.12903 2.46818 0
M  V30 3865 N 371.175 4.12886 4.08051 0
M  V30 3866 H 373.94 2.99205 0.172258 0
M  V30 3867 H 371.501 1.61815 -0.0525945 0
M  V30 3868 H 373.493 3.01165 2.70337 0
M  V30 3869 H 372.063 1.99051 2.41034 0
M  V30 3870 H 371.283 3.86459 0.777391 0
M  V30 3871 H 372.571 4.8748 1.4574 0
M  V30 3872 H 371.969 3.59342 4.3691 0
M  V30 3873 H 370.526 4.42997 4.78118 0
M  V30 3874 N 373.959 -0.0401083 1.57549 0
M  V30 3875 C 375.205 -0.734211 1.89043 0
M  V30 3876 C 375.538 -1.75591 0.829535 0
M  V30 3877 O 374.813 -1.93868 -0.156706 0
M  V30 3878 C 375.096 -1.41374 3.31188 0
M  V30 3879 C 374.949 -0.406299 4.47961 0
M  V30 3880 C 376.268 -2.35061 3.72068 0
M  V30 3881 H 373.387 -0.265447 0.687537 0
M  V30 3882 H 376.029 0.00294087 1.9 0
M  V30 3883 H 374.179 -2.04206 3.30503 0
M  V30 3884 H 375.851 0.219255 4.60779 0
M  V30 3885 H 374.094 0.275485 4.32924 0
M  V30 3886 H 374.765 -0.920022 5.44279 0
M  V30 3887 H 377.241 -1.82282 3.74049 0
M  V30 3888 H 376.117 -2.79593 4.72355 0
M  V30 3889 H 376.378 -3.21258 3.0372 0
M  V30 3890 N 375.437 -1.54477 -0.31217 0
M  V30 3891 C 376.347 -1.87695 -1.4074 0
M  V30 3892 C 377.363 -0.769975 -1.56036 0
M  V30 3893 O 378.539 -1.06537 -1.70915 0
M  V30 3894 C 375.604 -2.10755 -2.75287 0
M  V30 3895 C 374.665 -3.34514 -2.69071 0
M  V30 3896 C 373.898 -3.56465 -3.97201 0
M  V30 3897 O 374.121 -2.81637 -4.96021 0
M  V30 3898 O 373.055 -4.49964 -3.9977 0
M  V30 3899 H 376.881 -2.80849 -1.15574 0
M  V30 3900 H 374.466 -1.40526 -0.507228 0
M  V30 3901 H 376.348 -2.27188 -3.54913 0
M  V30 3902 H 375.023 -1.20788 -3.0032 0
M  V30 3903 H 373.93 -3.23456 -1.87955 0
M  V30 3904 H 375.263 -4.24575 -2.48992 0
M  V30 3905 N 376.915 0.57481 -1.46744 0
M  V30 3906 C 377.878 1.66533 -1.57478 0
M  V30 3907 C 378.878 1.54338 -0.451263 0
M  V30 3908 O 380.068 1.58814 -0.715813 0
M  V30 3909 C 377.2 3.05999 -1.50259 0
M  V30 3910 H 378.393 1.58372 -2.54673 0
M  V30 3911 H 375.946 0.793301 -1.34672 0
M  V30 3912 H 376.681 3.19709 -0.543725 0
M  V30 3913 H 376.466 3.16259 -2.31781 0
M  V30 3914 H 377.956 3.8537 -1.60872 0
M  V30 3915 N 378.394 1.34581 0.820102 0
M  V30 3916 C 379.642 1.26845 1.57336 0
M  V30 3917 C 379.963 -0.160667 1.94337 0
M  V30 3918 O 379.233 -1.09396 1.6251 0
M  V30 3919 H 377.813 0.466514 0.583415 0
M  V30 3920 H 380.475 1.68526 0.979027 0
M  V30 3921 H 379.571 1.87513 2.4949 0
M  V30 3922 N 379.872 -1.04064 1.18357 0
M  V30 3923 C 381.119 -1.77265 0.978947 0
M  V30 3924 C 381.447 -1.88189 -0.491428 0
M  V30 3925 O 380.702 -1.38653 -1.38108 0
M  V30 3926 C 381.001 -3.20634 1.57888 0
M  V30 3927 C 380.667 -3.29743 3.07539 0
M  V30 3928 C 379.329 -3.31937 3.48384 0
M  V30 3929 C 381.681 -3.29841 4.03552 0
M  V30 3930 C 379.009 -3.3187 4.83818 0
M  V30 3931 C 381.361 -3.31313 5.38901 0
M  V30 3932 C 380.025 -3.31799 5.79194 0
M  V30 3933 H 379.295 -0.648659 0.358222 0
M  V30 3934 H 381.942 -1.22225 1.47422 0
M  V30 3935 H 380.247 -3.78675 1.00561 0
M  V30 3936 H 381.944 -3.75917 1.39598 0
M  V30 3937 H 378.534 -3.28757 2.74986 0
M  V30 3938 H 382.718 -3.27337 3.73047 0
M  V30 3939 H 377.974 -3.30562 5.14333 0
M  V30 3940 H 382.148 -3.30338 6.13066 0
M  V30 3941 H 379.775 -3.315 6.84114 0
M  V30 3942 N 381.35 -0.985608 -1.22978 0
M  V30 3943 C 382.766 -0.695104 -1.43668 0
M  V30 3944 C 382.966 0.736866 -1.87543 0
M  V30 3945 O 382.022 1.50868 -2.02473 0
M  V30 3946 C 383.335 -1.69447 -2.48412 0
M  V30 3947 C 384.883 -1.70909 -2.62219 0
M  V30 3948 C 385.358 -2.6969 -3.70178 0
M  V30 3949 N 386.849 -2.6824 -3.77626 0
M  V30 3950 C 387.584 -3.41339 -4.60733 0
M  V30 3951 N 387.08 -4.24015 -5.4789 0
M  V30 3952 N 388.873 -3.30079 -4.54977 0
M  V30 3953 H 381.024 -1.91054 -0.928016 0
M  V30 3954 H 383.287 -0.823553 -0.469536 0
M  V30 3955 H 382.993 -2.7188 -2.23102 0
M  V30 3956 H 382.867 -1.48147 -3.46889 0
M  V30 3957 H 385.254 -0.691785 -2.86877 0
M  V30 3958 H 385.335 -1.96276 -1.6404 0
M  V30 3959 H 384.979 -3.71566 -3.46268 0
M  V30 3960 H 384.909 -2.41595 -4.67909 0
M  V30 3961 H 387.4 -2.08243 -3.15346 0
M  V30 3962 H 387.713 -4.76636 -6.08308 0
M  V30 3963 H 386.058 -4.28104 -5.47496 0
M  V30 3964 H 389.249 -2.64937 -3.85909 0
M  V30 3965 H 389.422 -3.87308 -5.19516 0
M  V30 3966 N 382.828 1.3818 -0.7579 0
M  V30 3967 C 384.053 2.04827 -0.325679 0
M  V30 3968 C 384.478 1.56788 1.03919 0
M  V30 3969 O 383.836 0.721811 1.66312 0
M  V30 3970 C 383.884 3.58774 -0.362447 0
M  V30 3971 O 382.988 4.07372 0.642033 0
M  V30 3972 H 382.329 0.64833 -0.143402 0
M  V30 3973 H 384.859 1.7677 -1.03023 0
M  V30 3974 H 384.869 4.07434 -0.214844 0
M  V30 3975 H 383.544 3.93096 -1.35824 0
M  V30 3976 H 382.121 3.70068 0.458688 0
M  V30 3977 N 384.306 0.507319 1.49211 0
M  V30 3978 C 385.583 -0.0982702 1.95353 0
M  V30 3979 C 385.963 -1.53516 1.449 0
M  V30 3980 O 385.311 -2.18594 0.66551 0
M  V30 3981 C 385.521 -0.00440283 3.49 0
M  V30 3982 C 386.869 -0.175147 4.24239 0
M  V30 3983 O 387.893 -0.0792891 3.56112 0
M  V30 3984 O 386.752 -0.37276 5.45227 0
M  V30 3985 H 383.846 -0.0918236 0.821887 0
M  V30 3986 H 386.392 0.570307 1.5983 0
M  V30 3987 H 385.164 0.997402 3.78375 0
M  V30 3988 H 384.787 -0.712845 3.91158 0
M  V30 3989 N 385.784 -1.5574 0.241426 0
M  V30 3990 C 387.009 -2.0366 -0.392111 0
M  V30 3991 C 387.434 -1.11969 -1.51144 0
M  V30 3992 O 386.792 -0.111594 -1.80956 0
M  V30 3993 C 386.84 -3.49638 -0.882371 0
M  V30 3994 O 385.944 -3.6108 -1.99235 0
M  V30 3995 H 385.285 -0.658379 -0.0862122 0
M  V30 3996 H 387.815 -2.01302 0.365881 0
M  V30 3997 H 387.825 -3.90351 -1.18702 0
M  V30 3998 H 386.5 -4.15852 -0.0632361 0
M  V30 3999 H 385.077 -3.32262 -1.69282 0
M  V30 4000 N 387.262 0.0317525 -1.57568 0
M  V30 4001 C 388.194 1.06073 -2.03178 0
M  V30 4002 C 389.207 1.32627 -0.944132 0
M  V30 4003 O 390.396 1.30162 -1.22148 0
M  V30 4004 C 387.496 2.40297 -2.38978 0
M  V30 4005 C 386.669 2.33137 -3.70089 0
M  V30 4006 C 385.728 3.49787 -3.9311 0
M  V30 4007 O 384.754 3.29403 -4.64201 0
M  V30 4008 N 385.956 4.71562 -3.38541 0
M  V30 4009 H 388.721 0.672006 -2.92069 0
M  V30 4010 H 386.282 0.219745 -1.60402 0
M  V30 4011 H 388.274 3.1705 -2.51518 0
M  V30 4012 H 386.844 2.71024 -1.55771 0
M  V30 4013 H 386.064 1.415 -3.67928 0
M  V30 4014 H 387.352 2.25493 -4.56104 0
M  V30 4015 H 386.75 4.91024 -2.80912 0
M  V30 4016 H 385.307 5.45689 -3.56464 0
M  V30 4017 N 388.74 1.54641 0.303973 0
M  V30 4018 C 389.988 1.73437 1.0375 0
M  V30 4019 C 390.309 0.521449 1.87899 0
M  V30 4020 O 389.579 -0.46432 1.90318 0
M  V30 4021 H 388.159 0.639518 0.386039 0
M  V30 4022 H 390.821 1.91988 0.335675 0
M  V30 4023 H 389.917 2.62235 1.69231 0
M  V30 4024 N 390.218 -0.567019 1.47046 0
M  V30 4025 C 391.467 -1.32091 1.5243 0
M  V30 4026 C 391.78 -1.94704 0.187021 0
M  V30 4027 O 392.986 -2.7124 0.118771 0
M  V30 4028 C 391.442 -2.39479 2.68659 0
M  V30 4029 C 391.05 -1.831 4.08874 0
M  V30 4030 C 392.794 -3.16111 2.83327 0
M  V30 4031 C 390.701 -2.8821 5.16419 0
M  V30 4032 H 389.631 -0.496629 0.56734 0
M  V30 4033 H 392.282 -0.603354 1.73297 0
M  V30 4034 H 390.664 -3.14105 2.41152 0
M  V30 4035 H 391.838 -1.14913 4.46242 0
M  V30 4036 H 390.153 -1.19085 3.99008 0
M  V30 4037 H 392.75 -3.94585 3.60842 0
M  V30 4038 H 393.093 -3.69686 1.91411 0
M  V30 4039 H 393.626 -2.48595 3.10556 0
M  V30 4040 H 390.365 -2.39504 6.10179 0
M  V30 4041 H 389.885 -3.54839 4.8358 0
M  V30 4042 H 391.564 -3.51881 5.42945 0
M  V30 4043 N 391.696 -1.35014 -0.812953 0
M  V30 4044 C 392.606 -1.2951 -1.95613 0
M  V30 4045 C 393.622 -0.20107 -1.72834 0
M  V30 4046 O 394.798 -0.42932 -1.96771 0
M  V30 4047 C 391.863 -1.06033 -3.30088 0
M  V30 4048 C 390.924 -2.24688 -3.65805 0
M  V30 4049 C 390.157 -2.02322 -4.93864 0
M  V30 4050 O 390.38 -0.986464 -5.61805 0
M  V30 4051 O 389.314 -2.89525 -5.27692 0
M  V30 4052 H 393.14 -2.25705 -2.03202 0
M  V30 4053 H 390.725 -1.15321 -0.949811 0
M  V30 4054 H 392.607 -0.94763 -4.10607 0
M  V30 4055 H 391.282 -0.128852 -3.23443 0
M  V30 4056 H 390.189 -2.41521 -2.85689 0
M  V30 4057 H 391.522 -3.16261 -3.77147 0
M  V30 4058 N 393.175 1.03435 -1.18907 0
M  V30 4059 C 394.421 1.77005 -0.989798 0
M  V30 4060 C 394.754 1.88205 0.478816 0
M  V30 4061 O 394.029 1.39481 1.35556 0
M  V30 4062 C 394.312 3.19925 -1.65287 0
M  V30 4063 C 394.165 3.1663 -3.19477 0
M  V30 4064 C 395.484 4.18189 -1.37134 0
M  V30 4065 H 392.603 0.642538 -0.360991 0
M  V30 4066 H 395.245 1.20784 -1.46667 0
M  V30 4067 H 393.395 3.67929 -1.24741 0
M  V30 4068 H 395.067 2.76567 -3.692 0
M  V30 4069 H 393.31 2.54491 -3.51307 0
M  V30 4070 H 393.981 4.1758 -3.61013 0
M  V30 4071 H 396.457 3.78761 -1.72276 0
M  V30 4072 H 395.333 5.16394 -1.86087 0
M  V30 4073 H 395.594 4.41112 -0.295424 0
M  V30 4074 N 394.653 0.992116 1.22453 0
M  V30 4075 C 395.6 0.541731 2.24352 0
M  V30 4076 C 396.57 -0.425519 1.60557 0
M  V30 4077 O 397.755 -0.330453 1.87917 0
M  V30 4078 C 394.895 -0.138248 3.44823 0
M  V30 4079 C 394.008 0.870649 4.23136 0
M  V30 4080 C 393.143 0.164269 5.30946 0
M  V30 4081 C 392.182 1.16159 6.00977 0
M  V30 4082 N 391.319 0.483568 7.00433 0
M  V30 4083 H 396.159 1.41541 2.62241 0
M  V30 4084 H 393.696 0.709013 1.28885 0
M  V30 4085 H 395.654 -0.5494 4.13567 0
M  V30 4086 H 394.284 -0.975721 3.077 0
M  V30 4087 H 393.336 1.40013 3.53696 0
M  V30 4088 H 394.648 1.63014 4.7141 0
M  V30 4089 H 393.802 -0.303653 6.0594 0
M  V30 4090 H 392.541 -0.627733 4.83643 0
M  V30 4091 H 391.546 1.64015 5.24766 0
M  V30 4092 H 392.771 1.95445 6.50368 0
M  V30 4093 H 390.717 -0.289012 6.55363 0
M  V30 4094 H 390.634 1.18152 7.4671 0
M  V30 4095 H 391.902 0.0384219 7.79491 0
M  V30 4096 N 396.131 -1.37776 0.765217 0
M  V30 4097 C 397.377 -2.00145 0.327072 0
M  V30 4098 C 397.71 -1.60607 -1.09175 0
M  V30 4099 O 396.985 -0.849127 -1.74986 0
M  V30 4100 C 397.268 -3.57109 0.46319 0
M  V30 4101 C 397.121 -4.06576 1.92395 0
M  V30 4102 C 398.44 -4.39888 -0.136473 0
M  V30 4103 H 395.559 -0.727113 0.120316 0
M  V30 4104 H 398.201 -1.63549 0.967039 0
M  V30 4105 H 396.351 -3.88414 -0.0816358 0
M  V30 4106 H 398.023 -3.85864 2.52798 0
M  V30 4107 H 396.266 -3.59011 2.43503 0
M  V30 4108 H 396.937 -5.15639 1.97028 0
M  V30 4109 H 399.413 -4.14803 0.328317 0
M  V30 4110 H 398.289 -5.48899 -0.0110582 0
M  V30 4111 H 398.55 -4.24758 -1.22608 0
M  V30 4112 N 397.609 -0.515225 -1.4894 0
M  V30 4113 C 398.886 0.0879088 -1.95402 0
M  V30 4114 C 399.266 1.52745 -1.45712 0
M  V30 4115 O 398.614 2.18238 -0.677093 0
M  V30 4116 C 398.824 -0.0141055 -3.48997 0
M  V30 4117 C 400.172 0.152646 -4.24326 0
M  V30 4118 O 401.196 0.0604025 -3.56149 0
M  V30 4119 O 400.055 0.34384 -5.45417 0
M  V30 4120 H 397.149 0.0874636 -0.822362 0
M  V30 4121 H 399.695 -0.578775 -1.59525 0
M  V30 4122 H 398.467 -1.01745 -3.77841 0
M  V30 4123 H 398.09 0.692091 -3.9153 0
M  V30 4124 N 399.087 1.5561 -0.249682 0
M  V30 4125 C 400.335 1.98618 0.373548 0
M  V30 4126 C 400.656 1.13919 1.58264 0
M  V30 4127 O 399.926 0.222637 1.94631 0
M  V30 4128 H 398.506 0.733571 0.141006 0
M  V30 4129 H 401.168 1.91748 -0.349117 0
M  V30 4130 H 400.264 3.04584 0.680796 0
M  V30 4131 N 400.565 -0.0233959 1.57583 0
M  V30 4132 C 401.475 -1.03907 2.10334 0
M  V30 4133 C 402.491 -1.39257 1.04323 0
M  V30 4134 O 403.667 -1.48462 1.36091 0
M  V30 4135 C 400.732 -2.31938 2.57693 0
M  V30 4136 C 399.793 -2.03117 3.78209 0
M  V30 4137 C 399.026 -3.25043 4.233 0
M  V30 4138 O 399.249 -4.35916 3.67876 0
M  V30 4139 O 398.183 -3.10411 5.15683 0
M  V30 4140 H 402.009 -0.620748 2.97288 0
M  V30 4141 H 399.594 -0.240743 1.47448 0
M  V30 4142 H 401.476 -3.07196 2.88458 0
M  V30 4143 H 400.151 -2.73055 1.73847 0
M  V30 4144 H 399.058 -1.25408 3.52454 0
M  V30 4145 H 400.391 -1.66852 4.63056 0
M  V30 4146 N 402.043 -1.548 -0.295768 0
M  V30 4147 C 403.29 -1.74329 -1.03032 0
M  V30 4148 C 403.618 -0.531915 -1.87085 0
M  V30 4149 O 402.873 0.486052 -1.89568 0
M  V30 4150 C 403.172 -2.98797 -1.961 0
M  V30 4151 C 402.838 -4.32356 -1.2798 0
M  V30 4152 C 401.5 -4.68661 -1.09135 0
M  V30 4153 C 403.852 -5.15128 -0.793243 0
M  V30 4154 C 401.18 -5.85312 -0.403269 0
M  V30 4155 C 403.532 -6.32488 -0.118854 0
M  V30 4156 C 402.196 -6.6745 0.0815043 0
M  V30 4157 H 401.466 -0.637916 -0.37702 0
M  V30 4158 H 404.113 -1.8906 -0.304696 0
M  V30 4159 H 402.418 -2.78869 -2.75207 0
M  V30 4160 H 404.115 -3.11102 -2.53015 0
M  V30 4161 H 400.705 -4.03808 -1.43655 0
M  V30 4162 H 404.889 -4.87575 -0.92653 0
M  V30 4163 H 400.145 -6.1094 -0.237098 0
M  V30 4164 H 404.319 -6.95892 0.266035 0
M  V30 4165 H 401.946 -7.57695 0.616685 0
M  V30 4166 N 403.521 0.559213 -1.47345 0
M  V30 4167 C 404.932 1.14134 -1.47751 0
M  V30 4168 C 405.283 1.94834 -0.231103 0
M  V30 4169 O 404.408 2.05957 0.664137 0
M  V30 4170 C 405.003 2.07653 -2.67705 0
M  V30 4171 C 403.562 2.61141 -2.71076 0
M  V30 4172 C 402.709 1.3748 -2.40821 0
M  V30 4173 H 405.66 0.345917 -1.54884 0
M  V30 4174 H 405.681 2.91497 -2.44561 0
M  V30 4175 H 405.193 1.4889 -3.58404 0
M  V30 4176 H 403.294 3.23707 -1.84511 0
M  V30 4177 H 403.407 3.02272 -3.7171 0
M  V30 4178 H 401.771 1.68086 -1.91362 0
M  V30 4179 H 402.554 0.805135 -3.33725 0
M  V30 4180 N 404.999 1.35443 0.805782 0
M  V30 4181 C 406.247 1.28507 1.55982 0
M  V30 4182 C 406.568 -0.140046 1.94496 0
M  V30 4183 O 405.838 -1.07666 1.63661 0
M  V30 4184 H 404.418 0.472676 0.578434 0
M  V30 4185 H 407.08 1.69555 0.961098 0
M  V30 4186 H 406.176 1.90148 2.47488 0
M  V30 4187 N 406.477 -1.02803 1.19454 0
M  V30 4188 C 407.723 -1.76478 0.999171 0
M  V30 4189 C 408.056 -1.88456 -0.468828 0
M  V30 4190 O 407.331 -1.40198 -1.34814 0
M  V30 4191 C 407.614 -3.19044 1.66981 0
M  V30 4192 C 407.467 -3.14932 3.21151 0
M  V30 4193 C 408.786 -4.17456 1.39349 0
M  V30 4194 H 405.905 -0.640614 0.364393 0
M  V30 4195 H 408.547 -1.20005 1.47305 0
M  V30 4196 H 406.697 -3.67263 1.2669 0
M  V30 4197 H 408.369 -2.74605 3.70661 0
M  V30 4198 H 406.612 -2.52625 3.52652 0
M  V30 4199 H 407.283 -4.1566 3.63223 0
M  V30 4200 H 409.759 -3.77842 1.74283 0
M  V30 4201 H 408.635 -5.154 1.88823 0
M  V30 4202 H 408.896 -4.40949 0.318813 0
M  V30 4203 N 407.956 -0.998596 -1.21925 0
M  V30 4204 C 409.181 -0.696015 -1.95372 0
M  V30 4205 C 409.606 0.733826 -1.73195 0
M  V30 4206 O 408.964 1.50242 -1.01474 0
M  V30 4207 C 409.012 -1.01466 -3.4603 0
M  V30 4208 O 408.116 -0.116415 -4.12236 0
M  V30 4209 H 407.457 -0.259938 -0.611006 0
M  V30 4210 H 409.987 -1.33711 -1.54863 0
M  V30 4211 H 409.997 -0.958855 -3.96573 0
M  V30 4212 H 408.672 -2.05653 -3.61497 0
M  V30 4213 H 407.249 -0.228193 -3.72201 0
M  V30 4214 N 409.434 1.37368 -0.772513 0
M  V30 4215 C 410.68 1.99969 -0.337681 0
M  V30 4216 C 411.013 1.61184 1.08321 0
M  V30 4217 O 410.288 0.858395 1.74533 0
M  V30 4218 C 410.571 3.56858 -0.482121 0
M  V30 4219 C 410.424 4.0555 -1.94549 0
M  V30 4220 C 411.743 4.39955 0.113143 0
M  V30 4221 H 408.862 0.726464 -0.124171 0
M  V30 4222 H 411.504 1.63034 -0.975699 0
M  V30 4223 H 409.654 3.88452 0.0610361 0
M  V30 4224 H 411.326 3.84518 -2.54841 0
M  V30 4225 H 409.569 3.57715 -2.45403 0
M  V30 4226 H 410.24 5.14587 -1.9976 0
M  V30 4227 H 412.716 4.14623 -0.35031 0
M  V30 4228 H 411.592 5.48897 -0.0180514 0
M  V30 4229 H 411.853 4.25403 1.20354 0
M  V30 4230 N 410.912 0.523116 1.48665 0
M  V30 4231 C 412.189 -0.0775449 1.95446 0
M  V30 4232 C 412.569 -1.5197 1.4652 0
M  V30 4233 O 411.917 -2.17876 0.688657 0
M  V30 4234 C 412.127 0.0326135 3.48985 0
M  V30 4235 C 413.475 -0.130141 4.24401 0
M  V30 4236 O 414.499 -0.0415142 3.56176 0
M  V30 4237 O 413.358 -0.31491 5.45592 0
M  V30 4238 H 410.452 -0.0831012 0.822814 0
M  V30 4239 H 412.998 0.587227 1.59216 0
M  V30 4240 H 411.77 1.03748 3.77296 0
M  V30 4241 H 411.393 -0.671317 3.91892 0
M  V30 4242 N 412.39 -1.55475 0.257931 0
M  V30 4243 C 413.353 -2.20551 -0.623706 0
M  V30 4244 C 414.353 -1.17809 -1.09443 0
M  V30 4245 O 415.543 -1.42823 -0.997362 0
M  V30 4246 C 412.675 -2.85784 -1.8585 0
M  V30 4247 H 413.868 -2.99848 -0.0557743 0
M  V30 4248 H 411.421 -1.56298 0.0084422 0
M  V30 4249 H 412.156 -2.10453 -2.46739 0
M  V30 4250 H 411.941 -3.61057 -1.52907 0
M  V30 4251 H 413.431 -3.35553 -2.48584 0
M  V30 4252 N 413.868 0.0150385 -1.57593 0
M  V30 4253 C 415.116 0.701613 -1.8953 0
M  V30 4254 C 415.437 1.75139 -0.857396 0
M  V30 4255 O 414.707 1.95607 0.107194 0
M  V30 4256 H 413.287 0.26213 -0.699498 0
M  V30 4257 H 415.949 -0.0223304 -1.94887 0
M  V30 4258 H 415.045 1.18236 -2.88837 0
M  V30 4259 N 415.346 1.54954 0.287554 0
M  V30 4260 C 416.594 1.74528 1.01904 0
M  V30 4261 C 416.915 0.541349 1.87335 0
M  V30 4262 O 416.185 -0.444108 1.908 0
M  V30 4263 H 414.765 0.643576 0.379235 0
M  V30 4264 H 417.427 1.92333 0.315294 0
M  V30 4265 H 416.523 2.64015 1.6644 0
M  V30 4266 N 416.824 -0.551391 1.4764 0
M  V30 4267 C 418.072 -1.30572 1.54258 0
M  V30 4268 C 418.393 -1.93877 0.208963 0
M  V30 4269 O 417.663 -1.80234 -0.767619 0
M  V30 4270 H 416.243 -0.484894 0.568231 0
M  V30 4271 H 418.905 -0.643402 1.83974 0
M  V30 4272 H 418.001 -2.09621 2.31226 0
M  V30 4273 N 418.302 -1.35869 -0.798587 0
M  V30 4274 C 419.232 -1.32118 -1.92528 0
M  V30 4275 C 420.213 -0.194209 -1.68988 0
M  V30 4276 O 421.398 -0.390426 -1.90235 0
M  V30 4277 C 418.528 -1.10047 -3.29404 0
M  V30 4278 C 417.482 -2.19471 -3.67446 0
M  V30 4279 C 416.808 -1.82555 -5.02571 0
M  V30 4280 C 418.108 -3.61495 -3.76987 0
M  V30 4281 H 419.802 -2.26394 -1.95924 0
M  V30 4282 H 417.348 -1.08981 -0.94123 0
M  V30 4283 H 419.301 -1.06061 -4.07835 0
M  V30 4284 H 418.025 -0.122195 -3.26371 0
M  V30 4285 H 416.684 -2.22568 -2.91306 0
M  V30 4286 H 416.332 -0.833249 -4.9605 0
M  V30 4287 H 416.032 -2.5581 -5.28995 0
M  V30 4288 H 417.556 -1.80108 -5.83432 0
M  V30 4289 H 418.97 -3.60676 -4.4563 0
M  V30 4290 H 417.367 -4.33577 -4.14887 0
M  V30 4291 H 418.437 -3.97065 -2.78329 0
M  V30 4292 N 419.78 1.02168 -1.19998 0
M  V30 4293 C 421.196 1.27969 -0.953737 0
M  V30 4294 C 421.396 1.98079 0.369703 0
M  V30 4295 O 420.452 2.27306 1.09947 0
M  V30 4296 C 421.765 2.11971 -2.13281 0
M  V30 4297 C 423.313 2.25255 -2.17323 0
M  V30 4298 C 423.788 3.12632 -3.34702 0
M  V30 4299 N 425.279 3.2022 -3.34684 0
M  V30 4300 C 426.014 3.88039 -4.22153 0
M  V30 4301 N 425.51 4.58027 -5.19791 0
M  V30 4302 N 427.303 3.84511 -4.10009 0
M  V30 4303 H 419.454 0.550794 -2.05134 0
M  V30 4304 H 421.717 0.305683 -0.897364 0
M  V30 4305 H 421.423 1.67785 -3.09097 0
M  V30 4306 H 421.297 3.12699 -2.10949 0
M  V30 4307 H 423.684 2.68667 -1.22073 0
M  V30 4308 H 423.765 1.24053 -2.23706 0
M  V30 4309 H 423.409 2.69926 -4.30235 0
M  V30 4310 H 423.339 4.13909 -3.25556 0
M  V30 4311 H 425.83 2.70382 -2.64012 0
M  V30 4312 H 426.143 5.07429 -5.82868 0
M  V30 4313 H 424.488 4.56869 -5.23733 0
M  V30 4314 H 427.679 3.28978 -3.33003 0
M  V30 4315 H 427.852 4.3709 -4.78389 0
M  V30 4316 N 421.258 1.00505 1.21394 0
M  V30 4317 C 422.674 0.717873 1.42544 0
M  V30 4318 C 422.874 -0.706936 1.88692 0
M  V30 4319 O 421.93 -1.47627 2.04847 0
M  V30 4320 C 423.243 1.73377 2.45684 0
M  V30 4321 C 424.791 1.75059 2.59467 0
M  V30 4322 C 425.266 2.75545 3.6584 0
M  V30 4323 N 426.757 2.74213 3.73311 0
M  V30 4324 C 427.492 3.48626 4.55245 0
M  V30 4325 N 426.988 4.32678 5.41075 0
M  V30 4326 N 428.781 3.37276 4.49668 0
M  V30 4327 H 420.932 1.92506 0.897503 0
M  V30 4328 H 423.195 0.830919 0.456375 0
M  V30 4329 H 422.901 2.75395 2.18748 0
M  V30 4330 H 422.775 1.53647 3.44489 0
M  V30 4331 H 425.162 0.737337 2.8574 0
M  V30 4332 H 425.243 1.98861 1.60897 0
M  V30 4333 H 424.887 3.77028 3.40313 0
M  V30 4334 H 424.817 2.49009 4.64007 0
M  V30 4335 H 427.308 2.13234 3.11993 0
M  V30 4336 H 427.621 4.86253 6.00648 0
M  V30 4337 H 425.966 4.3676 5.40616 0
M  V30 4338 H 429.157 2.71043 3.81646 0
M  V30 4339 H 429.33 3.95524 5.13288 0
M  V30 4340 N 422.737 -1.36956 0.779787 0
M  V30 4341 C 423.986 -1.98738 0.344405 0
M  V30 4342 C 424.299 -1.62596 -1.08728 0
M  V30 4343 O 425.505 -2.1754 -1.62445 0
M  V30 4344 C 423.961 -3.5544 0.564829 0
M  V30 4345 C 423.569 -4.00514 2.0073 0
M  V30 4346 C 425.313 -4.24059 0.193471 0
M  V30 4347 C 423.22 -5.49957 2.17489 0
M  V30 4348 H 422.15 -0.743561 0.12503 0
M  V30 4349 H 424.801 -1.56381 0.960057 0
M  V30 4350 H 423.183 -3.95817 -0.120397 0
M  V30 4351 H 424.357 -3.71362 2.72814 0
M  V30 4352 H 422.672 -3.44703 2.336 0
M  V30 4353 H 425.269 -5.33874 0.297097 0
M  V30 4354 H 425.612 -4.07378 -0.857263 0
M  V30 4355 H 426.145 -3.89012 0.831556 0
M  V30 4356 H 422.884 -5.71574 3.2091 0
M  V30 4357 H 422.404 -5.80767 1.49899 0
M  V30 4358 H 424.083 -6.16043 1.97738 0
M  V30 4359 N 424.215 -0.530993 -1.48385 0
M  V30 4360 C 425.145 0.219985 -2.32461 0
M  V30 4361 C 426.126 0.934111 -1.42156 0
M  V30 4362 O 427.311 0.919694 -1.71042 0
M  V30 4363 C 424.441 1.26674 -3.23375 0
M  V30 4364 C 423.395 0.67069 -4.22712 0
M  V30 4365 C 422.721 1.82017 -5.02766 0
M  V30 4366 C 424.021 -0.358268 -5.2107 0
M  V30 4367 H 425.715 -0.48187 -2.95497 0
M  V30 4368 H 423.261 -0.233182 -1.42099 0
M  V30 4369 H 425.214 1.80006 -3.81019 0
M  V30 4370 H 423.938 1.99818 -2.58341 0
M  V30 4371 H 422.597 0.158878 -3.66256 0
M  V30 4372 H 422.245 2.54002 -4.34157 0
M  V30 4373 H 421.945 1.42727 -5.70003 0
M  V30 4374 H 423.469 2.35725 -5.63264 0
M  V30 4375 H 424.883 0.0880081 -5.73232 0
M  V30 4376 H 423.28 -0.66861 -5.96364 0
M  V30 4377 H 424.35 -1.26367 -4.68145 0
M  V30 4378 N 425.693 1.55336 -0.266172 0
M  V30 4379 C 426.641 2.23587 0.641228 0
M  V30 4380 C 427.635 1.22986 1.16494 0
M  V30 4381 O 428.841 1.40943 1.1196 0
M  V30 4382 H 425.216 0.717452 0.225315 0
M  V30 4383 H 427.187 2.9837 0.0426561 0
M  V30 4384 C 425.936 2.96369 1.81826 0
M  V30 4385 H 425.259 3.73563 1.42445 0
M  V30 4386 H 426.699 3.47459 2.42998 0
M  V30 4387 C 425.158 2.0133 2.70125 0
M  V30 4388 O 425.688 1.55875 3.70224 0
M  V30 4389 N 423.894 1.6802 2.37102 0
M  V30 4390 H 423.441 2.05181 1.55751 0
M  V30 4391 H 423.399 1.047 2.96454 0
M  V30 4392 N 427.171 -0.0066808 1.57599 0
M  V30 4393 C 428.121 -1.0086 2.04478 0
M  V30 4394 C 429.105 -1.30714 0.938231 0
M  V30 4395 O 430.297 -1.29924 1.20203 0
M  V30 4396 C 427.426 -2.30273 2.54615 0
M  V30 4397 C 426.512 -2.03413 3.72134 0
M  V30 4398 N 426.903 -1.46688 4.84062 0
M  V30 4399 C 425.201 -2.33589 3.79937 0
M  V30 4400 C 425.902 -1.36146 5.65543 0
M  V30 4401 N 424.878 -1.84477 5.1134 0
M  V30 4402 H 428.68 -0.564402 2.8843 0
M  V30 4403 H 426.194 -0.212521 1.61003 0
M  V30 4404 H 428.191 -3.02885 2.86472 0
M  V30 4405 H 426.851 -2.75352 1.72079 0
M  V30 4406 H 427.862 -1.14658 5.05049 0
M  V30 4407 H 424.539 -2.81589 3.08243 0
M  V30 4408 H 425.929 -0.925873 6.6549 0
M  V30 4409 N 428.649 -1.55105 -0.279332 0
M  V30 4410 C 430.06 -1.66186 -0.850832 0
M  V30 4411 C 430.411 -0.584707 -1.87285 0
M  V30 4412 O 429.536 0.274919 -2.14647 0
M  V30 4413 C 430.131 -3.01264 -1.55001 0
M  V30 4414 C 428.69 -3.14394 -2.06963 0
M  V30 4415 C 427.837 -2.61959 -0.909536 0
M  V30 4416 H 430.788 -1.58602 -0.0558235 0
M  V30 4417 H 430.809 -2.93899 -2.41669 0
M  V30 4418 H 430.321 -3.7964 -0.805931 0
M  V30 4419 H 428.422 -2.4078 -2.84352 0
M  V30 4420 H 428.535 -4.20867 -2.28928 0
M  V30 4421 H 426.899 -2.18957 -1.30116 0
M  V30 4422 H 427.682 -3.42833 -0.179062 0
M  V30 4423 N 430.127 0.543554 -1.4793 0
M  V30 4424 C 431.057 1.65888 -1.64327 0
M  V30 4425 C 432.038 1.62818 -0.492383 0
M  V30 4426 O 433.223 1.80226 -0.723338 0
M  V30 4427 C 430.353 3.04506 -1.67013 0
M  V30 4428 C 429.307 3.2243 -2.81466 0
M  V30 4429 C 428.633 4.61972 -2.69233 0
M  V30 4430 C 429.933 3.06496 -4.22915 0
M  V30 4431 H 431.627 1.52421 -2.57698 0
M  V30 4432 H 429.173 0.731849 -1.24016 0
M  V30 4433 H 431.126 3.82391 -1.77074 0
M  V30 4434 H 429.85 3.18964 -0.70212 0
M  V30 4435 H 428.509 2.46957 -2.70938 0
M  V30 4436 H 428.157 4.73247 -1.7043 0
M  V30 4437 H 427.857 4.74911 -3.46025 0
M  V30 4438 H 429.381 5.41974 -2.81242 0
M  V30 4439 H 430.795 3.74186 -4.34348 0
M  V30 4440 H 429.192 3.30938 -5.006 0
M  V30 4441 H 430.262 2.03077 -4.40327 0
M  V30 4442 N 431.605 1.3629 0.791371 0
M  V30 4443 C 432.854 1.29742 1.54434 0
M  V30 4444 C 433.167 -0.121729 1.95221 0
M  V30 4445 O 434.373 -0.309579 2.69729 0
M  V30 4446 C 432.829 2.27623 2.78776 0
M  V30 4447 C 432.437 3.74963 2.45166 0
M  V30 4448 C 434.181 2.30047 3.56761 0
M  V30 4449 C 432.088 4.64626 3.65891 0
M  V30 4450 H 431.018 0.482113 0.579727 0
M  V30 4451 H 433.669 1.61642 0.868565 0
M  V30 4452 H 432.051 1.88714 3.48142 0
M  V30 4453 H 433.225 4.22596 1.83709 0
M  V30 4454 H 431.54 3.75295 1.80396 0
M  V30 4455 H 434.137 2.94247 4.46456 0
M  V30 4456 H 434.48 1.30846 3.95203 0
M  V30 4457 H 435.013 2.67563 2.94372 0
M  V30 4458 H 431.752 5.64883 3.32547 0
M  V30 4459 H 431.272 4.2171 4.26521 0
M  V30 4460 H 432.951 4.80801 4.32943 0
M  V30 4461 N 433.083 -1.0153 1.20538 0
M  V30 4462 C 434.494 -1.56598 1.01657 0
M  V30 4463 C 434.845 -1.91505 -0.426668 0
M  V30 4464 O 433.97 -1.72375 -1.30827 0
M  V30 4465 C 434.565 -2.84542 1.83905 0
M  V30 4466 C 433.124 -3.36133 1.69386 0
M  V30 4467 C 432.271 -2.09427 1.81757 0
M  V30 4468 H 435.222 -0.838974 1.34711 0
M  V30 4469 H 435.243 -3.56004 1.34319 0
M  V30 4470 H 434.755 -2.59105 2.8894 0
M  V30 4471 H 432.856 -3.66528 0.669933 0
M  V30 4472 H 432.969 -4.08248 2.50739 0
M  V30 4473 H 431.333 -2.21941 1.24957 0
M  V30 4474 H 432.116 -1.86414 2.88279 0
M  V30 4475 N 434.561 -1.01147 -1.20859 0
M  V30 4476 C 435.491 -0.597663 -2.25722 0
M  V30 4477 C 436.472 0.384744 -1.65692 0
M  V30 4478 O 437.657 0.271303 -1.92296 0
M  V30 4479 C 434.787 0.0700149 -3.47229 0
M  V30 4480 C 433.741 -0.832843 -4.19819 0
M  V30 4481 C 433.067 -0.0312202 -5.34691 0
M  V30 4482 C 434.367 -2.1385 -4.76514 0
M  V30 4483 H 436.061 -1.47423 -2.60589 0
M  V30 4484 H 433.607 -0.710301 -1.25263 0
M  V30 4485 H 435.56 0.37103 -4.19763 0
M  V30 4486 H 434.284 0.981259 -3.11511 0
M  V30 4487 H 432.943 -1.11778 -3.49144 0
M  V30 4488 H 432.591 0.881515 -4.95215 0
M  V30 4489 H 432.291 -0.632434 -5.84187 0
M  V30 4490 H 433.815 0.26346 -6.10031 0
M  V30 4491 H 435.229 -1.9002 -5.40893 0
M  V30 4492 H 433.626 -2.69012 -5.36426 0
M  V30 4493 H 434.696 -2.80495 -3.95538 0
M  V30 4494 N 436.039 1.36541 -0.78704 0
M  V30 4495 C 437.285 1.99599 -0.358872 0
M  V30 4496 C 437.618 1.62323 1.06606 0
M  V30 4497 O 436.893 0.876858 1.73613 0
M  V30 4498 C 437.176 3.56327 -0.519944 0
M  V30 4499 C 437.029 4.03464 -1.98839 0
M  V30 4500 C 438.348 4.4005 0.0664737 0
M  V30 4501 H 435.467 0.725107 -0.131869 0
M  V30 4502 H 438.109 1.6199 -0.992936 0
M  V30 4503 H 436.259 3.88495 0.0198321 0
M  V30 4504 H 437.931 3.81793 -2.58905 0
M  V30 4505 H 436.174 3.55092 -2.49183 0
M  V30 4506 H 436.845 5.12439 -2.05207 0
M  V30 4507 H 439.321 4.14228 -0.394267 0
M  V30 4508 H 438.197 5.48847 -0.0762682 0
M  V30 4509 H 438.458 4.26655 1.15835 0
M  V30 4510 N 437.518 0.538854 1.48102 0
M  V30 4511 C 438.468 -0.23907 2.26743 0
M  V30 4512 C 439.452 -0.901923 1.33245 0
M  V30 4513 O 440.644 -0.803263 1.57723 0
M  V30 4514 C 437.773 -1.2799 3.18549 0
M  V30 4515 C 436.859 -0.621388 4.19523 0
M  V30 4516 N 437.25 0.298004 5.04921 0
M  V30 4517 C 435.548 -0.877533 4.37282 0
M  V30 4518 C 436.249 0.678757 5.77726 0
M  V30 4519 N 435.225 0.0377881 5.43587 0
M  V30 4520 H 439.027 0.468096 2.90148 0
M  V30 4521 H 436.541 0.357497 1.58416 0
M  V30 4522 H 438.538 -1.851 3.73555 0
M  V30 4523 H 437.198 -1.98835 2.567 0
M  V30 4524 H 438.209 0.671126 5.13533 0
M  V30 4525 H 434.886 -1.57588 3.86616 0
M  V30 4526 H 436.276 1.43316 6.56437 0
M  V30 4527 N 438.996 -1.55193 0.274407 0
M  V30 4528 C 439.946 -2.19184 -0.627882 0
M  V30 4529 C 440.93 -1.15625 -1.11892 0
M  V30 4530 O 442.122 -1.41441 -1.06411 0
M  V30 4531 C 439.251 -2.91591 -1.81189 0
M  V30 4532 C 438.337 -4.02438 -1.33807 0
M  V30 4533 N 438.728 -5.0246 -0.580349 0
M  V30 4534 C 437.026 -4.15496 -1.62109 0
M  V30 4535 C 437.727 -5.80756 -0.331344 0
M  V30 4536 N 436.703 -5.36038 -0.903556 0
M  V30 4537 H 440.505 -2.93871 -0.0411216 0
M  V30 4538 H 438.019 -1.62213 0.0779348 0
M  V30 4539 H 440.016 -3.35883 -2.46957 0
M  V30 4540 H 438.676 -2.18414 -2.40261 0
M  V30 4541 H 439.687 -5.17399 -0.227762 0
M  V30 4542 H 436.364 -3.53509 -2.22121 0
M  V30 4543 H 437.754 -6.71335 0.275454 0
M  V30 4544 N 440.474 -0.00167713 -1.576 0
M  V30 4545 C 441.722 0.681471 -1.90264 0
M  V30 4546 C 442.043 1.7422 -0.875924 0
M  V30 4547 O 441.313 1.95709 0.0864412 0
M  V30 4548 H 439.893 0.254696 -0.702239 0
M  V30 4549 H 442.555 -0.0429996 -1.94853 0
M  V30 4550 H 441.651 1.15166 -2.90075 0
M  V30 4551 N 441.952 1.55251 0.271103 0
M  V30 4552 C 442.885 1.83191 1.36075 0
M  V30 4553 C 443.863 0.685091 1.47463 0
M  V30 4554 O 445.047 0.928292 1.64058 0
M  V30 4555 C 442.174 1.99521 2.73696 0
M  V30 4556 C 441.22 3.22081 2.79582 0
M  V30 4557 S 442.053 4.79388 2.38636 0
M  V30 4558 C 443.209 4.98693 3.78228 0
M  V30 4559 H 443.442 2.75327 1.12171 0
M  V30 4560 H 440.975 1.47046 0.470833 0
M  V30 4561 H 442.933 2.09613 3.52948 0
M  V30 4562 H 441.594 1.0827 2.9485 0
M  V30 4563 H 440.787 3.304 3.80594 0
M  V30 4564 H 440.389 3.10589 2.08352 0
M  V30 4565 H 442.681 4.84551 4.73515 0
M  V30 4566 H 443.624 6.00738 3.7486 0
M  V30 4567 H 444.032 4.26665 3.69618 0
M  V30 4568 N 443.43 -0.535701 1.48216 0
M  V30 4569 C 444.676 -1.29375 1.56173 0
M  V30 4570 C 445.009 -1.92804 0.232429 0
M  V30 4571 O 444.284 -1.78992 -0.761048 0
M  V30 4572 C 444.567 -2.38747 2.69577 0
M  V30 4573 C 444.42 -1.80046 4.12193 0
M  V30 4574 C 445.739 -3.40551 2.78771 0
M  V30 4575 H 442.858 -0.469027 0.568491 0
M  V30 4576 H 445.5 -0.597358 1.80365 0
M  V30 4577 H 443.65 -2.98147 2.4908 0
M  V30 4578 H 445.322 -1.24742 4.44114 0
M  V30 4579 H 443.565 -1.10609 4.19462 0
M  V30 4580 H 444.236 -2.59212 4.87353 0
M  V30 4581 H 446.712 -2.91099 2.97322 0
M  V30 4582 H 445.588 -4.1448 3.59857 0
M  V30 4583 H 445.849 -4.00746 1.86696 0
M  V30 4584 N 444.908 -1.36708 -0.784132 0
M  V30 4585 C 446.156 -1.30972 -1.53918 0
M  V30 4586 C 446.477 0.109086 -1.94695 0
M  V30 4587 O 445.747 1.05048 -1.65353 0
M  V30 4588 H 444.327 -0.481819 -0.570841 0
M  V30 4589 H 446.989 -1.71063 -0.934002 0
M  V30 4590 H 446.085 -1.94061 -2.44431 0
M  V30 4591 N 446.386 1.0089 -1.21074 0
M  V30 4592 C 447.333 2.09588 -0.966512 0
M  V30 4593 C 448.303 1.65761 0.106089 0
M  V30 4594 O 449.488 1.90758 -0.0402287 0
M  V30 4595 C 446.628 3.40958 -0.533058 0
M  V30 4596 C 445.741 3.9822 -1.67467 0
M  V30 4597 C 444.876 5.17682 -1.19076 0
M  V30 4598 C 443.915 5.67043 -2.30496 0
M  V30 4599 N 443.052 6.77759 -1.83267 0
M  V30 4600 H 447.892 2.29815 -1.89708 0
M  V30 4601 H 445.429 1.12689 -0.945489 0
M  V30 4602 H 447.387 4.1637 -0.263019 0
M  V30 4603 H 446.017 3.20781 0.360505 0
M  V30 4604 H 445.069 3.1983 -2.05944 0
M  V30 4605 H 446.381 4.3085 -2.51336 0
M  V30 4606 H 445.535 6.00326 -0.877151 0
M  V30 4607 H 444.274 4.86635 -0.322066 0
M  V30 4608 H 443.279 4.82999 -2.62664 0
M  V30 4609 H 444.504 6.00121 -3.17855 0
M  V30 4610 H 442.45 6.48527 -0.987356 0
M  V30 4611 H 442.367 7.09624 -2.60711 0
M  V30 4612 H 443.635 7.63949 -1.54928 0
M  V30 4613 N 447.864 1.01787 1.20321 0
M  V30 4614 C 449.111 0.707936 1.89722 0
M  V30 4615 C 449.439 -0.762535 1.78929 0
M  V30 4616 O 448.694 -1.56977 1.16861 0
M  V30 4617 C 448.993 1.09076 3.40349 0
M  V30 4618 C 448.659 2.55765 3.71342 0
M  V30 4619 C 447.321 2.95845 3.79511 0
M  V30 4620 C 449.673 3.50723 3.85542 0
M  V30 4621 C 447.001 4.2982 3.99339 0
M  V30 4622 C 449.353 4.84387 4.06881 0
M  V30 4623 C 448.017 5.24172 4.1328 0
M  V30 4624 H 447.287 0.259052 0.694243 0
M  V30 4625 H 449.934 1.27868 1.42555 0
M  V30 4626 H 448.239 0.438453 3.89339 0
M  V30 4627 H 449.936 0.828636 3.92345 0
M  V30 4628 H 446.526 2.2371 3.65584 0
M  V30 4629 H 450.71 3.20916 3.78585 0
M  V30 4630 H 445.966 4.60196 4.02529 0
M  V30 4631 H 450.14 5.57891 4.1681 0
M  V30 4632 H 447.767 6.27997 4.28396 0
M  V30 4633 N 449.342 -1.36122 0.79427 0
M  V30 4634 C 450.29 -2.31871 0.184023 0
M  V30 4635 C 451.284 -1.56041 -0.659365 0
M  V30 4636 O 452.49 -1.71266 -0.553906 0
M  V30 4637 H 448.865 -0.750896 0.0407373 0
M  V30 4638 H 450.836 -2.80898 1.00693 0
M  V30 4639 C 449.585 -3.41324 -0.662813 0
M  V30 4640 H 448.908 -3.99793 -0.0231944 0
M  V30 4641 H 450.348 -4.10629 -1.05639 0
M  V30 4642 C 448.807 -2.83308 -1.82313 0
M  V30 4643 O 449.337 -2.75863 -2.91997 0
M  V30 4644 N 447.543 -2.40529 -1.63077 0
M  V30 4645 H 447.09 -2.46785 -0.738591 0
M  V30 4646 H 447.048 -2.02059 -2.40872 0
M  V30 4647 N 450.82 -0.546701 -1.47814 0
M  V30 4648 C 451.768 0.220048 -2.31557 0
M  V30 4649 C 452.762 0.919472 -1.42275 0
M  V30 4650 O 453.968 0.841953 -1.59095 0
M  V30 4651 H 450.343 0.0898334 -0.746615 0
M  V30 4652 H 452.314 -0.505589 -2.94086 0
M  V30 4653 C 451.063 1.24353 -3.24702 0
M  V30 4654 H 450.386 0.714758 -3.93359 0
M  V30 4655 H 451.826 1.75112 -3.8615 0
M  V30 4656 C 450.285 2.28593 -2.47481 0
M  V30 4657 O 450.815 3.35334 -2.21165 0
M  V30 4658 N 449.021 2.02244 -2.08676 0
M  V30 4659 H 448.568 1.15455 -2.30278 0
M  V30 4660 H 448.526 2.72207 -1.57323 0
M  V30 4661 N 452.299 1.55045 -0.282633 0
M  V30 4662 C 453.546 1.9976 0.33199 0
M  V30 4663 C 453.874 1.17105 1.55295 0
M  V30 4664 O 453.129 0.230599 1.94337 0
M  V30 4665 C 453.428 3.49422 0.750938 0
M  V30 4666 C 453.094 4.4941 -0.366228 0
M  V30 4667 C 451.756 4.76471 -0.672964 0
M  V30 4668 C 454.108 5.09054 -1.11864 0
M  V30 4669 C 451.436 5.60442 -1.73556 0
M  V30 4670 C 453.788 5.9418 -2.17102 0
M  V30 4671 C 452.452 6.19558 -2.48402 0
M  V30 4672 H 451.722 0.730974 0.121484 0
M  V30 4673 H 454.369 1.8732 -0.39791 0
M  V30 4674 H 452.674 3.59377 1.56063 0
M  V30 4675 H 454.371 3.81432 1.23736 0
M  V30 4676 H 450.961 4.2844 -0.117041 0
M  V30 4677 H 455.145 4.88165 -0.894925 0
M  V30 4678 H 450.401 5.78349 -1.983 0
M  V30 4679 H 454.575 6.39427 -2.75873 0
M  V30 4680 H 452.202 6.84417 -3.30874 0
M  V30 4681 N 453.777 0.010035 1.57597 0
M  V30 4682 C 454.725 -0.996272 2.10184 0
M  V30 4683 C 455.719 -1.34942 1.02406 0
M  V30 4684 O 456.925 -1.33389 1.20861 0
M  V30 4685 H 453.3 -0.338982 0.671264 0
M  V30 4686 H 455.271 -0.527272 2.93705 0
M  V30 4687 C 454.02 -2.27599 2.62857 0
M  V30 4688 H 453.343 -2.01295 3.45428 0
M  V30 4689 H 454.783 -2.96265 3.0332 0
M  V30 4690 C 453.242 -2.99269 1.54725 0
M  V30 4691 O 453.772 -3.90644 0.93597 0
M  V30 4692 N 451.978 -2.61269 1.27228 0
M  V30 4693 H 451.525 -1.87043 1.77123 0
M  V30 4694 H 451.483 -3.09534 0.550999 0
M  V30 4695 N 455.255 -1.55392 -0.262866 0
M  V30 4696 C 456.501 -1.76737 -0.99458 0
M  V30 4697 C 456.834 -0.572453 -1.85571 0
M  V30 4698 O 456.109 0.429732 -1.89693 0
M  V30 4699 C 456.392 -3.07824 -1.8686 0
M  V30 4700 C 456.245 -4.3769 -1.03672 0
M  V30 4701 C 457.564 -3.35021 -2.85393 0
M  V30 4702 H 454.683 -0.643005 -0.360157 0
M  V30 4703 H 457.325 -1.88126 -0.266216 0
M  V30 4704 H 455.475 -2.98245 -2.48962 0
M  V30 4705 H 457.147 -4.59238 -0.43563 0
M  V30 4706 H 455.39 -4.32461 -0.340513 0
M  V30 4707 H 456.061 -5.25759 -1.6817 0
M  V30 4708 H 458.537 -3.44458 -2.33426 0
M  V30 4709 H 457.413 -4.27989 -3.43681 0
M  V30 4710 H 457.674 -2.55153 -3.61039 0
M  V30 4711 N 456.733 0.527833 -1.48498 0
M  V30 4712 C 458.01 1.28905 -1.47115 0
M  V30 4713 C 458.39 2.10297 -0.184007 0
M  V30 4714 O 457.738 2.12728 0.834218 0
M  V30 4715 C 457.948 2.16866 -2.73441 0
M  V30 4716 C 459.296 2.76936 -3.21857 0
M  V30 4717 O 460.32 2.27152 -2.74373 0
M  V30 4718 O 459.179 3.67496 -4.04486 0
M  V30 4719 H 456.273 0.581918 -0.587623 0
M  V30 4720 H 458.819 0.544311 -1.60734 0
M  V30 4721 H 457.591 1.56521 -3.58632 0
M  V30 4722 H 457.214 2.98583 -2.62553 0
M  V30 4723 N 458.211 1.37122 0.776871 0
M  V30 4724 C 459.174 1.32301 1.8716 0
M  V30 4725 C 460.174 0.228099 1.59174 0
M  V30 4726 O 461.364 0.483642 1.67352 0
M  V30 4727 C 458.496 1.054 3.24197 0
M  V30 4728 H 459.689 2.29673 1.92848 0
M  V30 4729 H 457.242 1.22077 0.97606 0
M  V30 4730 H 457.977 0.0853872 3.24188 0
M  V30 4731 H 457.762 1.84648 3.45901 0
M  V30 4732 H 459.252 1.04664 4.04271 0
M  V30 4733 N 459.689 -1.00246 1.21608 0
M  V30 4734 C 460.621 -2.09244 0.935401 0
M  V30 4735 C 461.634 -1.62592 -0.0823594 0
M  V30 4736 O 462.823 -1.77865 0.150456 0
M  V30 4737 C 459.923 -3.36724 0.383453 0
M  V30 4738 C 459.096 -4.1245 1.45615 0
M  V30 4739 C 458.155 -5.18219 0.912991 0
M  V30 4740 O 457.181 -5.46337 1.59701 0
M  V30 4741 N 458.383 -5.7987 -0.270478 0
M  V30 4742 H 461.148 -2.33905 1.87373 0
M  V30 4743 H 458.709 -1.16748 1.12167 0
M  V30 4744 H 460.701 -4.047 0.00562157 0
M  V30 4745 H 459.271 -3.09201 -0.459758 0
M  V30 4746 H 458.491 -3.39241 2.00772 0
M  V30 4747 H 459.779 -4.59819 2.17817 0
M  V30 4748 H 459.177 -5.59381 -0.843195 0
M  V30 4749 H 457.734 -6.49126 -0.589794 0
M  V30 4750 N 461.167 -1.02423 -1.1978 0
M  V30 4751 C 462.097 -0.62157 -2.25075 0
M  V30 4752 C 463.078 0.367148 -1.6609 0
M  V30 4753 O 464.263 0.250892 -1.92573 0
M  V30 4754 C 461.393 0.0331826 -3.47284 0
M  V30 4755 C 460.347 -0.877323 -4.18912 0
M  V30 4756 C 459.673 -0.0879296 -5.34628 0
M  V30 4757 C 460.973 -2.18892 -4.74219 0
M  V30 4758 H 462.667 -1.50179 -2.59011 0
M  V30 4759 H 460.213 -0.723547 -1.24502 0
M  V30 4760 H 462.166 0.326488 -4.20133 0
M  V30 4761 H 460.89 0.948164 -3.12534 0
M  V30 4762 H 459.549 -1.15475 -3.47938 0
M  V30 4763 H 459.197 0.828941 -4.96123 0
M  V30 4764 H 458.897 -0.694359 -5.83483 0
M  V30 4765 H 460.421 0.198743 -6.10276 0
M  V30 4766 H 461.835 -1.95746 -5.38847 0
M  V30 4767 H 460.232 -2.74686 -5.33542 0
M  V30 4768 H 461.302 -2.84674 -3.92541 0
M  V30 4769 N 462.645 1.35699 -0.801477 0
M  V30 4770 C 463.592 2.29876 -0.206294 0
M  V30 4771 C 464.562 1.52565 0.656752 0
M  V30 4772 O 465.747 1.81024 0.602906 0
M  V30 4773 C 462.887 3.39052 0.643272 0
M  V30 4774 C 462 4.31335 -0.239644 0
M  V30 4775 C 461.135 5.27599 0.61744 0
M  V30 4776 C 460.174 6.11521 -0.26619 0
M  V30 4777 N 459.311 6.99938 0.550571 0
M  V30 4778 H 464.151 2.80187 -1.01484 0
M  V30 4779 H 461.688 1.37902 -0.511997 0
M  V30 4780 H 463.646 4.0101 1.15094 0
M  V30 4781 H 462.276 2.9003 1.41713 0
M  V30 4782 H 461.328 3.70426 -0.865381 0
M  V30 4783 H 462.64 4.90243 -0.919985 0
M  V30 4784 H 461.794 5.94906 1.19045 0
M  V30 4785 H 460.533 4.69176 1.33137 0
M  V30 4786 H 459.538 5.43166 -0.851507 0
M  V30 4787 H 460.763 6.72022 -0.9779 0
M  V30 4788 H 458.709 6.44008 1.24856 0
M  V30 4789 H 458.626 7.55966 -0.071832 0
M  V30 4790 H 459.894 7.71599 1.10702 0
M  V30 4791 N 464.123 0.554532 1.47522 0
M  V30 4792 C 465.369 0.0295227 2.02779 0
M  V30 4793 C 465.702 -1.31582 1.42828 0
M  V30 4794 O 464.977 -1.85561 0.582872 0
M  V30 4795 C 465.26 -0.0664057 3.60039 0
M  V30 4796 C 465.113 1.30585 4.30427 0
M  V30 4797 C 466.432 -0.781162 4.33112 0
M  V30 4798 H 463.551 0.0122027 0.736899 0
M  V30 4799 H 466.193 0.716305 1.7598 0
M  V30 4800 H 464.343 -0.651307 3.83002 0
M  V30 4801 H 466.015 1.93374 4.18813 0
M  V30 4802 H 464.258 1.88125 3.90886 0
M  V30 4803 H 464.929 1.19147 5.38988 0
M  V30 4804 H 467.405 -0.284565 4.15126 0
M  V30 4805 H 466.281 -0.817237 5.42782 0
M  V30 4806 H 466.542 -1.83672 4.0214 0
M  V30 4807 N 465.601 -1.54893 0.290851 0
M  V30 4808 C 466.847 -2.0023 -0.321867 0
M  V30 4809 C 467.18 -1.179 -1.54316 0
M  V30 4810 O 466.455 -0.25293 -1.92848 0
M  V30 4811 C 466.738 -3.53456 -0.688515 0
M  V30 4812 C 466.591 -4.46532 0.541209 0
M  V30 4813 C 467.91 -4.13057 -1.51895 0
M  V30 4814 H 465.029 -0.727891 -0.115515 0
M  V30 4815 H 467.671 -1.85722 0.400931 0
M  V30 4816 H 465.821 -3.6595 -1.30433 0
M  V30 4817 H 467.493 -4.4596 1.17973 0
M  V30 4818 H 465.736 -4.17545 1.17636 0
M  V30 4819 H 466.407 -5.51475 0.240675 0
M  V30 4820 H 468.883 -4.03937 -0.99872 0
M  V30 4821 H 467.759 -5.20448 -1.74429 0
M  V30 4822 H 468.02 -3.64284 -2.50498 0
M  V30 4823 N 467.08 -0.0183926 -1.57589 0
M  V30 4824 C 468.01 0.965596 -2.12599 0
M  V30 4825 C 468.991 1.34641 -1.0395 0
M  V30 4826 O 470.176 1.42693 -1.31729 0
M  V30 4827 C 467.306 2.25149 -2.64434 0
M  V30 4828 C 466.26 2.01175 -3.77773 0
M  V30 4829 C 465.586 3.35937 -4.15994 0
M  V30 4830 C 466.886 1.35953 -5.04296 0
M  V30 4831 H 468.58 0.507504 -2.95067 0
M  V30 4832 H 466.126 0.242671 -1.41941 0
M  V30 4833 H 468.079 2.94357 -3.01549 0
M  V30 4834 H 466.803 2.73105 -1.79112 0
M  V30 4835 H 465.462 1.34388 -3.4108 0
M  V30 4836 H 465.11 3.81631 -3.27669 0
M  V30 4837 H 464.81 3.20705 -4.92364 0
M  V30 4838 H 466.334 4.0643 -4.55683 0
M  V30 4839 H 467.748 1.95144 -5.39065 0
M  V30 4840 H 466.145 1.31152 -5.85593 0
M  V30 4841 H 467.215 0.331071 -4.83768 0
M  V30 4842 N 468.558 1.5553 0.254621 0
M  V30 4843 C 469.969 1.67518 0.824286 0
M  V30 4844 C 470.32 0.614429 1.86331 0
M  V30 4845 O 469.445 -0.240736 2.15057 0
M  V30 4846 C 470.04 3.03692 1.50189 0
M  V30 4847 C 468.599 3.17646 2.01935 0
M  V30 4848 C 467.746 2.63373 0.867746 0
M  V30 4849 H 470.697 1.58671 0.0305843 0
M  V30 4850 H 470.718 2.97706 2.36962 0
M  V30 4851 H 470.23 3.80874 0.745431 0
M  V30 4852 H 468.331 2.45273 2.80485 0
M  V30 4853 H 468.444 4.24455 2.22204 0
M  V30 4854 H 466.808 2.20999 1.26616 0
M  V30 4855 H 467.591 3.43074 0.124498 0
M  V30 4856 N 470.036 -0.519951 1.48776 0
M  V30 4857 C 470.983 -1.62352 1.64044 0
M  V30 4858 C 471.953 -1.58945 0.482251 0
M  V30 4859 O 473.138 -1.77219 0.706971 0
M  V30 4860 C 470.278 -3.00579 1.69547 0
M  V30 4861 C 469.391 -3.14145 2.96541 0
M  V30 4862 C 468.526 -4.42991 2.93142 0
M  V30 4863 C 467.565 -4.50122 4.14797 0
M  V30 4864 N 466.702 -5.7037 4.09418 0
M  V30 4865 H 471.542 -1.48643 2.58281 0
M  V30 4866 H 469.079 -0.723516 1.28077 0
M  V30 4867 H 471.037 -3.80671 1.70719 0
M  V30 4868 H 469.667 -3.13036 0.787918 0
M  V30 4869 H 468.719 -2.27239 3.05068 0
M  V30 4870 H 470.031 -3.15275 3.86527 0
M  V30 4871 H 469.185 -5.31385 2.92772 0
M  V30 4872 H 467.924 -4.44398 2.00902 0
M  V30 4873 H 466.929 -3.60133 4.15433 0
M  V30 4874 H 468.154 -4.50445 5.08208 0
M  V30 4875 H 466.1 -5.72655 3.20004 0
M  V30 4876 H 466.017 -5.73036 4.93119 0
M  V30 4877 H 467.285 -6.61023 4.13121 0
M  V30 4878 N 471.514 -1.37532 -0.769588 0
M  V30 4879 C 472.762 -1.32597 -1.5252 0
M  V30 4880 C 473.083 0.0884294 -1.94799 0
M  V30 4881 O 472.353 1.03289 -1.66458 0
M  V30 4882 H 470.933 -0.487846 -0.565699 0
M  V30 4883 H 473.595 -1.72044 -0.915806 0
M  V30 4884 H 472.691 -1.96643 -2.42359 0
M  V30 4885 N 472.992 0.995999 -1.22138 0
M  V30 4886 C 474.222 1.76809 -1.06874 0
M  V30 4887 C 474.63 1.85265 0.383866 0
M  V30 4888 O 473.973 1.31969 1.27789 0
M  V30 4889 C 474.035 3.2186 -1.60144 0
M  V30 4890 C 473.699 3.36958 -3.0872 0
M  V30 4891 C 474.696 3.2452 -4.0618 0
M  V30 4892 C 472.381 3.62109 -3.48112 0
M  V30 4893 C 474.375 3.37013 -5.41019 0
M  V30 4894 C 472.062 3.74243 -4.831 0
M  V30 4895 C 473.06 3.61702 -5.79362 0
M  V30 4896 O 472.748 3.73436 -7.119 0
M  V30 4897 H 472.48 0.562207 -0.375365 0
M  V30 4898 H 475.034 1.26113 -1.62125 0
M  V30 4899 H 473.264 3.73734 -0.992981 0
M  V30 4900 H 474.953 3.80775 -1.40589 0
M  V30 4901 H 475.719 3.05004 -3.77091 0
M  V30 4902 H 471.598 3.70949 -2.73712 0
M  V30 4903 H 475.142 3.27141 -6.16137 0
M  V30 4904 H 471.039 3.93266 -5.11872 0
M  V30 4905 H 471.807 3.90328 -7.19435 0
M  V30 4906 N 474.47 1.03057 1.19235 0
M  V30 4907 C 475.417 0.612832 2.22515 0
M  V30 4908 C 476.387 -0.374224 1.61829 0
M  V30 4909 O 477.572 -0.270501 1.88873 0
M  V30 4910 C 474.712 -0.028475 3.45088 0
M  V30 4911 C 473.825 1.00483 4.20151 0
M  V30 4912 C 472.96 0.333102 5.30155 0
M  V30 4913 C 471.999 1.3522 5.96977 0
M  V30 4914 N 471.136 0.70616 6.9854 0
M  V30 4915 H 475.976 1.49812 2.57605 0
M  V30 4916 H 473.513 0.749658 1.26564 0
M  V30 4917 H 475.471 -0.417548 4.15105 0
M  V30 4918 H 474.101 -0.877334 3.10649 0
M  V30 4919 H 473.153 1.51194 3.49062 0
M  V30 4920 H 474.465 1.77929 4.65986 0
M  V30 4921 H 473.619 -0.110725 6.06599 0
M  V30 4922 H 472.358 -0.473547 4.85396 0
M  V30 4923 H 471.363 1.80627 5.19282 0
M  V30 4924 H 472.588 2.16037 6.4382 0
M  V30 4925 H 470.534 -0.0803667 6.55951 0
M  V30 4926 H 470.451 1.41848 7.42573 0
M  V30 4927 H 471.719 0.286391 7.78974 0
M  V30 4928 N 475.948 -1.35272 0.808662 0
M  V30 4929 C 477.197 -1.97963 0.386483 0
M  V30 4930 C 477.51 -1.64866 -1.05255 0
M  V30 4931 O 478.716 -2.20937 -1.57794 0
M  V30 4932 C 477.172 -3.54162 0.640096 0
M  V30 4933 C 476.78 -3.96166 2.0918 0
M  V30 4934 C 478.524 -4.23553 0.283376 0
M  V30 4935 C 476.431 -5.4522 2.29106 0
M  V30 4936 H 475.361 -0.740742 0.140774 0
M  V30 4937 H 478.012 -1.5431 0.993012 0
M  V30 4938 H 476.394 -3.95983 -0.0364117 0
M  V30 4939 H 477.568 -3.65491 2.80629 0
M  V30 4940 H 475.883 -3.3967 2.40859 0
M  V30 4941 H 478.48 -5.33124 0.410273 0
M  V30 4942 H 478.823 -4.09105 -0.770659 0
M  V30 4943 H 479.356 -3.8716 0.913884 0
M  V30 4944 H 476.095 -5.64638 3.32962 0
M  V30 4945 H 475.615 -5.77457 1.62184 0
M  V30 4946 H 477.294 -6.1171 2.1076 0
M  V30 4947 N 477.426 -0.562348 -1.47226 0
M  V30 4948 C 478.842 -0.222492 -1.58042 0
M  V30 4949 C 479.042 1.27505 -1.56028 0
M  V30 4950 O 478.098 2.05555 -1.46641 0
M  V30 4951 C 479.411 -0.853694 -2.88327 0
M  V30 4952 C 480.959 -0.825397 -3.01921 0
M  V30 4953 C 481.434 -1.43576 -4.34914 0
M  V30 4954 N 482.925 -1.39918 -4.41562 0
M  V30 4955 C 483.66 -1.84103 -5.43041 0
M  V30 4956 N 483.156 -2.36167 -6.51304 0
M  V30 4957 N 484.949 -1.75142 -5.34118 0
M  V30 4958 H 477.1 -1.53525 -1.46778 0
M  V30 4959 H 479.363 -0.640527 -0.698877 0
M  V30 4960 H 479.069 -1.90635 -2.95552 0
M  V30 4961 H 478.943 -0.34977 -3.75575 0
M  V30 4962 H 481.33 0.218583 -2.94289 0
M  V30 4963 H 481.411 -1.36713 -2.16202 0
M  V30 4964 H 481.055 -2.47884 -4.43301 0
M  V30 4965 H 480.985 -0.869427 -5.19373 0
M  V30 4966 H 483.476 -1.0184 -3.63919 0
M  V30 4967 H 483.789 -2.67793 -7.24919 0
M  V30 4968 H 482.134 -2.40181 -6.52179 0
M  V30 4969 H 485.325 -1.34241 -4.48439 0
M  V30 4970 H 485.498 -2.09895 -6.13065 0
M  V30 4971 N 478.904 1.54736 -0.299062 0
M  V30 4972 C 480.134 2.04215 0.312992 0
M  V30 4973 C 480.542 1.17596 1.48215 0
M  V30 4974 O 479.885 0.193835 1.82674 0
M  V30 4975 C 479.947 3.49696 0.833862 0
M  V30 4976 C 479.611 4.56518 -0.20977 0
M  V30 4977 C 480.608 5.09442 -1.03756 0
M  V30 4978 C 478.293 5.01073 -0.35091 0
M  V30 4979 C 480.287 6.05459 -1.99244 0
M  V30 4980 C 477.974 5.9691 -1.30924 0
M  V30 4981 C 478.972 6.48987 -2.1285 0
M  V30 4982 O 478.66 7.42947 -3.07059 0
M  V30 4983 H 478.392 0.672128 0.0722494 0
M  V30 4984 H 480.946 2.00718 -0.436043 0
M  V30 4985 H 479.176 3.5051 1.63339 0
M  V30 4986 H 480.865 3.82381 1.36159 0
M  V30 4987 H 481.631 4.75816 -0.939376 0
M  V30 4988 H 477.51 4.60168 0.276813 0
M  V30 4989 H 481.054 6.46031 -2.63229 0
M  V30 4990 H 476.951 6.29953 -1.40815 0
M  V30 4991 H 477.719 7.60743 -3.02015 0
M  V30 4992 N 480.382 0.0267497 1.57577 0
M  V30 4993 C 481.345 -0.940916 2.08996 0
M  V30 4994 C 482.345 -1.25561 1.00455 0
M  V30 4995 O 483.535 -1.19634 1.26623 0
M  V30 4996 C 480.667 -2.25814 2.55384 0
M  V30 4997 H 481.86 -0.495628 2.95776 0
M  V30 4998 H 479.413 -0.221241 1.54726 0
M  V30 4999 H 480.148 -2.74976 1.71926 0
M  V30 5000 H 479.933 -2.04285 3.34679 0
M  V30 5001 H 481.423 -2.95178 2.95398 0
M  V30 5002 N 481.861 -1.55662 -0.24637 0
M  V30 5003 C 482.824 -1.89558 -1.28842 0
M  V30 5004 C 483.824 -0.772082 -1.41052 0
M  V30 5005 O 485.014 -1.04007 -1.39743 0
M  V30 5006 C 482.146 -2.12449 -2.66605 0
M  V30 5007 H 483.339 -2.82735 -1.00004 0
M  V30 5008 H 480.892 -1.48562 -0.485684 0
M  V30 5009 H 481.627 -1.21742 -3.00582 0
M  V30 5010 H 481.412 -2.94273 -2.59125 0
M  V30 5011 H 482.902 -2.39854 -3.41847 0
M  V30 5012 N 483.339 0.512053 -1.4905 0
M  V30 5013 C 484.75 1.09376 -1.51307 0
M  V30 5014 C 485.101 1.94 -0.292971 0
M  V30 5015 O 484.226 2.07965 0.598277 0
M  V30 5016 C 484.821 1.99031 -2.74176 0
M  V30 5017 C 483.38 2.52385 -2.79247 0
M  V30 5018 C 482.527 1.29749 -2.45073 0
M  V30 5019 H 485.478 0.296467 -1.55906 0
M  V30 5020 H 485.499 2.83569 -2.53711 0
M  V30 5021 H 485.011 1.37412 -3.62959 0
M  V30 5022 H 483.112 3.17673 -1.94716 0
M  V30 5023 H 483.225 2.90293 -3.81139 0
M  V30 5024 H 481.589 1.61912 -1.96612 0
M  V30 5025 H 482.372 0.698555 -3.36118 0
M  V30 5026 N 484.817 1.37938 0.762283 0
M  V30 5027 C 485.749 1.30349 1.88525 0
M  V30 5028 C 486.762 0.217402 1.61342 0
M  V30 5029 O 487.951 0.474291 1.72084 0
M  V30 5030 C 485.051 0.994844 3.23969 0
M  V30 5031 C 484.224 2.18829 3.78725 0
M  V30 5032 C 483.283 1.84844 4.92665 0
M  V30 5033 O 482.309 2.57244 5.07754 0
M  V30 5034 N 483.511 0.798201 5.74986 0
M  V30 5035 H 486.276 2.27114 1.95549 0
M  V30 5036 H 483.837 1.31686 0.941825 0
M  V30 5037 H 485.829 0.748168 3.97724 0
M  V30 5038 H 484.399 0.115446 3.12387 0
M  V30 5039 H 483.619 2.59615 2.96637 0
M  V30 5040 H 484.907 2.98497 4.1204 0
M  V30 5041 H 484.305 0.197611 5.65355 0
M  V30 5042 H 482.862 0.611396 6.48926 0
M  V30 5043 N 486.295 -0.989507 1.22664 0
M  V30 5044 C 487.525 -1.7624 1.0781 0
M  V30 5045 C 487.933 -1.85466 -0.374036 0
M  V30 5046 O 487.276 -1.32645 -1.27087 0
M  V30 5047 C 487.338 -3.21007 1.61849 0
M  V30 5048 C 487.002 -3.35316 3.10503 0
M  V30 5049 C 487.999 -3.22362 4.07896 0
M  V30 5050 C 485.684 -3.60258 3.50028 0
M  V30 5051 C 487.678 -3.34139 5.42798 0
M  V30 5052 C 485.365 -3.71676 4.85078 0
M  V30 5053 C 486.363 -3.58625 5.81272 0
M  V30 5054 O 486.051 -3.69655 7.1387 0
M  V30 5055 H 485.783 -0.560209 0.378341 0
M  V30 5056 H 488.337 -1.25252 1.62792 0
M  V30 5057 H 486.567 -3.73202 1.01279 0
M  V30 5058 H 488.256 -3.80024 1.42606 0
M  V30 5059 H 489.022 -3.03 3.78703 0
M  V30 5060 H 484.901 -3.69492 2.75675 0
M  V30 5061 H 488.445 -3.23869 6.17863 0
M  V30 5062 H 484.342 -3.90545 5.1395 0
M  V30 5063 H 485.11 -3.86507 7.21495 0
M  V30 5064 N 487.773 -1.03688 -1.18687 0
M  V30 5065 C 489.189 -0.755413 -1.4059 0
M  V30 5066 C 489.389 0.656659 -1.905 0
M  V30 5067 O 488.445 1.42144 -2.08689 0
M  V30 5068 C 489.758 -1.7983 -2.41001 0
M  V30 5069 C 491.306 -1.81877 -2.54735 0
M  V30 5070 C 491.781 -2.85148 -3.58406 0
M  V30 5071 N 493.272 -2.84015 -3.6591 0
M  V30 5072 C 494.007 -3.60573 -4.45841 0
M  V30 5073 N 493.503 -4.46871 -5.29413 0
M  V30 5074 N 495.296 -3.49079 -4.40568 0
M  V30 5075 H 487.447 -1.94818 -0.846148 0
M  V30 5076 H 489.71 -0.842727 -0.434184 0
M  V30 5077 H 489.416 -2.81097 -2.1137 0
M  V30 5078 H 489.29 -1.62727 -3.40294 0
M  V30 5079 H 491.677 -0.812836 -2.83685 0
M  V30 5080 H 491.758 -2.03057 -1.55568 0
M  V30 5081 H 491.402 -3.85918 -3.30197 0
M  V30 5082 H 491.332 -2.61224 -4.57241 0
M  V30 5083 H 493.823 -2.21431 -3.0623 0
M  V30 5084 H 494.136 -5.02007 -5.87545 0
M  V30 5085 H 492.481 -4.5094 -5.28846 0
M  V30 5086 H 495.672 -2.81066 -3.74325 0
M  V30 5087 H 495.845 -4.08994 -5.02621 0
M  V30 5088 N 489.251 1.34841 -0.815825 0
M  V30 5089 C 490.476 2.03261 -0.41226 0
M  V30 5090 C 490.901 1.61055 0.971751 0
M  V30 5091 O 490.259 0.7917 1.63101 0
M  V30 5092 C 490.307 3.56914 -0.514289 0
M  V30 5093 O 489.411 4.09728 0.468675 0
M  V30 5094 H 488.752 0.641664 -0.170771 0
M  V30 5095 H 491.282 1.72241 -1.10427 0
M  V30 5096 H 491.292 4.06156 -0.387457 0
M  V30 5097 H 489.967 3.86982 -1.52375 0
M  V30 5098 H 488.544 3.71681 0.301316 0
M  V30 5099 N 490.729 0.570148 1.46925 0
M  V30 5100 C 491.661 -0.207909 2.28255 0
M  V30 5101 C 492.674 -0.867301 1.37774 0
M  V30 5102 O 493.863 -0.738976 1.62485 0
M  V30 5103 C 490.963 -1.31298 3.12433 0
M  V30 5104 C 490.136 -0.747915 4.30958 0
M  V30 5105 C 489.195 -1.7391 4.9663 0
M  V30 5106 O 488.221 -1.2801 5.54619 0
M  V30 5107 N 489.423 -3.07288 4.92498 0
M  V30 5108 H 492.188 0.489794 2.95671 0
M  V30 5109 H 489.749 0.407076 1.56699 0
M  V30 5110 H 491.741 -1.97507 3.53232 0
M  V30 5111 H 490.311 -1.91373 2.47175 0
M  V30 5112 H 489.531 0.0913066 3.94094 0
M  V30 5113 H 490.819 -0.349958 5.07595 0
M  V30 5114 H 490.217 -3.47213 4.46609 0
M  V30 5115 H 488.774 -3.69021 5.37277 0
M  V30 5116 N 492.207 -1.54576 0.307264 0
M  V30 5117 C 493.155 -2.25208 -0.581723 0
M  V30 5118 C 494.149 -1.26031 -1.13192 0
M  V30 5119 O 495.355 -1.43862 -1.08184 0
M  V30 5120 H 491.73 -0.723173 -0.206214 0
M  V30 5121 H 493.701 -2.98378 0.0364663 0
M  V30 5122 C 492.45 -3.01086 -1.73904 0
M  V30 5123 H 491.773 -3.77208 -1.32491 0
M  V30 5124 H 493.213 -3.5378 -2.33701 0
M  V30 5125 C 491.672 -2.08422 -2.64692 0
M  V30 5126 O 492.202 -1.65636 -3.65961 0
M  V30 5127 N 490.408 -1.74247 -2.32564 0
M  V30 5128 H 489.955 -2.09238 -1.50257 0
M  V30 5129 H 489.913 -1.12524 -2.93574 0
M  V30 5130 N 493.685 -0.035106 -1.57561 0
M  V30 5131 C 494.615 0.942993 -2.13612 0
M  V30 5132 C 495.596 1.33531 -1.05373 0
M  V30 5133 O 496.781 1.41287 -1.33235 0
M  V30 5134 C 493.911 2.22332 -2.66807 0
M  V30 5135 C 492.865 1.97156 -3.79886 0
M  V30 5136 C 492.191 3.31506 -4.19533 0
M  V30 5137 C 493.491 1.30596 -5.05709 0
M  V30 5138 H 495.185 0.476179 -2.95589 0
M  V30 5139 H 492.731 0.227602 -1.4219 0
M  V30 5140 H 494.684 2.91142 -3.04654 0
M  V30 5141 H 493.408 2.7119 -1.81999 0
M  V30 5142 H 492.067 1.30763 -3.42486 0
M  V30 5143 H 491.715 3.78134 -3.31698 0
M  V30 5144 H 491.415 3.15465 -4.95738 0
M  V30 5145 H 492.939 4.01574 -4.59968 0
M  V30 5146 H 494.353 1.89416 -5.41105 0
M  V30 5147 H 492.75 1.24934 -5.86951 0
M  V30 5148 H 493.82 0.279742 -4.84092 0
M  V30 5149 N 495.163 1.55791 0.238111 0
M  V30 5150 C 496.073 1.94196 1.31625 0
M  V30 5151 C 497.089 0.843545 1.52185 0
M  V30 5152 O 498.265 1.1457 1.65637 0
M  V30 5153 C 495.33 2.2365 2.64918 0
M  V30 5154 C 494.391 3.46971 2.52804 0
M  V30 5155 C 493.624 3.7501 3.79741 0
M  V30 5156 O 493.847 3.04982 4.82019 0
M  V30 5157 O 492.781 4.68525 3.77846 0
M  V30 5158 H 496.607 2.86044 1.02043 0
M  V30 5159 H 494.192 1.42786 0.439603 0
M  V30 5160 H 496.074 2.43863 3.4367 0
M  V30 5161 H 494.749 1.34979 2.94215 0
M  V30 5162 H 493.656 3.32055 1.72309 0
M  V30 5163 H 494.989 4.35971 2.28451 0
M  V30 5164 N 496.642 -0.504142 1.49319 0
M  V30 5165 C 497.552 -1.63248 1.68486 0
M  V30 5166 C 498.568 -1.64488 0.567432 0
M  V30 5167 O 499.744 -1.82966 0.841749 0
M  V30 5168 C 496.809 -2.99627 1.74426 0
M  V30 5169 C 495.87 -3.09039 2.97982 0
M  V30 5170 C 495.103 -4.38913 3.0363 0
M  V30 5171 O 495.326 -5.27528 2.16958 0
M  V30 5172 O 494.26 -4.53231 3.96062 0
M  V30 5173 H 498.086 -1.50008 2.64067 0
M  V30 5174 H 495.671 -0.680086 1.33023 0
M  V30 5175 H 497.553 -3.80689 1.80705 0
M  V30 5176 H 496.228 -3.13136 0.820233 0
M  V30 5177 H 495.135 -2.27177 2.97223 0
M  V30 5178 H 496.468 -3.00456 3.89855 0
M  V30 5179 N 498.12 -1.38341 -0.754957 0
M  V30 5180 C 499.35 -1.37504 -1.54195 0
M  V30 5181 C 499.758 0.0373787 -1.89163 0
M  V30 5182 O 499.101 1.01402 -1.53178 0
M  V30 5183 C 499.163 -2.16488 -2.87008 0
M  V30 5184 C 498.827 -3.65311 -2.74585 0
M  V30 5185 C 499.824 -4.58834 -2.44474 0
M  V30 5186 C 497.509 -4.08649 -2.9208 0
M  V30 5187 C 499.503 -5.93675 -2.32011 0
M  V30 5188 C 497.19 -5.43571 -2.79237 0
M  V30 5189 C 498.188 -6.35898 -2.49245 0
M  V30 5190 O 497.876 -7.68338 -2.36458 0
M  V30 5191 H 497.608 -0.472159 -0.483779 0
M  V30 5192 H 500.162 -1.82515 -0.94221 0
M  V30 5193 H 498.392 -1.66194 -3.49166 0
M  V30 5194 H 500.081 -2.08076 -3.4851 0
M  V30 5195 H 500.847 -4.26657 -2.30627 0
M  V30 5196 H 496.726 -3.37134 -3.14422 0
M  V30 5197 H 500.27 -6.65706 -2.08522 0
M  V30 5198 H 496.167 -5.75345 -2.92657 0
M  V30 5199 H 496.935 -7.78845 -2.5168 0
M  V30 5200 N 499.598 0.982988 -1.23187 0
M  V30 5201 C 501.014 1.2487 -0.993967 0
M  V30 5202 C 501.214 1.99155 0.306498 0
M  V30 5203 O 500.27 2.30688 1.0266 0
M  V30 5204 C 501.583 2.05078 -2.19917 0
M  V30 5205 C 503.131 2.18227 -2.2438 0
M  V30 5206 C 503.606 3.01825 -3.44479 0
M  V30 5207 N 505.097 3.09411 -3.44702 0
M  V30 5208 C 505.832 3.74412 -4.34285 0
M  V30 5209 N 505.328 4.41259 -5.341 0
M  V30 5210 N 507.121 3.71273 -4.22035 0
M  V30 5211 H 499.272 0.485253 -2.06783 0
M  V30 5212 H 501.535 0.276979 -0.906635 0
M  V30 5213 H 501.241 1.57867 -3.14279 0
M  V30 5214 H 501.115 3.05829 -2.2079 0
M  V30 5215 H 503.502 2.64648 -1.30559 0
M  V30 5216 H 503.583 1.16873 -2.2754 0
M  V30 5217 H 503.227 2.56102 -4.38605 0
M  V30 5218 H 503.157 4.03342 -3.38559 0
M  V30 5219 H 505.648 2.61845 -2.7248 0
M  V30 5220 H 505.961 4.88629 -5.98717 0
M  V30 5221 H 504.306 4.39975 -5.38002 0
M  V30 5222 H 507.497 3.18217 -3.43301 0
M  V30 5223 H 507.67 4.21649 -4.92053 0
M  V30 5224 N 501.076 1.04316 1.18135 0
M  V30 5225 C 502.322 0.758899 1.88712 0
M  V30 5226 C 502.677 -0.705863 1.78984 0
M  V30 5227 O 501.97 -1.50874 1.18101 0
M  V30 5228 C 502.164 1.16271 3.37958 0
M  V30 5229 C 501.993 2.66518 3.62213 0
M  V30 5230 C 500.763 3.33702 3.79436 0
M  V30 5231 C 502.961 3.64739 3.62588 0
M  V30 5232 N 500.943 4.72904 3.91452 0
M  V30 5233 C 502.314 4.89627 3.80348 0
M  V30 5234 C 504.369 3.58333 3.4569 0
M  V30 5235 C 503.072 6.08879 3.8296 0
M  V30 5236 C 505.098 4.77016 3.49586 0
M  V30 5237 C 504.46 6.00724 3.67845 0
M  V30 5238 H 500.559 0.329795 0.709055 0
M  V30 5239 H 503.143 1.33334 1.4188 0
M  V30 5240 H 501.314 0.616319 3.83479 0
M  V30 5241 H 503.046 0.829205 3.96114 0
M  V30 5242 H 499.801 2.84105 3.78921 0
M  V30 5243 H 500.225 5.45258 4.01277 0
M  V30 5244 H 504.867 2.63663 3.30517 0
M  V30 5245 H 502.585 7.03903 3.96921 0
M  V30 5246 H 506.171 4.73703 3.37782 0
M  V30 5247 H 505.051 6.91022 3.70753 0
M  V30 5248 N 502.554 -1.34406 0.822964 0
M  V30 5249 C 503.779 -2.0304 0.423034 0
M  V30 5250 C 504.204 -1.61568 -0.963196 0
M  V30 5251 O 503.562 -0.800339 -1.62678 0
M  V30 5252 C 503.61 -3.56636 0.53321 0
M  V30 5253 O 502.714 -4.09971 -0.446939 0
M  V30 5254 H 502.055 -0.64075 0.174171 0
M  V30 5255 H 504.585 -1.71653 1.11339 0
M  V30 5256 H 504.595 -4.05945 0.408991 0
M  V30 5257 H 503.27 -3.86168 1.54425 0
M  V30 5258 H 501.847 -3.71835 -0.281601 0
M  V30 5259 N 504.032 -0.577932 -1.46621 0
M  V30 5260 C 505.28 -0.061566 -2.02006 0
M  V30 5261 C 505.601 1.30117 -1.4524 0
M  V30 5262 O 504.871 1.85313 -0.63529 0
M  V30 5263 H 503.451 -0.0197692 -0.746738 0
M  V30 5264 H 506.113 -0.752631 -1.79782 0
M  V30 5265 H 505.209 0.0110238 -3.12098 0
M  V30 5266 N 505.51 1.54411 -0.315457 0
M  V30 5267 C 506.758 2.00023 0.288971 0
M  V30 5268 C 507.079 1.20529 1.5329 0
M  V30 5269 O 506.349 0.304986 1.93511 0
M  V30 5270 H 504.929 0.738891 0.109766 0
M  V30 5271 H 507.591 1.90094 -0.430129 0
M  V30 5272 H 506.687 3.07198 0.550999 0
M  V30 5273 N 506.988 0.0434614 1.5754 0
M  V30 5274 C 507.951 -0.918696 2.09982 0
M  V30 5275 C 508.951 -1.24488 1.01781 0
M  V30 5276 O 510.141 -1.18284 1.27885 0
M  V30 5277 C 507.273 -2.23093 2.57764 0
M  V30 5278 H 508.466 -0.464229 2.96285 0
M  V30 5279 H 506.019 -0.204818 1.54952 0
M  V30 5280 H 506.754 -2.73137 1.74832 0
M  V30 5281 H 506.539 -2.00724 3.36827 0
M  V30 5282 H 508.029 -2.92028 2.98512 0
M  V30 5283 N 508.466 -1.55915 -0.229846 0
M  V30 5284 C 509.696 -1.82352 -0.971152 0
M  V30 5285 C 510.104 -0.619231 -1.7878 0
M  V30 5286 O 509.447 0.421597 -1.78797 0
M  V30 5287 C 509.509 -3.02399 -1.9441 0
M  V30 5288 C 509.173 -4.37739 -1.31277 0
M  V30 5289 C 510.17 -5.15074 -0.706757 0
M  V30 5290 C 507.855 -4.84454 -1.32702 0
M  V30 5291 C 509.849 -6.37281 -0.123413 0
M  V30 5292 C 507.536 -6.06605 -0.739831 0
M  V30 5293 C 508.534 -6.82858 -0.139071 0
M  V30 5294 O 508.222 -8.027 0.439007 0
M  V30 5295 H 507.954 -0.61035 -0.290601 0
M  V30 5296 H 510.508 -2.03839 -0.252746 0
M  V30 5297 H 508.738 -2.76709 -2.70128 0
M  V30 5298 H 510.427 -3.15779 -2.55026 0
M  V30 5299 H 511.193 -4.80093 -0.688131 0
M  V30 5300 H 507.072 -4.25081 -1.78402 0
M  V30 5301 H 510.616 -6.96741 0.346124 0
M  V30 5302 H 506.513 -6.4106 -0.755841 0
M  V30 5303 H 507.281 -8.17824 0.332521 0
M  V30 5304 N 509.944 0.496216 -1.49584 0
M  V30 5305 C 510.907 1.57952 -1.66084 0
M  V30 5306 C 511.907 1.51729 -0.53244 0
M  V30 5307 O 513.097 1.54796 -0.79899 0
M  V30 5308 C 510.229 2.97604 -1.66268 0
M  V30 5309 H 511.422 1.44649 -2.6271 0
M  V30 5310 H 508.975 0.7208 -1.38687 0
M  V30 5311 H 509.71 3.16378 -0.712432 0
M  V30 5312 H 509.495 3.03528 -2.4822 0
M  V30 5313 H 510.985 3.76301 -1.81073 0
M  V30 5314 N 511.423 1.38739 0.74761 0
M  V30 5315 C 512.839 1.20067 1.05148 0
M  V30 5316 C 513.039 0.0534835 2.01429 0
M  V30 5317 O 512.095 -0.59886 2.45296 0
M  V30 5318 C 513.408 2.52957 1.62584 0
M  V30 5319 C 514.956 2.59692 1.74726 0
M  V30 5320 C 515.431 3.92772 2.35573 0
M  V30 5321 N 516.922 3.94343 2.42997 0
M  V30 5322 C 517.657 4.9408 2.90985 0
M  V30 5323 N 517.153 6.04214 3.38965 0
M  V30 5324 N 518.946 4.81466 2.9008 0
M  V30 5325 H 511.097 2.12121 0.108808 0
M  V30 5326 H 513.36 0.941491 0.110899 0
M  V30 5327 H 513.066 3.37389 0.993051 0
M  V30 5328 H 512.94 2.71779 2.61565 0
M  V30 5329 H 515.327 1.75651 2.3713 0
M  V30 5330 H 515.408 2.44731 0.744326 0
M  V30 5331 H 515.052 4.77238 1.738 0
M  V30 5332 H 514.982 4.05046 3.36519 0
M  V30 5333 H 517.473 3.14799 2.0907 0
M  V30 5334 H 517.786 6.76241 3.74056 0
M  V30 5335 H 516.131 6.07825 3.37007 0
M  V30 5336 H 519.322 3.94535 2.51912 0
M  V30 5337 H 519.495 5.59344 3.27166 0
M  V30 5338 N 512.901 -0.976442 1.23707 0
M  V30 5339 C 514.147 -1.72158 1.08319 0
M  V30 5340 C 514.502 -1.88701 -0.375445 0
M  V30 5341 O 513.795 -1.43107 -1.274 0
M  V30 5342 C 513.989 -3.11814 1.74662 0
M  V30 5343 C 513.818 -3.08892 3.26827 0
M  V30 5344 C 512.588 -3.13861 3.96004 0
M  V30 5345 C 514.786 -2.9175 4.2354 0
M  V30 5346 N 512.768 -3.00867 5.35119 0
M  V30 5347 C 514.139 -2.8696 5.49595 0
M  V30 5348 C 516.194 -2.76265 4.14225 0
M  V30 5349 C 514.897 -2.68268 6.67401 0
M  V30 5350 C 516.923 -2.58938 5.317 0
M  V30 5351 C 516.285 -2.54849 6.56682 0
M  V30 5352 H 512.384 -0.638896 0.450927 0
M  V30 5353 H 514.968 -1.15835 1.56494 0
M  V30 5354 H 513.139 -3.66347 1.29014 0
M  V30 5355 H 514.871 -3.74984 1.52215 0
M  V30 5356 H 511.626 -3.22198 3.4711 0
M  V30 5357 H 512.05 -2.97634 6.08065 0
M  V30 5358 H 516.692 -2.78213 3.18366 0
M  V30 5359 H 514.41 -2.65063 7.63392 0
M  V30 5360 H 517.996 -2.47914 5.26336 0
M  V30 5361 H 516.876 -2.41611 7.46052 0
M  V30 5362 N 514.379 -1.04941 -1.1758 0
M  V30 5363 C 515.625 -0.759112 -1.88057 0
M  V30 5364 C 515.958 0.711918 -1.8068 0
M  V30 5365 O 515.233 1.52035 -1.21308 0
M  V30 5366 C 515.516 -1.237 -3.38187 0
M  V30 5367 C 515.369 -2.77078 -3.54327 0
M  V30 5368 C 516.688 -0.834014 -4.32125 0
M  V30 5369 H 513.807 -0.277237 -0.682868 0
M  V30 5370 H 516.449 -1.30296 -1.38286 0
M  V30 5371 H 514.599 -0.774337 -3.80705 0
M  V30 5372 H 516.271 -3.31449 -3.20842 0
M  V30 5373 H 514.514 -3.16477 -2.96689 0
M  V30 5374 H 515.185 -3.05577 -4.59703 0
M  V30 5375 H 517.661 -1.23228 -3.97434 0
M  V30 5376 H 516.537 -1.19603 -5.35711 0
M  V30 5377 H 516.798 0.262195 -4.41322 0
M  V30 5378 N 515.857 1.33968 -0.830081 0
M  V30 5379 C 516.767 2.33164 -0.259207 0
M  V30 5380 C 517.783 1.62951 0.610164 0
M  V30 5381 O 518.959 1.94668 0.516369 0
M  V30 5382 C 516.024 3.42088 0.563598 0
M  V30 5383 C 515.085 4.28037 -0.329014 0
M  V30 5384 C 514.318 5.3176 0.454616 0
M  V30 5385 O 514.541 5.44876 1.6872 0
M  V30 5386 O 513.475 6.01669 -0.166794 0
M  V30 5387 H 517.301 2.83832 -1.08041 0
M  V30 5388 H 514.886 1.37154 -0.59239 0
M  V30 5389 H 516.768 4.08581 1.03147 0
M  V30 5390 H 515.443 2.93651 1.36201 0
M  V30 5391 H 514.35 3.64443 -0.844538 0
M  V30 5392 H 515.683 4.79934 -1.09196 0
M  V30 5393 N 517.335 0.585699 1.46312 0
M  V30 5394 C 518.285 -0.166813 2.27389 0
M  V30 5395 C 519.269 -0.859076 1.36047 0
M  V30 5396 O 520.461 -0.752678 1.60199 0
M  V30 5397 C 517.59 -1.17791 3.2246 0
M  V30 5398 C 516.676 -0.487605 4.21288 0
M  V30 5399 N 517.067 0.45849 5.03718 0
M  V30 5400 C 515.365 -0.737971 4.39852 0
M  V30 5401 C 516.066 0.862213 5.75275 0
M  V30 5402 N 515.042 0.210707 5.43191 0
M  V30 5403 H 518.844 0.560167 2.88512 0
M  V30 5404 H 516.358 0.407715 1.57199 0
M  V30 5405 H 518.355 -1.73122 3.79255 0
M  V30 5406 H 517.015 -1.90568 2.62896 0
M  V30 5407 H 518.026 0.834163 5.11138 0
M  V30 5408 H 514.703 -1.45209 3.91434 0
M  V30 5409 H 516.093 1.64128 6.51546 0
M  V30 5410 N 518.813 -1.54241 0.323641 0
M  V30 5411 C 520.059 -2.00867 -0.279323 0
M  V30 5412 C 520.392 -1.21146 -1.5178 0
M  V30 5413 O 519.667 -0.29378 -1.92269 0
M  V30 5414 C 519.95 -3.54837 -0.613387 0
M  V30 5415 C 519.803 -4.45284 0.635803 0
M  V30 5416 C 521.122 -4.16186 -1.43099 0
M  V30 5417 H 518.241 -0.730177 -0.100049 0
M  V30 5418 H 520.883 -1.84829 0.440235 0
M  V30 5419 H 519.033 -3.68634 -1.22641 0
M  V30 5420 H 520.705 -4.43357 1.27406 0
M  V30 5421 H 518.948 -4.14956 1.26466 0
M  V30 5422 H 519.619 -5.5084 0.357597 0
M  V30 5423 H 522.095 -4.05964 -0.912814 0
M  V30 5424 H 520.971 -5.24031 -1.6335 0
M  V30 5425 H 521.232 -3.69516 -2.42715 0
M  V30 5426 N 520.291 -0.0518155 -1.57515 0
M  V30 5427 C 521.531 0.625712 -1.94587 0
M  V30 5428 C 521.895 1.6797 -0.930053 0
M  V30 5429 O 523.096 2.41135 -1.18774 0
M  V30 5430 C 521.367 1.20574 -3.36447 0
M  V30 5431 S 522.926 1.90118 -3.95475 0
M  V30 5432 H 519.744 0.205434 -0.680675 0
M  V30 5433 H 522.346 -0.120906 -1.95126 0
M  V30 5434 H 521.05 0.426521 -4.08178 0
M  V30 5435 H 520.581 1.98916 -3.39405 0
M  V30 5436 H 522.596 3.18184 -3.80753 0
M  V30 5437 N 521.769 1.56035 0.221574 0
M  V30 5438 C 522.716 1.92413 1.27459 0
M  V30 5439 C 523.686 0.781323 1.46576 0
M  V30 5440 O 524.871 1.03721 1.60145 0
M  V30 5441 C 522.011 2.24617 2.61995 0
M  V30 5442 C 521.124 3.51831 2.50677 0
M  V30 5443 C 520.259 3.73482 3.77736 0
M  V30 5444 C 519.298 4.94211 3.6114 0
M  V30 5445 N 518.435 5.12252 4.80148 0
M  V30 5446 H 523.275 2.82203 0.957355 0
M  V30 5447 H 520.812 1.39676 0.461415 0
M  V30 5448 H 522.77 2.41298 3.40339 0
M  V30 5449 H 521.4 1.38 2.91815 0
M  V30 5450 H 520.452 3.43343 1.63767 0
M  V30 5451 H 521.764 4.40328 2.34334 0
M  V30 5452 H 520.918 3.9026 4.64523 0
M  V30 5453 H 519.657 2.83266 3.97003 0
M  V30 5454 H 518.662 4.77384 2.72736 0
M  V30 5455 H 519.887 5.85912 3.43343 0
M  V30 5456 H 517.833 4.24978 4.99729 0
M  V30 5457 H 517.75 5.94881 4.66532 0
M  V30 5458 H 519.018 5.33465 5.68362 0
M  V30 5459 N 523.247 -0.488276 1.49845 0
M  V30 5460 C 524.495 -1.23911 1.59657 0
M  V30 5461 C 524.816 -1.92816 0.291005 0
M  V30 5462 O 524.086 -1.83328 -0.690485 0
M  V30 5463 H 522.666 -0.460357 0.588286 0
M  V30 5464 H 525.328 -0.564794 1.86537 0
M  V30 5465 H 524.424 -1.99625 2.39909 0
M  V30 5466 N 524.725 -1.39134 -0.740242 0
M  V30 5467 C 525.973 -1.35803 -1.49673 0
M  V30 5468 C 526.294 0.0470897 -1.94943 0
M  V30 5469 O 525.564 0.997347 -1.68611 0
M  V30 5470 H 524.144 -0.499736 -0.555224 0
M  V30 5471 H 526.806 -1.73947 -0.879107 0
M  V30 5472 H 525.902 -2.0174 -2.38133 0
M  V30 5473 N 526.204 0.969867 -1.24223 0
M  V30 5474 C 527.45 1.7151 -1.08223 0
M  V30 5475 C 527.783 1.90478 0.37838 0
M  V30 5476 O 527.058 1.4647 1.27971 0
M  V30 5477 C 527.341 3.10714 -1.82013 0
M  V30 5478 C 527.194 2.9925 -3.35811 0
M  V30 5479 C 528.513 4.10332 -1.59108 0
M  V30 5480 H 525.632 0.622499 -0.394543 0
M  V30 5481 H 528.274 1.1284 -1.52863 0
M  V30 5482 H 526.424 3.608 -1.44068 0
M  V30 5483 H 528.096 2.56608 -3.83341 0
M  V30 5484 H 526.339 2.35512 -3.64303 0
M  V30 5485 H 527.01 3.97857 -3.82641 0
M  V30 5486 H 529.486 3.69097 -1.92111 0
M  V30 5487 H 528.362 5.05804 -2.13198 0
M  V30 5488 H 528.623 4.38926 -0.528832 0
M  V30 5489 N 527.682 1.05563 1.17022 0
M  V30 5490 C 528.93 0.76642 1.87004 0
M  V30 5491 C 529.251 -0.708854 1.8166 0
M  V30 5492 O 528.521 -1.51242 1.2451 0
M  V30 5493 H 527.101 0.280516 0.692329 0
M  V30 5494 H 529.763 1.33557 1.41945 0
M  V30 5495 H 528.859 1.08472 2.92644 0
M  V30 5496 N 529.16 -1.33526 0.837174 0
M  V30 5497 C 530.092 -2.28077 0.226579 0
M  V30 5498 C 531.105 -1.51666 -0.591717 0
M  V30 5499 O 532.294 -1.73511 -0.419064 0
M  V30 5500 C 529.394 -3.31597 -0.69978 0
M  V30 5501 C 528.567 -4.37329 0.0788067 0
M  V30 5502 C 527.626 -5.20526 -0.770637 0
M  V30 5503 O 526.652 -5.68811 -0.210453 0
M  V30 5504 N 527.854 -5.41639 -2.08825 0
M  V30 5505 H 530.619 -2.81115 1.03897 0
M  V30 5506 H 528.18 -1.46201 0.695476 0
M  V30 5507 H 530.172 -3.84158 -1.27298 0
M  V30 5508 H 528.742 -2.78848 -1.41288 0
M  V30 5509 H 527.962 -3.8529 0.833381 0
M  V30 5510 H 529.25 -5.05079 0.614238 0
M  V30 5511 H 528.648 -5.04108 -2.56693 0
M  V30 5512 H 527.205 -5.97263 -2.60998 0
M  V30 5513 N 530.638 -0.59345 -1.46 0
M  V30 5514 C 531.885 -0.0831523 -2.02329 0
M  V30 5515 C 532.213 1.28093 -1.46364 0
M  V30 5516 O 531.468 1.85526 -0.622793 0
M  V30 5517 C 531.767 0.021178 -3.57394 0
M  V30 5518 C 531.433 -1.27671 -4.32448 0
M  V30 5519 C 530.095 -1.63227 -4.5267 0
M  V30 5520 C 532.447 -2.13511 -4.7546 0
M  V30 5521 C 529.775 -2.84401 -5.1316 0
M  V30 5522 C 532.127 -3.33922 -5.37289 0
M  V30 5523 C 530.791 -3.69747 -5.55737 0
M  V30 5524 H 530.061 -0.0304276 -0.740375 0
M  V30 5525 H 532.708 -0.772239 -1.75239 0
M  V30 5526 H 531.013 0.793454 -3.83682 0
M  V30 5527 H 532.71 0.431942 -3.98667 0
M  V30 5528 H 529.3 -0.989937 -4.17011 0
M  V30 5529 H 533.484 -1.87344 -4.59582 0
M  V30 5530 H 528.74 -3.12282 -5.25633 0
M  V30 5531 H 532.914 -4.00698 -5.69574 0
M  V30 5532 H 530.541 -4.6373 -6.02377 0
M  V30 5533 N 532.116 1.54067 -0.331816 0
M  V30 5534 C 533.026 2.28322 0.539104 0
M  V30 5535 C 534.042 1.32985 1.1221 0
M  V30 5536 O 535.218 1.6601 1.1403 0
M  V30 5537 C 532.283 3.03277 1.68 0
M  V30 5538 C 531.344 4.14216 1.12798 0
M  V30 5539 C 530.577 4.85588 2.2145 0
M  V30 5540 O 530.8 4.56536 3.41952 0
M  V30 5541 O 529.734 5.72309 1.86404 0
M  V30 5542 H 533.56 3.03632 -0.0641692 0
M  V30 5543 H 531.145 1.49083 -0.0972365 0
M  V30 5544 H 533.027 3.50189 2.34405 0
M  V30 5545 H 531.702 2.30834 2.2693 0
M  V30 5546 H 530.609 3.71635 0.428782 0
M  V30 5547 H 531.942 4.88727 0.583698 0
M  V30 5548 N 533.594 0.0601682 1.57485 0
M  V30 5549 C 534.843 -0.611101 1.9222 0
M  V30 5550 C 535.156 -1.71469 0.941159 0
M  V30 5551 O 536.362 -2.44473 1.18089 0
M  V30 5552 C 534.818 -1.13832 3.41424 0
M  V30 5553 C 534.426 -0.0663596 4.47951 0
M  V30 5554 C 536.17 -1.78432 3.85178 0
M  V30 5555 C 534.077 -0.606965 5.88277 0
M  V30 5556 H 533.007 -0.232033 0.71741 0
M  V30 5557 H 535.658 0.130518 1.83035 0
M  V30 5558 H 534.04 -1.93254 3.45643 0
M  V30 5559 H 535.214 0.707682 4.55333 0
M  V30 5560 H 533.529 0.482715 4.13593 0
M  V30 5561 H 536.126 -2.1989 4.87394 0
M  V30 5562 H 536.469 -2.63966 3.21913 0
M  V30 5563 H 537.002 -1.05651 3.83514 0
M  V30 5564 H 533.741 0.21095 6.5516 0
M  V30 5565 H 533.261 -1.34879 5.84438 0
M  V30 5566 H 534.94 -1.08704 6.37803 0
M  V30 5567 N 535.072 -1.5615 -0.213296 0
M  V30 5568 C 536.002 -1.96109 -1.26742 0
M  V30 5569 C 536.983 -0.830448 -1.48451 0
M  V30 5570 O 538.168 -1.09339 -1.60495 0
M  V30 5571 C 535.298 -2.28492 -2.61551 0
M  V30 5572 C 534.252 -3.44124 -2.54485 0
M  V30 5573 C 533.578 -3.62134 -3.93399 0
M  V30 5574 C 534.878 -4.78855 -2.08556 0
M  V30 5575 H 536.572 -2.84412 -0.935434 0
M  V30 5576 H 534.118 -1.36836 -0.44854 0
M  V30 5577 H 536.071 -2.55039 -3.3546 0
M  V30 5578 H 534.795 -1.37052 -2.96453 0
M  V30 5579 H 533.454 -3.17639 -1.83033 0
M  V30 5580 H 533.102 -2.68055 -4.25623 0
M  V30 5581 H 532.802 -4.39913 -3.89551 0
M  V30 5582 H 534.326 -3.91038 -4.68958 0
M  V30 5583 H 535.74 -5.04552 -2.72213 0
M  V30 5584 H 534.137 -5.59975 -2.1575 0
M  V30 5585 H 535.207 -4.73657 -1.03811 0
M  V30 5586 N 536.55 0.480323 -1.50102 0
M  V30 5587 C 537.78 1.25475 -1.64133 0
M  V30 5588 C 538.188 1.8647 -0.320272 0
M  V30 5589 O 537.531 1.69561 0.70673 0
M  V30 5590 C 537.593 2.40996 -2.6676 0
M  V30 5591 C 537.257 2.00711 -4.10565 0
M  V30 5592 C 538.254 1.53492 -4.96725 0
M  V30 5593 C 535.939 2.09714 -4.56427 0
M  V30 5594 C 537.933 1.15806 -6.26792 0
M  V30 5595 C 535.62 1.7164 -5.86501 0
M  V30 5596 C 536.618 1.24763 -6.71508 0
M  V30 5597 O 536.306 0.872122 -7.99155 0
M  V30 5598 H 536.038 0.385983 -0.554971 0
M  V30 5599 H 538.592 0.580848 -1.97016 0
M  V30 5600 H 536.822 3.11528 -2.291 0
M  V30 5601 H 538.511 3.02981 -2.70106 0
M  V30 5602 H 539.277 1.45966 -4.62514 0
M  V30 5603 H 535.156 2.4515 -3.90413 0
M  V30 5604 H 538.7 0.791465 -6.93096 0
M  V30 5605 H 534.597 1.78822 -6.20236 0
M  V30 5606 H 535.365 1.00178 -8.12346 0
M  V30 5607 N 538.028 1.39524 0.732853 0
M  V30 5608 C 538.991 1.38189 1.82857 0
M  V30 5609 C 539.991 0.278624 1.58368 0
M  V30 5610 O 541.181 0.536639 1.65728 0
M  V30 5611 C 538.313 1.15661 3.2068 0
M  V30 5612 H 539.506 2.35692 1.85444 0
M  V30 5613 H 537.059 1.2512 0.936728 0
M  V30 5614 H 537.794 0.188482 3.23752 0
M  V30 5615 H 537.579 1.95559 3.39852 0
M  V30 5616 H 539.069 1.17472 4.00737 0
M  V30 5617 N 539.506 -0.963266 1.24736 0
M  V30 5618 C 540.438 -2.06162 1.0015 0
M  V30 5619 C 541.451 -1.62771 -0.0305905 0
M  V30 5620 O 542.64 -1.77296 0.206966 0
M  V30 5621 C 539.74 -3.35333 0.490385 0
M  V30 5622 C 538.913 -4.07609 1.58663 0
M  V30 5623 C 537.972 -5.15052 1.0774 0
M  V30 5624 O 536.998 -5.4098 1.77002 0
M  V30 5625 N 538.2 -5.80436 -0.0858605 0
M  V30 5626 H 540.965 -2.27825 1.94719 0
M  V30 5627 H 538.526 -1.13121 1.15825 0
M  V30 5628 H 540.518 -4.04477 0.134371 0
M  V30 5629 H 539.088 -3.10507 -0.361155 0
M  V30 5630 H 538.308 -3.32681 2.11463 0
M  V30 5631 H 539.596 -4.52656 2.32336 0
M  V30 5632 H 538.994 -5.6178 -0.664806 0
M  V30 5633 H 537.551 -6.50674 -0.382981 0
M  V30 5634 O 541.023 -1.1863 -1.09586 0
M  V30 5635 H 541.714 -0.930355 -1.69894 0
M  V30 END ATOM
M  V30 BEGIN BOND
M  V30 END BOND
M  V30 END CTAB
M  END
$$$$
