drugbank_target|Q46509 Aldehyde oxidoreductase (DB02137)
 OpenBabel12092119543D

  0  0  0     0  0            999 V3000
M  V30 BEGIN CTAB
M  V30 COUNTS 13543 13698 0 0 0
M  V30 BEGIN ATOM
M  V30 1 H -0.908 1.98254 -0.117106 0
M  V30 2 N 0 1.576 0 0
M  V30 3 C 0.933 2.03868 1.02534 0
M  V30 4 C 1.911 0.928543 1.3348 0
M  V30 5 O 3.095 1.19667 1.45644 0
M  V30 6 C 0.222 2.43627 2.35294 0
M  V30 7 C -0.732 3.65373 2.2001 0
M  V30 8 S 0.101 5.13292 1.52614 0
M  V30 9 C 1.257 5.56322 2.86805 0
M  V30 10 H 1.49 2.90518 0.631377 0
M  V30 11 H -0.977 1.52953 0.210867 0
M  V30 12 H 0.981 2.67203 3.11629 0
M  V30 13 H -0.358 1.57376 2.7183 0
M  V30 14 H -1.165 3.90944 3.18086 0
M  V30 15 H -1.563 3.418 1.51819 0
M  V30 16 H 0.729 5.58782 3.83104 0
M  V30 17 H 1.672 6.56266 2.65933 0
M  V30 18 H 2.08 4.83886 2.90714 0
M  V30 19 N 1.4781 -0.272755 1.55222 0
M  V30 20 C 2.7271 -1.00211 1.75045 0
M  V30 21 C 3.0401 -1.87441 0.559046 0
M  V30 22 O 4.2461 -2.63856 0.639698 0
M  V30 23 C 2.7021 -1.83165 3.09804 0
M  V30 24 C 2.3101 -1.008 4.36513 0
M  V30 25 C 4.0541 -2.55529 3.38977 0
M  V30 26 C 1.9611 -1.83194 5.62311 0
M  V30 27 H 0.8911 -0.377878 0.652476 0
M  V30 28 H 3.5421 -0.257776 1.8168 0
M  V30 29 H 1.9241 -2.61694 2.97207 0
M  V30 30 H 3.0981 -0.266855 4.60027 0
M  V30 31 H 1.4131 -0.398897 4.14485 0
M  V30 32 H 4.0101 -3.17578 4.30172 0
M  V30 33 H 4.3531 -3.25825 2.59121 0
M  V30 34 H 4.8861 -1.84029 3.52673 0
M  V30 35 H 1.6251 -1.17318 6.44916 0
M  V30 36 H 1.1451 -2.54905 5.4294 0
M  V30 37 H 2.8241 -2.40552 6.00619 0
M  V30 38 N 2.9562 -1.48159 -0.537278 0
M  V30 39 C 3.8882 -1.58218 -1.65831 0
M  V30 40 C 4.9012 -0.466948 -1.5596 0
M  V30 41 O 6.0902 -0.73747 -1.62553 0
M  V30 42 C 3.1902 -1.48906 -3.04434 0
M  V30 43 C 2.3632 -2.75343 -3.3986 0
M  V30 44 C 1.4222 -2.59588 -4.57712 0
M  V30 45 O 0.4482 -3.33457 -4.61297 0
M  V30 46 N 1.6502 -1.68724 -5.55439 0
M  V30 47 H 4.4152 -2.54891 -1.57641 0
M  V30 48 H 1.9762 -1.4479 -0.724386 0
M  V30 49 H 3.9682 -1.36072 -3.81139 0
M  V30 50 H 2.5382 -0.602368 -3.06741 0
M  V30 51 H 1.7582 -3.02795 -2.52406 0
M  V30 52 H 3.0462 -3.5924 -3.60311 0
M  V30 53 H 2.4442 -1.07898 -5.55315 0
M  V30 54 H 1.0012 -1.61832 -6.3139 0
M  V30 55 N 4.4343 0.785586 -1.36625 0
M  V30 56 C 5.3813 1.89838 -1.31264 0
M  V30 57 C 6.3513 1.65115 -0.180633 0
M  V30 58 O 7.5363 1.87222 -0.36777 0
M  V30 59 C 4.6763 3.26706 -1.11163 0
M  V30 60 C 3.7893 3.63476 -2.33472 0
M  V30 61 C 2.9243 4.89481 -2.06353 0
M  V30 62 C 1.9633 5.18941 -3.24602 0
M  V30 63 N 1.1003 6.36131 -2.97123 0
M  V30 64 H 5.9403 1.93756 -2.26413 0
M  V30 65 H 3.4773 0.947454 -1.12524 0
M  V30 66 H 5.4353 4.05639 -0.975337 0
M  V30 67 H 4.0653 3.222 -0.196674 0
M  V30 68 H 3.1173 2.79636 -2.57891 0
M  V30 69 H 4.4293 3.81193 -3.21704 0
M  V30 70 H 3.5833 5.76288 -1.89675 0
M  V30 71 H 2.3223 4.73841 -1.15437 0
M  V30 72 H 1.3273 4.30615 -3.41834 0
M  V30 73 H 2.5523 5.36498 -4.16349 0
M  V30 74 H 0.4983 6.21875 -2.08823 0
M  V30 75 H 0.4153 6.54198 -3.78894 0
M  V30 76 H 1.6833 7.2591 -2.84033 0
M  V30 77 N 5.9124 1.20967 1.01018 0
M  V30 78 C 7.1584 1.02526 1.74975 0
M  V30 79 C 7.4914 -0.4408 1.89131 0
M  V30 80 O 6.7664 -1.32718 1.42184 0
M  V30 81 C 7.0494 1.71699 3.1653 0
M  V30 82 C 6.9024 3.25791 3.10129 0
M  V30 83 C 8.2214 1.45531 4.15342 0
M  V30 84 H 5.3404 0.373863 0.635134 0
M  V30 85 H 7.9824 1.49071 1.17805 0
M  V30 86 H 6.1324 1.32128 3.65341 0
M  V30 87 H 7.8044 3.74697 2.69072 0
M  V30 88 H 6.0474 3.56363 2.47362 0
M  V30 89 H 6.7184 3.69353 4.10222 0
M  V30 90 H 9.1944 1.79872 3.75213 0
M  V30 91 H 8.0704 1.96453 5.1254 0
M  V30 92 H 8.3314 0.384237 4.40427 0
M  V30 93 N 7.3905 -1.2043 1.01659 0
M  V30 94 C 8.6395 -1.89118 0.701237 0
M  V30 95 C 8.9525 -1.79705 -0.772358 0
M  V30 96 O 10.1585 -2.43528 -1.20026 0
M  V30 97 C 8.6145 -3.39168 1.20388 0
M  V30 98 C 8.2225 -3.57166 2.70438 0
M  V30 99 C 9.9665 -4.1341 0.963953 0
M  V30 100 C 7.8735 -5.01042 3.14183 0
M  V30 101 H 6.8035 -0.708267 0.2586 0
M  V30 102 H 9.4545 -1.36239 1.22927 0
M  V30 103 H 7.8365 -3.91369 0.603824 0
M  V30 104 H 9.0105 -3.15351 3.35992 0
M  V30 105 H 7.3255 -2.96294 2.92572 0
M  V30 106 H 9.9225 -5.19491 1.26621 0
M  V30 107 H 10.2655 -4.16181 -0.099578 0
M  V30 108 H 10.7985 -3.67309 1.52738 0
M  V30 109 H 7.5375 -5.03426 4.19812 0
M  V30 110 H 7.0575 -5.43668 2.53348 0
M  V30 111 H 8.7365 -5.69623 3.0682 0
M  V30 112 N 8.8686 -0.792821 -1.36206 0
M  V30 113 C 10.0966 -0.378825 -2.03402 0
M  V30 114 C 10.5116 1.00586 -1.59774 0
M  V30 115 O 9.8686 1.64574 -0.788764 0
M  V30 116 C 9.9196 -0.43683 -3.58851 0
M  V30 117 O 9.6406 -1.76691 -4.00889 0
M  V30 118 C 11.1416 -0.0138943 -4.43298 0
M  V30 119 H 8.3616 -0.155673 -0.652692 0
M  V30 120 H 10.9056 -1.07261 -1.74113 0
M  V30 121 H 9.0606 0.208575 -3.86838 0
M  V30 122 H 9.4746 -1.72011 -4.95492 0
M  V30 123 H 10.9486 -0.105615 -5.51899 0
M  V30 124 H 11.4256 1.03915 -4.2673 0
M  V30 125 H 12.0316 -0.63192 -4.20579 0
M  V30 126 N 10.3467 1.47872 -0.545128 0
M  V30 127 C 11.5927 2.02793 -0.0166104 0
M  V30 128 C 11.9257 1.41987 1.32489 0
M  V30 129 O 11.2007 0.571045 1.85928 0
M  V30 130 C 11.4837 3.59989 0.0893294 0
M  V30 131 C 11.3367 4.3125 -1.27841 0
M  V30 132 C 12.6557 4.32606 0.808724 0
M  V30 133 H 9.7747 0.736962 -0.00751035 0
M  V30 134 H 12.4167 1.76433 -0.705085 0
M  V30 135 H 10.5667 3.82579 0.675681 0
M  V30 136 H 12.2387 4.20035 -1.90704 0
M  V30 137 H 10.4817 3.92076 -1.85632 0
M  V30 138 H 11.1527 5.39736 -1.15713 0
M  V30 139 H 13.6287 4.14936 0.310992 0
M  V30 140 H 12.5047 5.42251 0.851782 0
M  V30 141 H 12.7657 4.00963 1.86229 0
M  V30 142 N 11.8248 0.280983 1.55075 0
M  V30 143 C 12.7728 -0.619864 2.24188 0
M  V30 144 C 13.7668 -1.15315 1.24092 0
M  V30 145 O 14.9728 -1.1061 1.42005 0
M  V30 146 H 11.3478 -0.218459 0.719569 0
M  V30 147 H 13.3188 -0.0141831 2.98397 0
M  V30 148 C 12.0678 -1.7899 2.98091 0
M  V30 149 H 11.3908 -1.38874 3.74905 0
M  V30 150 H 12.8308 -2.39672 3.49762 0
M  V30 151 C 11.2898 -2.68192 2.03899 0
M  V30 152 O 11.8198 -3.6872 1.594 0
M  V30 153 N 10.0258 -2.35488 1.70275 0
M  V30 154 H 9.5728 -1.53787 2.06658 0
M  V30 155 H 9.5308 -2.95442 1.07524 0
M  V30 156 N 13.3029 -1.57598 0.00835791 0
M  V30 157 C 14.5509 -1.90551 -0.6734 0
M  V30 158 C 14.8719 -0.883301 -1.73847 0
M  V30 159 O 14.1419 0.0781442 -1.95744 0
M  V30 160 H 12.7219 -0.703312 -0.251717 0
M  V30 161 H 15.3839 -1.94833 0.0512592 0
M  V30 162 H 14.4799 -2.9056 -1.13935 0
M  V30 163 N 14.781 0.264519 -1.55364 0
M  V30 164 C 16.03 0.992812 -1.75574 0
M  V30 165 C 16.343 1.87142 -0.568979 0
M  V30 166 O 17.549 2.63513 -0.653682 0
M  V30 167 C 16.005 1.81519 -3.10771 0
M  V30 168 C 15.613 0.984839 -4.37041 0
M  V30 169 C 17.357 2.53727 -3.40327 0
M  V30 170 C 15.264 1.80209 -5.63275 0
M  V30 171 H 14.194 0.374412 -0.65447 0
M  V30 172 H 16.845 0.248138 -1.81815 0
M  V30 173 H 15.227 2.60115 -2.98591 0
M  V30 174 H 16.401 0.242455 -4.60162 0
M  V30 175 H 14.716 0.37691 -4.14691 0
M  V30 176 H 17.313 3.15292 -4.3185 0
M  V30 177 H 17.656 3.24447 -2.60845 0
M  V30 178 H 18.189 1.82156 -3.53644 0
M  V30 179 H 14.928 1.13896 -6.45529 0
M  V30 180 H 14.448 2.52022 -5.44284 0
M  V30 181 H 16.127 2.37364 -6.01887 0
M  V30 182 N 16.2591 1.48442 0.529413 0
M  V30 183 C 17.1691 1.6569 1.66084 0
M  V30 184 C 18.1851 0.539432 1.65427 0
M  V30 185 O 19.3611 0.810572 1.84368 0
M  V30 186 C 16.4261 1.69315 3.02545 0
M  V30 187 C 15.4871 2.92694 3.14052 0
M  V30 188 C 14.7201 2.96137 4.44003 0
M  V30 189 O 14.9431 2.07973 5.31134 0
M  V30 190 O 13.8771 3.88312 4.59888 0
M  V30 191 H 17.7031 2.61483 1.54469 0
M  V30 192 H 15.2881 1.3185 0.702567 0
M  V30 193 H 17.1701 1.74217 3.83701 0
M  V30 194 H 15.8451 0.766966 3.14483 0
M  V30 195 H 14.7521 2.93324 2.32189 0
M  V30 196 H 16.0851 3.84699 3.0703 0
M  V30 197 N 17.7372 -0.778329 1.37039 0
M  V30 198 C 18.6692 -1.90034 1.2814 0
M  V30 199 C 19.6822 -1.61585 0.198558 0
M  V30 200 O 20.8712 -1.72625 0.454175 0
M  V30 201 C 17.9712 -3.25108 0.956968 0
M  V30 202 C 17.1442 -3.81253 2.14394 0
M  V30 203 C 16.2032 -4.94789 1.79082 0
M  V30 204 O 15.2292 -5.10721 2.51301 0
M  V30 205 N 16.4312 -5.75878 0.731043 0
M  V30 206 H 19.1962 -1.98186 2.24816 0
M  V30 207 H 16.7572 -0.957129 1.30578 0
M  V30 208 H 18.7492 -3.9857 0.701701 0
M  V30 209 H 17.3192 -3.125 0.0789812 0
M  V30 210 H 16.5392 -2.99647 2.56135 0
M  V30 211 H 17.8272 -4.15495 2.93668 0
M  V30 212 H 17.2252 -5.65547 0.131618 0
M  V30 213 H 15.7822 -6.49596 0.535622 0
M  V30 214 N 19.2153 -1.21501 -1.00376 0
M  V30 215 C 20.1633 -0.972442 -2.11297 0
M  V30 216 C 21.1573 0.080731 -1.69208 0
M  V30 217 O 22.3633 -0.0707666 -1.79861 0
M  V30 218 H 18.7383 -0.297218 -0.690772 0
M  V30 219 H 20.7093 -1.91394 -2.28934 0
M  V30 220 C 19.4583 -0.555065 -3.43241 0
M  V30 221 H 18.7813 -1.35709 -3.76062 0
M  V30 222 H 20.2213 -0.424664 -4.21868 0
M  V30 223 C 18.6803 0.734147 -3.28804 0
M  V30 224 O 19.2103 1.78937 -3.59645 0
M  V30 225 N 17.4163 0.701133 -2.82015 0
M  V30 226 H 16.9633 -0.157874 -2.57116 0
M  V30 227 H 16.9213 1.56403 -2.72737 0
M  V30 228 N 20.6934 1.19889 -1.02296 0
M  V30 229 C 21.6234 2.25141 -0.619174 0
M  V30 230 C 22.6044 1.66051 0.368915 0
M  V30 231 O 23.7894 1.92546 0.252941 0
M  V30 232 C 20.9194 3.4728 0.0368783 0
M  V30 233 C 19.8734 4.19005 -0.872865 0
M  V30 234 C 19.1994 5.34637 -0.0822402 0
M  V30 235 C 20.4994 4.74452 -2.18387 0
M  V30 236 H 22.1934 2.59171 -1.49903 0
M  V30 237 H 19.7394 1.24579 -0.722222 0
M  V30 238 H 21.6924 4.20098 0.330958 0
M  V30 239 H 20.4164 3.12433 0.95149 0
M  V30 240 H 19.0754 3.48061 -1.15105 0
M  V30 241 H 18.7234 4.96034 0.83422 0
M  V30 242 H 18.4234 5.83557 -0.688149 0
M  V30 243 H 19.9474 6.10255 0.205238 0
M  V30 244 H 21.3614 5.39055 -1.95172 0
M  V30 245 H 19.7584 5.33834 -2.74119 0
M  V30 246 H 20.8284 3.92844 -2.84257 0
M  V30 247 N 22.1715 0.800033 1.35784 0
M  V30 248 C 23.4185 0.377342 1.98953 0
M  V30 249 C 23.7465 -1.05378 1.6348 0
M  V30 250 O 23.0015 -1.74459 0.886707 0
M  V30 251 C 23.3005 0.500276 3.53881 0
M  V30 252 C 22.9665 1.89375 4.09204 0
M  V30 253 C 21.6285 2.27499 4.24025 0
M  V30 254 C 23.9805 2.8057 4.39238 0
M  V30 255 C 21.3085 3.562 4.66195 0
M  V30 256 C 23.6605 4.0871 4.82844 0
M  V30 257 C 22.3245 4.46843 4.95871 0
M  V30 258 H 21.5945 0.138079 0.728021 0
M  V30 259 H 24.2415 1.01955 1.62103 0
M  V30 260 H 22.5465 -0.225405 3.91151 0
M  V30 261 H 24.2435 0.154097 4.00704 0
M  V30 262 H 20.8335 1.58753 3.98115 0
M  V30 263 H 25.0175 2.52367 4.27346 0
M  V30 264 H 20.2735 3.85602 4.74469 0
M  V30 265 H 24.4475 4.79481 5.05046 0
M  V30 266 H 22.0745 5.46623 5.28306 0
M  V30 267 N 23.6496 -1.47581 0.552962 0
M  V30 268 C 24.8956 -2.02782 0.0273648 0
M  V30 269 C 25.2286 -1.42687 -1.31734 0
M  V30 270 O 24.5036 -0.580897 -1.85623 0
M  V30 271 C 24.7866 -3.60031 -0.0702371 0
M  V30 272 C 24.6396 -4.30566 1.30126 0
M  V30 273 C 25.9586 -4.33028 -0.785771 0
M  V30 274 H 23.0776 -0.736912 0.0114185 0
M  V30 275 H 25.7196 -1.76056 0.714432 0
M  V30 276 H 23.8696 -3.82932 -0.655382 0
M  V30 277 H 25.5416 -4.19018 1.92929 0
M  V30 278 H 23.7846 -3.91086 1.87709 0
M  V30 279 H 24.4556 -5.39114 1.18573 0
M  V30 280 H 26.9316 -4.15095 -0.288982 0
M  V30 281 H 25.8076 -5.42695 -0.823013 0
M  V30 282 H 26.0686 -4.01945 -1.841 0
M  V30 283 N 25.1277 -0.289203 -1.54924 0
M  V30 284 C 26.4047 0.376032 -1.91951 0
M  V30 285 C 26.7847 1.72622 -1.21511 0
M  V30 286 O 26.1327 2.25853 -0.346767 0
M  V30 287 C 26.3427 0.502378 -3.45365 0
M  V30 288 C 27.6907 0.778741 -4.17398 0
M  V30 289 O 28.7147 0.586647 -3.51336 0
M  V30 290 O 27.5737 1.14698 -5.34328 0
M  V30 291 H 24.6677 0.208167 -0.800372 0
M  V30 292 H 27.2137 -0.336394 -1.66332 0
M  V30 293 H 25.9857 -0.447255 -3.88736 0
M  V30 294 H 25.6087 1.26373 -3.76982 0
M  V30 295 N 26.6058 1.57591 -0.0167156 0
M  V30 296 C 27.5688 2.08393 0.954204 0
M  V30 297 C 28.5688 0.996531 1.26198 0
M  V30 298 O 29.7588 1.25858 1.20438 0
M  V30 299 C 26.8908 2.5394 2.27436 0
M  V30 300 H 28.0838 2.95455 0.514451 0
M  V30 301 H 25.6368 1.54582 0.231089 0
M  V30 302 H 26.3718 1.70171 2.76066 0
M  V30 303 H 26.1568 3.33371 2.06412 0
M  V30 304 H 27.6468 2.93512 2.97053 0
M  V30 305 N 28.0839 -0.256276 1.55502 0
M  V30 306 C 28.9939 -1.33882 1.92647 0
M  V30 307 C 30.0099 -1.53159 0.825727 0
M  V30 308 O 31.1859 -1.66963 1.12629 0
M  V30 309 C 28.2509 -2.6751 2.20543 0
M  V30 310 C 27.3119 -2.56836 3.43997 0
M  V30 311 C 26.5449 -3.84092 3.70553 0
M  V30 312 O 26.7679 -4.85545 2.99336 0
M  V30 313 O 25.7019 -3.83288 4.64084 0
M  V30 314 H 29.5279 -1.05374 2.84833 0
M  V30 315 H 27.1129 -0.456237 1.42263 0
M  V30 316 H 28.9949 -3.46492 2.39835 0
M  V30 317 H 27.6699 -2.9577 1.31536 0
M  V30 318 H 26.5769 -1.76172 3.30021 0
M  V30 319 H 27.9099 -2.33523 4.33275 0
M  V30 320 N 29.562 -1.4872 -0.521534 0
M  V30 321 C 30.525 -1.63379 -1.60748 0
M  V30 322 C 31.525 -0.50661 -1.52611 0
M  V30 323 O 32.715 -0.772601 -1.5613 0
M  V30 324 C 29.847 -1.61192 -3.00383 0
M  V30 325 H 31.04 -2.60217 -1.49087 0
M  V30 326 H 28.593 -1.37444 -0.744235 0
M  V30 327 H 29.328 -0.65863 -3.17541 0
M  V30 328 H 29.113 -2.43032 -3.07698 0
M  V30 329 H 30.603 -1.7466 -3.7932 0
M  V30 330 N 31.0401 0.771051 -1.3745 0
M  V30 331 C 31.9701 1.89827 -1.3597 0
M  V30 332 C 32.9511 1.68562 -0.228216 0
M  V30 333 O 34.1361 1.8941 -0.428675 0
M  V30 334 C 31.2661 3.2712 -1.16662 0
M  V30 335 C 30.2201 3.6295 -2.2683 0
M  V30 336 C 29.5461 4.98791 -1.92644 0
M  V30 337 C 30.8461 3.69627 -3.69017 0
M  V30 338 H 32.5401 1.91323 -2.30295 0
M  V30 339 H 30.0861 0.919082 -1.10855 0
M  V30 340 H 32.0391 4.05615 -1.14256 0
M  V30 341 H 30.7631 3.26059 -0.187926 0
M  V30 342 H 29.4221 2.86763 -2.28392 0
M  V30 343 H 29.0701 4.94271 -0.933021 0
M  V30 344 H 28.7701 5.23733 -2.66416 0
M  V30 345 H 30.2941 5.79685 -1.91826 0
M  V30 346 H 31.7081 4.38273 -3.69581 0
M  V30 347 H 30.1051 4.06067 -4.41848 0
M  V30 348 H 31.1751 2.70273 -4.02592 0
M  V30 349 N 32.5182 1.22032 0.997298 0
M  V30 350 C 33.4482 1.01065 2.10495 0
M  V30 351 C 34.4292 -0.0669542 1.69968 0
M  V30 352 O 35.6142 0.0943987 1.9397 0
M  V30 353 C 32.7442 0.582874 3.42374 0
M  V30 354 C 31.6982 1.60592 3.96729 0
M  V30 355 C 31.0242 1.03412 5.24605 0
M  V30 356 C 32.3242 2.99478 4.27914 0
M  V30 357 H 34.0182 1.93708 2.28292 0
M  V30 358 H 31.5642 0.932761 1.09707 0
M  V30 359 H 33.5172 0.423332 4.19268 0
M  V30 360 H 32.2412 -0.379213 3.24391 0
M  V30 361 H 30.9002 1.75316 3.21963 0
M  V30 362 H 30.5482 0.063518 5.0296 0
M  V30 363 H 30.2482 1.71754 5.61938 0
M  V30 364 H 31.7722 0.886066 6.04137 0
M  V30 365 H 33.1862 2.88153 4.95622 0
M  V30 366 H 31.5832 3.64903 4.76409 0
M  V30 367 H 32.6532 3.49742 3.3587 0
M  V30 368 N 33.9963 -1.19345 1.0293 0
M  V30 369 C 35.2213 -1.93538 0.745511 0
M  V30 370 C 35.6463 -1.75007 -0.689511 0
M  V30 371 O 35.0043 -1.05265 -1.47611 0
M  V30 372 C 35.0523 -3.43336 1.10239 0
M  V30 373 O 34.1563 -4.11806 0.221289 0
M  V30 374 H 33.4973 -0.604193 0.275404 0
M  V30 375 H 36.0273 -1.5141 1.37609 0
M  V30 376 H 36.0373 -3.94004 1.05947 0
M  V30 377 H 34.7123 -3.56146 2.14786 0
M  V30 378 H 33.2893 -3.715 0.322842 0
M  V30 379 N 35.4744 -0.807222 -1.35358 0
M  V30 380 C 36.7514 -0.311126 -1.9311 0
M  V30 381 C 37.1314 1.19937 -1.73719 0
M  V30 382 O 36.4794 1.99918 -1.10657 0
M  V30 383 C 36.6894 -0.723226 -3.41424 0
M  V30 384 C 38.0374 -0.713078 -4.18569 0
M  V30 385 O 39.0614 -0.664811 -3.49941 0
M  V30 386 O 37.9204 -0.772022 -5.41019 0
M  V30 387 H 35.0144 -0.081526 -0.822972 0
M  V30 388 H 37.5604 -0.890962 -1.4443 0
M  V30 389 H 36.3324 -1.76426 -3.4927 0
M  V30 390 H 35.9554 -0.118232 -3.97424 0
M  V30 391 N 36.9525 1.47285 -0.560781 0
M  V30 392 C 38.1985 2.02764 -0.0381184 0
M  V30 393 C 38.5315 1.43384 1.30976 0
M  V30 394 O 37.8065 0.590733 1.85312 0
M  V30 395 C 38.0895 3.60064 0.0511427 0
M  V30 396 C 37.9425 4.2987 -1.32408 0
M  V30 397 C 39.2615 4.33439 0.762795 0
M  V30 398 H 36.3805 0.736841 -0.0153264 0
M  V30 399 H 39.0225 1.75675 -0.723759 0
M  V30 400 H 37.1725 3.83274 0.635065 0
M  V30 401 H 38.8445 4.17989 -1.95148 0
M  V30 402 H 37.0875 3.90085 -1.8978 0
M  V30 403 H 37.7585 5.38478 -1.21431 0
M  V30 404 H 40.2345 4.15243 0.266965 0
M  V30 405 H 39.1105 5.43124 0.794221 0
M  V30 406 H 39.3715 4.02915 1.81966 0
M  V30 407 N 38.4306 0.297415 1.54768 0
M  V30 408 C 39.3606 -0.573494 2.26348 0
M  V30 409 C 40.3416 -1.14085 1.26169 0
M  V30 410 O 41.5266 -1.17086 1.54934 0
M  V30 411 C 38.6566 -1.74716 3.00153 0
M  V30 412 C 37.6106 -1.31032 4.07449 0
M  V30 413 C 36.9366 -2.56887 4.68949 0
M  V30 414 C 38.2366 -0.444183 5.20408 0
M  V30 415 H 39.9306 0.0235131 2.99391 0
M  V30 416 H 37.4766 0.0127488 1.43994 0
M  V30 417 H 39.4296 -2.3625 3.48947 0
M  V30 418 H 38.1536 -2.37035 2.24682 0
M  V30 419 H 36.8126 -0.718066 3.59499 0
M  V30 420 H 36.4606 -3.17512 3.90122 0
M  V30 421 H 36.1606 -2.2836 5.41411 0
M  V30 422 H 37.6846 -3.19229 5.20505 0
M  V30 423 H 39.0986 -0.9651 5.65118 0
M  V30 424 H 37.4956 -0.252846 5.99567 0
M  V30 425 H 38.5656 0.531609 4.81977 0
M  V30 426 N 39.9087 -1.5758 0.0250728 0
M  V30 427 C 41.3247 -1.56124 -0.331282 0
M  V30 428 C 41.5247 -1.03029 -1.73169 0
M  V30 429 O 40.5807 -0.675215 -2.43305 0
M  V30 430 C 41.8937 -3.00139 -0.183584 0
M  V30 431 C 43.4417 -3.11946 -0.256654 0
M  V30 432 C 43.9167 -4.57793 -0.137792 0
M  V30 433 N 45.4077 -4.6279 -0.194904 0
M  V30 434 C 46.1427 -5.7326 -0.126655 0
M  V30 435 N 45.6387 -6.928 -0.00755288 0
M  V30 436 N 47.4317 -5.61811 -0.180348 0
M  V30 437 H 39.5827 -1.90424 0.94087 0
M  V30 438 H 41.8457 -0.875761 0.362968 0
M  V30 439 H 41.5517 -3.4292 0.780927 0
M  V30 440 H 41.4257 -3.64899 -0.955448 0
M  V30 441 H 43.8127 -2.69079 -1.21162 0
M  V30 442 H 43.8937 -2.49915 0.545517 0
M  V30 443 H 43.5377 -5.01339 0.813739 0
M  V30 444 H 43.4677 -5.17798 -0.958775 0
M  V30 445 H 45.9587 -3.76807 -0.287267 0
M  V30 446 H 46.2717 -7.72791 0.0379428 0
M  V30 447 H 44.6167 -6.94995 0.0271731 0
M  V30 448 H 47.8077 -4.6731 -0.271767 0
M  V30 449 H 47.9807 -6.47882 -0.123697 0
M  V30 450 N 41.3868 0.248026 -1.55636 0
M  V30 451 C 42.3188 1.32993 -1.8667 0
M  V30 452 C 43.3318 1.44345 -0.752877 0
M  V30 453 O 44.5208 1.45715 -1.03098 0
M  V30 454 C 41.6208 2.70863 -2.03682 0
M  V30 455 C 40.7938 2.81792 -3.34532 0
M  V30 456 C 39.8528 4.005 -3.41301 0
M  V30 457 O 38.8788 3.9008 -4.14519 0
M  V30 458 N 40.0808 5.13618 -2.70512 0
M  V30 459 H 42.8458 1.06707 -2.8006 0
M  V30 460 H 40.4068 0.438129 -1.55859 0
M  V30 461 H 42.3988 3.48612 -2.05553 0
M  V30 462 H 40.9688 2.89862 -1.17041 0
M  V30 463 H 40.1888 1.90729 -3.44987 0
M  V30 464 H 41.4768 2.86043 -4.20781 0
M  V30 465 H 40.8748 5.24975 -2.10755 0
M  V30 466 H 39.4318 5.89505 -2.78077 0
M  V30 467 N 42.8649 1.48995 0.513639 0
M  V30 468 C 43.7969 1.60836 1.63293 0
M  V30 469 C 44.8099 0.491701 1.55197 0
M  V30 470 O 45.9989 0.763238 1.6136 0
M  V30 471 C 43.0989 1.53731 3.02027 0
M  V30 472 C 42.2719 2.80715 3.35437 0
M  V30 473 C 41.3309 2.66837 4.53525 0
M  V30 474 O 40.3569 3.40753 4.55934 0
M  V30 475 N 41.5589 1.77539 5.52684 0
M  V30 476 H 44.3239 2.57366 1.53566 0
M  V30 477 H 41.8849 1.45925 0.701259 0
M  V30 478 H 43.8769 1.42118 3.78926 0
M  V30 479 H 42.4469 0.651092 3.05744 0
M  V30 480 H 41.6669 3.06772 2.47557 0
M  V30 481 H 42.9549 3.64927 3.54551 0
M  V30 482 H 42.3529 1.16719 5.53528 0
M  V30 483 H 40.9099 1.71856 6.28736 0
M  V30 484 N 44.343 -0.763751 1.37857 0
M  V30 485 C 45.273 -1.89103 1.36975 0
M  V30 486 C 46.254 -1.68439 0.237152 0
M  V30 487 O 47.439 -1.8918 0.438713 0
M  V30 488 C 44.569 -3.26496 1.18395 0
M  V30 489 C 43.523 -3.61741 2.28751 0
M  V30 490 C 42.849 -4.97762 1.95286 0
M  V30 491 C 44.149 -3.67665 3.70972 0
M  V30 492 H 45.843 -1.90099 2.31307 0
M  V30 493 H 43.389 -0.91319 1.11341 0
M  V30 494 H 45.342 -4.05003 1.16406 0
M  V30 495 H 44.066 -3.25955 0.205215 0
M  V30 496 H 42.725 -2.85547 2.29909 0
M  V30 497 H 42.373 -4.93769 0.959221 0
M  V30 498 H 42.073 -5.22313 2.69189 0
M  V30 499 H 43.597 -5.7866 1.94898 0
M  V30 500 H 45.011 -4.36307 3.719 0
M  V30 501 H 43.408 -4.03718 4.43995 0
M  V30 502 H 44.478 -2.68134 4.0402 0
M  V30 503 N 45.8211 -1.22559 -0.990812 0
M  V30 504 C 47.0691 -1.04933 -1.72724 0
M  V30 505 C 47.3901 0.416158 -1.90508 0
M  V30 506 O 46.6601 1.29918 -1.46622 0
M  V30 507 H 45.2401 -0.385296 -0.639965 0
M  V30 508 H 47.9021 -1.54105 -1.19322 0
M  V30 509 H 46.9981 -1.52886 -2.72089 0
M  V30 510 N 47.2992 1.18797 -1.03562 0
M  V30 511 C 48.2292 2.24472 -0.643019 0
M  V30 512 C 49.2102 1.66433 0.351283 0
M  V30 513 O 50.3952 1.92803 0.232505 0
M  V30 514 C 47.5252 3.473 4.24935e-05 0
M  V30 515 C 46.4792 4.18055 -0.917257 0
M  V30 516 C 45.8052 5.34519 -0.138941 0
M  V30 517 C 47.1052 4.72109 -2.23407 0
M  V30 518 H 48.7992 2.57566 -1.52643 0
M  V30 519 H 46.3452 1.23806 -0.735394 0
M  V30 520 H 48.2982 4.20426 0.286383 0
M  V30 521 H 47.0222 3.13424 0.918299 0
M  V30 522 H 45.6812 3.46821 -1.1879 0
M  V30 523 H 45.3292 4.96891 0.781562 0
M  V30 524 H 45.0292 5.82794 -0.750005 0
M  V30 525 H 46.5532 6.10438 0.1405 0
M  V30 526 H 47.9672 5.36955 -2.00879 0
M  V30 527 H 46.3642 5.30897 -2.79765 0
M  V30 528 H 47.4342 3.89807 -2.88407 0
M  V30 529 N 48.7773 0.814389 1.34928 0
M  V30 530 C 50.0053 0.411136 2.02774 0
M  V30 531 C 50.4203 -0.980316 1.61354 0
M  V30 532 O 49.7773 -1.63299 0.814847 0
M  V30 533 C 49.8283 0.493865 3.58111 0
M  V30 534 O 49.5493 1.83047 3.98027 0
M  V30 535 C 51.0503 0.0844174 4.4322 0
M  V30 536 H 48.2703 0.166037 0.650133 0
M  V30 537 H 50.8143 1.10018 1.72384 0
M  V30 538 H 48.9693 -0.147006 3.87121 0
M  V30 539 H 49.3833 1.79872 4.92693 0
M  V30 540 H 50.8573 0.193404 5.51661 0
M  V30 541 H 51.3343 -0.97113 4.28329 0
M  V30 542 H 51.9403 0.69875 4.19521 0
M  V30 543 N 50.2554 -1.46986 0.568584 0
M  V30 544 C 51.5034 -2.02041 0.0487022 0
M  V30 545 C 51.8244 -1.44408 -1.31039 0
M  V30 546 O 51.0944 -0.623477 -1.85714 0
M  V30 547 H 49.6744 -0.746849 0.015014 0
M  V30 548 H 52.3364 -1.80257 0.741168 0
M  V30 549 H 51.4324 -3.12085 -0.0308961 0
M  V30 550 N 51.7335 -0.305618 -1.54608 0
M  V30 551 C 52.9795 0.302746 -2.00528 0
M  V30 552 C 53.3125 1.53184 -1.19367 0
M  V30 553 O 52.5875 1.92598 -0.271321 0
M  V30 554 C 52.8705 0.654756 -3.54097 0
M  V30 555 C 52.7235 -0.583793 -4.45995 0
M  V30 556 C 54.0425 1.47947 -4.14487 0
M  V30 557 H 51.1615 0.108564 -0.72896 0
M  V30 558 H 53.8035 -0.418634 -1.85331 0
M  V30 559 H 51.9535 1.26935 -3.67178 0
M  V30 560 H 53.6255 -1.22224 -4.44814 0
M  V30 561 H 51.8685 -1.21615 -4.16404 0
M  V30 562 H 52.5395 -0.293287 -5.5122 0
M  V30 563 H 55.0155 0.96013 -4.04871 0
M  V30 564 H 53.8915 1.69454 -5.22088 0
M  V30 565 H 54.1525 2.47011 -3.66658 0
M  V30 566 N 53.2116 1.57565 -0.0334293 0
M  V30 567 C 54.1586 2.10478 0.946981 0
M  V30 568 C 55.1286 1.00787 1.32027 0
M  V30 569 O 56.3136 1.28232 1.41284 0
M  V30 570 C 53.4536 2.63994 2.22263 0
M  V30 571 C 52.5666 3.87709 1.90541 0
M  V30 572 C 51.7016 4.29604 3.12433 0
M  V30 573 C 50.7406 5.46065 2.76549 0
M  V30 574 N 49.8776 5.83096 3.9108 0
M  V30 575 H 54.7176 2.93963 0.488846 0
M  V30 576 H 52.2546 1.45296 0.22969 0
M  V30 577 H 54.2126 2.93114 2.96884 0
M  V30 578 H 52.8426 1.83333 2.65685 0
M  V30 579 H 51.8946 3.65291 1.06144 0
M  V30 580 H 53.2066 4.72403 1.60116 0
M  V30 581 H 52.3606 4.60182 3.9537 0
M  V30 582 H 51.0996 3.43685 3.46023 0
M  V30 583 H 50.1046 5.15176 1.92026 0
M  V30 584 H 51.3296 6.33685 2.44171 0
M  V30 585 H 49.2756 5.00132 4.24504 0
M  V30 586 H 49.1926 6.6244 3.64293 0
M  V30 587 H 50.4606 6.18282 4.74708 0
M  V30 588 N 54.6897 -0.239769 1.55765 0
M  V30 589 C 55.9357 -0.968234 1.78194 0
M  V30 590 C 56.2687 -1.84701 0.599938 0
M  V30 591 O 55.5437 -1.9031 -0.401524 0
M  V30 592 C 55.8267 -1.8227 3.10564 0
M  V30 593 C 55.6797 -0.971633 4.3918 0
M  V30 594 C 56.9987 -2.80388 3.39221 0
M  V30 595 H 54.1177 -0.350572 0.648281 0
M  V30 596 H 56.7597 -0.238259 1.885 0
M  V30 597 H 54.9097 -2.44507 3.01908 0
M  V30 598 H 56.5817 -0.367408 4.59835 0
M  V30 599 H 54.8247 -0.276276 4.32919 0
M  V30 600 H 55.4957 -1.60346 5.28198 0
M  V30 601 H 57.9717 -2.28287 3.47885 0
M  V30 602 H 56.8477 -3.3729 4.33044 0
M  V30 603 H 57.1087 -3.57212 2.60484 0
M  V30 604 N 56.1678 -1.49265 -0.50573 0
M  V30 605 C 57.4158 -1.582 -1.25766 0
M  V30 606 C 57.7368 -0.268482 -1.93143 0
M  V30 607 O 57.0068 0.711833 -1.8251 0
M  V30 608 H 55.5868 -0.582873 -0.467191 0
M  V30 609 H 58.2488 -1.85865 -0.586525 0
M  V30 610 H 57.3448 -2.37563 -2.02412 0
M  V30 611 N 57.6459 0.756429 -1.3826 0
M  V30 612 C 58.8859 1.52833 -1.35725 0
M  V30 613 C 59.2499 1.91926 0.0534106 0
M  V30 614 O 60.4509 2.68028 0.203613 0
M  V30 615 C 58.7219 2.74919 -2.28373 0
M  V30 616 S 60.2809 3.64817 -2.43832 0
M  V30 617 H 57.0989 0.523043 -0.481608 0
M  V30 618 H 59.7009 0.888212 -1.74158 0
M  V30 619 H 58.4049 2.44304 -3.29763 0
M  V30 620 H 57.9359 3.43878 -1.91079 0
M  V30 621 H 59.9509 4.676 -1.66027 0
M  V30 622 N 59.124 1.23083 0.984299 0
M  V30 623 C 60.034 1.02515 2.11016 0
M  V30 624 C 61.05 -0.0291702 1.73976 0
M  V30 625 O 62.226 0.165434 2.00719 0
M  V30 626 C 59.291 0.614673 3.41208 0
M  V30 627 C 58.352 1.74359 3.92297 0
M  V30 628 C 57.585 1.35261 5.16275 0
M  V30 629 O 57.808 0.235136 5.69915 0
M  V30 630 O 56.742 2.17227 5.61334 0
M  V30 631 H 60.568 1.96862 2.31255 0
M  V30 632 H 58.153 1.01753 1.09392 0
M  V30 633 H 60.035 0.396518 4.1953 0
M  V30 634 H 58.71 -0.299851 3.22308 0
M  V30 635 H 57.617 2.01635 3.1511 0
M  V30 636 H 58.95 2.63629 4.15645 0
M  V30 637 N 60.6021 -1.18246 1.0419 0
M  V30 638 C 61.5341 -2.2142 0.592088 0
M  V30 639 C 62.5471 -1.59233 -0.338909 0
M  V30 640 O 63.7361 -1.78002 -0.133231 0
M  V30 641 C 60.8361 -3.38546 -0.154854 0
M  V30 642 C 60.0091 -4.3031 0.784328 0
M  V30 643 C 59.0681 -5.26138 0.0804583 0
M  V30 644 O 58.0941 -5.64738 0.711292 0
M  V30 645 N 59.2961 -5.68261 -1.18574 0
M  V30 646 H 62.0611 -2.60636 1.47949 0
M  V30 647 H 59.6221 -1.33044 0.922544 0
M  V30 648 H 61.6141 -3.99678 -0.635606 0
M  V30 649 H 60.1841 -2.98012 -0.943811 0
M  V30 650 H 59.4041 -3.66764 1.44491 0
M  V30 651 H 60.6921 -4.8852 1.42218 0
M  V30 652 H 60.0901 -5.38957 -1.71876 0
M  V30 653 H 58.6471 -6.31584 -1.61074 0
M  V30 654 N 62.0802 -0.821533 -1.34494 0
M  V30 655 C 63.3282 -0.408139 -1.97936 0
M  V30 656 C 63.6492 1.03193 -1.65457 0
M  V30 657 O 62.9192 1.71622 -0.944595 0
M  V30 658 H 61.4992 -0.147928 -0.732206 0
M  V30 659 H 64.1612 -1.05067 -1.64155 0
M  V30 660 H 63.2572 -0.52601 -3.07635 0
M  V30 661 N 63.5583 1.46682 -0.576371 0
M  V30 662 C 64.4903 2.28341 0.198231 0
M  V30 663 C 65.5033 1.38141 0.861453 0
M  V30 664 O 66.6923 1.62797 0.732082 0
M  V30 665 C 63.7923 3.12986 1.29972 0
M  V30 666 C 62.9653 4.31271 0.729639 0
M  V30 667 C 62.0243 4.97363 1.71803 0
M  V30 668 O 61.0503 5.55156 1.25658 0
M  V30 669 N 62.2523 4.93796 3.05198 0
M  V30 670 H 65.0173 2.9546 -0.502324 0
M  V30 671 H 62.5783 1.56525 -0.413715 0
M  V30 672 H 64.5703 3.54066 1.96008 0
M  V30 673 H 63.1403 2.47984 1.90323 0
M  V30 674 H 62.3603 3.94052 -0.108012 0
M  V30 675 H 63.6483 5.07739 0.328438 0
M  V30 676 H 63.0463 4.48077 3.45317 0
M  V30 677 H 61.6033 5.38837 3.6674 0
M  V30 678 N 65.0364 0.313813 1.54444 0
M  V30 679 C 66.2764 -0.292389 2.02298 0
M  V30 680 C 66.6404 -1.50105 1.19719 0
M  V30 681 O 67.8414 -2.17947 1.5733 0
M  V30 682 C 66.1124 -0.627682 3.51845 0
M  V30 683 S 67.6714 -1.21493 4.21646 0
M  V30 684 H 64.4894 -0.0890247 0.705405 0
M  V30 685 H 67.0914 0.444668 1.90376 0
M  V30 686 H 65.7954 0.260265 4.09574 0
M  V30 687 H 65.3264 -1.39519 3.67829 0
M  V30 688 H 67.3414 -2.5022 4.28491 0
M  V30 689 N 66.5145 -1.57545 0.0417849 0
M  V30 690 C 67.7625 -1.91937 -0.632829 0
M  V30 691 C 68.0835 -0.919978 -1.71934 0
M  V30 692 O 67.3535 0.0366064 -1.95866 0
M  V30 693 H 65.9335 -0.708493 -0.236742 0
M  V30 694 H 68.5955 -1.9468 0.0925745 0
M  V30 695 H 67.6915 -2.92912 -1.07746 0
M  V30 696 N 67.9926 0.231505 -1.5589 0
M  V30 697 C 68.9556 1.27028 -1.90779 0
M  V30 698 C 69.9556 1.40308 -0.785507 0
M  V30 699 O 71.1456 1.38744 -1.05336 0
M  V30 700 C 68.2776 2.64566 -2.14983 0
M  V30 701 H 69.4706 0.973017 -2.83677 0
M  V30 702 H 67.0236 0.471486 -1.49019 0
M  V30 703 H 67.7586 2.99406 -1.24604 0
M  V30 704 H 67.5436 2.56305 -2.96732 0
M  V30 705 H 69.0336 3.39543 -2.43105 0
M  V30 706 N 69.4707 1.49531 0.497807 0
M  V30 707 C 70.7107 1.60799 1.26187 0
M  V30 708 C 71.0747 0.289627 1.89803 0
M  V30 709 O 72.2757 0.277512 2.67364 0
M  V30 710 C 70.5467 2.73729 2.29798 0
M  V30 711 S 72.1057 3.04968 3.155 0
M  V30 712 H 68.9237 0.567145 0.428798 0
M  V30 713 H 71.5257 1.87204 0.563477 0
M  V30 714 H 70.2297 3.68036 1.81597 0
M  V30 715 H 69.7607 2.49328 3.04301 0
M  V30 716 H 71.7757 2.46735 4.30507 0
M  V30 717 N 70.9488 -0.749086 1.3866 0
M  V30 718 C 72.1738 -1.54344 1.38538 0
M  V30 719 C 72.5988 -1.88088 -0.0216655 0
M  V30 720 O 71.9568 -1.50899 -1.00494 0
M  V30 721 C 72.0048 -2.8164 2.25192 0
M  V30 722 O 71.1088 -3.7698 1.67212 0
M  V30 723 H 70.4498 -0.466654 0.472367 0
M  V30 724 H 72.9798 -0.925355 1.82478 0
M  V30 725 H 72.9898 -3.30519 2.3921 0
M  V30 726 H 71.6648 -2.56411 3.27454 0
M  V30 727 H 70.2418 -3.35699 1.6236 0
M  V30 728 N 72.4269 -1.23603 -0.977757 0
M  V30 729 C 73.6729 -1.07129 -1.72195 0
M  V30 730 C 74.0059 0.390501 -1.90233 0
M  V30 731 O 73.2809 1.28902 -1.45653 0
M  V30 732 C 73.5639 -1.80031 -3.11867 0
M  V30 733 C 73.4169 -3.33899 -3.01383 0
M  V30 734 C 74.7359 -1.56492 -4.11337 0
M  V30 735 H 71.8549 -0.390571 -0.624999 0
M  V30 736 H 74.4969 -1.52142 -1.13811 0
M  V30 737 H 72.6469 -1.41768 -3.6171 0
M  V30 738 H 74.3189 -3.81699 -2.59043 0
M  V30 739 H 72.5619 -3.62796 -2.37827 0
M  V30 740 H 73.2329 -3.801 -4.00285 0
M  V30 741 H 75.7089 -1.89757 -3.70313 0
M  V30 742 H 74.5849 -2.09973 -5.07151 0
M  V30 743 H 74.8459 -0.500874 -4.39254 0
M  V30 744 N 73.905 1.17692 -1.04816 0
M  V30 745 C 75.154 1.87192 -0.751132 0
M  V30 746 C 75.467 1.8169 0.724441 0
M  V30 747 O 76.673 2.46625 1.13527 0
M  V30 748 C 75.129 3.35857 -1.29338 0
M  V30 749 C 74.737 3.4987 -2.79812 0
M  V30 750 C 76.481 4.10709 -1.07322 0
M  V30 751 C 74.388 4.92536 -3.27356 0
M  V30 752 H 73.318 0.701162 -0.277288 0
M  V30 753 H 75.969 1.32932 -1.26496 0
M  V30 754 H 74.351 3.89631 -0.707376 0
M  V30 755 H 75.525 3.06332 -3.44235 0
M  V30 756 H 73.84 2.88433 -3.00325 0
M  V30 757 H 76.437 5.15952 -1.4035 0
M  V30 758 H 76.78 4.16299 -0.0108001 0
M  V30 759 H 77.313 3.6313 -1.62423 0
M  V30 760 H 74.052 4.92119 -4.33012 0
M  V30 761 H 73.572 5.3676 -2.67673 0
M  V30 762 H 75.251 5.61288 -3.21815 0
M  V30 763 N 75.3831 0.828654 1.34056 0
M  V30 764 C 76.3131 0.269443 2.3194 0
M  V30 765 C 77.2941 -0.617247 1.58506 0
M  V30 766 O 78.4791 -0.542931 1.86456 0
M  V30 767 C 75.6091 -0.564793 3.42677 0
M  V30 768 C 74.5631 0.225241 4.27407 0
M  V30 769 C 73.8891 -0.7321 5.29664 0
M  V30 770 C 75.1891 1.43663 5.02154 0
M  V30 771 H 76.8831 1.08728 2.7896 0
M  V30 772 H 74.4291 0.524283 1.34117 0
M  V30 773 H 76.3821 -0.966233 4.10173 0
M  V30 774 H 75.1061 -1.41574 2.9432 0
M  V30 775 H 73.7651 0.608117 3.61521 0
M  V30 776 H 73.4131 -1.57916 4.77568 0
M  V30 777 H 73.1131 -0.20767 5.87233 0
M  V30 778 H 74.6371 -1.13128 6.00029 0
M  V30 779 H 76.0511 1.1089 5.62473 0
M  V30 780 H 74.4481 1.89711 5.69324 0
M  V30 781 H 75.5181 2.21181 4.31517 0
M  V30 782 N 76.8612 -1.46375 0.584142 0
M  V30 783 C 78.1382 -1.956 0.0033388 0
M  V30 784 C 78.5182 -1.52679 -1.45782 0
M  V30 785 O 77.8662 -0.77816 -2.14842 0
M  V30 786 C 78.0762 -3.48551 0.176891 0
M  V30 787 C 79.4242 -4.24576 0.0454609 0
M  V30 788 O 80.4482 -3.56043 0.105801 0
M  V30 789 O 79.3072 -5.46427 -0.0890376 0
M  V30 790 H 76.4012 -0.825547 -0.0490066 0
M  V30 791 H 78.9472 -1.56652 0.65256 0
M  V30 792 H 77.7192 -3.72683 1.1926 0
M  V30 793 H 77.3422 -3.94332 -0.508695 0
M  V30 794 N 78.3393 -0.321999 -1.54275 0
M  V30 795 C 79.5873 0.280489 -2.00144 0
M  V30 796 C 79.9083 1.52777 -1.21178 0
M  V30 797 O 79.1783 1.9338 -0.313187 0
M  V30 798 H 77.7583 0.106632 -0.73935 0
M  V30 799 H 80.4203 -0.438184 -1.8991 0
M  V30 800 H 79.5163 0.537972 -3.07428 0
M  V30 801 N 79.8174 1.5752 -0.0501392 0
M  V30 802 C 80.7644 2.1147 0.924603 0
M  V30 803 C 81.7344 1.02182 1.30951 0
M  V30 804 O 82.9194 1.29723 1.39916 0
M  V30 805 C 80.0594 2.66337 2.19451 0
M  V30 806 C 79.1724 3.89708 1.86418 0
M  V30 807 C 78.3074 4.32893 3.07859 0
M  V30 808 C 77.3464 5.48967 2.70742 0
M  V30 809 N 76.4834 5.87211 3.84874 0
M  V30 810 H 81.3234 2.94465 0.457639 0
M  V30 811 H 78.8604 1.45531 0.214266 0
M  V30 812 H 80.8184 2.96247 2.93758 0
M  V30 813 H 79.4484 1.86141 2.63726 0
M  V30 814 H 78.5004 3.66396 1.02264 0
M  V30 815 H 79.8124 4.74074 1.55096 0
M  V30 816 H 78.9664 4.6435 3.90466 0
M  V30 817 H 77.7054 3.47336 3.42358 0
M  V30 818 H 76.7104 5.17183 1.86551 0
M  V30 819 H 77.9354 6.3624 2.37436 0
M  V30 820 H 75.8814 5.04607 4.19175 0
M  V30 821 H 75.7984 6.66266 3.57247 0
M  V30 822 H 77.0664 6.23282 4.68123 0
M  V30 823 N 81.2955 -0.223234 1.56011 0
M  V30 824 C 82.5415 -0.949279 1.79211 0
M  V30 825 C 82.8745 -1.84054 0.619494 0
M  V30 826 O 82.1495 -1.90726 -0.381317 0
M  V30 827 C 82.4325 -1.78965 3.12479 0
M  V30 828 C 82.2855 -0.924997 4.40186 0
M  V30 829 C 83.6045 -2.76774 3.42175 0
M  V30 830 H 80.7235 -0.343676 0.651963 0
M  V30 831 H 83.3655 -0.218253 1.88742 0
M  V30 832 H 81.5155 -2.41291 3.04485 0
M  V30 833 H 83.1875 -0.318615 4.60198 0
M  V30 834 H 81.4305 -0.230344 4.33188 0
M  V30 835 H 82.1015 -1.54735 5.29869 0
M  V30 836 H 84.5775 -2.24584 3.50287 0
M  V30 837 H 83.4535 -3.32678 4.36597 0
M  V30 838 H 83.7145 -3.54429 2.64258 0
M  V30 839 N 82.7736 -1.49793 -0.48987 0
M  V30 840 C 84.0196 -1.60078 -1.24511 0
M  V30 841 C 84.3526 -0.291608 -1.91998 0
M  V30 842 O 83.6276 0.705647 -1.81248 0
M  V30 843 C 83.9106 -2.76791 -2.30345 0
M  V30 844 C 83.7636 -4.17535 -1.67286 0
M  V30 845 C 85.0826 -2.89111 -3.31817 0
M  V30 846 H 82.2016 -0.582645 -0.451324 0
M  V30 847 H 84.8436 -1.82117 -0.541612 0
M  V30 848 H 82.9936 -2.5813 -2.90346 0
M  V30 849 H 84.6656 -4.4774 -1.11026 0
M  V30 850 H 82.9086 -4.22665 -0.976577 0
M  V30 851 H 83.5796 -4.95094 -2.44103 0
M  V30 852 H 86.0556 -3.06133 -2.81819 0
M  V30 853 H 84.9316 -3.72433 -4.03219 0
M  V30 854 H 85.1926 -1.9893 -3.94815 0
M  V30 855 N 84.2517 0.741722 -1.39055 0
M  V30 856 C 85.6677 1.04638 -1.20512 0
M  V30 857 C 85.8677 2.01405 -0.0620218 0
M  V30 858 O 84.9237 2.45547 0.588457 0
M  V30 859 C 86.2367 1.6151 -2.53643 0
M  V30 860 C 87.7847 1.73623 -2.6043 0
M  V30 861 C 88.2597 2.33906 -3.93767 0
M  V30 862 N 89.7507 2.41323 -3.9537 0
M  V30 863 C 90.4857 2.88888 -4.95309 0
M  V30 864 N 89.9817 3.36401 -6.05645 0
M  V30 865 N 91.7747 2.88037 -4.82692 0
M  V30 866 H 83.9257 0.0998155 -2.12165 0
M  V30 867 H 86.1887 0.106907 -0.941953 0
M  V30 868 H 85.8947 0.978739 -3.37807 0
M  V30 869 H 85.7687 2.60411 -2.72885 0
M  V30 870 H 88.1557 2.36384 -1.76655 0
M  V30 871 H 88.2367 0.733945 -2.45045 0
M  V30 872 H 87.8807 1.71776 -4.7797 0
M  V30 873 H 87.8107 3.34799 -4.06469 0
M  V30 874 H 90.3017 2.07734 -3.15682 0
M  V30 875 H 90.6147 3.71186 -6.77821 0
M  V30 876 H 88.9597 3.34427 -6.09248 0
M  V30 877 H 92.1507 2.50237 -3.95599 0
M  V30 878 H 92.3237 3.24792 -5.60726 0
M  V30 879 N 85.7298 1.2412 0.971189 0
M  V30 880 C 86.6928 1.03156 2.04674 0
M  V30 881 C 87.6928 -0.00990322 1.60797 0
M  V30 882 O 88.8828 0.230729 1.72665 0
M  V30 883 C 86.0148 0.562765 3.36223 0
M  V30 884 H 87.2078 1.98614 2.24705 0
M  V30 885 H 84.7608 1.06293 1.14593 0
M  V30 886 H 85.4958 -0.395176 3.21883 0
M  V30 887 H 85.2808 1.31441 3.69413 0
M  V30 888 H 86.7708 0.437015 4.15307 0
M  V30 889 N 87.2079 -1.17134 1.05439 0
M  V30 890 C 88.4479 -1.89137 0.77502 0
M  V30 891 C 88.8119 -1.79345 -0.685526 0
M  V30 892 O 90.0129 -2.46188 -1.0791 0
M  V30 893 C 88.2839 -3.35003 1.2453 0
M  V30 894 S 89.8429 -4.24952 1.09367 0
M  V30 895 H 86.6609 -0.652949 0.281387 0
M  V30 896 H 89.2629 -1.4145 1.34953 0
M  V30 897 H 87.9669 -3.39666 2.30338 0
M  V30 898 H 87.4979 -3.87736 0.665166 0
M  V30 899 H 89.5129 -4.96196 0.0193397 0
M  V30 900 N 88.686 -0.835752 -1.33615 0
M  V30 901 C 89.932 -0.430596 -1.98176 0
M  V30 902 C 90.265 1.00684 -1.66061 0
M  V30 903 O 89.54 1.70339 -0.938877 0
M  V30 904 C 89.823 -0.648065 -3.5422 0
M  V30 905 C 89.676 -2.13255 -3.96033 0
M  V30 906 C 90.995 -0.0922113 -4.40003 0
M  V30 907 H 88.114 -0.157924 -0.719881 0
M  V30 908 H 90.756 -1.05069 -1.58305 0
M  V30 909 H 88.906 -0.120237 -3.88314 0
M  V30 910 H 90.578 -2.725 -3.72211 0
M  V30 911 H 88.821 -2.61823 -3.45878 0
M  V30 912 H 89.492 -2.23547 -5.04708 0
M  V30 913 H 91.968 -0.543343 -4.12537 0
M  V30 914 H 90.844 -0.274083 -5.48215 0
M  V30 915 H 91.105 1.00378 -4.30554 0
M  V30 916 N 90.1641 1.46063 -0.591896 0
M  V30 917 C 91.3921 2.06717 -0.0868936 0
M  V30 918 C 91.8071 1.43916 1.22203 0
M  V30 919 O 91.1641 0.547698 1.74088 0
M  V30 920 C 91.2151 3.6142 0.0758725 0
M  V30 921 O 90.9361 4.21874 -1.18126 0
M  V30 922 C 92.4371 4.39025 0.61416 0
M  V30 923 H 89.6571 0.668162 -0.0616518 0
M  V30 924 H 92.2011 1.8755 -0.815175 0
M  V30 925 H 90.3561 3.79983 0.754413 0
M  V30 926 H 90.7701 5.14861 -1.00092 0
M  V30 927 H 92.2441 5.4783 0.677193 0
M  V30 928 H 92.7211 4.07708 1.63312 0
M  V30 929 H 93.3271 4.2529 -0.0298142 0
M  V30 930 N 91.6422 0.330177 1.54103 0
M  V30 931 C 92.5892 -0.532762 2.24567 0
M  V30 932 C 93.5592 -1.10635 1.23892 0
M  V30 933 O 94.7442 -1.14546 1.5259 0
M  V30 934 C 91.8842 -1.6845 3.01195 0
M  V30 935 C 90.9972 -1.13951 4.167 0
M  V30 936 C 90.1322 -2.25746 4.80845 0
M  V30 937 C 89.1712 -1.6853 5.88442 0
M  V30 938 N 88.3082 -2.74014 6.46421 0
M  V30 939 H 93.1482 0.0746905 2.97906 0
M  V30 940 H 90.6852 0.048632 1.4702 0
M  V30 941 H 92.6432 -2.36234 3.43874 0
M  V30 942 H 91.2732 -2.26314 2.30178 0
M  V30 943 H 90.3252 -0.35301 3.78758 0
M  V30 944 H 91.6372 -0.680892 4.94131 0
M  V30 945 H 90.7912 -3.01422 5.26526 0
M  V30 946 H 89.5302 -2.74947 4.0281 0
M  V30 947 H 88.5352 -0.913543 5.42157 0
M  V30 948 H 89.7602 -1.20198 6.68378 0
M  V30 949 H 87.7062 -3.22494 5.71256 0
M  V30 950 H 87.6232 -2.32735 7.19285 0
M  V30 951 H 88.8912 -3.49499 6.96757 0
M  V30 952 N 93.1203 -1.57491 0.0584922 0
M  V30 953 C 94.0533 -2.07533 -0.948969 0
M  V30 954 C 95.0313 -0.977444 -1.29942 0
M  V30 955 O 96.2153 -1.2499 -1.41102 0
M  V30 956 C 93.3423 -2.52192 -2.2609 0
M  V30 957 C 92.3883 -3.73287 -2.06298 0
M  V30 958 S 93.2213 -5.18603 -1.33459 0
M  V30 959 C 94.3773 -5.66583 -2.65959 0
M  V30 960 H 94.6103 -2.92662 -0.523118 0
M  V30 961 H 92.1433 -1.53631 -0.153954 0
M  V30 962 H 94.1013 -2.78585 -3.01498 0
M  V30 963 H 92.7623 -1.67356 -2.65802 0
M  V30 964 H 91.9553 -4.0248 -3.03357 0
M  V30 965 H 91.5573 -3.47199 -1.39029 0
M  V30 966 H 93.8493 -5.72616 -3.62101 0
M  V30 967 H 94.7923 -6.65684 -2.41393 0
M  V30 968 H 95.2003 -4.94342 -2.72554 0
M  V30 969 N 94.5984 0.214957 -1.56127 0
M  V30 970 C 95.5454 1.26642 -1.92952 0
M  V30 971 C 96.5154 1.46244 -0.78753 0
M  V30 972 O 97.7004 1.59704 -1.04399 0
M  V30 973 C 94.8404 2.6104 -2.25726 0
M  V30 974 C 93.9534 2.49183 -3.52891 0
M  V30 975 C 93.0884 3.76149 -3.7508 0
M  V30 976 C 92.1274 3.59041 -4.95738 0
M  V30 977 N 91.2644 4.77972 -5.14283 0
M  V30 978 H 96.1044 0.945384 -2.82607 0
M  V30 979 H 93.6414 0.455489 -1.3987 0
M  V30 980 H 95.5994 3.39313 -2.42739 0
M  V30 981 H 94.2294 2.91227 -1.39236 0
M  V30 982 H 93.2814 1.6231 -3.44034 0
M  V30 983 H 94.5934 2.32466 -4.41318 0
M  V30 984 H 93.7474 4.62865 -3.92226 0
M  V30 985 H 92.4864 3.95799 -2.84947 0
M  V30 986 H 91.4914 2.7071 -4.78535 0
M  V30 987 H 92.7164 3.40856 -5.87362 0
M  V30 988 H 90.6624 4.97923 -4.27093 0
M  V30 989 H 90.5794 4.64006 -5.96853 0
M  V30 990 H 91.8474 5.66096 -5.35869 0
M  V30 991 N 96.0765 1.50051 0.48192 0
M  V30 992 C 97.4925 1.37237 0.814756 0
M  V30 993 C 97.6925 0.420109 1.97072 0
M  V30 994 O 96.7485 -0.141246 2.52105 0
M  V30 995 C 98.0615 2.78375 1.13701 0
M  V30 996 C 99.6095 2.87213 1.2441 0
M  V30 997 C 100.084 4.29161 1.59954 0
M  V30 998 N 101.575 4.32061 1.66967 0
M  V30 999 C 102.31 5.38879 1.95952 0
M  V30 1000 N 101.806 6.55918 2.23031 0
M  V30 1001 N 103.599 5.26312 1.97363 0
M  V30 1002 H 95.7505 2.10546 -0.28005 0
M  V30 1003 H 98.0135 0.945921 -0.0627454 0
M  V30 1004 H 97.7195 3.49845 0.360787 0
M  V30 1005 H 97.5935 3.14941 2.07586 0
M  V30 1006 H 99.9805 2.15969 2.01101 0
M  V30 1007 H 100.061 2.54204 0.285299 0
M  V30 1008 H 99.7055 5.00938 0.838067 0
M  V30 1009 H 99.6355 4.59648 2.56966 0
M  V30 1010 H 102.126 3.47661 1.48123 0
M  V30 1011 H 102.439 7.33139 2.44391 0
M  V30 1012 H 100.784 6.59112 2.20447 0
M  V30 1013 H 103.975 4.33876 1.75697 0
M  V30 1014 H 104.148 6.09649 2.19618 0
M  V30 1015 N 97.5546 -0.734337 1.39446 0
M  V30 1016 C 98.8006 -1.49613 1.36908 0
M  V30 1017 C 99.1336 -1.94169 -0.0347829 0
M  V30 1018 O 98.4086 -1.66833 -0.999847 0
M  V30 1019 C 98.6916 -2.73534 2.34203 0
M  V30 1020 C 98.5446 -2.34993 3.83534 0
M  V30 1021 C 99.8636 -3.75635 2.29317 0
M  V30 1022 H 96.9826 -0.542714 0.498629 0
M  V30 1023 H 99.6246 -0.839597 1.70443 0
M  V30 1024 H 97.7746 -3.29553 2.05736 0
M  V30 1025 H 99.4466 -1.84601 4.22753 0
M  V30 1026 H 97.6896 -1.67213 4.00278 0
M  V30 1027 H 98.3606 -3.23738 4.47099 0
M  V30 1028 H 100.837 -3.29203 2.54489 0
M  V30 1029 H 99.7126 -4.60008 2.99472 0
M  V30 1030 H 99.9736 -4.22603 1.29842 0
M  V30 1031 N 99.0327 -1.24633 -0.964593 0
M  V30 1032 C 99.9957 -1.0424 -2.04124 0
M  V30 1033 C 100.996 0.00137563 -1.608 0
M  V30 1034 O 102.186 -0.239883 -1.7254 0
M  V30 1035 C 99.3177 -0.580588 -3.3592 0
M  V30 1036 H 100.511 -1.99803 -2.23649 0
M  V30 1037 H 98.0637 -1.06899 -1.14027 0
M  V30 1038 H 98.7987 0.3781 -3.22088 0
M  V30 1039 H 98.5837 -1.33398 -3.6871 0
M  V30 1040 H 100.074 -0.459034 -4.15069 0
M  V30 1041 N 100.511 1.16574 -1.06058 0
M  V30 1042 C 101.788 1.83048 -0.689416 0
M  V30 1043 C 102.168 1.94122 0.829443 0
M  V30 1044 O 101.516 1.48249 1.7388 0
M  V30 1045 C 101.726 3.20186 -1.38859 0
M  V30 1046 C 103.074 3.95989 -1.53226 0
M  V30 1047 O 104.098 3.29696 -1.3483 0
M  V30 1048 O 102.957 5.14813 -1.83384 0
M  V30 1049 H 100.051 0.790258 -0.243764 0
M  V30 1050 H 102.597 1.23797 -1.16071 0
M  V30 1051 H 101.369 3.07146 -2.4244 0
M  V30 1052 H 100.992 3.87112 -0.907216 0
M  V30 1053 N 101.989 0.842826 1.3317 0
M  V30 1054 C 103.237 0.439577 1.97262 0
M  V30 1055 C 103.558 -1.00548 1.67078 0
M  V30 1056 O 102.828 -1.70098 0.971779 0
M  V30 1057 H 101.408 0.159558 0.72976 0
M  V30 1058 H 104.07 1.07665 1.62463 0
M  V30 1059 H 103.166 0.574886 3.0676 0
M  V30 1060 N 103.467 -1.45747 0.599634 0
M  V30 1061 C 104.43 -2.28917 -0.113835 0
M  V30 1062 C 105.43 -1.3933 -0.802729 0
M  V30 1063 O 106.62 -1.61534 -0.652103 0
M  V30 1064 C 103.752 -3.20152 -1.17114 0
M  V30 1065 H 104.945 -2.93478 0.617289 0
M  V30 1066 H 102.498 -1.52137 0.358327 0
M  V30 1067 H 103.233 -2.60374 -1.93329 0
M  V30 1068 H 103.018 -3.86133 -0.681468 0
M  V30 1069 H 104.508 -3.82708 -1.67105 0
M  V30 1070 N 104.945 -0.338344 -1.53925 0
M  V30 1071 C 105.877 0.555117 -2.22376 0
M  V30 1072 C 106.89 1.06812 -1.22862 0
M  V30 1073 O 108.079 0.979163 -1.49247 0
M  V30 1074 C 105.179 1.77609 -2.88631 0
M  V30 1075 C 104.352 1.39927 -4.14414 0
M  V30 1076 C 103.411 2.47936 -4.64127 0
M  V30 1077 O 102.437 2.11461 -5.28463 0
M  V30 1078 N 103.639 3.79107 -4.39612 0
M  V30 1079 H 106.404 -0.0310778 -2.99684 0
M  V30 1080 H 103.965 -0.162226 -1.61085 0
M  V30 1081 H 105.957 2.49287 -3.18807 0
M  V30 1082 H 104.527 2.26978 -2.14941 0
M  V30 1083 H 103.747 0.513481 -3.90841 0
M  V30 1084 H 105.035 1.12341 -4.96243 0
M  V30 1085 H 104.433 4.11531 -3.88148 0
M  V30 1086 H 102.99 4.4697 -4.74406 0
M  V30 1087 N 106.423 1.57458 -0.0668435 0
M  V30 1088 C 107.672 1.92477 0.602947 0
M  V30 1089 C 107.985 0.948419 1.71068 0
M  V30 1090 O 109.191 1.19124 2.43971 0
M  V30 1091 C 107.647 3.41903 1.12383 0
M  V30 1092 C 107.255 4.47975 0.04737 0
M  V30 1093 C 108.999 3.85931 1.76797 0
M  V30 1094 C 106.906 5.88529 0.582022 0
M  V30 1095 H 105.836 0.718387 0.22899 0
M  V30 1096 H 108.487 1.82978 -0.138276 0
M  V30 1097 H 106.869 3.46459 1.91787 0
M  V30 1098 H 108.043 4.55029 -0.726978 0
M  V30 1099 H 106.358 4.13384 -0.500243 0
M  V30 1100 H 108.955 4.88322 2.17821 0
M  V30 1101 H 109.298 3.23029 2.62599 0
M  V30 1102 H 109.831 3.83958 1.04024 0
M  V30 1103 H 106.57 6.55065 -0.238721 0
M  V30 1104 H 106.09 5.85004 1.324 0
M  V30 1105 H 107.769 6.38258 1.05999 0
M  V30 1106 N 107.901 -0.206675 1.56239 0
M  V30 1107 C 109.129 -0.945345 1.8404 0
M  V30 1108 C 109.544 -1.77336 0.647885 0
M  V30 1109 O 108.901 -1.78425 -0.383511 0
M  V30 1110 C 108.952 -1.8509 3.10522 0
M  V30 1111 O 108.673 -1.05634 4.25174 0
M  V30 1112 C 110.174 -2.70222 3.51418 0
M  V30 1113 H 107.394 -0.276372 0.61144 0
M  V30 1114 H 109.938 -0.217417 2.03341 0
M  V30 1115 H 108.093 -2.53259 2.93153 0
M  V30 1116 H 108.507 -1.67238 4.97124 0
M  V30 1117 H 109.981 -3.29438 4.42916 0
M  V30 1118 H 110.458 -3.43358 2.73864 0
M  V30 1119 H 111.064 -2.07443 3.71278 0
M  V30 1120 N 109.379 -1.50304 -0.473955 0
M  V30 1121 C 110.607 -1.64902 -1.24959 0
M  V30 1122 C 111.022 -0.331198 -1.85872 0
M  V30 1123 O 110.379 0.68652 -1.69095 0
M  V30 1124 C 110.43 -2.73803 -2.36038 0
M  V30 1125 O 110.151 -4.00477 -1.77624 0
M  V30 1126 C 111.652 -2.99349 -3.26964 0
M  V30 1127 H 108.872 -0.554383 -0.378022 0
M  V30 1128 H 111.416 -1.9651 -0.566054 0
M  V30 1129 H 109.571 -2.44898 -3.00173 0
M  V30 1130 H 109.985 -4.60678 -2.5075 0
M  V30 1131 H 111.459 -3.79217 -4.01121 0
M  V30 1132 H 111.936 -2.10307 -3.85574 0
M  V30 1133 H 112.542 -3.29774 -2.68569 0
M  V30 1134 N 110.857 0.726932 -1.39834 0
M  V30 1135 C 112.106 1.48214 -1.36805 0
M  V30 1136 C 112.419 1.95576 0.0305291 0
M  V30 1137 O 113.625 2.7088 0.183417 0
M  V30 1138 C 112.081 2.67854 -2.40379 0
M  V30 1139 C 111.689 2.27408 -3.85992 0
M  V30 1140 C 113.433 3.45641 -2.46439 0
M  V30 1141 C 111.34 3.43819 -4.81189 0
M  V30 1142 H 110.27 0.556606 -0.508631 0
M  V30 1143 H 112.921 0.792216 -1.65518 0
M  V30 1144 H 111.303 3.3896 -2.04749 0
M  V30 1145 H 112.477 1.63795 -4.30706 0
M  V30 1146 H 110.792 1.62692 -3.83302 0
M  V30 1147 H 113.389 4.32244 -3.14753 0
M  V30 1148 H 113.732 3.88669 -1.49139 0
M  V30 1149 H 114.265 2.8157 -2.81004 0
M  V30 1150 H 111.004 3.05834 -5.79781 0
M  V30 1151 H 110.524 4.06385 -4.41148 0
M  V30 1152 H 112.203 4.10043 -5.00474 0
M  V30 1153 N 112.336 1.25143 0.95797 0
M  V30 1154 C 113.246 1.06968 2.08794 0
M  V30 1155 C 114.262 0.00773911 1.73998 0
M  V30 1156 O 115.438 0.207972 2.00323 0
M  V30 1157 C 112.503 0.68691 3.39827 0
M  V30 1158 C 111.564 1.82641 3.88511 0
M  V30 1159 C 110.797 1.46181 5.1329 0
M  V30 1160 O 111.02 0.355971 5.69288 0
M  V30 1161 O 109.954 2.29085 5.566 0
M  V30 1162 H 113.78 2.01723 2.27027 0
M  V30 1163 H 111.365 1.04051 1.07209 0
M  V30 1164 H 113.247 0.485417 4.18595 0
M  V30 1165 H 111.922 -0.231417 3.22872 0
M  V30 1166 H 110.829 2.08274 3.10762 0
M  V30 1167 H 112.162 2.72386 4.09959 0
M  V30 1168 N 113.814 -1.1601 1.06675 0
M  V30 1169 C 115.062 -1.86264 0.784229 0
M  V30 1170 C 115.383 -1.82328 -0.691488 0
M  V30 1171 O 114.653 -1.25947 -1.50047 0
M  V30 1172 H 113.233 -0.689621 0.28711 0
M  V30 1173 H 115.895 -1.40664 1.34906 0
M  V30 1174 H 114.991 -2.91595 1.11259 0
M  V30 1175 N 115.292 -0.849877 -1.32721 0
M  V30 1176 C 116.538 -0.451591 -1.97708 0
M  V30 1177 C 116.871 0.989175 -1.6712 0
M  V30 1178 O 116.146 1.69334 -0.956891 0
M  V30 1179 C 116.429 -0.685598 -3.53513 0
M  V30 1180 C 116.282 -2.17444 -3.93749 0
M  V30 1181 C 117.601 -0.138874 -4.39881 0
M  V30 1182 H 114.72 -0.16555 -0.718166 0
M  V30 1183 H 117.362 -1.06742 -1.57182 0
M  V30 1184 H 115.512 -0.161416 -3.88165 0
M  V30 1185 H 117.184 -2.76433 -3.693 0
M  V30 1186 H 115.427 -2.65476 -3.43081 0
M  V30 1187 H 116.098 -2.28888 -5.02309 0
M  V30 1188 H 118.574 -0.587068 -4.11938 0
M  V30 1189 H 117.45 -0.332213 -5.47894 0
M  V30 1190 H 117.711 0.95806 -4.31594 0
M  V30 1191 N 116.77 1.45427 -0.607355 0
M  V30 1192 C 118.018 2.01841 -0.102253 0
M  V30 1193 C 118.339 1.47832 1.27164 0
M  V30 1194 O 117.609 0.672497 1.83995 0
M  V30 1195 H 116.189 0.746188 -0.0348101 0
M  V30 1196 H 118.851 1.78229 -0.7887 0
M  V30 1197 H 117.947 3.12057 -0.0518585 0
M  V30 1198 N 118.248 0.346503 1.53744 0
M  V30 1199 C 119.18 -0.543316 2.22667 0
M  V30 1200 C 120.193 -1.06159 1.23427 0
M  V30 1201 O 121.382 -0.971235 1.49764 0
M  V30 1202 C 118.482 -1.76076 2.89569 0
M  V30 1203 C 117.655 -1.37727 4.15151 0
M  V30 1204 C 116.714 -2.45471 4.65436 0
M  V30 1205 O 115.74 -2.08655 5.29577 0
M  V30 1206 N 116.942 -3.7677 4.41616 0
M  V30 1207 H 119.707 0.0469703 2.99663 0
M  V30 1208 H 117.268 0.170766 1.60997 0
M  V30 1209 H 119.26 -2.47593 3.20125 0
M  V30 1210 H 117.83 -2.25835 2.16142 0
M  V30 1211 H 117.05 -0.492746 3.91108 0
M  V30 1212 H 118.338 -1.09708 4.96832 0
M  V30 1213 H 117.736 -4.09467 3.90325 0
M  V30 1214 H 116.293 -4.44448 4.7677 0
M  V30 1215 N 119.726 -1.57421 0.075193 0
M  V30 1216 C 121.137 -1.81021 -0.456964 0
M  V30 1217 C 121.488 -0.98936 -1.69429 0
M  V30 1218 O 120.613 -0.212865 -2.15351 0
M  V30 1219 C 121.208 -3.28329 -0.83581 0
M  V30 1220 C 119.767 -3.52764 -1.31281 0
M  V30 1221 C 118.914 -2.75676 -0.299648 0
M  V30 1222 H 121.865 -1.55822 0.300856 0
M  V30 1223 H 121.886 -3.40564 -1.69696 0
M  V30 1224 H 121.398 -3.88046 0.0649238 0
M  V30 1225 H 119.499 -2.98355 -2.23193 0
M  V30 1226 H 119.612 -4.61451 -1.28839 0
M  V30 1227 H 117.976 -2.42538 -0.777641 0
M  V30 1228 H 118.759 -3.38132 0.593417 0
M  V30 1229 N 121.204 0.198386 -1.56346 0
M  V30 1230 C 122.114 1.2664 -1.97483 0
M  V30 1231 C 123.13 1.49989 -0.882002 0
M  V30 1232 O 124.306 1.62668 -1.18748 0
M  V30 1233 C 121.371 2.59141 -2.30319 0
M  V30 1234 C 120.432 2.43892 -3.53292 0
M  V30 1235 C 119.665 3.70074 -3.84553 0
M  V30 1236 O 119.888 4.74101 -3.1715 0
M  V30 1237 O 118.822 3.658 -4.7799 0
M  V30 1238 H 122.648 0.947304 -2.88548 0
M  V30 1239 H 120.233 0.403123 -1.43859 0
M  V30 1240 H 122.115 3.37352 -2.5253 0
M  V30 1241 H 120.79 2.90684 -1.42423 0
M  V30 1242 H 119.697 1.63803 -3.36332 0
M  V30 1243 H 121.03 2.17282 -4.41644 0
M  V30 1244 N 122.682 1.50554 0.465978 0
M  V30 1245 C 123.63 1.70324 1.58406 0
M  V30 1246 C 124.624 0.569139 1.59553 0
M  V30 1247 O 125.83 0.749776 1.63641 0
M  V30 1248 H 122.205 0.537688 0.525734 0
M  V30 1249 H 124.176 2.64104 1.38894 0
M  V30 1250 C 122.925 1.81928 2.96307 0
M  V30 1251 H 122.248 2.68586 2.96144 0
M  V30 1252 H 123.688 1.99784 3.73982 0
M  V30 1253 C 122.147 0.572095 3.32007 0
M  V30 1254 O 122.677 -0.286416 4.00678 0
M  V30 1255 N 120.883 0.424606 2.87481 0
M  V30 1256 H 120.43 1.12427 2.31771 0
M  V30 1257 H 120.388 -0.408697 3.11732 0
M  V30 1258 N 124.16 -0.719506 1.40217 0
M  V30 1259 C 125.09 -1.8465 1.42922 0
M  V30 1260 C 126.071 -1.67599 0.29062 0
M  V30 1261 O 127.256 -1.87688 0.498677 0
M  V30 1262 C 124.386 -3.22565 1.28722 0
M  V30 1263 C 123.34 -3.54281 2.40144 0
M  V30 1264 C 122.666 -4.91298 2.11023 0
M  V30 1265 C 123.966 -3.55676 3.82481 0
M  V30 1266 H 125.66 -1.82644 2.37237 0
M  V30 1267 H 123.206 -0.877305 1.1419 0
M  V30 1268 H 125.159 -4.01095 1.29232 0
M  V30 1269 H 123.883 -3.25137 0.308811 0
M  V30 1270 H 122.542 -2.78088 2.38877 0
M  V30 1271 H 122.19 -4.90468 1.11582 0
M  V30 1272 H 121.89 -5.13485 2.8567 0
M  V30 1273 H 123.414 -5.72166 2.13209 0
M  V30 1274 H 124.828 -4.24254 3.85592 0
M  V30 1275 H 123.225 -3.89388 4.56614 0
M  V30 1276 H 124.295 -2.55144 4.12346 0
M  V30 1277 N 125.638 -1.25649 -0.95132 0
M  V30 1278 C 126.588 -1.03004 -2.03406 0
M  V30 1279 C 127.572 0.034187 -1.60864 0
M  V30 1280 O 128.764 -0.181549 -1.76066 0
M  V30 1281 C 125.893 -0.654255 -3.37008 0
M  V30 1282 C 124.979 -1.75542 -3.86065 0
M  V30 1283 N 125.37 -2.99113 -4.07879 0
M  V30 1284 C 123.668 -1.63669 -4.14884 0
M  V30 1285 C 124.369 -3.70611 -4.48356 0
M  V30 1286 N 123.345 -2.98247 -4.54477 0
M  V30 1287 H 127.147 -1.96813 -2.1827 0
M  V30 1288 H 124.661 -1.16017 -1.13639 0
M  V30 1289 H 126.658 -0.473206 -4.14206 0
M  V30 1290 H 125.318 0.276468 -3.23521 0
M  V30 1291 H 126.329 -3.35124 -3.94857 0
M  V30 1292 H 123.006 -0.775161 -4.10241 0
M  V30 1293 H 124.396 -4.76695 -4.73509 0
M  V30 1294 N 127.117 1.15442 -1.07289 0
M  V30 1295 C 128.528 1.67803 -0.818475 0
M  V30 1296 C 128.879 1.8489 0.656507 0
M  V30 1297 O 128.004 1.55176 1.50829 0
M  V30 1298 C 128.599 3.04805 -1.47917 0
M  V30 1299 C 127.158 3.54245 -1.27229 0
M  V30 1300 C 126.305 2.29986 -1.54925 0
M  V30 1301 H 129.256 0.996646 -1.23502 0
M  V30 1302 H 129.277 3.69702 -0.90005 0
M  V30 1303 H 128.789 2.92336 -2.55267 0
M  V30 1304 H 126.89 3.71956 -0.21899 0
M  V30 1305 H 127.003 4.35723 -1.99203 0
M  V30 1306 H 125.367 2.35496 -0.970242 0
M  V30 1307 H 126.15 2.20105 -2.63455 0
M  V30 1308 N 128.595 0.856903 1.32268 0
M  V30 1309 C 129.525 0.31858 2.31316 0
M  V30 1310 C 130.506 -0.583487 1.59779 0
M  V30 1311 O 131.691 -0.503259 1.87566 0
M  V30 1312 C 128.821 -0.491979 3.43798 0
M  V30 1313 C 127.775 0.315849 4.26833 0
M  V30 1314 C 127.101 -0.619586 5.31098 0
M  V30 1315 C 128.401 1.54282 4.98993 0
M  V30 1316 H 130.095 1.14621 2.76591 0
M  V30 1317 H 127.641 0.552613 1.32974 0
M  V30 1318 H 129.594 -0.879012 4.1213 0
M  V30 1319 H 128.318 -1.35299 2.97257 0
M  V30 1320 H 126.977 0.684664 3.6015 0
M  V30 1321 H 126.625 -1.47751 4.8081 0
M  V30 1322 H 126.325 -0.0830621 5.87541 0
M  V30 1323 H 127.849 -1.00375 6.02293 0
M  V30 1324 H 129.263 1.22796 5.59995 0
M  V30 1325 H 127.66 2.01745 5.65172 0
M  V30 1326 H 128.73 2.30285 4.26728 0
M  V30 1327 N 130.073 -1.45103 0.615059 0
M  V30 1328 C 131.005 -2.28786 -0.13762 0
M  V30 1329 C 132.018 -1.40376 -0.824525 0
M  V30 1330 O 133.207 -1.64681 -0.688662 0
M  V30 1331 C 130.307 -3.16322 -1.21628 0
M  V30 1332 C 129.48 -4.33054 -0.615039 0
M  V30 1333 C 128.539 -5.01743 -1.58556 0
M  V30 1334 O 127.565 -5.58293 -1.10895 0
M  V30 1335 N 128.767 -5.01714 -2.91998 0
M  V30 1336 H 131.532 -2.94025 0.580483 0
M  V30 1337 H 129.093 -1.55373 0.45507 0
M  V30 1338 H 131.085 -3.59139 -1.86552 0
M  V30 1339 H 129.655 -2.52943 -1.83681 0
M  V30 1340 H 128.875 -3.93627 0.21245 0
M  V30 1341 H 130.163 -5.08431 -0.193704 0
M  V30 1342 H 129.561 -4.57075 -3.33316 0
M  V30 1343 H 128.118 -5.48371 -3.52325 0
M  V30 1344 N 131.551 -0.354651 -1.53558 0
M  V30 1345 C 132.498 0.496968 -2.25386 0
M  V30 1346 C 133.468 1.0865 -1.25636 0
M  V30 1347 O 134.653 1.12104 -1.54394 0
M  V30 1348 C 131.793 1.63637 -3.03837 0
M  V30 1349 C 130.906 1.07307 -4.18461 0
M  V30 1350 C 130.041 2.18068 -4.84376 0
M  V30 1351 C 129.08 1.59147 -5.91049 0
M  V30 1352 N 128.217 2.63695 -6.50699 0
M  V30 1353 H 133.057 -0.122075 -2.9775 0
M  V30 1354 H 130.594 -0.0720154 -1.46924 0
M  V30 1355 H 132.552 2.30734 -3.47589 0
M  V30 1356 H 131.182 2.22623 -2.33749 0
M  V30 1357 H 130.234 0.292708 -3.79272 0
M  V30 1358 H 131.546 0.602193 -4.95152 0
M  V30 1359 H 130.7 2.93007 -5.31255 0
M  V30 1360 H 129.439 2.68504 -4.07133 0
M  V30 1361 H 128.444 0.827175 -5.43542 0
M  V30 1362 H 129.669 1.09549 -6.70206 0
M  V30 1363 H 127.615 3.13365 -5.76315 0
M  V30 1364 H 127.532 2.21263 -7.22896 0
M  V30 1365 H 128.8 3.3837 -7.02229 0
M  V30 1366 N 133.029 1.57378 -0.0835403 0
M  V30 1367 C 133.992 2.12252 0.864959 0
M  V30 1368 C 134.992 1.04916 1.21858 0
M  V30 1369 O 136.182 1.30853 1.14991 0
M  V30 1370 C 133.314 2.63358 2.16461 0
M  V30 1371 H 134.507 2.97371 0.388676 0
M  V30 1372 H 132.06 1.55423 0.165317 0
M  V30 1373 H 132.795 1.81727 2.686 0
M  V30 1374 H 132.58 3.41826 1.92087 0
M  V30 1375 H 134.07 3.05847 2.84337 0
M  V30 1376 N 134.507 -0.190092 1.56449 0
M  V30 1377 C 135.753 -0.906472 1.82084 0
M  V30 1378 C 136.108 -1.80677 0.661335 0
M  V30 1379 O 135.401 -1.88501 -0.343237 0
M  V30 1380 C 135.595 -1.75382 3.1141 0
M  V30 1381 C 135.424 -0.937053 4.39829 0
M  V30 1382 C 134.194 -0.619507 5.01488 0
M  V30 1383 C 136.392 -0.2874 5.13496 0
M  V30 1384 N 134.374 0.215367 6.13522 0
M  V30 1385 C 135.745 0.409454 6.18646 0
M  V30 1386 C 137.8 -0.203639 4.97483 0
M  V30 1387 C 136.503 1.1821 7.0952 0
M  V30 1388 C 138.529 0.555622 5.88784 0
M  V30 1389 C 137.891 1.24091 6.93384 0
M  V30 1390 H 133.99 -0.310931 0.717528 0
M  V30 1391 H 136.574 -0.174821 1.93914 0
M  V30 1392 H 134.745 -2.45703 3.00806 0
M  V30 1393 H 136.477 -2.41006 3.25112 0
M  V30 1394 H 133.232 -0.945126 4.64074 0
M  V30 1395 H 133.656 0.622562 6.74131 0
M  V30 1396 H 138.298 -0.719099 4.1664 0
M  V30 1397 H 136.016 1.70897 7.89823 0
M  V30 1398 H 139.602 0.621854 5.78467 0
M  V30 1399 H 138.482 1.81901 7.62812 0
M  V30 1400 N 135.985 -1.50799 -0.457987 0
M  V30 1401 C 137.231 -1.62683 -1.21088 0
M  V30 1402 C 137.564 -0.332268 -1.91336 0
M  V30 1403 O 136.839 0.667043 -1.82704 0
M  V30 1404 C 137.122 -2.81615 -2.24422 0
M  V30 1405 C 136.975 -4.20989 -1.58392 0
M  V30 1406 C 138.294 -2.96085 -3.2561 0
M  V30 1407 H 135.413 -0.592087 -0.438864 0
M  V30 1408 H 138.055 -1.83225 -0.50286 0
M  V30 1409 H 136.205 -2.64231 -2.84806 0
M  V30 1410 H 137.877 -4.49994 -1.01504 0
M  V30 1411 H 136.12 -4.24641 -0.886704 0
M  V30 1412 H 136.791 -5.0016 -2.33547 0
M  V30 1413 H 139.267 -3.12042 -2.75262 0
M  V30 1414 H 138.143 -3.80902 -3.95228 0
M  V30 1415 H 138.404 -2.0726 -3.90507 0
M  V30 1416 N 137.463 0.71206 -1.40597 0
M  V30 1417 C 138.393 1.83889 -1.43899 0
M  V30 1418 C 139.374 1.67442 -0.299504 0
M  V30 1419 O 140.559 1.87421 -0.508624 0
M  V30 1420 C 137.689 3.21877 -1.30431 0
M  V30 1421 C 136.643 3.53002 -2.42019 0
M  V30 1422 C 135.969 4.90172 -2.13626 0
M  V30 1423 C 137.269 3.53643 -3.84362 0
M  V30 1424 H 138.963 1.81383 -2.38203 0
M  V30 1425 H 136.509 0.871237 -1.14654 0
M  V30 1426 H 138.462 4.00404 -1.31357 0
M  V30 1427 H 137.186 3.24968 -0.326049 0
M  V30 1428 H 135.845 2.76818 -2.40349 0
M  V30 1429 H 135.493 4.89869 -1.14182 0
M  V30 1430 H 135.193 5.11962 -2.88389 0
M  V30 1431 H 136.717 5.71028 -2.1624 0
M  V30 1432 H 138.131 4.22203 -3.87837 0
M  V30 1433 H 136.528 3.86961 -4.58673 0
M  V30 1434 H 137.598 2.52954 -4.13693 0
M  V30 1435 N 138.941 1.26152 0.944643 0
M  V30 1436 C 139.891 1.04081 2.02857 0
M  V30 1437 C 140.875 -0.0256555 1.6088 0
M  V30 1438 O 142.067 0.190884 1.75968 0
M  V30 1439 C 139.196 0.672118 3.36656 0
M  V30 1440 C 138.282 1.77586 3.85128 0
M  V30 1441 N 138.673 3.01272 4.06287 0
M  V30 1442 C 136.971 1.65867 4.1401 0
M  V30 1443 C 137.672 3.72983 4.46384 0
M  V30 1444 N 136.648 3.00653 4.52889 0
M  V30 1445 H 140.45 1.97968 2.17223 0
M  V30 1446 H 137.964 1.16618 1.13022 0
M  V30 1447 H 139.961 0.495166 4.13949 0
M  V30 1448 H 138.621 -0.259307 3.23663 0
M  V30 1449 H 139.632 3.37213 3.93075 0
M  V30 1450 H 136.309 0.796907 4.09824 0
M  V30 1451 H 137.699 4.792 4.70975 0
M  V30 1452 N 140.419 -1.14872 1.07899 0
M  V30 1453 C 141.667 -1.85422 0.803941 0
M  V30 1454 C 141.988 -1.83051 -0.67211 0
M  V30 1455 O 141.258 -1.27532 -1.48703 0
M  V30 1456 H 139.838 -0.686537 0.294408 0
M  V30 1457 H 142.5 -1.39226 1.3639 0
M  V30 1458 H 141.596 -2.90399 1.14346 0
M  V30 1459 N 141.898 -0.863906 -1.31812 0
M  V30 1460 C 143.146 -0.470904 -1.96537 0
M  V30 1461 C 143.467 0.978771 -1.68657 0
M  V30 1462 O 142.737 1.6853 -0.998717 0
M  V30 1463 H 141.317 -0.171148 -0.72713 0
M  V30 1464 H 143.979 -1.10236 -1.60729 0
M  V30 1465 H 143.075 -0.623616 -3.05806 0
M  V30 1466 N 143.376 1.44774 -0.622745 0
M  V30 1467 C 144.339 2.29069 0.0774015 0
M  V30 1468 C 145.339 1.4059 0.780461 0
M  V30 1469 O 146.529 1.62551 0.626322 0
M  V30 1470 C 143.661 3.21974 1.12006 0
M  V30 1471 H 144.854 2.92459 -0.663901 0
M  V30 1472 H 142.407 1.51548 -0.382486 0
M  V30 1473 H 143.142 2.63417 1.89162 0
M  V30 1474 H 142.927 3.87168 0.619951 0
M  V30 1475 H 144.417 3.85318 1.60995 0
M  V30 1476 N 144.854 0.36279 1.53368 0
M  V30 1477 C 145.786 -0.519668 2.23231 0
M  V30 1478 C 146.799 -1.04844 1.24546 0
M  V30 1479 O 147.988 -0.955296 1.50786 0
M  V30 1480 C 145.088 -1.72995 2.9142 0
M  V30 1481 C 144.261 -1.33316 4.16588 0
M  V30 1482 C 143.32 -2.40521 4.68013 0
M  V30 1483 O 142.346 -2.03027 5.3176 0
M  V30 1484 N 143.548 -3.72065 4.45587 0
M  V30 1485 H 146.313 0.078751 2.99597 0
M  V30 1486 H 143.874 0.187833 1.60807 0
M  V30 1487 H 145.866 -2.44184 3.22733 0
M  V30 1488 H 144.436 -2.2353 2.18525 0
M  V30 1489 H 143.656 -0.451236 3.91609 0
M  V30 1490 H 144.944 -1.04432 4.97967 0
M  V30 1491 H 144.342 -4.05304 3.94646 0
M  V30 1492 H 142.899 -4.39366 4.81457 0
M  V30 1493 N 146.332 -1.57332 0.0918853 0
M  V30 1494 C 147.572 -1.96117 -0.575988 0
M  V30 1495 C 147.936 -0.972499 -1.65549 0
M  V30 1496 O 149.137 -1.24872 -2.38034 0
M  V30 1497 C 147.408 -3.39407 -1.11973 0
M  V30 1498 S 148.967 -4.00185 -1.79992 0
M  V30 1499 H 145.785 -0.685682 -0.188045 0
M  V30 1500 H 148.387 -1.94755 0.170525 0
M  V30 1501 H 147.091 -4.09131 -0.322504 0
M  V30 1502 H 146.622 -3.44358 -1.90214 0
M  V30 1503 H 148.637 -3.88728 -3.08391 0
M  V30 1504 N 147.81 0.181792 -1.56548 0
M  V30 1505 C 149.058 0.89832 -1.81038 0
M  V30 1506 C 149.379 1.83232 -0.667164 0
M  V30 1507 O 148.649 1.93372 0.313673 0
M  V30 1508 H 147.229 0.33471 -0.667816 0
M  V30 1509 H 149.891 0.184116 -1.94028 0
M  V30 1510 H 148.987 1.4815 -2.74696 0
M  V30 1511 N 149.288 1.51039 0.449983 0
M  V30 1512 C 150.535 1.63081 1.20045 0
M  V30 1513 C 150.863 0.341024 1.91487 0
M  V30 1514 O 150.118 -0.674276 1.83717 0
M  V30 1515 C 150.417 2.77556 2.25161 0
M  V30 1516 C 150.083 4.17289 1.70823 0
M  V30 1517 C 148.745 4.55305 1.55725 0
M  V30 1518 C 151.097 5.04536 1.3074 0
M  V30 1519 C 148.425 5.78287 0.989999 0
M  V30 1520 C 150.777 6.28085 0.754482 0
M  V30 1521 C 149.441 6.64885 0.590308 0
M  V30 1522 H 148.711 0.596755 0.439277 0
M  V30 1523 H 151.358 1.85037 0.49333 0
M  V30 1524 H 149.663 2.49771 3.01863 0
M  V30 1525 H 151.36 2.84073 2.83026 0
M  V30 1526 H 147.95 3.8731 1.83546 0
M  V30 1527 H 152.134 4.75782 1.41229 0
M  V30 1528 H 147.39 6.05456 0.850451 0
M  V30 1529 H 151.564 6.95038 0.435324 0
M  V30 1530 H 149.191 7.60055 0.14862 0
M  V30 1531 N 150.766 -0.704594 1.40972 0
M  V30 1532 C 152.006 -1.47691 1.41304 0
M  V30 1533 C 152.37 -1.91992 0.0178582 0
M  V30 1534 O 153.571 -2.68599 -0.103996 0
M  V30 1535 C 151.842 -2.66254 2.38419 0
M  V30 1536 S 153.401 -3.55516 2.57204 0
M  V30 1537 H 150.219 -0.504808 0.500689 0
M  V30 1538 H 152.821 -0.822962 1.77335 0
M  V30 1539 H 151.525 -2.31897 3.38603 0
M  V30 1540 H 151.056 -3.3655 2.03711 0
M  V30 1541 H 153.071 -4.61115 1.83268 0
M  V30 1542 N 152.244 -1.26651 -0.937939 0
M  V30 1543 C 153.469 -1.15279 -1.72411 0
M  V30 1544 C 153.894 0.287866 -1.85884 0
M  V30 1545 O 153.252 1.20855 -1.35143 0
M  V30 1546 C 153.3 -1.83028 -3.10698 0
M  V30 1547 O 152.404 -1.12128 -3.96864 0
M  V30 1548 H 151.745 -0.401504 -0.528858 0
M  V30 1549 H 154.275 -1.67531 -1.1745 0
M  V30 1550 H 154.285 -1.89981 -3.6107 0
M  V30 1551 H 152.96 -2.87833 -3.00208 0
M  V30 1552 H 151.537 -1.13173 -3.55312 0
M  V30 1553 N 153.722 1.14298 -1.08507 0
M  V30 1554 C 155.133 1.66926 -0.836227 0
M  V30 1555 C 155.484 1.85576 0.63686 0
M  V30 1556 O 154.609 1.56767 1.49175 0
M  V30 1557 C 155.204 3.03219 -1.51142 0
M  V30 1558 C 153.763 3.52876 -1.30979 0
M  V30 1559 C 152.91 2.2833 -1.57356 0
M  V30 1560 H 155.861 0.983491 -1.24552 0
M  V30 1561 H 155.882 3.68726 -0.939211 0
M  V30 1562 H 155.394 2.89612 -2.58353 0
M  V30 1563 H 153.495 3.71703 -0.258429 0
M  V30 1564 H 153.608 4.33586 -2.03814 0
M  V30 1565 H 151.972 2.34454 -0.995164 0
M  V30 1566 H 152.755 2.17298 -2.65775 0
M  V30 1567 N 155.201 0.870884 1.31352 0
M  V30 1568 C 156.449 0.48132 1.96285 0
M  V30 1569 C 156.77 -0.969813 1.69173 0
M  V30 1570 O 156.04 -1.67998 1.00764 0
M  V30 1571 H 154.62 0.175002 0.726212 0
M  V30 1572 H 157.282 1.11087 1.60143 0
M  V30 1573 H 156.378 0.639825 3.05471 0
M  V30 1574 N 156.679 -1.44442 0.630414 0
M  V30 1575 C 157.926 -2.02052 0.134617 0
M  V30 1576 C 158.254 -1.49576 -1.24327 0
M  V30 1577 O 157.509 -0.669806 -1.83881 0
M  V30 1578 C 157.808 -3.57332 0.0697835 0
M  V30 1579 C 157.474 -4.29058 1.38635 0
M  V30 1580 C 156.136 -4.4837 1.74694 0
M  V30 1581 C 158.488 -4.69872 2.25543 0
M  V30 1582 C 155.816 -5.05756 2.97369 0
M  V30 1583 C 158.168 -5.28616 3.47487 0
M  V30 1584 C 156.832 -5.46147 3.8377 0
M  V30 1585 H 156.102 -0.739361 0.0492598 0
M  V30 1586 H 158.749 -1.73217 0.816586 0
M  V30 1587 H 157.054 -3.85577 -0.695553 0
M  V30 1588 H 158.751 -3.99637 -0.330344 0
M  V30 1589 H 155.341 -4.14357 1.09574 0
M  V30 1590 H 159.525 -4.54666 1.98979 0
M  V30 1591 H 154.781 -5.17515 3.25558 0
M  V30 1592 H 158.955 -5.59192 4.15063 0
M  V30 1593 H 156.582 -5.9038 4.7891 0
M  V30 1594 N 158.157 -0.370918 -1.53173 0
M  V30 1595 C 159.406 0.218249 -2.00516 0
M  V30 1596 C 159.719 1.49429 -1.26215 0
M  V30 1597 O 160.925 2.16239 -1.64174 0
M  V30 1598 C 159.381 0.43948 -3.57207 0
M  V30 1599 C 158.989 -0.822244 -4.4039 0
M  V30 1600 C 160.733 0.986012 -4.1289 0
M  V30 1601 C 158.64 -0.570304 -5.88644 0
M  V30 1602 H 157.57 0.0853333 -0.749156 0
M  V30 1603 H 160.221 -0.490483 -1.76823 0
M  V30 1604 H 158.603 1.20961 -3.77074 0
M  V30 1605 H 159.777 -1.59557 -4.32294 0
M  V30 1606 H 158.092 -1.29238 -3.95836 0
M  V30 1607 H 160.689 1.18991 -5.21292 0
M  V30 1608 H 161.032 1.94972 -3.6782 0
M  V30 1609 H 161.565 0.27592 -3.96842 0
M  V30 1610 H 158.304 -1.50449 -6.38001 0
M  V30 1611 H 157.824 0.164427 -5.99575 0
M  V30 1612 H 159.503 -0.19784 -6.46697 0
M  V30 1613 N 159.635 1.57281 -0.100228 0
M  V30 1614 C 160.881 1.94826 0.563101 0
M  V30 1615 C 161.214 0.982475 1.67514 0
M  V30 1616 O 160.489 0.0164069 1.94493 0
M  V30 1617 C 160.772 3.42453 1.11346 0
M  V30 1618 C 160.625 4.498 0.00612081 0
M  V30 1619 C 161.944 3.91506 2.01024 0
M  V30 1620 H 159.063 0.708428 0.203221 0
M  V30 1621 H 161.705 1.8922 -0.171979 0
M  V30 1622 H 159.855 3.47361 1.7399 0
M  V30 1623 H 161.527 4.57 -0.628357 0
M  V30 1624 H 159.77 4.28756 -0.659581 0
M  V30 1625 H 160.441 5.50306 0.432109 0
M  V30 1626 H 162.917 3.88784 1.48278 0
M  V30 1627 H 161.793 4.95358 2.36457 0
M  V30 1628 H 162.054 3.31099 2.92961 0
M  V30 1629 N 161.113 -0.173488 1.56642 0
M  V30 1630 C 162.338 -0.910149 1.86363 0
M  V30 1631 C 162.763 -1.75132 0.686318 0
M  V30 1632 O 162.121 -1.77595 -0.364643 0
M  V30 1633 C 162.169 -1.76447 3.14482 0
M  V30 1634 O 161.273 -2.86584 2.96553 0
M  V30 1635 H 160.614 -0.255086 0.613047 0
M  V30 1636 H 163.144 -0.172283 2.03873 0
M  V30 1637 H 163.154 -2.16483 3.45831 0
M  V30 1638 H 161.829 -1.14658 3.99783 0
M  V30 1639 H 160.406 -2.50146 2.76553 0
M  V30 1640 N 162.591 -1.51276 -0.441967 0
M  V30 1641 C 163.554 -1.7167 -1.51862 0
M  V30 1642 C 164.554 -0.586793 -1.49711 0
M  V30 1643 O 165.744 -0.854276 -1.51815 0
M  V30 1644 C 162.876 -1.76889 -2.91416 0
M  V30 1645 H 164.069 -2.67754 -1.35084 0
M  V30 1646 H 161.622 -1.41196 -0.670333 0
M  V30 1647 H 162.357 -0.826026 -3.13604 0
M  V30 1648 H 162.142 -2.59001 -2.94382 0
M  V30 1649 H 163.632 -1.94522 -3.69528 0
M  V30 1650 N 164.069 0.697108 -1.41344 0
M  V30 1651 C 165.016 1.81106 -1.43071 0
M  V30 1652 C 165.986 1.63632 -0.285275 0
M  V30 1653 O 167.171 1.84504 -0.486091 0
M  V30 1654 C 164.311 3.18975 -1.31715 0
M  V30 1655 C 163.424 3.47892 -2.56115 0
M  V30 1656 C 162.559 4.75367 -2.37064 0
M  V30 1657 C 161.598 4.97247 -3.56948 0
M  V30 1658 N 160.735 6.15947 -3.36977 0
M  V30 1659 H 165.575 1.78965 -2.38276 0
M  V30 1660 H 163.112 0.873975 -1.18322 0
M  V30 1661 H 165.07 3.98615 -1.23133 0
M  V30 1662 H 163.7 3.20297 -0.401183 0
M  V30 1663 H 162.752 2.62669 -2.75153 0
M  V30 1664 H 164.064 3.59962 -3.45295 0
M  V30 1665 H 163.218 5.63059 -2.25941 0
M  V30 1666 H 161.957 4.65541 -1.45338 0
M  V30 1667 H 160.962 4.08004 -3.68527 0
M  V30 1668 H 162.187 5.08934 -4.49626 0
M  V30 1669 H 160.133 6.07336 -2.47949 0
M  V30 1670 H 160.05 6.28777 -4.19732 0
M  V30 1671 H 161.318 7.06377 -3.29623 0
M  V30 1672 N 165.547 1.27147 0.931209 0
M  V30 1673 C 166.795 1.13055 1.6752 0
M  V30 1674 C 167.116 -0.324791 1.92276 0
M  V30 1675 O 166.386 -1.22775 1.52654 0
M  V30 1676 H 164.966 0.415391 0.620854 0
M  V30 1677 H 167.628 1.59623 1.11833 0
M  V30 1678 H 166.724 1.65694 2.64485 0
M  V30 1679 N 167.025 -1.13721 1.09112 0
M  V30 1680 C 167.955 -2.21148 0.749385 0
M  V30 1681 C 168.936 -1.6792 -0.271475 0
M  V30 1682 O 170.121 -1.93693 -0.140251 0
M  V30 1683 C 167.251 -3.46905 0.165659 0
M  V30 1684 C 166.205 -4.13203 1.11567 0
M  V30 1685 C 165.531 -5.33248 0.393809 0
M  V30 1686 C 166.831 -4.60912 2.45678 0
M  V30 1687 H 168.525 -2.4999 1.64758 0
M  V30 1688 H 166.071 -1.20156 0.793626 0
M  V30 1689 H 168.024 -4.21313 -0.085466 0
M  V30 1690 H 166.748 -3.17449 -0.767714 0
M  V30 1691 H 165.407 -3.40758 1.35202 0
M  V30 1692 H 165.055 -5.00054 -0.543599 0
M  V30 1693 H 164.755 -5.78552 1.02721 0
M  V30 1694 H 166.279 -6.10413 0.150908 0
M  V30 1695 H 167.693 -5.26759 2.26269 0
M  V30 1696 H 166.09 -5.16944 3.04776 0
M  V30 1697 H 167.16 -3.75603 3.06677 0
M  V30 1698 N 168.503 -0.877838 -1.30888 0
M  V30 1699 C 169.433 -0.35534 -2.3078 0
M  V30 1700 C 170.414 0.557994 -1.60687 0
M  V30 1701 O 171.599 0.473355 -1.88343 0
M  V30 1702 C 168.729 0.437221 -3.44537 0
M  V30 1703 C 167.683 -0.383715 -4.26276 0
M  V30 1704 C 167.009 0.535014 -5.32017 0
M  V30 1705 C 168.309 -1.62201 -4.96476 0
M  V30 1706 H 170.003 -1.19007 -2.74732 0
M  V30 1707 H 167.549 -0.573698 -1.32078 0
M  V30 1708 H 169.502 0.813334 -4.13477 0
M  V30 1709 H 168.226 1.30553 -2.99372 0
M  V30 1710 H 166.885 -0.741874 -3.59015 0
M  V30 1711 H 166.533 1.40083 -4.831 0
M  V30 1712 H 166.233 -0.0104211 -5.87599 0
M  V30 1713 H 167.757 0.907799 -6.03814 0
M  V30 1714 H 169.171 -1.31689 -5.5797 0
M  V30 1715 H 167.568 -2.10711 -5.61891 0
M  V30 1716 H 168.638 -2.37044 -4.23011 0
M  V30 1717 N 169.982 1.44106 -0.638065 0
M  V30 1718 C 171.259 1.95453 -0.0759321 0
M  V30 1719 C 171.639 1.57984 1.40015 0
M  V30 1720 O 170.987 0.857361 2.11806 0
M  V30 1721 C 171.197 3.47655 -0.306132 0
M  V30 1722 C 172.545 4.24114 -0.203008 0
M  V30 1723 O 173.569 3.55405 -0.237871 0
M  V30 1724 O 172.428 5.46381 -0.113827 0
M  V30 1725 H 169.522 0.826797 0.0183332 0
M  V30 1726 H 172.068 1.54122 -0.710251 0
M  V30 1727 H 170.84 3.68 -1.3301 0
M  V30 1728 H 170.463 3.95949 0.361991 0
M  V30 1729 N 171.46 0.379036 1.52974 0
M  V30 1730 C 172.688 -0.20679 2.05864 0
M  V30 1731 C 173.103 -1.41356 1.25155 0
M  V30 1732 O 172.46 -1.8009 0.295588 0
M  V30 1733 C 172.511 -0.587045 3.56702 0
M  V30 1734 O 172.232 0.571776 4.34353 0
M  V30 1735 C 173.733 -1.22983 4.25899 0
M  V30 1736 H 170.953 -0.0336123 0.670158 0
M  V30 1737 H 173.497 0.541298 1.97206 0
M  V30 1738 H 171.652 -1.28504 3.65466 0
M  V30 1739 H 172.066 0.261544 5.23847 0
M  V30 1740 H 173.54 -1.44635 5.32715 0
M  V30 1741 H 174.017 -2.19416 3.80465 0
M  V30 1742 H 174.623 -0.572892 4.21424 0
M  V30 1743 N 172.938 -1.57226 0.108567 0
M  V30 1744 C 173.886 -2.16002 -0.862885 0
M  V30 1745 C 174.88 -1.10644 -1.28274 0
M  V30 1746 O 176.086 -1.28966 -1.2557 0
M  V30 1747 H 172.461 -0.691148 -0.296342 0
M  V30 1748 H 174.432 -2.96427 -0.342575 0
M  V30 1749 C 173.181 -2.76576 -2.10716 0
M  V30 1750 H 172.504 -3.5734 -1.793 0
M  V30 1751 H 173.944 -3.21253 -2.76717 0
M  V30 1752 C 172.403 -1.73137 -2.89007 0
M  V30 1753 O 172.933 -1.17842 -3.84026 0
M  V30 1754 N 171.139 -1.43317 -2.52801 0
M  V30 1755 H 170.686 -1.88473 -1.75601 0
M  V30 1756 H 170.644 -0.743485 -3.05483 0
M  V30 1757 N 174.416 0.165178 -1.56732 0
M  V30 1758 C 175.379 1.18822 -1.95995 0
M  V30 1759 C 176.379 1.3685 -0.84431 0
M  V30 1760 O 177.569 1.34152 -1.11126 0
M  V30 1761 C 174.701 2.5521 -2.26011 0
M  V30 1762 H 175.894 0.851825 -2.87548 0
M  V30 1763 H 173.447 0.407857 -1.50885 0
M  V30 1764 H 174.182 2.93852 -1.37191 0
M  V30 1765 H 173.967 2.43489 -3.07336 0
M  V30 1766 H 175.457 3.28927 -2.57288 0
M  V30 1767 N 175.894 1.51508 0.433938 0
M  V30 1768 C 177.171 1.54888 1.19453 0
M  V30 1769 C 177.551 0.315154 2.08734 0
M  V30 1770 O 176.899 -0.699558 2.17528 0
M  V30 1771 C 177.109 2.86467 1.99342 0
M  V30 1772 C 178.457 3.38545 2.56267 0
M  V30 1773 O 179.481 2.88041 2.0955 0
M  V30 1774 O 178.34 4.26675 3.41483 0
M  V30 1775 H 175.434 0.622863 0.544032 0
M  V30 1776 H 177.98 1.63823 0.442732 0
M  V30 1777 H 176.752 3.67718 1.33788 0
M  V30 1778 H 176.375 2.8071 2.8158 0
M  V30 1779 N 177.372 -0.689602 1.41712 0
M  V30 1780 C 178.783 -1.26973 1.36875 0
M  V30 1781 C 179.134 -1.96124 0.054748 0
M  V30 1782 O 178.259 -1.99141 -0.84687 0
M  V30 1783 C 178.854 -2.30912 2.47922 0
M  V30 1784 C 177.413 -2.84486 2.46464 0
M  V30 1785 C 176.56 -1.58603 2.27465 0
M  V30 1786 H 179.511 -0.48396 1.51141 0
M  V30 1787 H 179.532 -3.12331 2.17323 0
M  V30 1788 H 179.044 -1.80554 3.43543 0
M  V30 1789 H 177.145 -3.39005 1.54617 0
M  V30 1790 H 177.258 -3.34511 3.42986 0
M  V30 1791 H 175.622 -1.84632 1.75451 0
M  V30 1792 H 176.405 -1.10233 3.25121 0
M  V30 1793 N 178.85 -1.27639 -0.924453 0
M  V30 1794 C 180.075 -1.17101 -1.71179 0
M  V30 1795 C 180.5 0.268134 -1.86179 0
M  V30 1796 O 179.858 1.19415 -1.36418 0
M  V30 1797 C 179.906 -1.86313 -3.08739 0
M  V30 1798 O 179.01 -1.16331 -3.95652 0
M  V30 1799 H 178.351 -0.407091 -0.524569 0
M  V30 1800 H 180.881 -1.68767 -1.15666 0
M  V30 1801 H 180.891 -1.938 -3.59034 0
M  V30 1802 H 179.566 -2.91001 -2.97138 0
M  V30 1803 H 178.143 -1.16935 -3.54091 0
M  V30 1804 N 180.328 1.1314 -1.09713 0
M  V30 1805 C 181.744 1.36477 -0.827423 0
M  V30 1806 C 181.944 1.93654 0.556817 0
M  V30 1807 O 181 2.15791 1.31112 0
M  V30 1808 C 182.313 2.31334 -1.92106 0
M  V30 1809 C 183.861 2.44943 -1.94864 0
M  V30 1810 C 184.336 3.4311 -3.0338 0
M  V30 1811 N 185.827 3.50662 -3.02639 0
M  V30 1812 C 186.562 4.2651 -3.83246 0
M  V30 1813 N 186.058 5.05485 -4.73768 0
M  V30 1814 N 187.851 4.2184 -3.71493 0
M  V30 1815 H 180.002 0.743807 -1.9895 0
M  V30 1816 H 182.265 0.389823 -0.864143 0
M  V30 1817 H 181.971 1.96483 -2.91698 0
M  V30 1818 H 181.845 3.31381 -1.80184 0
M  V30 1819 H 184.232 2.79079 -0.959099 0
M  V30 1820 H 184.313 1.4481 -2.10864 0
M  V30 1821 H 183.957 3.09704 -4.02549 0
M  V30 1822 H 183.887 4.43055 -2.84622 0
M  V30 1823 H 186.378 2.94315 -2.37039 0
M  V30 1824 H 186.691 5.60675 -5.3185 0
M  V30 1825 H 185.036 5.04708 -4.77802 0
M  V30 1826 H 188.227 3.5922 -3.00131 0
M  V30 1827 H 188.4 4.80697 -4.3455 0
M  V30 1828 N 181.806 0.884767 1.30421 0
M  V30 1829 C 182.716 0.355398 2.31892 0
M  V30 1830 C 183.732 -0.542261 1.65335 0
M  V30 1831 O 184.908 -0.435432 1.96637 0
M  V30 1832 C 181.973 -0.421661 3.44126 0
M  V30 1833 C 181.034 0.505727 4.26311 0
M  V30 1834 C 180.267 -0.234343 5.33185 0
M  V30 1835 O 180.49 -1.46045 5.51386 0
M  V30 1836 O 179.424 0.415443 6.00465 0
M  V30 1837 H 183.25 1.19685 2.79122 0
M  V30 1838 H 180.835 0.648596 1.34587 0
M  V30 1839 H 182.717 -0.861641 4.12497 0
M  V30 1840 H 181.392 -1.23942 2.99032 0
M  V30 1841 H 180.299 0.994513 3.60639 0
M  V30 1842 H 181.632 1.28948 4.75009 0
M  V30 1843 N 183.284 -1.43765 0.645699 0
M  V30 1844 C 184.561 -1.9541 0.0862963 0
M  V30 1845 C 184.941 -1.58725 -1.39175 0
M  V30 1846 O 184.289 -0.868581 -2.11348 0
M  V30 1847 C 184.499 -3.47488 0.324565 0
M  V30 1848 C 185.847 -4.24001 0.225497 0
M  V30 1849 O 186.871 -3.55274 0.256715 0
M  V30 1850 O 185.73 -5.46313 0.142801 0
M  V30 1851 H 182.824 -0.826882 -0.0139483 0
M  V30 1852 H 185.37 -1.53743 0.718415 0
M  V30 1853 H 184.142 -3.67289 1.3496 0
M  V30 1854 H 183.765 -3.96135 -0.340987 0
M  V30 1855 N 184.763 -0.387143 -1.52771 0
M  V30 1856 C 186.009 0.196025 -2.0185 0
M  V30 1857 C 186.342 1.46641 -1.27319 0
M  V30 1858 O 185.617 1.90889 -0.373032 0
M  V30 1859 C 185.9 0.466136 -3.5707 0
M  V30 1860 C 185.753 -0.819385 -4.42274 0
M  V30 1861 C 187.072 1.25768 -4.21747 0
M  V30 1862 H 184.191 0.0697708 -0.73369 0
M  V30 1863 H 186.833 -0.516286 -1.82851 0
M  V30 1864 H 184.983 1.07293 -3.7339 0
M  V30 1865 H 186.655 -1.4563 -4.37709 0
M  V30 1866 H 184.898 -1.43517 -4.09372 0
M  V30 1867 H 185.569 -0.585065 -5.48891 0
M  V30 1868 H 188.045 0.744167 -4.09391 0
M  V30 1869 H 186.921 1.41541 -5.30337 0
M  V30 1870 H 187.182 2.27228 -3.79236 0
M  V30 1871 N 186.241 1.57166 -0.116904 0
M  V30 1872 C 187.657 1.5779 0.239693 0
M  V30 1873 C 187.857 1.1295 1.66867 0
M  V30 1874 O 186.913 0.81592 2.38954 0
M  V30 1875 C 188.226 3.00699 0.00828202 0
M  V30 1876 C 189.774 3.12912 0.0743438 0
M  V30 1877 C 190.249 4.57817 -0.129348 0
M  V30 1878 N 191.74 4.63139 -0.075247 0
M  V30 1879 C 192.475 5.73023 -0.207788 0
M  V30 1880 N 191.971 6.91665 -0.396382 0
M  V30 1881 N 193.764 5.61906 -0.14751 0
M  V30 1882 H 185.915 1.84615 -1.05029 0
M  V30 1883 H 188.178 0.85311 -0.41341 0
M  V30 1884 H 187.884 3.37784 -0.979531 0
M  V30 1885 H 187.758 3.69848 0.741077 0
M  V30 1886 H 190.145 2.75686 1.05268 0
M  V30 1887 H 190.226 2.4631 -0.690297 0
M  V30 1888 H 189.87 4.95742 -1.10465 0
M  V30 1889 H 189.8 5.22507 0.655253 0
M  V30 1890 H 192.291 3.7784 0.0670898 0
M  V30 1891 H 192.604 7.71255 -0.488437 0
M  V30 1892 H 190.949 6.93654 -0.432329 0
M  V30 1893 H 194.14 4.681 -0.00115036 0
M  V30 1894 H 194.313 6.47501 -0.254247 0
M  V30 1895 N 187.719 -0.156864 1.56817 0
M  V30 1896 C 188.996 -0.899244 1.73704 0
M  V30 1897 C 189.376 -1.99771 0.682254 0
M  V30 1898 O 188.724 -2.26515 -0.300522 0
M  V30 1899 C 188.934 -1.45075 3.17418 0
M  V30 1900 C 190.282 -1.91802 3.7881 0
M  V30 1901 O 191.306 -1.54838 3.20786 0
M  V30 1902 O 190.165 -2.5994 4.80722 0
M  V30 1903 H 187.259 -0.424267 0.709878 0
M  V30 1904 H 189.805 -0.143561 1.69092 0
M  V30 1905 H 188.577 -0.660846 3.85679 0
M  V30 1906 H 188.2 -2.27021 3.26416 0
M  V30 1907 N 189.197 -1.51736 -0.425897 0
M  V30 1908 C 190.443 -1.66174 -1.17294 0
M  V30 1909 C 190.798 -0.37876 -1.88635 0
M  V30 1910 O 190.091 0.626021 -1.81084 0
M  V30 1911 C 190.285 -2.81103 -2.20717 0
M  V30 1912 C 190.114 -4.20453 -1.59529 0
M  V30 1913 C 188.884 -4.86225 -1.37525 0
M  V30 1914 C 191.082 -5.03146 -1.06528 0
M  V30 1915 N 189.064 -6.09657 -0.720537 0
M  V30 1916 C 190.435 -6.17674 -0.536506 0
M  V30 1917 C 192.49 -4.88594 -0.958127 0
M  V30 1918 C 191.193 -7.19245 0.0888917 0
M  V30 1919 C 193.219 -5.90383 -0.346608 0
M  V30 1920 C 192.581 -7.04191 0.171564 0
M  V30 1921 H 188.68 -0.661871 -0.416475 0
M  V30 1922 H 191.264 -1.88997 -0.467801 0
M  V30 1923 H 189.435 -2.59924 -2.88607 0
M  V30 1924 H 191.167 -2.84662 -2.87663 0
M  V30 1925 H 187.922 -4.44293 -1.64015 0
M  V30 1926 H 188.346 -6.75756 -0.410292 0
M  V30 1927 H 192.988 -4.0085 -1.34459 0
M  V30 1928 H 190.706 -8.06628 0.48746 0
M  V30 1929 H 194.292 -5.81194 -0.265451 0
M  V30 1930 H 193.172 -7.81606 0.637309 0
M  V30 1931 N 190.675 0.682077 -1.42076 0
M  V30 1932 C 191.922 1.44215 -1.42156 0
M  V30 1933 C 192.25 1.94468 -0.0354186 0
M  V30 1934 O 191.505 1.70816 0.955002 0
M  V30 1935 C 191.804 2.66036 -2.38662 0
M  V30 1936 C 191.47 2.34366 -3.85206 0
M  V30 1937 C 190.132 2.25439 -4.25124 0
M  V30 1938 C 192.484 2.08513 -4.77673 0
M  V30 1939 C 189.812 1.88775 -5.55501 0
M  V30 1940 C 192.164 1.73354 -6.08384 0
M  V30 1941 C 190.828 1.62933 -6.47309 0
M  V30 1942 H 190.098 0.527718 -0.520187 0
M  V30 1943 H 192.745 0.778387 -1.74967 0
M  V30 1944 H 191.05 3.3741 -1.99152 0
M  V30 1945 H 192.747 3.24205 -2.35991 0
M  V30 1946 H 189.337 2.42213 -3.53597 0
M  V30 1947 H 193.521 2.14346 -4.47626 0
M  V30 1948 H 188.777 1.7927 -5.84527 0
M  V30 1949 H 192.951 1.52373 -6.79526 0
M  V30 1950 H 190.578 1.34292 -7.48244 0
M  V30 1951 N 192.153 1.28127 0.917671 0
M  V30 1952 C 193.085 1.07517 2.02417 0
M  V30 1953 C 194.098 0.0281099 1.62776 0
M  V30 1954 O 195.287 0.270748 1.76435 0
M  V30 1955 C 192.387 0.610957 3.33347 0
M  V30 1956 C 191.56 1.73255 4.01624 0
M  V30 1957 C 190.619 1.26238 5.10833 0
M  V30 1958 O 189.645 1.96389 5.34247 0
M  V30 1959 N 190.847 0.123448 5.80369 0
M  V30 1960 H 193.612 2.02806 2.20658 0
M  V30 1961 H 191.173 1.19827 1.08871 0
M  V30 1962 H 193.165 0.280101 4.0373 0
M  V30 1963 H 191.735 -0.24898 3.11607 0
M  V30 1964 H 190.955 2.23319 3.24842 0
M  V30 1965 H 192.243 2.48503 4.43986 0
M  V30 1966 H 191.641 -0.461847 5.63812 0
M  V30 1967 H 190.198 -0.148158 6.51632 0
M  V30 1968 N 193.631 -1.12557 1.10312 0
M  V30 1969 C 194.578 -2.18247 0.750781 0
M  V30 1970 C 195.548 -1.63853 -0.272293 0
M  V30 1971 O 196.733 -1.90195 -0.151862 0
M  V30 1972 C 193.873 -3.44591 0.187379 0
M  V30 1973 C 192.986 -4.13046 1.2656 0
M  V30 1974 C 192.121 -5.27034 0.663978 0
M  V30 1975 C 191.16 -5.87353 1.72287 0
M  V30 1976 N 190.297 -6.92757 1.1416 0
M  V30 1977 H 195.137 -2.47732 1.65628 0
M  V30 1978 H 192.674 -1.21629 0.827337 0
M  V30 1979 H 194.632 -4.16904 -0.157148 0
M  V30 1980 H 193.262 -3.15527 -0.681355 0
M  V30 1981 H 192.314 -3.38924 1.72727 0
M  V30 1982 H 193.626 -4.53947 2.06721 0
M  V30 1983 H 192.78 -6.06104 0.268824 0
M  V30 1984 H 191.519 -4.87407 -0.169082 0
M  V30 1985 H 190.524 -5.06971 2.12746 0
M  V30 1986 H 191.749 -6.29051 2.55875 0
M  V30 1987 H 189.695 -6.5517 0.329984 0
M  V30 1988 H 189.612 -7.3225 1.88007 0
M  V30 1989 H 190.88 -7.75658 0.772956 0
M  V30 1990 N 195.109 -0.891671 -1.2995 0
M  V30 1991 C 196.059 -0.334811 -2.25528 0
M  V30 1992 C 197.043 0.540553 -1.51548 0
M  V30 1993 O 198.235 0.383882 -1.72787 0
M  V30 1994 C 195.364 0.44374 -3.4042 0
M  V30 1995 C 194.45 -0.44609 -4.21747 0
M  V30 1996 N 194.841 -1.54963 -4.81477 0
M  V30 1997 C 193.139 -0.242415 -4.45341 0
M  V30 1998 C 193.84 -2.10015 -5.42465 0
M  V30 1999 N 192.816 -1.39423 -5.25416 0
M  V30 2000 H 196.618 -1.17792 -2.69262 0
M  V30 2001 H 194.132 -0.741822 -1.44467 0
M  V30 2002 H 196.129 0.859362 -4.07947 0
M  V30 2003 H 194.789 1.28421 -2.98225 0
M  V30 2004 H 195.8 -1.93244 -4.80497 0
M  V30 2005 H 192.477 0.560342 -4.13723 0
M  V30 2006 H 193.867 -3.02724 -5.9984 0
M  V30 2007 N 196.587 1.43421 -0.653314 0
M  V30 2008 C 198.003 1.56341 -0.320886 0
M  V30 2009 C 198.203 1.63696 1.17499 0
M  V30 2010 O 197.259 1.59208 1.95982 0
M  V30 2011 C 198.572 2.82424 -1.03233 0
M  V30 2012 C 200.12 2.96168 -1.01259 0
M  V30 2013 C 200.595 4.25084 -1.70492 0
M  V30 2014 N 202.086 4.31948 -1.67257 0
M  V30 2015 C 202.821 5.30466 -2.17701 0
M  V30 2016 N 202.317 6.35261 -2.76434 0
M  V30 2017 N 204.11 5.2212 -2.082 0
M  V30 2018 H 196.261 1.3689 -1.62403 0
M  V30 2019 H 198.524 0.657455 -0.682977 0
M  V30 2020 H 198.23 2.83053 -2.08744 0
M  V30 2021 H 198.104 3.72653 -0.583948 0
M  V30 2022 H 200.491 2.9508 0.0341235 0
M  V30 2023 H 200.572 2.07229 -1.49966 0
M  V30 2024 H 200.216 4.26932 -2.7512 0
M  V30 2025 H 200.146 5.1292 -1.19251 0
M  V30 2026 H 202.637 3.56838 -1.24398 0
M  V30 2027 H 202.95 7.06754 -3.12601 0
M  V30 2028 H 201.295 6.35884 -2.80495 0
M  V30 2029 H 204.486 4.39166 -1.62021 0
M  V30 2030 H 204.659 5.98739 -2.47822 0
M  V30 2031 N 198.065 0.39524 1.52563 0
M  V30 2032 C 199.013 -0.451859 2.28169 0
M  V30 2033 C 200.007 -1.05792 1.32304 0
M  V30 2034 O 201.213 -0.997718 1.49818 0
M  V30 2035 H 197.588 -0.164481 0.733792 0
M  V30 2036 H 199.559 0.207199 2.9768 0
M  V30 2037 C 198.308 -1.56385 3.10546 0
M  V30 2038 H 197.631 -1.10682 3.84174 0
M  V30 2039 H 199.071 -2.13067 3.66577 0
M  V30 2040 C 197.53 -2.52328 2.23231 0
M  V30 2041 O 198.06 -3.5588 1.86312 0
M  V30 2042 N 196.266 -2.22209 1.87274 0
M  V30 2043 H 195.813 -1.38033 2.17496 0
M  V30 2044 H 195.771 -2.86652 1.29143 0
M  V30 2045 N 199.544 -1.57102 0.125237 0
M  V30 2046 C 200.507 -2.14471 -0.80838 0
M  V30 2047 C 201.507 -1.0811 -1.19033 0
M  V30 2048 O 202.697 -1.33856 -1.11482 0
M  V30 2049 C 199.829 -2.69005 -2.09402 0
M  V30 2050 H 201.022 -2.98297 -0.309696 0
M  V30 2051 H 198.575 -1.55807 -0.124051 0
M  V30 2052 H 199.31 -1.88785 -2.63687 0
M  V30 2053 H 199.095 -3.46799 -1.82957 0
M  V30 2054 H 200.585 -3.13278 -2.76128 0
M  V30 2055 N 201.022 0.148545 -1.56898 0
M  V30 2056 C 202.262 0.86765 -1.85071 0
M  V30 2057 C 202.626 1.78417 -0.709317 0
M  V30 2058 O 203.827 2.54261 -0.872049 0
M  V30 2059 C 202.098 1.62306 -3.1842 0
M  V30 2060 S 203.657 2.3878 -3.68143 0
M  V30 2061 H 200.475 0.290174 -0.649092 0
M  V30 2062 H 203.077 0.127755 -1.95082 0
M  V30 2063 H 201.781 0.941192 -3.99462 0
M  V30 2064 H 201.312 2.4039 -3.1141 0
M  V30 2065 H 203.327 3.63942 -3.37285 0
M  V30 2066 N 202.5 1.5196 0.417844 0
M  V30 2067 C 203.916 1.40569 0.755816 0
M  V30 2068 C 204.116 0.503316 1.95113 0
M  V30 2069 O 203.172 -0.0341925 2.52477 0
M  V30 2070 C 204.485 2.82947 1.01791 0
M  V30 2071 C 206.033 2.92231 1.12116 0
M  V30 2072 C 206.508 4.35559 1.41608 0
M  V30 2073 N 207.999 4.38753 1.48491 0
M  V30 2074 C 208.734 5.46705 1.7292 0
M  V30 2075 N 208.23 6.64788 1.95011 0
M  V30 2076 N 210.023 5.34209 1.74863 0
M  V30 2077 H 202.174 2.09168 -0.369098 0
M  V30 2078 H 204.437 0.942409 -0.102809 0
M  V30 2079 H 204.143 3.5106 0.212081 0
M  V30 2080 H 204.017 3.23462 1.94042 0
M  V30 2081 H 206.404 2.24304 1.9176 0
M  V30 2082 H 206.485 2.55185 0.177225 0
M  V30 2083 H 206.129 5.04042 0.624848 0
M  V30 2084 H 206.059 4.70133 2.37239 0
M  V30 2085 H 208.55 3.5363 1.33244 0
M  V30 2086 H 208.863 7.42845 2.13076 0
M  V30 2087 H 207.208 6.67869 1.92293 0
M  V30 2088 H 210.399 4.40937 1.57137 0
M  V30 2089 H 210.572 6.18415 1.93563 0
M  V30 2090 N 203.978 -0.674533 1.42435 0
M  V30 2091 C 205.218 -1.4466 1.44405 0
M  V30 2092 C 205.582 -1.91911 0.0585784 0
M  V30 2093 O 206.783 -2.68759 -0.0469991 0
M  V30 2094 C 205.054 -2.61136 2.44013 0
M  V30 2095 S 206.613 -3.49981 2.64687 0
M  V30 2096 H 203.431 -0.494074 0.511284 0
M  V30 2097 H 206.033 -0.785162 1.7904 0
M  V30 2098 H 204.737 -2.24662 3.43446 0
M  V30 2099 H 204.268 -3.32153 2.10803 0
M  V30 2100 H 206.283 -4.57124 1.93007 0
M  V30 2101 N 205.456 -1.28612 -0.910864 0
M  V30 2102 C 206.684 -1.18792 -1.69399 0
M  V30 2103 C 207.099 0.253039 -1.87097 0
M  V30 2104 O 206.456 1.17071 -1.40003 0
M  V30 2105 C 206.507 -1.88511 -3.08457 0
M  V30 2106 O 206.228 -3.26979 -2.91576 0
M  V30 2107 C 207.729 -1.85029 -4.02839 0
M  V30 2108 H 204.949 -0.412233 -0.529438 0
M  V30 2109 H 207.493 -1.69788 -1.13984 0
M  V30 2110 H 205.648 -1.41379 -3.60681 0
M  V30 2111 H 206.062 -3.61936 -3.79608 0
M  V30 2112 H 207.536 -2.38395 -4.97867 0
M  V30 2113 H 208.013 -0.823303 -4.31414 0
M  V30 2114 H 208.619 -2.31853 -3.56545 0
M  V30 2115 N 206.934 1.1197 -1.10907 0
M  V30 2116 C 208.182 1.83225 -0.852819 0
M  V30 2117 C 208.503 1.84769 0.623341 0
M  V30 2118 O 207.773 1.3143 1.45269 0
M  V30 2119 H 206.353 0.67849 -0.312507 0
M  V30 2120 H 209.015 1.3556 -1.40033 0
M  V30 2121 H 208.111 2.87265 -1.22005 0
M  V30 2122 N 208.412 0.89855 1.29475 0
M  V30 2123 C 209.642 0.538479 1.99459 0
M  V30 2124 C 210.05 -0.880922 1.67441 0
M  V30 2125 O 209.393 -1.59283 0.915127 0
M  V30 2126 C 209.455 0.649564 3.53583 0
M  V30 2127 C 209.119 2.03573 4.09154 0
M  V30 2128 C 210.116 3.00675 4.24135 0
M  V30 2129 C 207.801 2.3448 4.44212 0
M  V30 2130 C 209.795 4.26809 4.73405 0
M  V30 2131 C 207.482 3.60857 4.93179 0
M  V30 2132 C 208.48 4.56836 5.0773 0
M  V30 2133 O 208.168 5.80969 5.55635 0
M  V30 2134 H 207.9 0.205372 0.644048 0
M  V30 2135 H 210.454 1.20958 1.66007 0
M  V30 2136 H 208.684 -0.0785592 3.8662 0
M  V30 2137 H 210.373 0.29881 4.04799 0
M  V30 2138 H 211.139 2.78112 3.97339 0
M  V30 2139 H 207.018 1.60534 4.32145 0
M  V30 2140 H 210.562 5.0173 4.84678 0
M  V30 2141 H 206.459 3.83251 5.19412 0
M  V30 2142 H 207.227 5.83542 5.73952 0
M  V30 2143 N 209.89 -1.43072 0.660911 0
M  V30 2144 C 210.837 -2.30785 -0.0259884 0
M  V30 2145 C 211.807 -1.45184 -0.806888 0
M  V30 2146 O 212.992 -1.74041 -0.781943 0
M  V30 2147 C 210.132 -3.30861 -0.981067 0
M  V30 2148 C 209.245 -4.31558 -0.195458 0
M  V30 2149 C 208.38 -5.18712 -1.14503 0
M  V30 2150 C 207.419 -6.11097 -0.350299 0
M  V30 2151 N 206.556 -6.90849 -1.25186 0
M  V30 2152 H 211.396 -2.88975 0.727846 0
M  V30 2153 H 208.933 -1.42353 0.370682 0
M  V30 2154 H 210.891 -3.87399 -1.54849 0
M  V30 2155 H 209.521 -2.74304 -1.70169 0
M  V30 2156 H 208.573 -3.77252 0.488374 0
M  V30 2157 H 209.885 -4.9701 0.422176 0
M  V30 2158 H 209.039 -5.79914 -1.78284 0
M  V30 2159 H 207.778 -4.53404 -1.79656 0
M  V30 2160 H 206.783 -5.48976 0.300808 0
M  V30 2161 H 208.008 -6.7845 0.296941 0
M  V30 2162 H 205.954 -6.28182 -1.89005 0
M  V30 2163 H 205.871 -7.52854 -0.688971 0
M  V30 2164 H 207.139 -7.5655 -1.87757 0
M  V30 2165 N 211.368 -0.403325 -1.52352 0
M  V30 2166 C 212.779 0.0675782 -1.86578 0
M  V30 2167 C 213.13 1.44941 -1.32236 0
M  V30 2168 O 212.255 2.06112 -0.659307 0
M  V30 2169 C 212.85 0.129404 -3.38553 0
M  V30 2170 C 211.409 0.544629 -3.72439 0
M  V30 2171 C 210.556 -0.284551 -2.75836 0
M  V30 2172 H 213.507 -0.620631 -1.46061 0
M  V30 2173 H 213.528 0.94581 -3.68558 0
M  V30 2174 H 213.04 -0.87645 -3.78074 0
M  V30 2175 H 211.141 1.55734 -3.38493 0
M  V30 2176 H 211.254 0.293046 -4.78203 0
M  V30 2177 H 209.618 0.252258 -2.53448 0
M  V30 2178 H 210.401 -1.28865 -3.18196 0
M  V30 2179 N 212.846 1.57033 -0.133567 0
M  V30 2180 C 213.776 2.1909 0.807567 0
M  V30 2181 C 214.757 1.13517 1.26681 0
M  V30 2182 O 215.942 1.41809 1.32679 0
M  V30 2183 C 213.072 2.80188 2.05212 0
M  V30 2184 C 212.026 3.91471 1.73015 0
M  V30 2185 C 211.352 4.39443 3.04622 0
M  V30 2186 C 212.652 5.12886 0.987168 0
M  V30 2187 H 214.346 2.97988 0.290403 0
M  V30 2188 H 211.892 1.43335 0.138239 0
M  V30 2189 H 213.845 3.22264 2.71521 0
M  V30 2190 H 212.569 1.98601 2.59278 0
M  V30 2191 H 211.228 3.49993 1.0909 0
M  V30 2192 H 210.876 3.54695 3.56651 0
M  V30 2193 H 210.576 5.14495 2.83847 0
M  V30 2194 H 212.1 4.8418 3.72024 0
M  V30 2195 H 213.514 5.51891 1.55208 0
M  V30 2196 H 211.911 5.93615 0.87985 0
M  V30 2197 H 212.981 4.84894 -0.0235286 0
M  V30 2198 N 214.325 -0.140222 1.56975 0
M  V30 2199 C 215.571 -0.852949 1.83991 0
M  V30 2200 C 215.904 -1.80512 0.716187 0
M  V30 2201 O 215.179 -1.92479 -0.279681 0
M  V30 2202 C 215.462 -1.6215 3.21527 0
M  V30 2203 C 215.315 -0.690363 4.4447 0
M  V30 2204 C 216.634 -2.58247 3.56366 0
M  V30 2205 H 213.753 -0.308634 0.669264 0
M  V30 2206 H 216.395 -0.117898 1.89634 0
M  V30 2207 H 214.545 -2.24812 3.16847 0
M  V30 2208 H 216.217 -0.0742264 4.6124 0
M  V30 2209 H 214.46 -0.000396433 4.338 0
M  V30 2210 H 215.131 -1.2643 5.37326 0
M  V30 2211 H 217.607 -2.05701 3.61699 0
M  V30 2212 H 216.483 -3.09067 4.53617 0
M  V30 2213 H 216.744 -3.39923 2.82674 0
M  V30 2214 N 215.803 -1.52179 -0.40978 0
M  V30 2215 C 217.08 -1.56769 -1.16974 0
M  V30 2216 C 217.46 -0.348322 -2.08206 0
M  V30 2217 O 216.808 0.664862 -2.18613 0
M  V30 2218 C 217.018 -2.89603 -1.9476 0
M  V30 2219 C 218.366 -3.42579 -2.50849 0
M  V30 2220 O 219.39 -2.91338 -2.04941 0
M  V30 2221 O 218.249 -4.32054 -3.34652 0
M  V30 2222 H 215.343 -0.631439 -0.534054 0
M  V30 2223 H 217.889 -1.64507 -0.416613 0
M  V30 2224 H 216.661 -3.698 -1.27921 0
M  V30 2225 H 216.284 -2.85155 -2.77079 0
M  V30 2226 N 217.281 0.66697 -1.42791 0
M  V30 2227 C 218.244 1.76211 -1.46568 0
M  V30 2228 C 219.244 1.56896 -0.352196 0
M  V30 2229 O 220.434 1.63044 -0.613364 0
M  V30 2230 C 217.566 3.14935 -1.30494 0
M  V30 2231 H 218.759 1.74247 -2.44086 0
M  V30 2232 H 216.312 0.877342 -1.29354 0
M  V30 2233 H 217.047 3.2252 -0.339301 0
M  V30 2234 H 216.832 3.30359 -2.11199 0
M  V30 2235 H 218.322 3.94821 -1.36038 0
M  V30 2236 N 218.759 1.29093 0.90403 0
M  V30 2237 C 220.005 1.16986 1.65656 0
M  V30 2238 C 220.338 -0.278925 1.92186 0
M  V30 2239 O 219.613 -1.2019 1.5292 0
M  V30 2240 C 219.896 1.97908 3.0084 0
M  V30 2241 C 219.749 3.50903 2.81403 0
M  V30 2242 C 221.068 1.80208 4.01513 0
M  V30 2243 H 218.187 0.426346 0.601164 0
M  V30 2244 H 220.829 1.58518 1.04747 0
M  V30 2245 H 218.979 1.62616 3.52829 0
M  V30 2246 H 220.651 3.96153 2.36348 0
M  V30 2247 H 218.894 3.76045 2.1627 0
M  V30 2248 H 219.565 4.02791 3.77443 0
M  V30 2249 H 222.041 2.11025 3.58619 0
M  V30 2250 H 220.917 2.39184 4.94047 0
M  V30 2251 H 221.178 0.756119 4.35586 0
M  V30 2252 N 220.237 -1.11381 1.11499 0
M  V30 2253 C 221.17 -2.16621 0.71769 0
M  V30 2254 C 222.148 -1.60058 -0.286413 0
M  V30 2255 O 223.332 -1.87613 -0.182689 0
M  V30 2256 C 220.459 -3.38646 0.0607265 0
M  V30 2257 C 219.505 -4.13874 1.03008 0
M  V30 2258 S 220.338 -4.70731 2.55289 0
M  V30 2259 C 221.494 -5.96079 1.90895 0
M  V30 2260 H 221.727 -2.49987 1.60915 0
M  V30 2261 H 219.26 -1.23015 0.933092 0
M  V30 2262 H 221.218 -4.09313 -0.311965 0
M  V30 2263 H 219.879 -3.03537 -0.807702 0
M  V30 2264 H 219.072 -5.01333 0.517853 0
M  V30 2265 H 218.674 -3.4897 1.34522 0
M  V30 2266 H 220.966 -6.65948 1.24577 0
M  V30 2267 H 221.909 -6.51946 2.76354 0
M  V30 2268 H 222.317 -5.47652 1.36885 0
M  V30 2269 N 221.715 -0.905404 -1.28997 0
M  V30 2270 C 222.992 -0.453513 -1.9027 0
M  V30 2271 C 223.372 1.06721 -1.82137 0
M  V30 2272 O 222.72 1.91159 -1.25182 0
M  V30 2273 C 222.93 -0.974494 -3.35119 0
M  V30 2274 C 224.278 -1.0216 -4.12127 0
M  V30 2275 O 225.302 -0.922557 -3.44046 0
M  V30 2276 O 224.161 -1.17121 -5.33802 0
M  V30 2277 H 221.255 -0.142347 -0.814657 0
M  V30 2278 H 223.801 -0.995642 -1.37423 0
M  V30 2279 H 222.573 -2.01848 -3.35221 0
M  V30 2280 H 222.196 -0.412706 -3.95452 0
M  V30 2281 N 223.193 1.4272 -0.668489 0
M  V30 2282 C 224.156 2.292 0.00448567 0
M  V30 2283 C 225.156 1.43001 0.735339 0
M  V30 2284 O 226.346 1.64461 0.57429 0
M  V30 2285 C 223.478 3.25375 1.01705 0
M  V30 2286 H 224.671 2.90199 -0.756608 0
M  V30 2287 H 222.224 1.50254 -0.430506 0
M  V30 2288 H 222.959 2.69301 1.80686 0
M  V30 2289 H 222.744 3.88944 0.496463 0
M  V30 2290 H 224.234 3.90245 1.48655 0
M  V30 2291 N 224.671 0.411399 1.52136 0
M  V30 2292 C 225.634 -0.401089 2.25663 0
M  V30 2293 C 226.634 -0.971732 1.28117 0
M  V30 2294 O 227.824 -0.850254 1.52041 0
M  V30 2295 C 224.956 -1.56483 3.02863 0
M  V30 2296 H 226.149 0.24295 2.98914 0
M  V30 2297 H 223.702 0.163968 1.55438 0
M  V30 2298 H 224.437 -2.24567 2.33967 0
M  V30 2299 H 224.222 -1.16211 3.74483 0
M  V30 2300 H 225.712 -2.13951 3.58629 0
M  V30 2301 N 226.149 -1.5696 0.141893 0
M  V30 2302 C 227.112 -2.15316 -0.785587 0
M  V30 2303 C 228.112 -1.09366 -1.1788 0
M  V30 2304 O 229.302 -1.35031 -1.10056 0
M  V30 2305 C 226.434 -2.71211 -2.06537 0
M  V30 2306 H 227.627 -2.98608 -0.278041 0
M  V30 2307 H 225.18 -1.5593 -0.107519 0
M  V30 2308 H 225.915 -1.91571 -2.6167 0
M  V30 2309 H 225.7 -3.4872 -1.79268 0
M  V30 2310 H 227.19 -3.16189 -2.72789 0
M  V30 2311 N 227.627 0.131896 -1.57047 0
M  V30 2312 C 228.873 0.843179 -1.84441 0
M  V30 2313 C 229.206 1.80129 -0.725749 0
M  V30 2314 O 228.481 1.92624 0.269469 0
M  V30 2315 C 228.764 1.60442 -3.22382 0
M  V30 2316 C 228.617 0.666782 -4.4483 0
M  V30 2317 C 229.936 2.56354 -3.5773 0
M  V30 2318 H 227.055 0.305081 -0.670891 0
M  V30 2319 H 229.697 0.107839 -1.89694 0
M  V30 2320 H 227.847 2.23128 -3.18035 0
M  V30 2321 H 229.519 0.0497646 -4.61273 0
M  V30 2322 H 227.762 -0.022609 -4.33794 0
M  V30 2323 H 228.433 1.23579 -5.37989 0
M  V30 2324 H 230.909 2.0378 -3.62785 0
M  V30 2325 H 229.785 3.06657 -4.5525 0
M  V30 2326 H 230.046 3.38419 -2.84473 0
M  V30 2327 N 229.106 1.52395 0.401703 0
M  V30 2328 C 230.355 1.66044 1.14509 0
M  V30 2329 C 230.668 0.400216 1.91462 0
M  V30 2330 O 231.874 0.416632 2.68284 0
M  V30 2331 C 230.33 2.93388 2.0845 0
M  V30 2332 C 229.938 4.26545 1.36978 0
M  V30 2333 C 231.682 3.16402 2.83001 0
M  V30 2334 C 229.589 5.45007 2.29611 0
M  V30 2335 H 228.519 0.618562 0.431158 0
M  V30 2336 H 231.17 1.78886 0.40892 0
M  V30 2337 H 229.552 2.74263 2.8565 0
M  V30 2338 H 230.726 4.56179 0.650916 0
M  V30 2339 H 229.041 4.09692 0.74438 0
M  V30 2340 H 231.638 4.02085 3.52465 0
M  V30 2341 H 231.981 2.30943 3.46368 0
M  V30 2342 H 232.514 3.36034 2.12898 0
M  V30 2343 H 229.253 6.32835 1.70879 0
M  V30 2344 H 228.773 5.19702 2.9945 0
M  V30 2345 H 230.452 5.7838 2.89974 0
M  V30 2346 N 230.584 -0.659388 1.43143 0
M  V30 2347 C 231.532 -1.79374 1.4808 0
M  V30 2348 C 232.526 -1.65639 0.354988 0
M  V30 2349 O 233.732 -1.7206 0.528704 0
M  V30 2350 H 230.107 -0.591705 0.4641 0
M  V30 2351 H 232.078 -1.72329 2.43609 0
M  V30 2352 C 230.827 -3.17606 1.41499 0
M  V30 2353 H 230.15 -3.28809 2.27431 0
M  V30 2354 H 231.59 -3.96951 1.49015 0
M  V30 2355 C 230.049 -3.36642 0.131765 0
M  V30 2356 O 230.579 -3.93461 -0.809386 0
M  V30 2357 N 228.785 -2.90567 0.0439396 0
M  V30 2358 H 228.332 -2.44513 0.810619 0
M  V30 2359 H 228.29 -3.03681 -0.813969 0
M  V30 2360 N 232.062 -1.29571 -0.897171 0
M  V30 2361 C 233.31 -1.17456 -1.64464 0
M  V30 2362 C 233.631 0.273698 -1.9307 0
M  V30 2363 O 232.901 1.18684 -1.55855 0
M  V30 2364 H 231.481 -0.431706 -0.609622 0
M  V30 2365 H 234.143 -1.62531 -1.07562 0
M  V30 2366 H 233.239 -1.72648 -2.59998 0
M  V30 2367 N 233.54 1.10788 -1.12088 0
M  V30 2368 C 234.487 2.17025 -0.785407 0
M  V30 2369 C 235.457 1.64265 0.246191 0
M  V30 2370 O 236.642 1.90412 0.121584 0
M  V30 2371 C 233.782 3.44249 -0.242177 0
M  V30 2372 C 232.895 4.1098 -1.33115 0
M  V30 2373 C 232.03 5.25911 -0.747741 0
M  V30 2374 C 231.069 5.84538 -1.81609 0
M  V30 2375 N 230.206 6.90853 -1.25167 0
M  V30 2376 H 235.046 2.45066 -1.69548 0
M  V30 2377 H 232.583 1.20297 -0.846582 0
M  V30 2378 H 234.541 4.17101 0.0908026 0
M  V30 2379 H 233.171 3.16571 0.631072 0
M  V30 2380 H 232.223 3.36133 -1.78097 0
M  V30 2381 H 233.535 4.50601 -2.13917 0
M  V30 2382 H 232.689 6.056 -0.365216 0
M  V30 2383 H 231.428 4.87614 0.0915188 0
M  V30 2384 H 230.433 5.03522 -2.20785 0
M  V30 2385 H 231.658 6.249 -2.6585 0
M  V30 2386 H 229.604 6.54562 -0.434174 0
M  V30 2387 H 229.521 7.29166 -1.99633 0
M  V30 2388 H 230.789 7.7433 -0.896259 0
M  V30 2389 N 235.018 0.912232 1.28515 0
M  V30 2390 C 235.965 0.397954 2.27343 0
M  V30 2391 C 236.935 -0.526766 1.57526 0
M  V30 2392 O 238.12 -0.449292 1.85435 0
M  V30 2393 C 235.26 -0.357263 3.43246 0
M  V30 2394 C 234.373 0.599788 4.27816 0
M  V30 2395 C 233.508 -0.173725 5.30916 0
M  V30 2396 C 232.547 0.777039 6.07148 0
M  V30 2397 N 231.684 0.0371398 7.0209 0
M  V30 2398 H 236.524 1.24577 2.70711 0
M  V30 2399 H 234.061 0.625612 1.33133 0
M  V30 2400 H 236.019 -0.8113 4.09236 0
M  V30 2401 H 234.649 -1.16943 3.00872 0
M  V30 2402 H 233.701 1.17235 3.61884 0
M  V30 2403 H 235.013 1.32704 4.80823 0
M  V30 2404 H 234.167 -0.688394 6.02782 0
M  V30 2405 H 232.906 -0.934041 4.78672 0
M  V30 2406 H 231.911 1.3031 5.34134 0
M  V30 2407 H 233.136 1.53689 6.61481 0
M  V30 2408 H 231.082 -0.705213 6.52198 0
M  V30 2409 H 230.999 0.704249 7.52713 0
M  V30 2410 H 232.267 -0.457383 7.78157 0
M  V30 2411 N 236.496 -1.42363 0.676048 0
M  V30 2412 C 237.907 -1.84649 0.275948 0
M  V30 2413 C 238.258 -1.56588 -1.18214 0
M  V30 2414 O 237.383 -1.02634 -1.90513 0
M  V30 2415 C 237.978 -3.35178 0.494053 0
M  V30 2416 C 236.537 -3.76109 0.148061 0
M  V30 2417 C 235.684 -2.65931 0.785891 0
M  V30 2418 H 238.635 -1.32192 0.878121 0
M  V30 2419 H 238.656 -3.79655 -0.25343 0
M  V30 2420 H 238.168 -3.55571 1.55535 0
M  V30 2421 H 236.269 -3.61323 -0.909742 0
M  V30 2422 H 236.382 -4.7546 0.589454 0
M  V30 2423 H 234.746 -2.53773 0.217113 0
M  V30 2424 H 235.529 -2.89146 1.85067 0
M  V30 2425 N 237.974 -0.419461 -1.51915 0
M  V30 2426 C 238.884 0.407528 -2.31033 0
M  V30 2427 C 239.9 1.04413 -1.3919 0
M  V30 2428 O 241.076 1.0434 -1.72265 0
M  V30 2429 C 238.141 1.50365 -3.12396 0
M  V30 2430 C 237.202 0.889029 -4.19994 0
M  V30 2431 C 236.435 1.93291 -4.97468 0
M  V30 2432 O 236.658 3.15259 -4.75361 0
M  V30 2433 O 235.592 1.53339 -5.8204 0
M  V30 2434 H 239.418 -0.237865 -3.02767 0
M  V30 2435 H 237.003 -0.182413 -1.48282 0
M  V30 2436 H 238.885 2.13975 -3.63032 0
M  V30 2437 H 237.56 2.13345 -2.43445 0
M  V30 2438 H 236.467 0.215353 -3.7348 0
M  V30 2439 H 237.8 0.302991 -4.91267 0
M  V30 2440 N 239.452 1.56882 -0.150215 0
M  V30 2441 C 240.68 2.00593 0.506948 0
M  V30 2442 C 241.095 1.03033 1.58208 0
M  V30 2443 O 240.452 0.0278396 1.82479 0
M  V30 2444 C 240.503 3.44209 1.10465 0
M  V30 2445 O 240.224 4.3804 0.0724636 0
M  V30 2446 C 241.725 4.03214 1.84211 0
M  V30 2447 H 238.945 0.65795 0.13169 0
M  V30 2448 H 241.489 2.03018 -0.245743 0
M  V30 2449 H 239.644 3.42625 1.80795 0
M  V30 2450 H 240.058 5.22007 0.510793 0
M  V30 2451 H 241.532 5.0569 2.21318 0
M  V30 2452 H 242.009 3.44107 2.72923 0
M  V30 2453 H 242.615 4.08437 1.18572 0
M  V30 2454 N 240.93 -0.123565 1.57115 0
M  V30 2455 C 242.207 -0.862196 1.75572 0
M  V30 2456 C 242.587 -1.98279 0.724475 0
M  V30 2457 O 241.935 -2.27102 -0.252407 0
M  V30 2458 C 242.145 -1.38309 3.20424 0
M  V30 2459 C 243.493 -1.83724 3.82793 0
M  V30 2460 O 244.517 -1.47999 3.23998 0
M  V30 2461 O 243.376 -2.49685 4.86127 0
M  V30 2462 H 240.47 -0.409113 0.718718 0
M  V30 2463 H 243.016 -0.107661 1.69358 0
M  V30 2464 H 241.788 -0.578889 3.86994 0
M  V30 2465 H 241.411 -2.20046 3.31158 0
M  V30 2466 N 242.408 -1.52605 -0.393616 0
M  V30 2467 C 243.338 -1.80022 -1.48709 0
M  V30 2468 C 244.319 -0.651995 -1.57108 0
M  V30 2469 O 245.504 -0.89913 -1.72132 0
M  V30 2470 C 242.634 -1.96492 -2.86371 0
M  V30 2471 C 241.588 -3.12161 -2.92813 0
M  V30 2472 C 240.914 -3.13877 -4.3288 0
M  V30 2473 C 242.214 -4.51322 -2.6288 0
M  V30 2474 H 243.908 -2.71589 -1.26015 0
M  V30 2475 H 241.454 -1.30684 -0.604778 0
M  V30 2476 H 243.407 -2.14255 -3.62867 0
M  V30 2477 H 242.131 -1.01611 -3.10391 0
M  V30 2478 H 240.79 -2.94173 -2.18764 0
M  V30 2479 H 240.438 -2.16687 -4.53933 0
M  V30 2480 H 240.138 -3.91576 -4.38112 0
M  V30 2481 H 241.662 -3.33789 -5.1129 0
M  V30 2482 H 243.076 -4.69435 -3.29096 0
M  V30 2483 H 241.473 -5.31053 -2.79468 0
M  V30 2484 H 242.543 -4.58353 -1.58242 0
M  V30 2485 N 243.887 0.651787 -1.4349 0
M  V30 2486 C 244.797 1.79368 -1.5121 0
M  V30 2487 C 245.813 1.69361 -0.399093 0
M  V30 2488 O 246.989 1.90505 -0.653431 0
M  V30 2489 C 244.054 3.15653 -1.43401 0
M  V30 2490 C 243.115 3.37446 -2.65384 0
M  V30 2491 C 242.348 4.67229 -2.57939 0
M  V30 2492 O 242.571 5.46676 -1.62792 0
M  V30 2493 O 241.505 4.90773 -3.48462 0
M  V30 2494 H 245.331 1.7581 -2.47638 0
M  V30 2495 H 242.916 0.810447 -1.25507 0
M  V30 2496 H 244.798 3.96935 -1.41494 0
M  V30 2497 H 243.473 3.19798 -0.501085 0
M  V30 2498 H 242.38 2.55923 -2.72863 0
M  V30 2499 H 243.713 3.38148 -3.57654 0
M  V30 2500 N 245.365 1.30045 0.890287 0
M  V30 2501 C 246.612 1.18561 1.64163 0
M  V30 2502 C 246.94 -0.260852 1.92743 0
M  V30 2503 O 246.195 -1.20376 1.54299 0
M  V30 2504 C 246.494 1.95409 2.99249 0
M  V30 2505 C 246.16 3.45066 2.90242 0
M  V30 2506 C 244.822 3.85878 2.87492 0
M  V30 2507 C 247.174 4.4039 2.78758 0
M  V30 2508 C 244.502 5.20314 2.7109 0
M  V30 2509 C 246.854 5.74928 2.63894 0
M  V30 2510 C 245.518 6.14986 2.59516 0
M  V30 2511 H 244.788 0.433846 0.600715 0
M  V30 2512 H 247.435 1.61088 1.03552 0
M  V30 2513 H 245.74 1.45501 3.63781 0
M  V30 2514 H 247.437 1.8392 3.56334 0
M  V30 2515 H 244.027 3.12631 2.93189 0
M  V30 2516 H 248.211 4.09806 2.79952 0
M  V30 2517 H 243.467 5.50449 2.66112 0
M  V30 2518 H 247.641 6.48434 2.53981 0
M  V30 2519 H 245.268 7.19104 2.46565 0
M  V30 2520 N 246.843 -1.10192 1.12674 0
M  V30 2521 C 247.79 -2.16606 0.796906 0
M  V30 2522 C 248.76 -1.64394 -0.237476 0
M  V30 2523 O 249.945 -1.90474 -0.111484 0
M  V30 2524 C 247.085 -3.44116 0.26043 0
M  V30 2525 C 246.198 -4.10268 1.35293 0
M  V30 2526 C 245.333 -5.25507 0.775621 0
M  V30 2527 C 244.372 -5.83567 1.84706 0
M  V30 2528 N 243.509 -6.90179 1.28829 0
M  V30 2529 H 248.349 -2.44163 1.70846 0
M  V30 2530 H 245.886 -1.19846 0.85295 0
M  V30 2531 H 247.844 -4.17143 -0.0686814 0
M  V30 2532 H 246.474 -3.16901 -0.614274 0
M  V30 2533 H 245.526 -3.35184 1.79877 0
M  V30 2534 H 246.838 -4.4946 2.16303 0
M  V30 2535 H 245.992 -6.05398 0.397327 0
M  V30 2536 H 244.731 -4.87656 -0.0656581 0
M  V30 2537 H 243.736 -5.02344 2.23452 0
M  V30 2538 H 244.961 -6.23482 2.69161 0
M  V30 2539 H 242.907 -6.54322 0.468881 0
M  V30 2540 H 242.824 -7.28097 2.03497 0
M  V30 2541 H 244.092 -7.73844 0.937311 0
M  V30 2542 N 248.321 -0.919034 -1.28029 0
M  V30 2543 C 249.254 -0.355887 -2.25408 0
M  V30 2544 C 250.232 0.542874 -1.5327 0
M  V30 2545 O 251.416 0.485338 -1.82145 0
M  V30 2546 C 248.543 0.490759 -3.35126 0
M  V30 2547 C 247.589 -0.343358 -4.25116 0
M  V30 2548 S 248.422 -1.75344 -5.05979 0
M  V30 2549 C 249.578 -0.914244 -6.19187 0
M  V30 2550 H 249.811 -1.18123 -2.72826 0
M  V30 2551 H 247.344 -0.720636 -1.36551 0
M  V30 2552 H 249.302 0.973404 -3.98792 0
M  V30 2553 H 247.963 1.29054 -2.86363 0
M  V30 2554 H 247.156 0.304266 -5.03081 0
M  V30 2555 H 246.758 -0.759851 -3.662 0
M  V30 2556 H 249.05 -0.146282 -6.77342 0
M  V30 2557 H 249.993 -1.66661 -6.88208 0
M  V30 2558 H 250.401 -0.460082 -5.62622 0
M  V30 2559 N 249.799 1.42003 -0.683588 0
M  V30 2560 C 251.21 1.84501 -0.285736 0
M  V30 2561 C 251.561 1.57213 1.17382 0
M  V30 2562 O 250.686 1.03642 1.89966 0
M  V30 2563 C 251.281 3.34912 -0.511821 0
M  V30 2564 C 249.84 3.76025 -0.168005 0
M  V30 2565 C 248.987 2.6551 -0.799983 0
M  V30 2566 H 251.938 1.31724 -0.885119 0
M  V30 2567 H 251.959 3.79784 0.233292 0
M  V30 2568 H 251.471 3.54741 -1.57418 0
M  V30 2569 H 249.572 3.61801 0.890567 0
M  V30 2570 H 249.685 4.75141 -0.614661 0
M  V30 2571 H 248.049 2.53654 -0.230568 0
M  V30 2572 H 248.832 2.8816 -1.86597 0
M  V30 2573 N 251.277 0.427512 1.51691 0
M  V30 2574 C 252.24 -0.377132 2.26076 0
M  V30 2575 C 253.24 -0.958089 1.29141 0
M  V30 2576 O 254.43 -0.83408 1.52934 0
M  V30 2577 C 251.562 -1.53262 3.04506 0
M  V30 2578 H 252.755 0.27464 2.9864 0
M  V30 2579 H 250.308 0.180445 1.55255 0
M  V30 2580 H 251.043 -2.22072 2.36335 0
M  V30 2581 H 250.828 -1.12232 3.75694 0
M  V30 2582 H 252.318 -2.10135 3.60878 0
M  V30 2583 N 252.755 -1.56801 0.158532 0
M  V30 2584 C 254.032 -1.88131 -0.535357 0
M  V30 2585 C 254.412 -1.06638 -1.82186 0
M  V30 2586 O 253.76 -0.156533 -2.27963 0
M  V30 2587 C 253.97 -3.39949 -0.789653 0
M  V30 2588 C 255.318 -4.09416 -1.12533 0
M  V30 2589 O 256.342 -3.45194 -0.878622 0
M  V30 2590 O 255.201 -5.22855 -1.59014 0
M  V30 2591 H 252.295 -0.780143 -0.27442 0
M  V30 2592 H 254.841 -1.68564 0.19601 0
M  V30 2593 H 253.613 -3.91115 0.120353 0
M  V30 2594 H 253.236 -3.65084 -1.57479 0
M  V30 2595 N 254.233 0.115231 -1.57178 0
M  V30 2596 C 255.481 0.820727 -1.84685 0
M  V30 2597 C 255.802 1.80237 -0.744279 0
M  V30 2598 O 255.072 1.94529 0.231375 0
M  V30 2599 H 253.652 0.306084 -0.681411 0
M  V30 2600 H 256.314 0.101656 -1.94635 0
M  V30 2601 H 255.41 1.36366 -2.80733 0
M  V30 2602 N 255.711 1.52812 0.385517 0
M  V30 2603 C 257.127 1.4214 0.725829 0
M  V30 2604 C 257.327 0.544589 1.94001 0
M  V30 2605 O 256.383 0.0193693 2.52493 0
M  V30 2606 C 257.696 2.85042 0.957668 0
M  V30 2607 C 259.244 2.94543 1.05892 0
M  V30 2608 C 259.719 4.38464 1.32337 0
M  V30 2609 N 261.21 4.41804 1.39151 0
M  V30 2610 C 261.945 5.5025 1.61285 0
M  V30 2611 N 261.441 6.68775 1.80866 0
M  V30 2612 N 263.234 5.37798 1.63492 0
M  V30 2613 H 255.385 2.08338 -0.413383 0
M  V30 2614 H 257.648 0.940016 -0.122775 0
M  V30 2615 H 257.354 3.51431 0.137568 0
M  V30 2616 H 257.228 3.27505 1.87137 0
M  V30 2617 H 259.615 2.28321 1.86959 0
M  V30 2618 H 259.696 2.55504 0.123057 0
M  V30 2619 H 259.34 5.05254 0.517793 0
M  V30 2620 H 259.27 4.75059 2.27214 0
M  V30 2621 H 261.761 3.56377 1.25713 0
M  V30 2622 H 262.074 7.47197 1.97271 0
M  V30 2623 H 260.419 6.71797 1.78083 0
M  V30 2624 H 263.61 4.44171 1.47749 0
M  V30 2625 H 263.783 6.22382 1.80402 0
M  V30 2626 N 257.189 -0.644168 1.43834 0
M  V30 2627 C 258.438 -1.39985 1.45214 0
M  V30 2628 C 258.751 -1.95421 0.0835494 0
M  V30 2629 O 259.957 -2.71488 -0.0251748 0
M  V30 2630 C 258.413 -2.53384 2.55587 0
M  V30 2631 C 258.021 -2.04517 3.98594 0
M  V30 2632 C 259.765 -3.30685 2.66172 0
M  V30 2633 C 257.672 -3.1518 5.00416 0
M  V30 2634 H 256.602 -0.526005 0.540218 0
M  V30 2635 H 259.253 -0.694367 1.69855 0
M  V30 2636 H 257.635 -3.26446 2.24163 0
M  V30 2637 H 258.809 -1.38405 4.39523 0
M  V30 2638 H 257.124 -1.40068 3.92135 0
M  V30 2639 H 259.721 -4.13158 3.39418 0
M  V30 2640 H 260.064 -3.79312 1.71546 0
M  V30 2641 H 260.597 -2.64708 2.96942 0
M  V30 2642 H 257.336 -2.71511 5.96625 0
M  V30 2643 H 256.856 -3.79974 4.64091 0
M  V30 2644 H 258.535 -3.80166 5.23529 0
M  V30 2645 N 258.668 -1.30515 -0.883378 0
M  V30 2646 C 259.914 -1.20617 -1.63778 0
M  V30 2647 C 260.269 0.236469 -1.90941 0
M  V30 2648 O 259.562 1.16596 -1.52039 0
M  V30 2649 C 259.756 -1.96994 -2.98209 0
M  V30 2650 C 259.585 -3.48537 -2.84169 0
M  V30 2651 C 258.355 -4.17893 -2.84067 0
M  V30 2652 C 260.553 -4.43738 -2.60001 0
M  V30 2653 N 258.535 -5.55685 -2.60936 0
M  V30 2654 C 259.906 -5.69105 -2.46007 0
M  V30 2655 C 261.961 -4.33316 -2.45239 0
M  V30 2656 C 260.664 -6.8523 -2.18752 0
M  V30 2657 C 262.69 -5.4921 -2.19369 0
M  V30 2658 C 262.052 -6.73558 -2.06153 0
M  V30 2659 H 258.151 -0.496434 -0.604216 0
M  V30 2660 H 260.735 -1.64544 -1.04083 0
M  V30 2661 H 258.906 -1.55455 -3.55933 0
M  V30 2662 H 260.638 -1.79225 -3.62851 0
M  V30 2663 H 257.393 -3.69739 -2.95956 0
M  V30 2664 H 257.817 -6.28199 -2.52378 0
M  V30 2665 H 262.459 -3.37856 -2.54191 0
M  V30 2666 H 260.177 -7.80729 -2.08537 0
M  V30 2667 H 263.763 -5.43054 -2.08766 0
M  V30 2668 H 262.643 -7.61721 -1.86416 0
M  V30 2669 N 260.146 1.09593 -1.13257 0
M  V30 2670 C 261.394 1.81375 -0.891492 0
M  V30 2671 C 261.715 1.86049 0.584009 0
M  V30 2672 O 260.985 1.34481 1.42449 0
M  V30 2673 H 259.565 0.671708 -0.326828 0
M  V30 2674 H 262.227 1.3256 -1.42877 0
M  V30 2675 H 261.323 2.84612 -1.28071 0
M  V30 2676 N 261.624 0.925811 1.2754 0
M  V30 2677 C 262.849 0.580924 1.99098 0
M  V30 2678 C 263.274 -0.833555 1.68622 0
M  V30 2679 O 262.632 -1.55903 0.925422 0
M  V30 2680 C 262.68 0.811186 3.51358 0
M  V30 2681 O 261.784 -0.124129 4.12213 0
M  V30 2682 H 261.125 0.223873 0.625122 0
M  V30 2683 H 263.655 1.24455 1.62395 0
M  V30 2684 H 263.665 0.72601 4.01489 0
M  V30 2685 H 262.34 1.84227 3.72872 0
M  V30 2686 H 260.917 0.0108006 3.72898 0
M  V30 2687 N 263.102 -1.41638 0.69111 0
M  V30 2688 C 264.049 -2.30789 0.0229705 0
M  V30 2689 C 265.019 -1.46863 -0.775911 0
M  V30 2690 O 266.204 -1.75661 -0.74485 0
M  V30 2691 C 263.344 -3.32868 -0.910666 0
M  V30 2692 C 262.457 -4.31875 -0.103874 0
M  V30 2693 C 261.592 -5.21024 -1.03475 0
M  V30 2694 C 260.631 -6.11702 -0.220598 0
M  V30 2695 N 259.768 -6.93349 -1.10504 0
M  V30 2696 H 264.608 -2.87366 0.788978 0
M  V30 2697 H 262.145 -1.41535 0.400794 0
M  V30 2698 H 264.103 -3.90596 -1.46597 0
M  V30 2699 H 262.733 -2.77851 -1.64312 0
M  V30 2700 H 261.785 -3.76131 0.568285 0
M  V30 2701 H 263.097 -4.96003 0.527504 0
M  V30 2702 H 262.251 -5.83565 -1.65943 0
M  V30 2703 H 260.99 -4.57112 -1.69999 0
M  V30 2704 H 259.995 -5.48215 0.417187 0
M  V30 2705 H 261.22 -6.77668 0.440784 0
M  V30 2706 H 259.166 -6.3205 -1.75638 0
M  V30 2707 H 259.083 -7.54146 -0.529125 0
M  V30 2708 H 260.351 -7.60362 -1.71667 0
M  V30 2709 N 264.58 -0.43555 -1.51462 0
M  V30 2710 C 265.81 0.130053 -2.0619 0
M  V30 2711 C 266.218 1.37164 -1.30317 0
M  V30 2712 O 265.561 1.80225 -0.355598 0
M  V30 2713 C 265.623 0.519418 -3.55728 0
M  V30 2714 C 265.287 -0.615119 -4.52841 0
M  V30 2715 C 266.284 -1.48671 -4.9819 0
M  V30 2716 C 263.969 -0.795341 -4.95963 0
M  V30 2717 C 265.963 -2.52324 -5.8533 0
M  V30 2718 C 263.65 -1.83514 -5.82894 0
M  V30 2719 C 264.648 -2.69748 -6.27475 0
M  V30 2720 O 264.336 -3.71944 -7.1268 0
M  V30 2721 H 264.068 0.0121612 -0.675891 0
M  V30 2722 H 266.622 -0.6129 -1.96043 0
M  V30 2723 H 264.852 1.31505 -3.63653 0
M  V30 2724 H 266.541 1.01597 -3.92979 0
M  V30 2725 H 267.307 -1.359 -4.65571 0
M  V30 2726 H 263.186 -0.133713 -4.60806 0
M  V30 2727 H 266.73 -3.19665 -6.20048 0
M  V30 2728 H 262.627 -1.96306 -6.14926 0
M  V30 2729 H 263.395 -3.68503 -7.30854 0
M  V30 2730 N 266.058 1.56714 -0.166846 0
M  V30 2731 C 267.469 1.83378 0.350646 0
M  V30 2732 C 267.82 1.08646 1.63372 0
M  V30 2733 O 266.945 0.338058 2.13743 0
M  V30 2734 C 267.54 3.32643 0.642963 0
M  V30 2735 C 266.099 3.59818 1.10491 0
M  V30 2736 C 265.246 2.76954 0.138411 0
M  V30 2737 H 268.197 1.53803 -0.391193 0
M  V30 2738 H 268.218 3.49878 1.49551 0
M  V30 2739 H 267.73 3.87007 -0.291055 0
M  V30 2740 H 265.831 3.1086 2.05418 0
M  V30 2741 H 265.944 4.68178 1.01716 0
M  V30 2742 H 264.308 2.4666 0.634911 0
M  V30 2743 H 265.091 3.34097 -0.789549 0
M  V30 2744 N 267.536 -0.106894 1.57237 0
M  V30 2745 C 268.952 -0.46078 1.52804 0
M  V30 2746 C 269.152 -1.81184 0.881746 0
M  V30 2747 O 268.208 -2.48102 0.469224 0
M  V30 2748 C 269.521 -0.434127 2.9755 0
M  V30 2749 C 271.069 -0.516821 3.08704 0
M  V30 2750 C 271.544 -0.520436 4.55033 0
M  V30 2751 N 273.035 -0.58153 4.59535 0
M  V30 2752 C 273.77 -0.605973 5.70189 0
M  V30 2753 N 273.266 -0.587331 6.90306 0
M  V30 2754 N 275.059 -0.649895 5.5833 0
M  V30 2755 H 267.21 0.778203 1.9763 0
M  V30 2756 H 269.473 0.288403 0.903066 0
M  V30 2757 H 269.179 0.491197 3.48253 0
M  V30 2758 H 269.053 -1.25748 3.55622 0
M  V30 2759 H 271.44 -1.43256 2.57995 0
M  V30 2760 H 271.521 0.334449 2.53604 0
M  V30 2761 H 271.165 0.391313 5.0639 0
M  V30 2762 H 271.095 -1.38876 5.07958 0
M  V30 2763 H 273.586 -0.60161 3.73081 0
M  V30 2764 H 273.899 -0.60894 7.70397 0
M  V30 2765 H 272.244 -0.554564 6.92784 0
M  V30 2766 H 275.435 -0.661907 4.63397 0
M  V30 2767 H 275.608 -0.665476 6.44574 0
M  V30 2768 N 269.014 -1.53014 -0.377408 0
M  V30 2769 C 270.425 -1.60438 -0.954798 0
M  V30 2770 C 270.776 -0.464418 -1.90624 0
M  V30 2771 O 269.901 0.41087 -2.12464 0
M  V30 2772 C 270.496 -2.90797 -1.73847 0
M  V30 2773 C 269.055 -3.00595 -2.26538 0
M  V30 2774 C 268.202 -2.55645 -1.07429 0
M  V30 2775 H 271.153 -1.57926 -0.156575 0
M  V30 2776 H 271.174 -2.77935 -2.5987 0
M  V30 2777 H 270.686 -3.73746 -1.04574 0
M  V30 2778 H 268.787 -2.22208 -2.99089 0
M  V30 2779 H 268.9 -4.05456 -2.5523 0
M  V30 2780 H 267.264 -2.10239 -1.43777 0
M  V30 2781 H 268.047 -3.41 -0.396728 0
M  V30 2782 N 270.492 0.636531 -1.44174 0
M  V30 2783 C 271.72 1.42353 -1.50144 0
M  V30 2784 C 272.135 1.88389 -0.124575 0
M  V30 2785 O 271.492 1.6051 0.868489 0
M  V30 2786 C 271.543 2.64744 -2.46156 0
M  V30 2787 O 271.264 2.20629 -3.7849 0
M  V30 2788 C 272.765 3.57929 -2.61537 0
M  V30 2789 H 269.985 0.436752 -0.5094 0
M  V30 2790 H 272.529 0.778933 -1.89084 0
M  V30 2791 H 270.684 3.25307 -2.10366 0
M  V30 2792 H 271.098 2.99938 -4.30276 0
M  V30 2793 H 272.572 4.40428 -3.32757 0
M  V30 2794 H 273.049 4.06382 -1.66585 0
M  V30 2795 H 273.655 3.03238 -2.98206 0
M  V30 2796 N 271.97 1.30982 0.876444 0
M  V30 2797 C 272.933 1.18054 1.96459 0
M  V30 2798 C 273.933 0.109399 1.60427 0
M  V30 2799 O 275.123 0.358173 1.70478 0
M  V30 2800 C 272.255 0.810616 3.31122 0
M  V30 2801 H 273.448 2.14735 2.09354 0
M  V30 2802 H 271.001 1.145 1.06392 0
M  V30 2803 H 271.736 -0.155322 3.23928 0
M  V30 2804 H 271.521 1.58481 3.58645 0
M  V30 2805 H 273.011 0.743876 4.10921 0
M  V30 2806 N 273.449 -1.08991 1.13837 0
M  V30 2807 C 274.695 -1.81526 0.90422 0
M  V30 2808 C 275.028 -1.85706 -0.568066 0
M  V30 2809 O 274.303 -1.32855 -1.42056 0
M  V30 2810 C 274.586 -3.27447 1.49835 0
M  V30 2811 C 274.439 -3.31512 3.04006 0
M  V30 2812 C 275.758 -4.24256 1.17025 0
M  V30 2813 H 272.877 -0.659029 0.329923 0
M  V30 2814 H 275.519 -1.27644 1.40737 0
M  V30 2815 H 273.669 -3.73462 1.07044 0
M  V30 2816 H 275.341 -2.93867 3.55584 0
M  V30 2817 H 273.584 -2.70963 3.38765 0
M  V30 2818 H 274.255 -4.34329 3.40679 0
M  V30 2819 H 276.731 -3.86549 1.54009 0
M  V30 2820 H 275.607 -5.24684 1.61237 0
M  V30 2821 H 275.868 -4.42019 0.0846274 0
M  V30 2822 N 274.927 -0.932562 -1.27047 0
M  V30 2823 C 275.89 -0.440064 -2.24936 0
M  V30 2824 C 276.89 0.444071 -1.54547 0
M  V30 2825 O 278.08 0.244465 -1.72476 0
M  V30 2826 C 275.212 0.36678 -3.38921 0
M  V30 2827 H 276.405 -1.305 -2.70018 0
M  V30 2828 H 273.958 -0.713707 -1.39054 0
M  V30 2829 H 274.693 1.25033 -2.99228 0
M  V30 2830 H 274.478 -0.267204 -3.91188 0
M  V30 2831 H 275.968 0.701567 -4.11665 0
M  V30 2832 N 276.405 1.4127 -0.698611 0
M  V30 2833 C 277.352 2.30773 -0.0352094 0
M  V30 2834 C 278.322 1.47273 0.768111 0
M  V30 2835 O 279.507 1.76053 0.735524 0
M  V30 2836 C 276.647 3.33346 0.893 0
M  V30 2837 C 275.76 4.31924 0.0809695 0
M  V30 2838 C 274.895 5.21566 1.0071 0
M  V30 2839 C 273.934 6.11811 0.188155 0
M  V30 2840 N 273.071 6.93926 1.06825 0
M  V30 2841 H 277.911 2.86943 -0.804207 0
M  V30 2842 H 275.448 1.4132 -0.408294 0
M  V30 2843 H 277.406 3.91368 1.44523 0
M  V30 2844 H 276.036 2.78719 1.62836 0
M  V30 2845 H 275.088 3.75825 -0.588224 0
M  V30 2846 H 276.4 4.95716 -0.553801 0
M  V30 2847 H 275.554 5.84437 1.62845 0
M  V30 2848 H 274.293 4.58008 1.67572 0
M  V30 2849 H 273.298 5.47986 -0.446254 0
M  V30 2850 H 274.523 6.77425 -0.476716 0
M  V30 2851 H 272.469 6.32973 1.72283 0
M  V30 2852 H 272.386 7.54416 0.489123 0
M  V30 2853 H 273.654 7.61262 1.67632 0
M  V30 2854 N 277.883 0.443576 1.51229 0
M  V30 2855 C 279.129 -0.120975 2.02439 0
M  V30 2856 C 279.462 -1.41815 1.32674 0
M  V30 2857 O 278.737 -1.89373 0.443622 0
M  V30 2858 C 279.02 -0.333291 3.58554 0
M  V30 2859 C 278.873 0.982968 4.38928 0
M  V30 2860 C 280.192 -1.10028 4.26124 0
M  V30 2861 H 277.311 -0.0424923 0.735774 0
M  V30 2862 H 279.953 0.583794 1.80809 0
M  V30 2863 H 278.103 -0.933614 3.77115 0
M  V30 2864 H 279.775 1.61775 4.32003 0
M  V30 2865 H 278.018 1.58611 4.03763 0
M  V30 2866 H 278.689 0.788379 5.46341 0
M  V30 2867 H 281.165 -0.591711 4.11871 0
M  V30 2868 H 280.041 -1.21761 5.35225 0
M  V30 2869 H 280.302 -2.12996 3.87408 0
M  V30 2870 N 279.361 -1.56624 0.175154 0
M  V30 2871 C 280.589 -2.01374 -0.474971 0
M  V30 2872 C 281.004 -1.05537 -1.56548 0
M  V30 2873 O 280.361 -0.0568668 -1.82411 0
M  V30 2874 C 280.412 -3.45923 -1.04975 0
M  V30 2875 O 280.133 -4.381 -0.00276605 0
M  V30 2876 C 281.634 -4.06093 -1.77773 0
M  V30 2877 H 278.854 -0.659962 -0.121206 0
M  V30 2878 H 281.398 -2.02601 0.27801 0
M  V30 2879 H 279.553 -3.45458 -1.75321 0
M  V30 2880 H 279.967 -5.22753 -0.427681 0
M  V30 2881 H 281.441 -5.09147 -2.13245 0
M  V30 2882 H 281.918 -3.48405 -2.67414 0
M  V30 2883 H 282.524 -4.10272 -1.12059 0
M  V30 2884 N 280.839 0.0985539 -1.57292 0
M  V30 2885 C 282.087 0.801092 -1.85545 0
M  V30 2886 C 282.408 1.79438 -0.763353 0
M  V30 2887 O 281.678 1.94763 0.21073 0
M  V30 2888 H 280.258 0.29884 -0.684619 0
M  V30 2889 H 282.92 0.0810064 -1.94732 0
M  V30 2890 H 282.016 1.3338 -2.82163 0
M  V30 2891 N 282.317 1.53212 0.369288 0
M  V30 2892 C 283.545 1.73119 1.13303 0
M  V30 2893 C 283.96 0.458455 1.83149 0
M  V30 2894 O 283.317 -0.568403 1.73423 0
M  V30 2895 C 283.368 2.89413 2.16616 0
M  V30 2896 O 283.089 4.11761 1.49614 0
M  V30 2897 C 284.59 3.21161 3.05566 0
M  V30 2898 H 281.81 0.579107 0.338934 0
M  V30 2899 H 284.354 1.99942 0.429338 0
M  V30 2900 H 282.509 2.64994 2.82589 0
M  V30 2901 H 282.923 4.76858 2.18419 0
M  V30 2902 H 284.397 4.05949 3.74045 0
M  V30 2903 H 284.874 2.36369 3.70171 0
M  V30 2904 H 285.48 3.47492 2.45213 0
M  V30 2905 N 283.795 -0.628877 1.44509 0
M  V30 2906 C 284.725 -1.75187 1.54376 0
M  V30 2907 C 285.706 -1.65411 0.396618 0
M  V30 2908 O 286.891 -1.84137 0.617031 0
M  V30 2909 C 284.021 -3.13725 1.48976 0
M  V30 2910 C 282.975 -3.38291 2.62189 0
M  V30 2911 C 282.301 -4.76883 2.41841 0
M  V30 2912 C 283.601 -3.30632 4.04326 0
M  V30 2913 H 285.295 -1.67187 2.48373 0
M  V30 2914 H 282.841 -0.802909 1.19538 0
M  V30 2915 H 284.794 -3.92064 1.54478 0
M  V30 2916 H 283.518 -3.22515 0.514961 0
M  V30 2917 H 282.177 -2.62334 2.56079 0
M  V30 2918 H 281.825 -4.82378 1.42548 0
M  V30 2919 H 281.525 -4.94278 3.17747 0
M  V30 2920 H 283.049 -5.57449 2.49165 0
M  V30 2921 H 284.463 -3.98873 4.11793 0
M  V30 2922 H 282.86 -3.59561 4.80454 0
M  V30 2923 H 283.93 -2.28404 4.27738 0
M  V30 2924 N 285.273 -1.31445 -0.869486 0
M  V30 2925 C 286.55 -1.11795 -1.60503 0
M  V30 2926 C 286.93 0.327168 -2.08549 0
M  V30 2927 O 286.278 1.32135 -1.8642 0
M  V30 2928 C 286.488 -2.13258 -2.76265 0
M  V30 2929 C 287.836 -2.45805 -3.46215 0
M  V30 2930 O 288.86 -2.11688 -2.86473 0
M  V30 2931 O 287.719 -3.04228 -4.5399 0
M  V30 2932 H 284.813 -0.430421 -0.706163 0
M  V30 2933 H 287.359 -1.42925 -0.914907 0
M  V30 2934 H 286.131 -3.10461 -2.3818 0
M  V30 2935 H 285.754 -1.83035 -3.52964 0
M  V30 2936 N 286.751 1.08385 -1.14413 0
M  V30 2937 C 287.981 1.8425 -0.934644 0
M  V30 2938 C 288.389 1.81907 0.520234 0
M  V30 2939 O 287.732 1.22126 1.37226 0
M  V30 2940 C 287.794 3.32853 -1.35828 0
M  V30 2941 C 287.458 3.5893 -2.82875 0
M  V30 2942 C 288.455 3.53756 -3.80989 0
M  V30 2943 C 286.14 3.86934 -3.20293 0
M  V30 2944 C 288.134 3.76216 -5.14529 0
M  V30 2945 C 285.821 4.09047 -4.54008 0
M  V30 2946 C 286.819 4.03682 -5.50936 0
M  V30 2947 O 286.507 4.25214 -6.82238 0
M  V30 2948 H 286.239 0.588502 -0.332628 0
M  V30 2949 H 288.793 1.37792 -1.52324 0
M  V30 2950 H 287.023 3.8007 -0.713019 0
M  V30 2951 H 288.712 3.90154 -1.11957 0
M  V30 2952 H 289.478 3.32135 -3.53428 0
M  V30 2953 H 285.357 3.9023 -2.45442 0
M  V30 2954 H 288.901 3.71943 -5.90173 0
M  V30 2955 H 284.798 4.30151 -4.8129 0
M  V30 2956 H 285.566 4.42619 -6.88499 0
M  V30 2957 N 288.23 0.939286 1.26551 0
M  V30 2958 C 289.478 0.58469 1.93457 0
M  V30 2959 C 289.799 -0.878774 1.74076 0
M  V30 2960 O 289.069 -1.62421 1.09528 0
M  V30 2961 H 287.649 0.21325 0.715914 0
M  V30 2962 H 290.311 1.1942 1.54029 0
M  V30 2963 H 289.407 0.800849 3.0165 0
M  V30 2964 N 289.708 -1.40897 0.706093 0
M  V30 2965 C 290.671 -2.29131 0.0562841 0
M  V30 2966 C 291.671 -1.44901 -0.697166 0
M  V30 2967 O 292.861 -1.65926 -0.530484 0
M  V30 2968 C 289.993 -3.27957 -0.93043 0
M  V30 2969 H 291.186 -2.88091 0.833284 0
M  V30 2970 H 288.739 -1.4906 0.470192 0
M  V30 2971 H 289.474 -2.73997 -1.73482 0
M  V30 2972 H 289.259 -3.90124 -0.393166 0
M  V30 2973 H 290.749 -3.94049 -1.38256 0
M  V30 2974 N 291.186 -0.45159 -1.50991 0
M  V30 2975 C 292.463 0.170707 -1.94854 0
M  V30 2976 C 292.843 1.58788 -1.39103 0
M  V30 2977 O 292.191 2.20913 -0.583921 0
M  V30 2978 C 292.401 0.133929 -3.48743 0
M  V30 2979 C 293.749 0.33248 -4.23296 0
M  V30 2980 O 294.773 0.211403 -3.55572 0
M  V30 2981 O 293.632 0.57486 -5.43468 0
M  V30 2982 H 290.726 0.122264 -0.817912 0
M  V30 2983 H 293.272 -0.510594 -1.61836 0
M  V30 2984 H 292.044 -0.856283 -3.81816 0
M  V30 2985 H 291.667 0.857529 -3.88242 0
M  V30 2986 N 292.664 1.56529 -0.183458 0
M  V30 2987 C 293.594 2.21549 0.737456 0
M  V30 2988 C 294.575 1.17489 1.23005 0
M  V30 2989 O 295.76 1.45959 1.281 0
M  V30 2990 C 292.89 2.86575 1.96194 0
M  V30 2991 C 291.844 3.96778 1.60473 0
M  V30 2992 C 291.17 4.48911 2.90487 0
M  V30 2993 C 292.47 5.15767 0.823497 0
M  V30 2994 H 294.164 2.98761 0.195453 0
M  V30 2995 H 291.71 1.43702 0.0925686 0
M  V30 2996 H 293.663 3.30739 2.61131 0
M  V30 2997 H 292.387 2.06749 2.52828 0
M  V30 2998 H 291.046 3.53286 0.978997 0
M  V30 2999 H 290.694 3.65862 3.45186 0
M  V30 3000 H 290.394 5.23265 2.67335 0
M  V30 3001 H 291.918 4.95771 3.56432 0
M  V30 3002 H 293.332 5.56549 1.37571 0
M  V30 3003 H 291.729 5.96114 0.690551 0
M  V30 3004 H 292.799 4.84574 -0.177782 0
M  V30 3005 N 294.142 -0.090211 1.57342 0
M  V30 3006 C 295.39 -0.791241 1.85967 0
M  V30 3007 C 295.711 -1.7903 0.772859 0
M  V30 3008 O 294.981 -1.94872 -0.200398 0
M  V30 3009 H 293.561 -0.295205 0.686195 0
M  V30 3010 H 296.223 -0.0706782 1.94772 0
M  V30 3011 H 295.319 -1.31882 2.82867 0
M  V30 3012 N 295.62 -1.53406 -0.361157 0
M  V30 3013 C 296.55 -1.83136 -1.44857 0
M  V30 3014 C 297.531 -0.685174 -1.5569 0
M  V30 3015 O 298.716 -0.93544 -1.70186 0
M  V30 3016 C 295.846 -2.02522 -2.82138 0
M  V30 3017 C 294.8 -3.18302 -2.86126 0
M  V30 3018 C 294.126 -3.22989 -4.26125 0
M  V30 3019 C 295.426 -4.56796 -2.53248 0
M  V30 3020 H 297.12 -2.74201 -1.20226 0
M  V30 3021 H 294.666 -1.31938 -0.576922 0
M  V30 3022 H 296.619 -2.21904 -3.58241 0
M  V30 3023 H 295.343 -1.08172 -3.08166 0
M  V30 3024 H 294.002 -2.98747 -2.12475 0
M  V30 3025 H 293.65 -2.26267 -4.49235 0
M  V30 3026 H 293.35 -4.00781 -4.29708 0
M  V30 3027 H 294.874 -3.44559 -5.04094 0
M  V30 3028 H 296.288 -4.7631 -3.19064 0
M  V30 3029 H 294.685 -5.36862 -2.68141 0
M  V30 3030 H 295.755 -4.61606 -1.48484 0
M  V30 3031 N 297.098 0.621204 -1.44841 0
M  V30 3032 C 298.045 1.73267 -1.5247 0
M  V30 3033 C 299.015 1.6189 -0.371611 0
M  V30 3034 O 300.2 1.81668 -0.58321 0
M  V30 3035 C 297.34 3.11545 -1.48438 0
M  V30 3036 C 296.453 3.33827 -2.74196 0
M  V30 3037 C 295.588 4.62133 -2.61929 0
M  V30 3038 C 294.627 4.77627 -3.82804 0
M  V30 3039 N 293.764 5.97219 -3.69153 0
M  V30 3040 H 298.604 1.66082 -2.47428 0
M  V30 3041 H 296.141 0.810026 -1.22788 0
M  V30 3042 H 298.099 3.91528 -1.4409 0
M  V30 3043 H 296.729 3.1772 -0.570402 0
M  V30 3044 H 295.781 2.47715 -2.88689 0
M  V30 3045 H 297.093 3.41153 -3.6389 0
M  V30 3046 H 296.247 5.50291 -2.5547 0
M  V30 3047 H 294.986 4.57182 -1.69811 0
M  V30 3048 H 293.991 3.87896 -3.89637 0
M  V30 3049 H 295.216 4.84385 -4.75971 0
M  V30 3050 H 293.162 5.93339 -2.79794 0
M  V30 3051 H 293.079 6.05644 -4.52472 0
M  V30 3052 H 294.347 6.87912 -3.66603 0
M  V30 3053 N 298.576 1.31904 0.862503 0
M  V30 3054 C 299.509 1.14514 1.97388 0
M  V30 3055 C 300.487 0.0466493 1.62533 0
M  V30 3056 O 301.671 0.204484 1.87388 0
M  V30 3057 C 298.798 0.751347 3.30261 0
M  V30 3058 C 297.844 1.85395 3.84098 0
M  V30 3059 S 298.677 3.46081 4.08642 0
M  V30 3060 C 299.833 3.08655 5.44502 0
M  V30 3061 H 300.066 2.08597 2.11836 0
M  V30 3062 H 297.599 1.16475 1.01356 0
M  V30 3063 H 299.557 0.530901 4.07052 0
M  V30 3064 H 298.218 -0.170493 3.13637 0
M  V30 3065 H 297.411 1.53122 4.80177 0
M  V30 3066 H 297.013 2.02984 3.14123 0
M  V30 3067 H 299.305 2.58012 6.26447 0
M  V30 3068 H 300.248 4.03726 5.81731 0
M  V30 3069 H 300.656 2.45891 5.08132 0
M  V30 3070 N 300.054 -1.07777 1.14986 0
M  V30 3071 C 301.465 -1.61766 0.932127 0
M  V30 3072 C 301.816 -1.88974 -0.527581 0
M  V30 3073 O 300.941 -1.65198 -1.39781 0
M  V30 3074 C 301.536 -2.93891 1.68563 0
M  V30 3075 C 300.095 -3.44639 1.5133 0
M  V30 3076 C 299.242 -2.18767 1.704 0
M  V30 3077 H 302.193 -0.909201 1.30074 0
M  V30 3078 H 302.214 -3.62623 1.15259 0
M  V30 3079 H 301.726 -2.74057 2.74799 0
M  V30 3080 H 299.827 -3.69564 0.474702 0
M  V30 3081 H 299.94 -4.20966 2.28746 0
M  V30 3082 H 298.304 -2.28253 1.13016 0
M  V30 3083 H 299.087 -2.01433 2.77992 0
M  V30 3084 N 301.532 -0.945985 -1.26051 0
M  V30 3085 C 302.495 -0.463897 -2.24456 0
M  V30 3086 C 303.495 0.427655 -1.55009 0
M  V30 3087 O 304.685 0.226157 -1.72726 0
M  V30 3088 C 301.817 0.330812 -3.39291 0
M  V30 3089 H 303.01 -1.33357 -2.68619 0
M  V30 3090 H 300.563 -0.728416 -1.38289 0
M  V30 3091 H 301.298 1.21852 -3.00537 0
M  V30 3092 H 301.083 -0.308679 -3.90883 0
M  V30 3093 H 302.573 0.657865 -4.12386 0
M  V30 3094 N 303.011 1.40521 -0.713556 0
M  V30 3095 C 304.259 2.00527 -0.251692 0
M  V30 3096 C 304.58 1.56857 1.15848 0
M  V30 3097 O 303.85 0.807127 1.785 0
M  V30 3098 H 302.43 0.741551 -0.0900646 0
M  V30 3099 H 305.092 1.71887 -0.918733 0
M  V30 3100 H 304.188 3.10813 -0.283192 0
M  V30 3101 N 304.489 0.459591 1.5075 0
M  V30 3102 C 305.717 -0.0973749 2.06671 0
M  V30 3103 C 306.132 -1.34524 1.32472 0
M  V30 3104 O 305.489 -1.7827 0.390634 0
M  V30 3105 C 305.54 -0.39714 3.59312 0
M  V30 3106 O 305.261 0.801214 4.30711 0
M  V30 3107 C 306.762 -1.00234 4.31819 0
M  V30 3108 H 303.982 0.00195854 0.670997 0
M  V30 3109 H 306.526 0.645072 1.94059 0
M  V30 3110 H 304.681 -1.08951 3.71764 0
M  V30 3111 H 305.095 0.538857 5.21725 0
M  V30 3112 H 306.569 -1.16193 5.39632 0
M  V30 3113 H 307.046 -1.98939 3.91561 0
M  V30 3114 H 307.652 -0.348699 4.23868 0
M  V30 3115 N 305.967 -1.56429 0.191757 0
M  V30 3116 C 306.897 -2.21937 -0.725696 0
M  V30 3117 C 307.878 -1.1814 -1.2238 0
M  V30 3118 O 309.063 -1.46636 -1.27325 0
M  V30 3119 C 306.193 -2.87611 -1.94672 0
M  V30 3120 C 305.147 -3.97623 -1.58366 0
M  V30 3121 C 304.473 -4.50446 -2.88102 0
M  V30 3122 C 305.773 -5.16197 -0.796133 0
M  V30 3123 H 307.467 -2.98861 -0.179606 0
M  V30 3124 H 305.013 -1.43749 -0.0849464 0
M  V30 3125 H 306.966 -3.3212 -2.59373 0
M  V30 3126 H 305.69 -2.08087 -2.51728 0
M  V30 3127 H 304.349 -3.53801 -0.960247 0
M  V30 3128 H 303.997 -3.67688 -3.43241 0
M  V30 3129 H 303.697 -5.24675 -2.64556 0
M  V30 3130 H 305.221 -4.97654 -3.53798 0
M  V30 3131 H 306.635 -5.57271 -1.34618 0
M  V30 3132 H 305.032 -5.96471 -0.658928 0
M  V30 3133 H 306.102 -4.84473 0.203478 0
M  V30 3134 N 307.445 0.0818655 -1.57387 0
M  V30 3135 C 308.395 1.10501 -1.99433 0
M  V30 3136 C 309.379 1.35041 -0.874798 0
M  V30 3137 O 310.571 1.35511 -1.13868 0
M  V30 3138 C 307.7 2.42159 -2.43339 0
M  V30 3139 C 306.786 2.20937 -3.62005 0
M  V30 3140 N 307.177 1.69616 -4.76512 0
M  V30 3141 C 305.475 2.51451 -3.68359 0
M  V30 3142 C 306.176 1.62973 -5.58404 0
M  V30 3143 N 305.152 2.08664 -5.01956 0
M  V30 3144 H 308.954 0.701373 -2.85408 0
M  V30 3145 H 306.468 0.289096 -1.59806 0
M  V30 3146 H 308.465 3.16208 -2.71695 0
M  V30 3147 H 307.125 2.83249 -1.58746 0
M  V30 3148 H 308.136 1.38624 -4.99003 0
M  V30 3149 H 304.813 2.95975 -2.94457 0
M  V30 3150 H 306.203 1.24233 -6.60315 0
M  V30 3151 N 308.923 1.53595 0.353017 0
M  V30 3152 C 309.853 1.83902 1.43883 0
M  V30 3153 C 310.834 0.693421 1.55324 0
M  V30 3154 O 312.019 0.944452 1.69687 0
M  V30 3155 C 309.149 2.04016 2.8106 0
M  V30 3156 C 308.103 3.19814 2.84434 0
M  V30 3157 C 307.429 3.25244 4.24406 0
M  V30 3158 C 308.729 4.58133 2.50822 0
M  V30 3159 H 310.423 2.74835 1.1877 0
M  V30 3160 H 307.969 1.32242 0.569917 0
M  V30 3161 H 309.922 2.238 3.57059 0
M  V30 3162 H 308.646 1.09804 3.07588 0
M  V30 3163 H 307.305 2.9987 2.10887 0
M  V30 3164 H 306.953 2.28646 4.48029 0
M  V30 3165 H 306.653 4.03054 4.27576 0
M  V30 3166 H 308.177 3.47228 5.0226 0
M  V30 3167 H 309.591 4.77995 3.16534 0
M  V30 3168 H 307.988 5.38276 2.6529 0
M  V30 3169 H 309.058 4.62387 1.46034 0
M  V30 3170 N 310.401 -0.613514 1.45168 0
M  V30 3171 C 311.364 -1.7065 1.53007 0
M  V30 3172 C 312.364 -1.5548 0.410184 0
M  V30 3173 O 313.554 -1.60656 0.673455 0
M  V30 3174 C 310.686 -3.09875 1.42093 0
M  V30 3175 H 311.879 -1.65068 2.50385 0
M  V30 3176 H 309.432 -0.828728 1.32521 0
M  V30 3177 H 310.167 -3.21039 0.458769 0
M  V30 3178 H 309.952 -3.22293 2.23315 0
M  V30 3179 H 311.442 -3.895 1.50598 0
M  V30 3180 N 311.879 -1.3236 -0.855495 0
M  V30 3181 C 312.812 -1.15559 -1.96777 0
M  V30 3182 C 313.79 -0.0552681 -1.62506 0
M  V30 3183 O 314.974 -0.214419 -1.87277 0
M  V30 3184 C 312.101 -0.768851 -3.29858 0
M  V30 3185 C 311.147 -1.87429 -3.83109 0
M  V30 3186 S 311.98 -3.48243 -4.06801 0
M  V30 3187 C 313.136 -3.11539 -5.42858 0
M  V30 3188 H 313.369 -2.09717 -2.10727 0
M  V30 3189 H 310.902 -1.17011 -1.00737 0
M  V30 3190 H 312.86 -0.55248 -4.06765 0
M  V30 3191 H 311.521 0.153857 -3.13723 0
M  V30 3192 H 310.714 -1.55667 -4.79358 0
M  V30 3193 H 310.316 -2.04647 -3.13042 0
M  V30 3194 H 312.608 -2.61331 -6.2507 0
M  V30 3195 H 313.551 -4.06806 -5.79582 0
M  V30 3196 H 313.959 -2.48582 -5.06821 0
M  V30 3197 N 313.357 1.07166 -1.15556 0
M  V30 3198 C 314.603 1.80065 -0.932984 0
M  V30 3199 C 314.936 1.86586 0.53845 0
M  V30 3200 O 314.211 1.35098 1.39924 0
M  V30 3201 C 314.494 3.25022 -1.55025 0
M  V30 3202 C 314.347 3.26634 -3.09242 0
M  V30 3203 C 315.666 4.22341 -1.2376 0
M  V30 3204 H 312.785 0.653697 -0.340366 0
M  V30 3205 H 315.427 1.25389 -1.4275 0
M  V30 3206 H 313.577 3.71712 -1.12972 0
M  V30 3207 H 315.249 2.88173 -3.60214 0
M  V30 3208 H 313.492 2.65539 -3.43033 0
M  V30 3209 H 314.163 4.28854 -3.47546 0
M  V30 3210 H 316.639 3.8405 -1.60139 0
M  V30 3211 H 315.515 5.22053 -1.69564 0
M  V30 3212 H 315.776 4.41828 -0.154938 0
M  V30 3213 N 314.835 0.952656 1.25548 0
M  V30 3214 C 315.767 0.428609 2.25157 0
M  V30 3215 C 316.78 -0.454428 1.56329 0
M  V30 3216 O 317.969 -0.263023 1.76552 0
M  V30 3217 C 315.069 -0.401972 3.36508 0
M  V30 3218 C 314.242 0.467601 4.34893 0
M  V30 3219 C 313.301 -0.30445 5.25319 0
M  V30 3220 O 312.327 0.296473 5.68427 0
M  V30 3221 N 313.529 -1.59805 5.5807 0
M  V30 3222 H 316.294 1.28497 2.70756 0
M  V30 3223 H 313.855 0.822798 1.39433 0
M  V30 3224 H 315.847 -0.926134 3.9396 0
M  V30 3225 H 314.417 -1.15918 2.90313 0
M  V30 3226 H 313.637 1.17288 3.76347 0
M  V30 3227 H 314.925 1.06119 4.97611 0
M  V30 3228 H 314.323 -2.10823 5.24948 0
M  V30 3229 H 312.88 -2.06822 6.18116 0
M  V30 3230 N 316.313 -1.40141 0.720998 0
M  V30 3231 C 317.276 -2.29058 0.0805834 0
M  V30 3232 C 318.276 -1.45632 -0.681758 0
M  V30 3233 O 319.466 -1.6648 -0.512856 0
M  V30 3234 C 316.598 -3.28925 -0.895593 0
M  V30 3235 H 317.791 -2.87191 0.863793 0
M  V30 3236 H 315.344 -1.48553 0.485975 0
M  V30 3237 H 316.079 -2.75822 -1.70566 0
M  V30 3238 H 315.864 -3.90519 -0.351766 0
M  V30 3239 H 317.354 -3.95494 -1.34069 0
M  V30 3240 N 317.792 -0.46758 -1.50504 0
M  V30 3241 C 318.739 0.328413 -2.28452 0
M  V30 3242 C 319.709 0.990313 -1.33349 0
M  V30 3243 O 320.894 1.00343 -1.62284 0
M  V30 3244 C 318.034 1.40648 -3.15138 0
M  V30 3245 C 317.147 0.759709 -4.25267 0
M  V30 3246 C 316.282 1.81537 -4.99217 0
M  V30 3247 C 315.321 1.14866 -6.01226 0
M  V30 3248 N 314.458 2.14702 -6.68467 0
M  V30 3249 H 319.298 -0.342603 -2.96024 0
M  V30 3250 H 316.835 -0.180801 -1.45985 0
M  V30 3251 H 318.793 2.04315 -3.63746 0
M  V30 3252 H 317.423 2.04671 -2.49619 0
M  V30 3253 H 316.475 0.0105671 -3.80399 0
M  V30 3254 H 317.787 0.233243 -4.98254 0
M  V30 3255 H 316.941 2.52793 -5.51526 0
M  V30 3256 H 315.68 2.37564 -4.25928 0
M  V30 3257 H 314.685 0.42171 -5.4818 0
M  V30 3258 H 315.91 0.595334 -6.76485 0
M  V30 3259 H 313.856 2.69752 -5.97972 0
M  V30 3260 H 313.773 1.6703 -7.37317 0
M  V30 3261 H 315.041 2.85348 -7.25394 0
M  V30 3262 N 319.27 1.56325 -0.20005 0
M  V30 3263 C 320.516 1.98012 0.438059 0
M  V30 3264 C 320.849 1.08702 1.60927 0
M  V30 3265 O 320.124 0.140064 1.93995 0
M  V30 3266 C 320.407 3.48841 0.893419 0
M  V30 3267 C 320.26 4.48928 -0.279947 0
M  V30 3268 C 321.579 4.03498 1.75719 0
M  V30 3269 H 318.698 0.719918 0.157757 0
M  V30 3270 H 321.34 1.87743 -0.291968 0
M  V30 3271 H 319.49 3.57723 1.51547 0
M  V30 3272 H 321.162 4.52079 -0.91772 0
M  V30 3273 H 319.405 4.23694 -0.930919 0
M  V30 3274 H 320.076 5.5194 0.0812601 0
M  V30 3275 H 322.552 3.97427 1.23253 0
M  V30 3276 H 321.428 5.09393 2.04476 0
M  V30 3277 H 321.689 3.4906 2.71311 0
M  V30 3278 N 320.748 -0.0735177 1.57428 0
M  V30 3279 C 321.973 -0.789787 1.91774 0
M  V30 3280 C 322.398 -1.70413 0.796306 0
M  V30 3281 O 321.756 -1.79555 -0.250961 0
M  V30 3282 C 321.804 -1.5609 3.25067 0
M  V30 3283 O 320.908 -2.67144 3.14178 0
M  V30 3284 H 320.249 -0.215582 0.628029 0
M  V30 3285 H 322.779 -0.0422781 2.04556 0
M  V30 3286 H 322.789 -1.94052 3.58898 0
M  V30 3287 H 321.464 -0.890015 4.06265 0
M  V30 3288 H 320.041 -2.32052 2.91901 0
M  V30 3289 N 322.226 -1.5378 -0.344866 0
M  V30 3290 C 323.176 -1.78057 -1.42407 0
M  V30 3291 C 324.16 -0.635732 -1.47808 0
M  V30 3292 O 325.352 -0.89508 -1.527 0
M  V30 3293 C 322.481 -1.99242 -2.79566 0
M  V30 3294 C 321.567 -3.19787 -2.78562 0
M  V30 3295 N 321.958 -4.41284 -2.47189 0
M  V30 3296 C 320.256 -3.2093 -3.0971 0
M  V30 3297 C 320.957 -5.23128 -2.54385 0
M  V30 3298 N 319.933 -4.59813 -2.89953 0
M  V30 3299 H 323.735 -2.69588 -1.17046 0
M  V30 3300 H 321.249 -1.52687 -0.553217 0
M  V30 3301 H 323.246 -2.14768 -3.57324 0
M  V30 3302 H 321.906 -1.08953 -3.05875 0
M  V30 3303 H 322.917 -4.68657 -2.20411 0
M  V30 3304 H 319.594 -2.40603 -3.41199 0
M  V30 3305 H 320.984 -6.30096 -2.333 0
M  V30 3306 N 323.704 0.605807 -1.45491 0
M  V30 3307 C 324.667 1.69836 -1.5391 0
M  V30 3308 C 325.667 1.55261 -0.418424 0
M  V30 3309 O 326.857 1.60296 -0.681965 0
M  V30 3310 C 323.989 3.09117 -1.43734 0
M  V30 3311 H 325.182 1.63738 -2.51257 0
M  V30 3312 H 322.735 0.821689 -1.32959 0
M  V30 3313 H 323.47 3.20791 -0.475788 0
M  V30 3314 H 323.255 3.21104 -2.25021 0
M  V30 3315 H 324.745 3.88696 -1.52661 0
M  V30 3316 N 325.182 1.32811 0.848464 0
M  V30 3317 C 326.13 1.22231 1.97895 0
M  V30 3318 C 327.124 0.125749 1.68933 0
M  V30 3319 O 328.33 0.289083 1.77663 0
M  V30 3320 H 324.705 0.379058 0.649476 0
M  V30 3321 H 326.676 2.17828 2.03945 0
M  V30 3322 C 325.425 0.968572 3.33937 0
M  V30 3323 H 324.748 1.80458 3.56756 0
M  V30 3324 H 326.188 0.934808 4.13567 0
M  V30 3325 C 324.647 -0.328628 3.35293 0
M  V30 3326 O 325.177 -1.33848 3.78745 0
M  V30 3327 N 323.383 -0.352788 2.88451 0
M  V30 3328 H 322.93 0.469541 2.53285 0
M  V30 3329 H 322.888 -1.22057 2.89741 0
M  V30 3330 N 326.66 -1.06551 1.16123 0
M  V30 3331 C 327.909 -1.78687 0.935622 0
M  V30 3332 C 328.222 -1.88056 -0.538001 0
M  V30 3333 O 329.428 -2.56794 -0.88143 0
M  V30 3334 C 327.884 -3.21143 1.62466 0
M  V30 3335 C 327.492 -3.19949 3.13587 0
M  V30 3336 C 329.236 -3.9783 1.48092 0
M  V30 3337 C 327.143 -4.57108 3.75241 0
M  V30 3338 H 326.073 -0.669712 0.346412 0
M  V30 3339 H 328.724 -1.19534 1.39226 0
M  V30 3340 H 327.106 -3.80539 1.09572 0
M  V30 3341 H 328.28 -2.70151 3.73303 0
M  V30 3342 H 326.595 -2.5676 3.27816 0
M  V30 3343 H 329.192 -4.99217 1.91538 0
M  V30 3344 H 329.535 -4.14078 0.429507 0
M  V30 3345 H 330.068 -3.4495 1.98127 0
M  V30 3346 H 326.807 -4.46065 4.80319 0
M  V30 3347 H 326.327 -5.07111 3.20309 0
M  V30 3348 H 328.006 -5.26069 3.76644 0
M  V30 3349 N 328.138 -0.959301 -1.25041 0
M  V30 3350 C 329.085 -0.482057 -2.2571 0
M  V30 3351 C 330.055 0.467939 -1.59372 0
M  V30 3352 O 331.24 0.380159 -1.86974 0
M  V30 3353 C 328.38 0.229623 -3.44335 0
M  V30 3354 C 327.493 -0.758156 -4.25295 0
M  V30 3355 C 326.628 -0.0234403 -5.31195 0
M  V30 3356 C 325.667 -1.00184 -6.03846 0
M  V30 3357 N 324.804 -0.29769 -7.01469 0
M  V30 3358 H 329.644 -1.34538 -2.65901 0
M  V30 3359 H 327.181 -0.674592 -1.3072 0
M  V30 3360 H 329.139 0.658856 -4.11965 0
M  V30 3361 H 327.769 1.05696 -3.05005 0
M  V30 3362 H 326.821 -1.30586 -3.57284 0
M  V30 3363 H 328.133 -1.50458 -4.75567 0
M  V30 3364 H 327.287 0.464201 -6.04922 0
M  V30 3365 H 326.026 0.755741 -4.81809 0
M  V30 3366 H 325.031 -1.50044 -5.2893 0
M  V30 3367 H 326.256 -1.78133 -6.55321 0
M  V30 3368 H 324.202 0.462668 -6.54366 0
M  V30 3369 H 324.119 -0.983128 -7.4958 0
M  V30 3370 H 325.387 0.16826 -7.79318 0
M  V30 3371 N 329.616 1.39756 -0.72842 0
M  V30 3372 C 330.864 2.00248 -0.272946 0
M  V30 3373 C 331.185 1.58077 1.14178 0
M  V30 3374 O 330.455 0.826014 1.77634 0
M  V30 3375 H 329.035 0.740554 -0.0979247 0
M  V30 3376 H 331.697 1.70903 -0.936912 0
M  V30 3377 H 330.793 3.10495 -0.316142 0
M  V30 3378 N 331.094 0.475555 1.50254 0
M  V30 3379 C 332.343 -0.0795996 2.01543 0
M  V30 3380 C 332.656 -1.4038 1.36209 0
M  V30 3381 O 333.862 -2.04415 1.7868 0
M  V30 3382 C 332.318 -0.192363 3.59386 0
M  V30 3383 C 331.926 1.12367 4.33679 0
M  V30 3384 C 333.67 -0.699238 4.18701 0
M  V30 3385 C 331.577 0.974453 5.83317 0
M  V30 3386 H 330.507 -0.0335228 0.753254 0
M  V30 3387 H 333.158 0.611128 1.73025 0
M  V30 3388 H 331.54 -0.946974 3.84511 0
M  V30 3389 H 332.714 1.88958 4.20276 0
M  V30 3390 H 331.029 1.562 3.85993 0
M  V30 3391 H 333.626 -0.827978 5.28251 0
M  V30 3392 H 333.969 -1.69171 3.80377 0
M  V30 3393 H 334.502 -0.00188807 3.978 0
M  V30 3394 H 331.241 1.94042 6.26121 0
M  V30 3395 H 330.761 0.248998 5.99283 0
M  V30 3396 H 332.44 0.642867 6.43798 0
M  V30 3397 N 332.573 -1.56217 0.208337 0
M  V30 3398 C 333.85 -1.89739 -0.475234 0
M  V30 3399 C 334.23 -1.1238 -1.78701 0
M  V30 3400 O 333.578 -0.228979 -2.2735 0
M  V30 3401 C 333.788 -3.42289 -0.681101 0
M  V30 3402 C 335.136 -4.12789 -0.994507 0
M  V30 3403 O 336.16 -3.47814 -0.768357 0
M  V30 3404 O 335.019 -5.27649 -1.42299 0
M  V30 3405 H 332.113 -0.788478 -0.249461 0
M  V30 3406 H 334.659 -1.67855 0.249538 0
M  V30 3407 H 333.431 -3.90534 0.244722 0
M  V30 3408 H 333.054 -3.69909 -1.45785 0
M  V30 3409 N 334.051 0.0651679 -1.57465 0
M  V30 3410 C 335.279 0.775808 -1.91804 0
M  V30 3411 C 335.694 1.70782 -0.804916 0
M  V30 3412 O 335.051 1.81153 0.221311 0
M  V30 3413 C 335.102 1.56381 -3.25925 0
M  V30 3414 O 334.823 0.669248 -4.32958 0
M  V30 3415 C 336.324 2.37485 -3.7432 0
M  V30 3416 H 333.544 0.2202 -0.63384 0
M  V30 3417 H 336.088 0.0334587 -2.04473 0
M  V30 3418 H 334.243 2.25837 -3.14764 0
M  V30 3419 H 334.657 1.21801 -5.10162 0
M  V30 3420 H 336.131 2.88223 -4.70778 0
M  V30 3421 H 336.608 3.17307 -3.03666 0
M  V30 3422 H 337.214 1.73173 -3.88447 0
M  V30 3423 N 335.529 1.53961 0.336706 0
M  V30 3424 C 336.754 1.75797 1.10046 0
M  V30 3425 C 337.179 0.498985 1.81361 0
M  V30 3426 O 336.537 -0.548769 1.72795 0
M  V30 3427 C 336.585 2.94257 2.08436 0
M  V30 3428 O 335.689 2.64883 3.16087 0
M  V30 3429 H 335.03 0.582936 0.317934 0
M  V30 3430 H 337.56 2.00945 0.38501 0
M  V30 3431 H 337.57 3.21237 2.51537 0
M  V30 3432 H 336.245 3.85564 1.55927 0
M  V30 3433 H 334.822 2.48812 2.77753 0
M  V30 3434 N 337.007 -0.598083 1.45811 0
M  V30 3435 C 337.917 -1.73632 1.57763 0
M  V30 3436 C 338.933 -1.67763 0.461676 0
M  V30 3437 O 340.109 -1.87949 0.723685 0
M  V30 3438 C 337.174 -3.10114 1.55018 0
M  V30 3439 C 336.235 -3.27364 2.77726 0
M  V30 3440 C 335.468 -4.57334 2.75102 0
M  V30 3441 O 335.691 -5.40258 1.8297 0
M  V30 3442 O 334.625 -4.77502 3.66437 0
M  V30 3443 H 338.451 -1.66498 2.53992 0
M  V30 3444 H 336.036 -0.763308 1.28429 0
M  V30 3445 H 337.918 -3.9141 1.56129 0
M  V30 3446 H 336.593 -3.17718 0.619431 0
M  V30 3447 H 335.5 -2.45619 2.82174 0
M  V30 3448 H 336.833 -3.24641 3.69958 0
M  V30 3449 N 338.485 -1.33259 -0.841409 0
M  V30 3450 C 339.448 -1.23221 -1.9326 0
M  V30 3451 C 340.448 -0.151895 -1.60081 0
M  V30 3452 O 341.638 -0.403246 -1.69468 0
M  V30 3453 C 338.77 -0.898123 -3.28856 0
M  V30 3454 H 339.963 -2.2021 -2.03587 0
M  V30 3455 H 337.516 -1.17281 -1.03319 0
M  V30 3456 H 338.251 0.0693841 -3.24226 0
M  V30 3457 H 338.036 -1.67934 -3.54317 0
M  V30 3458 H 339.526 -0.852563 -4.08805 0
M  V30 3459 N 339.963 1.05934 -1.16686 0
M  V30 3460 C 340.893 2.1546 -0.899949 0
M  V30 3461 C 341.874 1.69391 0.155154 0
M  V30 3462 O 343.059 1.94199 0.00648693 0
M  V30 3463 C 340.189 3.44939 -0.404241 0
M  V30 3464 C 339.143 4.04536 -1.39767 0
M  V30 3465 C 338.469 5.29268 -0.760216 0
M  V30 3466 C 339.769 4.42893 -2.76845 0
M  V30 3467 H 341.463 2.38046 -1.81588 0
M  V30 3468 H 339.009 1.14404 -0.874514 0
M  V30 3469 H 340.962 4.20901 -0.204971 0
M  V30 3470 H 339.686 3.21983 0.547206 0
M  V30 3471 H 338.345 3.30635 -1.58355 0
M  V30 3472 H 337.993 5.02611 0.197831 0
M  V30 3473 H 337.693 5.70101 -1.42332 0
M  V30 3474 H 339.217 6.07924 -0.57105 0
M  V30 3475 H 340.631 5.09921 -2.62019 0
M  V30 3476 H 339.028 4.94721 -3.39663 0
M  V30 3477 H 340.098 3.53584 -3.31823 0
M  V30 3478 N 341.441 0.965919 1.2453 0
M  V30 3479 C 342.669 0.644385 1.96609 0
M  V30 3480 C 343.084 -0.785823 1.71669 0
M  V30 3481 O 342.441 -1.52703 0.999399 0
M  V30 3482 C 342.492 0.907375 3.49927 0
M  V30 3483 O 342.213 2.28136 3.74013 0
M  V30 3484 C 343.714 0.599784 4.39224 0
M  V30 3485 H 340.934 0.240588 0.626385 0
M  V30 3486 H 343.478 1.29337 1.58405 0
M  V30 3487 H 341.633 0.304631 3.862 0
M  V30 3488 H 342.047 2.36002 4.68405 0
M  V30 3489 H 343.521 0.834263 5.45659 0
M  V30 3490 H 343.998 -0.465921 4.36722 0
M  V30 3491 H 344.604 1.18235 4.08535 0
M  V30 3492 N 342.919 -1.39368 0.735821 0
M  V30 3493 C 343.852 -2.28155 0.0451175 0
M  V30 3494 C 344.83 -1.44433 -0.746852 0
M  V30 3495 O 346.014 -1.73823 -0.729237 0
M  V30 3496 C 343.141 -3.253 -0.943266 0
M  V30 3497 C 342.187 -4.25826 -0.239685 0
M  V30 3498 S 343.02 -5.25166 1.04693 0
M  V30 3499 C 344.176 -6.2587 0.0611639 0
M  V30 3500 H 344.409 -2.86388 0.79807 0
M  V30 3501 H 341.942 -1.45104 0.527653 0
M  V30 3502 H 343.9 -3.81789 -1.50824 0
M  V30 3503 H 342.561 -2.66085 -1.66906 0
M  V30 3504 H 341.754 -4.94229 -0.987596 0
M  V30 3505 H 341.356 -3.73141 0.253274 0
M  V30 3506 H 343.648 -6.73007 -0.778941 0
M  V30 3507 H 344.591 -7.04508 0.712362 0
M  V30 3508 H 344.999 -5.63639 -0.311602 0
M  V30 3509 N 344.397 -0.483516 -1.5 0
M  V30 3510 C 345.808 -0.0314176 -1.86674 0
M  V30 3511 C 346.159 1.37728 -1.39733 0
M  V30 3512 O 345.284 2.02327 -0.767635 0
M  V30 3513 C 345.879 -0.0502376 -3.38763 0
M  V30 3514 C 344.438 0.346442 -3.74802 0
M  V30 3515 C 343.585 -0.430366 -2.7394 0
M  V30 3516 H 346.536 -0.697182 -1.42566 0
M  V30 3517 H 346.557 0.749116 -3.73053 0
M  V30 3518 H 346.069 -1.07563 -3.72897 0
M  V30 3519 H 344.17 1.37572 -3.46273 0
M  V30 3520 H 344.283 0.0391486 -4.79084 0
M  V30 3521 H 342.647 0.117557 -2.54429 0
M  V30 3522 H 343.43 -1.4555 -3.10918 0
M  V30 3523 N 345.875 1.56104 -0.216619 0
M  V30 3524 C 347.123 1.97781 0.415593 0
M  V30 3525 C 347.444 1.10536 1.60645 0
M  V30 3526 O 346.714 0.181303 1.95059 0
M  V30 3527 H 345.294 0.730415 0.156534 0
M  V30 3528 H 347.956 1.92445 -0.308366 0
M  V30 3529 H 347.052 3.03072 0.74525 0
M  V30 3530 N 347.353 -0.0568162 1.57498 0
M  V30 3531 C 348.599 -0.75422 1.88253 0
M  V30 3532 C 348.932 -1.76461 0.810865 0
M  V30 3533 O 348.207 -1.93691 -0.177259 0
M  V30 3534 C 348.49 -1.44878 3.2967 0
M  V30 3535 C 348.343 -0.453789 4.47505 0
M  V30 3536 C 349.662 -2.38994 3.69554 0
M  V30 3537 H 346.781 -0.272724 0.684683 0
M  V30 3538 H 349.423 -0.0172113 1.89992 0
M  V30 3539 H 347.573 -2.077 3.28318 0
M  V30 3540 H 349.245 0.170371 4.60985 0
M  V30 3541 H 347.488 0.229552 4.33192 0
M  V30 3542 H 348.159 -0.977699 5.43273 0
M  V30 3543 H 350.635 -1.86239 3.72095 0
M  V30 3544 H 349.511 -2.84587 4.69363 0
M  V30 3545 H 349.772 -3.24461 3.00296 0
M  V30 3546 N 348.832 -1.54138 -0.328536 0
M  V30 3547 C 349.782 -1.79557 -1.4051 0
M  V30 3548 C 350.766 -0.651373 -1.47126 0
M  V30 3549 O 351.958 -0.911226 -1.51742 0
M  V30 3550 C 349.087 -2.02196 -2.77438 0
M  V30 3551 C 348.173 -3.22724 -2.75155 0
M  V30 3552 N 348.564 -4.43881 -2.42494 0
M  V30 3553 C 346.862 -3.24196 -3.06289 0
M  V30 3554 C 347.563 -5.25797 -2.48822 0
M  V30 3555 N 346.539 -4.62862 -2.8506 0
M  V30 3556 H 350.341 -2.70814 -1.1418 0
M  V30 3557 H 347.855 -1.53265 -0.536991 0
M  V30 3558 H 349.852 -2.18546 -3.55026 0
M  V30 3559 H 348.512 -1.12191 -3.04702 0
M  V30 3560 H 349.523 -4.70969 -2.15428 0
M  V30 3561 H 346.2 -2.44208 -3.38627 0
M  V30 3562 H 347.59 -6.32535 -2.26603 0
M  V30 3563 N 350.31 0.590341 -1.46126 0
M  V30 3564 C 351.535 1.37991 -1.54833 0
M  V30 3565 C 351.96 1.87163 -0.187506 0
M  V30 3566 O 351.318 1.61133 0.831008 0
M  V30 3567 C 351.366 2.54867 -2.55098 0
M  V30 3568 O 350.47 3.56061 -2.08073 0
M  V30 3569 H 349.811 0.411265 -0.521303 0
M  V30 3570 H 352.341 0.716819 -1.91632 0
M  V30 3571 H 352.351 3.01886 -2.74461 0
M  V30 3572 H 351.026 2.18429 -3.53923 0
M  V30 3573 H 349.603 3.15574 -1.98664 0
M  V30 3574 N 351.788 1.33704 0.83433 0
M  V30 3575 C 353.034 1.25603 1.59222 0
M  V30 3576 C 353.367 -0.176659 1.93395 0
M  V30 3577 O 352.642 -1.11915 1.59076 0
M  V30 3578 C 352.925 2.13576 2.89926 0
M  V30 3579 C 352.778 3.65326 2.62406 0
M  V30 3580 C 354.097 2.01238 3.91397 0
M  V30 3581 H 351.216 0.457613 0.577719 0
M  V30 3582 H 353.858 1.63848 0.961972 0
M  V30 3583 H 352.008 1.8109 3.43713 0
M  V30 3584 H 353.68 4.08124 2.15017 0
M  V30 3585 H 351.923 3.8698 1.96033 0
M  V30 3586 H 352.594 4.22232 3.55562 0
M  V30 3587 H 355.07 2.29738 3.46929 0
M  V30 3588 H 353.946 2.65036 4.80673 0
M  V30 3589 H 354.207 0.985951 4.30966 0
M  V30 3590 N 353.266 -1.05314 1.17247 0
M  V30 3591 C 354.515 -1.77685 0.954521 0
M  V30 3592 C 354.828 -1.88616 -0.518025 0
M  V30 3593 O 356.034 -2.57714 -0.854144 0
M  V30 3594 C 354.49 -3.19402 1.65863 0
M  V30 3595 C 354.098 -3.16605 3.16963 0
M  V30 3596 C 355.842 -3.96237 1.52303 0
M  V30 3597 C 353.749 -4.53103 3.80068 0
M  V30 3598 H 352.679 -0.666 0.353496 0
M  V30 3599 H 355.33 -1.1805 1.40486 0
M  V30 3600 H 353.712 -3.79355 1.13602 0
M  V30 3601 H 354.886 -2.66176 3.76148 0
M  V30 3602 H 353.201 -2.53268 3.30521 0
M  V30 3603 H 355.798 -4.97157 1.96822 0
M  V30 3604 H 356.141 -4.136 0.473401 0
M  V30 3605 H 356.674 -3.42829 2.01775 0
M  V30 3606 H 353.413 -4.40946 4.85023 0
M  V30 3607 H 352.933 -5.03686 3.2567 0
M  V30 3608 H 354.612 -5.22045 3.82202 0
M  V30 3609 N 354.744 -0.972509 -1.24016 0
M  V30 3610 C 355.972 -0.654803 -1.96265 0
M  V30 3611 C 356.387 0.776708 -1.72083 0
M  V30 3612 O 355.744 1.52171 -1.00748 0
M  V30 3613 C 355.795 -0.92592 -3.49441 0
M  V30 3614 O 355.516 -2.30116 -3.72798 0
M  V30 3615 C 357.017 -0.623068 -4.38899 0
M  V30 3616 H 354.237 -0.243907 -0.6251 0
M  V30 3617 H 356.781 -1.30175 -1.57717 0
M  V30 3618 H 354.936 -0.325108 -3.86033 0
M  V30 3619 H 355.35 -2.38483 -4.67147 0
M  V30 3620 H 356.824 -0.863189 -5.45209 0
M  V30 3621 H 357.301 0.442754 -4.36963 0
M  V30 3622 H 357.907 -1.204 -4.07902 0
M  V30 3623 N 356.222 1.38976 -0.743202 0
M  V30 3624 C 357.172 2.27843 -0.084513 0
M  V30 3625 C 358.156 1.44677 0.704094 0
M  V30 3626 O 359.348 1.67511 0.571755 0
M  V30 3627 C 356.477 3.33466 0.815781 0
M  V30 3628 C 355.563 4.24095 0.0208844 0
M  V30 3629 N 355.954 4.95609 -1.0102 0
M  V30 3630 C 354.252 4.45303 0.249293 0
M  V30 3631 C 354.953 5.62287 -1.49024 0
M  V30 3632 N 353.929 5.37571 -0.807377 0
M  V30 3633 H 357.731 2.80593 -0.87436 0
M  V30 3634 H 355.245 1.51755 -0.578283 0
M  V30 3635 H 357.242 3.96008 1.30321 0
M  V30 3636 H 355.902 2.82276 1.6047 0
M  V30 3637 H 356.913 4.98849 -1.39176 0
M  V30 3638 H 353.59 4.0504 1.01237 0
M  V30 3639 H 354.98 6.29519 -2.34853 0
M  V30 3640 N 357.7 0.491464 1.49741 0
M  V30 3641 C 358.647 -0.292027 2.28945 0
M  V30 3642 C 359.617 -0.968973 1.34908 0
M  V30 3643 O 360.802 -0.97748 1.6386 0
M  V30 3644 C 357.942 -1.35617 3.17336 0
M  V30 3645 C 357.055 -0.691957 4.26422 0
M  V30 3646 C 356.19 -1.73572 5.02042 0
M  V30 3647 C 355.229 -1.05286 6.02977 0
M  V30 3648 N 354.366 -2.0404 6.71798 0
M  V30 3649 H 359.206 0.389654 2.95442 0
M  V30 3650 H 356.743 0.204003 1.45679 0
M  V30 3651 H 358.701 -1.98502 3.66951 0
M  V30 3652 H 357.331 -2.00674 2.52844 0
M  V30 3653 H 356.383 0.0499523 3.80367 0
M  V30 3654 H 357.695 -0.153946 4.98562 0
M  V30 3655 H 356.849 -2.43987 5.55478 0
M  V30 3656 H 355.588 -2.30757 4.29654 0
M  V30 3657 H 354.593 -0.334446 5.48782 0
M  V30 3658 H 355.818 -0.487636 6.77347 0
M  V30 3659 H 353.764 -2.60205 6.02187 0
M  V30 3660 H 353.681 -1.55279 7.39881 0
M  V30 3661 H 354.949 -2.73772 7.29842 0
M  V30 3662 N 359.178 -1.55987 0.224894 0
M  V30 3663 C 360.455 -1.90232 -0.455083 0
M  V30 3664 C 360.835 -1.14269 -1.77499 0
M  V30 3665 O 360.183 -0.253079 -2.27094 0
M  V30 3666 C 360.393 -3.42993 -0.644758 0
M  V30 3667 C 361.741 -4.13821 -0.950669 0
M  V30 3668 O 362.765 -3.4861 -0.731423 0
M  V30 3669 O 361.624 -5.29128 -1.36695 0
M  V30 3670 H 358.718 -0.79108 -0.241084 0
M  V30 3671 H 361.264 -1.67581 0.267327 0
M  V30 3672 H 360.036 -3.90252 0.28613 0
M  V30 3673 H 359.659 -3.71434 -1.41853 0
M  V30 3674 N 360.656 0.0484629 -1.57525 0
M  V30 3675 C 361.902 0.744226 -1.88651 0
M  V30 3676 C 362.235 1.76029 -0.820212 0
M  V30 3677 O 361.51 1.93782 0.166985 0
M  V30 3678 C 361.793 1.43128 -3.30434 0
M  V30 3679 C 361.646 0.43005 -4.47739 0
M  V30 3680 C 362.965 2.37031 -3.70816 0
M  V30 3681 H 360.084 0.269089 -0.68612 0
M  V30 3682 H 362.726 0.00713532 -1.89999 0
M  V30 3683 H 360.876 2.05956 -3.29415 0
M  V30 3684 H 362.548 -0.194816 -4.60888 0
M  V30 3685 H 360.791 -0.252522 -4.33064 0
M  V30 3686 H 361.462 0.948874 -5.43783 0
M  V30 3687 H 363.938 1.84263 -3.73077 0
M  V30 3688 H 362.814 2.82094 -4.70865 0
M  V30 3689 H 363.075 3.22864 -3.02012 0
M  V30 3690 N 362.134 1.5431 0.320358 0
M  V30 3691 C 363.081 1.83918 1.39438 0
M  V30 3692 C 364.051 0.686525 1.51248 0
M  V30 3693 O 365.236 0.933269 1.66417 0
M  V30 3694 C 362.376 2.075 2.75749 0
M  V30 3695 C 361.489 3.35177 2.72544 0
M  V30 3696 C 360.624 3.48704 4.00723 0
M  V30 3697 C 359.663 4.70244 3.91838 0
M  V30 3698 N 358.8 4.80679 5.11754 0
M  V30 3699 H 363.64 2.75544 1.13489 0
M  V30 3700 H 361.177 1.36459 0.549309 0
M  V30 3701 H 363.135 2.19166 3.54996 0
M  V30 3702 H 361.765 1.19163 3 0
M  V30 3703 H 360.817 3.32233 1.85271 0
M  V30 3704 H 362.129 4.24534 2.61863 0
M  V30 3705 H 361.283 3.59928 4.88402 0
M  V30 3706 H 360.022 2.57445 4.14214 0
M  V30 3707 H 359.027 4.59072 3.02544 0
M  V30 3708 H 360.252 5.6289 3.7991 0
M  V30 3709 H 358.198 3.92337 5.25745 0
M  V30 3710 H 358.115 5.64007 5.0342 0
M  V30 3711 H 359.383 4.96239 6.01138 0
M  V30 3712 N 363.613 -0.582584 1.46437 0
M  V30 3713 C 364.861 -1.33814 1.51453 0
M  V30 3714 C 365.182 -1.94277 0.167792 0
M  V30 3715 O 364.452 -1.78566 -0.805677 0
M  V30 3716 H 363.032 -0.496838 0.557818 0
M  V30 3717 H 365.694 -0.682281 1.82568 0
M  V30 3718 H 364.79 -2.14479 2.26728 0
M  V30 3719 N 365.091 -1.34144 -0.827227 0
M  V30 3720 C 366.038 -1.25364 -1.93785 0
M  V30 3721 C 367.008 -0.129774 -1.65592 0
M  V30 3722 O 368.193 -0.310024 -1.88264 0
M  V30 3723 C 365.333 -1.01064 -3.2997 0
M  V30 3724 C 364.446 -2.22185 -3.70484 0
M  V30 3725 C 363.581 -1.91203 -4.95595 0
M  V30 3726 C 362.62 -3.08491 -5.28677 0
M  V30 3727 N 361.757 -2.77421 -6.44967 0
M  V30 3728 H 366.597 -2.20347 -2.00627 0
M  V30 3729 H 364.134 -1.09558 -0.981608 0
M  V30 3730 H 366.092 -0.850139 -4.08446 0
M  V30 3731 H 364.722 -0.0975026 -3.22653 0
M  V30 3732 H 363.774 -2.4917 -2.87434 0
M  V30 3733 H 365.086 -3.0983 -3.90905 0
M  V30 3734 H 364.24 -1.71864 -5.81848 0
M  V30 3735 H 362.979 -1.00812 -4.77167 0
M  V30 3736 H 361.984 -3.28431 -4.40923 0
M  V30 3737 H 363.209 -3.99655 -5.49047 0
M  V30 3738 H 361.155 -1.89601 -6.28003 0
M  V30 3739 H 361.072 -3.58598 -6.6554 0
M  V30 3740 H 362.34 -2.61577 -7.34301 0
M  V30 3741 N 366.569 1.04691 -1.17803 0
M  V30 3742 C 367.517 2.14665 -0.895635 0
M  V30 3743 C 368.511 1.68806 0.141679 0
M  V30 3744 O 369.717 1.79999 -0.00587914 0
M  V30 3745 H 366.092 0.701038 -0.272121 0
M  V30 3746 H 368.063 2.35685 -1.83017 0
M  V30 3747 C 366.812 3.45019 -0.430962 0
M  V30 3748 H 366.135 3.8071 -1.22064 0
M  V30 3749 H 367.575 4.23125 -0.272301 0
M  V30 3750 C 366.034 3.25943 0.852207 0
M  V30 3751 O 366.564 3.5296 1.91786 0
M  V30 3752 N 364.77 2.79304 0.802346 0
M  V30 3753 H 364.317 2.57518 -0.0650788 0
M  V30 3754 H 364.275 2.66921 1.66134 0
M  V30 3755 N 368.047 0.979072 1.23499 0
M  V30 3756 C 369.463 0.687475 1.44034 0
M  V30 3757 C 369.663 -0.746801 1.8715 0
M  V30 3758 O 368.719 -1.51939 2.0167 0
M  V30 3759 C 370.032 1.68127 2.49307 0
M  V30 3760 C 371.58 1.69516 2.63122 0
M  V30 3761 C 372.055 2.67723 3.71603 0
M  V30 3762 N 373.546 2.66233 3.79044 0
M  V30 3763 C 374.281 3.38891 4.62537 0
M  V30 3764 N 373.777 4.21103 5.50131 0
M  V30 3765 N 375.57 3.27661 4.56721 0
M  V30 3766 H 367.721 1.90559 0.938135 0
M  V30 3767 H 369.984 0.821051 0.473897 0
M  V30 3768 H 369.69 2.70693 2.2454 0
M  V30 3769 H 369.564 1.46306 3.4767 0
M  V30 3770 H 371.951 0.676561 2.8724 0
M  V30 3771 H 372.032 1.95404 1.65079 0
M  V30 3772 H 371.676 3.69724 3.48233 0
M  V30 3773 H 371.606 2.39111 4.69184 0
M  V30 3774 H 374.097 2.06568 3.16446 0
M  V30 3775 H 374.41 4.73403 6.10827 0
M  V30 3776 H 372.755 4.25195 5.49759 0
M  V30 3777 H 375.946 2.62887 3.87309 0
M  V30 3778 H 376.119 3.84547 5.21562 0
M  V30 3779 N 369.525 -1.3858 0.750561 0
M  V30 3780 C 370.774 -1.99424 0.302172 0
M  V30 3781 C 371.087 -1.60254 -1.12152 0
M  V30 3782 O 372.293 -2.14046 -1.67023 0
M  V30 3783 C 370.749 -3.56558 0.489307 0
M  V30 3784 C 370.357 -4.04682 1.92189 0
M  V30 3785 C 372.101 -4.24374 0.103478 0
M  V30 3786 C 370.008 -5.54446 2.05775 0
M  V30 3787 H 368.938 -0.746046 0.10923 0
M  V30 3788 H 371.589 -1.58383 0.92667 0
M  V30 3789 H 369.971 -3.95472 -0.204329 0
M  V30 3790 H 371.145 -3.77065 2.64875 0
M  V30 3791 H 369.46 -3.4958 2.26236 0
M  V30 3792 H 372.057 -5.34384 0.183787 0
M  V30 3793 H 372.4 -4.05468 -0.943481 0
M  V30 3794 H 372.933 -3.90688 0.748854 0
M  V30 3795 H 369.672 -5.78252 3.08714 0
M  V30 3796 H 369.192 -5.83816 1.37546 0
M  V30 3797 H 370.871 -6.20099 1.84626 0
M  V30 3798 N 371.003 -0.499398 -1.49478 0
M  V30 3799 C 372.231 0.0425456 -2.06856 0
M  V30 3800 C 372.646 1.30964 -1.35992 0
M  V30 3801 O 372.003 1.77172 -0.437762 0
M  V30 3802 C 372.054 0.301735 -3.60239 0
M  V30 3803 O 371.775 -0.915127 -4.28436 0
M  V30 3804 C 373.276 0.887499 -4.34325 0
M  V30 3805 H 370.496 -0.0197482 -0.670709 0
M  V30 3806 H 373.04 -0.696297 -1.92281 0
M  V30 3807 H 371.195 0.990556 -3.74522 0
M  V30 3808 H 371.609 -0.676993 -5.20113 0
M  V30 3809 H 373.083 1.01845 -5.42523 0
M  V30 3810 H 373.56 1.88488 -3.96698 0
M  V30 3811 H 374.166 0.236196 -4.24644 0
M  V30 3812 N 372.481 1.55866 -0.233164 0
M  V30 3813 C 373.729 1.9821 0.394593 0
M  V30 3814 C 374.05 1.12234 1.59463 0
M  V30 3815 O 373.32 0.201981 1.94856 0
M  V30 3816 H 371.9 0.732034 0.148778 0
M  V30 3817 H 374.562 1.92107 -0.32876 0
M  V30 3818 H 373.658 3.03845 0.713063 0
M  V30 3819 N 373.959 -0.0401083 1.57549 0
M  V30 3820 C 374.889 -1.04384 2.08869 0
M  V30 3821 C 375.87 -1.38407 0.988817 0
M  V30 3822 O 377.055 -1.47483 1.26342 0
M  V30 3823 C 374.185 -2.34808 2.55895 0
M  V30 3824 C 373.139 -2.15057 3.70047 0
M  V30 3825 C 372.465 -3.51145 4.03239 0
M  V30 3826 C 373.765 -1.54576 4.98902 0
M  V30 3827 H 375.459 -0.616666 2.92981 0
M  V30 3828 H 373.005 -0.295184 1.40942 0
M  V30 3829 H 374.958 -3.05346 2.90417 0
M  V30 3830 H 373.682 -2.79565 1.68853 0
M  V30 3831 H 372.341 -1.46954 3.35857 0
M  V30 3832 H 371.989 -3.93529 3.13279 0
M  V30 3833 H 371.689 -3.38758 4.80122 0
M  V30 3834 H 373.213 -4.23062 4.40285 0
M  V30 3835 H 374.627 -2.15017 5.31451 0
M  V30 3836 H 373.024 -1.52796 5.80322 0
M  V30 3837 H 374.094 -0.51039 4.82206 0
M  V30 3838 N 375.437 -1.54477 -0.31217 0
M  V30 3839 C 376.686 -1.72438 -1.04633 0
M  V30 3840 C 376.999 -0.511163 -1.88803 0
M  V30 3841 O 378.205 -0.572341 -2.65399 0
M  V30 3842 C 376.661 -3.05043 -1.9099 0
M  V30 3843 C 376.269 -4.33806 -1.11877 0
M  V30 3844 C 378.013 -3.32364 -2.64073 0
M  V30 3845 C 375.92 -5.57467 -1.97445 0
M  V30 3846 H 374.85 -0.642647 -0.394361 0
M  V30 3847 H 377.501 -1.80966 -0.303929 0
M  V30 3848 H 375.883 -2.90451 -2.69173 0
M  V30 3849 H 377.057 -4.59199 -0.383843 0
M  V30 3850 H 375.372 -4.13336 -0.504252 0
M  V30 3851 H 377.969 -4.21951 -3.28423 0
M  V30 3852 H 378.312 -2.50745 -3.32314 0
M  V30 3853 H 378.845 -3.47875 -1.92944 0
M  V30 3854 H 375.584 -6.41722 -1.33692 0
M  V30 3855 H 375.104 -5.36277 -2.6864 0
M  V30 3856 H 376.783 -5.94303 -2.5576 0
M  V30 3857 N 376.915 0.57481 -1.46744 0
M  V30 3858 C 378.143 1.35856 -1.56047 0
M  V30 3859 C 378.558 1.87691 -0.204365 0
M  V30 3860 O 377.915 1.64049 0.79963 0
M  V30 3861 C 377.966 2.54066 -2.57163 0
M  V30 3862 O 377.687 2.04377 -3.87507 0
M  V30 3863 C 379.188 3.46514 -2.76483 0
M  V30 3864 H 376.408 0.414754 -0.527466 0
M  V30 3865 H 378.952 0.698035 -1.92218 0
M  V30 3866 H 377.107 3.16092 -2.23974 0
M  V30 3867 H 377.521 2.81419 -4.4261 0
M  V30 3868 H 378.995 4.25919 -3.51137 0
M  V30 3869 H 379.472 3.98951 -1.83671 0
M  V30 3870 H 380.078 2.90318 -3.10799 0
M  V30 3871 N 378.394 1.34581 0.820102 0
M  V30 3872 C 379.641 1.27096 1.57648 0
M  V30 3873 C 379.969 -0.158317 1.93855 0
M  V30 3874 O 379.224 -1.12028 1.60463 0
M  V30 3875 C 379.523 2.10997 2.8847 0
M  V30 3876 C 379.189 3.59966 2.71543 0
M  V30 3877 C 377.851 4.00575 2.66634 0
M  V30 3878 C 380.203 4.54548 2.55021 0
M  V30 3879 C 377.531 5.33953 2.43128 0
M  V30 3880 C 379.883 5.88109 2.33047 0
M  V30 3881 C 378.547 6.27878 2.26552 0
M  V30 3882 H 377.817 0.465078 0.576874 0
M  V30 3883 H 380.464 1.6635 0.948671 0
M  V30 3884 H 378.769 1.6458 3.55557 0
M  V30 3885 H 380.466 2.0255 3.46084 0
M  V30 3886 H 377.056 3.27733 2.76205 0
M  V30 3887 H 381.24 4.24069 2.57835 0
M  V30 3888 H 376.496 5.63781 2.3656 0
M  V30 3889 H 380.67 6.60985 2.19251 0
M  V30 3890 H 378.297 7.31162 2.081 0
M  V30 3891 N 379.872 -1.04064 1.18357 0
M  V30 3892 C 381.283 -1.58719 0.98312 0
M  V30 3893 C 381.634 -1.90556 -0.467193 0
M  V30 3894 O 380.759 -1.69561 -1.34454 0
M  V30 3895 C 381.354 -2.88379 1.77828 0
M  V30 3896 C 379.913 -3.3965 1.62218 0
M  V30 3897 C 379.06 -2.13235 1.77274 0
M  V30 3898 H 382.011 -0.867359 1.32901 0
M  V30 3899 H 382.032 -3.58773 1.26737 0
M  V30 3900 H 381.544 -2.65176 2.83379 0
M  V30 3901 H 379.645 -3.67866 0.592036 0
M  V30 3902 H 379.758 -4.13475 2.42023 0
M  V30 3903 H 378.122 -2.24542 1.20221 0
M  V30 3904 H 378.905 -1.92487 2.8426 0
M  V30 3905 N 381.35 -0.985608 -1.22978 0
M  V30 3906 C 382.578 -0.675582 -1.95559 0
M  V30 3907 C 382.993 0.758413 -1.72897 0
M  V30 3908 O 382.35 1.51094 -1.02357 0
M  V30 3909 C 382.401 -0.96293 -3.48439 0
M  V30 3910 O 382.122 -2.34057 -3.70336 0
M  V30 3911 C 383.623 -0.669585 -4.38214 0
M  V30 3912 H 380.843 -0.250523 -0.622478 0
M  V30 3913 H 383.387 -1.3184 -1.56328 0
M  V30 3914 H 381.542 -0.366033 -3.85667 0
M  V30 3915 H 381.956 -2.43424 -4.64591 0
M  V30 3916 H 383.43 -0.920967 -5.44263 0
M  V30 3917 H 383.907 0.396383 -4.37408 0
M  V30 3918 H 384.513 -1.2472 -4.06602 0
M  V30 3919 N 382.828 1.3818 -0.7579 0
M  V30 3920 C 383.776 2.32277 -0.122482 0
M  V30 3921 C 384.77 1.54238 0.700505 0
M  V30 3922 O 385.976 1.69737 0.599119 0
M  V30 3923 H 382.351 0.751712 -0.0208143 0
M  V30 3924 H 384.322 2.83469 -0.932099 0
M  V30 3925 C 383.071 3.39447 0.753076 0
M  V30 3926 H 382.394 3.99591 0.129184 0
M  V30 3927 H 383.834 4.07684 1.16489 0
M  V30 3928 C 382.293 2.78375 1.8976 0
M  V30 3929 O 382.823 2.68025 2.99208 0
M  V30 3930 N 381.029 2.36121 1.69397 0
M  V30 3931 H 380.576 2.4474 0.803762 0
M  V30 3932 H 380.534 1.95602 2.46145 0
M  V30 3933 N 384.306 0.507319 1.49211 0
M  V30 3934 C 385.253 -0.267728 2.29242 0
M  V30 3935 C 386.223 -0.954609 1.35928 0
M  V30 3936 O 387.408 -0.960046 1.64887 0
M  V30 3937 C 384.548 -1.32243 3.18756 0
M  V30 3938 C 383.661 -0.64669 4.27132 0
M  V30 3939 C 382.796 -1.68238 5.03855 0
M  V30 3940 C 381.835 -0.98885 6.0406 0
M  V30 3941 N 380.972 -1.96903 6.73924 0
M  V30 3942 H 385.812 0.420968 2.95012 0
M  V30 3943 H 383.349 0.219443 1.45454 0
M  V30 3944 H 385.307 -1.94599 3.69036 0
M  V30 3945 H 383.937 -1.97981 2.54958 0
M  V30 3946 H 382.989 0.0902926 3.80293 0
M  V30 3947 H 384.301 -0.101058 4.98698 0
M  V30 3948 H 383.455 -2.38081 5.58034 0
M  V30 3949 H 382.194 -2.26187 4.32077 0
M  V30 3950 H 381.199 -0.276222 5.49106 0
M  V30 3951 H 382.424 -0.415767 6.77826 0
M  V30 3952 H 380.37 -2.53803 6.04913 0
M  V30 3953 H 380.287 -1.47423 7.41487 0
M  V30 3954 H 381.555 -2.66015 7.32705 0
M  V30 3955 N 385.784 -1.5574 0.241426 0
M  V30 3956 C 387.032 -1.98417 -0.384075 0
M  V30 3957 C 387.353 -1.13078 -1.58866 0
M  V30 3958 O 386.623 -0.212312 -1.94746 0
M  V30 3959 H 385.203 -0.732813 -0.144894 0
M  V30 3960 H 387.865 -1.9193 0.338943 0
M  V30 3961 H 386.961 -3.04219 -0.696939 0
M  V30 3962 N 387.262 0.0317525 -1.57568 0
M  V30 3963 C 388.539 0.758366 -1.803 0
M  V30 3964 C 388.919 1.93718 -0.838845 0
M  V30 3965 O 388.267 2.28187 0.119571 0
M  V30 3966 C 388.477 1.19392 -3.27943 0
M  V30 3967 C 389.825 1.61094 -3.92854 0
M  V30 3968 O 390.849 1.28857 -3.32076 0
M  V30 3969 O 389.708 2.20918 -4.99858 0
M  V30 3970 H 386.802 0.366514 -0.741348 0
M  V30 3971 H 389.348 0.00873765 -1.69698 0
M  V30 3972 H 388.12 0.352275 -3.89711 0
M  V30 3973 H 387.743 2.00365 -3.43424 0
M  V30 3974 N 388.74 1.54641 0.303973 0
M  V30 3975 C 389.988 1.73437 1.0375 0
M  V30 3976 C 390.309 0.521449 1.87899 0
M  V30 3977 O 389.579 -0.46432 1.90318 0
M  V30 3978 H 388.159 0.639518 0.386039 0
M  V30 3979 H 390.821 1.91988 0.335675 0
M  V30 3980 H 389.917 2.62235 1.69231 0
M  V30 3981 N 390.218 -0.567019 1.47046 0
M  V30 3982 C 391.464 -1.32434 1.54379 0
M  V30 3983 C 391.819 -1.91365 0.199276 0
M  V30 3984 O 391.112 -1.74378 -0.793915 0
M  V30 3985 C 391.306 -2.4623 2.59047 0
M  V30 3986 C 391.135 -1.98448 4.03545 0
M  V30 3987 C 389.905 -1.82741 4.71098 0
M  V30 3988 C 392.103 -1.53477 4.90866 0
M  V30 3989 N 390.085 -1.29196 6.00151 0
M  V30 3990 C 391.456 -1.1163 6.09868 0
M  V30 3991 C 393.511 -1.41438 4.77388 0
M  V30 3992 C 392.214 -0.589425 7.16881 0
M  V30 3993 C 394.24 -0.901528 5.84488 0
M  V30 3994 C 393.602 -0.492932 7.02673 0
M  V30 3995 H 389.701 -0.477005 0.61967 0
M  V30 3996 H 392.285 -0.643856 1.83746 0
M  V30 3997 H 390.456 -3.11821 2.31564 0
M  V30 3998 H 392.188 -3.13213 2.56281 0
M  V30 3999 H 388.943 -2.05162 4.26855 0
M  V30 4000 H 389.367 -1.0454 6.6888 0
M  V30 4001 H 394.009 -1.71643 3.86392 0
M  V30 4002 H 391.727 -0.274994 8.07632 0
M  V30 4003 H 395.313 -0.812071 5.76105 0
M  V30 4004 H 394.193 -0.102227 7.84133 0
M  V30 4005 N 391.696 -1.35014 -0.812953 0
M  V30 4006 C 392.973 -1.18502 -1.55617 0
M  V30 4007 C 393.353 0.238421 -2.09749 0
M  V30 4008 O 392.701 1.2411 -1.91857 0
M  V30 4009 C 392.911 -2.24783 -2.66971 0
M  V30 4010 C 394.259 -2.60268 -3.35478 0
M  V30 4011 O 395.283 -2.23648 -2.77236 0
M  V30 4012 O 394.142 -3.2321 -4.40678 0
M  V30 4013 H 391.236 -0.459984 -0.687272 0
M  V30 4014 H 393.782 -1.46677 -0.853464 0
M  V30 4015 H 392.554 -3.20284 -2.24798 0
M  V30 4016 H 392.177 -1.97841 -3.44884 0
M  V30 4017 N 393.175 1.03435 -1.18907 0
M  V30 4018 C 394.591 1.28973 -0.940111 0
M  V30 4019 C 394.791 1.97676 0.390691 0
M  V30 4020 O 393.847 2.26127 1.12352 0
M  V30 4021 C 395.16 2.14221 -2.11021 0
M  V30 4022 C 396.708 2.27547 -2.14922 0
M  V30 4023 C 397.183 3.16164 -3.31367 0
M  V30 4024 N 398.674 3.23752 -3.31269 0
M  V30 4025 C 399.409 3.92495 -4.18014 0
M  V30 4026 N 398.905 4.63515 -5.14904 0
M  V30 4027 N 400.698 3.88838 -4.05908 0
M  V30 4028 H 392.849 0.57252 -2.04538 0
M  V30 4029 H 395.112 0.315184 -0.894071 0
M  V30 4030 H 394.818 1.71054 -3.073 0
M  V30 4031 H 394.692 3.14919 -2.0762 0
M  V30 4032 H 397.079 2.69947 -1.19217 0
M  V30 4033 H 397.16 1.26418 -2.22378 0
M  V30 4034 H 396.804 2.74474 -4.27348 0
M  V30 4035 H 396.734 4.17339 -3.21148 0
M  V30 4036 H 399.225 2.73167 -2.61129 0
M  V30 4037 H 399.538 5.13583 -5.77453 0
M  V30 4038 H 397.883 4.62398 -5.18857 0
M  V30 4039 H 401.074 3.32491 -3.29495 0
M  V30 4040 H 401.247 4.4214 -4.73726 0
M  V30 4041 N 394.653 0.992116 1.22453 0
M  V30 4042 C 396.064 0.702776 1.72968 0
M  V30 4043 C 396.415 -0.780399 1.80012 0
M  V30 4044 O 395.54 -1.61007 1.44589 0
M  V30 4045 C 396.135 1.26903 3.14135 0
M  V30 4046 C 394.694 1.02909 3.62059 0
M  V30 4047 C 393.841 1.38969 2.39964 0
M  V30 4048 H 396.792 1.16457 1.07812 0
M  V30 4049 H 396.813 0.647223 3.74955 0
M  V30 4050 H 396.325 2.34851 3.08977 0
M  V30 4051 H 394.426 -0.0337979 3.72585 0
M  V30 4052 H 394.539 1.69191 4.48231 0
M  V30 4053 H 392.903 0.808279 2.41535 0
M  V30 4054 H 393.686 2.4792 2.37467 0
M  V30 4055 N 396.131 -1.37776 0.765217 0
M  V30 4056 C 397.38 -1.99092 0.323307 0
M  V30 4057 C 397.693 -1.61434 -1.10446 0
M  V30 4058 O 398.899 -2.15805 -1.64743 0
M  V30 4059 C 397.355 -3.56019 0.527098 0
M  V30 4060 C 396.963 -4.0262 1.96471 0
M  V30 4061 C 398.707 -4.2424 0.148483 0
M  V30 4062 C 396.614 -5.52233 2.11644 0
M  V30 4063 H 395.544 -0.744846 0.117137 0
M  V30 4064 H 398.195 -1.57391 0.943417 0
M  V30 4065 H 396.577 -3.95667 -0.162372 0
M  V30 4066 H 397.751 -3.74234 2.68859 0
M  V30 4067 H 396.066 -3.47161 2.29931 0
M  V30 4068 H 398.663 -5.34159 0.240456 0
M  V30 4069 H 399.006 -4.06446 -0.900422 0
M  V30 4070 H 399.539 -3.89872 0.79025 0
M  V30 4071 H 396.278 -5.74945 3.1483 0
M  V30 4072 H 395.798 -5.82324 1.4373 0
M  V30 4073 H 397.477 -6.18106 1.91193 0
M  V30 4074 N 397.609 -0.515225 -1.4894 0
M  V30 4075 C 398.539 0.244628 -2.32215 0
M  V30 4076 C 399.52 0.949136 -1.41157 0
M  V30 4077 O 400.705 0.937783 -1.70057 0
M  V30 4078 C 397.835 1.30096 -3.22013 0
M  V30 4079 C 396.789 0.715486 -4.21977 0
M  V30 4080 C 396.115 1.87339 -5.00808 0
M  V30 4081 C 397.415 -0.302982 -5.2142 0
M  V30 4082 H 399.109 -0.450501 -2.95991 0
M  V30 4083 H 396.655 -0.218098 -1.42339 0
M  V30 4084 H 398.608 1.84037 -3.79089 0
M  V30 4085 H 397.332 2.02547 -2.56207 0
M  V30 4086 H 395.991 0.197715 -3.66066 0
M  V30 4087 H 395.639 2.58592 -4.31438 0
M  V30 4088 H 395.339 1.48764 -5.68457 0
M  V30 4089 H 396.863 2.41686 -5.60732 0
M  V30 4090 H 398.277 0.148802 -5.73107 0
M  V30 4091 H 396.674 -0.60532 -5.97039 0
M  V30 4092 H 397.744 -1.21395 -4.69459 0
M  V30 4093 N 399.087 1.5561 -0.249682 0
M  V30 4094 C 400.327 2.00916 0.37579 0
M  V30 4095 C 400.691 1.13409 1.54927 0
M  V30 4096 O 401.892 1.48183 2.24266 0
M  V30 4097 C 400.163 3.48949 0.772633 0
M  V30 4098 S 401.722 4.16261 1.38824 0
M  V30 4099 H 398.54 0.70112 0.118117 0
M  V30 4100 H 401.142 1.92052 -0.365567 0
M  V30 4101 H 399.846 4.103 -0.090683 0
M  V30 4102 H 399.377 3.61745 1.5461 0
M  V30 4103 H 401.392 4.17778 2.67724 0
M  V30 4104 N 400.565 -0.0233959 1.57583 0
M  V30 4105 C 401.842 -0.748794 1.807 0
M  V30 4106 C 402.222 -1.9327 0.849106 0
M  V30 4107 O 401.57 -2.28247 -0.107468 0
M  V30 4108 C 401.78 -1.17651 3.28571 0
M  V30 4109 C 403.128 -1.59008 3.93702 0
M  V30 4110 O 404.152 -1.27094 3.32755 0
M  V30 4111 O 403.011 -2.18264 5.01022 0
M  V30 4112 H 400.105 -0.362578 0.743281 0
M  V30 4113 H 402.651 0.000261958 1.697 0
M  V30 4114 H 401.423 -0.331603 3.89892 0
M  V30 4115 H 401.046 -1.98541 3.44481 0
M  V30 4116 N 402.043 -1.548 -0.295768 0
M  V30 4117 C 402.953 -1.89177 -1.38742 0
M  V30 4118 C 403.969 -0.786481 -1.55211 0
M  V30 4119 O 405.145 -1.08344 -1.69775 0
M  V30 4120 C 402.21 -2.13663 -2.73036 0
M  V30 4121 C 401.271 -3.37349 -2.65508 0
M  V30 4122 C 400.504 -3.60658 -3.93398 0
M  V30 4123 O 400.727 -2.86882 -4.93006 0
M  V30 4124 O 399.661 -4.54179 -3.94975 0
M  V30 4125 H 403.487 -2.82059 -1.12589 0
M  V30 4126 H 401.072 -1.41056 -0.492295 0
M  V30 4127 H 402.954 -2.3094 -3.52484 0
M  V30 4128 H 401.629 -1.23967 -2.99022 0
M  V30 4129 H 400.536 -3.25431 -1.84514 0
M  V30 4130 H 401.869 -4.27192 -2.44474 0
M  V30 4131 N 403.521 0.559213 -1.47345 0
M  V30 4132 C 404.468 1.66645 -1.59682 0
M  V30 4133 C 405.438 1.60168 -0.43994 0
M  V30 4134 O 406.623 1.79031 -0.659736 0
M  V30 4135 C 403.763 3.04969 -1.61518 0
M  V30 4136 C 402.876 3.21897 -2.88108 0
M  V30 4137 C 402.011 4.50608 -2.81294 0
M  V30 4138 C 401.05 4.60961 -4.02717 0
M  V30 4139 N 400.187 5.81024 -3.94151 0
M  V30 4140 H 405.027 1.55439 -2.54249 0
M  V30 4141 H 402.564 0.757219 -1.26113 0
M  V30 4142 H 404.522 3.85064 -1.60566 0
M  V30 4143 H 403.152 3.15015 -0.704645 0
M  V30 4144 H 402.204 2.35248 -2.98936 0
M  V30 4145 H 403.516 3.25412 -3.78032 0
M  V30 4146 H 402.67 5.3896 -2.7858 0
M  V30 4147 H 401.409 4.49568 -1.89049 0
M  V30 4148 H 400.414 3.71021 -4.05738 0
M  V30 4149 H 401.639 4.63761 -4.96087 0
M  V30 4150 H 399.585 5.80938 -3.04708 0
M  V30 4151 H 399.502 5.85909 -4.77752 0
M  V30 4152 H 400.77 6.71744 -3.9545 0
M  V30 4153 N 404.999 1.35443 0.805782 0
M  V30 4154 C 406.245 1.28952 1.56522 0
M  V30 4155 C 406.578 -0.135597 1.93726 0
M  V30 4156 O 405.853 -1.08516 1.61414 0
M  V30 4157 C 406.136 2.19678 2.85331 0
M  V30 4158 C 405.989 3.7081 2.54598 0
M  V30 4159 C 407.308 2.09495 3.8704 0
M  V30 4160 H 404.427 0.469764 0.567883 0
M  V30 4161 H 407.069 1.65851 0.927001 0
M  V30 4162 H 405.219 1.8834 3.39795 0
M  V30 4163 H 406.891 4.12593 2.06312 0
M  V30 4164 H 405.134 3.91051 1.8778 0
M  V30 4165 H 405.805 4.29679 3.46525 0
M  V30 4166 H 408.281 2.37045 3.41978 0
M  V30 4167 H 407.157 2.75173 4.74943 0
M  V30 4168 H 407.418 1.07714 4.28777 0
M  V30 4169 N 406.477 -1.02803 1.19454 0
M  V30 4170 C 407.724 -1.76217 0.997693 0
M  V30 4171 C 408.052 -1.887 -0.47144 0
M  V30 4172 O 407.307 -1.4011 -1.3663 0
M  V30 4173 C 407.606 -3.18941 1.6128 0
M  V30 4174 C 407.272 -3.26463 3.11019 0
M  V30 4175 C 405.934 -3.28223 3.51885 0
M  V30 4176 C 408.286 -3.25542 4.07028 0
M  V30 4177 C 405.614 -3.26719 4.8731 0
M  V30 4178 C 407.966 -3.25579 5.42385 0
M  V30 4179 C 406.63 -3.25637 5.82681 0
M  V30 4180 H 405.9 -0.644823 0.365082 0
M  V30 4181 H 408.547 -1.20655 1.4871 0
M  V30 4182 H 406.852 -3.77587 1.04572 0
M  V30 4183 H 408.549 -3.74415 1.43577 0
M  V30 4184 H 405.139 -3.25822 2.78457 0
M  V30 4185 H 409.323 -3.23362 3.76498 0
M  V30 4186 H 404.579 -3.25089 5.1781 0
M  V30 4187 H 408.753 -3.23817 6.16535 0
M  V30 4188 H 406.38 -3.24226 6.87591 0
M  V30 4189 N 407.956 -0.998596 -1.21925 0
M  V30 4190 C 408.888 -0.511879 -2.23411 0
M  V30 4191 C 409.901 0.396094 -1.57908 0
M  V30 4192 O 411.09 0.197316 -1.77406 0
M  V30 4193 C 408.19 0.276802 -3.37768 0
M  V30 4194 C 407.363 -0.628687 -4.32858 0
M  V30 4195 C 406.422 0.109272 -5.26087 0
M  V30 4196 O 405.448 -0.507237 -5.66935 0
M  V30 4197 N 406.65 1.38983 -5.63617 0
M  V30 4198 H 409.415 -1.38457 -2.658 0
M  V30 4199 H 406.976 -0.873981 -1.36283 0
M  V30 4200 H 408.968 0.77928 -3.97126 0
M  V30 4201 H 407.538 1.05063 -2.94415 0
M  V30 4202 H 406.758 -1.31175 -3.71735 0
M  V30 4203 H 408.046 -1.24514 -4.93329 0
M  V30 4204 H 407.444 1.91194 -5.32411 0
M  V30 4205 H 406.001 1.83739 -6.25367 0
M  V30 4206 N 409.434 1.37368 -0.772513 0
M  V30 4207 C 410.664 2.03647 -0.348082 0
M  V30 4208 C 411.072 1.58392 1.03482 0
M  V30 4209 O 410.415 0.760921 1.672 0
M  V30 4210 C 410.477 3.58131 -0.313404 0
M  V30 4211 C 410.141 4.2652 -1.64102 0
M  V30 4212 C 411.138 4.50587 -2.5936 0
M  V30 4213 C 408.823 4.64335 -1.91567 0
M  V30 4214 C 410.817 5.11526 -3.80289 0
M  V30 4215 C 408.504 5.24996 -3.12766 0
M  V30 4216 C 409.502 5.48529 -4.06946 0
M  V30 4217 O 409.19 6.07921 -5.26011 0
M  V30 4218 H 408.922 0.660538 -0.143753 0
M  V30 4219 H 411.476 1.76669 -1.04772 0
M  V30 4220 H 409.706 3.84159 0.442617 0
M  V30 4221 H 411.395 4.05813 0.0840613 0
M  V30 4222 H 412.161 4.21784 -2.39423 0
M  V30 4223 H 408.04 4.45353 -1.19088 0
M  V30 4224 H 411.584 5.29811 -4.53813 0
M  V30 4225 H 407.481 5.53223 -3.32588 0
M  V30 4226 H 408.249 6.26398 -5.26847 0
M  V30 4227 N 410.912 0.523116 1.48665 0
M  V30 4228 C 412.16 -0.0134497 2.02096 0
M  V30 4229 C 412.481 -1.35418 1.40311 0
M  V30 4230 O 411.751 -1.87543 0.566074 0
M  V30 4231 H 410.331 -0.00795915 0.746958 0
M  V30 4232 H 412.993 0.685388 1.82451 0
M  V30 4233 H 412.089 -0.126849 3.11842 0
M  V30 4234 N 412.39 -1.55475 0.257931 0
M  V30 4235 C 413.667 -1.91155 -0.414629 0
M  V30 4236 C 414.047 -1.18008 -1.75035 0
M  V30 4237 O 413.395 -0.301193 -2.26506 0
M  V30 4238 C 413.605 -3.44283 -0.571859 0
M  V30 4239 C 414.953 -4.15744 -0.862678 0
M  V30 4240 O 415.977 -3.50083 -0.657314 0
M  V30 4241 O 414.836 -5.31909 -1.2544 0
M  V30 4242 H 411.93 -0.796016 -0.22425 0
M  V30 4243 H 414.476 -1.66976 0.302814 0
M  V30 4244 H 413.248 -3.89558 0.368844 0
M  V30 4245 H 412.871 -3.7436 -1.33943 0
M  V30 4246 N 413.868 0.0150385 -1.57593 0
M  V30 4247 C 415.108 0.70768 -1.91758 0
M  V30 4248 C 415.472 1.71764 -0.857974 0
M  V30 4249 O 416.673 2.45956 -1.0844 0
M  V30 4250 C 414.944 1.34736 -3.3103 0
M  V30 4251 S 416.503 2.06721 -3.87056 0
M  V30 4252 H 413.321 0.234119 -0.671349 0
M  V30 4253 H 415.923 -0.0380373 -1.95463 0
M  V30 4254 H 414.627 0.59926 -4.06001 0
M  V30 4255 H 414.158 2.13133 -3.30663 0
M  V30 4256 H 416.173 3.34047 -3.66915 0
M  V30 4257 N 415.346 1.54954 0.287554 0
M  V30 4258 C 416.595 1.74081 1.01877 0
M  V30 4259 C 416.908 0.541135 1.87966 0
M  V30 4260 O 418.114 0.614491 2.64455 0
M  V30 4261 C 416.57 3.08042 1.86113 0
M  V30 4262 C 416.178 4.35531 1.04961 0
M  V30 4263 C 417.922 3.36523 2.58752 0
M  V30 4264 C 415.829 5.60538 1.88551 0
M  V30 4265 H 414.759 0.64884 0.384087 0
M  V30 4266 H 417.41 1.81426 0.275101 0
M  V30 4267 H 415.792 2.94696 2.64519 0
M  V30 4268 H 416.966 4.59751 0.31074 0
M  V30 4269 H 415.281 4.14085 0.43843 0
M  V30 4270 H 417.878 4.27122 3.21668 0
M  V30 4271 H 418.221 2.56 3.28283 0
M  V30 4272 H 418.754 3.50901 1.87386 0
M  V30 4273 H 415.493 6.43767 1.23466 0
M  V30 4274 H 415.013 5.40483 2.60074 0
M  V30 4275 H 416.692 5.98297 2.46273 0
M  V30 4276 N 416.824 -0.551391 1.4764 0
M  V30 4277 C 417.787 -1.64007 1.60107 0
M  V30 4278 C 418.787 -1.53601 0.47576 0
M  V30 4279 O 419.977 -1.57655 0.740988 0
M  V30 4280 C 417.109 -3.03569 1.55108 0
M  V30 4281 H 418.302 -1.543 2.57161 0
M  V30 4282 H 415.855 -0.771776 1.35917 0
M  V30 4283 H 416.59 -3.18804 0.594519 0
M  V30 4284 H 416.375 -3.12532 2.36783 0
M  V30 4285 H 417.865 -3.82762 1.66982 0
M  V30 4286 N 418.302 -1.35869 -0.798587 0
M  V30 4287 C 419.232 -1.32118 -1.92528 0
M  V30 4288 C 420.213 -0.194209 -1.68988 0
M  V30 4289 O 421.398 -0.390426 -1.90235 0
M  V30 4290 C 418.528 -1.10047 -3.29404 0
M  V30 4291 C 417.482 -2.19471 -3.67446 0
M  V30 4292 C 416.808 -1.82555 -5.02571 0
M  V30 4293 C 418.108 -3.61495 -3.76987 0
M  V30 4294 H 419.802 -2.26394 -1.95924 0
M  V30 4295 H 417.348 -1.08981 -0.94123 0
M  V30 4296 H 419.301 -1.06061 -4.07835 0
M  V30 4297 H 418.025 -0.122195 -3.26371 0
M  V30 4298 H 416.684 -2.22568 -2.91306 0
M  V30 4299 H 416.332 -0.833249 -4.9605 0
M  V30 4300 H 416.032 -2.5581 -5.28995 0
M  V30 4301 H 417.556 -1.80108 -5.83432 0
M  V30 4302 H 418.97 -3.60676 -4.4563 0
M  V30 4303 H 417.367 -4.33577 -4.14887 0
M  V30 4304 H 418.437 -3.97065 -2.78329 0
M  V30 4305 N 419.78 1.02168 -1.19998 0
M  V30 4306 C 421.026 1.75945 -1.00852 0
M  V30 4307 C 421.359 1.88702 0.458828 0
M  V30 4308 O 420.634 1.40911 1.34069 0
M  V30 4309 C 420.917 3.18154 -1.68671 0
M  V30 4310 C 420.77 3.13224 -3.22817 0
M  V30 4311 C 422.089 4.16711 -1.41561 0
M  V30 4312 H 419.208 0.638673 -0.367785 0
M  V30 4313 H 421.85 1.19222 -1.4794 0
M  V30 4314 H 420 3.66586 -1.28636 0
M  V30 4315 H 421.672 2.72635 -3.72112 0
M  V30 4316 H 419.915 2.50751 -3.53986 0
M  V30 4317 H 420.586 4.13728 -3.65422 0
M  V30 4318 H 423.062 3.76913 -1.76284 0
M  V30 4319 H 421.938 5.14391 -1.91553 0
M  V30 4320 H 422.199 4.40774 -0.342193 0
M  V30 4321 N 421.258 1.00505 1.21394 0
M  V30 4322 C 422.498 0.696149 1.9218 0
M  V30 4323 C 422.862 -0.759099 1.76357 0
M  V30 4324 O 424.063 -1.17998 2.41516 0
M  V30 4325 C 422.334 1.10571 3.39866 0
M  V30 4326 S 423.893 0.91702 4.29111 0
M  V30 4327 H 420.711 0.254147 0.664026 0
M  V30 4328 H 423.313 1.28988 1.46909 0
M  V30 4329 H 422.017 2.16096 3.489 0
M  V30 4330 H 421.548 0.504268 3.90155 0
M  V30 4331 H 423.563 -0.185855 4.95852 0
M  V30 4332 N 422.737 -1.36956 0.779787 0
M  V30 4333 C 423.7 -2.2851 0.177662 0
M  V30 4334 C 424.7 -1.48393 -0.619377 0
M  V30 4335 O 425.89 -1.68505 -0.441785 0
M  V30 4336 C 423.022 -3.32428 -0.755279 0
M  V30 4337 H 424.215 -2.83269 0.984823 0
M  V30 4338 H 421.768 -1.46358 0.548544 0
M  V30 4339 H 422.503 -2.82808 -1.58714 0
M  V30 4340 H 422.288 -3.91659 -0.185817 0
M  V30 4341 H 423.778 -4.00824 -1.17174 0
M  V30 4342 N 424.215 -0.530993 -1.48385 0
M  V30 4343 C 425.492 0.0671788 -1.95485 0
M  V30 4344 C 425.872 1.51191 -1.47324 0
M  V30 4345 O 425.22 2.17507 -0.700202 0
M  V30 4346 C 425.43 -0.0511206 -3.48963 0
M  V30 4347 C 426.778 0.107632 -4.24464 0
M  V30 4348 O 427.802 0.0226248 -3.56193 0
M  V30 4349 O 426.661 0.285972 -5.45751 0
M  V30 4350 H 423.755 0.0787365 -0.823243 0
M  V30 4351 H 426.301 -0.595662 -1.58902 0
M  V30 4352 H 425.073 -1.05747 -3.7674 0
M  V30 4353 H 424.696 0.650525 -3.92242 0
M  V30 4354 N 425.693 1.55336 -0.266172 0
M  V30 4355 C 426.918 2.04258 0.359661 0
M  V30 4356 C 427.343 1.14359 1.49344 0
M  V30 4357 O 426.701 0.140369 1.80756 0
M  V30 4358 C 426.749 3.50997 0.826635 0
M  V30 4359 O 425.853 3.64204 1.93466 0
M  V30 4360 H 425.194 0.659668 0.075727 0
M  V30 4361 H 427.724 2.00694 -0.39786 0
M  V30 4362 H 427.734 3.9219 1.12477 0
M  V30 4363 H 426.409 4.159 -0.00293032 0
M  V30 4364 H 424.986 3.34913 1.63974 0
M  V30 4365 N 427.171 -0.0066808 1.57599 0
M  V30 4366 C 428.081 -1.01671 2.11424 0
M  V30 4367 C 429.097 -1.38143 1.05795 0
M  V30 4368 O 430.273 -1.47011 1.37658 0
M  V30 4369 C 427.338 -2.29192 2.60139 0
M  V30 4370 C 426.399 -1.99094 3.80342 0
M  V30 4371 C 425.632 -3.20535 4.26724 0
M  V30 4372 O 425.855 -4.3199 3.72479 0
M  V30 4373 O 424.789 -3.04924 5.18946 0
M  V30 4374 H 428.615 -0.589181 2.9793 0
M  V30 4375 H 426.2 -0.225091 1.47695 0
M  V30 4376 H 428.082 -3.0412 2.917 0
M  V30 4377 H 426.757 -2.71195 1.76733 0
M  V30 4378 H 425.664 -1.21663 3.53764 0
M  V30 4379 H 426.997 -1.61931 4.648 0
M  V30 4380 N 428.649 -1.55105 -0.279332 0
M  V30 4381 C 429.612 -1.86783 -1.32834 0
M  V30 4382 C 430.612 -0.74199 -1.42657 0
M  V30 4383 O 431.802 -1.0102 -1.41918 0
M  V30 4384 C 428.934 -2.06746 -2.71052 0
M  V30 4385 H 430.127 -2.8055 -1.05979 0
M  V30 4386 H 427.68 -1.47499 -0.517087 0
M  V30 4387 H 428.415 -1.15339 -3.03097 0
M  V30 4388 H 428.2 -2.88711 -2.65309 0
M  V30 4389 H 429.69 -2.32549 -3.46858 0
M  V30 4390 N 430.127 0.543554 -1.4793 0
M  V30 4391 C 431.075 1.67039 -1.61866 0
M  V30 4392 C 432.069 1.62294 -0.48549 0
M  V30 4393 O 433.275 1.67315 -0.66376 0
M  V30 4394 H 429.65 0.552954 -0.509652 0
M  V30 4395 H 431.621 1.52426 -2.56533 0
M  V30 4396 C 430.37 3.05357 -1.6629 0
M  V30 4397 H 429.693 3.09696 -2.5284 0
M  V30 4398 H 431.133 3.83855 -1.80088 0
M  V30 4399 C 429.592 3.34531 -0.398861 0
M  V30 4400 O 430.122 3.98649 0.494162 0
M  V30 4401 N 428.328 2.89299 -0.2747 0
M  V30 4402 H 427.875 2.37298 -1.00236 0
M  V30 4403 H 427.833 3.09188 0.570075 0
M  V30 4404 N 431.605 1.3629 0.791371 0
M  V30 4405 C 432.568 1.30309 1.88553 0
M  V30 4406 C 433.568 0.211204 1.59407 0
M  V30 4407 O 434.758 0.465865 1.67855 0
M  V30 4408 C 431.89 1.01956 3.25297 0
M  V30 4409 H 433.083 2.27614 1.95273 0
M  V30 4410 H 430.636 1.21035 0.988953 0
M  V30 4411 H 431.371 0.050998 3.2426 0
M  V30 4412 H 431.156 1.80968 3.4784 0
M  V30 4413 H 432.646 1.0037 4.05359 0
M  V30 4414 N 433.083 -1.0153 1.20538 0
M  V30 4415 C 434.499 -1.27461 0.96051 0
M  V30 4416 C 434.699 -1.98273 -0.359193 0
M  V30 4417 O 433.755 -2.27886 -1.0874 0
M  V30 4418 C 435.068 -2.10837 2.14402 0
M  V30 4419 C 436.616 -2.24099 2.18515 0
M  V30 4420 C 437.091 -3.10852 3.36355 0
M  V30 4421 N 438.582 -3.18441 3.36377 0
M  V30 4422 C 439.317 -3.85795 4.24205 0
M  V30 4423 N 438.813 -4.55264 5.22213 0
M  V30 4424 N 440.606 -3.82331 4.12043 0
M  V30 4425 H 432.757 -0.539907 2.05423 0
M  V30 4426 H 435.02 -0.30092 0.898972 0
M  V30 4427 H 434.726 -1.66144 3.09983 0
M  V30 4428 H 434.6 -3.11576 2.12604 0
M  V30 4429 H 436.987 -2.68016 1.23497 0
M  V30 4430 H 437.068 -1.22865 2.24361 0
M  V30 4431 H 436.712 -2.6764 4.31661 0
M  V30 4432 H 436.642 -4.12177 3.27746 0
M  V30 4433 H 439.133 -2.68978 2.65442 0
M  V30 4434 H 439.446 -5.04331 5.85551 0
M  V30 4435 H 437.791 -4.54085 5.26148 0
M  V30 4436 H 440.982 -3.27207 3.34743 0
M  V30 4437 H 441.155 -4.34547 4.807 0
M  V30 4438 N 434.561 -1.01147 -1.20859 0
M  V30 4439 C 435.524 -0.582224 -2.21682 0
M  V30 4440 C 436.524 0.344887 -1.57058 0
M  V30 4441 O 437.714 0.134281 -1.73682 0
M  V30 4442 C 434.846 0.150496 -3.40568 0
M  V30 4443 H 436.039 -1.47408 -2.61172 0
M  V30 4444 H 433.592 -0.800695 -1.34233 0
M  V30 4445 H 434.327 1.0575 -3.06574 0
M  V30 4446 H 434.112 -0.515444 -3.88697 0
M  V30 4447 H 435.602 0.438344 -4.15293 0
M  V30 4448 N 436.039 1.36541 -0.78704 0
M  V30 4449 C 437.002 2.28413 -0.189778 0
M  V30 4450 C 438.002 1.48719 0.611499 0
M  V30 4451 O 439.192 1.68737 0.432842 0
M  V30 4452 C 436.324 3.32824 0.737638 0
M  V30 4453 H 437.517 2.82743 -0.999831 0
M  V30 4454 H 435.07 1.46065 -0.556298 0
M  V30 4455 H 435.805 2.83646 1.57212 0
M  V30 4456 H 435.59 3.91752 0.165044 0
M  V30 4457 H 437.08 4.0144 1.15047 0
M  V30 4458 N 437.518 0.538854 1.48102 0
M  V30 4459 C 438.481 -0.208395 2.28251 0
M  V30 4460 C 439.481 -0.859656 1.35892 0
M  V30 4461 O 440.671 -0.71834 1.58699 0
M  V30 4462 C 437.803 -1.30252 3.15035 0
M  V30 4463 H 438.996 0.495407 2.9578 0
M  V30 4464 H 436.549 0.295112 1.53489 0
M  V30 4465 H 437.284 -2.0393 2.52157 0
M  V30 4466 H 437.069 -0.840551 3.82985 0
M  V30 4467 H 438.559 -1.82787 3.75471 0
M  V30 4468 N 438.996 -1.55193 0.274407 0
M  V30 4469 C 439.906 -2.26164 -0.623473 0
M  V30 4470 C 440.922 -1.28729 -1.17068 0
M  V30 4471 O 442.098 -1.61663 -1.20112 0
M  V30 4472 C 439.163 -2.96833 -1.7914 0
M  V30 4473 C 438.224 -4.09745 -1.28093 0
M  V30 4474 C 437.457 -4.77034 -2.3932 0
M  V30 4475 O 437.68 -4.4353 -3.5866 0
M  V30 4476 O 436.614 -5.64996 -2.07516 0
M  V30 4477 H 440.44 -3.03661 -0.0485661 0
M  V30 4478 H 438.025 -1.49341 0.0418382 0
M  V30 4479 H 439.907 -3.41248 -2.4724 0
M  V30 4480 H 438.582 -2.22253 -2.35341 0
M  V30 4481 H 437.489 -3.69787 -0.566416 0
M  V30 4482 H 438.822 -4.86224 -0.764683 0
M  V30 4483 N 440.474 -0.00167713 -1.576 0
M  V30 4484 C 441.421 0.989195 -2.08527 0
M  V30 4485 C 442.391 1.34031 -0.981065 0
M  V30 4486 O 443.576 1.43839 -1.2536 0
M  V30 4487 C 440.716 2.27537 -2.59463 0
M  V30 4488 C 439.829 1.98314 -3.83791 0
M  V30 4489 C 438.964 3.21025 -4.23222 0
M  V30 4490 C 438.003 2.87495 -5.40382 0
M  V30 4491 N 437.14 4.02749 -5.75098 0
M  V30 4492 H 441.98 0.547973 -2.92919 0
M  V30 4493 H 439.517 0.258917 -1.44803 0
M  V30 4494 H 441.475 3.02729 -2.87073 0
M  V30 4495 H 440.105 2.69325 -1.77943 0
M  V30 4496 H 439.157 1.13482 -3.63078 0
M  V30 4497 H 440.469 1.69601 -4.69081 0
M  V30 4498 H 439.623 4.04561 -4.52123 0
M  V30 4499 H 438.362 3.52877 -3.36644 0
M  V30 4500 H 437.367 2.02367 -5.11202 0
M  V30 4501 H 438.592 2.56889 -6.28637 0
M  V30 4502 H 436.538 4.34494 -4.91478 0
M  V30 4503 H 436.455 3.77566 -6.54966 0
M  V30 4504 H 437.723 4.87068 -6.08592 0
M  V30 4505 N 441.952 1.55251 0.271103 0
M  V30 4506 C 443.198 1.76207 1.00394 0
M  V30 4507 C 443.531 0.562604 1.85872 0
M  V30 4508 O 442.806 -0.439785 1.89463 0
M  V30 4509 C 443.089 3.06828 1.8849 0
M  V30 4510 C 442.942 4.37134 1.05992 0
M  V30 4511 C 444.261 3.33503 2.87165 0
M  V30 4512 H 441.38 0.641086 0.363562 0
M  V30 4513 H 444.022 1.87982 0.276189 0
M  V30 4514 H 442.172 2.96921 2.5054 0
M  V30 4515 H 443.844 4.59001 0.459978 0
M  V30 4516 H 442.087 4.32275 0.363443 0
M  V30 4517 H 442.758 5.2486 1.70955 0
M  V30 4518 H 445.234 3.43215 2.3525 0
M  V30 4519 H 444.11 4.2616 3.45946 0
M  V30 4520 H 444.371 2.53235 3.62387 0
M  V30 4521 N 443.43 -0.535701 1.48216 0
M  V30 4522 C 444.377 -1.64083 1.62312 0
M  V30 4523 C 445.347 -1.59448 0.465365 0
M  V30 4524 O 446.532 -1.77959 0.688135 0
M  V30 4525 C 443.672 -3.0236 1.66349 0
M  V30 4526 C 442.785 -3.17273 2.93193 0
M  V30 4527 C 441.92 -4.46075 2.88427 0
M  V30 4528 C 440.959 -4.54496 4.1 0
M  V30 4529 N 440.096 -5.7468 4.03345 0
M  V30 4530 H 444.936 -1.51374 2.5669 0
M  V30 4531 H 442.473 -0.737059 1.27302 0
M  V30 4532 H 444.431 -3.82461 1.66672 0
M  V30 4533 H 443.061 -3.13854 0.754672 0
M  V30 4534 H 442.113 -2.30462 3.02641 0
M  V30 4535 H 443.425 -3.19357 3.83162 0
M  V30 4536 H 442.579 -5.3446 2.87119 0
M  V30 4537 H 441.318 -4.46504 1.96177 0
M  V30 4538 H 440.323 -3.64519 4.11589 0
M  V30 4539 H 441.548 -4.5581 5.03402 0
M  V30 4540 H 439.494 -5.76017 3.13912 0
M  V30 4541 H 439.411 -5.78234 4.87013 0
M  V30 4542 H 440.679 -6.65367 4.06087 0
M  V30 4543 N 444.908 -1.36708 -0.784132 0
M  V30 4544 C 446.154 -1.31426 -1.54451 0
M  V30 4545 C 446.487 0.10476 -1.93917 0
M  V30 4546 O 445.762 1.05934 -1.6312 0
M  V30 4547 C 446.045 -2.24189 -2.818 0
M  V30 4548 C 445.898 -3.74813 -2.48667 0
M  V30 4549 C 447.217 -2.15626 -3.83658 0
M  V30 4550 H 444.336 -0.478739 -0.560337 0
M  V30 4551 H 446.978 -1.67305 -0.900498 0
M  V30 4552 H 445.128 -1.93722 -3.36755 0
M  V30 4553 H 446.8 -4.15823 -1.99722 0
M  V30 4554 H 445.043 -3.93989 -1.81535 0
M  V30 4555 H 445.714 -4.35138 -3.39646 0
M  V30 4556 H 448.19 -2.42456 -3.38163 0
M  V30 4557 H 447.066 -2.82694 -4.70506 0
M  V30 4558 H 447.327 -1.14522 -4.27009 0
M  V30 4559 N 446.386 1.0089 -1.21074 0
M  V30 4560 C 447.663 1.71834 -0.934469 0
M  V30 4561 C 448.043 2.0368 0.554753 0
M  V30 4562 O 447.391 1.70742 1.51854 0
M  V30 4563 C 447.601 2.98061 -1.8155 0
M  V30 4564 C 448.949 3.7117 -2.06199 0
M  V30 4565 O 449.973 3.08034 -1.78867 0
M  V30 4566 O 448.832 4.84721 -2.52404 0
M  V30 4567 H 445.926 0.749253 -0.35007 0
M  V30 4568 H 448.472 1.06668 -1.31985 0
M  V30 4569 H 447.244 2.70908 -2.82355 0
M  V30 4570 H 446.867 3.70968 -1.43068 0
M  V30 4571 N 447.864 1.01787 1.20321 0
M  V30 4572 C 448.794 0.609625 2.25401 0
M  V30 4573 C 449.775 -0.375951 1.65893 0
M  V30 4574 O 450.96 -0.261101 1.92437 0
M  V30 4575 C 448.09 -0.0515995 3.47262 0
M  V30 4576 C 447.044 0.855095 4.19371 0
M  V30 4577 C 446.37 0.0595757 5.34667 0
M  V30 4578 C 447.67 2.16374 4.75373 0
M  V30 4579 H 449.364 1.48803 2.59804 0
M  V30 4580 H 446.91 0.716934 1.24884 0
M  V30 4581 H 448.863 -0.348764 4.19954 0
M  V30 4582 H 447.587 -0.964726 3.12027 0
M  V30 4583 H 446.246 1.13628 3.48546 0
M  V30 4584 H 445.894 -0.85524 4.95676 0
M  V30 4585 H 445.594 0.663406 5.83843 0
M  V30 4586 H 447.118 -0.231105 6.10162 0
M  V30 4587 H 448.532 1.92885 5.39878 0
M  V30 4588 H 446.929 2.71853 5.34991 0
M  V30 4589 H 447.999 2.82589 3.94045 0
M  V30 4590 N 449.342 -1.36122 0.79427 0
M  V30 4591 C 450.252 -2.33769 0.197296 0
M  V30 4592 C 451.268 -1.61276 -0.653153 0
M  V30 4593 O 452.444 -1.9323 -0.5678 0
M  V30 4594 C 449.509 -3.40474 -0.654098 0
M  V30 4595 C 448.57 -4.28759 0.215411 0
M  V30 4596 C 447.803 -5.30368 -0.595443 0
M  V30 4597 O 448.026 -5.40211 -1.83107 0
M  V30 4598 O 446.96 -6.019 0.00721351 0
M  V30 4599 H 450.786 -2.86597 1.00478 0
M  V30 4600 H 448.371 -1.38676 0.555818 0
M  V30 4601 H 450.253 -4.05703 -1.13944 0
M  V30 4602 H 448.928 -2.89937 -1.43938 0
M  V30 4603 H 447.835 -3.66554 0.747615 0
M  V30 4604 H 449.168 -4.82661 0.964332 0
M  V30 4605 N 450.82 -0.546701 -1.47814 0
M  V30 4606 C 451.73 0.21026 -2.33656 0
M  V30 4607 C 452.746 0.922413 -1.47538 0
M  V30 4608 O 453.922 0.893652 -1.80488 0
M  V30 4609 C 450.987 1.23348 -3.24016 0
M  V30 4610 C 450.048 0.529883 -4.26017 0
M  V30 4611 C 449.281 1.50435 -5.12059 0
M  V30 4612 O 449.504 2.73837 -5.00369 0
M  V30 4613 O 448.438 1.03459 -5.92942 0
M  V30 4614 H 452.264 -0.493605 -2.99662 0
M  V30 4615 H 449.849 -0.307427 -1.46203 0
M  V30 4616 H 451.731 1.82438 -3.79861 0
M  V30 4617 H 450.406 1.91945 -2.60651 0
M  V30 4618 H 449.313 -0.101948 -3.73961 0
M  V30 4619 H 450.646 -0.11445 -4.92067 0
M  V30 4620 N 452.299 1.55045 -0.282633 0
M  V30 4621 C 453.229 2.2579 0.595066 0
M  V30 4622 C 454.21 1.25074 1.15284 0
M  V30 4623 O 455.395 1.5381 1.18559 0
M  V30 4624 C 452.525 2.98472 1.77572 0
M  V30 4625 C 451.479 4.0618 1.34914 0
M  V30 4626 C 450.805 4.66477 2.6135 0
M  V30 4627 C 452.105 5.1996 0.493821 0
M  V30 4628 H 453.799 2.994 0.00505653 0
M  V30 4629 H 451.345 1.44 0.000992001 0
M  V30 4630 H 453.298 3.46677 2.39568 0
M  V30 4631 H 452.022 2.2241 2.39168 0
M  V30 4632 H 450.681 3.58797 0.752338 0
M  V30 4633 H 450.329 3.87074 3.2122 0
M  V30 4634 H 450.029 5.39207 2.33516 0
M  V30 4635 H 451.553 5.17435 3.24181 0
M  V30 4636 H 452.967 5.64172 1.01898 0
M  V30 4637 H 451.364 5.99299 0.310047 0
M  V30 4638 H 452.434 4.82462 -0.485593 0
M  V30 4639 N 453.777 0.010035 1.57597 0
M  V30 4640 C 455.188 -0.531426 1.78977 0
M  V30 4641 C 455.539 -1.73375 0.918454 0
M  V30 4642 O 454.664 -2.16047 0.123635 0
M  V30 4643 C 455.259 -0.97086 3.24592 0
M  V30 4644 C 453.818 -1.45756 3.47033 0
M  V30 4645 C 452.965 -0.413384 2.74201 0
M  V30 4646 H 455.916 0.236166 1.56933 0
M  V30 4647 H 455.937 -1.83633 3.33255 0
M  V30 4648 H 455.449 -0.0955893 3.87982 0
M  V30 4649 H 453.55 -2.35339 2.88871 0
M  V30 4650 H 453.663 -1.4781 4.55729 0
M  V30 4651 H 452.027 -0.877266 2.39115 0
M  V30 4652 H 452.81 0.453092 3.40297 0
M  V30 4653 N 455.255 -1.55392 -0.262866 0
M  V30 4654 C 456.218 -1.88181 -1.30846 0
M  V30 4655 C 457.218 -0.757079 -1.41862 0
M  V30 4656 O 458.408 -1.02519 -1.40838 0
M  V30 4657 C 455.54 -2.09609 -2.68844 0
M  V30 4658 H 456.733 -2.81659 -1.02997 0
M  V30 4659 H 454.286 -1.48039 -0.501414 0
M  V30 4660 H 455.021 -1.18547 -3.01856 0
M  V30 4661 H 454.806 -2.91508 -2.62231 0
M  V30 4662 H 456.296 -2.36215 -3.44372 0
M  V30 4663 N 456.733 0.527833 -1.48498 0
M  V30 4664 C 457.963 1.30633 -1.60058 0
M  V30 4665 C 458.371 1.87394 -0.260786 0
M  V30 4666 O 457.714 1.67227 0.760317 0
M  V30 4667 C 457.776 2.49361 -2.58958 0
M  V30 4668 C 457.44 2.13671 -4.03972 0
M  V30 4669 C 458.437 1.69217 -4.91591 0
M  V30 4670 C 456.122 2.24129 -4.49524 0
M  V30 4671 C 458.116 1.35689 -6.2279 0
M  V30 4672 C 455.803 1.90212 -5.80743 0
M  V30 4673 C 456.801 1.46063 -6.67199 0
M  V30 4674 O 456.489 1.12593 -7.95976 0
M  V30 4675 H 456.221 0.403444 -0.54241 0
M  V30 4676 H 458.775 0.643233 -1.95068 0
M  V30 4677 H 457.005 3.18659 -2.19073 0
M  V30 4678 H 458.694 3.11421 -2.6033 0
M  V30 4679 H 459.46 1.60607 -4.57636 0
M  V30 4680 H 455.339 2.57447 -3.82416 0
M  V30 4681 H 458.883 1.01157 -6.90227 0
M  V30 4682 H 454.78 1.98464 -6.14233 0
M  V30 4683 H 455.548 1.25972 -8.08748 0
M  V30 4684 N 458.211 1.37122 0.776871 0
M  V30 4685 C 459.144 1.26835 1.89705 0
M  V30 4686 C 460.122 0.14992 1.61907 0
M  V30 4687 O 461.306 0.323242 1.85708 0
M  V30 4688 C 458.433 0.95986 3.24814 0
M  V30 4689 C 457.479 2.09447 3.7153 0
M  V30 4690 S 458.312 3.71368 3.85806 0
M  V30 4691 C 459.468 3.42659 5.23771 0
M  V30 4692 H 459.701 2.21647 1.98141 0
M  V30 4693 H 457.234 1.22685 0.937433 0
M  V30 4694 H 459.192 0.788696 4.02852 0
M  V30 4695 H 457.853 0.0293137 3.14086 0
M  V30 4696 H 457.046 1.8335 4.69467 0
M  V30 4697 H 456.648 2.2255 3.00578 0
M  V30 4698 H 458.94 2.9733 6.0877 0
M  V30 4699 H 459.883 4.39905 5.54878 0
M  V30 4700 H 460.291 2.77708 4.91466 0
M  V30 4701 N 459.689 -1.00246 1.21608 0
M  V30 4702 C 460.914 -1.78167 1.06167 0
M  V30 4703 C 461.339 -1.84138 -0.384035 0
M  V30 4704 O 460.697 -1.28683 -1.27712 0
M  V30 4705 C 460.745 -3.19786 1.66642 0
M  V30 4706 O 459.849 -4.02153 0.913613 0
M  V30 4707 H 459.19 -0.549 0.37349 0
M  V30 4708 H 461.72 -1.25994 1.61204 0
M  V30 4709 H 461.73 -3.70451 1.70969 0
M  V30 4710 H 460.405 -3.14754 2.7185 0
M  V30 4711 H 458.982 -3.60711 0.945635 0
M  V30 4712 N 461.167 -1.02423 -1.1978 0
M  V30 4713 C 462.415 -0.716569 -1.8897 0
M  V30 4714 C 462.736 0.756769 -1.79716 0
M  V30 4715 O 462.006 1.5449 -1.20456 0
M  V30 4716 H 460.586 -0.262062 -0.699523 0
M  V30 4717 H 463.248 -1.29747 -1.45436 0
M  V30 4718 H 462.344 -1.00675 -2.95417 0
M  V30 4719 N 462.645 1.35699 -0.801477 0
M  V30 4720 C 464.056 1.81415 -0.441073 0
M  V30 4721 C 464.407 1.66595 1.03636 0
M  V30 4722 O 463.532 1.19369 1.80499 0
M  V30 4723 C 464.127 3.29369 -0.793819 0
M  V30 4724 C 462.686 3.73248 -0.486083 0
M  V30 4725 C 461.833 2.57775 -1.02213 0
M  V30 4726 H 464.784 1.23749 -0.993572 0
M  V30 4727 H 464.805 3.80395 -0.0894158 0
M  V30 4728 H 464.317 3.40123 -1.86917 0
M  V30 4729 H 462.418 3.68046 0.580735 0
M  V30 4730 H 462.531 4.68222 -1.01513 0
M  V30 4731 H 460.895 2.50788 -0.444712 0
M  V30 4732 H 461.678 2.71309 -2.10348 0
M  V30 4733 N 464.123 0.554532 1.47522 0
M  V30 4734 C 465.086 -0.184174 2.28459 0
M  V30 4735 C 466.086 -0.845195 1.36796 0
M  V30 4736 O 467.276 -0.701467 1.59452 0
M  V30 4737 C 464.408 -1.26903 3.16399 0
M  V30 4738 H 465.601 0.526751 2.95238 0
M  V30 4739 H 463.154 0.311375 1.53167 0
M  V30 4740 H 463.889 -2.01244 2.54306 0
M  V30 4741 H 463.674 -0.799883 3.83854 0
M  V30 4742 H 465.164 -1.78794 3.77389 0
M  V30 4743 N 465.601 -1.54893 0.290851 0
M  V30 4744 C 466.564 -2.21824 -0.576784 0
M  V30 4745 C 467.564 -1.20104 -1.06919 0
M  V30 4746 O 468.754 -1.44906 -0.966843 0
M  V30 4747 C 465.886 -2.89662 -1.79747 0
M  V30 4748 H 467.079 -2.99899 0.00784051 0
M  V30 4749 H 464.632 -1.56245 0.0415934 0
M  V30 4750 H 465.367 -2.15639 -2.42219 0
M  V30 4751 H 465.152 -3.64219 -1.45214 0
M  V30 4752 H 466.642 -3.4075 -2.4141 0
M  V30 4753 N 467.08 -0.0183926 -1.57589 0
M  V30 4754 C 468.043 0.951986 -2.08494 0
M  V30 4755 C 469.043 1.26092 -0.997874 0
M  V30 4756 O 470.233 1.20304 -1.25987 0
M  V30 4757 C 467.365 2.27165 -2.54182 0
M  V30 4758 H 468.558 0.511307 -2.95509 0
M  V30 4759 H 466.111 0.229444 -1.54607 0
M  V30 4760 H 466.846 2.75884 -1.70465 0
M  V30 4761 H 466.631 2.06057 -3.33591 0
M  V30 4762 H 468.121 2.9674 -2.93828 0
M  V30 4763 N 468.558 1.5553 0.254621 0
M  V30 4764 C 469.521 1.88872 1.29846 0
M  V30 4765 C 470.521 0.764591 1.41459 0
M  V30 4766 O 471.711 1.03265 1.40293 0
M  V30 4767 C 468.843 2.11032 2.67728 0
M  V30 4768 H 470.036 2.82201 1.01502 0
M  V30 4769 H 467.589 1.48303 0.493556 0
M  V30 4770 H 468.324 1.20146 3.01223 0
M  V30 4771 H 468.109 2.92895 2.60682 0
M  V30 4772 H 469.599 2.38038 3.43115 0
M  V30 4773 N 470.036 -0.519951 1.48776 0
M  V30 4774 C 470.946 -1.65025 1.66745 0
M  V30 4775 C 471.962 -1.6508 0.549954 0
M  V30 4776 O 473.138 -1.83848 0.822295 0
M  V30 4777 C 470.203 -3.0146 1.71238 0
M  V30 4778 C 469.264 -3.12182 2.94688 0
M  V30 4779 C 468.497 -4.42109 2.98958 0
M  V30 4780 O 468.72 -5.29799 2.1135 0
M  V30 4781 O 467.654 -4.57406 3.91233 0
M  V30 4782 H 471.48 -1.52801 2.62461 0
M  V30 4783 H 469.065 -0.694157 1.32294 0
M  V30 4784 H 470.947 -3.82584 1.76657 0
M  V30 4785 H 469.622 -3.13988 0.786975 0
M  V30 4786 H 468.529 -2.30316 2.94797 0
M  V30 4787 H 469.862 -3.04574 3.86646 0
M  V30 4788 N 471.514 -1.37532 -0.769588 0
M  V30 4789 C 472.791 -1.23392 -1.51768 0
M  V30 4790 C 473.171 0.17157 -2.10402 0
M  V30 4791 O 472.519 1.17943 -1.95708 0
M  V30 4792 C 472.729 -2.33163 -2.59685 0
M  V30 4793 C 474.077 -2.70809 -3.27028 0
M  V30 4794 O 475.101 -2.32355 -2.69981 0
M  V30 4795 O 473.96 -3.37066 -4.30173 0
M  V30 4796 H 471.054 -0.481617 -0.67229 0
M  V30 4797 H 473.6 -1.49318 -0.806368 0
M  V30 4798 H 472.372 -3.27273 -2.14494 0
M  V30 4799 H 471.995 -2.08713 -3.38415 0
M  V30 4800 N 472.992 0.995999 -1.22138 0
M  V30 4801 C 473.955 2.06711 -0.990109 0
M  V30 4802 C 474.955 1.60744 0.0422978 0
M  V30 4803 O 476.145 1.73095 -0.195895 0
M  V30 4804 C 473.277 3.37288 -0.49491 0
M  V30 4805 H 474.47 2.28661 -1.94047 0
M  V30 4806 H 472.023 1.16711 -1.03963 0
M  V30 4807 H 472.758 3.21022 0.459948 0
M  V30 4808 H 472.543 3.71986 -1.23971 0
M  V30 4809 H 474.033 4.16103 -0.353253 0
M  V30 4810 N 474.47 1.03057 1.19235 0
M  V30 4811 C 475.719 0.72326 1.88287 0
M  V30 4812 C 476.032 -0.751333 1.80594 0
M  V30 4813 O 477.238 -1.17176 2.44912 0
M  V30 4814 C 475.694 1.24338 3.3774 0
M  V30 4815 C 475.302 2.74587 3.53986 0
M  V30 4816 C 477.046 1.01213 4.12257 0
M  V30 4817 C 474.953 3.20009 4.97341 0
M  V30 4818 H 473.883 0.266848 0.705201 0
M  V30 4819 H 476.534 1.24509 1.34795 0
M  V30 4820 H 474.916 0.649457 3.90638 0
M  V30 4821 H 476.09 3.39649 3.11408 0
M  V30 4822 H 474.405 2.9601 2.9286 0
M  V30 4823 H 477.002 1.32675 5.17978 0
M  V30 4824 H 477.345 -0.051001 4.16269 0
M  V30 4825 H 477.878 1.57014 3.65501 0
M  V30 4826 H 474.617 4.25659 4.98493 0
M  V30 4827 H 474.137 2.59676 5.40674 0
M  V30 4828 H 475.816 3.13447 5.66003 0
M  V30 4829 N 475.948 -1.35272 0.808662 0
M  V30 4830 C 476.858 -2.33546 0.222079 0
M  V30 4831 C 477.874 -1.6196 -0.636011 0
M  V30 4832 O 479.05 -1.93822 -0.547274 0
M  V30 4833 C 476.115 -3.41148 -0.61795 0
M  V30 4834 C 475.176 -4.28507 0.260875 0
M  V30 4835 C 474.409 -5.3097 -0.539156 0
M  V30 4836 O 474.632 -5.42123 -1.77367 0
M  V30 4837 O 473.566 -6.01858 0.0710526 0
M  V30 4838 H 477.392 -2.85515 1.03512 0
M  V30 4839 H 474.977 -1.38079 0.570495 0
M  V30 4840 H 476.859 -4.06889 -1.09634 0
M  V30 4841 H 475.534 -2.91447 -1.40855 0
M  V30 4842 H 474.441 -3.6574 0.786451 0
M  V30 4843 H 475.774 -4.81611 1.01547 0
M  V30 4844 N 477.426 -0.562348 -1.47226 0
M  V30 4845 C 478.675 -0.038041 -2.01664 0
M  V30 4846 C 478.988 1.32199 -1.44162 0
M  V30 4847 O 480.194 1.9365 -1.90294 0
M  V30 4848 C 478.65 -0.0174958 -3.59896 0
M  V30 4849 C 478.258 -1.3746 -4.2639 0
M  V30 4850 C 480.002 0.453934 -4.22066 0
M  V30 4851 C 477.909 -1.31289 -5.76643 0
M  V30 4852 H 476.839 -0.0104511 -0.753928 0
M  V30 4853 H 479.49 -0.710966 -1.69167 0
M  V30 4854 H 477.872 0.721182 -3.89378 0
M  V30 4855 H 479.046 -2.1314 -4.08544 0
M  V30 4856 H 477.361 -1.78438 -3.7623 0
M  V30 4857 H 479.958 0.518584 -5.32179 0
M  V30 4858 H 480.301 1.46706 -3.89594 0
M  V30 4859 H 480.834 -0.230044 -3.97134 0
M  V30 4860 H 477.573 -2.30217 -6.13743 0
M  V30 4861 H 477.093 -0.597973 -5.96812 0
M  V30 4862 H 478.772 -1.01713 -6.38955 0
M  V30 4863 N 478.904 1.54736 -0.299062 0
M  V30 4864 C 479.854 2.20155 0.592932 0
M  V30 4865 C 480.838 1.1739 1.10038 0
M  V30 4866 O 482.03 1.43116 1.04147 0
M  V30 4867 C 479.159 2.94437 1.76527 0
M  V30 4868 C 478.245 4.04516 1.27388 0
M  V30 4869 N 478.636 5.03319 0.500339 0
M  V30 4870 C 476.934 4.18022 1.55478 0
M  V30 4871 C 477.635 5.81209 0.238909 0
M  V30 4872 N 476.611 5.37408 0.818163 0
M  V30 4873 H 480.413 2.93899 -0.00563596 0
M  V30 4874 H 477.927 1.62068 -0.103732 0
M  V30 4875 H 479.924 3.3977 2.41582 0
M  V30 4876 H 478.584 2.22209 2.36756 0
M  V30 4877 H 479.595 5.17696 0.145419 0
M  V30 4878 H 476.272 3.56998 2.16469 0
M  V30 4879 H 477.662 6.70812 -0.382223 0
M  V30 4880 N 480.382 0.0267497 1.57577 0
M  V30 4881 C 481.793 -0.512413 1.79531 0
M  V30 4882 C 482.144 -1.72391 0.936791 0
M  V30 4883 O 481.269 -2.15903 0.146543 0
M  V30 4884 C 481.864 -0.936378 3.25603 0
M  V30 4885 C 480.423 -1.42067 3.4856 0
M  V30 4886 C 479.57 -0.384278 2.74624 0
M  V30 4887 H 482.521 0.252797 1.56674 0
M  V30 4888 H 482.542 -1.80088 3.35184 0
M  V30 4889 H 482.054 -0.0544332 3.88062 0
M  V30 4890 H 480.155 -2.32262 2.9135 0
M  V30 4891 H 480.268 -1.42968 4.57271 0
M  V30 4892 H 478.632 -0.851855 2.40032 0
M  V30 4893 H 479.415 0.489159 3.39797 0
M  V30 4894 N 481.861 -1.55662 -0.24637 0
M  V30 4895 C 483.109 -1.77168 -0.972411 0
M  V30 4896 C 483.43 -0.590827 -1.85834 0
M  V30 4897 O 482.7 0.393365 -1.9191 0
M  V30 4898 H 481.28 -0.653405 -0.362038 0
M  V30 4899 H 483.942 -1.93101 -0.264189 0
M  V30 4900 H 483.038 -2.68335 -1.59382 0
M  V30 4901 N 483.339 0.512053 -1.4905 0
M  V30 4902 C 484.567 1.29116 -1.61669 0
M  V30 4903 C 484.982 1.86655 -0.283787 0
M  V30 4904 O 484.339 1.67293 0.729331 0
M  V30 4905 C 484.39 2.4293 -2.67707 0
M  V30 4906 O 484.111 1.87758 -3.95826 0
M  V30 4907 C 485.612 3.34476 -2.90931 0
M  V30 4908 H 482.832 0.392009 -0.544583 0
M  V30 4909 H 485.376 0.615881 -1.95006 0
M  V30 4910 H 483.531 3.06308 -2.37179 0
M  V30 4911 H 483.945 2.62393 -4.54148 0
M  V30 4912 H 485.419 4.10642 -3.68886 0
M  V30 4913 H 485.896 3.90801 -2.00427 0
M  V30 4914 H 486.502 2.76874 -3.22832 0
M  V30 4915 N 484.817 1.37938 0.762283 0
M  V30 4916 C 486.228 1.30094 1.33912 0
M  V30 4917 C 486.579 -0.0472026 1.96143 0
M  V30 4918 O 485.704 -0.94917 1.94473 0
M  V30 4919 C 486.299 2.35592 2.43478 0
M  V30 4920 C 484.858 2.31353 2.96905 0
M  V30 4921 C 484.005 2.18919 1.70205 0
M  V30 4922 H 486.956 1.48423 0.561816 0
M  V30 4923 H 486.977 2.00806 3.23199 0
M  V30 4924 H 486.489 3.33701 1.98155 0
M  V30 4925 H 484.59 1.36799 3.46579 0
M  V30 4926 H 484.703 3.25147 3.51875 0
M  V30 4927 H 483.067 1.65624 1.93496 0
M  V30 4928 H 483.85 3.18956 1.26973 0
M  V30 4929 N 486.295 -0.989507 1.22664 0
M  V30 4930 C 487.243 -2.10148 0.997035 0
M  V30 4931 C 488.237 -1.6929 -0.0609783 0
M  V30 4932 O 489.443 -1.79766 0.0917523 0
M  V30 4933 H 485.818 -0.687256 0.305259 0
M  V30 4934 H 487.789 -2.26685 1.94053 0
M  V30 4935 C 486.538 -3.4257 0.595085 0
M  V30 4936 H 485.861 -3.74453 1.40089 0
M  V30 4937 H 487.301 -4.21344 0.473869 0
M  V30 4938 C 485.76 -3.29638 -0.695725 0
M  V30 4939 O 486.29 -3.61709 -1.74727 0
M  V30 4940 N 484.496 -2.82814 -0.668173 0
M  V30 4941 H 484.043 -2.56914 0.18787 0
M  V30 4942 H 484.001 -2.74544 -1.5321 0
M  V30 4943 N 487.773 -1.03688 -1.18687 0
M  V30 4944 C 489.019 -0.739123 -1.88851 0
M  V30 4945 C 489.352 0.731042 -1.79915 0
M  V30 4946 O 488.627 1.53313 -1.19688 0
M  V30 4947 C 488.91 -1.20106 -3.3948 0
M  V30 4948 C 488.763 -2.73304 -3.57246 0
M  V30 4949 C 490.082 -0.788134 -4.32986 0
M  V30 4950 H 487.201 -0.269978 -0.68577 0
M  V30 4951 H 489.843 -1.28822 -1.3966 0
M  V30 4952 H 487.993 -0.733915 -3.81505 0
M  V30 4953 H 489.665 -3.28027 -3.24339 0
M  V30 4954 H 487.908 -3.13313 -3.00029 0
M  V30 4955 H 488.579 -3.00684 -4.62918 0
M  V30 4956 H 491.055 -1.19005 -3.98719 0
M  V30 4957 H 489.931 -1.13915 -5.36949 0
M  V30 4958 H 490.192 0.308988 -4.41019 0
M  V30 4959 N 489.251 1.34841 -0.815825 0
M  V30 4960 C 490.481 2.02436 -0.412695 0
M  V30 4961 C 490.889 1.61604 0.983906 0
M  V30 4962 O 490.232 0.813729 1.64694 0
M  V30 4963 C 490.294 3.56953 -0.427182 0
M  V30 4964 C 489.958 4.21083 -1.77589 0
M  V30 4965 C 490.955 4.42107 -2.73564 0
M  V30 4966 C 488.64 4.58006 -2.06243 0
M  V30 4967 C 490.634 4.99169 -3.9637 0
M  V30 4968 C 488.321 5.1478 -3.2931 0
M  V30 4969 C 489.319 5.35304 -4.24191 0
M  V30 4970 O 489.007 5.90878 -5.45086 0
M  V30 4971 H 488.739 0.655631 -0.164695 0
M  V30 4972 H 491.293 1.73246 -1.1034 0
M  V30 4973 H 489.523 3.85372 0.320175 0
M  V30 4974 H 491.212 4.05875 -0.0450875 0
M  V30 4975 H 491.978 4.13953 -2.52721 0
M  V30 4976 H 487.857 4.41339 -1.33196 0
M  V30 4977 H 491.401 5.15105 -4.70439 0
M  V30 4978 H 487.298 5.42362 -3.5002 0
M  V30 4979 H 488.066 6.0932 -5.46508 0
M  V30 4980 N 490.729 0.570148 1.46925 0
M  V30 4981 C 491.976 0.0509529 2.02436 0
M  V30 4982 C 492.304 -1.30405 1.44308 0
M  V30 4983 O 491.559 -1.86493 0.593198 0
M  V30 4984 C 491.858 -0.0780336 3.57315 0
M  V30 4985 C 491.524 1.20775 4.34424 0
M  V30 4986 C 490.186 1.56004 4.5521 0
M  V30 4987 C 492.538 2.0592 4.78797 0
M  V30 4988 C 489.866 2.76201 5.17619 0
M  V30 4989 C 492.218 3.25332 5.42533 0
M  V30 4990 C 490.882 3.60859 5.61549 0
M  V30 4991 H 490.152 0.018645 0.740765 0
M  V30 4992 H 492.799 0.744262 1.76445 0
M  V30 4993 H 491.104 -0.854394 3.82371 0
M  V30 4994 H 492.801 -0.495312 3.97929 0
M  V30 4995 H 489.391 0.923469 4.18533 0
M  V30 4996 H 493.575 1.80008 4.62505 0
M  V30 4997 H 488.831 3.0388 5.30535 0
M  V30 4998 H 493.005 3.91586 5.75876 0
M  V30 4999 H 490.632 4.54088 6.09678 0
M  V30 5000 N 492.207 -1.54576 0.307264 0
M  V30 5001 C 493.117 -2.27435 -0.57536 0
M  V30 5002 C 494.133 -1.31183 -1.14311 0
M  V30 5003 O 495.309 -1.64175 -1.16656 0
M  V30 5004 C 492.374 -3.00566 -1.72803 0
M  V30 5005 C 491.435 -4.12369 -1.19373 0
M  V30 5006 C 490.668 -4.82003 -2.29147 0
M  V30 5007 O 490.891 -4.51038 -3.49171 0
M  V30 5008 O 489.825 -5.69271 -1.95485 0
M  V30 5009 H 493.651 -3.03696 0.0158558 0
M  V30 5010 H 491.236 -1.49219 0.0735064 0
M  V30 5011 H 493.118 -3.46416 -2.39946 0
M  V30 5012 H 491.793 -2.27195 -2.30574 0
M  V30 5013 H 490.7 -3.70905 -0.487851 0
M  V30 5014 H 492.033 -4.87736 -0.661376 0
M  V30 5015 N 493.685 -0.035106 -1.57561 0
M  V30 5016 C 494.617 0.973604 -2.07494 0
M  V30 5017 C 495.63 1.28504 -0.999534 0
M  V30 5018 O 496.819 1.24864 -1.27559 0
M  V30 5019 C 493.919 2.29945 -2.48955 0
M  V30 5020 C 493.092 2.1723 -3.79644 0
M  V30 5021 C 492.151 3.328 -4.07592 0
M  V30 5022 O 491.177 3.09418 -4.77754 0
M  V30 5023 N 492.379 4.56779 -3.58236 0
M  V30 5024 H 495.144 0.547525 -2.94656 0
M  V30 5025 H 492.705 0.151515 -1.61189 0
M  V30 5026 H 494.697 3.06097 -2.64739 0
M  V30 5027 H 493.267 2.64173 -1.67126 0
M  V30 5028 H 492.487 1.25768 -3.73599 0
M  V30 5029 H 493.775 2.05945 -4.65257 0
M  V30 5030 H 493.173 4.78668 -3.01485 0
M  V30 5031 H 491.73 5.30079 -3.79288 0
M  V30 5032 N 495.163 1.55791 0.238111 0
M  V30 5033 C 496.574 1.68383 0.806472 0
M  V30 5034 C 496.925 0.634157 1.85669 0
M  V30 5035 O 496.05 -0.217913 2.153 0
M  V30 5036 C 496.645 3.05268 1.46959 0
M  V30 5037 C 495.204 3.1977 1.98555 0
M  V30 5038 C 494.351 2.64279 0.839763 0
M  V30 5039 H 497.302 1.58694 0.0137535 0
M  V30 5040 H 497.323 3.00203 2.33792 0
M  V30 5041 H 496.835 3.81643 0.704993 0
M  V30 5042 H 494.936 2.48234 2.77868 0
M  V30 5043 H 495.049 4.26788 2.17689 0
M  V30 5044 H 493.413 2.22329 1.24265 0
M  V30 5045 H 494.196 3.43187 0.0881032 0
M  V30 5046 N 496.642 -0.504142 1.49319 0
M  V30 5047 C 497.891 -1.25507 1.57895 0
M  V30 5048 C 498.204 -1.93735 0.269433 0
M  V30 5049 O 499.41 -2.70492 0.233706 0
M  V30 5050 C 497.866 -2.27869 2.78574 0
M  V30 5051 C 497.474 -1.65594 4.16272 0
M  V30 5052 C 499.218 -3.0381 2.96479 0
M  V30 5053 C 497.125 -2.66048 5.28178 0
M  V30 5054 H 496.055 -0.47212 0.587894 0
M  V30 5055 H 498.706 -0.52931 1.757 0
M  V30 5056 H 497.088 -3.03594 2.54257 0
M  V30 5057 H 498.262 -0.958826 4.50714 0
M  V30 5058 H 496.577 -1.02055 4.037 0
M  V30 5059 H 499.174 -3.78925 3.77253 0
M  V30 5060 H 499.517 -3.61235 2.06918 0
M  V30 5061 H 500.05 -2.352 3.20821 0
M  V30 5062 H 496.789 -2.13408 6.19788 0
M  V30 5063 H 496.309 -3.34009 4.98195 0
M  V30 5064 H 497.988 -3.28536 5.57381 0
M  V30 5065 N 498.12 -1.38341 -0.754957 0
M  V30 5066 C 499.366 -1.34672 -1.51628 0
M  V30 5067 C 499.699 0.0636036 -1.94096 0
M  V30 5068 O 498.974 1.0245 -1.6533 0
M  V30 5069 C 499.257 -2.30116 -2.76981 0
M  V30 5070 C 499.11 -3.80003 -2.4066 0
M  V30 5071 C 500.429 -2.23715 -3.78998 0
M  V30 5072 H 497.548 -0.490517 -0.550056 0
M  V30 5073 H 500.19 -1.69178 -0.864807 0
M  V30 5074 H 498.34 -2.00821 -3.3257 0
M  V30 5075 H 500.012 -4.19966 -1.90856 0
M  V30 5076 H 498.255 -3.97751 -1.73137 0
M  V30 5077 H 498.926 -4.42244 -3.30339 0
M  V30 5078 H 501.402 -2.49574 -3.32945 0
M  V30 5079 H 500.278 -2.9261 -4.64403 0
M  V30 5080 H 500.539 -1.23554 -4.24484 0
M  V30 5081 N 499.598 0.982988 -1.23187 0
M  V30 5082 C 500.545 2.07491 -1.01075 0
M  V30 5083 C 501.515 1.65949 0.070905 0
M  V30 5084 O 502.7 1.90629 -0.0806822 0
M  V30 5085 C 499.84 3.39751 -0.605261 0
M  V30 5086 C 498.953 3.94578 -1.75876 0
M  V30 5087 C 498.088 5.15039 -1.3003 0
M  V30 5088 C 497.127 5.62027 -2.42472 0
M  V30 5089 N 496.264 6.73719 -1.97602 0
M  V30 5090 H 501.104 2.25739 -1.9454 0
M  V30 5091 H 498.641 1.10659 -0.969179 0
M  V30 5092 H 500.599 4.15719 -0.351279 0
M  V30 5093 H 499.229 3.21473 0.292382 0
M  V30 5094 H 498.281 3.1539 -2.12681 0
M  V30 5095 H 499.593 4.25422 -2.60418 0
M  V30 5096 H 498.747 5.9833 -1.00429 0
M  V30 5097 H 497.486 4.85843 -0.425216 0
M  V30 5098 H 496.491 4.77318 -2.7285 0
M  V30 5099 H 497.716 5.93244 -3.30512 0
M  V30 5100 H 495.662 6.46287 -1.1247 0
M  V30 5101 H 495.579 7.03934 -2.75705 0
M  V30 5102 H 496.847 7.6049 -1.71098 0
M  V30 5103 N 501.076 1.04316 1.18135 0
M  V30 5104 C 502.324 0.746542 1.87806 0
M  V30 5105 C 502.645 -0.728082 1.80898 0
M  V30 5106 O 501.915 -1.52554 1.22899 0
M  V30 5107 H 500.495 0.273157 0.695265 0
M  V30 5108 H 503.157 1.32044 1.43354 0
M  V30 5109 H 502.253 1.05362 2.93778 0
M  V30 5110 N 502.554 -1.34406 0.822964 0
M  V30 5111 C 503.464 -2.33298 0.246838 0
M  V30 5112 C 504.48 -1.62625 -0.618797 0
M  V30 5113 O 505.656 -1.94391 -0.526685 0
M  V30 5114 C 502.721 -3.41785 -0.581731 0
M  V30 5115 C 501.782 -4.28206 0.306309 0
M  V30 5116 C 501.015 -5.31512 -0.48281 0
M  V30 5117 O 501.238 -5.43973 -1.71607 0
M  V30 5118 O 500.172 -6.01749 0.134884 0
M  V30 5119 H 503.998 -2.84401 1.06534 0
M  V30 5120 H 501.583 -1.37466 0.585108 0
M  V30 5121 H 503.465 -4.08028 -1.05313 0
M  V30 5122 H 502.14 -2.92925 -1.37756 0
M  V30 5123 H 501.047 -3.64885 0.825199 0
M  V30 5124 H 502.38 -4.80507 1.06649 0
M  V30 5125 N 504.032 -0.577932 -1.46621 0
M  V30 5126 C 505.309 0.00495287 -1.95599 0
M  V30 5127 C 505.689 1.46428 -1.5206 0
M  V30 5128 O 505.037 2.1517 -0.769046 0
M  V30 5129 C 505.247 -0.162114 -3.48623 0
M  V30 5130 C 506.595 -0.0274623 -4.24591 0
M  V30 5131 O 507.619 -0.0907067 -3.56084 0
M  V30 5132 O 506.478 0.1122 -5.46385 0
M  V30 5133 H 503.572 0.0525057 -0.825332 0
M  V30 5134 H 506.118 -0.645914 -1.56927 0
M  V30 5135 H 504.89 -1.17679 -3.73185 0
M  V30 5136 H 504.513 0.525407 -3.94113 0
M  V30 5137 N 505.51 1.54411 -0.315457 0
M  V30 5138 C 506.738 2.04833 0.291738 0
M  V30 5139 C 507.153 1.19203 1.46411 0
M  V30 5140 O 506.51 0.220867 1.81159 0
M  V30 5141 C 506.561 3.53969 0.73404 0
M  V30 5142 O 506.282 4.36346 -0.391682 0
M  V30 5143 C 507.783 4.2045 1.40489 0
M  V30 5144 H 505.003 0.668195 0.0612947 0
M  V30 5145 H 507.547 1.99276 -0.45929 0
M  V30 5146 H 505.702 3.5984 1.43506 0
M  V30 5147 H 506.116 5.24481 -0.0447088 0
M  V30 5148 H 507.59 5.26278 1.66539 0
M  V30 5149 H 508.067 3.71067 2.3496 0
M  V30 5150 H 508.673 4.18694 0.746662 0
M  V30 5151 N 506.988 0.0434614 1.5754 0
M  V30 5152 C 508.236 -0.630786 1.92004 0
M  V30 5153 C 508.557 -1.71836 0.921807 0
M  V30 5154 O 507.827 -1.9587 -0.034522 0
M  V30 5155 H 506.407 -0.235988 0.708745 0
M  V30 5156 H 509.069 0.0946462 1.9467 0
M  V30 5157 H 508.165 -1.07434 2.93026 0
M  V30 5158 N 508.466 -1.55915 -0.229846 0
M  V30 5159 C 509.877 -1.68809 -0.797531 0
M  V30 5160 C 510.228 -0.643995 -1.8533 0
M  V30 5161 O 509.353 0.206492 -2.15413 0
M  V30 5162 C 509.948 -3.06043 -1.45338 0
M  V30 5163 C 508.507 -3.20819 -1.96856 0
M  V30 5164 C 507.654 -2.6472 -0.825736 0
M  V30 5165 H 510.605 -1.58699 -0.00533733 0
M  V30 5166 H 510.626 -3.01438 -2.32196 0
M  V30 5167 H 510.138 -3.82012 -0.684743 0
M  V30 5168 H 508.239 -2.49704 -2.76548 0
M  V30 5169 H 508.352 -4.27937 -2.15423 0
M  V30 5170 H 506.716 -2.22985 -1.23084 0
M  V30 5171 H 507.499 -3.43229 -0.0699019 0
M  V30 5172 N 509.944 0.496216 -1.49584 0
M  V30 5173 C 511.193 1.24668 -1.58558 0
M  V30 5174 C 511.506 1.9359 -0.279703 0
M  V30 5175 O 512.712 2.70365 -0.248048 0
M  V30 5176 C 511.168 2.26388 -2.79779 0
M  V30 5177 C 510.776 1.63384 -4.17145 0
M  V30 5178 C 512.52 3.02233 -2.98086 0
M  V30 5179 C 510.427 2.63243 -5.29582 0
M  V30 5180 H 509.357 0.468995 -0.590389 0
M  V30 5181 H 512.008 0.519985 -1.75978 0
M  V30 5182 H 510.39 3.02241 -2.55863 0
M  V30 5183 H 511.564 0.93491 -4.51216 0
M  V30 5184 H 509.879 0.999121 -4.04236 0
M  V30 5185 H 512.476 3.76919 -3.79257 0
M  V30 5186 H 512.819 3.60132 -2.08831 0
M  V30 5187 H 513.352 2.33495 -3.22063 0
M  V30 5188 H 510.091 2.10119 -6.20911 0
M  V30 5189 H 509.611 3.31363 -4.99959 0
M  V30 5190 H 511.29 3.25575 -5.59115 0
M  V30 5191 N 511.423 1.38739 0.74761 0
M  V30 5192 C 512.67 1.35274 1.50689 0
M  V30 5193 C 512.998 -0.0553359 1.94421 0
M  V30 5194 O 512.253 -1.03365 1.66175 0
M  V30 5195 C 512.552 2.25992 2.7688 0
M  V30 5196 C 512.218 3.73854 2.5208 0
M  V30 5197 C 510.88 4.14145 2.45025 0
M  V30 5198 C 513.232 4.67427 2.30568 0
M  V30 5199 C 510.56 5.4609 2.14483 0
M  V30 5200 C 512.912 5.99635 2.01545 0
M  V30 5201 C 511.576 6.39004 1.92951 0
M  V30 5202 H 510.846 0.495003 0.55141 0
M  V30 5203 H 513.493 1.71145 0.859158 0
M  V30 5204 H 511.798 1.83196 3.46333 0
M  V30 5205 H 513.495 2.20611 3.34861 0
M  V30 5206 H 510.085 3.41913 2.58444 0
M  V30 5207 H 514.269 4.3714 2.34994 0
M  V30 5208 H 509.525 5.75528 2.06342 0
M  V30 5209 H 513.699 6.71678 1.83906 0
M  V30 5210 H 511.326 7.41165 1.6905 0
M  V30 5211 N 512.901 -0.976442 1.23707 0
M  V30 5212 C 513.864 -2.0511 1.02287 0
M  V30 5213 C 514.864 -1.60791 -0.0167195 0
M  V30 5214 O 516.054 -1.72761 0.223408 0
M  V30 5215 C 513.186 -3.36458 0.548507 0
M  V30 5216 H 514.379 -2.25545 1.9766 0
M  V30 5217 H 511.932 -1.15042 1.05806 0
M  V30 5218 H 512.667 -3.21713 -0.408818 0
M  V30 5219 H 512.452 -3.69967 1.29874 0
M  V30 5220 H 513.942 -4.15489 0.419406 0
M  V30 5221 N 514.379 -1.04941 -1.1758 0
M  V30 5222 C 515.604 -0.778253 -1.92245 0
M  V30 5223 C 516.029 0.659707 -1.76152 0
M  V30 5224 O 515.387 1.45803 -1.07755 0
M  V30 5225 C 515.435 -1.16051 -3.41416 0
M  V30 5226 O 514.539 -0.291153 -4.11371 0
M  V30 5227 H 513.88 -0.285619 -0.599431 0
M  V30 5228 H 516.41 -1.40159 -1.49052 0
M  V30 5229 H 516.42 -1.12619 -3.92149 0
M  V30 5230 H 515.095 -2.208 -3.52449 0
M  V30 5231 H 513.672 -0.385851 -3.70898 0
M  V30 5232 N 515.857 1.33968 -0.830081 0
M  V30 5233 C 516.82 2.27694 -0.26235 0
M  V30 5234 C 517.82 1.50589 0.563876 0
M  V30 5235 O 519.01 1.70028 0.378941 0
M  V30 5236 C 516.142 3.35002 0.63138 0
M  V30 5237 H 517.335 2.79419 -1.08928 0
M  V30 5238 H 514.888 1.44221 -0.602486 0
M  V30 5239 H 515.623 2.88504 1.48109 0
M  V30 5240 H 515.408 3.92079 0.0403276 0
M  V30 5241 H 516.898 4.04897 1.02217 0
M  V30 5242 N 517.335 0.585699 1.46312 0
M  V30 5243 C 518.612 0.00542031 1.95599 0
M  V30 5244 C 518.992 -1.45619 1.52834 0
M  V30 5245 O 518.34 -2.14759 0.780446 0
M  V30 5246 C 518.55 0.180601 3.48532 0
M  V30 5247 C 519.898 0.049979 4.24571 0
M  V30 5248 O 520.922 0.109589 3.56031 0
M  V30 5249 O 519.781 -0.0832226 5.46437 0
M  V30 5250 H 516.875 -0.0481281 0.825598 0
M  V30 5251 H 519.421 0.654227 1.56582 0
M  V30 5252 H 518.193 1.19657 3.72556 0
M  V30 5253 H 517.816 -0.504498 3.94386 0
M  V30 5254 N 518.813 -1.54241 0.323641 0
M  V30 5255 C 520.059 -2.00867 -0.279323 0
M  V30 5256 C 520.392 -1.21146 -1.5178 0
M  V30 5257 O 519.667 -0.29378 -1.92269 0
M  V30 5258 C 519.95 -3.54837 -0.613387 0
M  V30 5259 C 519.803 -4.45284 0.635803 0
M  V30 5260 C 521.122 -4.16186 -1.43099 0
M  V30 5261 H 518.241 -0.730177 -0.100049 0
M  V30 5262 H 520.883 -1.84829 0.440235 0
M  V30 5263 H 519.033 -3.68634 -1.22641 0
M  V30 5264 H 520.705 -4.43357 1.27406 0
M  V30 5265 H 518.948 -4.14956 1.26466 0
M  V30 5266 H 519.619 -5.5084 0.357597 0
M  V30 5267 H 522.095 -4.05964 -0.912814 0
M  V30 5268 H 520.971 -5.24031 -1.6335 0
M  V30 5269 H 521.232 -3.69516 -2.42715 0
M  V30 5270 N 520.291 -0.0518155 -1.57515 0
M  V30 5271 C 521.519 0.631395 -1.9703 0
M  V30 5272 C 521.934 1.64341 -0.92938 0
M  V30 5273 O 521.291 1.82296 0.0863266 0
M  V30 5274 C 521.342 1.31774 -3.36627 0
M  V30 5275 O 521.063 0.346247 -4.3673 0
M  V30 5276 C 522.564 2.09065 -3.90905 0
M  V30 5277 H 519.784 0.172576 -0.648428 0
M  V30 5278 H 522.328 -0.118306 -2.04158 0
M  V30 5279 H 520.483 2.01867 -3.30649 0
M  V30 5280 H 520.897 0.836226 -5.17791 0
M  V30 5281 H 522.371 2.52508 -4.9086 0
M  V30 5282 H 522.848 2.93908 -3.26366 0
M  V30 5283 H 523.454 1.43882 -4.00223 0
M  V30 5284 N 521.769 1.56035 0.221574 0
M  V30 5285 C 523.015 1.79312 0.947372 0
M  V30 5286 C 523.348 0.621453 1.83988 0
M  V30 5287 O 522.623 -0.379287 1.90766 0
M  V30 5288 C 522.906 3.1267 1.78633 0
M  V30 5289 C 522.759 4.40284 0.920312 0
M  V30 5290 C 524.078 3.4247 2.7641 0
M  V30 5291 H 521.197 0.652328 0.342982 0
M  V30 5292 H 523.839 1.88765 0.216244 0
M  V30 5293 H 521.989 3.04741 2.40967 0
M  V30 5294 H 523.661 4.60232 0.313718 0
M  V30 5295 H 521.904 4.33212 0.225734 0
M  V30 5296 H 522.575 5.30033 1.54171 0
M  V30 5297 H 525.051 3.50526 2.24211 0
M  V30 5298 H 523.927 4.3695 3.32213 0
M  V30 5299 H 524.188 2.64635 3.54148 0
M  V30 5300 N 523.247 -0.488276 1.49845 0
M  V30 5301 C 524.157 -1.61451 1.70207 0
M  V30 5302 C 525.173 -1.63877 0.584846 0
M  V30 5303 O 526.349 -1.82063 0.861107 0
M  V30 5304 C 523.414 -2.9776 1.77594 0
M  V30 5305 C 522.475 -3.05861 3.01243 0
M  V30 5306 C 521.708 -4.35668 3.08268 0
M  V30 5307 O 521.931 -5.25197 2.22541 0
M  V30 5308 O 520.865 -4.49005 4.00847 0
M  V30 5309 H 524.691 -1.47199 2.65643 0
M  V30 5310 H 522.276 -0.665939 1.33737 0
M  V30 5311 H 524.158 -3.7875 1.84732 0
M  V30 5312 H 522.833 -3.12248 0.8534 0
M  V30 5313 H 521.74 -2.24012 2.99616 0
M  V30 5314 H 523.073 -2.96304 3.9302 0
M  V30 5315 N 524.725 -1.39134 -0.740242 0
M  V30 5316 C 525.973 -1.35803 -1.49673 0
M  V30 5317 C 526.294 0.0470897 -1.94943 0
M  V30 5318 O 525.564 0.997347 -1.68611 0
M  V30 5319 H 524.144 -0.499736 -0.555224 0
M  V30 5320 H 526.806 -1.73947 -0.879107 0
M  V30 5321 H 525.902 -2.0174 -2.38133 0
M  V30 5322 N 526.204 0.969867 -1.24223 0
M  V30 5323 C 527.481 1.68774 -0.988664 0
M  V30 5324 C 527.861 2.05342 0.489673 0
M  V30 5325 O 527.209 1.75486 1.46345 0
M  V30 5326 C 527.419 2.92135 -1.90941 0
M  V30 5327 C 528.767 3.64422 -2.17903 0
M  V30 5328 O 529.791 3.02188 -1.88576 0
M  V30 5329 O 528.65 4.76446 -2.67697 0
M  V30 5330 H 525.744 0.737736 -0.37373 0
M  V30 5331 H 528.29 1.02415 -1.35312 0
M  V30 5332 H 527.062 2.61788 -2.90831 0
M  V30 5333 H 526.685 3.66228 -1.54798 0
M  V30 5334 N 527.682 1.05563 1.17022 0
M  V30 5335 C 528.929 0.767937 1.87374 0
M  V30 5336 C 529.257 -0.705224 1.81265 0
M  V30 5337 O 528.512 -1.5318 1.21796 0
M  V30 5338 C 528.811 1.19849 3.36706 0
M  V30 5339 C 528.477 2.6745 3.63017 0
M  V30 5340 C 527.139 3.0777 3.69907 0
M  V30 5341 C 529.491 3.62811 3.74189 0
M  V30 5342 C 526.819 4.42307 3.85463 0
M  V30 5343 C 529.171 4.97087 3.91264 0
M  V30 5344 C 527.835 5.37055 3.96394 0
M  V30 5345 H 527.105 0.281008 0.68565 0
M  V30 5346 H 529.752 1.32339 1.38415 0
M  V30 5347 H 528.057 0.562096 3.87747 0
M  V30 5348 H 529.754 0.953038 3.8951 0
M  V30 5349 H 526.344 2.35228 3.58282 0
M  V30 5350 H 530.528 3.32798 3.68183 0
M  V30 5351 H 525.784 4.72769 3.87684 0
M  V30 5352 H 529.958 5.70869 3.9885 0
M  V30 5353 H 527.585 6.41308 4.082 0
M  V30 5354 N 529.16 -1.33526 0.837174 0
M  V30 5355 C 530.39 -2.01754 0.444848 0
M  V30 5356 C 530.798 -1.63149 -0.958072 0
M  V30 5357 O 530.141 -0.839827 -1.63379 0
M  V30 5358 C 530.203 -3.56228 0.483917 0
M  V30 5359 C 529.867 -4.18205 1.84265 0
M  V30 5360 C 530.864 -4.37699 2.80563 0
M  V30 5361 C 528.549 -4.54667 2.13503 0
M  V30 5362 C 530.543 -4.928 4.04261 0
M  V30 5363 C 528.23 -5.09475 3.37458 0
M  V30 5364 C 529.228 -5.28488 4.32654 0
M  V30 5365 O 528.916 -5.82132 5.54417 0
M  V30 5366 H 528.648 -0.652928 0.175104 0
M  V30 5367 H 531.202 -1.71469 1.13082 0
M  V30 5368 H 529.432 -3.85833 -0.258826 0
M  V30 5369 H 531.121 -4.05752 0.109653 0
M  V30 5370 H 531.887 -4.0988 2.59274 0
M  V30 5371 H 527.766 -4.39164 1.40201 0
M  V30 5372 H 531.31 -5.07555 4.78574 0
M  V30 5373 H 527.207 -5.36725 3.58604 0
M  V30 5374 H 527.975 -6.00548 5.56133 0
M  V30 5375 N 530.638 -0.59345 -1.46 0
M  V30 5376 C 531.884 -0.0832754 -2.02629 0
M  V30 5377 C 532.217 1.27749 -1.46266 0
M  V30 5378 O 531.492 1.8395 -0.631866 0
M  V30 5379 C 531.775 -0.0290756 -3.60088 0
M  V30 5380 C 531.628 -1.41951 -4.26814 0
M  V30 5381 C 532.947 0.666055 -4.35031 0
M  V30 5382 H 530.066 -0.031736 -0.736316 0
M  V30 5383 H 532.708 -0.762711 -1.74019 0
M  V30 5384 H 530.858 0.549532 -3.84594 0
M  V30 5385 H 532.53 -2.04411 -4.13538 0
M  V30 5386 H 530.773 -1.98422 -3.8576 0
M  V30 5387 H 531.444 -1.33395 -5.3564 0
M  V30 5388 H 533.92 0.174401 -4.15734 0
M  V30 5389 H 532.796 0.673041 -5.44758 0
M  V30 5390 H 533.057 1.72946 -4.06869 0
M  V30 5391 N 532.116 1.54067 -0.331816 0
M  V30 5392 C 533.364 2.00319 0.267739 0
M  V30 5393 C 533.685 1.22148 1.52003 0
M  V30 5394 O 532.955 0.325494 1.93177 0
M  V30 5395 H 531.535 0.740014 0.101922 0
M  V30 5396 H 534.197 1.89628 -0.450267 0
M  V30 5397 H 533.293 3.07765 0.518385 0
M  V30 5398 N 533.594 0.0601682 1.57485 0
M  V30 5399 C 535.01 -0.296422 1.56823 0
M  V30 5400 C 535.21 -1.70831 1.0686 0
M  V30 5401 O 534.266 -2.4174 0.729245 0
M  V30 5402 C 535.579 -0.116681 3.00474 0
M  V30 5403 C 537.127 -0.187103 3.1244 0
M  V30 5404 C 537.602 -0.035783 4.57986 0
M  V30 5405 N 539.093 -0.0917676 4.63109 0
M  V30 5406 C 539.828 0.00107251 5.734 0
M  V30 5407 N 539.324 0.146773 6.92645 0
M  V30 5408 N 541.117 -0.0551577 5.62073 0
M  V30 5409 H 533.268 0.983055 1.88281 0
M  V30 5410 H 535.531 0.382386 0.867459 0
M  V30 5411 H 535.237 0.85712 3.41096 0
M  V30 5412 H 535.111 -0.873929 3.66936 0
M  V30 5413 H 537.498 -1.15138 2.71712 0
M  V30 5414 H 537.579 0.601052 2.48638 0
M  V30 5415 H 537.223 0.925212 4.99402 0
M  V30 5416 H 537.153 -0.843196 5.19806 0
M  V30 5417 H 539.644 -0.203261 3.77353 0
M  V30 5418 H 539.957 0.210076 7.72514 0
M  V30 5419 H 538.302 0.181979 6.94762 0
M  V30 5420 H 541.493 -0.167605 4.678 0
M  V30 5421 H 541.666 0.020652 6.47997 0
M  V30 5422 N 535.072 -1.5615 -0.213296 0
M  V30 5423 C 536.004 -1.89586 -1.28802 0
M  V30 5424 C 537.017 -0.784844 -1.42633 0
M  V30 5425 O 538.206 -1.06319 -1.43383 0
M  V30 5426 C 535.306 -2.09665 -2.66259 0
M  V30 5427 C 534.479 -3.40726 -2.7427 0
M  V30 5428 C 533.538 -3.50137 -3.92798 0
M  V30 5429 O 532.564 -4.23105 -3.8075 0
M  V30 5430 N 533.766 -2.81886 -5.07465 0
M  V30 5431 H 536.531 -2.82368 -1.00442 0
M  V30 5432 H 534.092 -1.56796 -0.403302 0
M  V30 5433 H 536.084 -2.13268 -3.43946 0
M  V30 5434 H 534.654 -1.23469 -2.87183 0
M  V30 5435 H 533.874 -3.4915 -1.82997 0
M  V30 5436 H 535.162 -4.27048 -2.76599 0
M  V30 5437 H 534.56 -2.22397 -5.2015 0
M  V30 5438 H 533.117 -2.91139 -5.83165 0
M  V30 5439 N 536.55 0.480323 -1.50102 0
M  V30 5440 C 537.961 1.06142 -1.53593 0
M  V30 5441 C 538.312 1.93335 -0.334055 0
M  V30 5442 O 537.437 2.09188 0.55403 0
M  V30 5443 C 538.032 1.9317 -2.78336 0
M  V30 5444 C 536.591 2.46405 -2.84538 0
M  V30 5445 C 535.738 1.24521 -2.4777 0
M  V30 5446 H 538.689 0.26333 -1.565 0
M  V30 5447 H 538.71 2.78123 -2.59669 0
M  V30 5448 H 538.222 1.29683 -3.65792 0
M  V30 5449 H 536.323 3.13472 -2.01411 0
M  V30 5450 H 536.436 2.82143 -3.87211 0
M  V30 5451 H 534.8 1.57706 -2.00003 0
M  V30 5452 H 535.583 0.627102 -3.37524 0
M  V30 5453 N 538.028 1.39524 0.732853 0
M  V30 5454 C 538.978 1.34905 1.83806 0
M  V30 5455 C 539.962 0.229546 1.59254 0
M  V30 5456 O 541.154 0.467255 1.70721 0
M  V30 5457 C 538.283 1.19699 3.21756 0
M  V30 5458 C 537.369 2.36359 3.5213 0
M  V30 5459 N 537.76 3.61834 3.53426 0
M  V30 5460 C 536.058 2.29363 3.82503 0
M  V30 5461 C 536.759 4.38992 3.81655 0
M  V30 5462 N 535.735 3.68606 3.99538 0
M  V30 5463 H 539.537 2.29882 1.83116 0
M  V30 5464 H 537.051 1.33051 0.931194 0
M  V30 5465 H 539.048 1.14472 4.00876 0
M  V30 5466 H 537.708 0.256739 3.23683 0
M  V30 5467 H 538.719 3.95228 3.34686 0
M  V30 5468 H 535.396 1.43612 3.92023 0
M  V30 5469 H 536.786 5.47763 3.89108 0
M  V30 5470 N 539.506 -0.963266 1.24736 0
M  V30 5471 C 540.439 -2.05758 0.986852 0
M  V30 5472 C 541.417 -1.62398 -0.0809272 0
M  V30 5473 O 542.601 -1.88414 0.0569347 0
M  V30 5474 C 539.728 -3.35135 0.490095 0
M  V30 5475 C 538.774 -3.97451 1.54709 0
M  V30 5476 S 539.607 -4.34519 3.12976 0
M  V30 5477 C 540.763 -5.67026 2.65014 0
M  V30 5478 H 540.996 -2.27539 1.91346 0
M  V30 5479 H 538.529 -1.10176 1.08169 0
M  V30 5480 H 540.487 -4.09962 0.21012 0
M  V30 5481 H 539.148 -3.11335 -0.415873 0
M  V30 5482 H 538.341 -4.90704 1.15003 0
M  V30 5483 H 537.943 -3.29071 1.77731 0
M  V30 5484 H 540.235 -6.44748 2.08102 0
M  V30 5485 H 541.178 -6.11594 3.56873 0
M  V30 5486 H 541.586 -5.25847 2.05294 0
M  V30 5487 N 540.985 -1.06182 -1.16461 0
M  V30 5488 C 542.396 -0.802426 -1.68576 0
M  V30 5489 C 542.747 0.67412 -1.84255 0
M  V30 5490 O 541.872 1.52303 -1.5373 0
M  V30 5491 C 542.467 -1.45002 -3.06202 0
M  V30 5492 C 541.026 -1.23843 -3.55443 0
M  V30 5493 C 540.173 -1.52724 -2.31454 0
M  V30 5494 H 543.124 -1.22545 -1.00839 0
M  V30 5495 H 543.145 -0.864731 -3.70544 0
M  V30 5496 H 542.657 -2.52466 -2.94759 0
M  V30 5497 H 540.758 -0.183487 -3.72148 0
M  V30 5498 H 540.871 -1.95036 -4.37604 0
M  V30 5499 H 539.235 -0.947726 -2.36411 0
M  V30 5500 H 540.018 -2.61343 -2.22609 0
M  V30 5501 N 542.463 1.3308 -0.844243 0
M  V30 5502 C 543.712 1.96868 -0.438833 0
M  V30 5503 C 544.025 1.67599 1.00846 0
M  V30 5504 O 545.231 2.25043 1.51881 0
M  V30 5505 C 543.687 3.5234 -0.73377 0
M  V30 5506 C 543.295 3.90481 -2.1961 0
M  V30 5507 C 545.039 4.22653 -0.395574 0
M  V30 5508 C 542.946 5.38954 -2.43481 0
M  V30 5509 H 541.876 0.736749 -0.160364 0
M  V30 5510 H 544.527 1.51623 -1.03358 0
M  V30 5511 H 542.909 3.95941 -0.068589 0
M  V30 5512 H 544.083 3.57922 -2.90221 0
M  V30 5513 H 542.398 3.33165 -2.4978 0
M  V30 5514 H 544.995 5.31848 -0.551477 0
M  V30 5515 H 545.338 4.11004 0.661921 0
M  V30 5516 H 545.871 3.84601 -1.01621 0
M  V30 5517 H 542.61 5.55612 -3.47816 0
M  V30 5518 H 542.13 5.72954 -1.77437 0
M  V30 5519 H 543.809 6.05907 -2.26905 0
M  V30 5520 N 543.941 0.601185 1.45683 0
M  V30 5521 C 544.851 -0.123395 2.34275 0
M  V30 5522 C 545.867 -0.86702 1.5086 0
M  V30 5523 O 547.043 -0.826049 1.8368 0
M  V30 5524 C 544.108 -1.11237 3.2837 0
M  V30 5525 C 543.169 -0.371405 4.2769 0
M  V30 5526 C 542.402 -1.31327 5.1729 0
M  V30 5527 O 542.625 -2.55078 5.10188 0
M  V30 5528 O 541.559 -0.813811 5.96373 0
M  V30 5529 H 545.385 0.604483 2.97623 0
M  V30 5530 H 542.97 0.361477 1.44961 0
M  V30 5531 H 544.852 -1.68214 3.8637 0
M  V30 5532 H 543.527 -1.82139 2.67595 0
M  V30 5533 H 542.434 0.24067 3.73325 0
M  V30 5534 H 543.767 0.296998 4.91303 0
M  V30 5535 N 545.419 -1.53889 0.339982 0
M  V30 5536 C 546.83 -1.86139 -0.144671 0
M  V30 5537 C 547.181 -1.2613 -1.50285 0
M  V30 5538 O 546.306 -0.573515 -2.08662 0
M  V30 5539 C 546.901 -3.37728 -0.269285 0
M  V30 5540 C 545.46 -3.69868 -0.698168 0
M  V30 5541 C 544.607 -2.76777 0.170249 0
M  V30 5542 H 547.558 -1.48503 0.559704 0
M  V30 5543 H 547.579 -3.64331 -1.0974 0
M  V30 5544 H 547.091 -3.81375 0.719366 0
M  V30 5545 H 545.192 -3.31764 -1.69597 0
M  V30 5546 H 545.305 -4.76582 -0.490533 0
M  V30 5547 H 543.669 -2.52188 -0.356844 0
M  V30 5548 H 544.452 -3.23253 1.15597 0
M  V30 5549 N 546.897 -0.0685191 -1.57451 0
M  V30 5550 C 548.174 0.642167 -1.84758 0
M  V30 5551 C 548.554 1.87991 -0.960344 0
M  V30 5552 O 547.902 2.28485 -0.0257894 0
M  V30 5553 C 548.112 0.982946 -3.34872 0
M  V30 5554 C 549.46 1.35784 -4.02303 0
M  V30 5555 O 550.484 1.07477 -3.39598 0
M  V30 5556 O 549.343 1.88681 -5.12895 0
M  V30 5557 H 546.437 0.318625 -0.763156 0
M  V30 5558 H 548.983 -0.0992015 -1.6941 0
M  V30 5559 H 547.755 0.10372 -3.91163 0
M  V30 5560 H 547.378 1.78119 -3.55471 0
M  V30 5561 N 548.375 1.56261 0.205012 0
M  V30 5562 C 549.621 1.80306 0.9283 0
M  V30 5563 C 549.954 0.640932 1.83319 0
M  V30 5564 O 549.229 -0.359032 1.91158 0
M  V30 5565 C 549.512 3.14547 1.75306 0
M  V30 5566 C 549.365 4.41236 0.873562 0
M  V30 5567 C 550.684 3.45382 2.72762 0
M  V30 5568 H 547.803 0.655929 0.336044 0
M  V30 5569 H 550.445 1.88984 0.196211 0
M  V30 5570 H 548.595 3.0728 2.37721 0
M  V30 5571 H 550.267 4.60539 0.264887 0
M  V30 5572 H 548.51 4.33427 0.179773 0
M  V30 5573 H 549.181 5.31639 1.48541 0
M  V30 5574 H 551.657 3.52884 2.20481 0
M  V30 5575 H 550.533 4.40449 3.2756 0
M  V30 5576 H 550.794 2.68377 3.51321 0
M  V30 5577 N 549.853 -0.472356 1.50355 0
M  V30 5578 C 550.816 -1.5529 1.68576 0
M  V30 5579 C 551.816 -1.50863 0.556511 0
M  V30 5580 O 553.006 -1.53505 0.823516 0
M  V30 5581 C 550.138 -2.94921 1.70981 0
M  V30 5582 H 551.331 -1.40451 2.64978 0
M  V30 5583 H 548.884 -0.698645 1.39816 0
M  V30 5584 H 549.619 -3.15204 0.762675 0
M  V30 5585 H 549.404 -2.99541 2.53017 0
M  V30 5586 H 550.894 -3.73372 1.87037 0
M  V30 5587 N 551.331 -1.39911 -0.725443 0
M  V30 5588 C 552.578 -1.37654 -1.48518 0
M  V30 5589 C 552.906 0.0243982 -1.94485 0
M  V30 5590 O 552.161 1.00708 -1.67799 0
M  V30 5591 C 552.46 -2.30368 -2.7325 0
M  V30 5592 C 552.126 -3.77817 -2.461 0
M  V30 5593 C 550.788 -4.17991 -2.38405 0
M  V30 5594 C 553.14 -4.71036 -2.23103 0
M  V30 5595 C 550.468 -5.49433 -2.05768 0
M  V30 5596 C 552.82 -6.02766 -1.9198 0
M  V30 5597 C 551.484 -6.41993 -1.82761 0
M  V30 5598 H 550.754 -0.503713 -0.543465 0
M  V30 5599 H 553.401 -1.7249 -0.831822 0
M  V30 5600 H 551.706 -1.88683 -3.43375 0
M  V30 5601 H 553.403 -2.2591 -3.31309 0
M  V30 5602 H 549.993 -3.45982 -2.52972 0
M  V30 5603 H 554.177 -4.40823 -2.2801 0
M  V30 5604 H 549.433 -5.78738 -1.9716 0
M  V30 5605 H 553.607 -6.74519 -1.73197 0
M  V30 5606 H 551.234 -7.43761 -1.57237 0
M  V30 5607 N 552.809 0.956637 -1.25245 0
M  V30 5608 C 553.772 2.03457 -1.05537 0
M  V30 5609 C 554.772 1.60798 -0.00886317 0
M  V30 5610 O 555.962 1.72384 -0.250865 0
M  V30 5611 C 553.094 3.35543 -0.601965 0
M  V30 5612 H 554.287 2.22372 -2.01223 0
M  V30 5613 H 551.84 1.13344 -1.07623 0
M  V30 5614 H 552.575 3.22323 0.357584 0
M  V30 5615 H 552.36 3.67854 -1.35743 0
M  V30 5616 H 553.85 4.14769 -0.485454 0
M  V30 5617 N 554.287 1.06798 1.15896 0
M  V30 5618 C 555.517 0.807522 1.90165 0
M  V30 5619 C 555.925 -0.642417 1.7796 0
M  V30 5620 O 555.268 -1.45193 1.12537 0
M  V30 5621 C 555.33 1.12939 3.41299 0
M  V30 5622 C 554.994 2.57879 3.7729 0
M  V30 5623 C 555.991 3.56118 3.78782 0
M  V30 5624 C 553.676 2.93311 4.07767 0
M  V30 5625 C 555.67 4.87827 4.10248 0
M  V30 5626 C 553.357 4.25219 4.38899 0
M  V30 5627 C 554.355 5.22287 4.4012 0
M  V30 5628 O 554.043 6.51826 4.70508 0
M  V30 5629 H 553.775 0.291946 0.609708 0
M  V30 5630 H 556.329 1.42627 1.47806 0
M  V30 5631 H 554.559 0.45359 3.84031 0
M  V30 5632 H 556.248 0.852363 3.9685 0
M  V30 5633 H 557.014 3.30086 3.55342 0
M  V30 5634 H 552.893 2.18409 4.05979 0
M  V30 5635 H 556.437 5.63586 4.11116 0
M  V30 5636 H 552.334 4.51006 4.61805 0
M  V30 5637 H 553.102 6.56893 4.88298 0
M  V30 5638 N 555.766 -1.3263 0.851289 0
M  V30 5639 C 556.699 -2.26952 0.238318 0
M  V30 5640 C 557.677 -1.50243 -0.621757 0
M  V30 5641 O 558.861 -1.79378 -0.579298 0
M  V30 5642 C 555.988 -3.32124 -0.664178 0
M  V30 5643 C 555.034 -4.26325 0.122067 0
M  V30 5644 S 555.867 -5.14404 1.48824 0
M  V30 5645 C 557.023 -6.231 0.591372 0
M  V30 5646 H 557.256 -2.78594 1.03791 0
M  V30 5647 H 554.789 -1.4011 0.648731 0
M  V30 5648 H 556.747 -3.93197 -1.17924 0
M  V30 5649 H 555.408 -2.79273 -1.43755 0
M  V30 5650 H 554.601 -5.00821 -0.565181 0
M  V30 5651 H 554.203 -3.69652 0.568602 0
M  V30 5652 H 556.495 -6.77187 -0.205762 0
M  V30 5653 H 557.438 -6.95936 1.30687 0
M  V30 5654 H 557.846 -5.64252 0.167206 0
M  V30 5655 N 557.244 -0.608902 -1.45362 0
M  V30 5656 C 558.492 -0.104401 -2.0183 0
M  V30 5657 C 558.813 1.27007 -1.47967 0
M  V30 5658 O 558.083 1.83924 -0.674455 0
M  V30 5659 H 556.663 -0.0356042 -0.746151 0
M  V30 5660 H 559.325 -0.790596 -1.78145 0
M  V30 5661 H 558.421 -0.0551793 -3.12051 0
M  V30 5662 N 558.722 1.53707 -0.348139 0
M  V30 5663 C 559.999 1.93247 0.302475 0
M  V30 5664 C 560.379 1.28012 1.67857 0
M  V30 5665 O 559.727 0.43274 2.24365 0
M  V30 5666 C 559.937 3.47031 0.370159 0
M  V30 5667 C 561.285 4.20066 0.61882 0
M  V30 5668 O 562.309 3.53319 0.452087 0
M  V30 5669 O 561.168 5.38318 0.94215 0
M  V30 5670 H 558.262 0.807736 0.177458 0
M  V30 5671 H 560.808 1.64927 -0.399651 0
M  V30 5672 H 559.58 3.86745 -0.59534 0
M  V30 5673 H 559.203 3.81532 1.11888 0
M  V30 5674 N 560.2 0.0768682 1.57412 0
M  V30 5675 C 561.477 -0.632359 1.85096 0
M  V30 5676 C 561.857 -1.87479 0.9703 0
M  V30 5677 O 561.205 -2.28469 0.0379062 0
M  V30 5678 C 561.415 -0.965174 3.35388 0
M  V30 5679 C 562.763 -1.33648 4.03018 0
M  V30 5680 O 563.787 -1.05675 3.40164 0
M  V30 5681 O 562.646 -1.85959 5.13889 0
M  V30 5682 H 559.74 -0.314574 0.764835 0
M  V30 5683 H 562.286 0.108184 1.69355 0
M  V30 5684 H 561.058 -0.0829745 3.91212 0
M  V30 5685 H 560.681 -1.76231 3.5641 0
M  V30 5686 N 561.678 -1.56367 -0.196722 0
M  V30 5687 C 562.926 -1.80172 -0.915554 0
M  V30 5688 C 563.247 -0.649649 -1.8386 0
M  V30 5689 O 562.517 0.332111 -1.93064 0
M  V30 5690 H 561.097 -0.664592 -0.341067 0
M  V30 5691 H 563.759 -1.93844 -0.202622 0
M  V30 5692 H 562.855 -2.7327 -1.50764 0
M  V30 5693 N 563.156 0.464375 -1.50603 0
M  V30 5694 C 564.103 1.56152 -1.69956 0
M  V30 5695 C 565.073 1.57046 -0.54091 0
M  V30 5696 O 566.258 1.74473 -0.772258 0
M  V30 5697 C 563.398 2.94079 -1.80586 0
M  V30 5698 C 562.511 3.02923 -3.07996 0
M  V30 5699 C 561.646 4.31806 -3.09382 0
M  V30 5700 C 560.685 4.34417 -4.31218 0
M  V30 5701 N 559.822 5.54782 -4.30304 0
M  V30 5702 H 564.662 1.38955 -2.6362 0
M  V30 5703 H 562.199 0.675482 -1.30674 0
M  V30 5704 H 564.157 3.74073 -1.8473 0
M  V30 5705 H 562.787 3.09896 -0.903556 0
M  V30 5706 H 561.839 2.1576 -3.13292 0
M  V30 5707 H 563.151 3.00712 -3.97962 0
M  V30 5708 H 562.305 5.20153 -3.12292 0
M  V30 5709 H 561.044 4.36636 -2.17257 0
M  V30 5710 H 560.049 3.44467 -4.28512 0
M  V30 5711 H 561.274 4.31273 -5.24576 0
M  V30 5712 H 559.22 5.60384 -3.41037 0
M  V30 5713 H 559.137 5.54339 -5.14047 0
M  V30 5714 H 560.405 6.45235 -4.3737 0
M  V30 5715 N 564.634 1.40294 0.718013 0
M  V30 5716 C 565.874 1.39888 1.49032 0
M  V30 5717 C 566.238 -0.000462935 1.92 0
M  V30 5718 O 567.439 -0.129622 2.68487 0
M  V30 5719 C 565.71 2.35868 2.68516 0
M  V30 5720 S 567.269 2.53799 3.57954 0
M  V30 5721 H 564.087 0.495849 0.509563 0
M  V30 5722 H 566.689 1.76541 0.839846 0
M  V30 5723 H 565.393 3.36375 2.35117 0
M  V30 5724 H 564.924 2.0049 3.38478 0
M  V30 5725 H 566.939 1.78859 4.62843 0
M  V30 5726 N 566.112 -0.949982 1.2575 0
M  V30 5727 C 567.342 -1.72721 1.13363 0
M  V30 5728 C 567.75 -1.86562 -0.314842 0
M  V30 5729 O 567.093 -1.36621 -1.22803 0
M  V30 5730 C 567.155 -3.15695 1.7198 0
M  V30 5731 C 566.819 -3.25268 3.21014 0
M  V30 5732 C 567.816 -3.09222 4.17945 0
M  V30 5733 C 565.501 -3.4894 3.61312 0
M  V30 5734 C 567.495 -3.16701 5.53154 0
M  V30 5735 C 565.182 -3.56055 4.96657 0
M  V30 5736 C 566.18 -3.3995 5.92387 0
M  V30 5737 O 565.868 -3.46757 7.25269 0
M  V30 5738 H 565.6 -0.547888 0.395973 0
M  V30 5739 H 568.154 -1.20009 1.66694 0
M  V30 5740 H 566.384 -3.69791 1.13101 0
M  V30 5741 H 568.073 -3.75295 1.54624 0
M  V30 5742 H 568.839 -2.90798 3.88151 0
M  V30 5743 H 564.718 -3.60534 2.87291 0
M  V30 5744 H 568.262 -3.04048 6.27854 0
M  V30 5745 H 564.159 -3.73997 5.26115 0
M  V30 5746 H 564.927 -3.63358 7.33426 0
M  V30 5747 N 567.59 -1.07411 -1.15328 0
M  V30 5748 C 568.839 -0.792643 -1.85473 0
M  V30 5749 C 569.152 0.683789 -1.83259 0
M  V30 5750 O 570.358 1.08005 -2.49093 0
M  V30 5751 C 568.814 -1.36787 -3.32892 0
M  V30 5752 C 568.422 -2.87536 -3.43551 0
M  V30 5753 C 570.166 -1.16444 -4.08217 0
M  V30 5754 C 568.073 -3.38247 -4.85122 0
M  V30 5755 H 567.003 -0.292838 -0.694811 0
M  V30 5756 H 569.654 -1.29426 -1.30082 0
M  V30 5757 H 568.036 -0.793993 -3.87958 0
M  V30 5758 H 569.21 -3.50973 -2.98588 0
M  V30 5759 H 567.525 -3.06676 -2.81672 0
M  V30 5760 H 570.122 -1.51808 -5.12697 0
M  V30 5761 H 570.465 -0.10353 -4.16171 0
M  V30 5762 H 570.998 -1.70472 -3.59422 0
M  V30 5763 H 567.737 -4.43866 -4.82351 0
M  V30 5764 H 567.257 -2.79564 -5.30664 0
M  V30 5765 H 568.936 -3.34238 -5.5398 0
M  V30 5766 N 569.068 1.32177 -0.85831 0
M  V30 5767 C 570.018 2.26307 -0.277307 0
M  V30 5768 C 571.002 1.50123 0.578946 0
M  V30 5769 O 572.194 1.71754 0.427731 0
M  V30 5770 C 569.323 3.39181 0.530232 0
M  V30 5771 C 568.409 4.22746 -0.338613 0
M  V30 5772 N 568.8 4.85265 -1.4266 0
M  V30 5773 C 567.098 4.45813 -0.129 0
M  V30 5774 C 567.799 5.47634 -1.96142 0
M  V30 5775 N 566.775 5.28794 -1.26007 0
M  V30 5776 H 570.577 2.72173 -1.10902 0
M  V30 5777 H 568.091 1.46308 -0.704816 0
M  V30 5778 H 570.088 4.05628 0.962904 0
M  V30 5779 H 568.748 2.9486 1.35969 0
M  V30 5780 H 569.759 4.85259 -1.80953 0
M  V30 5781 H 566.436 4.12163 0.665451 0
M  V30 5782 H 567.826 6.0735 -2.8736 0
M  V30 5783 N 570.547 0.616602 1.45037 0
M  V30 5784 C 571.772 0.120192 2.07051 0
M  V30 5785 C 572.197 -1.19008 1.45666 0
M  V30 5786 O 571.555 -1.7267 0.552692 0
M  V30 5787 C 571.603 0.00354901 3.606 0
M  V30 5788 O 570.707 -1.04431 3.98958 0
M  V30 5789 H 570.048 0.0781599 0.659384 0
M  V30 5790 H 572.578 0.849167 1.86146 0
M  V30 5791 H 572.588 -0.191754 4.07549 0
M  V30 5792 H 571.263 0.960239 4.04663 0
M  V30 5793 H 569.84 -0.824749 3.63665 0
M  V30 5794 N 572.025 -1.5352 0.356285 0
M  V30 5795 C 572.972 -2.25439 -0.494569 0
M  V30 5796 C 573.942 -1.25752 -1.08516 0
M  V30 5797 O 575.127 -1.54513 -1.1194 0
M  V30 5798 C 572.267 -3.04011 -1.63313 0
M  V30 5799 C 571.38 -4.18574 -1.06862 0
M  V30 5800 C 570.515 -4.84607 -2.17552 0
M  V30 5801 C 569.554 -5.91218 -1.58518 0
M  V30 5802 N 568.691 -6.50979 -2.63003 0
M  V30 5803 H 573.531 -2.97737 0.125244 0
M  V30 5804 H 571.068 -1.46916 0.0735789 0
M  V30 5805 H 573.026 -3.47834 -2.30363 0
M  V30 5806 H 571.656 -2.33986 -2.22374 0
M  V30 5807 H 570.708 -3.79303 -0.288672 0
M  V30 5808 H 572.02 -4.95215 -0.596924 0
M  V30 5809 H 571.174 -5.31566 -2.92442 0
M  V30 5810 H 569.913 -4.07418 -2.6807 0
M  V30 5811 H 568.918 -5.4363 -0.821391 0
M  V30 5812 H 570.143 -6.70322 -1.08836 0
M  V30 5813 H 568.089 -5.76648 -3.12751 0
M  V30 5814 H 568.006 -7.23131 -2.20493 0
M  V30 5815 H 569.274 -7.02589 -3.37623 0
M  V30 5816 N 573.503 -0.0852151 -1.57369 0
M  V30 5817 C 574.728 0.592872 -1.98746 0
M  V30 5818 C 575.153 1.61538 -0.963689 0
M  V30 5819 O 574.511 1.81168 0.069071 0
M  V30 5820 C 574.559 1.22599 -3.39119 0
M  V30 5821 O 573.663 2.34185 -3.39457 0
M  V30 5822 H 573.004 0.151314 -0.646529 0
M  V30 5823 H 575.534 -0.163703 -2.03944 0
M  V30 5824 H 575.544 1.56965 -3.76598 0
M  V30 5825 H 574.219 0.476831 -4.13158 0
M  V30 5826 H 572.796 2.01512 -3.13763 0
M  V30 5827 N 574.981 1.5647 0.188427 0
M  V30 5828 C 576.23 1.80207 0.905995 0
M  V30 5829 C 576.543 0.659579 1.84144 0
M  V30 5830 O 577.749 0.781431 2.60011 0
M  V30 5831 C 576.205 3.19255 1.66145 0
M  V30 5832 C 575.813 4.41324 0.770504 0
M  V30 5833 C 577.557 3.52298 2.36826 0
M  V30 5834 C 575.464 5.71394 1.52521 0
M  V30 5835 H 574.394 0.671953 0.342045 0
M  V30 5836 H 577.045 1.82808 0.159164 0
M  V30 5837 H 575.427 3.10922 2.45242 0
M  V30 5838 H 576.601 4.60797 0.0177261 0
M  V30 5839 H 574.916 4.16035 0.174199 0
M  V30 5840 H 577.513 4.46715 2.93854 0
M  V30 5841 H 577.856 2.76359 3.11338 0
M  V30 5842 H 578.389 3.62108 1.6469 0
M  V30 5843 H 575.128 6.50316 0.82275 0
M  V30 5844 H 574.648 5.55928 2.25175 0
M  V30 5845 H 576.327 6.12747 2.07725 0
M  V30 5846 N 576.459 -0.456382 1.50847 0
M  V30 5847 C 577.707 -1.20497 1.62249 0
M  V30 5848 C 578.028 -1.92156 0.331839 0
M  V30 5849 O 577.298 -1.84751 -0.651443 0
M  V30 5850 H 575.878 -0.447775 0.597918 0
M  V30 5851 H 578.54 -0.525099 1.87693 0
M  V30 5852 H 577.636 -1.94492 2.44089 0
M  V30 5853 N 577.937 -1.40673 -0.710563 0
M  V30 5854 C 579.183 -1.39428 -1.47267 0
M  V30 5855 C 579.516 0.00182129 -1.942 0
M  V30 5856 O 578.791 0.971387 -1.68506 0
M  V30 5857 C 579.074 -2.38812 -2.6952 0
M  V30 5858 C 578.927 -3.87467 -2.28449 0
M  V30 5859 C 580.246 -2.3566 -3.71689 0
M  V30 5860 H 577.365 -0.507768 -0.534173 0
M  V30 5861 H 580.007 -1.71843 -0.810547 0
M  V30 5862 H 578.157 -2.113 -3.26013 0
M  V30 5863 H 579.829 -4.25825 -1.77399 0
M  V30 5864 H 578.072 -4.03058 -1.60395 0
M  V30 5865 H 578.743 -4.5253 -3.16103 0
M  V30 5866 H 581.219 -2.6004 -3.24836 0
M  V30 5867 H 580.095 -3.07237 -4.54859 0
M  V30 5868 H 580.356 -1.36996 -4.20339 0
M  V30 5869 N 579.415 0.9433 -1.26252 0
M  V30 5870 C 580.365 2.02746 -1.04297 0
M  V30 5871 C 581.349 1.60882 0.0239435 0
M  V30 5872 O 582.541 1.75947 -0.192757 0
M  V30 5873 C 579.67 3.36585 -0.6757 0
M  V30 5874 C 578.756 3.84939 -1.77996 0
M  V30 5875 N 579.147 4.05966 -3.01704 0
M  V30 5876 C 577.445 4.13833 -1.66308 0
M  V30 5877 C 578.146 4.45987 -3.73458 0
M  V30 5878 N 577.122 4.52569 -3.01135 0
M  V30 5879 H 580.924 2.17012 -1.98199 0
M  V30 5880 H 578.438 1.12898 -1.16738 0
M  V30 5881 H 580.435 4.13896 -0.499571 0
M  V30 5882 H 579.095 3.2369 0.255863 0
M  V30 5883 H 580.106 3.92716 -3.37631 0
M  V30 5884 H 576.783 4.09739 -0.801267 0
M  V30 5885 H 578.173 4.70465 -4.79701 0
M  V30 5886 N 580.893 1.08022 1.14757 0
M  V30 5887 C 581.823 0.728248 2.21853 0
M  V30 5888 C 582.804 -0.287486 1.67653 0
M  V30 5889 O 583.989 -0.158727 1.9355 0
M  V30 5890 C 581.119 0.132549 3.47047 0
M  V30 5891 C 580.073 1.07619 4.14249 0
M  V30 5892 C 579.399 0.342907 5.33599 0
M  V30 5893 C 580.699 2.41268 4.63235 0
M  V30 5894 H 582.393 1.62365 2.51551 0
M  V30 5895 H 579.939 0.782125 1.20908 0
M  V30 5896 H 581.892 -0.125665 4.21213 0
M  V30 5897 H 580.616 -0.797971 3.16702 0
M  V30 5898 H 579.275 1.31944 3.42033 0
M  V30 5899 H 578.923 -0.59129 4.99513 0
M  V30 5900 H 578.623 0.971955 5.79506 0
M  V30 5901 H 580.147 0.0926538 6.1053 0
M  V30 5902 H 581.561 2.21232 5.28894 0
M  V30 5903 H 579.958 2.9983 5.19829 0
M  V30 5904 H 581.028 3.03079 3.78512 0
M  V30 5905 N 582.371 -1.3172 0.865308 0
M  V30 5906 C 583.321 -2.26157 0.289305 0
M  V30 5907 C 584.305 -1.50428 -0.570977 0
M  V30 5908 O 585.497 -1.71978 -0.418617 0
M  V30 5909 C 582.626 -3.39457 -0.512237 0
M  V30 5910 C 581.712 -4.22561 0.361028 0
M  V30 5911 N 582.103 -4.84501 1.45231 0
M  V30 5912 C 580.401 -4.45739 0.152641 0
M  V30 5913 C 581.102 -5.46586 1.99043 0
M  V30 5914 N 580.078 -5.28119 1.28809 0
M  V30 5915 H 583.88 -2.71581 1.12344 0
M  V30 5916 H 581.394 -1.45932 0.712565 0
M  V30 5917 H 583.391 -4.06133 -0.941379 0
M  V30 5918 H 582.051 -2.95577 -1.34404 0
M  V30 5919 H 583.062 -4.84293 1.83524 0
M  V30 5920 H 579.739 -4.1251 -0.643583 0
M  V30 5921 H 581.129 -6.05817 2.90577 0
M  V30 5922 N 583.85 -0.624285 -1.44708 0
M  V30 5923 C 584.779 0.0717025 -2.3339 0
M  V30 5924 C 585.76 0.841814 -1.47809 0
M  V30 5925 O 586.946 0.809056 -1.76544 0
M  V30 5926 C 584.076 1.05852 -3.30776 0
M  V30 5927 C 583.029 0.400503 -4.26122 0
M  V30 5928 C 582.356 1.49674 -5.13324 0
M  V30 5929 C 583.656 -0.688924 -5.17737 0
M  V30 5930 H 585.35 -0.668819 -2.91834 0
M  V30 5931 H 582.896 -0.32308 -1.40329 0
M  V30 5932 H 584.849 1.5541 -3.91696 0
M  V30 5933 H 583.572 1.82984 -2.70526 0
M  V30 5934 H 582.231 -0.0743687 -3.66525 0
M  V30 5935 H 581.88 2.25877 -4.49431 0
M  V30 5936 H 581.58 1.06188 -5.77926 0
M  V30 5937 H 583.104 1.99427 -5.77115 0
M  V30 5938 H 584.518 -0.276724 -5.72632 0
M  V30 5939 H 582.915 -1.04652 -5.90904 0
M  V30 5940 H 583.985 -1.55884 -4.5916 0
M  V30 5941 N 585.328 1.53329 -0.364422 0
M  V30 5942 C 586.558 2.05359 0.226096 0
M  V30 5943 C 586.966 1.23777 1.43094 0
M  V30 5944 O 586.309 0.271139 1.81688 0
M  V30 5945 C 586.371 3.52918 0.684794 0
M  V30 5946 C 586.035 4.55218 -0.403206 0
M  V30 5947 C 587.032 5.04583 -1.2527 0
M  V30 5948 C 584.717 4.99134 -0.563117 0
M  V30 5949 C 586.711 5.96463 -2.24745 0
M  V30 5950 C 584.398 5.9082 -1.56124 0
M  V30 5951 C 585.396 6.39375 -2.40184 0
M  V30 5952 O 585.084 7.29255 -3.38293 0
M  V30 5953 H 584.816 0.674588 0.0436772 0
M  V30 5954 H 587.37 1.98688 -0.520782 0
M  V30 5955 H 585.6 3.57122 1.48326 0
M  V30 5956 H 587.289 3.87812 1.19818 0
M  V30 5957 H 588.055 4.71403 -1.14034 0
M  V30 5958 H 583.934 4.60928 0.0813909 0
M  V30 5959 H 587.478 6.34285 -2.90393 0
M  V30 5960 H 583.375 6.23414 -1.67407 0
M  V30 5961 H 584.143 7.47249 -3.34009 0
M  V30 5962 N 586.806 0.0935595 1.57322 0
M  V30 5963 C 587.739 -0.902505 2.09595 0
M  V30 5964 C 588.717 -1.27732 1.00615 0
M  V30 5965 O 589.901 -1.38283 1.28102 0
M  V30 5966 C 587.028 -2.20416 2.57166 0
M  V30 5967 C 586.074 -1.97932 3.7779 0
M  V30 5968 S 586.907 -1.21873 5.21447 0
M  V30 5969 C 588.063 -2.53273 5.72367 0
M  V30 5970 H 588.296 -0.457797 2.93754 0
M  V30 5971 H 585.829 -0.119694 1.53935 0
M  V30 5972 H 587.787 -2.95217 2.85232 0
M  V30 5973 H 586.448 -2.62008 1.73235 0
M  V30 5974 H 585.641 -2.94316 4.09138 0
M  V30 5975 H 585.243 -1.3126 3.5021 0
M  V30 5976 H 587.535 -3.49256 5.8054 0
M  V30 5977 H 588.478 -2.26505 6.70896 0
M  V30 5978 H 588.886 -2.61475 5.00291 0
M  V30 5979 N 588.284 -1.56567 -0.180126 0
M  V30 5980 C 589.533 -1.80685 -0.896426 0
M  V30 5981 C 589.846 -0.669335 -1.83791 0
M  V30 5982 O 591.052 -0.795209 -2.59593 0
M  V30 5983 C 589.508 -3.20132 -1.6445 0
M  V30 5984 C 589.116 -4.41727 -0.747088 0
M  V30 5985 C 590.86 -3.53549 -2.34955 0
M  V30 5986 C 588.767 -5.72195 -1.49489 0
M  V30 5987 H 587.697 -0.673758 -0.338477 0
M  V30 5988 H 590.348 -1.8289 -0.149467 0
M  V30 5989 H 588.73 -3.12218 -2.43589 0
M  V30 5990 H 589.904 -4.608 0.00671129 0
M  V30 5991 H 588.219 -4.16122 -0.152134 0
M  V30 5992 H 590.816 -4.48267 -2.91481 0
M  V30 5993 H 591.159 -2.78006 -3.09868 0
M  V30 5994 H 591.692 -3.62976 -1.62768 0
M  V30 5995 H 588.431 -6.50743 -0.788251 0
M  V30 5996 H 587.951 -5.57115 -2.22224 0
M  V30 5997 H 589.63 -6.1384 -2.04472 0
M  V30 5998 N 589.762 0.448376 -1.51087 0
M  V30 5999 C 590.725 1.52588 -1.71025 0
M  V30 6000 C 591.725 1.49958 -0.580442 0
M  V30 6001 O 592.915 1.52176 -0.847833 0
M  V30 6002 C 590.047 2.92163 -1.75652 0
M  V30 6003 H 591.24 1.36218 -2.67179 0
M  V30 6004 H 588.793 0.676313 -1.4091 0
M  V30 6005 H 589.528 3.13951 -0.812724 0
M  V30 6006 H 589.313 2.95478 -2.57751 0
M  V30 6007 H 590.803 3.70349 -1.92953 0
M  V30 6008 N 591.24 1.41047 0.703093 0
M  V30 6009 C 592.651 1.35657 1.28274 0
M  V30 6010 C 593.002 0.0360309 1.96167 0
M  V30 6011 O 592.127 -0.865833 1.98324 0
M  V30 6012 C 592.722 2.45707 2.33267 0
M  V30 6013 C 591.281 2.43738 2.86825 0
M  V30 6014 C 590.428 2.25941 1.60767 0
M  V30 6015 H 593.379 1.50672 0.49836 0
M  V30 6016 H 593.4 2.14333 3.14391 0
M  V30 6017 H 592.912 3.41805 1.83824 0
M  V30 6018 H 591.013 1.51375 3.40465 0
M  V30 6019 H 591.126 3.39779 3.37768 0
M  V30 6020 H 589.49 1.73681 1.86298 0
M  V30 6021 H 590.273 3.24054 1.1333 0
M  V30 6022 N 592.718 -0.936591 1.26751 0
M  V30 6023 C 593.966 -1.67998 1.12343 0
M  V30 6024 C 594.287 -1.92137 -0.332938 0
M  V30 6025 O 593.557 -1.52132 -1.23421 0
M  V30 6026 H 592.137 -0.622609 0.412756 0
M  V30 6027 H 594.799 -1.12509 1.59147 0
M  V30 6028 H 593.895 -2.65185 1.64571 0
M  V30 6029 N 594.196 -1.08629 -1.14182 0
M  V30 6030 C 595.442 -0.818556 -1.85546 0
M  V30 6031 C 595.775 0.654076 -1.82854 0
M  V30 6032 O 595.05 1.48099 -1.26083 0
M  V30 6033 C 595.333 -1.34397 -3.3408 0
M  V30 6034 C 595.186 -2.8821 -3.45333 0
M  V30 6035 C 596.505 -0.971069 -4.29253 0
M  V30 6036 H 593.624 -0.298821 -0.673702 0
M  V30 6037 H 596.266 -1.34629 -1.34071 0
M  V30 6038 H 594.416 -0.895064 -3.78049 0
M  V30 6039 H 596.088 -3.41488 -3.10134 0
M  V30 6040 H 594.331 -3.25756 -2.86471 0
M  V30 6041 H 595.002 -3.20047 -4.49749 0
M  V30 6042 H 597.478 -1.35809 -3.93313 0
M  V30 6043 H 596.354 -1.36586 -5.31635 0
M  V30 6044 H 596.615 0.121659 -4.41933 0
M  V30 6045 N 595.674 1.31259 -0.872281 0
M  V30 6046 C 596.922 1.96233 -0.483409 0
M  V30 6047 C 597.243 1.69276 0.968012 0
M  V30 6048 O 596.513 1.00943 1.67891 0
M  V30 6049 H 595.093 0.726025 -0.175774 0
M  V30 6050 H 597.755 1.60024 -1.11258 0
M  V30 6051 H 596.851 3.05403 -0.643075 0
M  V30 6052 N 597.152 0.631951 1.44375 0
M  V30 6053 C 598.082 -0.0593243 2.33425 0
M  V30 6054 C 599.063 -0.833964 1.48253 0
M  V30 6055 O 600.248 -0.799682 1.76971 0
M  V30 6056 C 597.378 -1.04096 3.31333 0
M  V30 6057 C 596.332 -0.377899 4.26328 0
M  V30 6058 C 595.658 -1.4695 5.14111 0
M  V30 6059 C 596.958 0.716371 5.17364 0
M  V30 6060 H 598.652 0.684287 2.91475 0
M  V30 6061 H 596.198 0.330518 1.40156 0
M  V30 6062 H 598.151 -1.53331 3.92514 0
M  V30 6063 H 596.875 -1.81547 2.71493 0
M  V30 6064 H 595.534 0.0938054 3.6648 0
M  V30 6065 H 595.182 -2.2349 4.50623 0
M  V30 6066 H 594.882 -1.03121 5.78481 0
M  V30 6067 H 596.406 -1.96363 5.78164 0
M  V30 6068 H 597.82 0.307089 5.72477 0
M  V30 6069 H 596.217 1.07784 5.90341 0
M  V30 6070 H 597.287 1.58316 4.58327 0
M  V30 6071 N 598.631 -1.53133 0.372548 0
M  V30 6072 C 599.541 -2.29671 -0.478379 0
M  V30 6073 C 600.557 -1.35913 -1.08644 0
M  V30 6074 O 601.733 -1.68975 -1.09588 0
M  V30 6075 C 598.798 -3.07625 -1.599 0
M  V30 6076 C 597.859 -4.17061 -1.01776 0
M  V30 6077 C 597.092 -4.91289 -2.08497 0
M  V30 6078 O 597.315 -4.65442 -3.29727 0
M  V30 6079 O 596.249 -5.7705 -1.71164 0
M  V30 6080 H 600.075 -3.03355 0.144649 0
M  V30 6081 H 597.66 -1.48773 0.136729 0
M  V30 6082 H 599.542 -3.56281 -2.25038 0
M  V30 6083 H 598.217 -2.3677 -2.2073 0
M  V30 6084 H 597.124 -3.72641 -0.330098 0
M  V30 6085 H 598.457 -4.90102 -0.453915 0
M  V30 6086 N 600.109 -0.101901 -1.5727 0
M  V30 6087 C 601.52 0.426173 -1.81771 0
M  V30 6088 C 601.871 1.67725 -1.01797 0
M  V30 6089 O 600.996 2.14958 -0.249386 0
M  V30 6090 C 601.591 0.779962 -3.297 0
M  V30 6091 C 600.15 1.25275 -3.54941 0
M  V30 6092 C 599.297 0.252814 -2.76145 0
M  V30 6093 H 602.248 -0.32726 -1.55289 0
M  V30 6094 H 602.269 1.63891 -3.43395 0
M  V30 6095 H 601.781 -0.130778 -3.8788 0
M  V30 6096 H 599.882 2.18097 -3.021 0
M  V30 6097 H 599.995 1.20988 -4.63572 0
M  V30 6098 H 598.359 0.736362 -2.43823 0
M  V30 6099 H 599.142 -0.650724 -3.37076 0
M  V30 6100 N 601.587 1.56661 0.17182 0
M  V30 6101 C 602.864 1.72838 0.915778 0
M  V30 6102 C 603.244 0.66316 2.00413 0
M  V30 6103 O 602.592 -0.322123 2.26218 0
M  V30 6104 C 602.802 3.16019 1.48097 0
M  V30 6105 C 604.15 3.76962 1.95408 0
M  V30 6106 O 605.174 3.19294 1.57892 0
M  V30 6107 O 604.033 4.78219 2.64516 0
M  V30 6108 H 601.127 0.705797 0.431021 0
M  V30 6109 H 603.673 1.68947 0.159689 0
M  V30 6110 H 602.445 3.85031 0.697618 0
M  V30 6111 H 602.068 3.24234 2.30126 0
M  V30 6112 N 603.065 -0.440357 1.51323 0
M  V30 6113 C 603.997 -1.55254 1.68609 0
M  V30 6114 C 605.01 -1.52614 0.566812 0
M  V30 6115 O 606.199 -1.57445 0.841032 0
M  V30 6116 C 603.299 -2.94169 1.68279 0
M  V30 6117 C 602.472 -3.21346 2.96742 0
M  V30 6118 C 601.531 -4.3997 2.8864 0
M  V30 6119 O 600.557 -4.38771 3.62586 0
M  V30 6120 N 601.759 -5.43367 2.04285 0
M  V30 6121 H 604.524 -1.40831 2.6455 0
M  V30 6122 H 602.085 -0.629251 1.49171 0
M  V30 6123 H 604.077 -3.71543 1.60431 0
M  V30 6124 H 602.647 -3.02205 0.799441 0
M  V30 6125 H 601.867 -2.32299 3.18482 0
M  V30 6126 H 603.155 -3.3633 3.81785 0
M  V30 6127 H 602.553 -5.47176 1.43578 0
M  V30 6128 H 601.11 -6.19605 2.02318 0
M  V30 6129 N 604.543 -1.41418 -0.695603 0
M  V30 6130 C 605.473 -1.46035 -1.82197 0
M  V30 6131 C 606.454 -0.319025 -1.67082 0
M  V30 6132 O 607.639 -0.530462 -1.86815 0
M  V30 6133 C 604.769 -1.34179 -3.20333 0
M  V30 6134 C 603.723 -2.46123 -3.50154 0
M  V30 6135 C 603.049 -2.19332 -4.87645 0
M  V30 6136 C 604.349 -3.88463 -3.49133 0
M  V30 6137 H 606.043 -2.40303 -1.78591 0
M  V30 6138 H 603.589 -1.15663 -0.857797 0
M  V30 6139 H 605.542 -1.36021 -3.98844 0
M  V30 6140 H 604.266 -0.363952 -3.24566 0
M  V30 6141 H 602.925 -2.43563 -2.73994 0
M  V30 6142 H 602.573 -1.19891 -4.88503 0
M  V30 6143 H 602.273 -2.94344 -5.08562 0
M  V30 6144 H 603.797 -2.22889 -5.68465 0
M  V30 6145 H 605.211 -3.92738 -4.17648 0
M  V30 6146 H 603.608 -4.63158 -3.81582 0
M  V30 6147 H 604.678 -4.16617 -2.48109 0
M  V30 6148 N 606.021 0.929856 -1.27246 0
M  V30 6149 C 607.267 1.6798 -1.13625 0
M  V30 6150 C 607.6 1.91586 0.317589 0
M  V30 6151 O 606.875 1.50467 1.23247 0
M  V30 6152 C 607.158 3.04766 -1.91806 0
M  V30 6153 C 607.011 2.88415 -3.45162 0
M  V30 6154 C 608.33 4.05063 -1.72082 0
M  V30 6155 H 605.449 0.609632 -0.414147 0
M  V30 6156 H 608.091 1.0792 -1.56376 0
M  V30 6157 H 606.241 3.56034 -1.55474 0
M  V30 6158 H 607.913 2.44282 -3.91311 0
M  V30 6159 H 606.156 2.23802 -3.71611 0
M  V30 6160 H 606.827 3.85482 -3.95105 0
M  V30 6161 H 609.303 3.62798 -2.03757 0
M  V30 6162 H 608.179 4.98765 -2.29182 0
M  V30 6163 H 608.44 4.37021 -0.668206 0
M  V30 6164 N 607.499 1.09233 1.13605 0
M  V30 6165 C 608.429 0.751738 2.21068 0
M  V30 6166 C 609.41 -0.269688 1.67948 0
M  V30 6167 O 610.595 -0.13819 1.93708 0
M  V30 6168 C 607.725 0.16935 3.46887 0
M  V30 6169 C 606.679 1.12007 4.13084 0
M  V30 6170 C 606.005 0.399483 5.33206 0
M  V30 6171 C 607.305 2.46168 4.6065 0
M  V30 6172 H 608.999 1.65024 2.49815 0
M  V30 6173 H 606.545 0.794905 1.20072 0
M  V30 6174 H 608.498 -0.0809824 4.21322 0
M  V30 6175 H 607.222 -0.764335 3.1753 0
M  V30 6176 H 605.881 1.35564 3.40614 0
M  V30 6177 H 605.529 -0.538277 5.00112 0
M  V30 6178 H 605.229 1.03337 5.78442 0
M  V30 6179 H 606.753 0.157403 6.10397 0
M  V30 6180 H 608.167 2.26829 5.26518 0
M  V30 6181 H 606.564 3.05326 5.1662 0
M  V30 6182 H 607.634 3.07076 3.75276 0
M  V30 6183 N 608.977 -1.30795 0.87923 0
M  V30 6184 C 610.223 -1.96653 0.495519 0
M  V30 6185 C 610.556 -1.69282 -0.951703 0
M  V30 6186 O 609.831 -0.994374 -1.6716 0
M  V30 6187 C 610.114 -3.51898 0.764174 0
M  V30 6188 C 609.967 -3.88808 2.2616 0
M  V30 6189 C 611.286 -4.39462 0.236825 0
M  V30 6190 H 608.405 -0.7143 0.181507 0
M  V30 6191 H 611.047 -1.54765 1.10217 0
M  V30 6192 H 609.197 -3.87709 0.247841 0
M  V30 6193 H 610.869 -3.63051 2.8459 0
M  V30 6194 H 609.112 -3.37082 2.73053 0
M  V30 6195 H 609.783 -4.97086 2.4002 0
M  V30 6196 H 612.259 -4.10528 0.678683 0
M  V30 6197 H 611.135 -5.47018 0.454176 0
M  V30 6198 H 611.396 -4.33621 -0.861683 0
M  V30 6199 N 610.455 -0.639598 -1.44038 0
M  V30 6200 C 611.418 0.0506628 -2.29144 0
M  V30 6201 C 612.418 0.764001 -1.41491 0
M  V30 6202 O 613.608 0.607309 -1.63271 0
M  V30 6203 C 610.74 1.0824 -3.2326 0
M  V30 6204 H 611.933 -0.697987 -2.91664 0
M  V30 6205 H 609.486 -0.400146 -1.51091 0
M  V30 6206 H 610.221 1.86075 -2.65606 0
M  V30 6207 H 610.006 0.574725 -3.87865 0
M  V30 6208 H 611.496 1.56487 -3.87171 0
M  V30 6209 N 611.933 1.52934 -0.380664 0
M  V30 6210 C 612.881 2.27727 0.47361 0
M  V30 6211 C 613.875 1.31288 1.0705 0
M  V30 6212 O 615.081 1.4886 1.01197 0
M  V30 6213 H 611.456 0.732189 0.171475 0
M  V30 6214 H 613.427 2.97864 -0.178785 0
M  V30 6215 C 612.176 3.0904 1.59341 0
M  V30 6216 H 611.499 3.831 1.14343 0
M  V30 6217 H 612.939 3.64527 2.16555 0
M  V30 6218 C 611.398 2.20813 2.54447 0
M  V30 6219 O 611.928 1.82907 3.57642 0
M  V30 6220 N 610.134 1.85145 2.23986 0
M  V30 6221 H 609.681 2.16169 1.40103 0
M  V30 6222 H 609.639 1.26402 2.87871 0
M  V30 6223 N 613.412 0.11024 1.57214 0
M  V30 6224 C 614.823 -0.416527 1.81994 0
M  V30 6225 C 615.174 -1.67183 1.02686 0
M  V30 6226 O 614.299 -2.14823 0.260782 0
M  V30 6227 C 614.894 -0.762466 3.30109 0
M  V30 6228 C 613.453 -1.23391 3.556 0
M  V30 6229 C 612.6 -0.238166 2.76275 0
M  V30 6230 H 615.551 0.335491 1.55113 0
M  V30 6231 H 615.572 -1.62068 3.44259 0
M  V30 6232 H 615.084 0.151346 3.87805 0
M  V30 6233 H 613.185 -2.16492 3.03253 0
M  V30 6234 H 613.298 -1.18528 4.64207 0
M  V30 6235 H 611.662 -0.723421 2.4421 0
M  V30 6236 H 612.445 0.668591 3.36727 0
M  V30 6237 N 614.89 -1.56749 -0.16351 0
M  V30 6238 C 615.823 -1.9213 -1.23132 0
M  V30 6239 C 616.801 -0.785047 -1.42393 0
M  V30 6240 O 617.985 -1.0391 -1.57273 0
M  V30 6241 C 615.112 -2.17901 -2.59301 0
M  V30 6242 C 614.158 -3.40576 -2.5673 0
M  V30 6243 S 614.991 -4.94689 -2.05045 0
M  V30 6244 C 616.147 -5.23564 -3.42975 0
M  V30 6245 H 616.38 -2.824 -0.929383 0
M  V30 6246 H 613.913 -1.4994 -0.368418 0
M  V30 6247 H 615.871 -2.33429 -3.3767 0
M  V30 6248 H 614.532 -1.28324 -2.86691 0
M  V30 6249 H 613.725 -3.55833 -3.5693 0
M  V30 6250 H 613.327 -3.24204 -1.86462 0
M  V30 6251 H 615.619 -5.16019 -4.3901 0
M  V30 6252 H 616.562 -6.25134 -3.32586 0
M  V30 6253 H 616.97 -4.51113 -3.39348 0
M  V30 6254 N 616.368 0.432326 -1.51554 0
M  V30 6255 C 617.616 1.17901 -1.64146 0
M  V30 6256 C 617.937 1.91604 -0.362367 0
M  V30 6257 O 617.207 1.85764 0.621968 0
M  V30 6258 H 615.787 0.438206 -0.604966 0
M  V30 6259 H 618.449 0.495172 -1.88505 0
M  V30 6260 H 617.545 1.90584 -2.47152 0
M  V30 6261 N 617.846 1.41785 0.688094 0
M  V30 6262 C 619.094 1.41264 1.4453 0
M  V30 6263 C 619.415 0.0252946 1.94984 0
M  V30 6264 O 618.685 -0.934081 1.72197 0
M  V30 6265 H 617.265 0.519998 0.536294 0
M  V30 6266 H 619.927 1.7709 0.813941 0
M  V30 6267 H 619.023 2.10439 2.30482 0
M  V30 6268 N 619.324 -0.923095 1.27737 0
M  V30 6269 C 620.552 -1.70525 1.17171 0
M  V30 6270 C 620.967 -1.86847 -0.270881 0
M  V30 6271 O 620.324 -1.38879 -1.18401 0
M  V30 6272 C 620.375 -3.10242 1.85559 0
M  V30 6273 O 620.096 -2.94683 3.24182 0
M  V30 6274 C 621.597 -4.04586 1.81176 0
M  V30 6275 H 618.817 -0.533347 0.407163 0
M  V30 6276 H 621.361 -1.15599 1.68692 0
M  V30 6277 H 619.516 -3.62014 1.3793 0
M  V30 6278 H 619.93 -3.83045 3.58297 0
M  V30 6279 H 621.404 -5.00119 2.33633 0
M  V30 6280 H 621.881 -4.3218 0.782099 0
M  V30 6281 H 622.487 -3.58741 2.2844 0
M  V30 6282 N 620.802 -1.09834 -1.13024 0
M  V30 6283 C 622.049 -0.83695 -1.84395 0
M  V30 6284 C 622.377 0.637463 -1.83757 0
M  V30 6285 O 621.632 1.48554 -1.27398 0
M  V30 6286 C 621.931 -1.32263 -3.32026 0
M  V30 6287 C 621.597 -2.80739 -3.52841 0
M  V30 6288 C 620.259 -3.21286 -3.5823 0
M  V30 6289 C 622.611 -3.76449 -3.60466 0
M  V30 6290 C 619.939 -4.56308 -3.68781 0
M  V30 6291 C 622.291 -5.11266 -3.72546 0
M  V30 6292 C 620.955 -5.51397 -3.76189 0
M  V30 6293 H 620.225 -0.306262 -0.674748 0
M  V30 6294 H 622.872 -1.37385 -1.33408 0
M  V30 6295 H 621.177 -0.705618 -3.85394 0
M  V30 6296 H 622.874 -1.09695 -3.85705 0
M  V30 6297 H 619.464 -2.48363 -3.49305 0
M  V30 6298 H 623.648 -3.46234 -3.55578 0
M  V30 6299 H 618.904 -4.86832 -3.69871 0
M  V30 6300 H 623.078 -5.85279 -3.77388 0
M  V30 6301 H 620.705 -6.56017 -3.84117 0
M  V30 6302 N 622.28 1.30327 -0.886154 0
M  V30 6303 C 623.528 1.9571 -0.504195 0
M  V30 6304 C 623.849 1.70294 0.950003 0
M  V30 6305 O 623.119 1.02718 1.66811 0
M  V30 6306 H 621.699 0.72412 -0.183465 0
M  V30 6307 H 624.361 1.58835 -1.12949 0
M  V30 6308 H 623.457 3.04704 -0.675431 0
M  V30 6309 N 623.758 0.647228 1.43697 0
M  V30 6310 C 624.988 0.16551 2.05936 0
M  V30 6311 C 625.396 -1.17164 1.48557 0
M  V30 6312 O 624.739 -1.73307 0.60914 0
M  V30 6313 C 624.801 -0.00648082 3.59499 0
M  V30 6314 C 624.465 1.25503 4.39429 0
M  V30 6315 C 625.462 2.18241 4.71876 0
M  V30 6316 C 623.147 1.49494 4.79538 0
M  V30 6317 C 625.141 3.33268 5.43333 0
M  V30 6318 C 622.828 2.64815 5.50742 0
M  V30 6319 C 623.826 3.56528 5.82561 0
M  V30 6320 O 623.514 4.69836 6.52311 0
M  V30 6321 H 623.246 0.0844124 0.670709 0
M  V30 6322 H 625.8 0.88638 1.8529 0
M  V30 6323 H 624.03 -0.782661 3.78697 0
M  V30 6324 H 625.719 -0.444794 4.03456 0
M  V30 6325 H 626.485 2.00946 4.41413 0
M  V30 6326 H 622.364 0.789912 4.54182 0
M  V30 6327 H 625.908 4.04874 5.68087 0
M  V30 6328 H 621.805 2.82047 5.8062 0
M  V30 6329 H 622.573 4.69024 6.70789 0
M  V30 6330 N 625.236 -1.5273 0.388769 0
M  V30 6331 C 626.183 -2.26437 -0.446639 0
M  V30 6332 C 627.153 -1.28025 -1.05824 0
M  V30 6333 O 628.338 -1.56852 -1.08637 0
M  V30 6334 C 625.478 -3.07407 -1.56828 0
M  V30 6335 C 624.591 -4.20747 -0.979589 0
M  V30 6336 C 623.726 -4.89113 -2.07224 0
M  V30 6337 C 622.765 -5.94447 -1.45942 0
M  V30 6338 N 621.902 -6.56411 -2.49135 0
M  V30 6339 H 626.742 -2.97404 0.18837 0
M  V30 6340 H 624.279 -1.46727 0.104725 0
M  V30 6341 H 626.237 -3.52642 -2.22934 0
M  V30 6342 H 624.867 -2.3865 -2.17361 0
M  V30 6343 H 623.919 -3.7983 -0.208151 0
M  V30 6344 H 625.231 -4.9637 -0.491747 0
M  V30 6345 H 624.385 -5.3765 -2.81101 0
M  V30 6346 H 623.124 -4.13013 -2.59368 0
M  V30 6347 H 622.129 -5.4525 -0.705894 0
M  V30 6348 H 623.354 -6.7248 -0.945932 0
M  V30 6349 H 621.3 -5.83152 -3.00449 0
M  V30 6350 H 621.217 -7.27645 -2.05105 0
M  V30 6351 H 622.485 -7.09592 -3.22644 0
M  V30 6352 N 626.714 -0.118576 -1.57153 0
M  V30 6353 C 627.961 0.539526 -1.9518 0
M  V30 6354 C 628.289 1.66714 -1.00184 0
M  V30 6355 O 627.544 1.95683 -0.0256482 0
M  V30 6356 C 627.843 1.11303 -3.39627 0
M  V30 6357 C 627.509 0.106809 -4.50773 0
M  V30 6358 C 626.171 -0.169876 -4.809 0
M  V30 6359 C 628.523 -0.57895 -5.17975 0
M  V30 6360 C 625.851 -1.13861 -5.75545 0
M  V30 6361 C 628.203 -1.53631 -6.13661 0
M  V30 6362 C 626.867 -1.82099 -6.42181 0
M  V30 6363 H 626.137 0.197427 -0.714215 0
M  V30 6364 H 628.784 -0.199391 -1.90459 0
M  V30 6365 H 627.089 1.92869 -3.4104 0
M  V30 6366 H 628.786 1.63032 -3.66363 0
M  V30 6367 H 625.376 0.332645 -4.27307 0
M  V30 6368 H 629.56 -0.378359 -4.94856 0
M  V30 6369 H 624.816 -1.36592 -5.95947 0
M  V30 6370 H 628.99 -2.07337 -6.64819 0
M  V30 6371 H 626.617 -2.57319 -7.15326 0
M  V30 6372 N 628.193 1.56834 0.155195 0
M  V30 6373 C 629.418 1.87412 0.888337 0
M  V30 6374 C 629.843 0.70671 1.74319 0
M  V30 6375 O 629.201 -0.343892 1.78009 0
M  V30 6376 C 629.249 3.1652 1.72765 0
M  V30 6377 O 628.353 2.99877 2.83103 0
M  V30 6378 H 627.694 0.615983 0.247914 0
M  V30 6379 H 630.224 2.04061 0.148478 0
M  V30 6380 H 630.234 3.48334 2.12433 0
M  V30 6381 H 628.909 4.01094 1.09985 0
M  V30 6382 H 627.486 2.79453 2.46902 0
M  V30 6383 N 629.671 -0.424282 1.51781 0
M  V30 6384 C 631.082 -1.00368 1.57427 0
M  V30 6385 C 631.433 -1.91962 0.40558 0
M  V30 6386 O 630.558 -2.111 -0.47601 0
M  V30 6387 C 631.153 -1.82707 2.85313 0
M  V30 6388 C 629.712 -2.35675 2.93487 0
M  V30 6389 C 628.859 -1.1524 2.5222 0
M  V30 6390 H 631.81 -0.205064 1.5737 0
M  V30 6391 H 631.831 -2.68294 2.69812 0
M  V30 6392 H 631.343 -1.16017 3.70353 0
M  V30 6393 H 629.444 -3.05781 2.12906 0
M  V30 6394 H 629.557 -2.67578 3.97415 0
M  V30 6395 H 627.921 -1.50174 2.05718 0
M  V30 6396 H 628.704 -0.5014 3.39619 0
M  V30 6397 N 631.149 -1.42148 -0.680565 0
M  V30 6398 C 632.377 -1.45696 -1.46902 0
M  V30 6399 C 632.792 -0.0665858 -1.88683 0
M  V30 6400 O 632.149 0.917436 -1.57764 0
M  V30 6401 C 632.2 -2.37898 -2.72188 0
M  V30 6402 O 631.921 -3.71526 -2.32163 0
M  V30 6403 C 633.422 -2.50407 -3.65802 0
M  V30 6404 H 630.642 -0.495729 -0.45221 0
M  V30 6405 H 633.186 -1.866 -0.836709 0
M  V30 6406 H 631.341 -2.00263 -3.31622 0
M  V30 6407 H 631.755 -4.20849 -3.13027 0
M  V30 6408 H 633.229 -3.19056 -4.50452 0
M  V30 6409 H 633.706 -1.5401 -4.11312 0
M  V30 6410 H 634.312 -2.8874 -3.12265 0
M  V30 6411 N 632.627 0.916307 -1.28225 0
M  V30 6412 C 633.852 1.7043 -1.18188 0
M  V30 6413 C 634.277 1.86346 0.256274 0
M  V30 6414 O 633.635 1.37175 1.18544 0
M  V30 6415 C 633.683 3.07546 -1.88275 0
M  V30 6416 O 632.787 3.94904 -1.18848 0
M  V30 6417 H 632.128 0.521967 -0.410423 0
M  V30 6418 H 634.658 1.14589 -1.69501 0
M  V30 6419 H 634.668 3.57793 -1.96082 0
M  V30 6420 H 633.343 2.95279 -2.92887 0
M  V30 6421 H 631.92 3.53339 -1.19187 0
M  V30 6422 N 634.105 1.10431 1.1244 0
M  V30 6423 C 635.015 0.765502 2.21759 0
M  V30 6424 C 636.031 -0.236966 1.72379 0
M  V30 6425 O 637.207 -0.0757329 2.01258 0
M  V30 6426 C 634.272 0.202316 3.46109 0
M  V30 6427 C 633.333 1.26205 4.1033 0
M  V30 6428 C 632.566 0.725648 5.28744 0
M  V30 6429 O 632.789 -0.447942 5.68638 0
M  V30 6430 O 631.723 1.48555 5.83279 0
M  V30 6431 H 635.549 1.67801 2.53133 0
M  V30 6432 H 633.134 0.879443 1.20773 0
M  V30 6433 H 635.016 -0.107918 4.21262 0
M  V30 6434 H 633.691 -0.683052 3.16411 0
M  V30 6435 H 632.598 1.62514 3.36957 0
M  V30 6436 H 633.931 2.12044 4.44183 0
M  V30 6437 N 635.583 -1.29855 0.893053 0
M  V30 6438 C 636.546 -2.26183 0.370687 0
M  V30 6439 C 637.546 -1.53108 -0.491385 0
M  V30 6440 O 638.736 -1.71643 -0.297386 0
M  V30 6441 C 635.868 -3.37633 -0.470827 0
M  V30 6442 H 637.061 -2.73903 1.22135 0
M  V30 6443 H 634.614 -1.41183 0.67061 0
M  V30 6444 H 635.349 -2.95241 -1.34175 0
M  V30 6445 H 635.134 -3.91825 0.146784 0
M  V30 6446 H 636.624 -4.09313 -0.827825 0
M  V30 6447 N 637.061 -0.65484 -1.43351 0
M  V30 6448 C 637.991 0.0221809 -2.33489 0
M  V30 6449 C 638.972 0.810272 -1.49561 0
M  V30 6450 O 640.157 0.771426 -1.78221 0
M  V30 6451 C 637.287 0.988117 -3.32947 0
M  V30 6452 C 636.241 0.310026 -4.26876 0
M  V30 6453 C 635.567 1.38752 -5.16384 0
M  V30 6454 C 636.867 -0.798589 -5.16159 0
M  V30 6455 H 638.561 -0.730571 -2.9035 0
M  V30 6456 H 636.107 -0.352773 -1.39612 0
M  V30 6457 H 638.06 1.47067 -3.94904 0
M  V30 6458 H 636.784 1.77205 -2.74346 0
M  V30 6459 H 635.443 -0.152097 -3.66284 0
M  V30 6460 H 635.091 2.16293 -4.54121 0
M  V30 6461 H 634.791 0.939051 -5.80048 0
M  V30 6462 H 636.315 1.87141 -5.81215 0
M  V30 6463 H 637.729 -0.398126 -5.71916 0
M  V30 6464 H 636.126 -1.17163 -5.88552 0
M  V30 6465 H 637.196 -1.65588 -4.55751 0
M  V30 6466 N 638.539 1.52521 -0.396863 0
M  V30 6467 C 639.785 2.01971 0.183169 0
M  V30 6468 C 640.118 1.2825 1.45827 0
M  V30 6469 O 639.393 0.385179 1.90648 0
M  V30 6470 C 639.676 3.5736 0.443391 0
M  V30 6471 C 639.529 4.41743 -0.84753 0
M  V30 6472 C 640.848 4.22539 1.2308 0
M  V30 6473 H 637.967 0.734119 0.0650976 0
M  V30 6474 H 640.609 1.82519 -0.527918 0
M  V30 6475 H 638.759 3.74066 1.04914 0
M  V30 6476 H 640.431 4.36773 -1.48414 0
M  V30 6477 H 638.674 4.0845 -1.4612 0
M  V30 6478 H 639.345 5.48507 -0.620003 0
M  V30 6479 H 641.821 4.09857 0.718084 0
M  V30 6480 H 640.697 5.31227 1.38162 0
M  V30 6481 H 640.958 3.80675 2.24808 0
M  V30 6482 N 640.017 0.126909 1.57088 0
M  V30 6483 C 640.98 -0.806097 2.14557 0
M  V30 6484 C 641.98 -1.18918 1.08236 0
M  V30 6485 O 643.17 -1.11339 1.33975 0
M  V30 6486 C 640.302 -2.09116 2.69227 0
M  V30 6487 H 641.495 -0.306522 2.98329 0
M  V30 6488 H 639.048 -0.122393 1.5582 0
M  V30 6489 H 639.783 -2.63486 1.89065 0
M  V30 6490 H 639.568 -1.82588 3.46993 0
M  V30 6491 H 641.058 -2.75794 3.13572 0
M  V30 6492 N 641.495 -1.56914 -0.146875 0
M  V30 6493 C 642.741 -1.83628 -0.860741 0
M  V30 6494 C 643.074 -0.708528 -1.80813 0
M  V30 6495 O 642.349 0.287838 -1.92358 0
M  V30 6496 C 642.632 -3.20836 -1.63511 0
M  V30 6497 C 642.485 -4.44174 -0.709199 0
M  V30 6498 C 643.804 -3.55268 -2.59756 0
M  V30 6499 H 640.923 -0.667949 -0.311468 0
M  V30 6500 H 643.565 -1.89582 -0.125936 0
M  V30 6501 H 641.715 -3.15891 -2.26153 0
M  V30 6502 H 643.387 -4.61205 -0.0937781 0
M  V30 6503 H 641.63 -4.33796 -0.0187856 0
M  V30 6504 H 642.301 -5.36785 -1.28707 0
M  V30 6505 H 644.777 -3.60824 -2.07232 0
M  V30 6506 H 643.653 -4.52303 -3.10987 0
M  V30 6507 H 643.914 -2.81231 -3.41118 0
M  V30 6508 N 642.974 0.416227 -1.52004 0
M  V30 6509 C 643.937 1.48926 -1.74223 0
M  V30 6510 C 644.937 1.48693 -0.612119 0
M  V30 6511 O 646.127 1.50343 -0.879921 0
M  V30 6512 C 643.259 2.88372 -1.81809 0
M  V30 6513 H 644.452 1.3052 -2.70008 0
M  V30 6514 H 642.005 0.646271 -1.42313 0
M  V30 6515 H 642.74 3.12157 -0.879135 0
M  V30 6516 H 642.525 2.89944 -2.6396 0
M  V30 6517 H 644.015 3.66173 -2.00766 0
M  V30 6518 N 644.452 1.42507 0.673017 0
M  V30 6519 C 645.415 1.4582 1.76831 0
M  V30 6520 C 646.415 0.345542 1.57043 0
M  V30 6521 O 647.605 0.606447 1.63303 0
M  V30 6522 C 644.737 1.29158 3.15485 0
M  V30 6523 H 645.93 2.43345 1.7528 0
M  V30 6524 H 643.483 1.28981 0.882817 0
M  V30 6525 H 644.218 0.325626 3.22661 0
M  V30 6526 H 644.003 2.09797 3.31252 0
M  V30 6527 H 645.493 1.34363 3.95394 0
M  V30 6528 N 645.93 -0.909495 1.28709 0
M  V30 6529 C 646.863 -2.01388 1.07323 0
M  V30 6530 C 647.841 -1.62596 -0.0119757 0
M  V30 6531 O 649.025 -1.88003 0.136796 0
M  V30 6532 C 646.152 -3.32755 0.631797 0
M  V30 6533 C 645.198 -3.90532 1.71428 0
M  V30 6534 S 646.031 -4.20853 3.31124 0
M  V30 6535 C 647.187 -5.55276 2.88825 0
M  V30 6536 H 647.42 -2.19219 2.00824 0
M  V30 6537 H 644.953 -1.05489 1.12745 0
M  V30 6538 H 646.911 -4.08702 0.38381 0
M  V30 6539 H 645.572 -3.12818 -0.283451 0
M  V30 6540 H 644.765 -4.85385 1.35712 0
M  V30 6541 H 644.367 -3.21237 1.91528 0
M  V30 6542 H 646.659 -6.35341 2.3526 0
M  V30 6543 H 647.602 -5.95907 3.82492 0
M  V30 6544 H 648.01 -5.16666 2.27412 0
M  V30 6545 N 647.408 -1.11026 -1.11852 0
M  V30 6546 C 648.371 -0.768006 -2.1595 0
M  V30 6547 C 649.371 0.210538 -1.59416 0
M  V30 6548 O 650.561 -0.0133978 -1.74195 0
M  V30 6549 C 647.693 -0.138678 -3.40618 0
M  V30 6550 H 648.886 -1.69012 -2.4774 0
M  V30 6551 H 646.439 -0.911578 -1.26964 0
M  V30 6552 H 647.174 0.793872 -3.14433 0
M  V30 6553 H 646.959 -0.843012 -3.8293 0
M  V30 6554 H 648.449 0.0848039 -4.17514 0
M  V30 6555 N 648.886 1.2938 -0.899927 0
M  V30 6556 C 650.114 1.99691 -0.541386 0
M  V30 6557 C 650.529 1.67355 0.873936 0
M  V30 6558 O 649.886 0.918728 1.57688 0
M  V30 6559 C 649.937 3.54168 -0.72438 0
M  V30 6560 O 649.658 3.85359 -2.08399 0
M  V30 6561 C 651.159 4.41746 -0.370819 0
M  V30 6562 H 648.379 0.638037 -0.207726 0
M  V30 6563 H 650.923 1.6491 -1.20934 0
M  V30 6564 H 649.078 3.87261 -0.103607 0
M  V30 6565 H 649.492 4.80032 -2.11352 0
M  V30 6566 H 650.966 5.49256 -0.549693 0
M  V30 6567 H 651.443 4.33712 0.692148 0
M  V30 6568 H 652.049 4.14125 -0.968543 0
M  V30 6569 N 650.364 0.662433 1.43002 0
M  V30 6570 C 651.612 0.179237 2.01304 0
M  V30 6571 C 651.933 -1.21428 1.52579 0
M  V30 6572 O 651.203 -1.81294 0.742252 0
M  V30 6573 H 649.783 0.0632725 0.744316 0
M  V30 6574 H 652.445 0.856169 1.75088 0
M  V30 6575 H 651.541 0.170957 3.11631 0
M  V30 6576 N 651.842 -1.52309 0.404946 0
M  V30 6577 C 653.258 -1.59503 0.0556255 0
M  V30 6578 C 653.458 -1.41805 -1.43156 0
M  V30 6579 O 652.514 -1.2429 -2.19792 0
M  V30 6580 C 653.827 -2.95687 0.546801 0
M  V30 6581 C 655.375 -3.08909 0.504413 0
M  V30 6582 C 655.85 -4.47566 0.97203 0
M  V30 6583 N 657.341 -4.53795 0.928679 0
M  V30 6584 C 658.076 -5.59346 1.26174 0
M  V30 6585 N 657.572 -6.72469 1.66604 0
M  V30 6586 N 659.365 -5.49532 1.18198 0
M  V30 6587 H 651.516 -1.6206 1.37296 0
M  V30 6588 H 653.779 -0.762161 0.563751 0
M  V30 6589 H 653.485 -3.13905 1.58609 0
M  V30 6590 H 653.359 -3.77172 -0.0457905 0
M  V30 6591 H 655.746 -2.90378 -0.525819 0
M  V30 6592 H 655.827 -2.2934 1.13301 0
M  V30 6593 H 655.471 -4.6684 2.00057 0
M  V30 6594 H 655.401 -5.25625 0.320292 0
M  V30 6595 H 657.892 -3.72588 0.631369 0
M  V30 6596 H 658.205 -7.48993 1.9034 0
M  V30 6597 H 656.55 -6.73761 1.70504 0
M  V30 6598 H 659.741 -4.60038 0.865011 0
M  V30 6599 H 659.914 -6.31687 1.44485 0
M  V30 6600 N 653.32 -0.135238 -1.57019 0
M  V30 6601 C 654.731 0.387521 -1.82634 0
M  V30 6602 C 655.082 1.65528 -1.05332 0
M  V30 6603 O 654.207 2.14381 -0.294926 0
M  V30 6604 C 654.802 0.709852 -3.3128 0
M  V30 6605 C 653.361 1.17718 -3.57518 0
M  V30 6606 C 652.508 0.194183 -2.76619 0
M  V30 6607 H 655.459 -0.360126 -1.5456 0
M  V30 6608 H 655.48 1.5657 -3.46794 0
M  V30 6609 H 654.992 -0.213024 -3.87515 0
M  V30 6610 H 653.093 2.1164 -3.06658 0
M  V30 6611 H 653.206 1.11128 -4.66034 0
M  V30 6612 H 651.57 0.684478 -2.4533 0
M  V30 6613 H 652.353 -0.722076 -3.3562 0
M  V30 6614 N 654.798 1.5699 0.138552 0
M  V30 6615 C 656.044 1.84081 0.85099 0
M  V30 6616 C 656.377 0.718107 1.80435 0
M  V30 6617 O 655.652 -0.277633 1.92508 0
M  V30 6618 C 655.935 3.21699 1.61808 0
M  V30 6619 C 655.788 4.44544 0.685633 0
M  V30 6620 C 657.107 3.5664 2.57868 0
M  V30 6621 H 654.226 0.669592 0.307922 0
M  V30 6622 H 656.868 1.89646 0.11588 0
M  V30 6623 H 655.018 3.17086 2.24474 0
M  V30 6624 H 656.69 4.61248 0.0693179 0
M  V30 6625 H 654.933 4.338 -0.00421993 0
M  V30 6626 H 655.604 5.3746 1.25858 0
M  V30 6627 H 658.08 3.61918 2.05316 0
M  V30 6628 H 656.956 4.53946 3.08584 0
M  V30 6629 H 657.217 2.83036 3.39622 0
M  V30 6630 N 656.276 -0.40816 1.52223 0
M  V30 6631 C 657.226 -1.49648 1.72016 0
M  V30 6632 C 658.21 -1.50311 0.574069 0
M  V30 6633 O 659.402 -1.56271 0.831173 0
M  V30 6634 C 656.531 -2.87566 1.87512 0
M  V30 6635 C 655.617 -2.91547 3.07995 0
M  V30 6636 N 656.008 -2.65225 4.30685 0
M  V30 6637 C 654.306 -3.22715 3.07849 0
M  V30 6638 C 655.007 -2.75799 5.12162 0
M  V30 6639 N 653.983 -3.08719 4.4743 0
M  V30 6640 H 657.785 -1.28093 2.64517 0
M  V30 6641 H 655.299 -0.61588 1.50269 0
M  V30 6642 H 657.296 -3.65899 1.99809 0
M  V30 6643 H 655.956 -3.10118 0.962114 0
M  V30 6644 H 656.967 -2.39601 4.59142 0
M  V30 6645 H 653.644 -3.50856 2.26289 0
M  V30 6646 H 655.034 -2.59155 6.1991 0
M  V30 6647 N 657.755 -1.42862 -0.66545 0
M  V30 6648 C 658.685 -1.49867 -1.79059 0
M  V30 6649 C 659.666 -0.354394 -1.66367 0
M  V30 6650 O 660.851 -0.569969 -1.85647 0
M  V30 6651 C 657.981 -1.40943 -3.17415 0
M  V30 6652 C 656.935 -2.53495 -3.44854 0
M  V30 6653 C 656.261 -2.29626 -4.82883 0
M  V30 6654 C 657.561 -3.95781 -3.40815 0
M  V30 6655 H 659.255 -2.44037 -1.73453 0
M  V30 6656 H 656.801 -1.17456 -0.833071 0
M  V30 6657 H 658.754 -1.4445 -3.95869 0
M  V30 6658 H 657.478 -0.432716 -3.23721 0
M  V30 6659 H 656.137 -2.4932 -2.68766 0
M  V30 6660 H 655.785 -1.30226 -4.8585 0
M  V30 6661 H 655.485 -3.05065 -5.02204 0
M  V30 6662 H 657.009 -2.34897 -5.63609 0
M  V30 6663 H 658.423 -4.01508 -4.09224 0
M  V30 6664 H 656.82 -4.71148 -3.71672 0
M  V30 6665 H 657.89 -4.21786 -2.39216 0
M  V30 6666 N 659.233 0.902656 -1.29189 0
M  V30 6667 C 660.649 1.18296 -1.07137 0
M  V30 6668 C 660.849 2.00701 0.179223 0
M  V30 6669 O 659.905 2.3675 0.877812 0
M  V30 6670 C 661.218 1.90677 -2.32514 0
M  V30 6671 C 662.766 2.03515 -2.37804 0
M  V30 6672 C 663.241 2.79307 -3.62976 0
M  V30 6673 N 664.732 2.86862 -3.63681 0
M  V30 6674 C 665.467 3.46035 -4.57217 0
M  V30 6675 N 664.963 4.06399 -5.61081 0
M  V30 6676 N 666.756 3.43681 -4.44792 0
M  V30 6677 H 658.907 0.352765 -2.0945 0
M  V30 6678 H 661.17 0.21876 -0.922414 0
M  V30 6679 H 660.876 1.3756 -3.23682 0
M  V30 6680 H 660.75 2.91169 -2.39793 0
M  V30 6681 H 663.137 2.55809 -1.47125 0
M  V30 6682 H 663.218 1.02166 -2.34512 0
M  V30 6683 H 662.862 2.2769 -4.54004 0
M  V30 6684 H 662.792 3.80995 -3.63525 0
M  V30 6685 H 665.283 2.43987 -2.88581 0
M  V30 6686 H 665.596 4.49564 -6.2858 0
M  V30 6687 H 663.941 4.0487 -5.64894 0
M  V30 6688 H 667.132 2.9574 -3.62843 0
M  V30 6689 H 667.305 3.89503 -5.17872 0
M  V30 6690 N 660.711 1.11618 1.11262 0
M  V30 6691 C 661.941 0.88745 1.86569 0
M  V30 6692 C 662.349 -0.56636 1.80524 0
M  V30 6693 O 661.692 -1.40289 1.18594 0
M  V30 6694 C 661.754 1.27313 3.36202 0
M  V30 6695 C 661.418 2.73649 3.66013 0
M  V30 6696 C 662.415 3.71863 3.63337 0
M  V30 6697 C 660.1 3.10342 3.9496 0
M  V30 6698 C 662.094 5.04788 3.89188 0
M  V30 6699 C 659.781 4.43451 4.20469 0
M  V30 6700 C 660.779 5.40484 4.17572 0
M  V30 6701 O 660.467 6.71195 4.42439 0
M  V30 6702 H 660.199 0.317543 0.596777 0
M  V30 6703 H 662.753 1.48768 1.41624 0
M  V30 6704 H 660.983 0.616062 3.81761 0
M  V30 6705 H 662.672 1.01991 3.92877 0
M  V30 6706 H 663.438 3.44861 3.41022 0
M  V30 6707 H 659.317 2.35431 3.9635 0
M  V30 6708 H 662.861 5.80516 3.86842 0
M  V30 6709 H 658.758 4.70187 4.42261 0
M  V30 6710 H 659.526 6.77012 4.59997 0
M  V30 6711 N 662.189 -1.289 0.906776 0
M  V30 6712 C 663.137 -2.29477 0.379873 0
M  V30 6713 C 664.131 -1.61068 -0.524747 0
M  V30 6714 O 665.337 -1.75344 -0.406765 0
M  V30 6715 H 661.712 -0.744742 0.10423 0
M  V30 6716 H 663.683 -2.71353 1.24137 0
M  V30 6717 C 662.432 -3.45713 -0.371154 0
M  V30 6718 H 661.755 -3.98551 0.315716 0
M  V30 6719 H 663.195 -4.18105 -0.704581 0
M  V30 6720 C 661.654 -2.9774 -1.57646 0
M  V30 6721 O 662.184 -2.99618 -2.67567 0
M  V30 6722 N 660.39 -2.53485 -1.42105 0
M  V30 6723 H 659.937 -2.52156 -0.526783 0
M  V30 6724 H 659.895 -2.21747 -2.22881 0
M  V30 6725 N 663.667 -0.670007 -1.42649 0
M  V30 6726 C 664.897 -0.198252 -2.05647 0
M  V30 6727 C 665.305 1.14786 -1.50402 0
M  V30 6728 O 664.648 1.72316 -0.636634 0
M  V30 6729 C 664.71 -0.0507132 -3.59464 0
M  V30 6730 C 664.374 -1.32478 -4.37377 0
M  V30 6731 C 665.371 -2.2572 -4.68344 0
M  V30 6732 C 663.056 -1.57104 -4.77099 0
M  V30 6733 C 665.05 -3.4187 -5.37963 0
M  V30 6734 C 662.737 -2.73543 -5.46459 0
M  V30 6735 C 663.735 -3.65751 -5.76815 0
M  V30 6736 O 663.423 -4.80154 -6.44753 0
M  V30 6737 H 663.155 -0.0950721 -0.669281 0
M  V30 6738 H 665.709 -0.915745 -1.83857 0
M  V30 6739 H 663.939 0.722314 -3.79894 0
M  V30 6740 H 665.628 0.380552 -4.04112 0
M  V30 6741 H 666.394 -2.07943 -4.38161 0
M  V30 6742 H 662.273 -0.862069 -4.52868 0
M  V30 6743 H 665.817 -4.13861 -5.61574 0
M  V30 6744 H 661.714 -2.91248 -5.7606 0
M  V30 6745 H 662.482 -4.79637 -6.63243 0
M  V30 6746 N 665.145 1.52092 -0.413018 0
M  V30 6747 C 666.077 2.24819 0.445994 0
M  V30 6748 C 667.09 1.27925 1.00692 0
M  V30 6749 O 668.279 1.53845 0.905204 0
M  V30 6750 C 665.379 2.96951 1.6332 0
M  V30 6751 C 664.552 4.20746 1.19548 0
M  V30 6752 C 663.611 4.75668 2.25003 0
M  V30 6753 O 662.637 5.38148 1.85434 0
M  V30 6754 N 663.839 4.57579 3.57214 0
M  V30 6755 H 666.604 2.99176 -0.177209 0
M  V30 6756 H 664.165 1.60102 -0.240601 0
M  V30 6757 H 666.157 3.30586 2.33441 0
M  V30 6758 H 664.727 2.25756 2.16225 0
M  V30 6759 H 663.947 3.92881 0.32224 0
M  V30 6760 H 665.235 5.01132 0.880033 0
M  V30 6761 H 664.633 4.07758 3.92109 0
M  V30 6762 H 663.19 4.95642 4.23299 0
M  V30 6763 N 666.623 0.143563 1.56945 0
M  V30 6764 C 667.555 -0.828353 2.13708 0
M  V30 6765 C 668.568 -1.21313 1.08568 0
M  V30 6766 O 669.757 -1.1578 1.35857 0
M  V30 6767 C 666.857 -2.12248 2.64204 0
M  V30 6768 C 666.03 -1.90561 3.93707 0
M  V30 6769 C 665.089 -3.03931 4.29549 0
M  V30 6770 O 664.115 -2.75772 4.97934 0
M  V30 6771 N 665.317 -4.31016 3.88852 0
M  V30 6772 H 668.082 -0.343242 2.97728 0
M  V30 6773 H 665.643 -0.0401152 1.6185 0
M  V30 6774 H 667.635 -2.87132 2.85197 0
M  V30 6775 H 666.205 -2.52033 1.84928 0
M  V30 6776 H 665.425 -0.997327 3.81375 0
M  V30 6777 H 666.713 -1.73405 4.78339 0
M  V30 6778 H 666.111 -4.56762 3.33743 0
M  V30 6779 H 664.668 -5.02691 4.14903 0
M  V30 6780 N 668.101 -1.57061 -0.130224 0
M  V30 6781 C 669.033 -1.96147 -1.18571 0
M  V30 6782 C 670.046 -0.859347 -1.38272 0
M  V30 6783 O 671.235 -1.13769 -1.37545 0
M  V30 6784 C 668.335 -2.23484 -2.54771 0
M  V30 6785 C 667.508 -3.54786 -2.55824 0
M  V30 6786 C 666.567 -3.70467 -3.73686 0
M  V30 6787 O 665.593 -4.42693 -3.57787 0
M  V30 6788 N 666.795 -3.08389 -4.91809 0
M  V30 6789 H 669.56 -2.87295 -0.853333 0
M  V30 6790 H 667.121 -1.58714 -0.319621 0
M  V30 6791 H 669.113 -2.312 -3.32158 0
M  V30 6792 H 667.683 -1.38518 -2.80235 0
M  V30 6793 H 666.903 -3.5836 -1.64232 0
M  V30 6794 H 668.191 -4.4111 -2.53573 0
M  V30 6795 H 667.589 -2.49656 -5.0763 0
M  V30 6796 H 666.146 -3.21642 -5.66912 0
M  V30 6797 N 669.579 0.400081 -1.52437 0
M  V30 6798 C 670.511 1.50729 -1.72666 0
M  V30 6799 C 671.524 1.51058 -0.607075 0
M  V30 6800 O 672.713 1.5516 -0.88248 0
M  V30 6801 C 669.813 2.89604 -1.76019 0
M  V30 6802 C 668.986 3.13365 -3.05157 0
M  V30 6803 C 668.045 4.32163 -3.00203 0
M  V30 6804 O 667.071 4.29004 -3.74092 0
M  V30 6805 N 668.273 5.3776 -2.18619 0
M  V30 6806 H 671.038 1.33767 -2.68191 0
M  V30 6807 H 668.599 0.58948 -1.50787 0
M  V30 6808 H 670.591 3.67159 -1.70225 0
M  V30 6809 H 669.161 2.99979 -0.879284 0
M  V30 6810 H 668.381 2.23774 -3.24529 0
M  V30 6811 H 669.669 3.26089 -3.90568 0
M  V30 6812 H 669.067 5.43177 -1.58035 0
M  V30 6813 H 667.624 6.14023 -2.18674 0
M  V30 6814 N 671.057 1.43213 0.657864 0
M  V30 6815 C 671.989 1.43974 1.78337 0
M  V30 6816 C 673.002 0.336482 1.59285 0
M  V30 6817 O 674.191 0.600631 1.68091 0
M  V30 6818 C 671.291 1.23242 3.15697 0
M  V30 6819 C 670.464 2.46319 3.61449 0
M  V30 6820 C 669.523 2.2088 4.77597 0
M  V30 6821 O 668.549 2.942 4.87273 0
M  V30 6822 N 669.751 1.22251 5.67481 0
M  V30 6823 H 672.516 2.40993 1.78164 0
M  V30 6824 H 670.077 1.3831 0.841549 0
M  V30 6825 H 672.069 1.04113 3.91079 0
M  V30 6826 H 670.639 0.346849 3.1067 0
M  V30 6827 H 669.859 2.80904 2.76563 0
M  V30 6828 H 671.147 3.28239 3.88763 0
M  V30 6829 H 670.545 0.616433 5.62331 0
M  V30 6830 H 669.102 1.09107 6.42603 0
M  V30 6831 N 672.536 -0.895792 1.29666 0
M  V30 6832 C 673.766 -1.67757 1.20586 0
M  V30 6833 C 674.174 -1.87729 -0.235432 0
M  V30 6834 O 673.517 -1.41706 -1.16898 0
M  V30 6835 C 673.579 -3.08117 1.85215 0
M  V30 6836 C 673.243 -3.1136 3.3452 0
M  V30 6837 C 674.24 -2.91217 4.30684 0
M  V30 6838 C 671.925 -3.33302 3.75786 0
M  V30 6839 C 673.919 -2.92955 5.66089 0
M  V30 6840 C 671.606 -3.3467 5.11311 0
M  V30 6841 C 672.604 -3.14519 6.06273 0
M  V30 6842 O 672.292 -3.15684 7.39323 0
M  V30 6843 H 672.024 -0.530601 0.418854 0
M  V30 6844 H 674.578 -1.12831 1.71634 0
M  V30 6845 H 672.808 -3.64661 1.28683 0
M  V30 6846 H 674.497 -3.68399 1.70403 0
M  V30 6847 H 675.263 -2.74074 4.00136 0
M  V30 6848 H 671.142 -3.48025 3.02324 0
M  V30 6849 H 674.686 -2.77145 6.40185 0
M  V30 6850 H 670.583 -3.51346 5.41504 0
M  V30 6851 H 671.351 -3.31924 7.48177 0
M  V30 6852 N 674.014 -1.12206 -1.10668 0
M  V30 6853 C 675.242 -0.898635 -1.86366 0
M  V30 6854 C 675.657 0.551991 -1.80551 0
M  V30 6855 O 675.014 1.38152 -1.19249 0
M  V30 6856 C 675.065 -1.36199 -3.34861 0
M  V30 6857 O 674.786 -2.75576 -3.40573 0
M  V30 6858 C 676.287 -1.17515 -4.2744 0
M  V30 6859 H 673.507 -0.321281 -0.589084 0
M  V30 6860 H 676.051 -1.49142 -1.39918 0
M  V30 6861 H 674.206 -0.81249 -3.78784 0
M  V30 6862 H 674.62 -2.95851 -4.33096 0
M  V30 6863 H 676.094 -1.54827 -5.29842 0
M  V30 6864 H 676.571 -0.115486 -4.39048 0
M  V30 6865 H 677.177 -1.71203 -3.89319 0
M  V30 6866 N 675.492 1.28418 -0.913599 0
M  V30 6867 C 676.74 1.94596 -0.545594 0
M  V30 6868 C 677.061 1.7227 0.913668 0
M  V30 6869 O 676.331 1.06233 1.64595 0
M  V30 6870 H 674.911 0.720065 -0.198783 0
M  V30 6871 H 677.573 1.56404 -1.16292 0
M  V30 6872 H 676.669 3.03202 -0.739911 0
M  V30 6873 N 676.97 0.677563 1.42291 0
M  V30 6874 C 677.917 0.000947061 2.308 0
M  V30 6875 C 678.887 -0.789889 1.46116 0
M  V30 6876 O 680.072 -0.761578 1.74942 0
M  V30 6877 C 677.212 -0.942387 3.31984 0
M  V30 6878 C 676.325 -0.14508 4.31756 0
M  V30 6879 C 675.46 -1.08442 5.20013 0
M  V30 6880 C 674.499 -0.278958 6.11464 0
M  V30 6881 N 673.636 -1.17115 6.92263 0
M  V30 6882 H 678.476 0.761521 2.88106 0
M  V30 6883 H 676.013 0.38727 1.41911 0
M  V30 6884 H 677.971 -1.50317 3.89179 0
M  V30 6885 H 676.601 -1.66956 2.76271 0
M  V30 6886 H 675.653 0.532368 3.76656 0
M  V30 6887 H 676.965 0.48015 4.96484 0
M  V30 6888 H 676.119 -1.71504 5.81955 0
M  V30 6889 H 674.858 -1.74353 4.55469 0
M  V30 6890 H 673.863 0.364856 5.48588 0
M  V30 6891 H 675.088 0.376099 6.78058 0
M  V30 6892 H 673.034 -1.81661 6.30345 0
M  V30 6893 H 672.951 -0.601063 7.53607 0
M  V30 6894 H 674.219 -1.78915 7.58689 0
M  V30 6895 N 678.448 -1.51871 0.421078 0
M  V30 6896 C 679.864 -1.59435 0.0725398 0
M  V30 6897 C 680.064 -1.43315 -1.41644 0
M  V30 6898 O 679.12 -1.26614 -2.18461 0
M  V30 6899 C 680.433 -2.9509 0.578132 0
M  V30 6900 C 681.981 -3.08356 0.537149 0
M  V30 6901 C 682.456 -4.4651 1.01945 0
M  V30 6902 N 683.947 -4.52784 0.976758 0
M  V30 6903 C 684.682 -5.57976 1.32099 0
M  V30 6904 N 684.178 -6.70664 1.73727 0
M  V30 6905 N 685.971 -5.48248 1.2402 0
M  V30 6906 H 678.122 -1.60595 1.39007 0
M  V30 6907 H 680.385 -0.756138 0.571803 0
M  V30 6908 H 680.091 -3.12205 1.61929 0
M  V30 6909 H 679.965 -3.772 -0.00578374 0
M  V30 6910 H 682.352 -2.90919 -0.494991 0
M  V30 6911 H 682.433 -2.28125 1.15727 0
M  V30 6912 H 682.077 -4.64692 2.04997 0
M  V30 6913 H 682.007 -5.25256 0.376023 0
M  V30 6914 H 684.498 -3.71898 0.670851 0
M  V30 6915 H 684.811 -7.46932 1.98274 0
M  V30 6916 H 683.156 -6.71914 1.77641 0
M  V30 6917 H 686.347 -4.59095 0.913756 0
M  V30 6918 H 686.52 -6.30119 1.51176 0
M  V30 6919 N 679.926 -0.151884 -1.56866 0
M  V30 6920 C 681.151 0.508044 -2.01081 0
M  V30 6921 C 681.576 1.57306 -1.03134 0
M  V30 6922 O 680.934 1.81298 -0.0078309 0
M  V30 6923 C 680.982 1.08106 -3.44014 0
M  V30 6924 O 680.086 2.19577 -3.49084 0
M  V30 6925 H 679.427 0.123757 -0.652365 0
M  V30 6926 H 681.957 -0.250055 -2.03066 0
M  V30 6927 H 681.967 1.40851 -3.82916 0
M  V30 6928 H 680.642 0.301168 -4.14808 0
M  V30 6929 H 679.219 1.88023 -3.22027 0
M  V30 6930 N 681.404 1.57128 0.121893 0
M  V30 6931 C 682.815 1.73902 0.679348 0
M  V30 6932 C 683.166 0.770135 1.80453 0
M  V30 6933 O 682.291 -0.0576083 2.16323 0
M  V30 6934 C 682.886 3.15328 1.2391 0
M  V30 6935 C 681.445 3.33618 1.74288 0
M  V30 6936 C 680.592 2.6978 0.641414 0
M  V30 6937 H 683.543 1.58359 -0.104 0
M  V30 6938 H 683.564 3.16718 2.10879 0
M  V30 6939 H 683.076 3.85821 0.419957 0
M  V30 6940 H 681.177 2.68162 2.58689 0
M  V30 6941 H 681.29 4.4176 1.85432 0
M  V30 6942 H 679.654 2.30935 1.0743 0
M  V30 6943 H 680.437 3.42895 -0.166707 0
M  V30 6944 N 682.882 -0.391992 1.52647 0
M  V30 6945 C 684.128 -1.13563 1.68745 0
M  V30 6946 C 684.483 -1.87745 0.420685 0
M  V30 6947 O 683.776 -1.82434 -0.585529 0
M  V30 6948 C 683.97 -2.14401 2.85949 0
M  V30 6949 C 683.799 -1.50124 4.23902 0
M  V30 6950 C 682.569 -1.2666 4.89168 0
M  V30 6951 C 684.767 -0.952933 5.05395 0
M  V30 6952 N 682.749 -0.584555 6.11111 0
M  V30 6953 C 684.12 -0.398784 6.18716 0
M  V30 6954 C 686.175 -0.849053 4.90607 0
M  V30 6955 C 684.878 0.249084 7.18869 0
M  V30 6956 C 686.904 -0.215011 5.91009 0
M  V30 6957 C 686.266 0.328382 7.03634 0
M  V30 6958 H 682.365 -0.401628 0.670984 0
M  V30 6959 H 684.949 -0.425585 1.89992 0
M  V30 6960 H 683.12 -2.82746 2.66288 0
M  V30 6961 H 684.852 -2.8125 2.90999 0
M  V30 6962 H 681.607 -1.54078 4.47836 0
M  V30 6963 H 682.031 -0.259663 6.76502 0
M  V30 6964 H 686.673 -1.25497 4.03745 0
M  V30 6965 H 684.391 0.667019 8.05342 0
M  V30 6966 H 687.977 -0.135921 5.81641 0
M  V30 6967 H 686.857 0.811257 7.79992 0
M  V30 6968 N 684.36 -1.4356 -0.65026 0
M  V30 6969 C 685.27 -1.514 -1.79207 0
M  V30 6970 C 686.286 -0.400895 -1.69319 0
M  V30 6971 O 687.462 -0.655458 -1.90436 0
M  V30 6972 C 684.527 -1.43737 -3.155 0
M  V30 6973 C 683.588 -2.65743 -3.37163 0
M  V30 6974 C 682.821 -2.58436 -4.66954 0
M  V30 6975 O 683.044 -1.63374 -5.46503 0
M  V30 6976 O 681.978 -3.48984 -4.90402 0
M  V30 6977 H 685.804 -2.47825 -1.75547 0
M  V30 6978 H 683.389 -1.25594 -0.809111 0
M  V30 6979 H 685.271 -1.41916 -3.96784 0
M  V30 6980 H 683.946 -0.504488 -3.19745 0
M  V30 6981 H 682.853 -2.73136 -2.55632 0
M  V30 6982 H 684.186 -3.58014 -3.37768 0
M  V30 6983 N 685.838 0.888903 -1.30139 0
M  V30 6984 C 686.771 1.99655 -1.10514 0
M  V30 6985 C 687.749 1.62594 -0.0138934 0
M  V30 6986 O 688.933 1.87762 -0.166689 0
M  V30 6987 C 686.06 3.31708 -0.684655 0
M  V30 6988 C 685.106 3.87755 -1.77619 0
M  V30 6989 S 685.939 4.15532 -3.37777 0
M  V30 6990 C 687.095 5.5061 -2.97622 0
M  V30 6991 H 687.328 2.15996 -2.04287 0
M  V30 6992 H 684.861 1.03682 -1.14409 0
M  V30 6993 H 686.819 4.08039 -0.448782 0
M  V30 6994 H 685.48 3.1323 0.233648 0
M  V30 6995 H 684.673 4.83164 -1.43417 0
M  V30 6996 H 684.275 3.18149 -1.96614 0
M  V30 6997 H 686.567 6.31518 -2.45338 0
M  V30 6998 H 687.51 5.89747 -3.91924 0
M  V30 6999 H 687.918 5.12983 -2.35603 0
M  V30 7000 N 687.317 1.12792 1.10072 0
M  V30 7001 C 688.265 0.794523 2.18609 0
M  V30 7002 C 689.259 -0.220271 1.67962 0
M  V30 7003 O 690.465 -0.0780938 1.79831 0
M  V30 7004 H 686.84 0.239123 0.712969 0
M  V30 7005 H 688.811 1.71823 2.43966 0
M  V30 7006 C 687.56 0.269548 3.46654 0
M  V30 7007 H 686.883 1.04171 3.8599 0
M  V30 7008 H 688.323 0.0746242 4.23934 0
M  V30 7009 C 686.782 -1.00333 3.21613 0
M  V30 7010 O 687.312 -2.08042 3.4363 0
M  V30 7011 N 685.518 -0.931763 2.75257 0
M  V30 7012 H 685.065 -0.0551197 2.57541 0
M  V30 7013 H 685.023 -1.78405 2.58881 0
M  V30 7014 N 688.795 -1.27931 0.920396 0
M  V30 7015 C 690.041 -1.94977 0.557832 0
M  V30 7016 C 690.374 -1.72224 -0.897365 0
M  V30 7017 O 689.649 -1.04705 -1.63912 0
M  V30 7018 C 689.932 -3.49289 0.875741 0
M  V30 7019 C 689.785 -3.81416 2.38416 0
M  V30 7020 C 691.104 -4.38486 0.376517 0
M  V30 7021 H 688.223 -0.708164 0.20414 0
M  V30 7022 H 690.865 -1.5118 1.15085 0
M  V30 7023 H 689.015 -3.86724 0.371062 0
M  V30 7024 H 690.687 -3.53813 2.95997 0
M  V30 7025 H 688.93 -3.28225 2.83639 0
M  V30 7026 H 689.601 -4.89198 2.55713 0
M  V30 7027 H 692.077 -4.08161 0.808945 0
M  V30 7028 H 690.953 -5.45296 0.627976 0
M  V30 7029 H 691.214 -4.36143 -0.723293 0
M  V30 7030 N 690.273 -0.685099 -1.4193 0
M  V30 7031 C 691.22 -0.0131869 -2.30796 0
M  V30 7032 C 692.19 0.782129 -1.46533 0
M  V30 7033 O 693.375 0.75229 -1.75343 0
M  V30 7034 C 690.515 0.924768 -3.32479 0
M  V30 7035 C 689.628 0.122181 -4.31827 0
M  V30 7036 C 688.763 1.05682 -5.20581 0
M  V30 7037 C 687.802 0.246526 -6.11603 0
M  V30 7038 N 686.939 1.13442 -6.92875 0
M  V30 7039 H 691.779 -0.776789 -2.87698 0
M  V30 7040 H 689.316 -0.394791 -1.41703 0
M  V30 7041 H 691.274 1.48251 -3.89971 0
M  V30 7042 H 689.904 1.65488 -2.77152 0
M  V30 7043 H 688.956 -0.552335 -3.76369 0
M  V30 7044 H 690.268 -0.506473 -4.96222 0
M  V30 7045 H 689.422 1.68415 -5.82856 0
M  V30 7046 H 688.161 1.71935 -4.56388 0
M  V30 7047 H 687.166 -0.393944 -5.48387 0
M  V30 7048 H 688.391 -0.412053 -6.77849 0
M  V30 7049 H 686.337 1.78316 -6.313 0
M  V30 7050 H 686.254 0.561089 -7.53915 0
M  V30 7051 H 687.522 1.74889 -7.59628 0
M  V30 7052 N 691.751 1.51645 -0.429126 0
M  V30 7053 C 692.998 2.02015 0.140079 0
M  V30 7054 C 693.326 1.31374 1.43427 0
M  V30 7055 O 692.581 0.414779 1.91254 0
M  V30 7056 C 692.88 3.54989 0.414472 0
M  V30 7057 C 692.546 4.43874 -0.792911 0
M  V30 7058 C 691.208 4.67887 -1.12404 0
M  V30 7059 C 693.56 4.96074 -1.59875 0
M  V30 7060 C 690.888 5.41348 -2.26184 0
M  V30 7061 C 693.24 5.70782 -2.72747 0
M  V30 7062 C 691.904 5.93062 -3.06324 0
M  V30 7063 H 691.174 0.739225 0.0512585 0
M  V30 7064 H 693.821 1.82675 -0.574641 0
M  V30 7065 H 692.126 3.72615 1.21099 0
M  V30 7066 H 693.823 3.91489 0.868173 0
M  V30 7067 H 690.413 4.25374 -0.524871 0
M  V30 7068 H 694.597 4.77412 -1.35614 0
M  V30 7069 H 689.853 5.56815 -2.52522 0
M  V30 7070 H 694.027 6.10221 -3.35564 0
M  V30 7071 H 691.654 6.49764 -3.94602 0
M  V30 7072 N 693.229 0.160201 1.56784 0
M  V30 7073 C 694.192 -0.760405 2.16219 0
M  V30 7074 C 695.192 -1.16595 1.10735 0
M  V30 7075 O 696.382 -1.08472 1.36306 0
M  V30 7076 C 693.514 -2.03358 2.73603 0
M  V30 7077 H 694.707 -0.243173 2.98912 0
M  V30 7078 H 692.26 -0.0893139 1.56045 0
M  V30 7079 H 692.995 -2.59416 1.94612 0
M  V30 7080 H 692.78 -1.75186 3.50788 0
M  V30 7081 H 694.27 -2.69081 3.19351 0
M  V30 7082 N 694.707 -1.5719 -0.113559 0
M  V30 7083 C 695.67 -1.99796 -1.12314 0
M  V30 7084 C 696.67 -0.888847 -1.34001 0
M  V30 7085 O 697.86 -1.15476 -1.30426 0
M  V30 7086 C 694.992 -2.34279 -2.47641 0
M  V30 7087 H 696.185 -2.90193 -0.756825 0
M  V30 7088 H 693.738 -1.52144 -0.358029 0
M  V30 7089 H 694.473 -1.46778 -2.89183 0
M  V30 7090 H 694.258 -3.15175 -2.33253 0
M  V30 7091 H 695.748 -2.67963 -3.2029 0
M  V30 7092 N 696.185 0.383891 -1.52853 0
M  V30 7093 C 697.132 1.46924 -1.77995 0
M  V30 7094 C 698.102 1.53958 -0.623396 0
M  V30 7095 O 699.287 1.70134 -0.863657 0
M  V30 7096 C 696.427 2.84093 -1.95921 0
M  V30 7097 C 695.54 2.86171 -3.23621 0
M  V30 7098 C 694.675 4.14799 -3.31836 0
M  V30 7099 C 693.714 4.10948 -4.53639 0
M  V30 7100 N 692.851 5.31192 -4.59107 0
M  V30 7101 H 697.691 1.24786 -2.70615 0
M  V30 7102 H 695.228 0.605265 -1.34071 0
M  V30 7103 H 697.186 3.63755 -2.04299 0
M  V30 7104 H 695.816 3.04671 -1.06656 0
M  V30 7105 H 694.868 1.9885 -3.24288 0
M  V30 7106 H 696.18 2.79194 -4.13343 0
M  V30 7107 H 695.334 5.02867 -3.39425 0
M  V30 7108 H 694.073 4.24505 -2.40097 0
M  V30 7109 H 693.078 3.21268 -4.46169 0
M  V30 7110 H 694.303 4.0286 -5.467 0
M  V30 7111 H 692.249 5.41518 -3.70262 0
M  V30 7112 H 692.166 5.26311 -5.42708 0
M  V30 7113 H 693.434 6.21143 -4.70958 0
M  V30 7114 N 697.663 1.43903 0.642637 0
M  V30 7115 C 698.61 1.49881 1.75512 0
M  V30 7116 C 699.58 0.347538 1.62423 0
M  V30 7117 O 700.765 0.556177 1.82514 0
M  V30 7118 C 697.905 1.43797 3.13714 0
M  V30 7119 C 697.018 2.6921 3.37861 0
M  V30 7120 C 696.153 2.5504 4.6597 0
M  V30 7121 C 695.192 3.75671 4.83257 0
M  V30 7122 N 694.329 3.60247 6.02633 0
M  V30 7123 H 699.169 2.44935 1.69737 0
M  V30 7124 H 696.706 1.21572 0.828165 0
M  V30 7125 H 698.664 1.38262 3.93624 0
M  V30 7126 H 697.294 0.523173 3.18532 0
M  V30 7127 H 696.346 2.8498 2.51973 0
M  V30 7128 H 697.658 3.58786 3.46517 0
M  V30 7129 H 696.812 2.47273 5.54023 0
M  V30 7130 H 695.551 1.63006 4.59653 0
M  V30 7131 H 694.556 3.83836 3.93637 0
M  V30 7132 H 695.781 4.68728 4.91397 0
M  V30 7133 H 693.727 2.70955 5.97427 0
M  V30 7134 H 693.644 4.43431 6.12295 0
M  V30 7135 H 694.912 3.56351 6.93278 0
M  V30 7136 N 699.141 -0.881989 1.30609 0
M  V30 7137 C 700.418 -1.61563 1.10258 0
M  V30 7138 C 700.798 -2.08228 -0.347053 0
M  V30 7139 O 700.146 -1.85151 -1.33908 0
M  V30 7140 C 700.356 -2.78287 2.10612 0
M  V30 7141 C 701.704 -3.48545 2.4249 0
M  V30 7142 O 702.728 -2.88479 2.08945 0
M  V30 7143 O 701.587 -4.56873 2.99883 0
M  V30 7144 H 698.681 -0.710238 0.423663 0
M  V30 7145 H 701.227 -0.928503 1.42045 0
M  V30 7146 H 699.999 -2.41131 3.08174 0
M  V30 7147 H 699.622 -3.54695 1.79659 0
M  V30 7148 N 700.619 -1.13374 -1.09472 0
M  V30 7149 C 701.867 -0.893422 -1.8128 0
M  V30 7150 C 702.188 0.582029 -1.86111 0
M  V30 7151 O 701.458 1.42305 -1.34633 0
M  V30 7152 H 700.038 -0.327543 -0.67136 0
M  V30 7153 H 702.7 -1.43018 -1.32408 0
M  V30 7154 H 701.796 -1.28374 -2.84476 0
M  V30 7155 N 702.098 1.27442 -0.927168 0
M  V30 7156 C 703.326 1.98498 -0.583622 0
M  V30 7157 C 703.741 1.69171 0.838241 0
M  V30 7158 O 703.098 0.951969 1.55704 0
M  V30 7159 C 703.149 3.52552 -0.799341 0
M  V30 7160 O 702.87 3.80851 -2.16527 0
M  V30 7161 C 704.371 4.4086 -0.464436 0
M  V30 7162 H 701.591 0.633487 -0.221213 0
M  V30 7163 H 704.135 1.62308 -1.24404 0
M  V30 7164 H 702.29 3.86955 -0.185728 0
M  V30 7165 H 702.704 4.75441 -2.21487 0
M  V30 7166 H 704.178 5.47967 -0.666075 0
M  V30 7167 H 704.655 4.35082 0.599995 0
M  V30 7168 H 705.261 4.11977 -1.05617 0
M  V30 7169 N 703.576 0.692616 1.41565 0
M  V30 7170 C 704.506 0.0397325 2.33466 0
M  V30 7171 C 705.487 -0.770334 1.51657 0
M  V30 7172 O 706.672 -0.723903 1.80203 0
M  V30 7173 C 703.802 -0.899495 3.3545 0
M  V30 7174 C 702.756 -0.196738 4.27548 0
M  V30 7175 C 702.082 -1.25012 5.19881 0
M  V30 7176 C 703.382 0.935158 5.1386 0
M  V30 7177 H 705.076 0.807296 2.88311 0
M  V30 7178 H 702.622 0.389665 1.38628 0
M  V30 7179 H 704.575 -1.36545 3.98665 0
M  V30 7180 H 703.299 -1.69869 2.78948 0
M  V30 7181 H 701.958 0.249158 3.65752 0
M  V30 7182 H 701.606 -2.04177 4.59696 0
M  V30 7183 H 701.306 -0.784931 5.82334 0
M  V30 7184 H 702.83 -1.71665 5.85972 0
M  V30 7185 H 704.244 0.549619 5.70659 0
M  V30 7186 H 702.641 1.32726 5.85238 0
M  V30 7187 H 703.711 1.77613 4.512 0
M  V30 7188 N 705.054 -1.51416 0.437162 0
M  V30 7189 C 705.984 -2.30631 -0.364922 0
M  V30 7190 C 706.965 -1.36037 -1.02118 0
M  V30 7191 O 708.15 -1.64956 -1.02485 0
M  V30 7192 C 705.28 -3.1482 -1.46648 0
M  V30 7193 C 704.234 -4.17691 -0.933717 0
M  V30 7194 C 703.56 -4.904 -2.13101 0
M  V30 7195 C 704.86 -5.2229 0.0317201 0
M  V30 7196 H 706.554 -2.97932 0.29614 0
M  V30 7197 H 704.1 -1.4328 0.143865 0
M  V30 7198 H 706.053 -3.69017 -2.03481 0
M  V30 7199 H 704.777 -2.4534 -2.15583 0
M  V30 7200 H 703.436 -3.64545 -0.387602 0
M  V30 7201 H 703.084 -4.17423 -2.80654 0
M  V30 7202 H 702.784 -5.59962 -1.78092 0
M  V30 7203 H 704.308 -5.4742 -2.70487 0
M  V30 7204 H 705.722 -5.7156 -0.446302 0
M  V30 7205 H 704.119 -5.99378 0.29437 0
M  V30 7206 H 705.189 -4.75131 0.968447 0
M  V30 7207 N 706.532 -0.168513 -1.56696 0
M  V30 7208 C 707.495 0.748928 -2.16619 0
M  V30 7209 C 708.495 1.16007 -1.11351 0
M  V30 7210 O 709.685 1.07748 -1.3688 0
M  V30 7211 C 706.817 2.01904 -2.74677 0
M  V30 7212 H 708.01 0.227317 -2.99037 0
M  V30 7213 H 705.563 0.0810372 -1.5609 0
M  V30 7214 H 706.298 2.58381 -1.95985 0
M  V30 7215 H 706.083 1.73323 -3.51712 0
M  V30 7216 H 707.573 2.67383 -3.20774 0
M  V30 7217 N 708.01 1.57248 0.105221 0
M  V30 7218 C 708.943 1.96567 1.15916 0
M  V30 7219 C 709.921 0.837355 1.39381 0
M  V30 7220 O 711.105 1.09676 1.53308 0
M  V30 7221 C 708.232 2.27375 2.51035 0
M  V30 7222 C 707.278 3.49869 2.43913 0
M  V30 7223 S 708.111 5.01958 1.86543 0
M  V30 7224 C 709.267 5.35932 3.23307 0
M  V30 7225 H 709.5 2.85655 0.823931 0
M  V30 7226 H 707.033 1.51204 0.312515 0
M  V30 7227 H 708.991 2.45801 3.28774 0
M  V30 7228 H 707.652 1.38876 2.81731 0
M  V30 7229 H 706.845 3.68835 3.43477 0
M  V30 7230 H 706.447 3.30901 1.743 0
M  V30 7231 H 708.739 5.31958 4.19556 0
M  V30 7232 H 709.682 6.37047 3.09155 0
M  V30 7233 H 710.09 4.63397 3.22372 0
M  V30 7234 N 709.488 -0.375779 1.53054 0
M  V30 7235 C 710.398 -1.48381 1.81715 0
M  V30 7236 C 711.414 -1.59087 0.704795 0
M  V30 7237 O 712.59 -1.75174 0.993785 0
M  V30 7238 C 709.655 -2.83767 1.99192 0
M  V30 7239 C 708.716 -2.82673 3.23102 0
M  V30 7240 C 707.949 -4.11601 3.39736 0
M  V30 7241 O 708.172 -5.07243 2.60885 0
M  V30 7242 O 707.106 -4.18034 4.33049 0
M  V30 7243 H 710.932 -1.27089 2.7583 0
M  V30 7244 H 708.517 -0.564902 1.38308 0
M  V30 7245 H 710.399 -3.64004 2.12318 0
M  V30 7246 H 709.074 -3.05057 1.08267 0
M  V30 7247 H 707.981 -2.0117 3.15407 0
M  V30 7248 H 709.314 -2.66335 4.13916 0
M  V30 7249 N 710.966 -1.44241 -0.634997 0
M  V30 7250 C 712.191 -1.50516 -1.42687 0
M  V30 7251 C 712.616 -0.129864 -1.87651 0
M  V30 7252 O 711.974 0.880164 -1.58502 0
M  V30 7253 C 712.022 -2.4714 -2.62591 0
M  V30 7254 O 711.126 -1.97025 -3.62291 0
M  V30 7255 H 710.467 -0.50841 -0.427101 0
M  V30 7256 H 712.997 -1.89337 -0.775408 0
M  V30 7257 H 713.007 -2.65048 -3.10183 0
M  V30 7258 H 711.682 -3.47039 -2.29209 0
M  V30 7259 H 710.259 -1.88866 -3.21534 0
M  V30 7260 N 712.444 0.87505 -1.31075 0
M  V30 7261 C 713.721 1.60976 -1.11113 0
M  V30 7262 C 714.101 2.08409 0.336006 0
M  V30 7263 O 713.449 1.85858 1.32924 0
M  V30 7264 C 713.659 2.77166 -2.12085 0
M  V30 7265 C 715.007 3.47254 -2.44335 0
M  V30 7266 O 716.031 2.87367 -2.10472 0
M  V30 7267 O 714.89 4.55276 -3.02301 0
M  V30 7268 H 711.984 0.707982 -0.427424 0
M  V30 7269 H 714.53 0.920957 -1.42536 0
M  V30 7270 H 713.302 2.39494 -3.09449 0
M  V30 7271 H 712.925 3.53737 -1.81538 0
M  V30 7272 N 713.922 1.13953 1.08869 0
M  V30 7273 C 715.168 0.916103 1.81602 0
M  V30 7274 C 715.523 -0.551633 1.84322 0
M  V30 7275 O 714.816 -1.40322 1.30462 0
M  V30 7276 C 715.01 1.44495 3.26888 0
M  V30 7277 C 714.839 2.96257 3.38322 0
M  V30 7278 C 713.609 3.64658 3.49789 0
M  V30 7279 C 715.807 3.94156 3.30372 0
M  V30 7280 N 713.789 5.04379 3.49965 0
M  V30 7281 C 715.16 5.20101 3.37484 0
M  V30 7282 C 717.215 3.86342 3.14077 0
M  V30 7283 C 715.918 6.39145 3.29979 0
M  V30 7284 C 717.944 5.04927 3.07901 0
M  V30 7285 C 717.306 6.29738 3.1561 0
M  V30 7286 H 713.405 0.388701 0.678554 0
M  V30 7287 H 715.989 1.44879 1.3007 0
M  V30 7288 H 714.16 0.939102 3.76876 0
M  V30 7289 H 715.892 1.16193 3.87661 0
M  V30 7290 H 712.647 3.15196 3.5348 0
M  V30 7291 H 713.071 5.77305 3.53622 0
M  V30 7292 H 717.713 2.90726 3.06982 0
M  V30 7293 H 715.431 7.3501 3.35836 0
M  V30 7294 H 719.017 5.00626 2.9642 0
M  V30 7295 H 717.897 7.19958 3.10854 0
M  V30 7296 N 715.4 -1.26948 0.933913 0
M  V30 7297 C 716.33 -2.29017 0.45534 0
M  V30 7298 C 717.311 -1.62961 -0.487605 0
M  V30 7299 O 718.496 -1.90223 -0.391022 0
M  V30 7300 C 715.626 -3.46112 -0.287015 0
M  V30 7301 C 714.58 -4.24205 0.568682 0
M  V30 7302 C 713.906 -5.3384 -0.303206 0
M  V30 7303 C 715.206 -4.88954 1.83633 0
M  V30 7304 H 716.9 -2.69298 1.30839 0
M  V30 7305 H 714.446 -1.29459 0.630579 0
M  V30 7306 H 716.399 -4.16622 -0.6328 0
M  V30 7307 H 715.123 -3.04765 -1.17414 0
M  V30 7308 H 713.782 -3.5545 0.897261 0
M  V30 7309 H 713.43 -4.88734 -1.18947 0
M  V30 7310 H 713.13 -5.86998 0.265879 0
M  V30 7311 H 714.654 -6.0719 -0.644423 0
M  V30 7312 H 716.068 -5.51717 1.55823 0
M  V30 7313 H 714.465 -5.52198 2.34941 0
M  V30 7314 H 715.535 -4.12305 2.55211 0
M  V30 7315 N 716.879 -0.700114 -1.41195 0
M  V30 7316 C 718.125 -0.233351 -2.01453 0
M  V30 7317 C 718.458 1.16548 -1.55339 0
M  V30 7318 O 717.733 1.78756 -0.766575 0
M  V30 7319 C 718.016 -0.2961 -3.58881 0
M  V30 7320 C 717.869 -1.7322 -4.15108 0
M  V30 7321 C 719.188 0.341525 -4.38773 0
M  V30 7322 H 716.307 -0.0862667 -0.731934 0
M  V30 7323 H 718.949 -0.889693 -1.67882 0
M  V30 7324 H 717.099 0.262736 -3.87611 0
M  V30 7325 H 718.771 -2.34523 -3.97236 0
M  V30 7326 H 717.014 -2.2649 -3.69979 0
M  V30 7327 H 717.685 -1.7276 -5.24269 0
M  V30 7328 H 720.161 -0.134461 -4.15883 0
M  V30 7329 H 719.037 0.267098 -5.4825 0
M  V30 7330 H 719.298 1.42289 -4.18577 0
M  V30 7331 N 718.357 1.51182 -0.445186 0
M  V30 7332 C 719.634 1.9478 0.178965 0
M  V30 7333 C 720.014 1.38428 1.59376 0
M  V30 7334 O 719.362 0.574552 2.21159 0
M  V30 7335 C 719.572 3.48683 0.148711 0
M  V30 7336 C 720.92 4.23152 0.35042 0
M  V30 7337 O 721.944 3.55479 0.226474 0
M  V30 7338 O 720.803 5.4322 0.597893 0
M  V30 7339 H 717.897 0.817387 0.12573 0
M  V30 7340 H 720.443 1.62051 -0.503729 0
M  V30 7341 H 719.215 3.82176 -0.84009 0
M  V30 7342 H 718.838 3.87875 0.873979 0
M  V30 7343 N 719.835 0.176821 1.56605 0
M  V30 7344 C 720.785 -0.763718 2.14829 0
M  V30 7345 C 721.769 -1.18903 1.08401 0
M  V30 7346 O 722.961 -1.15048 1.3451 0
M  V30 7347 C 720.09 -1.99069 2.7969 0
M  V30 7348 C 719.176 -1.58711 3.93283 0
M  V30 7349 N 719.567 -0.893423 4.97847 0
M  V30 7350 C 717.865 -1.87774 4.04545 0
M  V30 7351 C 718.566 -0.693866 5.77547 0
M  V30 7352 N 717.542 -1.23699 5.29339 0
M  V30 7353 H 721.344 -0.224811 2.93039 0
M  V30 7354 H 718.858 -0.0236563 1.62383 0
M  V30 7355 H 720.855 -2.67478 3.19783 0
M  V30 7356 H 719.515 -2.53449 2.02962 0
M  V30 7357 H 720.526 -0.550868 5.14962 0
M  V30 7358 H 717.203 -2.43793 3.38927 0
M  V30 7359 H 718.593 -0.144899 6.71744 0
M  V30 7360 N 721.313 -1.57302 -0.09688 0
M  V30 7361 C 722.561 -1.8563 -0.799117 0
M  V30 7362 C 722.882 -0.765263 -1.79356 0
M  V30 7363 O 722.152 0.208657 -1.94786 0
M  V30 7364 H 720.732 -0.684937 -0.298111 0
M  V30 7365 H 723.394 -1.9474 -0.0789341 0
M  V30 7366 H 722.49 -2.82305 -1.3308 0
M  V30 7367 N 722.791 0.367657 -1.53252 0
M  V30 7368 C 724.202 0.944563 -1.61043 0
M  V30 7369 C 724.553 1.90325 -0.476546 0
M  V30 7370 O 723.678 2.12721 0.397333 0
M  V30 7371 C 724.273 1.71992 -2.91898 0
M  V30 7372 C 722.832 2.2462 -3.02031 0
M  V30 7373 C 721.979 1.05799 -2.56324 0
M  V30 7374 H 724.93 0.146516 -1.58022 0
M  V30 7375 H 724.951 2.58095 -2.79584 0
M  V30 7376 H 724.463 1.02192 -3.74404 0
M  V30 7377 H 722.564 2.97668 -2.24108 0
M  V30 7378 H 722.677 2.52644 -4.07073 0
M  V30 7379 H 721.041 1.42435 -2.1115 0
M  V30 7380 H 721.824 0.375008 -3.41246 0
M  V30 7381 N 724.269 1.44576 0.627338 0
M  V30 7382 C 725.499 1.50829 1.41189 0
M  V30 7383 C 725.907 0.133083 1.88731 0
M  V30 7384 O 725.25 -0.87199 1.61685 0
M  V30 7385 C 725.312 2.41449 2.66351 0
M  V30 7386 C 724.976 3.88549 2.40579 0
M  V30 7387 C 725.973 4.78981 2.0217 0
M  V30 7388 C 723.658 4.33287 2.54102 0
M  V30 7389 C 725.652 6.12153 1.77618 0
M  V30 7390 C 723.339 5.66505 2.29163 0
M  V30 7391 C 724.337 6.55756 1.9098 0
M  V30 7392 O 724.025 7.86506 1.66321 0
M  V30 7393 H 723.757 0.513797 0.439304 0
M  V30 7394 H 726.311 1.90256 0.774059 0
M  V30 7395 H 724.541 1.96955 3.32784 0
M  V30 7396 H 726.23 2.38608 3.28361 0
M  V30 7397 H 726.996 4.45689 1.91277 0
M  V30 7398 H 722.875 3.64074 2.82792 0
M  V30 7399 H 726.419 6.81776 1.47739 0
M  V30 7400 H 722.316 5.99358 2.39668 0
M  V30 7401 H 723.084 7.98341 1.80536 0
M  V30 7402 N 725.747 -0.868086 1.31537 0
M  V30 7403 C 726.972 -1.65926 1.24432 0
M  V30 7404 C 727.397 -1.87169 -0.186936 0
M  V30 7405 O 726.755 -1.4148 -1.13371 0
M  V30 7406 C 726.803 -3.00347 1.9956 0
M  V30 7407 O 725.907 -3.90221 1.33422 0
M  V30 7408 H 725.248 -0.506375 0.429512 0
M  V30 7409 H 727.778 -1.0822 1.73637 0
M  V30 7410 H 727.788 -3.50269 2.09226 0
M  V30 7411 H 726.463 -2.84205 3.03645 0
M  V30 7412 H 725.04 -3.48672 1.32219 0
M  V30 7413 N 727.225 -1.14528 -1.08264 0
M  V30 7414 C 728.135 -0.84728 -2.18765 0
M  V30 7415 C 729.151 0.172826 -1.7314 0
M  V30 7416 O 730.327 0.000985336 -2.014 0
M  V30 7417 C 727.392 -0.330633 -3.4512 0
M  V30 7418 C 726.453 -1.41348 -4.05363 0
M  V30 7419 C 725.686 -0.921387 -5.25686 0
M  V30 7420 O 725.909 0.236587 -5.69909 0
M  V30 7421 O 724.843 -1.70101 -5.77364 0
M  V30 7422 H 728.669 -1.7708 -2.46731 0
M  V30 7423 H 726.254 -0.923661 -1.17426 0
M  V30 7424 H 728.136 -0.0485053 -4.21372 0
M  V30 7425 H 726.811 0.565147 -3.18728 0
M  V30 7426 H 725.718 -1.74908 -3.30693 0
M  V30 7427 H 727.051 -2.28383 -4.36007 0
M  V30 7428 N 728.703 1.26451 -0.940633 0
M  V30 7429 C 729.95 1.93778 -0.587909 0
M  V30 7430 C 730.278 1.73811 0.872935 0
M  V30 7431 O 729.533 1.06816 1.63978 0
M  V30 7432 C 729.832 3.46503 -0.875794 0
M  V30 7433 C 729.498 3.86609 -2.32043 0
M  V30 7434 C 728.16 3.97269 -2.71534 0
M  V30 7435 C 730.512 4.0672 -3.25927 0
M  V30 7436 C 727.84 4.25436 -4.04006 0
M  V30 7437 C 730.192 4.36375 -4.57995 0
M  V30 7438 C 728.856 4.45249 -4.97302 0
M  V30 7439 H 728.126 0.709084 -0.215131 0
M  V30 7440 H 730.773 1.50272 -1.18704 0
M  V30 7441 H 729.078 3.91319 -0.194124 0
M  V30 7442 H 730.775 3.96759 -0.581665 0
M  V30 7443 H 727.365 3.78858 -2.00411 0
M  V30 7444 H 731.549 3.97912 -2.96614 0
M  V30 7445 H 726.805 4.30519 -4.34124 0
M  V30 7446 H 730.979 4.50882 -5.30734 0
M  V30 7447 H 728.606 4.66829 -5.99979 0
M  V30 7448 N 730.181 0.707592 1.40822 0
M  V30 7449 C 731.429 0.243189 2.00632 0
M  V30 7450 C 731.75 -1.16512 1.56365 0
M  V30 7451 O 731.02 -1.78841 0.799553 0
M  V30 7452 H 729.6 0.0869203 0.741926 0
M  V30 7453 H 732.262 0.911438 1.72275 0
M  V30 7454 H 731.358 0.270014 3.1093 0
M  V30 7455 N 731.66 -1.50943 0.453197 0
M  V30 7456 C 732.937 -1.94872 -0.168633 0
M  V30 7457 C 733.317 -1.39272 -1.5864 0
M  V30 7458 O 732.665 -0.586272 -2.20851 0
M  V30 7459 C 732.875 -3.48757 -0.130217 0
M  V30 7460 C 734.223 -4.23331 -0.327975 0
M  V30 7461 O 735.247 -3.55594 -0.207619 0
M  V30 7462 O 734.106 -5.43529 -0.569077 0
M  V30 7463 H 731.2 -0.818042 -0.121394 0
M  V30 7464 H 733.746 -1.61782 0.512316 0
M  V30 7465 H 732.518 -3.81725 0.860346 0
M  V30 7466 H 732.141 -3.88333 -0.853397 0
M  V30 7467 N 733.138 -0.185124 -1.56509 0
M  V30 7468 C 734.068 0.735098 -2.21627 0
M  V30 7469 C 735.049 1.2288 -1.1762 0
M  V30 7470 O 736.234 1.27945 -1.46095 0
M  V30 7471 C 733.364 1.95889 -2.86783 0
M  V30 7472 C 732.318 1.6005 -3.96948 0
M  V30 7473 C 731.644 2.90009 -4.4922 0
M  V30 7474 C 732.944 0.818008 -5.15855 0
M  V30 7475 H 734.638 0.192274 -2.98782 0
M  V30 7476 H 732.184 0.0910393 -1.43712 0
M  V30 7477 H 734.137 2.60779 -3.31017 0
M  V30 7478 H 732.861 2.52608 -2.07018 0
M  V30 7479 H 731.52 0.975237 -3.5339 0
M  V30 7480 H 731.168 3.44797 -3.6623 0
M  V30 7481 H 730.868 2.66778 -5.23549 0
M  V30 7482 H 732.392 3.55904 -4.9615 0
M  V30 7483 H 733.806 1.36979 -5.56695 0
M  V30 7484 H 732.203 0.684207 -5.96187 0
M  V30 7485 H 733.273 -0.182939 -4.84555 0
M  V30 7486 N 734.616 1.57351 0.0885366 0
M  V30 7487 C 735.546 2.05561 1.10757 0
M  V30 7488 C 736.527 0.945789 1.41382 0
M  V30 7489 O 737.712 1.21747 1.51299 0
M  V30 7490 C 734.842 2.48554 2.42566 0
M  V30 7491 C 733.796 3.63259 2.26334 0
M  V30 7492 C 733.122 3.9225 3.63378 0
M  V30 7493 C 734.422 4.93913 1.69844 0
M  V30 7494 H 736.116 2.90946 0.706468 0
M  V30 7495 H 733.662 1.39968 0.338385 0
M  V30 7496 H 735.615 2.8089 3.14132 0
M  V30 7497 H 734.339 1.60176 2.84625 0
M  V30 7498 H 732.998 3.31179 1.57213 0
M  V30 7499 H 732.646 3.0103 4.02976 0
M  V30 7500 H 732.346 4.69478 3.53362 0
M  V30 7501 H 733.87 4.27067 4.36401 0
M  V30 7502 H 735.284 5.24588 2.31258 0
M  V30 7503 H 733.681 5.75349 1.70569 0
M  V30 7504 H 734.751 4.80409 0.65843 0
M  V30 7505 N 736.094 -0.359525 1.53444 0
M  V30 7506 C 737.322 -1.12198 1.73837 0
M  V30 7507 C 737.737 -1.82854 0.470107 0
M  V30 7508 O 737.094 -1.73781 -0.557349 0
M  V30 7509 C 737.145 -2.14769 2.90786 0
M  V30 7510 O 736.866 -1.46989 4.12706 0
M  V30 7511 C 738.367 -3.03514 3.231 0
M  V30 7512 H 735.587 -0.33524 0.581253 0
M  V30 7513 H 738.131 -0.416598 2.00212 0
M  V30 7514 H 736.286 -2.80896 2.66788 0
M  V30 7515 H 736.7 -2.15378 4.78239 0
M  V30 7516 H 738.174 -3.71453 4.08322 0
M  V30 7517 H 738.651 -3.68658 2.38721 0
M  V30 7518 H 739.257 -2.42996 3.49046 0
M  V30 7519 N 737.572 -1.44907 -0.619662 0
M  V30 7520 C 738.502 -1.55488 -1.742 0
M  V30 7521 C 739.483 -0.407143 -1.65156 0
M  V30 7522 O 740.668 -0.628743 -1.8374 0
M  V30 7523 C 737.798 -1.5097 -3.1277 0
M  V30 7524 C 736.752 -2.64337 -3.36615 0
M  V30 7525 C 736.078 -2.44872 -4.75333 0
M  V30 7526 C 737.378 -4.06423 -3.28051 0
M  V30 7527 H 739.072 -2.49432 -1.65602 0
M  V30 7528 H 736.618 -1.20047 -0.795281 0
M  V30 7529 H 738.571 -1.56971 -3.91073 0
M  V30 7530 H 737.295 -0.535486 -3.2218 0
M  V30 7531 H 735.954 -2.57744 -2.60698 0
M  V30 7532 H 735.602 -1.45617 -4.81461 0
M  V30 7533 H 735.302 -3.20888 -4.92244 0
M  V30 7534 H 736.826 -2.52709 -5.55851 0
M  V30 7535 H 738.24 -4.14324 -3.96243 0
M  V30 7536 H 736.637 -4.82733 -3.56495 0
M  V30 7537 H 737.707 -4.29183 -2.25676 0
M  V30 7538 N 739.05 0.861098 -1.31996 0
M  V30 7539 C 740.466 1.14827 -1.10846 0
M  V30 7540 C 740.666 2.0117 0.11528 0
M  V30 7541 O 739.722 2.39423 0.802048 0
M  V30 7542 C 741.035 1.83183 -2.38462 0
M  V30 7543 C 742.583 1.95847 -2.44158 0
M  V30 7544 C 743.058 2.67617 -3.71679 0
M  V30 7545 N 744.549 2.75147 -3.72624 0
M  V30 7546 C 745.284 3.31314 -4.67994 0
M  V30 7547 N 744.78 3.88343 -5.73726 0
M  V30 7548 N 746.573 3.29356 -4.55501 0
M  V30 7549 H 738.724 0.285951 -2.10466 0
M  V30 7550 H 740.987 0.189303 -0.928907 0
M  V30 7551 H 740.693 1.27193 -3.27895 0
M  V30 7552 H 740.567 2.83393 -2.48935 0
M  V30 7553 H 742.954 2.50999 -1.55189 0
M  V30 7554 H 743.035 0.94653 -2.37644 0
M  V30 7555 H 742.679 2.13131 -4.61018 0
M  V30 7556 H 742.609 3.69237 -3.75462 0
M  V30 7557 H 745.1 2.34682 -2.96197 0
M  V30 7558 H 745.413 4.29338 -6.42564 0
M  V30 7559 H 743.758 3.86693 -5.77489 0
M  V30 7560 H 746.949 2.84047 -3.72069 0
M  V30 7561 H 747.122 3.7283 -5.30001 0
M  V30 7562 N 740.528 1.15101 1.07655 0
M  V30 7563 C 741.776 0.922149 1.79836 0
M  V30 7564 C 742.097 -0.552346 1.87014 0
M  V30 7565 O 741.367 -1.40145 1.3688 0
M  V30 7566 H 739.947 0.338182 0.666064 0
M  V30 7567 H 742.609 1.45107 1.30115 0
M  V30 7568 H 741.705 1.32883 2.82398 0
M  V30 7569 N 742.006 -1.2595 0.947325 0
M  V30 7570 C 742.969 -2.24407 0.466285 0
M  V30 7571 C 743.969 -1.55054 -0.426005 0
M  V30 7572 O 745.159 -1.7275 -0.224319 0
M  V30 7573 C 742.291 -3.39326 -0.327201 0
M  V30 7574 H 743.484 -2.68477 1.33642 0
M  V30 7575 H 741.037 -1.38211 0.729887 0
M  V30 7576 H 741.772 -3.00667 -1.21532 0
M  V30 7577 H 741.557 -3.9085 0.312839 0
M  V30 7578 H 743.047 -4.12455 -0.653477 0
M  V30 7579 N 743.484 -0.715051 -1.40445 0
M  V30 7580 C 744.416 -0.0227516 -2.29189 0
M  V30 7581 C 745.429 0.724313 -1.458 0
M  V30 7582 O 746.618 0.571781 -1.69094 0
M  V30 7583 C 743.718 0.992038 -3.24055 0
M  V30 7584 C 742.891 0.310613 -4.36296 0
M  V30 7585 C 741.95 1.23071 -5.11605 0
M  V30 7586 O 740.976 0.71571 -5.64682 0
M  V30 7587 N 742.178 2.56188 -5.2091 0
M  V30 7588 H 744.943 -0.78473 -2.89244 0
M  V30 7589 H 742.504 -0.562637 -1.51809 0
M  V30 7590 H 744.496 1.60973 -3.71308 0
M  V30 7591 H 743.066 1.65538 -2.65171 0
M  V30 7592 H 742.286 -0.487269 -3.91177 0
M  V30 7593 H 743.574 -0.162415 -5.08541 0
M  V30 7594 H 742.972 3.00527 -4.7927 0
M  V30 7595 H 741.529 3.13103 -5.71673 0
M  V30 7596 N 744.962 1.50701 -0.461195 0
M  V30 7597 C 746.209 2.02267 0.0971971 0
M  V30 7598 C 746.537 1.34387 1.40608 0
M  V30 7599 O 745.792 0.455254 1.90331 0
M  V30 7600 C 746.091 3.55788 0.33908 0
M  V30 7601 C 745.757 4.42092 -0.886885 0
M  V30 7602 C 744.419 4.65398 -1.22304 0
M  V30 7603 C 746.771 4.92571 -1.70361 0
M  V30 7604 C 744.099 5.36429 -2.37616 0
M  V30 7605 C 746.451 5.64868 -2.84793 0
M  V30 7606 C 745.115 5.86431 -3.18834 0
M  V30 7607 H 744.385 0.740146 0.0355669 0
M  V30 7608 H 747.032 1.81415 -0.61326 0
M  V30 7609 H 745.337 3.751 1.13168 0
M  V30 7610 H 747.034 3.93243 0.784937 0
M  V30 7611 H 743.624 4.24165 -0.614981 0
M  V30 7612 H 747.808 4.74428 -1.4571 0
M  V30 7613 H 743.064 5.51333 -2.64276 0
M  V30 7614 H 747.238 6.02966 -3.48432 0
M  V30 7615 H 744.865 6.41248 -4.08296 0
M  V30 7616 N 746.441 0.193421 1.56409 0
M  V30 7617 C 747.69 -0.445995 1.96707 0
M  V30 7618 C 748.003 -1.62876 1.08309 0
M  V30 7619 O 749.209 -2.33586 1.38383 0
M  V30 7620 C 747.665 -0.844863 3.49843 0
M  V30 7621 C 747.273 0.31352 4.46902 0
M  V30 7622 C 749.017 -1.45146 3.98915 0
M  V30 7623 C 746.924 -0.106214 5.91305 0
M  V30 7624 H 745.854 -0.170398 0.734493 0
M  V30 7625 H 748.505 0.285172 1.81271 0
M  V30 7626 H 746.887 -1.63265 3.60778 0
M  V30 7627 H 748.061 1.09103 4.47698 0
M  V30 7628 H 746.376 0.8315 4.08014 0
M  V30 7629 H 748.973 -1.77792 5.04276 0
M  V30 7630 H 749.316 -2.35734 3.43126 0
M  V30 7631 H 749.849 -0.727675 3.91088 0
M  V30 7632 H 746.588 0.765442 6.51016 0
M  V30 7633 H 746.108 -0.848623 5.93766 0
M  V30 7634 H 747.787 -0.542588 6.44721 0
M  V30 7635 N 747.919 -1.57396 -0.0801906 0
M  V30 7636 C 749.167 -1.86467 -0.779384 0
M  V30 7637 C 749.488 -0.784243 -1.78535 0
M  V30 7638 O 748.758 0.187986 -1.94996 0
M  V30 7639 H 747.338 -0.68806 -0.29083 0
M  V30 7640 H 750 -1.94813 -0.0582749 0
M  V30 7641 H 749.096 -2.83701 -1.30078 0
M  V30 7642 N 749.397 0.351382 -1.53633 0
M  V30 7643 C 750.36 1.41403 -1.80383 0
M  V30 7644 C 751.36 1.45963 -0.674635 0
M  V30 7645 O 752.55 1.46476 -0.942895 0
M  V30 7646 C 749.682 2.80401 -1.93876 0
M  V30 7647 H 750.875 1.18951 -2.75301 0
M  V30 7648 H 748.428 0.58533 -1.44926 0
M  V30 7649 H 749.163 3.08147 -1.01074 0
M  V30 7650 H 748.948 2.78488 -2.7602 0
M  V30 7651 H 750.438 3.57329 -2.16116 0
M  V30 7652 N 750.875 1.45233 0.611969 0
M  V30 7653 C 752.123 1.48727 1.36838 0
M  V30 7654 C 752.444 0.128616 1.94575 0
M  V30 7655 O 751.714 -0.84149 1.76906 0
M  V30 7656 H 750.294 0.547695 0.507976 0
M  V30 7657 H 752.956 1.81156 0.718925 0
M  V30 7658 H 752.052 2.2236 2.19003 0
M  V30 7659 N 752.353 -0.854086 1.3245 0
M  V30 7660 C 753.583 -1.63836 1.25862 0
M  V30 7661 C 753.991 -1.88383 -0.175588 0
M  V30 7662 O 753.334 -1.45353 -1.1233 0
M  V30 7663 C 753.396 -3.02068 1.94923 0
M  V30 7664 C 753.06 -3.0056 3.44257 0
M  V30 7665 C 754.057 -2.77368 4.39731 0
M  V30 7666 C 751.742 -3.21177 3.862 0
M  V30 7667 C 753.736 -2.74797 5.75122 0
M  V30 7668 C 751.423 -3.18234 5.217 0
M  V30 7669 C 752.421 -2.95072 6.15972 0
M  V30 7670 O 752.109 -2.92003 7.48992 0
M  V30 7671 H 751.841 -0.517007 0.435523 0
M  V30 7672 H 754.395 -1.07314 1.75137 0
M  V30 7673 H 752.625 -3.60382 1.40219 0
M  V30 7674 H 754.314 -3.62791 1.82037 0
M  V30 7675 H 755.08 -2.61205 4.08653 0
M  V30 7676 H 750.959 -3.38231 3.13243 0
M  V30 7677 H 754.503 -2.56638 6.48678 0
M  V30 7678 H 750.4 -3.33941 5.52407 0
M  V30 7679 H 751.168 -3.07953 7.58358 0
M  V30 7680 N 753.831 -1.1567 -1.07043 0
M  V30 7681 C 754.779 -0.852204 -2.16426 0
M  V30 7682 C 755.773 0.175661 -1.68487 0
M  V30 7683 O 756.979 0.0303874 -1.79974 0
M  V30 7684 H 753.354 -0.257942 -0.706378 0
M  V30 7685 H 755.325 -1.78231 -2.39324 0
M  V30 7686 C 754.074 -0.361362 -3.45817 0
M  V30 7687 H 753.397 -1.14369 -3.83092 0
M  V30 7688 H 754.837 -0.186997 -4.23587 0
M  V30 7689 C 753.296 0.917703 -3.2416 0
M  V30 7690 O 753.826 1.98858 -3.49025 0
M  V30 7691 N 752.032 0.858456 -2.77631 0
M  V30 7692 H 751.579 -0.0131821 -2.57597 0
M  V30 7693 H 751.537 1.71478 -2.6352 0
M  V30 7694 N 755.309 1.25446 -0.953992 0
M  V30 7695 C 756.558 1.92441 -0.604101 0
M  V30 7696 C 756.871 1.75543 0.862796 0
M  V30 7697 O 758.077 2.37106 1.32262 0
M  V30 7698 C 756.533 3.44854 -1.02974 0
M  V30 7699 C 756.141 3.70464 -2.51914 0
M  V30 7700 C 757.885 4.1778 -0.752352 0
M  V30 7701 C 755.792 5.1638 -2.88281 0
M  V30 7702 H 754.722 0.720508 -0.222227 0
M  V30 7703 H 757.373 1.42318 -1.15836 0
M  V30 7704 H 755.755 3.93935 -0.403904 0
M  V30 7705 H 756.929 3.32038 -3.19511 0
M  V30 7706 H 755.244 3.10797 -2.77117 0
M  V30 7707 H 757.841 5.25261 -1.00024 0
M  V30 7708 H 758.184 4.15135 0.311212 0
M  V30 7709 H 758.717 3.74605 -1.33851 0
M  V30 7710 H 755.456 5.24135 -3.93653 0
M  V30 7711 H 754.976 5.55855 -2.25357 0
M  V30 7712 H 756.655 5.84497 -2.77439 0
M  V30 7713 N 756.787 0.722489 1.40064 0
M  V30 7714 C 758.198 0.336507 1.83642 0
M  V30 7715 C 758.549 -1.13002 1.6039 0
M  V30 7716 O 757.674 -1.87036 1.08842 0
M  V30 7717 C 758.269 0.603985 3.33373 0
M  V30 7718 C 756.828 0.271637 3.75419 0
M  V30 7719 C 755.975 0.872898 2.63203 0
M  V30 7720 H 758.926 0.921108 1.29233 0
M  V30 7721 H 758.947 -0.128471 3.80283 0
M  V30 7722 H 758.459 1.67141 3.50265 0
M  V30 7723 H 756.56 -0.790455 3.64119 0
M  V30 7724 H 756.673 0.745457 4.73265 0
M  V30 7725 H 755.037 0.300431 2.52922 0
M  V30 7726 H 755.82 1.94473 2.82905 0
M  V30 7727 N 758.265 -1.50454 0.469181 0
M  V30 7728 C 759.213 -2.30101 -0.340033 0
M  V30 7729 C 760.207 -1.37306 -0.992135 0
M  V30 7730 O 761.413 -1.54506 -0.923458 0
M  V30 7731 H 757.788 -0.740941 -0.128495 0
M  V30 7732 H 759.759 -2.96315 0.352144 0
M  V30 7733 C 758.508 -3.17804 -1.41052 0
M  V30 7734 H 757.831 -3.89115 -0.918124 0
M  V30 7735 H 759.271 -3.76533 -1.94934 0
M  V30 7736 C 757.73 -2.35272 -2.4114 0
M  V30 7737 O 758.26 -2.03448 -3.4637 0
M  V30 7738 N 756.466 -1.97889 -2.1281 0
M  V30 7739 H 756.013 -2.2397 -1.27261 0
M  V30 7740 H 755.971 -1.42971 -2.80012 0
M  V30 7741 N 759.743 -0.201713 -1.56304 0
M  V30 7742 C 760.992 0.435557 -1.96941 0
M  V30 7743 C 761.305 1.62299 -1.09172 0
M  V30 7744 O 762.511 2.32849 -1.3962 0
M  V30 7745 C 760.967 0.826298 -3.50286 0
M  V30 7746 C 760.575 -0.337216 -4.46729 0
M  V30 7747 C 762.319 1.43028 -3.99679 0
M  V30 7748 C 760.226 0.0748539 -5.91353 0
M  V30 7749 H 759.156 0.1665 -0.735387 0
M  V30 7750 H 761.807 -0.294781 -1.81117 0
M  V30 7751 H 760.189 1.61349 -3.61639 0
M  V30 7752 H 761.363 -1.11476 -4.47113 0
M  V30 7753 H 759.678 -0.853126 -4.07567 0
M  V30 7754 H 762.275 1.75115 -5.05212 0
M  V30 7755 H 762.618 2.33911 -3.44371 0
M  V30 7756 H 763.151 0.706924 -3.91468 0
M  V30 7757 H 759.89 -0.799957 -6.506 0
M  V30 7758 H 759.41 0.817122 -5.94208 0
M  V30 7759 H 761.089 0.508389 -6.45 0
M  V30 7760 N 761.222 1.57436 0.0718424 0
M  V30 7761 C 762.638 1.53792 0.426628 0
M  V30 7762 C 762.838 0.921887 1.79174 0
M  V30 7763 O 761.894 0.524374 2.46995 0
M  V30 7764 C 763.207 2.98443 0.367739 0
M  V30 7765 C 764.755 3.09778 0.447928 0
M  V30 7766 C 765.23 4.5608 0.418946 0
M  V30 7767 N 766.721 4.60716 0.479022 0
M  V30 7768 C 767.456 5.71397 0.47881 0
M  V30 7769 N 766.952 6.91443 0.433417 0
M  V30 7770 N 768.745 5.59639 0.525364 0
M  V30 7771 H 760.896 1.95848 -0.822033 0
M  V30 7772 H 763.159 0.896418 -0.308447 0
M  V30 7773 H 762.865 3.47072 -0.56865 0
M  V30 7774 H 762.739 3.58335 1.17795 0
M  V30 7775 H 765.126 2.61122 1.37474 0
M  V30 7776 H 765.207 2.52796 -0.390857 0
M  V30 7777 H 764.851 5.05393 -0.504016 0
M  V30 7778 H 764.781 5.10925 1.27526 0
M  V30 7779 H 767.272 3.74328 0.518355 0
M  V30 7780 H 767.585 7.71562 0.43718 0
M  V30 7781 H 765.93 6.93847 0.400106 0
M  V30 7782 H 769.121 4.64756 0.558519 0
M  V30 7783 H 769.294 6.45896 0.52173 0
M  V30 7784 N 762.7 -0.34323 1.53817 0
M  V30 7785 C 763.948 -1.0813 1.70741 0
M  V30 7786 C 764.269 -1.89165 0.473461 0
M  V30 7787 O 763.539 -1.89075 -0.512605 0
M  V30 7788 H 762.119 -0.40219 0.629486 0
M  V30 7789 H 764.781 -0.384426 1.91071 0
M  V30 7790 H 763.877 -1.7585 2.57843 0
M  V30 7791 N 764.178 -1.45556 -0.604258 0
M  V30 7792 C 765.108 -1.57327 -1.72541 0
M  V30 7793 C 766.089 -0.424637 -1.64714 0
M  V30 7794 O 767.274 -0.648196 -1.83063 0
M  V30 7795 C 764.404 -1.54279 -3.11152 0
M  V30 7796 C 763.358 -2.67893 -3.33792 0
M  V30 7797 C 762.684 -2.499 -4.72709 0
M  V30 7798 C 763.984 -4.0988 -3.23722 0
M  V30 7799 H 765.678 -2.51175 -1.62947 0
M  V30 7800 H 763.224 -1.20884 -0.782504 0
M  V30 7801 H 765.177 -1.6111 -3.89386 0
M  V30 7802 H 763.901 -0.569627 -3.21594 0
M  V30 7803 H 762.56 -2.60495 -2.57949 0
M  V30 7804 H 762.208 -1.50715 -4.79889 0
M  V30 7805 H 761.908 -3.26091 -4.88813 0
M  V30 7806 H 763.432 -2.5859 -5.5314 0
M  V30 7807 H 764.846 -4.18503 -3.91826 0
M  V30 7808 H 763.243 -4.86487 -3.51355 0
M  V30 7809 H 764.313 -4.31553 -2.21111 0
M  V30 7810 N 765.656 0.84705 -1.32902 0
M  V30 7811 C 766.904 1.5986 -1.2365 0
M  V30 7812 C 767.225 1.93974 0.199789 0
M  V30 7813 O 766.495 1.60273 1.12648 0
M  V30 7814 H 765.075 0.592696 -0.454665 0
M  V30 7815 H 767.737 1.01278 -1.66519 0
M  V30 7816 H 766.833 2.53218 -1.82448 0
M  V30 7817 N 767.134 1.16236 1.06428 0
M  V30 7818 C 768.55 0.906983 1.31324 0
M  V30 7819 C 768.75 -0.440872 1.96618 0
M  V30 7820 O 767.806 -1.1807 2.23194 0
M  V30 7821 C 769.119 2.05501 2.19522 0
M  V30 7822 C 770.667 2.09061 2.32943 0
M  V30 7823 C 771.142 3.23214 3.24495 0
M  V30 7824 N 772.633 3.22922 3.32078 0
M  V30 7825 C 773.368 4.07889 4.03006 0
M  V30 7826 N 772.864 5.02941 4.76469 0
M  V30 7827 N 774.657 3.95881 3.99043 0
M  V30 7828 H 766.808 2.03015 0.624388 0
M  V30 7829 H 769.071 0.88576 0.337835 0
M  V30 7830 H 768.777 3.02847 1.78819 0
M  V30 7831 H 768.651 1.99538 3.201 0
M  V30 7832 H 771.038 1.12308 2.72893 0
M  V30 7833 H 771.119 2.19089 1.32037 0
M  V30 7834 H 770.763 4.20225 2.85261 0
M  V30 7835 H 770.693 3.10423 4.25377 0
M  V30 7836 H 773.184 2.54093 2.79724 0
M  V30 7837 H 773.497 5.64196 5.28112 0
M  V30 7838 H 771.842 5.06922 4.75453 0
M  V30 7839 H 775.033 3.20927 3.40769 0
M  V30 7840 H 775.206 4.62321 4.54052 0
M  V30 7841 N 768.612 -1.24939 0.960631 0
M  V30 7842 C 769.84 -1.96881 0.636045 0
M  V30 7843 C 770.255 -1.71334 -0.793093 0
M  V30 7844 O 769.612 -0.992917 -1.53125 0
M  V30 7845 C 769.663 -3.50309 0.892533 0
M  V30 7846 O 769.384 -3.74977 2.26548 0
M  V30 7847 C 770.885 -4.39474 0.581159 0
M  V30 7848 H 768.105 -0.627399 0.237931 0
M  V30 7849 H 770.649 -1.58952 1.28664 0
M  V30 7850 H 768.804 -3.86326 0.288257 0
M  V30 7851 H 769.218 -4.69401 2.34014 0
M  V30 7852 H 770.692 -5.46008 0.811125 0
M  V30 7853 H 771.169 -4.3652 -0.48443 0
M  V30 7854 H 771.775 -4.09032 1.16502 0
M  V30 7855 N 770.09 -0.729906 -1.39679 0
M  V30 7856 C 771.336 -0.27603 -2.00913 0
M  V30 7857 C 771.669 1.13227 -1.57776 0
M  V30 7858 O 770.944 1.7709 -0.804319 0
M  V30 7859 C 771.227 -0.372157 -3.58172 0
M  V30 7860 C 771.08 -1.81986 -4.11341 0
M  V30 7861 C 772.399 0.248378 -4.39399 0
M  V30 7862 H 769.518 -0.101773 -0.729939 0
M  V30 7863 H 772.16 -0.925104 -1.65957 0
M  V30 7864 H 770.31 0.180459 -3.88081 0
M  V30 7865 H 771.982 -2.42896 -3.92172 0
M  V30 7866 H 770.225 -2.34287 -3.65092 0
M  V30 7867 H 770.896 -1.83842 -5.20486 0
M  V30 7868 H 773.372 -0.222645 -4.15504 0
M  V30 7869 H 772.248 0.150746 -5.48693 0
M  V30 7870 H 772.509 1.33378 -4.21501 0
M  V30 7871 N 771.568 1.50203 -0.477153 0
M  V30 7872 C 772.531 2.27194 0.302599 0
M  V30 7873 C 773.531 1.32221 0.915112 0
M  V30 7874 O 774.721 1.55593 0.783348 0
M  V30 7875 C 771.853 3.0938 1.43167 0
M  V30 7876 H 773.046 2.97575 -0.372678 0
M  V30 7877 H 770.599 1.54578 -0.231392 0
M  V30 7878 H 771.334 2.43509 2.14182 0
M  V30 7879 H 771.119 3.79181 0.998197 0
M  V30 7880 H 772.609 3.67592 1.98157 0
M  V30 7881 N 773.046 0.209999 1.56195 0
M  V30 7882 C 774.274 -0.429996 2.02382 0
M  V30 7883 C 774.689 -1.54159 1.08998 0
M  V30 7884 O 774.046 -1.82239 0.0974856 0
M  V30 7885 C 774.097 -0.972433 3.48175 0
M  V30 7886 O 773.818 0.0948231 4.37997 0
M  V30 7887 C 775.319 -1.68683 4.09952 0
M  V30 7888 H 772.539 -0.106475 0.662498 0
M  V30 7889 H 775.083 0.323072 2.01932 0
M  V30 7890 H 773.238 -1.67582 3.49278 0
M  V30 7891 H 773.652 -0.31113 5.23576 0
M  V30 7892 H 775.126 -2.01851 5.13771 0
M  V30 7893 H 775.603 -2.59587 3.54276 0
M  V30 7894 H 776.209 -1.02893 4.12666 0
M  V30 7895 N 774.524 -1.57472 -0.0634922 0
M  V30 7896 C 775.472 -2.05307 -1.09323 0
M  V30 7897 C 776.466 -0.959995 -1.39572 0
M  V30 7898 O 777.672 -1.14507 -1.38882 0
M  V30 7899 H 774.047 -0.65472 -0.369927 0
M  V30 7900 H 776.018 -2.90925 -0.663707 0
M  V30 7901 C 774.767 -2.51954 -2.39613 0
M  V30 7902 H 774.09 -3.35662 -2.1719 0
M  V30 7903 H 775.53 -2.89169 -3.10092 0
M  V30 7904 C 773.989 -1.40596 -3.06161 0
M  V30 7905 O 774.519 -0.752722 -3.94585 0
M  V30 7906 N 772.725 -1.14902 -2.66919 0
M  V30 7907 H 772.272 -1.68205 -1.95102 0
M  V30 7908 H 772.23 -0.406006 -3.11767 0
M  V30 7909 N 776.003 0.335068 -1.53997 0
M  V30 7910 C 776.953 1.4127 -1.7896 0
M  V30 7911 C 777.937 1.474 -0.64513 0
M  V30 7912 O 779.129 1.52127 -0.904785 0
M  V30 7913 C 776.258 2.78292 -2.01018 0
M  V30 7914 C 775.344 2.7652 -3.21555 0
M  V30 7915 N 775.735 2.44374 -4.42849 0
M  V30 7916 C 774.033 3.0766 -3.22895 0
M  V30 7917 C 774.734 2.51049 -5.24737 0
M  V30 7918 N 773.71 2.8702 -4.6165 0
M  V30 7919 H 777.512 1.15327 -2.70327 0
M  V30 7920 H 775.026 0.543483 -1.53036 0
M  V30 7921 H 777.023 3.55949 -2.17039 0
M  V30 7922 H 775.683 3.05175 -1.10898 0
M  V30 7923 H 776.694 2.17422 -4.70051 0
M  V30 7924 H 773.371 3.3966 -2.42771 0
M  V30 7925 H 774.761 2.29283 -6.31569 0
M  V30 7926 N 777.481 1.45874 0.596531 0
M  V30 7927 C 778.727 1.5069 1.35722 0
M  V30 7928 C 779.06 0.152506 1.936 0
M  V30 7929 O 778.335 -0.834411 1.75692 0
M  V30 7930 C 778.618 2.59474 2.4969 0
M  V30 7931 C 778.471 4.04396 1.96937 0
M  V30 7932 C 779.79 2.64451 3.51787 0
M  V30 7933 H 776.909 0.548611 0.492133 0
M  V30 7934 H 779.551 1.77741 0.671428 0
M  V30 7935 H 777.701 2.36539 3.08191 0
M  V30 7936 H 779.373 4.38576 1.43 0
M  V30 7937 H 777.616 4.14529 1.27859 0
M  V30 7938 H 778.287 4.76218 2.79143 0
M  V30 7939 H 780.763 2.85031 3.03145 0
M  V30 7940 H 779.639 3.42411 4.29006 0
M  V30 7941 H 779.9 1.69965 4.08123 0
M  V30 7942 N 778.959 -0.83999 1.33349 0
M  V30 7943 C 780.205 -1.59724 1.25936 0
M  V30 7944 C 780.56 -1.91616 -0.173563 0
M  V30 7945 O 779.853 -1.55791 -1.11534 0
M  V30 7946 C 780.047 -2.91571 2.06691 0
M  V30 7947 C 779.876 -2.72556 3.57691 0
M  V30 7948 C 778.646 -2.70174 4.27006 0
M  V30 7949 C 780.844 -2.45272 4.52047 0
M  V30 7950 N 778.826 -2.42525 5.63964 0
M  V30 7951 C 780.197 -2.27163 5.76885 0
M  V30 7952 C 782.252 -2.30859 4.41144 0
M  V30 7953 C 780.955 -1.96105 6.92052 0
M  V30 7954 C 782.981 -2.01194 5.56125 0
M  V30 7955 C 782.343 -1.83897 6.79972 0
M  V30 7956 H 778.442 -0.587568 0.516031 0
M  V30 7957 H 781.026 -0.986169 1.67877 0
M  V30 7958 H 779.197 -3.5063 1.67073 0
M  V30 7959 H 780.929 -3.56762 1.91057 0
M  V30 7960 H 777.684 -2.8364 3.7927 0
M  V30 7961 H 778.108 -2.31588 6.36157 0
M  V30 7962 H 782.75 -2.42946 3.46031 0
M  V30 7963 H 780.468 -1.82756 7.87163 0
M  V30 7964 H 784.054 -1.90799 5.49624 0
M  V30 7965 H 782.934 -1.61271 7.67438 0
M  V30 7966 N 780.437 -1.16799 -1.0581 0
M  V30 7967 C 781.685 -0.950642 -1.78346 0
M  V30 7968 C 782.006 0.522524 -1.87869 0
M  V30 7969 O 781.276 1.3795 -1.39092 0
M  V30 7970 H 779.856 -0.348736 -0.6606 0
M  V30 7971 H 782.518 -1.47158 -1.27791 0
M  V30 7972 H 781.614 -1.37359 -2.80248 0
M  V30 7973 N 781.915 1.24427 -0.967243 0
M  V30 7974 C 783.14 1.9708 -0.646069 0
M  V30 7975 C 783.565 1.71272 0.777665 0
M  V30 7976 O 782.923 0.976179 1.52776 0
M  V30 7977 C 782.971 3.48501 -0.926266 0
M  V30 7978 O 782.075 4.12398 -0.0114653 0
M  V30 7979 H 781.416 0.617423 -0.244304 0
M  V30 7980 H 783.946 1.58215 -1.29727 0
M  V30 7981 H 783.956 3.98885 -0.857619 0
M  V30 7982 H 782.631 3.66613 -1.96386 0
M  V30 7983 H 781.208 3.72661 -0.133396 0
M  V30 7984 N 783.393 0.737304 1.3929 0
M  V30 7985 C 784.356 0.10731 2.28949 0
M  V30 7986 C 785.356 -0.664716 1.46418 0
M  V30 7987 O 786.546 -0.493392 1.67067 0
M  V30 7988 C 783.678 -0.857145 3.29948 0
M  V30 7989 H 784.871 0.89725 2.86163 0
M  V30 7990 H 782.424 0.503279 1.47976 0
M  V30 7991 H 783.159 -1.67336 2.77794 0
M  V30 7992 H 782.944 -0.306167 3.90903 0
M  V30 7993 H 784.434 -1.29444 3.97031 0
M  V30 7994 N 784.871 -1.49948 0.485112 0
M  V30 7995 C 786.118 -2.02396 -0.0650059 0
M  V30 7996 C 786.446 -1.36606 -1.38452 0
M  V30 7997 O 785.701 -0.485476 -1.89583 0
M  V30 7998 C 786 -3.56282 -0.282434 0
M  V30 7999 C 785.666 -4.40625 0.957106 0
M  V30 8000 C 784.328 -4.63393 1.29692 0
M  V30 8001 C 786.68 -4.89799 1.78176 0
M  V30 8002 C 784.008 -5.3258 2.4612 0
M  V30 8003 C 786.36 -5.60266 2.93743 0
M  V30 8004 C 785.024 -5.81284 3.28124 0
M  V30 8005 H 784.294 -0.740618 -0.0237873 0
M  V30 8006 H 786.941 -1.80416 0.642044 0
M  V30 8007 H 785.246 -3.76853 -1.07186 0
M  V30 8008 H 786.943 -3.94442 -0.722276 0
M  V30 8009 H 783.533 -4.23133 0.682384 0
M  V30 8010 H 787.717 -4.7205 1.53239 0
M  V30 8011 H 782.973 -5.47059 2.73014 0
M  V30 8012 H 787.147 -5.97347 3.5798 0
M  V30 8013 H 784.774 -6.34671 4.18446 0
M  V30 8014 N 786.349 -0.21828 -1.56081 0
M  V30 8015 C 787.765 0.137168 -1.59009 0
M  V30 8016 C 787.965 1.59215 -1.23503 0
M  V30 8017 O 787.021 2.33178 -0.968716 0
M  V30 8018 C 788.334 -0.186162 -3.00123 0
M  V30 8019 C 789.882 -0.128135 -3.12738 0
M  V30 8020 C 790.357 -0.425094 -4.56023 0
M  V30 8021 N 791.848 -0.374547 -4.61683 0
M  V30 8022 C 792.583 -0.57786 -5.70481 0
M  V30 8023 N 792.079 -0.842771 -6.87655 0
M  V30 8024 N 793.872 -0.510521 -5.59777 0
M  V30 8025 H 786.023 -1.16746 -1.77437 0
M  V30 8026 H 788.286 -0.467706 -0.824594 0
M  V30 8027 H 787.992 -1.19589 -3.30744 0
M  V30 8028 H 787.866 0.500388 -3.73866 0
M  V30 8029 H 790.253 0.872224 -2.81915 0
M  V30 8030 H 790.334 -0.848112 -2.41331 0
M  V30 8031 H 789.978 -1.42288 -4.87562 0
M  V30 8032 H 789.908 0.316038 -5.25651 0
M  V30 8033 H 792.399 -0.177356 -3.77484 0
M  V30 8034 H 792.712 -0.986095 -7.66483 0
M  V30 8035 H 791.057 -0.879929 -6.89407 0
M  V30 8036 H 794.248 -0.303813 -4.67113 0
M  V30 8037 H 794.421 -0.672378 -6.44502 0
M  V30 8038 N 787.827 1.57504 0.0551401 0
M  V30 8039 C 789.075 1.87684 0.74962 0
M  V30 8040 C 789.396 0.812547 1.77264 0
M  V30 8041 O 788.666 -0.15694 1.9527 0
M  V30 8042 H 787.246 0.6926 0.279846 0
M  V30 8043 H 789.908 1.94881 0.0272745 0
M  V30 8044 H 789.004 2.85734 1.25548 0
M  V30 8045 N 789.305 -0.326896 1.54172 0
M  V30 8046 C 790.535 -1.08328 1.75922 0
M  V30 8047 C 790.943 -1.82302 0.50622 0
M  V30 8048 O 790.286 -1.7581 -0.532581 0
M  V30 8049 C 790.348 -2.1294 2.8965 0
M  V30 8050 C 790.012 -1.58394 4.28673 0
M  V30 8051 C 791.009 -1.02747 5.09646 0
M  V30 8052 C 788.694 -1.62737 4.75207 0
M  V30 8053 C 790.688 -0.52169 6.35261 0
M  V30 8054 C 788.375 -1.11772 6.00791 0
M  V30 8055 C 789.373 -0.565819 6.80652 0
M  V30 8056 O 789.061 -0.0638146 8.03875 0
M  V30 8057 H 788.793 -0.3282 0.590983 0
M  V30 8058 H 791.347 -0.37972 2.0186 0
M  V30 8059 H 789.577 -2.86903 2.59275 0
M  V30 8060 H 791.266 -2.74274 2.99213 0
M  V30 8061 H 792.032 -0.987007 4.74851 0
M  V30 8062 H 787.911 -2.04635 4.13093 0
M  V30 8063 H 791.455 -0.0902544 6.97542 0
M  V30 8064 H 787.352 -1.15524 6.35078 0
M  V30 8065 H 788.12 -0.17955 8.18303 0
M  V30 8066 N 790.784 -1.46188 -0.588786 0
M  V30 8067 C 792.032 -1.50885 -1.34455 0
M  V30 8068 C 792.353 -0.159555 -1.94346 0
M  V30 8069 O 791.623 0.813239 -1.78222 0
M  V30 8070 H 790.203 -0.555707 -0.499198 0
M  V30 8071 H 792.865 -1.82277 -0.690014 0
M  V30 8072 H 791.961 -2.25816 -2.15438 0
M  V30 8073 N 792.262 0.832906 -1.33792 0
M  V30 8074 C 793.225 1.92471 -1.24449 0
M  V30 8075 C 794.225 1.59981 -0.162085 0
M  V30 8076 O 795.415 1.69208 -0.414029 0
M  V30 8077 C 792.547 3.28278 -0.919044 0
M  V30 8078 H 793.74 2.0218 -2.21502 0
M  V30 8079 H 791.293 1.0257 -1.17936 0
M  V30 8080 H 792.028 3.24263 0.048738 0
M  V30 8081 H 791.813 3.53241 -1.70187 0
M  V30 8082 H 793.303 4.08253 -0.878576 0
M  V30 8083 N 793.74 1.17359 1.05189 0
M  V30 8084 C 795.151 0.96793 1.5965 0
M  V30 8085 C 795.502 -0.485355 1.90102 0
M  V30 8086 O 794.627 -1.36066 1.6827 0
M  V30 8087 C 795.222 1.75068 2.90063 0
M  V30 8088 C 793.781 1.58969 3.41183 0
M  V30 8089 C 792.928 1.75231 2.14917 0
M  V30 8090 H 795.879 1.32067 0.880001 0
M  V30 8091 H 795.9 1.23308 3.59966 0
M  V30 8092 H 795.412 2.80835 2.67868 0
M  V30 8093 H 793.513 0.556906 3.68415 0
M  V30 8094 H 793.626 2.38067 4.15766 0
M  V30 8095 H 791.99 1.18073 2.25679 0
M  V30 8096 H 792.773 2.8241 1.95191 0
M  V30 8097 N 795.218 -1.23913 0.973828 0
M  V30 8098 C 796.15 -2.24397 0.466763 0
M  V30 8099 C 797.163 -1.57078 -0.427828 0
M  V30 8100 O 798.352 -1.76973 -0.233019 0
M  V30 8101 C 795.452 -3.37141 -0.344798 0
M  V30 8102 C 794.625 -4.34037 0.541349 0
M  V30 8103 C 793.684 -5.2576 -0.215243 0
M  V30 8104 O 792.71 -5.67842 0.39291 0
M  V30 8105 N 793.912 -5.60702 -1.5031 0
M  V30 8106 H 796.677 -2.68536 1.33074 0
M  V30 8107 H 794.238 -1.38017 0.846346 0
M  V30 8108 H 796.23 -3.95476 -0.859133 0
M  V30 8109 H 794.8 -2.92239 -1.10974 0
M  V30 8110 H 794.02 -3.74302 1.23659 0
M  V30 8111 H 795.308 -4.95738 1.1455 0
M  V30 8112 H 794.706 -5.28451 -2.01882 0
M  V30 8113 H 793.263 -6.21538 -1.96301 0
M  V30 8114 N 796.696 -0.74468 -1.38897 0
M  V30 8115 C 797.921 -0.306119 -2.05128 0
M  V30 8116 C 798.346 1.0541 -1.55789 0
M  V30 8117 O 797.704 1.66993 -0.705909 0
M  V30 8118 C 797.752 -0.328195 -3.59103 0
M  V30 8119 O 796.856 0.680876 -4.06741 0
M  V30 8120 H 796.197 -0.137209 -0.649669 0
M  V30 8121 H 798.727 -1.01331 -1.77745 0
M  V30 8122 H 798.737 -0.175956 -4.0762 0
M  V30 8123 H 797.412 -1.32067 -3.94374 0
M  V30 8124 H 795.989 0.49398 -3.69614 0
M  V30 8125 N 798.174 1.49689 -0.493057 0
M  V30 8126 C 799.107 2.25712 0.336062 0
M  V30 8127 C 800.085 1.29953 0.977294 0
M  V30 8128 O 801.269 1.59225 1.00895 0
M  V30 8129 C 798.396 3.0501 1.47263 0
M  V30 8130 C 797.442 4.15863 0.946575 0
M  V30 8131 S 798.275 5.35272 -0.156323 0
M  V30 8132 C 799.431 6.18123 0.983601 0
M  V30 8133 H 799.664 2.95688 -0.309215 0
M  V30 8134 H 797.197 1.51872 -0.278238 0
M  V30 8135 H 799.155 3.51284 2.12391 0
M  V30 8136 H 797.816 2.34519 2.08949 0
M  V30 8137 H 797.009 4.70834 1.7981 0
M  V30 8138 H 796.611 3.72139 0.372647 0
M  V30 8139 H 798.903 6.50588 1.89056 0
M  V30 8140 H 799.846 7.06521 0.472687 0
M  V30 8141 H 800.254 5.50547 1.24735 0
M  V30 8142 N 799.652 0.226554 1.55963 0
M  V30 8143 C 800.899 -0.403789 1.98433 0
M  V30 8144 C 801.227 -1.59416 1.1143 0
M  V30 8145 O 800.482 -1.95042 0.160389 0
M  V30 8146 C 800.781 -0.87642 3.46488 0
M  V30 8147 C 800.447 0.203973 4.50438 0
M  V30 8148 C 799.109 0.500754 4.78587 0
M  V30 8149 C 801.461 0.934396 5.12756 0
M  V30 8150 C 798.789 1.53239 5.66334 0
M  V30 8151 C 801.141 1.9554 6.0162 0
M  V30 8152 C 799.805 2.25905 6.28111 0
M  V30 8153 H 799.075 -0.147757 0.726119 0
M  V30 8154 H 801.722 0.330121 1.88633 0
M  V30 8155 H 800.027 -1.68918 3.53517 0
M  V30 8156 H 801.724 -1.37407 3.76723 0
M  V30 8157 H 798.314 -0.0374917 4.28584 0
M  V30 8158 H 802.498 0.718355 4.91074 0
M  V30 8159 H 797.754 1.77321 5.85122 0
M  V30 8160 H 801.928 2.52642 6.48957 0
M  V30 8161 H 799.555 3.05985 6.959 0
M  V30 8162 N 801.13 -1.57531 -0.0467866 0
M  V30 8163 C 802.093 -2.04379 -1.03738 0
M  V30 8164 C 803.093 -0.944881 -1.3011 0
M  V30 8165 O 804.283 -1.20904 -1.25411 0
M  V30 8166 C 801.415 -2.44572 -2.37482 0
M  V30 8167 H 802.608 -2.93142 -0.633063 0
M  V30 8168 H 800.161 -1.53526 -0.293177 0
M  V30 8169 H 800.896 -1.58911 -2.82697 0
M  V30 8170 H 800.681 -3.24785 -2.19675 0
M  V30 8171 H 802.171 -2.81307 -3.08636 0
M  V30 8172 N 802.608 0.318715 -1.54344 0
M  V30 8173 C 803.833 1.07987 -1.77069 0
M  V30 8174 C 804.258 1.80766 -0.520117 0
M  V30 8175 O 803.616 1.73424 0.528566 0
M  V30 8176 C 803.664 2.04987 -2.96669 0
M  V30 8177 O 802.768 3.12974 -2.68554 0
M  V30 8178 H 802.109 0.311109 -0.586606 0
M  V30 8179 H 804.639 0.361533 -2.0138 0
M  V30 8180 H 804.649 2.47771 -3.2415 0
M  V30 8181 H 803.324 1.51417 -3.87357 0
M  V30 8182 H 801.901 2.74831 -2.52037 0
M  V30 8183 N 804.086 1.46499 0.581025 0
M  V30 8184 C 804.996 1.59778 1.71779 0
M  V30 8185 C 806.012 0.481223 1.67213 0
M  V30 8186 O 807.188 0.74557 1.87091 0
M  V30 8187 C 804.253 1.58626 3.08283 0
M  V30 8188 C 803.314 2.81527 3.241 0
M  V30 8189 C 802.547 2.80421 4.54092 0
M  V30 8190 O 802.77 1.89262 5.38085 0
M  V30 8191 O 801.704 3.71984 4.73193 0
M  V30 8192 H 805.53 2.55918 1.63523 0
M  V30 8193 H 803.115 1.29311 0.748267 0
M  V30 8194 H 804.997 1.60686 3.89561 0
M  V30 8195 H 803.672 0.656467 3.16973 0
M  V30 8196 H 802.579 2.85021 2.42309 0
M  V30 8197 H 803.912 3.73721 3.20302 0
M  V30 8198 N 805.565 -0.825799 1.34232 0
M  V30 8199 C 806.805 -1.59541 1.27773 0
M  V30 8200 C 807.169 -1.91405 -0.150998 0
M  V30 8201 O 808.37 -2.66644 -0.339728 0
M  V30 8202 C 806.641 -2.86183 2.14089 0
M  V30 8203 S 808.2 -3.76751 2.24953 0
M  V30 8204 H 805.018 -0.546871 0.454371 0
M  V30 8205 H 807.62 -0.975677 1.69413 0
M  V30 8206 H 806.324 -2.60767 3.16905 0
M  V30 8207 H 805.855 -3.53155 1.73335 0
M  V30 8208 H 807.87 -4.75442 1.4202 0
M  V30 8209 N 807.043 -1.17915 -1.04565 0
M  V30 8210 C 807.973 -0.925033 -2.14395 0
M  V30 8211 C 808.954 0.135375 -1.6956 0
M  V30 8212 O 810.139 -0.0161774 -1.94193 0
M  V30 8213 C 807.269 -0.444469 -3.44444 0
M  V30 8214 C 806.223 -1.44478 -4.02877 0
M  V30 8215 C 805.549 -0.821933 -5.28345 0
M  V30 8216 C 806.849 -2.81995 -4.39632 0
M  V30 8217 H 808.543 -1.84354 -2.35911 0
M  V30 8218 H 806.089 -0.887806 -1.13375 0
M  V30 8219 H 808.042 -0.254078 -4.20633 0
M  V30 8220 H 806.766 0.509592 -3.226 0
M  V30 8221 H 805.425 -1.62203 -3.28764 0
M  V30 8222 H 805.073 0.139161 -5.02807 0
M  V30 8223 H 804.773 -1.48976 -5.68401 0
M  V30 8224 H 806.297 -0.641959 -6.07216 0
M  V30 8225 H 807.711 -2.67952 -5.06828 0
M  V30 8226 H 806.108 -3.45414 -4.90723 0
M  V30 8227 H 807.178 -3.35927 -3.49687 0
M  V30 8228 N 808.521 1.23394 -0.980386 0
M  V30 8229 C 809.454 2.23404 -0.465404 0
M  V30 8230 C 810.432 1.55735 0.467471 0
M  V30 8231 O 811.616 1.84295 0.395921 0
M  V30 8232 C 808.743 3.3712 0.32672 0
M  V30 8233 C 807.789 4.22935 -0.550296 0
M  V30 8234 S 808.622 4.96824 -1.99814 0
M  V30 8235 C 809.778 6.13991 -1.21516 0
M  V30 8236 H 810.011 2.6674 -1.31289 0
M  V30 8237 H 807.544 1.32874 -0.78638 0
M  V30 8238 H 809.502 4.03065 0.777738 0
M  V30 8239 H 808.163 2.92317 1.14933 0
M  V30 8240 H 807.356 5.03966 0.0585298 0
M  V30 8241 H 806.958 3.62058 -0.937558 0
M  V30 8242 H 809.25 6.75822 -0.476476 0
M  V30 8243 H 810.193 6.7926 -2.0003 0
M  V30 8244 H 810.601 5.59708 -0.733949 0
M  V30 8245 N 809.999 0.752036 1.385 0
M  V30 8246 C 811.276 0.233075 1.94206 0
M  V30 8247 C 811.656 -1.26838 1.68746 0
M  V30 8248 O 811.004 -2.04214 1.02513 0
M  V30 8249 C 811.214 0.58509 3.44061 0
M  V30 8250 C 812.562 0.543871 4.21102 0
M  V30 8251 O 813.586 0.523291 3.52335 0
M  V30 8252 O 812.445 0.553436 5.4369 0
M  V30 8253 H 809.539 0.0483049 0.825588 0
M  V30 8254 H 812.085 0.832053 1.47902 0
M  V30 8255 H 810.857 1.62212 3.56094 0
M  V30 8256 H 810.48 -0.0419738 3.97578 0
M  V30 8257 N 811.477 -1.49425 0.500989 0
M  V30 8258 C 812.41 -2.25887 -0.324087 0
M  V30 8259 C 813.388 -1.30469 -0.970388 0
M  V30 8260 O 814.572 -1.59758 -1.00049 0
M  V30 8261 C 811.699 -3.05787 -1.45643 0
M  V30 8262 C 810.745 -4.16359 -0.924508 0
M  V30 8263 S 811.578 -5.35181 0.184707 0
M  V30 8264 C 812.734 -6.18636 -0.950806 0
M  V30 8265 H 812.967 -2.95519 0.324891 0
M  V30 8266 H 810.5 -1.51723 0.286289 0
M  V30 8267 H 812.458 -3.52405 -2.10525 0
M  V30 8268 H 811.119 -2.35624 -2.07703 0
M  V30 8269 H 810.312 -4.71781 -1.77311 0
M  V30 8270 H 809.914 -3.72331 -0.352907 0
M  V30 8271 H 812.206 -6.51581 -1.85603 0
M  V30 8272 H 813.149 -7.06761 -0.435212 0
M  V30 8273 H 813.557 -5.512 -1.21813 0
M  V30 8274 N 812.955 -0.234822 -1.55841 0
M  V30 8275 C 813.885 0.664217 -2.23854 0
M  V30 8276 C 814.866 1.19076 -1.2147 0
M  V30 8277 O 816.051 1.23232 -1.50091 0
M  V30 8278 C 813.181 1.86666 -2.9287 0
M  V30 8279 C 812.135 1.47341 -4.01839 0
M  V30 8280 C 811.461 2.75571 -4.58219 0
M  V30 8281 C 812.761 0.653479 -5.18196 0
M  V30 8282 H 814.455 0.0971213 -2.99242 0
M  V30 8283 H 812.001 0.0452724 -1.43929 0
M  V30 8284 H 813.954 2.50116 -3.39146 0
M  V30 8285 H 812.678 2.45894 -2.1495 0
M  V30 8286 H 811.337 0.862314 -3.56314 0
M  V30 8287 H 810.985 3.32971 -3.77014 0
M  V30 8288 H 810.685 2.49987 -5.31771 0
M  V30 8289 H 812.209 3.39939 -5.07221 0
M  V30 8290 H 813.623 1.19198 -5.60771 0
M  V30 8291 H 812.02 0.494188 -5.98062 0
M  V30 8292 H 813.09 -0.337004 -4.83728 0
M  V30 8293 N 814.433 1.57553 0.0384317 0
M  V30 8294 C 815.396 2.04927 1.02653 0
M  V30 8295 C 816.396 0.951768 1.29607 0
M  V30 8296 O 817.586 1.21568 1.24768 0
M  V30 8297 C 814.718 2.45828 2.36181 0
M  V30 8298 H 815.911 2.93474 0.617508 0
M  V30 8299 H 813.464 1.53679 0.285031 0
M  V30 8300 H 814.199 1.60408 2.8185 0
M  V30 8301 H 813.984 3.25945 2.1795 0
M  V30 8302 H 815.474 2.82939 3.0714 0
M  V30 8303 N 815.911 -0.310526 1.54511 0
M  V30 8304 C 816.821 -1.4054 1.87844 0
M  V30 8305 C 817.837 -1.55954 0.771635 0
M  V30 8306 O 819.013 -1.70801 1.06719 0
M  V30 8307 C 816.078 -2.75063 2.11048 0
M  V30 8308 C 815.139 -2.68715 3.348 0
M  V30 8309 C 814.372 -3.96821 3.56887 0
M  V30 8310 O 814.595 -4.95721 2.82165 0
M  V30 8311 O 813.529 -3.99291 4.50389 0
M  V30 8312 H 817.355 -1.15275 2.80972 0
M  V30 8313 H 814.94 -0.505732 1.4058 0
M  V30 8314 H 816.822 -3.54671 2.27566 0
M  V30 8315 H 815.497 -3.00191 1.21108 0
M  V30 8316 H 814.404 -1.87611 3.23655 0
M  V30 8317 H 815.737 -2.4854 4.2484 0
M  V30 8318 N 817.389 -1.46805 -0.573248 0
M  V30 8319 C 818.336 -1.58084 -1.68161 0
M  V30 8320 C 819.306 -0.424636 -1.6058 0
M  V30 8321 O 820.491 -0.642623 -1.79652 0
M  V30 8322 C 817.631 -1.58601 -3.06496 0
M  V30 8323 C 816.744 -2.85023 -3.24632 0
M  V30 8324 C 815.879 -2.76981 -4.53271 0
M  V30 8325 C 814.918 -3.983 -4.64783 0
M  V30 8326 N 814.055 -3.88589 -5.84759 0
M  V30 8327 H 818.895 -2.52755 -1.57858 0
M  V30 8328 H 816.432 -1.25385 -0.769218 0
M  V30 8329 H 818.39 -1.56885 -3.86579 0
M  V30 8330 H 817.02 -0.674553 -3.15673 0
M  V30 8331 H 816.072 -2.96678 -2.38089 0
M  V30 8332 H 817.384 -3.7491 -3.29004 0
M  V30 8333 H 816.538 -2.73424 -5.41594 0
M  V30 8334 H 815.277 -1.84751 -4.51352 0
M  V30 8335 H 814.282 -4.02179 -3.74876 0
M  V30 8336 H 815.507 -4.91639 -4.68474 0
M  V30 8337 H 813.453 -2.99151 -5.83819 0
M  V30 8338 H 813.37 -4.7214 -5.90441 0
M  V30 8339 H 814.638 -3.89022 -6.75486 0
M  V30 8340 N 818.867 0.818669 -1.34668 0
M  V30 8341 C 819.797 1.94468 -1.29245 0
M  V30 8342 C 820.778 1.69257 -0.169101 0
M  V30 8343 O 821.963 1.90794 -0.362143 0
M  V30 8344 C 819.093 3.31001 -1.05145 0
M  V30 8345 C 818.047 3.70663 -2.13992 0
M  V30 8346 C 817.373 5.05226 -1.75074 0
M  V30 8347 C 818.673 3.82312 -3.55858 0
M  V30 8348 H 820.367 1.99263 -2.2346 0
M  V30 8349 H 817.913 0.957304 -1.07572 0
M  V30 8350 H 819.866 4.09364 -0.999949 0
M  V30 8351 H 818.59 3.26517 -0.0737312 0
M  V30 8352 H 817.249 2.94578 -2.18219 0
M  V30 8353 H 816.897 4.97233 -0.759518 0
M  V30 8354 H 816.597 5.32734 -2.47928 0
M  V30 8355 H 818.121 5.86042 -1.71427 0
M  V30 8356 H 819.535 4.50935 -3.5402 0
M  V30 8357 H 817.932 4.21278 -4.2737 0
M  V30 8358 H 819.002 2.84193 -3.9289 0
M  V30 8359 N 820.346 1.18468 1.03938 0
M  V30 8360 C 821.594 0.978895 1.76811 0
M  V30 8361 C 821.915 -0.49257 1.88676 0
M  V30 8362 O 821.185 -1.3572 1.41269 0
M  V30 8363 H 819.765 0.359201 0.654968 0
M  V30 8364 H 822.427 1.49173 1.25433 0
M  V30 8365 H 821.523 1.418 2.78027 0
M  V30 8366 N 821.824 -1.22873 0.986916 0
M  V30 8367 C 822.757 -2.23154 0.477245 0
M  V30 8368 C 823.735 -1.55981 -0.459206 0
M  V30 8369 O 824.919 -1.84503 -0.386141 0
M  V30 8370 C 822.046 -3.37289 -0.308838 0
M  V30 8371 C 821.092 -4.22637 0.572717 0
M  V30 8372 S 821.925 -4.95758 2.02446 0
M  V30 8373 C 823.081 -6.13338 1.2477 0
M  V30 8374 H 823.314 -2.6604 1.32702 0
M  V30 8375 H 820.847 -1.32455 0.793415 0
M  V30 8376 H 822.805 -4.03472 -0.756351 0
M  V30 8377 H 821.466 -2.92922 -1.13381 0
M  V30 8378 H 820.659 -5.0399 -0.0318024 0
M  V30 8379 H 820.261 -3.61555 0.956746 0
M  V30 8380 H 822.553 -6.7556 0.51231 0
M  V30 8381 H 823.496 -6.78189 2.03629 0
M  V30 8382 H 823.904 -5.59311 0.763622 0
M  V30 8383 N 823.302 -0.75937 -1.38099 0
M  V30 8384 C 824.579 -0.243371 -1.9408 0
M  V30 8385 C 824.959 1.25942 -1.69416 0
M  V30 8386 O 824.307 2.03667 -1.03595 0
M  V30 8387 C 824.517 -0.603328 -3.43745 0
M  V30 8388 C 825.865 -0.566195 -4.20808 0
M  V30 8389 O 826.889 -0.541969 -3.52053 0
M  V30 8390 O 825.748 -0.582261 -5.43389 0
M  V30 8391 H 822.842 -0.0526825 -0.82532 0
M  V30 8392 H 825.388 -0.839884 -1.47459 0
M  V30 8393 H 824.16 -1.64098 -3.55229 0
M  V30 8394 H 823.783 0.0208887 -3.97595 0
M  V30 8395 N 824.78 1.49157 -0.508906 0
M  V30 8396 C 826.191 1.86593 -0.0630975 0
M  V30 8397 C 826.542 1.42051 1.35337 0
M  V30 8398 O 825.667 0.801866 2.00995 0
M  V30 8399 C 826.262 3.38629 -0.107729 0
M  V30 8400 C 824.821 3.75336 0.282776 0
M  V30 8401 C 823.968 2.7317 -0.4768 0
M  V30 8402 H 826.919 1.41362 -0.72128 0
M  V30 8403 H 826.94 3.74271 0.685689 0
M  V30 8404 H 826.452 3.71017 -1.13876 0
M  V30 8405 H 824.553 3.48558 1.31675 0
M  V30 8406 H 824.666 4.79081 -0.0421728 0
M  V30 8407 H 823.03 2.54591 0.0743552 0
M  V30 8408 H 823.813 3.08403 -1.50807 0
M  V30 8409 N 826.258 0.243083 1.55714 0
M  V30 8410 C 827.188 -0.652336 2.24203 0
M  V30 8411 C 828.169 -1.1843 1.221 0
M  V30 8412 O 829.354 -1.22435 1.50743 0
M  V30 8413 C 826.484 -1.85111 2.93856 0
M  V30 8414 C 825.438 -1.45208 4.02615 0
M  V30 8415 C 824.764 -2.73137 4.59674 0
M  V30 8416 C 826.064 -0.625988 5.18535 0
M  V30 8417 H 827.758 -0.0812504 2.9929 0
M  V30 8418 H 825.304 -0.0376388 1.43951 0
M  V30 8419 H 827.257 -2.48314 3.40468 0
M  V30 8420 H 825.981 -2.44751 2.16251 0
M  V30 8421 H 824.64 -0.843406 3.56766 0
M  V30 8422 H 824.288 -3.30967 3.78774 0
M  V30 8423 H 823.988 -2.47163 5.33089 0
M  V30 8424 H 825.512 -3.37245 5.09017 0
M  V30 8425 H 826.926 -1.16223 5.61396 0
M  V30 8426 H 825.323 -0.462465 5.98315 0
M  V30 8427 H 826.393 0.362652 4.83542 0
M  V30 8428 N 827.736 -1.57571 -0.0300757 0
M  V30 8429 C 828.646 -2.09892 -1.04798 0
M  V30 8430 C 829.662 -1.03732 -1.39698 0
M  V30 8431 O 830.838 -1.35461 -1.49038 0
M  V30 8432 C 827.903 -2.56707 -2.33028 0
M  V30 8433 C 826.964 -3.77345 -2.04718 0
M  V30 8434 C 826.197 -4.21918 -3.26834 0
M  V30 8435 O 826.42 -3.66025 -4.37472 0
M  V30 8436 O 825.354 -5.14362 -3.12594 0
M  V30 8437 H 829.18 -2.97023 -0.633344 0
M  V30 8438 H 826.765 -1.47344 -0.246991 0
M  V30 8439 H 828.647 -2.87154 -3.08417 0
M  V30 8440 H 827.322 -1.72688 -2.73789 0
M  V30 8441 H 826.229 -3.51919 -1.26901 0
M  V30 8442 H 827.562 -4.62345 -1.68813 0
M  V30 8443 N 829.214 0.302327 -1.54673 0
M  V30 8444 C 830.144 1.37759 -1.88533 0
M  V30 8445 C 831.125 1.52961 -0.744113 0
M  V30 8446 O 832.31 1.6649 -0.999731 0
M  V30 8447 C 829.44 2.74201 -2.13146 0
M  V30 8448 C 828.394 2.73765 -3.28993 0
M  V30 8449 C 827.72 4.13483 -3.39022 0
M  V30 8450 C 829.02 2.35624 -4.66132 0
M  V30 8451 H 830.714 1.0967 -2.78591 0
M  V30 8452 H 828.26 0.52613 -1.34044 0
M  V30 8453 H 830.213 3.49508 -2.35419 0
M  V30 8454 H 828.937 3.03812 -1.19858 0
M  V30 8455 H 827.596 2.00914 -3.06642 0
M  V30 8456 H 827.244 4.40269 -2.43253 0
M  V30 8457 H 826.944 4.14093 -4.16894 0
M  V30 8458 H 828.468 4.90572 -3.63553 0
M  V30 8459 H 829.882 3.00647 -4.88143 0
M  V30 8460 H 828.279 2.47449 -5.46707 0
M  V30 8461 H 829.349 1.30753 -4.66939 0
M  V30 8462 N 830.692 1.47107 0.565454 0
M  V30 8463 C 832.108 1.32443 0.890566 0
M  V30 8464 C 832.308 0.308735 1.99121 0
M  V30 8465 O 831.364 -0.28265 2.50913 0
M  V30 8466 C 832.677 2.71548 1.2916 0
M  V30 8467 C 834.225 2.7977 1.40349 0
M  V30 8468 C 834.7 4.19497 1.83811 0
M  V30 8469 N 836.191 4.21998 1.90975 0
M  V30 8470 C 836.926 5.2702 2.25916 0
M  V30 8471 N 836.422 6.42353 2.59527 0
M  V30 8472 N 838.215 5.14393 2.26619 0
M  V30 8473 H 830.366 2.11786 -0.161328 0
M  V30 8474 H 832.629 0.947952 -0.00950631 0
M  V30 8475 H 832.335 3.47265 0.556753 0
M  V30 8476 H 832.209 3.02782 2.24951 0
M  V30 8477 H 834.596 2.0433 2.12916 0
M  V30 8478 H 834.677 2.522 0.427655 0
M  V30 8479 H 834.321 4.95439 1.11816 0
M  V30 8480 H 834.251 4.44486 2.82382 0
M  V30 8481 H 836.742 3.38791 1.6742 0
M  V30 8482 H 837.055 7.18252 2.85191 0
M  V30 8483 H 835.4 6.45687 2.57126 0
M  V30 8484 H 838.591 4.2332 1.99794 0
M  V30 8485 H 838.764 5.96349 2.5352 0
M  V30 8486 N 832.17 -0.811516 1.35101 0
M  V30 8487 C 833.4 -1.59749 1.31011 0
M  V30 8488 C 833.808 -1.88847 -0.115566 0
M  V30 8489 O 833.151 -1.48854 -1.07649 0
M  V30 8490 C 833.213 -2.95714 2.04435 0
M  V30 8491 C 832.877 -2.89456 3.53645 0
M  V30 8492 C 833.874 -2.63237 4.48333 0
M  V30 8493 C 831.559 -3.08728 3.96222 0
M  V30 8494 C 833.553 -2.56361 5.83573 0
M  V30 8495 C 831.24 -3.01475 5.3156 0
M  V30 8496 C 832.238 -2.75326 6.25048 0
M  V30 8497 O 831.926 -2.68026 7.57903 0
M  V30 8498 H 831.658 -0.502889 0.45175 0
M  V30 8499 H 834.212 -1.01687 1.78462 0
M  V30 8500 H 832.442 -3.55739 1.51613 0
M  V30 8501 H 834.131 -3.56816 1.93487 0
M  V30 8502 H 834.897 -2.48072 4.16756 0
M  V30 8503 H 830.776 -3.28094 3.23845 0
M  V30 8504 H 834.32 -2.35871 6.56514 0
M  V30 8505 H 830.217 -3.16197 5.62752 0
M  V30 8506 H 830.985 -2.8367 7.67772 0
M  V30 8507 N 833.648 -1.19017 -1.03309 0
M  V30 8508 C 834.595 -0.924088 -2.11493 0
M  V30 8509 C 835.565 0.139464 -1.65513 0
M  V30 8510 O 836.75 -0.00178761 -1.908 0
M  V30 8511 C 833.89 -0.464255 -3.41963 0
M  V30 8512 C 833.003 -1.5941 -4.01513 0
M  V30 8513 C 832.138 -1.08622 -5.19976 0
M  V30 8514 C 831.177 -2.19024 -5.71572 0
M  V30 8515 N 830.314 -1.69575 -6.81314 0
M  V30 8516 H 835.154 -1.85039 -2.33591 0
M  V30 8517 H 832.691 -0.922593 -1.14572 0
M  V30 8518 H 834.649 -0.179078 -4.16815 0
M  V30 8519 H 833.279 0.425062 -3.19989 0
M  V30 8520 H 832.331 -1.99458 -3.23915 0
M  V30 8521 H 833.643 -2.42604 -4.35826 0
M  V30 8522 H 832.797 -0.756022 -6.01971 0
M  V30 8523 H 831.536 -0.223955 -4.87186 0
M  V30 8524 H 830.541 -2.5288 -4.88193 0
M  V30 8525 H 831.766 -3.05699 -6.06403 0
M  V30 8526 H 829.712 -0.856494 -6.50385 0
M  V30 8527 H 829.629 -2.46361 -7.14732 0
M  V30 8528 H 830.897 -1.39505 -7.66915 0
M  V30 8529 N 835.127 1.22348 -0.993418 0
M  V30 8530 C 836.075 2.26315 -0.537052 0
M  V30 8531 C 837.069 1.643 0.412545 0
M  V30 8532 O 838.275 1.77729 0.285008 0
M  V30 8533 H 834.65 0.735792 -0.155286 0
M  V30 8534 H 836.621 2.62157 -1.42535 0
M  V30 8535 C 835.37 3.47449 0.132118 0
M  V30 8536 H 834.693 3.9543 -0.589519 0
M  V30 8537 H 836.133 4.21965 0.414884 0
M  V30 8538 C 834.592 3.07893 1.36761 0
M  V30 8539 O 835.122 3.17338 2.46291 0
M  V30 8540 N 833.328 2.62672 1.24305 0
M  V30 8541 H 832.875 2.55186 0.351826 0
M  V30 8542 H 832.833 2.36574 2.07076 0
M  V30 8543 N 836.605 0.766683 1.37694 0
M  V30 8544 C 837.568 0.155849 2.2867 0
M  V30 8545 C 838.568 -0.633509 1.47795 0
M  V30 8546 O 839.758 -0.457844 1.68076 0
M  V30 8547 C 836.89 -0.786965 3.31692 0
M  V30 8548 H 838.083 0.957748 2.84196 0
M  V30 8549 H 835.636 0.534554 1.46875 0
M  V30 8550 H 836.371 -1.61406 2.8128 0
M  V30 8551 H 836.156 -0.223182 3.91464 0
M  V30 8552 H 837.646 -1.20994 3.99688 0
M  V30 8553 N 838.083 -1.48885 0.516809 0
M  V30 8554 C 839.313 -2.06592 -0.018375 0
M  V30 8555 C 839.721 -1.37543 -1.29917 0
M  V30 8556 O 839.064 -0.452527 -1.78039 0
M  V30 8557 C 839.126 -3.58016 -0.326315 0
M  V30 8558 C 838.79 -4.48853 0.859072 0
M  V30 8559 C 839.787 -4.89422 1.75391 0
M  V30 8560 C 837.472 -4.90937 1.06235 0
M  V30 8561 C 839.466 -5.70831 2.83604 0
M  V30 8562 C 837.153 -5.72119 2.14763 0
M  V30 8563 C 838.151 -6.11972 3.03281 0
M  V30 8564 O 837.839 -6.91527 4.09934 0
M  V30 8565 H 837.571 -0.675559 0.0244023 0
M  V30 8566 H 840.125 -1.92442 0.718005 0
M  V30 8567 H 838.355 -3.70231 -1.1165 0
M  V30 8568 H 840.044 -3.97898 -0.801999 0
M  V30 8569 H 840.81 -4.57542 1.60875 0
M  V30 8570 H 836.689 -4.59409 0.382677 0
M  V30 8571 H 840.233 -6.01857 3.52724 0
M  V30 8572 H 836.13 -6.03412 2.29268 0
M  V30 8573 H 836.898 -7.0986 4.07482 0
M  V30 8574 N 839.561 -0.251338 -1.55583 0
M  V30 8575 C 840.977 0.103409 -1.59265 0
M  V30 8576 C 841.177 1.56559 -1.26852 0
M  V30 8577 O 840.233 2.31071 -1.01796 0
M  V30 8578 C 841.546 -0.249781 -2.99661 0
M  V30 8579 C 843.094 -0.194442 -3.12395 0
M  V30 8580 C 843.569 -0.521728 -4.55019 0
M  V30 8581 N 845.06 -0.472393 -4.60785 0
M  V30 8582 C 845.795 -0.698737 -5.69127 0
M  V30 8583 N 845.291 -0.988443 -6.85713 0
M  V30 8584 N 847.084 -0.629143 -5.58568 0
M  V30 8585 H 839.235 -1.20484 -1.74921 0
M  V30 8586 H 841.498 -0.485092 -0.814488 0
M  V30 8587 H 841.204 -1.26577 -3.28133 0
M  V30 8588 H 841.078 0.420973 -3.74844 0
M  V30 8589 H 843.465 0.812229 -2.83702 0
M  V30 8590 H 843.546 -0.899111 -2.39478 0
M  V30 8591 H 843.19 -1.52597 -4.84434 0
M  V30 8592 H 843.12 0.204468 -5.26203 0
M  V30 8593 H 845.611 -0.257386 -3.77022 0
M  V30 8594 H 845.924 -1.14846 -7.64219 0
M  V30 8595 H 844.269 -1.02596 -6.87386 0
M  V30 8596 H 847.46 -0.402826 -4.66364 0
M  V30 8597 H 847.633 -0.808935 -6.42931 0
M  V30 8598 N 841.039 1.57585 0.0217189 0
M  V30 8599 C 842.45 1.7787 0.567377 0
M  V30 8600 C 842.801 0.883337 1.7519 0
M  V30 8601 O 841.926 0.0800819 2.16252 0
M  V30 8602 C 842.521 3.2257 1.03606 0
M  V30 8603 C 841.08 3.44026 1.52718 0
M  V30 8604 C 840.227 2.73313 0.468545 0
M  V30 8605 H 843.178 1.57377 -0.2045 0
M  V30 8606 H 843.199 3.29488 1.9031 0
M  V30 8607 H 842.711 3.87711 0.173739 0
M  V30 8608 H 840.812 2.8407 2.41111 0
M  V30 8609 H 840.925 4.52659 1.56962 0
M  V30 8610 H 839.289 2.37299 0.925263 0
M  V30 8611 H 840.072 3.41141 -0.384438 0
M  V30 8612 N 842.517 -0.29412 1.54831 0
M  V30 8613 C 843.765 -1.02643 1.74094 0
M  V30 8614 C 844.086 -1.87563 0.533402 0
M  V30 8615 O 843.356 -1.9061 -0.452192 0
M  V30 8616 H 841.936 -0.381959 0.641963 0
M  V30 8617 H 844.598 -0.323444 1.92197 0
M  V30 8618 H 843.694 -1.67558 2.63307 0
M  V30 8619 N 843.995 -1.47404 -0.557645 0
M  V30 8620 C 845.272 -1.44488 -1.31843 0
M  V30 8621 C 845.652 -0.1416 -2.10625 0
M  V30 8622 O 845 0.876908 -2.11004 0
M  V30 8623 C 845.21 -2.69016 -2.22331 0
M  V30 8624 C 846.558 -3.16212 -2.83364 0
M  V30 8625 O 847.582 -2.69741 -2.32634 0
M  V30 8626 O 846.441 -3.96999 -3.75571 0
M  V30 8627 H 843.535 -0.57578 -0.593639 0
M  V30 8628 H 846.081 -1.59605 -0.576584 0
M  V30 8629 H 844.853 -3.55406 -1.63715 0
M  V30 8630 H 844.476 -2.56484 -3.03812 0
M  V30 8631 N 845.473 0.80434 -1.35529 0
M  V30 8632 C 846.701 1.59283 -1.32048 0
M  V30 8633 C 847.116 1.88527 0.101556 0
M  V30 8634 O 846.473 1.48975 1.05417 0
M  V30 8635 C 846.524 2.92276 -2.12737 0
M  V30 8636 O 846.245 2.64299 -3.49396 0
M  V30 8637 C 847.746 3.86631 -2.16867 0
M  V30 8638 H 844.966 0.494523 -0.453528 0
M  V30 8639 H 847.51 0.999415 -1.78415 0
M  V30 8640 H 845.665 3.48125 -1.69964 0
M  V30 8641 H 846.079 3.4923 -3.91329 0
M  V30 8642 H 847.553 4.77053 -2.77712 0
M  V30 8643 H 848.03 4.23384 -1.16803 0
M  V30 8644 H 848.636 3.36717 -2.59811 0
M  V30 8645 N 846.951 1.19563 1.02676 0
M  V30 8646 C 847.899 0.931942 2.13114 0
M  V30 8647 C 848.893 -0.113007 1.69023 0
M  V30 8648 O 850.099 0.0364298 1.79963 0
M  V30 8649 H 846.474 0.283981 0.696318 0
M  V30 8650 H 848.445 1.86991 2.32545 0
M  V30 8651 C 847.194 0.489461 3.44238 0
M  V30 8652 H 846.517 1.28508 3.78584 0
M  V30 8653 H 847.957 0.34408 4.22602 0
M  V30 8654 C 846.416 -0.796761 3.27343 0
M  V30 8655 O 846.946 -1.85767 3.56165 0
M  V30 8656 N 845.152 -0.754824 2.80626 0
M  V30 8657 H 844.699 0.108778 2.5737 0
M  V30 8658 H 844.657 -1.6158 2.69702 0
M  V30 8659 N 848.429 -1.21819 0.999893 0
M  V30 8660 C 849.84 -1.72517 0.713775 0
M  V30 8661 C 850.191 -1.80505 -0.768922 0
M  V30 8662 O 849.316 -1.45611 -1.60083 0
M  V30 8663 C 849.911 -3.13321 1.28901 0
M  V30 8664 C 848.47 -3.61396 1.05212 0
M  V30 8665 C 847.617 -2.39074 1.40494 0
M  V30 8666 H 850.568 -1.07068 1.17141 0
M  V30 8667 H 850.589 -3.74535 0.671084 0
M  V30 8668 H 850.101 -3.07475 2.36814 0
M  V30 8669 H 848.202 -3.72599 -0.0100732 0
M  V30 8670 H 848.315 -4.47145 1.72042 0
M  V30 8671 H 846.679 -2.41015 0.823642 0
M  V30 8672 H 847.462 -2.35884 2.49427 0
M  V30 8673 N 849.908 -0.773975 -1.37286 0
M  V30 8674 C 851.136 -0.350758 -2.03905 0
M  V30 8675 C 851.551 1.02779 -1.58373 0
M  V30 8676 O 850.908 1.65646 -0.766009 0
M  V30 8677 C 850.959 -0.387335 -3.59419 0
M  V30 8678 O 850.68 -1.7115 -4.03286 0
M  V30 8679 C 852.181 0.047198 -4.43275 0
M  V30 8680 H 849.401 -0.146663 -0.654775 0
M  V30 8681 H 851.945 -1.04852 -1.75574 0
M  V30 8682 H 850.1 0.261865 -3.86514 0
M  V30 8683 H 850.514 -1.65166 -4.97816 0
M  V30 8684 H 851.988 -0.0295474 -5.51992 0
M  V30 8685 H 852.465 1.09786 -4.25257 0
M  V30 8686 H 853.071 -0.573899 -4.2141 0
M  V30 8687 N 851.386 1.48609 -0.524698 0
M  V30 8688 C 852.634 2.02097 0.0112991 0
M  V30 8689 C 852.955 1.40455 1.35268 0
M  V30 8690 O 852.225 0.56807 1.87483 0
M  V30 8691 H 850.805 0.746966 0.00716426 0
M  V30 8692 H 853.467 1.82378 -0.687329 0
M  V30 8693 H 852.563 3.11855 0.123531 0
M  V30 8694 N 852.864 0.259585 1.55447 0
M  V30 8695 C 853.796 -0.667548 2.19263 0
M  V30 8696 C 854.809 -1.12925 1.17268 0
M  V30 8697 O 855.998 -1.05384 1.44071 0
M  V30 8698 C 853.098 -1.92066 2.7922 0
M  V30 8699 C 852.271 -1.60832 4.06758 0
M  V30 8700 C 851.33 -2.71231 4.50911 0
M  V30 8701 O 850.356 -2.38077 5.17019 0
M  V30 8702 N 851.558 -4.00984 4.19752 0
M  V30 8703 H 854.323 -0.121449 2.99454 0
M  V30 8704 H 851.884 0.0800519 1.61702 0
M  V30 8705 H 853.876 -2.65186 3.0571 0
M  V30 8706 H 852.446 -2.37621 2.03113 0
M  V30 8707 H 851.666 -0.711685 3.87722 0
M  V30 8708 H 852.954 -1.37445 4.89884 0
M  V30 8709 H 852.352 -4.30748 3.66706 0
M  V30 8710 H 850.909 -4.7053 4.51048 0
M  V30 8711 N 854.342 -1.57594 -0.0133615 0
M  V30 8712 C 855.252 -2.10991 -1.02566 0
M  V30 8713 C 856.268 -1.05208 -1.3859 0
M  V30 8714 O 857.444 -1.37034 -1.47593 0
M  V30 8715 C 854.509 -2.59165 -2.30292 0
M  V30 8716 C 853.57 -3.79495 -2.00704 0
M  V30 8717 C 852.803 -4.25361 -3.22341 0
M  V30 8718 O 853.026 -3.70645 -4.33565 0
M  V30 8719 O 851.96 -5.17649 -3.07121 0
M  V30 8720 H 855.786 -2.97678 -0.601806 0
M  V30 8721 H 853.371 -1.47598 -0.23135 0
M  V30 8722 H 855.253 -2.90409 -3.05354 0
M  V30 8723 H 853.928 -1.75582 -2.71942 0
M  V30 8724 H 852.835 -3.53245 -1.23161 0
M  V30 8725 H 854.168 -4.64109 -1.639 0
M  V30 8726 N 855.82 0.285905 -1.54985 0
M  V30 8727 C 857.231 0.857869 -1.65824 0
M  V30 8728 C 857.582 1.87531 -0.576763 0
M  V30 8729 O 856.707 2.14528 0.284016 0
M  V30 8730 C 857.302 1.56277 -3.00604 0
M  V30 8731 C 855.861 2.08294 -3.13513 0
M  V30 8732 C 855.008 0.920633 -2.61571 0
M  V30 8733 H 857.959 0.0625463 -1.58577 0
M  V30 8734 H 857.98 2.42912 -2.92872 0
M  V30 8735 H 857.492 0.822017 -3.79295 0
M  V30 8736 H 855.593 2.8537 -2.39572 0
M  V30 8737 H 855.706 2.3071 -4.19892 0
M  V30 8738 H 854.07 1.31043 -2.18403 0
M  V30 8739 H 854.853 0.193594 -3.42754 0
M  V30 8740 N 857.298 1.47698 0.54982 0
M  V30 8741 C 858.208 1.63386 1.68351 0
M  V30 8742 C 859.224 0.516583 1.66155 0
M  V30 8743 O 860.4 0.785088 1.85468 0
M  V30 8744 C 857.465 1.6513 3.04849 0
M  V30 8745 C 856.526 2.88338 3.18056 0
M  V30 8746 C 855.759 2.8999 4.48042 0
M  V30 8747 O 855.982 2.00633 5.3395 0
M  V30 8748 O 854.916 3.81938 4.65196 0
M  V30 8749 H 858.742 2.59329 1.58057 0
M  V30 8750 H 856.327 1.30869 0.72067 0
M  V30 8751 H 858.209 1.68913 3.86065 0
M  V30 8752 H 856.884 0.723555 3.1551 0
M  V30 8753 H 855.791 2.90097 2.36209 0
M  V30 8754 H 857.124 3.80431 3.12302 0
M  V30 8755 N 858.776 -0.797141 1.35954 0
M  V30 8756 C 860.022 -1.55698 1.29946 0
M  V30 8757 C 860.355 -1.93808 -0.123259 0
M  V30 8758 O 859.63 -1.62102 -1.07486 0
M  V30 8759 C 859.913 -2.83926 2.2149 0
M  V30 8760 C 859.766 -2.52232 3.72423 0
M  V30 8761 C 861.085 -3.85698 2.11955 0
M  V30 8762 H 858.204 -0.56488 0.47337 0
M  V30 8763 H 860.846 -0.916421 1.66438 0
M  V30 8764 H 858.996 -3.38588 1.905 0
M  V30 8765 H 860.668 -2.0368 4.13899 0
M  V30 8766 H 858.911 -1.85286 3.92239 0
M  V30 8767 H 859.582 -3.43782 4.31877 0
M  V30 8768 H 862.058 -3.40462 2.39218 0
M  V30 8769 H 860.934 -4.73182 2.78191 0
M  V30 8770 H 861.195 -4.28083 1.10442 0
M  V30 8771 N 860.254 -1.20106 -1.0204 0
M  V30 8772 C 861.501 -1.00889 -1.75578 0
M  V30 8773 C 861.829 0.459415 -1.88996 0
M  V30 8774 O 861.084 1.35735 -1.40977 0
M  V30 8775 C 861.383 -1.63308 -3.17908 0
M  V30 8776 C 861.049 -3.13091 -3.24476 0
M  V30 8777 C 859.711 -3.53968 -3.25976 0
M  V30 8778 C 862.063 -4.09093 -3.22944 0
M  V30 8779 C 859.391 -4.89381 -3.2361 0
M  V30 8780 C 861.743 -5.44447 -3.22119 0
M  V30 8781 C 860.407 -5.84742 -3.2192 0
M  V30 8782 H 859.677 -0.36918 -0.642485 0
M  V30 8783 H 862.324 -1.49475 -1.19706 0
M  V30 8784 H 860.629 -1.06974 -3.76914 0
M  V30 8785 H 862.326 -1.45958 -3.73493 0
M  V30 8786 H 858.916 -2.80526 -3.24042 0
M  V30 8787 H 863.1 -3.78549 -3.20958 0
M  V30 8788 H 858.356 -5.1987 -3.21785 0
M  V30 8789 H 862.53 -6.18584 -3.19885 0
M  V30 8790 H 860.157 -6.89642 -3.19841 0
M  V30 8791 N 861.732 1.21287 -1.00634 0
M  V30 8792 C 862.957 1.94925 -0.708441 0
M  V30 8793 C 863.382 1.73659 0.722783 0
M  V30 8794 O 862.74 1.02429 1.49593 0
M  V30 8795 C 862.788 3.45377 -1.03667 0
M  V30 8796 O 861.892 4.12153 -0.142661 0
M  V30 8797 H 861.233 0.609338 -0.263824 0
M  V30 8798 H 863.763 1.54008 -1.34695 0
M  V30 8799 H 863.773 3.95954 -0.984086 0
M  V30 8800 H 862.448 3.6018 -2.0795 0
M  V30 8801 H 861.025 3.72048 -0.251888 0
M  V30 8802 N 863.21 0.781244 1.36873 0
M  V30 8803 C 864.14 0.188128 2.32741 0
M  V30 8804 C 865.121 -0.672326 1.56249 0
M  V30 8805 O 866.306 -0.607835 1.84442 0
M  V30 8806 C 863.436 -0.684341 3.40491 0
M  V30 8807 C 862.39 0.0755641 4.27933 0
M  V30 8808 C 861.716 -0.916968 5.26779 0
M  V30 8809 C 863.016 1.26006 5.06873 0
M  V30 8810 H 864.71 0.989016 2.82593 0
M  V30 8811 H 862.256 0.477038 1.35869 0
M  V30 8812 H 864.209 -1.10915 4.06541 0
M  V30 8813 H 862.933 -1.51785 2.89187 0
M  V30 8814 H 861.592 0.481258 3.63427 0
M  V30 8815 H 861.24 -1.74528 4.71751 0
M  V30 8816 H 860.94 -0.413 5.86147 0
M  V30 8817 H 862.464 -1.34052 5.95703 0
M  V30 8818 H 863.878 0.911425 5.66009 0
M  V30 8819 H 862.275 1.69676 5.75613 0
M  V30 8820 H 863.345 2.05948 4.38991 0
M  V30 8821 N 864.689 -1.48329 0.532571 0
M  V30 8822 C 866.1 -1.86469 0.0927749 0
M  V30 8823 C 866.451 -1.44186 -1.3306 0
M  V30 8824 O 865.576 -0.833741 -1.99694 0
M  V30 8825 C 866.171 -3.38414 0.161588 0
M  V30 8826 C 864.73 -3.75739 -0.223028 0
M  V30 8827 C 863.877 -2.72377 0.520199 0
M  V30 8828 H 866.828 -1.40197 0.743678 0
M  V30 8829 H 866.849 -3.75314 -0.626059 0
M  V30 8830 H 866.361 -3.69159 1.19765 0
M  V30 8831 H 864.462 -3.50608 -1.26113 0
M  V30 8832 H 864.575 -4.78954 0.118385 0
M  V30 8833 H 862.939 -2.54678 -0.0338425 0
M  V30 8834 H 863.722 -3.05965 1.55694 0
M  V30 8835 N 866.167 -0.267825 -1.55308 0
M  V30 8836 C 867.444 0.402449 -1.91415 0
M  V30 8837 C 867.824 1.7428 -1.1912 0
M  V30 8838 O 867.172 2.2631 -0.315609 0
M  V30 8839 C 867.382 0.549926 -3.4464 0
M  V30 8840 C 868.73 0.836188 -4.16285 0
M  V30 8841 O 869.754 0.635009 -3.50494 0
M  V30 8842 O 868.613 1.22051 -5.32697 0
M  V30 8843 H 865.707 0.219177 -0.797427 0
M  V30 8844 H 868.253 -0.313439 -1.6678 0
M  V30 8845 H 867.025 -0.393641 -3.89315 0
M  V30 8846 H 866.648 1.31556 -3.75205 0
M  V30 8847 N 867.645 1.57599 0.00500368 0
M  V30 8848 C 868.578 2.03541 1.03181 0
M  V30 8849 C 869.556 0.924301 1.33774 0
M  V30 8850 O 870.74 1.19204 1.46023 0
M  V30 8851 C 867.867 2.42879 2.36067 0
M  V30 8852 C 866.913 3.64673 2.21169 0
M  V30 8853 S 867.746 5.12805 1.54243 0
M  V30 8854 C 868.902 5.55408 2.88569 0
M  V30 8855 H 869.135 2.90316 0.640598 0
M  V30 8856 H 866.668 1.52886 0.215722 0
M  V30 8857 H 868.626 2.66212 3.12476 0
M  V30 8858 H 867.287 1.56512 2.72329 0
M  V30 8859 H 866.48 3.89932 3.19326 0
M  V30 8860 H 866.082 3.41316 1.52904 0
M  V30 8861 H 868.374 5.57563 3.84876 0
M  V30 8862 H 869.317 6.55418 2.68016 0
M  V30 8863 H 869.725 4.82961 2.92249 0
M  V30 8864 N 869.123 -0.277682 1.55134 0
M  V30 8865 C 870.372 -1.00766 1.74726 0
M  V30 8866 C 870.685 -1.87617 0.553092 0
M  V30 8867 O 871.891 -2.64058 0.631318 0
M  V30 8868 C 870.347 -1.84147 3.09221 0
M  V30 8869 C 869.955 -1.02186 4.3619 0
M  V30 8870 C 871.699 -2.56604 3.38164 0
M  V30 8871 C 869.606 -1.84978 5.61727 0
M  V30 8872 H 868.536 -0.379948 0.651273 0
M  V30 8873 H 871.187 -0.263543 1.81598 0
M  V30 8874 H 869.569 -2.62637 2.96375 0
M  V30 8875 H 870.743 -0.281459 4.5994 0
M  V30 8876 H 869.058 -0.412054 4.14356 0
M  V30 8877 H 871.655 -3.18942 4.29162 0
M  V30 8878 H 871.998 -3.26647 2.58085 0
M  V30 8879 H 872.531 -1.85147 3.52087 0
M  V30 8880 H 869.27 -1.19365 6.4454 0
M  V30 8881 H 868.79 -2.56628 5.42128 0
M  V30 8882 H 870.469 -2.42458 5.99853 0
M  V30 8883 N 870.601 -1.47988 -0.541979 0
M  V30 8884 C 871.878 -1.45878 -1.30303 0
M  V30 8885 C 872.258 -0.163931 -2.10463 0
M  V30 8886 O 871.606 0.854479 -2.11922 0
M  V30 8887 C 871.816 -2.71359 -2.19466 0
M  V30 8888 C 873.164 -3.19199 -2.79995 0
M  V30 8889 O 874.188 -2.72193 -2.2976 0
M  V30 8890 O 873.047 -4.00961 -3.71339 0
M  V30 8891 H 870.141 -0.582043 -0.587498 0
M  V30 8892 H 872.687 -1.60207 -0.559623 0
M  V30 8893 H 871.459 -3.57122 -1.59936 0
M  V30 8894 H 871.082 -2.59692 -3.01075 0
M  V30 8895 N 872.079 0.78992 -1.36375 0
M  V30 8896 C 873.011 1.91113 -1.26524 0
M  V30 8897 C 874.024 1.61747 -0.184851 0
M  V30 8898 O 875.213 1.73004 -0.439524 0
M  V30 8899 C 872.313 3.25908 -0.92937 0
M  V30 8900 C 871.486 3.83057 -2.11154 0
M  V30 8901 C 870.545 4.96289 -1.74881 0
M  V30 8902 O 869.571 5.12834 -2.46962 0
M  V30 8903 N 870.773 5.76478 -0.682193 0
M  V30 8904 H 873.538 2.00085 -2.23128 0
M  V30 8905 H 871.099 0.968165 -1.29762 0
M  V30 8906 H 873.091 3.99151 -0.667884 0
M  V30 8907 H 871.661 3.12556 -0.0524843 0
M  V30 8908 H 870.881 3.01808 -2.53586 0
M  V30 8909 H 872.169 4.1797 -2.90135 0
M  V30 8910 H 871.567 5.65638 -0.0836661 0
M  V30 8911 H 870.124 6.50026 -0.480529 0
M  V30 8912 N 873.557 1.20646 1.01402 0
M  V30 8913 C 874.487 0.98155 2.11867 0
M  V30 8914 C 875.468 -0.0903712 1.6986 0
M  V30 8915 O 876.653 0.0676586 1.94082 0
M  V30 8916 C 873.783 0.535636 3.43145 0
M  V30 8917 C 872.737 1.55109 3.98905 0
M  V30 8918 C 872.063 0.961725 5.2598 0
M  V30 8919 C 873.363 2.93552 4.32001 0
M  V30 8920 H 875.057 1.90544 2.3094 0
M  V30 8921 H 872.603 0.917554 1.10982 0
M  V30 8922 H 874.556 0.365512 4.19812 0
M  V30 8923 H 873.28 -0.423882 3.23838 0
M  V30 8924 H 871.939 1.70862 3.24348 0
M  V30 8925 H 871.587 -0.00580108 5.03 0
M  V30 8926 H 871.287 1.63993 5.64252 0
M  V30 8927 H 872.811 0.802726 6.053 0
M  V30 8928 H 874.225 2.81295 4.99546 0
M  V30 8929 H 872.622 3.58303 4.81393 0
M  V30 8930 H 873.692 3.4508 3.40658 0
M  V30 8931 N 875.035 -1.20752 1.01276 0
M  V30 8932 C 876.451 -1.42084 0.726934 0
M  V30 8933 C 876.651 -1.89138 -0.694907 0
M  V30 8934 O 875.707 -2.05783 -1.4632 0
M  V30 8935 C 877.02 -2.44575 1.74938 0
M  V30 8936 C 878.568 -2.58347 1.76708 0
M  V30 8937 C 879.043 -3.64078 2.77869 0
M  V30 8938 N 880.534 -3.71558 2.76585 0
M  V30 8939 C 881.269 -4.53016 3.51517 0
M  V30 8940 N 880.765 -5.38309 4.36114 0
M  V30 8941 N 882.558 -4.47512 3.40132 0
M  V30 8942 H 874.709 -0.885228 1.93074 0
M  V30 8943 H 876.972 -0.451075 0.833808 0
M  V30 8944 H 876.678 -2.1699 2.76782 0
M  V30 8945 H 876.552 -3.43503 1.55838 0
M  V30 8946 H 878.939 -2.85265 0.755516 0
M  V30 8947 H 879.02 -1.59628 1.99882 0
M  V30 8948 H 878.664 -3.37905 3.79187 0
M  V30 8949 H 878.594 -4.62412 2.51958 0
M  V30 8950 H 881.085 -3.10629 2.15216 0
M  V30 8951 H 881.398 -5.9754 4.90068 0
M  V30 8952 H 879.743 -5.37824 4.40194 0
M  V30 8953 H 882.934 -3.79912 2.73467 0
M  V30 8954 H 883.107 -5.10759 3.98784 0
M  V30 8955 N 876.513 -0.788492 -1.36457 0
M  V30 8956 C 877.924 -0.423742 -1.81828 0
M  V30 8957 C 878.275 1.05221 -1.65599 0
M  V30 8958 O 877.4 1.8163 -1.17641 0
M  V30 8959 C 877.995 -0.762354 -3.30112 0
M  V30 8960 C 876.554 -0.450445 -3.73695 0
M  V30 8961 C 875.701 -0.997482 -2.58738 0
M  V30 8962 H 878.652 -0.981718 -1.24692 0
M  V30 8963 H 878.673 -0.0531136 -3.80463 0
M  V30 8964 H 878.185 -1.83662 -3.41891 0
M  V30 8965 H 876.286 0.615829 -3.67476 0
M  V30 8966 H 876.399 -0.970408 -4.69169 0
M  V30 8967 H 874.763 -0.420761 -2.51201 0
M  V30 8968 H 875.546 -2.07749 -2.73304 0
M  V30 8969 N 877.991 1.48044 -0.54043 0
M  V30 8970 C 878.938 2.29781 0.216597 0
M  V30 8971 C 879.908 1.38021 0.924094 0
M  V30 8972 O 881.093 1.66985 0.923078 0
M  V30 8973 C 878.233 3.21623 1.2511 0
M  V30 8974 C 877.346 4.28467 0.551384 0
M  V30 8975 C 876.481 5.07477 1.56972 0
M  V30 8976 C 875.52 6.06113 0.854048 0
M  V30 8977 N 874.657 6.78143 1.81842 0
M  V30 8978 H 879.497 2.94001 -0.486578 0
M  V30 8979 H 877.034 1.44929 -0.251789 0
M  V30 8980 H 878.992 3.73279 1.8633 0
M  V30 8981 H 877.622 2.59305 1.92252 0
M  V30 8982 H 876.674 3.79997 -0.174982 0
M  V30 8983 H 877.986 4.98799 -0.0100542 0
M  V30 8984 H 877.14 5.63199 2.25592 0
M  V30 8985 H 875.879 4.37008 2.16507 0
M  V30 8986 H 874.884 5.49585 0.153838 0
M  V30 8987 H 876.109 6.78584 0.264675 0
M  V30 8988 H 874.055 6.10417 2.40265 0
M  V30 8989 H 873.972 7.44587 1.3087 0
M  V30 8990 H 875.24 7.38448 2.49628 0
M  V30 8991 N 879.47 0.276058 1.55163 0
M  V30 8992 C 880.7 -0.343274 2.03728 0
M  V30 8993 C 881.108 -1.49945 1.15383 0
M  V30 8994 O 880.451 -1.82942 0.166696 0
M  V30 8995 C 880.513 -0.885683 3.48419 0
M  V30 8996 C 880.177 0.141976 4.56779 0
M  V30 8997 C 881.174 0.961816 5.10926 0
M  V30 8998 C 878.859 0.276487 5.01538 0
M  V30 8999 C 880.853 1.90234 6.0835 0
M  V30 9000 C 878.54 1.22049 5.98788 0
M  V30 9001 C 879.538 2.03192 6.52075 0
M  V30 9002 O 879.226 2.95996 7.47423 0
M  V30 9003 H 878.958 -0.0822192 0.670981 0
M  V30 9004 H 881.512 0.406199 2.01343 0
M  V30 9005 H 879.742 -1.68524 3.48047 0
M  V30 9006 H 881.431 -1.4182 3.80318 0
M  V30 9007 H 882.197 0.868637 4.77158 0
M  V30 9008 H 878.076 -0.345095 4.59707 0
M  V30 9009 H 881.62 2.5361 6.49867 0
M  V30 9010 H 877.517 1.31448 6.31974 0
M  V30 9011 H 878.285 2.90688 7.65142 0
M  V30 9012 N 880.948 -1.576 0.00335426 0
M  V30 9013 C 881.88 -2.0549 -1.01521 0
M  V30 9014 C 882.893 -0.973441 -1.30491 0
M  V30 9015 O 884.082 -1.25017 -1.27409 0
M  V30 9016 C 881.182 -2.44272 -2.34914 0
M  V30 9017 C 880.355 -3.75191 -2.24835 0
M  V30 9018 C 879.414 -4.00804 -3.40944 0
M  V30 9019 O 878.44 -4.71423 -3.18981 0
M  V30 9020 N 879.642 -3.48961 -4.63904 0
M  V30 9021 H 882.407 -2.93493 -0.60678 0
M  V30 9022 H 879.968 -1.60851 -0.18396 0
M  V30 9023 H 881.96 -2.58518 -3.11369 0
M  V30 9024 H 880.53 -1.6177 -2.67487 0
M  V30 9025 H 879.75 -3.70989 -1.3327 0
M  V30 9026 H 881.038 -4.61013 -2.15277 0
M  V30 9027 H 880.436 -2.9178 -4.84645 0
M  V30 9028 H 878.993 -3.68531 -5.37613 0
M  V30 9029 N 882.426 0.269451 -1.5528 0
M  V30 9030 C 883.389 1.31642 -1.87625 0
M  V30 9031 C 884.389 1.42182 -0.751058 0
M  V30 9032 O 885.579 1.41272 -1.01921 0
M  V30 9033 C 882.711 2.6973 -2.08467 0
M  V30 9034 H 883.904 1.0419 -2.81219 0
M  V30 9035 H 881.457 0.507685 -1.47825 0
M  V30 9036 H 882.192 3.02356 -1.17266 0
M  V30 9037 H 881.977 2.63465 -2.90394 0
M  V30 9038 H 883.467 3.4537 -2.34753 0
M  V30 9039 N 883.904 1.48273 0.534124 0
M  V30 9040 C 884.867 1.6201 1.62127 0
M  V30 9041 C 885.867 0.493653 1.53035 0
M  V30 9042 O 887.057 0.759337 1.56779 0
M  V30 9043 C 884.189 1.5864 3.01739 0
M  V30 9044 H 885.382 2.58944 1.51288 0
M  V30 9045 H 882.935 1.36808 0.755861 0
M  V30 9046 H 883.67 0.631685 3.18088 0
M  V30 9047 H 883.455 2.40415 3.09747 0
M  V30 9048 H 884.945 1.71438 3.80787 0
M  V30 9049 N 885.382 -0.782676 1.36792 0
M  V30 9050 C 886.312 -1.90973 1.34356 0
M  V30 9051 C 887.293 -1.6875 0.213917 0
M  V30 9052 O 888.478 -1.89766 0.412601 0
M  V30 9053 C 885.608 -3.28097 1.13884 0
M  V30 9054 C 884.562 -3.6486 2.23744 0
M  V30 9055 C 883.888 -5.00406 1.88408 0
M  V30 9056 C 885.188 -3.72742 3.6587 0
M  V30 9057 H 886.882 -1.93268 2.28665 0
M  V30 9058 H 884.428 -0.928447 1.10072 0
M  V30 9059 H 886.381 -4.06569 1.10813 0
M  V30 9060 H 885.105 -3.26206 0.160275 0
M  V30 9061 H 883.764 -2.88689 2.25952 0
M  V30 9062 H 883.412 -4.95044 0.891083 0
M  V30 9063 H 883.112 -5.25973 2.61966 0
M  V30 9064 H 884.636 -5.81291 1.86905 0
M  V30 9065 H 886.05 -4.4139 3.65852 0
M  V30 9066 H 884.447 -4.09798 4.38389 0
M  V30 9067 H 885.517 -2.73676 4.00287 0
M  V30 9068 N 886.86 -1.21182 -1.00761 0
M  V30 9069 C 887.77 -0.984691 -2.12934 0
M  V30 9070 C 888.786 0.0623657 -1.73888 0
M  V30 9071 O 889.962 -0.1271 -2.00999 0
M  V30 9072 C 887.027 -0.549447 -3.42319 0
M  V30 9073 C 886.088 -1.66841 -3.95553 0
M  V30 9074 C 885.321 -1.25384 -5.18763 0
M  V30 9075 O 885.544 -0.126333 -5.7026 0
M  V30 9076 O 884.478 -2.06475 -5.65377 0
M  V30 9077 H 888.304 -1.92413 -2.3497 0
M  V30 9078 H 885.889 -0.99647 -1.11314 0
M  V30 9079 H 887.771 -0.316384 -4.20211 0
M  V30 9080 H 886.446 0.361304 -3.21677 0
M  V30 9081 H 885.353 -1.95585 -3.189 0
M  V30 9082 H 886.686 -2.55649 -4.206 0
M  V30 9083 N 888.338 1.20213 -1.01915 0
M  V30 9084 C 889.285 2.2309 -0.591571 0
M  V30 9085 C 890.255 1.61465 0.389649 0
M  V30 9086 O 891.44 1.88606 0.288511 0
M  V30 9087 C 888.58 3.45045 0.0614028 0
M  V30 9088 C 887.693 4.21091 -0.964688 0
M  V30 9089 C 886.828 5.30448 -0.282499 0
M  V30 9090 C 885.867 5.98241 -1.29517 0
M  V30 9091 N 885.004 6.99182 -0.639472 0
M  V30 9092 H 889.844 2.59023 -1.47347 0
M  V30 9093 H 887.381 1.27274 -0.737547 0
M  V30 9094 H 889.339 4.14688 0.45714 0
M  V30 9095 H 887.969 3.09797 0.906937 0
M  V30 9096 H 887.021 3.50489 -1.47857 0
M  V30 9097 H 888.333 4.67662 -1.73475 0
M  V30 9098 H 887.487 6.06466 0.168603 0
M  V30 9099 H 886.226 4.84922 0.519843 0
M  V30 9100 H 885.231 5.20982 -1.75663 0
M  V30 9101 H 886.456 6.45853 -2.09884 0
M  V30 9102 H 884.402 6.55844 0.142955 0
M  V30 9103 H 884.319 7.43893 -1.34756 0
M  V30 9104 H 885.587 7.79212 -0.212047 0
M  V30 9105 N 889.816 0.795718 1.36037 0
M  V30 9106 C 890.779 0.204318 2.28287 0
M  V30 9107 C 891.779 -0.602017 1.49105 0
M  V30 9108 O 892.969 -0.422089 1.69009 0
M  V30 9109 C 890.101 -0.716431 3.33287 0
M  V30 9110 H 891.294 1.01781 2.821 0
M  V30 9111 H 888.847 0.565588 1.45708 0
M  V30 9112 H 889.582 -1.55403 2.84641 0
M  V30 9113 H 889.367 -0.140096 3.9185 0
M  V30 9114 H 890.857 -1.12488 4.02164 0
M  V30 9115 N 891.294 -1.47756 0.548274 0
M  V30 9116 C 892.226 -2.27921 -0.24177 0
M  V30 9117 C 893.239 -1.36471 -0.887658 0
M  V30 9118 O 894.428 -1.6137 -0.763016 0
M  V30 9119 C 891.528 -3.10449 -1.35922 0
M  V30 9120 C 890.701 -4.298 -0.811808 0
M  V30 9121 C 889.76 -4.93994 -1.81264 0
M  V30 9122 O 888.786 -5.52657 -1.3623 0
M  V30 9123 N 889.988 -4.87882 -3.14566 0
M  V30 9124 H 892.753 -2.96365 0.445848 0
M  V30 9125 H 890.314 -1.57286 0.383769 0
M  V30 9126 H 892.306 -3.50261 -2.02729 0
M  V30 9127 H 890.876 -2.44306 -1.95021 0
M  V30 9128 H 890.096 -3.94186 0.0327929 0
M  V30 9129 H 891.384 -5.0702 -0.425272 0
M  V30 9130 H 890.782 -4.41405 -3.53805 0
M  V30 9131 H 889.339 -5.3174 -3.76956 0
M  V30 9132 N 892.772 -0.284283 -1.55015 0
M  V30 9133 C 893.719 0.599194 -2.22886 0
M  V30 9134 C 894.689 1.14264 -1.20553 0
M  V30 9135 O 895.874 1.19025 -1.49123 0
M  V30 9136 C 893.014 1.77317 -2.96062 0
M  V30 9137 C 892.127 1.26271 -4.13134 0
M  V30 9138 C 891.262 2.39922 -4.73931 0
M  V30 9139 C 890.301 1.85925 -5.8318 0
M  V30 9140 N 889.438 2.93084 -6.38002 0
M  V30 9141 H 894.278 0.0137816 -2.97997 0
M  V30 9142 H 891.815 -0.00496503 -1.47099 0
M  V30 9143 H 893.773 2.46339 -3.36709 0
M  V30 9144 H 892.403 2.33047 -2.23358 0
M  V30 9145 H 891.455 0.465296 -3.77544 0
M  V30 9146 H 892.767 0.827284 -4.91892 0
M  V30 9147 H 891.921 3.1692 -5.17346 0
M  V30 9148 H 890.66 2.86784 -3.9447 0
M  V30 9149 H 889.665 1.07409 -5.39206 0
M  V30 9150 H 890.89 1.39987 -6.64515 0
M  V30 9151 H 888.836 3.3931 -5.61431 0
M  V30 9152 H 888.753 2.53986 -7.12058 0
M  V30 9153 H 890.021 3.7003 -6.86075 0
M  V30 9154 N 894.251 1.57596 -0.0117121 0
M  V30 9155 C 895.161 2.12596 0.991964 0
M  V30 9156 C 896.177 1.07399 1.36899 0
M  V30 9157 O 897.353 1.39365 1.45394 0
M  V30 9158 C 894.418 2.62796 2.2614 0
M  V30 9159 C 893.479 3.8264 1.94642 0
M  V30 9160 C 892.712 4.30435 3.15533 0
M  V30 9161 O 892.935 3.77495 4.27614 0
M  V30 9162 O 891.869 5.22469 2.98847 0
M  V30 9163 H 895.695 2.98597 0.554371 0
M  V30 9164 H 893.28 1.47947 0.207839 0
M  V30 9165 H 895.162 2.9523 3.00695 0
M  V30 9166 H 893.837 1.79886 2.69114 0
M  V30 9167 H 892.744 3.5516 1.17526 0
M  V30 9168 H 894.077 4.66658 1.56496 0
M  V30 9169 N 895.729 -0.261212 1.5542 0
M  V30 9170 C 896.954 -1.01341 1.80955 0
M  V30 9171 C 897.379 -1.78711 0.586849 0
M  V30 9172 O 896.737 -1.75266 -0.463837 0
M  V30 9173 C 896.785 -1.93835 3.04073 0
M  V30 9174 O 895.889 -3.02791 2.79985 0
M  V30 9175 H 895.23 -0.289123 0.597749 0
M  V30 9176 H 897.76 -0.286543 2.02584 0
M  V30 9177 H 897.77 -2.3557 3.33123 0
M  V30 9178 H 896.445 -1.36936 3.9271 0
M  V30 9179 H 895.022 -2.65287 2.62063 0
M  V30 9180 N 897.207 -1.48554 -0.526253 0
M  V30 9181 C 898.435 -1.60429 -1.30652 0
M  V30 9182 C 898.85 -0.265963 -1.86917 0
M  V30 9183 O 898.207 0.745262 -1.6659 0
M  V30 9184 C 898.258 -2.65377 -2.45473 0
M  V30 9185 O 897.979 -3.94017 -1.91527 0
M  V30 9186 C 899.48 -2.87726 -3.37237 0
M  V30 9187 H 896.7 -0.540817 -0.397187 0
M  V30 9188 H 899.244 -1.94409 -0.634461 0
M  V30 9189 H 897.399 -2.34246 -3.08557 0
M  V30 9190 H 897.813 -4.51623 -2.66715 0
M  V30 9191 H 899.287 -3.64951 -4.14144 0
M  V30 9192 H 899.764 -1.96688 -3.92696 0
M  V30 9193 H 900.37 -3.20176 -2.79942 0
M  V30 9194 N 898.685 0.775411 -1.37205 0
M  V30 9195 C 899.648 1.8702 -1.325 0
M  V30 9196 C 900.648 1.5915 -0.229793 0
M  V30 9197 O 901.838 1.673 -0.485423 0
M  V30 9198 C 898.97 3.24085 -1.05745 0
M  V30 9199 H 900.163 1.92604 -2.29878 0
M  V30 9200 H 897.716 0.97476 -1.22181 0
M  V30 9201 H 898.451 3.24178 -0.0888371 0
M  V30 9202 H 898.236 3.45705 -1.85016 0
M  V30 9203 H 899.726 4.0416 -1.05094 0
M  V30 9204 N 900.163 1.21714 1.00117 0
M  V30 9205 C 901.391 1.06278 1.77518 0
M  V30 9206 C 901.806 -0.387193 1.84787 0
M  V30 9207 O 901.163 -1.26854 1.31203 0
M  V30 9208 C 901.214 1.65795 3.21239 0
M  V30 9209 O 900.935 3.05119 3.14378 0
M  V30 9210 C 902.436 1.55521 4.15124 0
M  V30 9211 H 899.656 0.373013 0.557765 0
M  V30 9212 H 902.2 1.61133 1.25922 0
M  V30 9213 H 900.355 1.15022 3.69931 0
M  V30 9214 H 900.769 3.33643 4.04701 0
M  V30 9215 H 902.243 2.01902 5.13751 0
M  V30 9216 H 902.72 0.510307 4.36225 0
M  V30 9217 H 903.326 2.0556 3.72324 0
M  V30 9218 N 901.641 -1.19671 1.02551 0
M  V30 9219 C 902.591 -2.20655 0.574037 0
M  V30 9220 C 903.575 -1.56459 -0.375412 0
M  V30 9221 O 904.767 -1.75901 -0.196929 0
M  V30 9222 C 901.896 -3.43213 -0.0772031 0
M  V30 9223 C 900.982 -4.1456 0.894485 0
M  V30 9224 N 901.373 -4.62147 2.05557 0
M  V30 9225 C 899.671 -4.40196 0.717205 0
M  V30 9226 C 900.372 -5.16899 2.66814 0
M  V30 9227 N 899.348 -5.07496 1.94804 0
M  V30 9228 H 903.15 -2.55124 1.45908 0
M  V30 9229 H 900.664 -1.35707 0.89204 0
M  V30 9230 H 902.661 -4.14797 -0.41824 0
M  V30 9231 H 901.321 -3.10247 -0.957973 0
M  V30 9232 H 902.332 -4.5708 2.43513 0
M  V30 9233 H 899.009 -4.17342 -0.114758 0
M  V30 9234 H 900.399 -5.64032 3.65126 0
M  V30 9235 N 903.119 -0.802921 -1.35613 0
M  V30 9236 C 904.066 -0.20874 -2.29854 0
M  V30 9237 C 905.036 0.655128 -1.52634 0
M  V30 9238 O 906.221 0.600979 -1.81088 0
M  V30 9239 C 903.361 0.639663 -3.3912 0
M  V30 9240 C 902.474 -0.244234 -4.31309 0
M  V30 9241 C 901.609 0.611825 -5.27665 0
M  V30 9242 C 900.648 -0.272698 -6.11492 0
M  V30 9243 N 899.785 0.543122 -6.99996 0
M  V30 9244 H 904.625 -1.01782 -2.80079 0
M  V30 9245 H 902.162 -0.513465 -1.37848 0
M  V30 9246 H 904.12 1.14668 -4.01132 0
M  V30 9247 H 902.75 1.41404 -2.9018 0
M  V30 9248 H 901.802 -0.869322 -3.70334 0
M  V30 9249 H 903.114 -0.925202 -4.90144 0
M  V30 9250 H 902.268 1.18412 -5.95032 0
M  V30 9251 H 901.007 1.32637 -4.69317 0
M  V30 9252 H 900.012 -0.857287 -5.43075 0
M  V30 9253 H 901.237 -0.985051 -6.71918 0
M  V30 9254 H 899.183 1.24171 -6.44141 0
M  V30 9255 H 899.1 -0.0798767 -7.55958 0
M  V30 9256 H 900.368 1.09881 -7.71717 0
M  V30 9257 N 904.597 1.47463 -0.556102 0
M  V30 9258 C 905.544 2.29998 0.192213 0
M  V30 9259 C 906.514 1.38993 0.909403 0
M  V30 9260 O 907.699 1.67954 0.905316 0
M  V30 9261 C 904.839 3.22932 1.21692 0
M  V30 9262 C 903.952 4.29027 0.505908 0
M  V30 9263 C 903.087 5.09114 1.51581 0
M  V30 9264 C 902.126 6.06984 0.789714 0
M  V30 9265 N 901.263 6.80033 1.74639 0
M  V30 9266 H 906.103 2.93468 -0.517734 0
M  V30 9267 H 903.64 1.44654 -0.267147 0
M  V30 9268 H 905.598 3.75234 1.8236 0
M  V30 9269 H 904.228 2.61329 1.89491 0
M  V30 9270 H 903.28 3.7979 -0.215276 0
M  V30 9271 H 904.592 4.9876 -0.062958 0
M  V30 9272 H 903.746 5.6556 2.19606 0
M  V30 9273 H 902.485 4.3928 2.11859 0
M  V30 9274 H 901.49 5.49717 0.0955382 0
M  V30 9275 H 902.715 6.78827 0.192688 0
M  V30 9276 H 900.661 6.12931 2.33777 0
M  V30 9277 H 900.578 7.45933 1.22965 0
M  V30 9278 H 901.846 7.41054 2.41782 0
M  V30 9279 N 906.075 0.2925 1.54862 0
M  V30 9280 C 907.323 -0.318633 1.99572 0
M  V30 9281 C 907.644 -1.55062 1.1824 0
M  V30 9282 O 906.914 -1.93943 0.276226 0
M  V30 9283 H 905.494 -0.120722 0.737181 0
M  V30 9284 H 908.156 0.401862 1.90712 0
M  V30 9285 H 907.252 -0.596542 3.06346 0
M  V30 9286 N 907.553 -1.57587 0.0200696 0
M  V30 9287 C 908.799 -1.91708 -0.661503 0
M  V30 9288 C 909.132 -0.895968 -1.72296 0
M  V30 9289 O 908.407 0.082577 -1.94325 0
M  V30 9290 C 908.69 -3.36344 -1.28627 0
M  V30 9291 C 908.543 -4.49186 -0.234982 0
M  V30 9292 C 909.862 -3.80771 -2.20685 0
M  V30 9293 H 906.981 -0.69717 -0.239005 0
M  V30 9294 H 909.623 -1.8985 0.0754764 0
M  V30 9295 H 907.773 -3.38058 -1.91439 0
M  V30 9296 H 909.445 -4.59606 0.395011 0
M  V30 9297 H 907.688 -4.31557 0.440565 0
M  V30 9298 H 908.359 -5.47395 -0.711558 0
M  V30 9299 H 910.835 -3.80735 -1.67868 0
M  V30 9300 H 909.711 -4.82685 -2.61356 0
M  V30 9301 H 909.972 -3.15764 -3.09428 0
M  V30 9302 N 909.032 0.252966 -1.55557 0
M  V30 9303 C 910.28 0.979912 -1.76754 0
M  V30 9304 C 910.601 1.86083 -0.582944 0
M  V30 9305 O 909.871 1.91742 0.401497 0
M  V30 9306 H 908.451 0.364805 -0.651864 0
M  V30 9307 H 911.113 0.272372 -1.92987 0
M  V30 9308 H 910.209 1.60518 -2.67657 0
M  V30 9309 N 910.51 1.48831 0.518367 0
M  V30 9310 C 911.759 1.5669 1.27008 0
M  V30 9311 C 912.072 0.250934 1.93984 0
M  V30 9312 O 913.278 0.207884 2.70703 0
M  V30 9313 C 911.734 2.76387 2.30517 0
M  V30 9314 C 911.342 4.14673 1.69559 0
M  V30 9315 C 913.086 2.93566 3.06625 0
M  V30 9316 C 910.993 5.25616 2.71076 0
M  V30 9317 H 909.923 0.583362 0.477708 0
M  V30 9318 H 912.574 1.75187 0.546052 0
M  V30 9319 H 910.956 2.51348 3.06006 0
M  V30 9320 H 912.13 4.49779 1.00179 0
M  V30 9321 H 910.445 4.02708 1.05902 0
M  V30 9322 H 913.042 3.7362 3.82508 0
M  V30 9323 H 913.385 2.03462 3.63193 0
M  V30 9324 H 913.918 3.18562 2.38251 0
M  V30 9325 H 910.657 6.17723 2.19313 0
M  V30 9326 H 910.177 4.94985 3.38748 0
M  V30 9327 H 911.856 5.5422 3.3384 0
M  V30 9328 N 911.988 -0.768124 1.37614 0
M  V30 9329 C 913.213 -1.56239 1.36397 0
M  V30 9330 C 913.638 -1.8804 -0.0475839 0
M  V30 9331 O 912.996 -1.495 -1.02564 0
M  V30 9332 C 913.044 -2.84716 2.21289 0
M  V30 9333 O 912.148 -3.79249 1.62001 0
M  V30 9334 H 911.489 -0.473119 0.465891 0
M  V30 9335 H 914.019 -0.950415 1.81186 0
M  V30 9336 H 914.029 -3.33784 2.34632 0
M  V30 9337 H 912.704 -2.60899 3.2389 0
M  V30 9338 H 911.281 -3.37904 1.57719 0
M  V30 9339 N 913.466 -1.22244 -0.994698 0
M  V30 9340 C 914.715 -1.04005 -1.72817 0
M  V30 9341 C 915.028 0.425413 -1.90918 0
M  V30 9342 O 916.234 0.727429 -2.61574 0
M  V30 9343 C 914.69 -1.81244 -3.10932 0
M  V30 9344 C 914.298 -3.32028 -3.00768 0
M  V30 9345 C 916.042 -1.71448 -3.88337 0
M  V30 9346 C 913.949 -4.01716 -4.34026 0
M  V30 9347 H 912.879 -0.385559 -0.647966 0
M  V30 9348 H 915.53 -1.46077 -1.11058 0
M  V30 9349 H 913.912 -1.3197 -3.73363 0
M  V30 9350 H 915.086 -3.88682 -2.47513 0
M  V30 9351 H 913.401 -3.4248 -2.36846 0
M  V30 9352 H 915.998 -2.20836 -4.86965 0
M  V30 9353 H 916.341 -0.674568 -4.10798 0
M  V30 9354 H 916.874 -2.18256 -3.3258 0
M  V30 9355 H 913.613 -5.05952 -4.16765 0
M  V30 9356 H 913.133 -3.49849 -4.87202 0
M  V30 9357 H 914.812 -4.0721 -5.02782 0
M  V30 9358 N 914.944 1.19125 -1.03184 0
M  V30 9359 C 916.192 1.8851 -0.728587 0
M  V30 9360 C 916.513 1.80195 0.74531 0
M  V30 9361 O 915.783 1.21437 1.5372 0
M  V30 9362 H 914.363 0.69784 -0.266511 0
M  V30 9363 H 917.025 1.44607 -1.3067 0
M  V30 9364 H 916.121 2.9477 -1.02554 0
M  V30 9365 N 916.422 0.810101 1.35185 0
M  V30 9366 C 917.668 0.392698 1.98962 0
M  V30 9367 C 918.001 -1.03835 1.64109 0
M  V30 9368 O 917.276 -1.721 0.9062 0
M  V30 9369 C 917.559 0.580349 3.55393 0
M  V30 9370 C 917.412 2.05658 4.00031 0
M  V30 9371 C 918.731 0.00822618 4.40099 0
M  V30 9372 H 915.85 0.144157 0.722764 0
M  V30 9373 H 918.492 1.02029 1.60281 0
M  V30 9374 H 916.642 0.0461106 3.88473 0
M  V30 9375 H 918.314 2.65348 3.77344 0
M  V30 9376 H 916.557 2.55174 3.50811 0
M  V30 9377 H 917.228 2.13875 5.08883 0
M  V30 9378 H 919.704 0.464517 4.13499 0
M  V30 9379 H 918.58 0.169414 5.48638 0
M  V30 9380 H 918.841 -1.08576 4.2856 0
M  V30 9381 N 917.9 -1.47166 0.563914 0
M  V30 9382 C 919.13 -2.06546 0.0473599 0
M  V30 9383 C 919.538 -1.41607 -1.25476 0
M  V30 9384 O 918.881 -0.50894 -1.76509 0
M  V30 9385 C 918.943 -3.58873 -0.212249 0
M  V30 9386 C 918.607 -4.45893 1.00144 0
M  V30 9387 C 919.604 -4.83594 1.90873 0
M  V30 9388 C 917.289 -4.87309 1.218 0
M  V30 9389 C 919.283 -5.61519 3.01621 0
M  V30 9390 C 916.97 -5.64997 2.32856 0
M  V30 9391 C 917.968 -6.02013 3.22597 0
M  V30 9392 O 917.656 -6.78135 4.31727 0
M  V30 9393 H 917.388 -0.674441 0.0458823 0
M  V30 9394 H 919.942 -1.9006 0.778865 0
M  V30 9395 H 918.172 -3.73596 -0.998145 0
M  V30 9396 H 919.861 -4.00248 -0.675005 0
M  V30 9397 H 920.627 -4.52192 1.7535 0
M  V30 9398 H 916.506 -4.57959 0.528641 0
M  V30 9399 H 920.05 -5.90331 3.71693 0
M  V30 9400 H 915.947 -5.95813 2.48349 0
M  V30 9401 H 916.715 -6.96537 4.29859 0
M  V30 9402 N 919.378 -0.300708 -1.54705 0
M  V30 9403 C 920.626 0.308044 -1.99739 0
M  V30 9404 C 920.947 1.54433 -1.19061 0
M  V30 9405 O 920.217 1.93794 -0.286507 0
M  V30 9406 H 918.797 0.116811 -0.73781 0
M  V30 9407 H 921.459 -0.41197 -1.90496 0
M  V30 9408 H 920.555 0.580287 -3.06658 0
M  V30 9409 N 920.856 1.57574 -0.0284266 0
M  V30 9410 C 922.081 1.96479 0.664137 0
M  V30 9411 C 922.506 0.904826 1.64908 0
M  V30 9412 O 921.864 -0.134339 1.80802 0
M  V30 9413 C 921.912 3.34479 1.34745 0
M  V30 9414 O 921.016 3.30794 2.46271 0
M  V30 9415 H 920.357 0.640654 0.174524 0
M  V30 9416 H 922.887 2.04402 -0.0900729 0
M  V30 9417 H 922.897 3.70694 1.7044 0
M  V30 9418 H 921.572 4.1117 0.625468 0
M  V30 9419 H 920.149 3.06294 2.12693 0
M  V30 9420 N 922.334 -0.244713 1.55689 0
M  V30 9421 C 923.582 -0.970525 1.77272 0
M  V30 9422 C 923.903 -1.85771 0.592804 0
M  V30 9423 O 923.173 -1.91952 -0.391323 0
M  V30 9424 H 921.753 -0.361342 0.653789 0
M  V30 9425 H 924.415 -0.262134 1.93129 0
M  V30 9426 H 923.511 -1.59096 2.68505 0
M  V30 9427 N 923.813 -1.49104 -0.510467 0
M  V30 9428 C 924.743 -1.67981 -1.62187 0
M  V30 9429 C 925.724 -0.528529 -1.6168 0
M  V30 9430 O 926.909 -0.763305 -1.7857 0
M  V30 9431 C 924.039 -1.73755 -3.0071 0
M  V30 9432 C 922.993 -2.88579 -3.1608 0
M  V30 9433 C 922.319 -2.79457 -4.5586 0
M  V30 9434 C 923.619 -4.29638 -2.97 0
M  V30 9435 H 925.313 -2.61029 -1.46643 0
M  V30 9436 H 922.859 -1.25615 -0.704042 0
M  V30 9437 H 924.812 -1.85548 -3.78352 0
M  V30 9438 H 923.536 -0.772996 -3.17321 0
M  V30 9439 H 922.195 -2.76372 -2.40861 0
M  V30 9440 H 921.843 -1.80929 -4.69333 0
M  V30 9441 H 921.543 -3.56518 -4.67086 0
M  V30 9442 H 923.067 -2.93245 -5.35574 0
M  V30 9443 H 924.481 -4.42575 -3.64418 0
M  V30 9444 H 922.878 -5.07847 -3.19704 0
M  V30 9445 H 923.948 -4.44741 -1.93219 0
M  V30 9446 N 925.291 0.760815 -1.38019 0
M  V30 9447 C 926.568 1.5098 -1.24356 0
M  V30 9448 C 926.948 2.10507 0.158169 0
M  V30 9449 O 926.296 1.96455 1.16695 0
M  V30 9450 C 926.506 2.58195 -2.34811 0
M  V30 9451 C 927.854 3.25297 -2.72886 0
M  V30 9452 O 928.878 2.68496 -2.34069 0
M  V30 9453 O 927.737 4.28018 -3.39799 0
M  V30 9454 H 924.831 0.66921 -0.485888 0
M  V30 9455 H 927.377 0.796844 -1.49828 0
M  V30 9456 H 926.149 2.12406 -3.28633 0
M  V30 9457 H 925.772 3.37079 -2.10864 0
M  V30 9458 N 926.769 1.22769 0.988202 0
M  V30 9459 C 928.017 1.05301 1.725 0
M  V30 9460 C 928.338 -0.412103 1.90596 0
M  V30 9461 O 927.608 -1.29606 1.46898 0
M  V30 9462 H 926.188 0.386658 0.639144 0
M  V30 9463 H 928.85 1.54359 1.18993 0
M  V30 9464 H 927.946 1.53465 2.71763 0
M  V30 9465 N 928.247 -1.18576 1.03814 0
M  V30 9466 C 929.658 -1.70159 0.768299 0
M  V30 9467 C 930.009 -1.8286 -0.711106 0
M  V30 9468 O 929.134 -1.5063 -1.55369 0
M  V30 9469 C 929.729 -3.09062 1.38804 0
M  V30 9470 C 928.288 -3.57866 1.16656 0
M  V30 9471 C 927.435 -2.34484 1.48029 0
M  V30 9472 H 930.386 -1.03287 1.20488 0
M  V30 9473 H 930.407 -3.72211 0.7899 0
M  V30 9474 H 929.919 -2.99785 2.46476 0
M  V30 9475 H 928.02 -3.72442 0.108471 0
M  V30 9476 H 928.133 -4.41445 1.8618 0
M  V30 9477 H 926.497 -2.38273 0.899902 0
M  V30 9478 H 927.28 -2.27829 2.56805 0
M  V30 9479 N 929.725 -0.817259 -1.34754 0
M  V30 9480 C 931.002 -0.325468 -1.92873 0
M  V30 9481 C 931.382 1.18643 -1.74606 0
M  V30 9482 O 930.73 1.9909 -1.1214 0
M  V30 9483 C 930.94 -0.74858 -3.40877 0
M  V30 9484 C 932.288 -0.744165 -4.18028 0
M  V30 9485 O 933.312 -0.690799 -3.49437 0
M  V30 9486 O 932.171 -0.812207 -5.40431 0
M  V30 9487 H 929.265 -0.0876397 -0.822343 0
M  V30 9488 H 931.811 -0.901671 -1.43764 0
M  V30 9489 H 930.583 -1.79017 -3.47949 0
M  V30 9490 H 930.206 -0.147764 -3.97325 0
M  V30 9491 N 931.203 1.46865 -0.571711 0
M  V30 9492 C 932.166 2.28658 0.157499 0
M  V30 9493 C 933.166 1.37773 0.829172 0
M  V30 9494 O 934.356 1.6026 0.682811 0
M  V30 9495 C 931.488 3.17859 1.23202 0
M  V30 9496 H 932.681 2.94603 -0.561171 0
M  V30 9497 H 930.234 1.52793 -0.329229 0
M  V30 9498 H 930.969 2.56637 1.98262 0
M  V30 9499 H 930.754 3.84762 0.755031 0
M  V30 9500 H 932.244 3.7945 1.74378 0
M  V30 9501 N 932.681 0.308908 1.54543 0
M  V30 9502 C 933.906 -0.303196 2.05172 0
M  V30 9503 C 934.331 -1.46133 1.18434 0
M  V30 9504 O 933.689 -1.803 0.190162 0
M  V30 9505 C 933.737 -0.729526 3.53143 0
M  V30 9506 O 932.841 -1.83348 3.69401 0
M  V30 9507 H 932.182 -0.0575066 0.661505 0
M  V30 9508 H 934.712 0.453055 1.99521 0
M  V30 9509 H 934.722 -1.01619 3.95143 0
M  V30 9510 H 933.397 0.117622 4.15734 0
M  V30 9511 H 931.974 -1.54676 3.39308 0
M  V30 9512 N 934.159 -1.57557 0.0367827 0
M  V30 9513 C 935.069 -2.14148 -0.958017 0
M  V30 9514 C 936.085 -1.09564 -1.35173 0
M  V30 9515 O 937.261 -1.4166 -1.43158 0
M  V30 9516 C 934.326 -2.6636 -2.21931 0
M  V30 9517 C 933.387 -3.85688 -1.8853 0
M  V30 9518 C 932.62 -4.35401 -3.08645 0
M  V30 9519 O 932.843 -3.8425 -4.21554 0
M  V30 9520 O 931.777 -5.27158 -2.90497 0
M  V30 9521 H 935.603 -2.99442 -0.506797 0
M  V30 9522 H 933.188 -1.48259 -0.184275 0
M  V30 9523 H 935.07 -2.99976 -2.9596 0
M  V30 9524 H 933.745 -1.84145 -2.66219 0
M  V30 9525 H 932.652 -3.56985 -1.11861 0
M  V30 9526 H 933.985 -4.69089 -1.49052 0
M  V30 9527 N 935.637 0.236453 -1.55816 0
M  V30 9528 C 936.6 1.27633 -1.90375 0
M  V30 9529 C 937.6 1.40557 -0.781048 0
M  V30 9530 O 938.79 1.39078 -1.04895 0
M  V30 9531 C 935.922 2.65247 -2.14142 0
M  V30 9532 H 937.115 0.982019 -2.83366 0
M  V30 9533 H 934.668 0.476215 -1.48869 0
M  V30 9534 H 935.403 2.99801 -1.23653 0
M  V30 9535 H 935.188 2.57246 -2.95917 0
M  V30 9536 H 936.678 3.40313 -2.42026 0
M  V30 9537 N 937.115 1.49373 0.502552 0
M  V30 9538 C 938.361 1.5999 1.25597 0
M  V30 9539 C 938.716 0.282287 1.90318 0
M  V30 9540 O 938.009 -0.71735 1.77664 0
M  V30 9541 C 938.203 2.69508 2.34735 0
M  V30 9542 C 938.032 4.11791 1.80716 0
M  V30 9543 C 936.802 4.78598 1.62087 0
M  V30 9544 C 939 4.97074 1.31991 0
M  V30 9545 N 936.982 6.05201 1.02981 0
M  V30 9546 C 938.353 6.14144 0.850098 0
M  V30 9547 C 940.408 4.83086 1.20549 0
M  V30 9548 C 939.111 7.18766 0.277192 0
M  V30 9549 C 941.137 5.87855 0.64656 0
M  V30 9550 C 940.499 7.04152 0.186968 0
M  V30 9551 H 936.598 0.639822 0.449613 0
M  V30 9552 H 939.182 1.86371 0.563361 0
M  V30 9553 H 937.353 2.44902 3.01459 0
M  V30 9554 H 939.085 2.69656 3.01774 0
M  V30 9555 H 935.84 4.35372 1.8641 0
M  V30 9556 H 936.264 6.72793 0.753601 0
M  V30 9557 H 940.906 3.93489 1.54681 0
M  V30 9558 H 938.624 8.08064 -0.0763971 0
M  V30 9559 H 942.21 5.79091 0.560832 0
M  V30 9560 H 941.09 7.83836 -0.238784 0
M  V30 9561 N 938.594 -0.753485 1.38421 0
M  V30 9562 C 939.557 -1.84888 1.35459 0
M  V30 9563 C 940.557 -1.58764 0.255083 0
M  V30 9564 O 941.747 -1.66507 0.511978 0
M  V30 9565 C 938.879 -3.22361 1.10888 0
M  V30 9566 H 940.072 -1.88922 2.32913 0
M  V30 9567 H 937.625 -0.955199 1.23716 0
M  V30 9568 H 938.36 -3.23996 0.1404 0
M  V30 9569 H 938.145 -3.42717 1.90492 0
M  V30 9570 H 939.635 -4.02437 1.1151 0
M  V30 9571 N 940.072 -1.23292 -0.981677 0
M  V30 9572 C 940.982 -1.02964 -2.10798 0
M  V30 9573 C 941.998 0.0254674 -1.73981 0
M  V30 9574 O 943.174 -0.169706 -2.00684 0
M  V30 9575 C 940.239 -0.621934 -3.41076 0
M  V30 9576 C 939.3 -1.75194 -3.91926 0
M  V30 9577 C 938.533 -1.36359 -5.15986 0
M  V30 9578 O 938.756 -0.247265 -5.69864 0
M  V30 9579 O 937.69 -2.18421 -5.60871 0
M  V30 9580 H 941.516 -1.97354 -2.30836 0
M  V30 9581 H 939.101 -1.01986 -1.09175 0
M  V30 9582 H 940.983 -0.405446 -4.19445 0
M  V30 9583 H 939.658 0.29299 -3.22371 0
M  V30 9584 H 938.565 -2.02305 -3.1468 0
M  V30 9585 H 939.898 -2.64513 -4.15083 0
M  V30 9586 N 941.55 1.18024 -1.04442 0
M  V30 9587 C 942.48 2.23988 -0.659683 0
M  V30 9588 C 943.461 1.6669 0.338904 0
M  V30 9589 O 944.646 1.92971 0.21817 0
M  V30 9590 C 941.776 3.4729 -0.0257672 0
M  V30 9591 C 940.73 4.17362 -0.948299 0
M  V30 9592 C 940.056 5.34401 -0.17866 0
M  V30 9593 C 941.356 4.70435 -2.26909 0
M  V30 9594 H 943.05 2.56425 -1.54553 0
M  V30 9595 H 940.596 1.23256 -0.744575 0
M  V30 9596 H 942.549 4.20627 0.255131 0
M  V30 9597 H 941.273 3.14098 0.894981 0
M  V30 9598 H 939.932 3.45928 -1.21364 0
M  V30 9599 H 939.58 4.97458 0.744614 0
M  V30 9600 H 939.28 5.8222 -0.793294 0
M  V30 9601 H 940.804 6.10526 0.0951315 0
M  V30 9602 H 942.218 5.35447 -2.04864 0
M  V30 9603 H 940.615 5.28803 -2.83703 0
M  V30 9604 H 941.685 3.87653 -2.91296 0
M  V30 9605 N 943.028 0.824394 1.34319 0
M  V30 9606 C 943.976 0.235628 2.31403 0
M  V30 9607 C 944.97 -0.624443 1.57471 0
M  V30 9608 O 946.176 -0.515618 1.72457 0
M  V30 9609 H 942.551 0.0574537 0.749802 0
M  V30 9610 H 944.522 1.06925 2.78585 0
M  V30 9611 C 943.271 -0.586617 3.42716 0
M  V30 9612 H 942.594 0.0658669 3.99746 0
M  V30 9613 H 944.034 -0.964661 4.1288 0
M  V30 9614 C 942.493 -1.75957 2.87299 0
M  V30 9615 O 943.023 -2.8578 2.82299 0
M  V30 9616 N 941.229 -1.57678 2.44102 0
M  V30 9617 H 940.776 -0.683436 2.48369 0
M  V30 9618 H 940.734 -2.36311 2.07375 0
M  V30 9619 N 944.506 -1.46559 0.579492 0
M  V30 9620 C 945.469 -2.28739 -0.145371 0
M  V30 9621 C 946.469 -1.38211 -0.821854 0
M  V30 9622 O 947.659 -1.6062 -0.674302 0
M  V30 9623 C 944.791 -3.18507 -1.21515 0
M  V30 9624 H 945.984 -2.94301 0.576786 0
M  V30 9625 H 943.537 -1.52616 0.337327 0
M  V30 9626 H 944.272 -2.57685 -1.96899 0
M  V30 9627 H 944.057 -3.85157 -0.734616 0
M  V30 9628 H 945.547 -3.80369 -1.72363 0
M  V30 9629 N 945.984 -0.3171 -1.54377 0
M  V30 9630 C 947.261 0.341348 -1.92598 0
M  V30 9631 C 947.641 1.70402 -1.24605 0
M  V30 9632 O 946.989 2.25191 -0.387448 0
M  V30 9633 C 947.199 0.440003 -3.46215 0
M  V30 9634 C 948.547 0.703327 -4.18734 0
M  V30 9635 O 949.571 0.523181 -3.52337 0
M  V30 9636 O 948.43 1.05042 -5.3631 0
M  V30 9637 H 945.524 0.193696 -0.803997 0
M  V30 9638 H 948.07 -0.366341 -1.65699 0
M  V30 9639 H 946.842 -0.517299 -3.87866 0
M  V30 9640 H 946.465 1.19553 -3.792 0
M  V30 9641 N 947.462 1.57535 -0.0451378 0
M  V30 9642 C 948.71 1.92071 0.628743 0
M  V30 9643 C 949.031 0.923635 1.71738 0
M  V30 9644 O 948.301 -0.0324376 1.95873 0
M  V30 9645 H 946.881 0.708995 0.235233 0
M  V30 9646 H 949.543 1.9466 -0.0967177 0
M  V30 9647 H 948.639 2.9314 1.07123 0
M  V30 9648 N 948.94 -0.228186 1.55939 0
M  V30 9649 C 950.168 -0.970618 1.8272 0
M  V30 9650 C 950.583 -1.78212 0.623385 0
M  V30 9651 O 949.94 -1.77879 -0.408063 0
M  V30 9652 C 949.991 -1.89352 3.07942 0
M  V30 9653 O 949.712 -1.11483 4.23678 0
M  V30 9654 C 951.213 -2.75039 3.47661 0
M  V30 9655 H 948.433 -0.284772 0.607574 0
M  V30 9656 H 950.977 -0.245419 2.03022 0
M  V30 9657 H 949.132 -2.57275 2.89635 0
M  V30 9658 H 949.546 -1.74073 4.94772 0
M  V30 9659 H 951.02 -3.35511 4.38334 0
M  V30 9660 H 951.497 -3.471 2.69106 0
M  V30 9661 H 952.103 -2.1254 3.68384 0
M  V30 9662 N 950.418 -1.49637 -0.494624 0
M  V30 9663 C 951.667 -1.58691 -1.24499 0
M  V30 9664 C 951.98 -0.281763 -1.9356 0
M  V30 9665 O 953.186 -0.250925 -2.70338 0
M  V30 9666 C 951.642 -2.8002 -2.26091 0
M  V30 9667 C 951.25 -4.17318 -1.6294 0
M  V30 9668 C 952.994 -2.98407 -3.01916 0
M  V30 9669 C 950.901 -5.29862 -2.62679 0
M  V30 9670 H 949.831 -0.590888 -0.468367 0
M  V30 9671 H 952.482 -1.76034 -0.518112 0
M  V30 9672 H 950.864 -2.56185 -3.01969 0
M  V30 9673 H 952.038 -4.51315 -0.930108 0
M  V30 9674 H 950.353 -4.04342 -0.994819 0
M  V30 9675 H 952.95 -3.79658 -3.76516 0
M  V30 9676 H 953.293 -2.09214 -3.5991 0
M  V30 9677 H 953.826 -3.22312 -2.33152 0
M  V30 9678 H 950.565 -6.21134 -2.09458 0
M  V30 9679 H 950.085 -5.00311 -3.3083 0
M  V30 9680 H 951.764 -5.59461 -3.2498 0
M  V30 9681 N 951.896 0.746133 -1.38819 0
M  V30 9682 C 953.124 1.53539 -1.38685 0
M  V30 9683 C 953.539 1.88788 0.0215039 0
M  V30 9684 O 952.896 1.53312 0.990031 0
M  V30 9685 C 952.947 2.8299 -2.24942 0
M  V30 9686 O 952.668 2.49242 -3.60292 0
M  V30 9687 C 954.169 3.77085 -2.3307 0
M  V30 9688 H 951.389 0.474842 -0.474095 0
M  V30 9689 H 953.933 0.922844 -1.82493 0
M  V30 9690 H 952.088 3.40603 -1.84576 0
M  V30 9691 H 952.502 3.32319 -4.05789 0
M  V30 9692 H 953.976 4.64845 -2.97696 0
M  V30 9693 H 954.453 4.18049 -1.34655 0
M  V30 9694 H 955.059 3.25394 -2.73859 0
M  V30 9695 N 953.375 1.23811 0.975125 0
M  V30 9696 C 954.621 1.07495 1.71967 0
M  V30 9697 C 954.954 -0.386451 1.90316 0
M  V30 9698 O 954.229 -1.28591 1.45927 0
M  V30 9699 C 954.512 1.80694 3.11483 0
M  V30 9700 C 954.365 3.3454 3.00671 0
M  V30 9701 C 955.684 1.57367 4.11003 0
M  V30 9702 H 952.803 0.3919 0.624166 0
M  V30 9703 H 955.445 1.52383 1.13487 0
M  V30 9704 H 953.595 1.42538 3.61407 0
M  V30 9705 H 955.267 3.8225 2.5823 0
M  V30 9706 H 953.51 3.63301 2.37054 0
M  V30 9707 H 954.181 3.80951 3.99475 0
M  V30 9708 H 956.657 1.90545 3.69908 0
M  V30 9709 H 955.533 2.11052 5.06703 0
M  V30 9710 H 955.794 0.510221 4.39146 0
M  V30 9711 N 954.853 -1.17469 1.05066 0
M  V30 9712 C 955.803 -2.19388 0.620713 0
M  V30 9713 C 956.787 -1.5722 -0.34214 0
M  V30 9714 O 957.979 -1.76279 -0.159574 0
M  V30 9715 C 955.108 -3.433 -0.00438518 0
M  V30 9716 C 954.194 -4.12569 0.982218 0
M  V30 9717 N 954.585 -4.57683 2.15313 0
M  V30 9718 C 952.883 -4.38575 0.810416 0
M  V30 9719 C 953.584 -5.11124 2.77719 0
M  V30 9720 N 952.56 -5.0325 2.05525 0
M  V30 9721 H 956.362 -2.51971 1.51287 0
M  V30 9722 H 953.876 -1.33784 0.920625 0
M  V30 9723 H 955.873 -4.15591 -0.330161 0
M  V30 9724 H 954.533 -3.12209 -0.89195 0
M  V30 9725 H 955.544 -4.51812 2.53154 0
M  V30 9726 H 952.221 -4.17492 -0.0262078 0
M  V30 9727 H 953.611 -5.56161 3.77008 0
M  V30 9728 N 956.331 -0.831506 -1.3388 0
M  V30 9729 C 957.559 -0.436925 -2.02234 0
M  V30 9730 C 957.974 0.959689 -1.6259 0
M  V30 9731 O 957.331 1.62248 -0.835576 0
M  V30 9732 C 957.382 -0.539429 -3.57453 0
M  V30 9733 O 957.103 -1.88101 -3.95664 0
M  V30 9734 C 958.604 -0.140852 -4.43076 0
M  V30 9735 H 955.824 -0.174302 -0.647966 0
M  V30 9736 H 958.368 -1.12204 -1.70969 0
M  V30 9737 H 956.523 0.0976959 -3.87277 0
M  V30 9738 H 956.937 -1.86131 -4.90363 0
M  V30 9739 H 958.411 -0.26364 -5.5137 0
M  V30 9740 H 958.888 0.916505 -4.29531 0
M  V30 9741 H 959.494 -0.752117 -4.18597 0
M  V30 9742 N 957.809 1.4625 -0.587256 0
M  V30 9743 C 958.772 2.28812 0.133238 0
M  V30 9744 C 959.772 1.38645 0.814513 0
M  V30 9745 O 960.962 1.60975 0.665774 0
M  V30 9746 C 958.094 3.19147 1.19824 0
M  V30 9747 H 959.287 2.93991 -0.592386 0
M  V30 9748 H 956.84 1.52435 -0.345416 0
M  V30 9749 H 957.575 2.58725 1.95529 0
M  V30 9750 H 957.36 3.85541 0.71418 0
M  V30 9751 H 958.85 3.81278 1.70344 0
M  V30 9752 N 959.287 0.325282 1.54207 0
M  V30 9753 C 960.533 -0.269944 2.01601 0
M  V30 9754 C 960.888 -1.49643 1.20933 0
M  V30 9755 O 960.181 -1.89486 0.283838 0
M  V30 9756 C 960.375 -0.654292 3.5136 0
M  V30 9757 C 960.204 0.533397 4.46525 0
M  V30 9758 C 958.974 1.03304 4.94628 0
M  V30 9759 C 961.172 1.38613 4.95269 0
M  V30 9760 N 959.154 2.18495 5.73701 0
M  V30 9761 C 960.525 2.38519 5.72284 0
M  V30 9762 C 962.58 1.41369 4.77409 0
M  V30 9763 C 961.283 3.40988 6.3334 0
M  V30 9764 C 963.309 2.4271 5.39301 0
M  V30 9765 C 962.671 3.41343 6.16169 0
M  V30 9766 H 958.77 -0.0625778 0.779492 0
M  V30 9767 H 961.354 0.460711 1.89171 0
M  V30 9768 H 959.525 -1.35408 3.64032 0
M  V30 9769 H 961.257 -1.23114 3.85519 0
M  V30 9770 H 958.012 0.604045 4.69732 0
M  V30 9771 H 958.436 2.76605 6.17915 0
M  V30 9772 H 963.078 0.664796 4.17541 0
M  V30 9773 H 960.796 4.16784 6.92327 0
M  V30 9774 H 964.382 2.45647 5.27398 0
M  V30 9775 H 963.262 4.18476 6.6321 0
M  V30 9776 N 960.765 -1.57509 0.0534917 0
M  V30 9777 C 961.675 -2.15152 -0.935249 0
M  V30 9778 C 962.691 -1.10991 -1.34003 0
M  V30 9779 O 963.867 -1.43171 -1.41648 0
M  V30 9780 C 960.932 -2.68699 -2.19093 0
M  V30 9781 C 959.993 -3.87666 -1.84428 0
M  V30 9782 C 959.226 -4.3865 -3.0401 0
M  V30 9783 O 959.449 -3.887 -4.17455 0
M  V30 9784 O 958.383 -5.30209 -2.84889 0
M  V30 9785 H 962.209 -2.99962 -0.475009 0
M  V30 9786 H 959.794 -1.48446 -0.16854 0
M  V30 9787 H 961.676 -3.03098 -2.92762 0
M  V30 9788 H 960.351 -1.86958 -2.6425 0
M  V30 9789 H 959.258 -3.58151 -1.08068 0
M  V30 9790 H 960.591 -4.70643 -1.44068 0
M  V30 9791 N 962.243 0.219913 -1.56058 0
M  V30 9792 C 963.52 0.968493 -1.6994 0
M  V30 9793 C 963.9 2.02358 -0.601219 0
M  V30 9794 O 963.248 2.25121 0.391534 0
M  V30 9795 C 963.458 1.57745 -3.11316 0
M  V30 9796 C 964.806 2.06908 -3.70775 0
M  V30 9797 O 965.83 1.67636 -3.14288 0
M  V30 9798 O 964.689 2.79096 -4.69859 0
M  V30 9799 H 961.783 0.452521 -0.692209 0
M  V30 9800 H 964.329 0.211566 -1.68376 0
M  V30 9801 H 963.101 0.815687 -3.82704 0
M  V30 9802 H 962.724 2.39987 -3.17005 0
M  V30 9803 N 963.721 1.49897 0.486681 0
M  V30 9804 C 964.671 1.6401 1.58381 0
M  V30 9805 C 965.655 0.495215 1.5309 0
M  V30 9806 O 966.847 0.748876 1.60377 0
M  V30 9807 C 963.976 1.72321 2.96918 0
M  V30 9808 C 963.062 2.92435 3.07152 0
M  V30 9809 N 963.453 4.16326 2.87238 0
M  V30 9810 C 961.751 2.90669 3.38271 0
M  V30 9811 C 962.452 4.97144 3.02031 0
M  V30 9812 N 961.428 4.3079 3.31544 0
M  V30 9813 H 965.23 2.57506 1.41661 0
M  V30 9814 H 962.744 1.46867 0.693106 0
M  V30 9815 H 964.741 1.80532 3.75784 0
M  V30 9816 H 963.401 0.799724 3.14697 0
M  V30 9817 H 964.412 4.46076 2.63128 0
M  V30 9818 H 961.089 2.07758 3.62137 0
M  V30 9819 H 962.479 6.05611 2.91006 0
M  V30 9820 N 965.199 -0.738761 1.39212 0
M  V30 9821 C 966.447 -1.49529 1.35962 0
M  V30 9822 C 966.768 -1.94948 -0.0450152 0
M  V30 9823 O 966.038 -1.68717 -0.995552 0
M  V30 9824 H 964.618 -0.554692 0.500326 0
M  V30 9825 H 967.28 -0.877255 1.74041 0
M  V30 9826 H 966.376 -2.37919 2.01993 0
M  V30 9827 N 966.677 -1.24326 -0.968545 0
M  V30 9828 C 967.609 -0.992749 -2.06584 0
M  V30 9829 C 968.622 0.0374902 -1.62757 0
M  V30 9830 O 969.811 -0.199448 -1.77382 0
M  V30 9831 C 966.911 -0.476165 -3.35538 0
M  V30 9832 C 966.084 -1.56934 -4.08277 0
M  V30 9833 C 965.143 -1.05555 -5.15504 0
M  V30 9834 O 964.169 -1.74707 -5.41725 0
M  V30 9835 N 965.371 0.110465 -5.80395 0
M  V30 9836 H 968.136 -1.93752 -2.28649 0
M  V30 9837 H 965.697 -1.15344 -1.13611 0
M  V30 9838 H 967.689 -0.117223 -4.0453 0
M  V30 9839 H 966.259 0.374315 -3.10351 0
M  V30 9840 H 965.479 -2.10051 -3.33575 0
M  V30 9841 H 966.767 -2.30415 -4.53637 0
M  V30 9842 H 966.165 0.688614 -5.61493 0
M  V30 9843 H 964.722 0.41056 -6.50506 0
M  V30 9844 N 968.156 1.1691 -1.05688 0
M  V30 9845 C 969.404 1.86922 -0.768409 0
M  V30 9846 C 969.725 1.81735 0.706921 0
M  V30 9847 O 968.995 1.24671 1.51109 0
M  V30 9848 H 967.575 0.69203 -0.281253 0
M  V30 9849 H 970.237 1.41803 -1.33708 0
M  V30 9850 H 969.333 2.92528 -1.08783 0
M  V30 9851 N 969.634 0.838594 1.33437 0
M  V30 9852 C 970.597 0.276843 2.27522 0
M  V30 9853 C 971.597 -0.554275 1.50945 0
M  V30 9854 O 972.787 -0.368107 1.70266 0
M  V30 9855 C 969.919 -0.610036 3.35397 0
M  V30 9856 H 971.112 1.10705 2.78719 0
M  V30 9857 H 968.665 0.611657 1.43835 0
M  V30 9858 H 969.4 -1.46269 2.89441 0
M  V30 9859 H 969.185 -0.0153615 3.92097 0
M  V30 9860 H 970.675 -0.996368 4.05539 0
M  V30 9861 N 971.112 -1.45937 0.595003 0
M  V30 9862 C 972.389 -1.95592 0.0178748 0
M  V30 9863 C 972.769 -1.53758 -1.44643 0
M  V30 9864 O 972.117 -0.794104 -2.14257 0
M  V30 9865 C 972.327 -3.4841 0.202789 0
M  V30 9866 C 973.675 -4.2453 0.0770121 0
M  V30 9867 O 974.699 -3.55954 0.132257 0
M  V30 9868 O 973.558 -5.46479 -0.0484271 0
M  V30 9869 H 970.652 -0.825888 -0.0428702 0
M  V30 9870 H 973.198 -1.56162 0.664184 0
M  V30 9871 H 971.97 -3.71787 1.22027 0
M  V30 9872 H 971.593 -3.947 -0.479376 0
M  V30 9873 N 972.59 -0.333456 -1.54032 0
M  V30 9874 C 973.839 0.267081 -1.99924 0
M  V30 9875 C 974.152 1.52463 -1.22534 0
M  V30 9876 O 975.358 2.20178 -1.58852 0
M  V30 9877 C 973.814 0.526456 -3.56029 0
M  V30 9878 C 973.422 -0.714607 -4.42264 0
M  V30 9879 C 975.166 1.0864 -4.10363 0
M  V30 9880 C 973.073 -0.42659 -5.89859 0
M  V30 9881 H 972.003 0.103577 -0.746852 0
M  V30 9882 H 974.654 -0.447218 -1.77967 0
M  V30 9883 H 973.036 1.3012 -3.74012 0
M  V30 9884 H 974.21 -1.48968 -4.36056 0
M  V30 9885 H 972.525 -1.19547 -3.9887 0
M  V30 9886 H 975.122 1.31668 -5.18235 0
M  V30 9887 H 975.465 2.03884 -3.62956 0
M  V30 9888 H 975.998 0.37261 -3.96051 0
M  V30 9889 H 972.737 -1.34847 -6.4148 0
M  V30 9890 H 972.257 0.310588 -5.98995 0
M  V30 9891 H 973.936 -0.0400807 -6.46988 0
M  V30 9892 N 974.068 1.57479 -0.061844 0
M  V30 9893 C 975.316 1.92727 0.608336 0
M  V30 9894 C 975.637 0.941799 1.70749 0
M  V30 9895 O 974.907 -0.0116608 1.95897 0
M  V30 9896 H 973.487 0.71145 0.2277 0
M  V30 9897 H 976.149 1.94546 -0.117359 0
M  V30 9898 H 975.245 2.9426 1.04007 0
M  V30 9899 N 975.546 -0.211634 1.56173 0
M  V30 9900 C 976.786 -0.941505 1.81425 0
M  V30 9901 C 977.15 -1.8113 0.636862 0
M  V30 9902 O 978.351 -2.57568 0.768907 0
M  V30 9903 C 976.622 -1.75002 3.11623 0
M  V30 9904 S 978.181 -2.53418 3.58225 0
M  V30 9905 H 974.999 -0.316088 0.636875 0
M  V30 9906 H 977.601 -0.206244 1.94409 0
M  V30 9907 H 976.305 -1.10136 3.95346 0
M  V30 9908 H 975.836 -2.5274 3.01473 0
M  V30 9909 H 977.851 -3.77234 3.22349 0
M  V30 9910 N 977.024 -1.50153 -0.478725 0
M  V30 9911 C 978.27 -1.60998 -1.23318 0
M  V30 9912 C 978.603 -0.305868 -1.91776 0
M  V30 9913 O 977.878 0.692158 -1.81767 0
M  V30 9914 C 978.161 -2.78495 -2.28282 0
M  V30 9915 C 978.014 -4.18767 -1.64178 0
M  V30 9916 C 979.333 -2.91569 -3.2966 0
M  V30 9917 H 976.452 -0.585983 -0.446982 0
M  V30 9918 H 979.094 -1.82514 -0.528063 0
M  V30 9919 H 977.244 -2.60281 -2.8842 0
M  V30 9920 H 978.916 -4.48552 -1.07696 0
M  V30 9921 H 977.159 -4.23379 -0.94514 0
M  V30 9922 H 977.83 -4.96894 -2.40417 0
M  V30 9923 H 980.306 -3.08219 -2.79536 0
M  V30 9924 H 979.182 -3.75419 -4.0044 0
M  V30 9925 H 979.443 -2.01859 -3.93326 0
M  V30 9926 N 978.502 0.731368 -1.39602 0
M  V30 9927 C 979.75 1.48805 -1.36753 0
M  V30 9928 C 980.071 1.94969 0.034676 0
M  V30 9929 O 979.341 1.69243 0.986591 0
M  V30 9930 H 977.921 0.55203 -0.503261 0
M  V30 9931 H 980.583 0.868013 -1.74504 0
M  V30 9932 H 979.679 2.36844 -2.03252 0
M  V30 9933 N 979.98 1.24838 0.961938 0
M  V30 9934 C 981.208 1.11871 1.74047 0
M  V30 9935 C 981.623 -0.328209 1.85925 0
M  V30 9936 O 980.98 -1.22616 1.35173 0
M  V30 9937 C 981.031 1.75931 3.15801 0
M  V30 9938 O 980.752 3.14967 3.04512 0
M  V30 9939 C 982.253 1.68649 4.09966 0
M  V30 9940 H 979.473 0.390569 0.545616 0
M  V30 9941 H 982.017 1.65058 1.20732 0
M  V30 9942 H 980.172 1.26733 3.66084 0
M  V30 9943 H 980.586 3.46349 3.93882 0
M  V30 9944 H 982.06 2.18144 5.07067 0
M  V30 9945 H 982.537 0.648831 4.34381 0
M  V30 9946 H 983.143 2.17301 3.65596 0
M  V30 9947 N 981.458 -1.16348 1.06306 0
M  V30 9948 C 982.421 -2.18941 0.678053 0
M  V30 9949 C 983.421 -1.58409 -0.276277 0
M  V30 9950 O 984.611 -1.74101 -0.0586435 0
M  V30 9951 C 981.743 -3.409 -0.00228684 0
M  V30 9952 H 982.936 -2.54516 1.58624 0
M  V30 9953 H 980.489 -1.30625 0.858298 0
M  V30 9954 H 981.224 -3.10881 -0.923212 0
M  V30 9955 H 981.009 -3.86089 0.683949 0
M  V30 9956 H 982.499 -4.16806 -0.257374 0
M  V30 9957 N 982.937 -0.845659 -1.3299 0
M  V30 9958 C 983.887 -0.2557 -2.26562 0
M  V30 9959 C 984.871 0.593245 -1.49564 0
M  V30 9960 O 986.063 0.444101 -1.71338 0
M  V30 9961 C 983.192 0.562573 -3.38659 0
M  V30 9962 C 982.278 -0.298259 -4.2305 0
M  V30 9963 N 982.669 -1.38023 -4.86604 0
M  V30 9964 C 980.967 -0.0864539 -4.45916 0
M  V30 9965 C 981.668 -1.90907 -5.49481 0
M  V30 9966 N 980.644 -1.20955 -5.29973 0
M  V30 9967 H 984.446 -1.083 -2.73219 0
M  V30 9968 H 981.96 -0.690823 -1.46974 0
M  V30 9969 H 983.957 1.00157 -4.0469 0
M  V30 9970 H 982.617 1.38777 -2.93549 0
M  V30 9971 H 983.628 -1.76314 -4.86964 0
M  V30 9972 H 980.305 0.70475 -4.11509 0
M  V30 9973 H 981.695 -2.81552 -6.10064 0
M  V30 9974 N 984.415 1.45619 -0.602734 0
M  V30 9975 C 985.325 2.34288 0.120902 0
M  V30 9976 C 986.341 1.50952 0.865414 0
M  V30 9977 O 987.517 1.83768 0.824094 0
M  V30 9978 C 984.582 3.28489 1.10888 0
M  V30 9979 C 983.643 4.2773 0.366853 0
M  V30 9980 C 982.876 5.17429 1.30776 0
M  V30 9981 O 983.099 5.10459 2.54535 0
M  V30 9982 O 982.033 5.96459 0.807464 0
M  V30 9983 H 985.859 2.97559 -0.60765 0
M  V30 9984 H 983.444 1.44922 -0.363019 0
M  V30 9985 H 985.326 3.86549 1.67803 0
M  V30 9986 H 984.001 2.67789 1.81854 0
M  V30 9987 H 982.908 3.73299 -0.244643 0
M  V30 9988 H 984.241 4.91271 -0.302226 0
M  V30 9989 N 985.893 0.34162 1.53853 0
M  V30 9990 C 986.856 -0.503541 2.236 0
M  V30 9991 C 987.856 -1.02912 1.23554 0
M  V30 9992 O 989.046 -0.918678 1.48007 0
M  V30 9993 C 986.178 -1.70126 2.95415 0
M  V30 9994 H 987.371 0.106437 2.99711 0
M  V30 9995 H 984.924 0.0929408 1.56023 0
M  V30 9996 H 985.659 -2.34999 2.23486 0
M  V30 9997 H 985.444 -1.33161 3.68796 0
M  V30 9998 H 986.934 -2.30077 3.48503 0
M  V30 9999 N 987.371 -1.57444 0.0701946 0
M  V30 10000 C 988.301 -2.15659 -0.895176 0
M  V30 10001 C 989.282 -1.08321 -1.31151 0
M  V30 10002 O 990.467 -1.36349 -1.38284 0
M  V30 10003 C 987.597 -2.71693 -2.16334 0
M  V30 10004 C 986.551 -3.84183 -1.88645 0
M  V30 10005 C 985.877 -4.26814 -3.22078 0
M  V30 10006 C 987.177 -5.08493 -1.19299 0
M  V30 10007 H 988.871 -2.96576 -0.410217 0
M  V30 10008 H 986.417 -1.42662 -0.195872 0
M  V30 10009 H 988.37 -3.11064 -2.84284 0
M  V30 10010 H 987.094 -1.87994 -2.67069 0
M  V30 10011 H 985.753 -3.45314 -1.23101 0
M  V30 10012 H 985.401 -3.40039 -3.70651 0
M  V30 10013 H 985.101 -5.02642 -3.04344 0
M  V30 10014 H 986.625 -4.68799 -3.91228 0
M  V30 10015 H 988.039 -5.4519 -1.77316 0
M  V30 10016 H 986.436 -5.89588 -1.11828 0
M  V30 10017 H 987.506 -4.84595 -0.171839 0
M  V30 10018 N 988.849 0.203349 -1.56283 0
M  V30 10019 C 990.265 0.55384 -1.49682 0
M  V30 10020 C 990.465 1.86261 -0.768701 0
M  V30 10021 O 989.521 2.50517 -0.315824 0
M  V30 10022 C 990.834 0.616216 -2.94318 0
M  V30 10023 C 992.382 0.705611 -3.04943 0
M  V30 10024 C 992.857 0.79917 -4.50974 0
M  V30 10025 N 994.348 0.862916 -4.55091 0
M  V30 10026 C 995.083 0.955334 -5.65386 0
M  V30 10027 N 994.579 1.01057 -6.8539 0
M  V30 10028 N 996.372 0.991884 -5.53279 0
M  V30 10029 H 988.523 -0.655244 -2.0204 0
M  V30 10030 H 990.786 -0.232344 -0.919087 0
M  V30 10031 H 990.492 -0.27619 -3.50614 0
M  V30 10032 H 990.366 1.47371 -3.4722 0
M  V30 10033 H 992.753 1.58845 -2.48701 0
M  V30 10034 H 992.834 -0.177921 -2.5518 0
M  V30 10035 H 992.478 -0.0792841 -5.07838 0
M  V30 10036 H 992.408 1.69838 -4.9846 0
M  V30 10037 H 994.899 0.829812 -3.68677 0
M  V30 10038 H 995.212 1.08137 -7.65197 0
M  V30 10039 H 993.557 0.979384 -6.88065 0
M  V30 10040 H 996.748 0.945514 -4.58451 0
M  V30 10041 H 996.921 1.06045 -6.39264 0
M  V30 10042 N 990.327 1.50405 0.470755 0
M  V30 10043 C 991.738 1.54266 1.05162 0
M  V30 10044 C 992.089 0.346359 1.93119 0
M  V30 10045 O 991.214 -0.540699 2.09536 0
M  V30 10046 C 991.809 2.7956 1.91394 0
M  V30 10047 C 990.368 2.86101 2.44588 0
M  V30 10048 C 989.515 2.48557 1.22941 0
M  V30 10049 H 992.466 1.56665 0.253359 0
M  V30 10050 H 992.487 2.61434 2.76464 0
M  V30 10051 H 991.999 3.66611 1.27351 0
M  V30 10052 H 990.1 2.03403 3.12183 0
M  V30 10053 H 990.213 3.88999 2.79672 0
M  V30 10054 H 988.577 2.01003 1.56429 0
M  V30 10055 H 989.36 3.37916 0.605598 0
M  V30 10056 N 991.805 -0.723954 1.39988 0
M  V30 10057 C 992.738 -1.84725 1.33985 0
M  V30 10058 C 993.716 -1.61217 0.211623 0
M  V30 10059 O 994.9 -1.84338 0.393905 0
M  V30 10060 C 992.027 -3.20913 1.08317 0
M  V30 10061 C 991.073 -3.63262 2.23478 0
M  V30 10062 S 991.906 -3.71346 3.85827 0
M  V30 10063 C 993.062 -5.10307 3.62405 0
M  V30 10064 H 993.295 -1.89535 2.2905 0
M  V30 10065 H 990.828 -0.889911 1.26174 0
M  V30 10066 H 992.786 -3.99547 0.941921 0
M  V30 10067 H 991.447 -3.13745 0.149203 0
M  V30 10068 H 990.64 -4.62124 2.01139 0
M  V30 10069 H 990.242 -2.91863 2.33863 0
M  V30 10070 H 992.534 -5.96975 3.20354 0
M  V30 10071 H 993.477 -5.37679 4.60768 0
M  V30 10072 H 993.885 -4.80505 2.96269 0
M  V30 10073 N 993.283 -1.25346 -0.955304 0
M  V30 10074 C 994.531 -1.09837 -1.69647 0
M  V30 10075 C 994.852 0.361425 -1.91621 0
M  V30 10076 O 994.122 1.25666 -1.50283 0
M  V30 10077 H 992.702 -0.403467 -0.628668 0
M  V30 10078 H 995.364 -1.57459 -1.14859 0
M  V30 10079 H 994.46 -1.60616 -2.67598 0
M  V30 10080 N 994.761 1.15782 -1.06922 0
M  V30 10081 C 996.007 1.86741 -0.790922 0
M  V30 10082 C 996.34 1.81863 0.681149 0
M  V30 10083 O 995.615 1.23871 1.49954 0
M  V30 10084 C 995.898 3.36038 -1.29422 0
M  V30 10085 C 995.751 3.49573 -2.83052 0
M  V30 10086 C 997.07 4.30647 -0.907239 0
M  V30 10087 H 994.189 0.678064 -0.288787 0
M  V30 10088 H 996.831 1.36054 -1.32624 0
M  V30 10089 H 994.981 3.79336 -0.838843 0
M  V30 10090 H 996.653 3.1517 -3.36847 0
M  V30 10091 H 994.896 2.91275 -3.21467 0
M  V30 10092 H 995.567 4.5445 -3.13335 0
M  V30 10093 H 998.043 3.95286 -1.29956 0
M  V30 10094 H 996.919 5.33604 -1.28679 0
M  V30 10095 H 997.18 4.41703 0.187251 0
M  V30 10096 N 996.239 0.8527 1.3254 0
M  V30 10097 C 997.202 0.300959 2.27215 0
M  V30 10098 C 998.202 -0.538235 1.51525 0
M  V30 10099 O 999.392 -0.350027 1.70647 0
M  V30 10100 C 996.524 -0.574428 3.36025 0
M  V30 10101 H 997.717 1.13655 2.77529 0
M  V30 10102 H 995.27 0.626878 1.43178 0
M  V30 10103 H 996.005 -1.43191 2.90976 0
M  V30 10104 H 995.79 0.0262265 3.92091 0
M  V30 10105 H 997.28 -0.9533 4.06573 0
M  V30 10106 N 997.718 -1.45297 0.610449 0
M  V30 10107 C 999.129 -1.85715 0.191488 0
M  V30 10108 C 999.48 -1.51036 -1.25229 0
M  V30 10109 O 998.605 -0.938422 -1.94994 0
M  V30 10110 C 999.2 -3.37082 0.340747 0
M  V30 10111 C 997.759 -3.76393 -0.0235433 0
M  V30 10112 C 996.906 -2.69237 0.663849 0
M  V30 10113 H 999.857 -1.36058 0.816948 0
M  V30 10114 H 999.878 -3.78105 -0.426233 0
M  V30 10115 H 999.39 -3.62291 1.39164 0
M  V30 10116 H 997.491 -3.56801 -1.07351 0
M  V30 10117 H 997.604 -4.77653 0.372102 0
M  V30 10118 H 995.968 -2.54499 0.101204 0
M  V30 10119 H 996.751 -2.97281 1.71694 0
M  V30 10120 N 999.196 -0.349774 -1.5367 0
M  V30 10121 C 1000.11 0.512421 -2.28935 0
M  V30 10122 C 1001.12 1.1065 -1.34286 0
M  V30 10123 O 1002.3 1.12084 -1.67329 0
M  V30 10124 C 999.363 1.64449 -3.05217 0
M  V30 10125 C 998.424 1.07956 -4.15505 0
M  V30 10126 C 997.657 2.15768 -4.88139 0
M  V30 10127 O 997.88 3.366 -4.60496 0
M  V30 10128 O 996.814 1.79712 -5.74445 0
M  V30 10129 H 1000.64 -0.0996001 -3.03537 0
M  V30 10130 H 998.225 -0.114629 -1.4896 0
M  V30 10131 H 1000.11 2.30302 -3.52901 0
M  V30 10132 H 998.782 2.24221 -2.33467 0
M  V30 10133 H 997.689 0.385381 -3.7211 0
M  V30 10134 H 999.022 0.526621 -4.89375 0
M  V30 10135 N 1000.67 1.57404 -0.0785433 0
M  V30 10136 C 1001.62 2.13104 0.88631 0
M  V30 10137 C 1002.59 1.04527 1.29086 0
M  V30 10138 O 1003.78 1.32226 1.37553 0
M  V30 10139 C 1000.92 2.70252 2.14611 0
M  V30 10140 C 1000.03 3.93007 1.79358 0
M  V30 10141 C 999.164 4.38376 3 0
M  V30 10142 C 998.203 5.53761 2.60796 0
M  V30 10143 N 997.34 5.94058 3.74219 0
M  V30 10144 H 1002.18 2.95243 0.404452 0
M  V30 10145 H 999.717 1.45894 0.187982 0
M  V30 10146 H 1001.67 3.01497 2.88367 0
M  V30 10147 H 1000.3 1.90868 2.60326 0
M  V30 10148 H 999.357 3.68181 0.956384 0
M  V30 10149 H 1000.67 4.76795 1.4652 0
M  V30 10150 H 999.823 4.71317 3.82027 0
M  V30 10151 H 998.562 3.53455 3.36037 0
M  V30 10152 H 997.567 5.20464 1.77192 0
M  V30 10153 H 998.792 6.40419 2.25922 0
M  V30 10154 H 996.738 5.12085 4.10005 0
M  V30 10155 H 996.655 6.72602 3.45171 0
M  V30 10156 H 997.923 6.31624 4.56805 0
M  V30 10157 N 1002.15 -0.195058 1.56388 0
M  V30 10158 C 1003.4 -0.913626 1.79821 0
M  V30 10159 C 1003.71 -1.84422 0.651767 0
M  V30 10160 O 1004.92 -2.6034 0.770402 0
M  V30 10161 C 1003.38 -1.67497 3.18548 0
M  V30 10162 C 1002.98 -0.789205 4.40994 0
M  V30 10163 C 1004.73 -2.38318 3.5129 0
M  V30 10164 C 1002.63 -1.54942 5.70742 0
M  V30 10165 H 1001.56 -0.344891 0.670497 0
M  V30 10166 H 1004.22 -0.166912 1.82739 0
M  V30 10167 H 1002.6 -2.46557 3.0988 0
M  V30 10168 H 1003.77 -0.0372595 4.60785 0
M  V30 10169 H 1002.09 -0.191834 4.15958 0
M  V30 10170 H 1004.68 -2.95745 4.45465 0
M  V30 10171 H 1005.03 -3.12507 2.75037 0
M  V30 10172 H 1005.56 -1.66224 3.61406 0
M  V30 10173 H 1002.3 -0.85031 6.49962 0
M  V30 10174 H 1001.82 -2.2753 5.54969 0
M  V30 10175 H 1003.5 -2.1032 6.11861 0
M  V30 10176 N 1003.63 -1.50653 -0.462772 0
M  V30 10177 C 1004.58 -1.70122 -1.55971 0
M  V30 10178 C 1005.55 -0.542581 -1.56988 0
M  V30 10179 O 1006.73 -0.774114 -1.74391 0
M  V30 10180 C 1003.87 -1.80899 -2.93887 0
M  V30 10181 C 1002.98 -3.08318 -3.02595 0
M  V30 10182 C 1002.12 -3.09841 -4.31477 0
M  V30 10183 C 1001.16 -4.3168 -4.33957 0
M  V30 10184 N 1000.3 -4.30894 -5.54323 0
M  V30 10185 H 1005.14 -2.63768 -1.38674 0
M  V30 10186 H 1002.67 -1.30746 -0.674091 0
M  V30 10187 H 1004.63 -1.85128 -3.73876 0
M  V30 10188 H 1003.26 -0.906854 -3.098 0
M  V30 10189 H 1002.31 -3.13521 -2.15427 0
M  V30 10190 H 1003.62 -3.98282 -3.00288 0
M  V30 10191 H 1002.78 -3.12845 -5.1982 0
M  V30 10192 H 1001.52 -2.17722 -4.36404 0
M  V30 10193 H 1000.52 -4.28879 -3.4401 0
M  V30 10194 H 1001.75 -5.25035 -4.30715 0
M  V30 10195 H 999.694 -3.41633 -5.6002 0
M  V30 10196 H 999.611 -5.14636 -5.53792 0
M  V30 10197 H 1000.88 -4.38056 -6.44769 0
M  V30 10198 N 1005.11 0.71652 -1.4037 0
M  V30 10199 C 1006.36 1.47638 -1.38597 0
M  V30 10200 C 1006.68 1.94496 0.0120141 0
M  V30 10201 O 1005.94 1.68437 0.996373 0
M  V30 10202 C 1006.24 2.71777 -2.32103 0
M  V30 10203 C 1005.9 2.43689 -3.79376 0
M  V30 10204 C 1004.57 2.35739 -4.195 0
M  V30 10205 C 1006.92 2.20099 -4.72447 0
M  V30 10206 C 1004.25 2.02265 -5.50732 0
M  V30 10207 C 1006.6 1.88138 -6.03976 0
M  V30 10208 C 1005.26 1.78669 -6.43143 0
M  V30 10209 H 1004.53 0.540246 -0.507163 0
M  V30 10210 H 1007.18 0.820822 -1.73017 0
M  V30 10211 H 1005.48 3.42166 -1.90865 0
M  V30 10212 H 1007.18 3.29864 -2.28015 0
M  V30 10213 H 1003.77 2.50763 -3.47585 0
M  V30 10214 H 1007.95 2.25198 -4.42266 0
M  V30 10215 H 1003.21 1.93471 -5.79982 0
M  V30 10216 H 1007.38 1.68898 -6.75608 0
M  V30 10217 H 1005.01 1.52498 -7.44747 0
M  V30 10218 N 1006.59 1.25851 0.948643 0
M  V30 10219 C 1007.81 1.13711 1.72851 0
M  V30 10220 C 1008.23 -0.308471 1.86263 0
M  V30 10221 O 1007.59 -1.21175 1.36465 0
M  V30 10222 C 1007.64 1.79271 3.13918 0
M  V30 10223 O 1007.36 3.18179 3.01154 0
M  V30 10224 C 1008.86 1.72988 4.08154 0
M  V30 10225 H 1006.08 0.396334 0.541443 0
M  V30 10226 H 1008.62 1.66329 1.18974 0
M  V30 10227 H 1006.78 1.30609 3.64719 0
M  V30 10228 H 1007.19 3.50507 3.90186 0
M  V30 10229 H 1008.67 2.2351 5.04725 0
M  V30 10230 H 1009.14 0.694866 4.33668 0
M  V30 10231 H 1009.75 2.21166 3.63271 0
M  V30 10232 N 1008.06 -1.15214 1.07534 0
M  V30 10233 C 1009.31 -1.86548 0.810651 0
M  V30 10234 C 1009.67 -1.80863 -0.656236 0
M  V30 10235 O 1008.96 -1.22216 -1.47559 0
M  V30 10236 C 1009.15 -3.34623 1.25547 0
M  V30 10237 C 1008.98 -3.54725 2.76406 0
M  V30 10238 C 1007.75 -3.70089 3.44038 0
M  V30 10239 C 1009.95 -3.52392 3.74599 0
M  V30 10240 N 1007.93 -3.78262 4.8352 0
M  V30 10241 C 1009.3 -3.66701 4.9993 0
M  V30 10242 C 1011.36 -3.35677 3.6773 0
M  V30 10243 C 1010.06 -3.66023 6.19209 0
M  V30 10244 C 1012.09 -3.36298 4.86475 0
M  V30 10245 C 1011.45 -3.51139 6.1064 0
M  V30 10246 H 1007.55 -0.699691 0.349223 0
M  V30 10247 H 1010.13 -1.3815 1.37196 0
M  V30 10248 H 1008.3 -3.81633 0.721837 0
M  V30 10249 H 1010.03 -3.93677 0.938126 0
M  V30 10250 H 1006.79 -3.70943 2.94446 0
M  V30 10251 H 1007.21 -3.86087 5.56117 0
M  V30 10252 H 1011.86 -3.2312 2.72678 0
M  V30 10253 H 1009.57 -3.77358 7.14581 0
M  V30 10254 H 1013.16 -3.2459 4.82838 0
M  V30 10255 H 1012.04 -3.51555 7.00984 0
M  V30 10256 N 1009.54 -0.859717 -1.32086 0
M  V30 10257 C 1010.95 -0.519529 -1.79326 0
M  V30 10258 C 1011.3 0.96295 -1.70944 0
M  V30 10259 O 1010.43 1.75139 -1.27104 0
M  V30 10260 C 1011.02 -0.936267 -3.25606 0
M  V30 10261 C 1009.58 -0.647899 -3.70782 0
M  V30 10262 C 1008.73 -1.13323 -2.53087 0
M  V30 10263 H 1011.68 -1.04643 -1.19312 0
M  V30 10264 H 1011.7 -0.254714 -3.79646 0
M  V30 10265 H 1011.21 -2.01527 -3.31675 0
M  V30 10266 H 1009.32 0.420172 -3.70223 0
M  V30 10267 H 1009.43 -1.21774 -4.63366 0
M  V30 10268 H 1007.79 -0.553325 -2.48617 0
M  V30 10269 H 1008.58 -2.21945 -2.61907 0
M  V30 10270 N 1011.02 1.44971 -0.618145 0
M  V30 10271 C 1011.97 2.32354 0.106846 0
M  V30 10272 C 1012.96 1.4659 0.848984 0
M  V30 10273 O 1014.17 1.63012 0.763354 0
M  V30 10274 H 1010.54 0.750108 0.0533109 0
M  V30 10275 H 1012.51 2.9127 -0.648426 0
M  V30 10276 C 1011.26 3.30381 1.08368 0
M  V30 10277 H 1010.59 3.96377 0.52205 0
M  V30 10278 H 1012.03 3.94231 1.56069 0
M  V30 10279 C 1010.49 2.58336 2.1625 0
M  V30 10280 O 1011.02 2.37258 3.24148 0
M  V30 10281 N 1009.22 2.18292 1.91825 0
M  V30 10282 H 1008.77 2.35635 1.04086 0
M  V30 10283 H 1008.73 1.70413 2.6421 0
M  V30 10284 N 1012.5 0.357919 1.53482 0
M  V30 10285 C 1013.73 -0.23514 2.05559 0
M  V30 10286 C 1014.14 -1.43068 1.23195 0
M  V30 10287 O 1013.5 -1.80481 0.270741 0
M  V30 10288 C 1013.55 -0.636147 3.55859 0
M  V30 10289 O 1013.27 0.511864 4.35099 0
M  V30 10290 C 1014.77 -1.28841 4.24164 0
M  V30 10291 H 1011.99 -0.0428446 0.669631 0
M  V30 10292 H 1014.54 0.51407 1.97933 0
M  V30 10293 H 1012.69 -1.33528 3.63661 0
M  V30 10294 H 1013.1 0.189328 5.24158 0
M  V30 10295 H 1014.58 -1.51962 5.30671 0
M  V30 10296 H 1015.06 -2.24638 3.77405 0
M  V30 10297 H 1015.66 -0.630914 4.20594 0
M  V30 10298 N 1013.98 -1.5736 0.0868897 0
M  V30 10299 C 1014.94 -2.12436 -0.860439 0
M  V30 10300 C 1015.94 -1.05175 -1.21634 0
M  V30 10301 O 1017.13 -1.31098 -1.14713 0
M  V30 10302 C 1014.26 -2.63818 -2.159 0
M  V30 10303 H 1015.45 -2.97453 -0.382346 0
M  V30 10304 H 1013.01 -1.55458 -0.162009 0
M  V30 10305 H 1013.74 -1.82298 -2.68212 0
M  V30 10306 H 1013.53 -3.42234 -1.91359 0
M  V30 10307 H 1015.02 -3.06452 -2.83685 0
M  V30 10308 N 1015.45 0.186762 -1.56489 0
M  V30 10309 C 1016.68 0.921832 -1.85229 0
M  V30 10310 C 1017.1 1.76496 -0.670416 0
M  V30 10311 O 1016.45 1.78899 0.360758 0
M  V30 10312 C 1016.51 1.81121 -3.12854 0
M  V30 10313 O 1016.23 1.00211 -4.26485 0
M  V30 10314 C 1017.73 2.65725 -3.54831 0
M  V30 10315 H 1014.95 0.268563 -0.61491 0
M  V30 10316 H 1017.49 0.191505 -2.03601 0
M  V30 10317 H 1015.65 2.49506 -2.96354 0
M  V30 10318 H 1016.06 1.60893 -4.99213 0
M  V30 10319 H 1017.53 3.23771 -4.47075 0
M  V30 10320 H 1018.01 3.39843 -2.78215 0
M  V30 10321 H 1018.62 2.02698 -3.7389 0
M  V30 10322 N 1016.93 1.50896 0.454776 0
M  V30 10323 C 1018.16 1.6648 1.22849 0
M  V30 10324 C 1018.58 0.354841 1.85435 0
M  V30 10325 O 1017.93 -0.664931 1.69956 0
M  V30 10326 C 1017.98 2.76787 2.32532 0
M  V30 10327 O 1017.7 4.02706 1.72509 0
M  V30 10328 C 1019.21 3.03488 3.23125 0
M  V30 10329 H 1016.43 0.559152 0.370932 0
M  V30 10330 H 1018.97 1.97215 0.540983 0
M  V30 10331 H 1017.12 2.48701 2.9703 0
M  V30 10332 H 1017.54 4.63834 2.44863 0
M  V30 10333 H 1019.01 3.84294 3.9626 0
M  V30 10334 H 1019.49 2.152 3.82865 0
M  V30 10335 H 1020.1 3.33167 2.64347 0
M  V30 10336 N 1018.41 -0.709066 1.40748 0
M  V30 10337 C 1019.82 -1.28847 1.35112 0
M  V30 10338 C 1020.17 -1.9618 0.0277149 0
M  V30 10339 O 1019.3 -1.97955 -0.874233 0
M  V30 10340 C 1019.89 -2.34306 2.44716 0
M  V30 10341 C 1018.45 -2.87856 2.4252 0
M  V30 10342 C 1017.6 -1.61723 2.25257 0
M  V30 10343 H 1020.55 -0.504742 1.50459 0
M  V30 10344 H 1020.57 -3.15297 2.12998 0
M  V30 10345 H 1020.08 -1.85271 3.41022 0
M  V30 10346 H 1018.18 -3.41103 1.49931 0
M  V30 10347 H 1018.3 -3.39205 3.38344 0
M  V30 10348 H 1016.66 -1.87032 1.7289 0
M  V30 10349 H 1017.44 -1.14703 3.23571 0
M  V30 10350 N 1019.89 -1.26353 -0.941956 0
M  V30 10351 C 1020.84 -1.07654 -2.06188 0
M  V30 10352 C 1021.83 -0.00369741 -1.694 0
M  V30 10353 O 1023.04 -0.160316 -1.79285 0
M  V30 10354 H 1019.41 -0.331274 -0.675101 0
M  V30 10355 H 1021.38 -2.02566 -2.19111 0
M  V30 10356 C 1020.13 -0.725436 -3.40048 0
M  V30 10357 H 1019.46 -1.54283 -3.68832 0
M  V30 10358 H 1020.9 -0.634383 -4.19227 0
M  V30 10359 C 1019.35 0.569369 -3.32054 0
M  V30 10360 O 1019.88 1.60791 -3.68116 0
M  V30 10361 N 1018.09 0.559714 -2.85159 0
M  V30 10362 H 1017.64 -0.285817 -2.56009 0
M  V30 10363 H 1017.6 1.42617 -2.80193 0
M  V30 10364 N 1021.37 1.14642 -1.08144 0
M  V30 10365 C 1022.59 1.90025 -0.830972 0
M  V30 10366 C 1023.02 1.77904 0.610879 0
M  V30 10367 O 1022.38 1.11735 1.42776 0
M  V30 10368 C 1022.42 3.38085 -1.25422 0
M  V30 10369 O 1021.53 4.10412 -0.404486 0
M  V30 10370 H 1020.87 0.591327 -0.302041 0
M  V30 10371 H 1023.4 1.4513 -1.44216 0
M  V30 10372 H 1023.41 3.88894 -1.23391 0
M  V30 10373 H 1022.08 3.46226 -2.30435 0
M  V30 10374 H 1020.66 3.69693 -0.487987 0
M  V30 10375 N 1022.85 0.866709 1.31628 0
M  V30 10376 C 1024.09 0.475086 1.96437 0
M  V30 10377 C 1024.41 -0.975179 1.68865 0
M  V30 10378 O 1023.68 -1.68317 1.0023 0
M  V30 10379 H 1022.26 0.172695 0.726764 0
M  V30 10380 H 1024.93 1.10578 1.60494 0
M  V30 10381 H 1024.02 0.630123 3.05673 0
M  V30 10382 N 1024.32 -1.44642 0.625825 0
M  V30 10383 C 1025.73 -1.85502 0.211175 0
M  V30 10384 C 1026.09 -1.52356 -1.2362 0
M  V30 10385 O 1025.21 -0.959051 -1.93988 0
M  V30 10386 C 1025.81 -3.36702 0.37648 0
M  V30 10387 C 1024.36 -3.76396 0.0163795 0
M  V30 10388 C 1023.51 -2.68517 0.692368 0
M  V30 10389 H 1026.46 -1.35183 0.831333 0
M  V30 10390 H 1026.48 -3.78536 -0.386106 0
M  V30 10391 H 1026 -3.60795 1.42999 0
M  V30 10392 H 1024.1 -3.57919 -1.0356 0
M  V30 10393 H 1024.21 -4.77231 0.422742 0
M  V30 10394 H 1022.57 -2.54377 0.128191 0
M  V30 10395 H 1023.36 -2.95444 1.74837 0
M  V30 10396 N 1025.8 -0.366053 -1.5329 0
M  V30 10397 C 1027.03 0.226839 -2.06156 0
M  V30 10398 C 1027.45 1.41637 -1.23776 0
M  V30 10399 O 1026.81 1.7947 -0.256948 0
M  V30 10400 C 1026.86 0.597956 -3.55608 0
M  V30 10401 O 1025.96 1.69512 -3.75951 0
M  V30 10402 H 1025.3 0.0329156 -0.663184 0
M  V30 10403 H 1027.83 -0.526793 -1.97702 0
M  V30 10404 H 1027.84 0.868831 -3.98642 0
M  V30 10405 H 1026.52 -0.271838 -4.15011 0
M  V30 10406 H 1025.09 1.41976 -3.44815 0
M  V30 10407 N 1027.28 1.57312 -0.0952337 0
M  V30 10408 C 1028.53 1.93974 0.567319 0
M  V30 10409 C 1028.85 0.977805 1.68713 0
M  V30 10410 O 1028.12 0.0298944 1.95877 0
M  V30 10411 H 1026.7 0.71612 0.212558 0
M  V30 10412 H 1029.36 1.94254 -0.158598 0
M  V30 10413 H 1028.46 2.964 0.977423 0
M  V30 10414 N 1028.76 -0.17846 1.56586 0
M  V30 10415 C 1030.01 -0.894464 1.81228 0
M  V30 10416 C 1030.33 -1.83089 0.671062 0
M  V30 10417 O 1029.6 -1.93439 -0.309557 0
M  V30 10418 H 1028.18 -0.333288 0.668527 0
M  V30 10419 H 1030.84 -0.179986 1.94067 0
M  V30 10420 H 1029.93 -1.47565 2.75011 0
M  V30 10421 N 1030.24 -1.51135 -0.446768 0
M  V30 10422 C 1031.46 -1.67411 -1.22427 0
M  V30 10423 C 1031.89 -0.367009 -1.84485 0
M  V30 10424 O 1031.24 0.67185 -1.68392 0
M  V30 10425 C 1031.29 -2.78473 -2.29096 0
M  V30 10426 O 1030.4 -2.41419 -3.34351 0
M  V30 10427 H 1029.74 -0.558512 -0.359111 0
M  V30 10428 H 1032.27 -1.97648 -0.5288 0
M  V30 10429 H 1032.28 -3.02277 -2.7403 0
M  V30 10430 H 1030.95 -3.73326 -1.83304 0
M  V30 10431 H 1029.53 -2.28152 -2.9496 0
M  V30 10432 N 1031.71 0.701592 -1.41122 0
M  V30 10433 C 1033.13 1.01143 -1.23459 0
M  V30 10434 C 1033.33 2.01144 -0.11968 0
M  V30 10435 O 1032.39 2.47132 0.517889 0
M  V30 10436 C 1033.7 1.54179 -2.58165 0
M  V30 10437 C 1035.25 1.66093 -2.65296 0
M  V30 10438 C 1035.72 2.22532 -4.00304 0
M  V30 10439 N 1037.21 2.299 -4.0212 0
M  V30 10440 C 1037.95 2.74584 -5.0338 0
M  V30 10441 N 1037.44 3.18917 -6.15032 0
M  V30 10442 N 1039.24 2.74094 -4.90743 0
M  V30 10443 H 1031.39 0.0390087 -2.12364 0
M  V30 10444 H 1033.65 0.0798848 -0.944628 0
M  V30 10445 H 1033.36 0.881587 -3.40472 0
M  V30 10446 H 1033.23 2.52488 -2.80231 0
M  V30 10447 H 1035.62 2.31227 -1.83352 0
M  V30 10448 H 1035.7 0.663461 -2.47046 0
M  V30 10449 H 1035.34 1.58016 -4.82694 0
M  V30 10450 H 1035.27 3.2302 -4.15891 0
M  V30 10451 H 1037.76 1.98607 -3.21502 0
M  V30 10452 H 1038.08 3.5162 -6.88174 0
M  V30 10453 H 1036.42 3.1684 -6.18577 0
M  V30 10454 H 1039.61 2.38804 -4.02604 0
M  V30 10455 H 1039.79 3.086 -5.69798 0
M  V30 10456 N 1033.19 1.2685 0.935242 0
M  V30 10457 C 1034.12 1.04717 2.0388 0
M  V30 10458 C 1035.14 0.00567507 1.62799 0
M  V30 10459 O 1036.33 0.246408 1.76791 0
M  V30 10460 C 1033.43 0.56496 3.34158 0
M  V30 10461 C 1032.6 1.67704 4.03973 0
M  V30 10462 C 1031.66 1.19186 5.12524 0
M  V30 10463 O 1030.68 1.89008 5.36903 0
M  V30 10464 N 1031.89 0.0434554 5.80484 0
M  V30 10465 H 1034.65 1.99746 2.23431 0
M  V30 10466 H 1032.21 1.18316 1.10512 0
M  V30 10467 H 1034.2 0.224436 4.04077 0
M  V30 10468 H 1032.77 -0.291899 3.11234 0
M  V30 10469 H 1031.99 2.18821 3.27889 0
M  V30 10470 H 1033.28 2.42361 4.47368 0
M  V30 10471 H 1032.68 -0.539502 5.63122 0
M  V30 10472 H 1031.24 -0.237946 6.51366 0
M  V30 10473 N 1034.67 -1.14067 1.0875 0
M  V30 10474 C 1035.6 -2.18926 0.67852 0
M  V30 10475 C 1036.62 -1.60441 -0.276163 0
M  V30 10476 O 1037.8 -1.78388 -0.0632788 0
M  V30 10477 C 1034.9 -3.38893 -0.0218852 0
M  V30 10478 C 1034.08 -4.26901 0.952582 0
M  V30 10479 C 1033.14 -5.25418 0.286859 0
M  V30 10480 O 1032.16 -5.61512 0.932354 0
M  V30 10481 N 1033.36 -5.72476 -0.961831 0
M  V30 10482 H 1036.13 -2.54629 1.58063 0
M  V30 10483 H 1033.69 -1.29321 0.974042 0
M  V30 10484 H 1035.68 -4.01864 -0.478278 0
M  V30 10485 H 1034.25 -3.01486 -0.826141 0
M  V30 10486 H 1033.47 -3.60812 1.58772 0
M  V30 10487 H 1034.76 -4.82563 1.61279 0
M  V30 10488 H 1034.16 -5.45287 -1.50594 0
M  V30 10489 H 1032.72 -6.37418 -1.36166 0
M  V30 10490 N 1036.15 -0.873678 -1.31166 0
M  V30 10491 C 1037.39 -0.487178 -1.96861 0
M  V30 10492 C 1037.73 0.95887 -1.68877 0
M  V30 10493 O 1037 1.6758 -0.987279 0
M  V30 10494 C 1037.29 -0.74925 -3.52219 0
M  V30 10495 C 1037.14 -2.2451 -3.89763 0
M  V30 10496 C 1038.46 -0.218194 -4.39559 0
M  V30 10497 H 1035.58 -0.178477 -0.715063 0
M  V30 10498 H 1038.22 -1.0956 -1.55231 0
M  V30 10499 H 1036.37 -0.231403 -3.8781 0
M  V30 10500 H 1038.04 -2.83049 -3.64254 0
M  V30 10501 H 1036.28 -2.71621 -3.38237 0
M  V30 10502 H 1036.95 -2.37911 -4.98099 0
M  V30 10503 H 1039.43 -0.661274 -4.10812 0
M  V30 10504 H 1038.31 -0.430983 -5.47205 0
M  V30 10505 H 1038.57 0.880056 -4.33252 0
M  V30 10506 N 1037.63 1.44308 -0.633487 0
M  V30 10507 C 1038.56 2.27887 0.119397 0
M  V30 10508 C 1039.54 1.38676 0.848981 0
M  V30 10509 O 1040.72 1.68116 0.85259 0
M  V30 10510 C 1037.85 3.17658 1.17521 0
M  V30 10511 C 1036.89 4.22992 0.54589 0
M  V30 10512 S 1037.73 5.31345 -0.6658 0
M  V30 10513 C 1038.88 6.24684 0.389965 0
M  V30 10514 H 1039.12 2.91394 -0.589638 0
M  V30 10515 H 1036.65 1.48529 -0.421727 0
M  V30 10516 H 1038.61 3.69929 1.77941 0
M  V30 10517 H 1037.27 2.53367 1.85645 0
M  V30 10518 H 1036.46 4.85828 1.34115 0
M  V30 10519 H 1036.06 3.73996 0.0162506 0
M  V30 10520 H 1038.36 6.65645 1.26185 0
M  V30 10521 H 1039.3 7.07809 -0.202878 0
M  V30 10522 H 1039.71 5.59929 0.716922 0
M  V30 10523 N 1039.1 0.374177 1.53094 0
M  V30 10524 C 1040.33 -0.213325 2.05797 0
M  V30 10525 C 1040.75 -1.41753 1.24706 0
M  V30 10526 O 1040.1 -1.80183 0.289868 0
M  V30 10527 C 1040.16 -0.598367 3.56513 0
M  V30 10528 O 1039.88 0.557983 4.34532 0
M  V30 10529 C 1041.38 -1.24334 4.25507 0
M  V30 10530 H 1038.6 -0.0357398 0.670048 0
M  V30 10531 H 1041.14 0.535035 1.97377 0
M  V30 10532 H 1039.3 -1.29663 3.65056 0
M  V30 10533 H 1039.71 0.244911 5.23928 0
M  V30 10534 H 1041.18 -1.46325 5.32253 0
M  V30 10535 H 1041.66 -2.20622 3.79766 0
M  V30 10536 H 1042.27 -0.586269 4.2124 0
M  V30 10537 N 1040.58 -1.57259 0.103575 0
M  V30 10538 C 1041.83 -1.94272 -0.557024 0
M  V30 10539 C 1042.15 -0.986739 -1.68192 0
M  V30 10540 O 1041.42 -0.0402818 -1.95859 0
M  V30 10541 H 1040 -0.717237 -0.208757 0
M  V30 10542 H 1042.66 -1.94167 0.168898 0
M  V30 10543 H 1041.76 -2.96914 -0.961691 0
M  V30 10544 N 1042.06 0.170153 -1.56679 0
M  V30 10545 C 1043.01 1.22997 -1.9742 0
M  V30 10546 C 1044 1.45762 -0.863117 0
M  V30 10547 O 1045.21 1.46328 -1.04824 0
M  V30 10548 H 1041.58 0.413482 -0.628122 0
M  V30 10549 H 1043.55 0.859502 -2.85754 0
M  V30 10550 C 1042.3 2.5615 -2.35122 0
M  V30 10551 H 1041.63 2.39456 -3.20158 0
M  V30 10552 H 1043.07 3.28991 -2.67471 0
M  V30 10553 C 1041.53 3.14992 -1.19507 0
M  V30 10554 O 1042.06 3.98781 -0.483357 0
M  V30 10555 N 1040.26 2.74098 -0.965332 0
M  V30 10556 H 1039.81 2.06062 -1.54585 0
M  V30 10557 H 1039.77 3.13803 -0.193611 0
M  V30 10558 N 1043.54 1.5137 0.438746 0
M  V30 10559 C 1044.5 1.71993 1.51496 0
M  V30 10560 C 1045.5 0.589978 1.49586 0
M  V30 10561 O 1046.69 0.857505 1.51633 0
M  V30 10562 C 1043.82 1.77508 2.91039 0
M  V30 10563 H 1045.02 2.68041 1.34514 0
M  V30 10564 H 1042.57 1.41338 0.667326 0
M  V30 10565 H 1043.3 0.832698 3.13427 0
M  V30 10566 H 1043.09 2.59627 2.9383 0
M  V30 10567 H 1044.58 1.95308 3.69113 0
M  V30 10568 N 1045.02 -0.694098 1.41492 0
M  V30 10569 C 1046.27 -1.4498 1.40227 0
M  V30 10570 C 1046.58 -1.95594 0.0151253 0
M  V30 10571 O 1047.78 -2.71234 -0.120146 0
M  V30 10572 C 1046.24 -2.62171 2.46565 0
M  V30 10573 C 1045.85 -2.18337 3.91194 0
M  V30 10574 C 1047.59 -3.39796 2.54439 0
M  V30 10575 C 1045.5 -3.32495 4.89082 0
M  V30 10576 H 1044.43 -0.544584 0.521483 0
M  V30 10577 H 1047.08 -0.75337 1.67322 0
M  V30 10578 H 1045.46 -3.34089 2.12604 0
M  V30 10579 H 1046.64 -1.53698 4.34412 0
M  V30 10580 H 1044.95 -1.53702 3.86994 0
M  V30 10581 H 1047.55 -4.2478 3.24755 0
M  V30 10582 H 1047.89 -3.85082 1.5817 0
M  V30 10583 H 1048.42 -2.74935 2.87499 0
M  V30 10584 H 1045.16 -2.92219 5.86761 0
M  V30 10585 H 1044.68 -3.95978 4.50512 0
M  V30 10586 H 1046.36 -3.98251 5.09907 0
M  V30 10587 N 1046.49 -1.27344 -0.928501 0
M  V30 10588 C 1047.91 -1.04732 -1.2043 0
M  V30 10589 C 1048.11 0.219623 -2.003 0
M  V30 10590 O 1047.17 0.925333 -2.34934 0
M  V30 10591 C 1048.48 -2.28625 -1.95323 0
M  V30 10592 C 1050.03 -2.33655 -2.08265 0
M  V30 10593 C 1050.5 -3.57275 -2.86563 0
M  V30 10594 N 1051.99 -3.57828 -2.94132 0
M  V30 10595 C 1052.73 -4.50152 -3.55177 0
M  V30 10596 N 1052.22 -5.52779 -4.17621 0
M  V30 10597 N 1054.02 -4.37777 -3.52573 0
M  V30 10598 H 1046.17 -2.08697 -0.394892 0
M  V30 10599 H 1048.43 -0.91782 -0.2373 0
M  V30 10600 H 1048.14 -3.20845 -1.44054 0
M  V30 10601 H 1048.01 -2.33878 -2.95941 0
M  V30 10602 H 1050.4 -1.41942 -2.58721 0
M  V30 10603 H 1050.48 -2.32406 -1.0687 0
M  V30 10604 H 1050.12 -4.49325 -2.3679 0
M  V30 10605 H 1050.05 -3.55775 -3.88242 0
M  V30 10606 H 1052.54 -2.83607 -2.49751 0
M  V30 10607 H 1052.86 -6.19394 -4.62137 0
M  V30 10608 H 1051.2 -5.56622 -4.16169 0
M  V30 10609 H 1054.39 -3.56811 -3.02991 0
M  V30 10610 H 1054.57 -5.09919 -3.99858 0
M  V30 10611 N 1047.97 1.13488 -1.09353 0
M  V30 10612 C 1049.22 1.85022 -0.830354 0
M  V30 10613 C 1049.55 1.83266 0.64242 0
M  V30 10614 O 1048.83 1.27024 1.47293 0
M  V30 10615 C 1049.11 3.33218 -1.36521 0
M  V30 10616 C 1048.96 3.43491 -2.90404 0
M  V30 10617 C 1050.28 4.28626 -0.998381 0
M  V30 10618 H 1047.4 0.671786 -0.303105 0
M  V30 10619 H 1050.04 1.33211 -1.3548 0
M  V30 10620 H 1048.19 3.77471 -0.919117 0
M  V30 10621 H 1049.86 3.07954 -3.43456 0
M  V30 10622 H 1048.11 2.84391 -3.27573 0
M  V30 10623 H 1048.78 4.47702 -3.22905 0
M  V30 10624 H 1051.25 3.9244 -1.38311 0
M  V30 10625 H 1050.13 5.30754 -1.39968 0
M  V30 10626 H 1050.39 4.42001 0.093517 0
M  V30 10627 N 1049.45 0.880621 1.30701 0
M  V30 10628 C 1050.41 0.349087 2.26526 0
M  V30 10629 C 1051.41 -0.505973 1.52632 0
M  V30 10630 O 1052.6 -0.313751 1.71351 0
M  V30 10631 C 1049.74 -0.503023 3.37168 0
M  V30 10632 H 1050.93 1.19516 2.75056 0
M  V30 10633 H 1048.48 0.657107 1.41816 0
M  V30 10634 H 1049.22 -1.36986 2.93948 0
M  V30 10635 H 1049 0.109389 3.91947 0
M  V30 10636 H 1050.49 -0.866845 4.08504 0
M  V30 10637 N 1050.93 -1.4397 0.641131 0
M  V30 10638 C 1052.17 -2.03826 0.153071 0
M  V30 10639 C 1052.53 -1.4941 -1.20585 0
M  V30 10640 O 1053.73 -2.00832 -1.78661 0
M  V30 10641 C 1052.01 -3.57085 0.149914 0
M  V30 10642 S 1053.56 -4.37956 -0.272065 0
M  V30 10643 H 1050.38 -0.70793 0.0659981 0
M  V30 10644 H 1052.98 -1.76211 0.846761 0
M  V30 10645 H 1051.69 -3.94194 1.14188 0
M  V30 10646 H 1051.22 -3.89326 -0.564703 0
M  V30 10647 H 1053.23 -4.72542 -1.5139 0
M  V30 10648 N 1052.41 -0.382291 -1.52893 0
M  V30 10649 C 1053.32 0.463745 -2.29971 0
M  V30 10650 C 1054.33 1.07777 -1.36602 0
M  V30 10651 O 1055.51 1.0851 -1.69669 0
M  V30 10652 C 1052.57 1.57938 -3.08637 0
M  V30 10653 C 1051.64 0.991182 -4.17701 0
M  V30 10654 C 1050.87 2.05365 -4.92606 0
M  V30 10655 O 1051.09 3.26757 -4.67532 0
M  V30 10656 O 1050.03 1.67487 -5.78128 0
M  V30 10657 H 1053.85 -0.163962 -3.03257 0
M  V30 10658 H 1051.44 -0.146199 -1.48683 0
M  V30 10659 H 1053.32 2.22765 -3.57706 0
M  V30 10660 H 1051.99 2.19218 -2.3817 0
M  V30 10661 H 1050.9 0.306364 -3.72843 0
M  V30 10662 H 1052.23 0.422699 -4.90382 0
M  V30 10663 N 1053.89 1.57202 -0.111913 0
M  V30 10664 C 1054.83 2.16186 0.858286 0
M  V30 10665 C 1055.83 1.10917 1.28039 0
M  V30 10666 O 1057.03 1.29233 1.25295 0
M  V30 10667 H 1053.41 0.691777 0.29487 0
M  V30 10668 H 1055.38 2.96499 0.336265 0
M  V30 10669 C 1054.13 2.77024 2.10127 0
M  V30 10670 H 1053.45 3.5772 1.78539 0
M  V30 10671 H 1054.89 3.21841 2.76033 0
M  V30 10672 C 1053.35 1.73752 2.88638 0
M  V30 10673 O 1053.88 1.18659 3.83774 0
M  V30 10674 N 1052.09 1.43855 2.52496 0
M  V30 10675 H 1051.63 1.88846 1.75199 0
M  V30 10676 H 1051.59 0.749985 3.05324 0
M  V30 10677 N 1055.36 -0.161842 1.56767 0
M  V30 10678 C 1056.29 -1.20226 2.0017 0
M  V30 10679 C 1057.27 -1.4564 0.878807 0
M  V30 10680 O 1058.46 -1.56813 1.14557 0
M  V30 10681 C 1055.59 -2.53897 2.36968 0
M  V30 10682 C 1054.54 -2.43033 3.52305 0
M  V30 10683 C 1053.87 -3.81281 3.74872 0
M  V30 10684 C 1055.17 -1.927 4.85453 0
M  V30 10685 H 1056.86 -0.84142 2.87333 0
M  V30 10686 H 1054.41 -0.403309 1.38237 0
M  V30 10687 H 1056.36 -3.26893 2.6593 0
M  V30 10688 H 1055.09 -2.91787 1.46724 0
M  V30 10689 H 1053.75 -1.7249 3.23485 0
M  V30 10690 H 1053.39 -4.1658 2.81904 0
M  V30 10691 H 1053.09 -3.74877 4.52483 0
M  V30 10692 H 1054.62 -4.55848 4.06245 0
M  V30 10693 H 1056.03 -2.55477 5.13229 0
M  V30 10694 H 1054.43 -1.97222 5.66766 0
M  V30 10695 H 1055.5 -0.881816 4.76814 0
M  V30 10696 N 1056.84 -1.516 -0.430713 0
M  V30 10697 C 1057.77 -1.76342 -1.53054 0
M  V30 10698 C 1058.75 -0.61349 -1.58652 0
M  V30 10699 O 1059.94 -0.856888 -1.74273 0
M  V30 10700 C 1057.07 -1.8945 -2.91077 0
M  V30 10701 C 1056.02 -3.04928 -3.00339 0
M  V30 10702 C 1055.35 -3.03228 -4.40405 0
M  V30 10703 C 1056.65 -4.44777 -2.73808 0
M  V30 10704 H 1058.34 -2.68435 -1.326 0
M  V30 10705 H 1055.89 -1.29171 -0.636466 0
M  V30 10706 H 1057.84 -2.05343 -3.67984 0
M  V30 10707 H 1056.56 -0.940114 -3.12777 0
M  V30 10708 H 1055.22 -2.88751 -2.25872 0
M  V30 10709 H 1054.87 -2.05553 -4.59083 0
M  V30 10710 H 1054.57 -3.80776 -4.47531 0
M  V30 10711 H 1056.1 -3.21222 -5.19277 0
M  V30 10712 H 1057.51 -4.6127 -3.40445 0
M  V30 10713 H 1055.91 -5.2408 -2.92335 0
M  V30 10714 H 1056.98 -4.54358 -1.69372 0
M  V30 10715 N 1058.32 0.686584 -1.41858 0
M  V30 10716 C 1059.27 1.80038 -1.44413 0
M  V30 10717 C 1060.24 1.63415 -0.297427 0
M  V30 10718 O 1061.42 1.84138 -0.499789 0
M  V30 10719 C 1058.56 3.17988 -1.34082 0
M  V30 10720 C 1057.67 3.45979 -2.58693 0
M  V30 10721 C 1056.81 4.73592 -2.4059 0
M  V30 10722 C 1055.85 4.94581 -3.60633 0
M  V30 10723 N 1054.99 6.13426 -3.41545 0
M  V30 10724 H 1059.83 1.77189 -2.396 0
M  V30 10725 H 1057.36 0.865158 -1.18968 0
M  V30 10726 H 1059.32 3.97689 -1.26092 0
M  V30 10727 H 1057.95 3.1999 -0.424975 0
M  V30 10728 H 1057 2.60617 -2.77097 0
M  V30 10729 H 1058.31 3.57386 -3.47961 0
M  V30 10730 H 1057.47 5.61364 -2.30119 0
M  V30 10731 H 1056.21 4.64448 -1.48794 0
M  V30 10732 H 1055.21 4.05254 -3.71549 0
M  V30 10733 H 1056.44 5.05578 -4.53395 0
M  V30 10734 H 1054.38 6.05477 -2.52456 0
M  V30 10735 H 1054.3 6.25641 -4.24393 0
M  V30 10736 H 1055.57 7.03908 -3.34864 0
M  V30 10737 N 1059.8 1.27835 0.921735 0
M  V30 10738 C 1060.76 1.11108 2.00469 0
M  V30 10739 C 1061.76 0.053203 1.60712 0
M  V30 10740 O 1062.95 0.298308 1.71627 0
M  V30 10741 C 1060.08 0.694269 3.33755 0
M  V30 10742 H 1061.28 2.07279 2.16738 0
M  V30 10743 H 1058.83 1.10708 1.10333 0
M  V30 10744 H 1059.56 -0.268561 3.23186 0
M  V30 10745 H 1059.35 1.45836 3.6397 0
M  V30 10746 H 1060.84 0.59965 4.13272 0
M  V30 10747 N 1061.28 -1.12907 1.09954 0
M  V30 10748 C 1062.52 -1.8595 0.848643 0
M  V30 10749 C 1062.88 -1.81897 -0.614621 0
M  V30 10750 O 1064.08 -2.50233 -0.981667 0
M  V30 10751 C 1062.35 -3.29859 1.3758 0
M  V30 10752 S 1063.91 -4.20333 1.25959 0
M  V30 10753 H 1060.73 -0.641404 0.306793 0
M  V30 10754 H 1063.33 -1.36045 1.40399 0
M  V30 10755 H 1062.03 -3.30365 2.43489 0
M  V30 10756 H 1061.57 -3.84827 0.816806 0
M  V30 10757 H 1063.58 -4.95738 0.214038 0
M  V30 10758 N 1062.75 -0.88754 -1.30232 0
M  V30 10759 C 1063.66 -0.360333 -2.31816 0
M  V30 10760 C 1064.68 0.538741 -1.6545 0
M  V30 10761 O 1065.86 0.431246 -1.96729 0
M  V30 10762 C 1062.92 0.414336 -3.44215 0
M  V30 10763 C 1061.98 -0.514799 -4.26202 0
M  V30 10764 C 1061.21 0.222994 -5.33234 0
M  V30 10765 O 1061.44 1.44871 -5.51696 0
M  V30 10766 O 1060.37 -0.428221 -6.00375 0
M  V30 10767 H 1064.2 -1.20279 -2.78867 0
M  V30 10768 H 1061.78 -0.651459 -1.34448 0
M  V30 10769 H 1063.66 0.852859 -4.12679 0
M  V30 10770 H 1062.34 1.23305 -2.99295 0
M  V30 10771 H 1061.25 -1.00219 -3.60426 0
M  V30 10772 H 1062.58 -1.29959 -4.74733 0
M  V30 10773 N 1064.23 1.43628 -0.648757 0
M  V30 10774 C 1065.18 2.30755 0.0455536 0
M  V30 10775 C 1066.15 1.44495 0.819168 0
M  V30 10776 O 1067.33 1.73372 0.79667 0
M  V30 10777 C 1064.47 3.30017 1.00908 0
M  V30 10778 C 1063.59 4.31376 0.232039 0
M  V30 10779 C 1062.72 5.17723 1.18897 0
M  V30 10780 C 1061.76 6.10778 0.402096 0
M  V30 10781 N 1060.9 6.89763 1.31038 0
M  V30 10782 H 1065.74 2.89581 -0.70332 0
M  V30 10783 H 1063.28 1.42662 -0.3586 0
M  V30 10784 H 1065.23 3.86072 1.58128 0
M  V30 10785 H 1063.86 2.72851 1.72488 0
M  V30 10786 H 1062.92 3.77652 -0.456373 0
M  V30 10787 H 1064.23 4.9735 -0.380023 0
M  V30 10788 H 1063.38 5.78381 1.83194 0
M  V30 10789 H 1062.12 4.51864 1.83494 0
M  V30 10790 H 1061.13 5.49212 -0.254255 0
M  V30 10791 H 1062.35 6.78678 -0.239411 0
M  V30 10792 H 1060.3 6.26557 1.94324 0
M  V30 10793 H 1060.21 7.52243 0.752774 0
M  V30 10794 H 1061.48 7.54931 1.94164 0
M  V30 10795 N 1065.71 0.390394 1.52688 0
M  V30 10796 C 1067.12 -0.083394 1.86514 0
M  V30 10797 C 1067.47 -1.46057 1.31003 0
M  V30 10798 O 1066.6 -2.06663 0.641809 0
M  V30 10799 C 1067.19 -0.158102 3.38431 0
M  V30 10800 C 1065.75 -0.576186 3.71964 0
M  V30 10801 C 1064.9 0.261156 2.76068 0
M  V30 10802 H 1067.85 0.608226 1.46582 0
M  V30 10803 H 1067.87 -0.977023 3.67742 0
M  V30 10804 H 1067.38 0.844365 3.78803 0
M  V30 10805 H 1065.48 -1.58598 3.37161 0
M  V30 10806 H 1065.6 -0.333577 4.77937 0
M  V30 10807 H 1063.96 -0.273737 2.53225 0
M  V30 10808 H 1064.74 1.26162 3.19277 0
M  V30 10809 N 1067.19 -1.57141 0.120249 0
M  V30 10810 C 1068.44 -1.94852 -0.536387 0
M  V30 10811 C 1068.76 -1.00452 -1.67136 0
M  V30 10812 O 1068.03 -0.061053 -1.95805 0
M  V30 10813 H 1066.61 -0.719411 -0.201138 0
M  V30 10814 H 1069.27 -1.93977 0.189482 0
M  V30 10815 H 1068.37 -2.97917 -0.930145 0
M  V30 10816 N 1068.67 0.153526 -1.5685 0
M  V30 10817 C 1069.91 0.865519 -1.82629 0
M  V30 10818 C 1070.24 1.81999 -0.700105 0
M  V30 10819 O 1069.51 1.93907 0.278744 0
M  V30 10820 H 1068.09 0.32261 -0.673745 0
M  V30 10821 H 1070.75 0.149088 -1.94329 0
M  V30 10822 H 1069.84 1.43171 -2.77324 0
M  V30 10823 N 1070.14 1.51827 0.422667 0
M  V30 10824 C 1071.39 1.64893 1.16853 0
M  V30 10825 C 1071.71 0.37456 1.91369 0
M  V30 10826 O 1070.98 -0.610128 1.86157 0
M  V30 10827 H 1069.56 0.607744 0.434345 0
M  V30 10828 H 1072.23 1.88816 0.483159 0
M  V30 10829 H 1071.32 2.48361 1.89006 0
M  V30 10830 N 1071.62 -0.679052 1.4222 0
M  V30 10831 C 1072.85 -1.46534 1.45641 0
M  V30 10832 C 1073.26 -1.89088 0.0649574 0
M  V30 10833 O 1072.6 -1.58436 -0.929712 0
M  V30 10834 C 1072.67 -2.74882 2.3169 0
M  V30 10835 C 1072.33 -2.5443 3.79624 0
M  V30 10836 C 1073.33 -2.19307 4.71382 0
M  V30 10837 C 1071.01 -2.69557 4.23845 0
M  V30 10838 C 1073.01 -1.99571 6.05351 0
M  V30 10839 C 1070.69 -2.49437 5.57875 0
M  V30 10840 C 1071.69 -2.14497 6.48444 0
M  V30 10841 O 1071.38 -1.94567 7.79999 0
M  V30 10842 H 1071.11 -0.457542 0.497626 0
M  V30 10843 H 1073.66 -0.842145 1.87342 0
M  V30 10844 H 1071.89 -3.39669 1.8483 0
M  V30 10845 H 1073.58 -3.3675 2.26615 0
M  V30 10846 H 1074.35 -2.0722 4.38503 0
M  V30 10847 H 1070.23 -2.95733 3.53642 0
M  V30 10848 H 1073.77 -1.72222 6.76007 0
M  V30 10849 H 1069.67 -2.61119 5.90328 0
M  V30 10850 H 1070.44 -2.092 7.91314 0
M  V30 10851 N 1073.1 -1.28322 -0.914942 0
M  V30 10852 C 1074.33 -1.18083 -1.69529 0
M  V30 10853 C 1074.74 0.263274 -1.87359 0
M  V30 10854 O 1074.08 1.18988 -1.39955 0
M  V30 10855 C 1074.14 -1.8062 -3.10832 0
M  V30 10856 C 1073.81 -3.29861 -3.16292 0
M  V30 10857 C 1074.8 -4.26313 -2.97578 0
M  V30 10858 C 1072.49 -3.70797 -3.38843 0
M  V30 10859 C 1074.48 -5.61677 -3.01326 0
M  V30 10860 C 1072.17 -5.06287 -3.42223 0
M  V30 10861 C 1073.17 -6.01537 -3.23485 0
M  V30 10862 O 1072.86 -7.34556 -3.26624 0
M  V30 10863 H 1072.59 -0.410931 -0.53676 0
M  V30 10864 H 1075.14 -1.6994 -1.15367 0
M  V30 10865 H 1073.37 -1.23255 -3.66531 0
M  V30 10866 H 1075.06 -1.64915 -3.70888 0
M  V30 10867 H 1075.83 -3.96023 -2.79984 0
M  V30 10868 H 1071.71 -2.97124 -3.52475 0
M  V30 10869 H 1075.25 -6.36 -2.86618 0
M  V30 10870 H 1071.15 -5.36228 -3.59346 0
M  V30 10871 H 1071.92 -7.43167 -3.42994 0
M  V30 10872 N 1074.58 1.12322 -1.10551 0
M  V30 10873 C 1075.81 1.87679 -0.87087 0
M  V30 10874 C 1076.22 1.79711 0.578733 0
M  V30 10875 O 1075.58 1.17185 1.39907 0
M  V30 10876 C 1075.63 3.36846 -1.31213 0
M  V30 10877 O 1075.35 3.44626 -2.70489 0
M  V30 10878 C 1076.85 4.29138 -1.11156 0
M  V30 10879 H 1074.07 0.593788 -0.3125 0
M  V30 10880 H 1076.62 1.42116 -1.47048 0
M  V30 10881 H 1074.77 3.79948 -0.756169 0
M  V30 10882 H 1075.18 4.37441 -2.89389 0
M  V30 10883 H 1076.66 5.32082 -1.46944 0
M  V30 10884 H 1077.14 4.39171 -0.0502963 0
M  V30 10885 H 1077.74 3.91818 -1.65405 0
M  V30 10886 N 1076.06 0.894434 1.2976 0
M  V30 10887 C 1077.29 0.532143 1.99629 0
M  V30 10888 C 1077.69 -0.886234 1.6716 0
M  V30 10889 O 1077.04 -1.59573 0.910065 0
M  V30 10890 C 1077.1 0.638335 3.53787 0
M  V30 10891 C 1076.76 2.02273 4.09798 0
M  V30 10892 C 1077.76 2.99327 4.25087 0
M  V30 10893 C 1075.45 2.33069 4.44954 0
M  V30 10894 C 1077.44 4.25304 4.74758 0
M  V30 10895 C 1075.13 3.59289 4.94322 0
M  V30 10896 C 1076.12 4.55222 5.09178 0
M  V30 10897 O 1075.81 5.79202 5.57477 0
M  V30 10898 H 1075.54 0.203326 0.644697 0
M  V30 10899 H 1078.1 1.2043 1.6639 0
M  V30 10900 H 1076.33 -0.0908338 3.86593 0
M  V30 10901 H 1078.02 0.285956 4.04891 0
M  V30 10902 H 1078.78 2.76849 3.9822 0
M  V30 10903 H 1074.66 1.59162 4.32653 0
M  V30 10904 H 1078.21 5.00189 4.86269 0
M  V30 10905 H 1074.1 3.816 5.20626 0
M  V30 10906 H 1074.87 5.81717 5.75802 0
M  V30 10907 N 1077.53 -1.43282 0.656365 0
M  V30 10908 C 1078.81 -1.9534 0.100816 0
M  V30 10909 C 1079.19 -1.59755 -1.37992 0
M  V30 10910 O 1078.54 -0.884264 -2.10697 0
M  V30 10911 C 1078.75 -3.47237 0.35038 0
M  V30 10912 C 1080.1 -4.23822 0.257001 0
M  V30 10913 O 1081.12 -3.55073 0.283111 0
M  V30 10914 O 1079.98 -5.46192 0.183397 0
M  V30 10915 H 1077.07 -0.826963 -0.00780287 0
M  V30 10916 H 1079.62 -1.53205 0.72982 0
M  V30 10917 H 1078.39 -3.66276 1.37685 0
M  V30 10918 H 1078.02 -3.96378 -0.311539 0
M  V30 10919 N 1079.01 -0.398486 -1.52479 0
M  V30 10920 C 1079.92 0.439328 -2.3045 0
M  V30 10921 C 1080.94 1.06322 -1.37738 0
M  V30 10922 O 1082.12 1.06704 -1.7081 0
M  V30 10923 C 1079.18 1.54655 -3.10294 0
M  V30 10924 C 1078.24 0.946824 -4.18729 0
M  V30 10925 C 1077.47 2.00129 -4.94757 0
M  V30 10926 O 1077.7 3.2178 -4.70971 0
M  V30 10927 O 1076.63 1.61345 -5.79872 0
M  V30 10928 H 1080.46 -0.196118 -3.03066 0
M  V30 10929 H 1078.04 -0.161961 -1.4852 0
M  V30 10930 H 1079.92 2.18958 -3.60049 0
M  V30 10931 H 1078.6 2.1668 -2.40482 0
M  V30 10932 H 1077.51 0.266802 -3.73147 0
M  V30 10933 H 1078.84 0.370664 -4.90802 0
M  V30 10934 N 1080.49 1.57075 -0.12858 0
M  V30 10935 C 1081.42 2.18833 0.814519 0
M  V30 10936 C 1082.4 1.13114 1.2704 0
M  V30 10937 O 1083.59 1.41387 1.33129 0
M  V30 10938 C 1080.72 2.79535 2.06101 0
M  V30 10939 C 1079.67 3.9092 1.74257 0
M  V30 10940 C 1079 4.38473 3.06015 0
M  V30 10941 C 1080.3 5.1257 1.00345 0
M  V30 10942 H 1081.99 2.97895 0.299862 0
M  V30 10943 H 1079.54 1.4329 0.14279 0
M  V30 10944 H 1081.49 3.21401 2.72543 0
M  V30 10945 H 1080.21 1.97777 2.59907 0
M  V30 10946 H 1078.87 3.49645 1.102 0
M  V30 10947 H 1078.52 3.53561 3.57776 0
M  V30 10948 H 1078.22 5.13591 2.85479 0
M  V30 10949 H 1079.75 4.82997 3.7356 0
M  V30 10950 H 1081.16 5.51395 1.56959 0
M  V30 10951 H 1079.56 5.93333 0.898693 0
M  V30 10952 H 1080.63 4.84899 -0.0081335 0
M  V30 10953 N 1081.97 -0.145205 1.5693 0
M  V30 10954 C 1082.92 -1.17923 1.98401 0
M  V30 10955 C 1083.89 -1.42591 0.851885 0
M  V30 10956 O 1085.07 -1.54896 1.11409 0
M  V30 10957 C 1082.21 -2.50727 2.37128 0
M  V30 10958 C 1081.32 -2.33218 3.63639 0
M  V30 10959 C 1080.46 -3.5907 3.91462 0
M  V30 10960 C 1079.5 -3.36605 5.11237 0
M  V30 10961 N 1078.64 -4.54592 5.35061 0
M  V30 10962 H 1083.48 -0.818573 2.86537 0
M  V30 10963 H 1081.01 -0.392739 1.4176 0
M  V30 10964 H 1082.97 -3.28165 2.57611 0
M  V30 10965 H 1081.6 -2.84736 1.52069 0
M  V30 10966 H 1080.65 -1.46826 3.50922 0
M  V30 10967 H 1081.96 -2.12579 4.51234 0
M  V30 10968 H 1081.12 -4.44936 4.12453 0
M  V30 10969 H 1079.86 -3.82715 3.02293 0
M  V30 10970 H 1078.86 -2.49127 4.90118 0
M  V30 10971 H 1080.09 -3.14357 6.01961 0
M  V30 10972 H 1078.03 -4.78406 4.48847 0
M  V30 10973 H 1077.95 -4.36962 6.16928 0
M  V30 10974 H 1079.22 -5.41666 5.60551 0
M  V30 10975 N 1083.45 -1.52049 -0.414609 0
M  V30 10976 C 1084.41 -1.74382 -1.4874 0
M  V30 10977 C 1085.41 -0.613701 -1.48628 0
M  V30 10978 O 1086.6 -0.88152 -1.50249 0
M  V30 10979 C 1083.73 -1.82116 -2.88178 0
M  V30 10980 H 1084.93 -2.70147 -1.30233 0
M  V30 10981 H 1082.48 -1.42382 -0.644756 0
M  V30 10982 H 1083.21 -0.882457 -3.12063 0
M  V30 10983 H 1083 -2.64268 -2.89663 0
M  V30 10984 H 1084.49 -2.01155 -3.65959 0
M  V30 10985 N 1084.93 0.6715 -1.42579 0
M  V30 10986 C 1085.89 1.76676 -1.46008 0
M  V30 10987 C 1086.89 1.57007 -0.347213 0
M  V30 10988 O 1088.08 1.63238 -0.608185 0
M  V30 10989 C 1085.21 3.15348 -1.29494 0
M  V30 10990 H 1086.4 1.75021 -2.43531 0
M  V30 10991 H 1083.96 0.881444 -1.29075 0
M  V30 10992 H 1084.69 3.22626 -0.32906 0
M  V30 10993 H 1084.48 3.31028 -2.10149 0
M  V30 10994 H 1085.97 3.95251 -1.34784 0
M  V30 10995 N 1086.4 1.28806 0.908124 0
M  V30 10996 C 1087.68 1.06981 1.63751 0
M  V30 10997 C 1088.06 -0.388936 2.07486 0
M  V30 10998 O 1087.41 -1.37611 1.82415 0
M  V30 10999 C 1087.62 2.04962 2.82474 0
M  V30 11000 C 1088.97 2.35418 3.5336 0
M  V30 11001 O 1089.99 2.03091 2.92631 0
M  V30 11002 O 1088.85 2.90617 4.62822 0
M  V30 11003 H 1085.94 0.409267 0.71863 0
M  V30 11004 H 1088.49 1.40146 0.956934 0
M  V30 11005 H 1087.26 3.03254 2.47291 0
M  V30 11006 H 1086.88 1.72476 3.58242 0
M  V30 11007 N 1087.88 -1.11734 1.11145 0
M  V30 11008 C 1088.83 -2.17683 0.766979 0
M  V30 11009 C 1089.8 -1.64051 -0.260108 0
M  V30 11010 O 1090.98 -1.90302 -0.137723 0
M  V30 11011 C 1088.12 -3.44442 0.212982 0
M  V30 11012 C 1087.24 -4.12094 1.29626 0
M  V30 11013 C 1086.37 -5.26526 0.703127 0
M  V30 11014 C 1085.41 -5.86057 1.76647 0
M  V30 11015 N 1084.55 -6.91889 1.19306 0
M  V30 11016 H 1089.39 -2.46495 1.67465 0
M  V30 11017 H 1086.92 -1.21011 0.836353 0
M  V30 11018 H 1088.88 -4.17009 -0.126162 0
M  V30 11019 H 1087.51 -3.16025 -0.657888 0
M  V30 11020 H 1086.56 -3.37631 1.75241 0
M  V30 11021 H 1087.88 -4.52398 2.10089 0
M  V30 11022 H 1087.03 -6.05888 0.313859 0
M  V30 11023 H 1085.77 -4.87519 -0.132856 0
M  V30 11024 H 1084.77 -5.05375 2.16508 0
M  V30 11025 H 1086 -6.27132 2.60543 0
M  V30 11026 H 1083.95 -6.54906 0.378664 0
M  V30 11027 H 1083.86 -7.30832 1.93443 0
M  V30 11028 H 1085.13 -7.75062 0.830578 0
M  V30 11029 N 1089.36 -0.901303 -1.29284 0
M  V30 11030 C 1090.77 -0.576317 -1.77582 0
M  V30 11031 C 1091.12 0.908078 -1.73921 0
M  V30 11032 O 1090.25 1.71006 -1.32611 0
M  V30 11033 C 1090.84 -1.03938 -3.22463 0
M  V30 11034 C 1089.4 -0.765533 -3.68533 0
M  V30 11035 C 1088.55 -1.21318 -2.49354 0
M  V30 11036 H 1091.5 -1.08386 -1.15923 0
M  V30 11037 H 1091.52 -0.375367 -3.78644 0
M  V30 11038 H 1091.03 -2.11977 -3.25096 0
M  V30 11039 H 1089.13 0.302176 -3.71373 0
M  V30 11040 H 1089.25 -1.36454 -4.59257 0
M  V30 11041 H 1087.61 -0.632141 -2.46731 0
M  V30 11042 H 1088.39 -2.30165 -2.54714 0
M  V30 11043 N 1090.84 1.42931 -0.663954 0
M  V30 11044 C 1092.07 2.06028 -0.189808 0
M  V30 11045 C 1092.48 1.49827 1.14879 0
M  V30 11046 O 1091.84 0.633778 1.71142 0
M  V30 11047 C 1091.89 3.61349 -0.104343 0
M  V30 11048 O 1091.61 4.15463 -1.39004 0
M  V30 11049 C 1093.11 4.4154 0.394599 0
M  V30 11050 H 1090.33 0.664259 -0.0948744 0
M  V30 11051 H 1092.87 1.83255 -0.907632 0
M  V30 11052 H 1091.03 3.83271 0.564103 0
M  V30 11053 H 1091.44 5.09233 -1.25626 0
M  V30 11054 H 1092.92 5.50525 0.403329 0
M  V30 11055 H 1093.39 4.1534 1.4279 0
M  V30 11056 H 1094 4.24612 -0.241729 0
M  V30 11057 N 1092.32 0.406567 1.52266 0
M  V30 11058 C 1093.26 -0.420182 2.26943 0
M  V30 11059 C 1094.23 -1.04323 1.29251 0
M  V30 11060 O 1095.42 -1.06799 1.5811 0
M  V30 11061 C 1092.56 -1.5323 3.09216 0
M  V30 11062 C 1091.67 -0.930419 4.21862 0
M  V30 11063 C 1090.81 -2.01502 4.91498 0
M  V30 11064 C 1089.84 -1.38994 5.9611 0
M  V30 11065 N 1088.98 -2.41458 6.59274 0
M  V30 11066 H 1093.82 0.223066 2.97164 0
M  V30 11067 H 1091.36 0.121842 1.46595 0
M  V30 11068 H 1093.32 -2.18803 3.5522 0
M  V30 11069 H 1091.95 -2.14561 2.41171 0
M  V30 11070 H 1091 -0.163809 3.80047 0
M  V30 11071 H 1092.31 -0.433785 4.9691 0
M  V30 11072 H 1091.46 -2.74807 5.40894 0
M  V30 11073 H 1090.2 -2.5453 4.16012 0
M  V30 11074 H 1089.21 -0.642213 5.46036 0
M  V30 11075 H 1090.43 -0.867386 6.73538 0
M  V30 11076 H 1088.38 -2.93623 5.86619 0
M  V30 11077 H 1088.3 -1.96599 7.2999 0
M  V30 11078 H 1089.56 -3.14341 7.13309 0
M  V30 11079 N 1093.79 -1.57004 0.136909 0
M  V30 11080 C 1095.04 -1.94972 -0.51662 0
M  V30 11081 C 1095.36 -1.02367 -1.66674 0
M  V30 11082 O 1096.56 -1.29873 -2.38423 0
M  V30 11083 C 1095.02 -3.4657 -0.970435 0
M  V30 11084 C 1094.63 -4.47741 0.152204 0
M  V30 11085 C 1096.37 -3.93423 -1.59432 0
M  V30 11086 C 1094.28 -5.90537 -0.319315 0
M  V30 11087 H 1093.21 -0.727873 -0.196766 0
M  V30 11088 H 1095.86 -1.82181 0.219637 0
M  V30 11089 H 1094.24 -3.54657 -1.76165 0
M  V30 11090 H 1095.41 -4.5134 0.928925 0
M  V30 11091 H 1093.73 -4.10746 0.683867 0
M  V30 11092 H 1096.33 -4.97539 -1.95856 0
M  V30 11093 H 1096.67 -3.34404 -2.47951 0
M  V30 11094 H 1097.2 -3.8821 -0.868193 0
M  V30 11095 H 1093.94 -6.53352 0.530248 0
M  V30 11096 H 1093.46 -5.90321 -1.06213 0
M  V30 11097 H 1095.14 -6.42346 -0.774662 0
M  V30 11098 N 1095.27 0.136881 -1.57004 0
M  V30 11099 C 1096.5 0.862436 -1.88068 0
M  V30 11100 C 1096.92 1.74274 -0.726227 0
M  V30 11101 O 1096.27 1.79956 0.30366 0
M  V30 11102 C 1096.32 1.71076 -3.18458 0
M  V30 11103 O 1096.04 0.865918 -4.29457 0
M  V30 11104 C 1097.55 2.54302 -3.63105 0
M  V30 11105 H 1094.77 0.248865 -0.623143 0
M  V30 11106 H 1097.31 0.126633 -2.04108 0
M  V30 11107 H 1095.46 2.39951 -3.04142 0
M  V30 11108 H 1095.88 1.4493 -5.04079 0
M  V30 11109 H 1097.35 3.09384 -4.57149 0
M  V30 11110 H 1097.83 3.3082 -2.88886 0
M  V30 11111 H 1098.44 1.907 -3.80149 0
M  V30 11112 N 1096.75 1.52266 0.40654 0
M  V30 11113 C 1098 1.66123 1.15097 0
M  V30 11114 C 1098.32 0.394836 1.90961 0
M  V30 11115 O 1097.59 -0.590349 1.86793 0
M  V30 11116 H 1096.17 0.612317 0.427875 0
M  V30 11117 H 1098.83 1.89318 0.463106 0
M  V30 11118 H 1097.93 2.50351 1.86361 0
M  V30 11119 N 1098.23 -0.663929 1.42933 0
M  V30 11120 C 1099.18 -1.79843 1.4751 0
M  V30 11121 C 1100.17 -1.65751 0.349727 0
M  V30 11122 O 1101.38 -1.72227 0.523239 0
M  V30 11123 H 1097.75 -0.593176 0.462219 0
M  V30 11124 H 1099.72 -1.73102 2.4306 0
M  V30 11125 C 1098.47 -3.18053 1.4049 0
M  V30 11126 H 1097.79 -3.29529 2.26386 0
M  V30 11127 H 1099.23 -3.97423 1.47754 0
M  V30 11128 C 1097.69 -3.36682 0.121076 0
M  V30 11129 O 1098.22 -3.93202 -0.821874 0
M  V30 11130 N 1096.43 -2.90579 0.0347141 0
M  V30 11131 H 1095.98 -2.44769 0.802852 0
M  V30 11132 H 1095.93 -3.03421 -0.823607 0
M  V30 11133 N 1099.71 -1.29285 -0.901281 0
M  V30 11134 C 1100.95 -1.18348 -1.65424 0
M  V30 11135 C 1101.31 0.26276 -1.90597 0
M  V30 11136 O 1100.6 1.1868 -1.50418 0
M  V30 11137 C 1100.79 -1.92865 -3.00895 0
M  V30 11138 C 1100.62 -3.44588 -2.88945 0
M  V30 11139 C 1099.39 -4.13938 -2.89799 0
M  V30 11140 C 1101.59 -4.40113 -2.66092 0
M  V30 11141 N 1099.57 -5.52036 -2.68569 0
M  V30 11142 C 1100.94 -5.65661 -2.53827 0
M  V30 11143 C 1103 -4.29895 -2.51187 0
M  V30 11144 C 1101.7 -6.8215 -2.28175 0
M  V30 11145 C 1103.73 -5.46134 -2.26917 0
M  V30 11146 C 1103.09 -6.70653 -2.15416 0
M  V30 11147 H 1099.19 -0.48806 -0.611 0
M  V30 11148 H 1101.77 -1.63094 -1.06341 0
M  V30 11149 H 1099.94 -1.50535 -3.58042 0
M  V30 11150 H 1101.68 -1.74207 -3.65286 0
M  V30 11151 H 1098.43 -3.65625 -3.01023 0
M  V30 11152 H 1098.86 -6.24662 -2.61011 0
M  V30 11153 H 1103.5 -3.34321 -2.58823 0
M  V30 11154 H 1101.22 -7.77781 -2.19277 0
M  V30 11155 H 1104.8 -5.40126 -2.1623 0
M  V30 11156 H 1103.68 -7.5908 -1.96896 0
M  V30 11157 N 1101.18 1.11143 -1.11736 0
M  V30 11158 C 1102.41 1.86745 -0.890727 0
M  V30 11159 C 1102.83 1.80315 0.55964 0
M  V30 11160 O 1102.18 1.18663 1.38656 0
M  V30 11161 C 1102.24 3.35436 -1.34779 0
M  V30 11162 O 1101.96 3.41738 -2.74129 0
M  V30 11163 C 1103.46 4.27935 -1.15702 0
M  V30 11164 H 1100.68 0.59044 -0.318781 0
M  V30 11165 H 1103.22 1.40549 -1.48547 0
M  V30 11166 H 1101.38 3.79125 -0.796425 0
M  V30 11167 H 1101.79 4.34347 -2.94012 0
M  V30 11168 H 1103.26 5.30494 -1.52579 0
M  V30 11169 H 1103.74 4.39093 -0.0968735 0
M  V30 11170 H 1104.35 3.90042 -1.69551 0
M  V30 11171 N 1102.66 0.908147 1.28804 0
M  V30 11172 C 1103.63 0.397058 2.25735 0
M  V30 11173 C 1104.63 -0.473483 1.53671 0
M  V30 11174 O 1105.82 -0.277335 1.71978 0
M  V30 11175 C 1102.95 -0.431392 3.38159 0
M  V30 11176 H 1104.14 1.25323 2.72459 0
M  V30 11177 H 1101.69 0.687041 1.4039 0
M  V30 11178 H 1102.43 -1.3072 2.96787 0
M  V30 11179 H 1102.21 0.192502 3.91627 0
M  V30 11180 H 1103.7 -0.78 4.10251 0
M  V30 11181 N 1104.14 -1.42577 0.671525 0
M  V30 11182 C 1105.37 -2.06442 0.199152 0
M  V30 11183 C 1105.79 -1.50104 -1.1336 0
M  V30 11184 O 1105.15 -0.618211 -1.70434 0
M  V30 11185 C 1105.2 -3.60323 0.141215 0
M  V30 11186 O 1104.3 -4.02655 -0.891238 0
M  V30 11187 H 1103.64 -0.655919 0.103277 0
M  V30 11188 H 1106.17 -1.82768 0.919614 0
M  V30 11189 H 1106.18 -4.07984 -0.0360209 0
M  V30 11190 H 1104.86 -4.00702 1.11403 0
M  V30 11191 H 1103.43 -3.66549 -0.685309 0
M  V30 11192 N 1105.62 -0.414636 -1.52048 0
M  V30 11193 C 1106.87 0.159034 -2.01473 0
M  V30 11194 C 1107.19 1.45176 -1.30188 0
M  V30 11195 O 1106.46 1.91134 -0.429469 0
M  V30 11196 H 1105.04 0.0617604 -0.744443 0
M  V30 11197 H 1107.7 -0.552141 -1.86916 0
M  V30 11198 H 1106.8 0.351217 -3.10118 0
M  V30 11199 N 1107.1 1.56929 -0.145233 0
M  V30 11200 C 1108.06 2.15483 0.781002 0
M  V30 11201 C 1109.06 1.09617 1.17647 0
M  V30 11202 O 1110.25 1.35265 1.09768 0
M  V30 11203 C 1107.38 2.7165 2.05959 0
M  V30 11204 H 1108.57 2.98667 0.271685 0
M  V30 11205 H 1106.13 1.55952 0.1042 0
M  V30 11206 H 1106.86 1.92127 2.61262 0
M  V30 11207 H 1106.65 3.491 1.78526 0
M  V30 11208 H 1108.14 3.16769 2.72116 0
M  V30 11209 N 1108.58 -0.128553 1.57075 0
M  V30 11210 C 1109.8 -0.85245 1.88523 0
M  V30 11211 C 1110.22 -1.73886 0.735459 0
M  V30 11212 O 1109.58 -1.80114 -0.294113 0
M  V30 11213 C 1109.63 -1.69384 3.19361 0
M  V30 11214 O 1109.35 -0.84313 4.2991 0
M  V30 11215 C 1110.85 -2.52373 3.64449 0
M  V30 11216 H 1108.07 -0.245556 0.624454 0
M  V30 11217 H 1110.61 -0.115807 2.04172 0
M  V30 11218 H 1108.77 -2.38335 3.0541 0
M  V30 11219 H 1109.18 -1.42255 5.0484 0
M  V30 11220 H 1110.66 -3.06955 4.58784 0
M  V30 11221 H 1111.13 -3.29283 2.90636 0
M  V30 11222 H 1111.74 -1.88681 3.81155 0
M  V30 11223 N 1110.05 -1.5248 -0.398459 0
M  V30 11224 C 1111 -1.72965 -1.4855 0
M  V30 11225 C 1111.99 -0.583628 -1.49942 0
M  V30 11226 O 1113.18 -0.841106 -1.55738 0
M  V30 11227 C 1110.31 -1.89339 -2.86366 0
M  V30 11228 C 1109.39 -3.09845 -2.8958 0
M  V30 11229 N 1109.79 -4.32365 -2.62477 0
M  V30 11230 C 1108.08 -3.09897 -3.20749 0
M  V30 11231 C 1108.78 -5.13908 -2.72532 0
M  V30 11232 N 1107.76 -4.49387 -3.05864 0
M  V30 11233 H 1111.56 -2.65327 -1.26406 0
M  V30 11234 H 1109.08 -1.50658 -0.606299 0
M  V30 11235 H 1111.07 -2.02134 -3.64619 0
M  V30 11236 H 1109.73 -0.981841 -3.095 0
M  V30 11237 H 1110.74 -4.60659 -2.36673 0
M  V30 11238 H 1107.42 -2.28518 -3.49408 0
M  V30 11239 H 1108.81 -6.21548 -2.55202 0
M  V30 11240 N 1111.53 0.65634 -1.43283 0
M  V30 11241 C 1112.77 1.4281 -1.46235 0
M  V30 11242 C 1113.14 1.9182 -0.0830126 0
M  V30 11243 O 1114.34 2.68797 0.0127701 0
M  V30 11244 C 1112.61 2.58008 -2.47319 0
M  V30 11245 S 1114.17 3.46582 -2.69122 0
M  V30 11246 H 1110.98 0.487523 -0.517534 0
M  V30 11247 H 1113.59 0.762298 -1.80026 0
M  V30 11248 H 1112.29 2.20271 -3.46279 0
M  V30 11249 H 1111.82 3.29441 -2.15016 0
M  V30 11250 H 1113.84 4.54629 -1.98813 0
M  V30 11251 N 1113.01 1.29761 0.894412 0
M  V30 11252 C 1114.29 1.08711 1.62608 0
M  V30 11253 C 1114.67 -0.366907 2.07887 0
M  V30 11254 O 1114.01 -1.35669 1.83865 0
M  V30 11255 C 1114.22 2.07947 2.80284 0
M  V30 11256 C 1115.57 2.39153 3.50843 0
M  V30 11257 O 1116.6 2.06183 2.9046 0
M  V30 11258 O 1115.46 2.95509 4.59713 0
M  V30 11259 H 1112.55 0.416866 0.714249 0
M  V30 11260 H 1115.1 1.41153 0.942015 0
M  V30 11261 H 1113.87 3.05859 2.44061 0
M  V30 11262 H 1113.49 1.76266 3.56393 0
M  V30 11263 N 1114.49 -1.10549 1.12324 0
M  V30 11264 C 1115.45 -2.15039 0.793156 0
M  V30 11265 C 1116.45 -1.59651 -0.19192 0
M  V30 11266 O 1117.64 -1.74167 0.0337262 0
M  V30 11267 C 1114.77 -3.40433 0.17842 0
M  V30 11268 H 1115.97 -2.4575 1.71892 0
M  V30 11269 H 1113.52 -1.25892 0.926333 0
M  V30 11270 H 1114.25 -3.15338 -0.757122 0
M  V30 11271 H 1114.04 -3.81921 0.887645 0
M  V30 11272 H 1115.53 -4.17584 -0.0360724 0
M  V30 11273 N 1115.97 -0.914965 -1.28321 0
M  V30 11274 C 1117.21 -0.549562 -1.95212 0
M  V30 11275 C 1117.54 0.904658 -1.71842 0
M  V30 11276 O 1116.82 1.64354 -1.04009 0
M  V30 11277 C 1117.1 -0.860927 -3.49657 0
M  V30 11278 C 1116.96 -2.36797 -3.82423 0
M  V30 11279 C 1118.27 -0.357926 -4.38642 0
M  V30 11280 H 1115.39 -0.201136 -0.709023 0
M  V30 11281 H 1118.04 -1.14443 -1.51667 0
M  V30 11282 H 1116.19 -0.354665 -3.86878 0
M  V30 11283 H 1117.86 -2.94494 -3.55065 0
M  V30 11284 H 1116.1 -2.82245 -3.29424 0
M  V30 11285 H 1116.77 -2.53637 -4.90278 0
M  V30 11286 H 1119.25 -0.791636 -4.085 0
M  V30 11287 H 1118.12 -0.604855 -5.45557 0
M  V30 11288 H 1118.38 0.741775 -4.35833 0
M  V30 11289 N 1117.44 1.42219 -0.679077 0
M  V30 11290 C 1118.67 2.05815 -0.211649 0
M  V30 11291 C 1119.09 1.51037 1.13284 0
M  V30 11292 O 1118.44 0.651894 1.7046 0
M  V30 11293 C 1118.49 3.61218 -0.142663 0
M  V30 11294 O 1118.22 4.13965 -1.43402 0
M  V30 11295 C 1119.72 4.41934 0.347746 0
M  V30 11296 H 1116.94 0.663215 -0.101914 0
M  V30 11297 H 1119.48 1.82282 -0.927017 0
M  V30 11298 H 1117.64 3.83848 0.52342 0
M  V30 11299 H 1118.05 5.07872 -1.31021 0
M  V30 11300 H 1119.52 5.50921 0.344916 0
M  V30 11301 H 1120 4.16832 1.38377 0
M  V30 11302 H 1120.61 4.24332 -0.286751 0
M  V30 11303 N 1118.92 0.422693 1.51826 0
M  V30 11304 C 1120.17 -0.148348 2.01555 0
M  V30 11305 C 1120.49 -1.44483 1.30956 0
M  V30 11306 O 1119.76 -1.90904 0.439599 0
M  V30 11307 H 1118.34 -0.0578116 0.74476 0
M  V30 11308 H 1121 0.562046 1.8662 0
M  V30 11309 H 1120.1 -0.334766 3.10299 0
M  V30 11310 N 1120.4 -1.5685 0.153553 0
M  V30 11311 C 1121.33 -2.20101 -0.779601 0
M  V30 11312 C 1122.31 -1.15121 -1.25225 0
M  V30 11313 O 1123.5 -1.43487 -1.30862 0
M  V30 11314 C 1120.63 -2.82778 -2.01628 0
M  V30 11315 C 1119.58 -3.93643 -1.68015 0
M  V30 11316 C 1118.91 -4.43286 -2.99001 0
M  V30 11317 C 1120.21 -5.14102 -0.921774 0
M  V30 11318 H 1121.9 -2.98334 -0.252432 0
M  V30 11319 H 1119.45 -1.43499 -0.119975 0
M  V30 11320 H 1121.4 -3.25696 -2.67395 0
M  V30 11321 H 1120.12 -2.01887 -2.56728 0
M  V30 11322 H 1118.78 -3.51354 -1.04624 0
M  V30 11323 H 1118.43 -3.59208 -3.52106 0
M  V30 11324 H 1118.13 -5.18068 -2.77272 0
M  V30 11325 H 1119.65 -4.88878 -3.65828 0
M  V30 11326 H 1121.07 -5.53823 -1.48167 0
M  V30 11327 H 1119.46 -5.94687 -0.804185 0
M  V30 11328 H 1120.53 -4.84825 0.0852757 0
M  V30 11329 N 1121.88 0.120221 -1.57141 0
M  V30 11330 C 1123.13 0.826586 -1.84423 0
M  V30 11331 C 1123.45 1.80473 -0.738553 0
M  V30 11332 O 1122.72 1.94454 0.23755 0
M  V30 11333 H 1121.3 0.308246 -0.680436 0
M  V30 11334 H 1123.96 0.107835 -1.94601 0
M  V30 11335 H 1123.05 1.37256 -2.80298 0
M  V30 11336 N 1123.36 1.52689 0.390367 0
M  V30 11337 C 1124.3 1.7737 1.47677 0
M  V30 11338 C 1125.27 0.616864 1.54221 0
M  V30 11339 O 1126.46 0.856437 1.70499 0
M  V30 11340 C 1123.6 1.94715 2.84921 0
M  V30 11341 C 1122.71 3.22405 2.8754 0
M  V30 11342 C 1121.85 3.30074 4.16202 0
M  V30 11343 C 1120.89 4.51893 4.12867 0
M  V30 11344 N 1120.02 4.56851 5.33134 0
M  V30 11345 H 1124.86 2.70084 1.25932 0
M  V30 11346 H 1122.4 1.33813 0.610943 0
M  V30 11347 H 1124.36 2.02755 3.64618 0
M  V30 11348 H 1122.99 1.05363 3.0512 0
M  V30 11349 H 1122.04 3.23442 2.00223 0
M  V30 11350 H 1123.35 4.12156 2.80943 0
M  V30 11351 H 1122.51 3.3729 5.04302 0
M  V30 11352 H 1121.24 2.38295 4.25519 0
M  V30 11353 H 1120.25 4.44803 3.23156 0
M  V30 11354 H 1121.47 5.44987 4.05174 0
M  V30 11355 H 1119.42 3.67963 5.43083 0
M  V30 11356 H 1119.34 5.40472 5.28607 0
M  V30 11357 H 1120.61 4.6832 6.23134 0
M  V30 11358 N 1124.83 -0.648732 1.43629 0
M  V30 11359 C 1126.25 -1.23001 1.40455 0
M  V30 11360 C 1126.6 -1.95886 0.110897 0
M  V30 11361 O 1125.72 -2.01485 -0.789487 0
M  V30 11362 C 1126.32 -2.23716 2.54434 0
M  V30 11363 C 1124.88 -2.77311 2.54511 0
M  V30 11364 C 1124.02 -1.52024 2.31914 0
M  V30 11365 H 1126.97 -0.440473 1.52465 0
M  V30 11366 H 1126.99 -3.05979 2.26179 0
M  V30 11367 H 1126.51 -1.7064 3.48574 0
M  V30 11368 H 1124.61 -3.34437 1.64263 0
M  V30 11369 H 1124.72 -3.2455 3.52426 0
M  V30 11370 H 1123.08 -1.79531 1.80667 0
M  V30 11371 H 1123.87 -1.00876 3.28145 0
M  V30 11372 N 1126.31 -1.30234 -0.887518 0
M  V30 11373 C 1127.56 -1.1891 -1.6391 0
M  V30 11374 C 1127.89 0.256749 -1.92798 0
M  V30 11375 O 1127.14 1.20047 -1.54555 0
M  V30 11376 C 1127.44 -1.96046 -2.98832 0
M  V30 11377 C 1127.11 -3.45683 -2.89507 0
M  V30 11378 C 1125.77 -3.86489 -2.8667 0
M  V30 11379 C 1128.12 -4.40983 -2.7782 0
M  V30 11380 C 1125.45 -5.2089 -2.69982 0
M  V30 11381 C 1127.8 -5.75489 -2.6267 0
M  V30 11382 C 1126.47 -6.15537 -2.58207 0
M  V30 11383 H 1125.74 -0.435123 -0.599791 0
M  V30 11384 H 1128.38 -1.61308 -1.03209 0
M  V30 11385 H 1126.69 -1.46275 -3.6347 0
M  V30 11386 H 1128.38 -1.84678 -3.55942 0
M  V30 11387 H 1124.97 -3.13255 -2.92523 0
M  V30 11388 H 1129.16 -4.10401 -2.79079 0
M  V30 11389 H 1124.41 -5.51014 -2.6494 0
M  V30 11390 H 1128.59 -6.48973 -2.526 0
M  V30 11391 H 1126.22 -7.19627 -2.45034 0
M  V30 11392 N 1127.79 1.09952 -1.12909 0
M  V30 11393 C 1129.04 1.82286 -0.888797 0
M  V30 11394 C 1129.37 1.85218 0.58379 0
M  V30 11395 O 1128.64 1.31645 1.43177 0
M  V30 11396 C 1128.93 3.28706 -1.47053 0
M  V30 11397 C 1128.78 3.34078 -3.01184 0
M  V30 11398 C 1130.1 4.25233 -1.13424 0
M  V30 11399 H 1127.22 0.661803 -0.324324 0
M  V30 11400 H 1129.86 1.28833 -1.3965 0
M  V30 11401 H 1128.01 3.74356 -1.03874 0
M  V30 11402 H 1129.68 2.96871 -3.5308 0
M  V30 11403 H 1127.93 2.73825 -3.36455 0
M  V30 11404 H 1128.6 4.37202 -3.36984 0
M  V30 11405 H 1131.07 3.87841 -1.50726 0
M  V30 11406 H 1129.95 5.26033 -1.56783 0
M  V30 11407 H 1130.21 4.42075 -0.0471496 0
M  V30 11408 N 1129.27 0.921757 1.27833 0
M  V30 11409 C 1130.51 0.559906 1.94918 0
M  V30 11410 C 1130.85 -0.895532 1.72319 0
M  V30 11411 O 1130.12 -1.638 1.04879 0
M  V30 11412 C 1130.41 0.879458 3.49196 0
M  V30 11413 C 1130.26 2.38821 3.81162 0
M  V30 11414 C 1131.58 0.381183 4.38446 0
M  V30 11415 H 1128.7 0.204893 0.707946 0
M  V30 11416 H 1131.34 1.15246 1.51058 0
M  V30 11417 H 1129.49 0.375177 3.86684 0
M  V30 11418 H 1131.16 2.96373 3.53498 0
M  V30 11419 H 1129.4 2.83988 3.27923 0
M  V30 11420 H 1130.07 2.56234 4.88926 0
M  V30 11421 H 1132.55 0.813289 4.08075 0
M  V30 11422 H 1131.43 0.633778 5.45229 0
M  V30 11423 H 1131.69 -0.718651 4.3622 0
M  V30 11424 N 1130.75 -1.41857 0.686609 0
M  V30 11425 C 1131.98 -2.05401 0.222238 0
M  V30 11426 C 1132.38 -1.51731 -1.13023 0
M  V30 11427 O 1131.73 -0.656701 -1.71561 0
M  V30 11428 C 1131.79 -3.59381 0.0926608 0
M  V30 11429 C 1131.45 -4.35801 1.37573 0
M  V30 11430 C 1132.45 -4.65678 2.31171 0
M  V30 11431 C 1130.14 -4.75233 1.62661 0
M  V30 11432 C 1132.13 -5.33936 3.48125 0
M  V30 11433 C 1129.82 -5.43229 2.79902 0
M  V30 11434 C 1130.81 -5.72507 3.72458 0
M  V30 11435 O 1130.5 -6.39106 4.87646 0
M  V30 11436 H 1130.23 -0.668126 0.102876 0
M  V30 11437 H 1132.79 -1.82775 0.93714 0
M  V30 11438 H 1131.02 -3.80711 -0.67793 0
M  V30 11439 H 1132.71 -4.04529 -0.333364 0
M  V30 11440 H 1133.47 -4.35704 2.13042 0
M  V30 11441 H 1129.35 -4.51831 0.914862 0
M  V30 11442 H 1132.9 -5.56706 4.20386 0
M  V30 11443 H 1128.79 -5.72621 2.97951 0
M  V30 11444 H 1129.56 -6.576 4.87344 0
M  V30 11445 N 1132.22 -0.430739 -1.51599 0
M  V30 11446 C 1133.16 0.429107 -2.24129 0
M  V30 11447 C 1134.14 1.03019 -1.25801 0
M  V30 11448 O 1135.32 1.07392 -1.54917 0
M  V30 11449 C 1132.45 1.59749 -2.9866 0
M  V30 11450 C 1131.49 1.11773 -4.11593 0
M  V30 11451 S 1132.33 0.0651468 -5.3546 0
M  V30 11452 C 1133.48 1.23835 -6.13527 0
M  V30 11453 H 1133.71 -0.186683 -2.96713 0
M  V30 11454 H 1131.25 -0.215201 -1.52893 0
M  V30 11455 H 1133.21 2.26735 -3.42201 0
M  V30 11456 H 1131.87 2.18468 -2.25678 0
M  V30 11457 H 1131.06 1.99125 -4.62996 0
M  V30 11458 H 1130.66 0.526209 -3.7028 0
M  V30 11459 H 1132.95 2.15796 -6.42214 0
M  V30 11460 H 1133.9 0.76443 -7.03962 0
M  V30 11461 H 1134.3 1.47393 -5.44918 0
M  V30 11462 N 1133.7 1.56767 -0.161869 0
M  V30 11463 C 1134.93 2.00673 0.491314 0
M  V30 11464 C 1135.34 1.04111 1.5798 0
M  V30 11465 O 1134.68 0.0324889 1.83671 0
M  V30 11466 C 1134.75 3.41011 1.13806 0
M  V30 11467 C 1134.41 4.56595 0.192384 0
M  V30 11468 C 1135.41 5.16591 -0.585671 0
M  V30 11469 C 1133.09 5.02218 0.0909594 0
M  V30 11470 C 1135.09 6.20631 -1.45245 0
M  V30 11471 C 1132.77 6.06109 -0.77941 0
M  V30 11472 C 1133.77 6.65187 -1.54971 0
M  V30 11473 O 1133.46 7.67065 -2.40555 0
M  V30 11474 H 1133.19 0.663174 0.131059 0
M  V30 11475 H 1135.74 2.03775 -0.257896 0
M  V30 11476 H 1133.97 3.34793 1.93521 0
M  V30 11477 H 1135.66 3.68931 1.69248 0
M  V30 11478 H 1136.43 4.82232 -0.517432 0
M  V30 11479 H 1132.31 4.55953 0.680292 0
M  V30 11480 H 1135.85 6.66671 -2.05415 0
M  V30 11481 H 1131.75 6.39894 -0.848887 0
M  V30 11482 H 1132.52 7.84348 -2.33966 0
M  V30 11483 N 1135.18 -0.111886 1.57202 0
M  V30 11484 C 1136.43 -0.816794 1.84859 0
M  V30 11485 C 1136.75 -1.80079 0.748113 0
M  V30 11486 O 1136.02 -1.94578 -0.227235 0
M  V30 11487 H 1134.6 -0.304633 0.682061 0
M  V30 11488 H 1137.26 -0.097513 1.94656 0
M  V30 11489 H 1136.36 -1.35768 2.81022 0
M  V30 11490 N 1136.66 -1.52894 -0.382264 0
M  V30 11491 C 1137.9 -1.68515 -1.12829 0
M  V30 11492 C 1138.24 -0.427211 -1.89443 0
M  V30 11493 O 1137.51 0.57516 -1.85801 0
M  V30 11494 C 1137.8 -2.92449 -2.10108 0
M  V30 11495 C 1137.65 -4.2836 -1.37214 0
M  V30 11496 C 1138.97 -3.11944 -3.1045 0
M  V30 11497 H 1136.09 -0.613223 -0.408811 0
M  V30 11498 H 1138.73 -1.85503 -0.410921 0
M  V30 11499 H 1136.88 -2.78097 -2.71283 0
M  V30 11500 H 1138.55 -4.54493 -0.789516 0
M  V30 11501 H 1136.79 -4.28532 -0.673973 0
M  V30 11502 H 1137.46 -5.11178 -2.0833 0
M  V30 11503 H 1139.94 -3.25372 -2.59369 0
M  V30 11504 H 1138.82 -4.00125 -3.75754 0
M  V30 11505 H 1139.08 -2.26465 -3.79692 0
M  V30 11506 N 1138.14 0.641106 -1.43971 0
M  V30 11507 C 1139.38 1.40084 -1.46228 0
M  V30 11508 C 1139.71 1.94287 -0.0911011 0
M  V30 11509 O 1138.97 1.73481 0.905688 0
M  V30 11510 C 1139.27 2.59092 -2.46183 0
M  V30 11511 C 1138.93 2.23237 -3.9176 0
M  V30 11512 C 1137.59 2.13171 -4.31407 0
M  V30 11513 C 1139.95 1.94746 -4.83449 0
M  V30 11514 C 1137.27 1.72788 -5.60679 0
M  V30 11515 C 1139.63 1.55858 -6.13099 0
M  V30 11516 C 1138.29 1.44326 -6.5171 0
M  V30 11517 H 1137.56 0.512603 -0.535088 0
M  V30 11518 H 1140.21 0.727956 -1.77124 0
M  V30 11519 H 1138.51 3.31568 -2.08734 0
M  V30 11520 H 1140.21 3.17313 -2.4518 0
M  V30 11521 H 1136.8 2.31986 -3.60389 0
M  V30 11522 H 1140.98 2.01438 -4.53582 0
M  V30 11523 H 1136.24 1.62455 -5.89422 0
M  V30 11524 H 1140.41 1.32848 -6.83611 0
M  V30 11525 H 1138.04 1.12806 -7.51784 0
M  V30 11526 N 1139.62 1.30703 0.880598 0
M  V30 11527 C 1140.55 1.11783 1.98947 0
M  V30 11528 C 1141.53 0.0242461 1.62582 0
M  V30 11529 O 1142.71 0.178641 1.87652 0
M  V30 11530 C 1139.84 0.705762 3.31265 0
M  V30 11531 C 1138.88 1.80084 3.86616 0
M  V30 11532 S 1139.72 3.40416 4.13373 0
M  V30 11533 C 1140.87 3.01122 5.48704 0
M  V30 11534 H 1141.11 2.05658 2.14691 0
M  V30 11535 H 1138.64 1.15067 1.02951 0
M  V30 11536 H 1140.6 0.474754 4.07745 0
M  V30 11537 H 1139.26 -0.213699 3.13372 0
M  V30 11538 H 1138.45 1.4649 4.82241 0
M  V30 11539 H 1138.05 1.98636 3.16891 0
M  V30 11540 H 1140.34 2.49355 6.29943 0
M  V30 11541 H 1141.29 3.95671 5.87239 0
M  V30 11542 H 1141.7 2.38865 5.11472 0
M  V30 11543 N 1141.09 -1.09351 1.1349 0
M  V30 11544 C 1142.06 -2.14185 0.815919 0
M  V30 11545 C 1143.06 -1.59845 -0.174976 0
M  V30 11546 O 1144.25 -1.74122 0.0521971 0
M  V30 11547 C 1141.38 -3.40224 0.214517 0
M  V30 11548 H 1142.57 -2.43913 1.74489 0
M  V30 11549 H 1140.12 -1.24902 0.939634 0
M  V30 11550 H 1140.86 -3.16123 -0.723634 0
M  V30 11551 H 1140.64 -3.80958 0.928102 0
M  V30 11552 H 1142.13 -4.17599 0.00821999 0
M  V30 11553 N 1142.57 -0.928524 -1.27343 0
M  V30 11554 C 1143.48 -0.433901 -2.30553 0
M  V30 11555 C 1144.5 0.485832 -1.6708 0
M  V30 11556 O 1145.67 0.36844 -1.98001 0
M  V30 11557 C 1142.74 0.304617 -3.45359 0
M  V30 11558 C 1141.8 -0.650131 -4.24349 0
M  V30 11559 C 1141.03 0.0532372 -5.33673 0
M  V30 11560 O 1141.26 1.27246 -5.56026 0
M  V30 11561 O 1140.19 -0.619009 -5.98709 0
M  V30 11562 H 1144.02 -1.2909 -2.74899 0
M  V30 11563 H 1141.6 -0.693903 -1.32308 0
M  V30 11564 H 1143.48 0.721137 -4.15184 0
M  V30 11565 H 1142.16 1.13721 -3.03066 0
M  V30 11566 H 1141.06 -1.11635 -3.57055 0
M  V30 11567 H 1142.4 -1.44996 -4.70358 0
M  V30 11568 N 1144.05 1.41491 -0.694123 0
M  V30 11569 C 1145.3 2.0155 -0.224809 0
M  V30 11570 C 1145.63 1.54844 1.17205 0
M  V30 11571 O 1144.9 0.75899 1.7908 0
M  V30 11572 C 1145.19 3.59003 -0.280884 0
M  V30 11573 C 1145.04 4.15839 -1.71458 0
M  V30 11574 C 1146.36 4.38624 0.360122 0
M  V30 11575 H 1143.48 0.732293 -0.0831632 0
M  V30 11576 H 1146.12 1.68258 -0.882569 0
M  V30 11577 H 1144.27 3.87496 0.279164 0
M  V30 11578 H 1145.94 3.98227 -2.32837 0
M  V30 11579 H 1144.18 3.70936 -2.2492 0
M  V30 11580 H 1144.86 5.24997 -1.70536 0
M  V30 11581 H 1147.33 4.15936 -0.11683 0
M  V30 11582 H 1146.21 5.48132 0.290337 0
M  V30 11583 H 1146.47 4.1797 1.44062 0
M  V30 11584 N 1145.53 0.438773 1.51369 0
M  V30 11585 C 1146.76 -0.125847 2.06517 0
M  V30 11586 C 1147.17 -1.36336 1.30606 0
M  V30 11587 O 1146.53 -1.78792 0.36603 0
M  V30 11588 C 1146.58 -0.446619 3.5873 0
M  V30 11589 O 1146.3 0.741781 4.31775 0
M  V30 11590 C 1147.8 -1.06175 4.30397 0
M  V30 11591 H 1145.02 -0.00728868 0.67096 0
M  V30 11592 H 1147.56 0.618267 1.9493 0
M  V30 11593 H 1145.72 -1.14064 3.70227 0
M  V30 11594 H 1146.13 0.466907 5.22418 0
M  V30 11595 H 1147.61 -1.23619 5.3798 0
M  V30 11596 H 1148.08 -2.04317 3.88782 0
M  V30 11597 H 1148.69 -0.40708 4.23347 0
M  V30 11598 N 1147.01 -1.56678 0.170181 0
M  V30 11599 C 1148.25 -1.9714 -0.475767 0
M  V30 11600 C 1148.58 -1.05611 -1.62972 0
M  V30 11601 O 1147.86 -0.103017 -1.94227 0
M  V30 11602 C 1148.14 -3.47072 -0.959828 0
M  V30 11603 C 1148 -4.4938 0.194225 0
M  V30 11604 C 1149.31 -4.00071 -1.83387 0
M  V30 11605 H 1146.43 -0.716776 -0.171466 0
M  V30 11606 H 1149.08 -1.88266 0.256086 0
M  V30 11607 H 1147.23 -3.54766 -1.58346 0
M  V30 11608 H 1148.9 -4.53748 0.83128 0
M  V30 11609 H 1147.14 -4.25393 0.849893 0
M  V30 11610 H 1147.81 -5.51685 -0.186575 0
M  V30 11611 H 1150.29 -3.95002 -1.30815 0
M  V30 11612 H 1149.16 -5.05398 -2.14159 0
M  V30 11613 H 1149.42 -3.43819 -2.77923 0
M  V30 11614 N 1148.48 0.103547 -1.57259 0
M  V30 11615 C 1149.76 0.839768 -1.76656 0
M  V30 11616 C 1150.14 1.9734 -0.749666 0
M  V30 11617 O 1149.49 2.27405 0.223466 0
M  V30 11618 C 1149.7 1.34218 -3.22159 0
M  V30 11619 C 1151.05 1.78835 -3.85102 0
M  V30 11620 O 1152.07 1.43861 -3.25857 0
M  V30 11621 O 1150.93 2.43474 -4.89267 0
M  V30 11622 H 1148.02 0.399928 -0.723869 0
M  V30 11623 H 1150.57 0.0860857 -1.69482 0
M  V30 11624 H 1149.34 0.52956 -3.877 0
M  V30 11625 H 1148.96 2.15811 -3.33933 0
M  V30 11626 N 1149.96 1.53094 0.37415 0
M  V30 11627 C 1151.21 1.69111 1.11934 0
M  V30 11628 C 1151.54 0.437252 1.89213 0
M  V30 11629 O 1150.82 -0.565298 1.86104 0
M  V30 11630 C 1151.1 2.93559 2.08554 0
M  V30 11631 C 1150.95 4.29082 1.3494 0
M  V30 11632 C 1152.27 3.13586 3.08791 0
M  V30 11633 H 1149.39 0.615383 0.405553 0
M  V30 11634 H 1152.03 1.85719 0.401078 0
M  V30 11635 H 1150.18 2.79531 2.69805 0
M  V30 11636 H 1151.85 4.54906 0.765402 0
M  V30 11637 H 1150.1 4.28884 0.651238 0
M  V30 11638 H 1150.77 5.12275 2.05616 0
M  V30 11639 H 1153.24 3.26743 2.57639 0
M  V30 11640 H 1152.12 4.02112 3.73627 0
M  V30 11641 H 1152.38 2.28475 3.78486 0
M  V30 11642 N 1151.44 -0.633461 1.44309 0
M  V30 11643 C 1152.4 -1.72743 1.50641 0
M  V30 11644 C 1153.4 -1.56031 0.388718 0
M  V30 11645 O 1154.59 -1.61568 0.651251 0
M  V30 11646 C 1151.72 -3.11804 1.37809 0
M  V30 11647 H 1152.92 -1.68503 2.48086 0
M  V30 11648 H 1150.47 -0.846912 1.31366 0
M  V30 11649 H 1151.21 -3.2164 0.414483 0
M  V30 11650 H 1150.99 -3.2534 2.18852 0
M  V30 11651 H 1152.48 -3.91538 1.45216 0
M  V30 11652 N 1152.92 -1.31168 -0.873655 0
M  V30 11653 C 1154.15 -1.23595 -1.65927 0
M  V30 11654 C 1154.56 0.199349 -1.87745 0
M  V30 11655 O 1153.92 1.13013 -1.43298 0
M  V30 11656 C 1153.97 -1.97268 -3.02932 0
M  V30 11657 O 1153.69 -3.35196 -2.82091 0
M  V30 11658 C 1155.19 -1.9649 -3.97374 0
M  V30 11659 H 1152.41 -0.427228 -0.517414 0
M  V30 11660 H 1154.96 -1.72983 -1.09074 0
M  V30 11661 H 1153.11 -1.51651 -3.56484 0
M  V30 11662 H 1153.52 -3.7266 -3.69087 0
M  V30 11663 H 1155 -2.52557 -4.90835 0
M  V30 11664 H 1155.48 -0.946525 -4.28879 0
M  V30 11665 H 1156.08 -2.4197 -3.49758 0
M  V30 11666 N 1154.4 1.08748 -1.14068 0
M  V30 11667 C 1155.64 1.80707 -0.904947 0
M  V30 11668 C 1155.97 1.86478 0.570167 0
M  V30 11669 O 1155.24 1.35536 1.41445 0
M  V30 11670 H 1153.82 0.669261 -0.331811 0
M  V30 11671 H 1156.48 1.31494 -1.43859 0
M  V30 11672 H 1155.57 2.83653 -1.30182 0
M  V30 11673 N 1155.87 0.935264 1.26849 0
M  V30 11674 C 1156.81 0.397539 2.25726 0
M  V30 11675 C 1157.82 -0.475928 1.55688 0
M  V30 11676 O 1159.01 -0.287329 1.76172 0
M  V30 11677 C 1156.11 -0.448308 3.35922 0
M  V30 11678 C 1155.28 0.407624 4.35496 0
M  V30 11679 C 1154.34 -0.376815 5.24849 0
M  V30 11680 O 1153.37 0.218109 5.68782 0
M  V30 11681 N 1154.57 -1.67481 5.55815 0
M  V30 11682 H 1157.33 1.24753 2.72501 0
M  V30 11683 H 1154.89 0.803505 1.40554 0
M  V30 11684 H 1156.89 -0.980338 3.92647 0
M  V30 11685 H 1155.46 -1.19908 2.88688 0
M  V30 11686 H 1154.68 1.12091 3.77928 0
M  V30 11687 H 1155.96 0.992512 4.99026 0
M  V30 11688 H 1155.36 -2.18037 5.21993 0
M  V30 11689 H 1153.92 -2.15321 6.15207 0
M  V30 11690 N 1157.35 -1.41121 0.701616 0
M  V30 11691 C 1158.58 -2.05452 0.244365 0
M  V30 11692 C 1159 -1.5282 -1.10866 0
M  V30 11693 O 1158.35 -0.67893 -1.69401 0
M  V30 11694 C 1158.4 -3.60946 0.200112 0
M  V30 11695 O 1158.12 -4.11632 1.4997 0
M  V30 11696 C 1159.63 -4.42431 -0.277394 0
M  V30 11697 H 1156.85 -0.66151 0.112453 0
M  V30 11698 H 1159.39 -1.80784 0.9559 0
M  V30 11699 H 1157.54 -3.84632 -0.462287 0
M  V30 11700 H 1157.96 -5.05723 1.39084 0
M  V30 11701 H 1159.43 -5.514 -0.257225 0
M  V30 11702 H 1159.91 -4.1898 -1.31728 0
M  V30 11703 H 1160.52 -4.23822 0.354223 0
M  V30 11704 N 1158.83 -0.446794 -1.51134 0
M  V30 11705 C 1160.06 0.114893 -2.06581 0
M  V30 11706 C 1160.47 1.35642 -1.31327 0
M  V30 11707 O 1159.83 1.78595 -0.375506 0
M  V30 11708 C 1159.88 0.427589 -3.58962 0
M  V30 11709 O 1159.6 -0.764669 -4.31375 0
M  V30 11710 C 1161.1 1.03891 -4.30954 0
M  V30 11711 H 1158.32 0.00373031 -0.67099 0
M  V30 11712 H 1160.87 -0.628596 -1.94599 0
M  V30 11713 H 1159.02 1.12099 -3.70827 0
M  V30 11714 H 1159.44 -0.494605 -5.22163 0
M  V30 11715 H 1160.91 1.20764 -5.38628 0
M  V30 11716 H 1161.39 2.02252 -3.8986 0
M  V30 11717 H 1161.99 0.384623 -4.23557 0
M  V30 11718 N 1160.31 1.56586 -0.178487 0
M  V30 11719 C 1161.55 1.9739 0.465306 0
M  V30 11720 C 1161.89 1.06474 1.6241 0
M  V30 11721 O 1161.16 0.113316 1.9417 0
M  V30 11722 C 1161.45 3.47577 0.941408 0
M  V30 11723 C 1161.3 4.49271 -0.218054 0
M  V30 11724 C 1162.62 4.01038 1.81263 0
M  V30 11725 H 1159.74 0.717676 0.167663 0
M  V30 11726 H 1162.38 1.88128 -0.266067 0
M  V30 11727 H 1160.53 3.556 1.56463 0
M  V30 11728 H 1162.2 4.53301 -0.855332 0
M  V30 11729 H 1160.44 4.24936 -0.872441 0
M  V30 11730 H 1161.11 5.51776 0.157315 0
M  V30 11731 H 1163.59 3.9569 1.28718 0
M  V30 11732 H 1162.47 5.06526 2.11476 0
M  V30 11733 H 1162.73 3.45288 2.76096 0
M  V30 11734 N 1161.79 -0.095206 1.57312 0
M  V30 11735 C 1163.06 -0.830388 1.77099 0
M  V30 11736 C 1163.44 -1.9694 0.760121 0
M  V30 11737 O 1162.79 -2.2752 -0.211403 0
M  V30 11738 C 1163 -1.32507 3.22867 0
M  V30 11739 C 1164.35 -1.7679 3.86045 0
M  V30 11740 O 1165.37 -1.42131 3.26615 0
M  V30 11741 O 1164.23 -2.40876 4.90552 0
M  V30 11742 H 1161.33 -0.396083 0.72598 0
M  V30 11743 H 1163.87 -0.0770965 1.69525 0
M  V30 11744 H 1162.64 -0.508992 3.87975 0
M  V30 11745 H 1162.27 -2.14037 3.35073 0
M  V30 11746 N 1163.26 -1.53291 -0.366026 0
M  V30 11747 C 1164.51 -1.69117 -1.10653 0
M  V30 11748 C 1164.83 -0.445327 -1.89847 0
M  V30 11749 O 1164.1 0.540616 -1.88293 0
M  V30 11750 H 1162.68 -0.623446 -0.41149 0
M  V30 11751 H 1165.35 -1.90479 -0.412749 0
M  V30 11752 H 1164.44 -2.55205 -1.79658 0
M  V30 11753 N 1164.74 0.6258 -1.44643 0
M  V30 11754 C 1165.68 1.75056 -1.46392 0
M  V30 11755 C 1166.65 1.59376 -0.322179 0
M  V30 11756 O 1167.84 1.81187 -0.519956 0
M  V30 11757 C 1164.96 3.12689 -1.30166 0
M  V30 11758 C 1164.01 3.47005 -2.47972 0
M  V30 11759 S 1164.84 3.43885 -4.10491 0
M  V30 11760 C 1166 4.84129 -3.96698 0
M  V30 11761 H 1166.23 1.73306 -2.41562 0
M  V30 11762 H 1163.77 0.800879 -1.32005 0
M  V30 11763 H 1165.72 3.9211 -1.21492 0
M  V30 11764 H 1164.38 3.11972 -0.364982 0
M  V30 11765 H 1163.58 4.47171 -2.32496 0
M  V30 11766 H 1163.18 2.75059 -2.53414 0
M  V30 11767 H 1165.47 5.73488 -3.60718 0
M  V30 11768 H 1166.41 5.0466 -4.96713 0
M  V30 11769 H 1166.82 4.58954 -3.28666 0
M  V30 11770 N 1166.22 1.31629 0.866686 0
M  V30 11771 C 1167.45 1.24474 1.65269 0
M  V30 11772 C 1167.86 -0.18939 1.87848 0
M  V30 11773 O 1167.22 -1.12251 1.43895 0
M  V30 11774 C 1167.27 1.98872 3.01881 0
M  V30 11775 O 1166.99 3.36687 2.8031 0
M  V30 11776 C 1168.49 1.98595 3.96327 0
M  V30 11777 H 1165.71 0.429966 0.515141 0
M  V30 11778 H 1168.26 1.73559 1.08156 0
M  V30 11779 H 1166.41 1.53539 3.55675 0
M  V30 11780 H 1166.83 3.74612 3.67105 0
M  V30 11781 H 1168.3 2.55156 4.89489 0
M  V30 11782 H 1168.78 0.969257 4.28371 0
M  V30 11783 H 1169.38 2.43821 3.4847 0
M  V30 11784 N 1167.7 -1.08142 1.14644 0
M  V30 11785 C 1168.63 -2.17139 0.858667 0
M  V30 11786 C 1169.61 -1.69064 -0.187452 0
M  V30 11787 O 1170.8 -1.94151 -0.0435458 0
M  V30 11788 C 1167.93 -3.45648 0.33834 0
M  V30 11789 C 1166.88 -4.07129 1.32021 0
M  V30 11790 C 1166.21 -5.30623 0.659075 0
M  V30 11791 C 1167.51 -4.48095 2.68343 0
M  V30 11792 H 1169.2 -2.41468 1.77012 0
M  V30 11793 H 1166.75 -1.16052 0.852523 0
M  V30 11794 H 1168.7 -4.21216 0.124611 0
M  V30 11795 H 1167.42 -3.2088 -0.608553 0
M  V30 11796 H 1166.08 -3.33596 1.52016 0
M  V30 11797 H 1165.73 -5.02142 -0.293711 0
M  V30 11798 H 1165.43 -5.72714 1.31427 0
M  V30 11799 H 1166.95 -6.08903 0.454933 0
M  V30 11800 H 1168.37 -5.14828 2.5224 0
M  V30 11801 H 1166.76 -5.01113 3.30161 0
M  V30 11802 H 1167.83 -3.59852 3.25015 0
M  V30 11803 N 1169.18 -0.941978 -1.26351 0
M  V30 11804 C 1170.11 -0.396486 -2.24729 0
M  V30 11805 C 1171.09 0.51514 -1.54224 0
M  V30 11806 O 1172.27 0.452405 -1.82991 0
M  V30 11807 C 1169.4 0.430232 -3.35956 0
M  V30 11808 C 1168.45 -0.419981 -4.24427 0
M  V30 11809 S 1169.28 -1.84442 -5.02734 0
M  V30 11810 C 1170.43 -1.02578 -6.17437 0
M  V30 11811 H 1170.67 -1.23025 -2.70651 0
M  V30 11812 H 1168.2 -0.745148 -1.35229 0
M  V30 11813 H 1170.16 0.901315 -4.00483 0
M  V30 11814 H 1168.82 1.23868 -2.88644 0
M  V30 11815 H 1168.01 0.213475 -5.03548 0
M  V30 11816 H 1167.61 -0.82578 -3.6477 0
M  V30 11817 H 1169.91 -0.268431 -6.76968 0
M  V30 11818 H 1170.85 -1.79047 -6.85089 0
M  V30 11819 H 1171.26 -0.561488 -5.61701 0
M  V30 11820 N 1170.66 1.40747 -0.709091 0
M  V30 11821 C 1171.62 2.29118 -0.0611607 0
M  V30 11822 C 1172.62 1.45049 0.694081 0
M  V30 11823 O 1173.81 1.66039 0.526952 0
M  V30 11824 C 1170.94 3.28154 0.923447 0
M  V30 11825 H 1172.13 2.87913 -0.839413 0
M  V30 11826 H 1169.69 1.4896 -0.473363 0
M  V30 11827 H 1170.42 2.74366 1.72899 0
M  V30 11828 H 1170.21 3.90207 0.384862 0
M  V30 11829 H 1171.7 3.94343 1.37417 0
M  V30 11830 N 1172.13 0.454803 1.50895 0
M  V30 11831 C 1173.41 -0.166559 1.9489 0
M  V30 11832 C 1173.79 -1.58492 1.3944 0
M  V30 11833 O 1173.14 -2.20788 0.588622 0
M  V30 11834 C 1173.35 -0.126506 3.48771 0
M  V30 11835 C 1174.7 -0.32347 4.23366 0
M  V30 11836 O 1175.72 -0.203835 3.55616 0
M  V30 11837 O 1174.58 -0.563292 5.43589 0
M  V30 11838 H 1171.67 -0.120523 0.818171 0
M  V30 11839 H 1174.22 0.514037 1.61727 0
M  V30 11840 H 1172.99 0.864407 3.81633 0
M  V30 11841 H 1172.61 -0.849264 3.88424 0
M  V30 11842 N 1173.61 -1.56489 0.186789 0
M  V30 11843 C 1174.54 -2.21705 -0.732739 0
M  V30 11844 C 1175.52 -1.17751 -1.22755 0
M  V30 11845 O 1176.71 -1.46231 -1.27789 0
M  V30 11846 C 1173.84 -2.86992 -1.95584 0
M  V30 11847 C 1172.79 -3.97118 -1.59628 0
M  V30 11848 C 1172.12 -4.49529 -2.89531 0
M  V30 11849 C 1173.42 -5.15941 -0.812518 0
M  V30 11850 H 1175.11 -2.98802 -0.189094 0
M  V30 11851 H 1172.66 -1.43722 -0.0895099 0
M  V30 11852 H 1174.61 -3.31295 -2.60426 0
M  V30 11853 H 1173.33 -2.07287 -2.52388 0
M  V30 11854 H 1171.99 -3.53494 -0.971475 0
M  V30 11855 H 1171.64 -3.66596 -3.44407 0
M  V30 11856 H 1171.34 -5.23832 -2.66221 0
M  V30 11857 H 1172.87 -4.96528 -3.55376 0
M  V30 11858 H 1174.28 -5.56841 -1.36386 0
M  V30 11859 H 1172.68 -5.96259 -0.677862 0
M  V30 11860 H 1173.75 -4.84535 0.188095 0
M  V30 11861 N 1175.09 0.086862 -1.5736 0
M  V30 11862 C 1176.34 0.787281 -1.86135 0
M  V30 11863 C 1176.66 1.78866 -0.776667 0
M  V30 11864 O 1175.93 1.94915 0.19625 0
M  V30 11865 H 1174.51 0.293744 -0.686821 0
M  V30 11866 H 1177.17 0.0665326 -1.94786 0
M  V30 11867 H 1176.27 1.3128 -2.83147 0
M  V30 11868 N 1176.57 1.53483 0.357892 0
M  V30 11869 C 1177.79 1.74264 1.12458 0
M  V30 11870 C 1178.22 0.473944 1.82031 0
M  V30 11871 O 1177.58 -0.57253 1.72023 0
M  V30 11872 C 1177.62 2.91356 2.12471 0
M  V30 11873 O 1176.73 2.60502 3.19707 0
M  V30 11874 H 1176.07 0.578499 0.325937 0
M  V30 11875 H 1178.6 2.00395 0.412666 0
M  V30 11876 H 1178.61 3.1774 2.5594 0
M  V30 11877 H 1177.28 3.83378 1.61226 0
M  V30 11878 H 1175.86 2.44961 2.81156 0
M  V30 11879 N 1178.05 -0.61812 1.44973 0
M  V30 11880 C 1178.98 -1.74035 1.55673 0
M  V30 11881 C 1179.96 -1.65112 0.4089 0
M  V30 11882 O 1181.14 -1.83673 0.630698 0
M  V30 11883 C 1178.27 -3.1261 1.51303 0
M  V30 11884 C 1177.23 -3.36334 2.64696 0
M  V30 11885 C 1176.55 -4.75072 2.45378 0
M  V30 11886 C 1177.85 -3.27618 4.06772 0
M  V30 11887 H 1179.55 -1.65336 2.49608 0
M  V30 11888 H 1177.09 -0.794003 1.20132 0
M  V30 11889 H 1179.04 -3.90906 1.57388 0
M  V30 11890 H 1177.77 -3.22123 0.538914 0
M  V30 11891 H 1176.43 -2.60423 2.58022 0
M  V30 11892 H 1176.08 -4.81306 1.46129 0
M  V30 11893 H 1175.78 -4.91903 3.21412 0
M  V30 11894 H 1177.3 -5.55582 2.53301 0
M  V30 11895 H 1178.71 -3.95802 4.14746 0
M  V30 11896 H 1177.11 -3.55981 4.83113 0
M  V30 11897 H 1178.18 -2.25219 4.29423 0
M  V30 11898 N 1179.52 -1.32087 -0.859693 0
M  V30 11899 C 1180.76 -1.23671 -1.62742 0
M  V30 11900 C 1181.13 0.19966 -1.90959 0
M  V30 11901 O 1182.33 0.407478 -2.65694 0
M  V30 11902 C 1180.6 -2.06736 -2.91539 0
M  V30 11903 S 1182.16 -2.15292 -3.82354 0
M  V30 11904 H 1178.98 -0.440306 -0.558258 0
M  V30 11905 H 1181.58 -1.66875 -1.01848 0
M  V30 11906 H 1180.28 -3.10166 -2.68747 0
M  V30 11907 H 1179.81 -1.64291 -3.57452 0
M  V30 11908 H 1181.83 -1.29874 -4.78902 0
M  V30 11909 N 1181 1.07532 -1.15215 0
M  V30 11910 C 1181.95 2.16785 -0.843022 0
M  V30 11911 C 1182.94 1.68411 0.182802 0
M  V30 11912 O 1184.15 1.7996 0.0380164 0
M  V30 11913 H 1180.52 0.707465 -0.254945 0
M  V30 11914 H 1182.5 2.40078 -1.77215 0
M  V30 11915 C 1181.24 3.45967 -0.346699 0
M  V30 11916 H 1180.57 3.83574 -1.12744 0
M  V30 11917 H 1182.01 4.23663 -0.169039 0
M  V30 11918 C 1180.47 3.23768 0.931437 0
M  V30 11919 O 1181 3.48179 2.00336 0
M  V30 11920 N 1179.2 2.77264 0.870217 0
M  V30 11921 H 1178.75 2.576 -0.00226223 0
M  V30 11922 H 1178.71 2.6279 1.72594 0
M  V30 11923 N 1182.48 0.948665 1.2585 0
M  V30 11924 C 1183.41 0.421458 2.25292 0
M  V30 11925 C 1184.43 -0.459389 1.56184 0
M  V30 11926 O 1185.61 -0.268627 1.76467 0
M  V30 11927 C 1182.71 -0.412653 3.36378 0
M  V30 11928 C 1181.89 0.453792 4.3504 0
M  V30 11929 C 1180.95 -0.321127 5.25219 0
M  V30 11930 O 1179.97 0.278424 5.68519 0
M  V30 11931 N 1181.17 -1.61576 5.5756 0
M  V30 11932 H 1183.94 1.27636 2.71162 0
M  V30 11933 H 1181.5 0.818367 1.39694 0
M  V30 11934 H 1183.49 -0.938637 3.93664 0
M  V30 11935 H 1182.06 -1.16839 2.89944 0
M  V30 11936 H 1181.28 1.16093 3.76718 0
M  V30 11937 H 1182.57 1.04538 4.97945 0
M  V30 11938 H 1181.97 -2.12488 5.24276 0
M  V30 11939 H 1180.53 -2.08783 6.17457 0
M  V30 11940 N 1183.96 -1.40369 0.716545 0
M  V30 11941 C 1184.89 -2.33365 0.0793533 0
M  V30 11942 C 1185.87 -1.52943 -0.744482 0
M  V30 11943 O 1187.05 -1.81406 -0.693212 0
M  V30 11944 C 1184.18 -3.36928 -0.842429 0
M  V30 11945 C 1183.14 -4.2782 -0.124142 0
M  V30 11946 C 1182.46 -5.21928 -1.1617 0
M  V30 11947 C 1183.76 -5.12199 1.02224 0
M  V30 11948 H 1185.46 -2.86899 0.856115 0
M  V30 11949 H 1183 -1.37946 0.413138 0
M  V30 11950 H 1184.96 -4.00925 -1.29759 0
M  V30 11951 H 1183.68 -2.81791 -1.6511 0
M  V30 11952 H 1182.34 -3.65277 0.311201 0
M  V30 11953 H 1181.99 -4.63096 -1.96345 0
M  V30 11954 H 1181.69 -5.83582 -0.685978 0
M  V30 11955 H 1183.21 -5.88802 -1.61694 0
M  V30 11956 H 1184.63 -5.69644 0.646399 0
M  V30 11957 H 1183.02 -5.82901 1.4264 0
M  V30 11958 H 1184.09 -4.4812 1.85246 0
M  V30 11959 N 1185.44 -0.462799 -1.50652 0
M  V30 11960 C 1186.4 0.324264 -2.26895 0
M  V30 11961 C 1187.4 0.927687 -1.31342 0
M  V30 11962 O 1188.59 0.798159 -1.54839 0
M  V30 11963 C 1185.72 1.46113 -3.08 0
M  V30 11964 H 1186.91 -0.344266 -2.97917 0
M  V30 11965 H 1184.47 -0.216631 -1.54791 0
M  V30 11966 H 1185.2 2.16496 -2.41454 0
M  V30 11967 H 1184.99 1.03433 -3.78212 0
M  V30 11968 H 1186.48 2.01655 -3.65684 0
M  V30 11969 N 1186.91 1.56388 -0.195085 0
M  V30 11970 C 1188.14 2.01963 0.449289 0
M  V30 11971 C 1188.56 1.07522 1.55192 0
M  V30 11972 O 1187.91 0.0800915 1.82324 0
M  V30 11973 C 1187.97 3.47231 1.00561 0
M  V30 11974 O 1187.69 4.38068 -0.0530241 0
M  V30 11975 C 1189.19 4.08324 1.72587 0
M  V30 11976 H 1186.41 0.661452 0.112792 0
M  V30 11977 H 1188.95 2.02231 -0.303788 0
M  V30 11978 H 1187.11 3.47663 1.70907 0
M  V30 11979 H 1187.52 5.23256 0.361076 0
M  V30 11980 H 1188.99 5.11821 2.06744 0
M  V30 11981 H 1189.47 3.51782 2.62956 0
M  V30 11982 H 1190.08 4.11665 1.06826 0
M  V30 11983 N 1188.39 -0.0785156 1.57404 0
M  V30 11984 C 1189.67 -0.811557 1.77969 0
M  V30 11985 C 1190.05 -1.96123 0.780966 0
M  V30 11986 O 1189.4 -2.27731 -0.18726 0
M  V30 11987 C 1189.61 -1.29075 3.24254 0
M  V30 11988 C 1190.96 -1.72685 3.87898 0
M  V30 11989 O 1191.98 -1.38658 3.28104 0
M  V30 11990 O 1190.84 -2.3566 4.93079 0
M  V30 11991 H 1187.93 -0.388361 0.73014 0
M  V30 11992 H 1190.48 -0.0591118 1.69597 0
M  V30 11993 H 1189.25 -0.467813 3.88494 0
M  V30 11994 H 1188.87 -2.10472 3.37324 0
M  V30 11995 N 1189.87 -1.5367 -0.349747 0
M  V30 11996 C 1191.12 -1.70281 -1.08853 0
M  V30 11997 C 1191.44 -0.465438 -1.89364 0
M  V30 11998 O 1190.71 0.520615 -1.88856 0
M  V30 11999 H 1189.29 -0.627775 -0.404854 0
M  V30 12000 H 1191.95 -1.90906 -0.392523 0
M  V30 12001 H 1191.05 -2.57096 -1.76941 0
M  V30 12002 N 1191.35 0.610423 -1.45298 0
M  V30 12003 C 1192.28 1.73507 -1.4976 0
M  V30 12004 C 1193.29 1.58092 -0.38867 0
M  V30 12005 O 1194.48 1.66026 -0.655571 0
M  V30 12006 C 1191.58 3.11475 -1.33554 0
M  V30 12007 C 1190.76 3.53156 -2.5807 0
M  V30 12008 C 1189.81 4.70076 -2.36463 0
M  V30 12009 O 1188.84 4.77337 -3.10061 0
M  V30 12010 N 1190.04 5.63155 -1.40843 0
M  V30 12011 H 1192.81 1.70144 -2.46721 0
M  V30 12012 H 1190.37 0.79562 -1.41002 0
M  V30 12013 H 1192.36 3.87444 -1.16914 0
M  V30 12014 H 1190.93 3.09361 -0.448803 0
M  V30 12015 H 1190.15 2.67178 -2.89844 0
M  V30 12016 H 1191.44 3.77761 -3.40843 0
M  V30 12017 H 1190.84 5.60001 -0.800982 0
M  V30 12018 H 1189.39 6.38669 -1.30175 0
M  V30 12019 N 1192.83 1.32541 0.852676 0
M  V30 12020 C 1194.08 1.22567 1.60188 0
M  V30 12021 C 1194.39 -0.210594 1.94463 0
M  V30 12022 O 1195.59 -0.432214 2.68038 0
M  V30 12023 C 1194.05 2.14678 2.88862 0
M  V30 12024 C 1193.66 3.63398 2.62004 0
M  V30 12025 C 1195.4 2.13545 3.66877 0
M  V30 12026 C 1193.31 4.47464 3.86691 0
M  V30 12027 H 1192.24 0.455184 0.601102 0
M  V30 12028 H 1194.89 1.57515 0.941347 0
M  V30 12029 H 1193.27 1.72647 3.56383 0
M  V30 12030 H 1194.45 4.13783 2.02782 0
M  V30 12031 H 1192.76 3.66681 1.97316 0
M  V30 12032 H 1195.36 2.73589 4.59405 0
M  V30 12033 H 1195.7 1.12694 4.00756 0
M  V30 12034 H 1196.23 2.53866 3.06263 0
M  V30 12035 H 1192.97 5.49136 3.57952 0
M  V30 12036 H 1192.49 4.01829 4.45302 0
M  V30 12037 H 1194.17 4.60565 4.5441 0
M  V30 12038 N 1194.3 -1.0692 1.15784 0
M  V30 12039 C 1195.53 -1.83045 0.958031 0
M  V30 12040 C 1195.94 -1.82555 -0.497027 0
M  V30 12041 O 1195.29 -1.23864 -1.35659 0
M  V30 12042 C 1195.35 -3.31096 1.40056 0
M  V30 12043 C 1195.01 -3.55299 2.87423 0
M  V30 12044 C 1196.01 -3.48875 3.85463 0
M  V30 12045 C 1193.69 -3.82824 3.25194 0
M  V30 12046 C 1195.69 -3.69633 5.19279 0
M  V30 12047 C 1193.37 -4.03232 4.59181 0
M  V30 12048 C 1194.37 -3.96633 5.56032 0
M  V30 12049 O 1194.06 -4.16492 6.87597 0
M  V30 12050 H 1193.79 -0.584218 0.340095 0
M  V30 12051 H 1196.35 -1.35841 1.54066 0
M  V30 12052 H 1194.58 -3.79131 0.761361 0
M  V30 12053 H 1196.27 -3.88697 1.16916 0
M  V30 12054 H 1197.03 -3.27608 3.57629 0
M  V30 12055 H 1192.91 -3.87073 2.50391 0
M  V30 12056 H 1196.45 -3.64398 5.94861 0
M  V30 12057 H 1192.35 -4.23988 4.86729 0
M  V30 12058 H 1193.12 -4.33815 6.9408 0
M  V30 12059 N 1195.78 -0.955326 -1.25345 0
M  V30 12060 C 1197.03 -0.609278 -1.92697 0
M  V30 12061 C 1197.35 0.856535 -1.75181 0
M  V30 12062 O 1196.62 1.61013 -1.11587 0
M  V30 12063 H 1195.2 -0.22235 -0.713141 0
M  V30 12064 H 1197.86 -1.21372 -1.52496 0
M  V30 12065 H 1196.96 -0.839198 -3.00606 0
M  V30 12066 N 1197.26 1.39987 -0.723979 0
M  V30 12067 C 1198.51 2.00334 -0.266587 0
M  V30 12068 C 1198.83 1.57714 1.14679 0
M  V30 12069 O 1198.1 0.82037 1.77895 0
M  V30 12070 H 1196.68 0.740861 -0.095573 0
M  V30 12071 H 1199.34 1.712 -0.931481 0
M  V30 12072 H 1198.44 3.10594 -0.306282 0
M  V30 12073 N 1198.74 0.470782 1.50404 0
M  V30 12074 C 1199.67 -0.313458 2.31386 0
M  V30 12075 C 1200.65 -0.990623 1.38278 0
M  V30 12076 O 1201.84 -0.987854 1.67198 0
M  V30 12077 C 1198.97 -1.39599 3.18009 0
M  V30 12078 C 1197.92 -0.840443 4.19667 0
M  V30 12079 C 1197.25 -2.02124 4.95025 0
M  V30 12080 C 1198.55 0.148055 5.2209 0
M  V30 12081 H 1200.24 0.362432 2.97198 0
M  V30 12082 H 1197.79 0.175745 1.42924 0
M  V30 12083 H 1199.74 -1.9521 3.73458 0
M  V30 12084 H 1198.46 -2.10064 2.50081 0
M  V30 12085 H 1197.12 -0.306302 3.65318 0
M  V30 12086 H 1196.77 -2.71286 4.23571 0
M  V30 12087 H 1196.47 -1.65574 5.6379 0
M  V30 12088 H 1197.99 -2.58226 5.5331 0
M  V30 12089 H 1199.41 -0.318874 5.72413 0
M  V30 12090 H 1197.8 0.427811 5.98573 0
M  V30 12091 H 1198.87 1.07404 4.72855 0
M  V30 12092 N 1200.22 -1.56282 0.203376 0
M  V30 12093 C 1201.18 -2.18233 -0.700489 0
M  V30 12094 C 1202.18 -1.13908 -1.13497 0
M  V30 12095 O 1203.37 -1.39246 -1.04672 0
M  V30 12096 C 1200.5 -2.79107 -1.95735 0
M  V30 12097 H 1201.7 -2.99469 -0.160649 0
M  V30 12098 H 1199.25 -1.56232 -0.0462475 0
M  V30 12099 H 1199.98 -2.01691 -2.53951 0
M  V30 12100 H 1199.77 -3.55486 -1.65446 0
M  V30 12101 H 1201.26 -3.2665 -2.60172 0
M  V30 12102 N 1201.7 0.070167 -1.57444 0
M  V30 12103 C 1202.63 1.10996 -2.0053 0
M  V30 12104 C 1203.64 1.3489 -0.91151 0
M  V30 12105 O 1204.83 1.33102 -1.18938 0
M  V30 12106 C 1201.93 2.46053 -2.33048 0
M  V30 12107 C 1201.1 2.42092 -3.64294 0
M  V30 12108 C 1200.16 3.5927 -3.84463 0
M  V30 12109 O 1199.19 3.40625 -4.5603 0
M  V30 12110 N 1200.39 4.79677 -3.26941 0
M  V30 12111 H 1203.15 0.743029 -2.90343 0
M  V30 12112 H 1200.72 0.258794 -1.59818 0
M  V30 12113 H 1202.71 3.23089 -2.43712 0
M  V30 12114 H 1201.28 2.74742 -1.49116 0
M  V30 12115 H 1200.5 1.5043 -3.64368 0
M  V30 12116 H 1201.79 2.36548 -4.50469 0
M  V30 12117 H 1201.18 4.97729 -2.68855 0
M  V30 12118 H 1199.74 5.54219 -3.43051 0
M  V30 12119 N 1203.17 1.53854 0.341593 0
M  V30 12120 C 1204.42 1.70856 1.07948 0
M  V30 12121 C 1204.74 0.475474 1.89114 0
M  V30 12122 O 1204.01 -0.510592 1.89129 0
M  V30 12123 H 1202.59 0.629914 0.401519 0
M  V30 12124 H 1205.25 1.91112 0.382393 0
M  V30 12125 H 1204.35 2.5803 1.75575 0
M  V30 12126 N 1204.65 -0.602709 1.4562 0
M  V30 12127 C 1205.9 -1.35769 1.49163 0
M  V30 12128 C 1206.21 -1.95102 0.139485 0
M  V30 12129 O 1207.42 -2.71449 0.0525919 0
M  V30 12130 C 1205.88 -2.45959 2.62739 0
M  V30 12131 C 1205.48 -1.93017 4.04288 0
M  V30 12132 C 1207.23 -3.22926 2.75534 0
M  V30 12133 C 1205.13 -3.00718 5.09237 0
M  V30 12134 H 1204.06 -0.510317 0.555061 0
M  V30 12135 H 1206.72 -0.645434 1.71774 0
M  V30 12136 H 1205.1 -3.19892 2.3342 0
M  V30 12137 H 1206.27 -1.2576 4.43307 0
M  V30 12138 H 1204.59 -1.2878 3.95986 0
M  V30 12139 H 1207.18 -4.03267 3.51112 0
M  V30 12140 H 1207.53 -3.74243 1.82339 0
M  V30 12141 H 1208.06 -2.56095 3.04402 0
M  V30 12142 H 1204.8 -2.54312 6.04157 0
M  V30 12143 H 1204.32 -3.66526 4.74783 0
M  V30 12144 H 1206 -3.65016 5.34202 0
M  V30 12145 N 1206.13 -1.32992 -0.845635 0
M  V30 12146 C 1207.38 -1.2382 -1.59728 0
M  V30 12147 C 1207.7 0.197724 -1.93995 0
M  V30 12148 O 1206.97 1.12477 -1.60392 0
M  V30 12149 H 1205.55 -0.455296 -0.592212 0
M  V30 12150 H 1208.21 -1.66627 -1.01101 0
M  V30 12151 H 1207.31 -1.82717 -2.53023 0
M  V30 12152 N 1207.61 1.06304 -1.1635 0
M  V30 12153 C 1208.54 2.15745 -0.893103 0
M  V30 12154 C 1209.52 1.69341 0.160531 0
M  V30 12155 O 1210.7 1.94196 0.0126526 0
M  V30 12156 C 1207.83 3.45066 -0.393287 0
M  V30 12157 C 1206.79 4.04978 -1.38482 0
M  V30 12158 C 1206.11 5.29507 -0.743409 0
M  V30 12159 C 1207.41 4.4377 -2.75438 0
M  V30 12160 H 1209.11 2.38622 -1.80831 0
M  V30 12161 H 1206.65 1.14681 -0.870878 0
M  V30 12162 H 1208.61 4.20964 -0.191607 0
M  V30 12163 H 1207.33 3.21808 0.557426 0
M  V30 12164 H 1205.99 3.31136 -1.57304 0
M  V30 12165 H 1205.64 5.02545 0.213787 0
M  V30 12166 H 1205.34 5.7055 -1.40521 0
M  V30 12167 H 1206.86 6.08102 -0.551746 0
M  V30 12168 H 1208.28 5.1075 -2.60398 0
M  V30 12169 H 1206.67 4.95797 -3.38091 0
M  V30 12170 H 1207.74 3.54636 -3.30699 0
M  V30 12171 N 1209.09 0.96196 1.24836 0
M  V30 12172 C 1210.05 0.492443 2.23847 0
M  V30 12173 C 1211.05 -0.40788 1.55541 0
M  V30 12174 O 1212.24 -0.204143 1.73 0
M  V30 12175 C 1209.37 -0.287578 3.39685 0
M  V30 12176 H 1210.56 1.36767 2.66899 0
M  V30 12177 H 1208.12 0.745967 1.3735 0
M  V30 12178 H 1208.85 -1.18015 3.02064 0
M  V30 12179 H 1208.64 0.358431 3.90458 0
M  V30 12180 H 1210.13 -0.605297 4.1319 0
M  V30 12181 N 1210.56 -1.39601 0.731392 0
M  V30 12182 C 1211.49 -2.33268 0.1041 0
M  V30 12183 C 1212.47 -1.53724 -0.728219 0
M  V30 12184 O 1213.66 -1.82131 -0.673933 0
M  V30 12185 C 1210.79 -3.37802 -0.806646 0
M  V30 12186 C 1209.74 -4.27928 -0.0787588 0
M  V30 12187 C 1209.07 -5.23131 -1.10628 0
M  V30 12188 C 1210.37 -5.11086 1.07651 0
M  V30 12189 H 1212.06 -2.85975 0.886496 0
M  V30 12190 H 1209.61 -1.375 0.427746 0
M  V30 12191 H 1211.56 -4.02278 -1.25499 0
M  V30 12192 H 1210.29 -2.83527 -1.62112 0
M  V30 12193 H 1208.95 -3.64926 0.349926 0
M  V30 12194 H 1208.59 -4.65152 -1.91422 0
M  V30 12195 H 1208.29 -5.84277 -0.624043 0
M  V30 12196 H 1209.82 -5.90483 -1.5544 0
M  V30 12197 H 1211.23 -5.68927 0.706781 0
M  V30 12198 H 1209.63 -5.81356 1.48814 0
M  V30 12199 H 1210.7 -4.46131 1.89988 0
M  V30 12200 N 1212.04 -0.478751 -1.50152 0
M  V30 12201 C 1213.27 0.0732929 -2.0727 0
M  V30 12202 C 1213.69 1.32066 -1.33941 0
M  V30 12203 O 1213.05 1.7707 -0.389367 0
M  V30 12204 C 1213.1 0.332528 -3.59064 0
M  V30 12205 O 1212.2 1.41158 -3.8749 0
M  V30 12206 H 1211.54 -0.0163684 -0.663798 0
M  V30 12207 H 1214.07 -0.671993 -1.9325 0
M  V30 12208 H 1214.08 0.570735 -4.03988 0
M  V30 12209 H 1212.76 -0.578934 -4.11851 0
M  V30 12210 H 1211.34 1.16008 -3.54396 0
M  V30 12211 N 1213.52 1.56172 -0.211661 0
M  V30 12212 C 1214.43 2.23468 0.714081 0
M  V30 12213 C 1215.45 1.23908 1.22159 0
M  V30 12214 O 1216.62 1.56693 1.26528 0
M  V30 12215 C 1213.69 2.89375 1.90953 0
M  V30 12216 C 1212.75 4.04251 1.44497 0
M  V30 12217 C 1211.98 4.67006 2.58343 0
M  V30 12218 O 1212.2 4.28721 3.76237 0
M  V30 12219 O 1211.14 5.56177 2.3011 0
M  V30 12220 H 1214.96 3.03219 0.170862 0
M  V30 12221 H 1212.55 1.49389 0.0183607 0
M  V30 12222 H 1214.43 3.3101 2.60787 0
M  V30 12223 H 1213.11 2.12591 2.44104 0
M  V30 12224 H 1212.01 3.67205 0.714932 0
M  V30 12225 H 1213.35 4.82748 0.959947 0
M  V30 12226 N 1215 -0.0618163 1.57479 0
M  V30 12227 C 1216.28 -0.792636 1.7882 0
M  V30 12228 C 1216.66 -1.95283 0.801724 0
M  V30 12229 O 1216 -2.27917 -0.163095 0
M  V30 12230 C 1216.21 -1.25629 3.25605 0
M  V30 12231 C 1217.56 -1.68561 3.89708 0
M  V30 12232 O 1218.59 -1.35171 3.29556 0
M  V30 12233 O 1217.44 -2.30417 4.95551 0
M  V30 12234 H 1214.54 -0.380595 0.734218 0
M  V30 12235 H 1217.08 -0.0411205 1.6965 0
M  V30 12236 H 1215.86 -0.426582 3.88968 0
M  V30 12237 H 1215.48 -2.06882 3.39537 0
M  V30 12238 N 1216.48 -1.54033 -0.333429 0
M  V30 12239 C 1217.72 -1.71765 -1.07252 0
M  V30 12240 C 1218.05 -0.486135 -1.88327 0
M  V30 12241 O 1217.31 0.532135 -1.88326 0
M  V30 12242 C 1217.61 -2.93926 -2.03328 0
M  V30 12243 C 1217.27 -4.29107 -1.38486 0
M  V30 12244 C 1215.93 -4.6586 -1.20532 0
M  V30 12245 C 1218.29 -5.13041 -0.918624 0
M  V30 12246 C 1215.61 -5.84155 -0.545881 0
M  V30 12247 C 1217.97 -6.3201 -0.273055 0
M  V30 12248 C 1216.63 -6.67451 -0.0812815 0
M  V30 12249 H 1215.9 -0.628532 -0.392464 0
M  V30 12250 H 1218.55 -1.88261 -0.350709 0
M  V30 12251 H 1216.85 -2.72075 -2.81926 0
M  V30 12252 H 1218.55 -3.0484 -2.60526 0
M  V30 12253 H 1215.14 -4.00185 -1.5346 0
M  V30 12254 H 1219.32 -4.8517 -1.04515 0
M  V30 12255 H 1214.58 -6.1018 -0.386009 0
M  V30 12256 H 1218.75 -6.96333 0.0962582 0
M  V30 12257 H 1216.38 -7.58973 0.431734 0
M  V30 12258 N 1217.95 0.594978 -1.45938 0
M  V30 12259 C 1218.86 1.73296 -1.58132 0
M  V30 12260 C 1219.88 1.67665 -0.465245 0
M  V30 12261 O 1221.06 1.87794 -0.727684 0
M  V30 12262 C 1218.12 3.09783 -1.55677 0
M  V30 12263 C 1217.18 3.26772 -2.78422 0
M  V30 12264 C 1216.42 4.56748 -2.76075 0
M  V30 12265 O 1216.64 5.39867 -1.84119 0
M  V30 12266 O 1215.57 4.76721 -3.67452 0
M  V30 12267 H 1219.4 1.65957 -2.54346 0
M  V30 12268 H 1216.98 0.760572 -1.28591 0
M  V30 12269 H 1218.87 3.91077 -1.56961 0
M  V30 12270 H 1217.54 3.17585 -0.626191 0
M  V30 12271 H 1216.45 2.45018 -2.82696 0
M  V30 12272 H 1217.78 3.23853 -3.70648 0
M  V30 12273 N 1219.43 1.33438 0.838571 0
M  V30 12274 C 1220.71 1.1551 1.5785 0
M  V30 12275 C 1221.09 -0.278405 2.09256 0
M  V30 12276 O 1220.44 -1.27748 1.89453 0
M  V30 12277 C 1220.65 2.19647 2.71212 0
M  V30 12278 C 1222 2.53818 3.40384 0
M  V30 12279 O 1223.02 2.18317 2.81454 0
M  V30 12280 O 1221.88 3.14741 4.46766 0
M  V30 12281 H 1218.97 0.446785 0.695925 0
M  V30 12282 H 1221.52 1.45021 0.8813 0
M  V30 12283 H 1220.29 3.15936 2.30869 0
M  V30 12284 H 1219.91 1.91224 3.48596 0
M  V30 12285 N 1220.91 -1.05686 1.16912 0
M  V30 12286 C 1222.16 -1.77987 0.948875 0
M  V30 12287 C 1222.47 -1.8845 -0.524011 0
M  V30 12288 O 1223.68 -2.57442 -0.862322 0
M  V30 12289 C 1222.13 -3.19927 1.64848 0
M  V30 12290 C 1221.74 -3.1761 3.15956 0
M  V30 12291 C 1223.49 -3.96719 1.51044 0
M  V30 12292 C 1221.39 -4.54307 3.78628 0
M  V30 12293 H 1220.32 -0.667119 0.35138 0
M  V30 12294 H 1222.97 -1.18496 1.40111 0
M  V30 12295 H 1221.36 -3.79714 1.12397 0
M  V30 12296 H 1222.53 -2.67369 3.75301 0
M  V30 12297 H 1220.85 -2.54317 3.29715 0
M  V30 12298 H 1223.44 -4.97779 1.95243 0
M  V30 12299 H 1223.79 -4.13748 0.460268 0
M  V30 12300 H 1224.32 -3.43468 2.00685 0
M  V30 12301 H 1221.06 -4.42484 4.8362 0
M  V30 12302 H 1220.58 -5.04717 3.24069 0
M  V30 12303 H 1222.26 -5.23255 3.80543 0
M  V30 12304 N 1222.39 -0.968567 -1.24324 0
M  V30 12305 C 1223.34 -0.498817 -2.25345 0
M  V30 12306 C 1224.31 0.456082 -1.59716 0
M  V30 12307 O 1225.49 0.366254 -1.87252 0
M  V30 12308 C 1222.63 0.204027 -3.44496 0
M  V30 12309 C 1221.74 -0.789741 -4.2472 0
M  V30 12310 C 1220.88 -0.0629156 -5.31163 0
M  V30 12311 C 1219.92 -1.04669 -6.03084 0
M  V30 12312 N 1219.05 -0.349812 -7.01228 0
M  V30 12313 H 1223.89 -1.36511 -2.64894 0
M  V30 12314 H 1221.43 -0.684288 -1.30215 0
M  V30 12315 H 1223.39 0.628223 -4.12443 0
M  V30 12316 H 1222.02 1.03426 -3.05782 0
M  V30 12317 H 1221.07 -1.33237 -3.56303 0
M  V30 12318 H 1222.38 -1.53988 -4.74436 0
M  V30 12319 H 1221.54 0.419233 -6.0525 0
M  V30 12320 H 1220.28 0.719915 -4.82357 0
M  V30 12321 H 1219.28 -1.53971 -5.278 0
M  V30 12322 H 1220.51 -1.82998 -6.53979 0
M  V30 12323 H 1218.45 0.414026 -6.54692 0
M  V30 12324 H 1218.37 -1.03881 -7.48829 0
M  V30 12325 H 1219.64 0.11034 -7.79422 0
M  V30 12326 N 1223.87 1.39211 -0.738786 0
M  V30 12327 C 1224.81 2.30578 -0.10129 0
M  V30 12328 C 1225.78 1.49412 0.725616 0
M  V30 12329 O 1226.97 1.78087 0.684799 0
M  V30 12330 C 1224.11 3.35767 0.797161 0
M  V30 12331 C 1223.22 4.31979 -0.0427701 0
M  V30 12332 C 1222.36 5.24236 0.857306 0
M  V30 12333 C 1221.4 6.12099 0.0128501 0
M  V30 12334 N 1220.53 6.96701 0.869067 0
M  V30 12335 H 1225.37 2.84522 -0.88606 0
M  V30 12336 H 1222.91 1.40093 -0.448602 0
M  V30 12337 H 1224.87 3.95347 1.33255 0
M  V30 12338 H 1223.5 2.83268 1.54787 0
M  V30 12339 H 1222.55 3.73986 -0.695622 0
M  V30 12340 H 1223.86 4.93927 -0.69555 0
M  V30 12341 H 1223.02 5.88861 1.4604 0
M  V30 12342 H 1221.75 4.62619 1.54386 0
M  V30 12343 H 1220.76 5.46483 -0.603018 0
M  V30 12344 H 1221.98 6.75781 -0.67054 0
M  V30 12345 H 1219.93 6.37647 1.54084 0
M  V30 12346 H 1219.85 7.55507 0.272852 0
M  V30 12347 H 1221.12 7.65751 1.4576 0
M  V30 12348 N 1225.34 0.486708 1.49896 0
M  V30 12349 C 1226.29 -0.318255 2.25768 0
M  V30 12350 C 1227.28 -0.94799 1.30008 0
M  V30 12351 O 1228.47 -0.857954 1.54816 0
M  V30 12352 C 1225.6 -1.39057 3.13876 0
M  V30 12353 C 1224.69 -0.767787 4.17092 0
M  V30 12354 N 1225.08 0.121163 5.05655 0
M  V30 12355 C 1223.37 -1.02999 4.33944 0
M  V30 12356 C 1224.08 0.47621 5.79747 0
M  V30 12357 N 1223.05 -0.152422 5.43386 0
M  V30 12358 H 1226.85 0.366294 2.91608 0
M  V30 12359 H 1224.37 0.301852 1.5957 0
M  V30 12360 H 1226.36 -1.98056 3.6685 0
M  V30 12361 H 1225.02 -2.07694 2.49586 0
M  V30 12362 H 1226.04 0.491043 5.15567 0
M  V30 12363 H 1222.71 -1.71018 3.80866 0
M  V30 12364 H 1224.1 1.20262 6.6105 0
M  V30 12365 N 1226.82 -1.56058 0.219941 0
M  V30 12366 C 1227.79 -2.18964 -0.677303 0
M  V30 12367 C 1228.79 -1.15105 -1.12283 0
M  V30 12368 O 1229.98 -1.40348 -1.03189 0
M  V30 12369 C 1227.11 -2.81167 -1.92764 0
M  V30 12370 H 1228.3 -2.99623 -0.128877 0
M  V30 12371 H 1225.85 -1.56272 -0.0296744 0
M  V30 12372 H 1226.59 -2.04374 -2.51797 0
M  V30 12373 H 1226.37 -3.5722 -1.61666 0
M  V30 12374 H 1227.86 -3.29391 -2.56693 0
M  V30 12375 N 1228.3 0.053464 -1.57509 0
M  V30 12376 C 1229.53 0.761533 -1.92375 0
M  V30 12377 C 1229.94 1.70179 -0.817585 0
M  V30 12378 O 1229.3 1.81313 0.207843 0
M  V30 12379 C 1229.35 1.53954 -3.27078 0
M  V30 12380 O 1229.07 0.637054 -4.33443 0
M  V30 12381 C 1230.57 2.34697 -3.76075 0
M  V30 12382 H 1227.79 0.215483 -0.635459 0
M  V30 12383 H 1230.34 0.0182624 -2.04492 0
M  V30 12384 H 1228.49 2.23492 -3.16434 0
M  V30 12385 H 1228.91 1.18006 -5.11053 0
M  V30 12386 H 1230.38 2.84716 -4.72906 0
M  V30 12387 H 1230.86 3.15041 -3.06016 0
M  V30 12388 H 1231.46 1.70281 -3.89724 0
M  V30 12389 N 1229.78 1.54207 0.325255 0
M  V30 12390 C 1230.71 1.86467 1.40543 0
M  V30 12391 C 1231.69 0.721324 1.54048 0
M  V30 12392 O 1232.88 0.974905 1.67956 0
M  V30 12393 C 1230.01 2.09052 2.77335 0
M  V30 12394 C 1228.96 3.24893 2.78619 0
M  V30 12395 C 1228.29 3.32846 4.1847 0
M  V30 12396 C 1229.59 4.62582 2.42518 0
M  V30 12397 H 1231.28 2.76932 1.13794 0
M  V30 12398 H 1228.83 1.33248 0.545971 0
M  V30 12399 H 1230.78 2.30204 3.52964 0
M  V30 12400 H 1229.5 1.15335 3.05558 0
M  V30 12401 H 1228.16 3.03625 2.05444 0
M  V30 12402 H 1227.81 2.3669 4.43832 0
M  V30 12403 H 1227.51 4.10701 4.20237 0
M  V30 12404 H 1229.03 3.56231 4.95915 0
M  V30 12405 H 1230.45 4.83627 3.07861 0
M  V30 12406 H 1228.84 5.42974 2.55538 0
M  V30 12407 H 1229.91 4.64946 1.3767 0
M  V30 12408 N 1231.26 -0.58723 1.46251 0
M  V30 12409 C 1232.5 -1.3476 1.51551 0
M  V30 12410 C 1232.84 -1.93499 0.16483 0
M  V30 12411 O 1232.11 -1.7622 -0.823207 0
M  V30 12412 C 1232.39 -2.48033 2.61059 0
M  V30 12413 C 1232.25 -1.94358 4.05642 0
M  V30 12414 C 1233.57 -3.50096 2.66685 0
M  V30 12415 H 1230.69 -0.48863 0.551733 0
M  V30 12416 H 1233.33 -0.660097 1.78165 0
M  V30 12417 H 1231.48 -3.06679 2.38496 0
M  V30 12418 H 1233.15 -1.40204 4.39478 0
M  V30 12419 H 1231.39 -1.25217 4.15335 0
M  V30 12420 H 1232.06 -2.76105 4.77986 0
M  V30 12421 H 1234.54 -3.01324 2.86955 0
M  V30 12422 H 1233.42 -4.26817 3.45135 0
M  V30 12423 H 1233.68 -4.07032 1.7256 0
M  V30 12424 N 1232.74 -1.33881 -0.831482 0
M  V30 12425 C 1233.98 -1.25507 -1.58406 0
M  V30 12426 C 1234.3 0.177137 -1.94194 0
M  V30 12427 O 1233.57 1.10769 -1.61576 0
M  V30 12428 H 1232.15 -0.461551 -0.587349 0
M  V30 12429 H 1234.82 -1.6769 -0.99328 0
M  V30 12430 H 1233.91 -1.85391 -2.51071 0
M  V30 12431 N 1234.21 1.05064 -1.1747 0
M  V30 12432 C 1235.18 2.1101 -0.89485 0
M  V30 12433 C 1236.18 1.60384 0.11553 0
M  V30 12434 O 1237.37 1.73808 -0.116785 0
M  V30 12435 C 1234.5 3.39194 -0.340642 0
M  V30 12436 H 1235.69 2.37269 -1.83421 0
M  V30 12437 H 1233.24 1.21329 -0.985343 0
M  V30 12438 H 1233.98 3.18591 0.605808 0
M  V30 12439 H 1233.76 3.77251 -1.06885 0
M  V30 12440 H 1235.25 4.17281 -0.163204 0
M  V30 12441 N 1235.69 0.975146 1.23809 0
M  V30 12442 C 1236.94 0.639858 1.91704 0
M  V30 12443 C 1237.26 -0.828557 1.76522 0
M  V30 12444 O 1236.53 -1.59217 1.14135 0
M  V30 12445 H 1235.11 0.233667 0.709513 0
M  V30 12446 H 1237.77 1.23782 1.50545 0
M  V30 12447 H 1236.87 0.886915 2.99233 0
M  V30 12448 N 1237.17 -1.38817 0.746158 0
M  V30 12449 C 1238.42 -2.0028 0.299016 0
M  V30 12450 C 1238.74 -1.59221 -1.11709 0
M  V30 12451 O 1238 -0.817595 -1.77803 0
M  V30 12452 C 1238.3 -3.55571 0.361086 0
M  V30 12453 C 1237.96 -4.16317 1.73179 0
M  V30 12454 C 1236.63 -4.32622 2.10693 0
M  V30 12455 C 1238.98 -4.49905 2.63126 0
M  V30 12456 C 1236.31 -4.79808 3.3764 0
M  V30 12457 C 1238.66 -4.98504 3.89457 0
M  V30 12458 C 1237.32 -5.13016 4.27049 0
M  V30 12459 H 1236.59 -0.732877 0.109418 0
M  V30 12460 H 1239.24 -1.65977 0.955186 0
M  V30 12461 H 1237.54 -3.89966 -0.378655 0
M  V30 12462 H 1239.24 -4.01 -0.00319228 0
M  V30 12463 H 1235.83 -4.04035 1.43015 0
M  V30 12464 H 1240.02 -4.36916 2.3541 0
M  V30 12465 H 1235.27 -4.89229 3.66695 0
M  V30 12466 H 1239.45 -5.23464 4.59302 0
M  V30 12467 H 1237.07 -5.4934 5.25481 0
M  V30 12468 N 1238.65 -0.49465 -1.49636 0
M  V30 12469 C 1240.06 -0.0452894 -1.86645 0
M  V30 12470 C 1240.41 1.36686 -1.40753 0
M  V30 12471 O 1239.53 2.01751 -0.78265 0
M  V30 12472 C 1240.13 -0.0754115 -3.38716 0
M  V30 12473 C 1238.69 0.318579 -3.75049 0
M  V30 12474 C 1237.84 -0.450712 -2.73613 0
M  V30 12475 H 1240.79 -0.707758 -1.42044 0
M  V30 12476 H 1240.81 0.721372 -3.73599 0
M  V30 12477 H 1240.32 -1.10331 -3.72087 0
M  V30 12478 H 1238.42 1.34995 -3.47285 0
M  V30 12479 H 1238.53 0.00354416 -4.791 0
M  V30 12480 H 1236.9 0.0986455 -2.54509 0
M  V30 12481 H 1237.68 -1.47857 -3.09828 0
M  V30 12482 N 1240.13 1.55939 -0.228214 0
M  V30 12483 C 1241.37 1.98476 0.401677 0
M  V30 12484 C 1241.7 1.116 1.59297 0
M  V30 12485 O 1240.96 0.162465 1.95024 0
M  V30 12486 C 1241.25 3.46581 0.872732 0
M  V30 12487 C 1240.92 4.50416 -0.208767 0
M  V30 12488 C 1239.58 4.78534 -0.505847 0
M  V30 12489 C 1241.93 5.12656 -0.939852 0
M  V30 12490 C 1239.26 5.66171 -1.53841 0
M  V30 12491 C 1241.61 6.01412 -1.9618 0
M  V30 12492 C 1240.28 6.2787 -2.26573 0
M  V30 12493 H 1239.55 0.726276 0.146984 0
M  V30 12494 H 1242.2 1.88598 -0.332128 0
M  V30 12495 H 1240.5 3.53696 1.68541 0
M  V30 12496 H 1242.2 3.76869 1.37006 0
M  V30 12497 H 1238.79 4.28587 0.0329308 0
M  V30 12498 H 1242.97 4.90997 -0.723581 0
M  V30 12499 H 1238.23 5.84933 -1.77944 0
M  V30 12500 H 1242.4 6.48688 -2.53332 0
M  V30 12501 H 1240.03 6.95574 -3.06725 0
M  V30 12502 N 1241.6 -0.0451101 1.57535 0
M  V30 12503 C 1242.85 -0.738072 1.87711 0
M  V30 12504 C 1243.17 -1.7737 0.824579 0
M  V30 12505 O 1244.37 -2.51812 1.01503 0
M  V30 12506 C 1242.83 -1.36373 3.33062 0
M  V30 12507 C 1242.44 -0.365283 4.46508 0
M  V30 12508 C 1244.18 -2.0375 3.72406 0
M  V30 12509 C 1242.09 -0.998371 5.82912 0
M  V30 12510 H 1241.02 -0.279413 0.700317 0
M  V30 12511 H 1243.67 0.00802425 1.83498 0
M  V30 12512 H 1242.05 -2.15899 3.31969 0
M  V30 12513 H 1243.22 0.402102 4.59042 0
M  V30 12514 H 1241.54 0.205505 4.15893 0
M  V30 12515 H 1244.14 -2.51939 4.71625 0
M  V30 12516 H 1244.48 -2.84869 3.03571 0
M  V30 12517 H 1245.01 -1.3102 3.75604 0
M  V30 12518 H 1241.75 -0.226935 6.55107 0
M  V30 12519 H 1241.27 -1.73598 5.74129 0
M  V30 12520 H 1242.95 -1.51044 6.29122 0
M  V30 12521 N 1243.08 -1.54377 -0.317073 0
M  V30 12522 C 1244.03 -1.84214 -1.39046 0
M  V30 12523 C 1245 -0.689742 -1.51102 0
M  V30 12524 O 1246.18 -0.936809 -1.66218 0
M  V30 12525 C 1243.32 -2.08087 -2.75307 0
M  V30 12526 C 1242.44 -3.35756 -2.7183 0
M  V30 12527 C 1241.57 -3.49556 -3.9998 0
M  V30 12528 C 1240.61 -4.71076 -3.90837 0
M  V30 12529 N 1239.75 -4.81767 -5.10729 0
M  V30 12530 H 1244.59 -2.75785 -1.12902 0
M  V30 12531 H 1242.13 -1.36575 -0.546404 0
M  V30 12532 H 1244.08 -2.19921 -3.54529 0
M  V30 12533 H 1242.71 -1.19801 -2.99746 0
M  V30 12534 H 1241.77 -3.32627 -1.84563 0
M  V30 12535 H 1243.08 -4.2509 -2.60959 0
M  V30 12536 H 1242.23 -3.60967 -4.87635 0
M  V30 12537 H 1240.97 -2.58326 -4.13665 0
M  V30 12538 H 1239.98 -4.59715 -3.01566 0
M  V30 12539 H 1241.2 -5.63698 -3.78711 0
M  V30 12540 H 1239.15 -3.93455 -5.24908 0
M  V30 12541 H 1239.06 -5.65077 -5.02219 0
M  V30 12542 H 1240.33 -4.97517 -6.00081 0
M  V30 12543 N 1244.56 0.579466 -1.4656 0
M  V30 12544 C 1245.49 1.70291 -1.53406 0
M  V30 12545 C 1246.51 1.57232 -0.422116 0
M  V30 12546 O 1247.69 1.64598 -0.69064 0
M  V30 12547 C 1244.79 3.08572 -1.40131 0
M  V30 12548 C 1243.97 3.47602 -2.65502 0
M  V30 12549 C 1243.03 4.64955 -2.4638 0
M  V30 12550 O 1242.05 4.70653 -3.20116 0
M  V30 12551 N 1243.25 5.60041 -1.52756 0
M  V30 12552 H 1246.02 1.64873 -2.50274 0
M  V30 12553 H 1243.58 0.765533 -1.42658 0
M  V30 12554 H 1245.57 3.84877 -1.25106 0
M  V30 12555 H 1244.14 3.0834 -0.514322 0
M  V30 12556 H 1243.36 2.60969 -2.95446 0
M  V30 12557 H 1244.65 3.70446 -3.48779 0
M  V30 12558 H 1244.05 5.58176 -0.919587 0
M  V30 12559 H 1242.61 6.35764 -1.43693 0
M  V30 12560 N 1246.04 1.3432 0.824371 0
M  V30 12561 C 1247.29 1.25938 1.57552 0
M  V30 12562 C 1247.6 -0.169298 1.94866 0
M  V30 12563 O 1248.81 -0.375262 2.68894 0
M  V30 12564 C 1247.26 2.20757 2.84244 0
M  V30 12565 C 1246.87 3.68873 2.54237 0
M  V30 12566 C 1248.61 2.21279 3.62265 0
M  V30 12567 C 1246.52 4.55566 3.77113 0
M  V30 12568 H 1245.45 0.467832 0.591311 0
M  V30 12569 H 1248.1 1.59476 0.907724 0
M  V30 12570 H 1246.48 1.80168 3.52641 0
M  V30 12571 H 1247.66 4.17991 1.93959 0
M  V30 12572 H 1245.97 3.70784 1.89494 0
M  V30 12573 H 1248.57 2.83272 4.53499 0
M  V30 12574 H 1248.91 1.2117 3.98276 0
M  V30 12575 H 1249.45 2.60305 3.00809 0
M  V30 12576 H 1246.19 5.56605 3.46223 0
M  V30 12577 H 1245.71 4.11184 4.36678 0
M  V30 12578 H 1247.38 4.701 4.44539 0
M  V30 12579 N 1247.52 -1.0444 1.18026 0
M  V30 12580 C 1248.93 -1.5903 0.978076 0
M  V30 12581 C 1249.28 -1.90407 -0.473241 0
M  V30 12582 O 1248.4 -1.69133 -1.34992 0
M  V30 12583 C 1249 -2.88942 1.76912 0
M  V30 12584 C 1247.56 -3.40164 1.61139 0
M  V30 12585 C 1246.7 -2.13797 1.76596 0
M  V30 12586 H 1249.66 -0.871574 1.32625 0
M  V30 12587 H 1249.68 -3.59173 1.25598 0
M  V30 12588 H 1249.19 -2.66074 2.82535 0
M  V30 12589 H 1247.29 -3.68053 0.580353 0
M  V30 12590 H 1247.4 -4.14241 2.40709 0
M  V30 12591 H 1245.77 -2.24922 1.19507 0
M  V30 12592 H 1246.55 -1.93389 2.83647 0
M  V30 12593 N 1248.99 -0.981699 -1.2329 0
M  V30 12594 C 1250.27 -0.567659 -1.87182 0
M  V30 12595 C 1250.65 0.955194 -1.88253 0
M  V30 12596 O 1250 1.83245 -1.36504 0
M  V30 12597 C 1250.21 -1.17522 -3.28618 0
M  V30 12598 C 1251.56 -1.26877 -4.052 0
M  V30 12599 O 1252.58 -1.12877 -3.37842 0
M  V30 12600 O 1251.44 -1.49163 -5.2575 0
M  V30 12601 H 1248.53 -0.191315 -0.804567 0
M  V30 12602 H 1251.08 -1.07686 -1.31155 0
M  V30 12603 H 1249.85 -2.21735 -3.22411 0
M  V30 12604 H 1249.48 -0.650913 -3.92236 0
M  V30 12605 N 1250.47 1.3842 -0.753509 0
M  V30 12606 C 1251.42 2.30457 -0.12574 0
M  V30 12607 C 1252.39 1.50173 0.709728 0
M  V30 12608 O 1253.57 1.78804 0.665872 0
M  V30 12609 C 1250.71 3.36593 0.761503 0
M  V30 12610 C 1249.83 4.31909 -0.0885848 0
M  V30 12611 C 1248.96 5.25116 0.801655 0
M  V30 12612 C 1248 6.12078 -0.0520719 0
M  V30 12613 N 1247.14 6.97583 0.795124 0
M  V30 12614 H 1251.98 2.83567 -0.916187 0
M  V30 12615 H 1249.52 1.39609 -0.463436 0
M  V30 12616 H 1251.47 3.96738 1.29054 0
M  V30 12617 H 1250.1 2.84894 1.51774 0
M  V30 12618 H 1249.16 3.73227 -0.735249 0
M  V30 12619 H 1250.47 4.93161 -0.747899 0
M  V30 12620 H 1249.62 5.90377 1.39786 0
M  V30 12621 H 1248.36 4.6423 1.4947 0
M  V30 12622 H 1247.37 5.45813 -0.660946 0
M  V30 12623 H 1248.59 6.75032 -0.742178 0
M  V30 12624 H 1246.54 6.39246 1.47312 0
M  V30 12625 H 1246.45 7.55754 0.192705 0
M  V30 12626 H 1247.72 7.67254 1.3763 0
M  V30 12627 N 1251.95 0.502579 1.49372 0
M  V30 12628 C 1252.88 -0.264307 2.31999 0
M  V30 12629 C 1253.86 -0.96107 1.40348 0
M  V30 12630 O 1255.05 -0.952167 1.69255 0
M  V30 12631 C 1252.18 -1.32822 3.20898 0
M  V30 12632 C 1251.13 -0.751236 4.21355 0
M  V30 12633 C 1250.46 -1.91578 4.99201 0
M  V30 12634 C 1251.76 0.258764 5.21659 0
M  V30 12635 H 1253.45 0.425391 2.96363 0
M  V30 12636 H 1251 0.206022 1.42519 0
M  V30 12637 H 1252.95 -1.87245 3.77515 0
M  V30 12638 H 1251.67 -2.04712 2.54481 0
M  V30 12639 H 1250.33 -0.228743 3.65886 0
M  V30 12640 H 1249.98 -2.62241 4.2923 0
M  V30 12641 H 1249.68 -1.53578 5.67175 0
M  V30 12642 H 1251.2 -2.46432 5.58663 0
M  V30 12643 H 1252.62 -0.197385 5.7296 0
M  V30 12644 H 1251.02 0.554681 5.97531 0
M  V30 12645 H 1252.09 1.1741 4.70471 0
M  V30 12646 N 1253.43 -1.55816 0.23648 0
M  V30 12647 C 1254.71 -1.90565 -0.440933 0
M  V30 12648 C 1255.09 -1.15585 -1.76645 0
M  V30 12649 O 1254.43 -0.269949 -2.269 0
M  V30 12650 C 1254.64 -3.43462 -0.61925 0
M  V30 12651 C 1255.99 -4.14516 -0.91989 0
M  V30 12652 O 1257.02 -3.49144 -0.705496 0
M  V30 12653 O 1255.87 -5.3013 -1.32759 0
M  V30 12654 H 1252.97 -0.79285 -0.235199 0
M  V30 12655 H 1255.51 -1.67378 0.279774 0
M  V30 12656 H 1254.29 -3.90029 0.315124 0
M  V30 12657 H 1253.91 -3.72478 -1.39089 0
M  V30 12658 N 1254.91 0.036755 -1.57557 0
M  V30 12659 C 1256.16 0.728107 -1.881 0
M  V30 12660 C 1256.47 1.7693 -0.833974 0
M  V30 12661 O 1257.67 2.5127 -1.02837 0
M  V30 12662 C 1256.13 1.34604 -3.33781 0
M  V30 12663 C 1255.74 0.341599 -4.46696 0
M  V30 12664 C 1257.48 2.01772 -3.73481 0
M  V30 12665 C 1255.39 0.967444 -5.83433 0
M  V30 12666 H 1254.32 0.275695 -0.701789 0
M  V30 12667 H 1256.97 -0.0177555 -1.83491 0
M  V30 12668 H 1255.35 2.14135 -3.3311 0
M  V30 12669 H 1256.53 -0.426441 -4.58823 0
M  V30 12670 H 1254.84 -0.227558 -4.15778 0
M  V30 12671 H 1257.44 2.49435 -4.72955 0
M  V30 12672 H 1257.78 2.83255 -3.05077 0
M  V30 12673 H 1258.31 1.29026 -3.76294 0
M  V30 12674 H 1255.05 0.19219 -6.55218 0
M  V30 12675 H 1254.57 1.70551 -5.75041 0
M  V30 12676 H 1256.25 1.47705 -6.29914 0
M  V30 12677 N 1256.39 1.54543 0.308881 0
M  V30 12678 C 1257.63 1.73706 1.04661 0
M  V30 12679 C 1257.96 0.517111 1.87189 0
M  V30 12680 O 1257.24 -0.485856 1.88334 0
M  V30 12681 C 1257.52 3.02141 1.95916 0
M  V30 12682 C 1257.38 4.34419 1.1662 0
M  V30 12683 C 1258.69 3.26401 2.95213 0
M  V30 12684 H 1255.81 0.63203 0.379087 0
M  V30 12685 H 1258.46 1.87253 0.321947 0
M  V30 12686 H 1256.61 2.90723 2.57706 0
M  V30 12687 H 1258.28 4.57743 0.571772 0
M  V30 12688 H 1256.52 4.3126 0.468747 0
M  V30 12689 H 1257.19 5.20535 1.83704 0
M  V30 12690 H 1259.67 3.37377 2.43549 0
M  V30 12691 H 1258.54 4.17597 3.56235 0
M  V30 12692 H 1258.8 2.44322 3.68455 0
M  V30 12693 N 1257.86 -0.571685 1.46866 0
M  V30 12694 C 1259.09 -1.35327 1.56109 0
M  V30 12695 C 1259.5 -1.88086 0.20504 0
M  V30 12696 O 1258.84 -1.64896 -0.809626 0
M  V30 12697 C 1258.91 -2.56939 2.51441 0
M  V30 12698 C 1258.57 -2.2557 3.97451 0
M  V30 12699 C 1259.57 -1.83737 4.86351 0
M  V30 12700 C 1257.25 -2.37375 4.42672 0
M  V30 12701 C 1259.25 -1.54118 6.18487 0
M  V30 12702 C 1256.93 -2.07368 5.7484 0
M  V30 12703 C 1257.93 -1.65806 6.62569 0
M  V30 12704 O 1257.62 -1.36173 7.92283 0
M  V30 12705 H 1257.35 -0.419368 0.530194 0
M  V30 12706 H 1259.91 -0.700859 1.93073 0
M  V30 12707 H 1258.14 -3.25023 2.09517 0
M  V30 12708 H 1259.82 -3.19012 2.5097 0
M  V30 12709 H 1260.59 -1.74122 4.52666 0
M  V30 12710 H 1256.47 -2.68686 3.74605 0
M  V30 12711 H 1260.01 -1.21603 6.8692 0
M  V30 12712 H 1255.91 -2.16611 6.08071 0
M  V30 12713 H 1256.68 -1.49926 8.04652 0
M  V30 12714 N 1259.34 -1.34755 -0.817236 0
M  V30 12715 C 1260.59 -1.2762 -1.5761 0
M  V30 12716 C 1260.92 0.152017 -1.93604 0
M  V30 12717 O 1260.2 1.09881 -1.60488 0
M  V30 12718 C 1260.48 -2.17251 -2.87183 0
M  V30 12719 C 1260.33 -3.68638 -2.57733 0
M  V30 12720 C 1261.65 -2.06206 -3.88802 0
M  V30 12721 H 1258.77 -0.464933 -0.571845 0
M  V30 12722 H 1261.41 -1.6506 -0.941028 0
M  V30 12723 H 1259.56 -1.85452 -3.41379 0
M  V30 12724 H 1261.23 -4.10829 -2.09802 0
M  V30 12725 H 1259.48 -3.89445 -1.91089 0
M  V30 12726 H 1260.15 -4.26726 -3.50156 0
M  V30 12727 H 1262.62 -2.34137 -3.43975 0
M  V30 12728 H 1261.5 -2.71136 -4.77259 0
M  V30 12729 H 1261.76 -1.04075 -4.29675 0
M  V30 12730 N 1260.82 1.03812 -1.18578 0
M  V30 12731 C 1261.77 2.13994 -0.911563 0
M  V30 12732 C 1262.76 1.68907 0.129131 0
M  V30 12733 O 1263.97 1.7999 -0.0192557 0
M  V30 12734 H 1260.34 0.698996 -0.277324 0
M  V30 12735 H 1262.31 2.34318 -1.84763 0
M  V30 12736 C 1261.06 3.44689 -0.456591 0
M  V30 12737 H 1260.39 3.79793 -1.2489 0
M  V30 12738 H 1261.83 4.22911 -0.303738 0
M  V30 12739 C 1260.28 3.26568 0.827961 0
M  V30 12740 O 1260.81 3.54376 1.89158 0
M  V30 12741 N 1259.02 2.79893 0.781567 0
M  V30 12742 H 1258.57 2.57462 -0.0842145 0
M  V30 12743 H 1258.53 2.68148 1.64146 0
M  V30 12744 N 1262.3 0.988223 1.22768 0
M  V30 12745 C 1263.25 0.505913 2.22316 0
M  V30 12746 C 1264.23 -0.423346 1.55231 0
M  V30 12747 O 1265.42 -0.250927 1.75212 0
M  V30 12748 C 1262.55 -0.182707 3.42813 0
M  V30 12749 C 1261.64 0.766582 4.17114 0
M  V30 12750 N 1262.03 1.91248 4.6825 0
M  V30 12751 C 1260.33 0.581503 4.42193 0
M  V30 12752 C 1261.03 2.50793 5.2486 0
M  V30 12753 N 1260 1.79106 5.13247 0
M  V30 12754 H 1263.81 1.37994 2.5949 0
M  V30 12755 H 1261.32 0.849888 1.38386 0
M  V30 12756 H 1263.32 -0.545595 4.13315 0
M  V30 12757 H 1261.98 -1.05292 3.07154 0
M  V30 12758 H 1262.99 2.29342 4.64352 0
M  V30 12759 H 1259.67 -0.243039 4.16792 0
M  V30 12760 H 1261.06 3.47609 5.74994 0
M  V30 12761 N 1263.78 -1.38018 0.760839 0
M  V30 12762 C 1265.19 -1.82645 0.387022 0
M  V30 12763 C 1265.54 -1.63445 -1.08536 0
M  V30 12764 O 1264.66 -1.13958 -1.83963 0
M  V30 12765 C 1265.26 -3.3158 0.69569 0
M  V30 12766 C 1263.82 -3.74527 0.375063 0
M  V30 12767 C 1262.96 -2.60696 0.94515 0
M  V30 12768 H 1265.91 -1.26644 0.956396 0
M  V30 12769 H 1265.94 -3.80493 -0.0235511 0
M  V30 12770 H 1265.45 -3.45522 1.76737 0
M  V30 12771 H 1263.55 -3.6616 -0.689741 0
M  V30 12772 H 1263.66 -4.71029 0.875685 0
M  V30 12773 H 1262.03 -2.51997 0.370065 0
M  V30 12774 H 1262.81 -2.77434 2.02201 0
M  V30 12775 N 1265.25 -0.510493 -1.49103 0
M  V30 12776 C 1266.67 -0.167061 -1.58723 0
M  V30 12777 C 1266.87 1.32886 -1.51471 0
M  V30 12778 O 1265.93 2.10559 -1.39359 0
M  V30 12779 C 1267.24 -0.752293 -2.91137 0
M  V30 12780 C 1268.79 -0.719258 -3.04624 0
M  V30 12781 C 1269.26 -1.28272 -4.39671 0
M  V30 12782 N 1270.75 -1.24383 -4.46187 0
M  V30 12783 C 1271.49 -1.6499 -5.4915 0
M  V30 12784 N 1270.98 -2.13235 -6.59168 0
M  V30 12785 N 1272.78 -1.56348 -5.39918 0
M  V30 12786 H 1264.93 -1.48296 -1.5206 0
M  V30 12787 H 1267.19 -0.615683 -0.72086 0
M  V30 12788 H 1266.9 -1.80178 -3.02041 0
M  V30 12789 H 1266.77 -0.218152 -3.76569 0
M  V30 12790 H 1269.16 0.321413 -2.93344 0
M  V30 12791 H 1269.24 -1.29065 -2.20852 0
M  V30 12792 H 1268.88 -2.32222 -4.51703 0
M  V30 12793 H 1268.81 -0.687179 -5.22097 0
M  V30 12794 H 1271.3 -0.890446 -3.67259 0
M  V30 12795 H 1271.62 -2.42266 -7.33844 0
M  V30 12796 H 1269.96 -2.17216 -6.60183 0
M  V30 12797 H 1273.15 -1.18469 -4.52861 0
M  V30 12798 H 1273.33 -1.88317 -6.20033 0
M  V30 12799 N 1266.73 1.55688 -0.24474 0
M  V30 12800 C 1268.14 1.84897 0.25882 0
M  V30 12801 C 1268.49 1.16653 1.57755 0
M  V30 12802 O 1267.62 0.444162 2.11793 0
M  V30 12803 C 1268.21 3.35434 0.476385 0
M  V30 12804 C 1266.77 3.64877 0.924213 0
M  V30 12805 C 1265.92 2.773 0.00021322 0
M  V30 12806 H 1268.87 1.51662 -0.467358 0
M  V30 12807 H 1268.89 3.56896 1.31929 0
M  V30 12808 H 1268.4 3.85076 -0.483567 0
M  V30 12809 H 1266.5 3.20711 1.89671 0
M  V30 12810 H 1266.62 4.72665 0.78257 0
M  V30 12811 H 1264.98 2.49517 0.511194 0
M  V30 12812 H 1265.76 3.29747 -0.955072 0
M  V30 12813 N 1268.21 -0.0283989 1.57574 0
M  V30 12814 C 1269.49 -0.754527 1.80461 0
M  V30 12815 C 1269.87 -1.93539 0.842966 0
M  V30 12816 O 1269.21 -2.28212 -0.114714 0
M  V30 12817 C 1269.42 -1.18694 3.28196 0
M  V30 12818 C 1270.77 -1.60257 3.93196 0
M  V30 12819 O 1271.8 -1.2815 3.32349 0
M  V30 12820 O 1270.66 -2.19853 5.00327 0
M  V30 12821 H 1267.75 -0.364936 0.742126 0
M  V30 12822 H 1270.3 -0.00512589 1.69699 0
M  V30 12823 H 1269.07 -0.34398 3.89785 0
M  V30 12824 H 1268.69 -1.99633 3.43849 0
M  V30 12825 N 1269.69 -1.54705 -0.300681 0
M  V30 12826 C 1270.94 -1.73658 -1.0338 0
M  V30 12827 C 1271.26 -0.525447 -1.87787 0
M  V30 12828 O 1270.53 0.460269 -1.90416 0
M  V30 12829 H 1269.11 -0.640338 -0.384677 0
M  V30 12830 H 1271.77 -1.92059 -0.331588 0
M  V30 12831 H 1270.86 -2.62595 -1.68672 0
M  V30 12832 N 1271.17 0.563888 -1.47167 0
M  V30 12833 C 1272.58 1.14603 -1.47388 0
M  V30 12834 C 1272.93 1.94907 -0.224916 0
M  V30 12835 O 1272.05 2.05745 0.670672 0
M  V30 12836 C 1272.65 2.08501 -2.67044 0
M  V30 12837 C 1271.21 2.62 -2.70246 0
M  V30 12838 C 1270.35 1.38244 -2.40383 0
M  V30 12839 H 1273.31 0.350833 -1.54774 0
M  V30 12840 H 1273.33 2.92272 -2.43634 0
M  V30 12841 H 1272.84 1.50027 -3.57929 0
M  V30 12842 H 1270.94 3.24292 -1.83482 0
M  V30 12843 H 1271.05 3.0345 -3.70749 0
M  V30 12844 H 1269.42 1.68692 -1.90827 0
M  V30 12845 H 1270.2 0.815726 -3.33468 0
M  V30 12846 N 1272.64 1.35187 0.810078 0
M  V30 12847 C 1273.89 1.28264 1.56699 0
M  V30 12848 C 1274.22 -0.143906 1.93967 0
M  V30 12849 O 1273.47 -1.10832 1.61291 0
M  V30 12850 C 1273.77 2.13135 2.86894 0
M  V30 12851 C 1273.44 3.61974 2.6886 0
M  V30 12852 C 1272.1 4.02545 2.63649 0
M  V30 12853 C 1274.45 4.5643 2.51636 0
M  V30 12854 C 1271.78 5.35745 2.39154 0
M  V30 12855 C 1274.13 5.89824 2.2867 0
M  V30 12856 C 1272.8 6.29544 2.2188 0
M  V30 12857 H 1272.07 0.469353 0.573401 0
M  V30 12858 H 1274.71 1.67051 0.936282 0
M  V30 12859 H 1273.02 1.67218 3.54324 0
M  V30 12860 H 1274.72 2.05117 3.44569 0
M  V30 12861 H 1271.31 3.29777 2.73761 0
M  V30 12862 H 1275.49 4.25974 2.54677 0
M  V30 12863 H 1270.75 5.65524 2.32363 0
M  V30 12864 H 1274.92 6.62597 2.14333 0
M  V30 12865 H 1272.55 7.32689 2.0266 0
M  V30 12866 N 1274.12 -1.03182 1.19127 0
M  V30 12867 C 1275.37 -1.76184 0.990134 0
M  V30 12868 C 1275.69 -1.88986 -0.480546 0
M  V30 12869 O 1274.96 -1.4213 -1.34817 0
M  V30 12870 H 1273.54 -0.652668 0.363364 0
M  V30 12871 H 1276.2 -1.24481 1.49968 0
M  V30 12872 H 1275.3 -2.77119 1.43568 0
M  V30 12873 N 1275.6 -0.99472 -1.22242 0
M  V30 12874 C 1276.56 -0.551619 -2.22463 0
M  V30 12875 C 1277.56 0.366498 -1.56568 0
M  V30 12876 O 1278.75 0.158204 -1.7348 0
M  V30 12877 C 1275.89 0.197416 -3.40328 0
M  V30 12878 H 1277.08 -1.43795 -2.63179 0
M  V30 12879 H 1274.63 -0.782121 -1.35324 0
M  V30 12880 H 1275.37 1.09965 -3.05087 0
M  V30 12881 H 1275.15 -0.461829 -3.89371 0
M  V30 12882 H 1276.64 0.495534 -4.1465 0
M  V30 12883 N 1277.08 1.37613 -0.768148 0
M  V30 12884 C 1278.3 2.04579 -0.340892 0
M  V30 12885 C 1278.73 1.57556 1.02751 0
M  V30 12886 O 1278.09 0.734151 1.65771 0
M  V30 12887 C 1278.13 3.58495 -0.389099 0
M  V30 12888 O 1277.24 4.07838 0.611741 0
M  V30 12889 H 1276.58 0.647246 -0.148216 0
M  V30 12890 H 1279.11 1.75999 -1.04333 0
M  V30 12891 H 1279.12 4.07263 -0.245116 0
M  V30 12892 H 1277.79 3.92076 -1.38742 0
M  V30 12893 H 1276.37 3.70399 0.431173 0
M  V30 12894 N 1278.56 0.518393 1.4883 0
M  V30 12895 C 1279.8 -0.019866 2.0209 0
M  V30 12896 C 1280.13 -1.35863 1.3988 0
M  V30 12897 O 1279.4 -1.87722 0.560117 0
M  V30 12898 H 1277.98 -0.0103306 0.746929 0
M  V30 12899 H 1280.64 0.679591 1.82668 0
M  V30 12900 H 1279.73 -0.136749 3.118 0
M  V30 12901 N 1280.03 -1.55556 0.252993 0
M  V30 12902 C 1281.28 -1.99385 -0.370599 0
M  V30 12903 C 1281.61 -1.14101 -1.57145 0
M  V30 12904 O 1280.89 -0.205828 -1.93408 0
M  V30 12905 C 1281.17 -3.51672 -0.774503 0
M  V30 12906 C 1281.02 -4.47719 0.432159 0
M  V30 12907 C 1282.34 -4.0923 -1.61923 0
M  V30 12908 H 1279.46 -0.724858 -0.133231 0
M  V30 12909 H 1282.1 -1.86644 0.355522 0
M  V30 12910 H 1280.25 -3.62661 -1.39318 0
M  V30 12911 H 1281.93 -4.48704 1.07063 0
M  V30 12912 H 1280.17 -4.2029 1.07419 0
M  V30 12913 H 1280.84 -5.51898 0.106123 0
M  V30 12914 H 1283.32 -4.01381 -1.09693 0
M  V30 12915 H 1282.19 -5.16039 -1.87068 0
M  V30 12916 H 1282.45 -3.58067 -2.59307 0
M  V30 12917 N 1281.51 0.0200419 -1.57587 0
M  V30 12918 C 1282.76 0.707627 -1.89307 0
M  V30 12919 C 1283.08 1.7541 -0.851831 0
M  V30 12920 O 1282.35 1.95571 0.113404 0
M  V30 12921 H 1280.93 0.264349 -0.698662 0
M  V30 12922 H 1283.59 -0.0161428 -1.94893 0
M  V30 12923 H 1282.69 1.19152 -2.8846 0
M  V30 12924 N 1282.99 1.54862 0.292472 0
M  V30 12925 C 1283.9 1.89472 1.38339 0
M  V30 12926 C 1284.92 0.789783 1.55043 0
M  V30 12927 O 1286.09 1.08705 1.69544 0
M  V30 12928 C 1283.16 2.14244 2.72581 0
M  V30 12929 C 1282.22 3.37913 2.64789 0
M  V30 12930 C 1281.45 3.61494 3.92629 0
M  V30 12931 O 1281.67 2.87931 4.92394 0
M  V30 12932 O 1280.61 4.55019 3.94007 0
M  V30 12933 H 1284.43 2.82298 1.11989 0
M  V30 12934 H 1282.02 1.41161 0.489291 0
M  V30 12935 H 1283.9 2.31689 3.51991 0
M  V30 12936 H 1282.58 1.24603 2.98757 0
M  V30 12937 H 1281.48 3.25823 1.83821 0
M  V30 12938 H 1282.82 4.27711 2.43565 0
M  V30 12939 N 1284.47 -0.556076 1.47464 0
M  V30 12940 C 1285.4 -1.67275 1.62915 0
M  V30 12941 C 1286.38 -1.63229 0.478562 0
M  V30 12942 O 1287.56 -1.80833 0.708032 0
M  V30 12943 C 1284.69 -3.05911 1.64426 0
M  V30 12944 C 1283.65 -3.24804 2.78722 0
M  V30 12945 C 1282.97 -4.64238 2.65307 0
M  V30 12946 C 1284.27 -3.10071 4.20302 0
M  V30 12947 H 1285.97 -1.54601 2.56396 0
M  V30 12948 H 1283.51 -0.742337 1.23391 0
M  V30 12949 H 1285.47 -3.83878 1.73826 0
M  V30 12950 H 1284.19 -3.19547 0.675053 0
M  V30 12951 H 1282.85 -2.49246 2.68835 0
M  V30 12952 H 1282.5 -4.74675 1.66412 0
M  V30 12953 H 1282.2 -4.77828 3.41986 0
M  V30 12954 H 1283.72 -5.44339 2.76637 0
M  V30 12955 H 1285.14 -3.77855 4.3116 0
M  V30 12956 H 1283.53 -3.3517 4.97776 0
M  V30 12957 H 1284.6 -2.06803 4.38589 0
M  V30 12958 N 1285.95 -1.35615 -0.802897 0
M  V30 12959 C 1287.36 -1.26062 -1.37715 0
M  V30 12960 C 1287.71 0.105411 -1.95917 0
M  V30 12961 O 1286.83 1.00648 -1.91569 0
M  V30 12962 C 1287.43 -2.28261 -2.50365 0
M  V30 12963 C 1285.99 -2.22437 -3.03642 0
M  V30 12964 C 1285.14 -2.1377 -1.76629 0
M  V30 12965 H 1288.09 -1.46689 -0.605631 0
M  V30 12966 H 1288.11 -1.91122 -3.29017 0
M  V30 12967 H 1287.62 -3.27671 -2.07975 0
M  V30 12968 H 1285.72 -1.2645 -3.50487 0
M  V30 12969 H 1285.83 -3.14558 -3.61373 0
M  V30 12970 H 1284.2 -1.59806 -1.98328 0
M  V30 12971 H 1284.98 -3.15046 -1.36385 0
M  V30 12972 N 1287.43 1.02549 -1.19673 0
M  V30 12973 C 1288.36 2.12794 -0.961289 0
M  V30 12974 C 1289.34 1.69766 0.106575 0
M  V30 12975 O 1290.52 1.94138 -0.0491358 0
M  V30 12976 C 1287.65 3.4364 -0.502868 0
M  V30 12977 C 1286.61 4.00367 -1.51296 0
M  V30 12978 C 1285.93 5.26874 -0.911491 0
M  V30 12979 C 1287.23 4.34782 -2.89416 0
M  V30 12980 H 1288.93 2.32748 -1.88331 0
M  V30 12981 H 1286.47 1.11852 -0.906922 0
M  V30 12982 H 1288.42 4.20141 -0.325436 0
M  V30 12983 H 1287.15 3.23418 0.454764 0
M  V30 12984 H 1285.81 3.25964 -1.67759 0
M  V30 12985 H 1285.46 5.02971 0.0537982 0
M  V30 12986 H 1285.16 5.65791 -1.58602 0
M  V30 12987 H 1286.68 6.06039 -0.74493 0
M  V30 12988 H 1288.09 5.02207 -2.76516 0
M  V30 12989 H 1286.49 4.8479 -3.53693 0
M  V30 12990 H 1287.56 3.43935 -3.41814 0
M  V30 12991 N 1288.9 1.00119 1.21713 0
M  V30 12992 C 1290.13 0.700431 1.94683 0
M  V30 12993 C 1290.55 -0.736333 1.73849 0
M  V30 12994 O 1289.9 -1.49778 1.04272 0
M  V30 12995 C 1289.95 1.00722 3.47185 0
M  V30 12996 O 1289.68 2.38754 3.67326 0
M  V30 12997 C 1291.18 0.725335 4.37326 0
M  V30 12998 H 1288.4 0.25843 0.619238 0
M  V30 12999 H 1290.94 1.3382 1.54636 0
M  V30 13000 H 1289.1 0.415117 3.85169 0
M  V30 13001 H 1289.51 2.49321 4.61454 0
M  V30 13002 H 1290.98 0.990202 5.43046 0
M  V30 13003 H 1291.46 -0.340649 4.37877 0
M  V30 13004 H 1292.07 1.29888 4.04981 0
M  V30 13005 N 1290.38 -1.37203 0.775435 0
M  V30 13006 C 1291.61 -2.04396 0.351737 0
M  V30 13007 C 1292.03 -1.58099 -1.01913 0
M  V30 13008 O 1291.39 -0.742932 -1.65379 0
M  V30 13009 C 1291.44 -3.58283 0.408105 0
M  V30 13010 O 1290.54 -4.08156 -0.590104 0
M  V30 13011 H 1289.88 -0.646451 0.151647 0
M  V30 13012 H 1292.41 -1.75443 1.05265 0
M  V30 13013 H 1292.42 -4.07127 0.266711 0
M  V30 13014 H 1291.1 -3.91335 1.40819 0
M  V30 13015 H 1289.67 -3.70622 -0.411524 0
M  V30 13016 N 1291.86 -0.526279 -1.48553 0
M  V30 13017 C 1293.27 -0.0848694 -1.86507 0
M  V30 13018 C 1293.62 1.3367 -1.43621 0
M  V30 13019 O 1292.75 2.00046 -0.825268 0
M  V30 13020 C 1293.34 -0.147241 -3.3848 0
M  V30 13021 C 1291.9 0.238954 -3.75641 0
M  V30 13022 C 1291.05 -0.508648 -2.72595 0
M  V30 13023 H 1294 -0.737728 -1.40511 0
M  V30 13024 H 1294.02 0.641964 -3.75045 0
M  V30 13025 H 1293.53 -1.18199 -3.69663 0
M  V30 13026 H 1291.63 1.27598 -3.50071 0
M  V30 13027 H 1291.75 -0.0980808 -4.79 0
M  V30 13028 H 1290.11 0.0446382 -2.54661 0
M  V30 13029 H 1290.89 -1.54395 -3.06622 0
M  V30 13030 N 1293.34 1.5542 -0.261239 0
M  V30 13031 C 1294.29 2.18644 0.646442 0
M  V30 13032 C 1295.27 1.14672 1.12868 0
M  V30 13033 O 1296.46 1.40534 1.07606 0
M  V30 13034 C 1293.59 2.90045 1.83655 0
M  V30 13035 C 1292.68 4.01289 1.37214 0
M  V30 13036 N 1293.07 5.01949 0.622927 0
M  V30 13037 C 1291.37 4.14107 1.65625 0
M  V30 13038 C 1292.07 5.80454 0.380569 0
M  V30 13039 N 1291.04 5.35253 0.94897 0
M  V30 13040 H 1294.85 2.93826 0.0660348 0
M  V30 13041 H 1292.36 1.62273 -0.0641794 0
M  V30 13042 H 1294.36 3.33778 2.49796 0
M  V30 13043 H 1293.02 2.16369 2.42104 0
M  V30 13044 H 1294.03 5.17187 0.271619 0
M  V30 13045 H 1290.71 3.51613 2.2511 0
M  V30 13046 H 1292.1 6.71545 -0.218528 0
M  V30 13047 N 1294.82 -0.0116844 1.57596 0
M  V30 13048 C 1295.78 -0.991601 2.0664 0
M  V30 13049 C 1296.78 -1.27973 0.973629 0
M  V30 13050 O 1297.97 -1.22686 1.23668 0
M  V30 13051 C 1295.1 -2.31975 2.49801 0
M  V30 13052 H 1296.29 -0.567607 2.9448 0
M  V30 13053 H 1293.85 -0.258906 1.54141 0
M  V30 13054 H 1294.58 -2.79087 1.65169 0
M  V30 13055 H 1294.37 -2.12386 3.29598 0
M  V30 13056 H 1295.86 -3.02294 2.88112 0
M  V30 13057 N 1296.29 -1.55015 -0.284256 0
M  V30 13058 C 1297.26 -1.8636 -1.33426 0
M  V30 13059 C 1298.26 -0.737457 -1.42892 0
M  V30 13060 O 1299.45 -1.00569 -1.42238 0
M  V30 13061 C 1296.58 -2.05884 -2.71707 0
M  V30 13062 H 1297.77 -2.80212 -1.06869 0
M  V30 13063 H 1295.32 -1.47334 -0.521767 0
M  V30 13064 H 1296.06 -1.14376 -3.03461 0
M  V30 13065 H 1295.84 -2.87867 -2.66224 0
M  V30 13066 H 1297.33 -2.31447 -3.47595 0
M  V30 13067 N 1297.77 0.548248 -1.47757 0
M  V30 13068 C 1299.02 1.30139 -1.54099 0
M  V30 13069 C 1299.33 1.9445 -0.2118 0
M  V30 13070 O 1300.54 2.71067 -0.153302 0
M  V30 13071 C 1299 2.36039 -2.71687 0
M  V30 13072 C 1298.6 1.77879 -4.11173 0
M  V30 13073 C 1300.35 3.12478 -2.87329 0
M  V30 13074 C 1298.25 2.81611 -5.20047 0
M  V30 13075 H 1297.18 0.489364 -0.573619 0
M  V30 13076 H 1299.84 0.581237 -1.74051 0
M  V30 13077 H 1298.22 3.11008 -2.45132 0
M  V30 13078 H 1299.39 1.09221 -4.47669 0
M  V30 13079 H 1297.71 1.13994 -4.00493 0
M  V30 13080 H 1300.3 3.89958 -3.65837 0
M  V30 13081 H 1300.65 3.67218 -1.96103 0
M  V30 13082 H 1301.18 2.4462 -3.13697 0
M  V30 13083 H 1297.92 2.31714 -6.13179 0
M  V30 13084 H 1297.44 3.48652 -4.88059 0
M  V30 13085 H 1299.12 3.44938 -5.47382 0
M  V30 13086 N 1299.25 1.36039 0.795694 0
M  V30 13087 C 1300.5 1.29251 1.54845 0
M  V30 13088 C 1300.81 -0.127926 1.95181 0
M  V30 13089 O 1302.02 -0.318141 2.6963 0
M  V30 13090 C 1300.47 2.26736 2.79497 0
M  V30 13091 C 1300.08 3.74183 2.46355 0
M  V30 13092 C 1301.83 2.28913 3.5749 0
M  V30 13093 C 1299.73 4.63462 3.67365 0
M  V30 13094 H 1298.66 0.48027 0.581255 0
M  V30 13095 H 1301.31 1.61366 0.873693 0
M  V30 13096 H 1299.7 1.87608 3.4874 0
M  V30 13097 H 1300.87 4.22011 1.8505 0
M  V30 13098 H 1299.18 3.7472 1.81586 0
M  V30 13099 H 1301.78 2.92828 4.47388 0
M  V30 13100 H 1302.12 1.2959 3.95616 0
M  V30 13101 H 1302.66 2.66627 2.9522 0
M  V30 13102 H 1299.4 5.63824 3.34339 0
M  V30 13103 H 1298.92 4.20354 4.27858 0
M  V30 13104 H 1300.6 4.79424 4.34467 0
M  V30 13105 N 1300.73 -1.01913 1.20215 0
M  V30 13106 C 1301.68 -2.12516 0.945493 0
M  V30 13107 C 1302.67 -1.69091 -0.102243 0
M  V30 13108 O 1303.88 -1.79936 0.047888 0
M  V30 13109 H 1300.25 -0.694496 0.288409 0
M  V30 13110 H 1302.22 -2.31349 1.88468 0
M  V30 13111 C 1300.97 -3.43919 0.51137 0
M  V30 13112 H 1300.29 -3.77758 1.30916 0
M  V30 13113 H 1301.73 -4.22374 0.370981 0
M  V30 13114 C 1300.19 -3.27844 -0.775902 0
M  V30 13115 O 1300.72 -3.5734 -1.83496 0
M  V30 13116 N 1298.93 -2.81101 -0.73694 0
M  V30 13117 H 1298.48 -2.57296 0.125164 0
M  V30 13118 H 1298.43 -2.70726 -1.59859 0
M  V30 13119 N 1302.21 -1.00763 -1.2118 0
M  V30 13120 C 1303.17 -0.575183 -2.21865 0
M  V30 13121 C 1304.17 0.349871 -1.56948 0
M  V30 13122 O 1305.36 0.139795 -1.73638 0
M  V30 13123 C 1302.49 0.161308 -3.40518 0
M  V30 13124 H 1303.68 -1.46578 -2.61639 0
M  V30 13125 H 1301.24 -0.79643 -1.34487 0
M  V30 13126 H 1301.97 1.06723 -3.06236 0
M  V30 13127 H 1301.76 -0.503101 -3.88859 0
M  V30 13128 H 1303.25 0.451527 -4.15152 0
M  V30 13129 N 1303.68 1.3679 -0.7827 0
M  V30 13130 C 1304.93 1.98664 -0.348634 0
M  V30 13131 C 1305.25 1.62827 1.08382 0
M  V30 13132 O 1306.45 2.17886 1.61982 0
M  V30 13133 C 1304.91 3.55319 -0.572392 0
M  V30 13134 C 1304.52 4.00086 -2.01582 0
M  V30 13135 C 1306.26 4.24017 -0.202496 0
M  V30 13136 C 1304.17 5.49493 -2.18659 0
M  V30 13137 H 1303.1 0.743294 -0.126612 0
M  V30 13138 H 1305.75 1.56177 -0.963383 0
M  V30 13139 H 1304.13 3.95842 0.111973 0
M  V30 13140 H 1305.3 3.7078 -2.73603 0
M  V30 13141 H 1303.62 3.44205 -2.34333 0
M  V30 13142 H 1306.22 5.3381 -0.308459 0
M  V30 13143 H 1306.56 4.07559 0.84859 0
M  V30 13144 H 1307.09 3.88834 -0.839834 0
M  V30 13145 H 1303.83 5.7089 -3.22126 0
M  V30 13146 H 1303.35 5.80447 -1.51134 0
M  V30 13147 H 1305.03 6.15621 -1.99048 0
M  V30 13148 N 1305.16 0.53415 1.48272 0
M  V30 13149 C 1306.11 -0.226335 2.29688 0
M  V30 13150 C 1307.08 -0.929937 1.37628 0
M  V30 13151 O 1308.26 -0.930149 1.66592 0
M  V30 13152 C 1305.4 -1.26472 3.2109 0
M  V30 13153 C 1304.52 -0.569542 4.28229 0
M  V30 13154 C 1303.65 -1.59122 5.06807 0
M  V30 13155 C 1302.69 -0.879734 6.05745 0
M  V30 13156 N 1301.83 -1.84715 6.77366 0
M  V30 13157 H 1306.67 0.474111 2.94204 0
M  V30 13158 H 1304.21 0.245643 1.45034 0
M  V30 13159 H 1306.16 -1.87911 3.72485 0
M  V30 13160 H 1304.79 -1.9335 2.58487 0
M  V30 13161 H 1303.85 0.158872 3.80068 0
M  V30 13162 H 1305.16 -0.0110904 4.98799 0
M  V30 13163 H 1304.31 -2.27977 5.62238 0
M  V30 13164 H 1303.05 -2.18357 4.36086 0
M  V30 13165 H 1302.06 -0.177134 5.49515 0
M  V30 13166 H 1303.28 -0.293439 6.78466 0
M  V30 13167 H 1301.23 -2.42851 6.09393 0
M  V30 13168 H 1301.14 -1.34025 7.44025 0
M  V30 13169 H 1302.41 -2.52756 7.37384 0
M  V30 13170 N 1306.64 -1.55279 0.269478 0
M  V30 13171 C 1307.87 -2.04334 -0.355313 0
M  V30 13172 C 1308.29 -1.14677 -1.491 0
M  V30 13173 O 1307.65 -0.144215 -1.80726 0
M  V30 13174 C 1307.7 -3.51172 -0.819162 0
M  V30 13175 O 1306.8 -3.64615 -1.9269 0
M  V30 13176 H 1306.14 -0.659827 -0.0743229 0
M  V30 13177 H 1308.67 -2.00609 0.402131 0
M  V30 13178 H 1308.68 -3.92428 -1.11642 0
M  V30 13179 H 1307.36 -4.15898 0.0117821 0
M  V30 13180 H 1305.93 -3.35261 -1.63261 0
M  V30 13181 N 1308.12 0.00332656 -1.576 0
M  V30 13182 C 1309.08 0.980628 -2.07163 0
M  V30 13183 C 1310.08 1.27455 -0.980402 0
M  V30 13184 O 1311.27 1.22029 -1.24317 0
M  V30 13185 C 1308.4 2.30647 -2.51028 0
M  V30 13186 H 1309.6 0.551982 -2.94776 0
M  V30 13187 H 1307.15 0.250728 -1.54276 0
M  V30 13188 H 1307.88 2.78207 -1.66647 0
M  V30 13189 H 1307.67 2.10635 -3.30719 0
M  V30 13190 H 1309.16 3.00761 -2.89711 0
M  V30 13191 N 1309.6 1.55164 0.276031 0
M  V30 13192 C 1310.82 1.79649 1.02635 0
M  V30 13193 C 1311.24 0.568289 1.80044 0
M  V30 13194 O 1310.6 -0.462569 1.7654 0
M  V30 13195 C 1310.65 3.01974 1.98731 0
M  V30 13196 O 1310.37 4.2005 1.24459 0
M  V30 13197 C 1311.87 3.39039 2.856 0
M  V30 13198 H 1309.09 0.598529 0.303321 0
M  V30 13199 H 1311.63 2.02171 0.307733 0
M  V30 13200 H 1309.79 2.81586 2.6606 0
M  V30 13201 H 1310.2 4.89185 1.89205 0
M  V30 13202 H 1311.68 4.27809 3.48831 0
M  V30 13203 H 1312.15 2.58306 3.55211 0
M  V30 13204 H 1312.76 3.61674 2.23767 0
M  V30 13205 N 1311.07 -0.540404 1.48045 0
M  V30 13206 C 1312.32 -1.29422 1.55224 0
M  V30 13207 C 1312.64 -1.93716 0.223365 0
M  V30 13208 O 1311.91 -1.808 -0.754204 0
M  V30 13209 H 1310.49 -0.480658 0.571819 0
M  V30 13210 H 1313.16 -0.629712 1.84447 0
M  V30 13211 H 1312.25 -2.07897 2.32777 0
M  V30 13212 N 1312.55 -1.36459 -0.788468 0
M  V30 13213 C 1313.8 -1.30935 -1.54867 0
M  V30 13214 C 1314.13 0.110916 -1.93883 0
M  V30 13215 O 1313.41 1.06452 -1.62783 0
M  V30 13216 C 1313.69 -2.23294 -2.8251 0
M  V30 13217 C 1313.54 -3.74022 -2.49856 0
M  V30 13218 C 1314.86 -2.14407 -3.84341 0
M  V30 13219 H 1311.98 -0.476958 -0.561854 0
M  V30 13220 H 1314.62 -1.67018 -0.905805 0
M  V30 13221 H 1312.77 -1.92652 -3.37369 0
M  V30 13222 H 1314.44 -4.15187 -2.01041 0
M  V30 13223 H 1312.69 -3.93411 -1.82785 0
M  V30 13224 H 1313.36 -4.34057 -3.41026 0
M  V30 13225 H 1315.83 -2.41381 -3.38932 0
M  V30 13226 H 1314.71 -2.81199 -4.71401 0
M  V30 13227 H 1314.97 -1.13166 -4.27371 0
M  V30 13228 N 1314.03 1.01274 -1.20754 0
M  V30 13229 C 1315.45 1.27256 -0.963221 0
M  V30 13230 C 1315.65 1.98349 0.354972 0
M  V30 13231 O 1314.7 2.28116 1.08255 0
M  V30 13232 C 1316.02 2.1038 -2.14851 0
M  V30 13233 C 1317.56 2.23633 -2.18991 0
M  V30 13234 C 1318.04 3.10136 -3.37016 0
M  V30 13235 N 1319.53 3.17724 -3.37054 0
M  V30 13236 C 1320.26 3.84891 -4.25025 0
M  V30 13237 N 1319.76 4.54152 -5.23181 0
M  V30 13238 N 1321.55 3.81454 -4.12855 0
M  V30 13239 H 1313.7 0.535534 -2.05538 0
M  V30 13240 H 1315.97 0.299006 -0.899611 0
M  V30 13241 H 1315.67 1.65484 -3.10335 0
M  V30 13242 H 1315.55 3.11122 -2.13267 0
M  V30 13243 H 1317.93 2.67753 -1.24067 0
M  V30 13244 H 1318.02 1.22387 -2.24622 0
M  V30 13245 H 1317.66 2.66721 -4.32229 0
M  V30 13246 H 1317.59 4.11478 -3.28623 0
M  V30 13247 H 1320.08 2.68412 -2.66014 0
M  V30 13248 H 1320.39 5.03084 -5.86623 0
M  V30 13249 H 1318.74 4.52964 -5.27113 0
M  V30 13250 H 1321.93 3.26494 -3.35439 0
M  V30 13251 H 1322.1 4.33523 -4.81624 0
M  V30 13252 N 1315.51 1.01404 1.20644 0
M  V30 13253 C 1316.76 0.697244 1.89265 0
M  V30 13254 C 1317.07 -0.776149 1.79542 0
M  V30 13255 O 1318.28 -1.2054 2.43274 0
M  V30 13256 C 1316.73 1.19672 3.39421 0
M  V30 13257 C 1316.34 2.69683 3.57736 0
M  V30 13258 C 1318.09 0.955225 4.13613 0
M  V30 13259 C 1315.99 3.13124 5.01704 0
M  V30 13260 H 1314.92 0.257105 0.708811 0
M  V30 13261 H 1317.57 1.22639 1.36499 0
M  V30 13262 H 1315.96 0.595562 3.91496 0
M  V30 13263 H 1317.13 3.35326 3.16059 0
M  V30 13264 H 1315.44 2.91946 2.96911 0
M  V30 13265 H 1318.04 1.25524 5.19757 0
M  V30 13266 H 1318.38 -0.108362 4.16159 0
M  V30 13267 H 1318.92 1.51962 3.67631 0
M  V30 13268 H 1315.66 4.18748 5.04311 0
M  V30 13269 H 1315.18 2.522 5.44201 0
M  V30 13270 H 1316.86 3.05617 5.70269 0
M  V30 13271 N 1316.99 -1.36373 0.789944 0
M  V30 13272 C 1318.22 -2.03187 0.373987 0
M  V30 13273 C 1318.63 -1.59697 -1.01457 0
M  V30 13274 O 1317.97 -0.782151 -1.66217 0
M  V30 13275 C 1318.03 -3.57703 0.358985 0
M  V30 13276 C 1317.69 -4.24396 1.69521 0
M  V30 13277 C 1318.69 -4.47247 2.65077 0
M  V30 13278 C 1316.38 -4.61858 1.97465 0
M  V30 13279 C 1318.37 -5.06642 3.86772 0
M  V30 13280 C 1316.06 -5.2097 3.19426 0
M  V30 13281 C 1317.06 -5.43302 4.13899 0
M  V30 13282 O 1316.74 -6.01173 5.3371 0
M  V30 13283 H 1316.48 -0.658654 0.152153 0
M  V30 13284 H 1319.03 -1.7532 1.07014 0
M  V30 13285 H 1317.26 -3.84691 -0.39366 0
M  V30 13286 H 1318.95 -4.05887 -0.0323762 0
M  V30 13287 H 1319.71 -4.18701 2.44775 0
M  V30 13288 H 1315.59 -4.438 1.2475 0
M  V30 13289 H 1319.14 -5.23989 4.60523 0
M  V30 13290 H 1315.03 -5.48943 3.39606 0
M  V30 13291 H 1315.8 -6.19638 5.34781 0
M  V30 13292 N 1318.47 -0.542005 -1.47987 0
M  V30 13293 C 1319.88 -0.200691 -1.58333 0
M  V30 13294 C 1320.08 1.29643 -1.54256 0
M  V30 13295 O 1319.14 2.07556 -1.43794 0
M  V30 13296 C 1320.45 -0.813878 -2.89476 0
M  V30 13297 C 1322 -0.783711 -3.0303 0
M  V30 13298 C 1322.47 -1.37569 -4.36851 0
M  V30 13299 N 1323.96 -1.33819 -4.43449 0
M  V30 13300 C 1324.7 -1.76602 -5.45527 0
M  V30 13301 N 1324.2 -2.27169 -6.54497 0
M  V30 13302 N 1325.99 -1.67765 -5.3648 0
M  V30 13303 H 1318.14 -1.51488 -1.4888 0
M  V30 13304 H 1320.4 -0.630835 -0.707638 0
M  V30 13305 H 1320.11 -1.86544 -2.98151 0
M  V30 13306 H 1319.98 -0.297978 -3.76021 0
M  V30 13307 H 1322.37 0.259118 -2.9396 0
M  V30 13308 H 1322.45 -1.33721 -2.18065 0
M  V30 13309 H 1322.09 -2.41751 -4.46675 0
M  V30 13310 H 1322.02 -0.797769 -5.20522 0
M  V30 13311 H 1324.52 -0.968147 -3.65288 0
M  V30 13312 H 1324.83 -2.57777 -7.2854 0
M  V30 13313 H 1323.17 -2.31171 -6.55427 0
M  V30 13314 H 1326.36 -1.28048 -4.50246 0
M  V30 13315 H 1326.54 -2.01426 -6.15899 0
M  V30 13316 N 1319.94 1.55134 -0.277709 0
M  V30 13317 C 1320.87 2.256 0.602232 0
M  V30 13318 C 1321.85 1.24708 1.15681 0
M  V30 13319 O 1323.04 1.53433 1.19046 0
M  V30 13320 C 1320.17 2.97907 1.78519 0
M  V30 13321 C 1319.12 4.0575 1.36203 0
M  V30 13322 C 1318.45 4.65644 2.62829 0
M  V30 13323 C 1319.75 5.19801 0.510327 0
M  V30 13324 H 1321.44 2.99396 0.0145622 0
M  V30 13325 H 1318.99 1.43999 0.00556389 0
M  V30 13326 H 1320.94 3.45915 2.40668 0
M  V30 13327 H 1319.67 2.21649 2.39873 0
M  V30 13328 H 1318.33 3.58557 0.763726 0
M  V30 13329 H 1317.97 3.86053 3.22447 0
M  V30 13330 H 1317.67 5.38463 2.35227 0
M  V30 13331 H 1319.2 5.16403 3.25823 0
M  V30 13332 H 1320.61 5.63845 1.03689 0
M  V30 13333 H 1319.01 5.99197 0.329073 0
M  V30 13334 H 1320.08 4.82614 -0.470273 0
M  V30 13335 N 1321.42 0.00503138 1.57599 0
M  V30 13336 C 1322.83 -0.537106 1.78807 0
M  V30 13337 C 1323.18 -1.73666 0.912945 0
M  V30 13338 O 1322.31 -2.16085 0.116775 0
M  V30 13339 C 1322.9 -0.98116 3.24282 0
M  V30 13340 C 1321.46 -1.46857 3.46569 0
M  V30 13341 C 1320.61 -0.422088 2.74069 0
M  V30 13342 H 1323.56 0.231182 1.57007 0
M  V30 13343 H 1323.58 -1.8469 3.32671 0
M  V30 13344 H 1323.09 -0.107907 3.8795 0
M  V30 13345 H 1321.19 -2.36255 2.88122 0
M  V30 13346 H 1321.31 -1.49256 4.55258 0
M  V30 13347 H 1319.67 -0.884853 2.38836 0
M  V30 13348 H 1320.45 0.442285 3.40439 0
M  V30 13349 N 1322.9 -1.55308 -0.267798 0
M  V30 13350 C 1323.86 -1.87765 -1.31442 0
M  V30 13351 C 1324.86 -0.752571 -1.42102 0
M  V30 13352 O 1326.05 -1.02072 -1.41163 0
M  V30 13353 C 1323.18 -2.08754 -2.69508 0
M  V30 13354 H 1324.38 -2.8133 -1.03891 0
M  V30 13355 H 1321.93 -1.47879 -0.506111 0
M  V30 13356 H 1322.67 -1.17588 -3.02231 0
M  V30 13357 H 1322.45 -2.90674 -2.63156 0
M  V30 13358 H 1323.94 -2.3512 -3.4512 0
M  V30 13359 N 1324.38 0.532545 -1.4833 0
M  V30 13360 C 1325.61 1.31141 -1.59642 0
M  V30 13361 C 1326.02 1.87476 -0.254835 0
M  V30 13362 O 1325.36 1.66985 0.765622 0
M  V30 13363 C 1325.42 2.50182 -2.58165 0
M  V30 13364 C 1325.08 2.14953 -4.03292 0
M  V30 13365 C 1326.08 1.70777 -4.91051 0
M  V30 13366 C 1323.77 2.25555 -4.4881 0
M  V30 13367 C 1325.76 1.37665 -6.22356 0
M  V30 13368 C 1323.45 1.92055 -5.80136 0
M  V30 13369 C 1324.45 1.48181 -6.66732 0
M  V30 13370 O 1324.13 1.15119 -7.95615 0
M  V30 13371 H 1323.87 0.405164 -0.541127 0
M  V30 13372 H 1326.42 0.649423 -1.94863 0
M  V30 13373 H 1324.65 3.19353 -2.1806 0
M  V30 13374 H 1326.34 3.12246 -2.5934 0
M  V30 13375 H 1327.1 1.62059 -4.57124 0
M  V30 13376 H 1322.98 2.5866 -3.81597 0
M  V30 13377 H 1326.53 1.03348 -6.89902 0
M  V30 13378 H 1322.42 2.00413 -6.136 0
M  V30 13379 H 1323.19 1.28539 -8.08344 0
M  V30 13380 N 1325.86 1.36875 0.78122 0
M  V30 13381 C 1327.27 1.28236 1.35692 0
M  V30 13382 C 1327.62 -0.0742286 1.9606 0
M  V30 13383 O 1326.74 -0.97588 1.93146 0
M  V30 13384 C 1327.34 2.32215 2.46702 0
M  V30 13385 C 1325.9 2.2724 3.00065 0
M  V30 13386 C 1325.04 2.16553 1.73206 0
M  V30 13387 H 1327.99 1.47634 0.582217 0
M  V30 13388 H 1328.02 1.96333 3.25935 0
M  V30 13389 H 1327.53 3.30938 2.02735 0
M  V30 13390 H 1325.63 1.3201 3.48431 0
M  V30 13391 H 1325.74 3.20267 3.56323 0
M  V30 13392 H 1324.11 1.62941 1.95761 0
M  V30 13393 H 1324.89 3.17176 1.31356 0
M  V30 13394 N 1327.33 -1.00632 1.21289 0
M  V30 13395 C 1328.24 -2.12829 0.986957 0
M  V30 13396 C 1329.26 -1.73895 -0.0605152 0
M  V30 13397 O 1330.44 -2.00985 0.129238 0
M  V30 13398 C 1327.5 -3.4226 0.553089 0
M  V30 13399 C 1326.56 -3.95376 1.67262 0
M  V30 13400 C 1325.79 -5.18629 1.25936 0
M  V30 13401 O 1326.02 -5.70246 0.132402 0
M  V30 13402 O 1324.95 -5.65157 2.07077 0
M  V30 13403 H 1328.78 -2.34765 1.92663 0
M  V30 13404 H 1326.36 -1.11208 0.997654 0
M  V30 13405 H 1328.24 -4.20177 0.320856 0
M  V30 13406 H 1326.92 -3.21716 -0.357881 0
M  V30 13407 H 1325.83 -3.18692 1.95924 0
M  V30 13408 H 1327.16 -4.20328 2.56097 0
M  V30 13409 N 1328.81 -1.02043 -1.20104 0
M  V30 13410 C 1329.76 -0.593945 -2.23027 0
M  V30 13411 C 1330.73 0.387931 -1.61506 0
M  V30 13412 O 1331.91 0.286504 -1.88637 0
M  V30 13413 C 1329.05 0.0577309 -3.45052 0
M  V30 13414 C 1328.17 -0.969169 -4.20988 0
M  V30 13415 C 1327.3 -0.288143 -5.30418 0
M  V30 13416 C 1326.34 -1.30154 -5.98102 0
M  V30 13417 N 1325.48 -0.646912 -6.99113 0
M  V30 13418 H 1330.32 -1.47623 -2.58866 0
M  V30 13419 H 1327.85 -0.738901 -1.27195 0
M  V30 13420 H 1329.81 0.452726 -4.14736 0
M  V30 13421 H 1328.44 0.90364 -3.09894 0
M  V30 13422 H 1327.49 -1.48229 -3.50332 0
M  V30 13423 H 1328.81 -1.73972 -4.67477 0
M  V30 13424 H 1327.96 0.162149 -6.06483 0
M  V30 13425 H 1326.7 0.514683 -4.84977 0
M  V30 13426 H 1325.7 -1.76218 -5.20795 0
M  V30 13427 H 1326.93 -2.10571 -6.45629 0
M  V30 13428 H 1324.88 0.135976 -6.55859 0
M  V30 13429 H 1324.79 -1.35548 -7.43749 0
M  V30 13430 H 1326.06 -0.220339 -7.79189 0
M  V30 13431 N 1330.29 1.35952 -0.797165 0
M  V30 13432 C 1331.54 1.99327 -0.373695 0
M  V30 13433 C 1331.87 1.63111 1.05396 0
M  V30 13434 O 1331.14 0.889736 1.72956 0
M  V30 13435 C 1331.43 3.5593 -0.54641 0
M  V30 13436 C 1331.28 4.01975 -2.01832 0
M  V30 13437 C 1332.6 4.40087 0.0337694 0
M  V30 13438 H 1329.72 0.724107 -0.137254 0
M  V30 13439 H 1332.36 1.61248 -1.00495 0
M  V30 13440 H 1330.51 3.88499 -0.00903959 0
M  V30 13441 H 1332.18 3.79859 -2.61735 0
M  V30 13442 H 1330.43 3.5323 -2.51815 0
M  V30 13443 H 1331.1 5.109 -2.09009 0
M  V30 13444 H 1333.57 4.13923 -0.425039 0
M  V30 13445 H 1332.45 5.48775 -0.117054 0
M  V30 13446 H 1332.71 4.27504 1.12661 0
M  V30 13447 N 1331.77 0.549846 1.47697 0
M  V30 13448 C 1332.7 -0.190364 2.32723 0
M  V30 13449 C 1333.68 -0.915933 1.43334 0
M  V30 13450 O 1334.86 -0.897838 1.72199 0
M  V30 13451 C 1331.99 -1.22545 3.24961 0
M  V30 13452 C 1330.95 -0.616805 4.23532 0
M  V30 13453 C 1330.27 -1.75599 5.05044 0
M  V30 13454 C 1331.57 0.424595 5.20571 0
M  V30 13455 H 1333.27 0.519461 2.94859 0
M  V30 13456 H 1330.81 0.251259 1.41791 0
M  V30 13457 H 1332.77 -1.75139 3.83281 0
M  V30 13458 H 1331.49 -1.96512 2.60865 0
M  V30 13459 H 1330.15 -0.112224 3.66428 0
M  V30 13460 H 1329.8 -2.48453 4.37356 0
M  V30 13461 H 1329.5 -1.35456 5.71774 0
M  V30 13462 H 1331.02 -2.28533 5.6622 0
M  V30 13463 H 1332.44 -0.0150025 5.73298 0
M  V30 13464 H 1330.83 0.7445 5.95464 0
M  V30 13465 H 1331.9 1.32318 4.66497 0
M  V30 13466 N 1333.25 -1.54984 0.285932 0
M  V30 13467 C 1334.16 -2.26621 -0.606648 0
M  V30 13468 C 1335.17 -1.29595 -1.16108 0
M  V30 13469 O 1336.35 -1.62551 -1.18908 0
M  V30 13470 C 1333.41 -2.98156 -1.76929 0
M  V30 13471 C 1332.47 -4.10685 -1.25045 0
M  V30 13472 C 1331.71 -4.788 -2.35768 0
M  V30 13473 O 1331.93 -4.46183 -3.55354 0
M  V30 13474 O 1330.86 -5.66523 -2.03312 0
M  V30 13475 H 1334.69 -3.03689 -0.0259981 0
M  V30 13476 H 1332.28 -1.49306 0.0529355 0
M  V30 13477 H 1334.16 -3.43076 -2.44697 0
M  V30 13478 H 1332.83 -2.23996 -2.33683 0
M  V30 13479 H 1331.74 -3.70198 -0.538919 0
M  V30 13480 H 1333.07 -4.86778 -0.728528 0
M  V30 13481 N 1334.72 -0.0133892 -1.57594 0
M  V30 13482 C 1335.69 0.958601 -2.08191 0
M  V30 13483 C 1336.69 1.26408 -0.993865 0
M  V30 13484 O 1337.88 1.20703 -1.25604 0
M  V30 13485 C 1335.01 2.27971 -2.5346 0
M  V30 13486 H 1336.2 0.520686 -2.95345 0
M  V30 13487 H 1333.76 0.234351 -1.54533 0
M  V30 13488 H 1334.49 2.76424 -1.69588 0
M  V30 13489 H 1334.28 2.07116 -3.32935 0
M  V30 13490 H 1335.77 2.97672 -2.92884 0
M  V30 13491 N 1336.2 1.55448 0.259558 0
M  V30 13492 C 1337.13 1.9226 1.32508 0
M  V30 13493 C 1338.11 0.786012 1.5085 0
M  V30 13494 O 1339.3 1.04526 1.6367 0
M  V30 13495 C 1336.43 2.20627 2.68218 0
M  V30 13496 C 1335.38 3.36418 2.64589 0
M  V30 13497 C 1334.71 3.50295 4.03977 0
M  V30 13498 C 1336.01 4.72452 2.2268 0
M  V30 13499 H 1337.7 2.81509 1.01945 0
M  V30 13500 H 1335.25 1.35444 0.488965 0
M  V30 13501 H 1337.2 2.44968 3.42883 0
M  V30 13502 H 1335.93 1.28191 3.00391 0
M  V30 13503 H 1334.58 3.12065 1.92382 0
M  V30 13504 H 1334.23 2.55302 4.33394 0
M  V30 13505 H 1333.93 4.28155 4.02439 0
M  V30 13506 H 1335.46 3.76944 4.8036 0
M  V30 13507 H 1336.87 4.96249 2.87071 0
M  V30 13508 H 1335.27 5.53323 2.32279 0
M  V30 13509 H 1336.34 4.70367 1.17826 0
M  V30 13510 N 1337.68 -0.524672 1.4861 0
M  V30 13511 C 1338.63 -1.62872 1.63527 0
M  V30 13512 C 1339.6 -1.59097 0.477202 0
M  V30 13513 O 1340.78 -1.77443 0.701341 0
M  V30 13514 C 1337.92 -3.01116 1.68592 0
M  V30 13515 C 1337.04 -3.15085 2.95542 0
M  V30 13516 C 1336.17 -4.4392 2.91734 0
M  V30 13517 C 1335.21 -4.51436 4.13366 0
M  V30 13518 N 1334.35 -5.71667 4.07605 0
M  V30 13519 H 1339.19 -1.49462 2.57808 0
M  V30 13520 H 1336.72 -0.727578 1.27846 0
M  V30 13521 H 1338.68 -3.81212 1.6951 0
M  V30 13522 H 1337.31 -3.13285 0.777975 0
M  V30 13523 H 1336.36 -2.28207 3.04345 0
M  V30 13524 H 1337.68 -3.165 3.85524 0
M  V30 13525 H 1336.83 -5.32312 2.91083 0
M  V30 13526 H 1335.57 -4.45034 1.9949 0
M  V30 13527 H 1334.57 -3.6145 4.14287 0
M  V30 13528 H 1335.8 -4.52057 5.06776 0
M  V30 13529 H 1333.74 -5.73668 3.18184 0
M  V30 13530 H 1333.66 -5.74599 4.91297 0
M  V30 13531 H 1334.93 -6.62331 4.1102 0
M  V30 13532 N 1339.16 -1.37287 -0.77395 0
M  V30 13533 C 1340.12 -1.32699 -1.86878 0
M  V30 13534 C 1341.12 -0.231486 -1.59125 0
M  V30 13535 O 1342.31 -0.487203 -1.67248 0
M  V30 13536 C 1339.44 -1.0609 -3.23972 0
M  V30 13537 H 1340.64 -2.30083 -1.92359 0
M  V30 13538 H 1338.19 -1.22284 -0.973459 0
M  V30 13539 H 1338.92 -0.0922868 -3.24169 0
M  V30 13540 H 1338.71 -1.85383 -3.45508 0
M  V30 13541 H 1340.2 -1.05524 -4.04048 0
M  V30 13542 O 1340.68 0.913948 -1.33151 0
M  V30 13543 H 1341.37 1.54756 -1.16492 0
M  V30 END ATOM
M  V30 BEGIN BOND
M  V30 END BOND
M  V30 END CTAB
M  END
$$$$
