drugbank_target|Q46702 TraN protein (DB04147)
 OpenBabel12092120483D

721729  0  0  0  0  0  0  0  0999 V2000
   -0.9080    1.9825   -0.1171 H   0  0  0  0  0 15  0  0  0  0  0  0
    0.0000    1.5760    0.0000 N   0  0  0  0  0 15  0  0  0  0  0  0
    0.9330    2.0387    1.0253 C   0  0  0  0  0 15  0  0  0  0  0  0
    1.9110    0.9285    1.3348 C   0  0  0  0  0 15  0  0  0  0  0  0
    3.0950    1.1967    1.4564 O   0  0  0  0  0 15  0  0  0  0  0  0
    0.2220    2.4363    2.3529 C   0  0  0  0  0 15  0  0  0  0  0  0
   -0.7320    3.6537    2.2001 C   0  0  0  0  0 15  0  0  0  0  0  0
    0.1010    5.1329    1.5261 S   0  0  0  0  0 15  0  0  0  0  0  0
    1.2570    5.5632    2.8680 C   0  0  0  0  0 15  0  0  0  0  0  0
    1.4900    2.9052    0.6314 H   0  0  0  0  0 15  0  0  0  0  0  0
   -0.9770    1.5295    0.2109 H   0  0  0  0  0 15  0  0  0  0  0  0
    0.9810    2.6720    3.1163 H   0  0  0  0  0 15  0  0  0  0  0  0
   -0.3580    1.5738    2.7183 H   0  0  0  0  0 15  0  0  0  0  0  0
   -1.1650    3.9094    3.1809 H   0  0  0  0  0 15  0  0  0  0  0  0
   -1.5630    3.4180    1.5182 H   0  0  0  0  0 15  0  0  0  0  0  0
    0.7290    5.5878    3.8310 H   0  0  0  0  0 15  0  0  0  0  0  0
    1.6720    6.5627    2.6593 H   0  0  0  0  0 15  0  0  0  0  0  0
    2.0800    4.8389    2.9071 H   0  0  0  0  0 15  0  0  0  0  0  0
    1.4781   -0.2728    1.5522 N   0  0  0  0  0 15  0  0  0  0  0  0
    2.8941   -0.6200    1.4707 C   0  0  0  0  0 15  0  0  0  0  0  0
    3.0941   -1.8950    0.6850 C   0  0  0  0  0 15  0  0  0  0  0  0
    2.1501   -2.5168    0.2039 O   0  0  0  0  0 15  0  0  0  0  0  0
    3.4631   -0.7467    2.9128 C   0  0  0  0  0 15  0  0  0  0  0  0
    5.0111   -0.8407    3.0150 C   0  0  0  0  0 15  0  0  0  0  0  0
    5.4861   -0.9992    4.4697 C   0  0  0  0  0 15  0  0  0  0  0  0
    6.9771   -1.0648    4.5080 N   0  0  0  0  0 15  0  0  0  0  0  0
    7.7121   -1.2062    5.6057 C   0  0  0  0  0 15  0  0  0  0  0  0
    7.2081   -1.3148    6.8021 N   0  0  0  0  0 15  0  0  0  0  0  0
    9.0011   -1.2373    5.4831 N   0  0  0  0  0 15  0  0  0  0  0  0
    1.1521    0.5646    2.0476 H   0  0  0  0  0 15  0  0  0  0  0  0
    3.4151    0.1912    0.9285 H   0  0  0  0  0 15  0  0  0  0  0  0
    3.1211    0.1198    3.5150 H   0  0  0  0  0 15  0  0  0  0  0  0
    2.9951   -1.6269    3.4031 H   0  0  0  0  0 15  0  0  0  0  0  0
    5.3821   -1.6976    2.4138 H   0  0  0  0  0 15  0  0  0  0  0  0
    5.4631    0.0641    2.5572 H   0  0  0  0  0 15  0  0  0  0  0  0
    5.1071   -0.1470    5.0769 H   0  0  0  0  0 15  0  0  0  0  0  0
    5.0371   -1.9187    4.9040 H   0  0  0  0  0 15  0  0  0  0  0  0
    7.5281   -0.9932    3.6461 H   0  0  0  0  0 15  0  0  0  0  0  0
    7.8411   -1.4211    7.5962 H   0  0  0  0  0 15  0  0  0  0  0  0
    6.1861   -1.2849    6.8302 H   0  0  0  0  0 15  0  0  0  0  0  0
    9.3771   -1.1488    4.5379 H   0  0  0  0  0 15  0  0  0  0  0  0
    9.5501   -1.3441    6.3391 H   0  0  0  0  0 15  0  0  0  0  0  0
    2.9562   -1.4816   -0.5373 N   0  0  0  0  0 15  0  0  0  0  0  0
    4.1812   -1.5971   -1.3232 C   0  0  0  0  0 15  0  0  0  0  0  0
    4.6062   -0.2549   -1.8637 C   0  0  0  0  0 15  0  0  0  0  0  0
    3.9642    0.7724   -1.6402 O   0  0  0  0  0 15  0  0  0  0  0  0
    4.0122   -2.6412   -2.4551 C   0  0  0  0  0 15  0  0  0  0  0  0
    3.1162   -2.2077   -3.4833 O   0  0  0  0  0 15  0  0  0  0  0  0
    2.4572   -0.5358   -0.3922 H   0  0  0  0  0 15  0  0  0  0  0  0
    4.9872   -1.9409   -0.6473 H   0  0  0  0  0 15  0  0  0  0  0  0
    4.9972   -2.8517   -2.9180 H   0  0  0  0  0 15  0  0  0  0  0  0
    3.6722   -3.6157   -2.0553 H   0  0  0  0  0 15  0  0  0  0  0  0
    2.2492   -2.0991   -3.0821 H   0  0  0  0  0 15  0  0  0  0  0  0
    4.4343    0.7856   -1.3662 N   0  0  0  0  0 15  0  0  0  0  0  0
    5.3643    1.9126   -1.3395 C   0  0  0  0  0 15  0  0  0  0  0  0
    6.3453    1.6879   -0.2103 C   0  0  0  0  0 15  0  0  0  0  0  0
    7.5303    1.8985   -0.4086 O   0  0  0  0  0 15  0  0  0  0  0  0
    4.6603    3.2834   -1.1319 C   0  0  0  0  0 15  0  0  0  0  0  0
    3.6143    3.6533   -2.2297 C   0  0  0  0  0 15  0  0  0  0  0  0
    2.9403    5.0081   -1.8734 C   0  0  0  0  0 15  0  0  0  0  0  0
    4.2403    3.7352   -3.6508 C   0  0  0  0  0 15  0  0  0  0  0  0
    5.9343    1.9375   -2.2825 H   0  0  0  0  0 15  0  0  0  0  0  0
    3.4803    0.9308   -1.0987 H   0  0  0  0  0 15  0  0  0  0  0  0
    5.4333    4.0680   -1.0995 H   0  0  0  0  0 15  0  0  0  0  0  0
    4.1573    3.2624   -0.1533 H   0  0  0  0  0 15  0  0  0  0  0  0
    2.8163    2.8917   -2.2534 H   0  0  0  0  0 15  0  0  0  0  0  0
    2.4643    4.9523   -0.8805 H   0  0  0  0  0 15  0  0  0  0  0  0
    2.1643    5.2653   -2.6085 H   0  0  0  0  0 15  0  0  0  0  0  0
    3.6883    5.8169   -1.8567 H   0  0  0  0  0 15  0  0  0  0  0  0
    5.1023    4.4217   -3.6491 H   0  0  0  0  0 15  0  0  0  0  0  0
    3.4993    4.1073   -4.3752 H   0  0  0  0  0 15  0  0  0  0  0  0
    4.5693    2.7453   -3.9970 H   0  0  0  0  0 15  0  0  0  0  0  0
    5.9124    1.2097    1.0102 N   0  0  0  0  0 15  0  0  0  0  0  0
    6.8424    0.9883    2.1155 C   0  0  0  0  0 15  0  0  0  0  0  0
    7.8234   -0.0850    1.6989 C   0  0  0  0  0 15  0  0  0  0  0  0
    9.0084    0.0738    1.9406 O   0  0  0  0  0 15  0  0  0  0  0  0
    6.1384    0.5465    3.4297 C   0  0  0  0  0 15  0  0  0  0  0  0
    5.0924    1.5637    3.9841 C   0  0  0  0  0 15  0  0  0  0  0  0
    4.4184    0.9784    5.2567 C   0  0  0  0  0 15  0  0  0  0  0  0
    5.7184    2.9492    4.3107 C   0  0  0  0  0 15  0  0  0  0  0  0
    7.4124    1.9128    2.3033 H   0  0  0  0  0 15  0  0  0  0  0  0
    4.9584    0.9211    1.1069 H   0  0  0  0  0 15  0  0  0  0  0  0
    6.9114    0.3788    4.1969 H   0  0  0  0  0 15  0  0  0  0  0  0
    5.6354   -0.4136    3.2397 H   0  0  0  0  0 15  0  0  0  0  0  0
    4.2944    1.7189    3.2380 H   0  0  0  0  0 15  0  0  0  0  0  0
    3.9424    0.0102    5.0300 H   0  0  0  0  0 15  0  0  0  0  0  0
    3.6424    1.6578    5.6373 H   0  0  0  0  0 15  0  0  0  0  0  0
    5.1664    0.8219    6.0504 H   0  0  0  0  0 15  0  0  0  0  0  0
    6.5804    2.8288    4.9865 H   0  0  0  0  0 15  0  0  0  0  0  0
    4.9774    3.5983    4.8025 H   0  0  0  0  0 15  0  0  0  0  0  0
    6.0474    3.4616    3.3956 H   0  0  0  0  0 15  0  0  0  0  0  0
    7.3905   -1.2043    1.0166 N   0  0  0  0  0 15  0  0  0  0  0  0
    8.3205   -2.2547    0.6072 C   0  0  0  0  0 15  0  0  0  0  0  0
    9.3015   -1.6585   -0.3777 C   0  0  0  0  0 15  0  0  0  0  0  0
   10.4865   -1.9241   -0.2631 O   0  0  0  0  0 15  0  0  0  0  0  0
    7.6165   -3.4726   -0.0553 C   0  0  0  0  0 15  0  0  0  0  0  0
    6.5705   -4.1946    0.8506 C   0  0  0  0  0 15  0  0  0  0  0  0
    5.8965   -5.3467    0.0539 C   0  0  0  0  0 15  0  0  0  0  0  0
    7.1965   -4.7560    2.1587 C   0  0  0  0  0 15  0  0  0  0  0  0
    8.8905   -2.5996    1.4853 H   0  0  0  0  0 15  0  0  0  0  0  0
    6.4365   -1.2496    0.7156 H   0  0  0  0  0 15  0  0  0  0  0  0
    8.3895   -4.1992   -0.3532 H   0  0  0  0  0 15  0  0  0  0  0  0
    7.1135   -3.1192   -0.9680 H   0  0  0  0  0 15  0  0  0  0  0  0
    5.7725   -3.4867    1.1326 H   0  0  0  0  0 15  0  0  0  0  0  0
    5.4205   -4.9558   -0.8605 H   0  0  0  0  0 15  0  0  0  0  0  0
    5.1205   -5.8391    0.6572 H   0  0  0  0  0 15  0  0  0  0  0  0
    6.6445   -6.1014   -0.2376 H   0  0  0  0  0 15  0  0  0  0  0  0
    8.0585   -5.4008    1.9231 H   0  0  0  0  0 15  0  0  0  0  0  0
    6.4555   -5.3528    2.7128 H   0  0  0  0  0 15  0  0  0  0  0  0
    7.5255   -3.9435    2.8217 H   0  0  0  0  0 15  0  0  0  0  0  0
    8.8686   -0.7928   -1.3621 N   0  0  0  0  0 15  0  0  0  0  0  0
    9.8016   -0.1394   -2.2777 C   0  0  0  0  0 15  0  0  0  0  0  0
   10.7796    0.6865   -1.4740 C   0  0  0  0  0 15  0  0  0  0  0  0
   11.9636    0.6567   -1.7669 O   0  0  0  0  0 15  0  0  0  0  0  0
    9.0906    0.8079   -3.2892 C   0  0  0  0  0 15  0  0  0  0  0  0
    8.1366    0.0634   -4.2645 C   0  0  0  0  0 15  0  0  0  0  0  0
    8.9696   -1.2632   -5.2039 S   0  0  0  0  0 15  0  0  0  0  0  0
   10.1256   -0.3199   -6.2508 C   0  0  0  0  0 15  0  0  0  0  0  0
   10.3586   -0.9158   -2.8284 H   0  0  0  0  0 15  0  0  0  0  0  0
    7.8916   -0.5872   -1.4280 H   0  0  0  0  0 15  0  0  0  0  0  0
    9.8496    1.3491   -3.8770 H   0  0  0  0  0 15  0  0  0  0  0  0
    8.5106    1.5576   -2.7276 H   0  0  0  0  0 15  0  0  0  0  0  0
    7.7036    0.7824   -4.9789 H   0  0  0  0  0 15  0  0  0  0  0  0
    7.3056   -0.4074   -3.7177 H   0  0  0  0  0 15  0  0  0  0  0  0
    9.5976    0.5000   -6.7565 H   0  0  0  0  0 15  0  0  0  0  0  0
   10.5406   -1.0031   -7.0096 H   0  0  0  0  0 15  0  0  0  0  0  0
   10.9486    0.0783   -5.6445 H   0  0  0  0  0 15  0  0  0  0  0  0
   10.3467    1.4787   -0.5451 N   0  0  0  0  0 15  0  0  0  0  0  0
   11.5947    2.0209   -0.0166 C   0  0  0  0  0 15  0  0  0  0  0  0
   11.9157    1.4231    1.3332 C   0  0  0  0  0 15  0  0  0  0  0  0
   11.1857    0.5939    1.8668 O   0  0  0  0  0 15  0  0  0  0  0  0
    9.7657    0.7470   -0.0031 H   0  0  0  0  0 15  0  0  0  0  0  0
   12.4277    1.8141   -0.7124 H   0  0  0  0  0 15  0  0  0  0  0  0
   11.5237    3.1200    0.0805 H   0  0  0  0  0 15  0  0  0  0  0  0
   11.8248    0.2810    1.5507 N   0  0  0  0  0 15  0  0  0  0  0  0
   13.0708   -0.3346    2.0002 C   0  0  0  0  0 15  0  0  0  0  0  0
   13.4038   -1.5506    1.1691 C   0  0  0  0  0 15  0  0  0  0  0  0
   12.6788   -1.9301    0.2406 O   0  0  0  0  0 15  0  0  0  0  0  0
   12.9618   -0.7110    3.5301 C   0  0  0  0  0 15  0  0  0  0  0  0
   12.8148    0.5128    4.4687 C   0  0  0  0  0 15  0  0  0  0  0  0
   14.1338   -1.5452    4.1208 C   0  0  0  0  0 15  0  0  0  0  0  0
   11.2528   -0.1201    0.7271 H   0  0  0  0  0 15  0  0  0  0  0  0
   13.8948    0.3891    1.8597 H   0  0  0  0  0 15  0  0  0  0  0  0
   12.0448   -1.3276    3.6511 H   0  0  0  0  0 15  0  0  0  0  0  0
   13.7168    1.1513    4.4670 H   0  0  0  0  0 15  0  0  0  0  0  0
   11.9598    1.1497    4.1829 H   0  0  0  0  0 15  0  0  0  0  0  0
   12.6308    0.2056    5.5162 H   0  0  0  0  0 15  0  0  0  0  0  0
   15.1068   -1.0244    4.0329 H   0  0  0  0  0 15  0  0  0  0  0  0
   13.9828   -1.7774    5.1933 H   0  0  0  0  0 15  0  0  0  0  0  0
   14.2438   -2.5281    3.6268 H   0  0  0  0  0 15  0  0  0  0  0  0
   13.3029   -1.5760    0.0084 N   0  0  0  0  0 15  0  0  0  0  0  0
   14.2329   -2.1198   -0.9791 C   0  0  0  0  0 15  0  0  0  0  0  0
   15.2139   -1.0309   -1.3530 C   0  0  0  0  0 15  0  0  0  0  0  0
   16.3989   -1.3082   -1.4353 O   0  0  0  0  0 15  0  0  0  0  0  0
   13.5289   -2.6299   -2.2683 C   0  0  0  0  0 15  0  0  0  0  0  0
   12.4829   -3.7648   -2.0358 C   0  0  0  0  0 15  0  0  0  0  0  0
   11.8089   -4.1385   -3.3858 C   0  0  0  0  0 15  0  0  0  0  0  0
   13.1089   -5.0342   -1.3916 C   0  0  0  0  0 15  0  0  0  0  0  0
   14.8029   -2.9474   -0.5263 H   0  0  0  0  0 15  0  0  0  0  0  0
   12.3489   -1.4178   -0.2517 H   0  0  0  0  0 15  0  0  0  0  0  0
   14.3019   -2.9967   -2.9627 H   0  0  0  0  0 15  0  0  0  0  0  0
   13.0259   -1.7737   -2.7424 H   0  0  0  0  0 15  0  0  0  0  0  0
   11.6849   -3.4022   -1.3656 H   0  0  0  0  0 15  0  0  0  0  0  0
   11.3329   -3.2523   -3.8371 H   0  0  0  0  0 15  0  0  0  0  0  0
   11.0329   -4.9031   -3.2383 H   0  0  0  0  0 15  0  0  0  0  0  0
   12.5569   -4.5309   -4.0932 H   0  0  0  0  0 15  0  0  0  0  0  0
   13.9709   -5.3781   -1.9857 H   0  0  0  0  0 15  0  0  0  0  0  0
   12.3679   -5.8475   -1.3488 H   0  0  0  0  0 15  0  0  0  0  0  0
   13.4379   -4.8355   -0.3619 H   0  0  0  0  0 15  0  0  0  0  0  0
   14.7810    0.2645   -1.5536 N   0  0  0  0  0 15  0  0  0  0  0  0
   15.7110    1.3312   -1.9184 C   0  0  0  0  0 15  0  0  0  0  0  0
   16.6920    1.5110   -0.7812 C   0  0  0  0  0 15  0  0  0  0  0  0
   17.8770    1.6400   -1.0400 O   0  0  0  0  0 15  0  0  0  0  0  0
   15.0070    2.6892   -2.1977 C   0  0  0  0  0 15  0  0  0  0  0  0
   13.9610    2.6566   -3.3557 C   0  0  0  0  0 15  0  0  0  0  0  0
   13.2870    4.0509   -3.4900 C   0  0  0  0  0 15  0  0  0  0  0  0
   14.5870    2.2419   -4.7174 C   0  0  0  0  0 15  0  0  0  0  0  0
   16.2810    1.0284   -2.8118 H   0  0  0  0  0 15  0  0  0  0  0  0
   13.8270    0.4933   -1.3529 H   0  0  0  0  0 15  0  0  0  0  0  0
   15.7800    3.4366   -2.4387 H   0  0  0  0  0 15  0  0  0  0  0  0
   14.5040    3.0080   -1.2723 H   0  0  0  0  0 15  0  0  0  0  0  0
   13.1630    1.9338   -3.1145 H   0  0  0  0  0 15  0  0  0  0  0  0
   12.8110    4.3421   -2.5392 H   0  0  0  0  0 15  0  0  0  0  0  0
   12.5110    4.0380   -4.2687 H   0  0  0  0  0 15  0  0  0  0  0  0
   14.0350    4.8156   -3.7541 H   0  0  0  0  0 15  0  0  0  0  0  0
   15.4490    2.8865   -4.9533 H   0  0  0  0  0 15  0  0  0  0  0  0
   13.8460    2.3404   -5.5258 H   0  0  0  0  0 15  0  0  0  0  0  0
   14.9160    1.1933   -4.6999 H   0  0  0  0  0 15  0  0  0  0  0  0
   16.2591    1.4844    0.5294 N   0  0  0  0  0 15  0  0  0  0  0  0
   17.5081    1.5574    1.2817 C   0  0  0  0  0 15  0  0  0  0  0  0
   17.8211    0.2365    1.9416 C   0  0  0  0  0 15  0  0  0  0  0  0
   19.0271    0.1878    2.7085 O   0  0  0  0  0 15  0  0  0  0  0  0
   17.4831    2.7467    2.3256 C   0  0  0  0  0 15  0  0  0  0  0  0
   17.0911    4.1340    1.7264 C   0  0  0  0  0 15  0  0  0  0  0  0
   18.8351    2.9128    3.0880 C   0  0  0  0  0 15  0  0  0  0  0  0
   16.7421    5.2359    2.7497 C   0  0  0  0  0 15  0  0  0  0  0  0
   15.6721    0.5798    0.4820 H   0  0  0  0  0 15  0  0  0  0  0  0
   18.3231    1.7478    0.5591 H   0  0  0  0  0 15  0  0  0  0  0  0
   16.7051    2.4907    3.0787 H   0  0  0  0  0 15  0  0  0  0  0  0
   17.8791    4.4902    1.0352 H   0  0  0  0  0 15  0  0  0  0  0  0
   16.1941    4.0191    1.0889 H   0  0  0  0  0 15  0  0  0  0  0  0
   18.7911    3.7077    3.8527 H   0  0  0  0  0 15  0  0  0  0  0  0
   19.1341    2.0076    3.6469 H   0  0  0  0  0 15  0  0  0  0  0  0
   19.6671    3.1678    2.4061 H   0  0  0  0  0 15  0  0  0  0  0  0
   16.4061    6.1608    2.2390 H   0  0  0  0  0 15  0  0  0  0  0  0
   15.9261    4.9245    3.4242 H   0  0  0  0  0 15  0  0  0  0  0  0
   17.6051    5.5172    3.3795 H   0  0  0  0  0 15  0  0  0  0  0  0
   17.7372   -0.7783    1.3704 N   0  0  0  0  0 15  0  0  0  0  0  0
   18.9622   -1.5725    1.3523 C   0  0  0  0  0 15  0  0  0  0  0  0
   19.3872   -1.8800   -0.0616 C   0  0  0  0  0 15  0  0  0  0  0  0
   18.7452   -1.4873   -1.0367 O   0  0  0  0  0 15  0  0  0  0  0  0
   18.7932   -2.8635    2.1917 C   0  0  0  0  0 15  0  0  0  0  0  0
   17.8972   -3.8044    1.5918 O   0  0  0  0  0 15  0  0  0  0  0  0
   17.2382   -0.4766    0.4624 H   0  0  0  0  0 15  0  0  0  0  0  0
   19.7682   -0.9639    1.8047 H   0  0  0  0  0 15  0  0  0  0  0  0
   19.7782   -3.3552    2.3215 H   0  0  0  0  0 15  0  0  0  0  0  0
   18.4532   -2.6330    3.2194 H   0  0  0  0  0 15  0  0  0  0  0  0
   17.0302   -3.3907    1.5520 H   0  0  0  0  0 15  0  0  0  0  0  0
   19.2153   -1.2150   -1.0038 N   0  0  0  0  0 15  0  0  0  0  0  0
   20.1783   -0.9769   -2.0734 C   0  0  0  0  0 15  0  0  0  0  0  0
   21.1783    0.0525   -1.6071 C   0  0  0  0  0 15  0  0  0  0  0  0
   22.3683   -0.1849   -1.7322 O   0  0  0  0  0 15  0  0  0  0  0  0
   19.5003   -0.4734   -3.3760 C   0  0  0  0  0 15  0  0  0  0  0  0
   20.6933   -1.9259   -2.2989 H   0  0  0  0  0 15  0  0  0  0  0  0
   18.2463   -1.0322   -1.1737 H   0  0  0  0  0 15  0  0  0  0  0  0
   18.9813    0.4804   -3.2072 H   0  0  0  0  0 15  0  0  0  0  0  0
   18.7663   -1.2160   -3.7277 H   0  0  0  0  0 15  0  0  0  0  0  0
   20.2563   -0.3268   -4.1632 H   0  0  0  0  0 15  0  0  0  0  0  0
   20.6934    1.1989   -1.0230 N   0  0  0  0  0 15  0  0  0  0  0  0
   21.9334    1.9113   -0.7246 C   0  0  0  0  0 15  0  0  0  0  0  0
   22.2974    1.7746    0.7328 C   0  0  0  0  0 15  0  0  0  0  0  0
   23.4984    2.4324    1.1440 O   0  0  0  0  0 15  0  0  0  0  0  0
   21.7694    3.3819   -1.1560 C   0  0  0  0  0 15  0  0  0  0  0  0
   23.3284    4.2770   -0.9806 S   0  0  0  0  0 15  0  0  0  0  0  0
   20.1464    0.6602   -0.2640 H   0  0  0  0  0 15  0  0  0  0  0  0
   22.7484    1.4498   -1.3116 H   0  0  0  0  0 15  0  0  0  0  0  0
   21.4524    3.4565   -2.2125 H   0  0  0  0  0 15  0  0  0  0  0  0
   20.9834    3.8936   -0.5621 H   0  0  0  0  0 15  0  0  0  0  0  0
   22.9984    4.9607    0.1122 H   0  0  0  0  0 15  0  0  0  0  0  0
   22.1715    0.8000    1.3578 N   0  0  0  0  0 15  0  0  0  0  0  0
   23.3965    0.3885    2.0373 C   0  0  0  0  0 15  0  0  0  0  0  0
   23.8215   -0.9905    1.5991 C   0  0  0  0  0 15  0  0  0  0  0  0
   23.1795   -1.6401    0.7726 O   0  0  0  0  0 15  0  0  0  0  0  0
   23.2275    0.4726    3.5749 C   0  0  0  0  0 15  0  0  0  0  0  0
   22.3315   -0.5165    4.0915 O   0  0  0  0  0 15  0  0  0  0  0  0
   21.6725    0.1633    0.6436 H   0  0  0  0  0 15  0  0  0  0  0  0
   24.2025    1.0841    1.7352 H   0  0  0  0  0 15  0  0  0  0  0  0
   24.2125    0.3400    4.0658 H   0  0  0  0  0 15  0  0  0  0  0  0
   22.8875    1.4785    3.8873 H   0  0  0  0  0 15  0  0  0  0  0  0
   21.4645   -0.3447    3.7130 H   0  0  0  0  0 15  0  0  0  0  0  0
   23.6496   -1.4758    0.5530 N   0  0  0  0  0 15  0  0  0  0  0  0
   24.8746   -2.0738    0.0301 C   0  0  0  0  0 15  0  0  0  0  0  0
   25.2996   -1.4035   -1.2523 C   0  0  0  0  0 15  0  0  0  0  0  0
   24.6576   -0.4771   -1.7491 O   0  0  0  0  0 15  0  0  0  0  0  0
   24.7056   -3.6027   -0.1532 C   0  0  0  0  0 15  0  0  0  0  0  0
   23.8096   -3.9404   -1.2168 O   0  0  0  0  0 15  0  0  0  0  0  0
   23.1506   -0.6622    0.0494 H   0  0  0  0  0 15  0  0  0  0  0  0
   25.6806   -1.8966    0.7674 H   0  0  0  0  0 15  0  0  0  0  0  0
   25.6906   -4.0633   -0.3688 H   0  0  0  0  0 15  0  0  0  0  0  0
   24.3656   -4.0846    0.7834 H   0  0  0  0  0 15  0  0  0  0  0  0
   22.9426   -3.5974   -0.9821 H   0  0  0  0  0 15  0  0  0  0  0  0
   25.1277   -0.2892   -1.5492 N   0  0  0  0  0 15  0  0  0  0  0  0
   26.3757    0.3229   -1.9950 C   0  0  0  0  0 15  0  0  0  0  0  0
   26.6967    1.5531   -1.1791 C   0  0  0  0  0 15  0  0  0  0  0  0
   25.9667    1.9400   -0.2721 O   0  0  0  0  0 15  0  0  0  0  0  0
   24.5467    0.1223   -0.7369 H   0  0  0  0  0 15  0  0  0  0  0  0
   27.2087   -0.3978   -1.9080 H   0  0  0  0  0 15  0  0  0  0  0  0
   26.3047    0.6031   -3.0622 H   0  0  0  0  0 15  0  0  0  0  0  0
   26.6058    1.5759   -0.0167 N   0  0  0  0  0 15  0  0  0  0  0  0
   27.5558    2.0595    0.9781 C   0  0  0  0  0 15  0  0  0  0  0  0
   28.5398    0.9575    1.2931 C   0  0  0  0  0 15  0  0  0  0  0  0
   29.7318    1.2212    1.2812 O   0  0  0  0  0 15  0  0  0  0  0  0
   26.8608    2.5801    2.2647 C   0  0  0  0  0 15  0  0  0  0  0  0
   25.9468    3.7511    1.9787 C   0  0  0  0  0 15  0  0  0  0  0  0
   26.3378    4.8619    1.3949 N   0  0  0  0  0 15  0  0  0  0  0  0
   24.6358    3.8336    2.2792 C   0  0  0  0  0 15  0  0  0  0  0  0
   25.3368    5.6750    1.2774 C   0  0  0  0  0 15  0  0  0  0  0  0
   24.3128    5.1402    1.7687 N   0  0  0  0  0 15  0  0  0  0  0  0
   28.1148    2.8924    0.5215 H   0  0  0  0  0 15  0  0  0  0  0  0
   25.6288    1.6130    0.1886 H   0  0  0  0  0 15  0  0  0  0  0  0
   27.6258    2.9094    2.9860 H   0  0  0  0  0 15  0  0  0  0  0  0
   26.2858    1.7615    2.7277 H   0  0  0  0  0 15  0  0  0  0  0  0
   27.2968    5.0670    1.0715 H   0  0  0  0  0 15  0  0  0  0  0  0
   23.9738    3.1239    2.7698 H   0  0  0  0  0 15  0  0  0  0  0  0
   25.3638    6.6679    0.8270 H   0  0  0  0  0 15  0  0  0  0  0  0
   28.0839   -0.2563    1.5550 N   0  0  0  0  0 15  0  0  0  0  0  0
   29.0309   -1.3171    1.8953 C   0  0  0  0  0 15  0  0  0  0  0  0
   30.0009   -1.4828    0.7485 C   0  0  0  0  0 15  0  0  0  0  0  0
   31.1859   -1.6242    1.0013 O   0  0  0  0  0 15  0  0  0  0  0  0
   28.3259   -2.6693    2.1873 C   0  0  0  0  0 15  0  0  0  0  0  0
   27.4389   -2.5845    3.4616 C   0  0  0  0  0 15  0  0  0  0  0  0
   26.5739   -3.8596    3.6498 C   0  0  0  0  0 15  0  0  0  0  0  0
   25.6129   -3.7206    4.8604 C   0  0  0  0  0 15  0  0  0  0  0  0
   24.7499   -4.9144    5.0143 N   0  0  0  0  0 15  0  0  0  0  0  0
   29.5899   -1.0200    2.8000 H   0  0  0  0  0 15  0  0  0  0  0  0
   27.1269   -0.4924    1.3861 H   0  0  0  0  0 15  0  0  0  0  0  0
   29.0849   -3.4563    2.3366 H   0  0  0  0  0 15  0  0  0  0  0  0
   27.7149   -2.9482    1.3147 H   0  0  0  0  0 15  0  0  0  0  0  0
   26.7669   -1.7137    3.3961 H   0  0  0  0  0 15  0  0  0  0  0  0
   28.0789   -2.4408    4.3500 H   0  0  0  0  0 15  0  0  0  0  0  0
   27.2329   -4.7310    3.7982 H   0  0  0  0  0 15  0  0  0  0  0  0
   25.9719   -4.0321    2.7435 H   0  0  0  0  0 15  0  0  0  0  0  0
   24.9769   -2.8330    4.7119 H   0  0  0  0  0 15  0  0  0  0  0  0
   26.2019   -3.5631    5.7812 H   0  0  0  0  0 15  0  0  0  0  0  0
   24.1479   -5.0907    4.1374 H   0  0  0  0  0 15  0  0  0  0  0  0
   24.0649   -4.7967    5.8434 H   0  0  0  0  0 15  0  0  0  0  0  0
   25.3329   -5.8010    5.2067 H   0  0  0  0  0 15  0  0  0  0  0  0
   29.5620   -1.4872   -0.5215 N   0  0  0  0  0 15  0  0  0  0  0  0
   30.9730   -1.5061   -1.1034 C   0  0  0  0  0 15  0  0  0  0  0  0
   31.3240   -0.2806   -1.9418 C   0  0  0  0  0 15  0  0  0  0  0  0
   30.4490    0.6115   -2.0758 O   0  0  0  0  0 15  0  0  0  0  0  0
   31.0440   -2.7290   -2.0077 C   0  0  0  0  0 15  0  0  0  0  0  0
   29.6030   -2.7763   -2.5416 C   0  0  0  0  0 15  0  0  0  0  0  0
   28.7500   -2.4424   -1.3131 C   0  0  0  0  0 15  0  0  0  0  0  0
   31.7010   -1.5571   -0.3064 H   0  0  0  0  0 15  0  0  0  0  0  0
   31.7220   -2.5190   -2.8518 H   0  0  0  0  0 15  0  0  0  0  0  0
   31.2340   -3.6208   -1.3972 H   0  0  0  0  0 15  0  0  0  0  0  0
   29.3350   -1.9269   -3.1891 H   0  0  0  0  0 15  0  0  0  0  0  0
   29.4480   -3.7928   -2.9271 H   0  0  0  0  0 15  0  0  0  0  0  0
   27.8120   -1.9558   -1.6316 H   0  0  0  0  0 15  0  0  0  0  0  0
   28.5950   -3.3567   -0.7199 H   0  0  0  0  0 15  0  0  0  0  0  0
   31.0401    0.7711   -1.3745 N   0  0  0  0  0 15  0  0  0  0  0  0
   32.4511    1.3474   -1.2924 C   0  0  0  0  0 15  0  0  0  0  0  0
   32.8021    1.9611    0.0597 C   0  0  0  0  0 15  0  0  0  0  0  0
   31.9271    1.9386    0.9615 O   0  0  0  0  0 15  0  0  0  0  0  0
   32.5221    2.4497   -2.3404 C   0  0  0  0  0 15  0  0  0  0  0  0
   31.0811    2.9837   -2.2946 C   0  0  0  0  0 15  0  0  0  0  0  0
   30.2281    1.7160   -2.1783 C   0  0  0  0  0 15  0  0  0  0  0  0
   33.1791    0.5713   -1.4806 H   0  0  0  0  0 15  0  0  0  0  0  0
   33.2001    3.2447   -1.9874 H   0  0  0  0  0 15  0  0  0  0  0  0
   32.7121    2.0028   -3.3243 H   0  0  0  0  0 15  0  0  0  0  0  0
   30.8131    3.4744   -1.3459 H   0  0  0  0  0 15  0  0  0  0  0  0
   30.9261    3.5394   -3.2290 H   0  0  0  0  0 15  0  0  0  0  0  0
   29.2901    1.9455   -1.6439 H   0  0  0  0  0 15  0  0  0  0  0  0
   30.0731    1.2900   -3.1814 H   0  0  0  0  0 15  0  0  0  0  0  0
   32.5182    1.2203    0.9973 N   0  0  0  0  0 15  0  0  0  0  0  0
   33.9292    1.0397    1.5507 C   0  0  0  0  0 15  0  0  0  0  0  0
   34.2802   -0.3982    1.9212 C   0  0  0  0  0 15  0  0  0  0  0  0
   33.4052   -1.2825    1.7430 O   0  0  0  0  0 15  0  0  0  0  0  0
   34.0002    1.8811    2.8178 C   0  0  0  0  0 15  0  0  0  0  0  0
   32.5592    1.7436    3.3358 C   0  0  0  0  0 15  0  0  0  0  0  0
   31.7062    1.8485    2.0671 C   0  0  0  0  0 15  0  0  0  0  0  0
   34.6572    1.3594    0.8189 H   0  0  0  0  0 15  0  0  0  0  0  0
   34.6782    1.3959    3.5397 H   0  0  0  0  0 15  0  0  0  0  0  0
   34.1902    2.9275    2.5479 H   0  0  0  0  0 15  0  0  0  0  0  0
   32.2912    0.7243    3.6549 H   0  0  0  0  0 15  0  0  0  0  0  0
   32.4042    2.5677    4.0448 H   0  0  0  0  0 15  0  0  0  0  0  0
   30.7682    1.2824    2.2006 H   0  0  0  0  0 15  0  0  0  0  0  0
   31.5512    2.9101    1.8211 H   0  0  0  0  0 15  0  0  0  0  0  0
   33.9963   -1.1934    1.0293 N   0  0  0  0  0 15  0  0  0  0  0  0
   34.9063   -2.2624    0.6205 C   0  0  0  0  0 15  0  0  0  0  0  0
   35.9223   -1.7049   -0.3479 C   0  0  0  0  0 15  0  0  0  0  0  0
   37.0983   -2.0035   -0.2057 O   0  0  0  0  0 15  0  0  0  0  0  0
   34.1633   -3.4669   -0.0219 C   0  0  0  0  0 15  0  0  0  0  0  0
   33.2243   -4.1763    0.9941 C   0  0  0  0  0 15  0  0  0  0  0  0
   32.4573   -5.3233    0.3823 C   0  0  0  0  0 15  0  0  0  0  0  0
   32.6803   -5.6455   -0.8147 O   0  0  0  0  0 15  0  0  0  0  0  0
   31.6143   -5.9166    1.1053 O   0  0  0  0  0 15  0  0  0  0  0  0
   35.4403   -2.6345    1.5108 H   0  0  0  0  0 15  0  0  0  0  0  0
   33.0253   -1.2621    0.7995 H   0  0  0  0  0 15  0  0  0  0  0  0
   34.9073   -4.1968   -0.3801 H   0  0  0  0  0 15  0  0  0  0  0  0
   33.5823   -3.1133   -0.8862 H   0  0  0  0  0 15  0  0  0  0  0  0
   32.4893   -3.4676    1.4039 H   0  0  0  0  0 15  0  0  0  0  0  0
   33.8223   -4.5696    1.8288 H   0  0  0  0  0 15  0  0  0  0  0  0
   35.4744   -0.8072   -1.3536 N   0  0  0  0  0 15  0  0  0  0  0  0
   36.8854   -0.4488   -1.8123 C   0  0  0  0  0 15  0  0  0  0  0  0
   37.2364    1.0293   -1.6703 C   0  0  0  0  0 15  0  0  0  0  0  0
   36.3614    1.7999   -1.2013 O   0  0  0  0  0 15  0  0  0  0  0  0
   36.9564   -0.8078   -3.2903 C   0  0  0  0  0 15  0  0  0  0  0  0
   35.5154   -0.5019   -3.7304 C   0  0  0  0  0 15  0  0  0  0  0  0
   34.6624   -1.0330   -2.5734 C   0  0  0  0  0 15  0  0  0  0  0  0
   37.6134   -0.9988   -1.2333 H   0  0  0  0  0 15  0  0  0  0  0  0
   37.6344   -0.1055   -3.8035 H   0  0  0  0  0 15  0  0  0  0  0  0
   37.1464   -1.8836   -3.3933 H   0  0  0  0  0 15  0  0  0  0  0  0
   35.2474    0.5651   -3.6829 H   0  0  0  0  0 15  0  0  0  0  0  0
   35.3604   -1.0350   -4.6779 H   0  0  0  0  0 15  0  0  0  0  0  0
   33.7244   -0.4553   -2.5060 H   0  0  0  0  0 15  0  0  0  0  0  0
   34.5074   -2.1150   -2.7042 H   0  0  0  0  0 15  0  0  0  0  0  0
   36.9525    1.4729   -0.5608 N   0  0  0  0  0 15  0  0  0  0  0  0
   38.2295    1.9558    0.0278 C   0  0  0  0  0 15  0  0  0  0  0  0
   38.6095    1.5034    1.4819 C   0  0  0  0  0 15  0  0  0  0  0  0
   37.9575    0.7439    2.1605 O   0  0  0  0  0 15  0  0  0  0  0  0
   38.1675    3.4879   -0.1214 C   0  0  0  0  0 15  0  0  0  0  0  0
   39.5155    4.2459    0.0221 C   0  0  0  0  0 15  0  0  0  0  0  0
   40.5395    3.5617   -0.0491 O   0  0  0  0  0 15  0  0  0  0  0  0
   39.3985    5.4622    0.1760 O   0  0  0  0  0 15  0  0  0  0  0  0
   36.4925    0.8247    0.0621 H   0  0  0  0  0 15  0  0  0  0  0  0
   39.0385    1.5767   -0.6276 H   0  0  0  0  0 15  0  0  0  0  0  0
   37.8105    3.7453   -1.1332 H   0  0  0  0  0 15  0  0  0  0  0  0
   37.4335    3.9347    0.5714 H   0  0  0  0  0 15  0  0  0  0  0  0
   38.4306    0.2974    1.5477 N   0  0  0  0  0 15  0  0  0  0  0  0
   39.6766   -0.3063    2.0108 C   0  0  0  0  0 15  0  0  0  0  0  0
   40.0316   -1.5180    1.1821 C   0  0  0  0  0 15  0  0  0  0  0  0
   39.3246   -1.8997    0.2496 O   0  0  0  0  0 15  0  0  0  0  0  0
   39.5186   -0.7176    3.5012 C   0  0  0  0  0 15  0  0  0  0  0  0
   39.3476    0.4528    4.4741 C   0  0  0  0  0 15  0  0  0  0  0  0
   38.1176    0.9437    4.9641 C   0  0  0  0  0 15  0  0  0  0  0  0
   40.3156    1.2966    4.9769 C   0  0  0  0  0 15  0  0  0  0  0  0
   38.2976    2.0811    5.7755 N   0  0  0  0  0 15  0  0  0  0  0  0
   39.6686    2.2816    5.7649 C   0  0  0  0  0 15  0  0  0  0  0  0
   41.7236    1.3274    4.7988 C   0  0  0  0  0 15  0  0  0  0  0  0
   40.4266    3.2951    6.3939 C   0  0  0  0  0 15  0  0  0  0  0  0
   42.4526    2.3294    5.4359 C   0  0  0  0  0 15  0  0  0  0  0  0
   41.8146    3.3017    6.2223 C   0  0  0  0  0 15  0  0  0  0  0  0
   37.9136   -0.0766    0.7782 H   0  0  0  0  0 15  0  0  0  0  0  0
   40.4976    0.4265    1.8997 H   0  0  0  0  0 15  0  0  0  0  0  0
   38.6686   -1.4195    3.6153 H   0  0  0  0  0 15  0  0  0  0  0  0
   40.4006   -1.3005    3.8324 H   0  0  0  0  0 15  0  0  0  0  0  0
   37.1556    0.5192    4.7075 H   0  0  0  0  0 15  0  0  0  0  0  0
   37.5796    2.6541    6.2280 H   0  0  0  0  0 15  0  0  0  0  0  0
   42.2216    0.5894    4.1867 H   0  0  0  0  0 15  0  0  0  0  0  0
   39.9396    4.0423    6.9973 H   0  0  0  0  0 15  0  0  0  0  0  0
   43.5256    2.3609    5.3174 H   0  0  0  0  0 15  0  0  0  0  0  0
   42.4056    4.0645    6.7065 H   0  0  0  0  0 15  0  0  0  0  0  0
   39.9087   -1.5758    0.0251 N   0  0  0  0  0 15  0  0  0  0  0  0
   41.1337   -1.9634   -0.6683 C   0  0  0  0  0 15  0  0  0  0  0  0
   41.5587   -0.9013   -1.6510 C   0  0  0  0  0 15  0  0  0  0  0  0
   40.9167    0.1382   -1.8077 O   0  0  0  0  0 15  0  0  0  0  0  0
   40.9647   -3.3419   -1.3546 C   0  0  0  0  0 15  0  0  0  0  0  0
   40.0687   -3.3027   -2.4697 O   0  0  0  0  0 15  0  0  0  0  0  0
   39.4097   -0.6403   -0.1759 H   0  0  0  0  0 15  0  0  0  0  0  0
   41.9397   -2.0442    0.0857 H   0  0  0  0  0 15  0  0  0  0  0  0
   41.9497   -3.7033   -1.7123 H   0  0  0  0  0 15  0  0  0  0  0  0
   40.6247   -4.1104   -0.6342 H   0  0  0  0  0 15  0  0  0  0  0  0
   39.2017   -3.0584   -2.1334 H   0  0  0  0  0 15  0  0  0  0  0  0
   41.3868    0.2480   -1.5564 N   0  0  0  0  0 15  0  0  0  0  0  0
   42.3348    1.3268   -1.9104 C   0  0  0  0  0 15  0  0  0  0  0  0
   43.3288    1.4988   -0.7894 C   0  0  0  0  0 15  0  0  0  0  0  0
   44.5348    1.5137   -0.9740 O   0  0  0  0  0 15  0  0  0  0  0  0
   40.9098    0.4443   -0.6067 H   0  0  0  0  0 15  0  0  0  0  0  0
   42.8808    1.0008   -2.8112 H   0  0  0  0  0 15  0  0  0  0  0  0
   41.6298    2.6755   -2.2206 C   0  0  0  0  0 15  0  0  0  0  0  0
   40.9528    2.5511   -3.0783 H   0  0  0  0  0 15  0  0  0  0  0  0
   42.3928    3.4191   -2.5074 H   0  0  0  0  0 15  0  0  0  0  0  0
   40.8518    3.2056   -1.0366 C   0  0  0  0  0 15  0  0  0  0  0  0
   41.3818    4.0069   -0.2840 O   0  0  0  0  0 15  0  0  0  0  0  0
   39.5878    2.7857   -0.8275 N   0  0  0  0  0 15  0  0  0  0  0  0
   39.1348    2.1351   -1.4412 H   0  0  0  0  0 15  0  0  0  0  0  0
   39.0928    3.1438   -0.0370 H   0  0  0  0  0 15  0  0  0  0  0  0
   42.8649    1.4899    0.5136 N   0  0  0  0  0 15  0  0  0  0  0  0
   44.0929    1.6153    1.2929 C   0  0  0  0  0 15  0  0  0  0  0  0
   44.5079    0.2818    1.8669 C   0  0  0  0  0 15  0  0  0  0  0  0
   43.8649   -0.7311    1.6722 O   0  0  0  0  0 15  0  0  0  0  0  0
   43.9159    2.6745    2.4321 C   0  0  0  0  0 15  0  0  0  0  0  0
   43.6369    3.9563    1.8818 O   0  0  0  0  0 15  0  0  0  0  0  0
   45.1379    2.9057    3.3479 C   0  0  0  0  0 15  0  0  0  0  0  0
   42.3579    0.5442    0.3926 H   0  0  0  0  0 15  0  0  0  0  0  0
   44.9019    1.9494    0.6180 H   0  0  0  0  0 15  0  0  0  0  0  0
   43.0569    2.3685    3.0656 H   0  0  0  0  0 15  0  0  0  0  0  0
   43.4709    4.5387    2.6288 H   0  0  0  0  0 15  0  0  0  0  0  0
   44.9449    3.6845    4.1103 H   0  0  0  0  0 15  0  0  0  0  0  0
   45.4219    2.0001    3.9101 H   0  0  0  0  0 15  0  0  0  0  0  0
   46.0279    3.2254    2.7722 H   0  0  0  0  0 15  0  0  0  0  0  0
   44.3430   -0.7638    1.3786 N   0  0  0  0  0 15  0  0  0  0  0  0
   45.5890   -1.5248    1.3370 C   0  0  0  0  0 15  0  0  0  0  0  0
   45.9220   -1.9405   -0.0760 C   0  0  0  0  0 15  0  0  0  0  0  0
   45.1970   -1.6467   -1.0350 O   0  0  0  0  0 15  0  0  0  0  0  0
   45.4800   -2.7844    2.2835 C   0  0  0  0  0 15  0  0  0  0  0  0
   45.3330   -2.4308    3.7846 C   0  0  0  0  0 15  0  0  0  0  0  0
   46.6520   -3.8041    2.2130 C   0  0  0  0  0 15  0  0  0  0  0  0
   43.7710   -0.5532    0.4870 H   0  0  0  0  0 15  0  0  0  0  0  0
   46.4130   -0.8756    1.6862 H   0  0  0  0  0 15  0  0  0  0  0  0
   44.5630   -3.3384    1.9870 H   0  0  0  0  0 15  0  0  0  0  0  0
   46.2350   -1.9353    4.1874 H   0  0  0  0  0 15  0  0  0  0  0  0
   44.4780   -1.7567    3.9664 H   0  0  0  0  0 15  0  0  0  0  0  0
   45.1490   -3.3315    4.4013 H   0  0  0  0  0 15  0  0  0  0  0  0
   47.6250   -3.3453    2.4745 H   0  0  0  0  0 15  0  0  0  0  0  0
   46.5010   -4.6626    2.8965 H   0  0  0  0  0 15  0  0  0  0  0  0
   46.7620   -4.2526    1.2085 H   0  0  0  0  0 15  0  0  0  0  0  0
   45.8211   -1.2256   -0.9908 N   0  0  0  0  0 15  0  0  0  0  0  0
   47.2321   -1.0479   -1.5452 C   0  0  0  0  0 15  0  0  0  0  0  0
   47.5831    0.3880   -1.9233 C   0  0  0  0  0 15  0  0  0  0  0  0
   46.7081    1.2733   -1.7498 O   0  0  0  0  0 15  0  0  0  0  0  0
   47.3031   -1.8960   -2.8078 C   0  0  0  0  0 15  0  0  0  0  0  0
   45.8621   -1.7612   -3.3265 C   0  0  0  0  0 15  0  0  0  0  0  0
   45.0091   -1.8594   -2.0572 C   0  0  0  0  0 15  0  0  0  0  0  0
   47.9601   -1.3637   -0.8117 H   0  0  0  0  0 15  0  0  0  0  0  0
   47.9811   -1.4146   -3.5323 H   0  0  0  0  0 15  0  0  0  0  0  0
   47.4931   -2.9410   -2.5323 H   0  0  0  0  0 15  0  0  0  0  0  0
   45.5941   -0.7436   -3.6510 H   0  0  0  0  0 15  0  0  0  0  0  0
   45.7071   -2.5891   -4.0311 H   0  0  0  0  0 15  0  0  0  0  0  0
   44.0711   -1.2940   -2.1938 H   0  0  0  0  0 15  0  0  0  0  0  0
   44.8541   -2.9198   -1.8057 H   0  0  0  0  0 15  0  0  0  0  0  0
   47.2992    1.1880   -1.0356 N   0  0  0  0  0 15  0  0  0  0  0  0
   48.5452    1.8893   -0.7371 C   0  0  0  0  0 15  0  0  0  0  0  0
   48.8782    1.7984    0.7330 C   0  0  0  0  0 15  0  0  0  0  0  0
   48.1532    1.1953    1.5344 O   0  0  0  0  0 15  0  0  0  0  0  0
   48.4362    3.3961   -1.1975 C   0  0  0  0  0 15  0  0  0  0  0  0
   48.2892    3.5754   -2.7292 C   0  0  0  0  0 15  0  0  0  0  0  0
   49.6082    4.3307   -0.7835 C   0  0  0  0  0 15  0  0  0  0  0  0
   46.7272    0.6861   -0.2692 H   0  0  0  0  0 15  0  0  0  0  0  0
   49.3692    1.3980   -1.2867 H   0  0  0  0  0 15  0  0  0  0  0  0
   47.5192    3.8158   -0.7299 H   0  0  0  0  0 15  0  0  0  0  0  0
   49.1912    3.2469   -3.2768 H   0  0  0  0  0 15  0  0  0  0  0  0
   47.4342    3.0036   -3.1299 H   0  0  0  0  0 15  0  0  0  0  0  0
   48.1052    4.6324   -3.0019 H   0  0  0  0  0 15  0  0  0  0  0  0
   50.5812    3.9885   -1.1858 H   0  0  0  0  0 15  0  0  0  0  0  0
   49.4572    5.3707   -1.1334 H   0  0  0  0  0 15  0  0  0  0  0  0
   49.7182    4.4099    0.3137 H   0  0  0  0  0 15  0  0  0  0  0  0
   48.7773    0.8144    1.3493 N   0  0  0  0  0 15  0  0  0  0  0  0
   49.7253    0.2184    2.3157 C   0  0  0  0  0 15  0  0  0  0  0  0
   50.7193   -0.6361    1.5700 C   0  0  0  0  0 15  0  0  0  0  0  0
   51.9253   -0.5284    1.7207 O   0  0  0  0  0 15  0  0  0  0  0  0
   48.3003    0.0519    0.7502 H   0  0  0  0  0 15  0  0  0  0  0  0
   50.2713    1.0485    2.7937 H   0  0  0  0  0 15  0  0  0  0  0  0
   49.0203   -0.6121    3.4227 C   0  0  0  0  0 15  0  0  0  0  0  0
   48.3433    0.0362    3.9978 H   0  0  0  0  0 15  0  0  0  0  0  0
   49.7833   -0.9953    4.1215 H   0  0  0  0  0 15  0  0  0  0  0  0
   48.2423   -1.7809    2.8598 C   0  0  0  0  0 15  0  0  0  0  0  0
   48.7723   -2.8787    2.8017 O   0  0  0  0  0 15  0  0  0  0  0  0
   46.9783   -1.5949    2.4292 N   0  0  0  0  0 15  0  0  0  0  0  0
   46.5253   -0.7019    2.4785 H   0  0  0  0  0 15  0  0  0  0  0  0
   46.4833   -2.3785    2.0561 H   0  0  0  0  0 15  0  0  0  0  0  0
   50.2554   -1.4699    0.5686 N   0  0  0  0  0 15  0  0  0  0  0  0
   51.2024   -2.3015   -0.1727 C   0  0  0  0  0 15  0  0  0  0  0  0
   52.1724   -1.3976   -0.8976 C   0  0  0  0  0 15  0  0  0  0  0  0
   53.3574   -1.6872   -0.8910 O   0  0  0  0  0 15  0  0  0  0  0  0
   50.4974   -3.2395   -1.1895 C   0  0  0  0  0 15  0  0  0  0  0  0
   49.6104   -4.2944   -0.4695 C   0  0  0  0  0 15  0  0  0  0  0  0
   48.7454   -5.1038   -1.4726 C   0  0  0  0  0 15  0  0  0  0  0  0
   47.7844   -6.0763   -0.7382 C   0  0  0  0  0 15  0  0  0  0  0  0
   46.9214   -6.8149   -1.6887 N   0  0  0  0  0 15  0  0  0  0  0  0
   51.7614   -2.9302    0.5426 H   0  0  0  0  0 15  0  0  0  0  0  0
   49.2984   -1.4442    0.2794 H   0  0  0  0  0 15  0  0  0  0  0  0
   51.2564   -3.7677   -1.7917 H   0  0  0  0  0 15  0  0  0  0  0  0
   49.8864   -2.6293   -1.8727 H   0  0  0  0  0 15  0  0  0  0  0  0
   48.9384   -3.7959    0.2475 H   0  0  0  0  0 15  0  0  0  0  0  0
   50.2504   -4.9869    0.1052 H   0  0  0  0  0 15  0  0  0  0  0  0
   49.4044   -5.6740   -2.1480 H   0  0  0  0  0 15  0  0  0  0  0  0
   48.1434   -4.4106   -2.0813 H   0  0  0  0  0 15  0  0  0  0  0  0
   47.1484   -5.4978   -0.0489 H   0  0  0  0  0 15  0  0  0  0  0  0
   48.3734   -6.7897   -0.1351 H   0  0  0  0  0 15  0  0  0  0  0  0
   46.3194   -6.1489   -2.2857 H   0  0  0  0  0 15  0  0  0  0  0  0
   46.2364   -7.4695   -1.1664 H   0  0  0  0  0 15  0  0  0  0  0  0
   47.5044   -7.4308   -2.3549 H   0  0  0  0  0 15  0  0  0  0  0  0
   51.7335   -0.3056   -1.5461 N   0  0  0  0  0 15  0  0  0  0  0  0
   52.9615    0.3048   -2.0464 C   0  0  0  0  0 15  0  0  0  0  0  0
   53.3765    1.4717   -1.1827 C   0  0  0  0  0 15  0  0  0  0  0  0
   52.7335    1.8130   -0.2093 O   0  0  0  0  0 15  0  0  0  0  0  0
   52.7845    0.7566   -3.5349 C   0  0  0  0  0 15  0  0  0  0  0  0
   52.5055   -0.3639   -4.3659 O   0  0  0  0  0 15  0  0  0  0  0  0
   54.0065    1.4316   -4.1955 C   0  0  0  0  0 15  0  0  0  0  0  0
   51.2265    0.0655   -0.6678 H   0  0  0  0  0 15  0  0  0  0  0  0
   53.7705   -0.4466   -1.9956 H   0  0  0  0  0 15  0  0  0  0  0  0
   51.9255    1.4579   -3.5892 H   0  0  0  0  0 15  0  0  0  0  0  0
   52.3395   -0.0113   -5.2450 H   0  0  0  0  0 15  0  0  0  0  0  0
   53.8135    1.6989   -5.2521 H   0  0  0  0  0 15  0  0  0  0  0  0
   54.2905    2.3732   -3.6956 H   0  0  0  0  0 15  0  0  0  0  0  0
   54.8965    0.7733   -4.1821 H   0  0  0  0  0 15  0  0  0  0  0  0
   53.2116    1.5756   -0.0334 N   0  0  0  0  0 15  0  0  0  0  0  0
   54.4606    1.9115    0.6436 C   0  0  0  0  0 15  0  0  0  0  0  0
   54.7736    0.9119    1.7304 C   0  0  0  0  0 15  0  0  0  0  0  0
   55.9796    1.1392    2.4644 O   0  0  0  0  0 15  0  0  0  0  0  0
   54.4356    3.3944    1.1961 C   0  0  0  0  0 15  0  0  0  0  0  0
   54.0436    4.4777    0.1424 C   0  0  0  0  0 15  0  0  0  0  0  0
   55.7876    3.8209    1.8494 C   0  0  0  0  0 15  0  0  0  0  0  0
   53.6946    5.8716    0.7067 C   0  0  0  0  0 15  0  0  0  0  0  0
   52.6246    0.7134    0.2442 H   0  0  0  0  0 15  0  0  0  0  0  0
   55.2756    1.8323   -0.0994 H   0  0  0  0  0 15  0  0  0  0  0  0
   53.6576    3.4231    1.9909 H   0  0  0  0  0 15  0  0  0  0  0  0
   54.8316    4.5647   -0.6303 H   0  0  0  0  0 15  0  0  0  0  0  0
   53.1466    4.1435   -0.4124 H   0  0  0  0  0 15  0  0  0  0  0  0
   55.7436    4.8359    2.2813 H   0  0  0  0  0 15  0  0  0  0  0  0
   56.0866    3.1739    2.6939 H   0  0  0  0  0 15  0  0  0  0  0  0
   56.6196    3.8167    1.1214 H   0  0  0  0  0 15  0  0  0  0  0  0
   53.3586    6.5542   -0.0997 H   0  0  0  0  0 15  0  0  0  0  0  0
   52.8786    5.8206    1.4478 H   0  0  0  0  0 15  0  0  0  0  0  0
   54.5576    6.3587    1.1951 H   0  0  0  0  0 15  0  0  0  0  0  0
   54.6897   -0.2398    1.5577 N   0  0  0  0  0 15  0  0  0  0  0  0
   56.1007   -0.8083    1.6830 C   0  0  0  0  0 15  0  0  0  0  0  0
   56.4517   -1.8574    0.6322 C   0  0  0  0  0 15  0  0  0  0  0  0
   55.5767   -2.1528   -0.2202 O   0  0  0  0  0 15  0  0  0  0  0  0
   56.1717   -1.4728    3.0511 C   0  0  0  0  0 15  0  0  0  0  0  0
   54.7307   -1.9889    3.1956 C   0  0  0  0  0 15  0  0  0  0  0  0
   53.8777   -0.8426    2.6419 C   0  0  0  0  0 15  0  0  0  0  0  0
   56.8287   -0.0154    1.5869 H   0  0  0  0  0 15  0  0  0  0  0  0
   56.8497   -2.3411    2.9995 H   0  0  0  0  0 15  0  0  0  0  0  0
   56.3617   -0.7091    3.8157 H   0  0  0  0  0 15  0  0  0  0  0  0
   54.4627   -2.7813    2.4794 H   0  0  0  0  0 15  0  0  0  0  0  0
   54.5757   -2.1814    4.2656 H   0  0  0  0  0 15  0  0  0  0  0  0
   52.9397   -1.2450    2.2220 H   0  0  0  0  0 15  0  0  0  0  0  0
   53.7227   -0.0918    3.4318 H   0  0  0  0  0 15  0  0  0  0  0  0
   56.1678   -1.4927   -0.5057 N   0  0  0  0  0 15  0  0  0  0  0  0
   57.4138   -1.5875   -1.2620 C   0  0  0  0  0 15  0  0  0  0  0  0
   57.7468   -0.2712   -1.9230 C   0  0  0  0  0 15  0  0  0  0  0  0
   57.0218    0.7248   -1.8049 O   0  0  0  0  0 15  0  0  0  0  0  0
   57.3048   -2.7433   -2.3327 C   0  0  0  0  0 15  0  0  0  0  0  0
   57.1578   -4.1574   -1.7171 C   0  0  0  0  0 15  0  0  0  0  0  0
   58.4768   -2.8558   -3.3487 C   0  0  0  0  0 15  0  0  0  0  0  0
   55.5958   -0.5778   -0.4575 H   0  0  0  0  0 15  0  0  0  0  0  0
   58.2378   -1.8153   -0.5609 H   0  0  0  0  0 15  0  0  0  0  0  0
   56.3878   -2.5504   -2.9307 H   0  0  0  0  0 15  0  0  0  0  0  0
   58.0598   -4.4654   -1.1577 H   0  0  0  0  0 15  0  0  0  0  0  0
   56.3028   -4.2161   -1.0214 H   0  0  0  0  0 15  0  0  0  0  0  0
   56.9738   -4.9248   -2.4934 H   0  0  0  0  0 15  0  0  0  0  0  0
   59.4498   -3.0313   -2.8505 H   0  0  0  0  0 15  0  0  0  0  0  0
   58.3258   -3.6813   -4.0715 H   0  0  0  0  0 15  0  0  0  0  0  0
   58.5868   -1.9473   -3.9690 H   0  0  0  0  0 15  0  0  0  0  0  0
   57.6459    0.7564   -1.3826 N   0  0  0  0  0 15  0  0  0  0  0  0
   58.9229    1.5058   -1.2483 C   0  0  0  0  0 15  0  0  0  0  0  0
   59.3029    2.1056    0.1515 C   0  0  0  0  0 15  0  0  0  0  0  0
   58.6509    1.9682    1.1607 O   0  0  0  0  0 15  0  0  0  0  0  0
   58.8609    2.5745   -2.3563 C   0  0  0  0  0 15  0  0  0  0  0  0
   60.2089    3.2443   -2.7392 C   0  0  0  0  0 15  0  0  0  0  0  0
   61.2329    2.6775   -2.3492 O   0  0  0  0  0 15  0  0  0  0  0  0
   60.0919    4.2694   -3.4116 O   0  0  0  0  0 15  0  0  0  0  0  0
   57.1859    0.6677   -0.4880 H   0  0  0  0  0 15  0  0  0  0  0  0
   59.7319    0.7921   -1.5008 H   0  0  0  0  0 15  0  0  0  0  0  0
   58.5039    2.1136   -3.2931 H   0  0  0  0  0 15  0  0  0  0  0  0
   58.1269    3.3641   -2.1193 H   0  0  0  0  0 15  0  0  0  0  0  0
   59.1240    1.2308    0.9843 N   0  0  0  0  0 15  0  0  0  0  0  0
   60.3520    1.0871    1.7604 C   0  0  0  0  0 15  0  0  0  0  0  0
   60.7670   -0.3617    1.8530 C   0  0  0  0  0 15  0  0  0  0  0  0
   60.1240   -1.2503    1.3294 O   0  0  0  0  0 15  0  0  0  0  0  0
   60.1750    1.7021    3.1892 C   0  0  0  0  0 15  0  0  0  0  0  0
   59.8960    3.0942    3.1014 O   0  0  0  0  0 15  0  0  0  0  0  0
   61.3970    1.6123    4.1294 C   0  0  0  0  0 15  0  0  0  0  0  0
   58.6170    0.3807    0.5526 H   0  0  0  0  0 15  0  0  0  0  0  0
   61.1610    1.6285    1.2369 H   0  0  0  0  0 15  0  0  0  0  0  0
   59.3160    1.2011    3.6831 H   0  0  0  0  0 15  0  0  0  0  0  0
   59.7300    3.3919    4.0006 H   0  0  0  0  0 15  0  0  0  0  0  0
   61.2040    2.0896    5.1092 H   0  0  0  0  0 15  0  0  0  0  0  0
   61.6810    0.5704    4.3548 H   0  0  0  0  0 15  0  0  0  0  0  0
   62.2870    2.1067    3.6946 H   0  0  0  0  0 15  0  0  0  0  0  0
   60.6021   -1.1825    1.0419 N   0  0  0  0  0 15  0  0  0  0  0  0
   61.5341   -2.2142    0.5921 C   0  0  0  0  0 15  0  0  0  0  0  0
   62.5471   -1.5923   -0.3389 C   0  0  0  0  0 15  0  0  0  0  0  0
   63.7361   -1.7800   -0.1332 O   0  0  0  0  0 15  0  0  0  0  0  0
   60.8361   -3.3855   -0.1549 C   0  0  0  0  0 15  0  0  0  0  0  0
   60.0091   -4.3031    0.7843 C   0  0  0  0  0 15  0  0  0  0  0  0
   59.0681   -5.2614    0.0805 C   0  0  0  0  0 15  0  0  0  0  0  0
   58.0941   -5.6474    0.7113 O   0  0  0  0  0 15  0  0  0  0  0  0
   59.2961   -5.6826   -1.1857 N   0  0  0  0  0 15  0  0  0  0  0  0
   62.0611   -2.6064    1.4795 H   0  0  0  0  0 15  0  0  0  0  0  0
   59.6221   -1.3304    0.9225 H   0  0  0  0  0 15  0  0  0  0  0  0
   61.6141   -3.9968   -0.6356 H   0  0  0  0  0 15  0  0  0  0  0  0
   60.1841   -2.9801   -0.9438 H   0  0  0  0  0 15  0  0  0  0  0  0
   59.4041   -3.6676    1.4449 H   0  0  0  0  0 15  0  0  0  0  0  0
   60.6921   -4.8852    1.4222 H   0  0  0  0  0 15  0  0  0  0  0  0
   60.0901   -5.3896   -1.7188 H   0  0  0  0  0 15  0  0  0  0  0  0
   58.6471   -6.3158   -1.6107 H   0  0  0  0  0 15  0  0  0  0  0  0
   62.0802   -0.8215   -1.3449 N   0  0  0  0  0 15  0  0  0  0  0  0
   63.3282   -0.4081   -1.9794 C   0  0  0  0  0 15  0  0  0  0  0  0
   63.6492    1.0319   -1.6546 C   0  0  0  0  0 15  0  0  0  0  0  0
   62.9192    1.7162   -0.9446 O   0  0  0  0  0 15  0  0  0  0  0  0
   61.4992   -0.1479   -0.7322 H   0  0  0  0  0 15  0  0  0  0  0  0
   64.1612   -1.0507   -1.6416 H   0  0  0  0  0 15  0  0  0  0  0  0
   63.2572   -0.5260   -3.0764 H   0  0  0  0  0 15  0  0  0  0  0  0
   63.5583    1.4668   -0.5764 N   0  0  0  0  0 15  0  0  0  0  0  0
   64.8063    2.0201   -0.0594 C   0  0  0  0  0 15  0  0  0  0  0  0
   65.1273    1.4510    1.3027 C   0  0  0  0  0 15  0  0  0  0  0  0
   64.3973    0.6333    1.8538 O   0  0  0  0  0 15  0  0  0  0  0  0
   62.9773    0.7468   -0.0190 H   0  0  0  0  0 15  0  0  0  0  0  0
   65.6393    1.7986   -0.7507 H   0  0  0  0  0 15  0  0  0  0  0  0
   64.7353    3.1210    0.0143 H   0  0  0  0  0 15  0  0  0  0  0  0
   65.0364    0.3138    1.5444 N   0  0  0  0  0 15  0  0  0  0  0  0
   66.4524   -0.0392    1.5955 C   0  0  0  0  0 15  0  0  0  0  0  0
   66.6524   -1.5132    1.3306 C   0  0  0  0  0 15  0  0  0  0  0  0
   65.7084   -2.2678    1.1102 O   0  0  0  0  0 15  0  0  0  0  0  0
   67.0214    0.3703    2.9841 C   0  0  0  0  0 15  0  0  0  0  0  0
   68.5694    0.3201    3.1136 C   0  0  0  0  0 15  0  0  0  0  0  0
   69.0444    0.7046    4.5255 C   0  0  0  0  0 15  0  0  0  0  0  0
   70.5354    0.6576    4.5851 N   0  0  0  0  0 15  0  0  0  0  0  0
   71.2704    0.9275    5.6585 C   0  0  0  0  0 15  0  0  0  0  0  0
   70.7664    1.2639    6.8117 N   0  0  0  0  0 15  0  0  0  0  0  0
   72.5594    0.8537    5.5558 N   0  0  0  0  0 15  0  0  0  0  0  0
   64.7104    1.2743    1.6993 H   0  0  0  0  0 15  0  0  0  0  0  0
   66.9734    0.5175    0.7943 H   0  0  0  0  0 15  0  0  0  0  0  0
   66.6794    1.3969    3.2277 H   0  0  0  0  0 15  0  0  0  0  0  0
   66.5534   -0.2696    3.7624 H   0  0  0  0  0 15  0  0  0  0  0  0
   68.9404   -0.6973    2.8674 H   0  0  0  0  0 15  0  0  0  0  0  0
   69.0214    0.9949    2.3566 H   0  0  0  0  0 15  0  0  0  0  0  0
   68.6654    1.7199    4.7789 H   0  0  0  0  0 15  0  0  0  0  0  0
   68.5954    0.0077    5.2660 H   0  0  0  0  0 15  0  0  0  0  0  0
   71.0864    0.4091    3.7568 H   0  0  0  0  0 15  0  0  0  0  0  0
   71.3994    1.4554    7.5897 H   0  0  0  0  0 15  0  0  0  0  0  0
   69.7444    1.3021    6.8269 H   0  0  0  0  0 15  0  0  0  0  0  0
   72.9354    0.5904    4.6436 H   0  0  0  0  0 15  0  0  0  0  0  0
   73.1084    1.0673    6.3915 H   0  0  0  0  0 15  0  0  0  0  0  0
   66.5145   -1.5754    0.0418 N   0  0  0  0  0 15  0  0  0  0  0  0
   67.4625   -2.1215   -0.9537 C   0  0  0  0  0 15  0  0  0  0  0  0
   68.4565   -1.0510   -1.3285 C   0  0  0  0  0 15  0  0  0  0  0  0
   69.6625   -1.2352   -1.3093 O   0  0  0  0  0 15  0  0  0  0  0  0
   66.0375   -0.6780   -0.3254 H   0  0  0  0  0 15  0  0  0  0  0  0
   68.0085   -2.9471   -0.4680 H   0  0  0  0  0 15  0  0  0  0  0  0
   66.7575   -2.6739   -2.2226 C   0  0  0  0  0 15  0  0  0  0  0  0
   66.0805   -3.4941   -1.9429 H   0  0  0  0  0 15  0  0  0  0  0  0
   67.5205   -3.0923   -2.9009 H   0  0  0  0  0 15  0  0  0  0  0  0
   65.9795   -1.6072   -2.9609 C   0  0  0  0  0 15  0  0  0  0  0  0
   66.5095   -1.0145   -3.8868 O   0  0  0  0  0 15  0  0  0  0  0  0
   64.7155   -1.3247   -2.5865 N   0  0  0  0  0 15  0  0  0  0  0  0
   64.2625   -1.8086   -1.8344 H   0  0  0  0  0 15  0  0  0  0  0  0
   64.2205   -0.6133   -3.0836 H   0  0  0  0  0 15  0  0  0  0  0  0
   67.9926    0.2315   -1.5589 N   0  0  0  0  0 15  0  0  0  0  0  0
   68.9026    1.3080   -1.9475 C   0  0  0  0  0 15  0  0  0  0  0  0
   69.9186    1.5183   -0.8500 C   0  0  0  0  0 15  0  0  0  0  0  0
   71.0946    1.6515   -1.1527 O   0  0  0  0  0 15  0  0  0  0  0  0
   68.1596    2.6397   -2.2477 C   0  0  0  0  0 15  0  0  0  0  0  0
   67.2206    2.5133   -3.4804 C   0  0  0  0  0 15  0  0  0  0  0  0
   66.4536    3.7815   -3.7662 C   0  0  0  0  0 15  0  0  0  0  0  0
   66.6766    4.8072   -3.0702 O   0  0  0  0  0 15  0  0  0  0  0  0
   65.6106    3.7586   -4.7012 O   0  0  0  0  0 15  0  0  0  0  0  0
   69.4366    1.0083   -2.8647 H   0  0  0  0  0 15  0  0  0  0  0  0
   67.0216    0.4335   -1.4297 H   0  0  0  0  0 15  0  0  0  0  0  0
   68.9036    3.4263   -2.4532 H   0  0  0  0  0 15  0  0  0  0  0  0
   67.5786    2.9364   -1.3623 H   0  0  0  0  0 15  0  0  0  0  0  0
   66.4856    1.7090   -3.3278 H   0  0  0  0  0 15  0  0  0  0  0  0
   67.8186    2.2660   -4.3694 H   0  0  0  0  0 15  0  0  0  0  0  0
   69.4707    1.4953    0.4978 N   0  0  0  0  0 15  0  0  0  0  0  0
   70.6957    1.6316    1.2804 C   0  0  0  0  0 15  0  0  0  0  0  0
   71.1207    0.3042    1.8562 C   0  0  0  0  0 15  0  0  0  0  0  0
   70.4787   -0.7286    1.6601 O   0  0  0  0  0 15  0  0  0  0  0  0
   70.5267    2.7054    2.3842 C   0  0  0  0  0 15  0  0  0  0  0  0
   69.6307    2.2993    3.4235 O   0  0  0  0  0 15  0  0  0  0  0  0
   68.9717    0.5460    0.3779 H   0  0  0  0  0 15  0  0  0  0  0  0
   71.5017    1.9574    0.5956 H   0  0  0  0  0 15  0  0  0  0  0  0
   71.5117    2.9280    2.8413 H   0  0  0  0  0 15  0  0  0  0  0  0
   70.1867    3.6689    1.9587 H   0  0  0  0  0 15  0  0  0  0  0  0
   68.7637    2.1801    3.0253 H   0  0  0  0  0 15  0  0  0  0  0  0
   70.9877   -0.6431    1.4814 O   0  0  0  0  0 15  0  0  0  0  0  0
   71.6787   -1.2969    1.4388 H   0  0  0  0  0 15  0  0  0  0  0  0
M  END
$$$$
