drugbank_target|Q46730 Transposase (DB01912)
 OpenBabel12092120233D

  0  0  0     0  0            999 V3000
M  V30 BEGIN CTAB
M  V30 COUNTS 7154 7223 0 0 0
M  V30 BEGIN ATOM
M  V30 1 H -0.908 1.98254 -0.117106 0
M  V30 2 N 0 1.576 0 0
M  V30 3 C 0.933 2.03868 1.02534 0
M  V30 4 C 1.911 0.928543 1.3348 0
M  V30 5 O 3.095 1.19667 1.45644 0
M  V30 6 C 0.222 2.43627 2.35294 0
M  V30 7 C -0.732 3.65373 2.2001 0
M  V30 8 S 0.101 5.13292 1.52614 0
M  V30 9 C 1.257 5.56322 2.86805 0
M  V30 10 H 1.49 2.90518 0.631377 0
M  V30 11 H -0.977 1.52953 0.210867 0
M  V30 12 H 0.981 2.67203 3.11629 0
M  V30 13 H -0.358 1.57376 2.7183 0
M  V30 14 H -1.165 3.90944 3.18086 0
M  V30 15 H -1.563 3.418 1.51819 0
M  V30 16 H 0.729 5.58782 3.83104 0
M  V30 17 H 1.672 6.56266 2.65933 0
M  V30 18 H 2.08 4.83886 2.90714 0
M  V30 19 N 1.4781 -0.272755 1.55222 0
M  V30 20 C 2.7271 -1.00211 1.75045 0
M  V30 21 C 3.0401 -1.87441 0.559046 0
M  V30 22 O 4.2461 -2.63856 0.639698 0
M  V30 23 C 2.7021 -1.83165 3.09804 0
M  V30 24 C 2.3101 -1.008 4.36513 0
M  V30 25 C 4.0541 -2.55529 3.38977 0
M  V30 26 C 1.9611 -1.83194 5.62311 0
M  V30 27 H 0.8911 -0.377878 0.652476 0
M  V30 28 H 3.5421 -0.257776 1.8168 0
M  V30 29 H 1.9241 -2.61694 2.97207 0
M  V30 30 H 3.0981 -0.266855 4.60027 0
M  V30 31 H 1.4131 -0.398897 4.14485 0
M  V30 32 H 4.0101 -3.17578 4.30172 0
M  V30 33 H 4.3531 -3.25825 2.59121 0
M  V30 34 H 4.8861 -1.84029 3.52673 0
M  V30 35 H 1.6251 -1.17318 6.44916 0
M  V30 36 H 1.1451 -2.54905 5.4294 0
M  V30 37 H 2.8241 -2.40552 6.00619 0
M  V30 38 N 2.9562 -1.48159 -0.537278 0
M  V30 39 C 4.1842 -1.59454 -1.31841 0
M  V30 40 C 4.5992 -0.252065 -1.8711 0
M  V30 41 O 3.9562 0.757621 -1.66031 0
M  V30 42 C 4.0072 -2.63546 -2.47439 0
M  V30 43 O 3.7282 -3.92583 -1.94449 0
M  V30 44 C 5.2292 -2.85212 -3.39366 0
M  V30 45 H 2.4492 -0.53785 -0.401196 0
M  V30 46 H 4.9932 -1.93932 -0.648891 0
M  V30 47 H 3.1482 -2.31946 -3.1029 0
M  V30 48 H 3.5622 -4.49629 -2.70063 0
M  V30 49 H 5.0362 -3.61863 -4.16844 0
M  V30 50 H 5.5132 -1.93765 -3.94147 0
M  V30 51 H 6.1192 -3.18086 -2.82314 0
M  V30 52 N 4.4343 0.785586 -1.36625 0
M  V30 53 C 5.6593 1.57963 -1.34397 0
M  V30 54 C 6.0843 1.87964 0.071526 0
M  V30 55 O 5.4423 1.48182 1.0446 0
M  V30 56 C 5.4903 2.87511 -2.17646 0
M  V30 57 O 4.5943 3.81281 -1.57158 0
M  V30 58 H 3.9353 0.479014 -0.459828 0
M  V30 59 H 6.4653 0.973411 -1.79961 0
M  V30 60 H 6.4753 3.36745 -2.30362 0
M  V30 61 H 5.1503 2.65002 -3.20541 0
M  V30 62 H 3.7273 3.39885 -1.53403 0
M  V30 63 N 5.9124 1.20967 1.01018 0
M  V30 64 C 6.8754 0.965918 2.07853 0
M  V30 65 C 7.8754 -0.0610545 1.60684 0
M  V30 66 O 9.0654 0.175681 1.73312 0
M  V30 67 C 6.1974 0.455513 3.37843 0
M  V30 68 H 7.3904 1.91365 2.3091 0
M  V30 69 H 4.9434 1.02594 1.17916 0
M  V30 70 H 5.6784 -0.497381 3.20463 0
M  V30 71 H 5.4634 1.19622 3.73407 0
M  V30 72 H 6.9534 0.304667 4.16487 0
M  V30 73 N 7.3905 -1.2043 1.01659 0
M  V30 74 C 8.3205 -2.25466 0.607226 0
M  V30 75 C 9.3015 -1.65853 -0.377716 0
M  V30 76 O 10.4865 -1.92409 -0.263149 0
M  V30 77 C 7.6165 -3.47256 -0.0552949 0
M  V30 78 C 6.5705 -4.19462 0.850632 0
M  V30 79 C 5.8965 -5.34673 0.0538859 0
M  V30 80 C 7.1965 -4.75603 2.15868 0
M  V30 81 H 8.8905 -2.59962 1.48526 0
M  V30 82 H 6.4365 -1.2496 0.715605 0
M  V30 83 H 8.3895 -4.19917 -0.353233 0
M  V30 84 H 7.1135 -3.11924 -0.968045 0
M  V30 85 H 5.7725 -3.48667 1.13257 0
M  V30 86 H 5.4205 -4.95585 -0.860514 0
M  V30 87 H 5.1205 -5.83913 0.657192 0
M  V30 88 H 6.6445 -6.10138 -0.237598 0
M  V30 89 H 8.0585 -5.40083 1.92311 0
M  V30 90 H 6.4555 -5.3528 2.71284 0
M  V30 91 H 7.5255 -3.94346 2.82169 0
M  V30 92 N 8.8686 -0.792821 -1.36206 0
M  V30 93 C 9.8186 -0.166598 -2.27391 0
M  V30 94 C 10.8026 0.651479 -1.47121 0
M  V30 95 O 11.9946 0.510994 -1.69463 0
M  V30 96 C 9.1236 0.695033 -3.36191 0
M  V30 97 C 8.2096 -0.132019 -4.23894 0
M  V30 98 N 8.6006 -1.18822 -4.91645 0
M  V30 99 C 6.8986 0.0885952 -4.45912 0
M  V30 100 C 7.5996 -1.69198 -5.56549 0
M  V30 101 N 6.5756 -1.00065 -5.34311 0
M  V30 102 H 10.3776 -0.974947 -2.77258 0
M  V30 103 H 7.8916 -0.632616 -1.49572 0
M  V30 104 H 9.8886 1.1596 -4.00448 0
M  V30 105 H 8.5486 1.50189 -2.87877 0
M  V30 106 H 9.5596 -1.57069 -4.93507 0
M  V30 107 H 6.2366 0.865688 -4.08426 0
M  V30 108 H 7.6266 -2.57395 -6.20643 0
M  V30 109 N 10.3467 1.47872 -0.545128 0
M  V30 110 C 11.7627 1.5829 -0.204032 0
M  V30 111 C 11.9627 1.54529 1.29317 0
M  V30 112 O 11.0187 1.44232 2.07252 0
M  V30 113 C 12.3317 2.89304 -0.819987 0
M  V30 114 C 13.8797 3.02864 -0.790105 0
M  V30 115 C 14.3547 4.3656 -1.38491 0
M  V30 116 N 15.8457 4.43165 -1.34755 0
M  V30 117 C 16.5807 5.45153 -1.77753 0
M  V30 118 N 16.0767 6.54016 -2.2855 0
M  V30 119 N 17.8697 5.36125 -1.68897 0
M  V30 120 H 10.0207 1.4856 -1.51802 0
M  V30 121 H 12.2837 0.706305 -0.632327 0
M  V30 122 H 11.9897 2.97757 -1.87173 0
M  V30 123 H 11.8637 3.75957 -0.305915 0
M  V30 124 H 14.2507 2.94014 0.252913 0
M  V30 125 H 14.3317 2.17782 -1.34181 0
M  V30 126 H 13.9757 4.46164 -2.42693 0
M  V30 127 H 13.9057 5.20353 -0.808754 0
M  V30 128 H 16.3967 3.65083 -0.975855 0
M  V30 129 H 16.7097 7.27994 -2.59314 0
M  V30 130 H 15.0547 6.54938 -2.32553 0
M  V30 131 H 18.2457 4.49975 -1.28998 0
M  V30 132 H 18.4187 6.15472 -2.02726 0
M  V30 133 N 11.8248 0.280983 1.55075 0
M  V30 134 C 12.7878 -0.590896 2.21452 0
M  V30 135 C 13.7878 -1.07682 1.19421 0
M  V30 136 O 14.9778 -0.97605 1.44288 0
M  V30 137 C 12.1098 -1.81587 2.88511 0
M  V30 138 H 13.3028 -0.0112554 2.99898 0
M  V30 139 H 10.8558 0.0316438 1.56268 0
M  V30 140 H 11.5908 -2.43587 2.14093 0
M  V30 141 H 11.3758 -1.4753 3.63287 0
M  V30 142 H 12.8658 -2.43575 3.39206 0
M  V30 143 N 13.3029 -1.57598 0.00835791 0
M  V30 144 C 14.2659 -2.07884 -0.965242 0
M  V30 145 C 15.2659 -0.989825 -1.26725 0
M  V30 146 O 16.4559 -1.25218 -1.21104 0
M  V30 147 C 13.5879 -2.52731 -2.28779 0
M  V30 148 H 14.7809 -2.95178 -0.530112 0
M  V30 149 H 12.3339 -1.54458 -0.239283 0
M  V30 150 H 13.0689 -1.68705 -2.76964 0
M  V30 151 H 12.8539 -3.32272 -2.08177 0
M  V30 152 H 14.3439 -2.91933 -2.98605 0
M  V30 153 N 14.781 0.264519 -1.55364 0
M  V30 154 C 16.058 1.01677 -1.67096 0
M  V30 155 C 16.438 2.03996 -0.543015 0
M  V30 156 O 15.786 2.23907 0.45585 0
M  V30 157 C 15.996 1.66596 -3.0667 0
M  V30 158 C 17.344 2.17442 -3.64697 0
M  V30 159 O 18.368 1.76568 -3.09358 0
M  V30 160 O 17.227 2.92439 -4.61673 0
M  V30 161 H 14.321 0.472161 -0.678965 0
M  V30 162 H 16.867 0.259703 -1.67701 0
M  V30 163 H 15.639 0.924962 -3.80211 0
M  V30 164 H 15.262 2.48968 -3.10001 0
M  V30 165 N 16.2591 1.48442 0.529413 0
M  V30 166 C 17.5051 1.57699 1.28463 0
M  V30 167 C 17.8601 0.247913 1.90796 0
M  V30 168 O 17.1531 -0.749279 1.76342 0
M  V30 169 C 17.3471 2.6523 2.39558 0
M  V30 170 C 17.1761 4.08464 1.88114 0
M  V30 171 C 15.9461 4.75596 1.70693 0
M  V30 172 C 18.1441 4.94613 1.40935 0
M  V30 173 N 16.1261 6.03245 1.13881 0
M  V30 174 C 17.4971 6.12511 0.960734 0
M  V30 175 C 19.5521 4.80833 1.29243 0
M  V30 176 C 18.2551 7.18149 0.406792 0
M  V30 177 C 20.2811 5.86593 0.752487 0
M  V30 178 C 19.6431 7.037 0.313946 0
M  V30 179 H 15.7421 0.631608 0.46108 0
M  V30 180 H 18.3261 1.85325 0.596886 0
M  V30 181 H 16.4971 2.39425 3.05827 0
M  V30 182 H 18.2291 2.64169 3.06589 0
M  V30 183 H 14.9841 4.31938 1.94232 0
M  V30 184 H 15.4081 6.71324 0.874831 0
M  V30 185 H 20.0501 3.90635 1.61754 0
M  V30 186 H 17.7681 8.0807 0.0693671 0
M  V30 187 H 21.3541 5.77985 0.665192 0
M  V30 188 H 20.2341 7.8414 -0.0973632 0
M  V30 189 N 17.7372 -0.778329 1.37039 0
M  V30 190 C 18.7002 -1.87301 1.32102 0
M  V30 191 C 19.7002 -1.59198 0.226405 0
M  V30 192 O 20.8902 -1.67403 0.481861 0
M  V30 193 C 18.0222 -3.24309 1.05055 0
M  V30 194 H 19.2152 -1.93093 2.29467 0
M  V30 195 H 16.7682 -0.977358 1.21973 0
M  V30 196 H 17.5032 -3.24196 0.0819373 0
M  V30 197 H 17.2882 -3.46098 1.84279 0
M  V30 198 H 18.7782 -4.04382 1.04234 0
M  V30 199 N 19.2153 -1.21501 -1.00376 0
M  V30 200 C 20.1623 -0.975387 -2.09177 0
M  V30 201 C 21.1323 0.0990615 -1.65804 0
M  V30 202 O 22.3173 -0.0483147 -1.90739 0
M  V30 203 C 19.4573 -0.547507 -3.40729 0
M  V30 204 C 18.5703 -1.69153 -3.97506 0
M  V30 205 C 17.7053 -1.2127 -5.17172 0
M  V30 206 C 16.7443 -2.32897 -5.66061 0
M  V30 207 N 15.8813 -1.86138 -6.76976 0
M  V30 208 H 20.7213 -1.9068 -2.29009 0
M  V30 209 H 18.2583 -0.950257 -1.12288 0
M  V30 210 H 20.2163 -0.280667 -4.16255 0
M  V30 211 H 18.8463 0.346904 -3.20931 0
M  V30 212 H 17.8983 -2.07298 -3.18954 0
M  V30 213 H 19.2103 -2.5316 -4.29781 0
M  V30 214 H 18.3643 -0.902591 -5.99948 0
M  V30 215 H 17.1033 -0.342692 -4.86495 0
M  V30 216 H 16.1083 -2.64709 -4.81881 0
M  V30 217 H 17.3333 -3.20396 -5.98768 0
M  V30 218 H 15.2793 -1.01484 -6.48103 0
M  V30 219 H 15.1963 -2.63717 -7.08512 0
M  V30 220 H 16.4643 -1.58165 -7.63285 0
M  V30 221 N 20.6934 1.19889 -1.02296 0
M  V30 222 C 21.9184 1.9393 -0.735237 0
M  V30 223 C 22.3434 1.74639 0.698782 0
M  V30 224 O 21.7014 1.04481 1.48167 0
M  V30 225 C 21.7494 3.43916 -1.08417 0
M  V30 226 O 20.8534 4.11917 -0.199446 0
M  V30 227 H 20.1944 0.605645 -0.272196 0
M  V30 228 H 22.7244 1.52137 -1.36804 0
M  V30 229 H 22.7344 3.9456 -1.03856 0
M  V30 230 H 21.4094 3.5728 -2.12894 0
M  V30 231 H 19.9864 3.71666 -0.303136 0
M  V30 232 N 22.1715 0.800033 1.35784 0
M  V30 233 C 23.4175 0.377901 1.99248 0
M  V30 234 C 23.7505 -1.05052 1.63333 0
M  V30 235 O 23.0255 -1.72768 0.893385 0
M  V30 236 C 23.3085 0.553922 3.55814 0
M  V30 237 C 23.1615 2.0268 4.01548 0
M  V30 238 C 24.4805 -0.0244802 4.40093 0
M  V30 239 H 21.5995 0.138782 0.723815 0
M  V30 240 H 24.2415 1.00835 1.61035 0
M  V30 241 H 22.3915 0.0172398 3.88496 0
M  V30 242 H 24.0635 2.62536 3.79305 0
M  V30 243 H 22.3065 2.5256 3.52698 0
M  V30 244 H 22.9775 2.10087 5.10458 0
M  V30 245 H 25.4535 0.433775 4.13833 0
M  V30 246 H 24.3295 0.128637 5.48749 0
M  V30 247 H 24.5905 -1.11758 4.27741 0
M  V30 248 N 23.6496 -1.47581 0.552962 0
M  V30 249 C 24.8966 -2.02482 0.0273243 0
M  V30 250 C 25.2246 -1.42776 -1.32081 0
M  V30 251 O 24.4796 -0.571393 -1.87173 0
M  V30 252 C 24.7786 -3.57199 -0.119728 0
M  V30 253 C 24.4446 -4.35804 1.15697 0
M  V30 254 C 23.1066 -4.57 1.50681 0
M  V30 255 C 25.4586 -4.81167 2.00319 0
M  V30 256 C 22.7866 -5.20807 2.70142 0
M  V30 257 C 25.1386 -5.46293 3.18978 0
M  V30 258 C 23.8026 -5.65722 3.54281 0
M  V30 259 H 23.0726 -0.740933 0.00999866 0
M  V30 260 H 25.7196 -1.77302 0.72362 0
M  V30 261 H 24.0246 -3.81348 -0.89896 0
M  V30 262 H 25.7216 -3.97324 -0.541718 0
M  V30 263 H 22.3116 -4.19582 0.874561 0
M  V30 264 H 26.4956 -4.64574 1.74599 0
M  V30 265 H 21.7516 -5.34045 2.97668 0
M  V30 266 H 25.9256 -5.80407 3.84838 0
M  V30 267 H 23.5526 -6.14936 4.46942 0
M  V30 268 N 25.1277 -0.289203 -1.54924 0
M  V30 269 C 26.3527 0.329299 -2.04769 0
M  V30 270 C 26.7777 1.4763 -1.16564 0
M  V30 271 O 26.1357 1.80527 -0.167186 0
M  V30 272 C 26.1837 0.774438 -3.52186 0
M  V30 273 O 25.2877 1.88038 -3.67036 0
M  V30 274 H 24.6287 0.0659259 -0.660719 0
M  V30 275 H 27.1587 -0.42761 -2.00082 0
M  V30 276 H 27.1687 1.06642 -3.93816 0
M  V30 277 H 25.8437 -0.0646707 -4.1585 0
M  V30 278 H 24.4207 1.58985 -3.3731 0
M  V30 279 N 26.6058 1.57591 -0.0167156 0
M  V30 280 C 27.8308 1.9598 0.67872 0
M  V30 281 C 28.2558 0.892546 1.65575 0
M  V30 282 O 27.6138 -0.147772 1.80697 0
M  V30 283 C 27.6618 3.33468 1.37227 0
M  V30 284 O 26.7658 3.28954 2.48722 0
M  V30 285 H 26.1068 0.639339 0.17928 0
M  V30 286 H 28.6368 2.04463 -0.0748802 0
M  V30 287 H 28.6468 3.69417 1.7319 0
M  V30 288 H 27.3218 4.10694 0.656007 0
M  V30 289 H 25.8988 3.04705 2.14963 0
M  V30 290 N 28.0839 -0.256276 1.55502 0
M  V30 291 C 29.0469 -1.30047 1.88734 0
M  V30 292 C 30.0469 -1.4154 0.763086 0
M  V30 293 O 31.2369 -1.40403 1.03115 0
M  V30 294 C 28.3689 -2.67953 2.10747 0
M  V30 295 H 29.5619 -1.01802 2.82093 0
M  V30 296 H 27.1149 -0.495134 1.4825 0
M  V30 297 H 27.8499 -3.01351 1.19825 0
M  V30 298 H 27.6349 -2.60993 2.92617 0
M  V30 299 H 29.1249 -3.43368 2.37673 0
M  V30 300 N 29.562 -1.4872 -0.521534 0
M  V30 301 C 30.525 -1.63379 -1.60748 0
M  V30 302 C 31.525 -0.50661 -1.52611 0
M  V30 303 O 32.715 -0.772601 -1.5613 0
M  V30 304 C 29.847 -1.61192 -3.00383 0
M  V30 305 H 31.04 -2.60217 -1.49087 0
M  V30 306 H 28.593 -1.37444 -0.744235 0
M  V30 307 H 29.328 -0.65863 -3.17541 0
M  V30 308 H 29.113 -2.43032 -3.07698 0
M  V30 309 H 30.603 -1.7466 -3.7932 0
M  V30 310 N 31.0401 0.771051 -1.3745 0
M  V30 311 C 31.9701 1.89827 -1.3597 0
M  V30 312 C 32.9511 1.68562 -0.228216 0
M  V30 313 O 34.1361 1.8941 -0.428675 0
M  V30 314 C 31.2661 3.2712 -1.16662 0
M  V30 315 C 30.2201 3.6295 -2.2683 0
M  V30 316 C 29.5461 4.98791 -1.92644 0
M  V30 317 C 30.8461 3.69627 -3.69017 0
M  V30 318 H 32.5401 1.91323 -2.30295 0
M  V30 319 H 30.0861 0.919082 -1.10855 0
M  V30 320 H 32.0391 4.05615 -1.14256 0
M  V30 321 H 30.7631 3.26059 -0.187926 0
M  V30 322 H 29.4221 2.86763 -2.28392 0
M  V30 323 H 29.0701 4.94271 -0.933021 0
M  V30 324 H 28.7701 5.23733 -2.66416 0
M  V30 325 H 30.2941 5.79685 -1.91826 0
M  V30 326 H 31.7081 4.38273 -3.69581 0
M  V30 327 H 30.1051 4.06067 -4.41848 0
M  V30 328 H 31.1751 2.70273 -4.02592 0
M  V30 329 N 32.5182 1.22032 0.997298 0
M  V30 330 C 33.7662 1.04016 1.73278 0
M  V30 331 C 34.0872 -0.426255 1.90284 0
M  V30 332 O 33.3572 -1.30694 1.45931 0
M  V30 333 H 31.9372 0.381897 0.642 0
M  V30 334 H 34.5992 1.5347 1.20137 0
M  V30 335 H 33.6952 1.51441 2.72896 0
M  V30 336 N 33.9963 -1.19345 1.0293 0
M  V30 337 C 35.2733 -1.84811 0.640642 0
M  V30 338 C 35.6533 -1.91855 -0.88062 0
M  V30 339 O 35.0013 -1.43587 -1.7775 0
M  V30 340 C 35.2113 -3.23755 1.30321 0
M  V30 341 C 36.5593 -3.99912 1.42673 0
M  V30 342 O 37.5833 -3.33155 1.26041 0
M  V30 343 O 36.4423 -5.19494 1.6967 0
M  V30 344 H 33.5363 -0.796443 0.222726 0
M  V30 345 H 36.0823 -1.26831 1.12748 0
M  V30 346 H 34.8543 -3.13466 2.34211 0
M  V30 347 H 34.4773 -3.89381 0.804261 0
M  V30 348 N 35.4744 -0.807222 -1.35358 0
M  V30 349 C 36.8854 -0.44876 -1.81226 0
M  V30 350 C 37.2364 1.02929 -1.67033 0
M  V30 351 O 36.3614 1.79991 -1.20133 0
M  V30 352 C 36.9564 -0.807774 -3.2903 0
M  V30 353 C 35.5154 -0.501901 -3.73039 0
M  V30 354 C 34.6624 -1.03304 -2.57339 0
M  V30 355 H 37.6134 -0.998808 -1.23327 0
M  V30 356 H 37.6344 -0.10554 -3.80354 0
M  V30 357 H 37.1464 -1.88357 -3.39328 0
M  V30 358 H 35.2474 0.565128 -3.68289 0
M  V30 359 H 35.3604 -1.03497 -4.67787 0
M  V30 360 H 33.7244 -0.455339 -2.50597 0
M  V30 361 H 34.5074 -2.11496 -2.70415 0
M  V30 362 N 36.9525 1.47285 -0.560781 0
M  V30 363 C 38.3685 1.58065 -0.22081 0
M  V30 364 C 38.5685 1.55892 1.27671 0
M  V30 365 O 37.6245 1.46422 2.0571 0
M  V30 366 C 38.9375 2.88418 -0.850625 0
M  V30 367 C 40.4855 3.02009 -0.822184 0
M  V30 368 C 40.9605 4.35066 -1.43113 0
M  V30 369 N 42.4515 4.41711 -1.39448 0
M  V30 370 C 43.1865 5.43237 -1.83525 0
M  V30 371 N 42.6825 6.51555 -2.35474 0
M  V30 372 N 44.4755 5.34304 -1.74574 0
M  V30 373 H 36.6265 1.46941 -1.53369 0
M  V30 374 H 38.8895 0.699558 -0.639783 0
M  V30 375 H 38.5955 2.95755 -1.9032 0
M  V30 376 H 38.4695 3.75612 -0.345773 0
M  V30 377 H 40.8565 2.94266 0.221714 0
M  V30 378 H 40.9375 2.16347 -1.36483 0
M  V30 379 H 40.5815 4.43565 -2.47412 0
M  V30 380 H 40.5115 5.19465 -0.863899 0
M  V30 381 H 43.0025 3.64027 -1.01452 0
M  V30 382 H 43.3155 7.25203 -2.67021 0
M  V30 383 H 41.6605 6.52435 -2.39487 0
M  V30 384 H 44.8515 4.48581 -1.33763 0
M  V30 385 H 45.0245 6.13288 -2.09242 0
M  V30 386 N 38.4306 0.297415 1.54768 0
M  V30 387 C 39.8466 -0.0560823 1.59501 0
M  V30 388 C 40.0466 -1.52725 1.31444 0
M  V30 389 O 39.1026 -2.27947 1.08611 0
M  V30 390 C 40.4156 0.338631 2.98787 0
M  V30 391 C 41.9636 0.287097 3.11681 0
M  V30 392 C 42.4386 0.656579 4.53269 0
M  V30 393 N 43.9296 0.608977 4.59179 0
M  V30 394 C 44.6646 0.867385 5.66802 0
M  V30 395 N 44.1606 1.19157 6.82476 0
M  V30 396 N 45.9536 0.794687 5.56454 0
M  V30 397 H 38.1046 1.25624 1.71267 0
M  V30 398 H 40.3676 0.509057 0.799728 0
M  V30 399 H 40.0736 1.36263 3.2423 0
M  V30 400 H 39.9476 -0.309508 3.75928 0
M  V30 401 H 42.3346 -0.727649 2.85988 0
M  V30 402 H 42.4156 0.969809 2.36703 0
M  V30 403 H 42.0596 1.66912 4.7969 0
M  V30 404 H 41.9896 -0.0481649 5.26578 0
M  V30 405 H 44.4806 0.369198 3.76092 0
M  V30 406 H 44.7936 1.37482 7.60473 0
M  V30 407 H 43.1386 1.22958 6.84037 0
M  V30 408 H 46.3296 0.541098 4.64962 0
M  V30 409 H 46.5026 0.999445 6.40246 0
M  V30 410 N 39.9087 -1.5758 0.0250728 0
M  V30 411 C 41.1367 -1.9593 -0.664747 0
M  V30 412 C 41.5517 -0.901352 -1.65895 0
M  V30 413 O 40.9087 0.117255 -1.82123 0
M  V30 414 C 40.9597 -3.34342 -1.37468 0
M  V30 415 O 40.6807 -4.36079 -0.420324 0
M  V30 416 C 42.1817 -3.873 -2.1567 0
M  V30 417 H 39.4017 -0.645405 -0.183557 0
M  V30 418 H 41.9457 -2.04329 0.0836372 0
M  V30 419 H 40.1007 -3.27175 -2.0745 0
M  V30 420 H 40.5147 -5.16297 -0.923991 0
M  V30 421 H 41.9887 -4.86504 -2.60803 0
M  V30 422 H 42.4657 -3.21331 -2.99405 0
M  V30 423 H 43.0717 -3.97723 -1.50654 0
M  V30 424 N 41.3868 0.248026 -1.55636 0
M  V30 425 C 42.3498 1.29044 -1.89421 0
M  V30 426 C 43.3498 1.41134 -0.770581 0
M  V30 427 O 44.5398 1.39854 -1.03858 0
M  V30 428 C 41.6718 2.66831 -2.12165 0
M  V30 429 H 42.8648 1.00305 -2.82629 0
M  V30 430 H 40.4178 0.487265 -1.48511 0
M  V30 431 H 41.1528 3.00711 -1.21422 0
M  V30 432 H 40.9378 2.59438 -2.93997 0
M  V30 433 H 42.4278 3.42103 -2.3949 0
M  V30 434 N 42.8649 1.48995 0.513639 0
M  V30 435 C 44.2809 1.35478 0.843682 0
M  V30 436 C 44.4809 0.378213 1.97919 0
M  V30 437 O 43.5369 -0.194689 2.51748 0
M  V30 438 C 44.8499 2.75901 1.1958 0
M  V30 439 C 46.3979 2.84509 1.30474 0
M  V30 440 C 46.8729 4.25671 1.69021 0
M  V30 441 N 48.3639 4.28422 1.76094 0
M  V30 442 C 49.0989 5.34601 2.07338 0
M  V30 443 N 48.5949 6.5104 2.36894 0
M  V30 444 N 50.3879 5.22007 2.08483 0
M  V30 445 H 42.5389 2.11092 -0.235328 0
M  V30 446 H 44.8019 0.947039 -0.0426669 0
M  V30 447 H 44.5079 3.49001 0.434913 0
M  V30 448 H 44.3819 3.10467 2.1422 0
M  V30 449 H 46.7689 2.11655 2.05637 0
M  V30 450 H 46.8499 2.53542 0.339155 0
M  V30 451 H 46.4939 4.99048 0.944135 0
M  V30 452 H 46.4239 4.54094 2.66658 0
M  V30 453 H 48.9149 3.44441 1.55464 0
M  V30 454 H 49.2279 7.2779 2.59887 0
M  V30 455 H 47.5729 6.54287 2.34378 0
M  V30 456 H 50.7639 4.30051 1.84861 0
M  V30 457 H 50.9369 6.04854 2.325 0
M  V30 458 N 44.343 -0.763751 1.37857 0
M  V30 459 C 45.273 -1.89103 1.36975 0
M  V30 460 C 46.254 -1.68439 0.237152 0
M  V30 461 O 47.439 -1.8918 0.438713 0
M  V30 462 C 44.569 -3.26496 1.18395 0
M  V30 463 C 43.523 -3.61741 2.28751 0
M  V30 464 C 42.849 -4.97762 1.95286 0
M  V30 465 C 44.149 -3.67665 3.70972 0
M  V30 466 H 45.843 -1.90099 2.31307 0
M  V30 467 H 43.389 -0.91319 1.11341 0
M  V30 468 H 45.342 -4.05003 1.16406 0
M  V30 469 H 44.066 -3.25955 0.205215 0
M  V30 470 H 42.725 -2.85547 2.29909 0
M  V30 471 H 42.373 -4.93769 0.959221 0
M  V30 472 H 42.073 -5.22313 2.69189 0
M  V30 473 H 43.597 -5.7866 1.94898 0
M  V30 474 H 45.011 -4.36307 3.719 0
M  V30 475 H 43.408 -4.03718 4.43995 0
M  V30 476 H 44.478 -2.68134 4.0402 0
M  V30 477 N 45.8211 -1.22559 -0.990812 0
M  V30 478 C 47.0671 -1.05297 -1.73322 0
M  V30 479 C 47.4001 0.410655 -1.89808 0
M  V30 480 O 46.6751 1.30439 -1.44277 0
M  V30 481 C 46.9581 -1.76713 -3.13759 0
M  V30 482 C 46.8111 -3.30684 -3.04907 0
M  V30 483 C 48.1301 -1.52121 -4.12974 0
M  V30 484 H 45.2491 -0.38392 -0.629106 0
M  V30 485 H 47.8911 -1.50926 -1.15418 0
M  V30 486 H 46.0411 -1.37924 -3.63193 0
M  V30 487 H 47.7131 -3.7893 -2.63077 0
M  V30 488 H 45.9561 -3.60253 -2.41661 0
M  V30 489 H 46.6271 -3.75833 -4.04294 0
M  V30 490 H 49.1031 -1.85819 -3.72304 0
M  V30 491 H 47.9791 -2.04582 -5.0935 0
M  V30 492 H 48.2401 -0.454257 -4.3976 0
M  V30 493 N 47.2992 1.18797 -1.03562 0
M  V30 494 C 48.2472 2.24297 -0.615905 0
M  V30 495 C 49.2412 1.65643 0.354808 0
M  V30 496 O 50.4472 1.78618 0.22265 0
M  V30 497 H 46.8222 0.729909 -0.180934 0
M  V30 498 H 48.7932 2.5701 -1.5162 0
M  V30 499 C 47.5422 3.47698 0.0104735 0
M  V30 500 H 46.8652 3.93125 -0.727509 0
M  V30 501 H 48.3052 4.23159 0.266995 0
M  V30 502 C 46.7642 3.12489 1.25905 0
M  V30 503 O 47.2942 3.25761 2.35038 0
M  V30 504 N 45.5002 2.6686 1.15039 0
M  V30 505 H 45.0472 2.56261 0.262328 0
M  V30 506 H 45.0052 2.43674 1.98672 0
M  V30 507 N 48.7773 0.814389 1.34928 0
M  V30 508 C 50.0233 0.399013 1.98836 0
M  V30 509 C 50.3563 -1.03314 1.64438 0
M  V30 510 O 49.6313 -1.71811 0.911659 0
M  V30 511 C 49.9143 0.591629 3.55207 0
M  V30 512 C 49.7673 2.06928 3.99376 0
M  V30 513 C 51.0863 0.022199 4.40094 0
M  V30 514 H 48.2053 0.146451 0.722303 0
M  V30 515 H 50.8473 1.02537 1.59957 0
M  V30 516 H 48.9973 0.0584441 3.88456 0
M  V30 517 H 50.6693 2.66544 3.76499 0
M  V30 518 H 48.9123 2.56287 3.49999 0
M  V30 519 H 49.5833 2.1549 5.08201 0
M  V30 520 H 52.0593 0.477643 4.13349 0
M  V30 521 H 50.9353 0.186832 5.48582 0
M  V30 522 H 51.1963 -1.07215 4.28902 0
M  V30 523 N 50.2554 -1.46986 0.568584 0
M  V30 524 C 51.2184 -2.28624 -0.162366 0
M  V30 525 C 52.2184 -1.37596 -0.832103 0
M  V30 526 O 53.4084 -1.60115 -0.68622 0
M  V30 527 C 50.5404 -3.17596 -1.23878 0
M  V30 528 H 51.7334 -2.94722 0.554899 0
M  V30 529 H 49.2864 -1.52863 0.325976 0
M  V30 530 H 50.0214 -2.56214 -1.98808 0
M  V30 531 H 49.8064 -3.846 -0.763219 0
M  V30 532 H 51.2964 -3.79078 -1.75185 0
M  V30 533 N 51.7335 -0.305618 -1.54608 0
M  V30 534 C 52.6965 0.555591 -2.22364 0
M  V30 535 C 53.6965 1.05768 -1.21119 0
M  V30 536 O 54.8865 0.952972 -1.45822 0
M  V30 537 C 52.0185 1.76974 -2.91364 0
M  V30 538 H 53.2115 -0.0364572 -2.99878 0
M  V30 539 H 50.7645 -0.0565007 -1.56198 0
M  V30 540 H 51.4995 2.40151 -2.17941 0
M  V30 541 H 51.2845 1.41732 -3.65588 0
M  V30 542 H 52.7745 2.38148 -3.43038 0
M  V30 543 N 53.2116 1.57565 -0.0334293 0
M  V30 544 C 54.1436 2.0739 0.975811 0
M  V30 545 C 55.1566 0.998166 1.2861 0
M  V30 546 O 56.3456 1.27426 1.25 0
M  V30 547 C 53.4456 2.4871 2.30209 0
M  V30 548 C 52.6186 3.79413 2.17634 0
M  V30 549 C 51.6776 4.07237 3.33233 0
M  V30 550 O 50.7036 4.77425 3.09927 0
M  V30 551 N 51.9056 3.5775 4.5716 0
M  V30 552 H 54.6706 2.94598 0.55066 0
M  V30 553 H 52.2316 1.61173 0.15323 0
M  V30 554 H 54.2236 2.64413 3.06378 0
M  V30 555 H 52.7936 1.66845 2.64351 0
M  V30 556 H 52.0136 3.73465 1.26165 0
M  V30 557 H 53.3016 4.65038 2.0644 0
M  V30 558 H 52.6996 3.00976 4.78989 0
M  V30 559 H 51.2566 3.78724 5.30482 0
M  V30 560 N 54.6897 -0.239769 1.55765 0
M  V30 561 C 55.6197 -1.30052 1.9393 0
M  V30 562 C 56.6007 -1.49839 0.805132 0
M  V30 563 O 57.7857 -1.62328 1.06599 0
M  V30 564 C 54.9157 -2.65391 2.2402 0
M  V30 565 C 53.8697 -2.60289 3.39755 0
M  V30 566 C 53.1957 -3.99489 3.55405 0
M  V30 567 C 54.4957 -2.16654 4.75246 0
M  V30 568 H 56.1897 -0.983573 2.82783 0
M  V30 569 H 53.7357 -0.471701 1.36055 0
M  V30 570 H 55.6887 -3.3974 2.49308 0
M  V30 571 H 54.4127 -2.98736 1.32 0
M  V30 572 H 53.0717 -1.88398 3.14487 0
M  V30 573 H 52.7197 -4.30112 2.60793 0
M  V30 574 H 52.4197 -3.96962 4.33238 0
M  V30 575 H 53.9437 -4.75528 3.83022 0
M  V30 576 H 55.3577 -2.80737 4.99859 0
M  V30 577 H 53.7547 -2.25223 5.56232 0
M  V30 578 H 54.8247 -1.11835 4.71827 0
M  V30 579 N 56.1678 -1.49265 -0.50573 0
M  V30 580 C 57.1308 -1.65075 -1.59006 0
M  V30 581 C 58.1308 -0.522768 -1.52065 0
M  V30 582 O 59.3208 -0.789117 -1.55302 0
M  V30 583 C 56.4528 -1.64369 -2.98656 0
M  V30 584 H 57.6458 -2.61784 -1.46319 0
M  V30 585 H 55.1988 -1.38226 -0.729616 0
M  V30 586 H 55.9338 -0.692272 -3.16825 0
M  V30 587 H 55.7188 -2.46282 -3.05103 0
M  V30 588 H 57.2088 -1.78674 -3.77446 0
M  V30 589 N 57.6459 0.756429 -1.3826 0
M  V30 590 C 58.5929 1.87011 -1.35261 0
M  V30 591 C 59.5629 1.64695 -0.215616 0
M  V30 592 O 60.7479 1.864 -0.407399 0
M  V30 593 C 57.8879 3.24275 -1.18068 0
M  V30 594 C 57.0009 3.58442 -2.41129 0
M  V30 595 C 56.1359 4.84994 -2.16689 0
M  V30 596 C 55.1749 5.11939 -3.35537 0
M  V30 597 N 54.3119 6.29685 -3.10549 0
M  V30 598 H 59.1519 1.8891 -2.30472 0
M  V30 599 H 56.6889 0.923373 -1.14509 0
M  V30 600 H 58.6469 4.03479 -1.06116 0
M  V30 601 H 57.2769 3.21711 -0.264973 0
M  V30 602 H 56.3289 2.74103 -2.63764 0
M  V30 603 H 57.6409 3.74283 -3.29717 0
M  V30 604 H 56.7949 5.72135 -2.01857 0
M  V30 605 H 55.5339 4.71286 -1.25462 0
M  V30 606 H 54.5389 4.23268 -3.50891 0
M  V30 607 H 55.7639 5.27546 -4.27635 0
M  V30 608 H 53.7099 6.17306 -2.21967 0
M  V30 609 H 53.6269 6.46014 -3.92686 0
M  V30 610 H 54.8949 7.19722 -2.99367 0
M  V30 611 N 59.124 1.23083 0.984299 0
M  V30 612 C 60.354 1.08556 1.75781 0
M  V30 613 C 60.762 -0.366171 1.85623 0
M  V30 614 O 60.105 -1.26524 1.33182 0
M  V30 615 C 60.167 1.63208 3.20318 0
M  V30 616 C 59.831 3.11922 3.33997 0
M  V30 617 C 60.828 4.09259 3.2063 0
M  V30 618 C 58.513 3.51552 3.58771 0
M  V30 619 C 60.507 5.4421 3.31835 0
M  V30 620 C 58.194 4.86649 3.69616 0
M  V30 621 C 59.192 5.82787 3.56157 0
M  V30 622 O 58.88 7.15431 3.66626 0
M  V30 623 H 58.612 0.380713 0.5586 0
M  V30 624 H 61.166 1.63321 1.2456 0
M  V30 625 H 59.396 1.0286 3.72769 0
M  V30 626 H 61.085 1.44216 3.79416 0
M  V30 627 H 61.851 3.79984 3.01392 0
M  V30 628 H 57.73 2.77239 3.6832 0
M  V30 629 H 61.274 6.1923 3.21247 0
M  V30 630 H 57.171 5.15601 3.88363 0
M  V30 631 H 57.939 7.23127 3.83445 0
M  V30 632 N 60.6021 -1.18246 1.0419 0
M  V30 633 C 61.8271 -1.92736 0.765996 0
M  V30 634 C 62.2521 -1.75728 -0.67091 0
M  V30 635 O 61.6101 -1.06825 -1.46486 0
M  V30 636 C 61.6581 -3.42148 1.13875 0
M  V30 637 O 60.7621 -4.11548 0.264954 0
M  V30 638 H 60.1031 -0.601238 0.281797 0
M  V30 639 H 62.6331 -1.49942 1.39207 0
M  V30 640 H 62.6431 -3.92858 1.1012 0
M  V30 641 H 61.3181 -3.53848 2.18551 0
M  V30 642 H 59.8951 -3.71137 0.362226 0
M  V30 643 N 62.0802 -0.821533 -1.34494 0
M  V30 644 C 63.3282 -0.408139 -1.97936 0
M  V30 645 C 63.6492 1.03193 -1.65457 0
M  V30 646 O 62.9192 1.71622 -0.944595 0
M  V30 647 H 61.4992 -0.147928 -0.732206 0
M  V30 648 H 64.1612 -1.05067 -1.64155 0
M  V30 649 H 63.2572 -0.52601 -3.07635 0
M  V30 650 N 63.5583 1.46682 -0.576371 0
M  V30 651 C 64.5053 2.30241 0.160499 0
M  V30 652 C 65.4753 1.40233 0.890162 0
M  V30 653 O 66.6603 1.69186 0.882084 0
M  V30 654 C 63.8003 3.24578 1.1723 0
M  V30 655 C 62.9133 4.29684 0.446736 0
M  V30 656 C 62.0483 5.11154 1.44551 0
M  V30 657 C 61.0873 6.08015 0.70599 0
M  V30 658 N 60.2243 6.82376 1.65251 0
M  V30 659 H 65.0643 2.92727 -0.558127 0
M  V30 660 H 62.6013 1.44272 -0.287056 0
M  V30 661 H 64.5593 3.77711 1.77172 0
M  V30 662 H 63.1893 2.63916 1.85872 0
M  V30 663 H 62.2413 3.79458 -0.267594 0
M  V30 664 H 63.5533 4.98626 -0.131686 0
M  V30 665 H 62.7073 5.68533 2.11791 0
M  V30 666 H 61.4463 4.42158 2.05786 0
M  V30 667 H 60.4513 5.49796 0.0197725 0
M  V30 668 H 61.6763 6.79028 0.09912 0
M  V30 669 H 59.6223 6.16094 2.25308 0
M  V30 670 H 59.5393 7.47556 1.12673 0
M  V30 671 H 60.8073 7.44316 2.31546 0
M  V30 672 N 65.0364 0.313813 1.54444 0
M  V30 673 C 66.2614 -0.296681 2.05267 0
M  V30 674 C 66.6864 -1.45757 1.18897 0
M  V30 675 O 66.0444 -1.80239 0.195886 0
M  V30 676 C 66.0924 -0.71831 3.53373 0
M  V30 677 O 65.1964 -1.82175 3.69981 0
M  V30 678 H 64.5374 -0.0554061 0.661684 0
M  V30 679 H 67.0674 0.459387 1.99376 0
M  V30 680 H 67.0774 -1.00364 3.95463 0
M  V30 681 H 65.7524 0.130821 4.15694 0
M  V30 682 H 64.3294 -1.53598 3.39797 0
M  V30 683 N 66.5145 -1.57545 0.0417849 0
M  V30 684 C 67.7635 -1.91494 -0.633492 0
M  V30 685 C 68.0765 -0.921084 -1.72556 0
M  V30 686 O 69.2825 -1.15228 -2.45835 0
M  V30 687 C 67.7385 -3.40072 -1.17808 0
M  V30 688 C 67.3465 -4.47843 -0.118633 0
M  V30 689 C 69.0905 -3.8307 -1.82915 0
M  V30 690 C 66.9975 -5.87529 -0.675578 0
M  V30 691 H 65.9275 -0.714653 -0.24039 0
M  V30 692 H 68.5785 -1.83175 0.109148 0
M  V30 693 H 66.9605 -3.43364 -1.97274 0
M  V30 694 H 68.1345 -4.56128 0.654494 0
M  V30 695 H 66.4495 -4.14128 0.434414 0
M  V30 696 H 69.0465 -4.84794 -2.25563 0
M  V30 697 H 69.3895 -3.1881 -2.67705 0
M  V30 698 H 69.9225 -3.82255 -1.10119 0
M  V30 699 H 66.6615 -6.55362 0.134475 0
M  V30 700 H 66.1815 -5.82824 -1.4169 0
M  V30 701 H 67.8605 -6.36491 -1.1614 0
M  V30 702 N 67.9926 0.231505 -1.5589 0
M  V30 703 C 69.2206 0.974505 -1.82513 0
M  V30 704 C 69.6356 1.78344 -0.619591 0
M  V30 705 O 68.9926 1.77792 0.411848 0
M  V30 706 C 69.0436 1.90007 -3.07538 0
M  V30 707 O 68.7646 1.12385 -4.2344 0
M  V30 708 C 70.2656 2.75779 -3.47075 0
M  V30 709 H 67.4856 0.286065 -0.606966 0
M  V30 710 H 70.0296 0.249739 -2.02969 0
M  V30 711 H 68.1846 2.57891 -2.89086 0
M  V30 712 H 68.5986 1.75125 -4.944 0
M  V30 713 H 70.0726 3.36443 -4.37619 0
M  V30 714 H 70.5496 3.47672 -2.68367 0
M  V30 715 H 71.1556 2.13323 -3.67931 0
M  V30 716 N 69.4707 1.49531 0.497807 0
M  V30 717 C 70.7197 1.58426 1.24837 0
M  V30 718 C 71.0327 0.277643 1.93619 0
M  V30 719 O 72.2387 0.24517 2.70391 0
M  V30 720 C 70.6947 2.79538 2.26686 0
M  V30 721 C 70.3027 4.16971 1.63828 0
M  V30 722 C 72.0467 2.97764 3.0255 0
M  V30 723 C 69.9537 5.29301 2.63807 0
M  V30 724 H 68.8837 0.58989 0.469623 0
M  V30 725 H 71.5347 1.75923 0.521857 0
M  V30 726 H 69.9167 2.55542 3.02514 0
M  V30 727 H 71.0907 4.51116 0.939711 0
M  V30 728 H 69.4057 4.04129 1.00342 0
M  V30 729 H 72.0027 3.78856 3.77323 0
M  V30 730 H 72.3457 2.08448 3.60354 0
M  V30 731 H 72.8787 3.21815 2.33838 0
M  V30 732 H 69.6177 6.20687 2.10779 0
M  V30 733 H 69.1377 4.99606 3.31894 0
M  V30 734 H 70.8167 5.58768 3.2617 0
M  V30 735 N 70.9488 -0.749086 1.3866 0
M  V30 736 C 72.1738 -1.54344 1.38538 0
M  V30 737 C 72.5988 -1.88088 -0.0216655 0
M  V30 738 O 71.9568 -1.50899 -1.00494 0
M  V30 739 C 72.0048 -2.8164 2.25192 0
M  V30 740 O 71.1088 -3.7698 1.67212 0
M  V30 741 H 70.4498 -0.466654 0.472367 0
M  V30 742 H 72.9798 -0.925355 1.82478 0
M  V30 743 H 72.9898 -3.30519 2.3921 0
M  V30 744 H 71.6648 -2.56411 3.27454 0
M  V30 745 H 70.2418 -3.35699 1.6236 0
M  V30 746 N 72.4269 -1.23603 -0.977757 0
M  V30 747 C 73.6519 -1.09735 -1.75991 0
M  V30 748 C 74.0769 0.346858 -1.84874 0
M  V30 749 O 73.4349 1.25093 -1.3123 0
M  V30 750 C 73.4829 -1.73051 -3.16363 0
M  V30 751 O 72.5869 -0.994452 -4.0023 0
M  V30 752 H 71.9279 -0.384476 -0.541364 0
M  V30 753 H 74.4579 -1.6371 -1.2272 0
M  V30 754 H 74.4679 -1.78398 -3.66931 0
M  V30 755 H 73.1429 -2.78137 -3.09213 0
M  V30 756 H 71.7199 -1.01812 -3.58732 0
M  V30 757 N 73.905 1.17692 -1.04816 0
M  V30 758 C 74.815 2.25229 -0.65643 0
M  V30 759 C 75.831 1.71018 0.320761 0
M  V30 760 O 77.007 2.00649 0.173805 0
M  V30 761 C 74.072 3.46684 -0.0332629 0
M  V30 762 C 73.133 4.15997 -1.06042 0
M  V30 763 C 72.366 5.31654 -0.466893 0
M  V30 764 O 72.589 5.65777 0.724758 0
M  V30 765 O 71.523 5.89831 -1.1993 0
M  V30 766 H 75.349 2.61016 -1.55255 0
M  V30 767 H 72.934 1.24919 -0.81949 0
M  V30 768 H 74.816 4.20234 0.313256 0
M  V30 769 H 73.491 3.12703 0.836566 0
M  V30 770 H 72.398 3.44482 -1.45886 0
M  V30 771 H 73.731 4.53996 -1.90127 0
M  V30 772 N 75.3831 0.828654 1.34056 0
M  V30 773 C 76.6311 0.41863 1.97717 0
M  V30 774 C 76.9521 -1.02314 1.66002 0
M  V30 775 O 76.2221 -1.71119 0.953683 0
M  V30 776 H 74.8021 0.151809 0.731412 0
M  V30 777 H 77.4641 1.05936 1.63596 0
M  V30 778 H 76.5601 0.542318 3.07352 0
M  V30 779 N 76.8612 -1.46375 0.584142 0
M  V30 780 C 78.0862 -2.07268 0.0740405 0
M  V30 781 C 78.5112 -1.42979 -1.22223 0
M  V30 782 O 77.8692 -0.514092 -1.73859 0
M  V30 783 C 77.9172 -3.60518 -0.0767769 0
M  V30 784 O 77.0212 -3.96533 -1.13292 0
M  V30 785 H 76.3622 -0.660961 0.0634524 0
M  V30 786 H 78.8922 -1.87991 0.807492 0
M  V30 787 H 78.9022 -4.07021 -0.282489 0
M  V30 788 H 77.5772 -4.06702 0.86986 0
M  V30 789 H 76.1542 -3.61738 -0.905553 0
M  V30 790 N 78.3393 -0.321999 -1.54275 0
M  V30 791 C 79.2493 0.553631 -2.27974 0
M  V30 792 C 80.2653 1.13054 -1.32268 0
M  V30 793 O 81.4413 1.15084 -1.6528 0
M  V30 794 C 78.5063 1.69927 -3.02201 0
M  V30 795 C 77.5673 1.15433 -4.1349 0
M  V30 796 C 76.8003 2.24537 -4.84168 0
M  V30 797 O 77.0233 3.44852 -4.5435 0
M  V30 798 O 75.9573 1.90044 -5.7111 0
M  V30 799 H 79.7833 -0.0448345 -3.03667 0
M  V30 800 H 77.3683 -0.0877418 -1.49142 0
M  V30 801 H 79.2503 2.3663 -3.48689 0
M  V30 802 H 77.9253 2.28395 -2.29385 0
M  V30 803 H 76.8323 0.452436 -3.71354 0
M  V30 804 H 78.1653 0.614805 -4.88345 0
M  V30 805 N 79.8174 1.5752 -0.0501392 0
M  V30 806 C 80.7804 2.1037 0.909786 0
M  V30 807 C 81.7804 1.02308 1.24056 0
M  V30 808 O 82.9704 1.28385 1.17741 0
M  V30 809 C 80.1024 2.58708 2.21998 0
M  V30 810 H 81.2954 2.96479 0.451665 0
M  V30 811 H 78.8484 1.55038 0.198248 0
M  V30 812 H 79.5834 1.75989 2.72394 0
M  V30 813 H 79.3684 3.37675 1.99295 0
M  V30 814 H 80.8584 2.99747 2.9076 0
M  V30 815 N 81.2955 -0.223234 1.56011 0
M  V30 816 C 82.2285 -1.30377 1.87289 0
M  V30 817 C 83.2065 -1.45286 0.730112 0
M  V30 818 O 84.3905 -1.61126 0.978302 0
M  V30 819 C 81.5175 -2.67431 2.07843 0
M  V30 820 C 80.5635 -2.69546 3.30526 0
M  V30 821 S 81.3965 -2.23781 4.865 0
M  V30 822 C 82.5525 -3.62714 5.10088 0
M  V30 823 H 82.7855 -1.03652 2.78646 0
M  V30 824 H 80.3185 -0.425393 1.48424 0
M  V30 825 H 82.2765 -3.46336 2.20368 0
M  V30 826 H 80.9375 -2.91381 1.17285 0
M  V30 827 H 80.1305 -3.70255 3.41947 0
M  V30 828 H 79.7325 -1.98703 3.16849 0
M  V30 829 H 82.0245 -4.58391 4.98883 0
M  V30 830 H 82.9675 -3.5621 6.11981 0
M  V30 831 H 83.3755 -3.56323 4.37829 0
M  V30 832 N 82.7736 -1.49793 -0.48987 0
M  V30 833 C 83.7056 -1.63413 -1.60713 0
M  V30 834 C 84.7186 -0.516329 -1.54395 0
M  V30 835 O 85.9076 -0.788812 -1.60125 0
M  V30 836 C 83.0076 -1.58516 -2.99543 0
M  V30 837 C 82.1806 -2.86016 -3.30928 0
M  V30 838 C 81.2396 -2.74018 -4.49222 0
M  V30 839 O 80.2656 -3.47964 -4.50455 0
M  V30 840 N 81.4676 -1.86309 -5.4979 0
M  V30 841 H 84.2326 -2.59777 -1.49452 0
M  V30 842 H 81.7936 -1.47022 -0.677955 0
M  V30 843 H 83.7856 -1.48128 -3.76617 0
M  V30 844 H 82.3556 -0.69965 -3.0467 0
M  V30 845 H 81.5756 -3.10672 -2.42645 0
M  V30 846 H 82.8636 -3.70521 -3.487 0
M  V30 847 H 82.2616 -1.2551 -5.51601 0
M  V30 848 H 80.8186 -1.81837 -6.25922 0
M  V30 849 N 84.2517 0.741722 -1.39055 0
M  V30 850 C 85.1617 1.88621 -1.39496 0
M  V30 851 C 86.1777 1.71557 -0.290578 0
M  V30 852 O 87.3537 1.94275 -0.530954 0
M  V30 853 C 84.4187 3.24134 -1.23037 0
M  V30 854 C 83.4797 3.5364 -2.43387 0
M  V30 855 C 82.7127 4.82687 -2.27703 0
M  V30 856 O 82.9357 5.55922 -1.27696 0
M  V30 857 O 81.8697 5.1194 -3.16545 0
M  V30 858 H 85.6957 1.91203 -2.35956 0
M  V30 859 H 83.2807 0.888625 -1.20099 0
M  V30 860 H 85.1627 4.0513 -1.15964 0
M  V30 861 H 83.8377 3.22337 -0.296691 0
M  V30 862 H 82.7447 2.72758 -2.56035 0
M  V30 863 H 84.0777 3.60209 -3.35425 0
M  V30 864 N 85.7298 1.2412 0.971189 0
M  V30 865 C 86.9778 1.07668 1.71032 0
M  V30 866 C 87.2988 -0.385797 1.91146 0
M  V30 867 O 86.5688 -1.27569 1.4867 0
M  V30 868 H 85.1488 0.395429 0.633755 0
M  V30 869 H 87.8108 1.55984 1.16855 0
M  V30 870 H 86.9068 1.57195 2.69622 0
M  V30 871 N 87.2079 -1.17134 1.05439 0
M  V30 872 C 88.1709 -2.19439 0.661764 0
M  V30 873 C 89.1709 -1.58199 -0.288042 0
M  V30 874 O 90.3609 -1.74053 -0.0715803 0
M  V30 875 C 87.4929 -3.40889 -0.0276209 0
M  V30 876 H 88.6859 -2.55688 1.56728 0
M  V30 877 H 86.2389 -1.31259 0.848567 0
M  V30 878 H 86.9739 -3.10187 -0.94629 0
M  V30 879 H 86.7589 -3.86586 0.655238 0
M  V30 880 H 88.2489 -4.16603 -0.288342 0
M  V30 881 N 88.686 -0.835752 -1.33615 0
M  V30 882 C 89.916 -0.442701 -2.01801 0
M  V30 883 C 90.324 0.959807 -1.63047 0
M  V30 884 O 89.667 1.63468 -0.838088 0
M  V30 885 C 89.729 -0.480125 -3.56279 0
M  V30 886 C 89.393 -1.8382 -4.18401 0
M  V30 887 C 90.39 -2.80097 -4.37998 0
M  V30 888 C 88.075 -2.13019 -4.54894 0
M  V30 889 C 90.069 -4.03736 -4.9323 0
M  V30 890 C 87.756 -3.36916 -5.09834 0
M  V30 891 C 88.754 -4.32091 -5.28948 0
M  V30 892 O 88.442 -5.53797 -5.82721 0
M  V30 893 H 88.174 -0.17441 -0.653114 0
M  V30 894 H 90.728 -1.129 -1.71589 0
M  V30 895 H 88.958 0.262931 -3.85805 0
M  V30 896 H 90.647 -0.105335 -4.05763 0
M  V30 897 H 91.413 -2.58838 -4.10156 0
M  V30 898 H 87.292 -1.39733 -4.39313 0
M  V30 899 H 90.836 -4.78034 -5.08064 0
M  V30 900 H 86.733 -3.58033 -5.37106 0
M  V30 901 H 87.501 -5.55494 -6.0114 0
M  V30 902 N 90.1641 1.46063 -0.591896 0
M  V30 903 C 91.5801 1.57561 -0.254288 0
M  V30 904 C 91.7801 1.58565 1.24336 0
M  V30 905 O 90.8361 1.50753 2.02558 0
M  V30 906 C 92.1491 2.86549 -0.911611 0
M  V30 907 C 93.6971 3.00197 -0.886059 0
M  V30 908 C 94.1721 4.31933 -1.5231 0
M  V30 909 N 95.6631 4.38654 -1.48786 0
M  V30 910 C 96.3981 5.39222 -1.95006 0
M  V30 911 N 95.8941 6.46414 -2.49241 0
M  V30 912 N 97.6871 5.3048 -1.85868 0
M  V30 913 H 89.8381 1.43655 -1.56451 0
M  V30 914 H 92.1011 0.68583 -0.654478 0
M  V30 915 H 91.8071 2.91651 -1.96551 0
M  V30 916 H 91.6811 3.74794 -0.425368 0
M  V30 917 H 94.0681 2.9467 0.159246 0
M  V30 918 H 94.1491 2.13403 -1.41041 0
M  V30 919 H 93.7931 4.38217 -2.56765 0
M  V30 920 H 93.7231 5.17516 -0.973891 0
M  V30 921 H 96.2141 3.61793 -1.09151 0
M  V30 922 H 96.5271 7.19376 -2.82344 0
M  V30 923 H 94.8721 6.47208 -2.53272 0
M  V30 924 H 98.0631 4.45643 -1.43248 0
M  V30 925 H 98.2361 6.08711 -2.22204 0
M  V30 926 N 91.6422 0.330177 1.54103 0
M  V30 927 C 92.8892 -0.270405 2.00686 0
M  V30 928 C 93.2172 -1.51621 1.21825 0
M  V30 929 O 92.4722 -1.93536 0.29025 0
M  V30 930 C 92.7712 -0.643134 3.51566 0
M  V30 931 C 92.4372 0.504251 4.48072 0
M  V30 932 C 91.0992 0.819163 4.74176 0
M  V30 933 C 93.4512 1.27465 5.05373 0
M  V30 934 C 90.7792 1.90708 5.5484 0
M  V30 935 C 93.1312 2.35271 5.87223 0
M  V30 936 C 91.7952 2.67336 6.11627 0
M  V30 937 H 91.0652 -0.0989482 0.734364 0
M  V30 938 H 93.7122 0.455324 1.86008 0
M  V30 939 H 92.0172 -1.44938 3.64006 0
M  V30 940 H 93.7142 -1.11949 3.85056 0
M  V30 941 H 90.3042 0.248733 4.27878 0
M  V30 942 H 94.4882 1.04462 4.85182 0
M  V30 943 H 89.7442 2.15991 5.71977 0
M  V30 944 H 93.9182 2.95405 6.30641 0
M  V30 945 H 91.5452 3.51763 6.73919 0
M  V30 946 N 93.1203 -1.57491 0.0584922 0
M  V30 947 C 94.3693 -1.92155 -0.613146 0
M  V30 948 C 94.6823 -0.939334 -1.71569 0
M  V30 949 O 95.8883 -1.17829 -2.44599 0
M  V30 950 C 94.3443 -3.41303 -1.14195 0
M  V30 951 C 93.9523 -4.47944 -0.0711265 0
M  V30 952 C 95.6963 -3.84988 -1.78841 0
M  V30 953 C 93.6033 -5.88212 -0.613225 0
M  V30 954 H 92.5333 -0.717162 -0.232796 0
M  V30 955 H 95.1843 -1.83049 0.12857 0
M  V30 956 H 93.5663 -3.45437 -1.93621 0
M  V30 957 H 94.7403 -4.55408 0.702836 0
M  V30 958 H 93.0553 -4.13644 0.478313 0
M  V30 959 H 95.6523 -4.87159 -2.20408 0
M  V30 960 H 95.9953 -3.21632 -2.64308 0
M  V30 961 H 96.5283 -3.83401 -1.06059 0
M  V30 962 H 93.2673 -6.55183 0.203978 0
M  V30 963 H 92.7873 -5.84294 -1.35501 0
M  V30 964 H 94.4663 -6.37687 -1.09383 0
M  V30 965 N 94.5984 0.214957 -1.56127 0
M  V30 966 C 96.0144 0.564948 -1.49267 0
M  V30 967 C 96.2144 1.86827 -0.754838 0
M  V30 968 O 95.2704 2.50745 -0.297198 0
M  V30 969 C 96.5834 0.638071 -2.93852 0
M  V30 970 C 98.1314 0.728253 -3.0441 0
M  V30 971 C 98.6064 0.832663 -4.50367 0
M  V30 972 N 100.097 0.896712 -4.54437 0
M  V30 973 C 100.832 0.997324 -5.6466 0
M  V30 974 N 100.328 1.06147 -6.8462 0
M  V30 975 N 102.121 1.03297 -5.52527 0
M  V30 976 H 94.2724 -0.640211 -2.02522 0
M  V30 977 H 96.5354 -0.225507 -0.920788 0
M  V30 978 H 96.2414 -0.250126 -3.50809 0
M  V30 979 H 96.1154 1.49947 -3.46115 0
M  V30 980 H 98.5024 1.60689 -2.47514 0
M  V30 981 H 98.5834 -0.158952 -2.55306 0
M  V30 982 H 98.2274 -0.0415417 -5.07883 0
M  V30 983 H 98.1574 1.73538 -4.97184 0
M  V30 984 H 100.648 0.857188 -3.6805 0
M  V30 985 H 100.961 1.1382 -7.64372 0
M  V30 986 H 99.3064 1.03049 -6.87318 0
M  V30 987 H 102.497 0.979558 -4.57736 0
M  V30 988 H 102.67 1.10793 -6.38458 0
M  V30 989 N 96.0765 1.50051 0.48192 0
M  V30 990 C 97.0245 1.68635 1.60203 0
M  V30 991 C 98.0185 0.552184 1.60148 0
M  V30 992 O 99.2245 0.732377 1.64427 0
M  V30 993 H 95.5995 0.532081 0.531407 0
M  V30 994 H 97.5705 2.62616 1.41688 0
M  V30 995 C 96.3195 1.78775 2.9822 0
M  V30 996 H 95.6425 2.6543 2.98976 0
M  V30 997 H 97.0825 1.95806 3.7608 0
M  V30 998 C 95.5415 0.536849 3.32595 0
M  V30 999 O 96.0715 -0.328897 4.00351 0
M  V30 1000 N 94.2775 0.394091 2.87915 0
M  V30 1001 H 93.8245 1.09962 2.32951 0
M  V30 1002 H 93.7825 -0.441737 3.11281 0
M  V30 1003 N 97.5546 -0.734337 1.39446 0
M  V30 1004 C 98.9656 -1.31264 1.32766 0
M  V30 1005 C 99.3166 -1.96198 -0.00767497 0
M  V30 1006 O 98.4416 -1.96346 -0.909796 0
M  V30 1007 C 99.0366 -2.38682 2.4045 0
M  V30 1008 C 97.5956 -2.92184 2.37288 0
M  V30 1009 C 96.7426 -1.6576 2.22304 0
M  V30 1010 H 99.6936 -0.531799 1.49525 0
M  V30 1011 H 99.7146 -3.19087 2.07276 0
M  V30 1012 H 99.2266 -1.91392 3.37625 0
M  V30 1013 H 97.3276 -3.43752 1.43754 0
M  V30 1014 H 97.4406 -3.45253 3.3217 0
M  V30 1015 H 95.8046 -1.9012 1.69489 0
M  V30 1016 H 96.5876 -1.20521 3.21449 0
M  V30 1017 N 99.0327 -1.24633 -0.964593 0
M  V30 1018 C 99.9807 -1.03917 -2.08096 0
M  V30 1019 C 100.975 0.0268581 -1.69379 0
M  V30 1020 O 102.181 -0.127952 -1.79545 0
M  V30 1021 H 98.5557 -0.319044 -0.680966 0
M  V30 1022 H 100.527 -1.98581 -2.22729 0
M  V30 1023 C 99.2757 -0.663983 -3.41301 0
M  V30 1024 H 98.5987 -1.47605 -3.71555 0
M  V30 1025 H 100.039 -0.558663 -4.20303 0
M  V30 1026 C 98.4977 0.629169 -3.30973 0
M  V30 1027 O 99.0277 1.67404 -3.65156 0
M  V30 1028 N 97.2337 0.611057 -2.84103 0
M  V30 1029 H 96.7807 -0.239593 -2.56483 0
M  V30 1030 H 96.7387 1.47647 -2.77575 0
M  V30 1031 N 100.511 1.16574 -1.06058 0
M  V30 1032 C 101.757 1.87324 -0.777022 0
M  V30 1033 C 102.09 1.81351 0.694645 0
M  V30 1034 O 101.365 1.22753 1.50871 0
M  V30 1035 C 101.648 3.36991 -1.26922 0
M  V30 1036 C 101.501 3.51667 -2.80447 0
M  V30 1037 C 102.82 4.3131 -0.87521 0
M  V30 1038 H 99.9388 0.680191 -0.28374 0
M  V30 1039 H 102.581 1.37036 -1.3161 0
M  V30 1040 H 100.731 3.79949 -0.81063 0
M  V30 1041 H 102.403 3.17664 -3.34495 0
M  V30 1042 H 100.646 2.93656 -3.19294 0
M  V30 1043 H 101.317 4.56766 -3.0995 0
M  V30 1044 H 103.793 3.9624 -1.27014 0
M  V30 1045 H 102.669 5.34545 -1.2471 0
M  V30 1046 H 102.93 4.41552 0.220071 0
M  V30 1047 N 101.989 0.842826 1.3317 0
M  V30 1048 C 103.214 0.453129 2.02389 0
M  V30 1049 C 103.639 -0.939105 1.6298 0
M  V30 1050 O 102.997 -1.61472 0.8244 0
M  V30 1051 C 103.045 0.586094 3.55805 0
M  V30 1052 O 102.149 -0.386029 4.10589 0
M  V30 1053 H 101.49 0.183664 0.638094 0
M  V30 1054 H 104.02 1.13875 1.69981 0
M  V30 1055 H 104.03 0.469209 4.05293 0
M  V30 1056 H 102.705 1.6014 3.83833 0
M  V30 1057 H 101.282 -0.226371 3.72212 0
M  V30 1058 N 103.467 -1.45747 0.599634 0
M  V30 1059 C 104.43 -2.28917 -0.113835 0
M  V30 1060 C 105.43 -1.3933 -0.802729 0
M  V30 1061 O 106.62 -1.61534 -0.652103 0
M  V30 1062 C 103.752 -3.20152 -1.17114 0
M  V30 1063 H 104.945 -2.93478 0.617289 0
M  V30 1064 H 102.498 -1.52137 0.358327 0
M  V30 1065 H 103.233 -2.60374 -1.93329 0
M  V30 1066 H 103.018 -3.86133 -0.681468 0
M  V30 1067 H 104.508 -3.82708 -1.67105 0
M  V30 1068 N 104.945 -0.338344 -1.53925 0
M  V30 1069 C 105.855 0.529421 -2.28548 0
M  V30 1070 C 106.871 1.11645 -1.3346 0
M  V30 1071 O 108.047 1.13325 -1.66492 0
M  V30 1072 C 105.112 1.66713 -3.03987 0
M  V30 1073 C 104.173 1.11041 -4.14691 0
M  V30 1074 C 103.406 2.19389 -4.86522 0
M  V30 1075 O 103.629 3.40013 -4.57982 0
M  V30 1076 O 102.563 1.83976 -5.73094 0
M  V30 1077 H 106.389 -0.0770399 -3.03602 0
M  V30 1078 H 103.974 -0.103555 -1.49041 0
M  V30 1079 H 105.856 2.32918 -3.5118 0
M  V30 1080 H 104.531 2.25949 -2.31794 0
M  V30 1081 H 103.438 0.413024 -3.71813 0
M  V30 1082 H 104.771 0.562975 -4.8897 0
M  V30 1083 N 106.423 1.57458 -0.0668435 0
M  V30 1084 C 107.386 2.11323 0.887422 0
M  V30 1085 C 108.386 1.03618 1.22964 0
M  V30 1086 O 109.576 1.29626 1.16373 0
M  V30 1087 C 106.708 2.61048 2.19242 0
M  V30 1088 H 107.901 2.96942 0.420194 0
M  V30 1089 H 105.454 1.55239 0.181793 0
M  V30 1090 H 106.189 1.78868 2.70512 0
M  V30 1091 H 105.974 3.39769 1.95702 0
M  V30 1092 H 107.464 3.02814 2.87565 0
M  V30 1093 N 107.901 -0.206675 1.56239 0
M  V30 1094 C 109.15 -0.926964 1.79138 0
M  V30 1095 C 109.463 -1.84901 0.638043 0
M  V30 1096 O 110.669 -2.60906 0.751033 0
M  V30 1097 C 109.125 -1.6986 3.17294 0
M  V30 1098 C 108.733 -0.821956 4.40395 0
M  V30 1099 C 110.477 -2.40922 3.4951 0
M  V30 1100 C 108.384 -1.59179 5.69575 0
M  V30 1101 H 107.314 -0.349864 0.667915 0
M  V30 1102 H 109.965 -0.180487 1.8261 0
M  V30 1103 H 108.347 -2.48853 3.08039 0
M  V30 1104 H 109.521 -0.0715019 4.60745 0
M  V30 1105 H 107.836 -0.222741 4.15804 0
M  V30 1106 H 110.433 -2.99047 4.43255 0
M  V30 1107 H 110.776 -3.14542 2.72707 0
M  V30 1108 H 111.309 -1.68905 3.60161 0
M  V30 1109 H 108.048 -0.898589 6.49312 0
M  V30 1110 H 107.568 -2.31648 5.53262 0
M  V30 1111 H 109.247 -2.14862 6.10281 0
M  V30 1112 N 109.379 -1.50304 -0.473955 0
M  V30 1113 C 110.795 -1.37667 -0.807466 0
M  V30 1114 C 110.995 -0.430555 -1.96846 0
M  V30 1115 O 110.051 0.127874 -2.52176 0
M  V30 1116 C 111.364 -2.78974 -1.12223 0
M  V30 1117 C 112.912 -2.87868 -1.22885 0
M  V30 1118 C 113.387 -4.30003 -1.57676 0
M  V30 1119 N 114.878 -4.3294 -1.64673 0
M  V30 1120 C 115.613 -5.3991 -1.93091 0
M  V30 1121 N 115.109 -6.57092 -2.1955 0
M  V30 1122 N 116.902 -5.27351 -1.94569 0
M  V30 1123 H 109.053 -2.10394 0.291212 0
M  V30 1124 H 111.316 -0.945575 0.0677609 0
M  V30 1125 H 111.022 -3.50031 -0.342229 0
M  V30 1126 H 110.896 -3.16038 -2.05913 0
M  V30 1127 H 113.283 -2.17032 -1.99953 0
M  V30 1128 H 113.364 -2.54352 -0.271814 0
M  V30 1129 H 113.008 -5.01375 -0.81149 0
M  V30 1130 H 112.938 -4.61004 -2.54525 0
M  V30 1131 H 115.429 -3.48441 -1.46277 0
M  V30 1132 H 115.742 -7.34425 -2.405 0
M  V30 1133 H 114.087 -6.60272 -2.16948 0
M  V30 1134 H 117.278 -4.34801 -1.73394 0
M  V30 1135 H 117.451 -6.10805 -2.16381 0
M  V30 1136 N 110.857 0.726932 -1.39834 0
M  V30 1137 C 111.804 1.841 -1.39197 0
M  V30 1138 C 112.774 1.642 -0.250502 0
M  V30 1139 O 113.959 1.85494 -0.446846 0
M  V30 1140 C 111.099 3.21697 -1.24919 0
M  V30 1141 C 110.212 3.53247 -2.48678 0
M  V30 1142 C 109.347 4.80289 -2.26928 0
M  V30 1143 C 108.386 5.04707 -3.4632 0
M  V30 1144 N 107.523 6.22956 -3.23836 0
M  V30 1145 H 112.363 1.83979 -2.34427 0
M  V30 1146 H 109.9 0.898876 -1.16442 0
M  V30 1147 H 111.858 4.01137 -1.1465 0
M  V30 1148 H 110.488 3.21076 -0.333153 0
M  V30 1149 H 109.54 2.68447 -2.69519 0
M  V30 1150 H 110.852 3.67205 -3.37582 0
M  V30 1151 H 110.006 5.67725 -2.13947 0
M  V30 1152 H 108.745 4.68519 -1.35431 0
M  V30 1153 H 107.75 4.1573 -3.5979 0
M  V30 1154 H 108.975 5.18357 -4.38729 0
M  V30 1155 H 106.921 6.12459 -2.35011 0
M  V30 1156 H 106.838 6.37539 -4.063 0
M  V30 1157 H 108.106 7.1321 -3.14566 0
M  V30 1158 N 112.336 1.25143 0.95797 0
M  V30 1159 C 113.299 1.05321 2.03569 0
M  V30 1160 C 114.299 0.007152 1.60798 0
M  V30 1161 O 115.489 0.24903 1.72411 0
M  V30 1162 C 112.621 0.598394 3.35607 0
M  V30 1163 H 113.814 2.00986 2.22586 0
M  V30 1164 H 111.367 1.07502 1.13459 0
M  V30 1165 H 112.102 -0.361014 3.22284 0
M  V30 1166 H 111.887 1.35351 3.67998 0
M  V30 1167 H 113.377 0.48104 4.1482 0
M  V30 1168 N 113.814 -1.1601 1.06675 0
M  V30 1169 C 115.062 -1.86264 0.784229 0
M  V30 1170 C 115.383 -1.82328 -0.691488 0
M  V30 1171 O 114.653 -1.25947 -1.50047 0
M  V30 1172 H 113.233 -0.689621 0.28711 0
M  V30 1173 H 115.895 -1.40664 1.34906 0
M  V30 1174 H 114.991 -2.91595 1.11259 0
M  V30 1175 N 115.292 -0.849877 -1.32721 0
M  V30 1176 C 116.255 -0.296122 -2.27279 0
M  V30 1177 C 117.255 0.541458 -1.5141 0
M  V30 1178 O 118.445 0.353658 -1.70572 0
M  V30 1179 C 115.577 0.581579 -3.35902 0
M  V30 1180 H 116.77 -1.13064 -2.77771 0
M  V30 1181 H 114.323 -0.62383 -1.43311 0
M  V30 1182 H 115.058 1.43809 -2.9067 0
M  V30 1183 H 114.843 -0.0178814 -3.92096 0
M  V30 1184 H 116.333 0.961951 -4.0637 0
M  V30 1185 N 116.77 1.45427 -0.607355 0
M  V30 1186 C 117.703 2.27635 0.160482 0
M  V30 1187 C 118.681 1.37122 0.873857 0
M  V30 1188 O 119.865 1.66551 0.882775 0
M  V30 1189 C 116.992 3.15486 1.23231 0
M  V30 1190 C 116.038 4.21939 0.622097 0
M  V30 1191 S 116.871 5.32459 -0.569852 0
M  V30 1192 C 118.027 6.23879 0.502577 0
M  V30 1193 H 118.26 2.9241 -0.536983 0
M  V30 1194 H 115.793 1.49265 -0.394868 0
M  V30 1195 H 117.751 3.66659 1.84585 0
M  V30 1196 H 116.412 2.49977 1.90185 0
M  V30 1197 H 115.605 4.8333 1.42856 0
M  V30 1198 H 115.207 3.73906 0.0837063 0
M  V30 1199 H 117.499 6.63261 1.38171 0
M  V30 1200 H 118.442 7.0806 -0.0751759 0
M  V30 1201 H 118.85 5.58545 0.8178 0
M  V30 1202 N 118.248 0.346503 1.53744 0
M  V30 1203 C 119.18 -0.543316 2.22667 0
M  V30 1204 C 120.193 -1.06159 1.23427 0
M  V30 1205 O 121.382 -0.971235 1.49764 0
M  V30 1206 C 118.482 -1.76076 2.89569 0
M  V30 1207 C 117.655 -1.37727 4.15151 0
M  V30 1208 C 116.714 -2.45471 4.65436 0
M  V30 1209 O 115.74 -2.08655 5.29577 0
M  V30 1210 N 116.942 -3.7677 4.41616 0
M  V30 1211 H 119.707 0.0469703 2.99663 0
M  V30 1212 H 117.268 0.170766 1.60997 0
M  V30 1213 H 119.26 -2.47593 3.20125 0
M  V30 1214 H 117.83 -2.25835 2.16142 0
M  V30 1215 H 117.05 -0.492746 3.91108 0
M  V30 1216 H 118.338 -1.09708 4.96832 0
M  V30 1217 H 117.736 -4.09467 3.90325 0
M  V30 1218 H 116.293 -4.44448 4.7677 0
M  V30 1219 N 119.726 -1.57421 0.075193 0
M  V30 1220 C 120.954 -1.97946 -0.602076 0
M  V30 1221 C 121.369 -0.953674 -1.62943 0
M  V30 1222 O 120.726 0.0592551 -1.82404 0
M  V30 1223 C 120.777 -3.38546 -1.26762 0
M  V30 1224 O 120.498 -4.37195 -0.281376 0
M  V30 1225 C 121.999 -3.93966 -2.03239 0
M  V30 1226 H 119.219 -0.650918 -0.162931 0
M  V30 1227 H 121.763 -2.03959 0.148601 0
M  V30 1228 H 119.918 -3.33609 -1.96936 0
M  V30 1229 H 120.332 -5.18975 -0.759267 0
M  V30 1230 H 121.806 -4.94555 -2.45193 0
M  V30 1231 H 122.283 -3.30693 -2.8903 0
M  V30 1232 H 122.889 -4.02315 -1.37924 0
M  V30 1233 N 121.204 0.198386 -1.56346 0
M  V30 1234 C 122.45 0.920648 -1.80698 0
M  V30 1235 C 122.783 1.83045 -0.648697 0
M  V30 1236 O 122.058 1.91308 0.350925 0
M  V30 1237 C 122.341 1.73971 -3.15287 0
M  V30 1238 C 122.194 0.85485 -4.41602 0
M  V30 1239 C 123.513 2.71296 -3.46535 0
M  V30 1240 H 120.632 0.333261 -0.657348 0
M  V30 1241 H 123.274 0.188198 -1.89066 0
M  V30 1242 H 121.424 2.36416 -3.08285 0
M  V30 1243 H 123.096 0.245362 -4.60647 0
M  V30 1244 H 121.339 0.161398 -4.335 0
M  V30 1245 H 122.01 1.46286 -5.32264 0
M  V30 1246 H 124.486 2.18983 -3.53816 0
M  V30 1247 H 123.362 3.2569 -4.41834 0
M  V30 1248 H 123.623 3.5018 -2.69864 0
M  V30 1249 N 122.682 1.50554 0.465978 0
M  V30 1250 C 123.629 1.6979 1.56333 0
M  V30 1251 C 124.599 0.539239 1.57103 0
M  V30 1252 O 125.784 0.770401 1.74555 0
M  V30 1253 C 122.924 1.80273 2.94271 0
M  V30 1254 C 122.037 3.07674 3.0325 0
M  V30 1255 C 121.172 3.08922 4.32135 0
M  V30 1256 C 120.211 4.30755 4.34875 0
M  V30 1257 N 119.348 4.29714 5.55239 0
M  V30 1258 H 124.188 2.63472 1.39235 0
M  V30 1259 H 121.725 1.30602 0.676873 0
M  V30 1260 H 123.683 1.84332 3.74269 0
M  V30 1261 H 122.313 0.900258 3.09992 0
M  V30 1262 H 121.365 3.13062 2.16094 0
M  V30 1263 H 122.677 3.97642 3.01135 0
M  V30 1264 H 121.831 3.11738 5.20485 0
M  V30 1265 H 120.57 2.16792 4.36866 0
M  V30 1266 H 119.575 4.28146 3.44922 0
M  V30 1267 H 120.8 5.24117 4.31831 0
M  V30 1268 H 118.746 3.4044 5.60746 0
M  V30 1269 H 118.663 5.13456 5.54886 0
M  V30 1270 H 119.931 4.36683 6.457 0
M  V30 1271 N 124.16 -0.719506 1.40217 0
M  V30 1272 C 125.09 -1.8465 1.42922 0
M  V30 1273 C 126.071 -1.67599 0.29062 0
M  V30 1274 O 127.256 -1.87688 0.498677 0
M  V30 1275 C 124.386 -3.22565 1.28722 0
M  V30 1276 C 123.34 -3.54281 2.40144 0
M  V30 1277 C 122.666 -4.91298 2.11023 0
M  V30 1278 C 123.966 -3.55676 3.82481 0
M  V30 1279 H 125.66 -1.82644 2.37237 0
M  V30 1280 H 123.206 -0.877305 1.1419 0
M  V30 1281 H 125.159 -4.01095 1.29232 0
M  V30 1282 H 123.883 -3.25137 0.308811 0
M  V30 1283 H 122.542 -2.78088 2.38877 0
M  V30 1284 H 122.19 -4.90468 1.11582 0
M  V30 1285 H 121.89 -5.13485 2.8567 0
M  V30 1286 H 123.414 -5.72166 2.13209 0
M  V30 1287 H 124.828 -4.24254 3.85592 0
M  V30 1288 H 123.225 -3.89388 4.56614 0
M  V30 1289 H 124.295 -2.55144 4.12346 0
M  V30 1290 N 125.638 -1.25649 -0.95132 0
M  V30 1291 C 126.601 -1.06399 -2.03007 0
M  V30 1292 C 127.601 -0.0156794 -1.60792 0
M  V30 1293 O 128.791 -0.25817 -1.72276 0
M  V30 1294 C 125.923 -0.616184 -3.35285 0
M  V30 1295 H 127.116 -2.02164 -2.21517 0
M  V30 1296 H 124.669 -1.08103 -1.12887 0
M  V30 1297 H 125.404 0.343917 -3.22471 0
M  V30 1298 H 125.189 -1.37301 -3.67275 0
M  V30 1299 H 126.679 -0.503032 -4.14559 0
M  V30 1300 N 127.117 1.15442 -1.07289 0
M  V30 1301 C 128.049 2.19773 -0.650585 0
M  V30 1302 C 129.062 1.60076 0.296572 0
M  V30 1303 O 130.251 1.78293 0.0859905 0
M  V30 1304 C 127.351 3.38838 0.0650398 0
M  V30 1305 C 126.524 4.2808 -0.898141 0
M  V30 1306 C 125.583 5.2574 -0.219926 0
M  V30 1307 O 124.609 5.62654 -0.860773 0
M  V30 1308 N 125.811 5.71205 1.03466 0
M  V30 1309 H 128.576 2.56622 -1.54808 0
M  V30 1310 H 126.137 1.30551 -0.957494 0
M  V30 1311 H 128.129 4.01222 0.529415 0
M  V30 1312 H 126.699 3.00409 0.864466 0
M  V30 1313 H 125.919 3.62804 -1.54165 0
M  V30 1314 H 127.207 4.84577 -1.5512 0
M  V30 1315 H 126.605 5.43325 1.57526 0
M  V30 1316 H 125.162 6.35633 1.44272 0
M  V30 1317 N 128.595 0.856903 1.32268 0
M  V30 1318 C 129.505 0.306131 2.32594 0
M  V30 1319 C 130.521 -0.577209 1.64147 0
M  V30 1320 O 131.697 -0.477043 1.95669 0
M  V30 1321 C 128.762 -0.494561 3.43154 0
M  V30 1322 C 127.823 0.415186 4.27288 0
M  V30 1323 C 127.056 -0.347387 5.32568 0
M  V30 1324 O 127.279 -1.57708 5.48165 0
M  V30 1325 O 126.213 0.287982 6.01211 0
M  V30 1326 H 130.039 1.13737 2.81598 0
M  V30 1327 H 127.624 0.619902 1.35932 0
M  V30 1328 H 129.506 -0.948944 4.10576 0
M  V30 1329 H 128.181 -1.30257 2.96336 0
M  V30 1330 H 127.088 0.917793 3.62667 0
M  V30 1331 H 128.421 1.18844 4.77637 0
M  V30 1332 N 130.073 -1.45103 0.615059 0
M  V30 1333 C 131.32 -2.02183 0.113179 0
M  V30 1334 C 131.648 -1.48249 -1.25906 0
M  V30 1335 O 130.903 -0.650265 -1.84581 0
M  V30 1336 C 131.202 -3.57386 0.0318797 0
M  V30 1337 C 130.868 -4.30505 1.34077 0
M  V30 1338 C 129.53 -4.50197 1.69929 0
M  V30 1339 C 131.882 -4.72238 2.20546 0
M  V30 1340 C 129.21 -5.08881 2.91988 0
M  V30 1341 C 131.562 -5.32272 3.41861 0
M  V30 1342 C 130.226 -5.50187 3.77956 0
M  V30 1343 H 129.496 -0.739842 0.0414151 0
M  V30 1344 H 132.143 -1.74073 0.798168 0
M  V30 1345 H 130.448 -3.84817 -0.736409 0
M  V30 1346 H 132.145 -3.99264 -0.372712 0
M  V30 1347 H 128.735 -4.15496 1.05173 0
M  V30 1348 H 132.919 -4.56751 1.94146 0
M  V30 1349 H 128.175 -5.20939 3.2005 0
M  V30 1350 H 132.349 -5.63563 4.09109 0
M  V30 1351 H 129.976 -5.95427 4.72622 0
M  V30 1352 N 131.551 -0.354651 -1.53558 0
M  V30 1353 C 132.962 0.126902 -1.86268 0
M  V30 1354 C 133.313 1.49075 -1.27558 0
M  V30 1355 O 132.438 2.08105 -0.5934 0
M  V30 1356 C 133.033 0.237046 -3.3797 0
M  V30 1357 C 131.592 0.662842 -3.70518 0
M  V30 1358 C 130.739 -0.196652 -2.76602 0
M  V30 1359 H 133.69 -0.573849 -1.47962 0
M  V30 1360 H 133.711 1.06259 -3.65362 0
M  V30 1361 H 133.223 -0.755725 -3.80671 0
M  V30 1362 H 131.324 1.66424 -3.33367 0
M  V30 1363 H 131.437 0.445034 -4.77029 0
M  V30 1364 H 129.801 0.332763 -2.52517 0
M  V30 1365 H 130.584 -1.18676 -3.22135 0
M  V30 1366 N 133.029 1.57378 -0.0835403 0
M  V30 1367 C 133.939 2.16897 0.894021 0
M  V30 1368 C 134.955 1.13528 1.31861 0
M  V30 1369 O 136.131 1.45848 1.3889 0
M  V30 1370 C 133.196 2.72831 2.13925 0
M  V30 1371 C 132.257 3.91115 1.76997 0
M  V30 1372 C 131.49 4.44371 2.95584 0
M  V30 1373 O 131.713 3.96596 4.09961 0
M  V30 1374 O 130.647 5.35549 2.74719 0
M  V30 1375 H 134.473 3.00814 0.417679 0
M  V30 1376 H 132.058 1.48741 0.140181 0
M  V30 1377 H 133.94 3.0863 2.86924 0
M  V30 1378 H 132.615 1.91967 2.60635 0
M  V30 1379 H 131.522 3.60148 1.01214 0
M  V30 1380 H 132.855 4.73307 1.3506 0
M  V30 1381 N 134.507 -0.190092 1.56449 0
M  V30 1382 C 135.437 -1.23816 1.97969 0
M  V30 1383 C 136.418 -1.47201 0.852395 0
M  V30 1384 O 137.603 -1.58854 1.1171 0
M  V30 1385 C 134.733 -2.5813 2.3235 0
M  V30 1386 C 133.687 -2.49348 3.47864 0
M  V30 1387 C 133.013 -3.8798 3.67934 0
M  V30 1388 C 134.313 -2.01424 4.81898 0
M  V30 1389 H 136.007 -0.89311 2.85769 0
M  V30 1390 H 133.553 -0.428177 1.37487 0
M  V30 1391 H 135.506 -3.31637 2.59991 0
M  V30 1392 H 134.23 -2.94386 1.41438 0
M  V30 1393 H 132.889 -1.78297 3.20321 0
M  V30 1394 H 132.537 -4.21597 2.74344 0
M  V30 1395 H 132.237 -3.82978 4.45648 0
M  V30 1396 H 133.761 -4.63101 3.97957 0
M  V30 1397 H 135.175 -2.64693 5.08538 0
M  V30 1398 H 133.572 -2.07413 5.63116 0
M  V30 1399 H 134.642 -0.967677 4.75146 0
M  V30 1400 N 135.985 -1.50799 -0.457987 0
M  V30 1401 C 136.915 -1.73553 -1.5621 0
M  V30 1402 C 137.896 -0.584774 -1.59732 0
M  V30 1403 O 139.081 -0.825314 -1.7579 0
M  V30 1404 C 136.211 -1.84169 -2.94447 0
M  V30 1405 C 135.165 -2.99461 -3.0579 0
M  V30 1406 C 134.491 -2.95235 -4.45803 0
M  V30 1407 C 135.791 -4.39766 -2.81786 0
M  V30 1408 H 137.485 -2.66 -1.37421 0
M  V30 1409 H 135.031 -1.28002 -0.659662 0
M  V30 1410 H 136.984 -1.98672 -3.71628 0
M  V30 1411 H 135.708 -0.883545 -3.14422 0
M  V30 1412 H 134.367 -2.8463 -2.31044 0
M  V30 1413 H 134.015 -1.97239 -4.62715 0
M  V30 1414 H 133.715 -3.72642 -4.54326 0
M  V30 1415 H 135.239 -3.11803 -5.24987 0
M  V30 1416 H 136.653 -4.55054 -3.4871 0
M  V30 1417 H 135.05 -5.18722 -3.0174 0
M  V30 1418 H 136.12 -4.51229 -1.7754 0
M  V30 1419 N 137.463 0.71206 -1.40597 0
M  V30 1420 C 138.426 1.80785 -1.40888 0
M  V30 1421 C 139.426 1.57937 -0.302103 0
M  V30 1422 O 140.616 1.64913 -0.561182 0
M  V30 1423 C 137.748 3.18927 -1.20409 0
M  V30 1424 H 138.941 1.81924 -2.38419 0
M  V30 1425 H 136.494 0.91805 -1.26497 0
M  V30 1426 H 137.229 3.23436 -0.236522 0
M  V30 1427 H 137.014 3.36911 -2.00582 0
M  V30 1428 H 138.504 3.98949 -1.23408 0
M  V30 1429 N 138.941 1.26152 0.944643 0
M  V30 1430 C 140.19 1.10883 1.68487 0
M  V30 1431 C 140.503 -0.348153 1.92477 0
M  V30 1432 O 141.709 -0.621459 2.64292 0
M  V30 1433 C 140.165 1.93624 3.03377 0
M  V30 1434 C 139.773 3.43875 2.87148 0
M  V30 1435 C 141.517 1.86954 3.81115 0
M  V30 1436 C 139.424 4.18875 4.1749 0
M  V30 1437 H 138.354 0.41135 0.631907 0
M  V30 1438 H 141.005 1.50433 1.05082 0
M  V30 1439 H 139.387 1.46904 3.67743 0
M  V30 1440 H 140.561 3.98338 2.31653 0
M  V30 1441 H 138.876 3.51744 2.22856 0
M  V30 1442 H 141.473 2.40275 4.77673 0
M  V30 1443 H 141.816 0.839518 4.07747 0
M  V30 1444 H 142.349 2.31477 3.23517 0
M  V30 1445 H 139.088 5.22332 3.96043 0
M  V30 1446 H 138.608 3.69193 4.72712 0
M  V30 1447 H 140.287 4.27134 4.85968 0
M  V30 1448 N 140.419 -1.14872 1.07899 0
M  V30 1449 C 141.329 -2.2341 0.715915 0
M  V30 1450 C 142.345 -1.71808 -0.275306 0
M  V30 1451 O 143.521 -2.01039 -0.120545 0
M  V30 1452 C 140.586 -3.46474 0.125168 0
M  V30 1453 C 139.647 -4.13039 1.17034 0
M  V30 1454 C 138.88 -5.30229 0.607688 0
M  V30 1455 O 139.103 -5.675 -0.574497 0
M  V30 1456 O 138.037 -5.86444 1.35526 0
M  V30 1457 H 141.863 -2.56808 1.62121 0
M  V30 1458 H 139.448 -1.22702 0.852322 0
M  V30 1459 H 141.33 -4.20917 -0.201729 0
M  V30 1460 H 140.005 -3.14811 -0.753364 0
M  V30 1461 H 138.912 -3.40493 1.54968 0
M  V30 1462 H 140.245 -4.48796 2.02097 0
M  V30 1463 N 141.898 -0.863906 -1.31812 0
M  V30 1464 C 143.175 -0.39275 -1.91616 0
M  V30 1465 C 143.555 1.12461 -1.7865 0
M  V30 1466 O 142.903 1.95045 -1.19037 0
M  V30 1467 C 143.113 -0.867385 -3.38049 0
M  V30 1468 C 144.461 -0.889966 -4.15168 0
M  V30 1469 O 145.485 -0.812635 -3.46806 0
M  V30 1470 O 144.344 -1.00079 -5.37258 0
M  V30 1471 H 141.438 -0.116358 -0.818773 0
M  V30 1472 H 143.984 -0.951418 -1.40521 0
M  V30 1473 H 142.756 -1.91081 -3.41473 0
M  V30 1474 H 142.379 -0.286687 -3.96565 0
M  V30 1475 N 143.376 1.44774 -0.622745 0
M  V30 1476 C 144.604 2.06487 -0.130722 0
M  V30 1477 C 145.019 1.46476 1.19123 0
M  V30 1478 O 144.376 0.584502 1.72887 0
M  V30 1479 C 144.427 3.615 -0.000807207 0
M  V30 1480 O 144.148 4.19274 -1.27048 0
M  V30 1481 C 145.649 4.40229 0.520898 0
M  V30 1482 H 142.869 0.666704 -0.0758106 0
M  V30 1483 H 145.413 1.85779 -0.854774 0
M  V30 1484 H 143.568 3.81498 0.673643 0
M  V30 1485 H 143.982 5.12622 -1.1099 0
M  V30 1486 H 145.456 5.49144 0.560838 0
M  V30 1487 H 145.933 4.1108 1.54627 0
M  V30 1488 H 146.539 4.25131 -0.120018 0
M  V30 1489 N 144.854 0.36279 1.53368 0
M  V30 1490 C 146.082 -0.228613 2.05633 0
M  V30 1491 C 146.497 -1.42676 1.23649 0
M  V30 1492 O 145.854 -1.80394 0.27647 0
M  V30 1493 C 145.905 -0.624845 3.56059 0
M  V30 1494 O 145.626 0.525675 4.34935 0
M  V30 1495 C 147.127 -1.27493 4.24571 0
M  V30 1496 H 144.347 -0.0407183 0.669763 0
M  V30 1497 H 146.891 0.520352 1.97769 0
M  V30 1498 H 145.046 -1.32373 3.64083 0
M  V30 1499 H 145.46 0.205969 5.24095 0
M  V30 1500 H 146.934 -1.50277 5.31151 0
M  V30 1501 H 147.411 -2.23439 3.78116 0
M  V30 1502 H 148.017 -0.617558 4.20792 0
M  V30 1503 N 146.332 -1.57332 0.0918853 0
M  V30 1504 C 147.557 -1.98995 -0.584442 0
M  V30 1505 C 147.982 -0.970528 -1.61128 0
M  V30 1506 O 147.34 0.0613904 -1.81196 0
M  V30 1507 C 147.388 -3.39636 -1.21161 0
M  V30 1508 O 146.492 -3.40447 -2.32744 0
M  V30 1509 H 145.833 -0.647165 -0.148572 0
M  V30 1510 H 148.363 -2.03873 0.172347 0
M  V30 1511 H 148.373 -3.7726 -1.55367 0
M  V30 1512 H 147.048 -4.13356 -0.459313 0
M  V30 1513 H 145.625 -3.14614 -2.0018 0
M  V30 1514 N 147.81 0.181792 -1.56548 0
M  V30 1515 C 148.74 1.22765 -1.98623 0
M  V30 1516 C 149.721 1.46747 -0.860189 0
M  V30 1517 O 150.906 1.58259 -1.12551 0
M  V30 1518 C 148.036 2.56894 -2.33715 0
M  V30 1519 C 146.99 2.475 -3.49182 0
M  V30 1520 C 146.316 3.86023 -3.69986 0
M  V30 1521 C 147.616 1.98866 -4.82959 0
M  V30 1522 H 149.31 0.877942 -2.86239 0
M  V30 1523 H 146.856 0.42088 -1.37712 0
M  V30 1524 H 148.809 3.30253 -2.61746 0
M  V30 1525 H 147.533 2.93632 -1.42997 0
M  V30 1526 H 146.192 1.76596 -3.21262 0
M  V30 1527 H 145.84 4.20136 -2.76576 0
M  V30 1528 H 145.54 3.80609 -4.47672 0
M  V30 1529 H 147.064 4.60984 -4.00407 0
M  V30 1530 H 148.478 2.61992 -5.09934 0
M  V30 1531 H 146.875 2.04424 -5.64208 0
M  V30 1532 H 147.945 0.942465 -4.75653 0
M  V30 1533 N 149.288 1.51039 0.449983 0
M  V30 1534 C 150.513 1.6715 1.22783 0
M  V30 1535 C 150.938 0.363081 1.84563 0
M  V30 1536 O 150.296 -0.675433 1.68249 0
M  V30 1537 C 150.344 2.77985 2.29689 0
M  V30 1538 O 149.448 2.40707 3.34864 0
M  V30 1539 H 148.789 0.557746 0.360299 0
M  V30 1540 H 151.319 1.97535 0.533005 0
M  V30 1541 H 151.329 3.01693 2.74673 0
M  V30 1542 H 150.004 3.72935 1.84098 0
M  V30 1543 H 148.581 2.27523 2.95445 0
M  V30 1544 N 150.766 -0.704594 1.40972 0
M  V30 1545 C 151.996 -1.49138 1.42974 0
M  V30 1546 C 152.404 -1.89175 0.0308406 0
M  V30 1547 O 151.747 -1.56734 -0.958138 0
M  V30 1548 C 151.809 -2.79016 2.26694 0
M  V30 1549 C 151.473 -2.61236 3.74973 0
M  V30 1550 C 152.47 -2.27773 4.67349 0
M  V30 1551 C 150.155 -2.77158 4.18914 0
M  V30 1552 C 152.149 -2.10457 6.01653 0
M  V30 1553 C 149.836 -2.59459 5.53285 0
M  V30 1554 C 150.834 -2.26158 6.4447 0
M  V30 1555 O 150.522 -2.08605 7.76363 0
M  V30 1556 H 150.254 -0.466443 0.489292 0
M  V30 1557 H 152.808 -0.8758 1.85793 0
M  V30 1558 H 151.038 -3.42947 1.78673 0
M  V30 1559 H 152.727 -3.40782 2.20504 0
M  V30 1560 H 153.493 -2.15095 4.34694 0
M  V30 1561 H 149.372 -3.02064 3.48251 0
M  V30 1562 H 152.916 -1.84387 6.72791 0
M  V30 1563 H 148.813 -2.71725 5.85522 0
M  V30 1564 H 149.581 -2.23439 7.87412 0
M  V30 1565 N 152.244 -1.26651 -0.937939 0
M  V30 1566 C 153.66 -1.03834 -1.21205 0
M  V30 1567 C 153.86 0.234502 -2.00131 0
M  V30 1568 O 152.916 0.942767 -2.3424 0
M  V30 1569 C 154.229 -2.27167 -1.97017 0
M  V30 1570 C 155.777 -2.32101 -2.09996 0
M  V30 1571 C 156.252 -3.55136 -2.8921 0
M  V30 1572 N 157.743 -3.55632 -2.96783 0
M  V30 1573 C 158.478 -4.475 -3.58512 0
M  V30 1574 N 157.974 -5.4966 -4.21717 0
M  V30 1575 N 159.767 -4.35145 -3.55816 0
M  V30 1576 H 151.918 -2.08398 -0.410391 0
M  V30 1577 H 154.181 -0.916031 -0.244114 0
M  V30 1578 H 153.887 -3.19765 -1.46434 0
M  V30 1579 H 153.761 -2.31672 -2.97671 0
M  V30 1580 H 156.148 -1.40015 -2.59769 0
M  V30 1581 H 156.229 -2.31605 -1.08594 0
M  V30 1582 H 155.873 -4.47553 -2.40123 0
M  V30 1583 H 155.803 -3.5288 -3.90875 0
M  V30 1584 H 158.294 -2.81743 -2.51852 0
M  V30 1585 H 158.607 -6.15943 -4.66727 0
M  V30 1586 H 156.952 -5.53514 -4.20294 0
M  V30 1587 H 160.143 -3.5455 -3.05634 0
M  V30 1588 H 160.316 -5.06934 -4.03636 0
M  V30 1589 N 153.722 1.14298 -1.08507 0
M  V30 1590 C 154.672 2.17449 -0.685569 0
M  V30 1591 C 155.656 1.58167 0.295315 0
M  V30 1592 O 156.848 1.76675 0.107172 0
M  V30 1593 C 153.977 3.43161 -0.0975318 0
M  V30 1594 C 153.063 4.09471 -1.10426 0
M  V30 1595 N 153.454 4.51089 -2.28806 0
M  V30 1596 C 151.752 4.35976 -0.940258 0
M  V30 1597 C 152.453 5.02654 -2.9277 0
M  V30 1598 N 151.429 4.96927 -2.20374 0
M  V30 1599 H 155.231 2.47369 -1.587 0
M  V30 1600 H 152.745 1.30992 -0.959936 0
M  V30 1601 H 154.742 4.16388 0.20664 0
M  V30 1602 H 153.402 3.14719 0.798872 0
M  V30 1603 H 154.413 4.44097 -2.66455 0
M  V30 1604 H 151.09 4.17386 -0.0977441 0
M  V30 1605 H 152.48 5.44723 -3.93352 0
M  V30 1606 N 155.201 0.870884 1.31352 0
M  V30 1607 C 156.133 0.28455 2.27427 0
M  V30 1608 C 157.146 -0.552927 1.53123 0
M  V30 1609 O 158.335 -0.374771 1.74521 0
M  V30 1610 C 155.435 -0.615164 3.3327 0
M  V30 1611 C 154.608 0.190079 4.36987 0
M  V30 1612 C 153.667 -0.637917 5.22319 0
M  V30 1613 O 152.693 -0.065626 5.69162 0
M  V30 1614 N 153.895 -1.94973 5.46778 0
M  V30 1615 H 156.66 1.11017 2.7838 0
M  V30 1616 H 154.221 0.732458 1.44384 0
M  V30 1617 H 156.213 -1.1748 3.87273 0
M  V30 1618 H 154.783 -1.34146 2.82354 0
M  V30 1619 H 154.003 0.931165 3.83044 0
M  V30 1620 H 155.291 0.742579 5.03352 0
M  V30 1621 H 154.689 -2.4378 5.10478 0
M  V30 1622 H 153.246 -2.45713 6.03712 0
M  V30 1623 N 156.679 -1.44442 0.630414 0
M  V30 1624 C 157.925 -2.02351 0.134816 0
M  V30 1625 C 158.258 -1.4947 -1.23986 0
M  V30 1626 O 157.533 -0.678475 -1.82283 0
M  V30 1627 C 157.816 -3.59898 0.120707 0
M  V30 1628 C 157.669 -4.23063 1.52767 0
M  V30 1629 C 158.988 -4.36585 -0.555127 0
M  V30 1630 H 156.107 -0.73527 0.0504646 0
M  V30 1631 H 158.749 -1.72022 0.806751 0
M  V30 1632 H 156.899 -3.85868 -0.451477 0
M  V30 1633 H 158.571 -4.08202 2.14869 0
M  V30 1634 H 156.814 -3.80586 2.08175 0
M  V30 1635 H 157.485 -5.32071 1.46984 0
M  V30 1636 H 159.961 -4.16044 -0.0685429 0
M  V30 1637 H 158.837 -5.46294 -0.534185 0
M  V30 1638 H 159.098 -4.11138 -1.62535 0
M  V30 1639 N 158.157 -0.370918 -1.53173 0
M  V30 1640 C 159.12 0.460778 -2.24521 0
M  V30 1641 C 160.12 1.00536 -1.25496 0
M  V30 1642 O 161.31 0.890266 -1.49733 0
M  V30 1643 C 158.442 1.64457 -2.98608 0
M  V30 1644 H 159.635 -0.163613 -2.99453 0
M  V30 1645 H 157.188 -0.122699 -1.55818 0
M  V30 1646 H 157.923 2.30691 -2.2793 0
M  V30 1647 H 157.708 1.26099 -3.7127 0
M  V30 1648 H 159.198 2.23384 -3.5283 0
M  V30 1649 N 159.635 1.57281 -0.100228 0
M  V30 1650 C 160.545 2.17833 0.870965 0
M  V30 1651 C 161.561 1.14921 1.30649 0
M  V30 1652 O 162.737 1.47313 1.37335 0
M  V30 1653 C 159.802 2.75085 2.1102 0
M  V30 1654 C 158.863 3.9297 1.72838 0
M  V30 1655 C 158.096 4.47482 2.90854 0
M  V30 1656 O 158.319 4.00922 4.05731 0
M  V30 1657 O 157.253 5.38433 2.69023 0
M  V30 1658 H 161.079 3.0124 0.38575 0
M  V30 1659 H 158.664 1.48881 0.124397 0
M  V30 1660 H 160.546 3.11656 2.83634 0
M  V30 1661 H 159.221 1.94721 2.58584 0
M  V30 1662 H 158.128 3.61201 0.973883 0
M  V30 1663 H 159.461 4.74713 1.30033 0
M  V30 1664 N 161.113 -0.173488 1.56642 0
M  V30 1665 C 162.023 -1.23482 1.99473 0
M  V30 1666 C 163.039 -1.48567 0.905752 0
M  V30 1667 O 164.215 -1.60758 1.21321 0
M  V30 1668 C 161.28 -2.55444 2.34413 0
M  V30 1669 C 160.341 -2.38241 3.57127 0
M  V30 1670 C 159.574 -3.63909 3.90392 0
M  V30 1671 O 159.797 -4.68996 3.24653 0
M  V30 1672 O 158.731 -3.58149 4.83749 0
M  V30 1673 H 162.557 -0.901279 2.90018 0
M  V30 1674 H 160.142 -0.380185 1.44482 0
M  V30 1675 H 162.024 -3.33292 2.57865 0
M  V30 1676 H 160.699 -2.88382 1.4703 0
M  V30 1677 H 159.606 -1.58431 3.38896 0
M  V30 1678 H 160.939 -2.10228 4.45045 0
M  V30 1679 N 162.591 -1.51276 -0.441967 0
M  V30 1680 C 163.521 -1.752 -1.54361 0
M  V30 1681 C 164.502 -0.601682 -1.59103 0
M  V30 1682 O 165.687 -0.843913 -1.74905 0
M  V30 1683 C 162.817 -1.87282 -2.92477 0
M  V30 1684 C 161.771 -3.02687 -3.02596 0
M  V30 1685 C 161.097 -2.99947 -4.42647 0
M  V30 1686 C 162.397 -4.4273 -2.77106 0
M  V30 1687 H 164.091 -2.67442 -1.34592 0
M  V30 1688 H 161.637 -1.28694 -0.646048 0
M  V30 1689 H 163.59 -2.02602 -3.695 0
M  V30 1690 H 162.314 -0.916844 -3.13467 0
M  V30 1691 H 160.973 -2.87065 -2.28012 0
M  V30 1692 H 160.621 -2.02136 -4.60597 0
M  V30 1693 H 160.321 -3.77439 -4.50348 0
M  V30 1694 H 161.845 -3.17354 -5.2165 0
M  V30 1695 H 163.259 -4.58727 -3.43864 0
M  V30 1696 H 161.656 -5.21893 -2.96222 0
M  V30 1697 H 162.726 -4.53087 -1.72744 0
M  V30 1698 N 164.069 0.697108 -1.41344 0
M  V30 1699 C 165.317 1.45426 -1.40341 0
M  V30 1700 C 165.638 1.94996 -0.0128787 0
M  V30 1701 O 164.908 1.71599 0.945027 0
M  V30 1702 H 163.488 0.539594 -0.516573 0
M  V30 1703 H 166.15 0.825201 -1.76569 0
M  V30 1704 H 165.246 2.31817 -2.08967 0
M  V30 1705 N 165.547 1.27147 0.931209 0
M  V30 1706 C 166.494 1.09568 2.03134 0
M  V30 1707 C 167.464 -0.00222433 1.661 0
M  V30 1708 O 168.649 0.159439 1.90133 0
M  V30 1709 C 165.789 0.745231 3.36957 0
M  V30 1710 C 164.902 1.92041 3.86968 0
M  V30 1711 C 164.037 1.51216 5.09222 0
M  V30 1712 C 163.076 2.65504 5.5152 0
M  V30 1713 N 162.213 2.25291 6.64972 0
M  V30 1714 H 167.053 2.03708 2.17502 0
M  V30 1715 H 164.59 1.01411 1.06556 0
M  V30 1716 H 166.548 0.522878 4.1391 0
M  V30 1717 H 165.178 -0.159202 3.22407 0
M  V30 1718 H 164.23 2.25541 3.06326 0
M  V30 1719 H 165.542 2.77787 4.1429 0
M  V30 1720 H 164.696 1.25084 5.93666 0
M  V30 1721 H 163.435 0.625749 4.83669 0
M  V30 1722 H 162.44 2.92354 4.65628 0
M  V30 1723 H 163.665 3.54761 5.7907 0
M  V30 1724 H 161.611 1.39098 6.41083 0
M  V30 1725 H 161.528 3.04577 6.91931 0
M  V30 1726 H 162.796 2.02398 7.52765 0
M  V30 1727 N 167.025 -1.13721 1.09112 0
M  V30 1728 C 167.955 -2.21148 0.749385 0
M  V30 1729 C 168.936 -1.6792 -0.271475 0
M  V30 1730 O 170.121 -1.93693 -0.140251 0
M  V30 1731 C 167.251 -3.46905 0.165659 0
M  V30 1732 C 166.205 -4.13203 1.11567 0
M  V30 1733 C 165.531 -5.33248 0.393809 0
M  V30 1734 C 166.831 -4.60912 2.45678 0
M  V30 1735 H 168.525 -2.4999 1.64758 0
M  V30 1736 H 166.071 -1.20156 0.793626 0
M  V30 1737 H 168.024 -4.21313 -0.085466 0
M  V30 1738 H 166.748 -3.17449 -0.767714 0
M  V30 1739 H 165.407 -3.40758 1.35202 0
M  V30 1740 H 165.055 -5.00054 -0.543599 0
M  V30 1741 H 164.755 -5.78552 1.02721 0
M  V30 1742 H 166.279 -6.10413 0.150908 0
M  V30 1743 H 167.693 -5.26759 2.26269 0
M  V30 1744 H 166.09 -5.16944 3.04776 0
M  V30 1745 H 167.16 -3.75603 3.06677 0
M  V30 1746 N 168.503 -0.877838 -1.30888 0
M  V30 1747 C 169.751 -0.491723 -1.96027 0
M  V30 1748 C 170.072 0.960827 -1.69685 0
M  V30 1749 O 169.342 1.67462 -1.01654 0
M  V30 1750 H 167.922 -0.17885 -0.725273 0
M  V30 1751 H 170.584 -1.11935 -1.59551 0
M  V30 1752 H 169.68 -0.656016 -3.05128 0
M  V30 1753 N 169.982 1.44106 -0.638065 0
M  V30 1754 C 171.207 2.0685 -0.150916 0
M  V30 1755 C 171.632 1.47417 1.16833 0
M  V30 1756 O 170.99 0.578264 1.71831 0
M  V30 1757 C 171.038 3.60555 -0.05708 0
M  V30 1758 O 170.142 4.00465 0.984972 0
M  V30 1759 H 169.483 0.658151 -0.0879399 0
M  V30 1760 H 172.013 1.84865 -0.876707 0
M  V30 1761 H 172.023 4.07789 0.131232 0
M  V30 1762 H 170.698 4.03193 -1.02021 0
M  V30 1763 H 169.275 3.64849 0.770672 0
M  V30 1764 N 171.46 0.379036 1.52974 0
M  V30 1765 C 172.709 -0.207612 2.00629 0
M  V30 1766 C 173.022 -1.48758 1.27006 0
M  V30 1767 O 174.228 -2.15365 1.65318 0
M  V30 1768 C 172.684 -0.42053 3.57435 0
M  V30 1769 C 172.292 0.845587 4.39948 0
M  V30 1770 C 174.036 -0.964102 4.13407 0
M  V30 1771 C 171.943 0.601513 5.88333 0
M  V30 1772 H 170.873 -0.0813591 0.749598 0
M  V30 1773 H 173.524 0.499853 1.76561 0
M  V30 1774 H 171.906 -1.18959 3.7771 0
M  V30 1775 H 173.08 1.61848 4.31442 0
M  V30 1776 H 171.395 1.31336 3.95145 0
M  V30 1777 H 173.992 -1.16225 5.21916 0
M  V30 1778 H 174.335 -1.93019 3.68849 0
M  V30 1779 H 174.868 -0.25487 3.96983 0
M  V30 1780 H 171.607 1.53831 6.37194 0
M  V30 1781 H 171.127 -0.132628 5.99653 0
M  V30 1782 H 172.806 0.232134 6.46583 0
M  V30 1783 N 172.938 -1.57226 0.108567 0
M  V30 1784 C 173.87 -2.11809 -0.875752 0
M  V30 1785 C 174.883 -1.05839 -1.23701 0
M  V30 1786 O 176.072 -1.33245 -1.18778 0
M  V30 1787 C 173.172 -2.59411 -2.18081 0
M  V30 1788 C 172.345 -3.89364 -1.99284 0
M  V30 1789 C 171.404 -4.22672 -3.13424 0
M  V30 1790 O 170.43 -4.91668 -2.86795 0
M  V30 1791 N 171.632 -3.79154 -4.3957 0
M  V30 1792 H 174.397 -2.9689 -0.409477 0
M  V30 1793 H 171.958 -1.61721 -0.076158 0
M  V30 1794 H 173.95 -2.7873 -2.93414 0
M  V30 1795 H 172.52 -1.79268 -2.5609 0
M  V30 1796 H 171.74 -3.79059 -1.08203 0
M  V30 1797 H 173.028 -4.74358 -1.84017 0
M  V30 1798 H 172.426 -3.23486 -4.64083 0
M  V30 1799 H 170.983 -4.03602 -5.11809 0
M  V30 1800 N 174.416 0.165178 -1.56732 0
M  V30 1801 C 175.693 0.908443 -1.73224 0
M  V30 1802 C 176.073 2.0013 -0.67165 0
M  V30 1803 O 175.421 2.26353 0.31253 0
M  V30 1804 C 175.631 1.46756 -3.16644 0
M  V30 1805 C 176.979 1.93809 -3.77787 0
M  V30 1806 O 178.003 1.56537 -3.1996 0
M  V30 1807 O 176.862 2.62486 -4.79336 0
M  V30 1808 H 173.956 0.428025 -0.707618 0
M  V30 1809 H 176.502 0.152526 -1.69013 0
M  V30 1810 H 175.274 0.68129 -3.85323 0
M  V30 1811 H 174.897 2.28749 -3.25207 0
M  V30 1812 N 175.894 1.51508 0.433938 0
M  V30 1813 C 176.841 1.73068 1.52696 0
M  V30 1814 C 177.811 0.572441 1.55924 0
M  V30 1815 O 178.996 0.807253 1.72882 0
M  V30 1816 C 176.136 1.86474 2.90381 0
M  V30 1817 C 175.249 3.14037 2.96656 0
M  V30 1818 C 174.384 3.18019 4.25485 0
M  V30 1819 C 173.423 4.39882 4.2564 0
M  V30 1820 N 172.56 4.41394 5.45999 0
M  V30 1821 H 177.4 2.66366 1.33615 0
M  V30 1822 H 174.937 1.32008 0.649018 0
M  V30 1823 H 176.895 1.92229 3.70275 0
M  V30 1824 H 175.525 0.965809 3.08013 0
M  V30 1825 H 174.577 3.17575 2.09404 0
M  V30 1826 H 175.889 4.0394 2.92633 0
M  V30 1827 H 175.043 3.22708 5.13755 0
M  V30 1828 H 173.782 2.2601 4.3217 0
M  V30 1829 H 172.787 4.35366 3.35763 0
M  V30 1830 H 174.012 5.33159 4.20617 0
M  V30 1831 H 171.958 3.52258 5.53399 0
M  V30 1832 H 171.875 5.25111 5.4387 0
M  V30 1833 H 173.143 4.50281 6.36292 0
M  V30 1834 N 177.372 -0.689602 1.41712 0
M  V30 1835 C 178.597 -1.48329 1.44959 0
M  V30 1836 C 179.022 -1.8801 0.0581283 0
M  V30 1837 O 178.38 -1.55026 -0.940035 0
M  V30 1838 C 178.428 -2.71835 2.36935 0
M  V30 1839 O 177.532 -3.69549 1.8305 0
M  V30 1840 H 176.873 -0.446199 0.491734 0
M  V30 1841 H 179.403 -0.847127 1.86239 0
M  V30 1842 H 179.413 -3.20076 2.53013 0
M  V30 1843 H 178.088 -2.42291 3.38035 0
M  V30 1844 H 176.665 -3.2851 1.76452 0
M  V30 1845 N 178.85 -1.27639 -0.924453 0
M  V30 1846 C 180.266 -1.05113 -1.20097 0
M  V30 1847 C 180.466 0.213262 -2.00368 0
M  V30 1848 O 179.522 0.91787 -2.35226 0
M  V30 1849 C 180.835 -2.29244 -1.94596 0
M  V30 1850 C 182.383 -2.34315 -2.07522 0
M  V30 1851 C 182.858 -3.58183 -2.85427 0
M  V30 1852 N 184.349 -3.5876 -2.92994 0
M  V30 1853 C 185.084 -4.51277 -3.53746 0
M  V30 1854 N 184.58 -5.54102 -4.15863 0
M  V30 1855 N 186.373 -4.38894 -3.51181 0
M  V30 1856 H 178.524 -2.08821 -0.388264 0
M  V30 1857 H 180.787 -0.918568 -0.234385 0
M  V30 1858 H 180.493 -3.21301 -1.43034 0
M  V30 1859 H 180.367 -2.34816 -2.95197 0
M  V30 1860 H 182.754 -1.42762 -2.58269 0
M  V30 1861 H 182.835 -2.32744 -1.06131 0
M  V30 1862 H 182.479 -4.50074 -2.35363 0
M  V30 1863 H 182.409 -3.57006 -3.8711 0
M  V30 1864 H 184.9 -2.84398 -2.4885 0
M  V30 1865 H 185.213 -6.20859 -4.60168 0
M  V30 1866 H 183.558 -5.57941 -4.144 0
M  V30 1867 H 186.749 -3.57772 -3.01856 0
M  V30 1868 H 186.922 -5.11186 -3.98237 0
M  V30 1869 N 180.328 1.1314 -1.09713 0
M  V30 1870 C 181.576 1.84119 -0.833338 0
M  V30 1871 C 181.897 1.84097 0.642904 0
M  V30 1872 O 181.167 1.29881 1.46655 0
M  V30 1873 H 179.747 0.681766 -0.305293 0
M  V30 1874 H 182.409 1.37038 -1.38588 0
M  V30 1875 H 181.505 2.88543 -1.18951 0
M  V30 1876 N 181.806 0.884767 1.30421 0
M  V30 1877 C 183.052 0.513218 1.96819 0
M  V30 1878 C 183.407 -0.927347 1.68577 0
M  V30 1879 O 182.7 -1.64644 0.979941 0
M  V30 1880 C 182.894 0.724318 3.49983 0
M  V30 1881 C 182.723 2.18385 3.93113 0
M  V30 1882 C 181.493 2.82839 4.18725 0
M  V30 1883 C 183.691 3.15763 4.05953 0
M  V30 1884 N 181.673 4.1939 4.48314 0
M  V30 1885 C 183.044 4.37387 4.39423 0
M  V30 1886 C 185.099 3.11555 3.88379 0
M  V30 1887 C 183.802 5.55343 4.5715 0
M  V30 1888 C 185.828 4.28782 4.07308 0
M  V30 1889 C 185.19 5.49172 4.41123 0
M  V30 1890 H 181.289 0.237123 0.745182 0
M  V30 1891 H 183.873 1.14246 1.57658 0
M  V30 1892 H 182.044 0.124565 3.882 0
M  V30 1893 H 183.776 0.31969 4.03435 0
M  V30 1894 H 180.531 2.33708 4.11919 0
M  V30 1895 H 180.955 4.89911 4.67243 0
M  V30 1896 H 185.597 2.19576 3.61312 0
M  V30 1897 H 183.315 6.47826 4.8306 0
M  V30 1898 H 186.901 4.26995 3.95179 0
M  V30 1899 H 185.781 6.38371 4.55469 0
M  V30 1900 N 183.284 -1.43765 0.645699 0
M  V30 1901 C 184.53 -2.02731 0.164844 0
M  V30 1902 C 184.885 -1.49983 -1.2051 0
M  V30 1903 O 184.178 -0.680208 -1.79119 0
M  V30 1904 C 184.372 -3.57238 0.107679 0
M  V30 1905 C 184.201 -4.24977 1.47054 0
M  V30 1906 C 182.971 -4.61356 2.06103 0
M  V30 1907 C 185.169 -4.54476 2.40741 0
M  V30 1908 N 183.151 -5.14132 3.35473 0
M  V30 1909 C 184.522 -5.08489 3.54737 0
M  V30 1910 C 186.577 -4.36438 2.39637 0
M  V30 1911 C 185.28 -5.46364 4.67845 0
M  V30 1912 C 187.306 -4.7537 3.5182 0
M  V30 1913 C 186.668 -5.2951 4.64541 0
M  V30 1914 H 182.767 -0.774976 0.104578 0
M  V30 1915 H 185.351 -1.75051 0.852367 0
M  V30 1916 H 183.522 -3.84498 -0.549165 0
M  V30 1917 H 185.254 -4.0288 -0.383351 0
M  V30 1918 H 182.009 -4.46151 1.58892 0
M  V30 1919 H 182.433 -5.4498 4.01654 0
M  V30 1920 H 187.075 -3.93861 1.53731 0
M  V30 1921 H 184.793 -5.87888 5.54448 0
M  V30 1922 H 188.379 -4.63115 3.52159 0
M  V30 1923 H 187.259 -5.59077 5.49911 0
M  V30 1924 N 184.763 -0.387143 -1.52771 0
M  V30 1925 C 186.009 0.196025 -2.0185 0
M  V30 1926 C 186.342 1.46641 -1.27319 0
M  V30 1927 O 185.617 1.90889 -0.373032 0
M  V30 1928 C 185.9 0.466136 -3.5707 0
M  V30 1929 C 185.753 -0.819385 -4.42274 0
M  V30 1930 C 187.072 1.25768 -4.21747 0
M  V30 1931 H 184.191 0.0697708 -0.73369 0
M  V30 1932 H 186.833 -0.516286 -1.82851 0
M  V30 1933 H 184.983 1.07293 -3.7339 0
M  V30 1934 H 186.655 -1.4563 -4.37709 0
M  V30 1935 H 184.898 -1.43517 -4.09372 0
M  V30 1936 H 185.569 -0.585065 -5.48891 0
M  V30 1937 H 188.045 0.744167 -4.09391 0
M  V30 1938 H 186.921 1.41541 -5.30337 0
M  V30 1939 H 187.182 2.27228 -3.79236 0
M  V30 1940 N 186.241 1.57166 -0.116904 0
M  V30 1941 C 187.191 2.11756 0.845178 0
M  V30 1942 C 188.175 1.03783 1.22955 0
M  V30 1943 O 189.367 1.3002 1.20099 0
M  V30 1944 C 186.496 2.71886 2.09602 0
M  V30 1945 C 185.582 3.86937 1.7361 0
M  V30 1946 N 185.973 4.94073 1.08284 0
M  V30 1947 C 184.271 3.97082 2.03082 0
M  V30 1948 C 184.972 5.74477 0.913855 0
M  V30 1949 N 183.948 5.2423 1.43818 0
M  V30 1950 H 187.75 2.91967 0.336523 0
M  V30 1951 H 185.264 1.62174 0.0856332 0
M  V30 1952 H 187.261 3.09338 2.79492 0
M  V30 1953 H 185.921 1.93138 2.61013 0
M  V30 1954 H 186.932 5.12483 0.747067 0
M  V30 1955 H 183.609 3.29372 2.56554 0
M  V30 1956 H 184.999 6.70701 0.40125 0
M  V30 1957 N 187.719 -0.156864 1.56817 0
M  V30 1958 C 188.944 -0.890331 1.87318 0
M  V30 1959 C 189.369 -1.74394 0.704855 0
M  V30 1960 O 188.727 -1.77972 -0.345786 0
M  V30 1961 C 188.775 -1.73102 3.16336 0
M  V30 1962 O 187.879 -2.83422 2.99576 0
M  V30 1963 H 187.22 -0.24857 0.615718 0
M  V30 1964 H 189.75 -0.150649 2.04045 0
M  V30 1965 H 189.76 -2.12803 3.48107 0
M  V30 1966 H 188.435 -1.10412 4.00976 0
M  V30 1967 H 187.012 -2.47199 2.7919 0
M  V30 1968 N 189.197 -1.51736 -0.425897 0
M  V30 1969 C 190.443 -1.65214 -1.1761 0
M  V30 1970 C 190.776 -0.372778 -1.90589 0
M  V30 1971 O 190.051 0.628139 -1.84078 0
M  V30 1972 C 190.334 -2.86312 -2.18398 0
M  V30 1973 C 190.187 -4.24254 -1.49426 0
M  V30 1974 C 191.506 -3.02925 -3.19256 0
M  V30 1975 H 188.625 -0.601263 -0.426206 0
M  V30 1976 H 191.267 -1.8425 -0.463882 0
M  V30 1977 H 189.417 -2.70213 -2.79137 0
M  V30 1978 H 191.089 -4.52046 -0.919362 0
M  V30 1979 H 189.332 -4.26426 -0.796432 0
M  V30 1980 H 190.003 -5.05001 -2.22885 0
M  V30 1981 H 192.479 -3.1781 -2.68581 0
M  V30 1982 H 191.355 -3.89199 -3.8706 0
M  V30 1983 H 191.616 -2.15497 -3.86023 0
M  V30 1984 N 190.675 0.682077 -1.42076 0
M  V30 1985 C 191.605 1.80796 -1.47767 0
M  V30 1986 C 192.586 1.6677 -0.334954 0
M  V30 1987 O 193.771 1.863 -0.548264 0
M  V30 1988 C 190.901 3.19038 -1.37229 0
M  V30 1989 C 189.855 3.47789 -2.49453 0
M  V30 1990 C 189.181 4.8553 -2.23975 0
M  V30 1991 C 190.481 3.45411 -3.91776 0
M  V30 1992 H 192.175 1.7629 -2.41997 0
M  V30 1993 H 189.721 0.846721 -1.16476 0
M  V30 1994 H 191.674 3.97528 -1.39821 0
M  V30 1995 H 190.398 3.24204 -0.394907 0
M  V30 1996 H 189.057 2.71657 -2.46166 0
M  V30 1997 H 188.705 4.87337 -1.24547 0
M  V30 1998 H 188.405 5.0573 -2.99184 0
M  V30 1999 H 189.929 5.66312 -2.28304 0
M  V30 2000 H 191.343 4.13882 -3.96705 0
M  V30 2001 H 189.74 3.77145 -4.66778 0
M  V30 2002 H 190.81 2.44122 -4.18966 0
M  V30 2003 N 192.153 1.28127 0.917671 0
M  V30 2004 C 193.083 1.14248 2.03641 0
M  V30 2005 C 194.064 0.0412748 1.7005 0
M  V30 2006 O 195.249 0.217566 1.92977 0
M  V30 2007 C 192.379 0.799431 3.37974 0
M  V30 2008 C 191.333 1.85497 3.85713 0
M  V30 2009 C 190.659 1.36565 5.16966 0
M  V30 2010 C 191.959 3.26085 4.08002 0
M  V30 2011 H 193.653 2.07835 2.15511 0
M  V30 2012 H 191.199 1.00064 1.03553 0
M  V30 2013 H 193.152 0.689114 4.15727 0
M  V30 2014 H 191.876 -0.172145 3.26146 0
M  V30 2015 H 190.535 1.95437 3.10161 0
M  V30 2016 H 190.183 0.383253 5.01538 0
M  V30 2017 H 189.883 2.07143 5.49878 0
M  V30 2018 H 191.407 1.26848 5.97279 0
M  V30 2019 H 192.821 3.19089 4.76293 0
M  V30 2020 H 191.218 3.94462 4.52238 0
M  V30 2021 H 192.288 3.70394 3.12948 0
M  V30 2022 N 193.631 -1.12557 1.10312 0
M  V30 2023 C 194.561 -2.20341 0.772798 0
M  V30 2024 C 195.542 -1.68198 -0.25365 0
M  V30 2025 O 196.727 -1.93831 -0.119699 0
M  V30 2026 C 193.857 -3.46709 0.202443 0
M  V30 2027 C 192.811 -4.11996 1.15943 0
M  V30 2028 C 192.137 -5.328 0.450345 0
M  V30 2029 C 193.437 -4.5828 2.50552 0
M  V30 2030 H 195.131 -2.48229 1.674 0
M  V30 2031 H 192.677 -1.19308 0.806326 0
M  V30 2032 H 194.63 -4.2138 -0.0407752 0
M  V30 2033 H 193.354 -3.18245 -0.734001 0
M  V30 2034 H 192.013 -3.39305 1.38808 0
M  V30 2035 H 191.661 -5.00602 -0.490531 0
M  V30 2036 H 191.361 -5.7743 1.08851 0
M  V30 2037 H 192.885 -6.10219 0.215642 0
M  V30 2038 H 194.299 -5.2433 2.31843 0
M  V30 2039 H 192.696 -5.13683 3.10242 0
M  V30 2040 H 193.766 -3.72329 3.10643 0
M  V30 2041 N 195.109 -0.891671 -1.2995 0
M  V30 2042 C 196.019 -0.367691 -2.31701 0
M  V30 2043 C 197.035 0.533486 -1.6562 0
M  V30 2044 O 198.211 0.424997 -1.96865 0
M  V30 2045 C 195.276 0.403406 -3.44345 0
M  V30 2046 C 194.337 -0.528328 -4.26037 0
M  V30 2047 C 193.57 0.206063 -5.33302 0
M  V30 2048 O 193.793 1.43119 -5.52153 0
M  V30 2049 O 192.727 -0.447281 -6.00236 0
M  V30 2050 H 196.553 -1.21163 -2.78484 0
M  V30 2051 H 194.138 -0.655725 -1.34241 0
M  V30 2052 H 196.02 0.839753 -4.12948 0
M  V30 2053 H 194.695 1.22354 -2.99685 0
M  V30 2054 H 193.602 -1.01362 -3.60106 0
M  V30 2055 H 194.935 -1.31465 -4.74318 0
M  V30 2056 N 196.587 1.43421 -0.653314 0
M  V30 2057 C 197.55 2.29182 0.0287951 0
M  V30 2058 C 198.55 1.42213 0.750465 0
M  V30 2059 O 199.74 1.63843 0.591701 0
M  V30 2060 C 196.872 3.24278 1.05151 0
M  V30 2061 H 198.065 2.90985 -0.725786 0
M  V30 2062 H 195.618 1.50702 -0.414545 0
M  V30 2063 H 196.353 2.6737 1.83532 0
M  V30 2064 H 196.138 3.88396 0.537687 0
M  V30 2065 H 197.628 3.88647 1.52786 0
M  V30 2066 N 198.065 0.39524 1.52563 0
M  V30 2067 C 199.293 -0.184943 2.06072 0
M  V30 2068 C 199.708 -1.40021 1.26647 0
M  V30 2069 O 199.065 -1.79767 0.314672 0
M  V30 2070 C 199.116 -0.549179 3.57304 0
M  V30 2071 O 198.837 0.617813 4.33722 0
M  V30 2072 C 200.338 -1.18459 4.2718 0
M  V30 2073 H 197.558 -0.0265025 0.670476 0
M  V30 2074 H 200.102 0.562184 1.96621 0
M  V30 2075 H 198.257 -1.2462 3.66809 0
M  V30 2076 H 198.671 0.317091 5.23541 0
M  V30 2077 H 200.145 -1.38976 5.34219 0
M  V30 2078 H 200.622 -2.15368 3.82771 0
M  V30 2079 H 201.228 -0.528163 4.22008 0
M  V30 2080 N 199.544 -1.57102 0.125237 0
M  V30 2081 C 200.772 -1.99761 -0.538797 0
M  V30 2082 C 201.187 -1.00503 -1.59827 0
M  V30 2083 O 200.544 0.00119474 -1.825 0
M  V30 2084 C 200.595 -3.42408 -1.15927 0
M  V30 2085 O 200.316 -4.37869 -0.142143 0
M  V30 2086 C 201.817 -4.00232 -1.90602 0
M  V30 2087 H 199.037 -0.655772 -0.14214 0
M  V30 2088 H 201.581 -2.03383 0.213413 0
M  V30 2089 H 199.736 -3.39706 -1.86223 0
M  V30 2090 H 200.15 -5.21128 -0.593775 0
M  V30 2091 H 201.624 -5.02105 -2.29335 0
M  V30 2092 H 202.101 -3.39721 -2.78363 0
M  V30 2093 H 202.707 -4.06499 -1.25055 0
M  V30 2094 N 201.022 0.148545 -1.56898 0
M  V30 2095 C 202.269 0.861418 -1.83264 0
M  V30 2096 C 202.597 1.81239 -0.705883 0
M  V30 2097 O 201.852 1.93305 0.305212 0
M  V30 2098 C 202.151 1.67064 -3.1595 0
M  V30 2099 C 201.817 0.866591 -4.42494 0
M  V30 2100 C 200.479 0.644762 -4.76861 0
M  V30 2101 C 202.831 0.30418 -5.20312 0
M  V30 2102 C 200.159 -0.15021 -5.86508 0
M  V30 2103 C 202.511 -0.477824 -6.30793 0
M  V30 2104 C 201.175 -0.710244 -6.63711 0
M  V30 2105 H 200.445 0.315215 -0.670612 0
M  V30 2106 H 203.092 0.125142 -1.91091 0
M  V30 2107 H 201.397 2.47698 -3.03567 0
M  V30 2108 H 203.094 2.22566 -3.33565 0
M  V30 2109 H 199.684 1.04955 -4.15551 0
M  V30 2110 H 203.868 0.462844 -4.94137 0
M  V30 2111 H 199.124 -0.339796 -6.10455 0
M  V30 2112 H 203.298 -0.92076 -6.90286 0
M  V30 2113 H 200.925 -1.3281 -7.48509 0
M  V30 2114 N 202.5 1.5196 0.417844 0
M  V30 2115 C 203.916 1.40569 0.755816 0
M  V30 2116 C 204.116 0.503316 1.95113 0
M  V30 2117 O 203.172 -0.0341925 2.52477 0
M  V30 2118 C 204.485 2.82947 1.01791 0
M  V30 2119 C 206.033 2.92231 1.12116 0
M  V30 2120 C 206.508 4.35559 1.41608 0
M  V30 2121 N 207.999 4.38753 1.48491 0
M  V30 2122 C 208.734 5.46705 1.7292 0
M  V30 2123 N 208.23 6.64788 1.95011 0
M  V30 2124 N 210.023 5.34209 1.74863 0
M  V30 2125 H 202.174 2.09168 -0.369098 0
M  V30 2126 H 204.437 0.942409 -0.102809 0
M  V30 2127 H 204.143 3.5106 0.212081 0
M  V30 2128 H 204.017 3.23462 1.94042 0
M  V30 2129 H 206.404 2.24304 1.9176 0
M  V30 2130 H 206.485 2.55185 0.177225 0
M  V30 2131 H 206.129 5.04042 0.624848 0
M  V30 2132 H 206.059 4.70133 2.37239 0
M  V30 2133 H 208.55 3.5363 1.33244 0
M  V30 2134 H 208.863 7.42845 2.13076 0
M  V30 2135 H 207.208 6.67869 1.92293 0
M  V30 2136 H 210.399 4.40937 1.57137 0
M  V30 2137 H 210.572 6.18415 1.93563 0
M  V30 2138 N 203.978 -0.674533 1.42435 0
M  V30 2139 C 205.206 -1.46283 1.46317 0
M  V30 2140 C 205.621 -1.88653 0.0745836 0
M  V30 2141 O 204.978 -1.58151 -0.91074 0
M  V30 2142 C 205.029 -2.71178 2.3905 0
M  V30 2143 O 204.75 -2.30586 3.72507 0
M  V30 2144 C 206.251 -3.64738 2.51955 0
M  V30 2145 H 203.471 -0.450104 0.497642 0
M  V30 2146 H 206.015 -0.828792 1.86953 0
M  V30 2147 H 204.17 -3.3077 2.01667 0
M  V30 2148 H 204.584 -3.11241 4.22172 0
M  V30 2149 H 206.058 -4.49096 3.20962 0
M  V30 2150 H 206.535 -4.10656 1.55752 0
M  V30 2151 H 207.141 -3.11038 2.90061 0
M  V30 2152 N 205.456 -1.28612 -0.910864 0
M  V30 2153 C 206.702 -1.16106 -1.66274 0
M  V30 2154 C 207.035 0.289113 -1.92036 0
M  V30 2155 O 206.31 1.21 -1.52281 0
M  V30 2156 C 206.593 -1.96309 -3.01885 0
M  V30 2157 C 206.446 -3.49405 -2.8326 0
M  V30 2158 C 207.765 -1.78076 -4.02463 0
M  V30 2159 H 204.884 -0.423152 -0.603417 0
M  V30 2160 H 207.526 -1.57961 -1.05586 0
M  V30 2161 H 205.676 -1.60742 -3.53687 0
M  V30 2162 H 207.348 -3.94894 -2.38446 0
M  V30 2163 H 205.591 -3.74893 -2.18261 0
M  V30 2164 H 206.262 -4.00784 -3.79574 0
M  V30 2165 H 208.738 -2.0912 -3.59733 0
M  V30 2166 H 207.614 -2.36561 -4.95308 0
M  V30 2167 H 207.875 -0.733008 -4.35981 0
M  V30 2168 N 206.934 1.1197 -1.10907 0
M  V30 2169 C 208.182 1.83225 -0.852819 0
M  V30 2170 C 208.503 1.84769 0.623341 0
M  V30 2171 O 207.773 1.3143 1.45269 0
M  V30 2172 H 206.353 0.67849 -0.312507 0
M  V30 2173 H 209.015 1.3556 -1.40033 0
M  V30 2174 H 208.111 2.87265 -1.22005 0
M  V30 2175 N 208.412 0.89855 1.29475 0
M  V30 2176 C 209.342 0.39201 2.30186 0
M  V30 2177 C 210.323 -0.532359 1.61555 0
M  V30 2178 O 211.508 -0.443331 1.89072 0
M  V30 2179 C 208.638 -0.382353 3.45189 0
M  V30 2180 C 207.592 0.451483 4.25612 0
M  V30 2181 C 206.918 -0.450307 5.328 0
M  V30 2182 C 208.218 1.70079 4.93832 0
M  V30 2183 H 209.912 1.23362 2.72804 0
M  V30 2184 H 207.458 0.594638 1.31149 0
M  V30 2185 H 209.411 -0.747451 4.14718 0
M  V30 2186 H 208.135 -1.25774 3.01411 0
M  V30 2187 H 206.794 0.798897 3.57789 0
M  V30 2188 H 206.442 -1.32379 4.85268 0
M  V30 2189 H 206.142 0.103902 5.87508 0
M  V30 2190 H 207.666 -0.811623 6.05182 0
M  V30 2191 H 209.08 1.40549 5.55805 0
M  V30 2192 H 207.477 2.19623 5.58467 0
M  V30 2193 H 208.547 2.43744 4.19186 0
M  V30 2194 N 209.89 -1.43072 0.660911 0
M  V30 2195 C 210.82 -2.33497 -0.0122829 0
M  V30 2196 C 211.801 -1.49903 -0.803925 0
M  V30 2197 O 212.986 -1.78546 -0.763864 0
M  V30 2198 C 210.116 -3.33363 -0.973994 0
M  V30 2199 C 209.07 -4.27003 -0.291928 0
M  V30 2200 C 208.396 -5.16967 -1.36562 0
M  V30 2201 C 209.696 -5.15816 0.820462 0
M  V30 2202 H 211.39 -2.90038 0.742873 0
M  V30 2203 H 208.936 -1.39461 0.358688 0
M  V30 2204 H 210.889 -3.95524 -1.45392 0
M  V30 2205 H 209.613 -2.75095 -1.7604 0
M  V30 2206 H 208.272 -3.66217 0.167623 0
M  V30 2207 H 207.92 -4.55034 -2.14366 0
M  V30 2208 H 207.62 -5.80441 -0.914454 0
M  V30 2209 H 209.144 -5.82003 -1.84675 0
M  V30 2210 H 210.558 -5.71742 0.422366 0
M  V30 2211 H 208.955 -5.8805 1.19656 0
M  V30 2212 H 210.025 -4.55045 1.67518 0
M  V30 2213 N 211.368 -0.403325 -1.52352 0
M  V30 2214 C 212.318 0.442244 -2.2367 0
M  V30 2215 C 213.302 1.01823 -1.24583 0
M  V30 2216 O 214.494 0.942005 -1.49851 0
M  V30 2217 C 211.623 1.5615 -3.05732 0
M  V30 2218 C 210.709 0.996575 -4.12225 0
M  V30 2219 N 211.1 0.157804 -5.05554 0
M  V30 2220 C 209.398 1.26767 -4.27605 0
M  V30 2221 C 210.099 -0.155853 -5.81491 0
M  V30 2222 N 209.075 0.451775 -5.41719 0
M  V30 2223 H 212.877 -0.204964 -2.93184 0
M  V30 2224 H 210.391 -0.213418 -1.60992 0
M  V30 2225 H 212.388 2.17981 -3.55373 0
M  V30 2226 H 211.048 2.21139 -2.37755 0
M  V30 2227 H 212.059 -0.206049 -5.1749 0
M  V30 2228 H 208.736 1.91757 -3.70858 0
M  V30 2229 H 210.126 -0.836329 -6.66675 0
M  V30 2230 N 212.846 1.57033 -0.133567 0
M  V30 2231 C 213.778 2.13176 0.841944 0
M  V30 2232 C 214.791 1.07794 1.22001 0
M  V30 2233 O 215.98 1.35117 1.16643 0
M  V30 2234 C 213.08 2.62847 2.13926 0
M  V30 2235 C 212.253 3.92486 1.93064 0
M  V30 2236 C 211.312 4.27605 3.0666 0
M  V30 2237 O 210.338 4.96168 2.78937 0
M  V30 2238 N 211.54 3.861 4.33483 0
M  V30 2239 H 214.305 2.97503 0.362192 0
M  V30 2240 H 211.866 1.61821 0.05042 0
M  V30 2241 H 213.858 2.83363 2.88942 0
M  V30 2242 H 212.428 1.83319 2.53205 0
M  V30 2243 H 211.648 3.80732 1.02159 0
M  V30 2244 H 212.936 4.77225 1.76447 0
M  V30 2245 H 212.334 3.30828 4.58878 0
M  V30 2246 H 210.891 4.11694 5.05323 0
M  V30 2247 N 214.325 -0.140222 1.56975 0
M  V30 2248 C 215.235 -1.19223 2.02047 0
M  V30 2249 C 216.251 -1.46612 0.937062 0
M  V30 2250 O 217.427 -1.58148 1.24704 0
M  V30 2251 C 214.492 -2.50414 2.39778 0
M  V30 2252 C 213.553 -2.30612 3.621 0
M  V30 2253 C 212.786 -3.55547 3.98023 0
M  V30 2254 O 213.009 -4.62004 3.34528 0
M  V30 2255 O 211.943 -3.47808 4.91237 0
M  V30 2256 H 215.769 -0.839559 2.91865 0
M  V30 2257 H 213.354 -0.349453 1.45256 0
M  V30 2258 H 215.236 -3.27747 2.64877 0
M  V30 2259 H 213.911 -2.85198 1.53114 0
M  V30 2260 H 212.818 -1.51207 3.4218 0
M  V30 2261 H 214.151 -2.00741 4.49404 0
M  V30 2262 N 215.803 -1.52179 -0.40978 0
M  V30 2263 C 217.049 -1.67408 -1.15525 0
M  V30 2264 C 217.404 -0.398746 -1.88223 0
M  V30 2265 O 216.697 0.60678 -1.81738 0
M  V30 2266 C 216.891 -2.83428 -2.17723 0
M  V30 2267 C 216.72 -4.22121 -1.55061 0
M  V30 2268 C 215.49 -4.87657 -1.3236 0
M  V30 2269 C 217.688 -5.04248 -1.01185 0
M  V30 2270 N 215.67 -6.10387 -0.655834 0
M  V30 2271 C 217.041 -6.18209 -0.470963 0
M  V30 2272 C 219.096 -4.89583 -0.906252 0
M  V30 2273 C 217.799 -7.1911 0.165172 0
M  V30 2274 C 219.825 -5.90718 -0.28397 0
M  V30 2275 C 219.187 -7.03969 0.246243 0
M  V30 2276 H 215.286 -0.666251 -0.409431 0
M  V30 2277 H 217.87 -1.89482 -0.447729 0
M  V30 2278 H 216.041 -2.6297 -2.85834 0
M  V30 2279 H 217.773 -2.87697 -2.84627 0
M  V30 2280 H 214.528 -4.46007 -1.59294 0
M  V30 2281 H 214.952 -6.76153 -0.338596 0
M  V30 2282 H 219.594 -4.02253 -1.302 0
M  V30 2283 H 217.312 -8.06066 0.572986 0
M  V30 2284 H 220.898 -5.81443 -0.203792 0
M  V30 2285 H 219.778 -7.80886 0.720173 0
M  V30 2286 N 217.281 0.66697 -1.42791 0
M  V30 2287 C 218.527 1.42754 -1.44889 0
M  V30 2288 C 218.882 1.92283 -0.0669755 0
M  V30 2289 O 218.175 1.68494 0.912154 0
M  V30 2290 C 218.369 2.6349 -2.4147 0
M  V30 2291 C 218.198 2.25776 -3.88915 0
M  V30 2292 C 216.968 2.1476 -4.57391 0
M  V30 2293 C 219.166 1.86927 -4.79127 0
M  V30 2294 N 217.148 1.70232 -5.89826 0
M  V30 2295 C 218.519 1.53378 -6.00729 0
M  V30 2296 C 220.574 1.73989 -4.66511 0
M  V30 2297 C 219.277 1.08187 -7.11117 0
M  V30 2298 C 221.303 1.30203 -5.76889 0
M  V30 2299 C 220.665 0.975818 -6.97608 0
M  V30 2300 H 216.764 0.518559 -0.585338 0
M  V30 2301 H 219.348 0.768906 -1.78874 0
M  V30 2302 H 217.519 3.27033 -2.09533 0
M  V30 2303 H 219.251 3.30123 -2.34096 0
M  V30 2304 H 216.006 2.3408 -4.11708 0
M  V30 2305 H 216.43 1.50369 -6.6009 0
M  V30 2306 H 221.072 1.97853 -3.7365 0
M  V30 2307 H 218.79 0.830701 -8.03819 0
M  V30 2308 H 222.376 1.20701 -5.69142 0
M  V30 2309 H 221.256 0.642157 -7.81566 0
M  V30 2310 N 218.759 1.29093 0.90403 0
M  V30 2311 C 219.692 1.08176 2.00931 0
M  V30 2312 C 220.67 -0.005083 1.62599 0
M  V30 2313 O 221.854 0.144765 1.87943 0
M  V30 2314 C 218.981 0.645897 3.32484 0
M  V30 2315 C 218.027 1.73081 3.89801 0
M  V30 2316 S 218.86 3.32905 4.19446 0
M  V30 2317 C 220.016 2.91176 5.54046 0
M  V30 2318 H 220.249 2.01752 2.18365 0
M  V30 2319 H 217.782 1.13191 1.0501 0
M  V30 2320 H 219.74 0.401131 4.08535 0
M  V30 2321 H 218.401 -0.270188 3.12936 0
M  V30 2322 H 217.594 1.37768 4.84805 0
M  V30 2323 H 217.196 1.92888 3.20422 0
M  V30 2324 H 219.488 2.37952 6.34338 0
M  V30 2325 H 220.431 3.85014 5.94281 0
M  V30 2326 H 220.839 2.296 5.15698 0
M  V30 2327 N 220.237 -1.11381 1.11499 0
M  V30 2328 C 221.653 -1.35143 0.849031 0
M  V30 2329 C 221.853 -1.94515 -0.525938 0
M  V30 2330 O 220.909 -2.1785 -1.27662 0
M  V30 2331 C 222.222 -2.28249 1.95762 0
M  V30 2332 C 223.77 -2.41812 1.98736 0
M  V30 2333 C 224.245 -3.3824 3.088 0
M  V30 2334 N 225.736 -3.45803 3.08179 0
M  V30 2335 C 226.471 -4.20358 3.89982 0
M  V30 2336 N 225.967 -4.97884 4.8175 0
M  V30 2337 N 227.76 -4.15877 3.78157 0
M  V30 2338 H 219.911 -0.712062 2.00109 0
M  V30 2339 H 222.174 -0.376025 0.870235 0
M  V30 2340 H 221.88 -1.91817 2.94787 0
M  V30 2341 H 221.754 -3.28473 1.85433 0
M  V30 2342 H 224.141 -2.77518 1.00338 0
M  V30 2343 H 224.222 -1.41437 2.13141 0
M  V30 2344 H 223.866 -3.03261 4.07425 0
M  V30 2345 H 223.796 -4.38471 2.91635 0
M  V30 2346 H 226.287 -2.90506 2.41691 0
M  V30 2347 H 226.6 -5.52142 5.40702 0
M  V30 2348 H 224.945 -4.97043 4.85771 0
M  V30 2349 H 228.136 -3.544 3.05808 0
M  V30 2350 H 228.309 -4.73723 4.42143 0
M  V30 2351 N 221.715 -0.905404 -1.28997 0
M  V30 2352 C 223.126 -0.581953 -1.77398 0
M  V30 2353 C 223.477 0.902552 -1.74208 0
M  V30 2354 O 222.602 1.70584 -1.33154 0
M  V30 2355 C 223.197 -1.04961 -3.22131 0
M  V30 2356 C 221.756 -0.777229 -3.68288 0
M  V30 2357 C 220.903 -1.22109 -2.48967 0
M  V30 2358 H 223.854 -1.08754 -1.15578 0
M  V30 2359 H 223.875 -0.387387 -3.78523 0
M  V30 2360 H 223.387 -2.13008 -3.24421 0
M  V30 2361 H 221.488 0.290383 -3.71467 0
M  V30 2362 H 221.601 -1.37911 -4.58822 0
M  V30 2363 H 219.965 -0.639971 -2.46529 0
M  V30 2364 H 220.748 -2.30972 -2.53982 0
M  V30 2365 N 223.193 1.4272 -0.668489 0
M  V30 2366 C 224.47 1.95248 -0.117373 0
M  V30 2367 C 224.85 1.60919 1.36632 0
M  V30 2368 O 224.198 0.902095 2.09939 0
M  V30 2369 C 224.408 3.46927 -0.379806 0
M  V30 2370 C 225.756 4.23588 -0.292923 0
M  V30 2371 O 226.78 3.5482 -0.313204 0
M  V30 2372 O 225.639 5.46017 -0.229697 0
M  V30 2373 H 222.733 0.827 0.00079152 0
M  V30 2374 H 225.279 1.52581 -0.742783 0
M  V30 2375 H 224.051 3.65096 -1.40786 0
M  V30 2376 H 223.674 3.96627 0.277923 0
M  V30 2377 N 224.671 0.411399 1.52136 0
M  V30 2378 C 225.948 -0.222308 1.94333 0
M  V30 2379 C 226.328 -1.6242 1.34844 0
M  V30 2380 O 225.676 -2.22384 0.525145 0
M  V30 2381 C 225.886 -0.226345 3.48265 0
M  V30 2382 C 227.234 -0.444592 4.22266 0
M  V30 2383 O 228.258 -0.305602 3.54887 0
M  V30 2384 O 227.117 -0.718749 5.41753 0
M  V30 2385 H 224.211 -0.143907 0.814383 0
M  V30 2386 H 226.757 0.467506 1.63133 0
M  V30 2387 H 225.529 0.75475 3.83952 0
M  V30 2388 H 225.152 -0.960163 3.85832 0
M  V30 2389 N 226.149 -1.5696 0.141893 0
M  V30 2390 C 227.56 -1.82797 -0.379776 0
M  V30 2391 C 227.911 -1.06033 -1.6508 0
M  V30 2392 O 227.036 -0.304011 -2.14254 0
M  V30 2393 C 227.631 -3.31578 -0.695802 0
M  V30 2394 C 226.19 -3.58014 -1.16201 0
M  V30 2395 C 225.337 -2.76699 -0.182455 0
M  V30 2396 H 228.288 -1.54406 0.366675 0
M  V30 2397 H 228.309 -3.47454 -1.55099 0
M  V30 2398 H 227.821 -3.87421 0.229449 0
M  V30 2399 H 225.922 -3.07553 -2.10338 0
M  V30 2400 H 226.035 -4.66501 -1.09151 0
M  V30 2401 H 224.399 -2.45618 -0.674072 0
M  V30 2402 H 225.182 -3.35311 0.736297 0
M  V30 2403 N 227.627 0.131896 -1.57047 0
M  V30 2404 C 228.59 1.14638 -1.98471 0
M  V30 2405 C 229.59 1.35029 -0.873148 0
M  V30 2406 O 230.78 1.31764 -1.13946 0
M  V30 2407 C 227.912 2.50358 -2.31373 0
M  V30 2408 H 229.105 0.79064 -2.8929 0
M  V30 2409 H 226.658 0.375761 -1.51716 0
M  V30 2410 H 227.393 2.90876 -1.43393 0
M  V30 2411 H 227.178 2.36915 -3.12432 0
M  V30 2412 H 228.668 3.23395 -2.64207 0
M  V30 2413 N 229.106 1.52395 0.401703 0
M  V30 2414 C 230.383 1.57387 1.16141 0
M  V30 2415 C 230.763 0.359359 2.08019 0
M  V30 2416 O 230.111 -0.65326 2.18963 0
M  V30 2417 C 230.321 2.90631 1.93221 0
M  V30 2418 C 231.669 3.43904 2.49028 0
M  V30 2419 O 232.693 2.92421 2.03393 0
M  V30 2420 O 231.552 4.33823 3.32356 0
M  V30 2421 H 228.646 0.634262 0.530698 0
M  V30 2422 H 231.192 1.64725 0.407883 0
M  V30 2423 H 229.964 3.70473 1.25958 0
M  V30 2424 H 229.587 2.8662 2.75563 0
M  V30 2425 N 230.584 -0.659388 1.43143 0
M  V30 2426 C 231.547 -1.75432 1.47501 0
M  V30 2427 C 232.547 -1.56707 0.360512 0
M  V30 2428 O 233.737 -1.62717 0.622002 0
M  V30 2429 C 230.869 -3.14239 1.32162 0
M  V30 2430 H 232.062 -1.7295 2.45006 0
M  V30 2431 H 229.615 -0.870469 1.29817 0
M  V30 2432 H 230.35 -3.22336 0.356401 0
M  V30 2433 H 230.135 -3.29235 2.12948 0
M  V30 2434 H 231.625 -3.94094 1.3813 0
M  V30 2435 N 232.062 -1.29571 -0.897171 0
M  V30 2436 C 233.339 -1.08365 -1.62839 0
M  V30 2437 C 233.719 0.371331 -2.07808 0
M  V30 2438 O 233.067 1.3606 -1.83576 0
M  V30 2439 C 233.277 -2.0735 -2.80726 0
M  V30 2440 C 234.625 -2.38406 -3.51351 0
M  V30 2441 O 235.649 -2.05564 -2.90898 0
M  V30 2442 O 234.508 -2.9453 -4.60341 0
M  V30 2443 H 231.602 -0.415345 -0.715134 0
M  V30 2444 H 234.148 -1.40952 -0.945018 0
M  V30 2445 H 232.92 -3.05339 -2.44711 0
M  V30 2446 H 232.543 -1.75507 -3.56767 0
M  V30 2447 N 233.54 1.10788 -1.12088 0
M  V30 2448 C 234.45 2.20599 -0.798338 0
M  V30 2449 C 235.466 1.72712 0.21135 0
M  V30 2450 O 236.642 2.01348 0.0458477 0
M  V30 2451 C 233.707 3.45771 -0.253674 0
M  V30 2452 C 232.768 4.08411 -1.32283 0
M  V30 2453 C 232.001 5.27608 -0.80406 0
M  V30 2454 O 232.224 5.69241 0.363478 0
M  V30 2455 O 231.158 5.8101 -1.57198 0
M  V30 2456 H 234.984 2.50614 -1.7154 0
M  V30 2457 H 232.569 1.19454 -0.897275 0
M  V30 2458 H 234.451 4.21376 0.0453691 0
M  V30 2459 H 233.126 3.1739 0.636005 0
M  V30 2460 H 232.033 3.34507 -1.67499 0
M  V30 2461 H 233.366 4.40986 -2.18614 0
M  V30 2462 N 235.018 0.912232 1.28515 0
M  V30 2463 C 235.965 0.397954 2.27343 0
M  V30 2464 C 236.935 -0.526766 1.57526 0
M  V30 2465 O 238.12 -0.449292 1.85435 0
M  V30 2466 C 235.26 -0.357263 3.43246 0
M  V30 2467 C 234.373 0.599788 4.27816 0
M  V30 2468 C 233.508 -0.173725 5.30916 0
M  V30 2469 C 232.547 0.777039 6.07148 0
M  V30 2470 N 231.684 0.0371398 7.0209 0
M  V30 2471 H 236.524 1.24577 2.70711 0
M  V30 2472 H 234.061 0.625612 1.33133 0
M  V30 2473 H 236.019 -0.8113 4.09236 0
M  V30 2474 H 234.649 -1.16943 3.00872 0
M  V30 2475 H 233.701 1.17235 3.61884 0
M  V30 2476 H 235.013 1.32704 4.80823 0
M  V30 2477 H 234.167 -0.688394 6.02782 0
M  V30 2478 H 232.906 -0.934041 4.78672 0
M  V30 2479 H 231.911 1.3031 5.34134 0
M  V30 2480 H 233.136 1.53689 6.61481 0
M  V30 2481 H 231.082 -0.705213 6.52198 0
M  V30 2482 H 230.999 0.704249 7.52713 0
M  V30 2483 H 232.267 -0.457383 7.78157 0
M  V30 2484 N 236.496 -1.42363 0.676048 0
M  V30 2485 C 237.406 -2.346 -0.00153389 0
M  V30 2486 C 238.422 -1.5516 -0.787485 0
M  V30 2487 O 239.598 -1.87723 -0.729521 0
M  V30 2488 C 236.663 -3.33705 -0.940298 0
M  V30 2489 C 235.724 -4.29042 -0.148739 0
M  V30 2490 C 234.957 -5.23413 -1.04279 0
M  V30 2491 O 235.18 -5.22749 -2.28232 0
M  V30 2492 O 234.114 -5.99795 -0.502925 0
M  V30 2493 H 237.94 -2.94082 0.758268 0
M  V30 2494 H 235.525 -1.42888 0.436289 0
M  V30 2495 H 237.407 -3.94586 -1.47917 0
M  V30 2496 H 236.082 -2.76695 -1.67993 0
M  V30 2497 H 234.989 -3.71571 0.43427 0
M  V30 2498 H 236.322 -4.89097 0.551805 0
M  V30 2499 N 237.974 -0.419461 -1.51915 0
M  V30 2500 C 239.199 0.154572 -2.06823 0
M  V30 2501 C 239.624 1.3722 -1.28656 0
M  V30 2502 O 238.982 1.78461 -0.319583 0
M  V30 2503 C 239.03 0.473172 -3.57482 0
M  V30 2504 O 238.134 1.56255 -3.81652 0
M  V30 2505 H 237.475 0.0096924 -0.663929 0
M  V30 2506 H 240.005 -0.595642 -1.95738 0
M  V30 2507 H 240.015 0.728825 -4.01438 0
M  V30 2508 H 238.69 -0.416873 -4.13805 0
M  V30 2509 H 237.267 1.29825 -3.49571 0
M  V30 2510 N 239.452 1.56882 -0.150215 0
M  V30 2511 C 240.7 1.9584 0.499105 0
M  V30 2512 C 241.021 1.03623 1.65188 0
M  V30 2513 O 240.291 0.0984084 1.95653 0
M  V30 2514 H 238.871 0.723119 0.187373 0
M  V30 2515 H 241.533 1.9358 -0.226466 0
M  V30 2516 H 240.629 2.99638 0.873122 0
M  V30 2517 N 240.93 -0.123565 1.57115 0
M  V30 2518 C 241.877 -1.15177 2.00007 0
M  V30 2519 C 242.847 -1.41403 0.871454 0
M  V30 2520 O 244.032 -1.53346 1.13533 0
M  V30 2521 C 241.172 -2.47436 2.40561 0
M  V30 2522 C 240.285 -2.28184 3.66819 0
M  V30 2523 C 239.42 -3.53641 3.96373 0
M  V30 2524 C 238.459 -3.29528 5.15827 0
M  V30 2525 N 237.596 -4.47175 5.41275 0
M  V30 2526 H 242.436 -0.779008 2.87638 0
M  V30 2527 H 239.973 -0.373166 1.42288 0
M  V30 2528 H 241.931 -3.24584 2.62109 0
M  V30 2529 H 240.561 -2.82614 1.55978 0
M  V30 2530 H 239.613 -1.41976 3.52912 0
M  V30 2531 H 240.925 -2.0634 4.5412 0
M  V30 2532 H 240.079 -4.39209 4.18545 0
M  V30 2533 H 238.818 -3.78512 3.07538 0
M  V30 2534 H 237.823 -2.42349 4.93505 0
M  V30 2535 H 239.048 -3.06031 6.06236 0
M  V30 2536 H 236.994 -4.72175 4.55397 0
M  V30 2537 H 236.911 -4.28419 6.22891 0
M  V30 2538 H 238.179 -5.3389 5.67963 0
M  V30 2539 N 242.408 -1.52605 -0.393616 0
M  V30 2540 C 243.654 -1.68624 -1.13743 0
M  V30 2541 C 244.009 -0.418687 -1.87789 0
M  V30 2542 O 243.302 0.58747 -1.82371 0
M  V30 2543 C 243.496 -2.85721 -2.14705 0
M  V30 2544 C 243.325 -4.23742 -1.50575 0
M  V30 2545 C 242.095 -4.89033 -1.2718 0
M  V30 2546 C 244.293 -5.05293 -0.958311 0
M  V30 2547 N 242.275 -6.11048 -0.591058 0
M  V30 2548 C 243.646 -6.18673 -0.405367 0
M  V30 2549 C 245.701 -4.90517 -0.854274 0
M  V30 2550 C 244.404 -7.18895 0.241434 0
M  V30 2551 C 246.43 -5.90986 -0.221301 0
M  V30 2552 C 245.792 -7.03669 0.320894 0
M  V30 2553 H 241.891 -0.670556 -0.402342 0
M  V30 2554 H 244.475 -1.89946 -0.427607 0
M  V30 2555 H 242.646 -2.65987 -2.83029 0
M  V30 2556 H 244.378 -2.90699 -2.8156 0
M  V30 2557 H 241.133 -4.47672 -1.54554 0
M  V30 2558 H 241.557 -6.76474 -0.266862 0
M  V30 2559 H 246.199 -4.03612 -1.25926 0
M  V30 2560 H 243.917 -8.05413 0.658448 0
M  V30 2561 H 247.503 -5.81626 -0.142111 0
M  V30 2562 H 246.383 -7.80078 0.802956 0
M  V30 2563 N 243.887 0.651787 -1.4349 0
M  V30 2564 C 244.817 1.77621 -1.51569 0
M  V30 2565 C 245.798 1.66022 -0.370253 0
M  V30 2566 O 246.983 1.85095 -0.587658 0
M  V30 2567 C 244.113 3.16056 -1.43966 0
M  V30 2568 C 243.067 3.4242 -2.56774 0
M  V30 2569 C 242.393 4.8067 -2.34223 0
M  V30 2570 C 243.693 3.37023 -3.99015 0
M  V30 2571 H 245.387 1.71117 -2.45681 0
M  V30 2572 H 242.933 0.821825 -1.18246 0
M  V30 2573 H 244.886 3.94472 -1.48221 0
M  V30 2574 H 243.61 3.23293 -0.463586 0
M  V30 2575 H 242.269 2.66375 -2.51873 0
M  V30 2576 H 241.917 4.84585 -1.34856 0
M  V30 2577 H 241.617 4.9927 -3.09844 0
M  V30 2578 H 243.141 5.61342 -2.40265 0
M  V30 2579 H 244.555 4.05374 -4.05395 0
M  V30 2580 H 242.952 3.67159 -4.74673 0
M  V30 2581 H 244.022 2.3518 -4.2405 0
M  V30 2582 N 245.365 1.30045 0.890287 0
M  V30 2583 C 246.328 1.15963 1.977 0
M  V30 2584 C 247.328 0.0923777 1.60534 0
M  V30 2585 O 248.518 0.340071 1.70848 0
M  V30 2586 C 245.65 0.775451 3.31963 0
M  V30 2587 H 246.843 2.12502 2.11619 0
M  V30 2588 H 244.396 1.13366 1.07601 0
M  V30 2589 H 245.131 -0.189671 3.23745 0
M  V30 2590 H 244.916 1.54668 3.60306 0
M  V30 2591 H 246.406 0.700251 4.11687 0
M  V30 2592 N 246.843 -1.10192 1.12674 0
M  V30 2593 C 247.806 -2.14786 0.799979 0
M  V30 2594 C 248.806 -1.59711 -0.18685 0
M  V30 2595 O 249.996 -1.74156 0.0392558 0
M  V30 2596 C 247.128 -3.40374 0.189228 0
M  V30 2597 H 248.321 -2.45203 1.72671 0
M  V30 2598 H 245.874 -1.25597 0.930326 0
M  V30 2599 H 246.609 -3.15577 -0.747107 0
M  V30 2600 H 246.394 -3.81637 0.899766 0
M  V30 2601 H 247.884 -4.17594 -0.0228143 0
M  V30 2602 N 248.321 -0.919034 -1.28029 0
M  V30 2603 C 249.284 -0.416182 -2.2539 0
M  V30 2604 C 250.284 0.460438 -1.54067 0
M  V30 2605 O 251.474 0.262744 -1.72207 0
M  V30 2606 C 248.606 0.402707 -3.38513 0
M  V30 2607 H 249.799 -1.27629 -2.71387 0
M  V30 2608 H 247.352 -0.698919 -1.39803 0
M  V30 2609 H 248.087 1.282 -2.97885 0
M  V30 2610 H 247.872 -0.225698 -3.9145 0
M  V30 2611 H 249.362 0.745191 -4.10897 0
M  V30 2612 N 249.799 1.42003 -0.683588 0
M  V30 2613 C 250.762 2.29191 -0.0198243 0
M  V30 2614 C 251.762 1.43773 0.72013 0
M  V30 2615 O 252.952 1.65061 0.556815 0
M  V30 2616 C 250.084 3.26435 0.982487 0
M  V30 2617 H 251.277 2.8938 -0.787345 0
M  V30 2618 H 248.83 1.49789 -0.446418 0
M  V30 2619 H 249.565 2.71203 1.77819 0
M  V30 2620 H 249.35 3.89449 0.455182 0
M  V30 2621 H 250.84 3.918 1.44508 0
M  V30 2622 N 251.277 0.427512 1.51691 0
M  V30 2623 C 252.505 -0.141191 2.06418 0
M  V30 2624 C 252.92 -1.37303 1.29589 0
M  V30 2625 O 252.277 -1.79059 0.352732 0
M  V30 2626 C 252.328 -0.473266 3.58389 0
M  V30 2627 O 252.049 0.709673 4.32314 0
M  V30 2628 C 253.55 -1.09371 4.29596 0
M  V30 2629 H 250.77 -0.0122747 0.670888 0
M  V30 2630 H 253.314 0.603764 1.95384 0
M  V30 2631 H 251.469 -1.16812 3.69369 0
M  V30 2632 H 251.883 0.42807 5.2275 0
M  V30 2633 H 253.357 -1.27613 5.37046 0
M  V30 2634 H 253.834 -2.072 3.87253 0
M  V30 2635 H 254.44 -0.43853 4.23033 0
M  V30 2636 N 252.755 -1.56801 0.158532 0
M  V30 2637 C 253.98 -2.01295 -0.499516 0
M  V30 2638 C 254.405 -1.03799 -1.56867 0
M  V30 2639 O 253.763 -0.0155162 -1.81293 0
M  V30 2640 C 253.811 -3.44469 -1.06647 0
M  V30 2641 O 252.915 -3.50012 -2.18095 0
M  V30 2642 H 252.256 -0.652884 -0.12099 0
M  V30 2643 H 254.786 -2.02958 0.258661 0
M  V30 2644 H 254.796 -3.8351 -1.39227 0
M  V30 2645 H 253.471 -4.14932 -0.283581 0
M  V30 2646 H 252.048 -3.22822 -1.86656 0
M  V30 2647 N 254.233 0.115231 -1.57178 0
M  V30 2648 C 255.649 0.468877 -1.52557 0
M  V30 2649 C 255.849 1.81649 -0.872125 0
M  V30 2650 O 254.905 2.48347 -0.45606 0
M  V30 2651 C 256.218 0.4499 -2.97315 0
M  V30 2652 C 257.766 0.533185 -3.08425 0
M  V30 2653 C 258.241 0.54456 -4.54751 0
M  V30 2654 N 259.732 0.605892 -4.5922 0
M  V30 2655 C 260.467 0.636203 -5.6986 0
M  V30 2656 N 259.963 0.623931 -6.89985 0
M  V30 2657 N 261.756 0.679496 -5.57978 0
M  V30 2658 H 253.907 -0.767712 -1.9804 0
M  V30 2659 H 256.17 -0.283609 -0.904583 0
M  V30 2660 H 255.876 -0.472721 -3.48509 0
M  V30 2661 H 255.75 1.27632 -3.5495 0
M  V30 2662 H 258.137 1.44623 -2.57232 0
M  V30 2663 H 258.218 -0.320995 -2.53778 0
M  V30 2664 H 257.862 -0.364452 -5.06591 0
M  V30 2665 H 257.792 1.41568 -5.07214 0
M  V30 2666 H 260.283 0.621386 -3.72756 0
M  V30 2667 H 260.596 0.649787 -7.70063 0
M  V30 2668 H 258.941 0.591296 -6.9248 0
M  V30 2669 H 262.132 0.686472 -4.63039 0
M  V30 2670 H 262.305 0.69965 -6.44212 0
M  V30 2671 N 255.711 1.52812 0.385517 0
M  V30 2672 C 256.641 1.80808 1.47752 0
M  V30 2673 C 257.622 0.660318 1.5676 0
M  V30 2674 O 258.807 0.908246 1.71652 0
M  V30 2675 C 255.937 1.98008 2.85324 0
M  V30 2676 C 254.891 3.13709 2.91154 0
M  V30 2677 C 254.217 3.16169 4.31209 0
M  V30 2678 C 255.517 4.52709 2.60483 0
M  V30 2679 H 257.211 2.72253 1.24573 0
M  V30 2680 H 254.757 1.31003 0.597839 0
M  V30 2681 H 256.71 2.16176 3.61726 0
M  V30 2682 H 255.434 1.03255 3.09848 0
M  V30 2683 H 254.093 2.95329 2.17201 0
M  V30 2684 H 253.741 2.19092 4.52778 0
M  V30 2685 H 253.441 3.93894 4.36029 0
M  V30 2686 H 254.965 3.36496 5.09512 0
M  V30 2687 H 256.379 4.71173 3.26602 0
M  V30 2688 H 254.776 5.32528 2.76648 0
M  V30 2689 H 255.846 4.59186 1.55809 0
M  V30 2690 N 257.189 -0.644168 1.43834 0
M  V30 2691 C 258.605 -0.960875 1.27434 0
M  V30 2692 C 258.805 -2.00499 0.200618 0
M  V30 2693 O 257.861 -2.49018 -0.417906 0
M  V30 2694 C 259.174 -1.43653 2.64167 0
M  V30 2695 C 260.722 -1.55271 2.71772 0
M  V30 2696 C 261.197 -2.06224 4.08944 0
M  V30 2697 N 262.688 -2.13513 4.11055 0
M  V30 2698 C 263.423 -2.54081 5.14033 0
M  V30 2699 N 262.919 -2.9388 6.27381 0
M  V30 2700 N 264.712 -2.54101 5.01387 0
M  V30 2701 H 256.863 0.0465779 2.12349 0
M  V30 2702 H 259.126 -0.0417638 0.94708 0
M  V30 2703 H 258.832 -0.743706 3.43747 0
M  V30 2704 H 258.706 -2.40993 2.90176 0
M  V30 2705 H 261.093 -2.23653 1.92519 0
M  V30 2706 H 261.174 -0.563395 2.49519 0
M  V30 2707 H 260.818 -1.38441 4.88668 0
M  V30 2708 H 260.748 -3.06003 4.28567 0
M  V30 2709 H 263.239 -1.85493 3.29242 0
M  V30 2710 H 263.552 -3.2361 7.01781 0
M  V30 2711 H 261.897 -2.91663 6.30839 0
M  V30 2712 H 265.088 -2.22391 4.11898 0
M  V30 2713 H 265.261 -2.85394 5.81768 0
M  V30 2714 N 258.668 -1.30515 -0.883378 0
M  V30 2715 C 259.601 -1.11359 -1.99184 0
M  V30 2716 C 260.579 -0.0207858 -1.62587 0
M  V30 2717 O 261.763 -0.174646 -1.87689 0
M  V30 2718 C 258.89 -0.69871 -3.31415 0
M  V30 2719 C 257.936 -1.79261 -3.86998 0
M  V30 2720 S 258.769 -3.39536 -4.14096 0
M  V30 2721 C 259.925 -2.99954 -5.49344 0
M  V30 2722 H 260.158 -2.052 -2.15128 0
M  V30 2723 H 257.691 -1.14847 -1.03196 0
M  V30 2724 H 259.649 -0.466075 -4.07846 0
M  V30 2725 H 258.31 0.220368 -3.13326 0
M  V30 2726 H 257.503 -1.45464 -4.82552 0
M  V30 2727 H 257.105 -1.97961 -3.17313 0
M  V30 2728 H 259.397 -2.48013 -6.30473 0
M  V30 2729 H 260.34 -3.9442 -5.8808 0
M  V30 2730 H 260.748 -2.37775 -5.1198 0
M  V30 2731 N 260.146 1.09593 -1.13257 0
M  V30 2732 C 261.394 1.81375 -0.891492 0
M  V30 2733 C 261.715 1.86049 0.584009 0
M  V30 2734 O 260.985 1.34481 1.42449 0
M  V30 2735 H 259.565 0.671708 -0.326828 0
M  V30 2736 H 262.227 1.3256 -1.42877 0
M  V30 2737 H 261.323 2.84612 -1.28071 0
M  V30 2738 N 261.624 0.925811 1.2754 0
M  V30 2739 C 262.849 0.580924 1.99098 0
M  V30 2740 C 263.274 -0.833555 1.68622 0
M  V30 2741 O 262.632 -1.55903 0.925422 0
M  V30 2742 C 262.68 0.811186 3.51358 0
M  V30 2743 O 261.784 -0.124129 4.12213 0
M  V30 2744 H 261.125 0.223873 0.625122 0
M  V30 2745 H 263.655 1.24455 1.62395 0
M  V30 2746 H 263.665 0.72601 4.01489 0
M  V30 2747 H 262.34 1.84227 3.72872 0
M  V30 2748 H 260.917 0.0108006 3.72898 0
M  V30 2749 N 263.102 -1.41638 0.69111 0
M  V30 2750 C 264.035 -2.28183 -0.0274913 0
M  V30 2751 C 265.013 -1.41984 -0.792424 0
M  V30 2752 O 266.197 -1.71415 -0.784169 0
M  V30 2753 C 263.324 -3.22135 -1.04628 0
M  V30 2754 C 262.37 -4.24848 -0.375037 0
M  V30 2755 S 263.203 -5.28231 0.879321 0
M  V30 2756 C 264.359 -6.25748 -0.137983 0
M  V30 2757 H 264.592 -2.88782 0.706553 0
M  V30 2758 H 262.125 -1.46709 0.481222 0
M  V30 2759 H 264.083 -3.76797 -1.62894 0
M  V30 2760 H 262.744 -2.6064 -1.75287 0
M  V30 2761 H 261.937 -4.90837 -1.14433 0
M  V30 2762 H 261.539 -3.73758 0.134434 0
M  V30 2763 H 263.831 -6.70188 -0.992659 0
M  V30 2764 H 264.774 -7.06417 0.487867 0
M  V30 2765 H 265.182 -5.62363 -0.490762 0
M  V30 2766 N 264.58 -0.43555 -1.51462 0
M  V30 2767 C 265.513 0.421989 -2.24264 0
M  V30 2768 C 266.491 1.02619 -1.26127 0
M  V30 2769 O 267.675 1.069 -1.55257 0
M  V30 2770 C 264.802 1.588 -2.99166 0
M  V30 2771 C 263.848 1.10465 -4.11946 0
M  V30 2772 S 264.681 0.048146 -5.35478 0
M  V30 2773 C 265.837 1.21887 -6.13917 0
M  V30 2774 H 266.07 -0.196102 -2.96653 0
M  V30 2775 H 263.603 -0.220054 -1.52824 0
M  V30 2776 H 265.561 2.25647 -3.42919 0
M  V30 2777 H 264.222 2.1775 -2.26371 0
M  V30 2778 H 263.415 1.97654 -4.63626 0
M  V30 2779 H 263.017 0.51445 -3.70445 0
M  V30 2780 H 265.309 2.13756 -6.42895 0
M  V30 2781 H 266.252 0.742076 -7.04201 0
M  V30 2782 H 266.66 1.45663 -5.45383 0
M  V30 2783 N 266.058 1.56714 -0.166846 0
M  V30 2784 C 267.283 2.01557 0.488833 0
M  V30 2785 C 267.708 1.0463 1.56314 0
M  V30 2786 O 267.066 0.0251304 1.81283 0
M  V30 2787 C 267.114 3.4503 1.04818 0
M  V30 2788 O 266.218 3.51163 2.16236 0
M  V30 2789 H 265.559 0.653516 0.117526 0
M  V30 2790 H 268.089 2.02818 -0.269421 0
M  V30 2791 H 268.099 3.84243 1.37191 0
M  V30 2792 H 266.774 4.15077 0.261572 0
M  V30 2793 H 265.351 3.23807 1.84942 0
M  V30 2794 N 267.536 -0.106894 1.57237 0
M  V30 2795 C 268.484 -1.14944 2.02215 0
M  V30 2796 C 269.478 -1.42167 0.92114 0
M  V30 2797 O 270.684 -1.41987 1.10634 0
M  V30 2798 H 267.059 -0.387841 0.64427 0
M  V30 2799 H 269.03 -0.743683 2.88984 0
M  V30 2800 C 267.779 -2.4647 2.4525 0
M  V30 2801 H 267.102 -2.26363 3.29545 0
M  V30 2802 H 268.542 -3.17948 2.80508 0
M  V30 2803 C 267.001 -3.09921 1.321 0
M  V30 2804 O 267.531 -3.9651 0.643622 0
M  V30 2805 N 265.737 -2.69986 1.07497 0
M  V30 2806 H 265.284 -1.99667 1.62761 0
M  V30 2807 H 265.242 -3.12769 0.319876 0
M  V30 2808 N 269.014 -1.53014 -0.377408 0
M  V30 2809 C 270.26 -1.68872 -1.12294 0
M  V30 2810 C 270.593 -0.433224 -1.89306 0
M  V30 2811 O 269.868 0.569258 -1.85983 0
M  V30 2812 C 270.151 -2.93115 -2.09179 0
M  V30 2813 C 270.004 -4.28794 -1.35853 0
M  V30 2814 C 271.323 -3.12928 -3.09458 0
M  V30 2815 H 268.442 -0.614518 -0.406862 0
M  V30 2816 H 271.084 -1.85633 -0.40503 0
M  V30 2817 H 269.234 -2.78956 -2.70399 0
M  V30 2818 H 270.906 -4.54742 -0.775082 0
M  V30 2819 H 269.149 -4.28744 -0.660364 0
M  V30 2820 H 269.82 -5.11837 -2.06706 0
M  V30 2821 H 272.296 -3.26194 -2.58334 0
M  V30 2822 H 271.172 -4.01316 -3.74482 0
M  V30 2823 H 271.433 -2.27669 -3.78971 0
M  V30 2824 N 270.492 0.636531 -1.44174 0
M  V30 2825 C 271.741 1.39213 -1.45954 0
M  V30 2826 C 272.054 1.95374 -0.0939119 0
M  V30 2827 O 273.26 2.71498 0.0107767 0
M  V30 2828 C 271.716 2.52025 -2.56927 0
M  V30 2829 C 271.324 2.024 -3.99673 0
M  V30 2830 C 273.068 3.29269 -2.67922 0
M  V30 2831 C 270.975 3.12521 -5.0208 0
M  V30 2832 H 269.905 0.523132 -0.542999 0
M  V30 2833 H 272.556 0.685349 -1.70221 0
M  V30 2834 H 270.938 3.25253 -2.25891 0
M  V30 2835 H 272.112 1.36073 -4.40251 0
M  V30 2836 H 270.427 1.37987 -3.92872 0
M  V30 2837 H 273.024 4.11352 -3.41605 0
M  V30 2838 H 273.367 3.78397 -1.73555 0
M  V30 2839 H 273.9 2.63129 -2.98342 0
M  V30 2840 H 270.639 2.68343 -5.98057 0
M  V30 2841 H 270.159 3.77507 -4.66099 0
M  V30 2842 H 271.838 3.77385 -5.25538 0
M  V30 2843 N 271.97 1.30982 0.876444 0
M  V30 2844 C 272.933 1.18054 1.96459 0
M  V30 2845 C 273.933 0.109399 1.60427 0
M  V30 2846 O 275.123 0.358173 1.70478 0
M  V30 2847 C 272.255 0.810616 3.31122 0
M  V30 2848 H 273.448 2.14735 2.09354 0
M  V30 2849 H 271.001 1.145 1.06392 0
M  V30 2850 H 271.736 -0.155322 3.23928 0
M  V30 2851 H 271.521 1.58481 3.58645 0
M  V30 2852 H 273.011 0.743876 4.10921 0
M  V30 2853 N 273.449 -1.08991 1.13837 0
M  V30 2854 C 274.695 -1.81526 0.90422 0
M  V30 2855 C 275.028 -1.85706 -0.568066 0
M  V30 2856 O 274.303 -1.32855 -1.42056 0
M  V30 2857 C 274.586 -3.27447 1.49835 0
M  V30 2858 C 274.439 -3.31512 3.04006 0
M  V30 2859 C 275.758 -4.24256 1.17025 0
M  V30 2860 H 272.877 -0.659029 0.329923 0
M  V30 2861 H 275.519 -1.27644 1.40737 0
M  V30 2862 H 273.669 -3.73462 1.07044 0
M  V30 2863 H 275.341 -2.93867 3.55584 0
M  V30 2864 H 273.584 -2.70963 3.38765 0
M  V30 2865 H 274.255 -4.34329 3.40679 0
M  V30 2866 H 276.731 -3.86549 1.54009 0
M  V30 2867 H 275.607 -5.24684 1.61237 0
M  V30 2868 H 275.868 -4.42019 0.0846274 0
M  V30 2869 N 274.927 -0.932562 -1.27047 0
M  V30 2870 C 276.167 -0.582919 -1.95912 0
M  V30 2871 C 276.531 0.860629 -1.71631 0
M  V30 2872 O 277.732 1.31878 -2.34225 0
M  V30 2873 C 276.003 -0.905673 -3.45734 0
M  V30 2874 S 277.562 -0.665277 -4.33727 0
M  V30 2875 H 274.38 -0.215 -0.677714 0
M  V30 2876 H 276.982 -1.20204 -1.54179 0
M  V30 2877 H 275.686 -1.95386 -3.60905 0
M  V30 2878 H 275.217 -0.275939 -3.92431 0
M  V30 2879 H 277.232 0.474635 -4.93925 0
M  V30 2880 N 276.405 1.4127 -0.698611 0
M  V30 2881 C 277.682 1.94955 -0.158762 0
M  V30 2882 C 278.062 1.63781 1.33188 0
M  V30 2883 O 277.41 0.946423 2.07979 0
M  V30 2884 C 277.62 3.46044 -0.453309 0
M  V30 2885 C 278.968 4.22872 -0.382707 0
M  V30 2886 O 279.992 3.54076 -0.388396 0
M  V30 2887 O 278.851 5.45407 -0.345463 0
M  V30 2888 H 275.945 0.82683 -0.0167505 0
M  V30 2889 H 278.491 1.50971 -0.77498 0
M  V30 2890 H 277.263 3.62028 -1.48498 0
M  V30 2891 H 276.886 3.97128 0.19373 0
M  V30 2892 N 277.883 0.443576 1.51229 0
M  V30 2893 C 279.299 0.0962001 1.5931 0
M  V30 2894 C 279.499 -1.39501 1.45402 0
M  V30 2895 O 278.555 -2.16557 1.29843 0
M  V30 2896 C 279.868 0.621875 2.94199 0
M  V30 2897 C 281.416 0.582865 3.07525 0
M  V30 2898 C 281.891 1.08562 4.44948 0
M  V30 2899 N 283.382 1.04387 4.51284 0
M  V30 2900 C 284.117 1.40368 5.55954 0
M  V30 2901 N 283.613 1.83664 6.68011 0
M  V30 2902 N 285.406 1.32145 5.46346 0
M  V30 2903 H 277.557 1.41376 1.58514 0
M  V30 2904 H 279.82 0.582965 0.747567 0
M  V30 2905 H 279.526 1.66546 3.09767 0
M  V30 2906 H 279.4 0.0502125 3.77167 0
M  V30 2907 H 281.787 -0.451749 2.91622 0
M  V30 2908 H 281.868 1.191 2.26382 0
M  V30 2909 H 281.512 2.11873 4.61598 0
M  V30 2910 H 281.442 0.453956 5.2464 0
M  V30 2911 H 283.933 0.725986 3.70861 0
M  V30 2912 H 284.246 2.0934 7.43906 0
M  V30 2913 H 282.591 1.87596 6.69203 0
M  V30 2914 H 285.782 0.981808 4.57688 0
M  V30 2915 H 285.955 1.60514 6.27805 0
M  V30 2916 N 279.361 -1.56624 0.175154 0
M  V30 2917 C 280.271 -2.21741 -0.766042 0
M  V30 2918 C 281.287 -1.21023 -1.25018 0
M  V30 2919 O 282.463 -1.53697 -1.3015 0
M  V30 2920 C 279.528 -2.84839 -1.97655 0
M  V30 2921 C 278.589 -4.00769 -1.53892 0
M  V30 2922 C 277.822 -4.60849 -2.69173 0
M  V30 2923 O 278.045 -4.19823 -3.86141 0
M  V30 2924 O 276.979 -5.50655 -2.43028 0
M  V30 2925 H 280.805 -3.02738 -0.241585 0
M  V30 2926 H 278.39 -1.49305 -0.053222 0
M  V30 2927 H 280.272 -3.24834 -2.68442 0
M  V30 2928 H 278.947 -2.06836 -2.48999 0
M  V30 2929 H 277.854 -3.65436 -0.80044 0
M  V30 2930 H 279.187 -4.80376 -1.07236 0
M  V30 2931 N 280.839 0.0985539 -1.57292 0
M  V30 2932 C 281.802 1.10402 -2.00858 0
M  V30 2933 C 282.802 1.33146 -0.901593 0
M  V30 2934 O 283.992 1.29318 -1.16716 0
M  V30 2935 C 281.124 2.45394 -2.36632 0
M  V30 2936 H 282.317 0.729099 -2.90902 0
M  V30 2937 H 279.87 0.343495 -1.52479 0
M  V30 2938 H 280.605 2.87769 -1.49531 0
M  V30 2939 H 280.39 2.30235 -3.17387 0
M  V30 2940 H 281.88 3.17718 -2.71007 0
M  V30 2941 N 282.317 1.53212 0.369288 0
M  V30 2942 C 283.594 1.59815 1.12776 0
M  V30 2943 C 283.974 0.403402 2.0721 0
M  V30 2944 O 283.322 -0.606667 2.20299 0
M  V30 2945 C 283.532 2.94664 1.87013 0
M  V30 2946 C 284.88 3.49109 2.41677 0
M  V30 2947 O 285.904 2.96669 1.97144 0
M  V30 2948 O 284.763 4.40775 3.23079 0
M  V30 2949 H 281.857 0.645376 0.517125 0
M  V30 2950 H 284.403 1.65553 0.37285 0
M  V30 2951 H 283.175 3.73061 1.18071 0
M  V30 2952 H 282.798 2.92401 2.69421 0
M  V30 2953 N 283.795 -0.628877 1.44509 0
M  V30 2954 C 285.044 -1.38437 1.4669 0
M  V30 2955 C 285.357 -1.95322 0.104272 0
M  V30 2956 O 286.563 -2.715 0.00362163 0
M  V30 2957 C 285.019 -2.50659 2.5826 0
M  V30 2958 C 284.627 -2.00277 4.0074 0
M  V30 2959 C 286.371 -3.27844 2.69664 0
M  V30 2960 C 284.278 -3.09854 5.0373 0
M  V30 2961 H 283.208 -0.520245 0.545766 0
M  V30 2962 H 285.859 -0.676313 1.70582 0
M  V30 2963 H 284.241 -3.2405 2.27612 0
M  V30 2964 H 285.415 -1.33736 4.40966 0
M  V30 2965 H 283.73 -1.35901 3.93599 0
M  V30 2966 H 286.327 -4.09534 3.43781 0
M  V30 2967 H 286.67 -3.77471 1.75559 0
M  V30 2968 H 287.203 -2.61543 2.99733 0
M  V30 2969 H 283.942 -2.65168 5.99472 0
M  V30 2970 H 283.462 -3.7503 4.68095 0
M  V30 2971 H 285.141 -3.74592 5.27532 0
M  V30 2972 N 285.273 -1.31445 -0.869486 0
M  V30 2973 C 286.223 -1.15731 -1.96444 0
M  V30 2974 C 287.207 -0.0681855 -1.60755 0
M  V30 2975 O 288.399 -0.293154 -1.74555 0
M  V30 2976 C 285.528 -0.867255 -3.32165 0
M  V30 2977 C 284.614 -1.99738 -3.74119 0
M  V30 2978 N 285.005 -3.24447 -3.88031 0
M  V30 2979 C 283.303 -1.89723 -4.03635 0
M  V30 2980 C 284.004 -3.98374 -4.23879 0
M  V30 2981 N 282.98 -3.26547 -4.3459 0
M  V30 2982 H 286.782 -2.10296 -2.05312 0
M  V30 2983 H 284.296 -1.23009 -1.06031 0
M  V30 2984 H 286.293 -0.735668 -4.10358 0
M  V30 2985 H 284.953 0.0701614 -3.24624 0
M  V30 2986 H 285.964 -3.59557 -3.72746 0
M  V30 2987 H 282.641 -1.03449 -4.04481 0
M  V30 2988 H 284.031 -5.05844 -4.42235 0
M  V30 2989 N 286.751 1.08385 -1.14413 0
M  V30 2990 C 287.714 2.13486 -0.834048 0
M  V30 2991 C 288.714 1.59988 0.161418 0
M  V30 2992 O 289.904 1.74071 -0.0669575 0
M  V30 2993 C 287.036 3.4003 -0.243354 0
M  V30 2994 H 288.229 2.42425 -1.7655 0
M  V30 2995 H 285.782 1.24101 -0.950189 0
M  V30 2996 H 286.517 3.16726 0.696807 0
M  V30 2997 H 286.302 3.80157 -0.960367 0
M  V30 2998 H 287.792 4.17577 -0.0436242 0
M  V30 2999 N 288.23 0.939286 1.26551 0
M  V30 3000 C 289.46 0.601663 1.97645 0
M  V30 3001 C 289.868 -0.827206 1.70159 0
M  V30 3002 O 289.211 -1.56291 0.965338 0
M  V30 3003 C 289.273 0.761725 3.51337 0
M  V30 3004 C 288.937 2.16487 4.0247 0
M  V30 3005 C 289.934 3.14016 4.14355 0
M  V30 3006 C 287.619 2.48494 4.36527 0
M  V30 3007 C 289.613 4.41654 4.59587 0
M  V30 3008 C 287.3 3.76364 4.81449 0
M  V30 3009 C 288.298 4.72758 4.92939 0
M  V30 3010 O 287.986 5.98352 5.36871 0
M  V30 3011 H 287.718 0.225758 0.637189 0
M  V30 3012 H 290.272 1.26178 1.62075 0
M  V30 3013 H 288.502 0.0444808 3.86674 0
M  V30 3014 H 290.191 0.427442 4.03643 0
M  V30 3015 H 290.957 2.90613 3.8829 0
M  V30 3016 H 286.836 1.74202 4.26819 0
M  V30 3017 H 290.38 5.16896 4.68471 0
M  V30 3018 H 286.277 3.99582 5.06956 0
M  V30 3019 H 287.045 6.01507 5.55096 0
M  V30 3020 N 289.708 -1.40897 0.706093 0
M  V30 3021 C 290.638 -2.33418 0.0620085 0
M  V30 3022 C 291.619 -1.52385 -0.755827 0
M  V30 3023 O 292.804 -1.80886 -0.706674 0
M  V30 3024 C 289.934 -3.36293 -0.867445 0
M  V30 3025 C 288.888 -4.27716 -0.155932 0
M  V30 3026 C 288.214 -5.2105 -1.20046 0
M  V30 3027 C 289.514 -5.12944 0.984149 0
M  V30 3028 H 291.208 -2.87527 0.83477 0
M  V30 3029 H 288.754 -1.38249 0.402875 0
M  V30 3030 H 290.707 -3.99949 -1.32735 0
M  V30 3031 H 289.431 -2.80556 -1.67199 0
M  V30 3032 H 288.09 -3.65498 0.284047 0
M  V30 3033 H 287.738 -4.61624 -1.99781 0
M  V30 3034 H 287.438 -5.83056 -0.729328 0
M  V30 3035 H 288.962 -5.87584 -1.66066 0
M  V30 3036 H 290.376 -5.70109 0.604048 0
M  V30 3037 H 288.773 -5.83945 1.38304 0
M  V30 3038 H 289.843 -4.49485 1.81911 0
M  V30 3039 N 291.186 -0.45159 -1.50991 0
M  V30 3040 C 292.118 0.388634 -2.25881 0
M  V30 3041 C 293.131 0.974041 -1.30446 0
M  V30 3042 O 294.32 0.865758 -1.56099 0
M  V30 3043 C 291.42 1.5571 -3.01011 0
M  V30 3044 C 290.593 1.08801 -4.23652 0
M  V30 3045 C 289.652 2.12825 -4.8124 0
M  V30 3046 O 288.678 1.71678 -5.42693 0
M  V30 3047 N 289.88 3.45453 -4.66522 0
M  V30 3048 H 292.645 -0.25329 -2.98628 0
M  V30 3049 H 290.206 -0.281268 -1.59438 0
M  V30 3050 H 292.198 2.24952 -3.3642 0
M  V30 3051 H 290.768 2.10409 -2.31186 0
M  V30 3052 H 289.988 0.22215 -3.93574 0
M  V30 3053 H 291.276 0.752213 -5.03209 0
M  V30 3054 H 290.674 3.81605 -4.17605 0
M  V30 3055 H 289.231 4.10549 -5.06254 0
M  V30 3056 N 292.664 1.56529 -0.183458 0
M  V30 3057 C 293.941 1.88959 0.50536 0
M  V30 3058 C 294.321 1.09523 1.80466 0
M  V30 3059 O 293.669 0.19278 2.27685 0
M  V30 3060 C 293.879 3.41162 0.73547 0
M  V30 3061 C 295.227 4.11155 1.06005 0
M  V30 3062 O 296.251 3.46548 0.823594 0
M  V30 3063 O 295.11 5.25318 1.50675 0
M  V30 3064 H 292.204 0.78441 0.261973 0
M  V30 3065 H 294.75 1.68231 -0.222802 0
M  V30 3066 H 293.522 3.90874 -0.182561 0
M  V30 3067 H 293.145 3.67543 1.51651 0
M  V30 3068 N 294.142 -0.090211 1.57342 0
M  V30 3069 C 295.089 -1.10909 2.02405 0
M  V30 3070 C 296.059 -1.39523 0.901252 0
M  V30 3071 O 297.244 -1.50903 1.1676 0
M  V30 3072 C 294.384 -2.42277 2.45755 0
M  V30 3073 C 293.497 -2.20352 3.71576 0
M  V30 3074 C 292.632 -3.45154 4.03785 0
M  V30 3075 C 291.671 -3.18512 5.22701 0
M  V30 3076 N 290.808 -4.35593 5.50639 0
M  V30 3077 H 295.648 -0.71782 2.89225 0
M  V30 3078 H 293.185 -0.342901 1.43048 0
M  V30 3079 H 295.143 -3.18951 2.68935 0
M  V30 3080 H 293.773 -2.79242 1.61938 0
M  V30 3081 H 292.825 -1.34458 3.55844 0
M  V30 3082 H 294.137 -1.96661 4.58395 0
M  V30 3083 H 293.291 -4.30233 4.27767 0
M  V30 3084 H 292.03 -3.71904 3.15498 0
M  V30 3085 H 291.035 -2.31827 4.98534 0
M  V30 3086 H 292.26 -2.93103 6.12591 0
M  V30 3087 H 290.206 -4.6241 4.6531 0
M  V30 3088 H 290.123 -4.1511 6.31838 0
M  V30 3089 H 291.391 -5.21723 5.7916 0
M  V30 3090 N 295.62 -1.53406 -0.361157 0
M  V30 3091 C 296.55 -1.83136 -1.44857 0
M  V30 3092 C 297.531 -0.685174 -1.5569 0
M  V30 3093 O 298.716 -0.93544 -1.70186 0
M  V30 3094 C 295.846 -2.02522 -2.82138 0
M  V30 3095 C 294.8 -3.18302 -2.86126 0
M  V30 3096 C 294.126 -3.22989 -4.26125 0
M  V30 3097 C 295.426 -4.56796 -2.53248 0
M  V30 3098 H 297.12 -2.74201 -1.20226 0
M  V30 3099 H 294.666 -1.31938 -0.576922 0
M  V30 3100 H 296.619 -2.21904 -3.58241 0
M  V30 3101 H 295.343 -1.08172 -3.08166 0
M  V30 3102 H 294.002 -2.98747 -2.12475 0
M  V30 3103 H 293.65 -2.26267 -4.49235 0
M  V30 3104 H 293.35 -4.00781 -4.29708 0
M  V30 3105 H 294.874 -3.44559 -5.04094 0
M  V30 3106 H 296.288 -4.7631 -3.19064 0
M  V30 3107 H 294.685 -5.36862 -2.68141 0
M  V30 3108 H 295.755 -4.61606 -1.48484 0
M  V30 3109 N 297.098 0.621204 -1.44841 0
M  V30 3110 C 298.061 1.71459 -1.521 0
M  V30 3111 C 299.061 1.55696 -0.401933 0
M  V30 3112 O 300.251 1.61011 -0.664925 0
M  V30 3113 C 297.383 3.10624 -1.40447 0
M  V30 3114 H 298.576 1.66394 -2.49506 0
M  V30 3115 H 296.129 0.835745 -1.3208 0
M  V30 3116 H 296.864 3.21277 -0.441737 0
M  V30 3117 H 296.649 3.23473 -2.21602 0
M  V30 3118 H 298.139 3.90293 -1.4853 0
M  V30 3119 N 298.576 1.31904 0.862503 0
M  V30 3120 C 299.526 1.16772 1.95827 0
M  V30 3121 C 300.51 0.0767098 1.60717 0
M  V30 3122 O 301.702 0.302407 1.74398 0
M  V30 3123 C 298.831 0.884858 3.317 0
M  V30 3124 C 297.917 2.0172 3.73055 0
M  V30 3125 N 298.308 3.265 3.86305 0
M  V30 3126 C 296.606 1.91861 4.02623 0
M  V30 3127 C 297.307 4.00616 4.2176 0
M  V30 3128 N 296.283 3.28847 4.32852 0
M  V30 3129 H 300.085 2.11382 2.04193 0
M  V30 3130 H 297.599 1.2357 1.05377 0
M  V30 3131 H 299.596 0.757419 4.09962 0
M  V30 3132 H 298.256 -0.0529448 3.24657 0
M  V30 3133 H 299.267 3.61529 3.70833 0
M  V30 3134 H 295.944 1.05593 4.03926 0
M  V30 3135 H 297.334 5.08182 4.39546 0
M  V30 3136 N 300.054 -1.07777 1.14986 0
M  V30 3137 C 301.002 -2.16964 0.838406 0
M  V30 3138 C 301.996 -1.68372 -0.186386 0
M  V30 3139 O 303.202 -1.79951 -0.0418465 0
M  V30 3140 H 299.577 -0.708006 0.253439 0
M  V30 3141 H 301.548 -2.40454 1.76704 0
M  V30 3142 C 300.297 -3.4604 0.339335 0
M  V30 3143 H 299.62 -3.83813 1.11927 0
M  V30 3144 H 301.06 -4.23698 0.160021 0
M  V30 3145 C 299.519 -3.23569 -0.938325 0
M  V30 3146 O 300.049 -3.47752 -2.01077 0
M  V30 3147 N 298.255 -2.77079 -0.876117 0
M  V30 3148 H 297.802 -2.576 -0.00322037 0
M  V30 3149 H 297.76 -2.62422 -1.73153 0
M  V30 3150 N 301.532 -0.945985 -1.26051 0
M  V30 3151 C 302.442 -0.465633 -2.29933 0
M  V30 3152 C 303.458 0.462761 -1.67733 0
M  V30 3153 O 304.634 0.341118 -1.9849 0
M  V30 3154 C 301.699 0.256994 -3.45746 0
M  V30 3155 C 300.76 -0.708549 -4.23412 0
M  V30 3156 C 299.993 -0.0203135 -5.33696 0
M  V30 3157 O 300.216 1.19571 -5.57726 0
M  V30 3158 O 299.15 -0.701459 -5.97799 0
M  V30 3159 H 302.976 -1.32866 -2.73094 0
M  V30 3160 H 300.561 -0.712071 -1.31339 0
M  V30 3161 H 302.443 0.663852 -4.16138 0
M  V30 3162 H 301.118 1.09533 -3.04605 0
M  V30 3163 H 300.025 -1.16545 -3.55483 0
M  V30 3164 H 301.358 -1.51465 -4.68315 0
M  V30 3165 N 303.011 1.40521 -0.713556 0
M  V30 3166 C 304.427 1.54839 -0.386907 0
M  V30 3167 C 304.627 1.68532 1.1045 0
M  V30 3168 O 303.683 1.67377 1.89053 0
M  V30 3169 C 304.996 2.77792 -1.15118 0
M  V30 3170 C 306.544 2.91607 -1.13729 0
M  V30 3171 C 307.019 4.1747 -1.88368 0
M  V30 3172 N 308.51 4.24466 -1.85427 0
M  V30 3173 C 309.245 5.20755 -2.40004 0
M  V30 3174 N 308.741 6.22965 -3.03129 0
M  V30 3175 N 310.534 5.1282 -2.30158 0
M  V30 3176 H 302.685 1.29879 -1.68063 0
M  V30 3177 H 304.948 0.627896 -0.710247 0
M  V30 3178 H 304.654 2.73944 -2.20561 0
M  V30 3179 H 304.528 3.6984 -0.741477 0
M  V30 3180 H 306.915 2.94959 -0.0910608 0
M  V30 3181 H 306.996 2.00682 -1.5862 0
M  V30 3182 H 306.64 4.1488 -2.9298 0
M  V30 3183 H 306.57 5.074 -1.40898 0
M  V30 3184 H 309.061 3.51241 -1.3942 0
M  V30 3185 H 309.374 6.92859 -3.42295 0
M  V30 3186 H 307.719 6.23415 -3.07212 0
M  V30 3187 H 310.91 4.31899 -1.80501 0
M  V30 3188 H 311.083 5.87689 -2.72993 0
M  V30 3189 N 304.489 0.459591 1.5075 0
M  V30 3190 C 305.736 -0.0993495 2.02256 0
M  V30 3191 C 306.064 -1.40751 1.34237 0
M  V30 3192 O 305.319 -1.90379 0.453228 0
M  V30 3193 C 305.618 -0.342866 3.55752 0
M  V30 3194 C 305.284 0.88218 4.42186 0
M  V30 3195 C 303.946 1.21808 4.65528 0
M  V30 3196 C 306.298 1.69837 4.92752 0
M  V30 3197 C 303.626 2.37045 5.36681 0
M  V30 3198 C 305.978 2.84192 5.65171 0
M  V30 3199 C 304.642 3.1821 5.8677 0
M  V30 3200 H 303.912 -0.0363545 0.740108 0
M  V30 3201 H 306.559 0.611329 1.8148 0
M  V30 3202 H 304.864 -1.13567 3.7498 0
M  V30 3203 H 306.561 -0.789121 3.93159 0
M  V30 3204 H 303.151 0.610467 4.2423 0
M  V30 3205 H 307.335 1.45205 4.74583 0
M  V30 3206 H 302.591 2.63689 5.51614 0
M  V30 3207 H 306.765 3.4779 6.03337 0
M  V30 3208 H 304.392 4.07613 6.41682 0
M  V30 3209 N 305.967 -1.56429 0.191757 0
M  V30 3210 C 307.213 -1.97777 -0.448554 0
M  V30 3211 C 307.546 -1.07847 -1.61501 0
M  V30 3212 O 306.821 -0.129774 -1.94067 0
M  V30 3213 C 307.104 -3.48362 -0.911906 0
M  V30 3214 C 306.957 -4.4907 0.256136 0
M  V30 3215 C 308.276 -4.02561 -1.77857 0
M  V30 3216 H 305.395 -0.719071 -0.161572 0
M  V30 3217 H 308.037 -1.87896 0.282007 0
M  V30 3218 H 306.187 -3.56914 -1.53442 0
M  V30 3219 H 307.859 -4.5256 0.893733 0
M  V30 3220 H 306.102 -4.24181 0.908436 0
M  V30 3221 H 306.773 -5.51889 -0.11053 0
M  V30 3222 H 309.249 -3.96767 -1.25359 0
M  V30 3223 H 308.125 -5.08301 -2.07174 0
M  V30 3224 H 308.386 -3.47616 -2.73158 0
M  V30 3225 N 307.445 0.0818655 -1.57387 0
M  V30 3226 C 308.691 0.784074 -1.8703 0
M  V30 3227 C 309.024 1.77729 -0.782689 0
M  V30 3228 O 308.299 1.93384 0.208051 0
M  V30 3229 C 308.582 1.50105 -3.27323 0
M  V30 3230 C 308.435 0.524925 -4.46727 0
M  V30 3231 C 309.754 2.44843 -3.65705 0
M  V30 3232 H 306.873 0.283582 -0.680257 0
M  V30 3233 H 309.515 0.0474352 -1.89941 0
M  V30 3234 H 307.665 2.12897 -3.24972 0
M  V30 3235 H 309.337 -0.0970111 -4.61198 0
M  V30 3236 H 307.58 -0.160606 -4.33503 0
M  V30 3237 H 308.251 1.064 -5.41648 0
M  V30 3238 H 310.727 1.92135 -3.69085 0
M  V30 3239 H 309.603 2.92018 -4.64776 0
M  V30 3240 H 309.864 3.29197 -2.95096 0
M  V30 3241 N 308.923 1.53595 0.353017 0
M  V30 3242 C 310.339 1.43648 0.695516 0
M  V30 3243 C 310.539 0.585617 1.92802 0
M  V30 3244 O 309.595 0.0729223 2.52395 0
M  V30 3245 C 310.908 2.8701 0.896991 0
M  V30 3246 C 312.456 2.96723 0.996209 0
M  V30 3247 C 312.931 4.41173 1.23007 0
M  V30 3248 N 314.422 4.44657 1.29749 0
M  V30 3249 C 315.157 5.53547 1.49577 0
M  V30 3250 N 314.653 6.72461 1.66639 0
M  V30 3251 N 316.446 5.41145 1.52048 0
M  V30 3252 H 308.597 2.07415 -0.457481 0
M  V30 3253 H 310.86 0.9372 -0.142687 0
M  V30 3254 H 310.566 3.51644 0.0629938 0
M  V30 3255 H 310.44 3.31401 1.80148 0
M  V30 3256 H 312.827 2.32235 1.82074 0
M  V30 3257 H 312.908 2.55707 0.0688331 0
M  V30 3258 H 312.552 5.06238 0.410505 0
M  V30 3259 H 312.482 4.79772 2.17086 0
M  V30 3260 H 314.973 3.58963 1.18126 0
M  V30 3261 H 315.286 7.51214 1.81378 0
M  V30 3262 H 313.631 6.75423 1.63794 0
M  V30 3263 H 316.822 4.47205 1.38294 0
M  V30 3264 H 316.995 6.26068 1.67159 0
M  V30 3265 N 310.401 -0.613514 1.45168 0
M  V30 3266 C 311.626 -1.40437 1.52618 0
M  V30 3267 C 312.051 -1.87438 0.157707 0
M  V30 3268 O 311.409 -1.59791 -0.856537 0
M  V30 3269 C 311.457 -2.58894 2.51011 0
M  V30 3270 O 310.561 -3.59326 2.02382 0
M  V30 3271 H 309.902 -0.419506 0.514695 0
M  V30 3272 H 312.432 -0.747215 1.90467 0
M  V30 3273 H 312.442 -3.06214 2.69624 0
M  V30 3274 H 311.117 -2.24032 3.50403 0
M  V30 3275 H 309.694 -3.18695 1.93618 0
M  V30 3276 N 311.879 -1.3236 -0.855495 0
M  V30 3277 C 312.826 -1.21225 -1.964 0
M  V30 3278 C 313.796 -0.0946204 -1.6583 0
M  V30 3279 O 314.981 -0.27002 -1.8888 0
M  V30 3280 C 312.121 -0.940419 -3.32039 0
M  V30 3281 C 311.234 -2.14276 -3.75113 0
M  V30 3282 C 310.369 -1.80648 -4.9954 0
M  V30 3283 C 309.408 -2.97208 -5.35102 0
M  V30 3284 N 308.545 -2.63678 -6.50706 0
M  V30 3285 H 313.385 -2.16042 -2.05255 0
M  V30 3286 H 310.922 -1.07451 -1.00463 0
M  V30 3287 H 312.88 -0.763311 -4.10158 0
M  V30 3288 H 311.51 -0.0290413 -3.22787 0
M  V30 3289 H 310.562 -2.43017 -2.92655 0
M  V30 3290 H 311.874 -3.01468 -3.97389 0
M  V30 3291 H 311.028 -1.59484 -5.85363 0
M  V30 3292 H 309.767 -0.906678 -4.79198 0
M  V30 3293 H 308.772 -3.19004 -4.47791 0
M  V30 3294 H 309.997 -3.87918 -5.57401 0
M  V30 3295 H 307.943 -1.76238 -6.31883 0
M  V30 3296 H 307.86 -3.444 -6.72997 0
M  V30 3297 H 309.128 -2.45942 -7.39684 0
M  V30 3298 N 313.357 1.07166 -1.15556 0
M  V30 3299 C 314.307 2.12649 -0.82247 0
M  V30 3300 C 315.291 1.59725 0.194129 0
M  V30 3301 O 316.483 1.76999 -0.00540402 0
M  V30 3302 C 313.612 3.41847 -0.315572 0
M  V30 3303 C 312.698 4.0162 -1.36244 0
M  V30 3304 N 313.089 4.35625 -2.5703 0
M  V30 3305 C 311.387 4.29114 -1.21562 0
M  V30 3306 C 312.088 4.83017 -3.24144 0
M  V30 3307 N 311.064 4.81906 -2.51531 0
M  V30 3308 H 314.866 2.36776 -1.74111 0
M  V30 3309 H 312.38 1.24622 -1.0413 0
M  V30 3310 H 314.377 4.16859 -0.0585855 0
M  V30 3311 H 313.037 3.19163 0.597105 0
M  V30 3312 H 314.048 4.26253 -2.94158 0
M  V30 3313 H 310.725 4.15919 -0.362988 0
M  V30 3314 H 312.115 5.18605 -4.27198 0
M  V30 3315 N 314.835 0.952656 1.25548 0
M  V30 3316 C 316.246 0.647392 1.75116 0
M  V30 3317 C 316.597 -0.837274 1.77438 0
M  V30 3318 O 315.722 -1.65525 1.39393 0
M  V30 3319 C 316.317 1.16845 3.18014 0
M  V30 3320 C 314.876 0.913382 3.6515 0
M  V30 3321 C 314.023 1.31265 2.44264 0
M  V30 3322 H 316.974 1.12968 1.11462 0
M  V30 3323 H 316.995 0.527606 3.76824 0
M  V30 3324 H 316.507 2.24902 3.16292 0
M  V30 3325 H 314.608 -0.152316 3.72289 0
M  V30 3326 H 314.721 1.54845 4.53387 0
M  V30 3327 H 313.085 0.731028 2.43984 0
M  V30 3328 H 313.868 2.40239 2.45234 0
M  V30 3329 N 316.313 -1.40141 0.720998 0
M  V30 3330 C 317.729 -1.54632 0.395113 0
M  V30 3331 C 317.929 -1.69115 -1.09555 0
M  V30 3332 O 316.985 -1.68377 -1.88163 0
M  V30 3333 C 318.298 -2.77177 1.1659 0
M  V30 3334 C 319.846 -2.91 1.15274 0
M  V30 3335 C 320.321 -4.16465 1.90579 0
M  V30 3336 N 321.812 -4.23476 1.87675 0
M  V30 3337 C 322.547 -5.19475 2.42762 0
M  V30 3338 N 322.043 -6.21348 3.06428 0
M  V30 3339 N 323.836 -5.11592 2.32874 0
M  V30 3340 H 315.987 -1.28986 1.68749 0
M  V30 3341 H 318.25 -0.62412 0.713567 0
M  V30 3342 H 317.956 -2.72771 2.22011 0
M  V30 3343 H 317.83 -3.69442 0.76108 0
M  V30 3344 H 320.217 -2.94907 0.106702 0
M  V30 3345 H 320.298 -1.99838 1.59682 0
M  V30 3346 H 319.942 -4.1332 2.95176 0
M  V30 3347 H 319.872 -5.06646 1.43587 0
M  V30 3348 H 322.363 -3.50497 1.41281 0
M  V30 3349 H 322.676 -6.91034 3.45965 0
M  V30 3350 H 321.021 -6.21777 3.10514 0
M  V30 3351 H 324.212 -4.30936 1.82789 0
M  V30 3352 H 324.385 -5.86233 2.76106 0
M  V30 3353 N 317.792 -0.46758 -1.50504 0
M  V30 3354 C 318.739 0.328413 -2.28452 0
M  V30 3355 C 319.709 0.990313 -1.33349 0
M  V30 3356 O 320.894 1.00343 -1.62284 0
M  V30 3357 C 318.034 1.40648 -3.15138 0
M  V30 3358 C 317.147 0.759709 -4.25267 0
M  V30 3359 C 316.282 1.81537 -4.99217 0
M  V30 3360 C 315.321 1.14866 -6.01226 0
M  V30 3361 N 314.458 2.14702 -6.68467 0
M  V30 3362 H 319.298 -0.342603 -2.96024 0
M  V30 3363 H 316.835 -0.180801 -1.45985 0
M  V30 3364 H 318.793 2.04315 -3.63746 0
M  V30 3365 H 317.423 2.04671 -2.49619 0
M  V30 3366 H 316.475 0.0105671 -3.80399 0
M  V30 3367 H 317.787 0.233243 -4.98254 0
M  V30 3368 H 316.941 2.52793 -5.51526 0
M  V30 3369 H 315.68 2.37564 -4.25928 0
M  V30 3370 H 314.685 0.42171 -5.4818 0
M  V30 3371 H 315.91 0.595334 -6.76485 0
M  V30 3372 H 313.856 2.69752 -5.97972 0
M  V30 3373 H 313.773 1.6703 -7.37317 0
M  V30 3374 H 315.041 2.85348 -7.25394 0
M  V30 3375 N 319.27 1.56325 -0.20005 0
M  V30 3376 C 320.547 1.89484 0.48529 0
M  V30 3377 C 320.927 1.1143 1.79294 0
M  V30 3378 O 320.275 0.216919 2.27468 0
M  V30 3379 C 320.485 3.41923 0.699243 0
M  V30 3380 C 321.833 4.12256 1.01638 0
M  V30 3381 O 322.857 3.47402 0.786792 0
M  V30 3382 O 321.716 5.26887 1.45095 0
M  V30 3383 H 318.81 0.787144 0.253639 0
M  V30 3384 H 321.356 1.67985 -0.240633 0
M  V30 3385 H 320.128 3.90658 -0.224008 0
M  V30 3386 H 319.751 3.69131 1.47744 0
M  V30 3387 N 320.748 -0.0735177 1.57428 0
M  V30 3388 C 321.994 -0.774145 1.87443 0
M  V30 3389 C 322.327 -1.77311 0.792103 0
M  V30 3390 O 321.602 -1.93492 -0.197793 0
M  V30 3391 C 321.885 -1.48367 3.28115 0
M  V30 3392 C 321.738 -0.501227 4.46999 0
M  V30 3393 C 323.057 -2.429 3.66998 0
M  V30 3394 H 320.176 -0.279971 0.681752 0
M  V30 3395 H 322.818 -0.0373616 1.89963 0
M  V30 3396 H 320.968 -2.11171 3.26097 0
M  V30 3397 H 322.64 0.121468 4.6114 0
M  V30 3398 H 320.883 0.183593 4.33411 0
M  V30 3399 H 321.554 -1.03526 5.42205 0
M  V30 3400 H 324.03 -1.90175 3.70098 0
M  V30 3401 H 322.906 -2.89549 4.66318 0
M  V30 3402 H 323.167 -3.27628 2.96837 0
M  V30 3403 N 322.226 -1.5378 -0.344866 0
M  V30 3404 C 323.136 -1.84667 -1.4469 0
M  V30 3405 C 324.152 -0.736704 -1.57635 0
M  V30 3406 O 325.328 -1.02888 -1.73136 0
M  V30 3407 C 322.393 -2.04869 -2.79696 0
M  V30 3408 C 321.454 -3.28731 -2.76106 0
M  V30 3409 C 320.687 -3.4796 -4.04673 0
M  V30 3410 O 320.91 -2.71052 -5.01883 0
M  V30 3411 O 319.844 -4.41383 -4.09224 0
M  V30 3412 H 323.67 -2.78334 -1.21506 0
M  V30 3413 H 321.255 -1.39418 -0.536921 0
M  V30 3414 H 323.137 -2.19609 -3.59652 0
M  V30 3415 H 321.812 -1.14391 -3.02814 0
M  V30 3416 H 320.719 -3.19396 -1.94774 0
M  V30 3417 H 322.052 -4.19198 -2.57941 0
M  V30 3418 N 323.704 0.605807 -1.45491 0
M  V30 3419 C 324.929 1.39625 -1.53361 0
M  V30 3420 C 325.354 1.87351 -0.167645 0
M  V30 3421 O 324.712 1.60243 0.848051 0
M  V30 3422 C 324.76 2.57559 -2.5238 0
M  V30 3423 O 323.864 3.58248 -2.04285 0
M  V30 3424 H 323.205 0.416771 -0.516912 0
M  V30 3425 H 325.735 0.737103 -1.90861 0
M  V30 3426 H 325.745 3.0478 -2.71244 0
M  V30 3427 H 324.42 2.22171 -3.51586 0
M  V30 3428 H 322.997 3.17664 -1.95305 0
M  V30 3429 N 325.182 1.32811 0.848464 0
M  V30 3430 C 326.43 1.23479 1.59991 0
M  V30 3431 C 326.751 -0.201853 1.93952 0
M  V30 3432 O 326.021 -1.12818 1.60153 0
M  V30 3433 H 324.601 0.454034 0.593179 0
M  V30 3434 H 327.263 1.66412 1.01455 0
M  V30 3435 H 326.359 1.82178 2.53412 0
M  V30 3436 N 326.66 -1.06551 1.16123 0
M  V30 3437 C 327.59 -2.15935 0.88851 0
M  V30 3438 C 328.571 -1.69306 -0.164135 0
M  V30 3439 O 329.756 -1.94193 -0.0167857 0
M  V30 3440 C 326.886 -3.45149 0.385942 0
M  V30 3441 C 325.84 -4.05271 1.3762 0
M  V30 3442 C 325.166 -5.29664 0.732137 0
M  V30 3443 C 326.466 -4.44355 2.74493 0
M  V30 3444 H 328.16 -2.39006 1.80323 0
M  V30 3445 H 325.706 -1.14866 0.868435 0
M  V30 3446 H 327.659 -4.21004 0.182647 0
M  V30 3447 H 326.383 -3.21689 -0.564274 0
M  V30 3448 H 325.042 -3.3147 1.56599 0
M  V30 3449 H 324.69 -5.02499 -0.224483 0
M  V30 3450 H 324.39 -5.70848 1.39307 0
M  V30 3451 H 325.914 -6.08218 0.538802 0
M  V30 3452 H 327.328 -5.11303 2.59311 0
M  V30 3453 H 325.725 -4.96515 3.37035 0
M  V30 3454 H 326.795 -3.55339 3.29943 0
M  V30 3455 N 328.138 -0.959301 -1.25041 0
M  V30 3456 C 329.368 -0.63303 -1.96663 0
M  V30 3457 C 329.776 0.800031 -1.71453 0
M  V30 3458 O 329.119 1.54736 -0.99008 0
M  V30 3459 C 329.181 -0.817523 -3.50081 0
M  V30 3460 C 328.845 -2.22863 -3.98975 0
M  V30 3461 C 329.842 -3.20569 -4.09306 0
M  V30 3462 C 327.527 -2.55407 -4.32519 0
M  V30 3463 C 329.521 -4.4891 -4.52503 0
M  V30 3464 C 327.208 -3.83976 -4.754 0
M  V30 3465 C 328.206 -4.8054 -4.85356 0
M  V30 3466 O 327.894 -6.06817 -5.27284 0
M  V30 3467 H 327.626 -0.235866 -0.633516 0
M  V30 3468 H 330.18 -1.2874 -1.60047 0
M  V30 3469 H 328.41 -0.105992 -3.86555 0
M  V30 3470 H 330.099 -0.491604 -4.02912 0
M  V30 3471 H 330.865 -2.96753 -3.83618 0
M  V30 3472 H 326.744 -1.8097 -4.23994 0
M  V30 3473 H 330.288 -5.24283 -4.60188 0
M  V30 3474 H 326.185 -4.07596 -5.00535 0
M  V30 3475 H 326.953 -6.10262 -5.45457 0
M  V30 3476 N 329.616 1.39756 -0.72842 0
M  V30 3477 C 330.546 2.33289 -0.0991354 0
M  V30 3478 C 331.527 1.53568 0.731489 0
M  V30 3479 O 332.712 1.81987 0.677807 0
M  V30 3480 C 329.842 3.3763 0.813834 0
M  V30 3481 C 328.796 4.2791 0.0878663 0
M  V30 3482 C 328.122 5.22894 1.11741 0
M  V30 3483 C 329.422 5.11314 -1.06563 0
M  V30 3484 H 331.116 2.86163 -0.880408 0
M  V30 3485 H 328.662 1.37591 -0.424819 0
M  V30 3486 H 330.615 4.0201 1.26355 0
M  V30 3487 H 329.339 2.83181 1.62715 0
M  V30 3488 H 327.998 3.65 -0.342159 0
M  V30 3489 H 327.646 4.64744 1.92412 0
M  V30 3490 H 327.346 5.84143 0.636477 0
M  V30 3491 H 328.87 5.90151 1.56697 0
M  V30 3492 H 330.284 5.69076 -0.694671 0
M  V30 3493 H 328.681 5.81671 -1.47577 0
M  V30 3494 H 329.751 4.46534 -1.89038 0
M  V30 3495 N 331.094 0.475555 1.50254 0
M  V30 3496 C 332.324 -0.0753399 2.06463 0
M  V30 3497 C 332.732 -1.33661 1.33908 0
M  V30 3498 O 332.075 -1.79219 0.403257 0
M  V30 3499 C 332.137 -0.424921 3.5698 0
M  V30 3500 C 331.801 0.734965 4.51051 0
M  V30 3501 C 332.798 1.61827 4.94073 0
M  V30 3502 C 330.483 0.926557 4.9368 0
M  V30 3503 C 332.477 2.67754 5.78434 0
M  V30 3504 C 330.164 1.98904 5.77824 0
M  V30 3505 C 331.162 2.8629 6.20103 0
M  V30 3506 O 330.85 3.90708 7.02568 0
M  V30 3507 H 330.582 0.00576308 0.675975 0
M  V30 3508 H 333.136 0.664662 1.94349 0
M  V30 3509 H 331.366 -1.21817 3.67012 0
M  V30 3510 H 333.055 -0.911422 3.95535 0
M  V30 3511 H 333.821 1.48196 4.61804 0
M  V30 3512 H 329.7 0.25584 4.6029 0
M  V30 3513 H 333.244 3.35992 6.11355 0
M  V30 3514 H 329.141 2.12541 6.09505 0
M  V30 3515 H 329.909 3.87751 7.20827 0
M  V30 3516 N 332.573 -1.56217 0.208337 0
M  V30 3517 C 333.85 -1.89739 -0.475234 0
M  V30 3518 C 334.23 -1.1238 -1.78701 0
M  V30 3519 O 333.578 -0.228979 -2.2735 0
M  V30 3520 C 333.788 -3.42289 -0.681101 0
M  V30 3521 C 335.136 -4.12789 -0.994507 0
M  V30 3522 O 336.16 -3.47814 -0.768357 0
M  V30 3523 O 335.019 -5.27649 -1.42299 0
M  V30 3524 H 332.113 -0.788478 -0.249461 0
M  V30 3525 H 334.659 -1.67855 0.249538 0
M  V30 3526 H 333.431 -3.90534 0.244722 0
M  V30 3527 H 333.054 -3.69909 -1.45785 0
M  V30 3528 N 334.051 0.0651679 -1.57465 0
M  V30 3529 C 335.001 1.0838 -2.00594 0
M  V30 3530 C 335.985 1.34106 -0.889071 0
M  V30 3531 O 337.177 1.34295 -1.15299 0
M  V30 3532 C 334.306 2.39565 -2.45894 0
M  V30 3533 C 333.392 2.17085 -3.64328 0
M  V30 3534 N 333.783 1.64553 -4.78285 0
M  V30 3535 C 332.081 2.4753 -3.71006 0
M  V30 3536 C 332.782 1.57042 -5.60101 0
M  V30 3537 N 331.758 2.03328 -5.04141 0
M  V30 3538 H 335.56 0.671062 -2.86136 0
M  V30 3539 H 333.074 0.27213 -1.60104 0
M  V30 3540 H 335.071 3.13308 -2.75034 0
M  V30 3541 H 333.731 2.81549 -1.61741 0
M  V30 3542 H 334.742 1.33323 -5.00445 0
M  V30 3543 H 331.419 2.92835 -2.9758 0
M  V30 3544 H 332.809 1.17223 -6.61595 0
M  V30 3545 N 335.529 1.53961 0.336706 0
M  V30 3546 C 336.459 1.85417 1.41925 0
M  V30 3547 C 337.44 0.709856 1.5458 0
M  V30 3548 O 338.625 0.962396 1.68676 0
M  V30 3549 C 335.755 2.06985 2.78881 0
M  V30 3550 C 334.709 3.22813 2.81026 0
M  V30 3551 C 334.035 3.29727 4.20932 0
M  V30 3552 C 335.335 4.60767 2.45949 0
M  V30 3553 H 337.029 2.76079 1.15848 0
M  V30 3554 H 334.575 1.32839 0.555859 0
M  V30 3555 H 336.528 2.27575 3.54665 0
M  V30 3556 H 335.252 1.13061 3.06406 0
M  V30 3557 H 333.911 3.0209 2.07695 0
M  V30 3558 H 333.559 2.33385 4.45579 0
M  V30 3559 H 333.259 4.07566 4.23277 0
M  V30 3560 H 334.783 3.52536 4.98549 0
M  V30 3561 H 336.197 4.81325 3.11446 0
M  V30 3562 H 334.594 5.4106 2.59566 0
M  V30 3563 H 335.664 4.6391 1.41122 0
M  V30 3564 N 337.007 -0.598083 1.45811 0
M  V30 3565 C 337.954 -1.7082 1.55207 0
M  V30 3566 C 338.924 -1.61278 0.39732 0
M  V30 3567 O 340.109 -1.80717 0.612038 0
M  V30 3568 C 337.249 -3.09144 1.53376 0
M  V30 3569 C 336.362 -3.29423 2.79472 0
M  V30 3570 C 335.497 -4.57907 2.69248 0
M  V30 3571 C 334.536 -4.71476 3.90354 0
M  V30 3572 N 333.673 -5.9127 3.78608 0
M  V30 3573 H 338.513 -1.62125 2.50039 0
M  V30 3574 H 336.05 -0.790389 1.24062 0
M  V30 3575 H 338.008 -3.89186 1.50301 0
M  V30 3576 H 336.638 -3.16773 0.620876 0
M  V30 3577 H 335.69 -2.43091 2.92594 0
M  V30 3578 H 337.002 -3.3532 3.69272 0
M  V30 3579 H 336.156 -5.46157 2.64192 0
M  V30 3580 H 334.895 -4.54423 1.77063 0
M  V30 3581 H 333.9 -3.81648 3.95759 0
M  V30 3582 H 335.125 -4.76751 4.83617 0
M  V30 3583 H 333.071 -5.88813 2.89199 0
M  V30 3584 H 332.988 -5.98369 4.6205 0
M  V30 3585 H 334.256 -6.81992 3.77501 0
M  V30 3586 N 338.485 -1.33259 -0.841409 0
M  V30 3587 C 339.433 -1.23279 -1.97244 0
M  V30 3588 C 340.427 -0.134706 -1.68864 0
M  V30 3589 O 341.633 -0.298501 -1.77508 0
M  V30 3590 H 338.008 -0.382497 -0.647457 0
M  V30 3591 H 339.979 -2.18906 -2.02787 0
M  V30 3592 C 338.728 -0.986268 -3.33419 0
M  V30 3593 H 338.051 -1.82347 -3.55794 0
M  V30 3594 H 339.491 -0.956728 -4.13065 0
M  V30 3595 C 337.95 0.310842 -3.35463 0
M  V30 3596 O 338.48 1.31838 -3.79449 0
M  V30 3597 N 336.686 0.337485 -2.88634 0
M  V30 3598 H 336.233 -0.482967 -2.53032 0
M  V30 3599 H 336.191 1.20518 -2.90384 0
M  V30 3600 N 339.963 1.05934 -1.16686 0
M  V30 3601 C 340.895 2.13468 -0.834503 0
M  V30 3602 C 341.908 1.62013 0.15984 0
M  V30 3603 O 343.097 1.7838 -0.0654228 0
M  V30 3604 C 340.197 3.3817 -0.222361 0
M  V30 3605 C 339.37 4.18928 -1.25771 0
M  V30 3606 C 338.429 5.21985 -0.664703 0
M  V30 3607 O 337.455 5.53334 -1.33453 0
M  V30 3608 N 338.657 5.77919 0.546834 0
M  V30 3609 H 341.422 2.42578 -1.75999 0
M  V30 3610 H 338.983 1.21967 -1.06469 0
M  V30 3611 H 340.975 4.04266 0.187472 0
M  V30 3612 H 339.545 3.06655 0.606758 0
M  V30 3613 H 338.765 3.48433 -1.84358 0
M  V30 3614 H 340.053 4.69687 -1.95631 0
M  V30 3615 H 339.451 5.54721 1.10912 0
M  V30 3616 H 338.008 6.45573 0.898829 0
M  V30 3617 N 341.441 0.965919 1.2453 0
M  V30 3618 C 342.852 0.665929 1.7442 0
M  V30 3619 C 343.203 -0.818407 1.78316 0
M  V30 3620 O 342.328 -1.64037 1.41141 0
M  V30 3621 C 342.923 1.20211 3.16757 0
M  V30 3622 C 341.482 0.952059 3.6416 0
M  V30 3623 C 340.629 1.33848 2.42858 0
M  V30 3624 H 343.58 1.14144 1.10258 0
M  V30 3625 H 343.601 0.567544 3.76244 0
M  V30 3626 H 343.113 2.28244 3.13889 0
M  V30 3627 H 341.214 -0.112821 3.72429 0
M  V30 3628 H 341.327 1.59645 4.51719 0
M  V30 3629 H 339.691 0.756864 2.43195 0
M  V30 3630 H 340.474 2.42827 2.42673 0
M  V30 3631 N 342.919 -1.39368 0.735821 0
M  V30 3632 C 343.829 -2.34395 0.0979693 0
M  V30 3633 C 344.845 -1.58361 -0.720968 0
M  V30 3634 O 346.021 -1.90648 -0.649245 0
M  V30 3635 C 343.086 -3.37393 -0.797916 0
M  V30 3636 C 342.147 -4.29287 0.0333662 0
M  V30 3637 C 341.38 -5.27365 -0.819854 0
M  V30 3638 O 341.603 -5.31959 -2.05855 0
M  V30 3639 O 340.537 -6.01389 -0.248079 0
M  V30 3640 H 344.363 -2.90601 0.882315 0
M  V30 3641 H 341.948 -1.40909 0.4965 0
M  V30 3642 H 343.83 -4.00505 -1.31048 0
M  V30 3643 H 342.505 -2.83571 -1.56106 0
M  V30 3644 H 341.412 -3.69395 0.591475 0
M  V30 3645 H 342.745 -4.86317 0.758752 0
M  V30 3646 N 344.397 -0.483516 -1.5 0
M  V30 3647 C 345.327 0.293829 -2.31644 0
M  V30 3648 C 346.308 0.978864 -1.39112 0
M  V30 3649 O 347.493 0.973644 -1.68029 0
M  V30 3650 C 344.623 1.36897 -3.19181 0
M  V30 3651 C 343.577 0.804833 -4.20365 0
M  V30 3652 C 342.903 1.9792 -4.96721 0
M  V30 3653 C 344.203 -0.192313 -5.21946 0
M  V30 3654 H 345.897 -0.387616 -2.9688 0
M  V30 3655 H 343.443 -0.187856 -1.42769 0
M  V30 3656 H 345.396 1.92037 -3.751 0
M  V30 3657 H 344.12 2.07936 -2.51853 0
M  V30 3658 H 342.779 0.275319 -3.65565 0
M  V30 3659 H 342.427 2.67686 -4.25856 0
M  V30 3660 H 342.127 1.60789 -5.65173 0
M  V30 3661 H 343.651 2.53526 -5.55479 0
M  V30 3662 H 345.065 0.270333 -5.72662 0
M  V30 3663 H 343.462 -0.478543 -5.98189 0
M  V30 3664 H 344.532 -1.11409 -4.71928 0
M  V30 3665 N 345.875 1.56104 -0.216619 0
M  V30 3666 C 347.123 1.97781 0.415593 0
M  V30 3667 C 347.444 1.10536 1.60645 0
M  V30 3668 O 346.714 0.181303 1.95059 0
M  V30 3669 H 345.294 0.730415 0.156534 0
M  V30 3670 H 347.956 1.92445 -0.308366 0
M  V30 3671 H 347.052 3.03072 0.74525 0
M  V30 3672 N 347.353 -0.0568162 1.57498 0
M  V30 3673 C 348.601 -0.751617 1.87604 0
M  V30 3674 C 348.922 -1.77351 0.81066 0
M  V30 3675 O 348.192 -1.95254 -0.159018 0
M  V30 3676 H 346.772 -0.280583 0.692302 0
M  V30 3677 H 349.434 -0.0293483 1.94878 0
M  V30 3678 H 348.53 -1.25852 2.856 0
M  V30 3679 N 348.832 -1.54138 -0.328536 0
M  V30 3680 C 350.062 -1.75807 -1.08516 0
M  V30 3681 C 350.47 -0.50428 -1.82356 0
M  V30 3682 O 349.813 0.534451 -1.75754 0
M  V30 3683 C 349.875 -2.89423 -2.13248 0
M  V30 3684 C 349.539 -4.28504 -1.5885 0
M  V30 3685 C 350.536 -5.09536 -1.03289 0
M  V30 3686 C 348.221 -4.75034 -1.63243 0
M  V30 3687 C 350.215 -6.35206 -0.52845 0
M  V30 3688 C 347.902 -6.00672 -1.12411 0
M  V30 3689 C 348.9 -6.80592 -0.573062 0
M  V30 3690 O 348.588 -8.03867 -0.0723692 0
M  V30 3691 H 348.32 -0.590633 -0.328829 0
M  V30 3692 H 350.874 -2.01819 -0.381868 0
M  V30 3693 H 349.104 -2.5897 -2.87178 0
M  V30 3694 H 350.793 -2.98921 -2.74592 0
M  V30 3695 H 351.559 -4.74745 -0.99206 0
M  V30 3696 H 347.438 -4.12875 -2.05074 0
M  V30 3697 H 350.982 -6.97532 -0.0976774 0
M  V30 3698 H 346.879 -6.34955 -1.162 0
M  V30 3699 H 347.647 -8.18283 -0.188258 0
M  V30 3700 N 350.31 0.590341 -1.46126 0
M  V30 3701 C 351.242 1.71427 -1.52136 0
M  V30 3702 C 352.255 1.57542 -0.41042 0
M  V30 3703 O 353.444 1.65106 -0.678389 0
M  V30 3704 C 350.544 3.09605 -1.37834 0
M  V30 3705 C 349.717 3.49566 -2.62912 0
M  V30 3706 C 348.776 4.66773 -2.42918 0
M  V30 3707 O 347.802 4.73019 -3.1661 0
M  V30 3708 N 349.004 5.61161 -1.4859 0
M  V30 3709 H 351.769 1.66728 -2.49042 0
M  V30 3710 H 349.33 0.776113 -1.42085 0
M  V30 3711 H 351.322 3.85796 -1.22243 0
M  V30 3712 H 349.892 3.08714 -0.491393 0
M  V30 3713 H 349.112 2.63158 -2.93499 0
M  V30 3714 H 350.4 3.73028 -3.46017 0
M  V30 3715 H 349.798 5.58844 -0.87808 0
M  V30 3716 H 348.355 6.36814 -1.38965 0
M  V30 3717 N 351.788 1.33704 0.83433 0
M  V30 3718 C 353.037 1.24763 1.58484 0
M  V30 3719 C 353.35 -0.183775 1.94735 0
M  V30 3720 O 354.556 -0.395234 2.68608 0
M  V30 3721 C 353.012 2.18638 2.85876 0
M  V30 3722 C 352.62 3.66974 2.56971 0
M  V30 3723 C 354.364 2.18581 3.63899 0
M  V30 3724 C 352.271 4.5275 3.80488 0
M  V30 3725 H 351.201 0.463425 0.594772 0
M  V30 3726 H 353.852 1.58797 0.919551 0
M  V30 3727 H 352.234 1.77542 3.5397 0
M  V30 3728 H 353.408 4.16538 1.9706 0
M  V30 3729 H 351.723 3.69366 1.92244 0
M  V30 3730 H 354.32 2.79894 4.55591 0
M  V30 3731 H 354.663 1.18207 3.99165 0
M  V30 3732 H 355.196 2.58062 3.02735 0
M  V30 3733 H 351.935 5.54017 3.5035 0
M  V30 3734 H 351.455 4.07927 4.39722 0
M  V30 3735 H 353.134 4.66784 4.4802 0
M  V30 3736 N 353.266 -1.05314 1.17247 0
M  V30 3737 C 354.491 -1.82509 0.985148 0
M  V30 3738 C 354.916 -1.82343 -0.461788 0
M  V30 3739 O 354.274 -1.23151 -1.33055 0
M  V30 3740 C 354.322 -3.26566 1.52929 0
M  V30 3741 O 353.426 -4.05666 0.742225 0
M  V30 3742 H 352.767 -0.564347 0.349869 0
M  V30 3743 H 355.297 -1.32718 1.55715 0
M  V30 3744 H 355.307 -3.77369 1.55103 0
M  V30 3745 H 353.982 -3.26001 2.58256 0
M  V30 3746 H 352.559 -3.64397 0.791794 0
M  V30 3747 N 354.744 -0.972509 -1.24016 0
M  V30 3748 C 355.993 -0.632603 -1.91523 0
M  V30 3749 C 356.306 0.836641 -1.76804 0
M  V30 3750 O 357.512 1.28728 -2.39043 0
M  V30 3751 C 355.968 -1.08082 -3.43287 0
M  V30 3752 C 355.576 -2.57386 -3.66683 0
M  V30 3753 C 357.32 -0.814288 -4.16617 0
M  V30 3754 C 355.227 -2.95915 -5.12043 0
M  V30 3755 H 354.157 -0.232898 -0.717129 0
M  V30 3756 H 356.808 -1.17936 -1.40582 0
M  V30 3757 H 355.19 -0.462339 -3.93292 0
M  V30 3758 H 356.364 -3.24405 -3.27258 0
M  V30 3759 H 354.679 -2.81701 -3.06649 0
M  V30 3760 H 357.276 -1.0781 -5.23718 0
M  V30 3761 H 357.619 0.24955 -4.15551 0
M  V30 3762 H 358.152 -1.39397 -3.72577 0
M  V30 3763 H 354.891 -4.0139 -5.18234 0
M  V30 3764 H 354.411 -2.33584 -5.52448 0
M  V30 3765 H 356.09 -2.86086 -5.80314 0
M  V30 3766 N 356.222 1.38976 -0.743202 0
M  V30 3767 C 357.633 1.83123 -0.363732 0
M  V30 3768 C 357.984 1.6205 1.10609 0
M  V30 3769 O 357.109 1.11606 1.854 0
M  V30 3770 C 357.704 3.32439 -0.653408 0
M  V30 3771 C 356.263 3.74974 -0.327338 0
M  V30 3772 C 355.41 2.61878 -0.911875 0
M  V30 3773 H 358.361 1.27852 -0.940191 0
M  V30 3774 H 358.382 3.80432 0.0720031 0
M  V30 3775 H 357.894 3.47745 -1.72323 0
M  V30 3776 H 355.995 3.65252 0.736314 0
M  V30 3777 H 356.108 4.72106 -0.815631 0
M  V30 3778 H 354.472 2.52448 -0.337944 0
M  V30 3779 H 355.255 2.79987 -1.98651 0
M  V30 3780 N 357.7 0.491464 1.49741 0
M  V30 3781 C 358.632 -0.328609 2.26832 0
M  V30 3782 C 359.645 -0.939113 1.32983 0
M  V30 3783 O 360.834 -0.824067 1.58339 0
M  V30 3784 C 357.934 -1.47675 3.05033 0
M  V30 3785 C 357.107 -0.975305 4.26388 0
M  V30 3786 C 356.166 -1.99991 4.86714 0
M  V30 3787 O 355.192 -1.57229 5.47054 0
M  V30 3788 N 356.394 -3.32962 4.75517 0
M  V30 3789 H 359.159 0.332377 2.97851 0
M  V30 3790 H 356.72 0.323441 1.58636 0
M  V30 3791 H 358.712 -2.15954 3.42266 0
M  V30 3792 H 357.282 -2.04206 2.36683 0
M  V30 3793 H 356.502 -0.117723 3.94024 0
M  V30 3794 H 357.79 -0.618531 5.05026 0
M  V30 3795 H 357.188 -3.70399 4.27576 0
M  V30 3796 H 355.745 -3.96982 5.16961 0
M  V30 3797 N 359.178 -1.55987 0.224894 0
M  V30 3798 C 360.125 -2.20436 -0.68385 0
M  V30 3799 C 361.095 -1.16102 -1.18783 0
M  V30 3800 O 362.28 -1.4447 -1.24632 0
M  V30 3801 C 359.42 -2.89076 -1.88491 0
M  V30 3802 C 358.533 -4.08012 -1.41951 0
M  V30 3803 C 357.668 -4.64426 -2.5784 0
M  V30 3804 C 356.707 -5.75656 -2.08053 0
M  V30 3805 N 355.844 -6.26347 -3.17227 0
M  V30 3806 H 360.684 -2.97727 -0.12754 0
M  V30 3807 H 358.221 -1.47011 -0.0511978 0
M  V30 3808 H 360.179 -3.27059 -2.59014 0
M  V30 3809 H 358.809 -2.14298 -2.41405 0
M  V30 3810 H 357.861 -3.75492 -0.609095 0
M  V30 3811 H 359.173 -4.88375 -1.01447 0
M  V30 3812 H 358.327 -5.04869 -3.3644 0
M  V30 3813 H 357.066 -3.83233 -3.01635 0
M  V30 3814 H 356.071 -5.34712 -1.27916 0
M  V30 3815 H 357.296 -6.58686 -1.65255 0
M  V30 3816 H 355.242 -5.48067 -3.60497 0
M  V30 3817 H 355.159 -7.01843 -2.80986 0
M  V30 3818 H 356.427 -6.71447 -3.95953 0
M  V30 3819 N 360.656 0.0484629 -1.57525 0
M  V30 3820 C 361.904 0.741657 -1.88 0
M  V30 3821 C 362.225 1.76918 -0.820054 0
M  V30 3822 O 361.495 1.95335 0.148661 0
M  V30 3823 H 360.075 0.276908 -0.69378 0
M  V30 3824 H 362.737 0.019013 -1.94891 0
M  V30 3825 H 361.833 1.24336 -2.86264 0
M  V30 3826 N 362.134 1.5431 0.320358 0
M  V30 3827 C 363.38 1.72924 1.05949 0
M  V30 3828 C 363.713 0.503185 1.87568 0
M  V30 3829 O 362.988 -0.499839 1.87968 0
M  V30 3830 C 363.271 3.00676 1.98156 0
M  V30 3831 C 363.124 4.3354 1.19845 0
M  V30 3832 C 364.443 3.24198 2.9763 0
M  V30 3833 H 361.562 0.629195 0.383774 0
M  V30 3834 H 364.204 1.87008 0.335854 0
M  V30 3835 H 362.354 2.888 2.59859 0
M  V30 3836 H 364.026 4.57305 0.605773 0
M  V30 3837 H 362.269 4.309 0.500784 0
M  V30 3838 H 362.94 5.19156 1.87567 0
M  V30 3839 H 365.416 3.35557 2.4605 0
M  V30 3840 H 364.292 4.14938 3.59329 0
M  V30 3841 H 364.553 2.41577 3.7026 0
M  V30 3842 N 363.613 -0.582584 1.46437 0
M  V30 3843 C 364.859 -1.34278 1.51978 0
M  V30 3844 C 365.192 -1.93446 0.170973 0
M  V30 3845 O 364.467 -1.76481 -0.817608 0
M  V30 3846 C 364.75 -2.47203 2.61845 0
M  V30 3847 C 364.603 -1.93069 4.06257 0
M  V30 3848 C 365.922 -3.49247 2.67795 0
M  V30 3849 H 363.041 -0.486876 0.553282 0
M  V30 3850 H 365.683 -0.654437 1.78374 0
M  V30 3851 H 363.833 -3.0592 2.39469 0
M  V30 3852 H 365.505 -1.38808 4.3992 0
M  V30 3853 H 363.748 -1.23898 4.1573 0
M  V30 3854 H 364.419 -2.74586 4.7886 0
M  V30 3855 H 366.895 -3.00411 2.8791 0
M  V30 3856 H 365.771 -4.25719 3.46489 0
M  V30 3857 H 366.032 -4.06482 1.73852 0
M  V30 3858 N 365.091 -1.34144 -0.827227 0
M  V30 3859 C 366.368 -1.16844 -1.56865 0
M  V30 3860 C 366.748 0.260654 -2.09485 0
M  V30 3861 O 366.096 1.26138 -1.9053 0
M  V30 3862 C 366.306 -2.21939 -2.6934 0
M  V30 3863 C 367.654 -2.56695 -3.3822 0
M  V30 3864 O 368.678 -2.20695 -2.79593 0
M  V30 3865 O 367.537 -3.18518 -4.44082 0
M  V30 3866 H 364.631 -0.452669 -0.692112 0
M  V30 3867 H 367.177 -1.45763 -0.868973 0
M  V30 3868 H 365.949 -3.17882 -2.28182 0
M  V30 3869 H 365.572 -1.94172 -3.46962 0
M  V30 3870 N 366.569 1.04691 -1.17803 0
M  V30 3871 C 367.516 2.12557 -0.899343 0
M  V30 3872 C 368.486 1.65339 0.158771 0
M  V30 3873 O 369.671 1.90789 0.0204797 0
M  V30 3874 C 366.811 3.42481 -0.424315 0
M  V30 3875 C 365.924 4.03346 -1.54713 0
M  V30 3876 C 365.059 5.21208 -1.02546 0
M  V30 3877 C 364.098 5.74089 -2.12339 0
M  V30 3878 N 363.235 6.83247 -1.61612 0
M  V30 3879 H 368.075 2.35734 -1.823 0
M  V30 3880 H 365.612 1.1564 -0.909159 0
M  V30 3881 H 367.57 4.16996 -0.130421 0
M  V30 3882 H 366.2 3.19471 0.462377 0
M  V30 3883 H 365.252 3.2622 -1.95664 0
M  V30 3884 H 366.564 4.38628 -2.37501 0
M  V30 3885 H 365.718 6.02812 -0.685718 0
M  V30 3886 H 364.457 4.87414 -0.167084 0
M  V30 3887 H 363.462 4.91111 -2.47165 0
M  V30 3888 H 364.687 6.0993 -2.98601 0
M  V30 3889 H 362.633 6.5134 -0.780533 0
M  V30 3890 H 362.55 7.17559 -2.38003 0
M  V30 3891 H 363.818 7.68491 -1.30545 0
M  V30 3892 N 368.047 0.979072 1.23499 0
M  V30 3893 C 369.463 0.687475 1.44034 0
M  V30 3894 C 369.663 -0.746801 1.8715 0
M  V30 3895 O 368.719 -1.51939 2.0167 0
M  V30 3896 C 370.032 1.68127 2.49307 0
M  V30 3897 C 371.58 1.69516 2.63122 0
M  V30 3898 C 372.055 2.67723 3.71603 0
M  V30 3899 N 373.546 2.66233 3.79044 0
M  V30 3900 C 374.281 3.38891 4.62537 0
M  V30 3901 N 373.777 4.21103 5.50131 0
M  V30 3902 N 375.57 3.27661 4.56721 0
M  V30 3903 H 367.721 1.90559 0.938135 0
M  V30 3904 H 369.984 0.821051 0.473897 0
M  V30 3905 H 369.69 2.70693 2.2454 0
M  V30 3906 H 369.564 1.46306 3.4767 0
M  V30 3907 H 371.951 0.676561 2.8724 0
M  V30 3908 H 372.032 1.95404 1.65079 0
M  V30 3909 H 371.676 3.69724 3.48233 0
M  V30 3910 H 371.606 2.39111 4.69184 0
M  V30 3911 H 374.097 2.06568 3.16446 0
M  V30 3912 H 374.41 4.73403 6.10827 0
M  V30 3913 H 372.755 4.25195 5.49759 0
M  V30 3914 H 375.946 2.62887 3.87309 0
M  V30 3915 H 376.119 3.84547 5.21562 0
M  V30 3916 N 369.525 -1.3858 0.750561 0
M  V30 3917 C 370.773 -1.99789 0.30477 0
M  V30 3918 C 371.094 -1.59874 -1.11649 0
M  V30 3919 O 370.364 -0.85417 -1.76297 0
M  V30 3920 H 368.944 -0.738902 0.109694 0
M  V30 3921 H 371.606 -1.69391 0.963983 0
M  V30 3922 H 370.702 -3.09952 0.365499 0
M  V30 3923 N 371.003 -0.499398 -1.49478 0
M  V30 3924 C 371.95 0.279881 -2.29097 0
M  V30 3925 C 372.92 0.961805 -1.3542 0
M  V30 3926 O 374.105 0.968777 -1.64376 0
M  V30 3927 C 371.245 1.33932 -3.18051 0
M  V30 3928 C 370.358 0.669333 -4.26783 0
M  V30 3929 C 369.493 1.70907 -5.02955 0
M  V30 3930 C 368.532 1.02087 -6.03527 0
M  V30 3931 N 367.669 2.00474 -6.7287 0
M  V30 3932 H 372.509 -0.405317 -2.95231 0
M  V30 3933 H 370.046 -0.211726 -1.45568 0
M  V30 3934 H 372.004 1.96553 -3.67998 0
M  V30 3935 H 370.634 1.9933 -2.53904 0
M  V30 3936 H 369.686 -0.0701234 -3.80335 0
M  V30 3937 H 370.998 0.127503 -4.98637 0
M  V30 3938 H 370.152 2.41037 -5.56764 0
M  V30 3939 H 368.891 2.28476 -4.30871 0
M  V30 3940 H 367.896 0.305338 -5.48951 0
M  V30 3941 H 369.121 0.451708 -6.77596 0
M  V30 3942 H 367.067 2.57007 -6.03559 0
M  V30 3943 H 366.984 1.51353 -7.40694 0
M  V30 3944 H 368.252 2.69897 -7.31284 0
M  V30 3945 N 372.481 1.55866 -0.233164 0
M  V30 3946 C 373.897 1.59133 0.121988 0
M  V30 3947 C 374.097 1.25016 1.58029 0
M  V30 3948 O 373.153 0.990922 2.32243 0
M  V30 3949 C 374.466 2.99932 -0.214792 0
M  V30 3950 C 376.014 3.12601 -0.157971 0
M  V30 3951 C 376.489 4.55597 -0.46859 0
M  V30 3952 N 377.98 4.61305 -0.418585 0
M  V30 3953 C 378.715 5.69903 -0.63227 0
M  V30 3954 N 378.211 6.86819 -0.90835 0
M  V30 3955 N 380.004 5.59264 -0.563913 0
M  V30 3956 H 372.155 1.76315 -1.18434 0
M  V30 3957 H 374.418 0.820093 -0.475553 0
M  V30 3958 H 374.124 3.29588 -1.22739 0
M  V30 3959 H 373.998 3.74327 0.464691 0
M  V30 3960 H 376.385 2.82735 0.845283 0
M  V30 3961 H 376.466 2.40511 -0.871102 0
M  V30 3962 H 376.11 4.86182 -1.46934 0
M  V30 3963 H 376.04 5.25928 0.265865 0
M  V30 3964 H 378.531 3.77297 -0.213368 0
M  V30 3965 H 378.844 7.65507 -1.05919 0
M  V30 3966 H 377.189 6.88536 -0.945673 0
M  V30 3967 H 380.38 4.66802 -0.348372 0
M  V30 3968 H 380.553 6.43831 -0.733847 0
M  V30 3969 N 373.959 -0.0401083 1.57549 0
M  V30 3970 C 374.906 -1.04413 2.05831 0
M  V30 3971 C 375.876 -1.36585 0.945184 0
M  V30 3972 O 377.061 -1.47112 1.21502 0
M  V30 3973 C 374.201 -2.34336 2.53339 0
M  V30 3974 C 373.314 -2.08419 3.78398 0
M  V30 3975 C 372.449 -3.32133 4.14561 0
M  V30 3976 C 371.488 -3.01721 5.3257 0
M  V30 3977 N 370.625 -4.17855 5.64218 0
M  V30 3978 H 375.465 -0.625442 2.91363 0
M  V30 3979 H 373.002 -0.297218 1.44066 0
M  V30 3980 H 374.96 -3.10234 2.78946 0
M  V30 3981 H 373.59 -2.73948 1.7074 0
M  V30 3982 H 372.642 -1.23069 3.59942 0
M  V30 3983 H 373.954 -1.81978 4.64419 0
M  V30 3984 H 373.108 -4.16406 4.41238 0
M  V30 3985 H 371.847 -3.61678 3.2717 0
M  V30 3986 H 370.852 -2.15849 5.05657 0
M  V30 3987 H 372.077 -2.73466 6.21605 0
M  V30 3988 H 370.023 -4.47372 4.79786 0
M  V30 3989 H 369.94 -3.94798 6.44725 0
M  V30 3990 H 371.208 -5.03033 5.95465 0
M  V30 3991 N 375.437 -1.54477 -0.31217 0
M  V30 3992 C 376.385 -1.85395 -1.40469 0
M  V30 3993 C 377.379 -0.726749 -1.53019 0
M  V30 3994 O 378.585 -0.910582 -1.55269 0
M  V30 3995 H 374.96 -0.587845 -0.46898 0
M  V30 3996 H 376.931 -2.76736 -1.11623 0
M  V30 3997 C 375.68 -2.10811 -2.76503 0
M  V30 3998 H 375.003 -2.97014 -2.67625 0
M  V30 3999 H 376.443 -2.3639 -3.51988 0
M  V30 4000 C 374.902 -0.903165 -3.24568 0
M  V30 4001 O 375.432 -0.118085 -4.01526 0
M  V30 4002 N 373.638 -0.711634 -2.81752 0
M  V30 4003 H 373.185 -1.35171 -2.19286 0
M  V30 4004 H 373.143 0.0930473 -3.14262 0
M  V30 4005 N 376.915 0.57481 -1.46744 0
M  V30 4006 C 378.331 0.898981 -1.31873 0
M  V30 4007 C 378.531 1.99313 -0.29605 0
M  V30 4008 O 377.587 2.50728 0.298621 0
M  V30 4009 C 378.9 1.30886 -2.7072 0
M  V30 4010 C 380.448 1.42127 -2.78871 0
M  V30 4011 C 380.923 1.86478 -4.18318 0
M  V30 4012 N 382.414 1.93658 -4.20774 0
M  V30 4013 C 383.149 2.29267 -5.2557 0
M  V30 4014 N 382.645 2.63612 -6.40688 0
M  V30 4015 N 384.438 2.29889 -5.1294 0
M  V30 4016 H 376.589 -0.147839 -2.11885 0
M  V30 4017 H 378.852 -0.00347013 -0.947994 0
M  V30 4018 H 378.558 0.578853 -3.46904 0
M  V30 4019 H 378.432 2.26874 -3.01343 0
M  V30 4020 H 380.819 2.14213 -2.0297 0
M  V30 4021 H 380.9 0.443705 -2.51922 0
M  V30 4022 H 380.544 1.14968 -4.94717 0
M  V30 4023 H 380.474 2.85207 -4.42679 0
M  V30 4024 H 382.965 1.69574 -3.37718 0
M  V30 4025 H 383.278 2.89759 -7.16421 0
M  V30 4026 H 381.623 2.61232 -6.44036 0
M  V30 4027 H 384.814 2.02485 -4.22039 0
M  V30 4028 H 384.987 2.57312 -5.94722 0
M  V30 4029 N 378.394 1.34581 0.820102 0
M  V30 4030 C 379.805 1.24298 1.39309 0
M  V30 4031 C 380.156 -0.130351 1.95767 0
M  V30 4032 O 379.281 -1.0308 1.90272 0
M  V30 4033 C 379.876 2.25054 2.53251 0
M  V30 4034 C 378.435 2.18552 3.0645 0
M  V30 4035 C 377.582 2.11503 1.79337 0
M  V30 4036 H 380.533 1.45906 0.624262 0
M  V30 4037 H 380.554 1.86917 3.31425 0
M  V30 4038 H 380.066 3.24996 2.1213 0
M  V30 4039 H 378.167 1.21976 3.52069 0
M  V30 4040 H 378.28 3.0993 3.65349 0
M  V30 4041 H 376.644 1.57268 2.00347 0
M  V30 4042 H 377.427 3.13284 1.40386 0
M  V30 4043 N 379.872 -1.04064 1.18357 0
M  V30 4044 C 380.835 -2.10243 0.912707 0
M  V30 4045 C 381.835 -1.60477 -0.101928 0
M  V30 4046 O 383.025 -1.73703 0.131517 0
M  V30 4047 C 380.157 -3.38893 0.369387 0
M  V30 4048 H 381.35 -2.35706 1.85426 0
M  V30 4049 H 378.903 -1.20489 0.995594 0
M  V30 4050 H 379.638 -3.19094 -0.578776 0
M  V30 4051 H 379.423 -3.76331 1.1008 0
M  V30 4052 H 380.913 -4.17128 0.198575 0
M  V30 4053 N 381.35 -0.985608 -1.22978 0
M  V30 4054 C 382.766 -0.695104 -1.43668 0
M  V30 4055 C 382.966 0.736866 -1.87543 0
M  V30 4056 O 382.022 1.50868 -2.02473 0
M  V30 4057 C 383.335 -1.69447 -2.48412 0
M  V30 4058 C 384.883 -1.70909 -2.62219 0
M  V30 4059 C 385.358 -2.6969 -3.70178 0
M  V30 4060 N 386.849 -2.6824 -3.77626 0
M  V30 4061 C 387.584 -3.41339 -4.60733 0
M  V30 4062 N 387.08 -4.24015 -5.4789 0
M  V30 4063 N 388.873 -3.30079 -4.54977 0
M  V30 4064 H 381.024 -1.91054 -0.928016 0
M  V30 4065 H 383.287 -0.823553 -0.469536 0
M  V30 4066 H 382.993 -2.7188 -2.23102 0
M  V30 4067 H 382.867 -1.48147 -3.46889 0
M  V30 4068 H 385.254 -0.691785 -2.86877 0
M  V30 4069 H 385.335 -1.96276 -1.6404 0
M  V30 4070 H 384.979 -3.71566 -3.46268 0
M  V30 4071 H 384.909 -2.41595 -4.67909 0
M  V30 4072 H 387.4 -2.08243 -3.15346 0
M  V30 4073 H 387.713 -4.76636 -6.08308 0
M  V30 4074 H 386.058 -4.28104 -5.47496 0
M  V30 4075 H 389.249 -2.64937 -3.85909 0
M  V30 4076 H 389.422 -3.87308 -5.19516 0
M  V30 4077 N 382.828 1.3818 -0.7579 0
M  V30 4078 C 383.775 2.30416 -0.133057 0
M  V30 4079 C 384.745 1.50398 0.704957 0
M  V30 4080 O 385.93 1.79014 0.660192 0
M  V30 4081 C 383.07 3.36834 0.750813 0
M  V30 4082 C 382.183 4.31879 -0.102297 0
M  V30 4083 C 381.318 5.25368 0.784979 0
M  V30 4084 C 380.357 6.12058 -0.0715046 0
M  V30 4085 N 379.494 6.97832 0.772972 0
M  V30 4086 H 384.334 2.83274 -0.925186 0
M  V30 4087 H 381.871 1.39461 -0.467866 0
M  V30 4088 H 383.829 3.97145 1.27794 0
M  V30 4089 H 382.459 2.85374 1.50868 0
M  V30 4090 H 381.511 3.72991 -0.747095 0
M  V30 4091 H 382.823 4.92921 -0.763552 0
M  V30 4092 H 381.977 5.90818 1.37911 0
M  V30 4093 H 380.716 4.64703 1.47996 0
M  V30 4094 H 379.721 5.456 -0.678272 0
M  V30 4095 H 380.946 6.74793 -0.763606 0
M  V30 4096 H 378.892 6.3971 1.45282 0
M  V30 4097 H 378.809 7.55812 0.168709 0
M  V30 4098 H 380.077 7.67687 1.35194 0
M  V30 4099 N 384.306 0.507319 1.49211 0
M  V30 4100 C 385.269 -0.256763 2.27757 0
M  V30 4101 C 386.269 -0.888287 1.34038 0
M  V30 4102 O 387.459 -0.751841 1.5714 0
M  V30 4103 C 384.591 -1.36905 3.12202 0
M  V30 4104 H 385.784 0.432557 2.96764 0
M  V30 4105 H 383.337 0.262488 1.5408 0
M  V30 4106 H 384.072 -2.09233 2.47775 0
M  V30 4107 H 383.857 -0.921599 3.81115 0
M  V30 4108 H 385.347 -1.9071 3.7151 0
M  V30 4109 N 385.784 -1.5574 0.241426 0
M  V30 4110 C 387.009 -2.0366 -0.392111 0
M  V30 4111 C 387.434 -1.11969 -1.51144 0
M  V30 4112 O 386.792 -0.111594 -1.80956 0
M  V30 4113 C 386.84 -3.49638 -0.882371 0
M  V30 4114 O 385.944 -3.6108 -1.99235 0
M  V30 4115 H 385.285 -0.658379 -0.0862122 0
M  V30 4116 H 387.815 -2.01302 0.365881 0
M  V30 4117 H 387.825 -3.90351 -1.18702 0
M  V30 4118 H 386.5 -4.15852 -0.0632361 0
M  V30 4119 H 385.077 -3.32262 -1.69282 0
M  V30 4120 N 387.262 0.0317525 -1.57568 0
M  V30 4121 C 388.192 1.03274 -2.0942 0
M  V30 4122 C 389.173 1.3788 -0.996143 0
M  V30 4123 O 390.358 1.46811 -1.27122 0
M  V30 4124 C 387.488 2.33448 -2.57137 0
M  V30 4125 C 386.442 2.13091 -3.71182 0
M  V30 4126 C 385.768 3.49001 -4.05095 0
M  V30 4127 C 387.068 1.51928 -4.99715 0
M  V30 4128 H 388.762 0.60112 -2.93303 0
M  V30 4129 H 386.308 0.287705 -1.41097 0
M  V30 4130 H 388.261 3.03802 -2.92032 0
M  V30 4131 H 386.985 2.78665 -1.70333 0
M  V30 4132 H 385.644 1.45171 -3.36632 0
M  V30 4133 H 385.292 3.91862 -3.15362 0
M  V30 4134 H 384.992 3.36207 -4.81911 0
M  V30 4135 H 386.516 4.20721 -4.42522 0
M  V30 4136 H 387.93 2.12196 -5.32584 0
M  V30 4137 H 386.327 1.49716 -5.81124 0
M  V30 4138 H 387.397 0.484811 -4.8247 0
M  V30 4139 N 388.74 1.54641 0.303973 0
M  V30 4140 C 389.965 1.78092 1.06292 0
M  V30 4141 C 390.39 0.537342 1.80262 0
M  V30 4142 O 389.748 -0.511993 1.7392 0
M  V30 4143 C 389.796 2.98612 2.02147 0
M  V30 4144 O 388.9 2.71528 3.10397 0
M  V30 4145 H 388.241 0.589548 0.305497 0
M  V30 4146 H 390.771 2.01716 0.3423 0
M  V30 4147 H 390.781 3.265 2.44667 0
M  V30 4148 H 389.456 3.88785 1.47714 0
M  V30 4149 H 388.033 2.54648 2.72413 0
M  V30 4150 N 390.218 -0.567019 1.47046 0
M  V30 4151 C 391.148 -1.68482 1.61667 0
M  V30 4152 C 392.129 -1.6358 0.466418 0
M  V30 4153 O 393.314 -1.81354 0.694574 0
M  V30 4154 C 390.444 -3.07124 1.62148 0
M  V30 4155 C 389.398 -3.26867 2.76301 0
M  V30 4156 C 388.724 -4.66196 2.61849 0
M  V30 4157 C 390.024 -3.13186 4.17986 0
M  V30 4158 H 391.718 -1.56502 2.5524 0
M  V30 4159 H 389.264 -0.751486 1.22836 0
M  V30 4160 H 391.217 -3.8516 1.70968 0
M  V30 4161 H 389.941 -3.2004 0.651287 0
M  V30 4162 H 388.6 -2.51237 2.66975 0
M  V30 4163 H 388.248 -4.75898 1.62879 0
M  V30 4164 H 387.948 -4.80356 3.38425 0
M  V30 4165 H 389.472 -5.46379 2.72584 0
M  V30 4166 H 390.886 -3.81049 4.2834 0
M  V30 4167 H 389.283 -3.3886 4.95272 0
M  V30 4168 H 390.353 -2.10057 4.3704 0
M  V30 4169 N 391.696 -1.35014 -0.812953 0
M  V30 4170 C 393.112 -1.14914 -1.10757 0
M  V30 4171 C 393.312 0.0426818 -2.01455 0
M  V30 4172 O 392.368 0.715212 -2.42159 0
M  V30 4173 C 393.681 -2.44911 -1.74468 0
M  V30 4174 C 395.229 -2.5106 -1.86917 0
M  V30 4175 C 395.704 -3.81085 -2.54044 0
M  V30 4176 N 397.195 -3.82301 -2.61535 0
M  V30 4177 C 397.93 -4.79634 -3.14227 0
M  V30 4178 N 397.426 -5.87353 -3.67407 0
M  V30 4179 N 399.219 -4.67078 -3.12721 0
M  V30 4180 H 391.37 -2.1136 -0.20989 0
M  V30 4181 H 393.633 -0.935128 -0.155692 0
M  V30 4182 H 393.339 -3.32267 -1.15289 0
M  V30 4183 H 393.213 -2.58989 -2.74234 0
M  V30 4184 H 395.6 -1.64137 -2.45241 0
M  V30 4185 H 395.681 -2.40901 -0.860242 0
M  V30 4186 H 395.325 -4.68402 -1.96372 0
M  V30 4187 H 395.255 -3.88529 -3.55461 0
M  V30 4188 H 397.746 -3.04465 -2.23851 0
M  V30 4189 H 398.059 -6.57624 -4.05894 0
M  V30 4190 H 396.404 -5.91054 -3.65623 0
M  V30 4191 H 399.595 -3.82067 -2.70449 0
M  V30 4192 H 399.768 -5.43098 -3.53481 0
M  V30 4193 N 393.175 1.03435 -1.18907 0
M  V30 4194 C 394.4 1.80919 -1.01406 0
M  V30 4195 C 394.825 1.83055 0.432721 0
M  V30 4196 O 394.183 1.25252 1.31079 0
M  V30 4197 C 394.231 3.24091 -1.58105 0
M  V30 4198 O 393.335 4.04434 -0.806669 0
M  V30 4199 H 392.676 0.558709 -0.358803 0
M  V30 4200 H 395.206 1.30223 -1.57807 0
M  V30 4201 H 395.216 3.74853 -1.61087 0
M  V30 4202 H 393.891 3.21851 -2.6341 0
M  V30 4203 H 392.468 3.63091 -0.849666 0
M  V30 4204 N 394.653 0.992116 1.22453 0
M  V30 4205 C 395.901 0.666215 1.90804 0
M  V30 4206 C 396.222 -0.804152 1.77647 0
M  V30 4207 O 395.492 -1.57629 1.16318 0
M  V30 4208 H 394.072 0.243423 0.706225 0
M  V30 4209 H 396.734 1.25845 1.48825 0
M  V30 4210 H 395.83 0.928069 2.97982 0
M  V30 4211 N 396.131 -1.37776 0.765217 0
M  V30 4212 C 397.547 -1.53297 0.444108 0
M  V30 4213 C 397.747 -1.72515 -1.04119 0
M  V30 4214 O 396.803 -1.74278 -1.82711 0
M  V30 4215 C 398.116 -2.73328 1.25349 0
M  V30 4216 C 399.664 -2.87185 1.24473 0
M  V30 4217 C 400.139 -4.10191 2.03733 0
M  V30 4218 N 401.63 -4.17291 2.01053 0
M  V30 4219 C 402.365 -5.11488 2.59166 0
M  V30 4220 N 401.861 -6.11285 3.26041 0
M  V30 4221 N 403.654 -5.03924 2.49032 0
M  V30 4222 H 395.805 -1.23552 1.72768 0
M  V30 4223 H 398.068 -0.601103 0.733062 0
M  V30 4224 H 397.774 -2.6557 2.30577 0
M  V30 4225 H 397.648 -3.66834 0.87823 0
M  V30 4226 H 400.035 -2.94418 0.20047 0
M  V30 4227 H 400.116 -1.94657 1.65959 0
M  V30 4228 H 399.76 -4.0372 3.08176 0
M  V30 4229 H 399.69 -5.01821 1.59633 0
M  V30 4230 H 402.181 -3.45825 1.5236 0
M  V30 4231 H 402.494 -6.79678 3.67774 0
M  V30 4232 H 400.839 -6.11583 3.30138 0
M  V30 4233 H 404.03 -4.24902 1.96407 0
M  V30 4234 H 404.203 -5.77152 2.94617 0
M  V30 4235 N 397.609 -0.515225 -1.4894 0
M  V30 4236 C 398.858 0.0261361 -2.01683 0
M  V30 4237 C 399.171 1.36719 -1.39883 0
M  V30 4238 O 400.377 1.99606 -1.84037 0
M  V30 4239 C 398.833 0.0970111 -3.59769 0
M  V30 4240 C 398.441 -1.23825 -4.30548 0
M  V30 4241 C 400.185 0.587981 -4.20408 0
M  V30 4242 C 398.092 -1.12877 -5.80528 0
M  V30 4243 H 397.022 0.0135398 -0.753878 0
M  V30 4244 H 399.673 -0.656787 -1.71343 0
M  V30 4245 H 398.055 0.844694 -3.86886 0
M  V30 4246 H 399.229 -2.00034 -4.15118 0
M  V30 4247 H 397.544 -1.66379 -3.81716 0
M  V30 4248 H 400.141 0.68763 -5.3026 0
M  V30 4249 H 400.484 1.59026 -3.84729 0
M  V30 4250 H 401.017 -0.103582 -3.97665 0
M  V30 4251 H 397.756 -2.10575 -6.20756 0
M  V30 4252 H 397.276 -0.407799 -5.98412 0
M  V30 4253 H 398.955 -0.813332 -6.41868 0
M  V30 4254 N 399.087 1.5561 -0.249682 0
M  V30 4255 C 400.315 2.03411 0.378352 0
M  V30 4256 C 400.73 1.12886 1.51335 0
M  V30 4257 O 400.087 0.143833 1.81932 0
M  V30 4258 C 400.138 3.50537 0.88351 0
M  V30 4259 O 399.859 4.37614 -0.20626 0
M  V30 4260 C 401.36 4.14113 1.58195 0
M  V30 4261 H 398.58 0.664994 0.08958 0
M  V30 4262 H 401.124 2.01044 -0.374357 0
M  V30 4263 H 399.279 3.5343 1.58639 0
M  V30 4264 H 399.693 5.24199 0.177782 0
M  V30 4265 H 401.167 5.18741 1.8871 0
M  V30 4266 H 401.644 3.60767 2.50487 0
M  V30 4267 H 402.25 4.15151 0.923573 0
M  V30 4268 N 400.565 -0.0233959 1.57583 0
M  V30 4269 C 401.495 -1.02162 2.09965 0
M  V30 4270 C 402.476 -1.3735 1.00344 0
M  V30 4271 O 403.661 -1.46135 1.27899 0
M  V30 4272 C 400.791 -2.32081 2.58371 0
M  V30 4273 C 399.745 -2.1112 3.72307 0
M  V30 4274 C 399.071 -3.46848 4.06941 0
M  V30 4275 C 400.371 -1.49276 5.00514 0
M  V30 4276 H 402.065 -0.585557 2.93618 0
M  V30 4277 H 399.611 -0.280218 1.41247 0
M  V30 4278 H 401.564 -3.02249 2.93639 0
M  V30 4279 H 400.288 -2.77758 1.71808 0
M  V30 4280 H 398.947 -1.43384 3.37397 0
M  V30 4281 H 398.595 -3.90184 3.17436 0
M  V30 4282 H 398.295 -3.33646 4.83688 0
M  V30 4283 H 399.819 -4.18369 4.44747 0
M  V30 4284 H 401.233 -2.09368 5.33702 0
M  V30 4285 H 399.63 -1.46632 5.8191 0
M  V30 4286 H 400.7 -0.459217 4.82721 0
M  V30 4287 N 402.043 -1.548 -0.295768 0
M  V30 4288 C 402.99 -1.86113 -1.36494 0
M  V30 4289 C 403.96 -0.7105 -1.50137 0
M  V30 4290 O 405.145 -0.959626 -1.64912 0
M  V30 4291 C 402.285 -2.11861 -2.72413 0
M  V30 4292 C 401.398 -3.39471 -2.67177 0
M  V30 4293 C 400.533 -3.55035 -3.95125 0
M  V30 4294 C 399.572 -4.76418 -3.84308 0
M  V30 4295 N 398.709 -4.8876 -5.04042 0
M  V30 4296 H 403.549 -2.77314 -1.09091 0
M  V30 4297 H 401.086 -1.37315 -0.52753 0
M  V30 4298 H 403.044 -2.24786 -3.51464 0
M  V30 4299 H 401.674 -1.2392 -2.98066 0
M  V30 4300 H 400.726 -3.35139 -1.79962 0
M  V30 4301 H 402.038 -4.28646 -2.55076 0
M  V30 4302 H 401.192 -3.67653 -4.82614 0
M  V30 4303 H 399.931 -2.64002 -4.10066 0
M  V30 4304 H 398.936 -4.63827 -2.95202 0
M  V30 4305 H 400.161 -5.68863 -3.70906 0
M  V30 4306 H 398.107 -4.00652 -5.19436 0
M  V30 4307 H 398.024 -5.71945 -4.94384 0
M  V30 4308 H 399.292 -5.0574 -5.93167 0
M  V30 4309 N 403.521 0.559213 -1.47345 0
M  V30 4310 C 404.453 1.68161 -1.55738 0
M  V30 4311 C 405.466 1.56636 -0.443744 0
M  V30 4312 O 406.655 1.6363 -0.713258 0
M  V30 4313 C 403.755 3.06611 -1.4437 0
M  V30 4314 C 402.928 3.4391 -2.70268 0
M  V30 4315 C 401.987 4.61515 -2.52765 0
M  V30 4316 O 401.013 4.66197 -3.26572 0
M  V30 4317 N 402.215 5.57883 -1.6046 0
M  V30 4318 H 404.98 1.61408 -2.52522 0
M  V30 4319 H 402.541 0.7458 -1.43699 0
M  V30 4320 H 404.533 3.83117 -1.30398 0
M  V30 4321 H 403.103 3.07602 -0.556766 0
M  V30 4322 H 402.323 2.56873 -2.99015 0
M  V30 4323 H 403.611 3.65605 -3.53851 0
M  V30 4324 H 403.009 5.56855 -0.996422 0
M  V30 4325 H 401.566 6.33723 -1.52441 0
M  V30 4326 N 404.999 1.35443 0.805782 0
M  V30 4327 C 406.247 1.28507 1.55982 0
M  V30 4328 C 406.568 -0.140046 1.94496 0
M  V30 4329 O 405.838 -1.07666 1.63661 0
M  V30 4330 H 404.418 0.472676 0.578434 0
M  V30 4331 H 407.08 1.69555 0.961098 0
M  V30 4332 H 406.176 1.90148 2.47488 0
M  V30 4333 N 406.477 -1.02803 1.19454 0
M  V30 4334 C 407.425 -2.13213 0.929673 0
M  V30 4335 C 408.419 -1.69011 -0.114806 0
M  V30 4336 O 409.625 -1.79967 0.0345147 0
M  V30 4337 H 406 -0.69662 0.28324 0
M  V30 4338 H 407.971 -2.32744 1.86743 0
M  V30 4339 C 406.72 -3.4429 0.485797 0
M  V30 4340 H 406.043 -3.7872 1.28105 0
M  V30 4341 H 407.483 -4.22638 0.339582 0
M  V30 4342 C 405.942 -3.27258 -0.800244 0
M  V30 4343 O 406.472 -3.55967 -1.86146 0
M  V30 4344 N 404.678 -2.80545 -0.75781 0
M  V30 4345 H 404.225 -2.57382 0.106039 0
M  V30 4346 H 404.183 -2.6953 -1.61867 0
M  V30 4347 N 407.956 -0.998596 -1.21925 0
M  V30 4348 C 409.205 -0.673085 -1.90138 0
M  V30 4349 C 409.518 0.79895 -1.78539 0
M  V30 4350 O 410.724 1.23628 -2.4172 0
M  V30 4351 C 409.18 -1.15339 -3.40918 0
M  V30 4352 C 408.788 -2.65106 -3.61141 0
M  V30 4353 C 410.532 -0.902476 -4.14796 0
M  V30 4354 C 408.439 -3.0671 -5.05651 0
M  V30 4355 H 407.369 -0.248057 -0.712028 0
M  V30 4356 H 410.02 -1.20891 -1.38049 0
M  V30 4357 H 408.402 -0.545658 -3.92223 0
M  V30 4358 H 409.576 -3.31274 -3.20304 0
M  V30 4359 H 407.891 -2.88142 -3.00605 0
M  V30 4360 H 410.488 -1.18895 -5.21314 0
M  V30 4361 H 410.831 0.161349 -4.15987 0
M  V30 4362 H 411.364 -1.47269 -3.69536 0
M  V30 4363 H 408.103 -4.12292 -5.09603 0
M  V30 4364 H 407.623 -2.45249 -5.47369 0
M  V30 4365 H 409.302 -2.9833 -5.74115 0
M  V30 4366 N 409.434 1.37368 -0.772513 0
M  V30 4367 C 410.662 2.03942 -0.348588 0
M  V30 4368 C 411.077 1.58264 1.02947 0
M  V30 4369 O 410.434 0.764246 1.65727 0
M  V30 4370 C 410.485 3.5946 -0.38351 0
M  V30 4371 O 410.206 4.03468 -1.70721 0
M  V30 4372 C 411.707 4.4327 0.0519152 0
M  V30 4373 H 408.927 0.654931 -0.145966 0
M  V30 4374 H 411.471 1.75686 -1.04665 0
M  V30 4375 H 409.626 3.86486 0.265978 0
M  V30 4376 H 410.04 4.97991 -1.64636 0
M  V30 4377 H 411.514 5.51995 -0.0236733 0
M  V30 4378 H 411.991 4.2514 1.10238 0
M  V30 4379 H 412.597 4.21471 -0.569415 0
M  V30 4380 N 410.912 0.523116 1.48665 0
M  V30 4381 C 411.842 -0.23231 2.32342 0
M  V30 4382 C 412.823 -0.941637 1.41659 0
M  V30 4383 O 414.008 -0.928751 1.70552 0
M  V30 4384 C 411.138 -1.28387 3.22698 0
M  V30 4385 C 410.092 -0.693098 4.22351 0
M  V30 4386 C 409.418 -1.8468 5.01794 0
M  V30 4387 C 410.718 0.33063 5.21252 0
M  V30 4388 H 412.412 0.466192 2.95748 0
M  V30 4389 H 409.958 0.225643 1.42221 0
M  V30 4390 H 411.911 -1.82024 3.80059 0
M  V30 4391 H 410.635 -2.01186 2.57278 0
M  V30 4392 H 409.294 -0.178299 3.66166 0
M  V30 4393 H 408.942 -2.56301 4.32804 0
M  V30 4394 H 408.642 -1.45747 5.69238 0
M  V30 4395 H 410.166 -2.38709 5.62006 0
M  V30 4396 H 411.58 -0.118407 5.73178 0
M  V30 4397 H 409.977 0.636974 5.9671 0
M  V30 4398 H 411.047 1.23883 4.68808 0
M  V30 4399 N 412.39 -1.55475 0.257931 0
M  V30 4400 C 413.338 -2.23244 -0.653076 0
M  V30 4401 C 414.332 -1.22366 -1.17144 0
M  V30 4402 O 415.538 -1.40347 -1.12706 0
M  V30 4403 H 411.913 -0.716247 -0.229117 0
M  V30 4404 H 413.884 -2.98343 -0.0584788 0
M  V30 4405 C 412.633 -2.95401 -1.83395 0
M  V30 4406 H 411.956 -3.72802 -1.44424 0
M  V30 4407 H 413.396 -3.46165 -2.44838 0
M  V30 4408 C 411.855 -1.99895 -2.71189 0
M  V30 4409 O 412.385 -1.53909 -3.71046 0
M  V30 4410 N 410.591 -1.6676 -2.3799 0
M  V30 4411 H 410.138 -2.04352 -1.56837 0
M  V30 4412 H 410.096 -1.03127 -2.97005 0
M  V30 4413 N 413.868 0.0150385 -1.57593 0
M  V30 4414 C 414.831 0.995996 -2.06428 0
M  V30 4415 C 415.831 1.2818 -0.970903 0
M  V30 4416 O 417.021 1.22949 -1.23406 0
M  V30 4417 C 414.153 2.32506 -2.49307 0
M  V30 4418 H 415.346 0.573873 -2.94358 0
M  V30 4419 H 412.899 0.262186 -1.54085 0
M  V30 4420 H 413.634 2.79438 -1.64575 0
M  V30 4421 H 413.419 2.13087 -3.29145 0
M  V30 4422 H 414.909 3.02906 -2.87468 0
M  V30 4423 N 415.346 1.54954 0.287554 0
M  V30 4424 C 416.592 1.75132 1.02257 0
M  V30 4425 C 416.925 0.542858 1.86458 0
M  V30 4426 O 416.2 -0.459856 1.88986 0
M  V30 4427 C 416.483 3.04812 1.91733 0
M  V30 4428 C 416.336 4.35985 1.10622 0
M  V30 4429 C 417.655 3.30438 2.90687 0
M  V30 4430 H 414.774 0.637194 0.370341 0
M  V30 4431 H 417.416 1.87678 0.296111 0
M  V30 4432 H 415.566 2.94247 2.53675 0
M  V30 4433 H 417.238 4.58487 0.508636 0
M  V30 4434 H 415.481 4.31865 0.409271 0
M  V30 4435 H 416.152 5.23017 1.76513 0
M  V30 4436 H 418.628 3.40701 2.38877 0
M  V30 4437 H 417.504 4.22467 3.50447 0
M  V30 4438 H 417.765 2.49377 3.65053 0
M  V30 4439 N 416.824 -0.551391 1.4764 0
M  V30 4440 C 417.754 -1.66757 1.63445 0
M  V30 4441 C 418.735 -1.63077 0.483742 0
M  V30 4442 O 419.92 -1.80607 0.71377 0
M  V30 4443 C 417.05 -3.05387 1.65396 0
M  V30 4444 C 416.004 -3.23918 2.79752 0
M  V30 4445 C 415.33 -4.63393 2.66779 0
M  V30 4446 C 416.63 -3.08735 4.21284 0
M  V30 4447 H 418.324 -1.53786 2.56886 0
M  V30 4448 H 415.87 -0.738415 1.23626 0
M  V30 4449 H 417.823 -3.83325 1.75043 0
M  V30 4450 H 416.547 -3.19332 0.685195 0
M  V30 4451 H 415.206 -2.48391 2.69625 0
M  V30 4452 H 414.854 -4.74144 1.67918 0
M  V30 4453 H 414.554 -4.7674 3.43501 0
M  V30 4454 H 416.078 -5.43458 2.78364 0
M  V30 4455 H 417.492 -3.76484 4.32357 0
M  V30 4456 H 415.889 -3.33588 4.98838 0
M  V30 4457 H 416.959 -2.0541 4.39243 0
M  V30 4458 N 418.302 -1.35869 -0.798587 0
M  V30 4459 C 419.265 -1.29307 -1.89242 0
M  V30 4460 C 420.265 -0.202747 -1.59517 0
M  V30 4461 O 421.455 -0.456957 -1.681 0
M  V30 4462 C 418.587 -1.00229 -3.25833 0
M  V30 4463 H 419.78 -2.26576 -1.96478 0
M  V30 4464 H 417.333 -1.20509 -0.995358 0
M  V30 4465 H 418.068 -0.033801 -3.24282 0
M  V30 4466 H 417.853 -1.79121 -3.48795 0
M  V30 4467 H 419.343 -0.98219 -4.05885 0
M  V30 4468 N 419.78 1.02168 -1.19998 0
M  V30 4469 C 420.69 2.14069 -0.959774 0
M  V30 4470 C 421.706 1.73804 0.082655 0
M  V30 4471 O 422.882 2.01133 -0.103633 0
M  V30 4472 C 419.947 3.42936 -0.509459 0
M  V30 4473 C 419.008 3.97474 -1.62213 0
M  V30 4474 C 418.241 5.2019 -1.19321 0
M  V30 4475 O 418.464 5.70369 -0.0597726 0
M  V30 4476 O 417.398 5.67749 -1.99863 0
M  V30 4477 H 421.224 2.37199 -1.89658 0
M  V30 4478 H 418.809 1.12469 -0.983411 0
M  V30 4479 H 420.691 4.20551 -0.267322 0
M  V30 4480 H 419.366 3.21234 0.398821 0
M  V30 4481 H 418.273 3.21161 -1.9185 0
M  V30 4482 H 419.606 4.23555 -2.50723 0
M  V30 4483 N 421.258 1.00505 1.21394 0
M  V30 4484 C 422.168 0.574806 2.27449 0
M  V30 4485 C 423.184 -0.382206 1.6975 0
M  V30 4486 O 424.36 -0.246027 1.99892 0
M  V30 4487 C 421.425 -0.0917414 3.46579 0
M  V30 4488 C 420.486 0.909758 4.1955 0
M  V30 4489 C 419.719 0.274924 5.32991 0
M  V30 4490 O 419.942 -0.928254 5.62796 0
M  V30 4491 O 418.876 0.985877 5.93771 0
M  V30 4492 H 422.702 1.45744 2.66444 0
M  V30 4493 H 420.287 0.773923 1.27792 0
M  V30 4494 H 422.169 -0.464551 4.18832 0
M  V30 4495 H 420.844 -0.948755 3.09484 0
M  V30 4496 H 419.751 1.33372 3.49518 0
M  V30 4497 H 421.084 1.73636 4.60555 0
M  V30 4498 N 422.737 -1.36956 0.779787 0
M  V30 4499 C 423.986 -1.98738 0.344405 0
M  V30 4500 C 424.299 -1.62596 -1.08728 0
M  V30 4501 O 425.505 -2.1754 -1.62445 0
M  V30 4502 C 423.961 -3.5544 0.564829 0
M  V30 4503 C 423.569 -4.00514 2.0073 0
M  V30 4504 C 425.313 -4.24059 0.193471 0
M  V30 4505 C 423.22 -5.49957 2.17489 0
M  V30 4506 H 422.15 -0.743561 0.12503 0
M  V30 4507 H 424.801 -1.56381 0.960057 0
M  V30 4508 H 423.183 -3.95817 -0.120397 0
M  V30 4509 H 424.357 -3.71362 2.72814 0
M  V30 4510 H 422.672 -3.44703 2.336 0
M  V30 4511 H 425.269 -5.33874 0.297097 0
M  V30 4512 H 425.612 -4.07378 -0.857263 0
M  V30 4513 H 426.145 -3.89012 0.831556 0
M  V30 4514 H 422.884 -5.71574 3.2091 0
M  V30 4515 H 422.404 -5.80767 1.49899 0
M  V30 4516 H 424.083 -6.16043 1.97738 0
M  V30 4517 N 424.215 -0.530993 -1.48385 0
M  V30 4518 C 425.163 0.244595 -2.3131 0
M  V30 4519 C 426.157 0.93451 -1.41291 0
M  V30 4520 O 427.363 0.85878 -1.58193 0
M  V30 4521 H 423.738 0.0977472 -0.74562 0
M  V30 4522 H 425.709 -0.474369 -2.94605 0
M  V30 4523 C 424.458 1.2779 -3.23365 0
M  V30 4524 H 423.781 0.756439 -3.92579 0
M  V30 4525 H 425.221 1.79198 -3.84271 0
M  V30 4526 C 423.68 2.31205 -2.45042 0
M  V30 4527 O 424.21 3.37661 -2.17596 0
M  V30 4528 N 422.416 2.04446 -2.0652 0
M  V30 4529 H 421.963 1.17891 -2.2904 0
M  V30 4530 H 421.921 2.73861 -1.54427 0
M  V30 4531 N 425.693 1.55336 -0.266172 0
M  V30 4532 C 427.104 1.85236 0.233315 0
M  V30 4533 C 427.455 1.18816 1.56132 0
M  V30 4534 O 426.58 0.473307 2.11161 0
M  V30 4535 C 427.175 3.36059 0.430113 0
M  V30 4536 C 425.734 3.66116 0.873842 0
M  V30 4537 C 424.881 2.77274 -0.0380016 0
M  V30 4538 H 427.832 1.51004 -0.488214 0
M  V30 4539 H 427.853 3.58681 1.26998 0
M  V30 4540 H 427.365 3.84373 -0.536588 0
M  V30 4541 H 425.466 3.23295 1.85233 0
M  V30 4542 H 425.579 4.73699 0.717358 0
M  V30 4543 H 423.943 2.50198 0.476759 0
M  V30 4544 H 424.726 3.284 -1.00042 0
M  V30 4545 N 427.171 -0.0066808 1.57599 0
M  V30 4546 C 428.582 -0.550379 1.78403 0
M  V30 4547 C 428.933 -1.74339 0.900014 0
M  V30 4548 O 428.058 -2.16166 0.100713 0
M  V30 4549 C 428.653 -1.00523 3.23544 0
M  V30 4550 C 427.212 -1.49428 3.45468 0
M  V30 4551 C 426.359 -0.442444 2.73748 0
M  V30 4552 H 429.31 0.219508 1.57175 0
M  V30 4553 H 429.331 -1.87157 3.31289 0
M  V30 4554 H 428.843 -0.136735 3.87859 0
M  V30 4555 H 426.944 -2.3839 2.86358 0
M  V30 4556 H 427.057 -1.52635 4.54136 0
M  V30 4557 H 425.421 -0.902578 2.38171 0
M  V30 4558 H 426.204 0.416973 3.40758 0
M  V30 4559 N 428.649 -1.55105 -0.279332 0
M  V30 4560 C 429.596 -1.8755 -1.34513 0
M  V30 4561 C 430.566 -0.726384 -1.49375 0
M  V30 4562 O 431.751 -0.977063 -1.63884 0
M  V30 4563 C 428.891 -2.14738 -2.70151 0
M  V30 4564 C 428.004 -3.42285 -2.63562 0
M  V30 4565 C 427.139 -3.59206 -3.91337 0
M  V30 4566 C 426.178 -4.80467 -3.79233 0
M  V30 4567 N 425.315 -4.94079 -4.98829 0
M  V30 4568 H 430.155 -2.78456 -1.06143 0
M  V30 4569 H 427.692 -1.37867 -0.512936 0
M  V30 4570 H 429.65 -2.28501 -3.49061 0
M  V30 4571 H 428.28 -1.27075 -2.96735 0
M  V30 4572 H 427.332 -3.37029 -1.76397 0
M  V30 4573 H 428.644 -4.31328 -2.50515 0
M  V30 4574 H 427.798 -3.72751 -4.78687 0
M  V30 4575 H 426.537 -2.68337 -4.07243 0
M  V30 4576 H 425.542 -4.66932 -2.90266 0
M  V30 4577 H 426.767 -5.72765 -3.64852 0
M  V30 4578 H 424.713 -4.06139 -5.15158 0
M  V30 4579 H 424.63 -5.77156 -4.8829 0
M  V30 4580 H 425.898 -5.12003 -5.8777 0
M  V30 4581 N 430.127 0.543554 -1.4793 0
M  V30 4582 C 431.375 1.29752 -1.54948 0
M  V30 4583 C 431.696 1.93764 -0.219242 0
M  V30 4584 O 430.966 1.80639 0.75805 0
M  V30 4585 H 429.546 0.481874 -0.570795 0
M  V30 4586 H 432.208 0.633636 -1.84312 0
M  V30 4587 H 431.304 2.08392 -2.32334 0
M  V30 4588 N 431.605 1.3629 0.791371 0
M  V30 4589 C 432.515 1.32606 1.93527 0
M  V30 4590 C 433.531 0.228541 1.72493 0
M  V30 4591 O 434.707 0.460571 1.96063 0
M  V30 4592 C 431.772 1.11271 3.28359 0
M  V30 4593 C 430.833 2.3048 3.62185 0
M  V30 4594 C 430.066 2.10154 4.90583 0
M  V30 4595 O 430.289 1.07572 5.60165 0
M  V30 4596 O 429.223 2.97884 5.23019 0
M  V30 4597 H 433.049 2.28909 1.99585 0
M  V30 4598 H 430.634 1.16818 0.931344 0
M  V30 4599 H 432.516 1.01283 4.09047 0
M  V30 4600 H 431.191 0.180292 3.23198 0
M  V30 4601 H 430.098 2.46036 2.81811 0
M  V30 4602 H 431.431 3.22221 3.72068 0
M  V30 4603 N 433.083 -1.0153 1.20538 0
M  V30 4604 C 434.311 -1.78746 1.04199 0
M  V30 4605 C 434.726 -1.84323 -0.408733 0
M  V30 4606 O 434.083 -1.29714 -1.28377 0
M  V30 4607 C 434.134 -3.23152 1.62035 0
M  V30 4608 O 433.855 -3.17918 3.0143 0
M  V30 4609 C 435.356 -4.16911 1.50666 0
M  V30 4610 H 432.576 -0.56208 0.366479 0
M  V30 4611 H 435.12 -1.27794 1.59653 0
M  V30 4612 H 433.275 -3.71248 1.10697 0
M  V30 4613 H 433.689 -4.08567 3.28897 0
M  V30 4614 H 435.163 -5.16072 1.95892 0
M  V30 4615 H 435.64 -4.36791 0.459363 0
M  V30 4616 H 436.246 -3.74698 2.01201 0
M  V30 4617 N 434.561 -1.01147 -1.20859 0
M  V30 4618 C 435.972 -0.730205 -1.71828 0
M  V30 4619 C 436.323 0.751662 -1.8123 0
M  V30 4620 O 435.448 1.58686 -1.47132 0
M  V30 4621 C 436.043 -1.31885 -3.12077 0
M  V30 4622 C 434.602 -1.08656 -3.60376 0
M  V30 4623 C 433.749 -1.42769 -2.37723 0
M  V30 4624 H 436.7 -1.18158 -1.05945 0
M  V30 4625 H 436.721 -0.706793 -3.73878 0
M  V30 4626 H 436.233 -2.39737 -3.05201 0
M  V30 4627 H 434.334 -0.0254814 -3.72591 0
M  V30 4628 H 434.447 -1.76301 -4.45483 0
M  V30 4629 H 432.811 -0.846603 -2.40218 0
M  V30 4630 H 433.594 -2.51666 -2.33493 0
M  V30 4631 N 436.039 1.36541 -0.78704 0
M  V30 4632 C 436.969 2.32659 -0.197992 0
M  V30 4633 C 437.95 1.56533 0.665697 0
M  V30 4634 O 439.135 1.84698 0.60001 0
M  V30 4635 C 436.265 3.40778 0.669901 0
M  V30 4636 C 435.219 4.27897 -0.0937039 0
M  V30 4637 C 434.545 5.27163 0.894629 0
M  V30 4638 C 435.845 5.06334 -1.28154 0
M  V30 4639 H 437.539 2.82171 -1.00099 0
M  V30 4640 H 435.085 1.35665 -0.482793 0
M  V30 4641 H 437.038 4.07008 1.09191 0
M  V30 4642 H 435.762 2.89827 1.50558 0
M  V30 4643 H 434.421 3.6322 -0.49666 0
M  V30 4644 H 434.069 4.72486 1.72527 0
M  V30 4645 H 433.769 5.86317 0.388149 0
M  V30 4646 H 435.293 5.96266 1.31525 0
M  V30 4647 H 436.707 5.65617 -0.93541 0
M  V30 4648 H 435.104 5.74888 -1.72115 0
M  V30 4649 H 436.174 4.38114 -2.07807 0
M  V30 4650 N 437.518 0.538854 1.48102 0
M  V30 4651 C 438.465 -0.219042 2.29758 0
M  V30 4652 C 439.435 -0.925562 1.37922 0
M  V30 4653 O 440.62 -0.924855 1.66886 0
M  V30 4654 C 437.76 -1.25452 3.2149 0
M  V30 4655 C 436.873 -0.555943 4.28408 0
M  V30 4656 C 436.008 -1.57512 5.0731 0
M  V30 4657 C 435.047 -0.860498 6.06021 0
M  V30 4658 N 434.184 -1.82564 6.77949 0
M  V30 4659 H 439.024 0.483449 2.94052 0
M  V30 4660 H 436.561 0.250247 1.44956 0
M  V30 4661 H 438.519 -1.86727 3.7308 0
M  V30 4662 H 437.149 -1.92528 2.591 0
M  V30 4663 H 436.201 0.170938 3.80016 0
M  V30 4664 H 437.513 0.00474616 4.988 0
M  V30 4665 H 436.667 -2.26191 5.62959 0
M  V30 4666 H 435.406 -2.16972 4.36778 0
M  V30 4667 H 434.411 -0.159686 5.49568 0
M  V30 4668 H 435.636 -0.271897 6.78555 0
M  V30 4669 H 433.582 -2.40915 6.10161 0
M  V30 4670 H 433.499 -1.31662 7.44447 0
M  V30 4671 H 434.767 -2.50414 7.38182 0
M  V30 4672 N 438.996 -1.55193 0.274407 0
M  V30 4673 C 440.242 -2.00604 -0.33608 0
M  V30 4674 C 440.597 -1.15948 -1.53538 0
M  V30 4675 O 439.89 -0.221385 -1.90317 0
M  V30 4676 C 440.084 -3.49019 -0.769458 0
M  V30 4677 C 439.913 -4.48038 0.386301 0
M  V30 4678 C 438.683 -4.97757 0.869854 0
M  V30 4679 C 440.881 -4.99558 1.22254 0
M  V30 4680 N 438.863 -5.80575 1.99515 0
M  V30 4681 C 440.234 -5.79816 2.19575 0
M  V30 4682 C 442.289 -4.81799 1.25597 0
M  V30 4683 C 440.992 -6.44208 3.19981 0
M  V30 4684 C 443.018 -5.46989 2.24848 0
M  V30 4685 C 442.38 -6.27058 3.20901 0
M  V30 4686 H 438.479 -0.777013 -0.088172 0
M  V30 4687 H 441.063 -1.90583 0.398266 0
M  V30 4688 H 439.234 -3.59383 -1.47303 0
M  V30 4689 H 440.966 -3.81263 -1.35722 0
M  V30 4690 H 437.721 -4.71464 0.449281 0
M  V30 4691 H 438.145 -6.26675 2.5614 0
M  V30 4692 H 442.787 -4.19501 0.527158 0
M  V30 4693 H 440.505 -7.05656 3.93796 0
M  V30 4694 H 444.091 -5.35189 2.28174 0
M  V30 4695 H 442.971 -6.7661 3.96445 0
M  V30 4696 N 440.474 -0.00167713 -1.576 0
M  V30 4697 C 441.404 0.988091 -2.11563 0
M  V30 4698 C 442.385 1.35736 -1.02517 0
M  V30 4699 O 443.57 1.44082 -1.30208 0
M  V30 4700 C 440.7 2.27941 -2.62031 0
M  V30 4701 C 439.654 2.0517 -3.75619 0
M  V30 4702 C 438.98 3.4033 -4.12407 0
M  V30 4703 C 440.28 1.41294 -5.02825 0
M  V30 4704 H 441.974 0.538771 -2.94513 0
M  V30 4705 H 439.52 0.257712 -1.41675 0
M  V30 4706 H 441.473 2.97539 -2.9841 0
M  V30 4707 H 440.197 2.74989 -1.76205 0
M  V30 4708 H 438.856 1.37998 -3.39635 0
M  V30 4709 H 438.504 3.85085 -3.23603 0
M  V30 4710 H 438.204 3.25909 -4.88935 0
M  V30 4711 H 439.728 4.1124 -4.51347 0
M  V30 4712 H 441.142 2.00851 -5.36965 0
M  V30 4713 H 439.539 1.37356 -5.84169 0
M  V30 4714 H 440.609 0.382362 -4.8339 0
M  V30 4715 N 441.952 1.55251 0.271103 0
M  V30 4716 C 442.882 1.9127 1.33933 0
M  V30 4717 C 443.863 0.77478 1.5143 0
M  V30 4718 O 445.048 1.03307 1.64442 0
M  V30 4719 C 442.178 2.18627 2.69851 0
M  V30 4720 C 441.132 3.34442 2.67081 0
M  V30 4721 C 440.458 3.47284 4.06569 0
M  V30 4722 C 441.758 4.70784 2.26185 0
M  V30 4723 H 443.452 2.80744 1.04035 0
M  V30 4724 H 440.998 1.35077 0.499017 0
M  V30 4725 H 442.951 2.42413 3.44694 0
M  V30 4726 H 441.675 1.25955 3.01335 0
M  V30 4727 H 440.334 3.10627 1.94695 0
M  V30 4728 H 439.982 2.52074 4.35279 0
M  V30 4729 H 439.682 4.25152 4.0561 0
M  V30 4730 H 441.206 3.73363 4.83148 0
M  V30 4731 H 442.62 4.94102 2.90751 0
M  V30 4732 H 441.017 5.51582 2.36384 0
M  V30 4733 H 442.087 4.69478 1.21319 0
M  V30 4734 N 443.43 -0.535701 1.48216 0
M  V30 4735 C 444.36 -1.65014 1.65204 0
M  V30 4736 C 445.341 -1.62554 0.501011 0
M  V30 4737 O 446.526 -1.7984 0.732886 0
M  V30 4738 C 443.656 -3.03616 1.68626 0
M  V30 4739 C 442.61 -3.20932 2.83172 0
M  V30 4740 C 441.936 -4.60537 2.71679 0
M  V30 4741 C 443.236 -3.04249 4.24535 0
M  V30 4742 H 444.93 -1.51053 2.58502 0
M  V30 4743 H 442.476 -0.725262 1.24402 0
M  V30 4744 H 444.429 -3.81446 1.79099 0
M  V30 4745 H 443.153 -3.18587 0.719026 0
M  V30 4746 H 441.812 -2.45517 2.72244 0
M  V30 4747 H 441.46 -4.72336 1.72937 0
M  V30 4748 H 441.16 -4.73069 3.48538 0
M  V30 4749 H 442.684 -5.40475 2.84112 0
M  V30 4750 H 444.098 -3.71877 4.36326 0
M  V30 4751 H 442.495 -3.28278 5.02348 0
M  V30 4752 H 443.565 -2.00739 4.41397 0
M  V30 4753 N 444.908 -1.36708 -0.784132 0
M  V30 4754 C 446.136 -1.34398 -1.57305 0
M  V30 4755 C 446.551 0.0735577 -1.88657 0
M  V30 4756 O 445.908 1.03193 -1.50524 0
M  V30 4757 C 445.959 -2.17053 -2.89085 0
M  V30 4758 O 445.68 -3.53281 -2.59083 0
M  V30 4759 C 447.181 -2.22583 -3.83369 0
M  V30 4760 H 444.401 -0.460819 -0.487736 0
M  V30 4761 H 446.945 -1.79879 -0.972819 0
M  V30 4762 H 445.1 -1.75113 -3.45564 0
M  V30 4763 H 445.514 -3.9647 -3.43383 0
M  V30 4764 H 446.988 -2.84763 -4.72878 0
M  V30 4765 H 447.465 -1.23075 -4.21603 0
M  V30 4766 H 448.071 -2.64781 -3.32823 0
M  V30 4767 N 446.386 1.0089 -1.21074 0
M  V30 4768 C 447.611 1.78727 -1.05221 0
M  V30 4769 C 448.036 1.83932 0.393795 0
M  V30 4770 O 447.394 1.28004 1.28393 0
M  V30 4771 C 447.442 3.20665 -1.64944 0
M  V30 4772 O 446.546 4.02632 -0.892273 0
M  V30 4773 H 445.887 0.550973 -0.370574 0
M  V30 4774 H 448.417 1.26847 -1.60534 0
M  V30 4775 H 448.427 3.71352 -1.69002 0
M  V30 4776 H 447.102 3.16191 -2.70177 0
M  V30 4777 H 445.679 3.61207 -0.926492 0
M  V30 4778 N 447.864 1.01787 1.20321 0
M  V30 4779 C 448.774 0.598898 2.26827 0
M  V30 4780 C 449.79 -0.36418 1.70146 0
M  V30 4781 O 450.966 -0.224812 2.00141 0
M  V30 4782 C 448.031 -0.0549769 3.46656 0
M  V30 4783 C 447.092 0.954205 4.18561 0
M  V30 4784 C 446.325 0.331439 5.3267 0
M  V30 4785 O 446.548 -0.86851 5.63749 0
M  V30 4786 O 445.482 1.0488 5.92692 0
M  V30 4787 H 449.308 1.48562 2.64883 0
M  V30 4788 H 446.893 0.787434 1.26964 0
M  V30 4789 H 448.775 -0.420102 4.19301 0
M  V30 4790 H 447.45 -0.915876 3.10473 0
M  V30 4791 H 446.357 1.37072 3.48083 0
M  V30 4792 H 447.69 1.78511 4.58688 0
M  V30 4793 N 449.342 -1.36122 0.79427 0
M  V30 4794 C 450.753 -1.81646 0.431446 0
M  V30 4795 C 451.104 -1.66043 -1.04518 0
M  V30 4796 O 450.229 -1.1841 -1.8113 0
M  V30 4797 C 450.824 -3.29785 0.776341 0
M  V30 4798 C 449.383 -3.73501 0.466282 0
M  V30 4799 C 448.53 -2.58313 1.00844 0
M  V30 4800 H 451.481 -1.24274 0.986995 0
M  V30 4801 H 451.502 -3.80437 0.0692413 0
M  V30 4802 H 451.014 -3.4111 1.8511 0
M  V30 4803 H 449.115 -3.67733 -0.600245 0
M  V30 4804 H 449.228 -4.68754 0.990288 0
M  V30 4805 H 447.592 -2.5102 0.431406 0
M  V30 4806 H 448.375 -2.72421 2.08906 0
M  V30 4807 N 450.82 -0.546701 -1.47814 0
M  V30 4808 C 452.066 -0.0187684 -2.02791 0
M  V30 4809 C 452.399 1.32338 -1.42128 0
M  V30 4810 O 451.674 1.85867 -0.573023 0
M  V30 4811 C 451.957 0.0854985 -3.59998 0
M  V30 4812 C 451.81 -1.283 -4.31114 0
M  V30 4813 C 453.129 0.80412 -4.32691 0
M  V30 4814 H 450.248 -0.0082946 -0.736953 0
M  V30 4815 H 452.89 -0.706962 -1.76358 0
M  V30 4816 H 451.04 0.671609 -3.82651 0
M  V30 4817 H 452.712 -1.91151 -4.19832 0
M  V30 4818 H 450.955 -1.86049 -3.91878 0
M  V30 4819 H 451.626 -1.16287 -5.39612 0
M  V30 4820 H 454.102 0.306576 -4.14969 0
M  V30 4821 H 452.978 0.846011 -5.42341 0
M  V30 4822 H 453.239 1.85802 -4.01161 0
M  V30 4823 N 452.299 1.55045 -0.282633 0
M  V30 4824 C 453.209 2.26491 0.61147 0
M  V30 4825 C 454.225 1.29348 1.16384 0
M  V30 4826 O 455.401 1.62298 1.19253 0
M  V30 4827 C 452.466 2.97779 1.77563 0
M  V30 4828 C 451.527 4.10418 1.25919 0
M  V30 4829 C 450.76 4.78297 2.36786 0
M  V30 4830 O 450.983 4.45426 3.56303 0
M  V30 4831 O 449.917 5.66089 2.04517 0
M  V30 4832 H 453.743 3.03683 0.0324615 0
M  V30 4833 H 451.328 1.49317 -0.0497576 0
M  V30 4834 H 453.21 3.42554 2.45427 0
M  V30 4835 H 451.885 2.23498 2.34159 0
M  V30 4836 H 450.792 3.70082 0.546797 0
M  V30 4837 H 452.125 4.86622 0.738887 0
M  V30 4838 N 453.777 0.010035 1.57597 0
M  V30 4839 C 455.002 -0.687021 1.95691 0
M  V30 4840 C 455.427 -1.65952 0.885519 0
M  V30 4841 O 454.785 -1.80633 -0.15543 0
M  V30 4842 C 454.833 -1.3864 3.32884 0
M  V30 4843 O 453.937 -2.50115 3.27897 0
M  V30 4844 H 453.278 -0.181989 0.638573 0
M  V30 4845 H 455.808 0.0662122 2.04493 0
M  V30 4846 H 455.818 -1.74754 3.6868 0
M  V30 4847 H 454.493 -0.673411 4.10412 0
M  V30 4848 H 453.07 -2.16253 3.03791 0
M  V30 4849 N 455.255 -1.55392 -0.262866 0
M  V30 4850 C 456.185 -1.91978 -1.32917 0
M  V30 4851 C 457.166 -0.7828 -1.51017 0
M  V30 4852 O 458.351 -1.04178 -1.63892 0
M  V30 4853 C 455.481 -2.20055 -2.68687 0
M  V30 4854 C 454.435 -3.35854 -2.65304 0
M  V30 4855 C 453.761 -3.49435 -4.04721 0
M  V30 4856 C 455.061 -4.71977 -2.23685 0
M  V30 4857 H 456.755 -2.81292 -1.02544 0
M  V30 4858 H 454.301 -1.3534 -0.491846 0
M  V30 4859 H 456.254 -2.44237 -3.43404 0
M  V30 4860 H 454.978 -1.27551 -3.00663 0
M  V30 4861 H 453.637 -3.11655 -1.93045 0
M  V30 4862 H 453.285 -2.54379 -4.33936 0
M  V30 4863 H 452.985 -4.27297 -4.0335 0
M  V30 4864 H 454.509 -3.7592 -4.81161 0
M  V30 4865 H 455.923 -4.95637 -2.88127 0
M  V30 4866 H 454.32 -5.52828 -2.33456 0
M  V30 4867 H 455.39 -4.70115 -1.18827 0
M  V30 4868 N 456.733 0.527833 -1.48498 0
M  V30 4869 C 457.696 1.61439 -1.62696 0
M  V30 4870 C 458.696 1.52824 -0.500136 0
M  V30 4871 O 459.886 1.56456 -0.765976 0
M  V30 4872 C 457.018 3.01063 -1.59918 0
M  V30 4873 H 458.211 1.50189 -2.59583 0
M  V30 4874 H 455.764 0.750055 -1.37127 0
M  V30 4875 H 456.499 3.17818 -0.645163 0
M  V30 4876 H 456.284 3.08725 -2.41726 0
M  V30 4877 H 457.774 3.80057 -1.73051 0
M  V30 4878 N 458.211 1.37122 0.776871 0
M  V30 4879 C 459.143 1.28342 1.89897 0
M  V30 4880 C 460.156 0.200277 1.61563 0
M  V30 4881 O 461.345 0.456012 1.72577 0
M  V30 4882 C 458.445 0.960427 3.25006 0
M  V30 4883 C 457.618 2.148 3.81025 0
M  V30 4884 C 456.677 1.79608 4.94598 0
M  V30 4885 O 455.703 2.51845 5.10454 0
M  V30 4886 N 456.905 0.737171 5.758 0
M  V30 4887 H 459.67 2.25027 1.97947 0
M  V30 4888 H 457.231 1.3068 0.955739 0
M  V30 4889 H 459.223 0.705942 3.98495 0
M  V30 4890 H 457.793 0.0823066 3.12492 0
M  V30 4891 H 457.013 2.56454 2.99374 0
M  V30 4892 H 458.301 2.9411 4.15183 0
M  V30 4893 H 457.699 0.137637 5.65533 0
M  V30 4894 H 456.256 0.542534 6.49538 0
M  V30 4895 N 459.689 -1.00246 1.21608 0
M  V30 4896 C 460.652 -2.07233 0.979133 0
M  V30 4897 C 461.652 -1.6072 -0.0508219 0
M  V30 4898 O 462.842 -1.73196 0.186712 0
M  V30 4899 C 459.974 -3.37546 0.477016 0
M  V30 4900 H 461.167 -2.29687 1.92831 0
M  V30 4901 H 458.72 -1.17261 1.03342 0
M  V30 4902 H 459.455 -3.20773 -0.476966 0
M  V30 4903 H 459.24 -3.72638 1.21997 0
M  V30 4904 H 460.73 -4.16285 0.331181 0
M  V30 4905 N 461.167 -1.02423 -1.1978 0
M  V30 4906 C 462.097 -0.62157 -2.25075 0
M  V30 4907 C 463.078 0.367148 -1.6609 0
M  V30 4908 O 464.263 0.250892 -1.92573 0
M  V30 4909 C 461.393 0.0331826 -3.47284 0
M  V30 4910 C 460.347 -0.877323 -4.18912 0
M  V30 4911 C 459.673 -0.0879296 -5.34628 0
M  V30 4912 C 460.973 -2.18892 -4.74219 0
M  V30 4913 H 462.667 -1.50179 -2.59011 0
M  V30 4914 H 460.213 -0.723547 -1.24502 0
M  V30 4915 H 462.166 0.326488 -4.20133 0
M  V30 4916 H 460.89 0.948164 -3.12534 0
M  V30 4917 H 459.549 -1.15475 -3.47938 0
M  V30 4918 H 459.197 0.828941 -4.96123 0
M  V30 4919 H 458.897 -0.694359 -5.83483 0
M  V30 4920 H 460.421 0.198743 -6.10276 0
M  V30 4921 H 461.835 -1.95746 -5.38847 0
M  V30 4922 H 460.232 -2.74686 -5.33542 0
M  V30 4923 H 461.302 -2.84674 -3.92541 0
M  V30 4924 N 462.645 1.35699 -0.801477 0
M  V30 4925 C 464.061 1.52065 -0.484596 0
M  V30 4926 C 464.261 1.75215 0.995084 0
M  V30 4927 O 463.317 1.79061 1.78026 0
M  V30 4928 C 464.63 2.69908 -1.32552 0
M  V30 4929 C 466.178 2.83784 -1.32044 0
M  V30 4930 C 466.653 4.04646 -2.14536 0
M  V30 4931 N 468.144 4.11814 -2.12046 0
M  V30 4932 C 468.879 5.04437 -2.72636 0
M  V30 4933 N 468.375 6.02426 -3.42133 0
M  V30 4934 N 470.168 4.97144 -2.62305 0
M  V30 4935 H 462.319 1.18928 -1.75983 0
M  V30 4936 H 464.582 0.581455 -0.748741 0
M  V30 4937 H 464.288 2.59363 -2.37537 0
M  V30 4938 H 464.162 3.64376 -0.975181 0
M  V30 4939 H 466.549 2.93783 -0.27846 0
M  V30 4940 H 466.63 1.90188 -1.71062 0
M  V30 4941 H 466.274 3.95407 -3.18772 0
M  V30 4942 H 466.204 4.97413 -1.72882 0
M  V30 4943 H 468.695 3.41664 -1.61476 0
M  V30 4944 H 469.008 6.69688 -3.85666 0
M  V30 4945 H 467.353 6.02615 -3.46237 0
M  V30 4946 H 470.544 4.19546 -2.07603 0
M  V30 4947 H 470.717 5.69138 -3.09815 0
M  V30 4948 N 464.123 0.554532 1.47522 0
M  V30 4949 C 465.369 0.0295227 2.02779 0
M  V30 4950 C 465.702 -1.31582 1.42828 0
M  V30 4951 O 464.977 -1.85561 0.582872 0
M  V30 4952 C 465.26 -0.0664057 3.60039 0
M  V30 4953 C 465.113 1.30585 4.30427 0
M  V30 4954 C 466.432 -0.781162 4.33112 0
M  V30 4955 H 463.551 0.0122027 0.736899 0
M  V30 4956 H 466.193 0.716305 1.7598 0
M  V30 4957 H 464.343 -0.651307 3.83002 0
M  V30 4958 H 466.015 1.93374 4.18813 0
M  V30 4959 H 464.258 1.88125 3.90886 0
M  V30 4960 H 464.929 1.19147 5.38988 0
M  V30 4961 H 467.405 -0.284565 4.15126 0
M  V30 4962 H 466.281 -0.817237 5.42782 0
M  V30 4963 H 466.542 -1.83672 4.0214 0
M  V30 4964 N 465.601 -1.54893 0.290851 0
M  V30 4965 C 466.85 -1.99111 -0.322113 0
M  V30 4966 C 467.163 -1.18283 -1.55784 0
M  V30 4967 O 468.369 -1.5272 -2.24475 0
M  V30 4968 C 466.825 -3.54442 -0.624438 0
M  V30 4969 C 466.433 -4.44066 0.592373 0
M  V30 4970 C 468.177 -4.07211 -1.19916 0
M  V30 4971 C 466.084 -5.90812 0.263762 0
M  V30 4972 H 465.014 -0.743712 -0.124133 0
M  V30 4973 H 467.665 -1.79132 0.39797 0
M  V30 4974 H 466.047 -3.70281 -1.40384 0
M  V30 4975 H 467.221 -4.39999 1.36886 0
M  V30 4976 H 465.536 -4.02015 1.08502 0
M  V30 4977 H 468.133 -5.14407 -1.45909 0
M  V30 4978 H 468.476 -3.57196 -2.13815 0
M  V30 4979 H 469.009 -3.94873 -0.481687 0
M  V30 4980 H 465.748 -6.44955 1.17105 0
M  V30 4981 H 465.268 -5.97911 -0.475655 0
M  V30 4982 H 466.947 -6.46852 -0.138354 0
M  V30 4983 N 467.08 -0.0183926 -1.57589 0
M  V30 4984 C 468.357 0.700621 -1.82622 0
M  V30 4985 C 468.737 1.90951 -0.90005 0
M  V30 4986 O 468.085 2.28452 0.0469145 0
M  V30 4987 C 468.295 1.08899 -3.31575 0
M  V30 4988 C 469.643 1.48514 -3.9778 0
M  V30 4989 O 470.667 1.18227 -3.36007 0
M  V30 4990 O 469.526 2.04903 -5.06633 0
M  V30 4991 H 466.62 0.342743 -0.752633 0
M  V30 4992 H 469.166 -0.0452548 -1.6964 0
M  V30 4993 H 467.938 0.228113 -3.90635 0
M  V30 4994 H 467.561 1.89338 -3.49624 0
M  V30 4995 N 468.558 1.5553 0.254621 0
M  V30 4996 C 469.807 1.76202 0.981612 0
M  V30 4997 C 470.12 0.580883 1.86776 0
M  V30 4998 O 471.326 0.670448 2.63092 0
M  V30 4999 C 469.782 3.11921 1.79537 0
M  V30 5000 C 469.39 4.37659 0.956991 0
M  V30 5001 C 471.134 3.41936 2.51555 0
M  V30 5002 C 469.041 5.64411 1.76619 0
M  V30 5003 H 467.971 0.656841 0.370237 0
M  V30 5004 H 470.622 1.81969 0.236556 0
M  V30 5005 H 469.004 3.00241 2.58208 0
M  V30 5006 H 470.178 4.60307 0.21315 0
M  V30 5007 H 468.493 4.14922 0.350497 0
M  V30 5008 H 471.09 4.33849 3.12536 0
M  V30 5009 H 471.433 2.62905 3.22779 0
M  V30 5010 H 471.966 3.54797 1.799 0
M  V30 5011 H 468.705 6.46241 1.09783 0
M  V30 5012 H 468.225 5.45877 2.48551 0
M  V30 5013 H 469.904 6.03386 2.33527 0
M  V30 5014 N 470.036 -0.519951 1.48776 0
M  V30 5015 C 471.266 -1.29783 1.60748 0
M  V30 5016 C 471.674 -1.87253 0.27072 0
M  V30 5017 O 471.017 -1.67628 -0.751438 0
M  V30 5018 C 471.079 -2.47984 2.60277 0
M  V30 5019 C 470.743 -2.11526 4.051 0
M  V30 5020 C 471.74 -1.66608 4.92481 0
M  V30 5021 C 469.425 -2.21742 4.50706 0
M  V30 5022 C 471.419 -1.32384 6.23501 0
M  V30 5023 C 469.106 -1.87129 5.81744 0
M  V30 5024 C 470.104 -1.42523 6.67964 0
M  V30 5025 O 469.792 -1.0837 7.96562 0
M  V30 5026 H 469.524 -0.400562 0.544542 0
M  V30 5027 H 472.078 -0.632879 1.95407 0
M  V30 5028 H 470.308 -3.17493 2.2076 0
M  V30 5029 H 471.997 -3.10036 2.61978 0
M  V30 5030 H 472.763 -1.58178 4.58481 0
M  V30 5031 H 468.642 -2.55415 3.83776 0
M  V30 5032 H 472.186 -0.974949 6.90754 0
M  V30 5033 H 468.083 -1.95204 6.15277 0
M  V30 5034 H 468.851 -1.21681 8.09405 0
M  V30 5035 N 471.514 -1.37532 -0.769588 0
M  V30 5036 C 472.742 -1.36059 -1.55871 0
M  V30 5037 C 473.157 0.053544 -1.88724 0
M  V30 5038 O 472.514 1.01591 -1.5161 0
M  V30 5039 C 472.565 -2.20107 -2.86767 0
M  V30 5040 O 472.286 -3.56009 -2.55321 0
M  V30 5041 C 473.787 -2.26636 -3.80987 0
M  V30 5042 H 471.007 -0.465967 -0.482821 0
M  V30 5043 H 473.551 -1.80901 -0.953686 0
M  V30 5044 H 471.706 -1.78768 -3.43687 0
M  V30 5045 H 472.12 -4.0009 -3.39158 0
M  V30 5046 H 473.594 -2.89763 -4.69831 0
M  V30 5047 H 474.071 -1.2754 -4.20274 0
M  V30 5048 H 474.677 -2.68296 -3.29996 0
M  V30 5049 N 472.992 0.995999 -1.22138 0
M  V30 5050 C 473.942 2.06988 -0.956042 0
M  V30 5051 C 474.926 1.60636 0.0921576 0
M  V30 5052 O 476.118 1.76607 -0.117958 0
M  V30 5053 C 473.247 3.39148 -0.532335 0
M  V30 5054 C 472.333 3.92142 -1.61509 0
M  V30 5055 N 472.724 4.18397 -2.84214 0
M  V30 5056 C 471.022 4.20514 -1.48606 0
M  V30 5057 C 471.723 4.61425 -3.54206 0
M  V30 5058 N 470.699 4.64934 -2.81669 0
M  V30 5059 H 474.501 2.25223 -1.88816 0
M  V30 5060 H 472.015 1.17748 -1.11845 0
M  V30 5061 H 474.012 4.15642 -0.323574 0
M  V30 5062 H 472.672 3.22314 0.392921 0
M  V30 5063 H 473.683 4.06682 -3.20671 0
M  V30 5064 H 470.36 4.12769 -0.626762 0
M  V30 5065 H 471.75 4.90387 -4.59315 0
M  V30 5066 N 474.47 1.03057 1.19235 0
M  V30 5067 C 475.886 0.747947 1.40989 0
M  V30 5068 C 476.086 -0.666752 1.90149 0
M  V30 5069 O 475.142 -1.43249 2.07933 0
M  V30 5070 C 476.455 1.7855 2.41951 0
M  V30 5071 C 478.003 1.80524 2.55695 0
M  V30 5072 C 478.478 2.83243 3.59913 0
M  V30 5073 N 479.969 2.8207 3.67411 0
M  V30 5074 C 480.704 3.58204 4.47747 0
M  V30 5075 N 480.2 4.44057 5.31775 0
M  V30 5076 N 481.993 3.46738 4.42413 0
M  V30 5077 H 474.144 1.94367 0.856468 0
M  V30 5078 H 476.407 0.840412 0.438647 0
M  V30 5079 H 476.113 2.79973 2.12857 0
M  V30 5080 H 475.987 1.6092 3.41152 0
M  V30 5081 H 478.374 0.79778 2.84112 0
M  V30 5082 H 478.455 2.02229 1.56643 0
M  V30 5083 H 478.099 3.84161 3.32239 0
M  V30 5084 H 478.029 2.58795 4.5862 0
M  V30 5085 H 480.52 2.19803 3.074 0
M  V30 5086 H 480.833 4.98884 5.90199 0
M  V30 5087 H 479.178 4.48129 5.3123 0
M  V30 5088 H 482.369 2.79077 3.75811 0
M  V30 5089 H 482.542 4.06322 5.04783 0
M  V30 5090 N 475.948 -1.35272 0.808662 0
M  V30 5091 C 477.194 -1.99434 0.399717 0
M  V30 5092 C 477.549 -1.62992 -1.02232 0
M  V30 5093 O 476.842 -0.884091 -1.69983 0
M  V30 5094 C 477.036 -3.53556 0.522798 0
M  V30 5095 C 476.865 -4.04969 1.95525 0
M  V30 5096 C 475.635 -4.34228 2.58407 0
M  V30 5097 C 477.833 -4.23362 2.92009 0
M  V30 5098 N 475.815 -4.71585 3.93041 0
M  V30 5099 C 477.186 -4.63739 4.11517 0
M  V30 5100 C 479.241 -4.05576 2.88813 0
M  V30 5101 C 477.944 -4.88189 5.28265 0
M  V30 5102 C 479.97 -4.31184 4.04765 0
M  V30 5103 C 479.332 -4.71834 5.23022 0
M  V30 5104 H 475.431 -0.757534 0.19408 0
M  V30 5105 H 478.015 -1.63939 1.05034 0
M  V30 5106 H 476.186 -3.88277 -0.0978471 0
M  V30 5107 H 477.918 -4.04604 0.0882378 0
M  V30 5108 H 474.673 -4.24621 2.09747 0
M  V30 5109 H 475.097 -4.9452 4.62363 0
M  V30 5110 H 479.739 -3.73288 1.98535 0
M  V30 5111 H 477.457 -5.1935 6.19113 0
M  V30 5112 H 481.043 -4.18972 4.03675 0
M  V30 5113 H 479.923 -4.91263 6.11253 0
M  V30 5114 N 477.426 -0.562348 -1.47226 0
M  V30 5115 C 478.842 -0.222492 -1.58042 0
M  V30 5116 C 479.042 1.27505 -1.56028 0
M  V30 5117 O 478.098 2.05555 -1.46641 0
M  V30 5118 C 479.411 -0.853694 -2.88327 0
M  V30 5119 C 480.959 -0.825397 -3.01921 0
M  V30 5120 C 481.434 -1.43576 -4.34914 0
M  V30 5121 N 482.925 -1.39918 -4.41562 0
M  V30 5122 C 483.66 -1.84103 -5.43041 0
M  V30 5123 N 483.156 -2.36167 -6.51304 0
M  V30 5124 N 484.949 -1.75142 -5.34118 0
M  V30 5125 H 477.1 -1.53525 -1.46778 0
M  V30 5126 H 479.363 -0.640527 -0.698877 0
M  V30 5127 H 479.069 -1.90635 -2.95552 0
M  V30 5128 H 478.943 -0.34977 -3.75575 0
M  V30 5129 H 481.33 0.218583 -2.94289 0
M  V30 5130 H 481.411 -1.36713 -2.16202 0
M  V30 5131 H 481.055 -2.47884 -4.43301 0
M  V30 5132 H 480.985 -0.869427 -5.19373 0
M  V30 5133 H 483.476 -1.0184 -3.63919 0
M  V30 5134 H 483.789 -2.67793 -7.24919 0
M  V30 5135 H 482.134 -2.40181 -6.52179 0
M  V30 5136 H 485.325 -1.34241 -4.48439 0
M  V30 5137 H 485.498 -2.09895 -6.13065 0
M  V30 5138 N 478.904 1.54736 -0.299062 0
M  V30 5139 C 480.153 1.99279 0.311549 0
M  V30 5140 C 480.466 1.19107 1.55154 0
M  V30 5141 O 481.672 1.53908 2.23662 0
M  V30 5142 C 480.128 3.54768 0.605632 0
M  V30 5143 C 479.736 4.43746 -0.615914 0
M  V30 5144 C 481.48 4.07841 1.17754 0
M  V30 5145 C 479.387 5.90663 -0.29509 0
M  V30 5146 H 478.317 0.744359 0.120187 0
M  V30 5147 H 480.968 1.78919 -0.407464 0
M  V30 5148 H 479.35 3.71021 1.38419 0
M  V30 5149 H 480.524 4.39267 -1.39218 0
M  V30 5150 H 478.839 4.01434 -1.10633 0
M  V30 5151 H 481.436 5.15174 1.43179 0
M  V30 5152 H 481.779 3.58324 2.11918 0
M  V30 5153 H 482.312 3.95123 0.460739 0
M  V30 5154 H 479.051 6.44325 -1.20524 0
M  V30 5155 H 478.571 5.98155 0.44394 0
M  V30 5156 H 480.25 6.46916 0.104048 0
M  V30 5157 N 480.382 0.0267497 1.57577 0
M  V30 5158 C 481.292 -0.971633 2.13533 0
M  V30 5159 C 482.308 -1.35868 1.08701 0
M  V30 5160 O 483.484 -1.44058 1.40746 0
M  V30 5161 C 480.549 -2.23622 2.64941 0
M  V30 5162 C 479.61 -1.90982 3.8448 0
M  V30 5163 C 478.843 -3.11411 4.33427 0
M  V30 5164 O 479.066 -4.23992 3.81558 0
M  V30 5165 O 478 -2.93848 5.25297 0
M  V30 5166 H 481.826 -0.525853 2.99113 0
M  V30 5167 H 479.411 -0.193712 1.48139 0
M  V30 5168 H 481.293 -2.97864 2.98086 0
M  V30 5169 H 479.968 -2.67386 1.82446 0
M  V30 5170 H 478.875 -1.14132 3.56265 0
M  V30 5171 H 480.208 -1.52036 4.6813 0
M  V30 5172 N 481.861 -1.55662 -0.24637 0
M  V30 5173 C 482.771 -1.93495 -1.32653 0
M  V30 5174 C 483.787 -0.835462 -1.5263 0
M  V30 5175 O 484.963 -1.1369 -1.66242 0
M  V30 5176 C 482.028 -2.22242 -2.66101 0
M  V30 5177 C 481.089 -3.45625 -2.54641 0
M  V30 5178 C 480.322 -3.72991 -3.81724 0
M  V30 5179 O 480.545 -3.02421 -4.8363 0
M  V30 5180 O 479.479 -4.66515 -3.80325 0
M  V30 5181 H 483.305 -2.85498 -1.03559 0
M  V30 5182 H 480.89 -1.42551 -0.44717 0
M  V30 5183 H 482.772 -2.42037 -3.44958 0
M  V30 5184 H 481.447 -1.33417 -2.94926 0
M  V30 5185 H 480.354 -3.31136 -1.74067 0
M  V30 5186 H 481.687 -4.34754 -2.3076 0
M  V30 5187 N 483.339 0.512053 -1.4905 0
M  V30 5188 C 484.586 1.26686 -1.57978 0
M  V30 5189 C 484.914 1.92733 -0.261553 0
M  V30 5190 O 484.169 1.80772 0.749667 0
M  V30 5191 C 484.468 2.36446 -2.68008 0
M  V30 5192 C 484.134 1.87932 -4.09869 0
M  V30 5193 C 482.796 1.74419 -4.48477 0
M  V30 5194 C 485.148 1.5149 -4.98698 0
M  V30 5195 C 482.476 1.22827 -5.73699 0
M  V30 5196 C 484.828 1.01355 -6.24428 0
M  V30 5197 C 483.492 0.864735 -6.61875 0
M  V30 5198 H 482.762 0.463577 -0.578081 0
M  V30 5199 H 485.409 0.569421 -1.82838 0
M  V30 5200 H 483.714 3.11933 -2.37076 0
M  V30 5201 H 485.411 2.9453 -2.72127 0
M  V30 5202 H 482.001 1.99405 -3.79389 0
M  V30 5203 H 486.185 1.60782 -4.69535 0
M  V30 5204 H 481.441 1.10008 -6.01422 0
M  V30 5205 H 485.615 0.722351 -6.92644 0
M  V30 5206 H 483.242 0.462777 -7.5879 0
M  V30 5207 N 484.817 1.37938 0.762283 0
M  V30 5208 C 485.767 1.30976 1.86626 0
M  V30 5209 C 486.751 0.195714 1.59705 0
M  V30 5210 O 487.943 0.430937 1.71674 0
M  V30 5211 C 485.072 1.12847 3.24223 0
M  V30 5212 C 484.158 2.28836 3.57064 0
M  V30 5213 N 484.549 3.54256 3.61022 0
M  V30 5214 C 482.847 2.21198 3.87282 0
M  V30 5215 C 483.548 4.30798 3.90881 0
M  V30 5216 N 482.524 3.60049 4.07266 0
M  V30 5217 H 486.326 2.25946 1.87951 0
M  V30 5218 H 483.84 1.31046 0.959206 0
M  V30 5219 H 485.837 1.05943 4.03214 0
M  V30 5220 H 484.497 0.188024 3.24155 0
M  V30 5221 H 485.508 3.8804 3.42995 0
M  V30 5222 H 482.185 1.35264 3.94981 0
M  V30 5223 H 483.575 5.39386 4.00639 0
M  V30 5224 N 486.295 -0.989507 1.22664 0
M  V30 5225 C 487.242 -2.08024 0.999733 0
M  V30 5226 C 488.212 -1.65909 -0.0797047 0
M  V30 5227 O 489.397 -1.90669 0.0705715 0
M  V30 5228 C 486.537 -3.40067 0.587234 0
M  V30 5229 C 485.65 -3.95505 1.73781 0
M  V30 5230 C 484.785 -5.15722 1.27297 0
M  V30 5231 C 483.824 -5.63305 2.39488 0
M  V30 5232 N 482.961 -6.74758 1.94026 0
M  V30 5233 H 487.801 -2.26768 1.9334 0
M  V30 5234 H 485.338 -1.11171 0.963297 0
M  V30 5235 H 487.296 -4.15899 0.329227 0
M  V30 5236 H 485.926 -3.21314 -0.309426 0
M  V30 5237 H 484.978 -3.16513 2.11006 0
M  V30 5238 H 486.29 -4.26797 2.58158 0
M  V30 5239 H 485.444 -5.98854 0.972546 0
M  V30 5240 H 484.183 -4.86061 0.399445 0
M  V30 5241 H 483.188 -4.78759 2.70315 0
M  V30 5242 H 484.413 -5.94988 3.27362 0
M  V30 5243 H 482.359 -6.46874 1.09041 0
M  V30 5244 H 482.276 -7.05386 2.71968 0
M  V30 5245 H 483.544 -7.61387 1.67062 0
M  V30 5246 N 487.773 -1.03688 -1.18687 0
M  V30 5247 C 488.736 -0.629115 -2.20397 0
M  V30 5248 C 489.736 0.311495 -1.57754 0
M  V30 5249 O 490.926 0.0974107 -1.73927 0
M  V30 5250 C 488.058 0.0782231 -3.4081 0
M  V30 5251 H 489.251 -1.52915 -2.57987 0
M  V30 5252 H 486.804 -0.828988 -1.32505 0
M  V30 5253 H 487.539 0.992233 -3.08748 0
M  V30 5254 H 487.324 -0.597776 -3.87517 0
M  V30 5255 H 488.814 0.350156 -4.16129 0
M  V30 5256 N 489.251 1.34841 -0.815825 0
M  V30 5257 C 490.497 1.99219 -0.410288 0
M  V30 5258 C 490.852 1.63532 1.01366 0
M  V30 5259 O 490.145 0.893093 1.69512 0
M  V30 5260 C 490.339 3.53273 -0.541541 0
M  V30 5261 C 490.168 4.03927 -1.9767 0
M  V30 5262 C 488.938 4.32852 -2.60706 0
M  V30 5263 C 491.136 4.21808 -2.9425 0
M  V30 5264 N 489.118 4.69494 -3.95536 0
M  V30 5265 C 490.489 4.6155 -4.13971 0
M  V30 5266 C 492.544 4.04038 -2.9096 0
M  V30 5267 C 491.247 4.85381 -5.30847 0
M  V30 5268 C 493.273 4.29031 -4.07046 0
M  V30 5269 C 492.635 4.69054 -5.25517 0
M  V30 5270 H 488.734 0.756494 -0.198094 0
M  V30 5271 H 491.318 1.63379 -1.05902 0
M  V30 5272 H 489.489 3.88323 0.0772544 0
M  V30 5273 H 491.221 4.04551 -0.109694 0
M  V30 5274 H 487.976 4.23503 -2.11995 0
M  V30 5275 H 488.4 4.92061 -4.64979 0
M  V30 5276 H 493.042 3.7223 -2.00512 0
M  V30 5277 H 490.76 5.16059 -6.21859 0
M  V30 5278 H 494.346 4.16826 -4.05891 0
M  V30 5279 H 493.226 4.88014 -6.1385 0
M  V30 5280 N 490.729 0.570148 1.46925 0
M  V30 5281 C 491.676 -0.170257 2.30171 0
M  V30 5282 C 492.646 -0.896099 1.39855 0
M  V30 5283 O 493.831 -0.889248 1.68811 0
M  V30 5284 C 490.971 -1.18605 3.24079 0
M  V30 5285 C 490.084 -0.464947 4.29491 0
M  V30 5286 C 489.219 -1.46716 5.10537 0
M  V30 5287 C 488.258 -0.731758 6.0771 0
M  V30 5288 N 487.395 -1.68142 6.81669 0
M  V30 5289 H 492.235 0.545713 2.92961 0
M  V30 5290 H 489.772 0.280938 1.44392 0
M  V30 5291 H 491.73 -1.78771 3.76957 0
M  V30 5292 H 490.36 -1.86989 2.63125 0
M  V30 5293 H 489.412 0.251506 3.79568 0
M  V30 5294 H 490.724 0.110548 4.98677 0
M  V30 5295 H 489.878 -2.14199 5.6763 0
M  V30 5296 H 488.617 -2.07658 4.41282 0
M  V30 5297 H 487.622 -0.0430787 5.49783 0
M  V30 5298 H 488.847 -0.127904 6.7898 0
M  V30 5299 H 486.793 -2.27918 6.15134 0
M  V30 5300 H 486.71 -1.15841 7.47072 0
M  V30 5301 H 487.978 -2.347 7.43328 0
M  V30 5302 N 492.207 -1.54576 0.307264 0
M  V30 5303 C 493.435 -2.04675 -0.302597 0
M  V30 5304 C 493.85 -1.18425 -1.47041 0
M  V30 5305 O 493.207 -0.211257 -1.81273 0
M  V30 5306 C 493.258 -3.53575 -0.752801 0
M  V30 5307 O 492.979 -4.36547 0.368536 0
M  V30 5308 C 494.48 -4.19699 -1.42717 0
M  V30 5309 H 491.7 -0.66786 -0.0648374 0
M  V30 5310 H 494.244 -1.99516 0.448716 0
M  V30 5311 H 492.399 -3.59074 -1.45412 0
M  V30 5312 H 492.813 -5.24497 0.0168937 0
M  V30 5313 H 494.287 -5.25388 -1.69327 0
M  V30 5314 H 494.764 -3.69815 -2.36925 0
M  V30 5315 H 495.37 -4.18293 -0.768856 0
M  V30 5316 N 493.685 -0.035106 -1.57561 0
M  V30 5317 C 494.933 0.64096 -1.91667 0
M  V30 5318 C 495.254 1.72323 -0.912681 0
M  V30 5319 O 494.524 1.95849 0.0449089 0
M  V30 5320 H 493.104 0.239743 -0.707483 0
M  V30 5321 H 495.766 -0.084321 -1.94718 0
M  V30 5322 H 494.862 1.08987 -2.92452 0
M  V30 5323 N 495.163 1.55791 0.238111 0
M  V30 5324 C 496.126 1.90239 1.27835 0
M  V30 5325 C 497.126 0.779552 1.4064 0
M  V30 5326 O 498.316 1.04747 1.3919 0
M  V30 5327 C 495.448 2.13859 2.65475 0
M  V30 5328 H 496.641 2.83262 0.985034 0
M  V30 5329 H 494.194 1.48818 0.477799 0
M  V30 5330 H 494.929 1.23334 2.99932 0
M  V30 5331 H 494.714 2.95643 2.57561 0
M  V30 5332 H 496.204 2.41664 3.40571 0
M  V30 5333 N 496.642 -0.504142 1.49319 0
M  V30 5334 C 497.89 -1.25598 1.58334 0
M  V30 5335 C 498.211 -1.93114 0.270538 0
M  V30 5336 O 497.481 -1.82585 -0.709891 0
M  V30 5337 H 496.061 -0.466571 0.58337 0
M  V30 5338 H 498.723 -0.584547 1.85928 0
M  V30 5339 H 497.819 -2.02159 2.37778 0
M  V30 5340 N 498.12 -1.38341 -0.754957 0
M  V30 5341 C 499.083 -1.35262 -1.85032 0
M  V30 5342 C 500.083 -0.253393 -1.58791 0
M  V30 5343 O 501.273 -0.510205 -1.66561 0
M  V30 5344 C 498.405 -1.10544 -3.22479 0
M  V30 5345 H 499.598 -2.32712 -1.8917 0
M  V30 5346 H 497.151 -1.23614 -0.956515 0
M  V30 5347 H 497.886 -0.136952 -3.24011 0
M  V30 5348 H 497.671 -1.90127 -3.4292 0
M  V30 5349 H 499.161 -1.11082 -4.02555 0
M  V30 5350 N 499.598 0.982988 -1.23187 0
M  V30 5351 C 500.508 2.10907 -1.02739 0
M  V30 5352 C 501.524 1.73979 0.0273188 0
M  V30 5353 O 502.7 2.00702 -0.16757 0
M  V30 5354 C 499.765 3.41142 -0.618304 0
M  V30 5355 C 498.826 3.92112 -1.74777 0
M  V30 5356 C 498.059 5.16131 -1.3581 0
M  V30 5357 O 498.282 5.6989 -0.241201 0
M  V30 5358 O 497.216 5.61103 -2.17824 0
M  V30 5359 H 501.042 2.31046 -1.97108 0
M  V30 5360 H 498.627 1.09284 -1.01869 0
M  V30 5361 H 500.509 4.19488 -0.400982 0
M  V30 5362 H 499.184 3.2234 0.296421 0
M  V30 5363 H 498.091 3.14895 -2.0197 0
M  V30 5364 H 499.424 4.15364 -2.64071 0
M  V30 5365 N 501.076 1.04316 1.18135 0
M  V30 5366 C 502.492 0.762858 1.40188 0
M  V30 5367 C 502.692 -0.646547 1.90846 0
M  V30 5368 O 501.748 -1.41036 2.0944 0
M  V30 5369 C 503.061 1.81106 2.40044 0
M  V30 5370 C 504.609 1.83226 2.53766 0
M  V30 5371 C 505.084 2.87044 3.56889 0
M  V30 5372 N 506.575 2.85951 3.64398 0
M  V30 5373 C 507.31 3.62932 4.43923 0
M  V30 5374 N 506.806 4.49672 5.27036 0
M  V30 5375 N 508.599 3.51411 4.38711 0
M  V30 5376 H 500.75 1.95264 0.835805 0
M  V30 5377 H 503.013 0.845017 0.429709 0
M  V30 5378 H 502.719 2.82214 2.09876 0
M  V30 5379 H 502.593 1.64529 3.39426 0
M  V30 5380 H 504.98 0.827869 2.8325 0
M  V30 5381 H 505.061 2.03879 1.54489 0
M  V30 5382 H 504.705 3.87663 3.28145 0
M  V30 5383 H 504.635 2.63645 4.5585 0
M  V30 5384 H 507.126 2.23051 3.05052 0
M  V30 5385 H 507.439 5.05116 5.84874 0
M  V30 5386 H 505.784 4.53738 5.26447 0
M  V30 5387 H 508.975 2.83047 3.72829 0
M  V30 5388 H 509.148 4.11654 5.00445 0
M  V30 5389 N 502.554 -1.34406 0.822964 0
M  V30 5390 C 503.486 -2.28305 0.202375 0
M  V30 5391 C 504.499 -1.5103 -0.60777 0
M  V30 5392 O 505.688 -1.73057 -0.437444 0
M  V30 5393 C 502.788 -3.30836 -0.734911 0
M  V30 5394 C 501.961 -4.37388 0.0324177 0
M  V30 5395 C 501.02 -5.1968 -0.825803 0
M  V30 5396 O 500.046 -5.68556 -0.270771 0
M  V30 5397 N 501.248 -5.39393 -2.14558 0
M  V30 5398 H 504.013 -2.82201 1.00909 0
M  V30 5399 H 501.574 -1.4693 0.67993 0
M  V30 5400 H 503.566 -3.82786 -1.31365 0
M  V30 5401 H 502.136 -2.77334 -1.44238 0
M  V30 5402 H 501.356 -3.86152 0.792469 0
M  V30 5403 H 502.644 -5.05702 0.560633 0
M  V30 5404 H 502.042 -5.01357 -2.62025 0
M  V30 5405 H 500.599 -5.94461 -2.67318 0
M  V30 5406 N 504.032 -0.577932 -1.46621 0
M  V30 5407 C 505.448 -0.239242 -1.57797 0
M  V30 5408 C 505.648 1.25843 -1.57371 0
M  V30 5409 O 504.704 2.03988 -1.48813 0
M  V30 5410 C 506.017 -0.884227 -2.87405 0
M  V30 5411 C 507.565 -0.857373 -3.01028 0
M  V30 5412 C 508.04 -1.48181 -4.33366 0
M  V30 5413 N 509.531 -1.44593 -4.40053 0
M  V30 5414 C 510.266 -1.89852 -5.41058 0
M  V30 5415 N 509.762 -2.43062 -6.48762 0
M  V30 5416 N 511.555 -1.80797 -5.3223 0
M  V30 5417 H 503.706 -1.55073 -1.45142 0
M  V30 5418 H 505.969 -0.647903 -0.692044 0
M  V30 5419 H 505.675 -1.93759 -2.93514 0
M  V30 5420 H 505.549 -0.389585 -3.75183 0
M  V30 5421 H 507.936 0.187357 -2.94505 0
M  V30 5422 H 508.017 -1.38999 -2.14739 0
M  V30 5423 H 507.661 -2.52572 -4.40647 0
M  V30 5424 H 507.591 -0.924464 -5.18422 0
M  V30 5425 H 510.082 -1.05694 -3.62819 0
M  V30 5426 H 510.395 -2.75466 -7.22038 0
M  V30 5427 H 508.74 -2.47085 -6.49595 0
M  V30 5428 H 511.931 -1.38989 -4.46989 0
M  V30 5429 H 512.104 -2.16385 -6.10804 0
M  V30 5430 N 505.51 1.54411 -0.315457 0
M  V30 5431 C 506.443 2.20265 0.596522 0
M  V30 5432 C 507.421 1.17693 1.12192 0
M  V30 5433 O 508.605 1.46397 1.18744 0
M  V30 5434 C 505.732 2.85794 1.81767 0
M  V30 5435 C 504.778 4.02017 1.42424 0
M  V30 5436 S 505.611 5.33452 0.467836 0
M  V30 5437 C 506.767 6.02471 1.69645 0
M  V30 5438 H 507 2.97277 0.0370896 0
M  V30 5439 H 504.533 1.54079 -0.0995562 0
M  V30 5440 H 506.491 3.24172 2.51839 0
M  V30 5441 H 505.152 2.08601 2.34828 0
M  V30 5442 H 504.345 4.46701 2.33396 0
M  V30 5443 H 503.947 3.65271 0.803311 0
M  V30 5444 H 506.239 6.24157 2.63504 0
M  V30 5445 H 507.182 6.96215 1.29192 0
M  V30 5446 H 507.59 5.32284 1.87974 0
M  V30 5447 N 506.988 0.0434614 1.5754 0
M  V30 5448 C 507.898 -0.94893 2.14552 0
M  V30 5449 C 508.914 -1.34707 1.10136 0
M  V30 5450 O 510.09 -1.42557 1.42266 0
M  V30 5451 C 507.155 -2.208 2.67298 0
M  V30 5452 C 506.216 -1.86893 3.86484 0
M  V30 5453 C 505.449 -3.06797 4.36705 0
M  V30 5454 O 505.672 -4.19921 3.86034 0
M  V30 5455 O 504.606 -2.8826 5.28384 0
M  V30 5456 H 508.432 -0.494099 2.99654 0
M  V30 5457 H 506.017 -0.177989 1.48336 0
M  V30 5458 H 507.899 -2.94686 3.01228 0
M  V30 5459 H 506.574 -2.65436 1.85272 0
M  V30 5460 H 505.481 -1.10347 3.57455 0
M  V30 5461 H 506.814 -1.47062 4.69716 0
M  V30 5462 N 508.466 -1.55915 -0.229846 0
M  V30 5463 C 509.376 -1.94891 -1.30593 0
M  V30 5464 C 510.392 -0.851604 -1.51736 0
M  V30 5465 O 511.568 -1.15447 -1.65027 0
M  V30 5466 C 508.633 -2.25052 -2.63728 0
M  V30 5467 C 507.694 -3.48306 -2.5096 0
M  V30 5468 C 506.927 -3.77019 -3.77747 0
M  V30 5469 O 507.15 -3.07534 -4.80395 0
M  V30 5470 O 506.084 -4.70523 -3.75356 0
M  V30 5471 H 509.91 -2.86581 -1.00525 0
M  V30 5472 H 507.495 -1.43017 -0.432025 0
M  V30 5473 H 509.377 -2.45682 -3.42372 0
M  V30 5474 H 508.052 -1.36538 -2.93495 0
M  V30 5475 H 506.959 -3.32964 -1.70546 0
M  V30 5476 H 508.292 -4.37177 -2.26136 0
M  V30 5477 N 509.944 0.496216 -1.49584 0
M  V30 5478 C 511.355 1.07765 -1.52459 0
M  V30 5479 C 511.706 1.93679 -0.31353 0
M  V30 5480 O 510.831 2.08588 0.576186 0
M  V30 5481 C 511.426 1.96111 -2.76271 0
M  V30 5482 C 509.985 2.49409 -2.81908 0
M  V30 5483 C 509.132 1.27142 -2.46435 0
M  V30 5484 H 512.083 0.279914 -1.56212 0
M  V30 5485 H 512.104 2.80862 -2.56704 0
M  V30 5486 H 511.616 1.33555 -3.64396 0
M  V30 5487 H 509.717 3.1559 -1.98074 0
M  V30 5488 H 509.83 2.86234 -3.84196 0
M  V30 5489 H 508.194 1.59818 -1.98319 0
M  V30 5490 H 508.977 0.662866 -3.3684 0
M  V30 5491 N 511.423 1.38739 0.74761 0
M  V30 5492 C 512.7 1.25791 1.49786 0
M  V30 5493 C 513.08 -0.138075 2.10648 0
M  V30 5494 O 512.428 -1.14815 1.9756 0
M  V30 5495 C 512.638 2.37265 2.55942 0
M  V30 5496 C 513.986 2.75978 3.22679 0
M  V30 5497 O 515.01 2.36621 2.6625 0
M  V30 5498 O 513.869 3.43867 4.24756 0
M  V30 5499 H 510.963 0.492251 0.664543 0
M  V30 5500 H 513.509 1.50582 0.782511 0
M  V30 5501 H 512.281 3.30644 2.0926 0
M  V30 5502 H 511.904 2.14071 3.35051 0
M  V30 5503 N 512.901 -0.976442 1.23707 0
M  V30 5504 C 513.849 -2.09078 1.01927 0
M  V30 5505 C 514.843 -1.69345 -0.0430193 0
M  V30 5506 O 516.049 -1.79659 0.110814 0
M  V30 5507 H 512.424 -0.68398 0.312531 0
M  V30 5508 H 514.395 -2.24614 1.96447 0
M  V30 5509 C 513.144 -3.41919 0.631385 0
M  V30 5510 H 512.467 -3.72946 1.44053 0
M  V30 5511 H 513.907 -4.20817 0.518532 0
M  V30 5512 C 512.366 -3.30357 -0.660723 0
M  V30 5513 O 512.896 -3.63542 -1.70881 0
M  V30 5514 N 511.102 -2.83507 -0.638139 0
M  V30 5515 H 510.649 -2.567 0.215108 0
M  V30 5516 H 510.607 -2.76153 -1.50289 0
M  V30 5517 N 514.379 -1.04941 -1.1758 0
M  V30 5518 C 515.309 -0.669172 -2.23706 0
M  V30 5519 C 516.29 0.331835 -1.66832 0
M  V30 5520 O 517.475 0.209988 -1.93061 0
M  V30 5521 C 514.605 -0.0404889 -3.47276 0
M  V30 5522 C 513.559 -0.965983 -4.16957 0
M  V30 5523 C 512.885 -0.201312 -5.34321 0
M  V30 5524 C 514.185 -2.28902 -4.69469 0
M  V30 5525 H 515.879 -1.55639 -2.55767 0
M  V30 5526 H 513.425 -0.749793 -1.22939 0
M  V30 5527 H 515.378 0.237298 -4.20731 0
M  V30 5528 H 514.102 0.881658 -3.14475 0
M  V30 5529 H 512.761 -1.22829 -3.45411 0
M  V30 5530 H 512.409 0.723519 -4.97769 0
M  V30 5531 H 512.109 -0.817968 -5.81879 0
M  V30 5532 H 513.633 0.0692499 -6.10561 0
M  V30 5533 H 515.047 -2.07132 -5.34574 0
M  V30 5534 H 513.444 -2.85942 -5.27596 0
M  V30 5535 H 514.514 -2.92937 -3.86414 0
M  V30 5536 N 515.857 1.33968 -0.830081 0
M  V30 5537 C 516.767 2.33164 -0.259207 0
M  V30 5538 C 517.783 1.62951 0.610164 0
M  V30 5539 O 518.959 1.94668 0.516369 0
M  V30 5540 C 516.024 3.42088 0.563598 0
M  V30 5541 C 515.085 4.28037 -0.329014 0
M  V30 5542 C 514.318 5.3176 0.454616 0
M  V30 5543 O 514.541 5.44876 1.6872 0
M  V30 5544 O 513.475 6.01669 -0.166794 0
M  V30 5545 H 517.301 2.83832 -1.08041 0
M  V30 5546 H 514.886 1.37154 -0.59239 0
M  V30 5547 H 516.768 4.08581 1.03147 0
M  V30 5548 H 515.443 2.93651 1.36201 0
M  V30 5549 H 514.35 3.64443 -0.844538 0
M  V30 5550 H 515.683 4.79934 -1.09196 0
M  V30 5551 N 517.335 0.585699 1.46312 0
M  V30 5552 C 518.751 0.247607 1.57668 0
M  V30 5553 C 518.951 -1.25007 1.58037 0
M  V30 5554 O 518.007 -2.03196 1.49893 0
M  V30 5555 C 519.32 0.899456 2.86933 0
M  V30 5556 C 520.868 0.873326 3.00569 0
M  V30 5557 C 521.343 1.50477 4.32574 0
M  V30 5558 N 522.834 1.46925 4.3928 0
M  V30 5559 C 523.569 1.92719 5.40044 0
M  V30 5560 N 523.065 2.46499 6.47464 0
M  V30 5561 N 524.858 1.83617 5.31264 0
M  V30 5562 H 517.009 1.55841 1.44317 0
M  V30 5563 H 519.272 0.651564 0.688599 0
M  V30 5564 H 518.978 1.95313 2.92482 0
M  V30 5565 H 518.852 0.409476 3.74971 0
M  V30 5566 H 521.239 -0.171736 2.946 0
M  V30 5567 H 521.32 1.40136 2.13999 0
M  V30 5568 H 520.964 2.54905 4.39302 0
M  V30 5569 H 520.894 0.951944 5.17924 0
M  V30 5570 H 523.385 1.07616 3.62253 0
M  V30 5571 H 523.698 2.79291 7.20567 0
M  V30 5572 H 522.043 2.50526 6.48276 0
M  V30 5573 H 525.234 1.41358 4.46246 0
M  V30 5574 H 525.407 2.19622 6.09648 0
M  V30 5575 N 518.813 -1.54241 0.323641 0
M  V30 5576 C 519.746 -2.20579 -0.584833 0
M  V30 5577 C 520.724 -1.18286 -1.11567 0
M  V30 5578 O 521.908 -1.47025 -1.17966 0
M  V30 5579 C 519.035 -2.86754 -1.80249 0
M  V30 5580 C 518.081 -4.02767 -1.4029 0
M  V30 5581 S 518.914 -5.33693 -0.439539 0
M  V30 5582 C 520.07 -6.03362 -1.66448 0
M  V30 5583 H 520.303 -2.97292 -0.0213238 0
M  V30 5584 H 517.836 -1.54024 0.107726 0
M  V30 5585 H 519.794 -3.25503 -2.50116 0
M  V30 5586 H 518.455 -2.09844 -2.33719 0
M  V30 5587 H 517.648 -4.47933 -2.31024 0
M  V30 5588 H 517.25 -3.65692 -0.783928 0
M  V30 5589 H 519.542 -6.25546 -2.6019 0
M  V30 5590 H 520.485 -6.9689 -1.25498 0
M  V30 5591 H 520.893 -5.33273 -1.85149 0
M  V30 5592 N 520.291 -0.0518155 -1.57515 0
M  V30 5593 C 521.537 0.622745 -1.93002 0
M  V30 5594 C 521.87 1.70456 -0.930499 0
M  V30 5595 O 521.145 1.94452 0.0434086 0
M  V30 5596 C 521.428 1.21824 -3.38867 0
M  V30 5597 C 521.281 0.144434 -4.49568 0
M  V30 5598 C 522.6 2.12968 -3.8514 0
M  V30 5599 H 519.719 0.22491 -0.701844 0
M  V30 5600 H 522.361 -0.113711 -1.89659 0
M  V30 5601 H 520.511 1.8459 -3.41846 0
M  V30 5602 H 522.183 -0.48753 -4.58717 0
M  V30 5603 H 520.426 -0.527424 -4.30582 0
M  V30 5604 H 521.097 0.601127 -5.48717 0
M  V30 5605 H 523.573 1.60163 -3.8404 0
M  V30 5606 H 522.449 2.51578 -4.87852 0
M  V30 5607 H 522.71 3.03004 -3.21934 0
M  V30 5608 N 521.769 1.56035 0.221574 0
M  V30 5609 C 522.994 1.83476 0.967026 0
M  V30 5610 C 523.419 0.632139 1.7716 0
M  V30 5611 O 522.777 -0.419082 1.7639 0
M  V30 5612 C 522.825 3.08907 1.86034 0
M  V30 5613 O 521.929 2.876 2.95567 0
M  V30 5614 H 521.27 0.604913 0.273817 0
M  V30 5615 H 523.8 2.03247 0.234893 0
M  V30 5616 H 523.81 3.3901 2.27016 0
M  V30 5617 H 522.485 3.96068 1.26898 0
M  V30 5618 H 521.062 2.6873 2.58532 0
M  V30 5619 N 523.247 -0.488276 1.49845 0
M  V30 5620 C 524.496 -1.23826 1.59217 0
M  V30 5621 C 524.809 -1.93439 0.289966 0
M  V30 5622 O 526.015 -2.70229 0.262382 0
M  V30 5623 C 524.471 -2.24902 2.80976 0
M  V30 5624 C 524.079 -1.6117 4.18005 0
M  V30 5625 C 525.823 -3.00648 2.99685 0
M  V30 5626 C 523.73 -2.60431 5.3097 0
M  V30 5627 H 522.66 -0.465858 0.592868 0
M  V30 5628 H 525.311 -0.510645 1.76252 0
M  V30 5629 H 523.693 -3.0088 2.57463 0
M  V30 5630 H 524.867 -0.910968 4.51706 0
M  V30 5631 H 523.182 -0.97767 4.0476 0
M  V30 5632 H 525.779 -3.74903 3.81251 0
M  V30 5633 H 526.122 -3.5902 2.10738 0
M  V30 5634 H 526.655 -2.31784 3.23297 0
M  V30 5635 H 523.394 -2.06823 6.22017 0
M  V30 5636 H 522.914 -3.28707 5.01709 0
M  V30 5637 H 524.593 -3.22606 5.60834 0
M  V30 5638 N 524.725 -1.39134 -0.740242 0
M  V30 5639 C 525.655 -1.40165 -1.86751 0
M  V30 5640 C 526.636 -0.265708 -1.68012 0
M  V30 5641 O 527.821 -0.47076 -1.88408 0
M  V30 5642 C 524.951 -1.2392 -3.2444 0
M  V30 5643 C 523.905 -2.34858 -3.57807 0
M  V30 5644 C 523.231 -2.03707 -4.94376 0
M  V30 5645 C 524.531 -3.77159 -3.61315 0
M  V30 5646 H 526.225 -2.345 -1.86145 0
M  V30 5647 H 523.771 -1.12875 -0.89416 0
M  V30 5648 H 525.724 -1.23263 -4.02969 0
M  V30 5649 H 524.448 -0.26051 -3.25559 0
M  V30 5650 H 523.107 -2.34723 -2.81604 0
M  V30 5651 H 522.755 -1.04289 -4.9207 0
M  V30 5652 H 522.455 -2.78016 -5.17669 0
M  V30 5653 H 523.979 -2.04691 -5.75268 0
M  V30 5654 H 525.393 -3.79252 -4.29931 0
M  V30 5655 H 523.79 -4.50784 -3.96124 0
M  V30 5656 H 524.86 -4.08513 -2.61238 0
M  V30 5657 N 526.204 0.969867 -1.24223 0
M  V30 5658 C 527.429 1.75289 -1.10853 0
M  V30 5659 C 527.854 1.85091 0.335079 0
M  V30 5660 O 527.212 1.32024 1.24255 0
M  V30 5661 C 527.26 3.15255 -1.75062 0
M  V30 5662 O 526.364 3.99589 -1.01992 0
M  V30 5663 H 525.705 0.538904 -0.387915 0
M  V30 5664 H 528.235 1.21675 -1.64488 0
M  V30 5665 H 528.245 3.65787 -1.80731 0
M  V30 5666 H 526.92 3.07436 -2.801 0
M  V30 5667 H 525.497 3.58077 -1.04094 0
M  V30 5668 N 527.682 1.05563 1.17022 0
M  V30 5669 C 528.929 0.767937 1.87374 0
M  V30 5670 C 529.257 -0.705224 1.81265 0
M  V30 5671 O 528.512 -1.5318 1.21796 0
M  V30 5672 C 528.811 1.19849 3.36706 0
M  V30 5673 C 528.477 2.6745 3.63017 0
M  V30 5674 C 527.139 3.0777 3.69907 0
M  V30 5675 C 529.491 3.62811 3.74189 0
M  V30 5676 C 526.819 4.42307 3.85463 0
M  V30 5677 C 529.171 4.97087 3.91264 0
M  V30 5678 C 527.835 5.37055 3.96394 0
M  V30 5679 H 527.105 0.281008 0.68565 0
M  V30 5680 H 529.752 1.32339 1.38415 0
M  V30 5681 H 528.057 0.562096 3.87747 0
M  V30 5682 H 529.754 0.953038 3.8951 0
M  V30 5683 H 526.344 2.35228 3.58282 0
M  V30 5684 H 530.528 3.32798 3.68183 0
M  V30 5685 H 525.784 4.72769 3.87684 0
M  V30 5686 H 529.958 5.70869 3.9885 0
M  V30 5687 H 527.585 6.41308 4.082 0
M  V30 5688 N 529.16 -1.33526 0.837174 0
M  V30 5689 C 530.406 -1.9813 0.432704 0
M  V30 5690 C 530.739 -1.66168 -1.00508 0
M  V30 5691 O 530.014 -0.94069 -1.70239 0
M  V30 5692 C 530.297 -3.54151 0.651834 0
M  V30 5693 C 530.15 -3.95806 2.13676 0
M  V30 5694 C 531.469 -4.39993 0.0968937 0
M  V30 5695 H 528.588 -0.719713 0.15869 0
M  V30 5696 H 531.23 -1.58193 1.05237 0
M  V30 5697 H 529.38 -3.88301 0.124369 0
M  V30 5698 H 531.052 -3.71921 2.72896 0
M  V30 5699 H 529.295 -3.45599 2.62191 0
M  V30 5700 H 529.966 -5.0447 2.24084 0
M  V30 5701 H 532.442 -4.12479 0.547733 0
M  V30 5702 H 531.318 -5.48186 0.279917 0
M  V30 5703 H 531.579 -4.3066 -0.9992 0
M  V30 5704 N 530.638 -0.59345 -1.46 0
M  V30 5705 C 531.601 0.123538 -2.28867 0
M  V30 5706 C 532.601 0.808628 -1.38989 0
M  V30 5707 O 533.791 0.658945 -1.61256 0
M  V30 5708 C 530.923 1.1847 -3.19653 0
M  V30 5709 H 532.116 -0.604843 -2.93737 0
M  V30 5710 H 529.669 -0.351875 -1.52288 0
M  V30 5711 H 530.404 1.94431 -2.59552 0
M  V30 5712 H 530.189 0.69783 -3.8584 0
M  V30 5713 H 531.679 1.68726 -3.81997 0
M  V30 5714 N 532.116 1.54067 -0.331816 0
M  V30 5715 C 533.362 2.01012 0.268667 0
M  V30 5716 C 533.695 1.2195 1.51136 0
M  V30 5717 O 532.97 0.303972 1.9211 0
M  V30 5718 C 533.253 3.55158 0.59456 0
M  V30 5719 C 533.106 4.4494 -0.659409 0
M  V30 5720 C 534.425 4.16939 1.4089 0
M  V30 5721 H 531.544 0.730698 0.0961756 0
M  V30 5722 H 534.186 1.84593 -0.450031 0
M  V30 5723 H 532.336 3.6928 1.20685 0
M  V30 5724 H 534.008 4.42675 -1.29756 0
M  V30 5725 H 532.251 4.1428 -1.28665 0
M  V30 5726 H 532.922 5.50643 -0.386804 0
M  V30 5727 H 535.398 4.06443 0.891272 0
M  V30 5728 H 534.274 5.24889 1.60569 0
M  V30 5729 H 534.535 3.70798 2.40752 0
M  V30 5730 N 533.594 0.0601682 1.57485 0
M  V30 5731 C 535.01 -0.296422 1.56823 0
M  V30 5732 C 535.21 -1.70831 1.0686 0
M  V30 5733 O 534.266 -2.4174 0.729245 0
M  V30 5734 C 535.579 -0.116681 3.00474 0
M  V30 5735 C 537.127 -0.187103 3.1244 0
M  V30 5736 C 537.602 -0.035783 4.57986 0
M  V30 5737 N 539.093 -0.0917676 4.63109 0
M  V30 5738 C 539.828 0.00107251 5.734 0
M  V30 5739 N 539.324 0.146773 6.92645 0
M  V30 5740 N 541.117 -0.0551577 5.62073 0
M  V30 5741 H 533.268 0.983055 1.88281 0
M  V30 5742 H 535.531 0.382386 0.867459 0
M  V30 5743 H 535.237 0.85712 3.41096 0
M  V30 5744 H 535.111 -0.873929 3.66936 0
M  V30 5745 H 537.498 -1.15138 2.71712 0
M  V30 5746 H 537.579 0.601052 2.48638 0
M  V30 5747 H 537.223 0.925212 4.99402 0
M  V30 5748 H 537.153 -0.843196 5.19806 0
M  V30 5749 H 539.644 -0.203261 3.77353 0
M  V30 5750 H 539.957 0.210076 7.72514 0
M  V30 5751 H 538.302 0.181979 6.94762 0
M  V30 5752 H 541.493 -0.167605 4.678 0
M  V30 5753 H 541.666 0.020652 6.47997 0
M  V30 5754 N 535.072 -1.5615 -0.213296 0
M  V30 5755 C 536.002 -1.96109 -1.26742 0
M  V30 5756 C 536.983 -0.830448 -1.48451 0
M  V30 5757 O 538.168 -1.09339 -1.60495 0
M  V30 5758 C 535.298 -2.28492 -2.61551 0
M  V30 5759 C 534.252 -3.44124 -2.54485 0
M  V30 5760 C 533.578 -3.62134 -3.93399 0
M  V30 5761 C 534.878 -4.78855 -2.08556 0
M  V30 5762 H 536.572 -2.84412 -0.935434 0
M  V30 5763 H 534.118 -1.36836 -0.44854 0
M  V30 5764 H 536.071 -2.55039 -3.3546 0
M  V30 5765 H 534.795 -1.37052 -2.96453 0
M  V30 5766 H 533.454 -3.17639 -1.83033 0
M  V30 5767 H 533.102 -2.68055 -4.25623 0
M  V30 5768 H 532.802 -4.39913 -3.89551 0
M  V30 5769 H 534.326 -3.91038 -4.68958 0
M  V30 5770 H 535.74 -5.04552 -2.72213 0
M  V30 5771 H 534.137 -5.59975 -2.1575 0
M  V30 5772 H 535.207 -4.73657 -1.03811 0
M  V30 5773 N 536.55 0.480323 -1.50102 0
M  V30 5774 C 537.48 1.58769 -1.71215 0
M  V30 5775 C 538.461 1.60583 -0.560997 0
M  V30 5776 O 539.646 1.76996 -0.799127 0
M  V30 5777 C 536.776 2.97148 -1.79778 0
M  V30 5778 C 535.73 3.10201 -2.94888 0
M  V30 5779 C 535.056 4.50137 -2.88584 0
M  V30 5780 C 536.356 2.88283 -4.35534 0
M  V30 5781 H 538.05 1.41354 -2.6393 0
M  V30 5782 H 535.596 0.678591 -1.27008 0
M  V30 5783 H 537.549 3.74536 -1.93133 0
M  V30 5784 H 536.273 3.15699 -0.836772 0
M  V30 5785 H 534.932 2.35244 -2.81169 0
M  V30 5786 H 534.58 4.65593 -1.90349 0
M  V30 5787 H 534.28 4.59808 -3.65856 0
M  V30 5788 H 535.804 5.29558 -3.03976 0
M  V30 5789 H 537.218 3.55427 -4.49827 0
M  V30 5790 H 535.615 3.09408 -5.14186 0
M  V30 5791 H 536.685 1.84219 -4.48544 0
M  V30 5792 N 538.028 1.39524 0.732853 0
M  V30 5793 C 538.96 1.34318 1.85718 0
M  V30 5794 C 539.973 0.251576 1.60844 0
M  V30 5795 O 541.162 0.510685 1.71039 0
M  V30 5796 C 538.262 1.06334 3.21786 0
M  V30 5797 C 537.435 2.26813 3.73998 0
M  V30 5798 C 536.494 1.95253 4.88634 0
M  V30 5799 O 535.52 2.67957 5.02183 0
M  V30 5800 N 536.722 0.919984 5.73164 0
M  V30 5801 H 539.487 2.3121 1.90688 0
M  V30 5802 H 537.048 1.33654 0.91368 0
M  V30 5803 H 539.04 0.832363 3.96048 0
M  V30 5804 H 537.61 0.181682 3.12072 0
M  V30 5805 H 536.83 2.65849 2.91064 0
M  V30 5806 H 538.118 3.0717 4.05616 0
M  V30 5807 H 537.516 0.317487 5.64808 0
M  V30 5808 H 536.073 0.748905 6.47483 0
M  V30 5809 N 539.506 -0.963266 1.24736 0
M  V30 5810 C 540.436 -2.07628 1.06832 0
M  V30 5811 C 541.417 -1.70088 -0.0200566 0
M  V30 5812 O 542.602 -1.93636 0.147854 0
M  V30 5813 C 539.732 -3.40636 0.677069 0
M  V30 5814 C 538.686 -3.9215 1.71471 0
M  V30 5815 C 538.012 -5.21553 1.1784 0
M  V30 5816 C 539.312 -4.19493 3.11164 0
M  V30 5817 H 541.006 -2.22864 1.9993 0
M  V30 5818 H 538.552 -1.07093 0.96266 0
M  V30 5819 H 540.505 -4.17941 0.538792 0
M  V30 5820 H 539.229 -3.25313 -0.289612 0
M  V30 5821 H 537.888 -3.17005 1.84128 0
M  V30 5822 H 537.536 -5.02593 0.202195 0
M  V30 5823 H 537.236 -5.56988 1.87185 0
M  V30 5824 H 538.76 -6.01463 1.05233 0
M  V30 5825 H 540.174 -4.87487 3.01711 0
M  V30 5826 H 538.571 -4.66165 3.77902 0
M  V30 5827 H 539.641 -3.26097 3.58871 0
M  V30 5828 N 540.985 -1.06182 -1.16461 0
M  V30 5829 C 542.401 -0.785065 -1.38956 0
M  V30 5830 C 542.601 0.616103 -1.9185 0
M  V30 5831 O 541.657 1.37686 -2.11657 0
M  V30 5832 C 542.97 -1.84902 -2.37132 0
M  V30 5833 C 544.518 -1.8724 -2.50819 0
M  V30 5834 C 544.993 -2.92686 -3.52277 0
M  V30 5835 N 546.484 -2.91712 -3.59803 0
M  V30 5836 C 547.219 -3.69949 -4.38093 0
M  V30 5837 N 546.715 -4.58 -5.19815 0
M  V30 5838 N 548.508 -3.58346 -4.33064 0
M  V30 5839 H 540.659 -1.96569 -0.804634 0
M  V30 5840 H 542.922 -0.851747 -0.416211 0
M  V30 5841 H 542.628 -2.85518 -2.0536 0
M  V30 5842 H 542.502 -1.69908 -3.36766 0
M  V30 5843 H 544.889 -0.872827 -2.81897 0
M  V30 5844 H 544.97 -2.06311 -1.51226 0
M  V30 5845 H 544.614 -3.92835 -3.21937 0
M  V30 5846 H 544.544 -2.70864 -4.51598 0
M  V30 5847 H 547.035 -2.27876 -3.01464 0
M  V30 5848 H 547.348 -5.14357 -5.76764 0
M  V30 5849 H 545.693 -4.62056 -5.19162 0
M  V30 5850 H 548.884 -2.88943 -3.68279 0
M  V30 5851 H 549.057 -4.19563 -4.93833 0
M  V30 5852 N 542.463 1.3308 -0.844243 0
M  V30 5853 C 543.373 2.32876 -0.283922 0
M  V30 5854 C 544.389 1.63589 0.592846 0
M  V30 5855 O 545.565 1.95205 0.495693 0
M  V30 5856 C 542.63 3.42667 0.527283 0
M  V30 5857 C 541.691 4.27664 -0.374394 0
M  V30 5858 C 540.924 5.32212 0.39819 0
M  V30 5859 O 541.147 5.46635 1.62932 0
M  V30 5860 O 540.081 6.01458 -0.2306 0
M  V30 5861 H 543.907 2.82671 -1.11045 0
M  V30 5862 H 541.492 1.36518 -0.606903 0
M  V30 5863 H 543.374 4.09652 0.988078 0
M  V30 5864 H 542.049 2.95079 1.33078 0
M  V30 5865 H 540.956 3.63526 -0.883144 0
M  V30 5866 H 542.289 4.78749 -1.1428 0
M  V30 5867 N 543.941 0.601185 1.45683 0
M  V30 5868 C 545.166 0.0982245 2.07167 0
M  V30 5869 C 545.591 -1.20546 1.44396 0
M  V30 5870 O 544.949 -1.73247 0.534347 0
M  V30 5871 C 544.997 -0.0346976 3.60583 0
M  V30 5872 O 544.101 -1.08657 3.97828 0
M  V30 5873 H 543.442 0.0711618 0.660176 0
M  V30 5874 H 545.972 0.829376 1.87036 0
M  V30 5875 H 545.982 -0.234969 4.07323 0
M  V30 5876 H 544.657 0.917265 4.05659 0
M  V30 5877 H 543.234 -0.863275 3.6277 0
M  V30 5878 N 545.419 -1.53889 0.339982 0
M  V30 5879 C 546.666 -2.00855 -0.257621 0
M  V30 5880 C 546.994 -1.22788 -1.50842 0
M  V30 5881 O 546.249 -0.302567 -1.93347 0
M  V30 5882 C 546.548 -3.51968 -0.620735 0
M  V30 5883 C 546.214 -4.47741 0.532771 0
M  V30 5884 C 544.876 -4.73645 0.849339 0
M  V30 5885 C 547.228 -5.04551 1.3068 0
M  V30 5886 C 544.556 -5.53614 1.94237 0
M  V30 5887 C 546.908 -5.85713 2.39005 0
M  V30 5888 C 545.572 -6.09912 2.71225 0
M  V30 5889 H 544.842 -0.734979 -0.0942703 0
M  V30 5890 H 547.489 -1.85714 0.467159 0
M  V30 5891 H 545.794 -3.64921 -1.42618 0
M  V30 5892 H 547.491 -3.85762 -1.09495 0
M  V30 5893 H 544.081 -4.27711 0.275973 0
M  V30 5894 H 548.265 -4.84507 1.07549 0
M  V30 5895 H 543.521 -5.7059 2.19628 0
M  V30 5896 H 547.695 -6.28748 2.99415 0
M  V30 5897 H 545.322 -6.71665 3.56047 0
M  V30 5898 N 546.897 -0.0685191 -1.57451 0
M  V30 5899 C 548.125 0.610462 -1.97689 0
M  V30 5900 C 548.54 1.63346 -0.946758 0
M  V30 5901 O 547.897 1.82377 0.0669868 0
M  V30 5902 C 547.948 1.28196 -3.38006 0
M  V30 5903 O 547.669 0.299906 -4.37072 0
M  V30 5904 C 549.17 2.04907 -3.931 0
M  V30 5905 H 546.39 0.165689 -0.650222 0
M  V30 5906 H 548.934 -0.139953 -2.04021 0
M  V30 5907 H 547.089 1.98348 -3.32771 0
M  V30 5908 H 547.503 0.78126 -5.18649 0
M  V30 5909 H 548.977 2.47287 -4.93511 0
M  V30 5910 H 549.454 2.9043 -3.29465 0
M  V30 5911 H 550.06 1.39629 -4.01726 0
M  V30 5912 N 548.375 1.56261 0.205012 0
M  V30 5913 C 549.305 1.96779 1.257 0
M  V30 5914 C 550.286 0.838309 1.48008 0
M  V30 5915 O 551.471 1.10189 1.59913 0
M  V30 5916 C 548.601 2.29876 2.60335 0
M  V30 5917 C 547.555 3.45469 2.52656 0
M  V30 5918 C 546.881 3.64215 3.91473 0
M  V30 5919 C 548.181 4.79954 2.06014 0
M  V30 5920 H 549.875 2.84904 0.920338 0
M  V30 5921 H 547.421 1.37072 0.441277 0
M  V30 5922 H 549.374 2.56814 3.34102 0
M  V30 5923 H 548.098 1.38622 2.95722 0
M  V30 5924 H 546.757 3.18605 1.81345 0
M  V30 5925 H 546.405 2.70309 4.24196 0
M  V30 5926 H 546.105 4.41973 3.87213 0
M  V30 5927 H 547.629 3.93519 4.66878 0
M  V30 5928 H 549.043 5.05989 2.69533 0
M  V30 5929 H 547.44 5.61111 2.12777 0
M  V30 5930 H 548.51 4.74201 1.01297 0
M  V30 5931 N 549.853 -0.472356 1.50355 0
M  V30 5932 C 551.264 -1.05326 1.54154 0
M  V30 5933 C 551.615 -1.93155 0.344303 0
M  V30 5934 O 550.74 -2.09479 -0.542928 0
M  V30 5935 C 551.335 -1.91691 2.79356 0
M  V30 5936 C 549.894 -2.44892 2.8584 0
M  V30 5937 C 549.041 -1.23205 2.48426 0
M  V30 5938 H 551.992 -0.255027 1.56637 0
M  V30 5939 H 552.013 -2.76742 2.6114 0
M  V30 5940 H 551.525 -1.27741 3.66475 0
M  V30 5941 H 549.626 -3.12399 2.0307 0
M  V30 5942 H 549.739 -2.80086 3.88701 0
M  V30 5943 H 548.103 -1.56643 2.00836 0
M  V30 5944 H 548.886 -0.609194 3.37852 0
M  V30 5945 N 551.331 -1.39911 -0.725443 0
M  V30 5946 C 552.263 -1.35301 -1.85003 0
M  V30 5947 C 553.276 -0.260102 -1.60709 0
M  V30 5948 O 554.465 -0.519749 -1.70766 0
M  V30 5949 C 551.565 -1.08039 -3.21218 0
M  V30 5950 C 550.738 -2.28793 -3.7279 0
M  V30 5951 C 549.797 -1.97841 -4.87591 0
M  V30 5952 O 548.823 -2.70616 -5.00755 0
M  V30 5953 N 550.025 -0.950367 -5.72668 0
M  V30 5954 H 552.79 -2.32218 -1.89459 0
M  V30 5955 H 550.351 -1.34137 -0.90658 0
M  V30 5956 H 552.343 -0.853354 -3.95601 0
M  V30 5957 H 550.913 -0.198229 -3.11971 0
M  V30 5958 H 550.133 -2.67388 -2.8965 0
M  V30 5959 H 551.421 -3.09317 -4.03981 0
M  V30 5960 H 550.819 -0.347436 -5.64632 0
M  V30 5961 H 549.376 -0.783232 -6.47077 0
M  V30 5962 N 552.809 0.956637 -1.25245 0
M  V30 5963 C 553.772 2.03457 -1.05537 0
M  V30 5964 C 554.772 1.60798 -0.00886317 0
M  V30 5965 O 555.962 1.72384 -0.250865 0
M  V30 5966 C 553.094 3.35543 -0.601965 0
M  V30 5967 H 554.287 2.22372 -2.01223 0
M  V30 5968 H 551.84 1.13344 -1.07623 0
M  V30 5969 H 552.575 3.22323 0.357584 0
M  V30 5970 H 552.36 3.67854 -1.35743 0
M  V30 5971 H 553.85 4.14769 -0.485454 0
M  V30 5972 N 554.287 1.06798 1.15896 0
M  V30 5973 C 555.217 0.704677 2.22613 0
M  V30 5974 C 556.198 -0.305252 1.67339 0
M  V30 5975 O 557.383 -0.179247 1.93371 0
M  V30 5976 C 554.513 0.0957325 3.47168 0
M  V30 5977 C 553.467 1.0322 4.15367 0
M  V30 5978 C 552.793 0.286293 5.33933 0
M  V30 5979 C 554.093 2.36341 4.65768 0
M  V30 5980 H 555.787 1.59688 2.53259 0
M  V30 5981 H 553.333 0.769257 1.21731 0
M  V30 5982 H 555.286 -0.170333 4.21056 0
M  V30 5983 H 554.01 -0.831516 3.15838 0
M  V30 5984 H 552.669 1.28309 3.43413 0
M  V30 5985 H 552.317 -0.644237 4.98857 0
M  V30 5986 H 552.017 0.910436 5.80504 0
M  V30 5987 H 553.541 0.0278938 6.10594 0
M  V30 5988 H 554.955 2.1561 5.31211 0
M  V30 5989 H 553.352 2.94299 5.2298 0
M  V30 5990 H 554.422 2.99047 3.81705 0
M  V30 5991 N 555.766 -1.3263 0.851289 0
M  V30 5992 C 557.182 -1.50162 0.5407 0
M  V30 5993 C 557.382 -1.78788 -0.929369 0
M  V30 5994 O 556.438 -1.85545 -1.71258 0
M  V30 5995 C 557.751 -2.64803 1.42478 0
M  V30 5996 C 559.299 -2.78688 1.42485 0
M  V30 5997 C 559.774 -3.96405 2.29407 0
M  V30 5998 N 561.265 -4.0366 2.27184 0
M  V30 5999 C 562 -4.93971 2.9117 0
M  V30 6000 N 561.496 -5.89313 3.64256 0
M  V30 6001 N 563.289 -4.87066 2.80576 0
M  V30 6002 H 555.44 -1.12315 1.80275 0
M  V30 6003 H 557.703 -0.553266 0.769806 0
M  V30 6004 H 557.409 -2.50368 2.46999 0
M  V30 6005 H 557.283 -3.60506 1.10974 0
M  V30 6006 H 559.67 -2.92547 0.387304 0
M  V30 6007 H 559.751 -1.83708 1.78002 0
M  V30 6008 H 559.395 -3.83304 3.33228 0
M  V30 6009 H 559.325 -4.90654 1.91224 0
M  V30 6010 H 561.816 -3.35435 1.74045 0
M  V30 6011 H 562.129 -6.54913 4.10255 0
M  V30 6012 H 560.474 -5.8935 3.68364 0
M  V30 6013 H 563.665 -4.11552 2.23031 0
M  V30 6014 H 563.838 -5.57248 3.30725 0
M  V30 6015 N 557.244 -0.608902 -1.45362 0
M  V30 6016 C 558.207 0.0992563 -2.28985 0
M  V30 6017 C 559.207 0.793841 -1.39838 0
M  V30 6018 O 560.397 0.641804 -1.61946 0
M  V30 6019 C 557.529 1.15073 -3.20891 0
M  V30 6020 H 558.722 -0.635964 -2.93079 0
M  V30 6021 H 556.275 -0.368007 -1.51906 0
M  V30 6022 H 557.01 1.91667 -2.616 0
M  V30 6023 H 556.795 0.656867 -3.86559 0
M  V30 6024 H 558.285 1.64665 -3.83765 0
M  V30 6025 N 558.722 1.53707 -0.348139 0
M  V30 6026 C 559.654 2.22725 0.540946 0
M  V30 6027 C 560.667 1.2354 1.06027 0
M  V30 6028 O 561.856 1.49867 0.96964 0
M  V30 6029 C 558.956 2.89756 1.75768 0
M  V30 6030 C 558.129 4.15297 1.37285 0
M  V30 6031 C 557.188 4.65697 2.44976 0
M  V30 6032 O 556.214 5.29798 2.08092 0
M  V30 6033 N 557.416 4.42017 3.763 0
M  V30 6034 H 560.181 2.99658 -0.0501592 0
M  V30 6035 H 557.742 1.60979 -0.17248 0
M  V30 6036 H 559.734 3.20388 2.47252 0
M  V30 6037 H 558.304 2.16382 2.25605 0
M  V30 6038 H 557.524 3.9116 0.488584 0
M  V30 6039 H 558.812 4.96948 1.09179 0
M  V30 6040 H 558.21 3.9076 4.09051 0
M  V30 6041 H 556.767 4.77242 4.4394 0
M  V30 6042 N 560.2 0.0768682 1.57412 0
M  V30 6043 C 561.448 -0.589918 1.93299 0
M  V30 6044 C 561.769 -1.69842 0.958049 0
M  V30 6045 O 561.039 -1.95899 0.00703261 0
M  V30 6046 H 559.619 -0.220901 0.713591 0
M  V30 6047 H 562.281 0.135917 1.94425 0
M  V30 6048 H 561.377 -1.01195 2.95239 0
M  V30 6049 N 561.678 -1.56367 -0.196722 0
M  V30 6050 C 562.608 -1.97442 -1.24655 0
M  V30 6051 C 563.589 -0.846147 -1.47561 0
M  V30 6052 O 564.774 -1.11035 -1.59326 0
M  V30 6053 C 561.904 -2.31253 -2.59112 0
M  V30 6054 C 560.858 -3.46804 -2.50821 0
M  V30 6055 C 560.184 -3.66286 -3.89536 0
M  V30 6056 C 561.484 -4.8104 -2.03465 0
M  V30 6057 H 563.178 -2.85388 -0.905216 0
M  V30 6058 H 560.724 -1.37304 -0.434002 0
M  V30 6059 H 562.677 -2.58583 -3.32736 0
M  V30 6060 H 561.401 -1.40188 -2.94983 0
M  V30 6061 H 560.06 -3.19563 -1.79653 0
M  V30 6062 H 559.708 -2.72555 -4.22756 0
M  V30 6063 H 559.408 -4.4402 -3.84864 0
M  V30 6064 H 560.932 -3.9599 -4.64784 0
M  V30 6065 H 562.346 -5.07411 -2.66846 0
M  V30 6066 H 560.743 -5.62232 -2.09798 0
M  V30 6067 H 561.813 -4.74732 -0.98781 0
M  V30 6068 N 563.156 0.464375 -1.50603 0
M  V30 6069 C 564.086 1.56944 -1.72889 0
M  V30 6070 C 565.067 1.59979 -0.577997 0
M  V30 6071 O 566.252 1.76138 -0.817855 0
M  V30 6072 C 563.382 2.95225 -1.8292 0
M  V30 6073 C 562.336 3.07056 -2.98162 0
M  V30 6074 C 561.662 4.47051 -2.93343 0
M  V30 6075 C 562.962 2.83648 -4.38567 0
M  V30 6076 H 564.656 1.38547 -2.65415 0
M  V30 6077 H 562.202 0.665082 -1.27721 0
M  V30 6078 H 564.155 3.72467 -1.97095 0
M  V30 6079 H 562.879 3.14793 -0.870209 0
M  V30 6080 H 561.538 2.32248 -2.83648 0
M  V30 6081 H 561.186 4.63547 -1.95276 0
M  V30 6082 H 560.886 4.55902 -3.70712 0
M  V30 6083 H 562.41 5.26304 -3.09575 0
M  V30 6084 H 563.824 3.50636 -4.53572 0
M  V30 6085 H 562.221 3.03937 -5.17438 0
M  V30 6086 H 563.291 1.79451 -4.50472 0
M  V30 6087 N 564.634 1.40294 0.718013 0
M  V30 6088 C 565.581 1.40367 1.8321 0
M  V30 6089 C 566.551 0.260952 1.64037 0
M  V30 6090 O 567.736 0.458648 1.85205 0
M  V30 6091 C 564.876 1.26965 3.20895 0
M  V30 6092 C 563.989 2.50922 3.51656 0
M  V30 6093 C 563.124 2.29981 4.78834 0
M  V30 6094 C 562.163 3.49527 5.02491 0
M  V30 6095 N 561.3 3.27796 6.20882 0
M  V30 6096 H 566.14 2.35593 1.82482 0
M  V30 6097 H 563.677 1.17012 0.891444 0
M  V30 6098 H 565.635 1.17202 4.00399 0
M  V30 6099 H 564.265 0.353591 3.20858 0
M  V30 6100 H 563.317 2.71223 2.66725 0
M  V30 6101 H 564.629 3.39913 3.65048 0
M  V30 6102 H 563.783 2.17558 5.66351 0
M  V30 6103 H 562.522 1.38411 4.67647 0
M  V30 6104 H 561.527 3.6243 4.1343 0
M  V30 6105 H 562.752 4.42021 5.15553 0
M  V30 6106 H 560.698 2.38906 6.1095 0
M  V30 6107 H 560.615 4.10351 6.34939 0
M  V30 6108 H 561.883 3.19101 7.11193 0
M  V30 6109 N 566.112 -0.949982 1.2575 0
M  V30 6110 C 567.022 -2.08109 1.08295 0
M  V30 6111 C 568.038 -1.7399 0.0188181 0
M  V30 6112 O 569.214 -2.00187 0.220724 0
M  V30 6113 C 566.279 -3.39383 0.708534 0
M  V30 6114 C 565.34 -3.8734 1.85111 0
M  V30 6115 C 564.573 -5.12349 1.49447 0
M  V30 6116 O 564.796 -5.6905 0.392212 0
M  V30 6117 O 563.73 -5.5513 2.32624 0
M  V30 6118 H 567.556 -2.25738 2.03165 0
M  V30 6119 H 565.141 -1.06545 1.04731 0
M  V30 6120 H 567.023 -4.18277 0.512061 0
M  V30 6121 H 565.698 -3.23013 -0.210854 0
M  V30 6122 H 564.605 -3.09429 2.10248 0
M  V30 6123 H 565.938 -4.08216 2.74991 0
M  V30 6124 N 567.59 -1.07411 -1.15328 0
M  V30 6125 C 568.553 -0.698914 -2.18284 0
M  V30 6126 C 569.553 0.261149 -1.58665 0
M  V30 6127 O 570.743 0.0420277 -1.74149 0
M  V30 6128 C 567.875 -0.0302427 -3.40887 0
M  V30 6129 H 569.068 -1.61045 -2.52991 0
M  V30 6130 H 566.621 -0.870724 -1.298 0
M  V30 6131 H 567.356 0.893505 -3.11748 0
M  V30 6132 H 567.141 -0.720759 -3.85419 0
M  V30 6133 H 568.631 0.21759 -4.17033 0
M  V30 6134 N 569.068 1.32177 -0.85831 0
M  V30 6135 C 569.978 2.32561 -0.308606 0
M  V30 6136 C 570.994 1.64209 0.575462 0
M  V30 6137 O 572.17 1.95719 0.474961 0
M  V30 6138 C 569.235 3.43207 0.490909 0
M  V30 6139 C 568.296 4.27243 -0.419733 0
M  V30 6140 C 567.529 5.32605 0.341719 0
M  V30 6141 O 567.752 5.48332 1.57125 0
M  V30 6142 O 566.686 6.0118 -0.294379 0
M  V30 6143 H 570.512 2.81477 -1.14037 0
M  V30 6144 H 568.097 1.35866 -0.621349 0
M  V30 6145 H 569.979 4.10677 0.944574 0
M  V30 6146 H 568.654 2.96474 1.29941 0
M  V30 6147 H 567.561 3.62569 -0.921652 0
M  V30 6148 H 568.894 4.7751 -1.19352 0
M  V30 6149 N 570.547 0.616602 1.45037 0
M  V30 6150 C 571.497 -0.118543 2.27692 0
M  V30 6151 C 572.481 -0.830025 1.37838 0
M  V30 6152 O 573.673 -0.718528 1.6176 0
M  V30 6153 C 570.802 -1.10924 3.24886 0
M  V30 6154 C 569.888 -0.398134 4.22227 0
M  V30 6155 N 570.279 0.565233 5.02632 0
M  V30 6156 C 568.577 -0.644506 4.41319 0
M  V30 6157 C 569.278 0.984043 5.73316 0
M  V30 6158 N 568.254 0.325879 5.42622 0
M  V30 6159 H 572.056 0.621239 2.87259 0
M  V30 6160 H 569.57 0.440968 1.56299 0
M  V30 6161 H 571.567 -1.65038 3.82842 0
M  V30 6162 H 570.227 -1.84948 2.66879 0
M  V30 6163 H 571.238 0.942395 5.09254 0
M  V30 6164 H 567.915 -1.36873 3.94426 0
M  V30 6165 H 569.305 1.77911 6.47918 0
M  V30 6166 N 572.025 -1.5352 0.356285 0
M  V30 6167 C 573.271 -2.01414 -0.236653 0
M  V30 6168 C 573.604 -1.24339 -1.49176 0
M  V30 6169 O 572.879 -0.334496 -1.91602 0
M  V30 6170 C 573.162 -3.56059 -0.537982 0
M  V30 6171 C 573.015 -4.43835 0.730112 0
M  V30 6172 C 574.334 -4.19127 -1.34239 0
M  V30 6173 H 571.453 -0.732135 -0.0845386 0
M  V30 6174 H 574.095 -1.83854 0.479341 0
M  V30 6175 H 572.245 -3.71153 -1.14795 0
M  V30 6176 H 573.917 -4.40555 1.36782 0
M  V30 6177 H 572.16 -4.1218 1.3524 0
M  V30 6178 H 572.831 -5.49958 0.474358 0
M  V30 6179 H 575.307 -4.07809 -0.826498 0
M  V30 6180 H 574.183 -5.27378 -1.52198 0
M  V30 6181 H 574.444 -3.74581 -2.34822 0
M  V30 6182 N 573.503 -0.0852151 -1.57369 0
M  V30 6183 C 574.413 0.891712 -2.16992 0
M  V30 6184 C 575.429 1.3174 -1.13669 0
M  V30 6185 O 576.605 1.38735 -1.45995 0
M  V30 6186 C 573.67 2.13635 -2.73059 0
M  V30 6187 C 572.731 1.7658 -3.91303 0
M  V30 6188 C 571.964 2.95111 -4.44686 0
M  V30 6189 O 572.187 4.09539 -3.97032 0
M  V30 6190 O 571.121 2.74149 -5.35841 0
M  V30 6191 H 574.947 0.414477 -3.00858 0
M  V30 6192 H 572.532 0.138598 -1.48756 0
M  V30 6193 H 574.414 2.86595 -3.08935 0
M  V30 6194 H 573.089 2.6043 -1.92244 0
M  V30 6195 H 571.996 1.00831 -3.60255 0
M  V30 6196 H 573.329 1.34557 -4.7345 0
M  V30 6197 N 574.981 1.5647 0.188427 0
M  V30 6198 C 576.206 1.85486 0.927891 0
M  V30 6199 C 576.631 0.669575 1.75779 0
M  V30 6200 O 575.989 -0.381573 1.77239 0
M  V30 6201 C 576.037 3.12784 1.7944 0
M  V30 6202 O 575.141 2.93805 2.894 0
M  V30 6203 H 574.482 0.610585 0.260925 0
M  V30 6204 H 577.012 2.037 0.191729 0
M  V30 6205 H 577.022 3.43749 2.19774 0
M  V30 6206 H 575.697 3.98671 1.18468 0
M  V30 6207 H 574.274 2.74153 2.52774 0
M  V30 6208 N 576.459 -0.456382 1.50847 0
M  V30 6209 C 577.391 -1.57033 1.66953 0
M  V30 6210 C 578.404 -1.53207 0.550593 0
M  V30 6211 O 579.593 -1.58328 0.824285 0
M  V30 6212 C 576.693 -2.95937 1.65149 0
M  V30 6213 C 575.866 -3.24475 2.93317 0
M  V30 6214 C 574.925 -4.43007 2.83957 0
M  V30 6215 O 573.951 -4.42592 3.57912 0
M  V30 6216 N 575.153 -5.45503 1.9851 0
M  V30 6217 H 577.918 -1.43629 2.63042 0
M  V30 6218 H 575.479 -0.645037 1.48495 0
M  V30 6219 H 577.471 -3.73224 1.56481 0
M  V30 6220 H 576.041 -3.03036 0.767343 0
M  V30 6221 H 575.261 -2.35664 3.16 0
M  V30 6222 H 576.549 -3.4036 3.78196 0
M  V30 6223 H 575.947 -5.48668 1.37766 0
M  V30 6224 H 574.504 -6.21716 1.95735 0
M  V30 6225 N 577.937 -1.40673 -0.710563 0
M  V30 6226 C 579.162 -1.42741 -1.50465 0
M  V30 6227 C 579.587 -0.0302116 -1.88076 0
M  V30 6228 O 578.945 0.962945 -1.53613 0
M  V30 6229 C 578.993 -2.32873 -2.75322 0
M  V30 6230 O 578.097 -1.77544 -3.72226 0
M  V30 6231 H 577.438 -0.485056 -0.45345 0
M  V30 6232 H 579.968 -1.84961 -0.874681 0
M  V30 6233 H 579.978 -2.48233 -3.23797 0
M  V30 6234 H 578.653 -3.34401 -2.47283 0
M  V30 6235 H 577.23 -1.71556 -3.31093 0
M  V30 6236 N 579.415 0.9433 -1.26252 0
M  V30 6237 C 580.378 2.02326 -1.07689 0
M  V30 6238 C 581.378 1.60779 -0.0259174 0
M  V30 6239 O 582.568 1.72108 -0.269134 0
M  V30 6240 C 579.7 3.34886 -0.63752 0
M  V30 6241 H 580.893 2.20225 -2.0357 0
M  V30 6242 H 578.446 1.12197 -1.08819 0
M  V30 6243 H 579.181 3.22684 0.323377 0
M  V30 6244 H 578.966 3.66393 -1.39637 0
M  V30 6245 H 580.456 4.14231 -0.529418 0
M  V30 6246 N 580.893 1.08022 1.14757 0
M  V30 6247 C 581.803 0.718292 2.23333 0
M  V30 6248 C 582.819 -0.273477 1.71837 0
M  V30 6249 O 583.995 -0.118406 2.01052 0
M  V30 6250 C 581.06 0.128855 3.4646 0
M  V30 6251 C 580.121 1.17473 4.12915 0
M  V30 6252 C 579.354 0.61333 5.30164 0
M  V30 6253 O 579.577 -0.568458 5.6756 0
M  V30 6254 O 578.511 1.3615 5.86299 0
M  V30 6255 H 582.337 1.62394 2.56636 0
M  V30 6256 H 579.922 0.853628 1.22611 0
M  V30 6257 H 581.804 -0.197249 4.20938 0
M  V30 6258 H 580.479 -0.750014 3.14891 0
M  V30 6259 H 579.386 1.5533 3.40328 0
M  V30 6260 H 580.719 2.02574 4.48581 0
M  V30 6261 N 582.371 -1.3172 0.865308 0
M  V30 6262 C 583.599 -2.01057 0.488251 0
M  V30 6263 C 584.014 -1.64979 -0.918 0
M  V30 6264 O 583.371 -0.876597 -1.60069 0
M  V30 6265 C 583.422 -3.55964 0.630224 0
M  V30 6266 O 583.143 -3.90749 1.98109 0
M  V30 6267 C 584.644 -4.42574 0.253567 0
M  V30 6268 H 581.864 -0.64332 0.190736 0
M  V30 6269 H 584.408 -1.68058 1.16519 0
M  V30 6270 H 582.563 -3.874 0.000895422 0
M  V30 6271 H 582.977 -4.85467 1.9855 0
M  V30 6272 H 584.451 -5.50521 0.403875 0
M  V30 6273 H 584.928 -4.31724 -0.806895 0
M  V30 6274 H 585.534 -4.16547 0.858404 0
M  V30 6275 N 583.85 -0.624285 -1.44708 0
M  V30 6276 C 585.096 -0.126237 -2.02407 0
M  V30 6277 C 585.428 1.24618 -1.48943 0
M  V30 6278 O 584.704 1.82569 -0.670742 0
M  V30 6279 C 584.986 -0.105449 -3.59946 0
M  V30 6280 C 584.84 -1.50972 -4.23707 0
M  V30 6281 C 586.159 0.573629 -4.36346 0
M  V30 6282 H 583.278 -0.0473472 -0.735478 0
M  V30 6283 H 585.92 -0.799452 -1.72362 0
M  V30 6284 H 584.07 0.46783 -3.85673 0
M  V30 6285 H 585.742 -2.13136 -4.0911 0
M  V30 6286 H 583.985 -2.0656 -3.81465 0
M  V30 6287 H 584.656 -1.44727 -5.32689 0
M  V30 6288 H 587.132 0.0861787 -4.16011 0
M  V30 6289 H 586.008 0.557338 -5.46063 0
M  V30 6290 H 586.269 1.64276 -4.10446 0
M  V30 6291 N 585.328 1.53329 -0.364422 0
M  V30 6292 C 586.258 2.28627 0.474543 0
M  V30 6293 C 587.239 1.31009 1.08492 0
M  V30 6294 O 588.424 1.59878 1.10239 0
M  V30 6295 C 585.554 3.07465 1.61501 0
M  V30 6296 C 584.508 4.1276 1.13194 0
M  V30 6297 C 583.834 4.79674 2.36255 0
M  V30 6298 C 585.134 5.21847 0.217507 0
M  V30 6299 H 586.828 2.99005 -0.153656 0
M  V30 6300 H 584.374 1.43803 -0.0753406 0
M  V30 6301 H 586.327 3.58889 2.20855 0
M  V30 6302 H 585.051 2.34775 2.27042 0
M  V30 6303 H 583.71 3.62281 0.56109 0
M  V30 6304 H 583.358 4.03557 3.00251 0
M  V30 6305 H 583.058 5.50827 2.04606 0
M  V30 6306 H 584.582 5.33892 2.96297 0
M  V30 6307 H 585.996 5.6878 0.718493 0
M  V30 6308 H 584.393 6.00099 -0.00806408 0
M  V30 6309 H 585.463 4.7921 -0.740653 0
M  V30 6310 N 586.806 0.0935595 1.57322 0
M  V30 6311 C 588.034 -0.578934 1.98635 0
M  V30 6312 C 588.449 -1.61819 0.972626 0
M  V30 6313 O 587.806 -1.82461 -0.0379638 0
M  V30 6314 C 587.857 -1.22802 3.40003 0
M  V30 6315 O 587.578 -0.230334 4.37494 0
M  V30 6316 C 589.079 -1.98627 3.96311 0
M  V30 6317 H 586.299 -0.155324 0.652775 0
M  V30 6318 H 588.843 0.172393 2.03772 0
M  V30 6319 H 586.998 -1.93029 3.35885 0
M  V30 6320 H 587.412 -0.698649 5.19826 0
M  V30 6321 H 588.886 -2.39405 4.97382 0
M  V30 6322 H 589.363 -2.85151 3.34044 0
M  V30 6323 H 589.969 -1.3322 4.03897 0
M  V30 6324 N 588.284 -1.56567 -0.180126 0
M  V30 6325 C 589.695 -1.7126 -0.743422 0
M  V30 6326 C 590.046 -0.70263 -1.83187 0
M  V30 6327 O 589.171 0.137856 -2.1596 0
M  V30 6328 C 589.766 -3.10512 -1.35528 0
M  V30 6329 C 588.325 -3.26919 -1.8655 0
M  V30 6330 C 587.472 -2.67213 -0.741099 0
M  V30 6331 H 590.423 -1.58636 0.0451543 0
M  V30 6332 H 590.444 -3.08673 -2.22489 0
M  V30 6333 H 589.956 -3.83997 -0.562862 0
M  V30 6334 H 588.057 -2.58376 -2.68464 0
M  V30 6335 H 588.17 -4.34574 -2.01699 0
M  V30 6336 H 586.534 -2.26788 -1.15927 0
M  V30 6337 H 587.317 -3.43277 0.0393291 0
M  V30 6338 N 589.762 0.448376 -1.51087 0
M  V30 6339 C 591.039 1.20926 -1.53741 0
M  V30 6340 C 591.419 2.09025 -0.295222 0
M  V30 6341 O 590.767 2.16851 0.720283 0
M  V30 6342 C 590.977 2.02067 -2.84552 0
M  V30 6343 C 592.325 2.59486 -3.36084 0
M  V30 6344 O 593.349 2.12289 -2.86028 0
M  V30 6345 O 592.208 3.45539 -4.23397 0
M  V30 6346 H 589.302 0.549951 -0.617643 0
M  V30 6347 H 591.848 0.458344 -1.63393 0
M  V30 6348 H 590.62 1.37291 -3.66425 0
M  V30 6349 H 590.243 2.84246 -2.78011 0
M  V30 6350 N 591.24 1.41047 0.703093 0
M  V30 6351 C 592.15 1.44645 1.84703 0
M  V30 6352 C 593.166 0.337778 1.7069 0
M  V30 6353 O 594.342 0.584327 1.92737 0
M  V30 6354 C 591.407 1.31928 3.20618 0
M  V30 6355 C 590.468 2.53047 3.46794 0
M  V30 6356 C 589.701 2.40927 4.76224 0
M  V30 6357 O 589.924 1.42978 5.5219 0
M  V30 6358 O 588.858 3.30543 5.03016 0
M  V30 6359 H 592.684 2.41139 1.84624 0
M  V30 6360 H 590.269 1.22504 0.855167 0
M  V30 6361 H 592.151 1.27092 4.01778 0
M  V30 6362 H 590.826 0.385469 3.21397 0
M  V30 6363 H 589.733 2.6346 2.65593 0
M  V30 6364 H 591.066 3.45231 3.50822 0
M  V30 6365 N 592.718 -0.936591 1.26751 0
M  V30 6366 C 593.958 -1.69796 1.13792 0
M  V30 6367 C 594.322 -1.89437 -0.312671 0
M  V30 6368 O 595.523 -2.62806 -0.564489 0
M  V30 6369 C 593.794 -3.03297 1.89065 0
M  V30 6370 S 595.353 -3.94461 1.92214 0
M  V30 6371 H 592.171 -0.583412 0.406389 0
M  V30 6372 H 594.773 -1.11575 1.60535 0
M  V30 6373 H 593.477 -2.86687 2.93665 0
M  V30 6374 H 593.008 -3.66575 1.42781 0
M  V30 6375 H 595.023 -4.85767 1.01215 0
M  V30 6376 N 594.196 -1.08629 -1.14182 0
M  V30 6377 C 595.128 -0.676189 -2.18998 0
M  V30 6378 C 596.141 0.277871 -1.60411 0
M  V30 6379 O 597.33 0.0651771 -1.78381 0
M  V30 6380 C 594.43 0.0254916 -3.3889 0
M  V30 6381 C 593.603 -0.948039 -4.27002 0
M  V30 6382 C 592.662 -0.281268 -5.25448 0
M  V30 6383 O 591.688 -0.926378 -5.61611 0
M  V30 6384 N 592.89 0.967923 -5.72374 0
M  V30 6385 H 595.655 -1.57792 -2.54798 0
M  V30 6386 H 593.216 -0.972665 -1.29425 0
M  V30 6387 H 595.208 0.482554 -4.01813 0
M  V30 6388 H 593.778 0.829348 -3.01398 0
M  V30 6389 H 592.998 -1.58388 -3.6098 0
M  V30 6390 H 594.286 -1.60765 -4.82734 0
M  V30 6391 H 593.684 1.51175 -5.45126 0
M  V30 6392 H 592.241 1.36844 -6.37273 0
M  V30 6393 N 595.674 1.31259 -0.872281 0
M  V30 6394 C 596.604 2.30929 -0.345554 0
M  V30 6395 C 597.585 1.60449 0.5648 0
M  V30 6396 O 598.77 1.8814 0.481335 0
M  V30 6397 C 595.9 3.44348 0.451823 0
M  V30 6398 C 594.854 4.26435 -0.365641 0
M  V30 6399 C 594.18 5.31785 0.557562 0
M  V30 6400 C 595.48 4.97159 -1.60095 0
M  V30 6401 H 597.174 2.75234 -1.17841 0
M  V30 6402 H 594.72 1.3232 -0.568094 0
M  V30 6403 H 596.673 4.13128 0.830854 0
M  V30 6404 H 595.397 2.98816 1.31821 0
M  V30 6405 H 594.056 3.59326 -0.726649 0
M  V30 6406 H 593.704 4.82502 1.4213 0
M  V30 6407 H 593.404 5.87598 0.0144878 0
M  V30 6408 H 594.928 6.03424 0.933387 0
M  V30 6409 H 596.342 5.58523 -1.29323 0
M  V30 6410 H 594.739 5.62779 -2.08327 0
M  V30 6411 H 595.809 4.24012 -2.35249 0
M  V30 6412 N 597.152 0.631951 1.44375 0
M  V30 6413 C 598.082 -0.0593243 2.33425 0
M  V30 6414 C 599.063 -0.833964 1.48253 0
M  V30 6415 O 600.248 -0.799682 1.76971 0
M  V30 6416 C 597.378 -1.04096 3.31333 0
M  V30 6417 C 596.332 -0.377899 4.26328 0
M  V30 6418 C 595.658 -1.4695 5.14111 0
M  V30 6419 C 596.958 0.716371 5.17364 0
M  V30 6420 H 598.652 0.684287 2.91475 0
M  V30 6421 H 596.198 0.330518 1.40156 0
M  V30 6422 H 598.151 -1.53331 3.92514 0
M  V30 6423 H 596.875 -1.81547 2.71493 0
M  V30 6424 H 595.534 0.0938054 3.6648 0
M  V30 6425 H 595.182 -2.2349 4.50623 0
M  V30 6426 H 594.882 -1.03121 5.78481 0
M  V30 6427 H 596.406 -1.96363 5.78164 0
M  V30 6428 H 597.82 0.307089 5.72477 0
M  V30 6429 H 596.217 1.07784 5.90341 0
M  V30 6430 H 597.287 1.58316 4.58327 0
M  V30 6431 N 598.631 -1.53133 0.372548 0
M  V30 6432 C 599.879 -2.00958 -0.214534 0
M  V30 6433 C 600.2 -1.26135 -1.48711 0
M  V30 6434 O 599.47 -0.376597 -1.92246 0
M  V30 6435 H 598.05 -0.742456 -0.0822664 0
M  V30 6436 H 600.712 -1.88367 0.500385 0
M  V30 6437 H 599.808 -3.09031 -0.436605 0
M  V30 6438 N 600.109 -0.101901 -1.5727 0
M  V30 6439 C 601.339 0.567568 -1.98651 0
M  V30 6440 C 601.747 1.61839 -0.980037 0
M  V30 6441 O 601.09 1.83661 0.0376564 0
M  V30 6442 C 601.152 1.26742 -3.36417 0
M  V30 6443 C 600.816 0.366561 -4.55528 0
M  V30 6444 C 601.813 -0.388022 -5.1845 0
M  V30 6445 C 599.498 0.282629 -5.01504 0
M  V30 6446 C 601.492 -1.21445 -6.25724 0
M  V30 6447 C 599.179 -0.547443 -6.08643 0
M  V30 6448 C 600.177 -1.29462 -6.70618 0
M  V30 6449 O 599.865 -2.11095 -7.7569 0
M  V30 6450 H 599.597 0.156282 -0.657687 0
M  V30 6451 H 602.151 -0.179912 -2.04611 0
M  V30 6452 H 600.381 2.06162 -3.27161 0
M  V30 6453 H 602.07 1.8321 -3.622 0
M  V30 6454 H 602.836 -0.332949 -4.83856 0
M  V30 6455 H 598.715 0.853868 -4.53023 0
M  V30 6456 H 602.259 -1.79814 -6.74027 0
M  V30 6457 H 598.156 -0.603971 -6.42668 0
M  V30 6458 H 598.924 -2.03851 -7.92709 0
M  V30 6459 N 601.587 1.56661 0.17182 0
M  V30 6460 C 602.517 1.99401 1.21498 0
M  V30 6461 C 603.498 0.869516 1.46197 0
M  V30 6462 O 604.683 1.13556 1.57539 0
M  V30 6463 C 601.813 2.35346 2.55401 0
M  V30 6464 C 600.767 3.5075 2.45272 0
M  V30 6465 C 600.093 3.72437 3.8366 0
M  V30 6466 C 601.393 4.84216 1.95787 0
M  V30 6467 H 603.087 2.86792 0.859699 0
M  V30 6468 H 600.633 1.37977 0.412103 0
M  V30 6469 H 602.586 2.63843 3.2858 0
M  V30 6470 H 601.31 1.44864 2.92715 0
M  V30 6471 H 599.969 3.2238 1.74547 0
M  V30 6472 H 599.617 2.79246 4.18367 0
M  V30 6473 H 599.317 4.50087 3.77751 0
M  V30 6474 H 600.841 4.03334 4.58426 0
M  V30 6475 H 602.255 5.11592 2.5874 0
M  V30 6476 H 600.652 5.65498 2.00827 0
M  V30 6477 H 601.722 4.76243 0.912159 0
M  V30 6478 N 603.065 -0.440357 1.51323 0
M  V30 6479 C 604.342 -1.20109 1.5438 0
M  V30 6480 C 604.722 -2.08866 0.306303 0
M  V30 6481 O 604.07 -2.1723 -0.708773 0
M  V30 6482 C 604.28 -2.00555 2.8562 0
M  V30 6483 C 605.628 -2.577 3.37455 0
M  V30 6484 O 606.652 -2.10769 2.8715 0
M  V30 6485 O 605.511 -3.43289 4.25224 0
M  V30 6486 H 602.605 -0.546668 0.620551 0
M  V30 6487 H 605.151 -0.449672 1.63634 0
M  V30 6488 H 603.923 -1.35346 3.67147 0
M  V30 6489 H 603.546 -2.82768 2.79514 0
M  V30 6490 N 604.543 -1.41418 -0.695603 0
M  V30 6491 C 605.49 -1.43264 -1.80954 0
M  V30 6492 C 606.46 -0.287016 -1.63601 0
M  V30 6493 O 607.645 -0.488054 -1.84452 0
M  V30 6494 C 604.785 -1.32054 -3.18835 0
M  V30 6495 C 603.898 -2.56485 -3.4762 0
M  V30 6496 C 603.033 -2.3757 -4.75115 0
M  V30 6497 C 602.072 -3.57477 -4.96867 0
M  V30 6498 N 601.209 -3.37632 -6.15588 0
M  V30 6499 H 606.049 -2.38467 -1.78711 0
M  V30 6500 H 603.586 -1.18415 -0.872715 0
M  V30 6501 H 605.544 -1.23558 -3.98484 0
M  V30 6502 H 604.174 -0.404592 -3.20254 0
M  V30 6503 H 603.226 -2.75432 -2.62376 0
M  V30 6504 H 604.538 -3.45678 -3.59594 0
M  V30 6505 H 603.692 -2.2654 -5.62818 0
M  V30 6506 H 602.431 -1.45834 -4.65386 0
M  V30 6507 H 601.436 -3.68961 -4.07612 0
M  V30 6508 H 602.661 -4.50167 -5.08455 0
M  V30 6509 H 600.607 -2.48596 -6.07072 0
M  V30 6510 H 600.524 -4.20401 -6.2833 0
M  V30 6511 H 601.792 -3.30375 -7.06026 0
M  V30 6512 N 606.021 0.929856 -1.27246 0
M  V30 6513 C 607.269 1.674 -1.13233 0
M  V30 6514 C 607.59 1.92311 0.322744 0
M  V30 6515 O 606.86 1.52784 1.22612 0
M  V30 6516 H 605.44 0.620411 -0.416052 0
M  V30 6517 H 608.102 1.11663 -1.59741 0
M  V30 6518 H 607.198 2.64308 -1.65975 0
M  V30 6519 N 607.499 1.09233 1.13605 0
M  V30 6520 C 608.446 0.729921 2.18954 0
M  V30 6521 C 609.416 -0.287916 1.63586 0
M  V30 6522 O 610.601 -0.170003 1.90041 0
M  V30 6523 C 607.741 0.154489 3.44754 0
M  V30 6524 C 606.854 1.22613 4.14234 0
M  V30 6525 C 605.989 0.613657 5.27644 0
M  V30 6526 C 605.028 1.66674 5.8897 0
M  V30 6527 N 604.165 1.07545 6.93814 0
M  V30 6528 H 609.005 1.63257 2.49302 0
M  V30 6529 H 606.542 0.815693 1.22413 0
M  V30 6530 H 608.5 -0.196923 4.16735 0
M  V30 6531 H 607.13 -0.711433 3.14863 0
M  V30 6532 H 606.182 1.69485 3.40557 0
M  V30 6533 H 607.494 2.0238 4.55899 0
M  V30 6534 H 606.648 0.210976 6.06333 0
M  V30 6535 H 605.387 -0.215584 4.87223 0
M  V30 6536 H 604.392 2.07899 5.08978 0
M  V30 6537 H 605.617 2.49861 6.31464 0
M  V30 6538 H 603.563 0.267451 6.55455 0
M  V30 6539 H 603.48 1.81011 7.3401 0
M  V30 6540 H 604.748 0.698906 7.7636 0
M  V30 6541 N 608.977 -1.30795 0.87923 0
M  V30 6542 C 610.393 -1.48981 0.57243 0
M  V30 6543 C 610.593 -1.80719 -0.891236 0
M  V30 6544 O 609.649 -1.89136 -1.67283 0
M  V30 6545 C 610.962 -2.61721 1.48063 0
M  V30 6546 C 612.51 -2.75603 1.48365 0
M  V30 6547 C 612.985 -3.91449 2.37763 0
M  V30 6548 N 614.476 -3.98751 2.35695 0
M  V30 6549 C 615.211 -4.87684 3.01583 0
M  V30 6550 N 614.707 -5.81454 3.76674 0
M  V30 6551 N 616.5 -4.81005 2.90844 0
M  V30 6552 H 608.651 -1.08465 1.82617 0
M  V30 6553 H 610.914 -0.536813 0.781368 0
M  V30 6554 H 610.62 -2.45073 2.52254 0
M  V30 6555 H 610.494 -3.58071 1.18596 0
M  V30 6556 H 612.881 -2.9166 0.44927 0
M  V30 6557 H 612.962 -1.79891 1.81859 0
M  V30 6558 H 612.606 -3.76149 3.41283 0
M  V30 6559 H 612.536 -4.86487 2.01589 0
M  V30 6560 H 615.027 -3.31668 1.81121 0
M  V30 6561 H 615.34 -6.46063 4.24054 0
M  V30 6562 H 613.685 -5.81403 3.80782 0
M  V30 6563 H 616.876 -4.06728 2.31711 0
M  V30 6564 H 617.049 -5.50107 3.42471 0
M  V30 6565 N 610.455 -0.639598 -1.44038 0
M  V30 6566 C 611.402 0.0602458 -2.30721 0
M  V30 6567 C 612.372 0.828352 -1.43971 0
M  V30 6568 O 613.557 0.807693 -1.72861 0
M  V30 6569 C 610.697 1.03008 -3.29368 0
M  V30 6570 C 609.81 0.259502 -4.3122 0
M  V30 6571 C 608.945 1.22191 -5.16955 0
M  V30 6572 C 607.984 0.440978 -6.10509 0
M  V30 6573 N 607.121 1.35428 -6.88915 0
M  V30 6574 H 611.961 -0.684867 -2.90023 0
M  V30 6575 H 609.498 -0.349509 -1.42888 0
M  V30 6576 H 611.456 1.60583 -3.85057 0
M  V30 6577 H 610.086 1.74222 -2.71747 0
M  V30 6578 H 609.138 -0.432317 -3.77935 0
M  V30 6579 H 610.45 -0.348347 -4.97582 0
M  V30 6580 H 609.604 1.86873 -5.77203 0
M  V30 6581 H 608.343 1.86367 -4.50687 0
M  V30 6582 H 607.348 -0.219279 -5.49363 0
M  V30 6583 H 608.573 -0.196192 -6.78817 0
M  V30 6584 H 606.519 1.9831 -6.25307 0
M  V30 6585 H 606.436 0.800657 -7.51748 0
M  V30 6586 H 607.704 1.98967 -7.53679 0
M  V30 6587 N 611.933 1.52934 -0.380664 0
M  V30 6588 C 613.349 1.59571 -0.0302429 0
M  V30 6589 C 613.549 1.39509 1.45394 0
M  V30 6590 O 612.605 1.20777 2.21741 0
M  V30 6591 C 613.918 2.96519 -0.499691 0
M  V30 6592 C 615.466 3.09672 -0.455204 0
M  V30 6593 C 615.941 4.49056 -0.900703 0
M  V30 6594 N 617.432 4.55215 -0.856367 0
M  V30 6595 C 618.167 5.61282 -1.17259 0
M  V30 6596 N 617.663 6.75035 -1.55885 0
M  V30 6597 N 619.456 5.51343 -1.0944 0
M  V30 6598 H 611.607 1.64224 -1.347 0
M  V30 6599 H 613.87 0.771033 -0.551554 0
M  V30 6600 H 613.576 3.16388 -1.53595 0
M  V30 6601 H 613.45 3.77052 0.105789 0
M  V30 6602 H 615.837 2.89504 0.571949 0
M  V30 6603 H 615.918 2.31113 -1.09638 0
M  V30 6604 H 615.562 4.69964 -1.92604 0
M  V30 6605 H 615.492 5.26068 -0.236629 0
M  V30 6606 H 617.983 3.73546 -0.572013 0
M  V30 6607 H 618.296 7.51926 -1.784 0
M  V30 6608 H 616.641 6.76388 -1.59764 0
M  V30 6609 H 619.832 4.61356 -0.791713 0
M  V30 6610 H 620.005 6.33905 -1.34417 0
M  V30 6611 N 613.412 0.11024 1.57214 0
M  V30 6612 C 614.359 -0.843195 2.14846 0
M  V30 6613 C 615.329 -1.26954 1.07107 0
M  V30 6614 O 616.514 -1.34861 1.34971 0
M  V30 6615 C 613.654 -2.09123 2.74521 0
M  V30 6616 C 612.767 -1.71404 3.96541 0
M  V30 6617 C 611.902 -2.91107 4.44331 0
M  V30 6618 C 610.941 -2.49586 5.58903 0
M  V30 6619 N 610.078 -3.62175 6.01477 0
M  V30 6620 H 614.918 -0.344886 2.95998 0
M  V30 6621 H 612.455 -0.15855 1.46243 0
M  V30 6622 H 614.413 -2.82234 3.07246 0
M  V30 6623 H 613.043 -2.56427 1.96074 0
M  V30 6624 H 612.095 -0.88201 3.70033 0
M  V30 6625 H 613.407 -1.36884 4.7965 0
M  V30 6626 H 612.561 -3.72454 4.78919 0
M  V30 6627 H 611.3 -3.28848 3.60153 0
M  V30 6628 H 610.305 -1.6667 5.23929 0
M  V30 6629 H 611.53 -2.12973 6.4484 0
M  V30 6630 H 609.476 -3.99605 5.20242 0
M  V30 6631 H 609.393 -3.3155 6.79419 0
M  V30 6632 H 610.661 -4.43987 6.407 0
M  V30 6633 N 614.89 -1.56749 -0.16351 0
M  V30 6634 C 615.8 -2.00255 -1.2221 0
M  V30 6635 C 616.816 -0.915194 -1.47987 0
M  V30 6636 O 617.992 -1.22342 -1.59982 0
M  V30 6637 C 615.057 -2.36035 -2.53946 0
M  V30 6638 C 614.118 -3.58637 -2.35962 0
M  V30 6639 C 613.351 -3.92701 -3.61416 0
M  V30 6640 O 613.574 -3.27632 -4.66919 0
M  V30 6641 O 612.508 -4.86019 -3.55062 0
M  V30 6642 H 616.334 -2.90586 -0.882794 0
M  V30 6643 H 613.919 -1.44721 -0.370978 0
M  V30 6644 H 615.801 -2.59982 -3.31643 0
M  V30 6645 H 614.476 -1.48863 -2.8744 0
M  V30 6646 H 613.383 -3.39898 -1.5627 0
M  V30 6647 H 614.716 -4.46374 -2.0739 0
M  V30 6648 N 616.368 0.432326 -1.51554 0
M  V30 6649 C 617.315 1.52512 -1.7323 0
M  V30 6650 C 618.285 1.55863 -0.5741 0
M  V30 6651 O 619.47 1.72796 -0.809093 0
M  V30 6652 C 616.61 2.90183 -1.86783 0
M  V30 6653 C 615.723 2.96322 -3.14352 0
M  V30 6654 C 614.858 4.25147 -3.18471 0
M  V30 6655 C 613.897 4.25172 -4.40335 0
M  V30 6656 N 613.034 5.45529 -4.41975 0
M  V30 6657 H 617.874 1.33332 -2.66508 0
M  V30 6658 H 615.411 0.647613 -1.32077 0
M  V30 6659 H 617.369 3.70071 -1.92623 0
M  V30 6660 H 615.999 3.0791 -0.969087 0
M  V30 6661 H 615.051 2.09066 -3.17798 0
M  V30 6662 H 616.363 2.92203 -4.04251 0
M  V30 6663 H 615.517 5.13411 -3.23255 0
M  V30 6664 H 614.256 4.31929 -2.2647 0
M  V30 6665 H 613.261 3.353 -4.35723 0
M  V30 6666 H 614.486 4.20049 -5.33606 0
M  V30 6667 H 612.432 5.53024 -3.52847 0
M  V30 6668 H 612.349 5.43311 -5.25689 0
M  V30 6669 H 613.617 6.35812 -4.50958 0
M  V30 6670 N 617.846 1.41785 0.688094 0
M  V30 6671 C 618.809 1.43936 1.78368 0
M  V30 6672 C 619.809 0.328866 1.57401 0
M  V30 6673 O 620.999 0.589093 1.63937 0
M  V30 6674 C 618.131 1.25804 3.16838 0
M  V30 6675 H 619.324 2.41472 1.77852 0
M  V30 6676 H 616.877 1.28037 0.896448 0
M  V30 6677 H 617.612 0.291386 3.22988 0
M  V30 6678 H 617.397 2.06272 3.33458 0
M  V30 6679 H 618.887 1.30162 3.96797 0
M  V30 6680 N 619.324 -0.923095 1.27737 0
M  V30 6681 C 620.572 -1.66797 1.14119 0
M  V30 6682 C 620.893 -1.92479 -0.312541 0
M  V30 6683 O 620.163 -1.53432 -1.218 0
M  V30 6684 H 618.743 -0.618196 0.419336 0
M  V30 6685 H 621.405 -1.10815 1.60331 0
M  V30 6686 H 620.501 -2.63424 1.67374 0
M  V30 6687 N 620.802 -1.09834 -1.13024 0
M  V30 6688 C 622.027 -0.85909 -1.88771 0
M  V30 6689 C 622.452 0.584402 -1.78791 0
M  V30 6690 O 621.81 1.41101 -1.13842 0
M  V30 6691 C 621.858 -1.30427 -3.36186 0
M  V30 6692 O 620.962 -0.465368 -4.09766 0
M  V30 6693 H 620.303 -0.310786 -0.586778 0
M  V30 6694 H 622.833 -1.46355 -1.42973 0
M  V30 6695 H 622.843 -1.2915 -3.8702 0
M  V30 6696 H 621.518 -2.3555 -3.42767 0
M  V30 6697 H 620.095 -0.542814 -3.68928 0
M  V30 6698 N 622.28 1.30327 -0.886154 0
M  V30 6699 C 623.21 2.30549 -0.370028 0
M  V30 6700 C 624.191 1.61039 0.547751 0
M  V30 6701 O 625.376 1.8864 0.461353 0
M  V30 6702 C 622.506 3.44808 0.415275 0
M  V30 6703 C 621.46 4.26024 -0.41085 0
M  V30 6704 C 620.786 5.32347 0.501128 0
M  V30 6705 C 622.086 4.95433 -1.65359 0
M  V30 6706 H 623.78 2.73969 -1.20754 0
M  V30 6707 H 621.326 1.3171 -0.582097 0
M  V30 6708 H 623.279 4.13986 0.78699 0
M  V30 6709 H 622.003 3.00197 1.28644 0
M  V30 6710 H 620.662 3.58535 -0.764719 0
M  V30 6711 H 620.31 4.83982 1.37004 0
M  V30 6712 H 620.01 5.87581 -0.0478356 0
M  V30 6713 H 621.534 6.0438 0.869333 0
M  V30 6714 H 622.948 5.5712 -1.35239 0
M  V30 6715 H 621.345 5.60537 -2.14284 0
M  V30 6716 H 622.415 4.21493 -2.39733 0
M  V30 6717 N 623.758 0.647228 1.43697 0
M  V30 6718 C 624.69 -0.0866232 2.29036 0
M  V30 6719 C 625.703 -0.793051 1.42178 0
M  V30 6720 O 626.892 -0.651807 1.66174 0
M  V30 6721 C 623.992 -1.14552 3.18953 0
M  V30 6722 C 623.165 -0.518422 4.34317 0
M  V30 6723 C 622.224 -1.4734 5.05151 0
M  V30 6724 O 621.25 -0.984312 5.60625 0
M  V30 6725 N 622.452 -2.8075 5.08094 0
M  V30 6726 H 625.217 0.645834 2.92659 0
M  V30 6727 H 622.778 0.489567 1.54321 0
M  V30 6728 H 624.77 -1.78505 3.63205 0
M  V30 6729 H 623.34 -1.78001 2.56971 0
M  V30 6730 H 622.56 0.300079 3.93056 0
M  V30 6731 H 623.848 -0.080401 5.08736 0
M  V30 6732 H 623.246 -3.23052 4.64386 0
M  V30 6733 H 621.803 -3.40022 5.56083 0
M  V30 6734 N 625.236 -1.5273 0.388769 0
M  V30 6735 C 626.482 -2.02545 -0.186351 0
M  V30 6736 C 626.837 -1.27017 -1.44514 0
M  V30 6737 O 626.13 -0.361948 -1.8815 0
M  V30 6738 C 626.324 -3.53765 -0.508445 0
M  V30 6739 C 626.153 -4.43938 0.71758 0
M  V30 6740 C 624.923 -4.89933 1.23668 0
M  V30 6741 C 627.121 -4.89113 1.58974 0
M  V30 6742 N 625.103 -5.64176 2.42031 0
M  V30 6743 C 626.474 -5.61931 2.61979 0
M  V30 6744 C 628.529 -4.71155 1.60989 0
M  V30 6745 C 627.232 -6.18698 3.66886 0
M  V30 6746 C 629.258 -5.28804 2.64803 0
M  V30 6747 C 628.62 -6.01527 3.6653 0
M  V30 6748 H 624.719 -0.781413 -0.0302921 0
M  V30 6749 H 627.303 -1.87104 0.538539 0
M  V30 6750 H 625.474 -3.6932 -1.20239 0
M  V30 6751 H 627.206 -3.9028 -1.07067 0
M  V30 6752 H 623.961 -4.66833 0.797763 0
M  V30 6753 H 624.385 -6.05949 3.01919 0
M  V30 6754 H 629.027 -4.14435 0.836881 0
M  V30 6755 H 626.745 -6.74501 4.45055 0
M  V30 6756 H 630.331 -5.1679 2.67245 0
M  V30 6757 H 629.211 -6.45339 4.45542 0
M  V30 6758 N 626.714 -0.118576 -1.57153 0
M  V30 6759 C 627.677 0.817464 -2.14127 0
M  V30 6760 C 628.677 1.1949 -1.07604 0
M  V30 6761 O 629.867 1.12048 -1.33382 0
M  V30 6762 C 626.999 2.10541 -2.68115 0
M  V30 6763 H 628.192 0.322339 -2.98163 0
M  V30 6764 H 625.745 0.130655 -1.55753 0
M  V30 6765 H 626.48 2.64485 -1.87665 0
M  V30 6766 H 626.265 1.84425 -3.4602 0
M  V30 6767 H 627.755 2.77453 -3.12105 0
M  V30 6768 N 628.193 1.56834 0.155195 0
M  V30 6769 C 629.423 1.86778 0.883044 0
M  V30 6770 C 629.831 0.703824 1.75622 0
M  V30 6771 O 629.174 -0.33581 1.80605 0
M  V30 6772 C 629.236 3.1133 1.79761 0
M  V30 6773 C 628.9 4.43504 1.10242 0
M  V30 6774 C 629.897 5.17859 0.460204 0
M  V30 6775 C 627.582 4.90233 1.09437 0
M  V30 6776 C 629.576 6.37144 -0.180782 0
M  V30 6777 C 627.263 6.09444 0.449569 0
M  V30 6778 C 628.261 6.82744 -0.186888 0
M  V30 6779 O 627.949 7.99692 -0.821486 0
M  V30 6780 H 627.681 0.62352 0.261149 0
M  V30 6781 H 630.235 2.04813 0.155204 0
M  V30 6782 H 628.465 2.89282 2.56618 0
M  V30 6783 H 630.154 3.27587 2.39669 0
M  V30 6784 H 630.92 4.8283 0.458289 0
M  V30 6785 H 626.799 4.33109 1.57917 0
M  V30 6786 H 630.343 6.94296 -0.678154 0
M  V30 6787 H 626.24 6.43936 0.449123 0
M  V30 6788 H 627.008 8.15306 -0.722337 0
M  V30 6789 N 629.671 -0.424282 1.51781 0
M  V30 6790 C 630.604 -1.53633 1.68737 0
M  V30 6791 C 631.582 -1.53549 0.534915 0
M  V30 6792 O 632.766 -1.72483 0.760391 0
M  V30 6793 C 629.893 -2.92195 1.71288 0
M  V30 6794 C 628.939 -3.10251 2.92654 0
M  V30 6795 S 629.772 -2.85166 4.53256 0
M  V30 6796 C 630.928 -4.25986 4.58571 0
M  V30 6797 H 631.161 -1.39018 2.62795 0
M  V30 6798 H 628.694 -0.614854 1.41629 0
M  V30 6799 H 630.652 -3.72059 1.73443 0
M  V30 6800 H 629.313 -3.04162 0.783847 0
M  V30 6801 H 628.506 -4.1159 2.90877 0
M  V30 6802 H 628.108 -2.38231 2.88308 0
M  V30 6803 H 630.4 -5.19392 4.35015 0
M  V30 6804 H 631.343 -4.32792 5.60444 0
M  V30 6805 H 631.751 -4.1025 3.87757 0
M  V30 6806 N 631.149 -1.42148 -0.680565 0
M  V30 6807 C 632.112 -1.4488 -1.77602 0
M  V30 6808 C 633.112 -0.337209 -1.57224 0
M  V30 6809 O 634.302 -0.597778 -1.63622 0
M  V30 6810 C 631.434 -1.27483 -3.16166 0
M  V30 6811 H 632.627 -2.42412 -1.76568 0
M  V30 6812 H 630.18 -1.28511 -0.889645 0
M  V30 6813 H 630.915 -0.30851 -3.22829 0
M  V30 6814 H 630.7 -2.08037 -3.3236 0
M  V30 6815 H 632.19 -1.32265 -3.96101 0
M  V30 6816 N 632.627 0.916307 -1.28225 0
M  V30 6817 C 633.876 1.65975 -1.14608 0
M  V30 6818 C 634.189 1.93204 0.305191 0
M  V30 6819 O 635.395 2.65611 0.562432 0
M  V30 6820 C 633.851 2.98989 -2.00333 0
M  V30 6821 C 633.459 2.79417 -3.50186 0
M  V30 6822 C 635.203 3.76856 -1.95397 0
M  V30 6823 C 633.11 4.08056 -4.28071 0
M  V30 6824 H 632.04 0.622587 -0.425324 0
M  V30 6825 H 634.691 1.01705 -1.52736 0
M  V30 6826 H 633.073 3.6438 -1.5506 0
M  V30 6827 H 634.247 2.22723 -4.034 0
M  V30 6828 H 632.562 2.14966 -3.56621 0
M  V30 6829 H 635.159 4.72203 -2.50856 0
M  V30 6830 H 635.502 4.05776 -0.930137 0
M  V30 6831 H 636.035 3.1828 -2.38626 0
M  V30 6832 H 632.774 3.8431 -5.31024 0
M  V30 6833 H 632.294 4.64371 -3.79631 0
M  V30 6834 H 633.973 4.76333 -4.37854 0
M  V30 6835 N 634.105 1.10431 1.1244 0
M  V30 6836 C 635.068 0.756542 2.16354 0
M  V30 6837 C 636.068 -0.21899 1.59302 0
M  V30 6838 O 637.258 0.00415969 1.742 0
M  V30 6839 C 634.39 0.120612 3.40687 0
M  V30 6840 H 635.583 1.67696 2.48632 0
M  V30 6841 H 633.136 0.904832 1.27446 0
M  V30 6842 H 633.871 -0.810536 3.14008 0
M  V30 6843 H 633.656 0.822693 3.83372 0
M  V30 6844 H 635.146 -0.106945 4.17463 0
M  V30 6845 N 635.583 -1.29855 0.893053 0
M  V30 6846 C 636.999 -1.48366 0.588199 0
M  V30 6847 C 637.199 -1.81654 -0.872018 0
M  V30 6848 O 636.255 -1.909 -1.65268 0
M  V30 6849 C 637.568 -2.60136 1.5083 0
M  V30 6850 C 639.116 -2.74014 1.51279 0
M  V30 6851 C 639.591 -3.88905 2.41902 0
M  V30 6852 N 641.082 -3.96228 2.39911 0
M  V30 6853 C 641.817 -4.84458 3.06738 0
M  V30 6854 N 641.313 -5.77426 3.8282 0
M  V30 6855 N 643.106 -4.77894 2.95929 0
M  V30 6856 H 635.257 -1.06522 1.83757 0
M  V30 6857 H 637.52 -0.528495 0.787018 0
M  V30 6858 H 637.226 -2.42383 2.54839 0
M  V30 6859 H 637.1 -3.56793 1.22388 0
M  V30 6860 H 639.487 -2.91167 0.480179 0
M  V30 6861 H 639.568 -1.77952 1.83757 0
M  V30 6862 H 639.212 -3.72508 3.45253 0
M  V30 6863 H 639.142 -4.84322 2.06737 0
M  V30 6864 H 641.633 -3.29728 1.84629 0
M  V30 6865 H 641.946 -6.41529 4.30883 0
M  V30 6866 H 640.291 -5.77332 3.86927 0
M  V30 6867 H 643.482 -4.04248 2.36012 0
M  V30 6868 H 643.655 -5.46444 3.48286 0
M  V30 6869 N 637.061 -0.65484 -1.43351 0
M  V30 6870 C 637.991 0.0221809 -2.33489 0
M  V30 6871 C 638.972 0.810272 -1.49561 0
M  V30 6872 O 640.157 0.771426 -1.78221 0
M  V30 6873 C 637.287 0.988117 -3.32947 0
M  V30 6874 C 636.241 0.310026 -4.26876 0
M  V30 6875 C 635.567 1.38752 -5.16384 0
M  V30 6876 C 636.867 -0.798589 -5.16159 0
M  V30 6877 H 638.561 -0.730571 -2.9035 0
M  V30 6878 H 636.107 -0.352773 -1.39612 0
M  V30 6879 H 638.06 1.47067 -3.94904 0
M  V30 6880 H 636.784 1.77205 -2.74346 0
M  V30 6881 H 635.443 -0.152097 -3.66284 0
M  V30 6882 H 635.091 2.16293 -4.54121 0
M  V30 6883 H 634.791 0.939051 -5.80048 0
M  V30 6884 H 636.315 1.87141 -5.81215 0
M  V30 6885 H 637.729 -0.398126 -5.71916 0
M  V30 6886 H 636.126 -1.17163 -5.88552 0
M  V30 6887 H 637.196 -1.65588 -4.55751 0
M  V30 6888 N 638.539 1.52521 -0.396863 0
M  V30 6889 C 639.787 2.01274 0.182536 0
M  V30 6890 C 640.108 1.28485 1.46685 0
M  V30 6891 O 639.378 0.407134 1.91623 0
M  V30 6892 H 637.958 0.743671 0.0704442 0
M  V30 6893 H 640.62 1.87547 -0.530289 0
M  V30 6894 H 639.716 3.09687 0.387385 0
M  V30 6895 N 640.017 0.126909 1.57088 0
M  V30 6896 C 641.265 -0.528123 1.95078 0
M  V30 6897 C 641.586 -1.66708 1.0116 0
M  V30 6898 O 640.856 -1.95777 0.0693527 0
M  V30 6899 H 639.436 -0.198087 0.720257 0
M  V30 6900 H 642.098 0.197703 1.93895 0
M  V30 6901 H 641.194 -0.917507 2.98309 0
M  V30 6902 N 641.495 -1.56914 -0.146875 0
M  V30 6903 C 642.742 -1.83356 -0.859467 0
M  V30 6904 C 643.07 -0.707811 -1.81164 0
M  V30 6905 O 642.325 0.303155 -1.93338 0
M  V30 6906 C 642.624 -3.16128 -1.66727 0
M  V30 6907 C 642.29 -4.42586 -0.861881 0
M  V30 6908 C 640.952 -4.76929 -0.639687 0
M  V30 6909 C 643.304 -5.20344 -0.298643 0
M  V30 6910 C 640.632 -5.86491 0.156451 0
M  V30 6911 C 642.984 -6.30742 0.484536 0
M  V30 6912 C 641.648 -6.63635 0.717306 0
M  V30 6913 H 640.918 -0.670947 -0.314501 0
M  V30 6914 H 643.565 -1.91104 -0.123108 0
M  V30 6915 H 641.87 -3.03831 -2.47374 0
M  V30 6916 H 643.567 -3.33802 -2.2221 0
M  V30 6917 H 640.157 -4.15662 -1.04513 0
M  V30 6918 H 644.341 -4.94186 -0.457585 0
M  V30 6919 H 639.597 -6.10419 0.346292 0
M  V30 6920 H 643.771 -6.90188 0.928105 0
M  V30 6921 H 641.398 -7.48367 1.33607 0
M  V30 6922 N 642.974 0.416227 -1.52004 0
M  V30 6923 C 643.907 1.52736 -1.6955 0
M  V30 6924 C 644.885 1.53264 -0.54305 0
M  V30 6925 O 646.069 1.72077 -0.769527 0
M  V30 6926 C 643.196 2.91283 -1.72835 0
M  V30 6927 C 642.242 3.08695 -2.94295 0
M  V30 6928 S 643.075 2.82758 -4.54762 0
M  V30 6929 C 644.231 4.23548 -4.60823 0
M  V30 6930 H 644.464 1.37623 -2.63528 0
M  V30 6931 H 641.997 0.607335 -1.41954 0
M  V30 6932 H 643.955 3.71134 -1.75413 0
M  V30 6933 H 642.616 3.03742 -0.799966 0
M  V30 6934 H 641.809 4.10042 -2.93056 0
M  V30 6935 H 641.411 2.36699 -2.89568 0
M  V30 6936 H 643.703 5.17078 -4.37763 0
M  V30 6937 H 644.646 4.29813 -5.62731 0
M  V30 6938 H 645.054 4.08188 -3.89927 0
M  V30 6939 N 644.452 1.42507 0.673017 0
M  V30 6940 C 645.729 1.33554 1.42908 0
M  V30 6941 C 646.109 -0.0262211 2.11084 0
M  V30 6942 O 645.457 -1.04181 2.03368 0
M  V30 6943 C 645.667 2.50498 2.43006 0
M  V30 6944 C 647.015 2.92694 3.07596 0
M  V30 6945 O 648.039 2.50401 2.53333 0
M  V30 6946 O 646.898 3.65899 4.05931 0
M  V30 6947 H 643.992 0.526785 0.637516 0
M  V30 6948 H 646.538 1.54518 0.701591 0
M  V30 6949 H 645.31 3.41272 1.9144 0
M  V30 6950 H 644.933 2.3153 3.23233 0
M  V30 6951 N 645.93 -0.909495 1.28709 0
M  V30 6952 C 647.155 -1.69801 1.1909 0
M  V30 6953 C 647.58 -1.86479 -0.246388 0
M  V30 6954 O 646.938 -1.37802 -1.17815 0
M  V30 6955 C 646.986 -3.06543 1.89904 0
M  V30 6956 O 646.09 -3.94268 1.2094 0
M  V30 6957 H 645.431 -0.519783 0.413185 0
M  V30 6958 H 647.961 -1.13689 1.70106 0
M  V30 6959 H 647.971 -3.56748 1.97977 0
M  V30 6960 H 646.646 -2.93722 2.94449 0
M  V30 6961 H 645.223 -3.52702 1.2106 0
M  V30 6962 N 647.408 -1.11026 -1.11852 0
M  V30 6963 C 648.355 -0.764662 -2.17765 0
M  V30 6964 C 649.325 0.261854 -1.64023 0
M  V30 6965 O 650.51 0.139748 -1.90288 0
M  V30 6966 C 647.65 -0.209317 -3.44465 0
M  V30 6967 C 646.763 -1.29187 -4.12231 0
M  V30 6968 C 645.898 -0.697523 -5.266 0
M  V30 6969 C 644.937 -1.76023 -5.86244 0
M  V30 6970 N 644.074 -1.18569 -6.92016 0
M  V30 6971 H 648.914 -1.67202 -2.46673 0
M  V30 6972 H 646.451 -0.835065 -1.21099 0
M  V30 6973 H 648.409 0.130599 -4.16996 0
M  V30 6974 H 647.039 0.661251 -3.15955 0
M  V30 6975 H 646.091 -1.74881 -3.37818 0
M  V30 6976 H 647.403 -2.09607 -4.52622 0
M  V30 6977 H 646.557 -0.307412 -6.05921 0
M  V30 6978 H 645.296 0.138044 -4.87505 0
M  V30 6979 H 644.301 -2.1597 -5.05606 0
M  V30 6980 H 645.526 -2.59875 -6.27409 0
M  V30 6981 H 643.472 -0.371695 -6.54946 0
M  V30 6982 H 643.389 -1.92666 -7.31038 0
M  V30 6983 H 644.657 -0.82233 -7.7515 0
M  V30 6984 N 648.886 1.2938 -0.899927 0
M  V30 6985 C 650.302 1.48052 -0.596059 0
M  V30 6986 C 650.502 1.82114 0.862372 0
M  V30 6987 O 649.558 1.91774 1.64253 0
M  V30 6988 C 650.871 2.59332 -1.52208 0
M  V30 6989 C 652.419 2.73208 -1.5273 0
M  V30 6990 C 652.894 3.87617 -2.43961 0
M  V30 6991 N 654.385 3.9495 -2.42009 0
M  V30 6992 C 655.12 4.82824 -3.09303 0
M  V30 6993 N 654.616 5.75387 -3.85877 0
M  V30 6994 N 656.409 4.76317 -2.98459 0
M  V30 6995 H 648.56 1.05546 -1.8432 0
M  V30 6996 H 650.823 0.524314 -0.78981 0
M  V30 6997 H 650.529 2.41029 -2.56121 0
M  V30 6998 H 650.403 3.56139 -1.24278 0
M  V30 6999 H 652.79 2.90908 -0.495614 0
M  V30 7000 H 652.871 1.76975 -1.84698 0
M  V30 7001 H 652.515 3.70672 -3.47224 0
M  V30 7002 H 652.445 4.83218 -2.09303 0
M  V30 7003 H 654.936 3.28744 -1.86375 0
M  V30 7004 H 655.249 6.39235 -4.34279 0
M  V30 7005 H 653.594 5.75272 -3.89984 0
M  V30 7006 H 656.785 4.0299 -2.38152 0
M  V30 7007 H 656.958 5.44589 -3.51179 0
M  V30 7008 N 650.364 0.662433 1.43002 0
M  V30 7009 C 651.592 0.187615 2.06048 0
M  V30 7010 C 652.007 -1.15039 1.49705 0
M  V30 7011 O 651.364 -1.71209 0.631956 0
M  V30 7012 C 651.415 0.100498 3.6136 0
M  V30 7013 O 651.136 1.38562 4.15611 0
M  V30 7014 C 652.637 -0.399298 4.41498 0
M  V30 7015 H 649.857 0.0941675 0.664359 0
M  V30 7016 H 652.401 0.905681 1.83351 0
M  V30 7017 H 650.556 -0.568181 3.83211 0
M  V30 7018 H 650.97 1.25084 5.09366 0
M  V30 7019 H 652.444 -0.409187 5.50481 0
M  V30 7020 H 652.921 -1.43232 4.15188 0
M  V30 7021 H 653.527 0.23721 4.24638 0
M  V30 7022 N 651.842 -1.52309 0.404946 0
M  V30 7023 C 653.09 -2.01368 -0.17186 0
M  V30 7024 C 653.411 -1.29261 -1.46002 0
M  V30 7025 O 652.681 -0.41729 -1.91404 0
M  V30 7026 H 651.261 -0.744034 -0.0664993 0
M  V30 7027 H 653.923 -1.87263 0.540228 0
M  V30 7028 H 653.019 -3.09888 -0.370957 0
M  V30 7029 N 653.32 -0.135238 -1.57019 0
M  V30 7030 C 654.569 0.518694 -1.94917 0
M  V30 7031 C 654.882 1.66783 -1.0219 0
M  V30 7032 O 656.088 2.38561 -1.29619 0
M  V30 7033 C 654.544 0.974123 -3.46466 0
M  V30 7034 C 654.152 -0.147439 -4.47757 0
M  V30 7035 C 655.896 1.59851 -3.93253 0
M  V30 7036 C 653.803 0.325599 -5.90503 0
M  V30 7037 H 652.733 0.19754 -0.727663 0
M  V30 7038 H 655.384 -0.217698 -1.82204 0
M  V30 7039 H 653.766 1.76542 -3.5447 0
M  V30 7040 H 654.94 -0.924122 -4.51438 0
M  V30 7041 H 653.255 -0.679496 -4.10818 0
M  V30 7042 H 655.852 1.96385 -4.9733 0
M  V30 7043 H 656.195 2.48306 -3.3414 0
M  V30 7044 H 656.728 0.872323 -3.88118 0
M  V30 7045 H 653.467 -0.523295 -6.53408 0
M  V30 7046 H 652.987 1.06841 -5.90208 0
M  V30 7047 H 654.666 0.781498 -6.42263 0
M  V30 7048 N 654.798 1.5699 0.138552 0
M  V30 7049 C 655.761 1.97984 1.15478 0
M  V30 7050 C 656.761 0.867416 1.35398 0
M  V30 7051 O 657.951 1.13387 1.32246 0
M  V30 7052 C 655.083 2.3031 2.51337 0
M  V30 7053 H 656.276 2.88953 0.802896 0
M  V30 7054 H 653.829 1.51555 0.382189 0
M  V30 7055 H 654.564 1.42159 2.91481 0
M  V30 7056 H 654.349 3.11425 2.38237 0
M  V30 7057 H 655.839 2.62834 3.24512 0
M  V30 7058 N 656.276 -0.40816 1.52223 0
M  V30 7059 C 657.501 -1.18127 1.70472 0
M  V30 7060 C 657.926 -1.83491 0.41384 0
M  V30 7061 O 657.284 -1.70047 -0.628778 0
M  V30 7062 C 657.332 -2.21935 2.84213 0
M  V30 7063 O 656.436 -3.28099 2.4985 0
M  V30 7064 H 655.777 -0.344781 0.56747 0
M  V30 7065 H 658.307 -0.478328 1.9893 0
M  V30 7066 H 658.317 -2.66248 3.09153 0
M  V30 7067 H 656.992 -1.73744 3.7787 0
M  V30 7068 H 655.569 -2.89058 2.35584 0
M  V30 7069 N 657.755 -1.42862 -0.66545 0
M  V30 7070 C 659.001 -1.4504 -1.426 0
M  V30 7071 C 659.356 -0.0690217 -1.92276 0
M  V30 7072 O 658.649 0.91036 -1.68591 0
M  V30 7073 C 658.843 -2.4175 -2.63233 0
M  V30 7074 C 658.672 -3.89155 -2.25362 0
M  V30 7075 C 657.442 -4.57619 -2.14273 0
M  V30 7076 C 659.64 -4.79326 -1.86417 0
M  V30 7077 N 657.622 -5.90006 -1.69604 0
M  V30 7078 C 658.993 -6.00892 -1.52738 0
M  V30 7079 C 661.048 -4.66696 -1.73492 0
M  V30 7080 C 659.751 -7.11232 -1.0743 0
M  V30 7081 C 661.777 -5.77027 -1.29589 0
M  V30 7082 C 661.139 -6.97712 -0.968393 0
M  V30 7083 H 657.238 -0.585889 -0.517936 0
M  V30 7084 H 659.822 -1.78956 -0.767002 0
M  V30 7085 H 657.993 -2.09881 -3.26809 0
M  V30 7086 H 659.725 -2.34447 -3.29874 0
M  V30 7087 H 656.48 -4.11957 -2.33641 0
M  V30 7088 H 656.904 -6.60249 -1.49666 0
M  V30 7089 H 661.546 -3.7386 -1.97455 0
M  V30 7090 H 659.264 -8.03907 -0.822147 0
M  V30 7091 H 662.85 -5.6927 -1.20095 0
M  V30 7092 H 661.73 -7.81634 -0.63384 0
M  V30 7093 N 659.233 0.902656 -1.29189 0
M  V30 7094 C 660.481 1.6496 -1.16758 0
M  V30 7095 C 660.802 1.92952 0.28188 0
M  V30 7096 O 660.072 1.55351 1.19344 0
M  V30 7097 H 658.652 0.611447 -0.429118 0
M  V30 7098 H 661.314 1.0825 -1.62074 0
M  V30 7099 H 660.41 2.60728 -1.71544 0
M  V30 7100 N 660.711 1.11618 1.11262 0
M  V30 7101 C 661.674 0.779447 2.15539 0
M  V30 7102 C 662.674 -0.202081 1.59525 0
M  V30 7103 O 663.864 0.0226356 1.74185 0
M  V30 7104 C 660.996 0.15674 3.40539 0
M  V30 7105 H 662.189 1.70324 2.4684 0
M  V30 7106 H 659.742 0.918298 1.26479 0
M  V30 7107 H 660.477 -0.777186 3.1485 0
M  V30 7108 H 660.262 0.863308 3.82478 0
M  V30 7109 H 661.752 -0.062661 4.17553 0
M  V30 7110 N 662.189 -1.289 0.906776 0
M  V30 7111 C 663.119 -2.29932 0.406659 0
M  V30 7112 C 664.1 -1.6189 -0.522061 0
M  V30 7113 O 665.285 -1.8935 -0.431283 0
M  V30 7114 C 662.415 -3.45425 -0.360366 0
M  V30 7115 C 661.369 -4.25316 0.478574 0
M  V30 7116 C 660.695 -5.33076 -0.416373 0
M  V30 7117 C 661.995 -4.92739 1.7322 0
M  V30 7118 H 663.689 -2.72013 1.25097 0
M  V30 7119 H 661.235 -1.30768 0.602977 0
M  V30 7120 H 663.188 -4.15186 -0.721029 0
M  V30 7121 H 661.912 -3.02206 -1.23852 0
M  V30 7122 H 660.571 -3.57273 0.821662 0
M  V30 7123 H 660.219 -4.86101 -1.29287 0
M  V30 7124 H 659.919 -5.8743 0.141309 0
M  V30 7125 H 661.443 -6.05686 -0.773072 0
M  V30 7126 H 662.857 -5.54898 1.44086 0
M  V30 7127 H 661.254 -5.57057 2.23175 0
M  V30 7128 H 662.324 -4.17625 2.46408 0
M  V30 7129 N 663.667 -0.670007 -1.42649 0
M  V30 7130 C 664.913 -0.19923 -2.02422 0
M  V30 7131 C 665.268 1.17947 -1.52007 0
M  V30 7132 O 664.561 1.77939 -0.710512 0
M  V30 7133 C 664.755 -0.168298 -3.57004 0
M  V30 7134 C 664.584 -1.54246 -4.22419 0
M  V30 7135 C 663.354 -2.13904 -4.57792 0
M  V30 7136 C 665.552 -2.4842 -4.50324 0
M  V30 7137 N 663.534 -3.44151 -5.08364 0
M  V30 7138 C 664.905 -3.63317 -5.02395 0
M  V30 7139 C 666.96 -2.47011 -4.32308 0
M  V30 7140 C 665.663 -4.77051 -5.38345 0
M  V30 7141 C 667.689 -3.59838 -4.6933 0
M  V30 7142 C 667.051 -4.73462 -5.21549 0
M  V30 7143 H 663.15 -0.117717 -0.773089 0
M  V30 7144 H 665.734 -0.881955 -1.73579 0
M  V30 7145 H 663.905 0.483824 -3.85375 0
M  V30 7146 H 665.637 0.314914 -4.03473 0
M  V30 7147 H 662.392 -1.66441 -4.4339 0
M  V30 7148 H 662.816 -4.10846 -5.38084 0
M  V30 7149 H 667.458 -1.60394 -3.91195 0
M  V30 7150 H 665.176 -5.64347 -5.78393 0
M  V30 7151 H 668.762 -3.59969 -4.57071 0
M  V30 7152 H 667.642 -5.59321 -5.49663 0
M  V30 7153 O 665.184 1.51659 -0.55515 0
M  V30 7154 H 665.875 1.9363 -0.0521056 0
M  V30 END ATOM
M  V30 BEGIN BOND
M  V30 END BOND
M  V30 END CTAB
M  END
$$$$
