drugbank_target|Q46705 TraF protein (DB04147)
 OpenBabel12092120483D

  0  0  0     0  0            999 V3000
M  V30 BEGIN CTAB
M  V30 COUNTS 5645 5684 0 0 0
M  V30 BEGIN ATOM
M  V30 1 H -0.908 1.98254 -0.117106 0
M  V30 2 N 0 1.576 0 0
M  V30 3 C 0.933 2.03868 1.02534 0
M  V30 4 C 1.911 0.928543 1.3348 0
M  V30 5 O 3.095 1.19667 1.45644 0
M  V30 6 C 0.222 2.43627 2.35294 0
M  V30 7 C -0.732 3.65373 2.2001 0
M  V30 8 S 0.101 5.13292 1.52614 0
M  V30 9 C 1.257 5.56322 2.86805 0
M  V30 10 H 1.49 2.90518 0.631377 0
M  V30 11 H -0.977 1.52953 0.210867 0
M  V30 12 H 0.981 2.67203 3.11629 0
M  V30 13 H -0.358 1.57376 2.7183 0
M  V30 14 H -1.165 3.90944 3.18086 0
M  V30 15 H -1.563 3.418 1.51819 0
M  V30 16 H 0.729 5.58782 3.83104 0
M  V30 17 H 1.672 6.56266 2.65933 0
M  V30 18 H 2.08 4.83886 2.90714 0
M  V30 19 N 1.4781 -0.272755 1.55222 0
M  V30 20 C 2.4411 -1.32041 1.87344 0
M  V30 21 C 3.4411 -1.42342 0.74803 0
M  V30 22 O 4.6311 -1.41488 1.0162 0
M  V30 23 C 1.7631 -2.70173 2.07893 0
M  V30 24 H 2.9561 -1.04789 2.80997 0
M  V30 25 H 0.5091 -0.51083 1.47717 0
M  V30 26 H 1.2441 -3.02605 1.16622 0
M  V30 27 H 1.0291 -2.64082 2.89833 0
M  V30 28 H 2.5191 -3.45869 2.34017 0
M  V30 29 N 2.9562 -1.48159 -0.537278 0
M  V30 30 C 4.3722 -1.34118 -0.865129 0
M  V30 31 C 4.5722 -0.346678 -1.98495 0
M  V30 32 O 3.6282 0.234715 -2.51407 0
M  V30 33 C 4.9412 -2.73963 -1.23954 0
M  V30 34 C 6.4892 -2.82397 -1.34984 0
M  V30 35 C 6.9642 -4.22928 -1.75772 0
M  V30 36 N 8.4552 -4.25566 -1.82887 0
M  V30 37 C 9.1902 -5.31235 -2.15817 0
M  V30 38 N 8.6862 -6.47189 -2.47222 0
M  V30 39 N 10.4792 -5.18624 -2.16761 0
M  V30 40 H 2.6302 -2.1144 0.201715 0
M  V30 41 H 4.8932 -0.947598 0.0275949 0
M  V30 42 H 4.5992 -3.48264 -0.490381 0
M  V30 43 H 4.4732 -3.0702 -2.19132 0
M  V30 44 H 6.8602 -2.08356 -2.08978 0
M  V30 45 H 6.9412 -2.5297 -0.379448 0
M  V30 46 H 6.5852 -4.97482 -1.02341 0
M  V30 47 H 6.5152 -4.49794 -2.73848 0
M  V30 48 H 9.0062 -3.41924 -1.60924 0
M  V30 49 H 9.3192 -7.23564 -2.71433 0
M  V30 50 H 7.6642 -6.50476 -2.44757 0
M  V30 51 H 10.8552 -4.27056 -1.91679 0
M  V30 52 H 11.0282 -6.01078 -2.42093 0
M  V30 53 N 4.4343 0.785586 -1.36625 0
M  V30 54 C 5.3813 1.89838 -1.31264 0
M  V30 55 C 6.3513 1.65115 -0.180633 0
M  V30 56 O 7.5363 1.87222 -0.36777 0
M  V30 57 C 4.6763 3.26706 -1.11163 0
M  V30 58 C 3.7893 3.63476 -2.33472 0
M  V30 59 C 2.9243 4.89481 -2.06353 0
M  V30 60 C 1.9633 5.18941 -3.24602 0
M  V30 61 N 1.1003 6.36131 -2.97123 0
M  V30 62 H 5.9403 1.93756 -2.26413 0
M  V30 63 H 3.4773 0.947454 -1.12524 0
M  V30 64 H 5.4353 4.05639 -0.975337 0
M  V30 65 H 4.0653 3.222 -0.196674 0
M  V30 66 H 3.1173 2.79636 -2.57891 0
M  V30 67 H 4.4293 3.81193 -3.21704 0
M  V30 68 H 3.5833 5.76288 -1.89675 0
M  V30 69 H 2.3223 4.73841 -1.15437 0
M  V30 70 H 1.3273 4.30615 -3.41834 0
M  V30 71 H 2.5523 5.36498 -4.16349 0
M  V30 72 H 0.4983 6.21875 -2.08823 0
M  V30 73 H 0.4153 6.54198 -3.78894 0
M  V30 74 H 1.6833 7.2591 -2.84033 0
M  V30 75 N 5.9124 1.20967 1.01018 0
M  V30 76 C 7.1374 1.0503 1.78839 0
M  V30 77 C 7.5624 -0.395752 1.8389 0
M  V30 78 O 6.9204 -1.28529 1.27867 0
M  V30 79 C 6.9684 1.64602 3.2084 0
M  V30 80 O 6.0724 0.887988 4.02726 0
M  V30 81 H 5.4134 0.369987 0.551367 0
M  V30 82 H 7.9434 1.60399 1.27018 0
M  V30 83 H 7.9534 1.68607 3.71532 0
M  V30 84 H 6.6284 2.69841 3.16479 0
M  V30 85 H 5.2054 0.922648 3.61305 0
M  V30 86 N 7.3905 -1.2043 1.01659 0
M  V30 87 C 8.6365 -1.90079 0.706963 0
M  V30 88 C 8.9695 -1.78648 -0.761474 0
M  V30 89 O 8.2445 -1.17069 -1.55323 0
M  V30 90 C 8.5275 -3.41469 1.14327 0
M  V30 91 C 8.3805 -3.61833 2.67201 0
M  V30 92 C 9.6995 -4.34261 0.714529 0
M  V30 93 H 6.8185 -0.690254 0.2583 0
M  V30 94 H 9.4605 -1.41826 1.26433 0
M  V30 95 H 7.6105 -3.82696 0.669056 0
M  V30 96 H 9.2825 -3.2986 3.22475 0
M  V30 97 H 7.5255 -3.05304 3.08175 0
M  V30 98 H 8.1965 -4.67955 2.92783 0
M  V30 99 H 10.6725 -4.00682 1.12221 0
M  V30 100 H 9.5485 -5.38806 1.04784 0
M  V30 101 H 9.8095 -4.40431 -0.383799 0
M  V30 102 N 8.8686 -0.792821 -1.36206 0
M  V30 103 C 10.1456 -0.290627 -1.93429 0
M  V30 104 C 10.5256 1.21773 -1.72437 0
M  V30 105 O 9.8736 2.0108 -1.08531 0
M  V30 106 C 10.0836 -0.686973 -3.42172 0
M  V30 107 C 11.4316 -0.668643 -4.19302 0
M  V30 108 O 12.4556 -0.627658 -3.50626 0
M  V30 109 O 11.3146 -0.714597 -5.41808 0
M  V30 110 H 8.4086 -0.0727927 -0.82379 0
M  V30 111 H 10.9546 -0.875593 -1.45367 0
M  V30 112 H 9.7266 -1.72711 -3.51122 0
M  V30 113 H 9.3496 -0.0760733 -3.97527 0
M  V30 114 N 10.3467 1.47872 -0.545128 0
M  V30 115 C 11.5927 2.02793 -0.0166104 0
M  V30 116 C 11.9257 1.41987 1.32489 0
M  V30 117 O 11.2007 0.571045 1.85928 0
M  V30 118 C 11.4837 3.59989 0.0893294 0
M  V30 119 C 11.3367 4.3125 -1.27841 0
M  V30 120 C 12.6557 4.32606 0.808724 0
M  V30 121 H 9.7747 0.736962 -0.00751035 0
M  V30 122 H 12.4167 1.76433 -0.705085 0
M  V30 123 H 10.5667 3.82579 0.675681 0
M  V30 124 H 12.2387 4.20035 -1.90704 0
M  V30 125 H 10.4817 3.92076 -1.85632 0
M  V30 126 H 11.1527 5.39736 -1.15713 0
M  V30 127 H 13.6287 4.14936 0.310992 0
M  V30 128 H 12.5047 5.42251 0.851782 0
M  V30 129 H 12.7657 4.00963 1.86229 0
M  V30 130 N 11.8248 0.280983 1.55075 0
M  V30 131 C 13.1018 -0.386207 1.91749 0
M  V30 132 C 13.4818 -1.73264 1.20594 0
M  V30 133 O 12.8298 -2.26034 0.334784 0
M  V30 134 C 13.0398 -0.520687 3.45094 0
M  V30 135 C 14.3878 -0.800865 4.16979 0
M  V30 136 O 15.4118 -0.605271 3.5102 0
M  V30 137 O 14.2708 -1.1753 5.33712 0
M  V30 138 H 11.3648 -0.212408 0.799257 0
M  V30 139 H 13.9108 0.327568 1.66509 0
M  V30 140 H 12.6828 0.426633 3.88967 0
M  V30 141 H 12.3058 -1.2837 3.76307 0
M  V30 142 N 13.3029 -1.57598 0.00835791 0
M  V30 143 C 14.2349 -2.05811 -1.00868 0
M  V30 144 C 15.2479 -0.977579 -1.30182 0
M  V30 145 O 16.4369 -1.25421 -1.27011 0
M  V30 146 C 13.5369 -2.45016 -2.34137 0
M  V30 147 C 12.7099 -3.75903 -2.23643 0
M  V30 148 C 11.7689 -4.01884 -3.3967 0
M  V30 149 O 10.7949 -4.72433 -3.17483 0
M  V30 150 N 11.9969 -3.50432 -4.62793 0
M  V30 151 H 14.7619 -2.93684 -0.597458 0
M  V30 152 H 12.3229 -1.60909 -0.178852 0
M  V30 153 H 14.3149 -2.59506 -3.10546 0
M  V30 154 H 12.8849 -1.62618 -2.66972 0
M  V30 155 H 12.1049 -3.7141 -1.32091 0
M  V30 156 H 13.3929 -4.61695 -2.13812 0
M  V30 157 H 12.7909 -2.93317 -4.83716 0
M  V30 158 H 11.3479 -3.70236 -5.3644 0
M  V30 159 N 14.781 0.264519 -1.55364 0
M  V30 160 C 15.691 1.34902 -1.91934 0
M  V30 161 C 16.707 1.53595 -0.817593 0
M  V30 162 O 17.883 1.67558 -1.11742 0
M  V30 163 C 14.948 2.68676 -2.19121 0
M  V30 164 C 14.009 2.58657 -3.4263 0
M  V30 165 C 13.242 3.86051 -3.68511 0
M  V30 166 O 13.465 4.87126 -2.96757 0
M  V30 167 O 12.399 3.85744 -4.62045 0
M  V30 168 H 16.225 1.06883 -2.8427 0
M  V30 169 H 13.81 0.463775 -1.42019 0
M  V30 170 H 15.692 3.47759 -2.37995 0
M  V30 171 H 14.367 2.96463 -1.29966 0
M  V30 172 H 13.274 1.7792 -3.29082 0
M  V30 173 H 14.607 2.35818 -4.32031 0
M  V30 174 N 16.2591 1.48442 0.529413 0
M  V30 175 C 17.1891 1.65902 1.64313 0
M  V30 176 C 18.1701 0.507897 1.6234 0
M  V30 177 O 19.3551 0.740503 1.79528 0
M  V30 178 C 16.4851 1.69911 3.02898 0
M  V30 179 C 15.4391 2.8453 3.19729 0
M  V30 180 C 14.7651 2.73629 4.59381 0
M  V30 181 C 16.0651 4.25821 3.02447 0
M  V30 182 H 17.7591 2.5914 1.49955 0
M  V30 183 H 15.3051 1.24709 0.719982 0
M  V30 184 H 17.2581 1.80715 3.80684 0
M  V30 185 H 15.9821 0.732524 3.18279 0
M  V30 186 H 14.6411 2.73283 2.44361 0
M  V30 187 H 14.2891 1.74938 4.71599 0
M  V30 188 H 13.9891 3.50541 4.71588 0
M  V30 189 H 15.5131 2.86401 5.39265 0
M  V30 190 H 16.9271 4.37898 3.70024 0
M  V30 191 H 15.3241 5.03735 3.26146 0
M  V30 192 H 16.3941 4.42244 1.98867 0
M  V30 193 N 17.7372 -0.778329 1.37039 0
M  V30 194 C 19.0142 -1.52551 1.22424 0
M  V30 195 C 19.3942 -2.10288 -0.184964 0
M  V30 196 O 18.7422 -1.94953 -1.19187 0
M  V30 197 C 18.9522 -2.61164 2.31504 0
M  V30 198 C 20.3002 -3.28746 2.68721 0
M  V30 199 O 21.3242 -2.71455 2.30631 0
M  V30 200 O 20.1832 -4.3231 3.3432 0
M  V30 201 H 17.2772 -0.675343 0.477326 0
M  V30 202 H 19.8232 -0.815859 1.48801 0
M  V30 203 H 18.5952 -2.16574 3.25901 0
M  V30 204 H 18.2182 -3.39737 2.06554 0
M  V30 205 N 19.2153 -1.21501 -1.00376 0
M  V30 206 C 20.1253 -0.991447 -2.12621 0
M  V30 207 C 21.1413 0.0568446 -1.73907 0
M  V30 208 O 22.3173 -0.13348 -2.00957 0
M  V30 209 C 19.3823 -0.560312 -3.42142 0
M  V30 210 C 18.4433 -1.68096 -3.95022 0
M  V30 211 C 17.6763 -1.2703 -5.18362 0
M  V30 212 O 17.8993 -0.144438 -5.70217 0
M  V30 213 O 16.8333 -2.08269 -5.64719 0
M  V30 214 H 20.6593 -1.93158 -2.34358 0
M  V30 215 H 18.2443 -0.999999 -1.10997 0
M  V30 216 H 20.1263 -0.329724 -4.20108 0
M  V30 217 H 18.8013 0.351089 -3.2179 0
M  V30 218 H 17.7083 -1.96597 -3.18278 0
M  V30 219 H 19.0413 -2.56983 -4.19786 0
M  V30 220 N 20.6934 1.19889 -1.02296 0
M  V30 221 C 21.6414 2.24938 -0.592081 0
M  V30 222 C 22.6354 1.65257 0.372357 0
M  V30 223 O 23.8414 1.78371 0.241583 0
M  V30 224 H 20.2164 0.731787 -0.173182 0
M  V30 225 H 22.1874 2.58603 -1.48885 0
M  V30 226 C 20.9364 3.47668 0.047351 0
M  V30 227 H 20.2594 3.93875 -0.685772 0
M  V30 228 H 21.6994 4.22852 0.311862 0
M  V30 229 C 20.1584 3.11136 1.29212 0
M  V30 230 O 20.6884 3.2325 2.38479 0
M  V30 231 N 18.8944 2.65625 1.17863 0
M  V30 232 H 18.4414 2.55968 0.289493 0
M  V30 233 H 18.3994 2.41553 2.01245 0
M  V30 234 N 22.1715 0.800033 1.35784 0
M  V30 235 C 23.3995 0.389606 2.03199 0
M  V30 236 C 23.8145 -0.997375 1.60306 0
M  V30 237 O 23.1715 -1.64154 0.797481 0
M  V30 238 C 23.2225 0.455855 3.58614 0
M  V30 239 O 22.9435 1.78815 3.99946 0
M  V30 240 C 24.4445 0.0374032 4.43284 0
M  V30 241 H 21.6645 0.159132 0.651857 0
M  V30 242 H 24.2085 1.08183 1.73541 0
M  V30 243 H 22.3635 -0.188057 3.86943 0
M  V30 244 H 22.7775 1.74636 4.94573 0
M  V30 245 H 24.2515 0.134882 5.51835 0
M  V30 246 H 24.7285 -1.01651 4.27275 0
M  V30 247 H 25.3345 0.654215 4.20238 0
M  V30 248 N 23.6496 -1.47581 0.552962 0
M  V30 249 C 24.8976 -2.02082 0.0272703 0
M  V30 250 C 25.2186 -1.4301 -1.32563 0
M  V30 251 O 24.4886 -0.603745 -1.86365 0
M  V30 252 H 23.0686 -0.746966 0.00709182 0
M  V30 253 H 25.7306 -1.81033 0.722008 0
M  V30 254 H 24.8266 -3.12034 -0.0639951 0
M  V30 255 N 25.1277 -0.289203 -1.54924 0
M  V30 256 C 26.4047 0.376032 -1.91951 0
M  V30 257 C 26.7847 1.72622 -1.21511 0
M  V30 258 O 26.1327 2.25853 -0.346767 0
M  V30 259 C 26.3427 0.502378 -3.45365 0
M  V30 260 C 27.6907 0.778741 -4.17398 0
M  V30 261 O 28.7147 0.586647 -3.51336 0
M  V30 262 O 27.5737 1.14698 -5.34328 0
M  V30 263 H 24.6677 0.208167 -0.800372 0
M  V30 264 H 27.2137 -0.336394 -1.66332 0
M  V30 265 H 25.9857 -0.447255 -3.88736 0
M  V30 266 H 25.6087 1.26373 -3.76982 0
M  V30 267 N 26.6058 1.57591 -0.0167156 0
M  V30 268 C 27.8538 1.90906 0.663285 0
M  V30 269 C 28.1748 0.892509 1.73376 0
M  V30 270 O 27.4448 -0.0677623 1.95783 0
M  V30 271 H 26.0248 0.704637 0.247983 0
M  V30 272 H 28.6868 1.94803 -0.0615909 0
M  V30 273 H 27.7828 2.9116 1.12393 0
M  V30 274 N 28.0839 -0.256276 1.55502 0
M  V30 275 C 28.9939 -1.33882 1.92647 0
M  V30 276 C 30.0099 -1.53159 0.825727 0
M  V30 277 O 31.1859 -1.66963 1.12629 0
M  V30 278 C 28.2509 -2.6751 2.20543 0
M  V30 279 C 27.3119 -2.56836 3.43997 0
M  V30 280 C 26.5449 -3.84092 3.70553 0
M  V30 281 O 26.7679 -4.85545 2.99336 0
M  V30 282 O 25.7019 -3.83288 4.64084 0
M  V30 283 H 29.5279 -1.05374 2.84833 0
M  V30 284 H 27.1129 -0.456237 1.42263 0
M  V30 285 H 28.9949 -3.46492 2.39835 0
M  V30 286 H 27.6699 -2.9577 1.31536 0
M  V30 287 H 26.5769 -1.76172 3.30021 0
M  V30 288 H 27.9099 -2.33523 4.33275 0
M  V30 289 N 29.562 -1.4872 -0.521534 0
M  V30 290 C 30.809 -1.57168 -1.27689 0
M  V30 291 C 31.137 -0.249275 -1.92896 0
M  V30 292 O 30.392 0.761162 -1.80291 0
M  V30 293 C 30.691 -2.66497 -2.38148 0
M  V30 294 C 30.357 -4.08664 -1.90538 0
M  V30 295 C 29.019 -4.47357 -1.77271 0
M  V30 296 C 31.371 -4.97724 -1.54663 0
M  V30 297 C 28.699 -5.72905 -1.26478 0
M  V30 298 C 31.051 -6.2377 -1.05329 0
M  V30 299 C 29.715 -6.61311 -0.906861 0
M  V30 300 H 28.985 -0.575117 -0.467249 0
M  V30 301 H 31.632 -1.82472 -0.581051 0
M  V30 302 H 29.937 -2.35085 -3.13437 0
M  V30 303 H 31.634 -2.70246 -2.96257 0
M  V30 304 H 28.224 -3.78111 -2.01816 0
M  V30 305 H 32.408 -4.68501 -1.63768 0
M  V30 306 H 27.664 -6.00709 -1.13835 0
M  V30 307 H 31.838 -6.9217 -0.76644 0
M  V30 308 H 29.465 -7.5848 -0.511083 0
M  V30 309 N 31.0401 0.771051 -1.3745 0
M  V30 310 C 31.9501 1.91538 -1.35464 0
M  V30 311 C 32.9661 1.72134 -0.254123 0
M  V30 312 O 34.1421 1.95358 -0.489626 0
M  V30 313 C 31.2071 3.26671 -1.16134 0
M  V30 314 C 30.2681 3.58723 -2.35831 0
M  V30 315 C 29.5011 4.87409 -2.17413 0
M  V30 316 O 29.7241 5.58506 -1.15876 0
M  V30 317 O 28.6581 5.18539 -3.05615 0
M  V30 318 H 32.4841 1.96165 -2.31847 0
M  V30 319 H 30.0691 0.9139 -1.18187 0
M  V30 320 H 31.9511 4.07499 -1.07345 0
M  V30 321 H 30.6261 3.22894 -0.228251 0
M  V30 322 H 29.5331 2.78127 -2.50192 0
M  V30 323 H 30.8661 3.67243 -3.27709 0
M  V30 324 N 32.5182 1.22032 0.997298 0
M  V30 325 C 33.7432 1.06921 1.77715 0
M  V30 326 C 34.1682 -0.376226 1.84299 0
M  V30 327 O 33.5262 -1.27165 1.29223 0
M  V30 328 C 33.5742 1.67996 3.19076 0
M  V30 329 O 32.6782 0.930653 4.01762 0
M  V30 330 H 32.0192 0.375814 0.547412 0
M  V30 331 H 34.5492 1.61737 1.25309 0
M  V30 332 H 34.5592 1.72538 3.69723 0
M  V30 333 H 33.2342 2.73182 3.13599 0
M  V30 334 H 31.8112 0.960917 3.60307 0
M  V30 335 N 33.9963 -1.19345 1.0293 0
M  V30 336 C 34.9063 -2.26245 0.620515 0
M  V30 337 C 35.9223 -1.70486 -0.347928 0
M  V30 338 O 37.0983 -2.00347 -0.205704 0
M  V30 339 C 34.1633 -3.46693 -0.0218957 0
M  V30 340 C 33.2243 -4.17632 0.994102 0
M  V30 341 C 32.4573 -5.32329 0.382253 0
M  V30 342 O 32.6803 -5.64552 -0.814676 0
M  V30 343 O 31.6143 -5.91664 1.10531 0
M  V30 344 H 35.4403 -2.63453 1.51083 0
M  V30 345 H 33.0253 -1.26207 0.799513 0
M  V30 346 H 34.9073 -4.19683 -0.380072 0
M  V30 347 H 33.5823 -3.11333 -0.886209 0
M  V30 348 H 32.4893 -3.4676 1.40387 0
M  V30 349 H 33.8223 -4.56964 1.8288 0
M  V30 350 N 35.4744 -0.807222 -1.35358 0
M  V30 351 C 36.8904 -0.491038 -1.51858 0
M  V30 352 C 37.0904 0.987648 -1.75635 0
M  V30 353 O 36.1464 1.77265 -1.79815 0
M  V30 354 C 37.4594 -1.33695 -2.69344 0
M  V30 355 C 39.0074 -1.33246 -2.83222 0
M  V30 356 C 39.4824 -2.1625 -4.03733 0
M  V30 357 N 40.9734 -2.1379 -4.10911 0
M  V30 358 C 41.7084 -2.74772 -5.03277 0
M  V30 359 N 41.2044 -3.44684 -6.0097 0
M  V30 360 N 42.9974 -2.6441 -4.96028 0
M  V30 361 H 35.1484 -1.76485 -1.18181 0
M  V30 362 H 37.4114 -0.751199 -0.578276 0
M  V30 363 H 37.1174 -2.38634 -2.58354 0
M  V30 364 H 36.9914 -0.990618 -3.6396 0
M  V30 365 H 39.3784 -0.290911 -2.93663 0
M  V30 366 H 39.4594 -1.71866 -1.89461 0
M  V30 367 H 39.1034 -3.20445 -3.94052 0
M  V30 368 H 39.0334 -1.74989 -4.96675 0
M  V30 369 H 41.5244 -1.62923 -3.40976 0
M  V30 370 H 41.8374 -3.88501 -6.68047 0
M  V30 371 H 40.1824 -3.48788 -6.01142 0
M  V30 372 H 43.3734 -2.0938 -4.18662 0
M  V30 373 H 43.5464 -3.12225 -5.6782 0
M  V30 374 N 36.9525 1.47285 -0.560781 0
M  V30 375 C 38.2005 2.02064 -0.0379868 0
M  V30 376 C 38.5215 1.43711 1.31803 0
M  V30 377 O 37.7915 0.61362 1.86042 0
M  V30 378 H 36.3715 0.746918 -0.0110531 0
M  V30 379 H 39.0335 1.80648 -0.731598 0
M  V30 380 H 38.1295 3.12064 0.0474463 0
M  V30 381 N 38.4306 0.297415 1.54768 0
M  V30 382 C 39.6786 -0.312295 1.99673 0
M  V30 383 C 39.9996 -1.54686 1.18732 0
M  V30 384 O 39.2696 -1.93854 0.282382 0
M  V30 385 H 37.8496 -0.118381 0.73756 0
M  V30 386 H 40.5116 0.407915 1.90583 0
M  V30 387 H 39.6076 -0.586813 3.06534 0
M  V30 388 N 39.9087 -1.5758 0.0250728 0
M  V30 389 C 41.1557 -1.91633 -0.654444 0
M  V30 390 C 41.4837 -0.901103 -1.72367 0
M  V30 391 O 40.7387 0.0905647 -1.9549 0
M  V30 392 C 41.0377 -3.32421 -1.31268 0
M  V30 393 C 40.7037 -4.49344 -0.374223 0
M  V30 394 C 39.3657 -4.8106 -0.115911 0
M  V30 395 C 41.7177 -5.20498 0.270432 0
M  V30 396 C 39.0457 -5.8129 0.79493 0
M  V30 397 C 41.3977 -6.21699 1.1693 0
M  V30 398 C 40.0617 -6.51859 1.43655 0
M  V30 399 H 39.3317 -0.701236 -0.239478 0
M  V30 400 H 41.9787 -1.91307 0.0859734 0
M  V30 401 H 40.2837 -3.28989 -2.12775 0
M  V30 402 H 41.9807 -3.56038 -1.84494 0
M  V30 403 H 38.5707 -4.24579 -0.58573 0
M  V30 404 H 42.7547 -4.96229 0.0839194 0
M  V30 405 H 38.0107 -6.03005 1.00973 0
M  V30 406 H 42.1847 -6.75955 1.67504 0
M  V30 407 H 39.8117 -7.2934 2.144 0
M  V30 408 N 41.3868 0.248026 -1.55636 0
M  V30 409 C 42.3348 1.32683 -1.91045 0
M  V30 410 C 43.3288 1.49883 -0.789401 0
M  V30 411 O 44.5348 1.51371 -0.974007 0
M  V30 412 H 40.9098 0.444272 -0.606734 0
M  V30 413 H 42.8808 1.00085 -2.81115 0
M  V30 414 C 41.6298 2.6755 -2.22064 0
M  V30 415 H 40.9528 2.55114 -3.07826 0
M  V30 416 H 42.3928 3.41912 -2.50743 0
M  V30 417 C 40.8518 3.20556 -1.0366 0
M  V30 418 O 41.3818 4.00695 -0.284016 0
M  V30 419 N 39.5878 2.78568 -0.82753 0
M  V30 420 H 39.1348 2.1351 -1.44123 0
M  V30 421 H 39.0928 3.14378 -0.0369803 0
M  V30 422 N 42.8649 1.48995 0.513639 0
M  V30 423 C 44.1129 1.57531 1.26604 0
M  V30 424 C 44.4339 0.258236 1.93283 0
M  V30 425 O 43.7039 -0.721502 1.8213 0
M  V30 426 H 42.2839 0.580387 0.470276 0
M  V30 427 H 44.9459 1.85552 0.596373 0
M  V30 428 H 44.0419 2.36486 2.03669 0
M  V30 429 N 44.343 -0.763751 1.37857 0
M  V30 430 C 45.568 -1.55805 1.36893 0
M  V30 431 C 45.993 -1.88054 -0.0416135 0
M  V30 432 O 45.351 -1.49825 -1.02089 0
M  V30 433 C 45.399 -2.84012 2.22192 0
M  V30 434 O 44.503 -3.78732 1.63204 0
M  V30 435 H 43.844 -0.471638 0.46739 0
M  V30 436 H 46.374 -0.944657 1.81487 0
M  V30 437 H 46.384 -3.33037 2.35691 0
M  V30 438 H 45.059 -2.59869 3.24716 0
M  V30 439 H 43.636 -3.37402 1.58791 0
M  V30 440 N 45.8211 -1.22559 -0.990812 0
M  V30 441 C 46.7691 -0.994798 -2.10253 0
M  V30 442 C 47.7631 0.0627798 -1.69284 0
M  V30 443 O 48.9691 -0.0898392 -1.79776 0
M  V30 444 H 45.3441 -0.304527 -0.687581 0
M  V30 445 H 47.3151 -1.93812 -2.26891 0
M  V30 446 C 46.0641 -0.591439 -3.42633 0
M  V30 447 H 45.3871 -1.3969 -3.74602 0
M  V30 448 H 46.8271 -0.469385 -4.21394 0
M  V30 449 C 45.2861 0.699232 -3.29564 0
M  V30 450 O 45.8161 1.75112 -3.61523 0
M  V30 451 N 44.0221 0.671182 -2.82743 0
M  V30 452 H 43.5691 -0.185136 -2.56934 0
M  V30 453 H 43.5271 1.53502 -2.7438 0
M  V30 454 N 47.2992 1.18797 -1.03562 0
M  V30 455 C 48.7152 1.40671 -0.753917 0
M  V30 456 C 48.9152 1.9043 0.658686 0
M  V30 457 O 47.9712 2.08538 1.42366 0
M  V30 458 C 49.2842 2.41192 -1.79574 0
M  V30 459 C 50.8322 2.54928 -1.81606 0
M  V30 460 C 51.3072 3.58709 -2.84766 0
M  V30 461 N 52.7982 3.66212 -2.83625 0
M  V30 462 C 53.5332 4.46225 -3.60098 0
M  V30 463 N 53.0292 5.29888 -4.46308 0
M  V30 464 N 54.8222 4.40939 -3.4861 0
M  V30 465 H 46.9732 0.848221 -1.94728 0
M  V30 466 H 49.2362 0.435081 -0.842264 0
M  V30 467 H 48.9422 2.11669 -2.80872 0
M  V30 468 H 48.8162 3.40467 -1.62365 0
M  V30 469 H 51.2032 2.83771 -0.809817 0
M  V30 470 H 51.2842 1.55784 -2.02891 0
M  V30 471 H 50.9282 3.30607 -3.85566 0
M  V30 472 H 50.8582 4.57519 -2.60737 0
M  V30 473 H 53.3492 3.06466 -2.21105 0
M  V30 474 H 53.6622 5.88078 -5.01382 0
M  V30 475 H 52.0072 5.29326 -4.50377 0
M  V30 476 H 55.1982 3.74624 -2.80668 0
M  V30 477 H 55.3712 5.03056 -4.08459 0
M  V30 478 N 48.7773 0.814389 1.34928 0
M  V30 479 C 50.1933 0.499084 1.51596 0
M  V30 480 C 50.3933 -0.978319 1.76157 0
M  V30 481 O 49.4493 -1.76309 1.80752 0
M  V30 482 C 50.7623 1.35121 2.68631 0
M  V30 483 C 52.3103 1.34746 2.82511 0
M  V30 484 C 52.7853 2.18388 4.0258 0
M  V30 485 N 54.2763 2.15966 4.09772 0
M  V30 486 C 55.0113 2.77437 5.01813 0
M  V30 487 N 54.5073 3.47866 5.99134 0
M  V30 488 N 56.3003 2.67037 4.94619 0
M  V30 489 H 48.4513 1.7711 1.17243 0
M  V30 490 H 50.7143 0.754256 0.574284 0
M  V30 491 H 50.4203 2.40001 2.57085 0
M  V30 492 H 50.2943 1.00991 3.63429 0
M  V30 493 H 52.6813 0.30648 2.93504 0
M  V30 494 H 52.7623 1.72869 1.88547 0
M  V30 495 H 52.4063 3.2253 3.92347 0
M  V30 496 H 52.3363 1.77621 4.9574 0
M  V30 497 H 54.8273 1.64729 3.40107 0
M  V30 498 H 55.1403 3.92038 6.65977 0
M  V30 499 H 53.4853 3.51972 5.99284 0
M  V30 500 H 56.6763 2.11597 4.17546 0
M  V30 501 H 56.8493 3.15232 5.66156 0
M  V30 502 N 50.2554 -1.46986 0.568584 0
M  V30 503 C 51.4804 -2.07335 0.0520528 0
M  V30 504 C 51.9054 -1.41675 -1.23733 0
M  V30 505 O 51.2634 -0.495623 -1.74394 0
M  V30 506 C 51.3114 -3.60417 -0.11501 0
M  V30 507 O 50.4154 -3.95309 -1.17492 0
M  V30 508 H 49.7564 -0.661597 0.0564385 0
M  V30 509 H 52.2864 -1.88837 0.787507 0
M  V30 510 H 52.2964 -4.06698 -0.325644 0
M  V30 511 H 50.9714 -4.07601 0.826675 0
M  V30 512 H 49.5484 -3.60757 -0.943869 0
M  V30 513 N 51.7335 -0.305618 -1.54608 0
M  V30 514 C 52.6965 0.555591 -2.22364 0
M  V30 515 C 53.6965 1.05768 -1.21119 0
M  V30 516 O 54.8865 0.952972 -1.45822 0
M  V30 517 C 52.0185 1.76974 -2.91364 0
M  V30 518 H 53.2115 -0.0364572 -2.99878 0
M  V30 519 H 50.7645 -0.0565007 -1.56198 0
M  V30 520 H 51.4995 2.40151 -2.17941 0
M  V30 521 H 51.2845 1.41732 -3.65588 0
M  V30 522 H 52.7745 2.38148 -3.43038 0
M  V30 523 N 53.2116 1.57565 -0.0334293 0
M  V30 524 C 54.6226 1.79746 0.504798 0
M  V30 525 C 54.9736 0.944091 1.71992 0
M  V30 526 O 54.0986 0.155694 2.15839 0
M  V30 527 C 54.6936 3.25997 0.922567 0
M  V30 528 C 53.2526 3.49159 1.40588 0
M  V30 529 C 52.3996 2.74785 0.372633 0
M  V30 530 H 55.3506 1.56565 -0.259436 0
M  V30 531 H 55.3716 3.35945 1.78666 0
M  V30 532 H 54.8836 3.88081 0.0379825 0
M  V30 533 H 52.9846 2.92332 2.31025 0
M  V30 534 H 53.0976 4.57873 1.41028 0
M  V30 535 H 51.4616 2.40391 0.841672 0
M  V30 536 H 52.2446 3.39587 -0.503559 0
M  V30 537 N 54.6897 -0.239769 1.55765 0
M  V30 538 C 56.1057 -0.588624 1.48349 0
M  V30 539 C 56.3057 -1.88005 0.72502 0
M  V30 540 O 55.3617 -2.51186 0.257269 0
M  V30 541 C 56.6747 -0.68474 2.928 0
M  V30 542 C 58.2227 -0.77659 3.03213 0
M  V30 543 C 58.6977 -0.904207 4.48986 0
M  V30 544 N 60.1887 -0.968896 4.52953 0
M  V30 545 C 60.9237 -1.08703 5.63002 0
M  V30 546 N 60.4197 -1.17026 6.82845 0
M  V30 547 N 62.2127 -1.12074 5.50814 0
M  V30 548 H 54.3637 0.607911 2.03515 0
M  V30 549 H 56.6267 0.21083 0.924259 0
M  V30 550 H 56.3327 0.194284 3.51163 0
M  V30 551 H 56.2067 -1.55435 3.43686 0
M  V30 552 H 58.5937 -1.64606 2.44926 0
M  V30 553 H 58.6747 0.118315 2.55526 0
M  V30 554 H 58.3187 -0.0392633 5.07885 0
M  V30 555 H 58.2487 -1.81426 4.9436 0
M  V30 556 H 60.7397 -0.915633 3.6664 0
M  V30 557 H 61.0527 -1.25966 7.62465 0
M  V30 558 H 59.3977 -1.13971 6.85591 0
M  V30 559 H 62.5887 -1.05226 4.5612 0
M  V30 560 H 62.7617 -1.20936 6.36615 0
M  V30 561 N 56.1678 -1.49265 -0.50573 0
M  V30 562 C 57.1008 -1.60183 -1.62532 0
M  V30 563 C 58.0788 -0.451107 -1.56217 0
M  V30 564 O 59.2628 -0.666016 -1.76342 0
M  V30 565 C 56.3898 -1.55238 -3.01029 0
M  V30 566 C 55.4358 -2.7545 -3.25621 0
M  V30 567 S 56.2688 -4.37174 -3.09256 0
M  V30 568 C 57.4248 -4.34866 -4.50158 0
M  V30 569 H 57.6578 -2.54894 -1.53025 0
M  V30 570 H 55.1908 -1.38098 -0.690535 0
M  V30 571 H 57.1488 -1.53071 -3.80893 0
M  V30 572 H 55.8098 -0.618238 -3.07956 0
M  V30 573 H 55.0028 -2.68197 -4.26716 0
M  V30 574 H 54.6048 -2.75005 -2.53472 0
M  V30 575 H 56.8968 -4.06295 -5.42154 0
M  V30 576 H 57.8398 -5.36223 -4.62462 0
M  V30 577 H 58.2478 -3.65007 -4.30616 0
M  V30 578 N 57.6459 0.756429 -1.3826 0
M  V30 579 C 58.5929 1.87011 -1.35261 0
M  V30 580 C 59.5629 1.64695 -0.215616 0
M  V30 581 O 60.7479 1.864 -0.407399 0
M  V30 582 C 57.8879 3.24275 -1.18068 0
M  V30 583 C 57.0009 3.58442 -2.41129 0
M  V30 584 C 56.1359 4.84994 -2.16689 0
M  V30 585 C 55.1749 5.11939 -3.35537 0
M  V30 586 N 54.3119 6.29685 -3.10549 0
M  V30 587 H 59.1519 1.8891 -2.30472 0
M  V30 588 H 56.6889 0.923373 -1.14509 0
M  V30 589 H 58.6469 4.03479 -1.06116 0
M  V30 590 H 57.2769 3.21711 -0.264973 0
M  V30 591 H 56.3289 2.74103 -2.63764 0
M  V30 592 H 57.6409 3.74283 -3.29717 0
M  V30 593 H 56.7949 5.72135 -2.01857 0
M  V30 594 H 55.5339 4.71286 -1.25462 0
M  V30 595 H 54.5389 4.23268 -3.50891 0
M  V30 596 H 55.7639 5.27546 -4.27635 0
M  V30 597 H 53.7099 6.17306 -2.21967 0
M  V30 598 H 53.6269 6.46014 -3.92686 0
M  V30 599 H 54.8949 7.19722 -2.99367 0
M  V30 600 N 59.124 1.23083 0.984299 0
M  V30 601 C 60.087 1.00979 2.05757 0
M  V30 602 C 61.087 -0.0269573 1.60777 0
M  V30 603 O 62.277 0.212403 1.729 0
M  V30 604 C 59.409 0.527072 3.36801 0
M  V30 605 H 60.602 1.9622 2.26799 0
M  V30 606 H 58.155 1.05072 1.15714 0
M  V30 607 H 58.89 -0.429294 3.21446 0
M  V30 608 H 58.675 1.27515 3.70786 0
M  V30 609 H 60.165 0.392942 4.15747 0
M  V30 610 N 60.6021 -1.18246 1.0419 0
M  V30 611 C 61.8491 -1.88257 0.746017 0
M  V30 612 C 62.1771 -1.80429 -0.726331 0
M  V30 613 O 61.4321 -1.2 -1.54591 0
M  V30 614 C 61.7311 -3.38082 1.15911 0
M  V30 615 C 61.3971 -3.66114 2.63195 0
M  V30 616 C 60.0591 -3.73474 3.03432 0
M  V30 617 C 62.4111 -3.78398 3.5842 0
M  V30 618 C 59.7391 -3.90599 4.37778 0
M  V30 619 C 62.0911 -3.97039 4.92487 0
M  V30 620 C 60.7551 -4.02635 5.32392 0
M  V30 621 H 60.0251 -0.688883 0.272987 0
M  V30 622 H 62.6721 -1.3995 1.30715 0
M  V30 623 H 60.9771 -3.88377 0.516806 0
M  V30 624 H 62.6741 -3.90596 0.907516 0
M  V30 625 H 59.2641 -3.61003 2.3103 0
M  V30 626 H 63.4481 -3.72042 3.28479 0
M  V30 627 H 58.7041 -3.93175 4.68213 0
M  V30 628 H 62.8781 -4.05486 5.66175 0
M  V30 629 H 60.5051 -4.15657 6.36501 0
M  V30 630 N 62.0802 -0.821533 -1.34494 0
M  V30 631 C 63.3262 -0.409552 -1.98622 0
M  V30 632 C 63.6592 1.0244 -1.64984 0
M  V30 633 O 62.9342 1.71325 -0.920758 0
M  V30 634 C 63.2172 -0.610458 -3.54888 0
M  V30 635 C 63.0702 -2.09043 -3.98273 0
M  V30 636 C 64.3892 -0.0455379 -4.40076 0
M  V30 637 H 61.5082 -0.15028 -0.721516 0
M  V30 638 H 64.1502 -1.03384 -1.59411 0
M  V30 639 H 62.3002 -0.079044 -3.8842 0
M  V30 640 H 63.9722 -2.68537 -3.75081 0
M  V30 641 H 62.2152 -2.58139 -3.48635 0
M  V30 642 H 62.8862 -2.18182 -5.07051 0
M  V30 643 H 65.3622 -0.499557 -4.1309 0
M  V30 644 H 64.2382 -0.215922 -5.48475 0
M  V30 645 H 64.4992 1.04939 -4.29465 0
M  V30 646 N 63.5583 1.46682 -0.576371 0
M  V30 647 C 64.8073 2.01619 -0.0572825 0
M  V30 648 C 65.1203 1.45417 1.30818 0
M  V30 649 O 66.3263 1.92133 1.91825 0
M  V30 650 C 64.7823 3.59863 -0.0518371 0
M  V30 651 C 64.3903 4.25059 -1.41523 0
M  V30 652 C 66.1343 4.2248 0.413639 0
M  V30 653 C 64.0413 5.75364 -1.36785 0
M  V30 654 H 62.9713 0.753794 -0.0176448 0
M  V30 655 H 65.6223 1.68481 -0.727076 0
M  V30 656 H 64.0043 3.90048 0.683994 0
M  V30 657 H 65.1783 4.06491 -2.17029 0
M  V30 658 H 63.4933 3.7451 -1.8202 0
M  V30 659 H 66.0903 5.3265 0.467779 0
M  V30 660 H 66.4333 3.90976 1.42982 0
M  V30 661 H 66.9663 3.96897 -0.267929 0
M  V30 662 H 63.7053 6.11518 -2.36063 0
M  V30 663 H 63.2253 5.96214 -0.654895 0
M  V30 664 H 64.9043 6.37955 -1.07805 0
M  V30 665 N 65.0364 0.313813 1.54444 0
M  V30 666 C 65.9664 -0.549454 2.26943 0
M  V30 667 C 66.9474 -1.12741 1.27372 0
M  V30 668 O 68.1324 -1.15436 1.56167 0
M  V30 669 C 65.2624 -1.71523 3.01989 0
M  V30 670 C 64.2164 -1.26703 4.08816 0
M  V30 671 C 63.5424 -2.51898 4.71647 0
M  V30 672 C 64.8424 -0.388962 5.2085 0
M  V30 673 H 66.5364 0.0552661 2.99349 0
M  V30 674 H 64.0824 0.0280207 1.43973 0
M  V30 675 H 66.0354 -2.32535 3.51433 0
M  V30 676 H 64.7594 -2.34639 2.27183 0
M  V30 677 H 63.4184 -0.679896 3.6024 0
M  V30 678 H 63.0664 -3.13356 3.93468 0
M  V30 679 H 62.7664 -2.22605 5.43802 0
M  V30 680 H 64.2904 -3.1369 5.23861 0
M  V30 681 H 65.7044 -0.905107 5.6611 0
M  V30 682 H 64.1014 -0.18924 5.99802 0
M  V30 683 H 65.1714 0.582699 4.81386 0
M  V30 684 N 66.5145 -1.57545 0.0417849 0
M  V30 685 C 67.4475 -2.06514 -0.970928 0
M  V30 686 C 68.4255 -0.963607 -1.30971 0
M  V30 687 O 69.6095 -1.23486 -1.4242 0
M  V30 688 C 66.7365 -2.4978 -2.28752 0
M  V30 689 C 65.7825 -3.71078 -2.10246 0
M  V30 690 S 66.6155 -5.17158 -1.38952 0
M  V30 691 C 67.7715 -5.6373 -2.71954 0
M  V30 692 H 68.0045 -2.9209 -0.554129 0
M  V30 693 H 65.5375 -1.53459 -0.17024 0
M  V30 694 H 67.4955 -2.75371 -3.04435 0
M  V30 695 H 66.1565 -1.64527 -2.67562 0
M  V30 696 H 65.3495 -3.9924 -3.07609 0
M  V30 697 H 64.9515 -3.45705 -1.42704 0
M  V30 698 H 67.2435 -5.68743 -3.68154 0
M  V30 699 H 68.1865 -6.63086 -2.4844 0
M  V30 700 H 68.5945 -4.91424 -2.77782 0
M  V30 701 N 67.9926 0.231505 -1.5589 0
M  V30 702 C 68.9556 1.27028 -1.90779 0
M  V30 703 C 69.9556 1.40308 -0.785507 0
M  V30 704 O 71.1456 1.38744 -1.05336 0
M  V30 705 C 68.2776 2.64566 -2.14983 0
M  V30 706 H 69.4706 0.973017 -2.83677 0
M  V30 707 H 67.0236 0.471486 -1.49019 0
M  V30 708 H 67.7586 2.99406 -1.24604 0
M  V30 709 H 67.5436 2.56305 -2.96732 0
M  V30 710 H 69.0336 3.39543 -2.43105 0
M  V30 711 N 69.4707 1.49531 0.497807 0
M  V30 712 C 70.4007 1.6935 1.60757 0
M  V30 713 C 71.3817 0.542218 1.61227 0
M  V30 714 O 72.5667 0.778417 1.77917 0
M  V30 715 C 69.6967 1.76298 2.99226 0
M  V30 716 C 68.6507 2.91248 3.13622 0
M  V30 717 C 67.9767 2.83312 4.53474 0
M  V30 718 C 69.2767 4.3214 2.93346 0
M  V30 719 H 70.9707 2.62263 1.44425 0
M  V30 720 H 68.5167 1.26208 0.693367 0
M  V30 721 H 70.4697 1.88749 3.76765 0
M  V30 722 H 69.1937 0.799871 3.16654 0
M  V30 723 H 67.8527 2.78404 2.38509 0
M  V30 724 H 67.5007 1.84902 4.67782 0
M  V30 725 H 67.2007 3.60465 4.64046 0
M  V30 726 H 68.7247 2.97775 5.33069 0
M  V30 727 H 70.1387 4.45649 3.60652 0
M  V30 728 H 68.5357 5.1054 3.15387 0
M  V30 729 H 69.6057 4.46363 1.89441 0
M  V30 730 N 70.9488 -0.749086 1.3866 0
M  V30 731 C 71.8788 -1.8764 1.38973 0
M  V30 732 C 72.8598 -1.68178 0.255004 0
M  V30 733 O 74.0448 -1.88704 0.458754 0
M  V30 734 C 71.1748 -3.25222 1.21851 0
M  V30 735 C 70.1288 -3.59295 2.32575 0
M  V30 736 C 69.4548 -4.95663 2.00555 0
M  V30 737 C 70.7548 -3.63709 3.7485 0
M  V30 738 H 72.4488 -1.87635 2.3331 0
M  V30 739 H 69.9948 -0.901329 1.12303 0
M  V30 740 H 71.9478 -4.03746 1.20695 0
M  V30 741 H 70.6718 -3.25719 0.239775 0
M  V30 742 H 69.3308 -2.83093 2.32925 0
M  V30 743 H 68.9788 -4.92724 1.01154 0
M  V30 744 H 68.6788 -5.19429 2.74714 0
M  V30 745 H 70.2028 -5.7656 2.01024 0
M  V30 746 H 71.6168 -4.32338 3.76506 0
M  V30 747 H 70.0138 -3.98986 4.48252 0
M  V30 748 H 71.0838 -2.63834 4.06841 0
M  V30 749 N 72.4269 -1.23603 -0.977757 0
M  V30 750 C 73.3899 -1.02069 -2.05218 0
M  V30 751 C 74.3899 0.0184305 -1.60789 0
M  V30 752 O 75.5799 -0.221569 -1.72785 0
M  V30 753 C 72.7119 -0.544926 -3.36517 0
M  V30 754 H 73.9049 -1.9742 -2.25755 0
M  V30 755 H 71.4579 -1.05684 -1.15155 0
M  V30 756 H 72.1929 0.412241 -3.21669 0
M  V30 757 H 71.9779 -1.2948 -3.70105 0
M  V30 758 H 73.4679 -0.414985 -4.15533 0
M  V30 759 N 73.905 1.17692 -1.04816 0
M  V30 760 C 74.835 2.23777 -0.666791 0
M  V30 761 C 75.816 1.66796 0.33361 0
M  V30 762 O 77.001 1.93039 0.212042 0
M  V30 763 C 74.131 3.47281 -0.0367933 0
M  V30 764 C 73.085 4.17059 -0.961546 0
M  V30 765 C 72.411 5.34342 -0.195626 0
M  V30 766 C 73.711 4.69713 -2.28402 0
M  V30 767 H 75.405 2.55933 -1.55367 0
M  V30 768 H 72.951 1.23019 -0.748484 0
M  V30 769 H 74.904 4.20706 0.241775 0
M  V30 770 H 73.628 3.14381 0.885004 0
M  V30 771 H 72.287 3.45541 -1.22462 0
M  V30 772 H 71.935 4.97692 0.728816 0
M  V30 773 H 71.635 5.81966 -0.811775 0
M  V30 774 H 73.159 6.10553 0.0757473 0
M  V30 775 H 74.573 5.34794 -2.06563 0
M  V30 776 H 72.97 5.279 -2.8538 0
M  V30 777 H 74.04 3.86726 -2.92525 0
M  V30 778 N 75.3831 0.828654 1.34056 0
M  V30 779 C 76.6291 0.42008 1.98402 0
M  V30 780 C 76.9621 -1.01564 1.65525 0
M  V30 781 O 76.2371 -1.70834 0.929831 0
M  V30 782 C 76.5201 0.62927 3.54559 0
M  V30 783 C 76.3731 2.11152 3.97159 0
M  V30 784 C 77.6921 0.0688756 4.40046 0
M  V30 785 H 74.8111 0.154104 0.720709 0
M  V30 786 H 77.4531 1.04228 1.5886 0
M  V30 787 H 75.6031 0.0996418 3.88372 0
M  V30 788 H 77.2751 2.70522 3.73651 0
M  V30 789 H 75.5181 2.59985 3.47261 0
M  V30 790 H 76.1891 2.20868 5.05887 0
M  V30 791 H 78.6651 0.521458 4.1282 0
M  V30 792 H 77.5411 0.245006 5.48353 0
M  V30 793 H 77.8021 -1.0266 4.30015 0
M  V30 794 N 76.8612 -1.46375 0.584142 0
M  V30 795 C 78.1082 -2.02378 0.0702675 0
M  V30 796 C 78.4362 -1.45545 -1.29023 0
M  V30 797 O 77.6912 -0.610967 -1.85918 0
M  V30 798 C 77.9902 -3.57373 -0.0439342 0
M  V30 799 C 77.6562 -4.33252 1.24915 0
M  V30 800 C 76.3182 -4.53701 1.60341 0
M  V30 801 C 78.6702 -4.7681 2.1048 0
M  V30 802 C 75.9982 -5.1496 2.81128 0
M  V30 803 C 78.3502 -5.39404 3.30494 0
M  V30 804 C 77.0142 -5.5808 3.66201 0
M  V30 805 H 76.2842 -0.740554 0.0257127 0
M  V30 806 H 78.9312 -1.75727 0.761065 0
M  V30 807 H 77.2362 -3.83169 -0.817869 0
M  V30 808 H 78.9332 -3.98384 -0.457318 0
M  V30 809 H 75.5232 -4.17633 0.963364 0
M  V30 810 H 79.7072 -4.60766 1.84414 0
M  V30 811 H 74.9632 -5.27611 3.08928 0
M  V30 812 H 79.1372 -5.72114 3.97063 0
M  V30 813 H 76.7642 -6.05318 4.59885 0
M  V30 814 N 78.3393 -0.321999 -1.54275 0
M  V30 815 C 79.5883 0.281931 -1.9972 0
M  V30 816 C 79.9013 1.53369 -1.21397 0
M  V30 817 O 81.1073 2.21352 -1.57211 0
M  V30 818 C 79.5633 0.5529 -3.55628 0
M  V30 819 C 79.1713 -0.681721 -4.42783 0
M  V30 820 C 80.9153 1.11687 -4.09544 0
M  V30 821 C 78.8223 -0.382742 -5.9016 0
M  V30 822 H 77.7523 0.109124 -0.746062 0
M  V30 823 H 80.4033 -0.43398 -1.78294 0
M  V30 824 H 78.7853 1.32896 -3.73035 0
M  V30 825 H 79.9593 -1.45723 -4.37151 0
M  V30 826 H 78.2743 -1.1658 -3.99748 0
M  V30 827 H 80.8713 1.35515 -5.17242 0
M  V30 828 H 81.2143 2.06575 -3.61431 0
M  V30 829 H 81.7473 0.402032 -3.95763 0
M  V30 830 H 78.4863 -1.30076 -6.42464 0
M  V30 831 H 78.0063 0.355094 -5.98748 0
M  V30 832 H 79.6853 0.00800157 -6.47 0
M  V30 833 N 79.8174 1.5752 -0.0501392 0
M  V30 834 C 81.0654 1.9227 0.622642 0
M  V30 835 C 81.3864 0.929083 1.71444 0
M  V30 836 O 80.6564 -0.0262186 1.95882 0
M  V30 837 H 79.2364 0.709739 0.232981 0
M  V30 838 H 81.8984 1.94628 -0.102898 0
M  V30 839 H 80.9944 2.93479 1.06191 0
M  V30 840 N 81.2955 -0.223234 1.56011 0
M  V30 841 C 82.5445 -0.945912 1.78144 0
M  V30 842 C 82.8575 -1.85567 0.618396 0
M  V30 843 O 84.0635 -2.61688 0.723318 0
M  V30 844 C 82.5195 -1.73216 3.15475 0
M  V30 845 C 82.1275 -0.868619 4.39499 0
M  V30 846 C 83.8715 -2.44615 3.46935 0
M  V30 847 C 81.7785 -1.65212 5.67855 0
M  V30 848 H 80.7085 -0.356929 0.664167 0
M  V30 849 H 83.3595 -0.199845 1.82409 0
M  V30 850 H 81.7415 -2.52107 3.05382 0
M  V30 851 H 82.9155 -0.120366 4.60643 0
M  V30 852 H 81.2305 -0.26683 4.15544 0
M  V30 853 H 83.8275 -3.03732 4.40058 0
M  V30 854 H 84.1705 -3.17417 2.69355 0
M  V30 855 H 84.7035 -1.72715 3.58349 0
M  V30 856 H 81.4425 -0.967407 6.48322 0
M  V30 857 H 80.9625 -2.37503 5.50774 0
M  V30 858 H 82.6415 -2.21322 6.07968 0
M  V30 859 N 82.7736 -1.49793 -0.48987 0
M  V30 860 C 84.0016 -1.63568 -1.26701 0
M  V30 861 C 84.4166 -0.311465 -1.86213 0
M  V30 862 O 83.7736 0.704416 -1.68357 0
M  V30 863 C 83.8246 -2.71284 -2.38929 0
M  V30 864 O 83.5456 -3.9857 -1.81861 0
M  V30 865 C 85.0466 -2.95864 -3.3012 0
M  V30 866 H 82.2666 -0.550342 -0.383881 0
M  V30 867 H 84.8106 -1.95898 -0.586864 0
M  V30 868 H 82.9656 -2.417 -3.02753 0
M  V30 869 H 83.3796 -4.57993 -2.55622 0
M  V30 870 H 84.8536 -3.74941 -4.05121 0
M  V30 871 H 85.3306 -2.06206 -3.87783 0
M  V30 872 H 85.9366 -3.26907 -2.72051 0
M  V30 873 N 84.2517 0.741722 -1.39055 0
M  V30 874 C 85.4977 1.50336 -1.36113 0
M  V30 875 C 85.8307 1.94148 0.0450796 0
M  V30 876 O 85.1057 1.66301 1.00868 0
M  V30 877 C 85.3887 2.74773 -2.32749 0
M  V30 878 C 85.2417 2.37023 -3.82283 0
M  V30 879 C 86.5607 3.76846 -2.27322 0
M  V30 880 H 83.6797 0.545351 -0.495743 0
M  V30 881 H 86.3217 0.848624 -1.69995 0
M  V30 882 H 84.4717 3.30639 -2.03986 0
M  V30 883 H 86.1437 1.8684 -4.21768 0
M  V30 884 H 84.3867 1.69334 -3.99385 0
M  V30 885 H 85.0577 3.26104 -4.45376 0
M  V30 886 H 87.5337 3.30548 -2.5274 0
M  V30 887 H 86.4097 4.6159 -2.97028 0
M  V30 888 H 86.6707 4.23286 -1.27599 0
M  V30 889 N 85.7298 1.2412 0.971189 0
M  V30 890 C 86.6628 0.97373 2.06382 0
M  V30 891 C 87.6408 -0.0912662 1.62344 0
M  V30 892 O 88.8248 0.0449365 1.88446 0
M  V30 893 C 85.9518 0.468746 3.35441 0
M  V30 894 C 84.9978 1.52176 3.98428 0
M  V30 895 S 85.8308 3.10203 4.36503 0
M  V30 896 C 86.9868 2.61398 5.68702 0
M  V30 897 H 87.2198 1.89893 2.28753 0
M  V30 898 H 84.7528 1.07466 1.10862 0
M  V30 899 H 86.7108 0.184012 4.10087 0
M  V30 900 H 85.3718 -0.435688 3.11064 0
M  V30 901 H 84.5648 1.11876 4.91426 0
M  V30 902 H 84.1668 1.75632 3.30196 0
M  V30 903 H 86.4588 2.03992 6.4606 0
M  V30 904 H 87.4018 3.52972 6.13854 0
M  V30 905 H 87.8098 2.01941 5.27143 0
M  V30 906 N 87.2079 -1.17134 1.05439 0
M  V30 907 C 88.4559 -1.87085 0.764429 0
M  V30 908 C 88.7769 -1.81584 -0.710787 0
M  V30 909 O 88.0469 -1.24349 -1.51374 0
M  V30 910 H 86.6269 -0.692627 0.279779 0
M  V30 911 H 89.2889 -1.42087 1.33406 0
M  V30 912 H 88.3849 -2.92759 1.0816 0
M  V30 913 N 88.686 -0.835752 -1.33615 0
M  V30 914 C 89.633 -0.26473 -2.29277 0
M  V30 915 C 90.603 0.617712 -1.54187 0
M  V30 916 O 91.788 0.556641 -1.825 0
M  V30 917 C 88.928 0.556777 -3.40579 0
M  V30 918 C 88.041 -0.349339 -4.30585 0
M  V30 919 C 87.176 0.482969 -5.29 0
M  V30 920 C 86.215 -0.421732 -6.10645 0
M  V30 921 N 85.352 0.372262 -7.01112 0
M  V30 922 H 90.192 -1.08582 -2.77514 0
M  V30 923 H 87.729 -0.546927 -1.36554 0
M  V30 924 H 89.687 1.04852 -4.03809 0
M  V30 925 H 88.317 1.34286 -2.93542 0
M  V30 926 H 87.369 -0.959372 -3.68104 0
M  V30 927 H 88.681 -1.04445 -4.87742 0
M  V30 928 H 87.835 1.03866 -5.97743 0
M  V30 929 H 86.574 1.21153 -4.72412 0
M  V30 930 H 85.579 -0.989464 -5.40823 0
M  V30 931 H 86.804 -1.14861 -6.69316 0
M  V30 932 H 84.75 1.08426 -6.46977 0
M  V30 933 H 84.667 -0.264198 -7.55538 0
M  V30 934 H 85.935 0.910293 -7.74167 0
M  V30 935 N 90.1641 1.46063 -0.591896 0
M  V30 936 C 91.4131 2.01547 -0.0786637 0
M  V30 937 C 91.7261 1.46796 1.29268 0
M  V30 938 O 92.9321 1.94157 1.89777 0
M  V30 939 C 91.3881 3.59787 -0.0900024 0
M  V30 940 C 90.9961 4.23534 -1.46023 0
M  V30 941 C 92.7401 4.22895 0.368806 0
M  V30 942 C 90.6471 5.73881 -1.4288 0
M  V30 943 H 89.5771 0.753564 -0.0256388 0
M  V30 944 H 92.2281 1.677 -0.744905 0
M  V30 945 H 90.6101 3.90752 0.642586 0
M  V30 946 H 91.7841 4.04167 -2.21328 0
M  V30 947 H 90.0991 3.72558 -1.85982 0
M  V30 948 H 92.6961 5.33116 0.411258 0
M  V30 949 H 93.0391 3.9247 1.38827 0
M  V30 950 H 93.5721 3.9659 -0.31001 0
M  V30 951 H 90.3111 6.0898 -2.42536 0
M  V30 952 H 89.8311 5.95486 -0.718095 0
M  V30 953 H 91.5101 6.36776 -1.14565 0
M  V30 954 N 91.6422 0.330177 1.54103 0
M  V30 955 C 93.0582 -0.0222371 1.59585 0
M  V30 956 C 93.2582 -1.49902 1.34654 0
M  V30 957 O 92.3142 -2.25592 1.13421 0
M  V30 958 C 93.6272 0.401932 2.98002 0
M  V30 959 C 95.1752 0.353145 3.11001 0
M  V30 960 C 95.6502 0.752576 4.51775 0
M  V30 961 N 97.1412 0.706239 4.57784 0
M  V30 962 C 97.8762 0.987417 5.64834 0
M  V30 963 N 97.3722 1.33607 6.79795 0
M  V30 964 N 99.1652 0.91254 5.54643 0
M  V30 965 H 91.3162 1.29228 1.68564 0
M  V30 966 H 93.5792 0.525906 0.78875 0
M  V30 967 H 93.2852 1.4311 3.21267 0
M  V30 968 H 93.1592 -0.229699 3.765 0
M  V30 969 H 95.5462 -0.666822 2.87467 0
M  V30 970 H 95.6272 1.0198 2.34593 0
M  V30 971 H 95.2712 1.77049 4.76042 0
M  V30 972 H 95.2012 0.0635409 5.26562 0
M  V30 973 H 97.6922 0.44889 3.75224 0
M  V30 974 H 98.0052 1.53582 7.57385 0
M  V30 975 H 96.3502 1.37439 6.81275 0
M  V30 976 H 99.5412 0.639601 4.6371 0
M  V30 977 H 99.7142 1.13503 6.37982 0
M  V30 978 N 93.1203 -1.57491 0.0584922 0
M  V30 979 C 94.0833 -2.1085 -0.898617 0
M  V30 980 C 95.0833 -1.02964 -1.23511 0
M  V30 981 O 96.2733 -1.29007 -1.17059 0
M  V30 982 C 93.4053 -2.59881 -2.20623 0
M  V30 983 H 94.5983 -2.96715 -0.435936 0
M  V30 984 H 92.1513 -1.55141 -0.190023 0
M  V30 985 H 92.8863 -1.77431 -2.71457 0
M  V30 986 H 92.6713 -3.38727 -1.97501 0
M  V30 987 H 94.1613 -3.01285 -2.89166 0
M  V30 988 N 94.5984 0.214957 -1.56127 0
M  V30 989 C 96.0094 0.781386 -1.69562 0
M  V30 990 C 96.3604 1.84707 -0.66165 0
M  V30 991 O 95.4854 2.156 0.185927 0
M  V30 992 C 96.0804 1.42411 -3.07416 0
M  V30 993 C 94.6394 1.93786 -3.22683 0
M  V30 994 C 93.7864 0.800438 -2.65496 0
M  V30 995 H 96.7374 -0.00980633 -1.58697 0
M  V30 996 H 96.7584 2.29309 -3.0364 0
M  V30 997 H 96.2704 0.64826 -3.82648 0
M  V30 998 H 94.3714 2.74152 -2.52332 0
M  V30 999 H 94.4844 2.1133 -4.29973 0
M  V30 1000 H 92.8484 1.2095 -2.2415 0
M  V30 1001 H 93.6314 0.0371471 -3.4328 0
M  V30 1002 N 96.0765 1.50051 0.48192 0
M  V30 1003 C 97.0395 1.67584 1.5636 0
M  V30 1004 C 98.0395 0.546894 1.51214 0
M  V30 1005 O 99.2295 0.813725 1.54026 0
M  V30 1006 C 96.3615 1.691 2.96003 0
M  V30 1007 H 97.5545 2.64078 1.42136 0
M  V30 1008 H 95.1075 1.39369 0.707533 0
M  V30 1009 H 95.8425 0.742589 3.15684 0
M  V30 1010 H 95.6275 2.51105 3.01146 0
M  V30 1011 H 97.1175 1.84656 3.74556 0
M  V30 1012 N 97.5546 -0.734337 1.39446 0
M  V30 1013 C 98.5016 -1.84835 1.38219 0
M  V30 1014 C 99.4716 -1.64331 0.24179 0
M  V30 1015 O 100.657 -1.85728 0.437002 0
M  V30 1016 C 97.7966 -3.22355 1.23212 0
M  V30 1017 C 96.9096 -3.5456 2.46801 0
M  V30 1018 C 96.0446 -4.81485 2.24377 0
M  V30 1019 C 95.0836 -5.06536 3.43639 0
M  V30 1020 N 94.2206 -6.24665 3.20528 0
M  V30 1021 H 99.0606 -1.85219 2.33448 0
M  V30 1022 H 96.5976 -0.905039 1.15963 0
M  V30 1023 H 98.5556 -4.0174 1.12522 0
M  V30 1024 H 97.1856 -3.21248 0.316121 0
M  V30 1025 H 96.2376 -2.69872 2.68092 0
M  V30 1026 H 97.5496 -3.6899 3.3563 0
M  V30 1027 H 96.7036 -5.68852 2.10933 0
M  V30 1028 H 95.4426 -4.6923 1.32944 0
M  V30 1029 H 94.4476 -4.17632 3.5758 0
M  V30 1030 H 95.6726 -5.20676 4.35974 0
M  V30 1031 H 93.6186 -6.13696 2.3176 0
M  V30 1032 H 93.5356 -6.39685 4.02913 0
M  V30 1033 H 94.8036 -7.14868 3.10779 0
M  V30 1034 N 99.0327 -1.24633 -0.964593 0
M  V30 1035 C 99.9957 -1.0424 -2.04124 0
M  V30 1036 C 100.996 0.00137563 -1.608 0
M  V30 1037 O 102.186 -0.239883 -1.7254 0
M  V30 1038 C 99.3177 -0.580588 -3.3592 0
M  V30 1039 H 100.511 -1.99803 -2.23649 0
M  V30 1040 H 98.0637 -1.06899 -1.14027 0
M  V30 1041 H 98.7987 0.3781 -3.22088 0
M  V30 1042 H 98.5837 -1.33398 -3.6871 0
M  V30 1043 H 100.074 -0.459034 -4.15069 0
M  V30 1044 N 100.511 1.16574 -1.06058 0
M  V30 1045 C 101.421 2.2452 -0.680282 0
M  V30 1046 C 102.437 1.71348 0.302604 0
M  V30 1047 O 103.613 2.00822 0.152513 0
M  V30 1048 C 100.678 3.46629 -0.0700315 0
M  V30 1049 C 99.7388 4.14849 -1.10448 0
M  V30 1050 C 98.9718 5.31129 -0.523256 0
M  V30 1051 O 99.1948 5.66514 0.664709 0
M  V30 1052 O 98.1288 5.88526 -1.26179 0
M  V30 1053 H 101.955 2.59355 -1.58015 0
M  V30 1054 H 99.5398 1.24043 -0.832694 0
M  V30 1055 H 101.422 4.20543 0.268667 0
M  V30 1056 H 100.097 3.13573 0.803353 0
M  V30 1057 H 99.0038 3.42916 -1.49532 0
M  V30 1058 H 100.337 4.51954 -1.94931 0
M  V30 1059 N 101.989 0.842826 1.3317 0
M  V30 1060 C 102.952 0.284065 2.27433 0
M  V30 1061 C 103.952 -0.54948 1.5112 0
M  V30 1062 O 105.142 -0.362699 1.70382 0
M  V30 1063 C 102.274 -0.599384 3.35589 0
M  V30 1064 H 103.467 1.11589 2.78366 0
M  V30 1065 H 101.02 0.616221 1.4364 0
M  V30 1066 H 101.755 -1.45349 2.89904 0
M  V30 1067 H 101.54 -0.00291266 3.921 0
M  V30 1068 H 103.03 -0.983488 4.05854 0
M  V30 1069 N 103.467 -1.45747 0.599634 0
M  V30 1070 C 104.744 -1.95585 0.0240846 0
M  V30 1071 C 105.124 -1.54217 -1.44154 0
M  V30 1072 O 104.472 -0.800903 -2.14004 0
M  V30 1073 C 104.682 -3.48344 0.21385 0
M  V30 1074 C 106.03 -4.24504 0.0904902 0
M  V30 1075 O 107.054 -3.55911 0.143558 0
M  V30 1076 O 105.913 -5.46491 -0.0310766 0
M  V30 1077 H 103.007 -0.82602 -0.0402478 0
M  V30 1078 H 105.553 -1.55951 0.669139 0
M  V30 1079 H 104.325 -3.71397 1.23206 0
M  V30 1080 H 103.948 -3.9485 -0.466842 0
M  V30 1081 N 104.945 -0.338344 -1.53925 0
M  V30 1082 C 105.892 0.520845 -2.24846 0
M  V30 1083 C 106.862 1.09976 -1.24477 0
M  V30 1084 O 108.047 1.13735 -1.53196 0
M  V30 1085 C 105.187 1.6685 -3.02084 0
M  V30 1086 C 104.3 1.11739 -4.17299 0
M  V30 1087 C 103.435 2.23193 -4.82036 0
M  V30 1088 C 102.474 1.65407 -5.89328 0
M  V30 1089 N 101.611 2.70582 -6.47866 0
M  V30 1090 H 106.451 -0.0904881 -2.97863 0
M  V30 1091 H 103.988 -0.0564282 -1.46992 0
M  V30 1092 H 105.946 2.34407 -3.45122 0
M  V30 1093 H 104.576 2.2509 -2.31375 0
M  V30 1094 H 103.628 0.332919 -3.7894 0
M  V30 1095 H 104.94 0.654677 -4.94485 0
M  V30 1096 H 104.094 2.98626 -5.28117 0
M  V30 1097 H 102.833 2.72807 -4.04262 0
M  V30 1098 H 101.838 0.884779 -5.42634 0
M  V30 1099 H 103.063 1.16652 -6.69006 0
M  V30 1100 H 101.009 3.1946 -5.72959 0
M  V30 1101 H 100.926 2.28917 -7.20509 0
M  V30 1102 H 102.194 3.45799 -6.98601 0
M  V30 1103 N 106.423 1.57458 -0.0668435 0
M  V30 1104 C 107.7 1.8469 0.644132 0
M  V30 1105 C 108.08 0.958343 1.88093 0
M  V30 1106 O 107.428 0.0233579 2.28488 0
M  V30 1107 C 107.638 3.34767 0.986509 0
M  V30 1108 C 108.986 4.02159 1.36212 0
M  V30 1109 O 110.01 3.39484 1.07839 0
M  V30 1110 O 108.869 5.12694 1.89227 0
M  V30 1111 H 105.963 0.762816 0.319437 0
M  V30 1112 H 108.509 1.6942 -0.0973986 0
M  V30 1113 H 107.281 3.91151 0.107883 0
M  V30 1114 H 106.904 3.55281 1.78497 0
M  V30 1115 N 107.901 -0.206675 1.56239 0
M  V30 1116 C 109.149 -0.927007 1.79586 0
M  V30 1117 C 109.47 -1.8427 0.637929 0
M  V30 1118 O 108.74 -1.92849 -0.344398 0
M  V30 1119 H 107.32 -0.345292 0.662407 0
M  V30 1120 H 109.982 -0.21496 1.93711 0
M  V30 1121 H 109.078 -1.52501 2.72305 0
M  V30 1122 N 109.379 -1.50304 -0.473955 0
M  V30 1123 C 110.627 -1.60832 -1.22382 0
M  V30 1124 C 110.948 -0.30939 -1.9253 0
M  V30 1125 O 110.218 0.67296 -1.83978 0
M  V30 1126 H 108.798 -0.592652 -0.454723 0
M  V30 1127 H 111.46 -1.87068 -0.546968 0
M  V30 1128 H 110.556 -2.41803 -1.97327 0
M  V30 1129 N 110.857 0.726932 -1.39834 0
M  V30 1130 C 111.804 1.841 -1.39197 0
M  V30 1131 C 112.774 1.642 -0.250502 0
M  V30 1132 O 113.959 1.85494 -0.446846 0
M  V30 1133 C 111.099 3.21697 -1.24919 0
M  V30 1134 C 110.212 3.53247 -2.48678 0
M  V30 1135 C 109.347 4.80289 -2.26928 0
M  V30 1136 C 108.386 5.04707 -3.4632 0
M  V30 1137 N 107.523 6.22956 -3.23836 0
M  V30 1138 H 112.363 1.83979 -2.34427 0
M  V30 1139 H 109.9 0.898876 -1.16442 0
M  V30 1140 H 111.858 4.01137 -1.1465 0
M  V30 1141 H 110.488 3.21076 -0.333153 0
M  V30 1142 H 109.54 2.68447 -2.69519 0
M  V30 1143 H 110.852 3.67205 -3.37582 0
M  V30 1144 H 110.006 5.67725 -2.13947 0
M  V30 1145 H 108.745 4.68519 -1.35431 0
M  V30 1146 H 107.75 4.1573 -3.5979 0
M  V30 1147 H 108.975 5.18357 -4.38729 0
M  V30 1148 H 106.921 6.12459 -2.35011 0
M  V30 1149 H 106.838 6.37539 -4.063 0
M  V30 1150 H 108.106 7.1321 -3.14566 0
M  V30 1151 N 112.336 1.25143 0.95797 0
M  V30 1152 C 113.299 1.05321 2.03569 0
M  V30 1153 C 114.299 0.007152 1.60798 0
M  V30 1154 O 115.489 0.24903 1.72411 0
M  V30 1155 C 112.621 0.598394 3.35607 0
M  V30 1156 H 113.814 2.00986 2.22586 0
M  V30 1157 H 111.367 1.07502 1.13459 0
M  V30 1158 H 112.102 -0.361014 3.22284 0
M  V30 1159 H 111.887 1.35351 3.67998 0
M  V30 1160 H 113.377 0.48104 4.1482 0
M  V30 1161 N 113.814 -1.1601 1.06675 0
M  V30 1162 C 114.746 -2.20115 0.638921 0
M  V30 1163 C 115.759 -1.59916 -0.305057 0
M  V30 1164 O 116.948 -1.78245 -0.0954446 0
M  V30 1165 C 114.048 -3.38798 -0.0830083 0
M  V30 1166 C 113.221 -4.2855 0.875426 0
M  V30 1167 C 112.28 -5.25849 0.192042 0
M  V30 1168 O 111.306 -5.63102 0.830921 0
M  V30 1169 N 112.508 -5.70648 -1.06493 0
M  V30 1170 H 115.273 -2.57439 1.53444 0
M  V30 1171 H 112.834 -1.31057 0.950557 0
M  V30 1172 H 114.826 -4.00936 -0.550685 0
M  V30 1173 H 113.396 -2.99947 -0.880386 0
M  V30 1174 H 112.616 -3.63617 1.52238 0
M  V30 1175 H 113.904 -4.85393 1.52548 0
M  V30 1176 H 113.302 -5.42482 -1.60405 0
M  V30 1177 H 111.859 -6.34859 -1.47641 0
M  V30 1178 N 115.292 -0.849877 -1.32721 0
M  V30 1179 C 116.224 -0.248332 -2.27851 0
M  V30 1180 C 117.237 0.577218 -1.52224 0
M  V30 1181 O 118.426 0.402489 -1.73903 0
M  V30 1182 C 115.526 0.668107 -3.32249 0
M  V30 1183 C 114.699 -0.120534 -4.37234 0
M  V30 1184 C 113.758 0.720932 -5.21238 0
M  V30 1185 O 112.784 0.156166 -5.68986 0
M  V30 1186 N 113.986 2.03647 -5.43607 0
M  V30 1187 H 116.751 -1.06575 -2.80111 0
M  V30 1188 H 114.312 -0.709395 -1.45531 0
M  V30 1189 H 116.304 1.23627 -3.85355 0
M  V30 1190 H 114.874 1.38621 -2.80184 0
M  V30 1191 H 114.094 -0.870108 -3.84477 0
M  V30 1192 H 115.382 -0.662406 -5.0447 0
M  V30 1193 H 114.78 2.51871 -5.06535 0
M  V30 1194 H 113.337 2.55287 -5.99727 0
M  V30 1195 N 116.77 1.45427 -0.607355 0
M  V30 1196 C 117.733 2.28974 0.101693 0
M  V30 1197 C 118.733 1.39754 0.795329 0
M  V30 1198 O 119.923 1.61878 0.643527 0
M  V30 1199 C 117.055 3.20768 1.15414 0
M  V30 1200 H 118.248 2.93147 -0.632844 0
M  V30 1201 H 115.801 1.51945 -0.366391 0
M  V30 1202 H 116.536 2.61395 1.91945 0
M  V30 1203 H 116.321 3.86489 0.66098 0
M  V30 1204 H 117.811 3.83589 1.65073 0
M  V30 1205 N 118.248 0.346503 1.53744 0
M  V30 1206 C 119.196 -0.52422 2.26616 0
M  V30 1207 C 120.19 -1.09948 1.28871 0
M  V30 1208 O 121.396 -1.04488 1.46568 0
M  V30 1209 H 117.771 -0.187743 0.728187 0
M  V30 1210 H 119.742 0.11239 2.98188 0
M  V30 1211 C 118.491 -1.66186 3.05414 0
M  V30 1212 H 117.814 -1.22848 3.80458 0
M  V30 1213 H 119.254 -2.24622 3.59612 0
M  V30 1214 C 117.713 -2.59302 2.1509 0
M  V30 1215 O 118.243 -3.61628 1.74895 0
M  V30 1216 N 116.449 -2.28055 1.8011 0
M  V30 1217 H 115.996 -1.44883 2.12994 0
M  V30 1218 H 115.954 -2.90615 1.19958 0
M  V30 1219 N 119.726 -1.57421 0.075193 0
M  V30 1220 C 120.954 -1.97946 -0.602076 0
M  V30 1221 C 121.369 -0.953674 -1.62943 0
M  V30 1222 O 120.726 0.0592551 -1.82404 0
M  V30 1223 C 120.777 -3.38546 -1.26762 0
M  V30 1224 O 120.498 -4.37195 -0.281376 0
M  V30 1225 C 121.999 -3.93966 -2.03239 0
M  V30 1226 H 119.219 -0.650918 -0.162931 0
M  V30 1227 H 121.763 -2.03959 0.148601 0
M  V30 1228 H 119.918 -3.33609 -1.96936 0
M  V30 1229 H 120.332 -5.18975 -0.759267 0
M  V30 1230 H 121.806 -4.94555 -2.45193 0
M  V30 1231 H 122.283 -3.30693 -2.8903 0
M  V30 1232 H 122.889 -4.02315 -1.37924 0
M  V30 1233 N 121.204 0.198386 -1.56346 0
M  V30 1234 C 122.134 1.24865 -1.9731 0
M  V30 1235 C 123.115 1.47651 -0.844576 0
M  V30 1236 O 124.3 1.59444 -1.10866 0
M  V30 1237 C 121.43 2.59358 -2.30977 0
M  V30 1238 C 120.384 2.5119 -3.46537 0
M  V30 1239 C 119.71 3.89926 -3.65871 0
M  V30 1240 C 121.01 2.03977 -4.80823 0
M  V30 1241 H 122.704 0.908252 -2.85291 0
M  V30 1242 H 120.25 0.435462 -1.37258 0
M  V30 1243 H 122.203 3.33011 -2.58228 0
M  V30 1244 H 120.927 2.95132 -1.39874 0
M  V30 1245 H 119.586 1.79993 -3.19371 0
M  V30 1246 H 119.234 4.23046 -2.72105 0
M  V30 1247 H 118.934 3.85336 -4.4361 0
M  V30 1248 H 120.458 4.65205 -3.95495 0
M  V30 1249 H 121.872 2.67386 -5.07127 0
M  V30 1250 H 120.269 2.10397 -5.62008 0
M  V30 1251 H 121.339 0.992861 -4.74626 0
M  V30 1252 N 122.682 1.50554 0.465978 0
M  V30 1253 C 124.093 1.54599 1.04671 0
M  V30 1254 C 124.444 0.352488 1.93008 0
M  V30 1255 O 123.569 -0.534044 2.09707 0
M  V30 1256 C 124.164 2.80166 1.90505 0
M  V30 1257 C 122.723 2.86876 2.43678 0
M  V30 1258 C 121.87 2.48947 1.22151 0
M  V30 1259 H 124.821 1.56744 0.248384 0
M  V30 1260 H 124.842 2.62311 2.75633 0
M  V30 1261 H 124.354 3.67013 1.26186 0
M  V30 1262 H 122.455 2.04393 3.11536 0
M  V30 1263 H 122.568 3.89885 2.78436 0
M  V30 1264 H 120.932 2.01498 1.5579 0
M  V30 1265 H 121.715 3.38107 0.594866 0
M  V30 1266 N 124.16 -0.719506 1.40217 0
M  V30 1267 C 125.108 -1.85493 1.40339 0
M  V30 1268 C 126.102 -1.66995 0.284415 0
M  V30 1269 O 127.308 -1.74148 0.455252 0
M  V30 1270 H 123.683 -0.610857 0.438586 0
M  V30 1271 H 125.654 -1.82506 2.36081 0
M  V30 1272 C 124.403 -3.23321 1.27901 0
M  V30 1273 H 123.726 -3.38159 2.1328 0
M  V30 1274 H 125.166 -4.02914 1.32045 0
M  V30 1275 C 123.625 -3.36898 -0.0111355 0
M  V30 1276 O 124.155 -3.89674 -0.975538 0
M  V30 1277 N 122.361 -2.90492 -0.0793393 0
M  V30 1278 H 121.908 -2.47731 0.706183 0
M  V30 1279 H 121.866 -2.99955 -0.942038 0
M  V30 1280 N 125.638 -1.25649 -0.95132 0
M  V30 1281 C 126.868 -1.13179 -1.72841 0
M  V30 1282 C 127.276 0.316827 -1.86528 0
M  V30 1283 O 126.619 1.22948 -1.3649 0
M  V30 1284 C 126.681 -1.71644 -3.15878 0
M  V30 1285 C 126.345 -3.20667 -3.25609 0
M  V30 1286 C 127.342 -4.17616 -3.09666 0
M  V30 1287 C 125.027 -3.6094 -3.49324 0
M  V30 1288 C 127.021 -5.52817 -3.17289 0
M  V30 1289 C 124.708 -4.96278 -3.56584 0
M  V30 1290 C 125.706 -5.92025 -3.40581 0
M  V30 1291 O 125.394 -7.24899 -3.47528 0
M  V30 1292 H 125.126 -0.395389 -0.54831 0
M  V30 1293 H 127.68 -1.66566 -1.20187 0
M  V30 1294 H 125.91 -1.12707 -3.69911 0
M  V30 1295 H 127.599 -1.54225 -3.75459 0
M  V30 1296 H 128.365 -3.87842 -2.91211 0
M  V30 1297 H 124.244 -2.86907 -3.6084 0
M  V30 1298 H 127.788 -6.2753 -3.04716 0
M  V30 1299 H 123.685 -5.25716 -3.74556 0
M  V30 1300 H 124.453 -7.33039 -3.64138 0
M  V30 1301 N 127.117 1.15442 -1.07289 0
M  V30 1302 C 128.342 1.90638 -0.816828 0
M  V30 1303 C 128.767 1.77445 0.624083 0
M  V30 1304 O 128.125 1.10671 1.43602 0
M  V30 1305 C 128.173 3.39008 -1.22906 0
M  V30 1306 O 127.277 4.10701 -0.373975 0
M  V30 1307 H 126.618 0.593555 -0.297638 0
M  V30 1308 H 129.148 1.46198 -1.43134 0
M  V30 1309 H 129.158 3.89801 -1.20497 0
M  V30 1310 H 127.833 3.47929 -2.27856 0
M  V30 1311 H 126.41 3.70046 -0.460499 0
M  V30 1312 N 128.595 0.856903 1.32268 0
M  V30 1313 C 129.842 0.461386 1.97174 0
M  V30 1314 C 130.17 -0.983491 1.67803 0
M  V30 1315 O 129.425 -1.70541 0.959903 0
M  V30 1316 C 129.724 0.649919 3.51441 0
M  V30 1317 C 129.39 2.0656 4.00804 0
M  V30 1318 C 128.052 2.45279 4.13995 0
M  V30 1319 C 130.404 2.98947 4.26943 0
M  V30 1320 C 127.732 3.75653 4.50668 0
M  V30 1321 C 130.084 4.28822 4.65075 0
M  V30 1322 C 128.748 4.67472 4.76472 0
M  V30 1323 H 128.018 0.168833 0.72151 0
M  V30 1324 H 130.665 1.08739 1.57633 0
M  V30 1325 H 128.97 -0.0593018 3.91755 0
M  V30 1326 H 130.667 0.32391 3.9969 0
M  V30 1327 H 127.257 1.75495 3.91024 0
M  V30 1328 H 131.441 2.70265 4.16258 0
M  V30 1329 H 126.697 4.05379 4.57688 0
M  V30 1330 H 130.871 5.0047 4.84255 0
M  V30 1331 H 128.498 5.68539 5.04646 0
M  V30 1332 N 130.073 -1.45103 0.615059 0
M  V30 1333 C 131.021 -2.32331 -0.111791 0
M  V30 1334 C 132.015 -1.46409 -0.852102 0
M  V30 1335 O 133.221 -1.62849 -0.766821 0
M  V30 1336 H 129.596 -0.749993 -0.0549072 0
M  V30 1337 H 131.567 -2.91407 0.642225 0
M  V30 1338 C 130.316 -3.3015 -1.09071 0
M  V30 1339 H 129.639 -3.96265 -0.530485 0
M  V30 1340 H 131.079 -3.93898 -1.56908 0
M  V30 1341 C 129.538 -2.57875 -2.168 0
M  V30 1342 O 130.068 -2.36567 -3.24652 0
M  V30 1343 N 128.274 -2.17884 -1.92289 0
M  V30 1344 H 127.821 -2.35413 -1.04587 0
M  V30 1345 H 127.779 -1.6985 -2.64572 0
M  V30 1346 N 131.551 -0.354651 -1.53558 0
M  V30 1347 C 132.776 0.242153 -2.05981 0
M  V30 1348 C 133.201 1.42553 -1.2272 0
M  V30 1349 O 132.559 1.79656 -0.243604 0
M  V30 1350 C 132.607 0.624367 -3.55154 0
M  V30 1351 O 131.711 1.72301 -3.74681 0
M  V30 1352 H 131.052 0.0378432 -0.662921 0
M  V30 1353 H 133.582 -0.512087 -1.98088 0
M  V30 1354 H 133.592 0.898433 -3.97985 0
M  V30 1355 H 132.267 -0.240989 -4.15201 0
M  V30 1356 H 130.844 1.44535 -3.4375 0
M  V30 1357 N 133.029 1.57378 -0.0835403 0
M  V30 1358 C 134.306 1.85363 0.624507 0
M  V30 1359 C 134.686 0.978239 1.87066 0
M  V30 1360 O 134.034 0.0475908 2.2845 0
M  V30 1361 C 134.244 3.35795 0.950947 0
M  V30 1362 C 135.592 4.03581 1.31939 0
M  V30 1363 O 136.616 3.40609 1.04232 0
M  V30 1364 O 135.475 5.14672 1.83779 0
M  V30 1365 H 132.569 0.766162 0.311329 0
M  V30 1366 H 135.115 1.69307 -0.115362 0
M  V30 1367 H 133.887 3.91244 0.0663899 0
M  V30 1368 H 133.51 3.57154 1.74719 0
M  V30 1369 N 134.507 -0.190092 1.56449 0
M  V30 1370 C 135.918 -0.754312 1.70784 0
M  V30 1371 C 136.269 -1.83631 0.690951 0
M  V30 1372 O 135.394 -2.15868 -0.151604 0
M  V30 1373 C 135.989 -1.37503 3.09642 0
M  V30 1374 C 134.548 -1.88628 3.25725 0
M  V30 1375 C 133.695 -0.758098 2.66736 0
M  V30 1376 H 136.646 0.0350524 1.58661 0
M  V30 1377 H 136.667 -2.2445 3.0725 0
M  V30 1378 H 136.179 -0.587302 3.83631 0
M  V30 1379 H 134.28 -2.70103 2.56661 0
M  V30 1380 H 134.393 -2.04462 4.3328 0
M  V30 1381 H 132.757 -1.17369 2.26046 0
M  V30 1382 H 133.54 0.0174705 3.43296 0
M  V30 1383 N 135.985 -1.50799 -0.457987 0
M  V30 1384 C 137.262 -1.52968 -1.21902 0
M  V30 1385 C 137.642 -0.281906 -2.09209 0
M  V30 1386 O 136.99 0.734076 -2.16388 0
M  V30 1387 C 137.2 -2.8326 -2.03875 0
M  V30 1388 C 138.548 -3.34425 -2.6162 0
M  V30 1389 O 139.572 -2.8467 -2.14106 0
M  V30 1390 O 138.431 -4.21188 -3.48228 0
M  V30 1391 H 135.525 -0.614129 -0.553873 0
M  V30 1392 H 138.071 -1.63098 -0.468739 0
M  V30 1393 H 136.843 -3.65543 -1.39621 0
M  V30 1394 H 136.466 -2.76195 -2.8601 0
M  V30 1395 N 137.463 0.71206 -1.40597 0
M  V30 1396 C 138.709 1.47416 -1.39271 0
M  V30 1397 C 139.042 1.942 0.00388791 0
M  V30 1398 O 138.317 1.68403 0.973179 0
M  V30 1399 C 138.6 2.69774 -2.38525 0
M  V30 1400 C 138.453 2.28861 -3.87224 0
M  V30 1401 C 139.772 3.71939 -2.35264 0
M  V30 1402 H 136.891 0.534713 -0.5072 0
M  V30 1403 H 139.533 0.812375 -1.71757 0
M  V30 1404 H 137.683 3.26238 -2.10953 0
M  V30 1405 H 139.355 1.77852 -4.25636 0
M  V30 1406 H 137.598 1.60824 -4.02887 0
M  V30 1407 H 138.269 3.16584 -4.52193 0
M  V30 1408 H 140.745 3.25113 -2.59694 0
M  V30 1409 H 139.621 4.55186 -3.06753 0
M  V30 1410 H 139.882 4.20484 -1.36549 0
M  V30 1411 N 138.941 1.26152 0.944643 0
M  V30 1412 C 139.889 1.07215 2.06417 0
M  V30 1413 C 140.883 9.2007e-05 1.694 0
M  V30 1414 O 142.089 0.1565 1.79318 0
M  V30 1415 H 138.464 0.329837 0.675805 0
M  V30 1416 H 140.435 2.02099 2.19541 0
M  V30 1417 C 139.184 0.718197 3.40202 0
M  V30 1418 H 138.507 1.53497 3.69159 0
M  V30 1419 H 139.947 0.625459 4.19361 0
M  V30 1420 C 138.406 -0.576435 3.31932 0
M  V30 1421 O 138.936 -1.61574 3.67773 0
M  V30 1422 N 137.142 -0.565781 2.85039 0
M  V30 1423 H 136.689 0.280367 2.5607 0
M  V30 1424 H 136.647 -1.43213 2.79888 0
M  V30 1425 N 140.419 -1.14872 1.07899 0
M  V30 1426 C 141.366 -2.19791 0.704319 0
M  V30 1427 C 142.336 -1.63238 -0.306987 0
M  V30 1428 O 143.521 -1.8983 -0.192171 0
M  V30 1429 C 140.661 -3.44911 0.114244 0
M  V30 1430 C 139.774 -4.15637 1.1777 0
M  V30 1431 C 138.909 -5.28324 0.552037 0
M  V30 1432 C 137.948 -5.90875 1.59789 0
M  V30 1433 N 137.085 -6.95022 0.994404 0
M  V30 1434 H 141.925 -2.5119 1.60336 0
M  V30 1435 H 139.462 -1.23356 0.801352 0
M  V30 1436 H 141.42 -4.16477 -0.245544 0
M  V30 1437 H 140.05 -3.14011 -0.74813 0
M  V30 1438 H 139.102 -3.42512 1.65499 0
M  V30 1439 H 140.414 -4.5823 1.97046 0
M  V30 1440 H 139.568 -6.06538 0.1402 0
M  V30 1441 H 138.307 -4.86939 -0.272431 0
M  V30 1442 H 137.312 -5.11369 2.01945 0
M  V30 1443 H 138.537 -6.34337 2.42474 0
M  V30 1444 H 136.483 -6.55722 0.190939 0
M  V30 1445 H 136.4 -7.36073 1.72432 0
M  V30 1446 H 137.668 -7.77123 0.608253 0
M  V30 1447 N 141.898 -0.863906 -1.31812 0
M  V30 1448 C 143.309 -0.52522 -1.7916 0
M  V30 1449 C 143.66 0.957518 -1.71248 0
M  V30 1450 O 142.785 1.74734 -1.27659 0
M  V30 1451 C 143.38 -0.9466 -3.25307 0
M  V30 1452 C 141.939 -0.659668 -3.70574 0
M  V30 1453 C 141.086 -1.14126 -2.52726 0
M  V30 1454 H 144.037 -1.05022 -1.1898 0
M  V30 1455 H 144.058 -0.266766 -3.79564 0
M  V30 1456 H 143.57 -2.02579 -3.31034 0
M  V30 1457 H 141.671 0.408416 -3.70355 0
M  V30 1458 H 141.784 -1.23245 -4.62977 0
M  V30 1459 H 140.148 -0.561216 -2.4844 0
M  V30 1460 H 140.931 -2.22775 -2.61201 0
M  V30 1461 N 143.376 1.44774 -0.622745 0
M  V30 1462 C 144.339 2.29069 0.0774015 0
M  V30 1463 C 145.339 1.4059 0.780461 0
M  V30 1464 O 146.529 1.62551 0.626322 0
M  V30 1465 C 143.661 3.21974 1.12006 0
M  V30 1466 H 144.854 2.92459 -0.663901 0
M  V30 1467 H 142.407 1.51548 -0.382486 0
M  V30 1468 H 143.142 2.63417 1.89162 0
M  V30 1469 H 142.927 3.87168 0.619951 0
M  V30 1470 H 144.417 3.85318 1.60995 0
M  V30 1471 N 144.854 0.36279 1.53368 0
M  V30 1472 C 146.082 -0.228613 2.05633 0
M  V30 1473 C 146.497 -1.42676 1.23649 0
M  V30 1474 O 145.854 -1.80394 0.27647 0
M  V30 1475 C 145.905 -0.624845 3.56059 0
M  V30 1476 O 145.626 0.525675 4.34935 0
M  V30 1477 C 147.127 -1.27493 4.24571 0
M  V30 1478 H 144.347 -0.0407183 0.669763 0
M  V30 1479 H 146.891 0.520352 1.97769 0
M  V30 1480 H 145.046 -1.32373 3.64083 0
M  V30 1481 H 145.46 0.205969 5.24095 0
M  V30 1482 H 146.934 -1.50277 5.31151 0
M  V30 1483 H 147.411 -2.23439 3.78116 0
M  V30 1484 H 148.017 -0.617558 4.20792 0
M  V30 1485 N 146.332 -1.57332 0.0918853 0
M  V30 1486 C 147.295 -2.12708 -0.85369 0
M  V30 1487 C 148.295 -1.05561 -1.213 0
M  V30 1488 O 149.485 -1.31461 -1.14296 0
M  V30 1489 C 146.617 -2.64503 -2.15061 0
M  V30 1490 H 147.81 -2.97573 -0.3729 0
M  V30 1491 H 145.363 -1.55509 -0.157072 0
M  V30 1492 H 146.098 -1.83149 -2.67632 0
M  V30 1493 H 145.883 -3.4284 -1.90272 0
M  V30 1494 H 147.373 -3.07351 -2.82711 0
M  V30 1495 N 147.81 0.181792 -1.56548 0
M  V30 1496 C 148.742 1.24956 -1.92142 0
M  V30 1497 C 149.755 1.41022 -0.813422 0
M  V30 1498 O 150.944 1.41212 -1.09186 0
M  V30 1499 C 148.044 2.61981 -2.14987 0
M  V30 1500 C 147.217 2.6735 -3.46183 0
M  V30 1501 C 146.276 3.85664 -3.5798 0
M  V30 1502 O 145.302 3.72148 -4.30691 0
M  V30 1503 N 146.504 5.01683 -2.92053 0
M  V30 1504 H 149.269 0.947329 -2.84334 0
M  V30 1505 H 146.83 0.371629 -1.57577 0
M  V30 1506 H 148.822 3.3958 -2.20154 0
M  V30 1507 H 147.392 2.84637 -1.2923 0
M  V30 1508 H 146.612 1.75925 -3.52766 0
M  V30 1509 H 147.9 2.67939 -4.32534 0
M  V30 1510 H 147.298 5.15564 -2.32832 0
M  V30 1511 H 145.855 5.77181 -3.0283 0
M  V30 1512 N 149.288 1.51039 0.449983 0
M  V30 1513 C 150.236 1.71995 1.5659 0
M  V30 1514 C 151.23 0.586029 1.5894 0
M  V30 1515 O 152.436 0.76709 1.62837 0
M  V30 1516 H 148.811 0.543233 0.520001 0
M  V30 1517 H 150.782 2.65562 1.36085 0
M  V30 1518 C 149.531 1.8506 2.9436 0
M  V30 1519 H 148.854 2.71712 2.93279 0
M  V30 1520 H 150.294 2.0374 3.71842 0
M  V30 1521 C 148.753 0.607277 3.31382 0
M  V30 1522 O 149.283 -0.243903 4.00959 0
M  V30 1523 N 147.489 0.455073 2.87015 0
M  V30 1524 H 147.036 1.14879 2.30566 0
M  V30 1525 H 146.994 -0.375611 3.12148 0
M  V30 1526 N 150.766 -0.704594 1.40972 0
M  V30 1527 C 151.991 -1.49858 1.43378 0
M  V30 1528 C 152.416 -1.88061 0.038184 0
M  V30 1529 O 151.774 -1.5402 -0.956425 0
M  V30 1530 C 151.822 -2.74333 2.34038 0
M  V30 1531 O 150.926 -3.7147 1.7912 0
M  V30 1532 H 150.267 -0.45139 0.486974 0
M  V30 1533 H 152.797 -0.866832 1.8533 0
M  V30 1534 H 152.807 -3.22741 2.49604 0
M  V30 1535 H 151.482 -2.45863 3.35446 0
M  V30 1536 H 150.059 -3.30363 1.72958 0
M  V30 1537 N 152.244 -1.26651 -0.937939 0
M  V30 1538 C 153.655 -1.1125 -1.49934 0
M  V30 1539 C 154.006 0.306077 -1.93798 0
M  V30 1540 O 153.131 1.19792 -1.80219 0
M  V30 1541 C 153.726 -2.01339 -2.72485 0
M  V30 1542 C 152.285 -1.90074 -3.24883 0
M  V30 1543 C 151.432 -1.94498 -1.97651 0
M  V30 1544 H 154.383 -1.39693 -0.753091 0
M  V30 1545 H 154.404 -1.56319 -3.46907 0
M  V30 1546 H 153.916 -3.04577 -2.40529 0
M  V30 1547 H 152.017 -0.897827 -3.61621 0
M  V30 1548 H 152.13 -2.75778 -3.9177 0
M  V30 1549 H 150.494 -1.38591 -2.13693 0
M  V30 1550 H 151.277 -2.99372 -1.68022 0
M  V30 1551 N 153.722 1.14298 -1.08507 0
M  V30 1552 C 154.95 1.89219 -0.836876 0
M  V30 1553 C 155.365 1.78638 0.611054 0
M  V30 1554 O 154.722 1.14643 1.41998 0
M  V30 1555 C 154.773 3.39158 -1.25116 0
M  V30 1556 O 154.494 3.49449 -2.64229 0
M  V30 1557 C 155.995 4.31073 -1.03398 0
M  V30 1558 H 153.215 0.599328 -0.301739 0
M  V30 1559 H 155.759 1.44746 -1.44461 0
M  V30 1560 H 153.914 3.81251 -0.687514 0
M  V30 1561 H 154.328 4.42589 -2.81452 0
M  V30 1562 H 155.802 5.34646 -1.37323 0
M  V30 1563 H 156.279 4.3919 0.0289259 0
M  V30 1564 H 156.885 3.94738 -1.58311 0
M  V30 1565 N 155.201 0.870884 1.31352 0
M  V30 1566 C 156.478 0.402907 1.91405 0
M  V30 1567 C 156.858 -1.11512 1.79244 0
M  V30 1568 O 156.206 -1.94411 1.2007 0
M  V30 1569 C 156.416 0.885301 3.37585 0
M  V30 1570 C 157.764 0.911971 4.14691 0
M  V30 1571 O 158.788 0.831016 3.46371 0
M  V30 1572 O 157.647 1.02927 5.3672 0
M  V30 1573 H 154.741 0.120698 0.818145 0
M  V30 1574 H 157.287 0.958857 1.40014 0
M  V30 1575 H 156.059 1.92889 3.40455 0
M  V30 1576 H 155.682 0.307714 3.96407 0
M  V30 1577 N 156.679 -1.44442 0.630414 0
M  V30 1578 C 157.642 -2.29107 -0.0652523 0
M  V30 1579 C 158.642 -1.41002 -0.772995 0
M  V30 1580 O 159.832 -1.62881 -0.617692 0
M  V30 1581 C 156.964 -3.22564 -1.10296 0
M  V30 1582 H 158.157 -2.92103 0.679401 0
M  V30 1583 H 155.71 -1.51343 0.390517 0
M  V30 1584 H 156.445 -2.64416 -1.87762 0
M  V30 1585 H 156.23 -3.87491 -0.59941 0
M  V30 1586 H 157.72 -3.86167 -1.5895 0
M  V30 1587 N 158.157 -0.370918 -1.53173 0
M  V30 1588 C 159.573 -0.0200818 -1.59587 0
M  V30 1589 C 159.773 1.46279 -1.38581 0
M  V30 1590 O 158.829 2.22506 -1.19363 0
M  V30 1591 C 160.142 -0.4808 -2.96831 0
M  V30 1592 C 161.69 -0.435477 -3.09956 0
M  V30 1593 C 162.165 -0.872092 -4.4962 0
M  V30 1594 N 163.656 -0.827364 -4.55751 0
M  V30 1595 C 164.391 -1.13683 -5.62018 0
M  V30 1596 N 163.887 -1.51584 -6.76014 0
M  V30 1597 N 165.68 -1.05927 -5.52029 0
M  V30 1598 H 157.831 -1.33652 -1.65079 0
M  V30 1599 H 160.094 -0.546634 -0.774529 0
M  V30 1600 H 159.8 -1.51577 -3.1736 0
M  V30 1601 H 159.674 0.129796 -3.76977 0
M  V30 1602 H 162.061 0.590371 -2.89134 0
M  V30 1603 H 162.142 -1.08164 -2.31806 0
M  V30 1604 H 161.786 -1.89608 -4.71181 0
M  V30 1605 H 161.716 -0.203127 -5.26208 0
M  V30 1606 H 164.207 -0.548216 -3.73902 0
M  V30 1607 H 164.52 -1.73609 -7.53047 0
M  V30 1608 H 162.865 -1.55454 -6.77391 0
M  V30 1609 H 166.056 -0.762321 -4.61851 0
M  V30 1610 H 166.229 -1.30378 -6.34749 0
M  V30 1611 N 159.635 1.57281 -0.100228 0
M  V30 1612 C 160.598 2.13158 0.842398 0
M  V30 1613 C 161.598 1.06202 1.20738 0
M  V30 1614 O 162.788 1.32066 1.13597 0
M  V30 1615 C 159.92 2.65639 2.13655 0
M  V30 1616 H 161.113 2.97766 0.357114 0
M  V30 1617 H 158.666 1.5559 0.148823 0
M  V30 1618 H 159.401 1.84566 2.66657 0
M  V30 1619 H 159.186 3.43844 1.88451 0
M  V30 1620 H 160.676 3.08846 2.81077 0
M  V30 1621 N 161.113 -0.173488 1.56642 0
M  V30 1622 C 162.359 -0.891784 1.8214 0
M  V30 1623 C 162.692 -1.8199 0.677736 0
M  V30 1624 O 161.967 -1.91842 -0.320446 0
M  V30 1625 C 162.25 -1.68933 3.18015 0
M  V30 1626 C 162.103 -0.784487 4.42906 0
M  V30 1627 C 163.422 -2.65748 3.50808 0
M  V30 1628 H 160.541 -0.322761 0.662567 0
M  V30 1629 H 163.183 -0.158095 1.89341 0
M  V30 1630 H 161.333 -2.31482 3.12007 0
M  V30 1631 H 163.005 -0.172046 4.60979 0
M  V30 1632 H 161.248 -0.0924117 4.33702 0
M  V30 1633 H 161.919 -1.37799 5.34524 0
M  V30 1634 H 164.395 -2.13327 3.57255 0
M  V30 1635 H 163.271 -3.18619 4.4696 0
M  V30 1636 H 163.532 -3.45842 2.75401 0
M  V30 1637 N 162.591 -1.51276 -0.441967 0
M  V30 1638 C 163.523 -1.68444 -1.55433 0
M  V30 1639 C 164.536 -0.565187 -1.52674 0
M  V30 1640 O 165.725 -0.839356 -1.57534 0
M  V30 1641 C 162.825 -1.67966 -2.94348 0
M  V30 1642 C 161.998 -2.964 -3.21661 0
M  V30 1643 C 161.057 -2.88171 -4.40277 0
M  V30 1644 O 160.083 -3.62119 -4.39157 0
M  V30 1645 N 161.285 -2.03706 -5.43584 0
M  V30 1646 H 164.05 -2.644 -1.41112 0
M  V30 1647 H 161.611 -1.49104 -0.630838 0
M  V30 1648 H 163.603 -1.60035 -3.71713 0
M  V30 1649 H 162.173 -0.796225 -3.0229 0
M  V30 1650 H 161.393 -3.18234 -2.32638 0
M  V30 1651 H 162.681 -3.81427 -3.36736 0
M  V30 1652 H 162.079 -1.42995 -5.47329 0
M  V30 1653 H 160.636 -2.01658 -6.1982 0
M  V30 1654 N 164.069 0.697108 -1.41344 0
M  V30 1655 C 165.032 1.79281 -1.42797 0
M  V30 1656 C 166.032 1.57607 -0.318837 0
M  V30 1657 O 167.222 1.64309 -0.578642 0
M  V30 1658 C 164.354 3.17632 -1.23785 0
M  V30 1659 H 165.547 1.79385 -2.40335 0
M  V30 1660 H 163.1 0.904582 -1.27464 0
M  V30 1661 H 163.835 3.23167 -0.270814 0
M  V30 1662 H 163.62 3.34765 -2.04144 0
M  V30 1663 H 165.11 3.97617 -1.27633 0
M  V30 1664 N 165.547 1.27147 0.931209 0
M  V30 1665 C 166.51 1.09615 2.01289 0
M  V30 1666 C 167.51 0.0412581 1.60747 0
M  V30 1667 O 168.7 0.285545 1.71844 0
M  V30 1668 C 165.832 0.669447 3.34262 0
M  V30 1669 H 167.025 2.05662 2.18273 0
M  V30 1670 H 164.578 1.09885 1.11153 0
M  V30 1671 H 165.313 -0.292572 3.22978 0
M  V30 1672 H 165.098 1.43127 3.65044 0
M  V30 1673 H 166.588 0.568921 4.13706 0
M  V30 1674 N 167.025 -1.13721 1.09112 0
M  V30 1675 C 167.988 -2.17222 0.731241 0
M  V30 1676 C 168.988 -1.59035 -0.237566 0
M  V30 1677 O 170.178 -1.74192 -0.0161704 0
M  V30 1678 C 167.31 -3.40804 0.0808443 0
M  V30 1679 H 168.503 -2.50573 1.64783 0
M  V30 1680 H 166.056 -1.28493 0.889897 0
M  V30 1681 H 166.791 -3.1304 -0.847127 0
M  V30 1682 H 166.576 -3.84306 0.777896 0
M  V30 1683 H 168.066 -4.1731 -0.155657 0
M  V30 1684 N 168.503 -0.877838 -1.30888 0
M  V30 1685 C 169.435 -0.296607 -2.27273 0
M  V30 1686 C 170.448 0.544799 -1.53414 0
M  V30 1687 O 171.637 0.365511 -1.74718 0
M  V30 1688 C 168.737 0.597481 -3.33592 0
M  V30 1689 C 167.91 -0.213251 -4.3688 0
M  V30 1690 C 166.969 0.610208 -5.2265 0
M  V30 1691 O 165.995 0.035441 -5.69189 0
M  V30 1692 N 167.197 1.92071 -5.47804 0
M  V30 1693 H 169.962 -1.12492 -2.77787 0
M  V30 1694 H 167.523 -0.740105 -1.43993 0
M  V30 1695 H 169.515 1.15425 -3.87891 0
M  V30 1696 H 168.085 1.32647 -2.83061 0
M  V30 1697 H 167.305 -0.951466 -3.82545 0
M  V30 1698 H 168.593 -0.769262 -5.02951 0
M  V30 1699 H 167.991 2.4107 -5.11763 0
M  V30 1700 H 166.548 2.42508 -6.05007 0
M  V30 1701 N 169.982 1.44106 -0.638065 0
M  V30 1702 C 170.945 2.29138 0.0531013 0
M  V30 1703 C 171.945 1.41409 0.765506 0
M  V30 1704 O 173.135 1.63206 0.609046 0
M  V30 1705 C 170.267 3.23144 1.08584 0
M  V30 1706 H 171.46 2.91739 -0.694883 0
M  V30 1707 H 169.013 1.51134 -0.398538 0
M  V30 1708 H 169.748 2.65408 1.86357 0
M  V30 1709 H 169.533 3.87804 0.578852 0
M  V30 1710 H 171.023 3.87004 1.56899 0
M  V30 1711 N 171.46 0.379036 1.52974 0
M  V30 1712 C 172.737 -0.263479 1.93817 0
M  V30 1713 C 173.117 -1.65244 1.31368 0
M  V30 1714 O 172.465 -2.23448 0.477856 0
M  V30 1715 C 172.675 -0.300166 3.47707 0
M  V30 1716 C 174.023 -0.534061 4.21228 0
M  V30 1717 O 175.047 -0.38081 3.54159 0
M  V30 1718 O 173.906 -0.833501 5.40106 0
M  V30 1719 H 171 -0.161149 0.811147 0
M  V30 1720 H 173.546 0.432798 1.64088 0
M  V30 1721 H 172.318 0.673138 3.85467 0
M  V30 1722 H 171.941 -1.04179 3.83709 0
M  V30 1723 N 172.938 -1.57226 0.108567 0
M  V30 1724 C 173.901 -2.13602 -0.831082 0
M  V30 1725 C 174.901 -1.06841 -1.20173 0
M  V30 1726 O 176.091 -1.32666 -1.12895 0
M  V30 1727 C 173.223 -2.66769 -2.12243 0
M  V30 1728 H 174.416 -2.97951 -0.341317 0
M  V30 1729 H 171.969 -1.55667 -0.14057 0
M  V30 1730 H 172.704 -1.85977 -2.65675 0
M  V30 1731 H 172.489 -3.44839 -1.86625 0
M  V30 1732 H 173.979 -3.10332 -2.79435 0
M  V30 1733 N 174.416 0.165178 -1.56732 0
M  V30 1734 C 175.693 0.908443 -1.73224 0
M  V30 1735 C 176.073 2.0013 -0.67165 0
M  V30 1736 O 175.421 2.26353 0.31253 0
M  V30 1737 C 175.631 1.46756 -3.16644 0
M  V30 1738 C 176.979 1.93809 -3.77787 0
M  V30 1739 O 178.003 1.56537 -3.1996 0
M  V30 1740 O 176.862 2.62486 -4.79336 0
M  V30 1741 H 173.956 0.428025 -0.707618 0
M  V30 1742 H 176.502 0.152526 -1.69013 0
M  V30 1743 H 175.274 0.68129 -3.85323 0
M  V30 1744 H 174.897 2.28749 -3.25207 0
M  V30 1745 N 175.894 1.51508 0.433938 0
M  V30 1746 C 176.857 1.72473 1.50949 0
M  V30 1747 C 177.857 0.594725 1.49398 0
M  V30 1748 O 179.047 0.862315 1.5136 0
M  V30 1749 C 176.179 1.78431 2.90474 0
M  V30 1750 H 177.372 2.68467 1.33662 0
M  V30 1751 H 174.925 1.41549 0.662836 0
M  V30 1752 H 175.66 0.842645 3.13161 0
M  V30 1753 H 175.445 2.60558 2.93005 0
M  V30 1754 H 176.935 1.96479 3.68491 0
M  V30 1755 N 177.372 -0.689602 1.41712 0
M  V30 1756 C 178.62 -1.4468 1.4111 0
M  V30 1757 C 178.941 -1.94986 0.0232196 0
M  V30 1758 O 178.211 -1.72097 -0.935913 0
M  V30 1759 H 176.791 -0.536847 0.519427 0
M  V30 1760 H 179.453 -0.815825 1.77004 0
M  V30 1761 H 178.549 -2.30706 2.10193 0
M  V30 1762 N 178.85 -1.27639 -0.924453 0
M  V30 1763 C 180.075 -1.17101 -1.71179 0
M  V30 1764 C 180.5 0.268134 -1.86179 0
M  V30 1765 O 179.858 1.19415 -1.36418 0
M  V30 1766 C 179.906 -1.86313 -3.08739 0
M  V30 1767 O 179.01 -1.16331 -3.95652 0
M  V30 1768 H 178.351 -0.407091 -0.524569 0
M  V30 1769 H 180.881 -1.68767 -1.15666 0
M  V30 1770 H 180.891 -1.938 -3.59034 0
M  V30 1771 H 179.566 -2.91001 -2.97138 0
M  V30 1772 H 178.143 -1.16935 -3.54091 0
M  V30 1773 N 180.328 1.1314 -1.09713 0
M  V30 1774 C 181.553 1.88862 -0.857081 0
M  V30 1775 C 181.978 1.78729 0.586304 0
M  V30 1776 O 181.336 1.13692 1.41222 0
M  V30 1777 C 181.384 3.36325 -1.30069 0
M  V30 1778 O 180.488 4.09815 -0.461007 0
M  V30 1779 H 179.829 0.587108 -0.310162 0
M  V30 1780 H 182.359 1.43129 -1.46203 0
M  V30 1781 H 182.369 3.87157 -1.28738 0
M  V30 1782 H 181.044 3.43017 -2.35185 0
M  V30 1783 H 179.621 3.68986 -0.538888 0
M  V30 1784 N 181.806 0.884767 1.30421 0
M  V30 1785 C 182.754 0.340869 2.30089 0
M  V30 1786 C 183.748 -0.55201 1.60154 0
M  V30 1787 O 184.954 -0.436467 1.74628 0
M  V30 1788 H 181.329 0.0915739 0.746404 0
M  V30 1789 H 183.3 1.19513 2.73421 0
M  V30 1790 C 182.049 -0.429779 3.45034 0
M  V30 1791 H 181.372 0.248024 3.9903 0
M  V30 1792 H 182.812 -0.775445 4.16849 0
M  V30 1793 C 181.271 -1.62677 2.95022 0
M  V30 1794 O 181.801 -2.72614 2.95033 0
M  V30 1795 N 180.007 -1.46387 2.51036 0
M  V30 1796 H 179.554 -0.569506 2.51226 0
M  V30 1797 H 179.512 -2.26612 2.17932 0
M  V30 1798 N 183.284 -1.43765 0.645699 0
M  V30 1799 C 184.512 -2.06253 0.163556 0
M  V30 1800 C 184.927 -1.48352 -1.16778 0
M  V30 1801 O 184.284 -0.611932 -1.71935 0
M  V30 1802 C 184.335 -3.61453 0.0583186 0
M  V30 1803 O 184.056 -4.172 1.33702 0
M  V30 1804 C 185.557 -4.41002 -0.450795 0
M  V30 1805 H 182.777 -0.665413 0.0864077 0
M  V30 1806 H 185.321 -1.84396 0.884222 0
M  V30 1807 H 183.476 -3.82522 -0.612865 0
M  V30 1808 H 183.89 -5.10791 1.19131 0
M  V30 1809 H 185.364 -5.49966 -0.473403 0
M  V30 1810 H 185.841 -4.13488 -1.48068 0
M  V30 1811 H 186.447 -4.24886 0.187637 0
M  V30 1812 N 184.763 -0.387143 -1.52771 0
M  V30 1813 C 186.011 0.195349 -2.01154 0
M  V30 1814 C 186.332 1.475 -1.27549 0
M  V30 1815 O 185.602 1.91878 -0.394924 0
M  V30 1816 H 184.182 0.075178 -0.743207 0
M  V30 1817 H 186.844 -0.518337 -1.87881 0
M  V30 1818 H 185.94 0.407096 -3.09434 0
M  V30 1819 N 186.241 1.57166 -0.116904 0
M  V30 1820 C 187.204 2.14039 0.819742 0
M  V30 1821 C 188.204 1.07477 1.19605 0
M  V30 1822 O 189.394 1.33263 1.1219 0
M  V30 1823 C 186.526 2.67891 2.10826 0
M  V30 1824 H 187.719 2.98128 0.325511 0
M  V30 1825 H 185.272 1.55739 0.132312 0
M  V30 1826 H 186.007 1.87384 2.64685 0
M  V30 1827 H 185.792 3.45823 1.84793 0
M  V30 1828 H 187.282 3.11809 2.77785 0
M  V30 1829 N 187.719 -0.156864 1.56817 0
M  V30 1830 C 189.135 -0.50916 1.5126 0
M  V30 1831 C 189.335 -1.83897 0.823658 0
M  V30 1832 O 188.391 -2.49469 0.390055 0
M  V30 1833 C 189.704 -0.52857 2.96018 0
M  V30 1834 C 191.252 -0.614771 3.06903 0
M  V30 1835 C 191.727 -0.664938 4.53147 0
M  V30 1836 N 193.218 -0.727433 4.57452 0
M  V30 1837 C 193.953 -0.787067 5.67973 0
M  V30 1838 N 193.449 -0.806649 6.88088 0
M  V30 1839 N 195.242 -0.827195 5.5598 0
M  V30 1840 H 187.393 0.714935 2.00006 0
M  V30 1841 H 189.656 0.259526 0.911784 0
M  V30 1842 H 189.362 0.380154 3.49639 0
M  V30 1843 H 189.236 -1.36998 3.51442 0
M  V30 1844 H 191.623 -1.51392 2.53307 0
M  V30 1845 H 191.704 0.253597 2.5454 0
M  V30 1846 H 191.348 0.230011 5.07379 0
M  V30 1847 H 191.278 -1.54966 5.03282 0
M  V30 1848 H 193.769 -0.719998 3.70978 0
M  V30 1849 H 194.082 -0.853727 7.6807 0
M  V30 1850 H 192.427 -0.774687 6.90669 0
M  V30 1851 H 195.618 -0.808998 4.61056 0
M  V30 1852 H 195.791 -0.870206 6.4213 0
M  V30 1853 N 189.197 -1.51736 -0.425897 0
M  V30 1854 C 190.425 -1.68794 -1.1965 0
M  V30 1855 C 190.84 -0.390164 -1.84725 0
M  V30 1856 O 190.197 0.632376 -1.71194 0
M  V30 1857 C 190.248 -2.81174 -2.27208 0
M  V30 1858 O 189.969 -4.05925 -1.64793 0
M  V30 1859 C 191.47 -3.09599 -3.17275 0
M  V30 1860 H 188.69 -0.566128 -0.360194 0
M  V30 1861 H 191.234 -1.98211 -0.503249 0
M  V30 1862 H 189.389 -2.54324 -2.9223 0
M  V30 1863 H 189.803 -4.68423 -2.35967 0
M  V30 1864 H 191.277 -3.91786 -3.88854 0
M  V30 1865 H 191.754 -2.22468 -3.78688 0
M  V30 1866 H 192.36 -3.38151 -2.57941 0
M  V30 1867 N 190.675 0.682077 -1.42076 0
M  V30 1868 C 191.9 1.47558 -1.45744 0
M  V30 1869 C 192.325 1.87977 -0.0680981 0
M  V30 1870 O 191.683 1.55522 0.9318 0
M  V30 1871 C 191.731 2.70575 -2.38373 0
M  V30 1872 O 190.835 3.68573 -1.85007 0
M  V30 1873 H 190.176 0.443585 -0.494093 0
M  V30 1874 H 192.706 0.837238 -1.86686 0
M  V30 1875 H 192.716 3.18729 -2.54707 0
M  V30 1876 H 191.391 2.40495 -3.39315 0
M  V30 1877 H 189.968 3.2757 -1.78192 0
M  V30 1878 N 192.153 1.28127 0.917671 0
M  V30 1879 C 193.101 1.11569 2.04096 0
M  V30 1880 C 194.095 0.0360242 1.69362 0
M  V30 1881 O 195.301 0.194501 1.78946 0
M  V30 1882 H 191.676 0.344097 0.668656 0
M  V30 1883 H 193.647 2.06711 2.15205 0
M  V30 1884 C 192.396 0.790197 3.38602 0
M  V30 1885 H 191.719 1.61293 3.6582 0
M  V30 1886 H 193.159 0.714271 4.1794 0
M  V30 1887 C 191.618 -0.505897 3.3308 0
M  V30 1888 O 192.148 -1.53736 3.71117 0
M  V30 1889 N 190.354 -0.505193 2.86175 0
M  V30 1890 H 189.901 0.334621 2.55417 0
M  V30 1891 H 189.859 -1.37243 2.82863 0
M  V30 1892 N 193.631 -1.12557 1.10312 0
M  V30 1893 C 194.578 -2.18247 0.750781 0
M  V30 1894 C 195.548 -1.63853 -0.272293 0
M  V30 1895 O 196.733 -1.90195 -0.151862 0
M  V30 1896 C 193.873 -3.44591 0.187379 0
M  V30 1897 C 192.986 -4.13046 1.2656 0
M  V30 1898 C 192.121 -5.27034 0.663978 0
M  V30 1899 C 191.16 -5.87353 1.72287 0
M  V30 1900 N 190.297 -6.92757 1.1416 0
M  V30 1901 H 195.137 -2.47732 1.65628 0
M  V30 1902 H 192.674 -1.21629 0.827337 0
M  V30 1903 H 194.632 -4.16904 -0.157148 0
M  V30 1904 H 193.262 -3.15527 -0.681355 0
M  V30 1905 H 192.314 -3.38924 1.72727 0
M  V30 1906 H 193.626 -4.53947 2.06721 0
M  V30 1907 H 192.78 -6.06104 0.268824 0
M  V30 1908 H 191.519 -4.87407 -0.169082 0
M  V30 1909 H 190.524 -5.06971 2.12746 0
M  V30 1910 H 191.749 -6.29051 2.55875 0
M  V30 1911 H 189.695 -6.5517 0.329984 0
M  V30 1912 H 189.612 -7.3225 1.88007 0
M  V30 1913 H 190.88 -7.75658 0.772956 0
M  V30 1914 N 195.109 -0.891671 -1.2995 0
M  V30 1915 C 196.525 -0.58662 -1.48428 0
M  V30 1916 C 196.725 0.873951 -1.81561 0
M  V30 1917 O 195.781 1.65471 -1.90724 0
M  V30 1918 C 197.094 -1.50553 -2.60296 0
M  V30 1919 C 198.642 -1.50988 -2.74175 0
M  V30 1920 C 199.117 -2.41488 -3.89163 0
M  V30 1921 N 200.608 -2.39489 -3.96483 0
M  V30 1922 C 201.343 -3.06223 -4.84784 0
M  V30 1923 N 200.839 -3.82206 -5.77833 0
M  V30 1924 N 202.632 -2.95421 -4.78208 0
M  V30 1925 H 194.783 -1.83644 -1.06718 0
M  V30 1926 H 197.046 -0.786455 -0.529332 0
M  V30 1927 H 196.752 -2.54581 -2.42654 0
M  V30 1928 H 196.626 -1.22008 -3.56923 0
M  V30 1929 H 199.013 -0.47708 -2.91218 0
M  V30 1930 H 199.094 -1.83567 -1.78148 0
M  V30 1931 H 198.738 -3.44857 -3.72876 0
M  V30 1932 H 198.668 -2.06222 -4.84541 0
M  V30 1933 H 201.159 -1.84278 -3.29924 0
M  V30 1934 H 201.472 -4.302 -6.41988 0
M  V30 1935 H 199.817 -3.86313 -5.77743 0
M  V30 1936 H 203.008 -2.35581 -4.04499 0
M  V30 1937 H 203.181 -3.47704 -5.46814 0
M  V30 1938 N 196.587 1.43421 -0.653314 0
M  V30 1939 C 197.534 2.30768 0.0382271 0
M  V30 1940 C 198.504 1.44755 0.814576 0
M  V30 1941 O 199.689 1.73624 0.791162 0
M  V30 1942 C 196.829 3.30336 0.998599 0
M  V30 1943 C 195.942 4.31448 0.218342 0
M  V30 1944 C 195.077 5.18098 1.17252 0
M  V30 1945 C 194.116 6.10902 0.382702 0
M  V30 1946 N 193.253 6.90176 1.28848 0
M  V30 1947 H 198.093 2.89357 -0.712511 0
M  V30 1948 H 195.63 1.42548 -0.363128 0
M  V30 1949 H 197.588 3.86572 1.56901 0
M  V30 1950 H 196.218 2.73397 1.71621 0
M  V30 1951 H 195.27 3.77506 -0.46836 0
M  V30 1952 H 196.582 4.97227 -0.395812 0
M  V30 1953 H 195.736 5.7896 1.81356 0
M  V30 1954 H 194.475 4.52444 1.82058 0
M  V30 1955 H 193.48 5.49128 -0.27169 0
M  V30 1956 H 194.705 6.78598 -0.260957 0
M  V30 1957 H 192.651 6.27171 1.92334 0
M  V30 1958 H 192.568 7.52478 0.728887 0
M  V30 1959 H 193.836 7.55543 1.91766 0
M  V30 1960 N 198.065 0.39524 1.52563 0
M  V30 1961 C 198.975 -0.444232 2.30356 0
M  V30 1962 C 199.991 -1.06615 1.37511 0
M  V30 1963 O 201.167 -1.07067 1.70583 0
M  V30 1964 C 198.232 -1.55315 3.09964 0
M  V30 1965 C 197.293 -0.955734 4.18526 0
M  V30 1966 C 196.526 -2.01181 4.9433 0
M  V30 1967 O 196.749 -3.22781 4.70285 0
M  V30 1968 O 195.683 -1.62579 5.79527 0
M  V30 1969 H 199.509 0.189667 3.03107 0
M  V30 1970 H 197.094 0.1588 1.48554 0
M  V30 1971 H 198.976 -2.19724 3.59582 0
M  V30 1972 H 197.651 -2.17191 2.4002 0
M  V30 1973 H 196.558 -0.274743 3.7309 0
M  V30 1974 H 197.891 -0.381109 4.90722 0
M  V30 1975 N 199.544 -1.57102 0.125237 0
M  V30 1976 C 200.955 -1.82384 -0.399142 0
M  V30 1977 C 201.306 -1.04276 -1.66195 0
M  V30 1978 O 200.431 -0.281269 -2.14564 0
M  V30 1979 C 201.026 -3.30821 -0.730932 0
M  V30 1980 C 199.585 -3.56762 -1.19992 0
M  V30 1981 C 198.732 -2.7649 -0.211792 0
M  V30 1982 H 201.683 -1.54786 0.350277 0
M  V30 1983 H 201.704 -3.4579 -1.58775 0
M  V30 1984 H 201.216 -3.87643 0.188345 0
M  V30 1985 H 199.317 -3.05305 -2.13588 0
M  V30 1986 H 199.43 -4.65317 -1.14093 0
M  V30 1987 H 197.794 -2.4489 -0.700085 0
M  V30 1988 H 198.577 -3.36073 0.700691 0
M  V30 1989 N 201.022 0.148545 -1.56898 0
M  V30 1990 C 202.247 0.880385 -1.87787 0
M  V30 1991 C 202.672 1.74018 -0.714093 0
M  V30 1992 O 202.03 1.78153 0.336343 0
M  V30 1993 C 202.078 1.71422 -3.17249 0
M  V30 1994 O 201.182 2.8183 -3.01074 0
M  V30 1995 H 200.523 0.245301 -0.617028 0
M  V30 1996 H 203.053 0.139826 -2.04122 0
M  V30 1997 H 203.063 2.10954 -3.49231 0
M  V30 1998 H 201.738 1.08284 -4.01556 0
M  V30 1999 H 200.315 2.45715 -2.80497 0
M  V30 2000 N 202.5 1.5196 0.417844 0
M  V30 2001 C 203.911 1.57851 0.997 0
M  V30 2002 C 204.262 0.413714 1.91789 0
M  V30 2003 O 203.387 -0.467057 2.113 0
M  V30 2004 C 203.982 2.86085 1.81496 0
M  V30 2005 C 202.541 2.94483 2.34428 0
M  V30 2006 C 201.688 2.52707 1.14169 0
M  V30 2007 H 204.639 1.57455 0.198392 0
M  V30 2008 H 204.66 2.70947 2.67148 0
M  V30 2009 H 204.172 3.70842 1.14446 0
M  V30 2010 H 202.273 2.142 3.04875 0
M  V30 2011 H 202.386 3.98546 2.65891 0
M  V30 2012 H 200.75 2.06353 1.49301 0
M  V30 2013 H 201.533 3.39828 0.486999 0
M  V30 2014 N 203.978 -0.674533 1.42435 0
M  V30 2015 C 204.888 -1.81751 1.48337 0
M  V30 2016 C 205.904 -1.69975 0.372099 0
M  V30 2017 O 207.08 -1.91521 0.62304 0
M  V30 2018 C 204.145 -3.17895 1.38361 0
M  V30 2019 C 203.206 -3.41625 2.59982 0
M  V30 2020 C 202.439 -4.71274 2.50473 0
M  V30 2021 O 202.662 -5.49197 1.54075 0
M  V30 2022 O 201.596 -4.96254 3.4061 0
M  V30 2023 H 205.422 -1.79728 2.44809 0
M  V30 2024 H 203.007 -0.830312 1.24202 0
M  V30 2025 H 204.889 -3.99136 1.35161 0
M  V30 2026 H 203.564 -3.20555 0.450144 0
M  V30 2027 H 202.471 -2.60231 2.68757 0
M  V30 2028 H 203.804 -3.43796 3.52229 0
M  V30 2029 N 205.456 -1.28612 -0.910864 0
M  V30 2030 C 206.366 -1.14643 -2.0468 0
M  V30 2031 C 207.382 -0.0723121 -1.7385 0
M  V30 2032 O 208.558 -0.282178 -1.99413 0
M  V30 2033 C 205.623 -0.812561 -3.37044 0
M  V30 2034 C 204.684 -1.96935 -3.81465 0
M  V30 2035 C 203.917 -1.65131 -5.07511 0
M  V30 2036 O 204.14 -0.567013 -5.67575 0
M  V30 2037 O 203.074 -2.49585 -5.47714 0
M  V30 2038 H 206.9 -2.1001 -2.19384 0
M  V30 2039 H 204.485 -1.07958 -1.03274 0
M  V30 2040 H 206.367 -0.640441 -4.16505 0
M  V30 2041 H 205.042 0.111426 -3.23508 0
M  V30 2042 H 203.949 -2.19664 -3.02818 0
M  V30 2043 H 205.282 -2.87414 -3.99567 0
M  V30 2044 N 206.934 1.1197 -1.10907 0
M  V30 2045 C 207.864 2.19928 -0.784473 0
M  V30 2046 C 208.845 1.6833 0.244726 0
M  V30 2047 O 210.03 1.93892 0.109418 0
M  V30 2048 C 207.16 3.46597 -0.220827 0
M  V30 2049 C 206.114 4.11376 -1.18127 0
M  V30 2050 C 205.44 5.32554 -0.478594 0
M  V30 2051 C 206.74 4.56945 -2.52979 0
M  V30 2052 H 208.434 2.47337 -1.68715 0
M  V30 2053 H 205.98 1.18879 -0.812642 0
M  V30 2054 H 207.933 4.21396 0.0184278 0
M  V30 2055 H 206.657 3.1863 0.717113 0
M  V30 2056 H 205.316 3.38564 -1.40606 0
M  V30 2057 H 204.964 5.00856 0.463976 0
M  V30 2058 H 204.664 5.76844 -1.11912 0
M  V30 2059 H 206.188 6.10096 -0.248 0
M  V30 2060 H 207.602 5.23093 -2.3462 0
M  V30 2061 H 205.999 5.1203 -3.12962 0
M  V30 2062 H 207.069 3.70676 -3.12614 0
M  V30 2063 N 208.412 0.89855 1.29475 0
M  V30 2064 C 209.375 0.380272 2.26023 0
M  V30 2065 C 210.375 -0.484891 1.53315 0
M  V30 2066 O 211.565 -0.290108 1.71767 0
M  V30 2067 C 208.697 -0.45651 3.3783 0
M  V30 2068 H 209.89 1.23295 2.73383 0
M  V30 2069 H 207.443 0.676589 1.40897 0
M  V30 2070 H 208.178 -1.32922 2.95808 0
M  V30 2071 H 207.963 0.163393 3.91759 0
M  V30 2072 H 209.453 -0.810466 4.0966 0
M  V30 2073 N 209.89 -1.43072 0.660911 0
M  V30 2074 C 210.823 -2.28074 -0.0758862 0
M  V30 2075 C 211.801 -1.40271 -0.822362 0
M  V30 2076 O 212.985 -1.69713 -0.820352 0
M  V30 2077 C 210.112 -3.19843 -1.11437 0
M  V30 2078 C 209.158 -4.23957 -0.465069 0
M  V30 2079 S 209.991 -5.29978 0.767078 0
M  V30 2080 C 211.147 -6.25314 -0.270682 0
M  V30 2081 H 211.38 -2.90216 0.645139 0
M  V30 2082 H 208.913 -1.47697 0.449995 0
M  V30 2083 H 210.871 -3.73257 -1.70849 0
M  V30 2084 H 209.532 -2.56863 -1.80776 0
M  V30 2085 H 208.725 -4.88299 -1.24819 0
M  V30 2086 H 208.327 -3.73959 0.0551242 0
M  V30 2087 H 210.619 -6.67932 -1.13459 0
M  V30 2088 H 211.562 -7.07293 0.337916 0
M  V30 2089 H 211.97 -5.61195 -0.609937 0
M  V30 2090 N 211.368 -0.403325 -1.52352 0
M  V30 2091 C 212.3 0.4603 -2.2453 0
M  V30 2092 C 213.313 1.01505 -1.27282 0
M  V30 2093 O 214.502 0.914982 -1.53266 0
M  V30 2094 C 211.602 1.65208 -2.95905 0
M  V30 2095 C 210.775 1.22224 -4.19976 0
M  V30 2096 C 209.834 2.28028 -4.74226 0
M  V30 2097 O 208.86 1.88857 -5.36956 0
M  V30 2098 N 210.062 3.6012 -4.55295 0
M  V30 2099 H 212.827 -0.158156 -2.99282 0
M  V30 2100 H 210.388 -0.230402 -1.60252 0
M  V30 2101 H 212.38 2.35541 -3.29093 0
M  V30 2102 H 210.95 2.17658 -2.24374 0
M  V30 2103 H 210.17 0.34725 -3.92668 0
M  V30 2104 H 211.458 0.911924 -5.00561 0
M  V30 2105 H 210.856 3.94698 -4.05253 0
M  V30 2106 H 209.413 4.26447 -4.92936 0
M  V30 2107 N 212.846 1.57033 -0.133567 0
M  V30 2108 C 214.262 1.58035 0.222944 0
M  V30 2109 C 214.462 1.14713 1.6566 0
M  V30 2110 O 213.518 0.841218 2.38075 0
M  V30 2111 C 214.831 3.00691 -0.0236116 0
M  V30 2112 C 216.379 3.12973 0.0411512 0
M  V30 2113 C 216.854 4.57654 -0.177899 0
M  V30 2114 N 218.345 4.63033 -0.124365 0
M  V30 2115 C 219.08 5.72771 -0.268553 0
M  V30 2116 N 218.576 6.91206 -0.46972 0
M  V30 2117 N 220.369 5.61718 -0.2071 0
M  V30 2118 H 212.52 1.8349 -1.06981 0
M  V30 2119 H 214.783 0.848677 -0.422436 0
M  V30 2120 H 214.489 3.36726 -1.0153 0
M  V30 2121 H 214.363 3.70614 0.701808 0
M  V30 2122 H 216.75 2.76787 1.02338 0
M  V30 2123 H 216.831 2.45564 -0.716383 0
M  V30 2124 H 216.475 4.94542 -1.15717 0
M  V30 2125 H 216.405 5.23173 0.599797 0
M  V30 2126 H 218.896 3.7789 0.027011 0
M  V30 2127 H 219.209 7.70693 -0.570212 0
M  V30 2128 H 217.554 6.93156 -0.505876 0
M  V30 2129 H 220.745 4.68072 -0.0507986 0
M  V30 2130 H 220.918 6.47195 -0.322909 0
M  V30 2131 N 214.325 -0.140222 1.56975 0
M  V30 2132 C 215.741 -0.493088 1.51792 0
M  V30 2133 C 215.941 -1.83013 0.843116 0
M  V30 2134 O 214.997 -2.49041 0.416493 0
M  V30 2135 C 216.31 -0.497144 2.96562 0
M  V30 2136 C 217.858 -0.582186 3.07538 0
M  V30 2137 C 218.333 -0.616838 4.53827 0
M  V30 2138 N 219.824 -0.678873 4.58198 0
M  V30 2139 C 220.559 -0.726782 5.68775 0
M  V30 2140 N 220.055 -0.733623 6.88905 0
M  V30 2141 N 221.848 -0.768179 5.56826 0
M  V30 2142 H 213.999 0.736108 1.99237 0
M  V30 2143 H 216.262 0.269182 0.90898 0
M  V30 2144 H 215.968 0.417217 3.49217 0
M  V30 2145 H 215.842 -1.33263 3.52875 0
M  V30 2146 H 218.229 -1.48697 2.54899 0
M  V30 2147 H 218.31 0.280581 2.54257 0
M  V30 2148 H 217.954 0.283812 5.07106 0
M  V30 2149 H 217.884 -1.49619 5.04898 0
M  V30 2150 H 220.375 -0.68061 3.7172 0
M  V30 2151 H 220.688 -0.772215 7.68932 0
M  V30 2152 H 219.033 -0.701389 6.91452 0
M  V30 2153 H 222.224 -0.760051 4.61888 0
M  V30 2154 H 222.397 -0.80205 6.43017 0
M  V30 2155 N 215.803 -1.52179 -0.40978 0
M  V30 2156 C 216.733 -1.78435 -1.5061 0
M  V30 2157 C 217.714 -0.635295 -1.57791 0
M  V30 2158 O 218.899 -0.880823 -1.73076 0
M  V30 2159 C 216.029 -1.93444 -2.88439 0
M  V30 2160 C 214.983 -3.09038 -2.96108 0
M  V30 2161 C 214.309 -3.09268 -4.36185 0
M  V30 2162 C 215.609 -4.48508 -2.67652 0
M  V30 2163 H 217.303 -2.70237 -1.28889 0
M  V30 2164 H 214.849 -1.30036 -0.618605 0
M  V30 2165 H 216.802 -2.10394 -3.65119 0
M  V30 2166 H 215.526 -0.983129 -3.11452 0
M  V30 2167 H 214.185 -2.91837 -2.21872 0
M  V30 2168 H 213.833 -2.11861 -4.56206 0
M  V30 2169 H 213.533 -3.86907 -4.42241 0
M  V30 2170 H 215.057 -3.28348 -5.14801 0
M  V30 2171 H 216.471 -4.65918 -3.34056 0
M  V30 2172 H 214.868 -5.28059 -2.85085 0
M  V30 2173 H 215.938 -4.56649 -1.63095 0
M  V30 2174 N 217.281 0.66697 -1.42791 0
M  V30 2175 C 218.529 1.42417 -1.43394 0
M  V30 2176 C 218.85 1.94925 -0.0542373 0
M  V30 2177 O 218.12 1.73564 0.908415 0
M  V30 2178 H 216.7 0.528515 -0.527902 0
M  V30 2179 H 219.362 0.787562 -1.78279 0
M  V30 2180 H 218.458 2.27333 -2.13837 0
M  V30 2181 N 218.759 1.29093 0.90403 0
M  V30 2182 C 220.007 1.16583 1.65085 0
M  V30 2183 C 220.328 -0.283933 1.92922 0
M  V30 2184 O 219.598 -1.19509 1.55224 0
M  V30 2185 H 218.178 0.428467 0.611903 0
M  V30 2186 H 220.84 1.61959 1.08422 0
M  V30 2187 H 219.936 1.71266 2.6091 0
M  V30 2188 N 220.237 -1.11381 1.11499 0
M  V30 2189 C 221.147 -2.21019 0.786628 0
M  V30 2190 C 222.163 -1.72597 -0.220507 0
M  V30 2191 O 223.339 -2.01321 -0.0565251 0
M  V30 2192 C 220.404 -3.459 0.235333 0
M  V30 2193 C 219.465 -4.09107 1.30115 0
M  V30 2194 C 218.698 -5.28027 0.776068 0
M  V30 2195 O 218.921 -5.6904 -0.393661 0
M  V30 2196 O 217.855 -5.81835 1.54114 0
M  V30 2197 H 221.681 -2.51521 1.70209 0
M  V30 2198 H 219.266 -1.19928 0.890928 0
M  V30 2199 H 221.148 -4.21346 -0.067715 0
M  V30 2200 H 219.823 -3.17049 -0.652828 0
M  V30 2201 H 218.73 -3.35391 1.65722 0
M  V30 2202 H 220.063 -4.42139 2.16273 0
M  V30 2203 N 221.715 -0.905404 -1.28997 0
M  V30 2204 C 222.645 -0.404212 -2.29975 0
M  V30 2205 C 223.626 0.523784 -1.61835 0
M  V30 2206 O 224.811 0.433298 -1.89304 0
M  V30 2207 C 221.941 0.364042 -3.45387 0
M  V30 2208 C 220.895 -0.474048 -4.25367 0
M  V30 2209 C 220.221 0.422045 -5.33032 0
M  V30 2210 C 221.521 -1.72696 -4.92923 0
M  V30 2211 H 223.215 -1.24807 -2.72146 0
M  V30 2212 H 220.761 -0.601585 -1.30832 0
M  V30 2213 H 222.714 0.725447 -4.15109 0
M  V30 2214 H 221.438 1.24174 -3.02074 0
M  V30 2215 H 220.097 -0.81786 -3.57361 0
M  V30 2216 H 219.745 1.29804 -4.85963 0
M  V30 2217 H 219.445 -0.135057 -5.87445 0
M  V30 2218 H 220.969 0.779517 -6.05604 0
M  V30 2219 H 222.383 -1.43495 -5.55051 0
M  V30 2220 H 220.78 -2.22582 -5.57295 0
M  V30 2221 H 221.85 -2.45964 -4.17887 0
M  V30 2222 N 223.193 1.4272 -0.668489 0
M  V30 2223 C 224.156 2.292 0.00448567 0
M  V30 2224 C 225.156 1.43001 0.735339 0
M  V30 2225 O 226.346 1.64461 0.57429 0
M  V30 2226 C 223.478 3.25375 1.01705 0
M  V30 2227 H 224.671 2.90199 -0.756608 0
M  V30 2228 H 222.224 1.50254 -0.430506 0
M  V30 2229 H 222.959 2.69301 1.80686 0
M  V30 2230 H 222.744 3.88944 0.496463 0
M  V30 2231 H 224.234 3.90245 1.48655 0
M  V30 2232 N 224.671 0.411399 1.52136 0
M  V30 2233 C 225.603 -0.448386 2.24771 0
M  V30 2234 C 226.616 -1.00828 1.27818 0
M  V30 2235 O 227.805 -0.906841 1.53749 0
M  V30 2236 C 224.905 -1.63636 2.96777 0
M  V30 2237 C 224.078 -1.19995 4.20618 0
M  V30 2238 C 223.137 -2.25509 4.75428 0
M  V30 2239 O 222.163 -1.86007 5.3795 0
M  V30 2240 N 223.365 -3.577 4.57199 0
M  V30 2241 H 226.13 0.174025 2.99194 0
M  V30 2242 H 223.691 0.238897 1.60128 0
M  V30 2243 H 225.683 -2.33793 3.30338 0
M  V30 2244 H 224.253 -2.16465 2.25526 0
M  V30 2245 H 223.473 -0.326421 3.92846 0
M  V30 2246 H 224.761 -0.885365 5.01038 0
M  V30 2247 H 224.159 -3.92543 4.07341 0
M  V30 2248 H 222.716 -4.23827 4.95191 0
M  V30 2249 N 226.149 -1.5696 0.141893 0
M  V30 2250 C 227.377 -2.00322 -0.517579 0
M  V30 2251 C 227.792 -1.02193 -1.58752 0
M  V30 2252 O 227.149 -0.0181619 -1.82491 0
M  V30 2253 C 227.2 -3.43618 -1.12289 0
M  V30 2254 O 226.921 -4.37995 -0.0956929 0
M  V30 2255 C 228.422 -4.02231 -1.86347 0
M  V30 2256 H 225.642 -0.657243 -0.135177 0
M  V30 2257 H 228.186 -2.03146 0.234973 0
M  V30 2258 H 226.341 -3.41662 -1.82609 0
M  V30 2259 H 226.755 -5.21729 -0.538469 0
M  V30 2260 H 228.229 -5.04509 -2.23997 0
M  V30 2261 H 228.706 -3.42655 -2.74744 0
M  V30 2262 H 229.312 -4.07802 -1.20737 0
M  V30 2263 N 227.627 0.131896 -1.57047 0
M  V30 2264 C 228.575 1.18146 -2.0036 0
M  V30 2265 C 229.569 1.43614 -0.898406 0
M  V30 2266 O 230.775 1.43729 -1.08361 0
M  V30 2267 H 227.15 0.398042 -0.638018 0
M  V30 2268 H 229.121 0.789564 -2.87765 0
M  V30 2269 C 227.87 2.50341 -2.41298 0
M  V30 2270 H 227.193 2.31578 -3.25902 0
M  V30 2271 H 228.633 3.22371 -2.75414 0
M  V30 2272 C 227.092 3.11984 -1.27153 0
M  V30 2273 O 227.622 3.97484 -0.580459 0
M  V30 2274 N 225.828 2.71662 -1.03189 0
M  V30 2275 H 225.375 2.02231 -1.59564 0
M  V30 2276 H 225.333 3.13238 -0.270077 0
M  V30 2277 N 229.106 1.52395 0.401703 0
M  V30 2278 C 230.038 1.72505 1.50912 0
M  V30 2279 C 231.051 0.605468 1.51122 0
M  V30 2280 O 232.24 0.880828 1.55254 0
M  V30 2281 C 229.34 1.75711 2.89791 0
M  V30 2282 C 228.513 3.04824 3.1369 0
M  V30 2283 C 227.572 2.99743 4.32482 0
M  V30 2284 O 226.598 3.73635 4.29402 0
M  V30 2285 N 227.8 2.18047 5.37992 0
M  V30 2286 H 230.565 2.68049 1.34052 0
M  V30 2287 H 228.126 1.50724 0.591084 0
M  V30 2288 H 230.118 1.69834 3.6734 0
M  V30 2289 H 228.688 0.876092 3.00072 0
M  V30 2290 H 227.908 3.2429 2.24119 0
M  V30 2291 H 229.196 3.90221 3.26504 0
M  V30 2292 H 228.594 1.57456 5.43345 0
M  V30 2293 H 227.151 2.18021 6.14256 0
M  V30 2294 N 230.584 -0.659388 1.43143 0
M  V30 2295 C 231.547 -1.75432 1.47501 0
M  V30 2296 C 232.547 -1.56707 0.360512 0
M  V30 2297 O 233.737 -1.62717 0.622002 0
M  V30 2298 C 230.869 -3.14239 1.32162 0
M  V30 2299 H 232.062 -1.7295 2.45006 0
M  V30 2300 H 229.615 -0.870469 1.29817 0
M  V30 2301 H 230.35 -3.22336 0.356401 0
M  V30 2302 H 230.135 -3.29235 2.12948 0
M  V30 2303 H 231.625 -3.94094 1.3813 0
M  V30 2304 N 232.062 -1.29571 -0.897171 0
M  V30 2305 C 233.025 -1.14913 -1.98312 0
M  V30 2306 C 234.025 -0.0838629 -1.60581 0
M  V30 2307 O 235.215 -0.331006 -1.71026 0
M  V30 2308 C 232.347 -0.757835 -3.3237 0
M  V30 2309 H 233.54 -2.11377 -2.12743 0
M  V30 2310 H 231.093 -1.12793 -1.08201 0
M  V30 2311 H 231.828 0.206837 -3.2364 0
M  V30 2312 H 231.613 -1.52755 -3.61121 0
M  V30 2313 H 233.103 -0.678408 -4.12053 0
M  V30 2314 N 233.54 1.10788 -1.12088 0
M  V30 2315 C 234.768 1.86461 -0.896651 0
M  V30 2316 C 235.183 1.80492 0.553912 0
M  V30 2317 O 234.54 1.19102 1.38278 0
M  V30 2318 C 234.591 3.35006 -1.35843 0
M  V30 2319 O 234.312 3.40866 -2.75213 0
M  V30 2320 C 235.813 4.27565 -1.1706 0
M  V30 2321 H 233.033 0.589425 -0.320654 0
M  V30 2322 H 235.577 1.40076 -1.48993 0
M  V30 2323 H 233.732 3.7887 -0.808458 0
M  V30 2324 H 234.146 4.33411 -2.9539 0
M  V30 2325 H 235.62 5.30007 -1.54263 0
M  V30 2326 H 236.097 4.3906 -0.110814 0
M  V30 2327 H 236.703 3.89501 -1.70789 0
M  V30 2328 N 235.018 0.912232 1.28515 0
M  V30 2329 C 236.243 0.559774 1.99703 0
M  V30 2330 C 236.668 -0.851393 1.67729 0
M  V30 2331 O 236.026 -1.56875 0.908834 0
M  V30 2332 C 236.074 0.773874 3.52198 0
M  V30 2333 O 235.178 -0.167842 4.12058 0
M  V30 2334 H 234.519 0.21723 0.627461 0
M  V30 2335 H 237.049 1.22725 1.63706 0
M  V30 2336 H 237.059 0.683386 4.02236 0
M  V30 2337 H 235.734 1.80261 3.74805 0
M  V30 2338 H 234.311 -0.0287509 3.72889 0
M  V30 2339 N 236.496 -1.42363 0.676048 0
M  V30 2340 C 237.444 -2.32596 -0.0131507 0
M  V30 2341 C 238.438 -1.49891 -0.789238 0
M  V30 2342 O 239.644 -1.65955 -0.697061 0
M  V30 2343 H 236.019 -0.751647 -0.0230481 0
M  V30 2344 H 237.99 -2.88421 0.765243 0
M  V30 2345 C 236.739 -3.34479 -0.949702 0
M  V30 2346 H 236.062 -3.98158 -0.361938 0
M  V30 2347 H 237.502 -4.00199 -1.4006 0
M  V30 2348 C 235.961 -2.66838 -2.05667 0
M  V30 2349 O 236.491 -2.50124 -3.14326 0
M  V30 2350 N 234.697 -2.25843 -1.82875 0
M  V30 2351 H 234.244 -2.39637 -0.945085 0
M  V30 2352 H 234.202 -1.80918 -2.5713 0
M  V30 2353 N 237.974 -0.419461 -1.51915 0
M  V30 2354 C 239.199 0.154572 -2.06823 0
M  V30 2355 C 239.624 1.3722 -1.28656 0
M  V30 2356 O 238.982 1.78461 -0.319583 0
M  V30 2357 C 239.03 0.473172 -3.57482 0
M  V30 2358 O 238.134 1.56255 -3.81652 0
M  V30 2359 H 237.475 0.0096924 -0.663929 0
M  V30 2360 H 240.005 -0.595642 -1.95738 0
M  V30 2361 H 240.015 0.728825 -4.01438 0
M  V30 2362 H 238.69 -0.416873 -4.13805 0
M  V30 2363 H 237.267 1.29825 -3.49571 0
M  V30 2364 N 239.452 1.56882 -0.150215 0
M  V30 2365 C 240.863 1.82995 0.370076 0
M  V30 2366 C 241.214 1.06907 1.64515 0
M  V30 2367 O 240.339 0.315369 2.1409 0
M  V30 2368 C 240.934 3.31942 0.678208 0
M  V30 2369 C 239.493 3.58625 1.14301 0
M  V30 2370 C 238.64 2.76792 0.167778 0
M  V30 2371 H 241.591 1.54209 -0.374858 0
M  V30 2372 H 241.612 3.48272 1.53254 0
M  V30 2373 H 241.124 3.87294 -0.249991 0
M  V30 2374 H 239.225 3.08664 2.08704 0
M  V30 2375 H 239.338 4.67073 1.06676 0
M  V30 2376 H 237.702 2.45972 0.661037 0
M  V30 2377 H 238.485 3.34916 -0.754069 0
M  V30 2378 N 240.93 -0.123565 1.57115 0
M  V30 2379 C 242.178 -0.83051 1.84247 0
M  V30 2380 C 242.499 -1.80629 0.73471 0
M  V30 2381 O 241.769 -1.94403 -0.241688 0
M  V30 2382 H 240.349 -0.309694 0.679778 0
M  V30 2383 H 243.011 -0.111976 1.94578 0
M  V30 2384 H 242.107 -1.37852 2.80006 0
M  V30 2385 N 242.408 -1.52605 -0.393616 0
M  V30 2386 C 243.371 -1.76415 -1.46323 0
M  V30 2387 C 244.371 -0.634126 -1.47768 0
M  V30 2388 O 245.561 -0.902142 -1.4902 0
M  V30 2389 C 242.693 -1.8607 -2.85641 0
M  V30 2390 H 243.886 -2.71916 -1.26498 0
M  V30 2391 H 241.439 -1.43257 -0.625073 0
M  V30 2392 H 242.174 -0.925378 -3.10817 0
M  V30 2393 H 241.959 -2.68235 -2.85993 0
M  V30 2394 H 243.449 -2.06179 -3.63153 0
M  V30 2395 N 243.887 0.651787 -1.4349 0
M  V30 2396 C 244.819 1.77725 -1.44729 0
M  V30 2397 C 245.832 1.59141 -0.343231 0
M  V30 2398 O 247.021 1.67835 -0.607751 0
M  V30 2399 C 244.121 3.15172 -1.24579 0
M  V30 2400 C 243.294 3.60402 -2.47849 0
M  V30 2401 C 242.353 4.76656 -2.22902 0
M  V30 2402 O 241.379 4.86022 -2.96263 0
M  V30 2403 N 242.581 5.66958 -1.24656 0
M  V30 2404 H 245.346 1.77141 -2.41746 0
M  V30 2405 H 242.907 0.835678 -1.38665 0
M  V30 2406 H 244.899 3.90634 -1.0577 0
M  V30 2407 H 243.469 3.1052 -0.360015 0
M  V30 2408 H 242.689 2.75369 -2.82073 0
M  V30 2409 H 243.977 3.87368 -3.29884 0
M  V30 2410 H 243.375 5.62065 -0.640265 0
M  V30 2411 H 241.932 6.42135 -1.1183 0
M  V30 2412 N 245.365 1.30045 0.890287 0
M  V30 2413 C 246.776 1.16738 1.45702 0
M  V30 2414 C 247.127 -0.233939 1.948 0
M  V30 2415 O 246.252 -1.13021 1.84541 0
M  V30 2416 C 246.847 2.11313 2.64825 0
M  V30 2417 C 245.406 2.02001 3.17604 0
M  V30 2418 C 244.553 2.01699 1.90296 0
M  V30 2419 H 247.504 1.42392 0.700726 0
M  V30 2420 H 247.525 1.69086 3.40867 0
M  V30 2421 H 247.037 3.13294 2.2906 0
M  V30 2422 H 245.138 1.03142 3.5804 0
M  V30 2423 H 245.251 2.90128 3.81264 0
M  V30 2424 H 243.615 1.46427 2.08402 0
M  V30 2425 H 244.398 3.05402 1.56795 0
M  V30 2426 N 246.843 -1.10192 1.12674 0
M  V30 2427 C 247.775 -2.16418 0.754701 0
M  V30 2428 C 248.788 -1.61309 -0.21986 0
M  V30 2429 O 249.977 -1.785 -0.000826841 0
M  V30 2430 C 247.077 -3.38762 0.096698 0
M  V30 2431 C 246.25 -4.23307 1.10136 0
M  V30 2432 C 245.309 -5.24092 0.470513 0
M  V30 2433 O 244.335 -5.57906 1.12824 0
M  V30 2434 N 245.537 -5.75491 -0.760948 0
M  V30 2435 H 248.302 -2.48943 1.66875 0
M  V30 2436 H 245.863 -1.25834 1.01869 0
M  V30 2437 H 247.855 -4.03291 -0.337384 0
M  V30 2438 H 246.425 -3.04192 -0.720153 0
M  V30 2439 H 245.645 -3.55036 1.71299 0
M  V30 2440 H 246.933 -4.76624 1.78064 0
M  V30 2441 H 246.331 -5.50222 -1.31424 0
M  V30 2442 H 244.888 -6.41792 -1.13781 0
M  V30 2443 N 248.321 -0.919034 -1.28029 0
M  V30 2444 C 249.598 -0.473668 -1.89778 0
M  V30 2445 C 249.978 1.04783 -1.83259 0
M  V30 2446 O 249.326 1.8982 -1.27202 0
M  V30 2447 C 249.536 -1.00998 -3.34066 0
M  V30 2448 C 250.884 -1.06525 -4.1102 0
M  V30 2449 O 251.908 -0.958996 -3.43048 0
M  V30 2450 O 250.767 -1.22776 -5.3253 0
M  V30 2451 H 247.861 -0.15098 -0.813101 0
M  V30 2452 H 250.407 -1.01016 -1.36359 0
M  V30 2453 H 249.179 -2.05392 -3.33061 0
M  V30 2454 H 248.802 -0.454626 -3.94992 0
M  V30 2455 N 249.799 1.42003 -0.683588 0
M  V30 2456 C 250.747 2.326 0.000815408 0
M  V30 2457 C 251.741 1.50308 0.781278 0
M  V30 2458 O 252.947 1.66322 0.688251 0
M  V30 2459 H 249.322 0.751758 0.0190616 0
M  V30 2460 H 251.293 2.88011 -0.780528 0
M  V30 2461 C 250.042 3.34978 0.93195 0
M  V30 2462 H 249.365 3.98345 0.340817 0
M  V30 2463 H 250.805 4.00936 1.37936 0
M  V30 2464 C 249.264 2.67925 2.04249 0
M  V30 2465 O 249.794 2.51788 3.12995 0
M  V30 2466 N 248 2.2681 1.81675 0
M  V30 2467 H 247.547 2.40135 0.932363 0
M  V30 2468 H 247.505 1.8228 2.56167 0
M  V30 2469 N 251.277 0.427512 1.51691 0
M  V30 2470 C 252.187 -0.39527 2.31246 0
M  V30 2471 C 253.203 -1.03674 1.39742 0
M  V30 2472 O 254.379 -1.03425 1.72816 0
M  V30 2473 C 251.444 -1.48706 3.13189 0
M  V30 2474 C 250.505 -0.866743 4.20459 0
M  V30 2475 C 249.738 -1.90651 4.98486 0
M  V30 2476 O 249.961 -3.12733 4.77026 0
M  V30 2477 O 248.895 -1.5025 5.82845 0
M  V30 2478 H 252.721 0.253918 3.02637 0
M  V30 2479 H 250.306 0.190274 1.48183 0
M  V30 2480 H 252.188 -2.12047 3.64162 0
M  V30 2481 H 250.863 -2.12051 2.44573 0
M  V30 2482 H 249.77 -0.195544 3.73589 0
M  V30 2483 H 251.103 -0.276934 4.9142 0
M  V30 2484 N 252.755 -1.56801 0.158532 0
M  V30 2485 C 253.983 -2.00859 -0.496303 0
M  V30 2486 C 254.398 -1.03871 -1.57659 0
M  V30 2487 O 253.755 -0.0375165 -1.82461 0
M  V30 2488 C 253.806 -3.4479 -1.08638 0
M  V30 2489 O 253.527 -4.38072 -0.0492322 0
M  V30 2490 C 255.028 -4.04185 -1.8207 0
M  V30 2491 H 252.248 -0.65864 -0.128199 0
M  V30 2492 H 254.792 -2.02885 0.256506 0
M  V30 2493 H 252.947 -3.43579 -1.78975 0
M  V30 2494 H 253.361 -5.2227 -0.483102 0
M  V30 2495 H 254.835 -5.06857 -2.18633 0
M  V30 2496 H 255.312 -3.45549 -2.71095 0
M  V30 2497 H 255.918 -4.0906 -1.16405 0
M  V30 2498 N 254.233 0.115231 -1.57178 0
M  V30 2499 C 255.458 0.840354 -1.89612 0
M  V30 2500 C 255.883 1.72464 -0.750845 0
M  V30 2501 O 255.241 1.78826 0.298478 0
M  V30 2502 C 255.289 1.64654 -3.20814 0
M  V30 2503 O 254.393 2.7538 -3.06985 0
M  V30 2504 H 253.734 0.232158 -0.622092 0
M  V30 2505 H 256.264 0.0964977 -2.04372 0
M  V30 2506 H 256.274 2.03499 -3.53627 0
M  V30 2507 H 254.949 0.997416 -4.03763 0
M  V30 2508 H 253.526 2.3971 -2.85646 0
M  V30 2509 N 255.711 1.52812 0.385517 0
M  V30 2510 C 256.621 1.80766 1.49535 0
M  V30 2511 C 257.637 0.694651 1.59532 0
M  V30 2512 O 258.813 0.982611 1.75803 0
M  V30 2513 C 255.878 1.97381 2.85029 0
M  V30 2514 C 254.939 3.21295 2.84724 0
M  V30 2515 C 254.172 3.37108 4.13756 0
M  V30 2516 O 254.395 2.5765 5.08893 0
M  V30 2517 O 253.329 4.30378 4.20783 0
M  V30 2518 H 257.155 2.75015 1.28842 0
M  V30 2519 H 254.74 1.37946 0.573697 0
M  V30 2520 H 256.622 2.09996 3.65349 0
M  V30 2521 H 255.297 1.06322 3.05741 0
M  V30 2522 H 254.204 3.1412 2.03174 0
M  V30 2523 H 255.537 4.12212 2.68965 0
M  V30 2524 N 257.189 -0.644168 1.43834 0
M  V30 2525 C 258.437 -1.40117 1.45642 0
M  V30 2526 C 258.758 -1.94814 0.0852413 0
M  V30 2527 O 258.028 -1.74988 -0.880688 0
M  V30 2528 H 256.608 -0.52005 0.536243 0
M  V30 2529 H 259.27 -0.7591 1.7951 0
M  V30 2530 H 258.366 -2.23902 2.17427 0
M  V30 2531 N 258.668 -1.30515 -0.883378 0
M  V30 2532 C 259.893 -1.22487 -1.67367 0
M  V30 2533 C 260.318 0.208767 -1.86938 0
M  V30 2534 O 259.676 1.15015 -1.40148 0
M  V30 2535 C 259.724 -1.96041 -3.02655 0
M  V30 2536 O 258.828 -1.28859 -3.91751 0
M  V30 2537 H 258.169 -0.423573 -0.511353 0
M  V30 2538 H 260.699 -1.72362 -1.10239 0
M  V30 2539 H 260.709 -2.05124 -3.52687 0
M  V30 2540 H 259.384 -3.00307 -2.8773 0
M  V30 2541 H 257.961 -1.28141 -3.50192 0
M  V30 2542 N 260.146 1.09593 -1.13257 0
M  V30 2543 C 261.371 1.8604 -0.916732 0
M  V30 2544 C 261.796 1.80504 0.529146 0
M  V30 2545 O 261.154 1.18127 1.37534 0
M  V30 2546 C 261.202 3.32017 -1.40703 0
M  V30 2547 O 260.306 4.08141 -0.591153 0
M  V30 2548 H 259.647 0.576943 -0.328683 0
M  V30 2549 H 262.177 1.38405 -1.50682 0
M  V30 2550 H 262.187 3.82865 -1.4099 0
M  V30 2551 H 260.862 3.35361 -2.45979 0
M  V30 2552 H 259.439 3.67084 -0.656005 0
M  V30 2553 N 261.624 0.925811 1.2754 0
M  V30 2554 C 262.587 0.428129 2.25166 0
M  V30 2555 C 263.587 -0.452261 1.54309 0
M  V30 2556 O 264.777 -0.253608 1.72344 0
M  V30 2557 C 261.909 -0.384749 3.38722 0
M  V30 2558 H 263.102 1.29066 2.70706 0
M  V30 2559 H 260.655 0.706323 1.3943 0
M  V30 2560 H 261.39 -1.26618 2.98561 0
M  V30 2561 H 261.175 0.246454 3.91325 0
M  V30 2562 H 262.665 -0.723389 4.11287 0
M  V30 2563 N 263.102 -1.41638 0.69111 0
M  V30 2564 C 264.032 -2.3347 0.037248 0
M  V30 2565 C 265.013 -1.51575 -0.771947 0
M  V30 2566 O 266.198 -1.80126 -0.72582 0
M  V30 2567 C 263.328 -3.35354 -0.903064 0
M  V30 2568 C 262.282 -4.27526 -0.201288 0
M  V30 2569 C 261.608 -5.19747 -1.25565 0
M  V30 2570 C 262.908 -5.13959 0.929689 0
M  V30 2571 H 264.602 -2.88397 0.804227 0
M  V30 2572 H 262.148 -1.38669 0.388189 0
M  V30 2573 H 264.101 -3.98519 -1.36969 0
M  V30 2574 H 262.825 -2.78767 -1.70166 0
M  V30 2575 H 261.484 -3.65779 0.245265 0
M  V30 2576 H 261.132 -4.59479 -2.04666 0
M  V30 2577 H 260.832 -5.8225 -0.791128 0
M  V30 2578 H 262.356 -5.85789 -1.72288 0
M  V30 2579 H 263.77 -5.70718 0.543546 0
M  V30 2580 H 262.167 -5.85379 1.32103 0
M  V30 2581 H 263.237 -4.51389 1.77133 0
M  V30 2582 N 264.58 -0.43555 -1.51462 0
M  V30 2583 C 265.543 0.365137 -2.26273 0
M  V30 2584 C 266.543 0.951227 -1.29647 0
M  V30 2585 O 267.733 0.825958 -1.53374 0
M  V30 2586 C 264.865 1.51645 -3.05314 0
M  V30 2587 H 266.058 -0.290474 -2.9849 0
M  V30 2588 H 263.611 -0.188676 -1.55157 0
M  V30 2589 H 264.346 2.20816 -2.3751 0
M  V30 2590 H 264.131 1.10238 -3.76284 0
M  V30 2591 H 265.621 2.08218 -3.61987 0
M  V30 2592 N 266.058 1.56714 -0.166846 0
M  V30 2593 C 267.005 2.17746 0.765193 0
M  V30 2594 C 267.975 1.11614 1.23011 0
M  V30 2595 O 269.16 1.39745 1.29908 0
M  V30 2596 C 266.3 2.81882 1.9909 0
M  V30 2597 C 265.413 4.02462 1.56997 0
M  V30 2598 C 264.548 4.54537 2.749 0
M  V30 2599 C 263.587 5.67538 2.29275 0
M  V30 2600 N 262.724 6.14142 3.40255 0
M  V30 2601 H 267.564 2.97048 0.237952 0
M  V30 2602 H 265.101 1.4672 0.105725 0
M  V30 2603 H 267.059 3.17221 2.70974 0
M  V30 2604 H 265.689 2.05191 2.49192 0
M  V30 2605 H 264.741 3.72973 0.748037 0
M  V30 2606 H 266.053 4.84273 1.19503 0
M  V30 2607 H 265.207 4.92035 3.54946 0
M  V30 2608 H 263.946 3.71774 3.1565 0
M  V30 2609 H 262.951 5.29597 1.47674 0
M  V30 2610 H 264.176 6.52099 1.89588 0
M  V30 2611 H 262.122 5.3431 3.8059 0
M  V30 2612 H 262.039 6.9093 3.06841 0
M  V30 2613 H 263.307 6.56289 4.206 0
M  V30 2614 N 267.536 -0.106894 1.57237 0
M  V30 2615 C 268.484 -1.14944 2.02215 0
M  V30 2616 C 269.478 -1.42167 0.92114 0
M  V30 2617 O 270.684 -1.41987 1.10634 0
M  V30 2618 H 267.059 -0.387841 0.64427 0
M  V30 2619 H 269.03 -0.743683 2.88984 0
M  V30 2620 C 267.779 -2.4647 2.4525 0
M  V30 2621 H 267.102 -2.26363 3.29545 0
M  V30 2622 H 268.542 -3.17948 2.80508 0
M  V30 2623 C 267.001 -3.09921 1.321 0
M  V30 2624 O 267.531 -3.9651 0.643622 0
M  V30 2625 N 265.737 -2.69986 1.07497 0
M  V30 2626 H 265.284 -1.99667 1.62761 0
M  V30 2627 H 265.242 -3.12769 0.319876 0
M  V30 2628 N 269.014 -1.53014 -0.377408 0
M  V30 2629 C 269.944 -1.81589 -1.46791 0
M  V30 2630 C 270.925 -0.668622 -1.56408 0
M  V30 2631 O 272.11 -0.917337 -1.71168 0
M  V30 2632 C 269.24 -1.99519 -2.8427 0
M  V30 2633 C 268.194 -3.15249 -2.89486 0
M  V30 2634 C 267.52 -3.18451 -4.29527 0
M  V30 2635 C 268.82 -4.54084 -2.58079 0
M  V30 2636 H 270.514 -2.7291 -1.23127 0
M  V30 2637 H 268.06 -1.31319 -0.590883 0
M  V30 2638 H 270.013 -2.18092 -3.60575 0
M  V30 2639 H 268.737 -1.04897 -3.09296 0
M  V30 2640 H 267.396 -2.96477 -2.15631 0
M  V30 2641 H 267.044 -2.2149 -4.5161 0
M  V30 2642 H 266.744 -3.962 -4.33934 0
M  V30 2643 H 268.268 -3.39193 -5.07721 0
M  V30 2644 H 269.682 -4.72899 -3.24098 0
M  V30 2645 H 268.079 -5.33987 -2.7382 0
M  V30 2646 H 269.149 -4.60006 -1.53372 0
M  V30 2647 N 270.492 0.636531 -1.44174 0
M  V30 2648 C 271.72 1.42353 -1.50144 0
M  V30 2649 C 272.135 1.88389 -0.124575 0
M  V30 2650 O 271.492 1.6051 0.868489 0
M  V30 2651 C 271.543 2.64744 -2.46156 0
M  V30 2652 O 271.264 2.20629 -3.7849 0
M  V30 2653 C 272.765 3.57929 -2.61537 0
M  V30 2654 H 269.985 0.436752 -0.5094 0
M  V30 2655 H 272.529 0.778933 -1.89084 0
M  V30 2656 H 270.684 3.25307 -2.10366 0
M  V30 2657 H 271.098 2.99938 -4.30276 0
M  V30 2658 H 272.572 4.40428 -3.32757 0
M  V30 2659 H 273.049 4.06382 -1.66585 0
M  V30 2660 H 273.655 3.03238 -2.98206 0
M  V30 2661 N 271.97 1.30982 0.876444 0
M  V30 2662 C 273.381 1.18277 1.44456 0
M  V30 2663 C 273.732 -0.213265 1.95037 0
M  V30 2664 O 272.857 -1.11057 1.85729 0
M  V30 2665 C 273.452 2.1411 2.62569 0
M  V30 2666 C 272.011 2.05358 3.15444 0
M  V30 2667 C 271.158 2.03706 1.88146 0
M  V30 2668 H 274.109 1.43127 0.685584 0
M  V30 2669 H 274.13 1.72692 3.39054 0
M  V30 2670 H 273.642 3.15706 2.25724 0
M  V30 2671 H 271.743 1.06934 3.56926 0
M  V30 2672 H 271.856 2.94156 3.78166 0
M  V30 2673 H 270.22 1.48629 2.06837 0
M  V30 2674 H 271.003 3.07047 1.53547 0
M  V30 2675 N 273.449 -1.08991 1.13837 0
M  V30 2676 C 274.412 -2.13925 0.822715 0
M  V30 2677 C 275.412 -1.599 -0.1699 0
M  V30 2678 O 276.602 -1.74104 0.0577251 0
M  V30 2679 C 273.734 -3.40155 0.225318 0
M  V30 2680 H 274.927 -2.43358 1.75262 0
M  V30 2681 H 272.48 -1.24603 0.943594 0
M  V30 2682 H 273.215 -3.16352 -0.713594 0
M  V30 2683 H 273 -3.80661 0.940193 0
M  V30 2684 H 274.49 -4.17594 0.0214784 0
M  V30 2685 N 274.927 -0.932562 -1.27047 0
M  V30 2686 C 276.343 -0.633544 -1.46487 0
M  V30 2687 C 276.543 0.815746 -1.84249 0
M  V30 2688 O 275.599 1.59319 -1.95892 0
M  V30 2689 C 276.912 -1.58758 -2.55375 0
M  V30 2690 C 278.46 -1.59634 -2.69232 0
M  V30 2691 C 278.935 -2.53747 -3.81283 0
M  V30 2692 N 280.426 -2.51982 -3.88664 0
M  V30 2693 C 281.161 -3.21491 -4.74796 0
M  V30 2694 N 280.657 -4.00395 -5.65381 0
M  V30 2695 N 282.45 -3.10485 -4.68568 0
M  V30 2696 H 274.601 -1.86946 -1.00821 0
M  V30 2697 H 276.864 -0.802897 -0.504044 0
M  V30 2698 H 276.57 -2.62172 -2.34432 0
M  V30 2699 H 276.444 -1.33301 -3.52861 0
M  V30 2700 H 278.831 -0.569488 -2.89553 0
M  V30 2701 H 278.912 -1.89142 -1.72218 0
M  V30 2702 H 278.556 -3.56545 -3.61715 0
M  V30 2703 H 278.486 -2.21532 -4.77735 0
M  V30 2704 H 280.977 -1.94681 -3.23895 0
M  V30 2705 H 281.29 -4.50406 -6.27976 0
M  V30 2706 H 279.635 -4.04498 -5.65161 0
M  V30 2707 H 282.826 -2.48331 -3.96799 0
M  V30 2708 H 282.999 -3.64925 -5.35475 0
M  V30 2709 N 276.405 1.4127 -0.698611 0
M  V30 2710 C 277.335 2.33447 -0.049629 0
M  V30 2711 C 278.316 1.51982 0.763898 0
M  V30 2712 O 279.501 1.80509 0.716257 0
M  V30 2713 C 276.631 3.35828 0.885267 0
M  V30 2714 C 275.585 4.27627 0.178613 0
M  V30 2715 C 274.911 5.20406 1.22807 0
M  V30 2716 C 276.211 5.13459 -0.956933 0
M  V30 2717 H 277.905 2.87966 -0.81951 0
M  V30 2718 H 275.451 1.38461 -0.395538 0
M  V30 2719 H 277.404 3.9924 1.34854 0
M  V30 2720 H 276.128 2.79666 1.68685 0
M  V30 2721 H 274.787 3.65643 -0.26466 0
M  V30 2722 H 274.435 4.60558 2.02226 0
M  V30 2723 H 274.135 5.82661 0.760239 0
M  V30 2724 H 275.659 5.86695 1.69179 0
M  V30 2725 H 277.073 5.70421 -0.573805 0
M  V30 2726 H 275.47 5.8467 -1.35205 0
M  V30 2727 H 276.54 4.50443 -1.79524 0
M  V30 2728 N 277.883 0.443576 1.51229 0
M  V30 2729 C 278.83 -0.364716 2.279 0
M  V30 2730 C 279.8 -1.0114 1.31757 0
M  V30 2731 O 280.985 -1.02912 1.60667 0
M  V30 2732 C 278.125 -1.45644 3.12861 0
M  V30 2733 C 277.238 -0.827269 4.24005 0
M  V30 2734 C 276.373 -1.89456 4.96266 0
M  V30 2735 C 275.412 -1.24416 5.99322 0
M  V30 2736 N 274.549 -2.25309 6.64966 0
M  V30 2737 H 279.389 0.295464 2.96532 0
M  V30 2738 H 276.926 0.157554 1.46254 0
M  V30 2739 H 278.884 -2.10076 3.6045 0
M  V30 2740 H 277.514 -2.08616 2.46331 0
M  V30 2741 H 276.566 -0.0710839 3.80334 0
M  V30 2742 H 277.878 -0.312481 4.9782 0
M  V30 2743 H 277.032 -2.61535 5.47434 0
M  V30 2744 H 275.771 -2.4431 4.22095 0
M  V30 2745 H 274.776 -0.508868 5.4744 0
M  V30 2746 H 276.001 -0.702882 6.75453 0
M  V30 2747 H 273.947 -2.79231 5.93604 0
M  V30 2748 H 273.864 -1.78739 7.34567 0
M  V30 2749 H 275.132 -2.96853 7.20763 0
M  V30 2750 N 279.361 -1.56624 0.175154 0
M  V30 2751 C 280.324 -2.16934 -0.739738 0
M  V30 2752 C 281.324 -1.11842 -1.15533 0
M  V30 2753 O 282.514 -1.37335 -1.07167 0
M  V30 2754 C 279.646 -2.75531 -2.00738 0
M  V30 2755 H 280.839 -2.99131 -0.214639 0
M  V30 2756 H 278.392 -1.56123 -0.0744197 0
M  V30 2757 H 279.127 -1.97078 -2.57548 0
M  V30 2758 H 278.912 -3.52444 -1.71831 0
M  V30 2759 H 280.402 -3.21904 -2.66021 0
M  V30 2760 N 280.839 0.0985539 -1.57292 0
M  V30 2761 C 282.064 0.820196 -1.90493 0
M  V30 2762 C 282.489 1.71658 -0.769094 0
M  V30 2763 O 281.847 1.79133 0.279495 0
M  V30 2764 C 281.895 1.61242 -3.22542 0
M  V30 2765 O 280.999 2.72108 -3.09888 0
M  V30 2766 H 280.34 0.225547 -0.62452 0
M  V30 2767 H 282.87 0.0748159 -2.04463 0
M  V30 2768 H 282.88 1.99737 -3.55766 0
M  V30 2769 H 281.555 0.954535 -4.04798 0
M  V30 2770 H 280.132 2.36667 -2.88172 0
M  V30 2771 N 282.317 1.53212 0.369288 0
M  V30 2772 C 283.733 1.42902 0.710712 0
M  V30 2773 C 283.933 0.565135 1.93413 0
M  V30 2774 O 282.989 0.0461484 2.52458 0
M  V30 2775 C 284.302 2.86042 0.927382 0
M  V30 2776 C 285.85 2.9565 1.02762 0
M  V30 2777 C 286.325 4.39843 1.27679 0
M  V30 2778 N 287.816 4.43256 1.34457 0
M  V30 2779 C 288.551 5.51929 1.55439 0
M  V30 2780 N 288.047 6.70655 1.73762 0
M  V30 2781 N 289.84 5.39502 1.57779 0
M  V30 2782 H 281.991 2.07888 -0.435457 0
M  V30 2783 H 284.254 0.938661 -0.132739 0
M  V30 2784 H 283.96 3.51557 0.100287 0
M  V30 2785 H 283.834 3.29472 1.83653 0
M  V30 2786 H 286.221 2.30291 1.84527 0
M  V30 2787 H 286.302 2.5562 0.0959504 0
M  V30 2788 H 285.946 5.05774 0.464175 0
M  V30 2789 H 285.876 4.77443 2.22162 0
M  V30 2790 H 288.367 3.5769 1.21926 0
M  V30 2791 H 288.68 7.49248 1.89335 0
M  V30 2792 H 287.025 6.73648 1.70948 0
M  V30 2793 H 290.216 4.45713 1.43029 0
M  V30 2794 H 290.389 6.2426 1.7379 0
M  V30 2795 N 283.795 -0.628877 1.44509 0
M  V30 2796 C 284.758 -1.72263 1.51188 0
M  V30 2797 C 285.758 -1.55907 0.39367 0
M  V30 2798 O 286.948 -1.61361 0.656377 0
M  V30 2799 C 284.08 -3.11365 1.38798 0
M  V30 2800 H 285.273 -1.67714 2.4862 0
M  V30 2801 H 282.826 -0.842737 1.31634 0
M  V30 2802 H 283.561 -3.21507 0.424693 0
M  V30 2803 H 283.346 -3.24644 2.19884 0
M  V30 2804 H 284.836 -3.91075 1.46458 0
M  V30 2805 N 285.273 -1.31445 -0.869486 0
M  V30 2806 C 286.521 -1.20918 -1.61936 0
M  V30 2807 C 286.842 0.232683 -1.93607 0
M  V30 2808 O 286.112 1.15352 -1.58338 0
M  V30 2809 H 284.692 -0.44454 -0.600328 0
M  V30 2810 H 287.354 -1.64776 -1.0409 0
M  V30 2811 H 286.45 -1.78124 -2.56278 0
M  V30 2812 N 286.751 1.08385 -1.14413 0
M  V30 2813 C 287.997 1.81044 -0.913834 0
M  V30 2814 C 288.33 1.86004 0.558209 0
M  V30 2815 O 287.605 1.33606 1.4135 0
M  V30 2816 C 287.888 3.26648 -1.51569 0
M  V30 2817 C 287.741 3.29895 -3.0576 0
M  V30 2818 C 289.06 4.23629 -1.19273 0
M  V30 2819 H 286.179 0.65727 -0.333414 0
M  V30 2820 H 288.821 1.26896 -1.41412 0
M  V30 2821 H 286.971 3.72889 -1.09023 0
M  V30 2822 H 288.643 2.91977 -3.57137 0
M  V30 2823 H 286.886 2.69163 -3.40197 0
M  V30 2824 H 287.557 4.32516 -3.42977 0
M  V30 2825 H 290.033 3.85727 -1.56057 0
M  V30 2826 H 288.909 5.23822 -1.64017 0
M  V30 2827 H 289.17 4.41968 -0.108068 0
M  V30 2828 N 288.23 0.939286 1.26551 0
M  V30 2829 C 289.163 0.391702 2.24813 0
M  V30 2830 C 290.141 -0.518421 1.54114 0
M  V30 2831 O 291.325 -0.456299 1.82894 0
M  V30 2832 C 288.452 -0.437382 3.35864 0
M  V30 2833 C 287.498 0.410946 4.24516 0
M  V30 2834 S 288.331 1.83372 5.03125 0
M  V30 2835 C 289.487 1.01264 6.17654 0
M  V30 2836 H 289.72 1.22448 2.70913 0
M  V30 2837 H 287.253 0.742269 1.35387 0
M  V30 2838 H 289.211 -0.909837 4.0029 0
M  V30 2839 H 287.872 -1.24482 2.8838 0
M  V30 2840 H 287.065 -0.224191 5.03501 0
M  V30 2841 H 286.667 0.818014 3.64945 0
M  V30 2842 H 288.959 0.254023 6.77024 0
M  V30 2843 H 289.902 1.77589 6.85469 0
M  V30 2844 H 290.31 0.549532 5.61819 0
M  V30 2845 N 289.708 -1.40897 0.706093 0
M  V30 2846 C 290.671 -2.29131 0.0562841 0
M  V30 2847 C 291.671 -1.44901 -0.697166 0
M  V30 2848 O 292.861 -1.65926 -0.530484 0
M  V30 2849 C 289.993 -3.27957 -0.93043 0
M  V30 2850 H 291.186 -2.88091 0.833284 0
M  V30 2851 H 288.739 -1.4906 0.470192 0
M  V30 2852 H 289.474 -2.73997 -1.73482 0
M  V30 2853 H 289.259 -3.90124 -0.393166 0
M  V30 2854 H 290.749 -3.94049 -1.38256 0
M  V30 2855 N 291.186 -0.45159 -1.50991 0
M  V30 2856 C 292.134 0.366864 -2.29689 0
M  V30 2857 C 293.128 1.00809 -1.36139 0
M  V30 2858 O 294.334 0.941427 -1.53418 0
M  V30 2859 H 290.709 0.137133 -0.739391 0
M  V30 2860 H 292.68 -0.317538 -2.96706 0
M  V30 2861 C 291.429 1.44751 -3.16137 0
M  V30 2862 H 290.752 0.963473 -3.88017 0
M  V30 2863 H 292.192 1.99315 -3.74232 0
M  V30 2864 C 290.651 2.43869 -2.32442 0
M  V30 2865 O 291.181 3.4872 -1.99392 0
M  V30 2866 N 289.387 2.15105 -1.95392 0
M  V30 2867 H 288.934 1.29866 -2.22469 0
M  V30 2868 H 288.892 2.81661 -1.39693 0
M  V30 2869 N 292.664 1.56529 -0.183458 0
M  V30 2870 C 294.075 1.83739 0.331177 0
M  V30 2871 C 294.426 1.10373 1.62211 0
M  V30 2872 O 293.551 0.36071 2.13373 0
M  V30 2873 C 294.146 3.33306 0.607646 0
M  V30 2874 C 292.705 3.60969 1.06668 0
M  V30 2875 C 291.852 2.77086 0.109029 0
M  V30 2876 H 294.803 1.53379 -0.407484 0
M  V30 2877 H 294.824 3.51444 1.45832 0
M  V30 2878 H 294.336 3.86677 -0.332086 0
M  V30 2879 H 292.437 3.13021 2.0211 0
M  V30 2880 H 292.55 4.69231 0.967447 0
M  V30 2881 H 290.914 2.47319 0.608714 0
M  V30 2882 H 291.697 3.33241 -0.82494 0
M  V30 2883 N 294.142 -0.090211 1.57342 0
M  V30 2884 C 295.367 -0.810082 1.90925 0
M  V30 2885 C 295.792 -1.71248 0.778187 0
M  V30 2886 O 295.15 -1.79278 -0.269991 0
M  V30 2887 C 295.198 -1.59529 3.23393 0
M  V30 2888 O 294.302 -2.70461 3.11327 0
M  V30 2889 H 293.643 -0.222231 0.625707 0
M  V30 2890 H 296.173 -0.0639716 2.045 0
M  V30 2891 H 296.183 -1.97847 3.5682 0
M  V30 2892 H 294.858 -0.933055 4.05299 0
M  V30 2893 H 293.435 -2.35135 2.89423 0
M  V30 2894 N 295.62 -1.53406 -0.361157 0
M  V30 2895 C 296.55 -1.83136 -1.44857 0
M  V30 2896 C 297.531 -0.685174 -1.5569 0
M  V30 2897 O 298.716 -0.93544 -1.70186 0
M  V30 2898 C 295.846 -2.02522 -2.82138 0
M  V30 2899 C 294.8 -3.18302 -2.86126 0
M  V30 2900 C 294.126 -3.22989 -4.26125 0
M  V30 2901 C 295.426 -4.56796 -2.53248 0
M  V30 2902 H 297.12 -2.74201 -1.20226 0
M  V30 2903 H 294.666 -1.31938 -0.576922 0
M  V30 2904 H 296.619 -2.21904 -3.58241 0
M  V30 2905 H 295.343 -1.08172 -3.08166 0
M  V30 2906 H 294.002 -2.98747 -2.12475 0
M  V30 2907 H 293.65 -2.26267 -4.49235 0
M  V30 2908 H 293.35 -4.00781 -4.29708 0
M  V30 2909 H 294.874 -3.44559 -5.04094 0
M  V30 2910 H 296.288 -4.7631 -3.19064 0
M  V30 2911 H 294.685 -5.36862 -2.68141 0
M  V30 2912 H 295.755 -4.61606 -1.48484 0
M  V30 2913 N 297.098 0.621204 -1.44841 0
M  V30 2914 C 298.326 1.40752 -1.51646 0
M  V30 2915 C 298.741 1.88246 -0.144549 0
M  V30 2916 O 298.098 1.61422 0.851416 0
M  V30 2917 C 298.149 2.62119 -2.4895 0
M  V30 2918 O 297.87 2.16602 -3.80808 0
M  V30 2919 C 299.371 3.55135 -2.65319 0
M  V30 2920 H 296.591 0.431325 -0.514004 0
M  V30 2921 H 299.135 0.758835 -1.899 0
M  V30 2922 H 297.29 3.23058 -2.13805 0
M  V30 2923 H 297.704 2.95358 -4.33433 0
M  V30 2924 H 299.178 4.36874 -3.37409 0
M  V30 2925 H 299.655 4.04592 -1.70886 0
M  V30 2926 H 300.261 3.00058 -3.01405 0
M  V30 2927 N 298.576 1.31904 0.862503 0
M  V30 2928 C 299.822 1.22197 1.61851 0
M  V30 2929 C 300.155 -0.217641 1.92977 0
M  V30 2930 O 299.43 -1.15264 1.56666 0
M  V30 2931 C 299.713 2.07378 2.94391 0
M  V30 2932 C 299.566 3.59678 2.70096 0
M  V30 2933 C 300.885 1.92891 3.95577 0
M  V30 2934 H 298.004 0.445255 0.587296 0
M  V30 2935 H 300.646 1.6177 0.99651 0
M  V30 2936 H 298.796 1.73758 3.47477 0
M  V30 2937 H 300.468 4.03472 2.23625 0
M  V30 2938 H 298.711 3.82735 2.04197 0
M  V30 2939 H 299.382 4.14595 3.64438 0
M  V30 2940 H 301.858 2.22327 3.51724 0
M  V30 2941 H 300.734 2.54781 4.86187 0
M  V30 2942 H 300.995 0.894315 4.3296 0
M  V30 2943 N 300.054 -1.07777 1.14986 0
M  V30 2944 C 301.465 -1.61766 0.932127 0
M  V30 2945 C 301.816 -1.88974 -0.527581 0
M  V30 2946 O 300.941 -1.65198 -1.39781 0
M  V30 2947 C 301.536 -2.93891 1.68563 0
M  V30 2948 C 300.095 -3.44639 1.5133 0
M  V30 2949 C 299.242 -2.18767 1.704 0
M  V30 2950 H 302.193 -0.909201 1.30074 0
M  V30 2951 H 302.214 -3.62623 1.15259 0
M  V30 2952 H 301.726 -2.74057 2.74799 0
M  V30 2953 H 299.827 -3.69564 0.474702 0
M  V30 2954 H 299.94 -4.20966 2.28746 0
M  V30 2955 H 298.304 -2.28253 1.13016 0
M  V30 2956 H 299.087 -2.01433 2.77992 0
M  V30 2957 N 301.532 -0.945985 -1.26051 0
M  V30 2958 C 302.479 -0.45809 -2.26208 0
M  V30 2959 C 303.449 0.484816 -1.58867 0
M  V30 2960 O 304.634 0.399969 -1.86561 0
M  V30 2961 C 301.774 0.266131 -3.44072 0
M  V30 2962 C 300.887 -0.713005 -4.26075 0
M  V30 2963 C 300.022 0.0329013 -5.3119 0
M  V30 2964 C 299.061 -0.93774 -6.04874 0
M  V30 2965 N 298.198 -0.223274 -7.01745 0
M  V30 2966 H 303.038 -1.3171 -2.67313 0
M  V30 2967 H 300.575 -0.66069 -1.31428 0
M  V30 2968 H 302.533 0.702514 -4.11243 0
M  V30 2969 H 301.163 1.08925 -3.03867 0
M  V30 2970 H 300.215 -1.26789 -3.58648 0
M  V30 2971 H 301.527 -1.45406 -4.77136 0
M  V30 2972 H 300.681 0.528335 -6.04395 0
M  V30 2973 H 299.42 0.806801 -4.8098 0
M  V30 2974 H 298.425 -1.44425 -5.30492 0
M  V30 2975 H 299.65 -1.71172 -6.57173 0
M  V30 2976 H 297.596 0.532046 -6.53839 0
M  V30 2977 H 297.513 -0.90357 -7.50581 0
M  V30 2978 H 298.781 0.250907 -7.79096 0
M  V30 2979 N 303.011 1.40521 -0.713556 0
M  V30 2980 C 304.259 2.00527 -0.251692 0
M  V30 2981 C 304.58 1.56857 1.15848 0
M  V30 2982 O 303.85 0.807127 1.785 0
M  V30 2983 H 302.43 0.741551 -0.0900646 0
M  V30 2984 H 305.092 1.71887 -0.918733 0
M  V30 2985 H 304.188 3.10813 -0.283192 0
M  V30 2986 N 304.489 0.459591 1.5075 0
M  V30 2987 C 305.436 -0.340524 2.28274 0
M  V30 2988 C 306.406 -0.997371 1.32822 0
M  V30 2989 O 307.591 -1.01202 1.61749 0
M  V30 2990 C 304.731 -1.42317 3.14388 0
M  V30 2991 C 303.844 -0.782251 4.24859 0
M  V30 2992 C 302.979 -1.84182 4.98247 0
M  V30 2993 C 302.018 -1.18053 6.00608 0
M  V30 2994 N 301.155 -2.18244 6.67319 0
M  V30 2995 H 305.995 0.326899 2.96202 0
M  V30 2996 H 303.532 0.173057 1.46078 0
M  V30 2997 H 305.49 -2.06241 3.62658 0
M  V30 2998 H 304.12 -2.05992 2.4853 0
M  V30 2999 H 303.172 -0.0307404 3.80388 0
M  V30 3000 H 304.484 -0.259663 4.98124 0
M  V30 3001 H 303.638 -2.55714 5.50177 0
M  V30 3002 H 302.377 -2.39819 4.24662 0
M  V30 3003 H 301.382 -0.450776 5.47949 0
M  V30 3004 H 302.607 -0.631202 6.7616 0
M  V30 3005 H 300.553 -2.72919 5.96533 0
M  V30 3006 H 300.47 -1.70938 7.36421 0
M  V30 3007 H 301.738 -2.89191 7.23871 0
M  V30 3008 N 305.967 -1.56429 0.191757 0
M  V30 3009 C 306.9 -2.14829 -0.76967 0
M  V30 3010 C 307.878 -1.08405 -1.2119 0
M  V30 3011 O 309.062 -1.36498 -1.30002 0
M  V30 3012 C 306.189 -2.70446 -2.03903 0
M  V30 3013 C 305.235 -3.89428 -1.7392 0
M  V30 3014 S 306.068 -5.28048 -0.890265 0
M  V30 3015 C 307.224 -5.87085 -2.16984 0
M  V30 3016 H 307.457 -2.96042 -0.273204 0
M  V30 3017 H 304.99 -1.54383 -0.0231975 0
M  V30 3018 H 306.948 -3.03134 -2.76803 0
M  V30 3019 H 305.609 -1.89281 -2.50662 0
M  V30 3020 H 304.802 -4.26742 -2.68155 0
M  V30 3021 H 304.404 -3.57732 -1.09103 0
M  V30 3022 H 306.696 -6.01244 -3.12269 0
M  V30 3023 H 307.639 -6.83747 -1.84108 0
M  V30 3024 H 308.047 -5.15663 -2.29678 0
M  V30 3025 N 307.445 0.0818655 -1.57387 0
M  V30 3026 C 308.694 0.781681 -1.85937 0
M  V30 3027 C 309.007 1.79246 -0.782957 0
M  V30 3028 O 310.213 2.54112 -0.955987 0
M  V30 3029 C 308.669 1.44109 -3.29789 0
M  V30 3030 C 308.277 0.469396 -4.45534 0
M  V30 3031 C 310.021 2.12386 -3.67549 0
M  V30 3032 C 307.928 1.13415 -5.80423 0
M  V30 3033 H 306.858 0.295682 -0.693605 0
M  V30 3034 H 309.509 0.0348051 -1.83467 0
M  V30 3035 H 307.891 2.23588 -3.2684 0
M  V30 3036 H 309.065 -0.294856 -4.59856 0
M  V30 3037 H 307.38 -0.108383 -4.16259 0
M  V30 3038 H 309.977 2.62878 -4.65617 0
M  V30 3039 H 310.32 2.91877 -2.96839 0
M  V30 3040 H 310.853 1.39751 -3.72444 0
M  V30 3041 H 307.592 0.379771 -6.54399 0
M  V30 3042 H 307.112 1.8695 -5.69921 0
M  V30 3043 H 308.791 1.65686 -6.25426 0
M  V30 3044 N 308.923 1.53595 0.353017 0
M  V30 3045 C 310.334 1.61937 0.929153 0
M  V30 3046 C 310.685 0.494686 1.89861 0
M  V30 3047 O 309.81 -0.377017 2.1309 0
M  V30 3048 C 310.405 2.93526 1.69199 0
M  V30 3049 C 308.964 3.04161 2.21727 0
M  V30 3050 C 308.111 2.57322 1.03348 0
M  V30 3051 H 311.062 1.58155 0.131431 0
M  V30 3052 H 311.083 2.82034 2.55416 0
M  V30 3053 H 310.595 3.75362 0.986144 0
M  V30 3054 H 308.696 2.26938 2.95516 0
M  V30 3055 H 308.809 4.09465 2.48748 0
M  V30 3056 H 307.173 2.12499 1.40414 0
M  V30 3057 H 307.956 3.41588 0.342428 0
M  V30 3058 N 310.401 -0.613514 1.45168 0
M  V30 3059 C 311.641 -1.38405 1.5041 0
M  V30 3060 C 312.005 -1.91489 0.139922 0
M  V30 3061 O 313.206 -2.68716 0.067033 0
M  V30 3062 C 311.477 -2.50552 2.5487 0
M  V30 3063 S 313.036 -3.38439 2.79292 0
M  V30 3064 H 309.854 -0.471945 0.531779 0
M  V30 3065 H 312.456 -0.708518 1.82209 0
M  V30 3066 H 311.16 -2.09894 3.52665 0
M  V30 3067 H 310.691 -3.22913 2.24701 0
M  V30 3068 H 312.706 -4.48527 2.12222 0
M  V30 3069 N 311.879 -1.3236 -0.855495 0
M  V30 3070 C 313.127 -1.22629 -1.60644 0
M  V30 3071 C 313.448 0.212136 -1.93843 0
M  V30 3072 O 312.718 1.13666 -1.59552 0
M  V30 3073 H 311.298 -0.450882 -0.595579 0
M  V30 3074 H 313.96 -1.65871 -1.02337 0
M  V30 3075 H 313.056 -1.80832 -2.54374 0
M  V30 3076 N 313.357 1.07166 -1.15556 0
M  V30 3077 C 314.585 1.83514 -0.955519 0
M  V30 3078 C 315 1.82163 0.49621 0
M  V30 3079 O 314.357 1.23441 1.34419 0
M  V30 3080 C 314.408 3.30515 -1.46432 0
M  V30 3081 O 314.129 3.31937 -2.85918 0
M  V30 3082 C 315.63 4.23625 -1.30603 0
M  V30 3083 H 312.85 0.578926 -0.339244 0
M  V30 3084 H 315.394 1.35265 -1.53374 0
M  V30 3085 H 313.549 3.76106 -0.928584 0
M  V30 3086 H 313.963 4.23794 -3.09029 0
M  V30 3087 H 315.437 5.24831 -1.71047 0
M  V30 3088 H 315.914 4.38485 -0.250441 0
M  V30 3089 H 316.52 3.83871 -1.83094 0
M  V30 3090 N 314.835 0.952656 1.25548 0
M  V30 3091 C 316.083 0.605176 1.92826 0
M  V30 3092 C 316.404 -0.860261 1.74999 0
M  V30 3093 O 315.674 -1.6125 1.11244 0
M  V30 3094 H 314.254 0.220832 0.713612 0
M  V30 3095 H 316.916 1.21047 1.52754 0
M  V30 3096 H 316.012 0.832798 3.00784 0
M  V30 3097 N 316.313 -1.40141 0.720998 0
M  V30 3098 C 317.541 -2.05096 0.272656 0
M  V30 3099 C 317.956 -1.54334 -1.0875 0
M  V30 3100 O 317.313 -0.702211 -1.6845 0
M  V30 3101 C 317.364 -3.60636 0.249835 0
M  V30 3102 O 317.085 -4.09526 1.55629 0
M  V30 3103 C 318.586 -4.42772 -0.216396 0
M  V30 3104 H 315.806 -0.659897 0.121558 0
M  V30 3105 H 318.35 -1.79449 0.980723 0
M  V30 3106 H 316.505 -3.85232 -0.409237 0
M  V30 3107 H 316.919 -5.03758 1.4604 0
M  V30 3108 H 318.393 -5.51702 -0.181212 0
M  V30 3109 H 318.87 -4.20756 -1.25941 0
M  V30 3110 H 319.476 -4.23294 0.412596 0
M  V30 3111 N 317.792 -0.46758 -1.50504 0
M  V30 3112 C 318.702 0.33382 -2.32213 0
M  V30 3113 C 319.718 0.999323 -1.42441 0
M  V30 3114 O 320.894 0.988068 -1.75497 0
M  V30 3115 C 317.959 1.4035 -3.17022 0
M  V30 3116 C 317.02 0.754961 -4.2261 0
M  V30 3117 C 316.253 1.77367 -5.03365 0
M  V30 3118 O 316.476 2.99976 -4.8515 0
M  V30 3119 O 315.41 1.34744 -5.86624 0
M  V30 3120 H 319.236 -0.334067 -3.01857 0
M  V30 3121 H 316.821 -0.229496 -1.47627 0
M  V30 3122 H 318.703 2.02318 -3.69656 0
M  V30 3123 H 317.378 2.05492 -2.5011 0
M  V30 3124 H 316.285 0.0964244 -3.73976 0
M  V30 3125 H 317.618 0.146545 -4.91982 0
M  V30 3126 N 319.27 1.56325 -0.20005 0
M  V30 3127 C 320.2 2.22318 0.713916 0
M  V30 3128 C 321.181 1.18788 1.21752 0
M  V30 3129 O 322.366 1.47309 1.26545 0
M  V30 3130 C 319.496 2.88639 1.93144 0
M  V30 3131 C 318.45 3.98457 1.56255 0
M  V30 3132 C 317.776 4.51967 2.85709 0
M  V30 3133 C 319.076 5.16612 0.768747 0
M  V30 3134 H 320.77 2.98952 0.163755 0
M  V30 3135 H 318.316 1.43792 0.0773219 0
M  V30 3136 H 320.269 3.33491 2.57608 0
M  V30 3137 H 318.993 2.09419 2.50621 0
M  V30 3138 H 317.652 3.54305 0.941471 0
M  V30 3139 H 317.3 3.69503 3.41287 0
M  V30 3140 H 317 5.26071 2.6177 0
M  V30 3141 H 318.524 4.99523 3.51154 0
M  V30 3142 H 319.938 5.57977 1.3166 0
M  V30 3143 H 318.335 5.96812 0.627286 0
M  V30 3144 H 319.405 4.84358 -0.229168 0
M  V30 3145 N 320.748 -0.0735177 1.57428 0
M  V30 3146 C 322.025 -0.805903 1.78226 0
M  V30 3147 C 322.405 -1.95874 0.787189 0
M  V30 3148 O 321.753 -2.2779 -0.180029 0
M  V30 3149 C 321.963 -1.28045 3.24662 0
M  V30 3150 C 323.311 -1.71453 3.88444 0
M  V30 3151 O 324.335 -1.37616 3.28543 0
M  V30 3152 O 323.194 -2.34093 4.93825 0
M  V30 3153 H 320.288 -0.386041 0.73137 0
M  V30 3154 H 322.834 -0.0537269 1.69615 0
M  V30 3155 H 321.606 -0.455476 3.8864 0
M  V30 3156 H 321.229 -2.094 3.37991 0
M  V30 3157 N 322.226 -1.5378 -0.344866 0
M  V30 3158 C 323.454 -1.74899 -1.10534 0
M  V30 3159 C 323.869 -0.487534 -1.82397 0
M  V30 3160 O 323.226 0.540741 -1.74305 0
M  V30 3161 C 323.277 -2.92822 -2.11984 0
M  V30 3162 O 322.998 -4.14089 -1.43044 0
M  V30 3163 C 324.499 -3.25982 -3.00417 0
M  V30 3164 H 321.719 -0.584426 -0.329678 0
M  V30 3165 H 324.263 -2.006 -0.397474 0
M  V30 3166 H 322.418 -2.69457 -2.78338 0
M  V30 3167 H 322.832 -4.80272 -2.10805 0
M  V30 3168 H 324.306 -4.11848 -3.67539 0
M  V30 3169 H 324.783 -2.42228 -3.66363 0
M  V30 3170 H 325.389 -3.51349 -2.39654 0
M  V30 3171 N 323.704 0.605807 -1.45491 0
M  V30 3172 C 324.932 1.39136 -1.5313 0
M  V30 3173 C 325.347 1.88082 -0.164507 0
M  V30 3174 O 324.704 1.62316 0.834247 0
M  V30 3175 C 324.755 2.59463 -2.51716 0
M  V30 3176 O 324.476 2.12551 -3.83084 0
M  V30 3177 C 325.977 3.52301 -2.6907 0
M  V30 3178 H 323.197 0.425849 -0.51855 0
M  V30 3179 H 325.741 0.73865 -1.90694 0
M  V30 3180 H 323.896 3.20772 -2.17219 0
M  V30 3181 H 324.31 2.90744 -4.36541 0
M  V30 3182 H 325.784 4.33271 -3.42024 0
M  V30 3183 H 326.261 4.02757 -1.75167 0
M  V30 3184 H 326.867 2.96845 -3.04571 0
M  V30 3185 N 325.182 1.32811 0.848464 0
M  V30 3186 C 326.428 1.23907 1.60546 0
M  V30 3187 C 326.761 -0.197161 1.93197 0
M  V30 3188 O 326.036 -1.13596 1.5788 0
M  V30 3189 C 326.319 2.10489 2.92175 0
M  V30 3190 C 326.172 3.62522 2.66266 0
M  V30 3191 C 327.491 1.97075 3.93509 0
M  V30 3192 H 324.61 0.451459 0.58254 0
M  V30 3193 H 327.252 1.62818 0.979296 0
M  V30 3194 H 325.402 1.77434 3.45614 0
M  V30 3195 H 327.074 4.05821 2.19334 0
M  V30 3196 H 325.317 3.84879 2.00126 0
M  V30 3197 H 325.988 4.18437 3.6002 0
M  V30 3198 H 328.464 2.26045 3.49346 0
M  V30 3199 H 327.34 2.59923 4.83457 0
M  V30 3200 H 327.601 0.940186 4.31987 0
M  V30 3201 N 326.66 -1.06551 1.16123 0
M  V30 3202 C 328.071 -1.60768 0.949232 0
M  V30 3203 C 328.422 -1.89523 -0.507508 0
M  V30 3204 O 327.547 -1.66671 -1.38021 0
M  V30 3205 C 328.142 -2.92086 1.71671 0
M  V30 3206 C 326.701 -3.43015 1.54977 0
M  V30 3207 C 325.848 -2.16947 1.72711 0
M  V30 3208 H 328.799 -0.895354 1.31031 0
M  V30 3209 H 328.82 -3.6138 1.19099 0
M  V30 3210 H 328.332 -2.71127 2.7769 0
M  V30 3211 H 326.433 -3.69039 0.513873 0
M  V30 3212 H 326.546 -4.18516 2.33198 0
M  V30 3213 H 324.91 -2.27041 1.15431 0
M  V30 3214 H 325.693 -1.98473 2.80113 0
M  V30 3215 N 328.138 -0.959301 -1.25041 0
M  V30 3216 C 329.386 -0.615393 -1.92503 0
M  V30 3217 C 329.707 0.850969 -1.75452 0
M  V30 3218 O 328.977 1.60658 -1.12098 0
M  V30 3219 H 327.557 -0.224613 -0.712431 0
M  V30 3220 H 330.219 -1.21855 -1.5211 0
M  V30 3221 H 329.315 -0.848738 -3.00338 0
M  V30 3222 N 329.616 1.39756 -0.72842 0
M  V30 3223 C 330.548 2.29157 -0.0446202 0
M  V30 3224 C 331.561 1.46484 0.710367 0
M  V30 3225 O 332.75 1.69632 0.55562 0
M  V30 3226 C 329.85 3.24987 0.961071 0
M  V30 3227 C 329.023 4.36572 0.268967 0
M  V30 3228 C 328.082 5.12756 1.18184 0
M  V30 3229 O 327.108 5.6534 0.661794 0
M  V30 3230 N 328.31 5.23331 2.51206 0
M  V30 3231 H 331.075 2.88482 -0.812295 0
M  V30 3232 H 328.636 1.51265 -0.577098 0
M  V30 3233 H 330.628 3.72827 1.57423 0
M  V30 3234 H 329.198 2.66739 1.63 0
M  V30 3235 H 328.418 3.90694 -0.524574 0
M  V30 3236 H 329.706 5.08363 -0.210934 0
M  V30 3237 H 329.104 4.82116 2.9594 0
M  V30 3238 H 327.661 5.74634 3.07634 0
M  V30 3239 N 331.094 0.475555 1.50254 0
M  V30 3240 C 332.34 -0.0780073 2.0265 0
M  V30 3241 C 332.673 -1.38968 1.35652 0
M  V30 3242 O 331.948 -1.8839 0.483691 0
M  V30 3243 C 332.231 -0.257161 3.59181 0
M  V30 3244 C 332.084 1.07585 4.36744 0
M  V30 3245 C 333.403 -1.00965 4.28362 0
M  V30 3246 H 330.522 -0.0268758 0.73651 0
M  V30 3247 H 333.164 0.622015 1.7953 0
M  V30 3248 H 331.314 -0.853412 3.79011 0
M  V30 3249 H 332.986 1.70902 4.28474 0
M  V30 3250 H 331.229 1.6714 4.00308 0
M  V30 3251 H 331.9 0.904088 5.44546 0
M  V30 3252 H 334.376 -0.504214 4.13034 0
M  V30 3253 H 333.252 -1.10381 5.37687 0
M  V30 3254 H 333.513 -2.04731 3.91839 0
M  V30 3255 N 332.573 -1.56217 0.208337 0
M  V30 3256 C 333.798 -2.02782 -0.435222 0
M  V30 3257 C 334.223 -1.08738 -1.53485 0
M  V30 3258 O 333.581 -0.0731855 -1.81152 0
M  V30 3259 C 333.629 -3.47687 -0.956335 0
M  V30 3260 O 332.733 -3.56773 -2.06849 0
M  V30 3261 H 332.074 -0.656403 -0.100158 0
M  V30 3262 H 334.604 -2.02033 0.3231 0
M  V30 3263 H 334.614 -3.87745 -1.26955 0
M  V30 3264 H 333.289 -4.15624 -0.15143 0
M  V30 3265 H 331.866 -3.28597 -1.76292 0
M  V30 3266 N 334.051 0.0651679 -1.57465 0
M  V30 3267 C 335.291 0.768329 -1.8941 0
M  V30 3268 C 335.655 1.74406 -0.802894 0
M  V30 3269 O 336.856 2.49281 -1.0056 0
M  V30 3270 C 335.127 1.45199 -3.26576 0
M  V30 3271 S 336.686 2.1893 -3.80283 0
M  V30 3272 H 333.504 0.255359 -0.663561 0
M  V30 3273 H 336.106 0.024167 -1.95485 0
M  V30 3274 H 334.81 0.728123 -4.03889 0
M  V30 3275 H 334.341 2.23545 -3.23715 0
M  V30 3276 H 336.356 3.45551 -3.56102 0
M  V30 3277 N 335.529 1.53961 0.336706 0
M  V30 3278 C 336.945 1.44378 0.680241 0
M  V30 3279 C 337.145 0.606034 1.9217 0
M  V30 3280 O 336.201 0.099688 2.52303 0
M  V30 3281 C 337.514 2.87945 0.8665 0
M  V30 3282 C 339.062 2.97763 0.964682 0
M  V30 3283 C 339.537 4.42453 1.18321 0
M  V30 3284 N 341.028 4.46008 1.25025 0
M  V30 3285 C 341.763 5.55102 1.43697 0
M  V30 3286 N 341.259 6.7419 1.59498 0
M  V30 3287 N 343.052 5.42727 1.463 0
M  V30 3288 H 335.203 2.06918 -0.479455 0
M  V30 3289 H 337.466 0.935634 -0.152619 0
M  V30 3290 H 337.172 3.51691 0.0256937 0
M  V30 3291 H 337.046 3.33293 1.76623 0
M  V30 3292 H 339.433 2.34153 1.796 0
M  V30 3293 H 339.514 2.55766 0.041708 0
M  V30 3294 H 339.158 5.06645 0.356788 0
M  V30 3295 H 339.088 4.82048 2.11985 0
M  V30 3296 H 341.579 3.60196 1.14312 0
M  V30 3297 H 341.892 7.53095 1.734 0
M  V30 3298 H 340.237 6.77123 1.56621 0
M  V30 3299 H 343.428 4.48647 1.33543 0
M  V30 3300 H 343.601 6.27806 1.6051 0
M  V30 3301 N 337.007 -0.598083 1.45811 0
M  V30 3302 C 338.253 -1.35882 1.50545 0
M  V30 3303 C 338.586 -1.93616 0.150445 0
M  V30 3304 O 337.861 -1.75604 -0.83628 0
M  V30 3305 C 338.144 -2.49966 2.59208 0
M  V30 3306 C 337.997 -1.97367 4.04186 0
M  V30 3307 C 339.316 -3.52068 2.64076 0
M  V30 3308 H 336.435 -0.492717 0.548087 0
M  V30 3309 H 339.077 -0.673319 1.77669 0
M  V30 3310 H 337.227 -3.08443 2.3621 0
M  V30 3311 H 338.899 -1.43466 4.38423 0
M  V30 3312 H 337.142 -1.283 4.14393 0
M  V30 3313 H 337.813 -2.79649 4.75921 0
M  V30 3314 H 340.289 -3.03448 2.84708 0
M  V30 3315 H 339.165 -4.2937 3.41954 0
M  V30 3316 H 339.426 -4.08304 1.69531 0
M  V30 3317 N 338.485 -1.33259 -0.841409 0
M  V30 3318 C 339.71 -1.2775 -1.63385 0
M  V30 3319 C 340.135 0.149188 -1.87507 0
M  V30 3320 O 339.493 1.10498 -1.43736 0
M  V30 3321 C 339.541 -2.05571 -2.96265 0
M  V30 3322 O 338.645 -1.41257 -3.87453 0
M  V30 3323 H 337.986 -0.439627 -0.497618 0
M  V30 3324 H 340.516 -1.75782 -1.04699 0
M  V30 3325 H 340.526 -2.16241 -3.45982 0
M  V30 3326 H 339.201 -3.09309 -2.7803 0
M  V30 3327 H 337.778 -1.39217 -3.45938 0
M  V30 3328 N 339.963 1.05934 -1.16686 0
M  V30 3329 C 340.895 2.13468 -0.834503 0
M  V30 3330 C 341.908 1.62013 0.15984 0
M  V30 3331 O 343.097 1.7838 -0.0654228 0
M  V30 3332 C 340.197 3.3817 -0.222361 0
M  V30 3333 C 339.37 4.18928 -1.25771 0
M  V30 3334 C 338.429 5.21985 -0.664703 0
M  V30 3335 O 337.455 5.53334 -1.33453 0
M  V30 3336 N 338.657 5.77919 0.546834 0
M  V30 3337 H 341.422 2.42578 -1.75999 0
M  V30 3338 H 338.983 1.21967 -1.06469 0
M  V30 3339 H 340.975 4.04266 0.187472 0
M  V30 3340 H 339.545 3.06655 0.606758 0
M  V30 3341 H 338.765 3.48433 -1.84358 0
M  V30 3342 H 340.053 4.69687 -1.95631 0
M  V30 3343 H 339.451 5.54721 1.10912 0
M  V30 3344 H 338.008 6.45573 0.898829 0
M  V30 3345 N 341.441 0.965919 1.2453 0
M  V30 3346 C 342.718 0.543777 1.87889 0
M  V30 3347 C 343.098 -0.97909 1.87021 0
M  V30 3348 O 342.446 -1.84969 1.3416 0
M  V30 3349 C 342.656 1.13327 3.30088 0
M  V30 3350 C 344.004 1.21707 4.06783 0
M  V30 3351 O 345.028 1.08566 3.39252 0
M  V30 3352 O 343.887 1.42456 5.27606 0
M  V30 3353 H 340.981 0.181054 0.806938 0
M  V30 3354 H 343.527 1.06007 1.32516 0
M  V30 3355 H 342.299 2.17612 3.25209 0
M  V30 3356 H 341.922 0.600911 3.93033 0
M  V30 3357 N 342.919 -1.39368 0.735821 0
M  V30 3358 C 344.165 -2.00794 0.284544 0
M  V30 3359 C 344.498 -1.58255 -1.12557 0
M  V30 3360 O 343.773 -0.811819 -1.76748 0
M  V30 3361 C 344.056 -3.58011 0.387337 0
M  V30 3362 C 343.909 -4.10566 1.83728 0
M  V30 3363 C 345.228 -4.395 -0.22975 0
M  V30 3364 H 342.347 -0.729501 0.104866 0
M  V30 3365 H 344.989 -1.65564 0.93213 0
M  V30 3366 H 343.139 -3.88154 -0.164006 0
M  V30 3367 H 344.811 -3.91139 2.44556 0
M  V30 3368 H 343.054 -3.64095 2.35833 0
M  V30 3369 H 343.725 -5.19702 1.86047 0
M  V30 3370 H 346.201 -4.15406 0.240257 0
M  V30 3371 H 345.077 -5.48752 -0.127485 0
M  V30 3372 H 345.338 -4.22062 -1.3159 0
M  V30 3373 N 344.397 -0.483516 -1.5 0
M  V30 3374 C 345.627 0.0643896 -2.065 0
M  V30 3375 C 346.035 1.32949 -1.34615 0
M  V30 3376 O 345.378 1.79003 -0.412756 0
M  V30 3377 C 345.44 0.405983 -3.572 0
M  V30 3378 C 345.104 -0.758875 -4.50655 0
M  V30 3379 C 346.101 -1.64445 -4.93208 0
M  V30 3380 C 343.786 -0.952725 -4.93182 0
M  V30 3381 C 345.78 -2.70818 -5.77006 0
M  V30 3382 C 343.467 -2.01966 -5.76761 0
M  V30 3383 C 344.465 -2.89574 -6.18576 0
M  V30 3384 O 344.153 -3.94429 -7.00486 0
M  V30 3385 H 343.885 -0.00934786 -0.675935 0
M  V30 3386 H 346.439 -0.674959 -1.93993 0
M  V30 3387 H 344.669 1.19869 -3.67652 0
M  V30 3388 H 346.358 0.890433 -3.96013 0
M  V30 3389 H 347.124 -1.50643 -4.61012 0
M  V30 3390 H 343.003 -0.280247 -4.60147 0
M  V30 3391 H 346.547 -3.3923 -6.09565 0
M  V30 3392 H 342.444 -2.1577 -6.0837 0
M  V30 3393 H 343.212 -3.91568 -7.1876 0
M  V30 3394 N 345.875 1.56104 -0.216619 0
M  V30 3395 C 347.1 2.0301 0.424462 0
M  V30 3396 C 347.525 1.0955 1.52907 0
M  V30 3397 O 346.883 0.0827914 1.81111 0
M  V30 3398 C 346.931 3.4819 0.937883 0
M  V30 3399 O 346.035 3.57865 2.04955 0
M  V30 3400 H 345.376 0.656925 0.0966755 0
M  V30 3401 H 347.906 2.01859 -0.33381 0
M  V30 3402 H 347.916 3.88413 1.24897 0
M  V30 3403 H 346.591 4.15699 0.129387 0
M  V30 3404 H 345.168 3.29527 1.74546 0
M  V30 3405 N 347.353 -0.0568162 1.57498 0
M  V30 3406 C 348.316 -1.05038 2.03715 0
M  V30 3407 C 349.316 -1.30709 0.936577 0
M  V30 3408 O 350.506 -1.26178 1.20103 0
M  V30 3409 C 347.638 -2.39034 2.43055 0
M  V30 3410 H 348.831 -0.651715 2.92733 0
M  V30 3411 H 346.384 -0.302947 1.53336 0
M  V30 3412 H 347.119 -2.83703 1.57108 0
M  V30 3413 H 346.904 -2.21739 3.2338 0
M  V30 3414 H 348.394 -3.10421 2.79336 0
M  V30 3415 N 348.832 -1.54138 -0.328536 0
M  V30 3416 C 350.109 -1.62749 -1.08499 0
M  V30 3417 C 350.489 -0.458198 -2.06067 0
M  V30 3418 O 349.837 0.548046 -2.2183 0
M  V30 3419 C 350.047 -2.99519 -1.79135 0
M  V30 3420 C 351.395 -3.55394 -2.32337 0
M  V30 3421 O 352.419 -3.01792 -1.89209 0
M  V30 3422 O 351.278 -4.49186 -3.11279 0
M  V30 3423 H 348.372 -0.65886 -0.499832 0
M  V30 3424 H 350.918 -1.66484 -0.328826 0
M  V30 3425 H 349.69 -3.76061 -1.08139 0
M  V30 3426 H 349.313 -2.99441 -2.61574 0
M  V30 3427 N 350.31 0.590341 -1.46126 0
M  V30 3428 C 351.558 1.34616 -1.50742 0
M  V30 3429 C 351.879 1.94363 -0.157486 0
M  V30 3430 O 351.149 1.78136 0.815136 0
M  V30 3431 H 349.729 0.499789 -0.555175 0
M  V30 3432 H 352.391 0.691953 -1.82203 0
M  V30 3433 H 351.487 2.15678 -2.25587 0
M  V30 3434 N 351.788 1.33704 0.83433 0
M  V30 3435 C 352.718 1.26967 1.95963 0
M  V30 3436 C 353.699 0.149337 1.69443 0
M  V30 3437 O 354.884 0.339852 1.91203 0
M  V30 3438 C 352.014 1.01275 3.32206 0
M  V30 3439 C 350.968 2.09652 3.73136 0
M  V30 3440 C 350.294 1.69166 5.07235 0
M  V30 3441 C 351.594 3.51372 3.86439 0
M  V30 3442 H 353.288 2.2112 2.01857 0
M  V30 3443 H 350.834 1.06447 0.969793 0
M  V30 3444 H 352.787 0.952106 4.10503 0
M  V30 3445 H 351.511 0.0356203 3.26581 0
M  V30 3446 H 350.17 2.14766 2.97104 0
M  V30 3447 H 349.818 0.701437 4.98085 0
M  V30 3448 H 349.518 2.41694 5.35591 0
M  V30 3449 H 351.042 1.64576 5.88003 0
M  V30 3450 H 352.456 3.48734 4.55036 0
M  V30 3451 H 350.853 4.22425 4.26236 0
M  V30 3452 H 351.923 3.89546 2.88759 0
M  V30 3453 N 353.266 -1.05314 1.17247 0
M  V30 3454 C 354.512 -1.78557 0.961513 0
M  V30 3455 C 354.845 -1.87419 -0.508697 0
M  V30 3456 O 354.12 -1.37307 -1.37757 0
M  V30 3457 C 354.403 -3.22514 1.60176 0
M  V30 3458 C 354.256 -3.21673 3.14399 0
M  V30 3459 C 355.575 -4.20318 1.30463 0
M  V30 3460 H 352.694 -0.6482 0.350723 0
M  V30 3461 H 355.336 -1.23102 1.44727 0
M  V30 3462 H 353.486 -3.69867 1.18871 0
M  V30 3463 H 355.158 -2.82405 3.64753 0
M  V30 3464 H 353.401 -2.60048 3.47214 0
M  V30 3465 H 354.072 -4.23271 3.54324 0
M  V30 3466 H 356.548 -3.81454 1.66229 0
M  V30 3467 H 355.424 -5.19289 1.77848 0
M  V30 3468 H 355.685 -4.41526 0.22521 0
M  V30 3469 N 354.744 -0.972509 -1.24016 0
M  V30 3470 C 356.16 -0.679827 -1.44397 0
M  V30 3471 C 356.36 0.756716 -1.86751 0
M  V30 3472 O 355.416 1.53007 -2.00861 0
M  V30 3473 C 356.729 -1.66803 -2.50195 0
M  V30 3474 C 358.277 -1.68119 -2.64017 0
M  V30 3475 C 358.752 -2.65748 -3.73017 0
M  V30 3476 N 360.243 -2.64219 -3.8045 0
M  V30 3477 C 360.978 -3.36433 -4.64328 0
M  V30 3478 N 360.474 -4.1818 -5.52356 0
M  V30 3479 N 362.267 -3.25235 -4.58453 0
M  V30 3480 H 354.418 -1.90059 -0.948228 0
M  V30 3481 H 356.681 -0.818527 -0.478245 0
M  V30 3482 H 356.387 -2.69498 -2.25973 0
M  V30 3483 H 356.261 -1.4446 -3.48441 0
M  V30 3484 H 358.648 -0.661319 -2.87594 0
M  V30 3485 H 358.729 -1.94525 -1.66113 0
M  V30 3486 H 358.373 -3.67872 -3.50189 0
M  V30 3487 H 358.303 -2.36619 -4.70446 0
M  V30 3488 H 360.794 -2.04887 -3.17537 0
M  V30 3489 H 361.107 -4.70157 -6.13329 0
M  V30 3490 H 359.452 -4.22273 -5.52006 0
M  V30 3491 H 362.643 -2.60829 -3.88698 0
M  V30 3492 H 362.816 -3.81776 -5.23594 0
M  V30 3493 N 356.222 1.38976 -0.743202 0
M  V30 3494 C 357.152 2.33171 -0.123873 0
M  V30 3495 C 358.133 1.54336 0.71516 0
M  V30 3496 O 359.318 1.82696 0.658467 0
M  V30 3497 C 356.448 3.38474 0.777978 0
M  V30 3498 C 355.402 4.27979 0.0424758 0
M  V30 3499 C 354.728 5.2405 1.06189 0
M  V30 3500 C 356.028 5.10155 -1.1198 0
M  V30 3501 H 357.722 2.85213 -0.910709 0
M  V30 3502 H 355.268 1.37133 -0.439388 0
M  V30 3503 H 357.221 4.03328 1.22084 0
M  V30 3504 H 355.945 2.84891 1.59702 0
M  V30 3505 H 354.604 3.64616 -0.380853 0
M  V30 3506 H 354.252 4.66758 1.87472 0
M  V30 3507 H 353.952 5.84785 0.574485 0
M  V30 3508 H 355.476 5.9178 1.50428 0
M  V30 3509 H 356.89 5.68307 -0.75499 0
M  V30 3510 H 355.287 5.80073 -1.53738 0
M  V30 3511 H 356.357 4.44504 -1.93764 0
M  V30 3512 N 357.7 0.491464 1.49741 0
M  V30 3513 C 358.949 -0.0582189 2.01616 0
M  V30 3514 C 359.262 -1.38927 1.3769 0
M  V30 3515 O 360.468 -2.02509 1.80838 0
M  V30 3516 C 358.924 -0.154235 3.59569 0
M  V30 3517 C 358.532 1.1696 4.32463 0
M  V30 3518 C 360.276 -0.65479 4.1942 0
M  V30 3519 C 358.183 1.03627 5.8225 0
M  V30 3520 H 357.113 -0.0255317 0.753568 0
M  V30 3521 H 359.764 0.629445 1.72367 0
M  V30 3522 H 358.146 -0.906138 3.85493 0
M  V30 3523 H 359.32 1.93405 4.18248 0
M  V30 3524 H 357.635 1.60285 3.84315 0
M  V30 3525 H 360.232 -0.771903 5.29099 0
M  V30 3526 H 360.575 -1.65127 3.8215 0
M  V30 3527 H 361.108 0.040304 3.9778 0
M  V30 3528 H 357.847 2.00672 6.24028 0
M  V30 3529 H 357.367 0.312546 5.98985 0
M  V30 3530 H 359.046 0.711114 6.4308 0
M  V30 3531 N 359.178 -1.55987 0.224894 0
M  V30 3532 C 360.455 -1.90232 -0.455083 0
M  V30 3533 C 360.835 -1.14269 -1.77499 0
M  V30 3534 O 360.183 -0.253079 -2.27094 0
M  V30 3535 C 360.393 -3.42993 -0.644758 0
M  V30 3536 C 361.741 -4.13821 -0.950669 0
M  V30 3537 O 362.765 -3.4861 -0.731423 0
M  V30 3538 O 361.624 -5.29128 -1.36695 0
M  V30 3539 H 358.718 -0.79108 -0.241084 0
M  V30 3540 H 361.264 -1.67581 0.267327 0
M  V30 3541 H 360.036 -3.90252 0.28613 0
M  V30 3542 H 359.659 -3.71434 -1.41853 0
M  V30 3543 N 360.656 0.0484629 -1.57525 0
M  V30 3544 C 361.603 1.05504 -2.05275 0
M  V30 3545 C 362.573 1.37084 -0.937927 0
M  V30 3546 O 363.758 1.47754 -1.2072 0
M  V30 3547 C 360.898 2.35676 -2.52093 0
M  V30 3548 C 360.011 2.10423 -3.77288 0
M  V30 3549 C 359.146 3.34327 -4.12794 0
M  V30 3550 C 358.185 3.04542 -5.30962 0
M  V30 3551 N 357.322 4.20841 -5.61994 0
M  V30 3552 H 362.162 0.640885 -2.91027 0
M  V30 3553 H 359.699 0.304854 -1.43906 0
M  V30 3554 H 361.657 3.11709 -2.77297 0
M  V30 3555 H 360.287 2.7485 -1.69285 0
M  V30 3556 H 359.339 1.24976 -3.59284 0
M  V30 3557 H 360.651 1.84438 -4.63448 0
M  V30 3558 H 359.805 4.1874 -4.39024 0
M  V30 3559 H 358.544 3.63408 -3.25247 0
M  V30 3560 H 357.549 2.18528 -5.04505 0
M  V30 3561 H 358.774 2.76758 -6.20146 0
M  V30 3562 H 356.72 4.4991 -4.77406 0
M  V30 3563 H 356.637 3.98212 -6.42622 0
M  V30 3564 H 357.905 5.06184 -5.92789 0
M  V30 3565 N 362.134 1.5431 0.320358 0
M  V30 3566 C 363.382 1.72327 1.05583 0
M  V30 3567 C 363.703 0.50149 1.88441 0
M  V30 3568 O 362.973 -0.48448 1.89815 0
M  V30 3569 H 361.553 0.635387 0.3928 0
M  V30 3570 H 364.215 1.91621 0.356019 0
M  V30 3571 H 363.311 2.60426 1.72003 0
M  V30 3572 N 363.613 -0.582584 1.46437 0
M  V30 3573 C 364.838 -1.37168 1.55563 0
M  V30 3574 C 365.263 -1.87061 0.19743 0
M  V30 3575 O 364.621 -1.61572 -0.822451 0
M  V30 3576 C 364.669 -2.53511 2.56446 0
M  V30 3577 O 363.773 -3.54953 2.09958 0
M  V30 3578 H 363.114 -0.408494 0.523477 0
M  V30 3579 H 365.644 -0.706646 1.9201 0
M  V30 3580 H 365.654 -3.00426 2.76058 0
M  V30 3581 H 364.329 -2.16549 3.55076 0
M  V30 3582 H 362.906 -3.14516 2.00334 0
M  V30 3583 N 365.091 -1.34144 -0.827227 0
M  V30 3584 C 366.337 -1.27455 -1.58515 0
M  V30 3585 C 366.692 0.155271 -1.91772 0
M  V30 3586 O 365.985 1.10042 -1.56848 0
M  V30 3587 C 366.179 -2.09464 -2.89585 0
M  V30 3588 C 366.008 -3.60276 -2.69131 0
M  V30 3589 C 364.778 -4.29565 -2.66087 0
M  V30 3590 C 366.976 -4.54367 -2.40947 0
M  V30 3591 N 364.958 -5.66252 -2.37132 0
M  V30 3592 C 366.329 -5.79027 -2.21648 0
M  V30 3593 C 368.384 -4.43327 -2.26639 0
M  V30 3594 C 367.087 -6.93891 -1.89492 0
M  V30 3595 C 369.113 -5.58019 -1.95878 0
M  V30 3596 C 368.475 -6.81695 -1.774 0
M  V30 3597 H 364.574 -0.521614 -0.582617 0
M  V30 3598 H 367.158 -1.68811 -0.970105 0
M  V30 3599 H 365.329 -1.70411 -3.49019 0
M  V30 3600 H 367.061 -1.94453 -3.54923 0
M  V30 3601 H 363.816 -3.81959 -2.80008 0
M  V30 3602 H 364.24 -6.38338 -2.25507 0
M  V30 3603 H 368.882 -3.48333 -2.39633 0
M  V30 3604 H 366.6 -7.88871 -1.75236 0
M  V30 3605 H 370.186 -5.5142 -1.85546 0
M  V30 3606 H 369.066 -7.68942 -1.53941 0
M  V30 3607 N 366.569 1.04691 -1.17803 0
M  V30 3608 C 367.815 1.78045 -0.970969 0
M  V30 3609 C 368.148 1.87686 0.498751 0
M  V30 3610 O 367.423 1.38035 1.37027 0
M  V30 3611 C 367.706 3.2166 -1.61884 0
M  V30 3612 C 367.559 3.20001 -3.161 0
M  V30 3613 C 368.878 4.1962 -1.3269 0
M  V30 3614 H 365.997 0.64633 -0.354155 0
M  V30 3615 H 368.639 1.22333 -1.45378 0
M  V30 3616 H 366.789 3.69232 -1.20831 0
M  V30 3617 H 368.461 2.80467 -3.66246 0
M  V30 3618 H 366.704 2.58203 -3.48588 0
M  V30 3619 H 367.375 4.21386 -3.56564 0
M  V30 3620 H 369.851 3.80567 -1.68249 0
M  V30 3621 H 368.727 5.18339 -1.80599 0
M  V30 3622 H 368.988 4.414 -0.248622 0
M  V30 3623 N 368.047 0.979072 1.23499 0
M  V30 3624 C 369.324 0.563674 1.87302 0
M  V30 3625 C 369.704 -0.959199 1.88049 0
M  V30 3626 O 369.052 -1.83535 1.36114 0
M  V30 3627 C 369.262 1.16822 3.28867 0
M  V30 3628 C 370.61 1.26014 4.0547 0
M  V30 3629 O 371.634 1.12158 3.38082 0
M  V30 3630 O 370.493 1.48044 5.26066 0
M  V30 3631 H 367.587 0.189602 0.804972 0
M  V30 3632 H 370.133 1.07407 1.31384 0
M  V30 3633 H 368.905 2.21049 3.22883 0
M  V30 3634 H 368.528 0.642564 3.92373 0
M  V30 3635 N 369.525 -1.3858 0.750561 0
M  V30 3636 C 370.773 -1.99789 0.30477 0
M  V30 3637 C 371.094 -1.59874 -1.11649 0
M  V30 3638 O 370.364 -0.85417 -1.76297 0
M  V30 3639 H 368.944 -0.738902 0.109694 0
M  V30 3640 H 371.606 -1.69391 0.963983 0
M  V30 3641 H 370.702 -3.09952 0.365499 0
M  V30 3642 N 371.003 -0.499398 -1.49478 0
M  V30 3643 C 371.935 0.316575 -2.27003 0
M  V30 3644 C 372.948 0.932047 -1.33479 0
M  V30 3645 O 374.137 0.815658 -1.58774 0
M  V30 3646 C 371.237 1.46055 -3.05812 0
M  V30 3647 C 370.41 0.952679 -4.26899 0
M  V30 3648 C 369.469 1.97407 -4.87767 0
M  V30 3649 O 368.495 1.54326 -5.4788 0
M  V30 3650 N 369.697 3.30436 -4.77276 0
M  V30 3651 H 372.462 -0.348168 -2.97671 0
M  V30 3652 H 370.023 -0.33185 -1.58463 0
M  V30 3653 H 372.015 2.14135 -3.43407 0
M  V30 3654 H 370.585 2.02948 -2.37762 0
M  V30 3655 H 369.805 0.0968248 -3.94081 0
M  V30 3656 H 371.093 0.59174 -5.05347 0
M  V30 3657 H 370.491 3.68126 -4.29534 0
M  V30 3658 H 369.048 3.94235 -5.19059 0
M  V30 3659 N 372.481 1.55866 -0.233164 0
M  V30 3660 C 373.73 1.97779 0.39579 0
M  V30 3661 C 374.043 1.12419 1.60066 0
M  V30 3662 O 375.249 1.44283 2.29988 0
M  V30 3663 C 373.705 3.5188 0.755556 0
M  V30 3664 C 373.313 4.45959 -0.427152 0
M  V30 3665 C 375.057 4.02479 1.34946 0
M  V30 3666 C 372.964 5.91383 -0.0443043 0
M  V30 3667 H 371.894 0.738592 0.15165 0
M  V30 3668 H 374.545 1.80486 -0.331212 0
M  V30 3669 H 372.927 3.64816 1.5403 0
M  V30 3670 H 374.101 4.44776 -1.20462 0
M  V30 3671 H 372.416 4.05765 -0.935068 0
M  V30 3672 H 375.013 5.08637 1.649 0
M  V30 3673 H 375.356 3.49014 2.26925 0
M  V30 3674 H 375.889 3.92813 0.62791 0
M  V30 3675 H 372.628 6.48857 -0.930874 0
M  V30 3676 H 372.148 5.95734 0.697238 0
M  V30 3677 H 373.827 6.45893 0.378334 0
M  V30 3678 N 373.959 -0.0401083 1.57549 0
M  V30 3679 C 375.187 -0.745196 1.93014 0
M  V30 3680 C 375.602 -1.6948 0.831984 0
M  V30 3681 O 374.959 -1.81482 -0.192463 0
M  V30 3682 C 375.01 -1.51176 3.28372 0
M  V30 3683 O 374.731 -0.600284 4.33968 0
M  V30 3684 C 376.232 -2.315 3.78051 0
M  V30 3685 H 373.452 -0.210088 0.637263 0
M  V30 3686 H 375.996 -0.000924689 2.045 0
M  V30 3687 H 374.151 -2.20801 3.18317 0
M  V30 3688 H 374.565 -1.13669 5.12035 0
M  V30 3689 H 376.039 -2.80697 4.75303 0
M  V30 3690 H 376.516 -3.12436 3.08675 0
M  V30 3691 H 377.122 -1.66971 3.91153 0
M  V30 3692 N 375.437 -1.54477 -0.31217 0
M  V30 3693 C 376.685 -1.72884 -1.04668 0
M  V30 3694 C 377.006 -0.511477 -1.88173 0
M  V30 3695 O 376.276 0.474407 -1.90069 0
M  V30 3696 H 374.856 -0.637461 -0.389425 0
M  V30 3697 H 377.518 -1.91807 -0.345852 0
M  V30 3698 H 376.614 -2.61334 -1.70619 0
M  V30 3699 N 376.915 0.57481 -1.46744 0
M  V30 3700 C 378.163 1.33009 -1.52161 0
M  V30 3701 C 378.484 1.94185 -0.178092 0
M  V30 3702 O 377.754 1.7899 0.796196 0
M  V30 3703 H 376.334 0.493873 -0.560445 0
M  V30 3704 H 378.996 0.672589 -1.82927 0
M  V30 3705 H 378.092 2.13273 -2.27862 0
M  V30 3706 N 378.394 1.34581 0.820102 0
M  V30 3707 C 379.643 1.26437 1.57151 0
M  V30 3708 C 379.956 -0.163111 1.94919 0
M  V30 3709 O 381.162 -0.366722 2.69012 0
M  V30 3710 C 379.618 2.21658 2.83541 0
M  V30 3711 C 379.226 3.69679 2.53065 0
M  V30 3712 C 380.97 2.22428 3.61561 0
M  V30 3713 C 378.877 4.56761 3.75664 0
M  V30 3714 H 377.807 0.469707 0.589823 0
M  V30 3715 H 380.458 1.59763 0.902656 0
M  V30 3716 H 378.84 1.81287 3.52067 0
M  V30 3717 H 380.014 4.18605 1.92631 0
M  V30 3718 H 378.329 3.71384 1.88316 0
M  V30 3719 H 380.926 2.8471 4.52597 0
M  V30 3720 H 381.269 1.22434 3.97889 0
M  V30 3721 H 381.802 2.61259 2.99981 0
M  V30 3722 H 378.541 5.57702 3.44454 0
M  V30 3723 H 378.061 4.12568 4.35371 0
M  V30 3724 H 379.74 4.71509 4.43044 0
M  V30 3725 N 379.872 -1.04064 1.18357 0
M  V30 3726 C 380.819 -2.12077 0.910603 0
M  V30 3727 C 381.789 -1.65421 -0.15 0
M  V30 3728 O 382.974 -1.90797 -0.0103614 0
M  V30 3729 C 380.114 -3.42252 0.442472 0
M  V30 3730 C 379.227 -4.0252 1.5685 0
M  V30 3731 C 378.362 -5.20657 1.05309 0
M  V30 3732 C 377.401 -5.72955 2.1538 0
M  V30 3733 N 376.538 -6.8238 1.65233 0
M  V30 3734 H 381.378 -2.34764 1.83548 0
M  V30 3735 H 378.915 -1.15157 0.915279 0
M  V30 3736 H 380.873 -4.16921 0.152534 0
M  V30 3737 H 379.503 -3.19712 -0.445428 0
M  V30 3738 H 378.555 -3.25178 1.97391 0
M  V30 3739 H 379.867 -4.37362 2.39824 0
M  V30 3740 H 379.021 -6.0244 0.717677 0
M  V30 3741 H 377.76 -4.87318 0.19293 0
M  V30 3742 H 376.765 -4.89793 2.49766 0
M  V30 3743 H 377.99 -6.08337 3.01832 0
M  V30 3744 H 375.936 -6.50917 0.815064 0
M  V30 3745 H 375.853 -7.16286 2.41805 0
M  V30 3746 H 377.121 -7.67788 1.34619 0
M  V30 3747 N 381.35 -0.985608 -1.22978 0
M  V30 3748 C 382.627 -0.573599 -1.87001 0
M  V30 3749 C 383.007 0.949213 -1.88555 0
M  V30 3750 O 382.355 1.82811 -1.37086 0
M  V30 3751 C 382.565 -1.18564 -3.28243 0
M  V30 3752 C 383.913 -1.28163 -4.04796 0
M  V30 3753 O 384.937 -1.13949 -3.37482 0
M  V30 3754 O 383.796 -1.50832 -5.25273 0
M  V30 3755 H 380.89 -0.193868 -0.803955 0
M  V30 3756 H 383.436 -1.08102 -1.30813 0
M  V30 3757 H 382.208 -2.22758 -3.21706 0
M  V30 3758 H 381.831 -0.663363 -3.92027 0
M  V30 3759 N 382.828 1.3818 -0.7579 0
M  V30 3760 C 384.076 1.99624 -0.315361 0
M  V30 3761 C 384.397 1.60464 1.10799 0
M  V30 3762 O 383.667 0.863507 1.75842 0
M  V30 3763 H 382.247 0.73831 -0.113611 0
M  V30 3764 H 384.909 1.68878 -0.972952 0
M  V30 3765 H 384.005 3.09754 -0.381931 0
M  V30 3766 N 384.306 0.507319 1.49211 0
M  V30 3767 C 385.238 -0.304532 2.27168 0
M  V30 3768 C 386.251 -0.924956 1.33972 0
M  V30 3769 O 387.44 -0.807227 1.59205 0
M  V30 3770 C 384.54 -1.44431 3.06583 0
M  V30 3771 C 383.713 -0.930026 4.27398 0
M  V30 3772 C 382.772 -1.94817 4.88807 0
M  V30 3773 O 381.798 -1.51418 5.4869 0
M  V30 3774 N 383 -3.279 4.79022 0
M  V30 3775 H 385.765 0.36395 2.97482 0
M  V30 3776 H 383.326 0.340249 1.58284 0
M  V30 3777 H 385.318 -2.12311 3.44537 0
M  V30 3778 H 383.888 -2.01684 2.38835 0
M  V30 3779 H 383.108 -0.0759244 3.94127 0
M  V30 3780 H 384.396 -0.564932 5.05654 0
M  V30 3781 H 383.794 -3.65843 4.3148 0
M  V30 3782 H 382.351 -3.91476 5.21142 0
M  V30 3783 N 385.784 -1.5574 0.241426 0
M  V30 3784 C 386.747 -2.19877 -0.647063 0
M  V30 3785 C 387.747 -1.16642 -1.10686 0
M  V30 3786 O 388.937 -1.41757 -1.01245 0
M  V30 3787 C 386.069 -2.83797 -1.88871 0
M  V30 3788 H 387.262 -2.99772 -0.087574 0
M  V30 3789 H 384.815 -1.56298 -0.00813574 0
M  V30 3790 H 385.55 -2.07824 -2.48957 0
M  V30 3791 H 385.335 -3.59414 -1.56728 0
M  V30 3792 H 386.825 -3.32898 -2.52129 0
M  V30 3793 N 387.262 0.0317525 -1.57568 0
M  V30 3794 C 388.678 0.38735 -1.54828 0
M  V30 3795 C 388.878 1.7677 -0.967187 0
M  V30 3796 O 387.934 2.45581 -0.587063 0
M  V30 3797 C 389.247 0.291667 -2.99282 0
M  V30 3798 C 390.795 0.368946 -3.10818 0
M  V30 3799 C 391.27 0.302741 -4.56998 0
M  V30 3800 N 392.761 0.361617 -4.61786 0
M  V30 3801 C 393.496 0.333238 -5.72431 0
M  V30 3802 N 392.992 0.257308 -6.92322 0
M  V30 3803 N 394.785 0.382769 -5.60795 0
M  V30 3804 H 386.936 -0.871609 -1.93692 0
M  V30 3805 H 389.199 -0.331161 -0.888277 0
M  V30 3806 H 388.905 -0.656794 -3.45513 0
M  V30 3807 H 388.779 1.08638 -3.61217 0
M  V30 3808 H 391.166 1.30784 -2.64536 0
M  V30 3809 H 391.247 -0.455066 -2.5172 0
M  V30 3810 H 390.891 -0.632473 -5.03947 0
M  V30 3811 H 390.821 1.14482 -5.14005 0
M  V30 3812 H 393.312 0.422923 -3.75526 0
M  V30 3813 H 393.625 0.24068 -7.72425 0
M  V30 3814 H 391.97 0.223396 -6.94641 0
M  V30 3815 H 395.161 0.44006 -4.66027 0
M  V30 3816 H 395.334 0.357184 -6.47015 0
M  V30 3817 N 388.74 1.54641 0.303973 0
M  V30 3818 C 389.986 1.74038 1.04109 0
M  V30 3819 C 390.319 0.523051 1.87024 0
M  V30 3820 O 389.594 -0.479874 1.88487 0
M  V30 3821 C 389.877 3.02761 1.94955 0
M  V30 3822 C 389.73 4.34787 1.1524 0
M  V30 3823 C 391.049 3.27336 2.94175 0
M  V30 3824 H 388.168 0.63323 0.377079 0
M  V30 3825 H 390.81 1.87354 0.316001 0
M  V30 3826 H 388.96 2.9154 2.56782 0
M  V30 3827 H 390.632 4.57922 0.557236 0
M  V30 3828 H 388.875 4.31407 0.455053 0
M  V30 3829 H 389.546 5.21116 1.8205 0
M  V30 3830 H 392.022 3.38148 2.42477 0
M  V30 3831 H 390.898 4.18726 3.54908 0
M  V30 3832 H 391.159 2.45491 3.67677 0
M  V30 3833 N 390.218 -0.567019 1.47046 0
M  V30 3834 C 391.465 -1.32462 1.53167 0
M  V30 3835 C 391.793 -1.93571 0.189841 0
M  V30 3836 O 391.048 -1.77865 -0.816243 0
M  V30 3837 C 391.347 -2.4623 2.59047 0
M  V30 3838 C 391.013 -2.03014 4.02612 0
M  V30 3839 C 389.675 -1.90944 4.41694 0
M  V30 3840 C 392.027 -1.69895 4.92732 0
M  V30 3841 C 389.355 -1.44035 5.68745 0
M  V30 3842 C 391.707 -1.2446 6.20236 0
M  V30 3843 C 390.371 -1.10979 6.5821 0
M  V30 3844 H 389.641 -0.484713 0.560477 0
M  V30 3845 H 392.288 -0.636888 1.80599 0
M  V30 3846 H 390.593 -3.20517 2.25335 0
M  V30 3847 H 392.29 -3.04427 2.61008 0
M  V30 3848 H 388.88 -2.13348 3.71726 0
M  V30 3849 H 393.064 -1.78098 4.63244 0
M  V30 3850 H 388.32 -1.32254 5.96925 0
M  V30 3851 H 392.494 -0.978924 6.89485 0
M  V30 3852 H 390.121 -0.744078 7.5655 0
M  V30 3853 N 391.696 -1.35014 -0.812953 0
M  V30 3854 C 392.942 -1.2812 -1.57204 0
M  V30 3855 C 393.275 0.145869 -1.93651 0
M  V30 3856 O 392.55 1.0937 -1.60836 0
M  V30 3857 C 392.833 -2.18162 -2.86492 0
M  V30 3858 C 392.686 -3.69454 -2.56561 0
M  V30 3859 C 394.005 -2.07439 -3.88145 0
M  V30 3860 H 391.124 -0.466746 -0.570366 0
M  V30 3861 H 393.766 -1.65357 -0.935783 0
M  V30 3862 H 391.916 -1.86535 -3.40789 0
M  V30 3863 H 393.588 -4.11493 -2.08497 0
M  V30 3864 H 391.831 -3.9005 -1.89851 0
M  V30 3865 H 392.502 -4.27835 -3.48799 0
M  V30 3866 H 394.978 -2.35228 -3.4323 0
M  V30 3867 H 393.854 -2.7265 -4.76396 0
M  V30 3868 H 394.115 -1.05439 -4.29343 0
M  V30 3869 N 393.175 1.03435 -1.18907 0
M  V30 3870 C 394.105 2.13503 -0.945448 0
M  V30 3871 C 395.086 1.69682 0.119189 0
M  V30 3872 O 396.271 1.94169 -0.034707 0
M  V30 3873 C 393.401 3.44004 -0.477316 0
M  V30 3874 C 392.355 4.0148 -1.48316 0
M  V30 3875 C 391.681 5.27537 -0.872311 0
M  V30 3876 C 392.981 4.36921 -2.86177 0
M  V30 3877 H 394.675 2.34141 -1.86597 0
M  V30 3878 H 392.221 1.12523 -0.898584 0
M  V30 3879 H 394.174 4.20372 -0.294204 0
M  V30 3880 H 392.898 3.23072 0.478786 0
M  V30 3881 H 391.557 3.27201 -1.65332 0
M  V30 3882 H 391.205 5.02917 0.0911752 0
M  V30 3883 H 390.905 5.66954 -1.54393 0
M  V30 3884 H 392.429 6.06576 -0.699871 0
M  V30 3885 H 393.843 5.04248 -2.72776 0
M  V30 3886 H 392.24 4.87405 -3.50081 0
M  V30 3887 H 393.31 3.46466 -3.39248 0
M  V30 3888 N 394.653 0.992116 1.22453 0
M  V30 3889 C 395.899 0.678177 1.91761 0
M  V30 3890 C 396.254 -0.781141 1.75829 0
M  V30 3891 O 395.547 -1.55747 1.11595 0
M  V30 3892 C 395.741 1.01832 3.42586 0
M  V30 3893 C 395.57 2.50916 3.73191 0
M  V30 3894 C 394.34 3.17308 3.93248 0
M  V30 3895 C 396.538 3.49032 3.77732 0
M  V30 3896 N 394.52 4.55876 4.11157 0
M  V30 3897 C 395.891 4.73055 4.00773 0
M  V30 3898 C 397.946 3.43349 3.60577 0
M  V30 3899 C 396.649 5.92089 4.0844 0
M  V30 3900 C 398.675 4.61759 3.69503 0
M  V30 3901 C 398.037 5.84582 3.92993 0
M  V30 3902 H 394.136 0.299425 0.722405 0
M  V30 3903 H 396.72 1.27197 1.47408 0
M  V30 3904 H 394.891 0.453118 3.85748 0
M  V30 3905 H 396.623 0.660454 3.99274 0
M  V30 3906 H 393.378 2.67778 3.9063 0
M  V30 3907 H 393.802 5.27748 4.24042 0
M  V30 3908 H 398.444 2.49408 3.41402 0
M  V30 3909 H 396.162 6.86435 4.26418 0
M  V30 3910 H 399.748 4.58951 3.57569 0
M  V30 3911 H 398.628 6.74676 3.99728 0
M  V30 3912 N 396.131 -1.37776 0.765217 0
M  V30 3913 C 397.041 -2.34135 0.147666 0
M  V30 3914 C 398.057 -1.59854 -0.687215 0
M  V30 3915 O 399.233 -1.91983 -0.608659 0
M  V30 3916 C 396.298 -3.3901 -0.72617 0
M  V30 3917 C 395.359 -4.2912 0.124417 0
M  V30 3918 C 394.592 -5.28986 -0.707807 0
M  V30 3919 O 394.815 -5.36205 -1.94525 0
M  V30 3920 O 393.749 -6.01779 -0.12046 0
M  V30 3921 H 397.575 -2.88664 0.943758 0
M  V30 3922 H 395.16 -1.39824 0.526277 0
M  V30 3923 H 397.042 -4.03195 -1.22524 0
M  V30 3924 H 395.717 -2.86819 -1.50056 0
M  V30 3925 H 394.624 -3.68057 0.669696 0
M  V30 3926 H 395.957 -4.84598 0.861736 0
M  V30 3927 N 397.609 -0.515225 -1.4894 0
M  V30 3928 C 399.025 -0.172099 -1.58669 0
M  V30 3929 C 399.225 1.32405 -1.51892 0
M  V30 3930 O 398.281 2.10116 -1.40027 0
M  V30 3931 C 399.594 -0.761533 -2.90897 0
M  V30 3932 C 401.142 -0.728926 -3.04394 0
M  V30 3933 C 401.617 -1.29667 -4.39261 0
M  V30 3934 N 403.108 -1.25799 -4.4579 0
M  V30 3935 C 403.843 -1.66733 -5.48623 0
M  V30 3936 N 403.339 -2.15327 -6.58488 0
M  V30 3937 N 405.132 -1.58061 -5.39419 0
M  V30 3938 H 397.283 -1.48778 -1.51588 0
M  V30 3939 H 399.546 -0.617968 -0.718901 0
M  V30 3940 H 399.252 -1.81136 -3.01468 0
M  V30 3941 H 399.126 -0.230106 -3.76497 0
M  V30 3942 H 401.513 0.312098 -2.93445 0
M  V30 3943 H 401.594 -1.29766 -2.20442 0
M  V30 3944 H 401.238 -2.33655 -4.50963 0
M  V30 3945 H 401.168 -0.703752 -5.21876 0
M  V30 3946 H 403.659 -0.902102 -3.66975 0
M  V30 3947 H 403.972 -2.44594 -7.33071 0
M  V30 3948 H 402.317 -2.19311 -6.59491 0
M  V30 3949 H 405.508 -1.19906 -4.52482 0
M  V30 3950 H 405.681 -1.90284 -6.19432 0
M  V30 3951 N 399.087 1.5561 -0.249682 0
M  V30 3952 C 400.336 1.98187 0.37479 0
M  V30 3953 C 400.649 1.14111 1.58865 0
M  V30 3954 O 401.855 1.46714 2.28445 0
M  V30 3955 C 400.311 3.52661 0.718192 0
M  V30 3956 C 399.919 4.45481 -0.474428 0
M  V30 3957 C 401.663 4.03888 1.3067 0
M  V30 3958 C 399.57 5.91303 -0.107026 0
M  V30 3959 H 398.5 0.740159 0.143808 0
M  V30 3960 H 401.151 1.80125 -0.350336 0
M  V30 3961 H 399.533 3.66429 1.50152 0
M  V30 3962 H 400.707 4.43473 -1.25172 0
M  V30 3963 H 399.022 4.04751 -0.978052 0
M  V30 3964 H 401.619 5.10358 1.59496 0
M  V30 3965 H 401.962 3.51401 2.23211 0
M  V30 3966 H 402.495 3.93457 0.586211 0
M  V30 3967 H 399.234 6.47833 -0.999642 0
M  V30 3968 H 398.754 5.9644 0.634013 0
M  V30 3969 H 400.433 6.46258 0.309807 0
M  V30 3970 N 400.565 -0.0233959 1.57583 0
M  V30 3971 C 401.981 -0.379134 1.55031 0
M  V30 3972 C 402.181 -1.76255 0.976548 0
M  V30 3973 O 401.237 -2.45266 0.600078 0
M  V30 3974 C 402.55 -0.275792 2.99433 0
M  V30 3975 C 404.098 -0.352458 3.11009 0
M  V30 3976 C 404.573 -0.278501 4.57152 0
M  V30 3977 N 406.064 -0.337123 4.61972 0
M  V30 3978 C 406.799 -0.302876 5.726 0
M  V30 3979 N 406.295 -0.220589 6.92449 0
M  V30 3980 N 408.088 -0.353023 5.6099 0
M  V30 3981 H 400.239 0.881869 1.93227 0
M  V30 3982 H 402.502 0.335867 0.886509 0
M  V30 3983 H 402.208 0.675108 3.4516 0
M  V30 3984 H 402.082 -1.06721 3.61788 0
M  V30 3985 H 404.469 -1.29379 2.65226 0
M  V30 3986 H 404.55 0.468409 2.51475 0
M  V30 3987 H 404.194 0.659189 5.03604 0
M  V30 3988 H 404.124 -1.11755 5.14605 0
M  V30 3989 H 406.615 -0.403002 3.75745 0
M  V30 3990 H 406.928 -0.199713 7.72542 0
M  V30 3991 H 405.273 -0.186555 6.9475 0
M  V30 3992 H 408.464 -0.415339 4.66254 0
M  V30 3993 H 408.637 -0.322866 6.47195 0
M  V30 3994 N 402.043 -1.548 -0.295768 0
M  V30 3995 C 402.991 -1.86874 -1.38495 0
M  V30 3996 C 403.985 -0.742938 -1.52239 0
M  V30 3997 O 405.191 -0.926999 -1.54294 0
M  V30 3998 H 401.566 -0.592786 -0.462719 0
M  V30 3999 H 403.537 -2.77904 -1.08682 0
M  V30 4000 C 402.286 -2.13732 -2.74252 0
M  V30 4001 H 401.609 -2.99835 -2.64459 0
M  V30 4002 H 403.049 -2.4011 -3.49461 0
M  V30 4003 C 401.508 -0.937539 -3.23592 0
M  V30 4004 O 402.038 -0.160665 -4.01379 0
M  V30 4005 N 400.244 -0.741478 -2.80981 0
M  V30 4006 H 399.791 -1.37489 -2.1784 0
M  V30 4007 H 399.749 0.0597103 -3.14343 0
M  V30 4008 N 403.521 0.559213 -1.47345 0
M  V30 4009 C 404.798 1.31997 -1.44348 0
M  V30 4010 C 405.178 2.1064 -0.139358 0
M  V30 4011 O 404.526 2.1091 0.879153 0
M  V30 4012 C 404.736 2.22618 -2.68779 0
M  V30 4013 C 406.084 2.83701 -3.1591 0
M  V30 4014 O 407.108 2.32921 -2.69493 0
M  V30 4015 O 405.967 3.75993 -3.966 0
M  V30 4016 H 403.061 0.594251 -0.575147 0
M  V30 4017 H 405.607 0.578282 -1.59543 0
M  V30 4018 H 404.379 1.64093 -3.55231 0
M  V30 4019 H 404.002 3.04085 -2.5616 0
M  V30 4020 N 404.999 1.35443 0.805782 0
M  V30 4021 C 405.931 1.24285 1.92577 0
M  V30 4022 C 406.944 0.165962 1.61952 0
M  V30 4023 O 408.133 0.419303 1.73505 0
M  V30 4024 C 405.233 0.891272 3.2697 0
M  V30 4025 C 404.406 2.06669 3.85495 0
M  V30 4026 C 403.465 1.69077 4.98297 0
M  V30 4027 O 402.491 2.4096 5.15681 0
M  V30 4028 N 403.693 0.614869 5.77234 0
M  V30 4029 H 406.458 2.20777 2.02676 0
M  V30 4030 H 404.019 1.28623 0.983243 0
M  V30 4031 H 406.011 0.621256 3.99903 0
M  V30 4032 H 404.581 0.016004 3.12596 0
M  V30 4033 H 403.801 2.50046 3.04747 0
M  V30 4034 H 405.089 2.85237 4.21328 0
M  V30 4035 H 404.487 0.017648 5.65697 0
M  V30 4036 H 403.044 0.404636 6.50543 0
M  V30 4037 N 406.477 -1.02803 1.19454 0
M  V30 4038 C 407.754 -1.73299 0.907013 0
M  V30 4039 C 408.134 -2.02772 -0.587086 0
M  V30 4040 O 407.482 -1.68304 -1.54551 0
M  V30 4041 C 407.692 -3.00912 1.76785 0
M  V30 4042 C 409.04 -3.74403 2.00268 0
M  V30 4043 O 410.064 -3.10841 1.73943 0
M  V30 4044 O 408.923 -4.88675 2.4466 0
M  V30 4045 H 406.017 -0.754727 0.338106 0
M  V30 4046 H 408.563 -1.08754 1.30271 0
M  V30 4047 H 407.335 -2.75366 2.7801 0
M  V30 4048 H 406.958 -3.73197 1.37149 0
M  V30 4049 N 407.956 -0.998596 -1.21925 0
M  V30 4050 C 409.204 -0.676325 -1.90448 0
M  V30 4051 C 409.525 0.794719 -1.78071 0
M  V30 4052 O 408.795 1.5701 -1.17152 0
M  V30 4053 H 407.375 -0.247165 -0.704925 0
M  V30 4054 H 410.037 -1.26633 -1.48156 0
M  V30 4055 H 409.133 -0.943858 -2.97486 0
M  V30 4056 N 409.434 1.37368 -0.772513 0
M  V30 4057 C 410.662 2.03942 -0.348588 0
M  V30 4058 C 411.077 1.58264 1.02947 0
M  V30 4059 O 410.434 0.764246 1.65727 0
M  V30 4060 C 410.485 3.5946 -0.38351 0
M  V30 4061 O 410.206 4.03468 -1.70721 0
M  V30 4062 C 411.707 4.4327 0.0519152 0
M  V30 4063 H 408.927 0.654931 -0.145966 0
M  V30 4064 H 411.471 1.75686 -1.04665 0
M  V30 4065 H 409.626 3.86486 0.265978 0
M  V30 4066 H 410.04 4.97991 -1.64636 0
M  V30 4067 H 411.514 5.51995 -0.0236733 0
M  V30 4068 H 411.991 4.2514 1.10238 0
M  V30 4069 H 412.597 4.21471 -0.569415 0
M  V30 4070 N 410.912 0.523116 1.48665 0
M  V30 4071 C 412.161 -0.01544 2.01694 0
M  V30 4072 C 412.474 -1.35975 1.40606 0
M  V30 4073 O 413.68 -1.98627 1.85093 0
M  V30 4074 C 412.136 -0.0779303 3.59816 0
M  V30 4075 C 411.744 1.26107 4.29885 0
M  V30 4076 C 413.488 -0.565678 4.20714 0
M  V30 4077 C 411.395 1.15954 5.79921 0
M  V30 4078 H 410.325 -0.00954163 0.75394 0
M  V30 4079 H 412.976 0.665865 1.70993 0
M  V30 4080 H 411.358 -0.824165 3.87329 0
M  V30 4081 H 412.532 2.02233 4.14051 0
M  V30 4082 H 410.847 1.68401 3.80828 0
M  V30 4083 H 413.444 -0.6595 5.30617 0
M  V30 4084 H 413.787 -1.56984 3.85567 0
M  V30 4085 H 414.32 0.12467 3.97605 0
M  V30 4086 H 411.059 2.13864 6.19631 0
M  V30 4087 H 410.579 0.439529 5.98187 0
M  V30 4088 H 412.258 0.847361 6.41427 0
M  V30 4089 N 412.39 -1.55475 0.257931 0
M  V30 4090 C 413.636 -1.99502 -0.364266 0
M  V30 4091 C 413.969 -1.146 -1.56782 0
M  V30 4092 O 413.244 -0.211968 -1.93342 0
M  V30 4093 C 413.527 -3.51917 -0.763333 0
M  V30 4094 C 413.38 -4.4758 0.446371 0
M  V30 4095 C 414.699 -4.09742 -1.60623 0
M  V30 4096 H 411.818 -0.725277 -0.130929 0
M  V30 4097 H 414.46 -1.8653 0.361446 0
M  V30 4098 H 412.61 -3.63101 -1.38166 0
M  V30 4099 H 414.282 -4.48362 1.08487 0
M  V30 4100 H 412.525 -4.19947 1.08753 0
M  V30 4101 H 413.196 -5.51862 0.123645 0
M  V30 4102 H 415.672 -4.01727 -1.08418 0
M  V30 4103 H 414.548 -5.16631 -1.85429 0
M  V30 4104 H 414.809 -3.58889 -2.58169 0
M  V30 4105 N 413.868 0.0150385 -1.57593 0
M  V30 4106 C 414.816 1.02958 -2.08572 0
M  V30 4107 C 415.81 1.36554 -1.00246 0
M  V30 4108 O 417.016 1.35295 -1.18724 0
M  V30 4109 H 413.391 0.349619 -0.665786 0
M  V30 4110 H 415.362 0.573932 -2.92829 0
M  V30 4111 C 414.111 2.31752 -2.59203 0
M  V30 4112 H 413.434 2.06765 -3.42182 0
M  V30 4113 H 414.874 3.01053 -2.98568 0
M  V30 4114 C 413.333 3.01692 -1.49945 0
M  V30 4115 O 413.863 3.92083 -0.873704 0
M  V30 4116 N 412.069 2.6326 -1.23056 0
M  V30 4117 H 411.616 1.89838 -1.74125 0
M  V30 4118 H 411.574 3.10372 -0.501685 0
M  V30 4119 N 415.346 1.54954 0.287554 0
M  V30 4120 C 416.595 1.74081 1.01877 0
M  V30 4121 C 416.908 0.541135 1.87966 0
M  V30 4122 O 418.114 0.614491 2.64455 0
M  V30 4123 C 416.57 3.08042 1.86113 0
M  V30 4124 C 416.178 4.35531 1.04961 0
M  V30 4125 C 417.922 3.36523 2.58752 0
M  V30 4126 C 415.829 5.60538 1.88551 0
M  V30 4127 H 414.759 0.64884 0.384087 0
M  V30 4128 H 417.41 1.81426 0.275101 0
M  V30 4129 H 415.792 2.94696 2.64519 0
M  V30 4130 H 416.966 4.59751 0.31074 0
M  V30 4131 H 415.281 4.14085 0.43843 0
M  V30 4132 H 417.878 4.27122 3.21668 0
M  V30 4133 H 418.221 2.56 3.28283 0
M  V30 4134 H 418.754 3.50901 1.87386 0
M  V30 4135 H 415.493 6.43767 1.23466 0
M  V30 4136 H 415.013 5.40483 2.60074 0
M  V30 4137 H 416.692 5.98297 2.46273 0
M  V30 4138 N 416.824 -0.551391 1.4764 0
M  V30 4139 C 418.101 -1.31229 1.45046 0
M  V30 4140 C 418.481 -2.10563 0.150527 0
M  V30 4141 O 417.829 -2.11374 -0.867956 0
M  V30 4142 C 418.039 -2.21189 2.69956 0
M  V30 4143 C 419.387 -2.82021 3.1741 0
M  V30 4144 O 420.411 -2.31488 2.70724 0
M  V30 4145 O 419.27 -3.73885 3.98588 0
M  V30 4146 H 416.364 -0.591193 0.578291 0
M  V30 4147 H 418.91 -0.569813 1.59847 0
M  V30 4148 H 417.682 -1.62207 3.56096 0
M  V30 4149 H 417.305 -3.02722 2.57769 0
M  V30 4150 N 418.302 -1.35869 -0.798587 0
M  V30 4151 C 419.527 -1.32883 -1.59238 0
M  V30 4152 C 419.952 0.0894587 -1.87887 0
M  V30 4153 O 419.31 1.05869 -1.47178 0
M  V30 4154 C 419.358 -2.14892 -2.89575 0
M  V30 4155 O 418.462 -1.53512 -3.82763 0
M  V30 4156 H 417.803 -0.455236 -0.48338 0
M  V30 4157 H 420.333 -1.79024 -0.990539 0
M  V30 4158 H 420.343 -2.27139 -3.38928 0
M  V30 4159 H 419.018 -3.17998 -2.68049 0
M  V30 4160 H 417.595 -1.50153 -3.41334 0
M  V30 4161 N 419.78 1.02168 -1.19998 0
M  V30 4162 C 420.743 2.08765 -0.94604 0
M  V30 4163 C 421.743 1.60618 0.0763846 0
M  V30 4164 O 422.933 1.73472 -0.159135 0
M  V30 4165 C 420.065 3.38262 -0.423255 0
M  V30 4166 H 421.258 2.32726 -1.89153 0
M  V30 4167 H 418.811 1.1889 -1.01464 0
M  V30 4168 H 419.546 3.19974 0.527938 0
M  V30 4169 H 419.331 3.74532 -1.16053 0
M  V30 4170 H 420.821 4.16759 -0.264911 0
M  V30 4171 N 421.258 1.00505 1.21394 0
M  V30 4172 C 422.506 0.686415 1.90086 0
M  V30 4173 C 422.827 -0.785264 1.7849 0
M  V30 4174 O 422.097 -1.56387 1.17983 0
M  V30 4175 H 420.677 0.2509 0.703604 0
M  V30 4176 H 423.339 1.27417 1.47482 0
M  V30 4177 H 422.435 0.959621 2.96981 0
M  V30 4178 N 422.737 -1.36956 0.779787 0
M  V30 4179 C 423.965 -2.03755 0.359398 0
M  V30 4180 C 424.38 -1.58807 -1.02106 0
M  V30 4181 O 423.737 -0.773024 -1.6532 0
M  V30 4182 C 423.788 -3.59251 0.402568 0
M  V30 4183 O 423.509 -4.02557 1.72858 0
M  V30 4184 C 425.01 -4.43291 -0.0284068 0
M  V30 4185 H 422.23 -0.654148 0.149437 0
M  V30 4186 H 424.774 -1.75128 1.05595 0
M  V30 4187 H 422.929 -3.86621 -0.245478 0
M  V30 4188 H 423.343 -4.97111 1.67275 0
M  V30 4189 H 424.817 -5.51975 0.0529466 0
M  V30 4190 H 425.294 -4.25719 -1.07982 0
M  V30 4191 H 425.9 -4.21163 0.591758 0
M  V30 4192 N 424.215 -0.530993 -1.48385 0
M  V30 4193 C 425.163 0.244595 -2.3131 0
M  V30 4194 C 426.157 0.93451 -1.41291 0
M  V30 4195 O 427.363 0.85878 -1.58193 0
M  V30 4196 H 423.738 0.0977472 -0.74562 0
M  V30 4197 H 425.709 -0.474369 -2.94605 0
M  V30 4198 C 424.458 1.2779 -3.23365 0
M  V30 4199 H 423.781 0.756439 -3.92579 0
M  V30 4200 H 425.221 1.79198 -3.84271 0
M  V30 4201 C 423.68 2.31205 -2.45042 0
M  V30 4202 O 424.21 3.37661 -2.17596 0
M  V30 4203 N 422.416 2.04446 -2.0652 0
M  V30 4204 H 421.963 1.17891 -2.2904 0
M  V30 4205 H 421.921 2.73861 -1.54427 0
M  V30 4206 N 425.693 1.55336 -0.266172 0
M  V30 4207 C 426.918 2.04258 0.359661 0
M  V30 4208 C 427.343 1.14359 1.49344 0
M  V30 4209 O 426.701 0.140369 1.80756 0
M  V30 4210 C 426.749 3.50997 0.826635 0
M  V30 4211 O 425.853 3.64204 1.93466 0
M  V30 4212 H 425.194 0.659668 0.075727 0
M  V30 4213 H 427.724 2.00694 -0.39786 0
M  V30 4214 H 427.734 3.9219 1.12477 0
M  V30 4215 H 426.409 4.159 -0.00293032 0
M  V30 4216 H 424.986 3.34913 1.63974 0
M  V30 4217 N 427.171 -0.0066808 1.57599 0
M  V30 4218 C 428.101 -0.999296 2.11036 0
M  V30 4219 C 429.082 -1.36278 1.01795 0
M  V30 4220 O 430.267 -1.4477 1.29442 0
M  V30 4221 C 427.397 -2.29328 2.60818 0
M  V30 4222 C 426.351 -2.07159 3.74525 0
M  V30 4223 C 425.677 -3.42512 4.10596 0
M  V30 4224 C 426.977 -1.43959 5.02069 0
M  V30 4225 H 428.671 -0.554382 2.94223 0
M  V30 4226 H 426.217 -0.265221 1.41536 0
M  V30 4227 H 428.17 -2.99117 2.96828 0
M  V30 4228 H 426.894 -2.7592 1.74745 0
M  V30 4229 H 425.553 -1.39797 3.38899 0
M  V30 4230 H 425.201 -3.86795 3.21556 0
M  V30 4231 H 424.901 -3.28498 4.87199 0
M  V30 4232 H 426.425 -4.13628 4.4916 0
M  V30 4233 H 427.839 -2.03696 5.35893 0
M  V30 4234 H 426.236 -1.40452 5.83432 0
M  V30 4235 H 427.306 -0.407992 4.83181 0
M  V30 4236 N 428.649 -1.55105 -0.279332 0
M  V30 4237 C 429.897 -1.75066 -1.00977 0
M  V30 4238 C 430.218 -0.551276 -1.87045 0
M  V30 4239 O 429.488 0.433984 -1.91032 0
M  V30 4240 H 428.068 -0.645578 -0.375816 0
M  V30 4241 H 430.73 -1.92497 -0.305089 0
M  V30 4242 H 429.826 -2.64894 -1.65038 0
M  V30 4243 N 430.127 0.543554 -1.4793 0
M  V30 4244 C 431.352 1.32995 -1.59145 0
M  V30 4245 C 431.777 1.86472 -0.246956 0
M  V30 4246 O 431.135 1.63696 0.779324 0
M  V30 4247 C 431.183 2.46623 -2.63077 0
M  V30 4248 O 430.287 3.49261 -2.19295 0
M  V30 4249 H 429.628 0.394472 -0.534124 0
M  V30 4250 H 432.158 0.655489 -1.93816 0
M  V30 4251 H 432.168 2.93001 -2.83926 0
M  V30 4252 H 430.843 2.07059 -3.60693 0
M  V30 4253 H 429.42 3.09094 -2.08603 0
M  V30 4254 N 431.605 1.3629 0.791371 0
M  V30 4255 C 432.568 1.30309 1.88553 0
M  V30 4256 C 433.568 0.211204 1.59407 0
M  V30 4257 O 434.758 0.465865 1.67855 0
M  V30 4258 C 431.89 1.01956 3.25297 0
M  V30 4259 H 433.083 2.27614 1.95273 0
M  V30 4260 H 430.636 1.21035 0.988953 0
M  V30 4261 H 431.371 0.050998 3.2426 0
M  V30 4262 H 431.156 1.80968 3.4784 0
M  V30 4263 H 432.646 1.0037 4.05359 0
M  V30 4264 N 433.083 -1.0153 1.20538 0
M  V30 4265 C 434.331 -1.74803 1.01432 0
M  V30 4266 C 434.652 -1.8963 -0.454456 0
M  V30 4267 O 433.922 -1.43975 -1.32846 0
M  V30 4268 H 432.502 -0.647598 0.372324 0
M  V30 4269 H 435.164 -1.22402 1.5167 0
M  V30 4270 H 434.26 -2.75114 1.47373 0
M  V30 4271 N 434.561 -1.01147 -1.20859 0
M  V30 4272 C 435.81 -0.693214 -1.89413 0
M  V30 4273 C 436.123 0.779969 -1.79376 0
M  V30 4274 O 437.329 1.21057 -2.43017 0
M  V30 4275 C 435.785 -1.18949 -3.39675 0
M  V30 4276 C 435.393 -2.68921 -3.58309 0
M  V30 4277 C 437.137 -0.94642 -4.13815 0
M  V30 4278 C 435.044 -3.12056 -5.0237 0
M  V30 4279 H 433.974 -0.255595 -0.709357 0
M  V30 4280 H 436.625 -1.22349 -1.36759 0
M  V30 4281 H 435.007 -0.587228 -3.91622 0
M  V30 4282 H 436.181 -3.34652 -3.16772 0
M  V30 4283 H 434.496 -2.91314 -2.97532 0
M  V30 4284 H 437.093 -1.24417 -5.20023 0
M  V30 4285 H 437.436 0.117219 -4.16135 0
M  V30 4286 H 437.969 -1.5118 -3.67953 0
M  V30 4287 H 434.708 -4.17674 -5.05202 0
M  V30 4288 H 434.228 -2.51041 -5.44737 0
M  V30 4289 H 435.907 -3.04403 -5.70918 0
M  V30 4290 N 436.039 1.36541 -0.78704 0
M  V30 4291 C 437.45 1.81873 -0.421807 0
M  V30 4292 C 437.801 1.65487 1.05397 0
M  V30 4293 O 436.926 1.17448 1.81755 0
M  V30 4294 C 437.521 3.30192 -0.758841 0
M  V30 4295 C 436.08 3.73743 -0.446468 0
M  V30 4296 C 435.227 2.58844 -0.994728 0
M  V30 4297 H 438.178 1.24796 -0.98039 0
M  V30 4298 H 438.199 3.80468 -0.0490648 0
M  V30 4299 H 437.711 3.42087 -1.83299 0
M  V30 4300 H 435.812 3.6741 0.619739 0
M  V30 4301 H 435.925 4.69272 -0.965415 0
M  V30 4302 H 434.289 2.51245 -0.418087 0
M  V30 4303 H 435.072 2.73525 -2.07458 0
M  V30 4304 N 437.518 0.538854 1.48102 0
M  V30 4305 C 438.766 0.00798599 2.02098 0
M  V30 4306 C 439.087 -1.33922 1.41739 0
M  V30 4307 O 438.357 -1.86932 0.585934 0
M  V30 4308 H 436.937 -3.62179e-05 0.747 0
M  V30 4309 H 439.599 0.7047 1.81714 0
M  V30 4310 H 438.695 -0.0937672 3.11959 0
M  V30 4311 N 438.996 -1.55193 0.274407 0
M  V30 4312 C 439.928 -2.1989 -0.646595 0
M  V30 4313 C 440.941 -1.1834 -1.11801 0
M  V30 4314 O 442.13 -1.4507 -1.04004 0
M  V30 4315 C 439.23 -2.8104 -1.89393 0
M  V30 4316 C 438.403 -4.08274 -1.56943 0
M  V30 4317 C 437.462 -4.53478 -2.66916 0
M  V30 4318 O 436.488 -5.19267 -2.33132 0
M  V30 4319 N 437.69 -4.2356 -3.9696 0
M  V30 4320 H 440.455 -2.99556 -0.0928686 0
M  V30 4321 H 438.016 -1.61618 0.0954783 0
M  V30 4322 H 440.008 -3.08226 -2.62257 0
M  V30 4323 H 438.578 -2.05372 -2.35672 0
M  V30 4324 H 437.798 -3.88384 -0.674655 0
M  V30 4325 H 439.086 -4.91173 -1.32764 0
M  V30 4326 H 438.484 -3.70799 -4.27229 0
M  V30 4327 H 437.041 -4.55518 -4.66205 0
M  V30 4328 N 440.474 -0.00167713 -1.576 0
M  V30 4329 C 441.72 0.683832 -1.90923 0
M  V30 4330 C 442.053 1.7333 -0.875799 0
M  V30 4331 O 441.328 1.94215 0.10525 0
M  V30 4332 C 441.611 1.32543 -3.3482 0
M  V30 4333 C 441.464 0.287387 -4.48881 0
M  V30 4334 C 442.783 2.25114 -3.78169 0
M  V30 4335 H 439.902 0.247125 -0.694333 0
M  V30 4336 H 442.544 -0.0533149 -1.89925 0
M  V30 4337 H 440.694 1.95372 -3.35801 0
M  V30 4338 H 442.366 -0.341346 -4.60035 0
M  V30 4339 H 440.609 -0.39017 -4.32042 0
M  V30 4340 H 441.28 0.775393 -5.46527 0
M  V30 4341 H 443.756 1.723 -3.7875 0
M  V30 4342 H 442.632 2.66971 -4.79602 0
M  V30 4343 H 442.893 3.13092 -3.12131 0
M  V30 4344 N 441.952 1.55251 0.271103 0
M  V30 4345 C 443.229 1.66664 1.02384 0
M  V30 4346 C 443.609 0.534363 2.04225 0
M  V30 4347 O 442.957 -0.465337 2.23712 0
M  V30 4348 C 443.167 3.05961 1.67895 0
M  V30 4349 C 444.515 3.63772 2.18986 0
M  V30 4350 O 445.539 3.08606 1.77878 0
M  V30 4351 O 444.398 4.60429 2.94393 0
M  V30 4352 H 441.492 0.676957 0.475035 0
M  V30 4353 H 444.038 1.67589 0.26681 0
M  V30 4354 H 442.81 3.79815 0.941071 0
M  V30 4355 H 442.433 3.08943 2.5028 0
M  V30 4356 N 443.43 -0.535701 1.48216 0
M  V30 4357 C 444.393 -1.623 1.61838 0
M  V30 4358 C 445.393 -1.53087 0.492024 0
M  V30 4359 O 446.583 -1.5686 0.757668 0
M  V30 4360 C 443.715 -3.01907 1.58319 0
M  V30 4361 H 444.908 -1.51564 2.58783 0
M  V30 4362 H 442.461 -0.757317 1.36727 0
M  V30 4363 H 443.196 -3.18155 0.628299 0
M  V30 4364 H 442.981 -3.10003 2.40085 0
M  V30 4365 H 444.471 -3.80969 1.71033 0
M  V30 4366 N 444.908 -1.36708 -0.784132 0
M  V30 4367 C 445.858 -1.2799 -1.88686 0
M  V30 4368 C 446.842 -0.170282 -1.59996 0
M  V30 4369 O 448.034 -0.403571 -1.72338 0
M  V30 4370 C 445.163 -1.07674 -3.25977 0
M  V30 4371 C 444.249 -2.23127 -3.60659 0
M  V30 4372 N 444.64 -3.48467 -3.66612 0
M  V30 4373 C 442.938 -2.15009 -3.90752 0
M  V30 4374 C 443.639 -4.24525 -3.97685 0
M  V30 4375 N 442.615 -3.53524 -4.12943 0
M  V30 4376 H 446.417 -2.22927 -1.91522 0
M  V30 4377 H 443.931 -1.29503 -0.979933 0
M  V30 4378 H 445.928 -0.995151 -4.04849 0
M  V30 4379 H 444.588 -0.13643 -3.24413 0
M  V30 4380 H 445.599 -3.82534 -3.49125 0
M  V30 4381 H 442.276 -1.28963 -3.97083 0
M  V30 4382 H 443.666 -5.32944 -4.0917 0
M  V30 4383 N 446.386 1.0089 -1.21074 0
M  V30 4384 C 447.319 2.09279 -0.909806 0
M  V30 4385 C 448.297 1.61986 0.141145 0
M  V30 4386 O 449.481 1.88495 0.0130332 0
M  V30 4387 C 446.608 3.36723 -0.365374 0
M  V30 4388 C 445.654 4.02919 -1.39852 0
M  V30 4389 S 446.487 4.45835 -2.96633 0
M  V30 4390 C 447.643 5.76471 -2.43786 0
M  V30 4391 H 447.876 2.34484 -1.82769 0
M  V30 4392 H 445.409 1.14115 -1.04006 0
M  V30 4393 H 447.367 4.10459 -0.0578203 0
M  V30 4394 H 446.028 3.09577 0.531136 0
M  V30 4395 H 445.221 4.94634 -0.967117 0
M  V30 4396 H 444.823 3.35441 -1.65395 0
M  V30 4397 H 447.115 6.52027 -1.84029 0
M  V30 4398 H 448.058 6.24418 -3.33928 0
M  V30 4399 H 448.466 5.33104 -1.85636 0
M  V30 4400 N 447.864 1.01787 1.20321 0
M  V30 4401 C 449.11 0.718699 1.90279 0
M  V30 4402 C 449.465 -0.743669 1.77447 0
M  V30 4403 O 448.758 -1.53345 1.14874 0
M  V30 4404 C 448.952 1.09076 3.40349 0
M  V30 4405 C 448.781 2.58775 3.67784 0
M  V30 4406 C 447.551 3.25578 3.86428 0
M  V30 4407 C 449.749 3.56966 3.70243 0
M  V30 4408 N 447.731 4.64495 4.01395 0
M  V30 4409 C 449.102 4.8145 3.90649 0
M  V30 4410 C 451.157 3.5092 3.53213 0
M  V30 4411 C 449.86 6.00619 3.95789 0
M  V30 4412 C 451.886 4.69493 3.59625 0
M  V30 4413 C 451.248 5.92786 3.80505 0
M  V30 4414 H 447.347 0.31468 0.715891 0
M  V30 4415 H 449.931 1.30295 1.44677 0
M  V30 4416 H 448.102 0.534839 3.847 0
M  V30 4417 H 449.834 0.744997 3.97784 0
M  V30 4418 H 446.589 2.76003 3.84862 0
M  V30 4419 H 447.013 5.36624 4.12752 0
M  V30 4420 H 451.655 2.56593 3.36035 0
M  V30 4421 H 449.373 6.95326 4.11762 0
M  V30 4422 H 452.959 4.66432 3.47754 0
M  V30 4423 H 451.839 6.83003 3.85327 0
M  V30 4424 N 449.342 -1.36122 0.79427 0
M  V30 4425 C 450.252 -2.33769 0.197296 0
M  V30 4426 C 451.268 -1.61276 -0.653153 0
M  V30 4427 O 452.444 -1.9323 -0.5678 0
M  V30 4428 C 449.509 -3.40474 -0.654098 0
M  V30 4429 C 448.57 -4.28759 0.215411 0
M  V30 4430 C 447.803 -5.30368 -0.595443 0
M  V30 4431 O 448.026 -5.40211 -1.83107 0
M  V30 4432 O 446.96 -6.019 0.00721351 0
M  V30 4433 H 450.786 -2.86597 1.00478 0
M  V30 4434 H 448.371 -1.38676 0.555818 0
M  V30 4435 H 450.253 -4.05703 -1.13944 0
M  V30 4436 H 448.928 -2.89937 -1.43938 0
M  V30 4437 H 447.835 -3.66554 0.747615 0
M  V30 4438 H 449.168 -4.82661 0.964332 0
M  V30 4439 N 450.82 -0.546701 -1.47814 0
M  V30 4440 C 452.236 -0.205717 -1.58269 0
M  V30 4441 C 452.436 1.29153 -1.54667 0
M  V30 4442 O 451.492 2.07098 -1.44453 0
M  V30 4443 C 452.805 -0.823065 -2.89216 0
M  V30 4444 C 454.353 -0.793328 -3.02779 0
M  V30 4445 C 454.828 -1.38955 -4.36412 0
M  V30 4446 N 456.319 -1.35227 -4.43021 0
M  V30 4447 C 457.054 -1.78333 -5.44963 0
M  V30 4448 N 456.55 -2.29246 -6.53772 0
M  V30 4449 N 458.343 -1.69467 -5.35945 0
M  V30 4450 H 450.494 -1.5196 -1.48398 0
M  V30 4451 H 452.757 -0.633078 -0.705632 0
M  V30 4452 H 452.463 -1.8749 -2.97558 0
M  V30 4453 H 452.337 -0.309915 -3.75925 0
M  V30 4454 H 454.724 0.249784 -2.94041 0
M  V30 4455 H 454.805 -1.34412 -2.17639 0
M  V30 4456 H 454.449 -2.43168 -4.45906 0
M  V30 4457 H 454.379 -0.814291 -5.20266 0
M  V30 4458 H 456.87 -0.979739 -3.64979 0
M  V30 4459 H 457.183 -2.60089 -7.27718 0
M  V30 4460 H 455.528 -2.3325 -6.5469 0
M  V30 4461 H 458.719 -1.29477 -4.49837 0
M  V30 4462 H 458.892 -2.03381 -6.15256 0
M  V30 4463 N 452.299 1.55045 -0.282633 0
M  V30 4464 C 453.229 2.2579 0.595066 0
M  V30 4465 C 454.21 1.25074 1.15284 0
M  V30 4466 O 455.395 1.5381 1.18559 0
M  V30 4467 C 452.525 2.98472 1.77572 0
M  V30 4468 C 451.479 4.0618 1.34914 0
M  V30 4469 C 450.805 4.66477 2.6135 0
M  V30 4470 C 452.105 5.1996 0.493821 0
M  V30 4471 H 453.799 2.994 0.00505653 0
M  V30 4472 H 451.345 1.44 0.000992001 0
M  V30 4473 H 453.298 3.46677 2.39568 0
M  V30 4474 H 452.022 2.2241 2.39168 0
M  V30 4475 H 450.681 3.58797 0.752338 0
M  V30 4476 H 450.329 3.87074 3.2122 0
M  V30 4477 H 450.029 5.39207 2.33516 0
M  V30 4478 H 451.553 5.17435 3.24181 0
M  V30 4479 H 452.967 5.64172 1.01898 0
M  V30 4480 H 451.364 5.99299 0.310047 0
M  V30 4481 H 452.434 4.82462 -0.485593 0
M  V30 4482 N 453.777 0.010035 1.57597 0
M  V30 4483 C 454.74 -0.963029 2.07986 0
M  V30 4484 C 455.74 -1.26619 0.991173 0
M  V30 4485 O 456.93 -1.2097 1.25347 0
M  V30 4486 C 454.062 -2.2851 2.52974 0
M  V30 4487 H 455.255 -0.526971 2.95234 0
M  V30 4488 H 452.808 -0.237639 1.54483 0
M  V30 4489 H 453.543 -2.76784 1.69 0
M  V30 4490 H 453.328 -2.07824 3.32493 0
M  V30 4491 H 454.818 -2.98294 2.9225 0
M  V30 4492 N 455.255 -1.55392 -0.262866 0
M  V30 4493 C 456.503 -1.76127 -0.991147 0
M  V30 4494 C 456.824 -0.571083 -1.8645 0
M  V30 4495 O 456.094 0.413698 -1.91482 0
M  V30 4496 H 454.674 -0.649528 -0.368948 0
M  V30 4497 H 457.336 -1.9281 -0.284655 0
M  V30 4498 H 456.432 -2.6663 -1.62219 0
M  V30 4499 N 456.733 0.527833 -1.48498 0
M  V30 4500 C 457.696 1.61439 -1.62696 0
M  V30 4501 C 458.696 1.52824 -0.500136 0
M  V30 4502 O 459.886 1.56456 -0.765976 0
M  V30 4503 C 457.018 3.01063 -1.59918 0
M  V30 4504 H 458.211 1.50189 -2.59583 0
M  V30 4505 H 455.764 0.750055 -1.37127 0
M  V30 4506 H 456.499 3.17818 -0.645163 0
M  V30 4507 H 456.284 3.08725 -2.41726 0
M  V30 4508 H 457.774 3.80057 -1.73051 0
M  V30 4509 N 458.211 1.37122 0.776871 0
M  V30 4510 C 459.46 1.31373 1.53049 0
M  V30 4511 C 459.773 -0.101016 1.95339 0
M  V30 4512 O 460.979 -0.280953 2.70042 0
M  V30 4513 C 459.435 2.30567 2.76346 0
M  V30 4514 C 459.043 3.77543 2.41175 0
M  V30 4515 C 460.787 2.33818 3.54301 0
M  V30 4516 C 458.694 4.68481 3.60943 0
M  V30 4517 H 457.624 0.488234 0.574581 0
M  V30 4518 H 460.275 1.62554 0.851372 0
M  V30 4519 H 458.657 1.92396 3.46121 0
M  V30 4520 H 459.831 4.24521 1.79216 0
M  V30 4521 H 458.146 3.77187 1.76405 0
M  V30 4522 H 460.743 2.98965 4.4331 0
M  V30 4523 H 461.086 1.3503 3.93793 0
M  V30 4524 H 461.619 2.7067 2.91518 0
M  V30 4525 H 458.358 5.68378 3.26537 0
M  V30 4526 H 457.878 4.2621 4.22025 0
M  V30 4527 H 459.557 4.85366 4.27819 0
M  V30 4528 N 459.689 -1.00246 1.21608 0
M  V30 4529 C 460.622 -2.08794 0.920892 0
M  V30 4530 C 461.6 -1.62059 -0.132552 0
M  V30 4531 O 462.784 -1.885 -0.0030366 0
M  V30 4532 C 459.911 -3.36525 0.383226 0
M  V30 4533 C 458.957 -4.02172 1.41987 0
M  V30 4534 S 459.79 -4.44256 2.98994 0
M  V30 4535 C 460.946 -5.7517 2.4684 0
M  V30 4536 H 461.179 -2.33511 1.8401 0
M  V30 4537 H 458.712 -1.13562 1.04609 0
M  V30 4538 H 460.67 -4.10423 0.0795871 0
M  V30 4539 H 459.331 -3.09854 -0.514711 0
M  V30 4540 H 458.524 -4.94114 0.993335 0
M  V30 4541 H 458.126 -3.34559 1.67171 0
M  V30 4542 H 460.418 -6.51042 1.87484 0
M  V30 4543 H 461.361 -6.22638 3.37235 0
M  V30 4544 H 461.769 -5.32112 1.88461 0
M  V30 4545 N 461.167 -1.02423 -1.1978 0
M  V30 4546 C 462.416 -0.713265 -1.88667 0
M  V30 4547 C 462.729 0.7609 -1.80193 0
M  V30 4548 O 463.935 1.18473 -2.44288 0
M  V30 4549 C 462.391 -1.22545 -3.38394 0
M  V30 4550 C 461.999 -2.72706 -3.55437 0
M  V30 4551 C 463.743 -0.990257 -4.12788 0
M  V30 4552 C 461.65 -3.17367 -4.99031 0
M  V30 4553 H 460.58 -0.263105 -0.706606 0
M  V30 4554 H 463.231 -1.23792 -1.35454 0
M  V30 4555 H 461.613 -0.628732 -3.90977 0
M  V30 4556 H 462.787 -3.37993 -3.13205 0
M  V30 4557 H 461.102 -2.94453 -2.94425 0
M  V30 4558 H 463.699 -1.29926 -5.18675 0
M  V30 4559 H 464.042 0.0730761 -4.16236 0
M  V30 4560 H 464.575 -1.55074 -3.66329 0
M  V30 4561 H 461.314 -4.23009 -5.00743 0
M  V30 4562 H 460.834 -2.56805 -5.42044 0
M  V30 4563 H 462.513 -3.10441 -5.67658 0
M  V30 4564 N 462.645 1.35699 -0.801477 0
M  V30 4565 C 463.87 2.03687 -0.390678 0
M  V30 4566 C 464.295 1.60015 0.988778 0
M  V30 4567 O 463.653 0.774357 1.63931 0
M  V30 4568 C 463.701 3.57439 -0.476404 0
M  V30 4569 O 462.805 4.09208 0.512106 0
M  V30 4570 H 462.146 0.64344 -0.163956 0
M  V30 4571 H 464.676 1.73403 -1.08594 0
M  V30 4572 H 464.686 4.06544 -0.344357 0
M  V30 4573 H 463.361 3.88576 -1.48262 0
M  V30 4574 H 461.938 3.7134 0.340721 0
M  V30 4575 N 464.123 0.554532 1.47522 0
M  V30 4576 C 465.053 -0.182974 2.32782 0
M  V30 4577 C 466.034 -0.911377 1.43624 0
M  V30 4578 O 467.219 -0.892366 1.72483 0
M  V30 4579 C 464.349 -1.21513 3.25349 0
M  V30 4580 C 463.303 -0.603355 4.23726 0
M  V30 4581 C 462.629 -1.73995 5.05598 0
M  V30 4582 C 463.929 0.441121 5.20434 0
M  V30 4583 H 465.623 0.52882 2.94693 0
M  V30 4584 H 463.169 0.255759 1.41711 0
M  V30 4585 H 465.122 -1.73922 3.83835 0
M  V30 4586 H 463.846 -1.95683 2.61487 0
M  V30 4587 H 462.505 -0.10059 3.66462 0
M  V30 4588 H 462.153 -2.47063 4.38143 0
M  V30 4589 H 461.853 -1.3364 5.72201 0
M  V30 4590 H 463.377 -2.26735 5.66942 0
M  V30 4591 H 464.791 0.00319931 5.733 0
M  V30 4592 H 463.188 0.763402 5.95224 0
M  V30 4593 H 464.258 1.33799 4.66075 0
M  V30 4594 N 465.601 -1.54893 0.290851 0
M  V30 4595 C 466.848 -1.99933 -0.321391 0
M  V30 4596 C 467.176 -1.17927 -1.54672 0
M  V30 4597 O 466.431 -0.240902 -1.94212 0
M  V30 4598 C 466.73 -3.49815 -0.732397 0
M  V30 4599 C 466.396 -4.4921 0.390056 0
M  V30 4600 C 465.058 -4.76107 0.698223 0
M  V30 4601 C 467.41 -5.08453 1.14562 0
M  V30 4602 C 464.738 -5.59514 1.76526 0
M  V30 4603 C 467.09 -5.9302 2.2025 0
M  V30 4604 C 465.754 -6.18232 2.51684 0
M  V30 4605 H 465.024 -0.731608 -0.117605 0
M  V30 4606 H 467.671 -1.87107 0.407839 0
M  V30 4607 H 465.976 -3.60199 -1.54155 0
M  V30 4608 H 467.673 -3.82083 -1.21712 0
M  V30 4609 H 464.263 -4.28372 0.13976 0
M  V30 4610 H 468.447 -4.87683 0.920801 0
M  V30 4611 H 463.703 -5.77289 2.01364 0
M  V30 4612 H 467.877 -6.37955 2.7926 0
M  V30 4613 H 465.504 -6.82653 3.34499 0
M  V30 4614 N 467.08 -0.0183926 -1.57589 0
M  V30 4615 C 468.305 0.676634 -1.96052 0
M  V30 4616 C 468.73 1.6548 -0.894307 0
M  V30 4617 O 468.088 1.80712 0.145849 0
M  V30 4618 C 468.136 1.36872 -3.33614 0
M  V30 4619 O 467.24 2.48372 -3.29219 0
M  V30 4620 H 466.581 0.1786 -0.63953 0
M  V30 4621 H 469.111 -0.077056 -2.04455 0
M  V30 4622 H 469.121 1.72797 -3.69601 0
M  V30 4623 H 467.796 0.651636 -4.10763 0
M  V30 4624 H 466.373 2.14639 -3.04934 0
M  V30 4625 N 468.558 1.5553 0.254621 0
M  V30 4626 C 469.835 1.6774 1.00611 0
M  V30 4627 C 470.215 0.555993 2.03647 0
M  V30 4628 O 469.563 -0.441583 2.24193 0
M  V30 4629 C 469.773 3.07725 1.6464 0
M  V30 4630 C 471.121 3.66074 2.15116 0
M  V30 4631 O 472.145 3.10476 1.74595 0
M  V30 4632 O 471.004 4.63526 2.89493 0
M  V30 4633 H 468.098 0.681958 0.467828 0
M  V30 4634 H 470.644 1.67863 0.24902 0
M  V30 4635 H 469.416 3.80792 0.900734 0
M  V30 4636 H 469.039 3.1158 2.46989 0
M  V30 4637 N 470.036 -0.519951 1.48776 0
M  V30 4638 C 471.264 -1.29971 1.60982 0
M  V30 4639 C 471.679 -1.86803 0.273885 0
M  V30 4640 O 471.036 -1.66904 -0.738193 0
M  V30 4641 C 471.087 -2.44346 2.66415 0
M  V30 4642 O 470.808 -1.89855 3.94825 0
M  V30 4643 C 472.309 -3.36014 2.89153 0
M  V30 4644 H 469.529 -0.394891 0.542496 0
M  V30 4645 H 472.073 -0.626214 1.94676 0
M  V30 4646 H 470.228 -3.07562 2.35552 0
M  V30 4647 H 470.642 -2.64798 4.5275 0
M  V30 4648 H 472.116 -4.12593 3.66703 0
M  V30 4649 H 472.593 -3.91859 1.98351 0
M  V30 4650 H 473.199 -2.78582 3.21359 0
M  V30 4651 N 471.514 -1.37532 -0.769588 0
M  V30 4652 C 472.444 -1.36172 -1.89682 0
M  V30 4653 C 473.425 -0.23001 -1.68538 0
M  V30 4654 O 474.61 -0.43069 -1.89364 0
M  V30 4655 C 471.74 -1.1701 -3.26995 0
M  V30 4656 C 470.694 -2.27216 -3.62708 0
M  V30 4657 C 470.02 -1.93174 -4.98586 0
M  V30 4658 C 471.32 -3.6941 -3.69234 0
M  V30 4659 H 473.014 -2.30499 -1.91078 0
M  V30 4660 H 470.56 -1.10953 -0.917902 0
M  V30 4661 H 472.513 -1.14688 -4.05493 0
M  V30 4662 H 471.237 -0.191395 -3.26039 0
M  V30 4663 H 469.896 -2.28697 -2.86519 0
M  V30 4664 H 469.544 -0.938281 -4.94171 0
M  V30 4665 H 469.244 -2.66973 -5.23449 0
M  V30 4666 H 470.768 -1.92443 -5.79481 0
M  V30 4667 H 472.182 -3.70047 -4.37879 0
M  V30 4668 H 470.579 -4.4228 -4.05597 0
M  V30 4669 H 471.649 -4.0288 -2.69844 0
M  V30 4670 N 472.992 0.995999 -1.22138 0
M  V30 4671 C 474.22 1.77066 -1.07029 0
M  V30 4672 C 474.635 1.8495 0.379357 0
M  V30 4673 O 473.992 1.3174 1.26297 0
M  V30 4674 C 474.043 3.20533 -1.67155 0
M  V30 4675 O 473.764 3.13082 -3.06449 0
M  V30 4676 C 475.265 4.14461 -1.5728 0
M  V30 4677 H 472.485 0.556179 -0.375374 0
M  V30 4678 H 475.029 1.25238 -1.61666 0
M  V30 4679 H 473.184 3.6944 -1.16589 0
M  V30 4680 H 473.598 4.03283 -3.35355 0
M  V30 4681 H 475.072 5.1289 -2.04078 0
M  V30 4682 H 475.549 4.36005 -0.528795 0
M  V30 4683 H 476.155 3.71449 -2.07136 0
M  V30 4684 N 474.47 1.03057 1.19235 0
M  V30 4685 C 475.433 0.617418 2.20727 0
M  V30 4686 C 476.433 -0.319856 1.57587 0
M  V30 4687 O 477.623 -0.106633 1.73873 0
M  V30 4688 C 474.755 -0.096296 3.40764 0
M  V30 4689 H 475.948 1.51544 2.58794 0
M  V30 4690 H 473.501 0.821949 1.32942 0
M  V30 4691 H 474.236 -1.00859 3.08217 0
M  V30 4692 H 474.021 0.577217 3.87828 0
M  V30 4693 H 475.511 -0.372219 4.15938 0
M  V30 4694 N 475.948 -1.35272 0.808662 0
M  V30 4695 C 476.878 -2.32315 0.234981 0
M  V30 4696 C 477.859 -1.57572 -0.64071 0
M  V30 4697 O 479.044 -1.8563 -0.570551 0
M  V30 4698 C 476.174 -3.41801 -0.615601 0
M  V30 4699 C 475.128 -4.27694 0.161767 0
M  V30 4700 C 474.454 -5.28519 -0.810649 0
M  V30 4701 C 475.754 -5.04231 1.36193 0
M  V30 4702 H 477.448 -2.80543 1.04575 0
M  V30 4703 H 474.994 -1.3488 0.504315 0
M  V30 4704 H 476.947 -4.08693 -1.02702 0
M  V30 4705 H 475.671 -2.92186 -1.45928 0
M  V30 4706 H 474.33 -3.62384 0.554382 0
M  V30 4707 H 473.978 -4.75171 -1.64988 0
M  V30 4708 H 473.678 -5.8686 -0.294822 0
M  V30 4709 H 475.202 -5.98283 -1.22023 0
M  V30 4710 H 476.616 -5.64058 1.02528 0
M  V30 4711 H 475.013 -5.72077 1.81239 0
M  V30 4712 H 476.083 -4.34753 2.14751 0
M  V30 4713 N 477.426 -0.562348 -1.47226 0
M  V30 4714 C 478.672 -0.0402761 -2.0276 0
M  V30 4715 C 479.005 1.30823 -1.43523 0
M  V30 4716 O 478.28 1.85249 -0.592705 0
M  V30 4717 C 478.563 0.047311 -3.60069 0
M  V30 4718 C 478.416 -1.32865 -4.29729 0
M  V30 4719 C 479.735 0.758182 -4.3352 0
M  V30 4720 H 476.854 -0.0161105 -0.736824 0
M  V30 4721 H 479.496 -0.725628 -1.75598 0
M  V30 4722 H 477.646 0.630986 -3.83342 0
M  V30 4723 H 479.318 -1.95593 -4.17781 0
M  V30 4724 H 477.561 -1.90195 -3.89882 0
M  V30 4725 H 478.232 -1.22004 -5.38349 0
M  V30 4726 H 480.708 0.262546 -4.15271 0
M  V30 4727 H 479.584 0.78844 -5.43208 0
M  V30 4728 H 479.845 1.81537 -4.03109 0
M  V30 4729 N 478.904 1.54736 -0.299062 0
M  V30 4730 C 479.852 2.24897 0.593658 0
M  V30 4731 C 480.846 1.25429 1.13859 0
M  V30 4732 O 482.052 1.43286 1.08945 0
M  V30 4733 H 478.427 0.72207 0.210046 0
M  V30 4734 H 480.398 2.98393 -0.0206421 0
M  V30 4735 C 479.147 3.00159 1.75499 0
M  V30 4736 H 478.47 3.76501 1.34489 0
M  V30 4737 H 479.91 3.52535 2.35574 0
M  V30 4738 C 478.369 2.07015 2.65794 0
M  V30 4739 O 478.899 1.63692 3.66835 0
M  V30 4740 N 477.105 1.73012 2.33485 0
M  V30 4741 H 476.652 2.08439 1.51364 0
M  V30 4742 H 476.61 1.10965 2.94167 0
M  V30 4743 N 480.382 0.0267497 1.57577 0
M  V30 4744 C 481.314 -0.984594 2.06974 0
M  V30 4745 C 482.327 -1.29032 0.992705 0
M  V30 4746 O 483.516 -1.25539 1.26895 0
M  V30 4747 C 480.616 -2.31262 2.47732 0
M  V30 4748 C 479.789 -2.1924 3.78487 0
M  V30 4749 C 478.848 -3.34956 4.05821 0
M  V30 4750 O 477.874 -3.11948 4.76106 0
M  V30 4751 N 479.076 -4.58672 3.55809 0
M  V30 4752 H 481.841 -0.563143 2.94362 0
M  V30 4753 H 479.402 -0.160061 1.61107 0
M  V30 4754 H 481.394 -3.07496 2.63112 0
M  V30 4755 H 479.964 -2.65056 1.65723 0
M  V30 4756 H 479.184 -1.27747 3.72927 0
M  V30 4757 H 480.472 -2.08409 4.64158 0
M  V30 4758 H 479.87 -4.8026 2.98942 0
M  V30 4759 H 478.427 -5.32083 3.76472 0
M  V30 4760 N 481.861 -1.55662 -0.24637 0
M  V30 4761 C 483.089 -1.81575 -0.991876 0
M  V30 4762 C 483.504 -0.602545 -1.78927 0
M  V30 4763 O 482.861 0.428795 -1.77391 0
M  V30 4764 C 482.912 -3.05711 -1.92933 0
M  V30 4765 O 482.633 -4.22348 -1.1642 0
M  V30 4766 C 484.134 -3.44428 -2.79078 0
M  V30 4767 H 481.354 -0.604209 -0.291844 0
M  V30 4768 H 483.898 -2.02722 -0.269095 0
M  V30 4769 H 482.053 -2.86612 -2.60638 0
M  V30 4770 H 482.467 -4.92706 -1.79835 0
M  V30 4771 H 483.941 -4.34388 -3.40603 0
M  V30 4772 H 484.418 -2.65037 -3.50217 0
M  V30 4773 H 485.024 -3.65879 -2.16824 0
M  V30 4774 N 483.339 0.512053 -1.4905 0
M  V30 4775 C 484.271 1.63121 -1.6101 0
M  V30 4776 C 485.284 1.55145 -0.493352 0
M  V30 4777 O 486.473 1.61278 -0.764955 0
M  V30 4778 C 483.573 3.01863 -1.54052 0
M  V30 4779 C 482.746 3.35138 -2.81072 0
M  V30 4780 C 481.805 4.5324 -2.67319 0
M  V30 4781 O 480.831 4.55571 -3.41238 0
M  V30 4782 N 482.033 5.52495 -1.78127 0
M  V30 4783 H 484.798 1.53292 -2.5753 0
M  V30 4784 H 482.359 0.699706 -1.45999 0
M  V30 4785 H 484.351 3.78774 -1.42521 0
M  V30 4786 H 482.921 3.05675 -0.654345 0
M  V30 4787 H 482.141 2.4723 -3.07036 0
M  V30 4788 H 483.429 3.54162 -3.65304 0
M  V30 4789 H 482.827 5.53403 -1.17308 0
M  V30 4790 H 481.384 6.28553 -1.72525 0
M  V30 4791 N 484.817 1.37938 0.762283 0
M  V30 4792 C 486.042 1.37059 1.55659 0
M  V30 4793 C 486.467 -0.0396123 1.88058 0
M  V30 4794 O 485.825 -1.01929 1.49934 0
M  V30 4795 C 485.873 2.22494 2.83776 0
M  V30 4796 O 484.977 1.63607 3.78559 0
M  V30 4797 H 484.318 0.467892 0.47114 0
M  V30 4798 H 486.848 1.81587 0.942725 0
M  V30 4799 H 486.858 2.36045 3.32786 0
M  V30 4800 H 485.533 3.24993 2.59524 0
M  V30 4801 H 484.11 1.5915 3.37233 0
M  V30 4802 N 486.295 -0.989507 1.22664 0
M  V30 4803 C 487.243 -2.10148 0.997035 0
M  V30 4804 C 488.237 -1.6929 -0.0609783 0
M  V30 4805 O 489.443 -1.79766 0.0917523 0
M  V30 4806 H 485.818 -0.687256 0.305259 0
M  V30 4807 H 487.789 -2.26685 1.94053 0
M  V30 4808 C 486.538 -3.4257 0.595085 0
M  V30 4809 H 485.861 -3.74453 1.40089 0
M  V30 4810 H 487.301 -4.21344 0.473869 0
M  V30 4811 C 485.76 -3.29638 -0.695725 0
M  V30 4812 O 486.29 -3.61709 -1.74727 0
M  V30 4813 N 484.496 -2.82814 -0.668173 0
M  V30 4814 H 484.043 -2.56914 0.18787 0
M  V30 4815 H 484.001 -2.74544 -1.5321 0
M  V30 4816 N 487.773 -1.03688 -1.18687 0
M  V30 4817 C 488.721 -0.618292 -2.24232 0
M  V30 4818 C 489.715 0.353045 -1.6568 0
M  V30 4819 O 490.921 0.220749 -1.78641 0
M  V30 4820 H 487.296 -0.181711 -0.729716 0
M  V30 4821 H 489.267 -1.51893 -2.56848 0
M  V30 4822 C 488.016 0.00677342 -3.47699 0
M  V30 4823 H 487.339 -0.731692 -3.93047 0
M  V30 4824 H 488.779 0.262492 -4.23187 0
M  V30 4825 C 487.238 1.25572 -3.12623 0
M  V30 4826 O 487.768 2.34691 -3.26011 0
M  V30 4827 N 485.974 1.14755 -2.66982 0
M  V30 4828 H 485.521 0.259601 -2.56289 0
M  V30 4829 H 485.479 1.98412 -2.43885 0
M  V30 4830 N 489.251 1.34841 -0.815825 0
M  V30 4831 C 490.5 1.97755 -0.396976 0
M  V30 4832 C 490.813 1.65422 1.04379 0
M  V30 4833 O 492.019 2.21771 1.5662 0
M  V30 4834 C 490.475 3.53818 -0.658869 0
M  V30 4835 C 490.083 3.95051 -2.11278 0
M  V30 4836 C 491.827 4.23397 -0.305834 0
M  V30 4837 C 489.734 5.43997 -2.31994 0
M  V30 4838 H 488.664 0.739985 -0.1447 0
M  V30 4839 H 491.315 1.53781 -1.00118 0
M  V30 4840 H 489.697 3.95997 0.0154112 0
M  V30 4841 H 490.871 3.63998 -2.82564 0
M  V30 4842 H 489.186 3.38388 -2.42657 0
M  V30 4843 H 491.783 5.32899 -0.43854 0
M  V30 4844 H 492.126 4.09508 0.748952 0
M  V30 4845 H 492.659 3.8667 -0.934403 0
M  V30 4846 H 489.398 5.62865 -3.35952 0
M  V30 4847 H 488.918 5.76589 -1.65244 0
M  V30 4848 H 490.597 6.10584 -2.14001 0
M  V30 4849 N 490.729 0.570148 1.46925 0
M  V30 4850 C 491.661 -0.207909 2.28255 0
M  V30 4851 C 492.674 -0.867301 1.37774 0
M  V30 4852 O 493.863 -0.738976 1.62485 0
M  V30 4853 C 490.963 -1.31298 3.12433 0
M  V30 4854 C 490.136 -0.747915 4.30958 0
M  V30 4855 C 489.195 -1.7391 4.9663 0
M  V30 4856 O 488.221 -1.2801 5.54619 0
M  V30 4857 N 489.423 -3.07288 4.92498 0
M  V30 4858 H 492.188 0.489794 2.95671 0
M  V30 4859 H 489.749 0.407076 1.56699 0
M  V30 4860 H 491.741 -1.97507 3.53232 0
M  V30 4861 H 490.311 -1.91373 2.47175 0
M  V30 4862 H 489.531 0.0913066 3.94094 0
M  V30 4863 H 490.819 -0.349958 5.07595 0
M  V30 4864 H 490.217 -3.47213 4.46609 0
M  V30 4865 H 488.774 -3.69021 5.37277 0
M  V30 4866 N 492.207 -1.54576 0.307264 0
M  V30 4867 C 493.437 -2.04378 -0.302158 0
M  V30 4868 C 493.845 -1.18381 -1.47589 0
M  V30 4869 O 493.188 -0.20352 -1.82569 0
M  V30 4870 C 493.25 -3.50133 -0.815305 0
M  V30 4871 C 492.914 -4.56401 0.233977 0
M  V30 4872 C 493.911 -5.08884 1.06456 0
M  V30 4873 C 491.596 -5.0088 0.377478 0
M  V30 4874 C 493.59 -6.04394 2.02452 0
M  V30 4875 C 491.277 -5.96208 1.34088 0
M  V30 4876 C 492.275 -6.47849 2.16288 0
M  V30 4877 O 491.963 -7.41308 3.10994 0
M  V30 4878 H 491.695 -0.672502 -0.0686839 0
M  V30 4879 H 494.249 -2.00484 0.446682 0
M  V30 4880 H 492.479 -3.51371 -1.61478 0
M  V30 4881 H 494.168 -3.83098 -1.34129 0
M  V30 4882 H 494.934 -4.75311 0.964596 0
M  V30 4883 H 490.813 -4.60309 -0.252405 0
M  V30 4884 H 494.357 -6.44626 2.66652 0
M  V30 4885 H 490.254 -6.29198 1.44154 0
M  V30 4886 H 491.022 -7.5913 3.06045 0
M  V30 4887 N 493.685 -0.035106 -1.57561 0
M  V30 4888 C 494.633 0.962707 -2.11742 0
M  V30 4889 C 495.627 1.33296 -1.0454 0
M  V30 4890 O 496.833 1.31449 -1.22968 0
M  V30 4891 H 493.208 0.32826 -0.676572 0
M  V30 4892 H 495.179 0.48048 -2.94506 0
M  V30 4893 C 493.928 2.23388 -2.66445 0
M  V30 4894 H 493.251 1.95774 -3.48587 0
M  V30 4895 H 494.691 2.91402 -3.07995 0
M  V30 4896 C 493.15 2.96769 -1.59467 0
M  V30 4897 O 493.68 3.89105 -0.998 0
M  V30 4898 N 491.886 2.59212 -1.31369 0
M  V30 4899 H 491.433 1.84202 -1.80076 0
M  V30 4900 H 491.391 3.08618 -0.600173 0
M  V30 4901 N 495.163 1.55791 0.238111 0
M  V30 4902 C 496.388 1.8244 0.986432 0
M  V30 4903 C 496.813 0.613314 1.7782 0
M  V30 4904 O 496.171 -0.437767 1.75935 0
M  V30 4905 C 496.219 3.06917 1.893 0
M  V30 4906 O 495.323 2.84449 2.98601 0
M  V30 4907 H 494.664 0.601975 0.280218 0
M  V30 4908 H 497.194 2.02987 0.256437 0
M  V30 4909 H 497.204 3.36583 2.30598 0
M  V30 4910 H 495.879 3.947 1.31091 0
M  V30 4911 H 494.456 2.65972 2.61368 0
M  V30 4912 N 496.642 -0.504142 1.49319 0
M  V30 4913 C 497.87 -1.28256 1.62351 0
M  V30 4914 C 498.285 -1.86502 0.293682 0
M  V30 4915 O 497.642 -1.67678 -0.720449 0
M  V30 4916 C 497.693 -2.41507 2.68992 0
M  V30 4917 O 497.414 -1.85656 3.96817 0
M  V30 4918 C 498.915 -3.32929 2.927 0
M  V30 4919 H 496.135 -0.389115 0.546654 0
M  V30 4920 H 498.679 -0.605531 1.95329 0
M  V30 4921 H 496.834 -3.05046 2.38801 0
M  V30 4922 H 497.248 -2.59981 4.55533 0
M  V30 4923 H 498.722 -4.0868 3.71058 0
M  V30 4924 H 499.199 -3.89733 2.02496 0
M  V30 4925 H 499.805 -2.75158 3.24296 0
M  V30 4926 N 498.12 -1.38341 -0.754957 0
M  V30 4927 C 499.03 -1.3769 -1.89944 0
M  V30 4928 C 500.046 -0.274194 -1.71826 0
M  V30 4929 O 501.222 -0.512391 -1.94773 0
M  V30 4930 C 498.287 -1.19938 -3.25293 0
M  V30 4931 C 497.348 -2.40001 -3.55946 0
M  V30 4932 C 496.581 -2.23087 -4.84838 0
M  V30 4933 O 496.804 -1.22386 -5.57116 0
M  V30 4934 O 495.738 -3.11646 -5.14937 0
M  V30 4935 H 499.564 -2.3412 -1.93446 0
M  V30 4936 H 497.149 -1.19246 -0.900044 0
M  V30 4937 H 499.031 -1.12093 -4.06218 0
M  V30 4938 H 497.706 -0.265919 -3.22606 0
M  V30 4939 H 496.613 -2.53421 -2.75188 0
M  V30 4940 H 497.946 -3.31973 -3.63394 0
M  V30 4941 N 499.598 0.982988 -1.23187 0
M  V30 4942 C 500.546 2.09616 -1.00817 0
M  V30 4943 C 501.54 1.6932 0.0519995 0
M  V30 4944 O 502.746 1.79715 -0.101284 0
M  V30 4945 H 499.121 0.685628 -0.308899 0
M  V30 4946 H 501.092 2.25652 -1.95253 0
M  V30 4947 C 499.841 3.42249 -0.613243 0
M  V30 4948 H 499.164 3.73705 -1.42073 0
M  V30 4949 H 500.604 4.21086 -0.496208 0
M  V30 4950 C 499.063 3.30002 0.678233 0
M  V30 4951 O 499.593 3.6263 1.72807 0
M  V30 4952 N 497.799 2.83164 0.653165 0
M  V30 4953 H 497.346 2.56811 -0.201492 0
M  V30 4954 H 497.304 2.75352 1.51752 0
M  V30 4955 N 501.076 1.04316 1.18135 0
M  V30 4956 C 502.301 0.768047 1.92655 0
M  V30 4957 C 502.726 -0.66904 1.758 0
M  V30 4958 O 502.084 -1.46372 1.06981 0
M  V30 4959 C 502.132 1.14239 3.42026 0
M  V30 4960 O 501.236 0.269333 4.1152 0
M  V30 4961 H 500.577 0.282436 0.600937 0
M  V30 4962 H 503.107 1.39367 1.49793 0
M  V30 4963 H 503.117 1.10538 3.92741 0
M  V30 4964 H 501.792 2.18928 3.53615 0
M  V30 4965 H 500.369 0.366175 3.71098 0
M  V30 4966 N 502.554 -1.34406 0.822964 0
M  V30 4967 C 503.802 -1.97892 0.410245 0
M  V30 4968 C 504.123 -1.65567 -1.03017 0
M  V30 4969 O 503.393 -0.94642 -1.71522 0
M  V30 4970 H 501.973 -0.732049 0.148707 0
M  V30 4971 H 504.635 -1.64043 1.05242 0
M  V30 4972 H 503.731 -3.07579 0.529284 0
M  V30 4973 N 504.032 -0.577932 -1.46621 0
M  V30 4974 C 505.28 -0.061566 -2.02006 0
M  V30 4975 C 505.601 1.30117 -1.4524 0
M  V30 4976 O 504.871 1.85313 -0.63529 0
M  V30 4977 H 503.451 -0.0197692 -0.746738 0
M  V30 4978 H 506.113 -0.752631 -1.79782 0
M  V30 4979 H 505.209 0.0110238 -3.12098 0
M  V30 4980 N 505.51 1.54411 -0.315457 0
M  V30 4981 C 506.442 2.21527 0.588067 0
M  V30 4982 C 507.455 1.21263 1.08624 0
M  V30 4983 O 508.644 1.47777 1.00121 0
M  V30 4984 C 505.744 2.85963 1.81875 0
M  V30 4985 C 504.917 4.12291 1.46063 0
M  V30 4986 C 503.976 4.60396 2.54799 0
M  V30 4987 O 503.002 5.25265 2.19283 0
M  V30 4988 N 504.204 4.33935 3.85591 0
M  V30 4989 H 506.969 2.99697 0.013414 0
M  V30 4990 H 504.53 1.61308 -0.138295 0
M  V30 4991 H 506.522 3.15071 2.53993 0
M  V30 4992 H 505.092 2.11548 2.30144 0
M  V30 4993 H 504.312 3.90036 0.571445 0
M  V30 4994 H 505.6 4.9452 1.19695 0
M  V30 4995 H 504.998 3.81996 4.17248 0
M  V30 4996 H 503.555 4.67718 4.53964 0
M  V30 4997 N 506.988 0.0434614 1.5754 0
M  V30 4998 C 507.918 -0.931651 2.14109 0
M  V30 4999 C 508.899 -1.32971 1.06079 0
M  V30 5000 O 510.084 -1.40579 1.33982 0
M  V30 5001 C 507.214 -2.20914 2.67982 0
M  V30 5002 C 506.168 -1.95139 3.80926 0
M  V30 5003 C 505.494 -3.29276 4.21285 0
M  V30 5004 C 506.794 -1.27913 5.06395 0
M  V30 5005 H 508.488 -0.460497 2.95837 0
M  V30 5006 H 506.034 -0.220058 1.42309 0
M  V30 5007 H 507.987 -2.89522 3.06194 0
M  V30 5008 H 506.711 -2.70221 1.83434 0
M  V30 5009 H 505.37 -1.28945 3.43175 0
M  V30 5010 H 505.018 -3.76369 3.33699 0
M  V30 5011 H 504.718 -3.12831 4.97404 0
M  V30 5012 H 506.242 -3.99129 4.62091 0
M  V30 5013 H 507.656 -1.86544 5.42102 0
M  V30 5014 H 506.053 -1.2182 5.87605 0
M  V30 5015 H 507.123 -0.254066 4.84234 0
M  V30 5016 N 508.466 -1.55915 -0.229846 0
M  V30 5017 C 509.429 -1.90914 -1.26824 0
M  V30 5018 C 510.429 -0.786999 -1.40225 0
M  V30 5019 O 511.619 -1.05484 -1.38632 0
M  V30 5020 C 508.751 -2.15264 -2.64337 0
M  V30 5021 H 509.944 -2.8378 -0.969998 0
M  V30 5022 H 507.497 -1.49069 -0.4699 0
M  V30 5023 H 508.232 -1.24923 -2.99274 0
M  V30 5024 H 508.017 -2.97005 -2.55989 0
M  V30 5025 H 509.507 -2.43467 -3.39284 0
M  V30 5026 N 509.944 0.496216 -1.49584 0
M  V30 5027 C 511.169 1.27865 -1.63295 0
M  V30 5028 C 511.594 1.85592 -0.306156 0
M  V30 5029 O 510.952 1.66092 0.726851 0
M  V30 5030 C 511 2.38128 -2.7079 0
M  V30 5031 O 510.104 3.42108 -2.30296 0
M  V30 5032 H 509.445 0.377279 -0.546403 0
M  V30 5033 H 511.975 0.593497 -1.95803 0
M  V30 5034 H 511.985 2.8382 -2.93104 0
M  V30 5035 H 510.66 1.95479 -3.67098 0
M  V30 5036 H 509.237 3.02301 -2.18331 0
M  V30 5037 N 511.423 1.38739 0.74761 0
M  V30 5038 C 512.333 1.38696 1.89211 0
M  V30 5039 C 513.349 0.283303 1.71678 0
M  V30 5040 O 514.525 0.522713 1.94498 0
M  V30 5041 C 511.59 1.21662 3.24653 0
M  V30 5042 C 510.651 2.41886 3.54669 0
M  V30 5043 C 509.884 2.25655 4.83648 0
M  V30 5044 O 510.107 1.25339 5.56459 0
M  V30 5045 O 509.041 3.14372 5.13277 0
M  V30 5046 H 512.867 2.35143 1.92202 0
M  V30 5047 H 510.452 1.19721 0.893708 0
M  V30 5048 H 512.334 1.14246 4.05618 0
M  V30 5049 H 511.009 0.283024 3.2246 0
M  V30 5050 H 509.916 2.54877 2.73841 0
M  V30 5051 H 511.249 3.33895 3.61628 0
M  V30 5052 N 512.901 -0.976442 1.23707 0
M  V30 5053 C 513.864 -2.0511 1.02287 0
M  V30 5054 C 514.864 -1.60791 -0.0167195 0
M  V30 5055 O 516.054 -1.72761 0.223408 0
M  V30 5056 C 513.186 -3.36458 0.548507 0
M  V30 5057 H 514.379 -2.25545 1.9766 0
M  V30 5058 H 511.932 -1.15042 1.05806 0
M  V30 5059 H 512.667 -3.21713 -0.408818 0
M  V30 5060 H 512.452 -3.69967 1.29874 0
M  V30 5061 H 513.942 -4.15489 0.419406 0
M  V30 5062 N 514.379 -1.04941 -1.1758 0
M  V30 5063 C 515.309 -0.669172 -2.23706 0
M  V30 5064 C 516.29 0.331835 -1.66832 0
M  V30 5065 O 517.475 0.209988 -1.93061 0
M  V30 5066 C 514.605 -0.0404889 -3.47276 0
M  V30 5067 C 513.559 -0.965983 -4.16957 0
M  V30 5068 C 512.885 -0.201312 -5.34321 0
M  V30 5069 C 514.185 -2.28902 -4.69469 0
M  V30 5070 H 515.879 -1.55639 -2.55767 0
M  V30 5071 H 513.425 -0.749793 -1.22939 0
M  V30 5072 H 515.378 0.237298 -4.20731 0
M  V30 5073 H 514.102 0.881658 -3.14475 0
M  V30 5074 H 512.761 -1.22829 -3.45411 0
M  V30 5075 H 512.409 0.723519 -4.97769 0
M  V30 5076 H 512.109 -0.817968 -5.81879 0
M  V30 5077 H 513.633 0.0692499 -6.10561 0
M  V30 5078 H 515.047 -2.07132 -5.34574 0
M  V30 5079 H 513.444 -2.85942 -5.27596 0
M  V30 5080 H 514.514 -2.92937 -3.86414 0
M  V30 5081 N 515.857 1.33968 -0.830081 0
M  V30 5082 C 517.273 1.51003 -0.516742 0
M  V30 5083 C 517.473 1.77286 0.957694 0
M  V30 5084 O 516.529 1.82797 1.74188 0
M  V30 5085 C 517.842 2.67036 -1.38247 0
M  V30 5086 C 519.39 2.80919 -1.38034 0
M  V30 5087 C 519.865 4.00004 -2.23071 0
M  V30 5088 N 521.356 4.07224 -2.20733 0
M  V30 5089 C 522.091 4.98541 -2.83275 0
M  V30 5090 N 521.587 5.95033 -3.54835 0
M  V30 5091 N 523.38 4.91469 -2.72791 0
M  V30 5092 H 515.531 1.15168 -1.78466 0
M  V30 5093 H 517.794 0.565443 -0.760906 0
M  V30 5094 H 517.5 2.54266 -2.42985 0
M  V30 5095 H 517.374 3.62226 -1.05225 0
M  V30 5096 H 519.761 2.93127 -0.340713 0
M  V30 5097 H 519.842 1.86517 -1.75057 0
M  V30 5098 H 519.486 3.88557 -3.27087 0
M  V30 5099 H 519.416 4.93634 -1.83394 0
M  V30 5100 H 521.907 3.38162 -1.68687 0
M  V30 5101 H 522.22 6.61357 -3.99784 0
M  V30 5102 H 520.565 5.95135 -3.58942 0
M  V30 5103 H 523.756 4.15048 -2.16456 0
M  V30 5104 H 523.929 5.62439 -3.21818 0
M  V30 5105 N 517.335 0.585699 1.46312 0
M  V30 5106 C 518.56 0.0762461 2.0726 0
M  V30 5107 C 518.985 -1.22071 1.43109 0
M  V30 5108 O 518.343 -1.73804 0.515942 0
M  V30 5109 C 518.391 -0.0729404 3.60526 0
M  V30 5110 O 517.495 -1.1287 3.96654 0
M  V30 5111 H 516.836 0.0641558 0.660893 0
M  V30 5112 H 519.366 0.809492 1.87905 0
M  V30 5113 H 519.376 -0.278158 4.07051 0
M  V30 5114 H 518.051 0.874188 4.06609 0
M  V30 5115 H 516.628 -0.901703 3.61834 0
M  V30 5116 N 518.813 -1.54241 0.323641 0
M  V30 5117 C 520.043 -2.04687 -0.280464 0
M  V30 5118 C 520.451 -1.19939 -1.46326 0
M  V30 5119 O 519.794 -0.222872 -1.82343 0
M  V30 5120 C 519.856 -3.50978 -0.778123 0
M  V30 5121 C 519.52 -4.56127 0.282371 0
M  V30 5122 C 520.517 -5.07726 1.11847 0
M  V30 5123 C 518.202 -5.00451 0.430582 0
M  V30 5124 C 520.196 -6.02212 2.08851 0
M  V30 5125 C 517.883 -5.94752 1.40404 0
M  V30 5126 C 518.881 -6.45519 2.23147 0
M  V30 5127 O 518.569 -7.37968 3.1884 0
M  V30 5128 H 518.301 -0.673192 -0.0615473 0
M  V30 5129 H 520.855 -1.99999 0.467921 0
M  V30 5130 H 519.085 -3.53064 -1.57742 0
M  V30 5131 H 520.774 -3.84499 -1.30058 0
M  V30 5132 H 521.54 -4.74261 1.01496 0
M  V30 5133 H 517.419 -4.6055 -0.203569 0
M  V30 5134 H 520.963 -6.41761 2.73474 0
M  V30 5135 H 516.86 -6.27633 1.5082 0
M  V30 5136 H 517.628 -7.55841 3.14079 0
M  V30 5137 N 520.291 -0.0518155 -1.57515 0
M  V30 5138 C 521.224 0.957758 -2.07129 0
M  V30 5139 C 522.202 1.30355 -0.971927 0
M  V30 5140 O 523.386 1.41631 -1.2439 0
M  V30 5141 C 520.513 2.27157 -2.51232 0
M  V30 5142 C 519.559 2.07879 -3.72409 0
M  V30 5143 S 520.392 1.35656 -5.18033 0
M  V30 5144 C 521.548 2.68359 -5.65451 0
M  V30 5145 H 521.781 0.53552 -2.92437 0
M  V30 5146 H 519.314 0.160465 -1.53564 0
M  V30 5147 H 521.272 3.02676 -2.77304 0
M  V30 5148 H 519.933 2.66509 -1.66228 0
M  V30 5149 H 519.126 3.05061 -4.01191 0
M  V30 5150 H 518.728 1.40499 -3.46606 0
M  V30 5151 H 521.02 3.64526 -5.71076 0
M  V30 5152 H 521.963 2.44213 -6.64654 0
M  V30 5153 H 522.371 2.74647 -4.93183 0
M  V30 5154 N 521.769 1.56035 0.221574 0
M  V30 5155 C 522.994 1.83476 0.967026 0
M  V30 5156 C 523.419 0.632139 1.7716 0
M  V30 5157 O 522.777 -0.419082 1.7639 0
M  V30 5158 C 522.825 3.08907 1.86034 0
M  V30 5159 O 521.929 2.876 2.95567 0
M  V30 5160 H 521.27 0.604913 0.273817 0
M  V30 5161 H 523.8 2.03247 0.234893 0
M  V30 5162 H 523.81 3.3901 2.27016 0
M  V30 5163 H 522.485 3.96068 1.26898 0
M  V30 5164 H 521.062 2.6873 2.58532 0
M  V30 5165 N 523.247 -0.488276 1.49845 0
M  V30 5166 C 524.496 -1.23826 1.59217 0
M  V30 5167 C 524.809 -1.93439 0.289966 0
M  V30 5168 O 526.015 -2.70229 0.262382 0
M  V30 5169 C 524.471 -2.24902 2.80976 0
M  V30 5170 C 524.079 -1.6117 4.18005 0
M  V30 5171 C 525.823 -3.00648 2.99685 0
M  V30 5172 C 523.73 -2.60431 5.3097 0
M  V30 5173 H 522.66 -0.465858 0.592868 0
M  V30 5174 H 525.311 -0.510645 1.76252 0
M  V30 5175 H 523.693 -3.0088 2.57463 0
M  V30 5176 H 524.867 -0.910968 4.51706 0
M  V30 5177 H 523.182 -0.97767 4.0476 0
M  V30 5178 H 525.779 -3.74903 3.81251 0
M  V30 5179 H 526.122 -3.5902 2.10738 0
M  V30 5180 H 526.655 -2.31784 3.23297 0
M  V30 5181 H 523.394 -2.06823 6.22017 0
M  V30 5182 H 522.914 -3.28707 5.01709 0
M  V30 5183 H 524.593 -3.22606 5.60834 0
M  V30 5184 N 524.725 -1.39134 -0.740242 0
M  V30 5185 C 526.136 -1.32208 -1.31825 0
M  V30 5186 C 526.487 0.0159919 -1.96193 0
M  V30 5187 O 525.612 0.918111 -1.95958 0
M  V30 5188 C 526.207 -2.39436 -2.39699 0
M  V30 5189 C 524.766 -2.36048 -2.93187 0
M  V30 5190 C 523.913 -2.21599 -1.66701 0
M  V30 5191 H 526.864 -1.49298 -0.538133 0
M  V30 5192 H 526.885 -2.05922 -3.19963 0
M  V30 5193 H 526.397 -3.36811 -1.92821 0
M  V30 5194 H 524.498 -1.42295 -3.44359 0
M  V30 5195 H 524.611 -3.30704 -3.46658 0
M  V30 5196 H 522.975 -1.68681 -1.90837 0
M  V30 5197 H 523.758 -3.20936 -1.21882 0
M  V30 5198 N 526.204 0.969867 -1.24223 0
M  V30 5199 C 527.615 1.52717 -1.07399 0
M  V30 5200 C 527.966 1.92956 0.355298 0
M  V30 5201 O 527.091 1.77112 1.2434 0
M  V30 5202 C 527.686 2.77521 -1.94339 0
M  V30 5203 C 526.245 3.29615 -1.81744 0
M  V30 5204 C 525.392 2.02537 -1.89405 0
M  V30 5205 H 528.343 0.788399 -1.37732 0
M  V30 5206 H 528.364 3.50773 -1.47439 0
M  V30 5207 H 527.876 2.48203 -2.98357 0
M  V30 5208 H 525.977 3.63789 -0.805505 0
M  V30 5209 H 526.09 3.98661 -2.65718 0
M  V30 5210 H 524.454 2.17151 -1.33108 0
M  V30 5211 H 525.237 1.75587 -2.94999 0
M  V30 5212 N 527.682 1.05563 1.17022 0
M  V30 5213 C 528.91 0.78845 1.91288 0
M  V30 5214 C 529.325 -0.656318 1.77025 0
M  V30 5215 O 528.682 -1.44869 1.10992 0
M  V30 5216 C 528.733 1.16444 3.42232 0
M  V30 5217 O 528.454 2.5525 3.5606 0
M  V30 5218 C 529.955 0.923937 4.33565 0
M  V30 5219 H 527.175 0.286389 0.606813 0
M  V30 5220 H 529.719 1.4073 1.48375 0
M  V30 5221 H 527.874 0.590266 3.82877 0
M  V30 5222 H 528.288 2.70097 4.49609 0
M  V30 5223 H 529.762 1.23672 5.37968 0
M  V30 5224 H 530.239 -0.140688 4.38975 0
M  V30 5225 H 530.845 1.48214 3.98639 0
M  V30 5226 N 529.16 -1.33526 0.837174 0
M  V30 5227 C 530.09 -2.31764 0.284206 0
M  V30 5228 C 531.071 -1.58896 -0.607142 0
M  V30 5229 O 532.256 -1.86798 -0.531047 0
M  V30 5230 C 529.386 -3.43029 -0.542962 0
M  V30 5231 C 528.34 -4.27255 0.252451 0
M  V30 5232 C 527.666 -5.3012 -0.69836 0
M  V30 5233 C 528.966 -5.01229 1.46858 0
M  V30 5234 H 530.66 -2.78262 1.10502 0
M  V30 5235 H 528.206 -1.3378 0.532812 0
M  V30 5236 H 530.159 -4.1078 -0.940096 0
M  V30 5237 H 528.883 -2.95216 -1.39697 0
M  V30 5238 H 527.542 -3.61127 0.631124 0
M  V30 5239 H 527.19 -4.78564 -1.54872 0
M  V30 5240 H 526.89 -5.87353 -0.170274 0
M  V30 5241 H 528.414 -6.00737 -1.09305 0
M  V30 5242 H 529.828 -5.61756 1.14469 0
M  V30 5243 H 528.225 -5.68104 1.93333 0
M  V30 5244 H 529.295 -4.301 2.23924 0
M  V30 5245 N 530.638 -0.59345 -1.46 0
M  V30 5246 C 531.868 -0.0889642 -2.06408 0
M  V30 5247 C 532.276 1.22597 -1.44106 0
M  V30 5248 O 531.619 1.75448 -0.544398 0
M  V30 5249 C 531.681 0.139902 -3.59228 0
M  V30 5250 C 531.345 -1.09107 -4.43784 0
M  V30 5251 C 532.342 -2.00577 -4.79651 0
M  V30 5252 C 530.027 -1.31593 -4.84756 0
M  V30 5253 C 532.021 -3.12873 -5.55328 0
M  V30 5254 C 529.708 -2.44192 -5.60191 0
M  V30 5255 C 530.706 -3.34661 -5.95392 0
M  V30 5256 O 530.394 -4.45302 -6.69299 0
M  V30 5257 H 530.126 -0.0594613 -0.67338 0
M  V30 5258 H 532.68 -0.817 -1.88452 0
M  V30 5259 H 530.91 0.922672 -3.75531 0
M  V30 5260 H 532.599 0.594228 -4.01527 0
M  V30 5261 H 533.365 -1.84425 -4.48567 0
M  V30 5262 H 529.244 -0.620801 -4.56801 0
M  V30 5263 H 532.788 -3.83511 -5.82722 0
M  V30 5264 H 528.685 -2.60303 -5.90688 0
M  V30 5265 H 529.453 -4.43805 -6.87735 0
M  V30 5266 N 532.116 1.54067 -0.331816 0
M  V30 5267 C 533.393 1.92915 0.322955 0
M  V30 5268 C 533.773 1.26225 1.69205 0
M  V30 5269 O 533.121 0.408919 2.24811 0
M  V30 5270 C 533.331 3.46619 0.406946 0
M  V30 5271 C 534.679 4.19386 0.663339 0
M  V30 5272 O 535.703 3.5282 0.489536 0
M  V30 5273 O 534.562 5.37288 0.999193 0
M  V30 5274 H 531.656 0.805808 0.186016 0
M  V30 5275 H 534.202 1.65342 -0.382135 0
M  V30 5276 H 532.974 3.87354 -0.554287 0
M  V30 5277 H 532.597 3.80324 1.15929 0
M  V30 5278 N 533.594 0.0601682 1.57485 0
M  V30 5279 C 534.526 -0.94047 2.09016 0
M  V30 5280 C 535.539 -1.26897 1.01985 0
M  V30 5281 O 536.728 -1.22819 1.29529 0
M  V30 5282 C 533.828 -2.25955 2.52582 0
M  V30 5283 C 533.001 -2.11163 3.83052 0
M  V30 5284 C 532.06 -3.26273 4.12835 0
M  V30 5285 O 531.086 -3.01779 4.82616 0
M  V30 5286 N 532.288 -4.51022 3.65458 0
M  V30 5287 H 535.053 -0.500578 2.9549 0
M  V30 5288 H 532.614 -0.125852 1.6141 0
M  V30 5289 H 534.606 -3.01846 2.69575 0
M  V30 5290 H 533.176 -2.61481 1.71308 0
M  V30 5291 H 532.396 -1.19808 3.75552 0
M  V30 5292 H 533.684 -1.98517 4.68475 0
M  V30 5293 H 533.082 -4.73811 3.09062 0
M  V30 5294 H 531.639 -5.23978 3.87673 0
M  V30 5295 N 535.072 -1.5615 -0.213296 0
M  V30 5296 C 536.004 -1.89586 -1.28802 0
M  V30 5297 C 537.017 -0.784844 -1.42633 0
M  V30 5298 O 538.206 -1.06319 -1.43383 0
M  V30 5299 C 535.306 -2.09665 -2.66259 0
M  V30 5300 C 534.479 -3.40726 -2.7427 0
M  V30 5301 C 533.538 -3.50137 -3.92798 0
M  V30 5302 O 532.564 -4.23105 -3.8075 0
M  V30 5303 N 533.766 -2.81886 -5.07465 0
M  V30 5304 H 536.531 -2.82368 -1.00442 0
M  V30 5305 H 534.092 -1.56796 -0.403302 0
M  V30 5306 H 536.084 -2.13268 -3.43946 0
M  V30 5307 H 534.654 -1.23469 -2.87183 0
M  V30 5308 H 533.874 -3.4915 -1.82997 0
M  V30 5309 H 535.162 -4.27048 -2.76599 0
M  V30 5310 H 534.56 -2.22397 -5.2015 0
M  V30 5311 H 533.117 -2.91139 -5.83165 0
M  V30 5312 N 536.55 0.480323 -1.50102 0
M  V30 5313 C 537.798 1.23063 -1.60312 0
M  V30 5314 C 538.119 1.92659 -0.301226 0
M  V30 5315 O 537.389 1.83691 0.680753 0
M  V30 5316 H 535.969 0.457231 -0.590719 0
M  V30 5317 H 538.631 0.554893 -1.86834 0
M  V30 5318 H 537.727 1.9835 -2.40964 0
M  V30 5319 N 538.028 1.39524 0.732853 0
M  V30 5320 C 539.305 1.27373 1.48444 0
M  V30 5321 C 539.685 -0.115725 2.10783 0
M  V30 5322 O 539.033 -1.12713 1.98766 0
M  V30 5323 C 539.243 2.39966 2.53412 0
M  V30 5324 C 540.591 2.79384 3.19733 0
M  V30 5325 O 541.615 2.39431 2.63725 0
M  V30 5326 O 540.474 3.48353 4.21085 0
M  V30 5327 H 537.568 0.499272 0.659285 0
M  V30 5328 H 540.114 1.51403 0.766496 0
M  V30 5329 H 538.886 3.32845 2.05742 0
M  V30 5330 H 538.509 2.17612 3.32762 0
M  V30 5331 N 539.506 -0.963266 1.24736 0
M  V30 5332 C 540.469 -2.04013 1.04457 0
M  V30 5333 C 541.469 -1.608 0.000335555 0
M  V30 5334 O 542.659 -1.72515 0.241719 0
M  V30 5335 C 539.791 -3.35858 0.584162 0
M  V30 5336 H 540.984 -2.23436 2.00041 0
M  V30 5337 H 538.537 -1.13914 1.07021 0
M  V30 5338 H 539.272 -3.22128 -0.374673 0
M  V30 5339 H 539.057 -3.68568 1.3379 0
M  V30 5340 H 540.547 -4.1502 0.463451 0
M  V30 5341 N 540.985 -1.06182 -1.16461 0
M  V30 5342 C 542.231 -0.779015 -1.87241 0
M  V30 5343 C 542.564 0.692715 -1.81425 0
M  V30 5344 O 541.839 1.5074 -1.22913 0
M  V30 5345 C 542.122 -1.2728 -3.36856 0
M  V30 5346 C 541.975 -2.80821 -3.51368 0
M  V30 5347 C 543.294 -0.879799 -4.31216 0
M  V30 5348 H 540.413 -0.284464 -0.679889 0
M  V30 5349 H 543.055 -1.31755 -1.36896 0
M  V30 5350 H 541.205 -0.814673 -3.79862 0
M  V30 5351 H 542.877 -3.34833 -3.17308 0
M  V30 5352 H 541.12 -3.19606 -2.93316 0
M  V30 5353 H 541.791 -3.10435 -4.56436 0
M  V30 5354 H 544.267 -1.27436 -3.96105 0
M  V30 5355 H 543.143 -1.25278 -5.34412 0
M  V30 5356 H 543.404 0.215372 -4.41575 0
M  V30 5357 N 542.463 1.3308 -0.844243 0
M  V30 5358 C 543.688 2.02341 -0.455282 0
M  V30 5359 C 544.113 1.6308 0.93737 0
M  V30 5360 O 543.471 0.826118 1.61385 0
M  V30 5361 C 543.519 3.55743 -0.58988 0
M  V30 5362 O 542.623 4.1063 0.38166 0
M  V30 5363 H 541.964 0.637898 -0.184343 0
M  V30 5364 H 544.494 1.6986 -1.14056 0
M  V30 5365 H 544.504 4.05243 -0.473522 0
M  V30 5366 H 543.179 3.83662 -1.60549 0
M  V30 5367 H 541.756 3.72236 0.22241 0
M  V30 5368 N 543.941 0.601185 1.45683 0
M  V30 5369 C 545.19 0.0914953 2.01492 0
M  V30 5370 C 545.503 -1.28331 1.47616 0
M  V30 5371 O 546.709 -1.88537 1.95362 0
M  V30 5372 C 545.165 0.11291 3.59723 0
M  V30 5373 C 544.773 1.48717 4.22596 0
M  V30 5374 C 546.517 -0.341871 4.23121 0
M  V30 5375 C 544.424 1.46531 5.7296 0
M  V30 5376 H 543.354 0.0304365 0.753385 0
M  V30 5377 H 546.005 0.755568 1.67223 0
M  V30 5378 H 544.387 -0.617692 3.91153 0
M  V30 5379 H 545.561 2.23897 4.02749 0
M  V30 5380 H 543.876 1.88351 3.71366 0
M  V30 5381 H 546.473 -0.377304 5.33367 0
M  V30 5382 H 546.816 -1.36325 3.93346 0
M  V30 5383 H 547.349 0.335256 3.96385 0
M  V30 5384 H 544.088 2.46408 6.07423 0
M  V30 5385 H 543.608 0.755997 5.95017 0
M  V30 5386 H 545.287 1.18618 6.36034 0
M  V30 5387 N 545.419 -1.53889 0.339982 0
M  V30 5388 C 546.666 -2.00855 -0.257621 0
M  V30 5389 C 546.994 -1.22788 -1.50842 0
M  V30 5390 O 546.249 -0.302567 -1.93347 0
M  V30 5391 C 546.548 -3.51968 -0.620735 0
M  V30 5392 C 546.214 -4.47741 0.532771 0
M  V30 5393 C 544.876 -4.73645 0.849339 0
M  V30 5394 C 547.228 -5.04551 1.3068 0
M  V30 5395 C 544.556 -5.53614 1.94237 0
M  V30 5396 C 546.908 -5.85713 2.39005 0
M  V30 5397 C 545.572 -6.09912 2.71225 0
M  V30 5398 H 544.842 -0.734979 -0.0942703 0
M  V30 5399 H 547.489 -1.85714 0.467159 0
M  V30 5400 H 545.794 -3.64921 -1.42618 0
M  V30 5401 H 547.491 -3.85762 -1.09495 0
M  V30 5402 H 544.081 -4.27711 0.275973 0
M  V30 5403 H 548.265 -4.84507 1.07549 0
M  V30 5404 H 543.521 -5.7059 2.19628 0
M  V30 5405 H 547.695 -6.28748 2.99415 0
M  V30 5406 H 545.322 -6.71665 3.56047 0
M  V30 5407 N 546.897 -0.0685191 -1.57451 0
M  V30 5408 C 548.143 0.602239 -1.93652 0
M  V30 5409 C 548.476 1.6946 -0.948526 0
M  V30 5410 O 547.751 1.94487 0.022782 0
M  V30 5411 C 548.034 1.18223 -3.4014 0
M  V30 5412 C 547.887 0.0967431 -4.49696 0
M  V30 5413 C 549.206 2.08872 -3.87377 0
M  V30 5414 H 546.325 0.217453 -0.70419 0
M  V30 5415 H 548.967 -0.133821 -1.89528 0
M  V30 5416 H 547.117 1.80953 -3.43785 0
M  V30 5417 H 548.789 -0.536155 -4.58174 0
M  V30 5418 H 547.032 -0.573063 -4.29998 0
M  V30 5419 H 547.703 0.542894 -5.49324 0
M  V30 5420 H 550.179 1.56081 -3.85717 0
M  V30 5421 H 549.055 2.46389 -4.90493 0
M  V30 5422 H 549.316 2.99572 -3.25129 0
M  V30 5423 N 548.375 1.56261 0.205012 0
M  V30 5424 C 549.338 1.92908 1.23771 0
M  V30 5425 C 550.338 0.809208 1.38955 0
M  V30 5426 O 551.528 1.07676 1.36936 0
M  V30 5427 C 548.66 2.19442 2.60879 0
M  V30 5428 H 549.853 2.85287 0.924728 0
M  V30 5429 H 547.406 1.49798 0.446125 0
M  V30 5430 H 548.141 1.29668 2.97248 0
M  V30 5431 H 547.926 3.0104 2.51232 0
M  V30 5432 H 549.416 2.48833 3.35368 0
M  V30 5433 N 549.853 -0.472356 1.50355 0
M  V30 5434 C 551.269 -0.806001 1.37753 0
M  V30 5435 C 551.469 -1.968 0.432649 0
M  V30 5436 O 550.525 -2.52189 -0.12519 0
M  V30 5437 C 551.838 -1.11926 2.79093 0
M  V30 5438 C 553.386 -1.22579 2.87999 0
M  V30 5439 C 553.861 -1.57218 4.3017 0
M  V30 5440 N 555.352 -1.64212 4.33115 0
M  V30 5441 C 556.087 -1.92517 5.40116 0
M  V30 5442 N 555.583 -2.1885 6.57325 0
M  V30 5443 N 557.376 -1.94008 5.27558 0
M  V30 5444 H 549.527 0.293451 2.10363 0
M  V30 5445 H 551.79 0.0687672 0.945503 0
M  V30 5446 H 551.496 -0.338504 3.50067 0
M  V30 5447 H 551.37 -2.05577 3.16256 0
M  V30 5448 H 553.757 -1.99722 2.17245 0
M  V30 5449 H 553.838 -0.269107 2.54381 0
M  V30 5450 H 553.482 -0.806154 5.01461 0
M  V30 5451 H 553.412 -2.54034 4.61275 0
M  V30 5452 H 555.903 -1.45906 3.48597 0
M  V30 5453 H 556.216 -2.39718 7.3468 0
M  V30 5454 H 554.561 -2.16245 6.60502 0
M  V30 5455 H 557.752 -1.72931 4.34986 0
M  V30 5456 H 557.925 -2.15731 6.11035 0
M  V30 5457 N 551.331 -1.39911 -0.725443 0
M  V30 5458 C 552.608 -1.28158 -1.47766 0
M  V30 5459 C 552.988 0.104545 -2.10841 0
M  V30 5460 O 552.336 1.11657 -1.99361 0
M  V30 5461 C 552.546 -2.41306 -2.52135 0
M  V30 5462 C 553.894 -2.81076 -3.18247 0
M  V30 5463 O 554.918 -2.40827 -2.62452 0
M  V30 5464 O 553.777 -3.50581 -4.19231 0
M  V30 5465 H 550.871 -0.502761 -0.656628 0
M  V30 5466 H 553.417 -1.51808 -0.758456 0
M  V30 5467 H 552.189 -3.33932 -2.03974 0
M  V30 5468 H 551.812 -2.19374 -3.31603 0
M  V30 5469 N 552.809 0.956637 -1.25245 0
M  V30 5470 C 553.739 2.07058 -1.07931 0
M  V30 5471 C 554.72 1.70096 0.0110361 0
M  V30 5472 O 555.905 1.93555 -0.158121 0
M  V30 5473 C 553.035 3.40272 -0.695124 0
M  V30 5474 C 551.989 3.91235 -1.73549 0
M  V30 5475 C 551.315 5.20921 -1.20604 0
M  V30 5476 C 552.615 4.17837 -3.13385 0
M  V30 5477 H 554.309 2.218 -2.01109 0
M  V30 5478 H 551.855 1.06581 -0.968326 0
M  V30 5479 H 553.808 4.1765 -0.560949 0
M  V30 5480 H 552.532 3.25462 0.272355 0
M  V30 5481 H 551.191 3.16025 -1.85807 0
M  V30 5482 H 550.839 5.02479 -0.228846 0
M  V30 5483 H 550.539 5.55987 -1.90136 0
M  V30 5484 H 552.063 6.00897 -1.08421 0
M  V30 5485 H 553.477 4.8588 -3.04292 0
M  V30 5486 H 551.874 4.64154 -3.80369 0
M  V30 5487 H 552.944 3.2419 -3.60595 0
M  V30 5488 N 554.287 1.06798 1.15896 0
M  V30 5489 C 555.564 0.701057 1.82605 0
M  V30 5490 C 555.944 -0.817066 1.94646 0
M  V30 5491 O 555.292 -1.72933 1.49353 0
M  V30 5492 C 555.502 1.40895 3.19296 0
M  V30 5493 C 556.85 1.55744 3.95005 0
M  V30 5494 O 557.874 1.36927 3.28831 0
M  V30 5495 O 556.733 1.86658 5.13635 0
M  V30 5496 H 553.827 0.248791 0.78869 0
M  V30 5497 H 556.373 1.16857 1.23055 0
M  V30 5498 H 555.145 2.4439 3.05596 0
M  V30 5499 H 554.768 0.931847 3.86526 0
M  V30 5500 N 555.766 -1.3263 0.851289 0
M  V30 5501 C 557.013 -1.97368 0.453023 0
M  V30 5502 C 557.341 -1.67384 -0.990596 0
M  V30 5503 O 556.596 -0.952665 -1.70947 0
M  V30 5504 C 556.895 -3.51713 0.635015 0
M  V30 5505 C 556.561 -4.01676 2.04859 0
M  V30 5506 C 555.223 -4.15031 2.43522 0
M  V30 5507 C 557.575 -4.28206 2.97135 0
M  V30 5508 C 554.903 -4.52257 3.73739 0
M  V30 5509 C 557.255 -4.66889 4.26846 0
M  V30 5510 C 555.919 -4.7845 4.65448 0
M  V30 5511 H 555.189 -0.722219 0.165773 0
M  V30 5512 H 557.836 -1.58092 1.0807 0
M  V30 5513 H 556.141 -3.91726 -0.0759081 0
M  V30 5514 H 557.838 -3.99823 0.306964 0
M  V30 5515 H 554.428 -3.91764 1.73836 0
M  V30 5516 H 558.612 -4.174 2.68498 0
M  V30 5517 H 553.868 -4.59402 4.03435 0
M  V30 5518 H 558.042 -4.86372 4.98413 0
M  V30 5519 H 555.669 -5.07052 5.66395 0
M  V30 5520 N 557.244 -0.608902 -1.45362 0
M  V30 5521 C 558.469 -0.10921 -2.07112 0
M  V30 5522 C 558.894 1.19779 -1.45033 0
M  V30 5523 O 558.252 1.72961 -0.543527 0
M  V30 5524 C 558.3 0.0155745 -3.60597 0
M  V30 5525 O 557.404 1.06546 -3.98399 0
M  V30 5526 H 556.745 -0.0746619 -0.659789 0
M  V30 5527 H 559.275 -0.839283 -1.86594 0
M  V30 5528 H 559.285 0.213364 -4.07442 0
M  V30 5529 H 557.96 -0.938765 -4.05167 0
M  V30 5530 H 556.537 0.844024 -3.63223 0
M  V30 5531 N 558.722 1.53707 -0.348139 0
M  V30 5532 C 559.97 2.00591 0.246478 0
M  V30 5533 C 560.291 1.23753 1.50699 0
M  V30 5534 O 559.561 0.345964 1.92821 0
M  V30 5535 H 558.141 0.741053 0.0940679 0
M  V30 5536 H 560.803 1.89139 -0.470354 0
M  V30 5537 H 559.899 3.08297 0.485714 0
M  V30 5538 N 560.2 0.0768682 1.57412 0
M  V30 5539 C 561.446 -0.591961 1.93968 0
M  V30 5540 C 561.779 -1.68954 0.9575 0
M  V30 5541 O 561.054 -1.94496 -0.0124675 0
M  V30 5542 C 561.337 -1.16418 3.40762 0
M  V30 5543 C 561.19 -0.0728933 4.49741 0
M  V30 5544 C 562.509 -2.06814 3.88479 0
M  V30 5545 H 559.628 -0.213716 0.705333 0
M  V30 5546 H 562.27 0.14387 1.89455 0
M  V30 5547 H 560.42 -1.79128 3.4474 0
M  V30 5548 H 562.092 0.560446 4.57883 0
M  V30 5549 H 560.335 0.595859 4.29688 0
M  V30 5550 H 561.006 -0.513755 5.49604 0
M  V30 5551 H 563.482 -1.54033 3.8654 0
M  V30 5552 H 562.358 -2.43785 4.91793 0
M  V30 5553 H 562.619 -2.97844 3.26713 0
M  V30 5554 N 561.678 -1.56367 -0.196722 0
M  V30 5555 C 562.908 -1.84371 -0.932254 0
M  V30 5556 C 563.316 -0.657013 -1.77426 0
M  V30 5557 O 562.659 0.383576 -1.79651 0
M  V30 5558 C 562.721 -3.06454 -1.87952 0
M  V30 5559 C 562.385 -4.40425 -1.21962 0
M  V30 5560 C 563.382 -5.16457 -0.597343 0
M  V30 5561 C 561.067 -4.8716 -1.22396 0
M  V30 5562 C 563.061 -6.37399 0.0117913 0
M  V30 5563 C 560.748 -6.08038 -0.610995 0
M  V30 5564 C 561.746 -6.83 0.00580487 0
M  V30 5565 O 561.434 -8.01589 0.609173 0
M  V30 5566 H 561.166 -0.616377 -0.277589 0
M  V30 5567 H 563.72 -2.04329 -0.209452 0
M  V30 5568 H 561.95 -2.82377 -2.64197 0
M  V30 5569 H 563.639 -3.21118 -2.48271 0
M  V30 5570 H 564.405 -4.81445 -0.586142 0
M  V30 5571 H 560.284 -4.2877 -1.69345 0
M  V30 5572 H 563.828 -6.9585 0.493836 0
M  V30 5573 H 559.725 -6.42519 -0.619693 0
M  V30 5574 H 560.493 -8.16935 0.505919 0
M  V30 5575 N 563.156 0.464375 -1.50603 0
M  V30 5576 C 564.384 1.23907 -1.65695 0
M  V30 5577 C 564.799 1.85658 -0.343027 0
M  V30 5578 O 564.156 1.69529 0.675739 0
M  V30 5579 C 564.207 2.3429 -2.75301 0
M  V30 5580 O 563.928 1.7507 -4.01599 0
M  V30 5581 C 565.429 3.25051 -3.01424 0
M  V30 5582 H 562.649 0.374485 -0.556778 0
M  V30 5583 H 565.193 0.55353 -1.96866 0
M  V30 5584 H 563.348 2.98607 -2.46804 0
M  V30 5585 H 563.762 2.47812 -4.62266 0
M  V30 5586 H 565.236 3.98699 -3.81763 0
M  V30 5587 H 565.713 3.84227 -2.12758 0
M  V30 5588 H 566.319 2.66463 -3.31477 0
M  V30 5589 N 564.634 1.40294 0.718013 0
M  V30 5590 C 565.564 1.43118 1.84498 0
M  V30 5591 C 566.545 0.292403 1.67568 0
M  V30 5592 O 567.73 0.500675 1.87635 0
M  V30 5593 C 564.86 1.29065 3.22427 0
M  V30 5594 C 563.814 2.40521 3.54025 0
M  V30 5595 C 563.14 2.11546 4.91073 0
M  V30 5596 C 564.44 3.82859 3.55269 0
M  V30 5597 H 566.134 2.37432 1.82391 0
M  V30 5598 H 563.68 1.14283 0.87609 0
M  V30 5599 H 565.633 1.29658 4.00957 0
M  V30 5600 H 564.357 0.312271 3.25104 0
M  V30 5601 H 563.016 2.39173 2.77834 0
M  V30 5602 H 562.664 1.12104 4.90348 0
M  V30 5603 H 562.364 2.86216 5.1318 0
M  V30 5604 H 563.888 2.13817 5.71939 0
M  V30 5605 H 565.302 3.86044 4.23843 0
M  V30 5606 H 563.699 4.57029 3.88902 0
M  V30 5607 H 564.769 4.12617 2.54706 0
M  V30 5608 N 566.112 -0.949982 1.2575 0
M  V30 5609 C 567.075 -2.02894 1.06615 0
M  V30 5610 C 568.075 -1.60791 0.0173905 0
M  V30 5611 O 569.265 -1.72249 0.260003 0
M  V30 5612 C 566.397 -3.35219 0.619751 0
M  V30 5613 H 567.59 -2.21302 2.02399 0
M  V30 5614 H 565.143 -1.12772 1.08223 0
M  V30 5615 H 565.878 -3.22508 -0.340486 0
M  V30 5616 H 565.663 -3.67129 1.37692 0
M  V30 5617 H 567.153 -4.14505 0.507443 0
M  V30 5618 N 567.59 -1.07411 -1.15328 0
M  V30 5619 C 568.867 -0.710732 -1.82231 0
M  V30 5620 C 569.247 0.806732 -1.95077 0
M  V30 5621 O 568.595 1.72139 -1.50268 0
M  V30 5622 C 568.805 -1.42586 -3.18544 0
M  V30 5623 C 570.153 -1.57836 -3.94174 0
M  V30 5624 O 571.177 -1.38669 -3.281 0
M  V30 5625 O 570.036 -1.8938 -5.12638 0
M  V30 5626 H 567.13 -0.25297 -0.78736 0
M  V30 5627 H 569.676 -1.17508 -1.22434 0
M  V30 5628 H 568.448 -2.46008 -3.04296 0
M  V30 5629 H 568.071 -0.952332 -3.86026 0
M  V30 5630 N 569.068 1.32177 -0.85831 0
M  V30 5631 C 570.016 2.30729 -0.294442 0
M  V30 5632 C 571.01 1.59009 0.584165 0
M  V30 5633 O 572.216 1.73713 0.471562 0
M  V30 5634 H 568.591 0.748097 -0.0765171 0
M  V30 5635 H 570.562 2.75774 -1.1398 0
M  V30 5636 C 569.311 3.44098 0.499208 0
M  V30 5637 H 568.634 3.99449 -0.167579 0
M  V30 5638 H 570.074 4.15202 0.859273 0
M  V30 5639 C 568.533 2.91684 1.68588 0
M  V30 5640 O 569.063 2.89481 2.78503 0
M  V30 5641 N 567.269 2.48036 1.51415 0
M  V30 5642 H 566.816 2.50027 0.620006 0
M  V30 5643 H 566.774 2.13322 2.30957 0
M  V30 5644 O 570.585 0.756816 1.42669 0
M  V30 5645 H 571.276 0.315719 1.9111 0
M  V30 END ATOM
M  V30 BEGIN BOND
M  V30 END BOND
M  V30 END CTAB
M  END
$$$$
