drugbank_target|Q46856 Alcohol dehydrogenase YqhD (DB02319)
 OpenBabel12092119563D

  0  0  0     0  0            999 V3000
M  V30 BEGIN CTAB
M  V30 COUNTS 5937 5999 0 0 0
M  V30 BEGIN ATOM
M  V30 1 H -0.908 1.98254 -0.117106 0
M  V30 2 N 0 1.576 0 0
M  V30 3 C 0.933 2.03868 1.02534 0
M  V30 4 C 1.911 0.928543 1.3348 0
M  V30 5 O 3.095 1.19667 1.45644 0
M  V30 6 C 0.222 2.43627 2.35294 0
M  V30 7 C -0.732 3.65373 2.2001 0
M  V30 8 S 0.101 5.13292 1.52614 0
M  V30 9 C 1.257 5.56322 2.86805 0
M  V30 10 H 1.49 2.90518 0.631377 0
M  V30 11 H -0.977 1.52953 0.210867 0
M  V30 12 H 0.981 2.67203 3.11629 0
M  V30 13 H -0.358 1.57376 2.7183 0
M  V30 14 H -1.165 3.90944 3.18086 0
M  V30 15 H -1.563 3.418 1.51819 0
M  V30 16 H 0.729 5.58782 3.83104 0
M  V30 17 H 1.672 6.56266 2.65933 0
M  V30 18 H 2.08 4.83886 2.90714 0
M  V30 19 N 1.4781 -0.272755 1.55222 0
M  V30 20 C 2.4261 -1.35705 1.88909 0
M  V30 21 C 3.4201 -1.5112 0.765456 0
M  V30 22 O 4.6261 -1.52901 0.949802 0
M  V30 23 H 1.0011 -0.453868 0.59959 0
M  V30 24 H 2.9721 -1.04544 2.79487 0
M  V30 25 C 1.7211 -2.71049 2.17779 0
M  V30 26 H 1.0441 -2.59979 3.03728 0
M  V30 27 H 2.4841 -3.45858 2.45272 0
M  V30 28 C 0.9431 -3.22165 0.985473 0
M  V30 29 O 1.4731 -4.01096 0.220233 0
M  V30 30 N -0.3209 -2.7985 0.783108 0
M  V30 31 H -0.7739 -2.15775 1.40708 0
M  V30 32 H -0.8159 -3.14397 -0.0130392 0
M  V30 33 N 2.9562 -1.48159 -0.537278 0
M  V30 34 C 3.9042 -1.62573 -1.66352 0
M  V30 35 C 4.8982 -0.492366 -1.62087 0
M  V30 36 O 6.1042 -0.670847 -1.67032 0
M  V30 37 H 2.4792 -0.511992 -0.550789 0
M  V30 38 H 4.4502 -2.57176 -1.51337 0
M  V30 39 C 3.1992 -1.67583 -3.04649 0
M  V30 40 H 2.5222 -2.54151 -3.08622 0
M  V30 41 H 3.9622 -1.81713 -3.83088 0
M  V30 42 C 2.4212 -0.413039 -3.34358 0
M  V30 43 O 2.9512 0.477259 -3.98855 0
M  V30 44 N 1.1572 -0.286961 -2.8918 0
M  V30 45 H 0.7042 -1.01241 -2.36871 0
M  V30 46 H 0.6622 0.556963 -3.09427 0
M  V30 47 N 4.4343 0.785586 -1.36625 0
M  V30 48 C 5.6813 1.54362 -1.31067 0
M  V30 49 C 6.0093 1.94195 0.10893 0
M  V30 50 O 5.2643 1.63262 1.07908 0
M  V30 51 C 5.5633 2.83007 -2.1827 0
M  V30 52 C 5.2293 2.62294 -3.6676 0
M  V30 53 C 3.8913 2.56353 -4.0723 0
M  V30 54 C 6.2433 2.43371 -4.6089 0
M  V30 55 C 3.5713 2.29461 -5.39967 0
M  V30 56 C 5.9233 2.18005 -5.93849 0
M  V30 57 C 4.5873 2.105 -6.3344 0
M  V30 58 H 3.8573 0.564851 -0.479609 0
M  V30 59 H 6.5043 0.906028 -1.68711 0
M  V30 60 H 4.8093 3.51253 -1.73576 0
M  V30 61 H 6.5063 3.40817 -2.11292 0
M  V30 62 H 3.0963 2.67774 -3.34656 0
M  V30 63 H 7.2803 2.46959 -4.30494 0
M  V30 64 H 2.5363 2.22135 -5.69619 0
M  V30 65 H 6.7103 2.02359 -6.66351 0
M  V30 66 H 4.3373 1.89425 -7.36222 0
M  V30 67 N 5.9124 1.20967 1.01018 0
M  V30 68 C 6.8604 0.961223 2.1181 0
M  V30 69 C 7.8544 -0.0897034 1.69162 0
M  V30 70 O 9.0604 0.0612271 1.79896 0
M  V30 71 H 5.4354 0.29355 0.692338 0
M  V30 72 H 7.4064 1.90178 2.29946 0
M  V30 73 C 6.1554 0.536854 3.4353 0
M  V30 74 H 5.4784 1.33713 3.76777 0
M  V30 75 H 6.9184 0.402286 4.22087 0
M  V30 76 C 5.3774 -0.751574 3.2841 0
M  V30 77 O 5.9074 -1.80841 3.58691 0
M  V30 78 N 4.1134 -0.716079 2.81639 0
M  V30 79 H 3.6604 0.144236 2.57196 0
M  V30 80 H 3.6184 -1.57847 2.71904 0
M  V30 81 N 7.3905 -1.2043 1.01659 0
M  V30 82 C 8.3205 -2.25466 0.607226 0
M  V30 83 C 9.3015 -1.65853 -0.377716 0
M  V30 84 O 10.4865 -1.92409 -0.263149 0
M  V30 85 C 7.6165 -3.47256 -0.0552949 0
M  V30 86 C 6.5705 -4.19462 0.850632 0
M  V30 87 C 5.8965 -5.34673 0.0538859 0
M  V30 88 C 7.1965 -4.75603 2.15868 0
M  V30 89 H 8.8905 -2.59962 1.48526 0
M  V30 90 H 6.4365 -1.2496 0.715605 0
M  V30 91 H 8.3895 -4.19917 -0.353233 0
M  V30 92 H 7.1135 -3.11924 -0.968045 0
M  V30 93 H 5.7725 -3.48667 1.13257 0
M  V30 94 H 5.4205 -4.95585 -0.860514 0
M  V30 95 H 5.1205 -5.83913 0.657192 0
M  V30 96 H 6.6445 -6.10138 -0.237598 0
M  V30 97 H 8.0585 -5.40083 1.92311 0
M  V30 98 H 6.4555 -5.3528 2.71284 0
M  V30 99 H 7.5255 -3.94346 2.82169 0
M  V30 100 N 8.8686 -0.792821 -1.36206 0
M  V30 101 C 9.8186 -0.166598 -2.27391 0
M  V30 102 C 10.8026 0.651479 -1.47121 0
M  V30 103 O 11.9946 0.510994 -1.69463 0
M  V30 104 C 9.1236 0.695033 -3.36191 0
M  V30 105 C 8.2096 -0.132019 -4.23894 0
M  V30 106 N 8.6006 -1.18822 -4.91645 0
M  V30 107 C 6.8986 0.0885952 -4.45912 0
M  V30 108 C 7.5996 -1.69198 -5.56549 0
M  V30 109 N 6.5756 -1.00065 -5.34311 0
M  V30 110 H 10.3776 -0.974947 -2.77258 0
M  V30 111 H 7.8916 -0.632616 -1.49572 0
M  V30 112 H 9.8886 1.1596 -4.00448 0
M  V30 113 H 8.5486 1.50189 -2.87877 0
M  V30 114 H 9.5596 -1.57069 -4.93507 0
M  V30 115 H 6.2366 0.865688 -4.08426 0
M  V30 116 H 7.6266 -2.57395 -6.20643 0
M  V30 117 N 10.3467 1.47872 -0.545128 0
M  V30 118 C 11.5747 2.06889 -0.021084 0
M  V30 119 C 11.9897 1.39955 1.2672 0
M  V30 120 O 11.3467 0.492036 1.75742 0
M  V30 121 C 11.3977 3.60996 0.190817 0
M  V30 122 O 11.1187 4.25419 -1.04644 0
M  V30 123 C 12.6197 4.36849 0.753521 0
M  V30 124 H 9.8397 0.669785 -0.0403635 0
M  V30 125 H 12.3837 1.90049 -0.755095 0
M  V30 126 H 10.5387 3.77391 0.87492 0
M  V30 127 H 10.9527 5.17785 -0.836611 0
M  V30 128 H 12.4267 5.45399 0.851139 0
M  V30 129 H 12.9037 4.02306 1.762 0
M  V30 130 H 13.5097 4.25169 0.105503 0
M  V30 131 N 11.8248 0.280983 1.55075 0
M  V30 132 C 13.2358 -0.215629 1.85451 0
M  V30 133 C 13.5868 -1.54991 1.203 0
M  V30 134 O 12.7118 -2.10699 0.493435 0
M  V30 135 C 13.3068 -0.398026 3.36454 0
M  V30 136 C 11.8658 -0.838866 3.66933 0
M  V30 137 C 11.0128 0.064458 2.77225 0
M  V30 138 H 13.9638 0.502601 1.50531 0
M  V30 139 H 13.9848 -1.23569 3.59876 0
M  V30 140 H 13.4968 0.573241 3.83843 0
M  V30 141 H 11.5978 -1.8214 3.25048 0
M  V30 142 H 11.7108 -0.672123 4.74362 0
M  V30 143 H 10.0748 -0.452863 2.50642 0
M  V30 144 H 10.8578 1.03172 3.2743 0
M  V30 145 N 13.3029 -1.57598 0.00835791 0
M  V30 146 C 14.5309 -1.95214 -0.68549 0
M  V30 147 C 14.9459 -0.883706 -1.66841 0
M  V30 148 O 14.3029 0.136565 -1.81988 0
M  V30 149 C 14.3539 -3.32865 -1.41007 0
M  V30 150 O 14.0749 -4.35609 -0.466552 0
M  V30 151 C 15.5759 -3.84991 -2.19765 0
M  V30 152 H 12.7959 -0.643422 -0.190392 0
M  V30 153 H 15.3399 -2.04406 0.0619607 0
M  V30 154 H 13.4949 -3.24956 -2.10908 0
M  V30 155 H 13.9089 -5.15288 -0.978699 0
M  V30 156 H 15.3829 -4.8371 -2.65948 0
M  V30 157 H 15.8599 -3.18137 -3.02796 0
M  V30 158 H 16.4659 -3.96103 -1.54864 0
M  V30 159 N 14.781 0.264519 -1.55364 0
M  V30 160 C 16.197 0.61215 -1.47394 0
M  V30 161 C 16.397 1.89134 -0.695018 0
M  V30 162 O 15.453 2.51563 -0.217275 0
M  V30 163 C 16.766 0.731235 -2.91674 0
M  V30 164 C 18.314 0.82473 -3.01939 0
M  V30 165 C 18.789 0.975522 -4.4749 0
M  V30 166 N 20.28 1.04083 -4.51354 0
M  V30 167 C 21.015 1.17646 -5.61201 0
M  V30 168 N 20.511 1.27874 -6.80896 0
M  V30 169 N 22.304 1.20823 -5.48961 0
M  V30 170 H 14.455 -0.575456 -2.04456 0
M  V30 171 H 16.718 -0.196099 -0.927496 0
M  V30 172 H 16.424 -0.138392 -3.51428 0
M  V30 173 H 16.298 1.60883 -3.41169 0
M  V30 174 H 18.685 1.68482 -2.42276 0
M  V30 175 H 18.766 -0.0776479 -2.55682 0
M  V30 176 H 18.41 0.120058 -5.07758 0
M  V30 177 H 18.34 1.89268 -4.91412 0
M  V30 178 H 20.831 0.973846 -3.65136 0
M  V30 179 H 21.144 1.38081 -7.60364 0
M  V30 180 H 19.489 1.24863 -6.83692 0
M  V30 181 H 22.68 1.12469 -4.54388 0
M  V30 182 H 22.853 1.31049 -6.3461 0
M  V30 183 N 16.2591 1.48442 0.529413 0
M  V30 184 C 17.5081 1.55742 1.28169 0
M  V30 185 C 17.8211 0.236511 1.94165 0
M  V30 186 O 19.0271 0.187761 2.7085 0
M  V30 187 C 17.4831 2.74667 2.32564 0
M  V30 188 C 17.0911 4.13402 1.72636 0
M  V30 189 C 18.8351 2.9128 3.08798 0
M  V30 190 C 16.7421 5.23587 2.74975 0
M  V30 191 H 15.6721 0.579796 0.48203 0
M  V30 192 H 18.3231 1.74776 0.559056 0
M  V30 193 H 16.7051 2.49067 3.07866 0
M  V30 194 H 17.8791 4.49022 1.03519 0
M  V30 195 H 16.1941 4.0191 1.08892 0
M  V30 196 H 18.7911 3.70767 3.85274 0
M  V30 197 H 19.1341 2.00757 3.64695 0
M  V30 198 H 19.6671 3.16782 2.40611 0
M  V30 199 H 16.4061 6.16076 2.23897 0
M  V30 200 H 15.9261 4.92454 3.42417 0
M  V30 201 H 17.6051 5.51724 3.37949 0
M  V30 202 N 17.7372 -0.778329 1.37039 0
M  V30 203 C 18.6672 -1.90546 1.34962 0
M  V30 204 C 19.6482 -1.68681 0.219274 0
M  V30 205 O 20.8332 -1.89634 0.418624 0
M  V30 206 C 17.9632 -3.27734 1.14925 0
M  V30 207 C 16.9172 -3.64147 2.24902 0
M  V30 208 C 16.2432 -4.99806 1.89996 0
M  V30 209 C 17.5432 -3.71579 3.67051 0
M  V30 210 H 19.2372 -1.92541 2.29277 0
M  V30 211 H 16.7832 -0.924948 1.10366 0
M  V30 212 H 18.7362 -4.06215 1.12104 0
M  V30 213 H 17.4602 -3.26154 0.170631 0
M  V30 214 H 16.1192 -2.8797 2.26868 0
M  V30 215 H 15.7672 -4.94759 0.906796 0
M  V30 216 H 15.4672 -5.25139 2.63634 0
M  V30 217 H 16.9912 -5.80694 1.88749 0
M  V30 218 H 18.4052 -4.40227 3.67251 0
M  V30 219 H 16.8022 -4.08405 4.39688 0
M  V30 220 H 17.8722 -2.72404 4.01154 0
M  V30 221 N 19.2153 -1.21501 -1.00376 0
M  V30 222 C 20.4623 -1.03299 -1.74171 0
M  V30 223 C 20.7903 0.433326 -1.89612 0
M  V30 224 O 20.0453 1.33779 -1.42834 0
M  V30 225 C 20.3443 -1.67673 -3.15627 0
M  V30 226 C 20.0103 -3.17533 -3.2013 0
M  V30 227 C 18.6723 -3.58427 -3.21067 0
M  V30 228 C 21.0243 -4.13504 -3.17275 0
M  V30 229 C 18.3523 -4.93794 -3.16835 0
M  V30 230 C 20.7043 -5.48834 -3.14585 0
M  V30 231 C 19.3683 -5.89123 -3.13831 0
M  V30 232 H 18.6383 -0.377999 -0.637336 0
M  V30 233 H 21.2853 -1.51111 -1.17634 0
M  V30 234 H 19.5903 -1.12158 -3.75404 0
M  V30 235 H 21.2873 -1.51091 -3.71446 0
M  V30 236 H 17.8773 -2.84965 -3.20145 0
M  V30 237 H 22.0613 -3.82936 -3.15711 0
M  V30 238 H 17.3173 -5.24255 -3.1459 0
M  V30 239 H 21.4913 -6.22934 -3.1133 0
M  V30 240 H 19.1183 -6.93984 -3.10307 0
M  V30 241 N 20.6934 1.19889 -1.02296 0
M  V30 242 C 21.9414 1.89046 -0.714558 0
M  V30 243 C 22.2624 1.79636 0.758681 0
M  V30 244 O 21.5324 1.20292 1.54618 0
M  V30 245 H 20.1124 0.699802 -0.261317 0
M  V30 246 H 22.7744 1.45574 -1.29592 0
M  V30 247 H 21.8704 2.95524 -1.0036 0
M  V30 248 N 22.1715 0.800033 1.35784 0
M  V30 249 C 23.1185 0.203848 2.29898 0
M  V30 250 C 24.0885 -0.658375 1.52495 0
M  V30 251 O 25.2735 -0.604832 1.8096 0
M  V30 252 C 22.4135 -0.64688 3.38983 0
M  V30 253 C 21.5265 0.235054 4.3136 0
M  V30 254 C 20.6615 -0.623054 5.27533 0
M  V30 255 C 19.7005 0.259682 6.11549 0
M  V30 256 N 18.8375 -0.558019 6.99879 0
M  V30 257 H 23.6775 1.01186 2.80295 0
M  V30 258 H 21.2145 0.51053 1.37957 0
M  V30 259 H 23.1725 -1.15521 4.00887 0
M  V30 260 H 21.8025 -1.42021 2.89879 0
M  V30 261 H 20.8545 0.861438 3.70518 0
M  V30 262 H 22.1665 0.914768 4.9034 0
M  V30 263 H 21.3205 -1.19678 5.94779 0
M  V30 264 H 20.0595 -1.33636 4.69034 0
M  V30 265 H 19.0645 0.845726 5.43256 0
M  V30 266 H 20.2895 0.970748 6.72126 0
M  V30 267 H 18.2355 -1.25542 6.43875 0
M  V30 268 H 18.1525 0.0637872 7.55973 0
M  V30 269 H 19.4205 -1.11523 7.71481 0
M  V30 270 N 23.6496 -1.47581 0.552962 0
M  V30 271 C 24.8976 -2.02082 0.0272703 0
M  V30 272 C 25.2186 -1.4301 -1.32563 0
M  V30 273 O 24.4886 -0.603745 -1.86365 0
M  V30 274 H 23.0686 -0.746966 0.00709182 0
M  V30 275 H 25.7306 -1.81033 0.722008 0
M  V30 276 H 24.8266 -3.12034 -0.0639951 0
M  V30 277 N 25.1277 -0.289203 -1.54924 0
M  V30 278 C 26.0907 0.579144 -2.21762 0
M  V30 279 C 27.0907 1.07047 -1.1999 0
M  V30 280 O 28.2807 0.968384 -1.44803 0
M  V30 281 C 25.4127 1.80055 -2.8947 0
M  V30 282 H 26.6057 -0.00464908 -2.999 0
M  V30 283 H 24.1587 -0.0399306 -1.56249 0
M  V30 284 H 24.8937 2.42449 -2.15381 0
M  V30 285 H 24.6787 1.45602 -3.64064 0
M  V30 286 H 26.1687 2.41773 -3.40493 0
M  V30 287 N 26.6058 1.57591 -0.0167156 0
M  V30 288 C 27.8548 1.90461 0.663877 0
M  V30 289 C 28.1678 0.893515 1.73999 0
M  V30 290 O 29.3738 1.11302 2.47637 0
M  V30 291 C 27.8298 3.38155 1.23204 0
M  V30 292 C 27.4378 4.47597 0.189866 0
M  V30 293 C 29.1818 3.80111 1.88986 0
M  V30 294 C 27.0888 5.86379 0.768964 0
M  V30 295 H 26.0188 0.710738 0.251729 0
M  V30 296 H 28.6698 1.83326 -0.0799926 0
M  V30 297 H 27.0518 3.40182 2.02712 0
M  V30 298 H 28.2258 4.57112 -0.581846 0
M  V30 299 H 26.5408 4.14766 -0.368475 0
M  V30 300 H 29.1378 4.81145 2.33247 0
M  V30 301 H 29.4808 3.14511 2.72743 0
M  V30 302 H 30.0138 3.80454 1.16187 0
M  V30 303 H 26.7528 6.55493 -0.0301957 0
M  V30 304 H 26.2728 5.80496 1.50945 0
M  V30 305 H 27.9518 6.34563 1.26251 0
M  V30 306 N 28.0839 -0.256276 1.55502 0
M  V30 307 C 29.0469 -1.30047 1.88734 0
M  V30 308 C 30.0469 -1.4154 0.763086 0
M  V30 309 O 31.2369 -1.40403 1.03115 0
M  V30 310 C 28.3689 -2.67953 2.10747 0
M  V30 311 H 29.5619 -1.01802 2.82093 0
M  V30 312 H 27.1149 -0.495134 1.4825 0
M  V30 313 H 27.8499 -3.01351 1.19825 0
M  V30 314 H 27.6349 -2.60993 2.92617 0
M  V30 315 H 29.1249 -3.43368 2.37673 0
M  V30 316 N 29.562 -1.4872 -0.521534 0
M  V30 317 C 30.81 -1.56857 -1.27437 0
M  V30 318 C 31.131 -0.247982 -1.93417 0
M  V30 319 O 30.401 0.731151 -1.81744 0
M  V30 320 H 28.981 -0.577885 -0.473347 0
M  V30 321 H 31.643 -1.85233 -0.606205 0
M  V30 322 H 30.739 -2.35402 -2.0492 0
M  V30 323 N 31.0401 0.771051 -1.3745 0
M  V30 324 C 31.9701 1.89827 -1.3597 0
M  V30 325 C 32.9511 1.68562 -0.228216 0
M  V30 326 O 34.1361 1.8941 -0.428675 0
M  V30 327 C 31.2661 3.2712 -1.16662 0
M  V30 328 C 30.2201 3.6295 -2.2683 0
M  V30 329 C 29.5461 4.98791 -1.92644 0
M  V30 330 C 30.8461 3.69627 -3.69017 0
M  V30 331 H 32.5401 1.91323 -2.30295 0
M  V30 332 H 30.0861 0.919082 -1.10855 0
M  V30 333 H 32.0391 4.05615 -1.14256 0
M  V30 334 H 30.7631 3.26059 -0.187926 0
M  V30 335 H 29.4221 2.86763 -2.28392 0
M  V30 336 H 29.0701 4.94271 -0.933021 0
M  V30 337 H 28.7701 5.23733 -2.66416 0
M  V30 338 H 30.2941 5.79685 -1.91826 0
M  V30 339 H 31.7081 4.38273 -3.69581 0
M  V30 340 H 30.1051 4.06067 -4.41848 0
M  V30 341 H 31.1751 2.70273 -4.02592 0
M  V30 342 N 32.5182 1.22032 0.997298 0
M  V30 343 C 33.9342 0.979326 1.26021 0
M  V30 344 C 34.1342 -0.32972 1.98784 0
M  V30 345 O 33.1902 -1.05345 2.29475 0
M  V30 346 C 34.5032 2.17509 2.07631 0
M  V30 347 C 36.0512 2.21817 2.2083 0
M  V30 348 C 36.5262 3.40933 3.05825 0
M  V30 349 N 38.0172 3.41067 3.13412 0
M  V30 350 C 38.7522 4.29885 3.79455 0
M  V30 351 N 38.2482 5.28914 4.47462 0
M  V30 352 N 40.0412 4.17673 3.76173 0
M  V30 353 H 32.1922 2.06202 0.509352 0
M  V30 354 H 34.4552 0.90334 0.287541 0
M  V30 355 H 34.1612 3.12415 1.61524 0
M  V30 356 H 34.0352 2.17206 3.08385 0
M  V30 357 H 36.4222 1.27462 2.66153 0
M  V30 358 H 36.5032 2.2616 1.1952 0
M  V30 359 H 36.1472 4.35586 2.61203 0
M  V30 360 H 36.0772 3.33829 4.07266 0
M  V30 361 H 38.5682 2.69406 2.65007 0
M  V30 362 H 38.8812 5.92973 4.95583 0
M  V30 363 H 37.2262 5.32831 4.46224 0
M  V30 364 H 40.4172 3.39564 3.22202 0
M  V30 365 H 40.5902 4.87098 4.27363 0
M  V30 366 N 33.9963 -1.19345 1.0293 0
M  V30 367 C 34.9063 -2.26245 0.620515 0
M  V30 368 C 35.9223 -1.70486 -0.347928 0
M  V30 369 O 37.0983 -2.00347 -0.205704 0
M  V30 370 C 34.1633 -3.46693 -0.0218957 0
M  V30 371 C 33.2243 -4.17632 0.994102 0
M  V30 372 C 32.4573 -5.32329 0.382253 0
M  V30 373 O 32.6803 -5.64552 -0.814676 0
M  V30 374 O 31.6143 -5.91664 1.10531 0
M  V30 375 H 35.4403 -2.63453 1.51083 0
M  V30 376 H 33.0253 -1.26207 0.799513 0
M  V30 377 H 34.9073 -4.19683 -0.380072 0
M  V30 378 H 33.5823 -3.11333 -0.886209 0
M  V30 379 H 32.4893 -3.4676 1.40387 0
M  V30 380 H 33.8223 -4.56964 1.8288 0
M  V30 381 N 35.4744 -0.807222 -1.35358 0
M  V30 382 C 36.4064 -0.175717 -2.28525 0
M  V30 383 C 37.4194 0.625354 -1.5031 0
M  V30 384 O 38.6084 0.457611 -1.72535 0
M  V30 385 C 35.7084 0.773471 -3.29956 0
M  V30 386 C 34.8814 0.0186296 -4.37396 0
M  V30 387 C 33.9404 0.886395 -5.18681 0
M  V30 388 O 32.9664 0.337106 -5.68201 0
M  V30 389 N 34.1684 2.20839 -5.36852 0
M  V30 390 H 36.9334 -0.976091 -2.83359 0
M  V30 391 H 34.4944 -0.662737 -1.47714 0
M  V30 392 H 36.4864 1.35824 -3.81227 0
M  V30 393 H 35.0564 1.47465 -2.75632 0
M  V30 394 H 34.2764 -0.747349 -3.87051 0
M  V30 395 H 35.5644 -0.501577 -5.06322 0
M  V30 396 H 34.9624 2.67858 -4.98265 0
M  V30 397 H 33.5194 2.74237 -5.91301 0
M  V30 398 N 36.9525 1.47285 -0.560781 0
M  V30 399 C 38.2015 2.01668 -0.035895 0
M  V30 400 C 38.5145 1.44021 1.32353 0
M  V30 401 O 39.7205 1.90088 1.93853 0
M  V30 402 C 38.1765 3.59897 -0.0136659 0
M  V30 403 C 37.7845 4.26536 -1.37006 0
M  V30 404 C 39.5285 4.22017 0.458425 0
M  V30 405 C 37.4355 5.76782 -1.30675 0
M  V30 406 H 36.3655 0.753938 -0.00964879 0
M  V30 407 H 39.0165 1.69243 -0.709166 0
M  V30 408 H 37.3985 3.89301 0.725325 0
M  V30 409 H 38.5725 4.0877 -2.12705 0
M  V30 410 H 36.8875 3.76419 -1.78038 0
M  V30 411 H 39.4845 5.32124 0.524247 0
M  V30 412 H 39.8275 3.89437 1.4712 0
M  V30 413 H 40.3605 3.97159 -0.225818 0
M  V30 414 H 37.0995 6.13988 -2.29564 0
M  V30 415 H 36.6195 5.96875 -0.591622 0
M  V30 416 H 38.2985 6.39063 -1.01033 0
M  V30 417 N 38.4306 0.297415 1.54768 0
M  V30 418 C 39.8416 -0.195947 1.85669 0
M  V30 419 C 40.1926 -1.53707 1.21937 0
M  V30 420 O 39.3176 -2.10164 0.515754 0
M  V30 421 C 39.9126 -0.362318 3.36857 0
M  V30 422 C 38.4716 -0.799901 3.67802 0
M  V30 423 C 37.6186 0.0938578 2.77141 0
M  V30 424 H 40.5696 0.518538 1.4999 0
M  V30 425 H 40.5906 -1.19745 3.61167 0
M  V30 426 H 40.1026 0.613921 3.83214 0
M  V30 427 H 38.2036 -1.78682 3.26961 0
M  V30 428 H 38.3166 -0.621773 4.75048 0
M  V30 429 H 36.6806 -0.426254 2.51108 0
M  V30 430 H 37.4636 1.06639 3.26318 0
M  V30 431 N 39.9087 -1.5758 0.0250728 0
M  V30 432 C 40.8587 -2.06468 -0.967201 0
M  V30 433 C 41.8427 -0.964376 -1.28797 0
M  V30 434 O 43.0347 -1.22797 -1.27475 0
M  V30 435 C 40.1637 -2.59203 -2.25097 0
M  V30 436 C 39.2497 -3.76157 -1.95874 0
M  V30 437 N 39.6407 -4.86919 -1.36905 0
M  V30 438 C 37.9387 -3.84566 -2.25887 0
M  V30 439 C 38.6397 -5.68172 -1.24724 0
M  V30 440 N 37.6157 -5.14953 -1.74138 0
M  V30 441 H 41.4177 -2.89508 -0.506176 0
M  V30 442 H 38.9317 -1.61399 -0.18004 0
M  V30 443 H 40.9287 -2.92517 -2.97052 0
M  V30 444 H 39.5887 -1.77592 -2.71829 0
M  V30 445 H 40.5997 -5.07256 -1.04459 0
M  V30 446 H 37.2767 -3.13854 -2.75321 0
M  V30 447 H 38.6667 -6.67221 -0.791605 0
M  V30 448 N 41.3868 0.248026 -1.55636 0
M  V30 449 C 42.6638 0.998988 -1.68165 0
M  V30 450 C 43.0438 2.03409 -0.564621 0
M  V30 451 O 42.3918 2.24378 0.432076 0
M  V30 452 C 42.6018 1.63334 -3.0842 0
M  V30 453 C 43.9498 2.13562 -3.66983 0
M  V30 454 O 44.9738 1.73277 -3.11213 0
M  V30 455 O 43.8328 2.87526 -4.64749 0
M  V30 456 H 40.9268 0.464933 -0.683935 0
M  V30 457 H 43.4728 0.241902 -1.67967 0
M  V30 458 H 42.2448 0.884583 -3.8117 0
M  V30 459 H 41.8678 2.45666 -3.12624 0
M  V30 460 N 42.8649 1.48995 0.513639 0
M  V30 461 C 43.8279 1.64229 1.59879 0
M  V30 462 C 44.8279 0.514696 1.5234 0
M  V30 463 O 46.0179 0.78087 1.55718 0
M  V30 464 C 43.1499 1.62783 2.99524 0
M  V30 465 H 44.3429 2.61004 1.47705 0
M  V30 466 H 41.8959 1.37837 0.736936 0
M  V30 467 H 42.6309 0.675461 3.17188 0
M  V30 468 H 42.4159 2.4466 3.06404 0
M  V30 469 H 43.9059 1.76669 3.78388 0
M  V30 470 N 44.343 -0.763751 1.37857 0
M  V30 471 C 45.759 -1.06542 1.18832 0
M  V30 472 C 45.959 -2.01478 0.0299722 0
M  V30 473 O 45.015 -2.4458 -0.627447 0
M  V30 474 C 46.328 -1.65525 2.51042 0
M  V30 475 C 47.876 -1.77745 2.57635 0
M  V30 476 C 48.351 -2.4014 3.89996 0
M  V30 477 N 49.842 -2.47582 3.91481 0
M  V30 478 C 50.577 -2.96732 4.9065 0
M  V30 479 N 50.073 -3.45993 6.00217 0
M  V30 480 N 51.866 -2.95679 4.78048 0
M  V30 481 H 44.017 -0.133556 2.1198 0
M  V30 482 H 46.28 -0.121879 0.940133 0
M  V30 483 H 45.986 -1.03236 3.36207 0
M  V30 484 H 45.86 -2.64719 2.68707 0
M  V30 485 H 48.247 -2.39164 1.72872 0
M  V30 486 H 48.328 -0.772836 2.43846 0
M  V30 487 H 47.972 -1.79358 4.75177 0
M  V30 488 H 47.902 -3.41223 4.01092 0
M  V30 489 H 50.393 -2.1273 3.12337 0
M  V30 490 H 50.706 -3.81922 6.7183 0
M  V30 491 H 49.051 -3.44077 6.03851 0
M  V30 492 H 52.242 -2.56499 3.91568 0
M  V30 493 H 52.415 -3.33672 5.55488 0
M  V30 494 N 45.8211 -1.22559 -0.990812 0
M  V30 495 C 47.0671 -1.05297 -1.73322 0
M  V30 496 C 47.4001 0.410655 -1.89808 0
M  V30 497 O 46.6751 1.30439 -1.44277 0
M  V30 498 C 46.9581 -1.76713 -3.13759 0
M  V30 499 C 46.8111 -3.30684 -3.04907 0
M  V30 500 C 48.1301 -1.52121 -4.12974 0
M  V30 501 H 45.2491 -0.38392 -0.629106 0
M  V30 502 H 47.8911 -1.50926 -1.15418 0
M  V30 503 H 46.0411 -1.37924 -3.63193 0
M  V30 504 H 47.7131 -3.7893 -2.63077 0
M  V30 505 H 45.9561 -3.60253 -2.41661 0
M  V30 506 H 46.6271 -3.75833 -4.04294 0
M  V30 507 H 49.1031 -1.85819 -3.72304 0
M  V30 508 H 47.9791 -2.04582 -5.0935 0
M  V30 509 H 48.2401 -0.454257 -4.3976 0
M  V30 510 N 47.2992 1.18797 -1.03562 0
M  V30 511 C 48.2292 2.24472 -0.643019 0
M  V30 512 C 49.2102 1.66433 0.351283 0
M  V30 513 O 50.3952 1.92803 0.232505 0
M  V30 514 C 47.5252 3.473 4.24935e-05 0
M  V30 515 C 46.4792 4.18055 -0.917257 0
M  V30 516 C 45.8052 5.34519 -0.138941 0
M  V30 517 C 47.1052 4.72109 -2.23407 0
M  V30 518 H 48.7992 2.57566 -1.52643 0
M  V30 519 H 46.3452 1.23806 -0.735394 0
M  V30 520 H 48.2982 4.20426 0.286383 0
M  V30 521 H 47.0222 3.13424 0.918299 0
M  V30 522 H 45.6812 3.46821 -1.1879 0
M  V30 523 H 45.3292 4.96891 0.781562 0
M  V30 524 H 45.0292 5.82794 -0.750005 0
M  V30 525 H 46.5532 6.10438 0.1405 0
M  V30 526 H 47.9672 5.36955 -2.00879 0
M  V30 527 H 46.3642 5.30897 -2.79765 0
M  V30 528 H 47.4342 3.89807 -2.88407 0
M  V30 529 N 48.7773 0.814389 1.34928 0
M  V30 530 C 50.0263 0.394871 1.97797 0
M  V30 531 C 50.3393 -1.04555 1.65311 0
M  V30 532 O 51.5453 -1.56856 2.21604 0
M  V30 533 C 50.0013 0.655103 3.53888 0
M  V30 534 C 49.6093 2.10858 3.95276 0
M  V30 535 C 51.3533 0.301329 4.23429 0
M  V30 536 C 49.2603 2.31415 5.44244 0
M  V30 537 H 48.1903 0.143913 0.740139 0
M  V30 538 H 50.8413 0.999544 1.53888 0
M  V30 539 H 49.2233 -0.0196253 3.95995 0
M  V30 540 H 50.3973 2.82176 3.64298 0
M  V30 541 H 48.7123 2.42297 3.38646 0
M  V30 542 H 51.3093 0.432869 5.32945 0
M  V30 543 H 51.6523 -0.75331 4.09428 0
M  V30 544 H 52.1853 0.930288 3.86769 0
M  V30 545 H 48.9243 3.35353 5.63222 0
M  V30 546 H 48.4443 1.6463 5.76764 0
M  V30 547 H 50.1233 2.13352 6.10811 0
M  V30 548 N 50.2554 -1.46986 0.568584 0
M  V30 549 C 51.4834 -2.0683 0.0539956 0
M  V30 550 C 51.8984 -1.41953 -1.24478 0
M  V30 551 O 51.2554 -0.519933 -1.74937 0
M  V30 552 C 51.3064 -3.61254 -0.133362 0
M  V30 553 O 51.0274 -4.237 1.11399 0
M  V30 554 C 52.5284 -4.37992 -0.683927 0
M  V30 555 H 49.7484 -0.669058 0.0510141 0
M  V30 556 H 52.2924 -1.88824 0.785234 0
M  V30 557 H 50.4474 -3.78735 -0.81477 0
M  V30 558 H 50.8614 -5.16388 0.91888 0
M  V30 559 H 52.3354 -5.46684 -0.764263 0
M  V30 560 H 52.8124 -4.05058 -1.69778 0
M  V30 561 H 53.4184 -4.25283 -0.0378494 0
M  V30 562 N 51.7335 -0.305618 -1.54608 0
M  V30 563 C 52.9635 0.304333 -2.04346 0
M  V30 564 C 53.3715 1.47715 -1.18224 0
M  V30 565 O 52.7145 1.82591 -0.201577 0
M  V30 566 C 52.7765 0.819031 -3.50046 0
M  V30 567 C 52.4405 -0.22912 -4.56425 0
M  V30 568 C 53.4375 -1.05914 -5.08997 0
M  V30 569 C 51.1225 -0.372148 -5.0092 0
M  V30 570 C 53.1165 -2.01809 -6.04609 0
M  V30 571 C 50.8035 -1.33454 -5.9635 0
M  V30 572 C 51.8015 -2.15599 -6.48079 0
M  V30 573 O 51.4895 -3.10205 -7.41639 0
M  V30 574 H 51.2215 0.0693996 -0.672428 0
M  V30 575 H 53.7755 -0.444548 -2.00532 0
M  V30 576 H 52.0055 1.61852 -3.51199 0
M  V30 577 H 53.6945 1.34537 -3.82955 0
M  V30 578 H 54.4605 -0.959538 -4.75413 0
M  V30 579 H 50.3395 0.257304 -4.60281 0
M  V30 580 H 53.8835 -2.65966 -6.44909 0
M  V30 581 H 49.7805 -1.43485 -6.29351 0
M  V30 582 H 50.5485 -3.05237 -7.59455 0
M  V30 583 N 53.2116 1.57565 -0.0334293 0
M  V30 584 C 54.4596 1.91598 0.642999 0
M  V30 585 C 54.7806 0.910847 1.7242 0
M  V30 586 O 54.0506 -0.0469931 1.95844 0
M  V30 587 H 52.6306 0.707228 0.240496 0
M  V30 588 H 55.2926 1.94726 -0.0822488 0
M  V30 589 H 54.3886 2.92336 1.09298 0
M  V30 590 N 54.6897 -0.239769 1.55765 0
M  V30 591 C 55.9377 -0.964892 1.77579 0
M  V30 592 C 56.2587 -1.85582 0.598699 0
M  V30 593 O 55.5287 -1.92075 -0.385226 0
M  V30 594 H 54.1087 -0.359265 0.654933 0
M  V30 595 H 56.7707 -0.256001 1.93211 0
M  V30 596 H 55.8667 -1.58243 2.69009 0
M  V30 597 N 56.1678 -1.49265 -0.50573 0
M  V30 598 C 57.4158 -1.582 -1.25766 0
M  V30 599 C 57.7368 -0.268482 -1.93143 0
M  V30 600 O 57.0068 0.711833 -1.8251 0
M  V30 601 H 55.5868 -0.582873 -0.467191 0
M  V30 602 H 58.2488 -1.85865 -0.586525 0
M  V30 603 H 57.3448 -2.37563 -2.02412 0
M  V30 604 N 57.6459 0.756429 -1.3826 0
M  V30 605 C 58.8709 1.55077 -1.37717 0
M  V30 606 C 59.2959 1.88073 0.03164 0
M  V30 607 O 58.6539 1.50364 1.01293 0
M  V30 608 C 58.7019 2.8283 -2.23695 0
M  V30 609 O 57.8059 3.77862 -1.6521 0
M  V30 610 H 57.1469 0.469152 -0.469885 0
M  V30 611 H 59.6769 0.935019 -1.81985 0
M  V30 612 H 59.6869 3.31783 -2.37453 0
M  V30 613 H 58.3619 2.58144 -3.2609 0
M  V30 614 H 56.9389 3.36555 -1.60578 0
M  V30 615 N 59.124 1.23083 0.984299 0
M  V30 616 C 60.37 1.06214 1.72761 0
M  V30 617 C 60.703 -0.400584 1.90024 0
M  V30 618 O 59.978 -1.29672 1.44967 0
M  V30 619 C 60.261 1.78375 3.12817 0
M  V30 620 C 60.114 3.32296 3.03149 0
M  V30 621 C 61.433 1.54309 4.12161 0
M  V30 622 H 58.552 0.387251 0.627061 0
M  V30 623 H 61.194 1.51536 1.14616 0
M  V30 624 H 59.344 1.39848 3.62457 0
M  V30 625 H 61.016 3.8032 2.61064 0
M  V30 626 H 59.259 3.6153 2.39747 0
M  V30 627 H 59.93 3.77972 4.02295 0
M  V30 628 H 62.406 1.87791 3.71314 0
M  V30 629 H 61.282 2.07281 5.08258 0
M  V30 630 H 61.543 0.477572 4.39513 0
M  V30 631 N 60.6021 -1.18246 1.0419 0
M  V30 632 C 61.5491 -2.2192 0.634037 0
M  V30 633 C 62.5191 -1.62179 -0.358765 0
M  V30 634 O 63.7041 -1.89122 -0.252466 0
M  V30 635 C 60.8441 -3.451 0.00445535 0
M  V30 636 C 59.9571 -4.19174 1.04487 0
M  V30 637 C 59.0921 -5.29813 0.383676 0
M  V30 638 C 58.1311 -5.9566 1.4091 0
M  V30 639 N 57.2681 -6.97834 0.772784 0
M  V30 640 H 62.1081 -2.56164 1.52263 0
M  V30 641 H 59.6451 -1.25843 0.761701 0
M  V30 642 H 61.6031 -4.15485 -0.377919 0
M  V30 643 H 60.2331 -3.11472 -0.847652 0
M  V30 644 H 59.2851 -3.47604 1.54518 0
M  V30 645 H 60.5971 -4.64267 1.82368 0
M  V30 646 H 59.7511 -6.06677 -0.0528366 0
M  V30 647 H 58.4901 -4.85825 -0.427208 0
M  V30 648 H 57.4951 -5.17535 1.85574 0
M  V30 649 H 58.7201 -6.4173 2.22171 0
M  V30 650 H 56.6661 -6.55998 -0.0177708 0
M  V30 651 H 56.5831 -7.41186 1.48928 0
M  V30 652 H 57.8511 -7.78665 0.36071 0
M  V30 653 N 62.0802 -0.821533 -1.34494 0
M  V30 654 C 63.0272 -0.240397 -2.29545 0
M  V30 655 C 63.9972 0.634031 -1.53523 0
M  V30 656 O 65.1822 0.575966 -1.81899 0
M  V30 657 C 62.3222 0.592869 -3.39969 0
M  V30 658 C 61.4352 -0.30365 -4.30932 0
M  V30 659 C 60.5702 0.539049 -5.28458 0
M  V30 660 C 59.6092 -0.356942 -6.11058 0
M  V30 661 N 58.7462 0.446603 -7.00678 0
M  V30 662 H 63.5862 -1.05632 -2.7865 0
M  V30 663 H 61.1232 -0.532413 -1.37127 0
M  V30 664 H 63.0812 1.09129 -4.02675 0
M  V30 665 H 61.7112 1.37392 -2.92102 0
M  V30 666 H 60.7632 -0.920276 -3.691 0
M  V30 667 H 62.0752 -0.992661 -4.88823 0
M  V30 668 H 61.2292 1.102 -5.96608 0
M  V30 669 H 59.9682 1.26157 -4.71101 0
M  V30 670 H 58.9732 -0.932047 -5.41842 0
M  V30 671 H 60.1982 -1.07755 -6.70497 0
M  V30 672 H 58.1442 1.15282 -6.45791 0
M  V30 673 H 58.0612 -0.184048 -7.55776 0
M  V30 674 H 59.3292 0.992352 -7.73158 0
M  V30 675 N 63.5583 1.46682 -0.576371 0
M  V30 676 C 64.7863 2.06798 -0.0649635 0
M  V30 677 C 65.2013 1.42612 1.23723 0
M  V30 678 O 64.5583 0.529203 1.74659 0
M  V30 679 C 64.6093 3.6132 0.114202 0
M  V30 680 O 64.3303 4.23104 -1.13644 0
M  V30 681 C 65.8313 4.38349 0.66069 0
M  V30 682 H 63.0513 0.668778 -0.0545616 0
M  V30 683 H 65.5953 1.88404 -0.795237 0
M  V30 684 H 63.7503 3.79162 0.794673 0
M  V30 685 H 64.1643 5.15894 -0.946253 0
M  V30 686 H 65.6383 5.47081 0.73526 0
M  V30 687 H 66.1153 4.05953 1.67627 0
M  V30 688 H 66.7213 4.25297 0.0152951 0
M  V30 689 N 65.0364 0.313813 1.54444 0
M  V30 690 C 66.2844 -0.291099 1.99993 0
M  V30 691 C 66.6054 -1.53418 1.20366 0
M  V30 692 O 65.8754 -1.93544 0.302927 0
M  V30 693 H 64.4554 -0.110552 0.738774 0
M  V30 694 H 67.1174 0.428106 1.9014 0
M  V30 695 H 66.2134 -0.554268 3.07139 0
M  V30 696 N 66.5145 -1.57545 0.0417849 0
M  V30 697 C 67.7605 -1.92601 -0.635021 0
M  V30 698 C 68.0935 -0.919627 -1.71045 0
M  V30 699 O 67.3685 0.0557892 -1.9442 0
M  V30 700 C 67.6515 -3.38085 -1.23979 0
M  V30 701 C 67.5045 -4.49467 -0.173057 0
M  V30 702 C 68.8235 -3.83776 -2.15416 0
M  V30 703 H 65.9425 -0.700397 -0.229374 0
M  V30 704 H 68.5845 -1.89728 0.101633 0
M  V30 705 H 66.7345 -3.40664 -1.86762 0
M  V30 706 H 68.4065 -4.59018 0.458312 0
M  V30 707 H 66.6495 -4.30909 0.499996 0
M  V30 708 H 67.3205 -5.48323 -0.636054 0
M  V30 709 H 69.7965 -3.83013 -1.62605 0
M  V30 710 H 68.6725 -4.8624 -2.54679 0
M  V30 711 H 68.9335 -3.19998 -3.05047 0
M  V30 712 N 67.9926 0.231505 -1.5589 0
M  V30 713 C 68.9226 1.29022 -1.94617 0
M  V30 714 C 69.9036 1.4941 -0.813067 0
M  V30 715 O 71.0886 1.6176 -1.07459 0
M  V30 716 C 68.2186 2.64199 -2.25424 0
M  V30 717 C 67.1726 2.58484 -3.41131 0
M  V30 718 C 66.4986 3.97599 -3.57518 0
M  V30 719 C 67.7986 2.1413 -4.76388 0
M  V30 720 H 69.4926 0.968563 -2.83301 0
M  V30 721 H 67.0386 0.464479 -1.36303 0
M  V30 722 H 68.9916 3.38413 -2.51107 0
M  V30 723 H 67.7156 2.98032 -1.33583 0
M  V30 724 H 66.3746 1.86727 -3.15481 0
M  V30 725 H 66.0226 4.28723 -2.6307 0
M  V30 726 H 65.7226 3.94659 -4.35337 0
M  V30 727 H 67.2466 4.7349 -3.85538 0
M  V30 728 H 68.6606 2.78083 -5.01341 0
M  V30 729 H 67.0576 2.2227 -5.57419 0
M  V30 730 H 68.1276 1.09331 -4.72414 0
M  V30 731 N 69.4707 1.49531 0.497807 0
M  V30 732 C 70.7477 1.49682 1.25915 0
M  V30 733 C 71.1277 0.226339 2.09883 0
M  V30 734 O 70.4757 -0.791189 2.14365 0
M  V30 735 C 70.6857 2.77755 2.11313 0
M  V30 736 C 72.0337 3.27371 2.70395 0
M  V30 737 O 73.0577 2.78894 2.21578 0
M  V30 738 O 71.9167 4.11808 3.59272 0
M  V30 739 H 69.0107 0.599228 0.56996 0
M  V30 740 H 71.5567 1.61798 0.511816 0
M  V30 741 H 70.3287 3.61713 1.49264 0
M  V30 742 H 69.9517 2.68515 2.93233 0
M  V30 743 N 70.9488 -0.749086 1.3866 0
M  V30 744 C 71.8808 -1.87273 1.32142 0
M  V30 745 C 72.8938 -1.61127 0.232787 0
M  V30 746 O 74.0828 -1.71623 0.49069 0
M  V30 747 C 71.1828 -3.23005 1.02571 0
M  V30 748 C 70.3558 -3.7662 2.22433 0
M  V30 749 C 69.4148 -4.90879 1.89537 0
M  V30 750 O 68.4408 -5.05276 2.62078 0
M  V30 751 N 69.6428 -5.74198 0.853031 0
M  V30 752 H 72.4078 -1.93373 2.28969 0
M  V30 753 H 69.9688 -0.929216 1.32579 0
M  V30 754 H 71.9608 -3.96992 0.786085 0
M  V30 755 H 70.5308 -3.12262 0.145249 0
M  V30 756 H 69.7508 -2.94147 2.62434 0
M  V30 757 H 71.0388 -4.09173 3.02415 0
M  V30 758 H 70.4368 -5.6514 0.25155 0
M  V30 759 H 68.9938 -6.48313 0.67329 0
M  V30 760 N 72.4269 -1.23603 -0.977757 0
M  V30 761 C 73.6729 -1.07129 -1.72195 0
M  V30 762 C 74.0059 0.390501 -1.90233 0
M  V30 763 O 73.2809 1.28902 -1.45653 0
M  V30 764 C 73.5639 -1.80031 -3.11867 0
M  V30 765 C 73.4169 -3.33899 -3.01383 0
M  V30 766 C 74.7359 -1.56492 -4.11337 0
M  V30 767 H 71.8549 -0.390571 -0.624999 0
M  V30 768 H 74.4969 -1.52142 -1.13811 0
M  V30 769 H 72.6469 -1.41768 -3.6171 0
M  V30 770 H 74.3189 -3.81699 -2.59043 0
M  V30 771 H 72.5619 -3.62796 -2.37827 0
M  V30 772 H 73.2329 -3.801 -4.00285 0
M  V30 773 H 75.7089 -1.89757 -3.70313 0
M  V30 774 H 74.5849 -2.09973 -5.07151 0
M  V30 775 H 74.8459 -0.500874 -4.39254 0
M  V30 776 N 73.905 1.17692 -1.04816 0
M  V30 777 C 74.835 2.23777 -0.666791 0
M  V30 778 C 75.816 1.66796 0.33361 0
M  V30 779 O 77.001 1.93039 0.212042 0
M  V30 780 C 74.131 3.47281 -0.0367933 0
M  V30 781 C 73.085 4.17059 -0.961546 0
M  V30 782 C 72.411 5.34342 -0.195626 0
M  V30 783 C 73.711 4.69713 -2.28402 0
M  V30 784 H 75.405 2.55933 -1.55367 0
M  V30 785 H 72.951 1.23019 -0.748484 0
M  V30 786 H 74.904 4.20706 0.241775 0
M  V30 787 H 73.628 3.14381 0.885004 0
M  V30 788 H 72.287 3.45541 -1.22462 0
M  V30 789 H 71.935 4.97692 0.728816 0
M  V30 790 H 71.635 5.81966 -0.811775 0
M  V30 791 H 73.159 6.10553 0.0757473 0
M  V30 792 H 74.573 5.34794 -2.06563 0
M  V30 793 H 72.97 5.279 -2.8538 0
M  V30 794 H 74.04 3.86726 -2.92525 0
M  V30 795 N 75.3831 0.828654 1.34056 0
M  V30 796 C 76.6601 0.341809 1.9259 0
M  V30 797 C 77.0401 -1.17158 1.75605 0
M  V30 798 O 76.3881 -1.98132 1.13824 0
M  V30 799 C 76.5981 0.777453 3.4023 0
M  V30 800 C 77.9461 0.779579 4.17382 0
M  V30 801 O 78.9701 0.7204 3.48839 0
M  V30 802 O 77.8291 0.857996 5.39723 0
M  V30 803 H 74.9231 0.0946085 0.821571 0
M  V30 804 H 77.4691 0.913827 1.42994 0
M  V30 805 H 76.2411 1.8196 3.46419 0
M  V30 806 H 75.8641 0.181444 3.97186 0
M  V30 807 N 76.8612 -1.46375 0.584142 0
M  V30 808 C 77.8242 -2.28784 -0.138108 0
M  V30 809 C 78.8242 -1.38471 -0.817462 0
M  V30 810 O 80.0142 -1.60833 -0.669199 0
M  V30 811 C 77.1462 -3.18892 -1.20503 0
M  V30 812 H 78.3392 -2.94117 0.586127 0
M  V30 813 H 75.8922 -1.52509 0.342171 0
M  V30 814 H 76.6272 -2.58309 -1.96079 0
M  V30 815 H 76.4122 -3.85388 -0.722384 0
M  V30 816 H 77.9022 -3.80914 -1.71155 0
M  V30 817 N 78.3393 -0.321999 -1.54275 0
M  V30 818 C 79.2693 0.537411 -2.27231 0
M  V30 819 C 80.2503 1.12064 -1.27968 0
M  V30 820 O 81.4353 1.14606 -1.56777 0
M  V30 821 C 78.5653 1.69919 -3.02894 0
M  V30 822 C 77.5193 1.24534 -4.09482 0
M  V30 823 C 76.8453 2.49394 -4.72977 0
M  V30 824 C 78.1453 0.361335 -5.21049 0
M  V30 825 H 79.8393 -0.0711406 -2.99315 0
M  V30 826 H 77.3853 -0.0356555 -1.43956 0
M  V30 827 H 79.3383 2.30668 -3.52662 0
M  V30 828 H 78.0623 2.33431 -2.28424 0
M  V30 829 H 76.7213 0.660782 -3.60596 0
M  V30 830 H 76.3693 3.11265 -3.95124 0
M  V30 831 H 76.0693 2.19718 -5.44975 0
M  V30 832 H 77.5933 3.10908 -5.25517 0
M  V30 833 H 79.0073 0.875072 -5.66582 0
M  V30 834 H 77.4043 0.157428 -5.99893 0
M  V30 835 H 78.4743 -0.60822 -4.8107 0
M  V30 836 N 79.8174 1.5752 -0.0501392 0
M  V30 837 C 80.7644 2.1147 0.924603 0
M  V30 838 C 81.7344 1.02182 1.30951 0
M  V30 839 O 82.9194 1.29723 1.39916 0
M  V30 840 C 80.0594 2.66337 2.19451 0
M  V30 841 C 79.1724 3.89708 1.86418 0
M  V30 842 C 78.3074 4.32893 3.07859 0
M  V30 843 C 77.3464 5.48967 2.70742 0
M  V30 844 N 76.4834 5.87211 3.84874 0
M  V30 845 H 81.3234 2.94465 0.457639 0
M  V30 846 H 78.8604 1.45531 0.214266 0
M  V30 847 H 80.8184 2.96247 2.93758 0
M  V30 848 H 79.4484 1.86141 2.63726 0
M  V30 849 H 78.5004 3.66396 1.02264 0
M  V30 850 H 79.8124 4.74074 1.55096 0
M  V30 851 H 78.9664 4.6435 3.90466 0
M  V30 852 H 77.7054 3.47336 3.42358 0
M  V30 853 H 76.7104 5.17183 1.86551 0
M  V30 854 H 77.9354 6.3624 2.37436 0
M  V30 855 H 75.8814 5.04607 4.19175 0
M  V30 856 H 75.7984 6.66266 3.57247 0
M  V30 857 H 77.0664 6.23282 4.68123 0
M  V30 858 N 81.2955 -0.223234 1.56011 0
M  V30 859 C 82.5435 -0.946003 1.78592 0
M  V30 860 C 82.8645 -1.84936 0.618349 0
M  V30 861 O 82.1345 -1.92473 -0.364833 0
M  V30 862 H 80.7145 -0.352298 0.658707 0
M  V30 863 H 83.3765 -0.235494 1.93472 0
M  V30 864 H 82.4725 -1.55381 2.70672 0
M  V30 865 N 82.7736 -1.49793 -0.48987 0
M  V30 866 C 83.7066 -1.61898 -1.60823 0
M  V30 867 C 84.6846 -0.467651 -1.5573 0
M  V30 868 O 85.8686 -0.684682 -1.75626 0
M  V30 869 C 82.9956 -1.58422 -2.99366 0
M  V30 870 C 82.0416 -2.78889 -3.22682 0
M  V30 871 S 82.8746 -4.40429 -3.04602 0
M  V30 872 C 84.0306 -4.39617 -4.4552 0
M  V30 873 H 84.2636 -2.56502 -1.50312 0
M  V30 874 H 81.7966 -1.38822 -0.675849 0
M  V30 875 H 83.7546 -1.57103 -3.79248 0
M  V30 876 H 82.4156 -0.650866 -3.07283 0
M  V30 877 H 81.6086 -2.72708 -4.23847 0
M  V30 878 H 81.2106 -2.77678 -2.50541 0
M  V30 879 H 83.5026 -4.12022 -5.37814 0
M  V30 880 H 84.4456 -5.41097 -4.56749 0
M  V30 881 H 84.8536 -3.69554 -4.2672 0
M  V30 882 N 84.2517 0.741722 -1.39055 0
M  V30 883 C 85.5287 1.49252 -1.26425 0
M  V30 884 C 85.9087 2.10705 0.129144 0
M  V30 885 O 85.2567 1.98045 1.13976 0
M  V30 886 C 85.4667 2.54934 -2.38347 0
M  V30 887 C 86.8147 3.21506 -2.77343 0
M  V30 888 O 87.8387 2.65245 -2.37747 0
M  V30 889 O 86.6977 4.23294 -3.45665 0
M  V30 890 H 83.7917 0.662451 -0.495064 0
M  V30 891 H 86.3377 0.776121 -1.50912 0
M  V30 892 H 85.1097 2.07857 -3.31529 0
M  V30 893 H 84.7327 3.34141 -2.15489 0
M  V30 894 N 85.7298 1.2412 0.971189 0
M  V30 895 C 86.9758 1.08041 1.71625 0
M  V30 896 C 87.3088 -0.380407 1.90438 0
M  V30 897 O 86.5838 -1.28127 1.46334 0
M  V30 898 C 86.8668 1.81682 3.10908 0
M  V30 899 C 86.7198 3.35493 2.99608 0
M  V30 900 C 88.0388 1.58671 4.10501 0
M  V30 901 H 85.1578 0.39388 0.622919 0
M  V30 902 H 87.7998 1.52743 1.13003 0
M  V30 903 H 85.9498 1.43684 3.60953 0
M  V30 904 H 87.6218 3.83068 2.57015 0
M  V30 905 H 85.8648 3.64052 2.35899 0
M  V30 906 H 86.5358 3.82217 3.98264 0
M  V30 907 H 89.0118 1.91719 3.69301 0
M  V30 908 H 87.8878 2.1266 5.06031 0
M  V30 909 H 88.1488 0.524161 4.38982 0
M  V30 910 N 87.2079 -1.17134 1.05439 0
M  V30 911 C 88.1379 -2.2342 0.678649 0
M  V30 912 C 89.1189 -1.66971 -0.32476 0
M  V30 913 O 90.3039 -1.93149 -0.201802 0
M  V30 914 C 87.4339 -3.47256 0.0552099 0
M  V30 915 C 86.3879 -4.16543 0.98365 0
M  V30 916 C 85.7139 -5.34231 0.223961 0
M  V30 917 C 87.0139 -4.68495 2.3089 0
M  V30 918 H 88.7079 -2.55105 1.56722 0
M  V30 919 H 86.2539 -1.2262 0.754998 0
M  V30 920 H 88.2069 -4.20828 -0.21946 0
M  V30 921 H 86.9309 -3.14846 -0.868319 0
M  V30 922 H 85.5899 -3.44887 1.24293 0
M  V30 923 H 85.2379 -4.98071 -0.702412 0
M  V30 924 H 84.9379 -5.81527 0.842627 0
M  V30 925 H 86.4619 -6.10585 -0.0433671 0
M  V30 926 H 87.8759 -5.33691 2.09396 0
M  V30 927 H 86.2729 -5.26379 2.88176 0
M  V30 928 H 87.3429 -3.85169 2.94572 0
M  V30 929 N 88.686 -0.835752 -1.33615 0
M  V30 930 C 89.596 -0.269088 -2.33052 0
M  V30 931 C 90.612 0.603251 -1.63208 0
M  V30 932 O 91.788 0.508112 -1.94885 0
M  V30 933 C 88.853 0.549091 -3.42324 0
M  V30 934 C 87.914 -0.347156 -4.27894 0
M  V30 935 C 87.147 0.43207 -5.31948 0
M  V30 936 O 87.37 1.66409 -5.45586 0
M  V30 937 O 86.304 -0.192298 -6.01593 0
M  V30 938 H 90.13 -1.09243 -2.83372 0
M  V30 939 H 87.715 -0.598198 -1.36901 0
M  V30 940 H 89.597 1.01414 -4.09015 0
M  V30 941 H 88.272 1.34955 -2.94226 0
M  V30 942 H 87.179 -0.859979 -3.64081 0
M  V30 943 H 88.512 -1.1123 -4.79467 0
M  V30 944 N 90.1641 1.46063 -0.591896 0
M  V30 945 C 91.4111 2.02338 -0.0809991 0
M  V30 946 C 91.7391 1.46228 1.28249 0
M  V30 947 O 90.9941 0.620818 1.85592 0
M  V30 948 C 91.2931 3.57391 0.0249813 0
M  V30 949 C 90.9591 4.32583 -1.27211 0
M  V30 950 C 89.6211 4.52844 -1.62745 0
M  V30 951 C 91.9731 4.75687 -2.13005 0
M  V30 952 C 89.3011 5.13462 -2.83855 0
M  V30 953 C 91.6531 5.37644 -3.3335 0
M  V30 954 C 90.3171 5.5613 -3.69155 0
M  V30 955 H 89.5871 0.740407 -0.0296397 0
M  V30 956 H 92.2341 1.75321 -0.770374 0
M  V30 957 H 90.5391 3.83597 0.797537 0
M  V30 958 H 92.2361 3.98621 0.436184 0
M  V30 959 H 88.8261 4.17116 -0.985499 0
M  V30 960 H 93.0101 4.59782 -1.86855 0
M  V30 961 H 88.2661 5.25965 -3.11722 0
M  V30 962 H 92.4401 5.7 -4.00092 0
M  V30 963 H 90.0671 6.0287 -4.63089 0
M  V30 964 N 91.6422 0.330177 1.54103 0
M  V30 965 C 92.8902 -0.269871 2.0029 0
M  V30 966 C 93.2112 -1.52133 1.21986 0
M  V30 967 O 92.4812 -1.93212 0.323438 0
M  V30 968 H 91.0612 -0.10271 0.739905 0
M  V30 969 H 93.7232 0.448249 1.89675 0
M  V30 970 H 92.8192 -0.52166 3.07709 0
M  V30 971 N 93.1203 -1.57491 0.0584922 0
M  V30 972 C 94.3683 -1.92597 -0.612436 0
M  V30 973 C 94.6893 -0.938162 -1.70949 0
M  V30 974 O 93.9593 0.0158301 -1.95894 0
M  V30 975 H 92.5393 -0.710964 -0.229214 0
M  V30 976 H 95.2013 -1.94571 0.113218 0
M  V30 977 H 94.2973 -2.94038 -1.04633 0
M  V30 978 N 94.5984 0.214957 -1.56127 0
M  V30 979 C 95.8474 0.936451 -1.78643 0
M  V30 980 C 96.1604 1.85237 -0.628229 0
M  V30 981 O 97.3664 2.613 -0.737186 0
M  V30 982 C 95.8224 1.7154 -3.16389 0
M  V30 983 C 95.4304 0.845299 -4.39953 0
M  V30 984 C 97.1744 2.42772 -3.48227 0
M  V30 985 C 95.0814 1.62198 -5.68723 0
M  V30 986 H 94.0114 0.353401 -0.666051 0
M  V30 987 H 96.6624 0.190169 -1.82512 0
M  V30 988 H 95.0444 2.50484 -3.06715 0
M  V30 989 H 96.2184 0.0959353 -4.607 0
M  V30 990 H 94.5334 0.244789 -4.1568 0
M  V30 991 H 97.1304 3.01394 -4.41663 0
M  V30 992 H 97.4734 3.15984 -2.71035 0
M  V30 993 H 98.0064 1.70813 -3.5926 0
M  V30 994 H 94.7454 0.933011 -6.48826 0
M  V30 995 H 94.2654 2.34579 -5.52026 0
M  V30 996 H 95.9444 2.18095 -6.09133 0
M  V30 997 N 96.0765 1.50051 0.48192 0
M  V30 998 C 96.9865 1.7089 1.60728 0
M  V30 999 C 98.0025 0.591788 1.63627 0
M  V30 1000 O 99.1785 0.868817 1.81696 0
M  V30 1001 C 96.2435 1.78855 2.97005 0
M  V30 1002 C 95.3045 3.02537 3.04581 0
M  V30 1003 C 94.5375 3.10112 4.34357 0
M  V30 1004 O 94.7605 2.24765 5.24249 0
M  V30 1005 O 93.6945 4.02747 4.47301 0
M  V30 1006 H 97.5205 2.66264 1.46072 0
M  V30 1007 H 95.1055 1.34018 0.660264 0
M  V30 1008 H 96.9875 1.86336 3.77964 0
M  V30 1009 H 95.6625 0.866628 3.11883 0
M  V30 1010 H 94.5695 3.00563 2.22739 0
M  V30 1011 H 95.9025 3.94272 2.94636 0
M  V30 1012 N 97.5546 -0.734337 1.39446 0
M  V30 1013 C 98.9656 -1.31264 1.32766 0
M  V30 1014 C 99.3166 -1.96198 -0.00767497 0
M  V30 1015 O 98.4416 -1.96346 -0.909796 0
M  V30 1016 C 99.0366 -2.38682 2.4045 0
M  V30 1017 C 97.5956 -2.92184 2.37288 0
M  V30 1018 C 96.7426 -1.6576 2.22304 0
M  V30 1019 H 99.6936 -0.531799 1.49525 0
M  V30 1020 H 99.7146 -3.19087 2.07276 0
M  V30 1021 H 99.2266 -1.91392 3.37625 0
M  V30 1022 H 97.3276 -3.43752 1.43754 0
M  V30 1023 H 97.4406 -3.45253 3.3217 0
M  V30 1024 H 95.8046 -1.9012 1.69489 0
M  V30 1025 H 96.5876 -1.20521 3.21449 0
M  V30 1026 N 99.0327 -1.24633 -0.964593 0
M  V30 1027 C 99.9807 -1.03917 -2.08096 0
M  V30 1028 C 100.975 0.0268581 -1.69379 0
M  V30 1029 O 102.181 -0.127952 -1.79545 0
M  V30 1030 H 98.5557 -0.319044 -0.680966 0
M  V30 1031 H 100.527 -1.98581 -2.22729 0
M  V30 1032 C 99.2757 -0.663983 -3.41301 0
M  V30 1033 H 98.5987 -1.47605 -3.71555 0
M  V30 1034 H 100.039 -0.558663 -4.20303 0
M  V30 1035 C 98.4977 0.629169 -3.30973 0
M  V30 1036 O 99.0277 1.67404 -3.65156 0
M  V30 1037 N 97.2337 0.611057 -2.84103 0
M  V30 1038 H 96.7807 -0.239593 -2.56483 0
M  V30 1039 H 96.7387 1.47647 -2.77575 0
M  V30 1040 N 100.511 1.16574 -1.06058 0
M  V30 1041 C 101.922 1.68662 -0.800632 0
M  V30 1042 C 102.273 1.84184 0.67608 0
M  V30 1043 O 101.398 1.53568 1.52466 0
M  V30 1044 C 101.993 3.06356 -1.44676 0
M  V30 1045 C 100.552 3.55575 -1.23465 0
M  V30 1046 C 99.6988 2.31616 -1.52477 0
M  V30 1047 H 102.65 1.00969 -1.22438 0
M  V30 1048 H 102.671 3.70636 -0.860788 0
M  V30 1049 H 102.183 2.95027 -2.52152 0
M  V30 1050 H 100.284 3.72167 -0.179527 0
M  V30 1051 H 100.397 4.37812 -1.94571 0
M  V30 1052 H 98.7608 2.36512 -0.945209 0
M  V30 1053 H 99.5438 2.22887 -2.61106 0
M  V30 1054 N 101.989 0.842826 1.3317 0
M  V30 1055 C 102.952 0.284065 2.27433 0
M  V30 1056 C 103.952 -0.54948 1.5112 0
M  V30 1057 O 105.142 -0.362699 1.70382 0
M  V30 1058 C 102.274 -0.599384 3.35589 0
M  V30 1059 H 103.467 1.11589 2.78366 0
M  V30 1060 H 101.02 0.616221 1.4364 0
M  V30 1061 H 101.755 -1.45349 2.89904 0
M  V30 1062 H 101.54 -0.00291266 3.921 0
M  V30 1063 H 103.03 -0.983488 4.05854 0
M  V30 1064 N 103.467 -1.45747 0.599634 0
M  V30 1065 C 104.697 -2.06369 0.0977132 0
M  V30 1066 C 105.105 -1.44624 -1.21985 0
M  V30 1067 O 104.448 -0.551831 -1.75216 0
M  V30 1068 C 104.51 -3.59284 -0.124673 0
M  V30 1069 C 104.174 -4.43318 1.10987 0
M  V30 1070 C 105.171 -4.78796 2.02609 0
M  V30 1071 C 102.856 -4.84194 1.33647 0
M  V30 1072 C 104.85 -5.53997 3.15224 0
M  V30 1073 C 102.537 -5.5915 2.46565 0
M  V30 1074 C 103.535 -5.93968 3.37182 0
M  V30 1075 O 103.223 -6.67405 4.48136 0
M  V30 1076 H 102.955 -0.673122 0.0623153 0
M  V30 1077 H 105.509 -1.88104 0.824981 0
M  V30 1078 H 103.739 -3.75919 -0.906745 0
M  V30 1079 H 105.428 -4.01775 -0.577201 0
M  V30 1080 H 106.194 -4.47781 1.86325 0
M  V30 1081 H 102.073 -4.56534 0.64016 0
M  V30 1082 H 105.617 -5.81091 3.85978 0
M  V30 1083 H 101.514 -5.89579 2.62805 0
M  V30 1084 H 102.282 -6.85847 4.46717 0
M  V30 1085 N 104.945 -0.338344 -1.53925 0
M  V30 1086 C 105.855 0.529421 -2.28548 0
M  V30 1087 C 106.871 1.11645 -1.3346 0
M  V30 1088 O 108.047 1.13325 -1.66492 0
M  V30 1089 C 105.112 1.66713 -3.03987 0
M  V30 1090 C 104.173 1.11041 -4.14691 0
M  V30 1091 C 103.406 2.19389 -4.86522 0
M  V30 1092 O 103.629 3.40013 -4.57982 0
M  V30 1093 O 102.563 1.83976 -5.73094 0
M  V30 1094 H 106.389 -0.0770399 -3.03602 0
M  V30 1095 H 103.974 -0.103555 -1.49041 0
M  V30 1096 H 105.856 2.32918 -3.5118 0
M  V30 1097 H 104.531 2.25949 -2.31794 0
M  V30 1098 H 103.438 0.413024 -3.71813 0
M  V30 1099 H 104.771 0.562975 -4.8897 0
M  V30 1100 N 106.423 1.57458 -0.0668435 0
M  V30 1101 C 107.651 1.97624 0.612565 0
M  V30 1102 C 108.066 0.94502 1.63447 0
M  V30 1103 O 107.423 -0.0689276 1.8237 0
M  V30 1104 C 107.474 3.37869 1.28555 0
M  V30 1105 O 107.195 4.3704 0.304557 0
M  V30 1106 C 108.696 3.92882 2.05325 0
M  V30 1107 H 105.916 0.650045 0.166381 0
M  V30 1108 H 108.46 2.04035 -0.137782 0
M  V30 1109 H 106.615 3.3256 1.98702 0
M  V30 1110 H 107.029 5.18565 0.786779 0
M  V30 1111 H 108.503 4.93247 2.47812 0
M  V30 1112 H 108.98 3.29156 2.9078 0
M  V30 1113 H 109.586 4.01577 1.40056 0
M  V30 1114 N 107.901 -0.206675 1.56239 0
M  V30 1115 C 108.831 -1.25909 1.96645 0
M  V30 1116 C 109.812 -1.48097 0.836734 0
M  V30 1117 O 110.997 -1.6003 1.10019 0
M  V30 1118 C 108.127 -2.6058 2.29599 0
M  V30 1119 C 107.081 -2.53024 3.452 0
M  V30 1120 C 106.407 -3.91861 3.63798 0
M  V30 1121 C 107.707 -2.06524 4.79734 0
M  V30 1122 H 109.401 -0.923369 2.84806 0
M  V30 1123 H 106.947 -0.442735 1.37025 0
M  V30 1124 H 108.9 -3.34375 2.56459 0
M  V30 1125 H 107.624 -2.95869 1.38307 0
M  V30 1126 H 106.283 -1.81684 3.18412 0
M  V30 1127 H 105.931 -4.24483 2.69857 0
M  V30 1128 H 105.631 -3.87683 4.4156 0
M  V30 1129 H 107.155 -4.67296 3.93022 0
M  V30 1130 H 108.569 -2.70072 5.05702 0
M  V30 1131 H 106.966 -2.13374 5.60885 0
M  V30 1132 H 108.036 -1.01802 4.74093 0
M  V30 1133 N 109.379 -1.50304 -0.473955 0
M  V30 1134 C 110.312 -1.63595 -1.59097 0
M  V30 1135 C 111.29 -0.484142 -1.55225 0
M  V30 1136 O 112.474 -0.703271 -1.7489 0
M  V30 1137 C 109.601 -1.61589 -2.97669 0
M  V30 1138 C 108.647 -2.82295 -3.19705 0
M  V30 1139 S 109.48 -4.43635 -2.99913 0
M  V30 1140 C 110.636 -4.44317 -4.40832 0
M  V30 1141 H 110.869 -2.58082 -1.47583 0
M  V30 1142 H 108.402 -1.39531 -0.661087 0
M  V30 1143 H 110.36 -1.61116 -3.7756 0
M  V30 1144 H 109.021 -0.683421 -3.06575 0
M  V30 1145 H 108.214 -2.77188 -4.20931 0
M  V30 1146 H 107.816 -2.8032 -2.47582 0
M  V30 1147 H 110.108 -4.17703 -5.33414 0
M  V30 1148 H 111.051 -5.45911 -4.50984 0
M  V30 1149 H 111.459 -3.74059 -4.22777 0
M  V30 1150 N 110.857 0.726932 -1.39834 0
M  V30 1151 C 111.805 1.86235 -1.39353 0
M  V30 1152 C 112.799 1.67144 -0.275555 0
M  V30 1153 O 114.005 1.74387 -0.44601 0
M  V30 1154 H 110.38 0.613174 -0.43534 0
M  V30 1155 H 112.351 1.83756 -2.35109 0
M  V30 1156 C 111.1 3.23995 -1.26185 0
M  V30 1157 H 110.423 3.39285 -2.11484 0
M  V30 1158 H 111.863 4.03609 -1.29907 0
M  V30 1159 C 110.322 3.36888 0.0290018 0
M  V30 1160 O 110.852 3.89152 0.99619 0
M  V30 1161 N 109.058 2.90446 0.0947437 0
M  V30 1162 H 108.605 2.48102 -0.693035 0
M  V30 1163 H 108.563 2.99451 0.957932 0
M  V30 1164 N 112.336 1.25143 0.95797 0
M  V30 1165 C 113.299 1.05321 2.03569 0
M  V30 1166 C 114.299 0.007152 1.60798 0
M  V30 1167 O 115.489 0.24903 1.72411 0
M  V30 1168 C 112.621 0.598394 3.35607 0
M  V30 1169 H 113.814 2.00986 2.22586 0
M  V30 1170 H 111.367 1.07502 1.13459 0
M  V30 1171 H 112.102 -0.361014 3.22284 0
M  V30 1172 H 111.887 1.35351 3.67998 0
M  V30 1173 H 113.377 0.48104 4.1482 0
M  V30 1174 N 113.814 -1.1601 1.06675 0
M  V30 1175 C 115.06 -1.86909 0.786945 0
M  V30 1176 C 115.393 -1.81717 -0.685018 0
M  V30 1177 O 114.668 -1.23551 -1.50218 0
M  V30 1178 C 114.951 -3.36313 1.28707 0
M  V30 1179 C 114.804 -3.50175 2.82308 0
M  V30 1180 C 116.123 -4.3084 0.898071 0
M  V30 1181 H 113.242 -0.678677 0.287343 0
M  V30 1182 H 115.884 -1.36336 1.32334 0
M  V30 1183 H 114.034 -3.79513 0.830768 0
M  V30 1184 H 115.706 -3.15886 3.36175 0
M  V30 1185 H 113.949 -2.91959 3.20847 0
M  V30 1186 H 114.62 -4.55116 3.12368 0
M  V30 1187 H 117.096 -3.95561 1.29114 0
M  V30 1188 H 115.972 -5.33876 1.27543 0
M  V30 1189 H 116.233 -4.41662 -0.196651 0
M  V30 1190 N 115.292 -0.849877 -1.32721 0
M  V30 1191 C 116.239 -0.289033 -2.28983 0
M  V30 1192 C 117.209 0.601324 -1.54833 0
M  V30 1193 O 118.394 0.537253 -1.8308 0
M  V30 1194 C 115.534 0.520623 -3.4115 0
M  V30 1195 C 114.647 -0.394989 -4.3019 0
M  V30 1196 C 113.782 0.426834 -5.29482 0
M  V30 1197 C 112.821 -0.486476 -6.10164 0
M  V30 1198 N 111.958 0.297879 -7.01468 0
M  V30 1199 H 116.798 -1.11519 -2.76347 0
M  V30 1200 H 114.335 -0.56138 -1.35967 0
M  V30 1201 H 116.293 1.00563 -4.04899 0
M  V30 1202 H 114.923 1.31165 -2.9495 0
M  V30 1203 H 113.975 -0.99836 -3.67065 0
M  V30 1204 H 115.287 -1.09612 -4.86607 0
M  V30 1205 H 114.441 0.975205 -5.98811 0
M  V30 1206 H 113.18 1.16136 -4.73671 0
M  V30 1207 H 112.185 -1.04677 -5.39743 0
M  V30 1208 H 113.41 -1.21953 -6.6806 0
M  V30 1209 H 111.356 1.01558 -6.48091 0
M  V30 1210 H 111.273 -0.344318 -7.55216 0
M  V30 1211 H 112.541 0.828131 -7.75089 0
M  V30 1212 N 116.77 1.45427 -0.607355 0
M  V30 1213 C 117.7 2.3329 0.0989352 0
M  V30 1214 C 118.681 1.46816 0.859007 0
M  V30 1215 O 119.866 1.75588 0.829604 0
M  V30 1216 C 116.996 3.29518 1.09705 0
M  V30 1217 C 115.95 4.25626 0.450206 0
M  V30 1218 C 115.276 5.11542 1.55655 0
M  V30 1219 C 116.576 5.18505 -0.628455 0
M  V30 1220 H 118.27 2.92595 -0.634716 0
M  V30 1221 H 115.816 1.40696 -0.306681 0
M  V30 1222 H 117.769 3.89855 1.59971 0
M  V30 1223 H 116.493 2.68372 1.86129 0
M  V30 1224 H 115.152 3.66586 -0.0315886 0
M  V30 1225 H 114.8 4.46765 2.31107 0
M  V30 1226 H 114.5 5.76647 1.12925 0
M  V30 1227 H 116.024 5.74748 2.06148 0
M  V30 1228 H 117.438 5.72916 -0.209877 0
M  V30 1229 H 115.835 5.92085 -0.977489 0
M  V30 1230 H 116.905 4.60948 -1.50514 0
M  V30 1231 N 118.248 0.346503 1.53744 0
M  V30 1232 C 119.494 -0.249473 2.0126 0
M  V30 1233 C 119.827 -1.49965 1.23386 0
M  V30 1234 O 119.102 -1.91811 0.32229 0
M  V30 1235 C 119.385 -0.560643 3.55709 0
M  V30 1236 C 119.238 0.701836 4.44291 0
M  V30 1237 C 120.557 -1.36905 4.18264 0
M  V30 1238 H 117.676 -0.0891987 0.731582 0
M  V30 1239 H 120.318 0.467624 1.84156 0
M  V30 1240 H 118.468 -1.17156 3.70414 0
M  V30 1241 H 120.14 1.33974 4.41417 0
M  V30 1242 H 118.383 1.32612 4.13033 0
M  V30 1243 H 119.054 0.43933 5.50249 0
M  V30 1244 H 121.53 -0.852448 4.07275 0
M  V30 1245 H 120.406 -1.55553 5.26398 0
M  V30 1246 H 120.667 -2.37203 3.73078 0
M  V30 1247 N 119.726 -1.57421 0.075193 0
M  V30 1248 C 121.142 -1.57099 -0.281444 0
M  V30 1249 C 121.342 -1.08486 -1.69803 0
M  V30 1250 O 120.398 -0.752279 -2.41033 0
M  V30 1251 C 121.711 -3.00571 -0.0880041 0
M  V30 1252 C 123.259 -3.12605 -0.157281 0
M  V30 1253 C 123.734 -4.57999 0.0079207 0
M  V30 1254 N 125.225 -4.63176 -0.0475725 0
M  V30 1255 C 125.96 -5.73373 0.0557876 0
M  V30 1256 N 125.456 -6.92473 0.21286 0
M  V30 1257 N 127.249 -5.621 -0.00152098 0
M  V30 1258 H 119.4 -1.87335 1.00098 0
M  V30 1259 H 121.663 -0.86377 0.390646 0
M  V30 1260 H 121.369 -3.40262 0.889629 0
M  V30 1261 H 121.243 -3.67754 -0.838875 0
M  V30 1262 H 123.63 -2.72798 -1.1254 0
M  V30 1263 H 123.711 -2.48053 0.62475 0
M  V30 1264 H 123.355 -4.98496 0.972824 0
M  V30 1265 H 123.285 -5.20586 -0.793556 0
M  V30 1266 H 125.776 -3.7753 -0.167244 0
M  V30 1267 H 126.089 -7.72279 0.283781 0
M  V30 1268 H 124.434 -6.94556 0.248267 0
M  V30 1269 H 127.625 -4.67938 -0.122958 0
M  V30 1270 H 127.798 -6.47948 0.0824844 0
M  V30 1271 N 121.204 0.198386 -1.56346 0
M  V30 1272 C 122.114 1.2664 -1.97483 0
M  V30 1273 C 123.13 1.49989 -0.882002 0
M  V30 1274 O 124.306 1.62668 -1.18748 0
M  V30 1275 C 121.371 2.59141 -2.30319 0
M  V30 1276 C 120.432 2.43892 -3.53292 0
M  V30 1277 C 119.665 3.70074 -3.84553 0
M  V30 1278 O 119.888 4.74101 -3.1715 0
M  V30 1279 O 118.822 3.658 -4.7799 0
M  V30 1280 H 122.648 0.947304 -2.88548 0
M  V30 1281 H 120.233 0.403123 -1.43859 0
M  V30 1282 H 122.115 3.37352 -2.5253 0
M  V30 1283 H 120.79 2.90684 -1.42423 0
M  V30 1284 H 119.697 1.63803 -3.36332 0
M  V30 1285 H 121.03 2.17282 -4.41644 0
M  V30 1286 N 122.682 1.50554 0.465978 0
M  V30 1287 C 123.614 1.65949 1.58093 0
M  V30 1288 C 124.627 0.540827 1.53554 0
M  V30 1289 O 125.816 0.814187 1.5885 0
M  V30 1290 C 122.916 1.63261 2.96983 0
M  V30 1291 C 122.089 2.91245 3.26336 0
M  V30 1292 C 121.148 2.8113 4.44806 0
M  V30 1293 O 120.174 3.55086 4.44862 0
M  V30 1294 N 121.376 1.95032 5.46756 0
M  V30 1295 H 124.141 2.62122 1.45301 0
M  V30 1296 H 121.702 1.48082 0.65448 0
M  V30 1297 H 123.694 1.54101 3.74212 0
M  V30 1298 H 122.264 0.748032 3.03518 0
M  V30 1299 H 121.484 3.14493 2.37672 0
M  V30 1300 H 122.772 3.76022 3.42761 0
M  V30 1301 H 122.17 1.3427 5.49534 0
M  V30 1302 H 120.727 1.91772 6.2295 0
M  V30 1303 N 124.16 -0.719506 1.40217 0
M  V30 1304 C 125.107 -1.83359 1.40172 0
M  V30 1305 C 126.077 -1.64065 0.259206 0
M  V30 1306 O 127.262 -1.85254 0.456677 0
M  V30 1307 C 124.402 -3.2103 1.26624 0
M  V30 1308 C 123.515 -3.51923 2.50548 0
M  V30 1309 C 122.65 -4.79079 2.29471 0
M  V30 1310 C 121.689 -5.02863 3.48992 0
M  V30 1311 N 120.826 -6.2123 3.27135 0
M  V30 1312 H 125.666 -1.82733 2.35399 0
M  V30 1313 H 123.203 -0.892688 1.16917 0
M  V30 1314 H 125.161 -4.00524 1.16776 0
M  V30 1315 H 123.791 -3.20895 0.350176 0
M  V30 1316 H 122.843 -2.67014 2.70939 0
M  V30 1317 H 124.155 -3.6541 3.39525 0
M  V30 1318 H 123.309 -5.66582 2.16955 0
M  V30 1319 H 122.048 -4.67794 1.37913 0
M  V30 1320 H 121.053 -4.13816 3.6199 0
M  V30 1321 H 122.278 -5.16023 4.41472 0
M  V30 1322 H 120.224 -6.11204 2.38256 0
M  V30 1323 H 120.141 -6.35375 4.09675 0
M  V30 1324 H 121.409 -7.11532 3.18344 0
M  V30 1325 N 125.638 -1.25649 -0.95132 0
M  V30 1326 C 126.884 -1.10757 -1.69884 0
M  V30 1327 C 127.217 0.350061 -1.91019 0
M  V30 1328 O 126.492 1.25783 -1.48354 0
M  V30 1329 C 126.775 -1.86606 -3.07978 0
M  V30 1330 C 126.628 -3.40217 -2.94232 0
M  V30 1331 C 127.947 -1.65182 -4.07925 0
M  V30 1332 H 125.066 -0.40374 -0.616574 0
M  V30 1333 H 127.708 -1.54521 -1.10558 0
M  V30 1334 H 125.858 -1.49409 -3.58621 0
M  V30 1335 H 127.53 -3.87108 -2.50889 0
M  V30 1336 H 125.773 -3.67759 -2.30078 0
M  V30 1337 H 126.444 -3.88505 -3.92133 0
M  V30 1338 H 128.92 -1.9757 -3.66204 0
M  V30 1339 H 127.796 -2.20683 -5.02583 0
M  V30 1340 H 128.057 -0.593933 -4.38092 0
M  V30 1341 N 127.117 1.15442 -1.07289 0
M  V30 1342 C 128.345 1.90096 -0.81676 0
M  V30 1343 C 128.76 1.7798 0.629966 0
M  V30 1344 O 128.117 1.1313 1.43206 0
M  V30 1345 C 128.168 3.40466 -1.21512 0
M  V30 1346 O 127.889 3.52232 -2.60508 0
M  V30 1347 C 129.39 4.32145 -0.988198 0
M  V30 1348 H 126.61 0.602495 -0.295366 0
M  V30 1349 H 129.154 1.4627 -1.42918 0
M  V30 1350 H 127.309 3.81958 -0.647039 0
M  V30 1351 H 127.723 4.45549 -2.76742 0
M  V30 1352 H 129.197 5.36072 -1.31645 0
M  V30 1353 H 129.674 4.39135 0.0755063 0
M  V30 1354 H 130.28 3.96395 -1.54115 0
M  V30 1355 N 128.595 0.856903 1.32268 0
M  V30 1356 C 129.842 0.461386 1.97174 0
M  V30 1357 C 130.17 -0.983491 1.67803 0
M  V30 1358 O 129.425 -1.70541 0.959903 0
M  V30 1359 C 129.724 0.649919 3.51441 0
M  V30 1360 C 129.39 2.0656 4.00804 0
M  V30 1361 C 128.052 2.45279 4.13995 0
M  V30 1362 C 130.404 2.98947 4.26943 0
M  V30 1363 C 127.732 3.75653 4.50668 0
M  V30 1364 C 130.084 4.28822 4.65075 0
M  V30 1365 C 128.748 4.67472 4.76472 0
M  V30 1366 H 128.018 0.168833 0.72151 0
M  V30 1367 H 130.665 1.08739 1.57633 0
M  V30 1368 H 128.97 -0.0593018 3.91755 0
M  V30 1369 H 130.667 0.32391 3.9969 0
M  V30 1370 H 127.257 1.75495 3.91024 0
M  V30 1371 H 131.441 2.70265 4.16258 0
M  V30 1372 H 126.697 4.05379 4.57688 0
M  V30 1373 H 130.871 5.0047 4.84255 0
M  V30 1374 H 128.498 5.68539 5.04646 0
M  V30 1375 N 130.073 -1.45103 0.615059 0
M  V30 1376 C 131.003 -2.33339 -0.0865619 0
M  V30 1377 C 131.984 -1.4727 -0.851209 0
M  V30 1378 O 133.169 -1.76026 -0.820281 0
M  V30 1379 C 130.299 -3.30095 -1.07956 0
M  V30 1380 C 129.253 -4.25858 -0.427628 0
M  V30 1381 C 128.579 -5.12361 -1.5294 0
M  V30 1382 C 129.879 -5.18165 0.655944 0
M  V30 1383 H 131.573 -2.92254 0.650224 0
M  V30 1384 H 129.119 -1.40532 0.314138 0
M  V30 1385 H 131.072 -3.90698 -1.57901 0
M  V30 1386 H 129.796 -2.69355 -1.84703 0
M  V30 1387 H 128.455 -3.66564 0.0510292 0
M  V30 1388 H 128.103 -4.47984 -2.28734 0
M  V30 1389 H 127.803 -5.77238 -1.09865 0
M  V30 1390 H 129.327 -5.75833 -2.03098 0
M  V30 1391 H 130.741 -5.72796 0.240257 0
M  V30 1392 H 129.138 -5.91559 1.00888 0
M  V30 1393 H 130.208 -4.60144 1.52957 0
M  V30 1394 N 131.551 -0.354651 -1.53558 0
M  V30 1395 C 132.481 0.489091 -2.2832 0
M  V30 1396 C 133.462 1.09324 -1.30316 0
M  V30 1397 O 134.647 1.11255 -1.59173 0
M  V30 1398 C 131.777 1.63456 -3.0643 0
M  V30 1399 C 130.731 1.1582 -4.12031 0
M  V30 1400 C 130.057 2.39305 -4.7816 0
M  V30 1401 C 131.357 0.250731 -5.21698 0
M  V30 1402 H 133.051 -0.134614 -2.99097 0
M  V30 1403 H 130.597 -0.0661826 -1.43848 0
M  V30 1404 H 132.55 2.23136 -3.57475 0
M  V30 1405 H 131.274 2.28533 -2.33325 0
M  V30 1406 H 129.933 0.584146 -3.61916 0
M  V30 1407 H 129.581 3.02814 -4.01637 0
M  V30 1408 H 129.281 2.08109 -5.49513 0
M  V30 1409 H 130.805 2.99691 -5.31994 0
M  V30 1410 H 132.219 0.754695 -5.68311 0
M  V30 1411 H 130.616 0.0301468 -6.00092 0
M  V30 1412 H 131.686 -0.710125 -4.79672 0
M  V30 1413 N 133.029 1.57378 -0.0835403 0
M  V30 1414 C 133.992 2.12252 0.864959 0
M  V30 1415 C 134.992 1.04916 1.21858 0
M  V30 1416 O 136.182 1.30853 1.14991 0
M  V30 1417 C 133.314 2.63358 2.16461 0
M  V30 1418 H 134.507 2.97371 0.388676 0
M  V30 1419 H 132.06 1.55423 0.165317 0
M  V30 1420 H 132.795 1.81727 2.686 0
M  V30 1421 H 132.58 3.41826 1.92087 0
M  V30 1422 H 134.07 3.05847 2.84337 0
M  V30 1423 N 134.507 -0.190092 1.56449 0
M  V30 1424 C 135.753 -0.911052 1.81184 0
M  V30 1425 C 136.086 -1.82699 0.658396 0
M  V30 1426 O 135.361 -1.91491 -0.340775 0
M  V30 1427 C 135.644 -1.72297 3.16205 0
M  V30 1428 C 135.497 -0.831419 4.42049 0
M  V30 1429 C 136.816 -2.69454 3.47969 0
M  V30 1430 H 133.935 -0.32977 0.659106 0
M  V30 1431 H 136.577 -0.178169 1.89163 0
M  V30 1432 H 134.727 -2.34778 3.09534 0
M  V30 1433 H 136.399 -0.220929 4.60771 0
M  V30 1434 H 134.642 -0.138406 4.33579 0
M  V30 1435 H 135.313 -1.43461 5.33032 0
M  V30 1436 H 137.789 -2.17104 3.54972 0
M  V30 1437 H 136.665 -3.23342 4.43555 0
M  V30 1438 H 136.926 -3.48744 2.71717 0
M  V30 1439 N 135.985 -1.50799 -0.457987 0
M  V30 1440 C 137.233 -1.62121 -1.2067 0
M  V30 1441 C 137.554 -0.329793 -1.92191 0
M  V30 1442 O 136.824 0.653409 -1.84682 0
M  V30 1443 H 135.404 -0.597441 -0.448411 0
M  V30 1444 H 138.066 -1.87637 -0.527096 0
M  V30 1445 H 137.162 -2.43882 -1.94751 0
M  V30 1446 N 137.463 0.71206 -1.40597 0
M  V30 1447 C 138.711 1.46907 -1.38791 0
M  V30 1448 C 139.032 1.94998 0.00780391 0
M  V30 1449 O 138.302 1.70587 0.963174 0
M  V30 1450 H 136.882 0.545043 -0.51082 0
M  V30 1451 H 139.544 0.843882 -1.75683 0
M  V30 1452 H 138.64 2.34021 -2.06496 0
M  V30 1453 N 138.941 1.26152 0.944643 0
M  V30 1454 C 140.189 1.11271 1.6871 0
M  V30 1455 C 140.51 -0.345166 1.91921 0
M  V30 1456 O 139.78 -1.24387 1.51343 0
M  V30 1457 H 138.36 0.408783 0.625224 0
M  V30 1458 H 141.022 1.58427 1.1352 0
M  V30 1459 H 140.118 1.62879 2.66227 0
M  V30 1460 N 140.419 -1.14872 1.07899 0
M  V30 1461 C 141.644 -1.90202 0.826926 0
M  V30 1462 C 142.069 -1.77774 -0.614664 0
M  V30 1463 O 141.427 -1.11431 -1.43013 0
M  V30 1464 C 141.475 -3.38352 1.24702 0
M  V30 1465 O 140.579 -4.10497 0.39575 0
M  V30 1466 H 139.92 -0.591968 0.300782 0
M  V30 1467 H 142.45 -1.45437 1.43907 0
M  V30 1468 H 142.46 -3.89156 1.22563 0
M  V30 1469 H 141.135 -3.46715 2.29698 0
M  V30 1470 H 139.712 -3.69796 0.480117 0
M  V30 1471 N 141.898 -0.863906 -1.31812 0
M  V30 1472 C 143.144 -0.472535 -1.97218 0
M  V30 1473 C 143.477 0.971394 -1.68159 0
M  V30 1474 O 142.752 1.68309 -0.974798 0
M  V30 1475 C 143.035 -0.723054 -3.52766 0
M  V30 1476 C 142.888 -2.21608 -3.91421 0
M  V30 1477 C 144.207 -0.185522 -4.39709 0
M  V30 1478 H 141.326 -0.173158 -0.71637 0
M  V30 1479 H 143.968 -1.08403 -1.56041 0
M  V30 1480 H 142.118 -0.202577 -3.87971 0
M  V30 1481 H 143.79 -2.80334 -3.66347 0
M  V30 1482 H 142.033 -2.691 -3.40246 0
M  V30 1483 H 142.704 -2.34203 -4.99853 0
M  V30 1484 H 145.18 -0.630726 -4.11292 0
M  V30 1485 H 144.056 -0.390306 -5.47511 0
M  V30 1486 H 144.317 0.912229 -4.32586 0
M  V30 1487 N 143.376 1.44774 -0.622745 0
M  V30 1488 C 144.306 2.33382 0.0741861 0
M  V30 1489 C 145.287 1.47719 0.843387 0
M  V30 1490 O 146.472 1.76458 0.810934 0
M  V30 1491 C 143.602 3.30663 1.06204 0
M  V30 1492 C 142.556 4.26079 0.405037 0
M  V30 1493 C 141.882 5.13165 1.5022 0
M  V30 1494 C 143.182 5.1781 -0.683414 0
M  V30 1495 H 144.876 2.91905 -0.665713 0
M  V30 1496 H 142.422 1.40363 -0.321587 0
M  V30 1497 H 144.375 3.9153 1.55827 0
M  V30 1498 H 143.099 2.70331 1.83272 0
M  V30 1499 H 141.758 3.66532 -0.0704683 0
M  V30 1500 H 141.406 4.49191 2.26355 0
M  V30 1501 H 141.106 5.77812 1.06803 0
M  V30 1502 H 142.63 5.76902 2.00041 0
M  V30 1503 H 144.044 5.72661 -0.270631 0
M  V30 1504 H 142.441 5.91015 -1.04023 0
M  V30 1505 H 143.511 4.59326 -1.55395 0
M  V30 1506 N 144.854 0.36279 1.53368 0
M  V30 1507 C 146.131 -0.284021 1.93527 0
M  V30 1508 C 146.511 -1.66628 1.29608 0
M  V30 1509 O 145.859 -2.23942 0.45413 0
M  V30 1510 C 146.069 -0.337028 3.47369 0
M  V30 1511 C 147.417 -0.578708 4.20638 0
M  V30 1512 O 148.441 -0.418352 3.53735 0
M  V30 1513 O 147.3 -0.89074 5.39192 0
M  V30 1514 H 144.394 -0.169743 0.809393 0
M  V30 1515 H 146.94 0.41537 1.64538 0
M  V30 1516 H 145.712 0.632217 3.86159 0
M  V30 1517 H 145.335 -1.08243 3.82582 0
M  V30 1518 N 146.332 -1.57332 0.0918853 0
M  V30 1519 C 147.58 -1.93853 -0.571446 0
M  V30 1520 C 147.901 -0.974212 -1.6892 0
M  V30 1521 O 147.171 -0.0257254 -1.95883 0
M  V30 1522 H 145.751 -0.715666 -0.214082 0
M  V30 1523 H 148.413 -1.94287 0.154464 0
M  V30 1524 H 147.509 -2.96191 -0.983729 0
M  V30 1525 N 147.81 0.181792 -1.56548 0
M  V30 1526 C 149.038 0.915947 -1.85521 0
M  V30 1527 C 149.453 1.76282 -0.676016 0
M  V30 1528 O 148.81 1.79012 0.355077 0
M  V30 1529 C 148.861 1.80126 -3.13427 0
M  V30 1530 O 148.582 0.988562 -4.26801 0
M  V30 1531 C 150.083 2.64597 -3.55673 0
M  V30 1532 H 147.303 0.26661 -0.61576 0
M  V30 1533 H 149.847 0.185039 -2.03661 0
M  V30 1534 H 148.002 2.48563 -2.97145 0
M  V30 1535 H 148.416 1.59308 -4.99721 0
M  V30 1536 H 149.89 3.2235 -4.48101 0
M  V30 1537 H 150.367 3.38958 -2.79292 0
M  V30 1538 H 150.973 2.0151 -3.74532 0
M  V30 1539 N 149.288 1.51039 0.449983 0
M  V30 1540 C 150.235 1.71439 1.54523 0
M  V30 1541 C 151.205 0.555871 1.56522 0
M  V30 1542 O 152.39 0.788871 1.73728 0
M  V30 1543 C 149.53 1.83384 2.92343 0
M  V30 1544 C 148.643 3.10873 2.9997 0
M  V30 1545 C 147.778 3.13488 4.28834 0
M  V30 1546 C 146.817 4.35343 4.30282 0
M  V30 1547 N 145.954 4.35579 5.5065 0
M  V30 1548 H 150.794 2.64934 1.36433 0
M  V30 1549 H 148.331 1.31312 0.662982 0
M  V30 1550 H 150.289 1.88291 3.72293 0
M  V30 1551 H 148.919 0.933086 3.0902 0
M  V30 1552 H 147.971 3.15336 2.12761 0
M  V30 1553 H 149.283 4.00814 2.96901 0
M  V30 1554 H 148.437 3.17241 5.17149 0
M  V30 1555 H 147.176 2.21414 4.34543 0
M  V30 1556 H 146.181 4.3178 3.40362 0
M  V30 1557 H 147.406 5.28668 4.26248 0
M  V30 1558 H 145.352 3.46369 5.57104 0
M  V30 1559 H 145.269 5.19313 5.49409 0
M  V30 1560 H 146.537 4.43507 6.41032 0
M  V30 1561 N 150.766 -0.704594 1.40972 0
M  V30 1562 C 152.013 -1.46458 1.39844 0
M  V30 1563 C 152.341 -1.94499 0.00447594 0
M  V30 1564 O 151.596 -1.69275 -0.982057 0
M  V30 1565 C 151.895 -2.698 2.34399 0
M  V30 1566 C 151.561 -2.40464 3.81429 0
M  V30 1567 C 150.223 -2.32174 4.21484 0
M  V30 1568 C 152.575 -2.16086 4.74296 0
M  V30 1569 C 149.903 -1.97589 5.52427 0
M  V30 1570 C 152.255 -1.83011 6.05549 0
M  V30 1571 C 150.919 -1.7321 6.44635 0
M  V30 1572 H 150.189 -0.535927 0.511725 0
M  V30 1573 H 152.836 -0.806124 1.73706 0
M  V30 1574 H 151.141 -3.40536 1.93759 0
M  V30 1575 H 152.838 -3.27919 2.30804 0
M  V30 1576 H 149.428 -2.47808 3.49699 0
M  V30 1577 H 153.612 -2.2144 4.4416 0
M  V30 1578 H 148.868 -1.88547 5.81601 0
M  V30 1579 H 153.042 -1.63164 6.77016 0
M  V30 1580 H 150.669 -1.46179 7.46013 0
M  V30 1581 N 152.244 -1.26651 -0.937939 0
M  V30 1582 C 153.493 -1.11775 -1.67897 0
M  V30 1583 C 153.806 0.33794 -1.92659 0
M  V30 1584 O 155.012 0.607434 -2.64618 0
M  V30 1585 C 153.468 -1.9523 -3.02346 0
M  V30 1586 C 153.076 -3.45393 -2.8532 0
M  V30 1587 C 154.82 -1.88972 -3.80118 0
M  V30 1588 C 152.727 -4.21083 -4.15263 0
M  V30 1589 H 151.657 -0.414696 -0.629717 0
M  V30 1590 H 154.308 -1.50988 -1.04283 0
M  V30 1591 H 152.69 -1.48853 -3.66959 0
M  V30 1592 H 153.864 -3.99561 -2.29537 0
M  V30 1593 H 152.179 -3.52921 -2.20988 0
M  V30 1594 H 154.776 -2.42805 -4.76392 0
M  V30 1595 H 155.119 -0.86113 -4.07296 0
M  V30 1596 H 155.652 -2.33189 -3.22285 0
M  V30 1597 H 152.391 -5.24425 -3.93267 0
M  V30 1598 H 151.911 -3.71695 -4.70747 0
M  V30 1599 H 153.59 -4.29706 -4.83696 0
M  V30 1600 N 153.722 1.14298 -1.08507 0
M  V30 1601 C 154.685 2.17607 -0.719711 0
M  V30 1602 C 155.685 1.58907 0.245997 0
M  V30 1603 O 156.875 1.74181 0.0254081 0
M  V30 1604 C 154.007 3.40842 -0.0627695 0
M  V30 1605 H 155.2 2.51443 -1.63452 0
M  V30 1606 H 152.753 1.28963 -0.88307 0
M  V30 1607 H 153.488 3.12587 0.863716 0
M  V30 1608 H 153.273 3.84713 -0.757504 0
M  V30 1609 H 154.763 4.17221 0.177786 0
M  V30 1610 N 155.201 0.870884 1.31352 0
M  V30 1611 C 156.164 0.332243 2.26779 0
M  V30 1612 C 157.164 -0.517302 1.52252 0
M  V30 1613 O 158.354 -0.326477 1.71113 0
M  V30 1614 C 155.486 -0.528066 3.36785 0
M  V30 1615 H 156.679 1.17469 2.75937 0
M  V30 1616 H 154.232 0.64655 1.423 0
M  V30 1617 H 154.967 -1.39167 2.92922 0
M  V30 1618 H 154.752 0.0802582 3.92018 0
M  V30 1619 H 156.242 -0.897179 4.07849 0
M  V30 1620 N 156.679 -1.44442 0.630414 0
M  V30 1621 C 157.642 -2.29107 -0.0652523 0
M  V30 1622 C 158.642 -1.41002 -0.772995 0
M  V30 1623 O 159.832 -1.62881 -0.617692 0
M  V30 1624 C 156.964 -3.22564 -1.10296 0
M  V30 1625 H 158.157 -2.92103 0.679401 0
M  V30 1626 H 155.71 -1.51343 0.390517 0
M  V30 1627 H 156.445 -2.64416 -1.87762 0
M  V30 1628 H 156.23 -3.87491 -0.59941 0
M  V30 1629 H 157.72 -3.86167 -1.5895 0
M  V30 1630 N 158.157 -0.370918 -1.53173 0
M  V30 1631 C 159.12 0.460778 -2.24521 0
M  V30 1632 C 160.12 1.00536 -1.25496 0
M  V30 1633 O 161.31 0.890266 -1.49733 0
M  V30 1634 C 158.442 1.64457 -2.98608 0
M  V30 1635 H 159.635 -0.163613 -2.99453 0
M  V30 1636 H 157.188 -0.122699 -1.55818 0
M  V30 1637 H 157.923 2.30691 -2.2793 0
M  V30 1638 H 157.708 1.26099 -3.7127 0
M  V30 1639 H 159.198 2.23384 -3.5283 0
M  V30 1640 N 159.635 1.57281 -0.100228 0
M  V30 1641 C 160.583 2.15542 0.874328 0
M  V30 1642 C 161.577 1.09962 1.28859 0
M  V30 1643 O 162.783 1.28298 1.26252 0
M  V30 1644 H 159.158 0.689567 0.300003 0
M  V30 1645 H 161.129 2.96241 0.35829 0
M  V30 1646 C 159.878 2.75454 2.1218 0
M  V30 1647 H 159.201 3.56384 1.81193 0
M  V30 1648 H 160.641 3.19781 2.78417 0
M  V30 1649 C 159.1 1.71602 2.89921 0
M  V30 1650 O 159.63 1.15804 3.84646 0
M  V30 1651 N 157.836 1.41975 2.53558 0
M  V30 1652 H 157.383 1.87539 1.76598 0
M  V30 1653 H 157.341 0.727274 3.05873 0
M  V30 1654 N 161.113 -0.173488 1.56642 0
M  V30 1655 C 162.343 -0.904781 1.85734 0
M  V30 1656 C 162.751 -1.76431 0.68328 0
M  V30 1657 O 162.094 -1.802 -0.356865 0
M  V30 1658 C 162.156 -1.83382 3.09211 0
M  V30 1659 C 161.82 -1.15411 4.42187 0
M  V30 1660 C 162.817 -0.520609 5.17287 0
M  V30 1661 C 160.502 -1.15151 4.88923 0
M  V30 1662 C 162.496 0.106412 6.37311 0
M  V30 1663 C 160.183 -0.520664 6.08878 0
M  V30 1664 C 161.181 0.107196 6.82916 0
M  V30 1665 O 160.869 0.728102 8.00596 0
M  V30 1666 H 160.601 -0.268408 0.62043 0
M  V30 1667 H 163.155 -0.179096 2.04618 0
M  V30 1668 H 161.385 -2.59976 2.86268 0
M  V30 1669 H 163.074 -2.43476 3.24768 0
M  V30 1670 H 163.84 -0.514606 4.82262 0
M  V30 1671 H 159.719 -1.62961 4.31236 0
M  V30 1672 H 163.263 0.597081 6.9504 0
M  V30 1673 H 159.16 -0.524242 6.43368 0
M  V30 1674 H 159.928 0.627138 8.16094 0
M  V30 1675 N 162.591 -1.51276 -0.441967 0
M  V30 1676 C 164.002 -1.56244 -1.02199 0
M  V30 1677 C 164.353 -0.383149 -1.92422 0
M  V30 1678 O 163.478 0.500613 -2.1053 0
M  V30 1679 C 164.073 -2.83162 -1.86024 0
M  V30 1680 C 162.632 -2.90716 -2.39084 0
M  V30 1681 C 161.779 -2.50858 -1.18175 0
M  V30 1682 H 164.73 -1.5712 -0.223416 0
M  V30 1683 H 164.751 -2.66663 -2.71425 0
M  V30 1684 H 164.263 -3.68974 -1.20331 0
M  V30 1685 H 162.364 -2.09323 -3.08244 0
M  V30 1686 H 162.477 -3.94266 -2.72198 0
M  V30 1687 H 160.841 -2.03951 -1.52565 0
M  V30 1688 H 161.624 -3.3901 -0.541001 0
M  V30 1689 N 164.069 0.697108 -1.41344 0
M  V30 1690 C 164.979 1.84088 -1.45427 0
M  V30 1691 C 165.995 1.70545 -0.34501 0
M  V30 1692 O 167.171 1.92488 -0.592492 0
M  V30 1693 C 164.236 3.20056 -1.33286 0
M  V30 1694 C 163.297 3.45718 -2.54514 0
M  V30 1695 C 162.53 4.75199 -2.42944 0
M  V30 1696 O 162.753 5.51579 -1.45318 0
M  V30 1697 O 161.687 5.0161 -3.32672 0
M  V30 1698 H 165.513 1.836 -2.41919 0
M  V30 1699 H 163.098 0.849966 -1.22866 0
M  V30 1700 H 164.98 4.01236 -1.28794 0
M  V30 1701 H 163.655 3.2123 -0.39909 0
M  V30 1702 H 162.562 2.64474 -2.64583 0
M  V30 1703 H 163.895 3.49356 -3.46715 0
M  V30 1704 N 165.547 1.27147 0.931209 0
M  V30 1705 C 166.495 1.09398 2.05268 0
M  V30 1706 C 167.489 0.0180591 1.6939 0
M  V30 1707 O 168.695 0.17551 1.79142 0
M  V30 1708 H 165.07 0.336986 0.672268 0
M  V30 1709 H 167.041 2.04416 2.17386 0
M  V30 1710 C 165.79 0.75424 3.39421 0
M  V30 1711 H 165.113 1.57404 3.67511 0
M  V30 1712 H 166.553 0.669903 4.18674 0
M  V30 1713 C 165.012 -0.541197 3.32525 0
M  V30 1714 O 165.542 -1.57664 3.69466 0
M  V30 1715 N 163.748 -0.535517 2.85623 0
M  V30 1716 H 163.295 0.307511 2.55758 0
M  V30 1717 H 163.253 -1.40236 2.81392 0
M  V30 1718 N 167.025 -1.13721 1.09112 0
M  V30 1719 C 168.274 -1.84275 0.82009 0
M  V30 1720 C 168.587 -1.84253 -0.656509 0
M  V30 1721 O 169.793 -2.50668 -1.04296 0
M  V30 1722 C 168.249 -3.30825 1.41714 0
M  V30 1723 C 167.857 -3.39244 2.92605 0
M  V30 1724 C 169.601 -4.06443 1.22492 0
M  V30 1725 C 167.508 -4.80047 3.45411 0
M  V30 1726 H 166.438 -0.690387 0.30312 0
M  V30 1727 H 169.089 -1.28146 1.31343 0
M  V30 1728 H 167.471 -3.86737 0.851498 0
M  V30 1729 H 168.645 -2.93344 3.55367 0
M  V30 1730 H 166.96 -2.77088 3.10823 0
M  V30 1731 H 169.557 -5.10387 1.59402 0
M  V30 1732 H 169.9 -4.15972 0.165299 0
M  V30 1733 H 170.433 -3.56852 1.75788 0
M  V30 1734 H 167.172 -4.75709 4.50978 0
M  V30 1735 H 166.692 -5.26455 2.87411 0
M  V30 1736 H 168.371 -5.48957 3.42425 0
M  V30 1737 N 168.503 -0.877838 -1.30888 0
M  V30 1738 C 169.78 -0.413052 -1.91189 0
M  V30 1739 C 170.16 1.1056 -1.79832 0
M  V30 1740 O 169.508 1.93771 -1.21099 0
M  V30 1741 C 169.718 -0.903191 -3.3711 0
M  V30 1742 C 171.066 -0.93395 -4.14201 0
M  V30 1743 O 172.09 -0.849373 -3.45925 0
M  V30 1744 O 170.949 -1.05772 -5.36167 0
M  V30 1745 H 168.043 -0.125035 -0.817493 0
M  V30 1746 H 170.589 -0.966269 -1.39504 0
M  V30 1747 H 169.361 -1.94692 -3.39427 0
M  V30 1748 H 168.984 -0.328732 -3.96239 0
M  V30 1749 N 169.982 1.44106 -0.638065 0
M  V30 1750 C 171.393 1.85316 -0.226894 0
M  V30 1751 C 171.744 1.53399 1.22324 0
M  V30 1752 O 170.869 0.975463 1.93167 0
M  V30 1753 C 171.464 3.3637 -0.405013 0
M  V30 1754 C 170.023 3.76369 -0.0482902 0
M  V30 1755 C 169.17 2.67921 -0.715108 0
M  V30 1756 H 172.121 1.34474 -0.842764 0
M  V30 1757 H 172.142 3.7885 0.354 0
M  V30 1758 H 171.654 3.59569 -1.46053 0
M  V30 1759 H 169.755 3.58784 1.00522 0
M  V30 1760 H 169.868 4.76856 -0.463187 0
M  V30 1761 H 168.232 2.54259 -0.149753 0
M  V30 1762 H 169.015 2.93951 -1.77335 0
M  V30 1763 N 171.46 0.379036 1.52974 0
M  V30 1764 C 172.706 -0.199244 2.02422 0
M  V30 1765 C 173.061 -1.4532 1.26095 0
M  V30 1766 O 172.354 -1.88377 0.34996 0
M  V30 1767 C 172.548 -0.53096 3.53434 0
M  V30 1768 C 172.377 0.689298 4.44386 0
M  V30 1769 C 171.147 1.20546 4.9071 0
M  V30 1770 C 173.345 1.55856 4.90116 0
M  V30 1771 N 171.327 2.38434 5.65705 0
M  V30 1772 C 172.698 2.58396 5.63588 0
M  V30 1773 C 174.753 1.57986 4.7217 0
M  V30 1774 C 173.456 3.62939 6.21022 0
M  V30 1775 C 175.482 2.6143 5.30479 0
M  V30 1776 C 174.844 3.62693 6.03849 0
M  V30 1777 H 170.943 -0.0352671 0.781204 0
M  V30 1778 H 173.527 0.526614 1.87443 0
M  V30 1779 H 171.698 -1.22588 3.68547 0
M  V30 1780 H 173.43 -1.0955 3.89591 0
M  V30 1781 H 170.185 0.768022 4.67331 0
M  V30 1782 H 170.609 2.98055 6.07859 0
M  V30 1783 H 175.251 0.810475 4.14959 0
M  V30 1784 H 172.969 4.40751 6.77321 0
M  V30 1785 H 176.555 2.63949 5.18481 0
M  V30 1786 H 175.435 4.41424 6.48163 0
M  V30 1787 N 172.938 -1.57226 0.108567 0
M  V30 1788 C 173.888 -2.11305 -0.856396 0
M  V30 1789 C 174.872 -1.03129 -1.23504 0
M  V30 1790 O 176.064 -1.29381 -1.20787 0
M  V30 1791 C 173.193 -2.70771 -2.11041 0
M  V30 1792 C 172.279 -3.86011 -1.7566 0
M  V30 1793 N 172.67 -4.93492 -1.10902 0
M  V30 1794 C 170.968 -3.95999 -2.05185 0
M  V30 1795 C 171.669 -5.73984 -0.944308 0
M  V30 1796 N 170.645 -5.2346 -1.46596 0
M  V30 1797 H 174.447 -2.91784 -0.352002 0
M  V30 1798 H 171.961 -1.62126 -0.0942324 0
M  V30 1799 H 173.958 -3.07851 -2.81128 0
M  V30 1800 H 172.618 -1.91751 -2.62034 0
M  V30 1801 H 173.629 -5.1208 -0.774235 0
M  V30 1802 H 170.306 -3.28007 -2.58298 0
M  V30 1803 H 171.696 -6.70479 -0.436813 0
M  V30 1804 N 174.416 0.165178 -1.56732 0
M  V30 1805 C 175.665 0.879143 -1.81532 0
M  V30 1806 C 175.978 1.83144 -0.686842 0
M  V30 1807 O 177.184 2.58823 -0.819944 0
M  V30 1808 C 175.64 1.61388 -3.21686 0
M  V30 1809 C 175.248 0.704904 -4.4242 0
M  V30 1810 C 176.992 2.3157 -3.55774 0
M  V30 1811 C 174.899 1.44022 -5.73595 0
M  V30 1812 H 173.829 0.332033 -0.676957 0
M  V30 1813 H 176.48 0.132008 -1.83025 0
M  V30 1814 H 174.862 2.40599 -3.14529 0
M  V30 1815 H 176.036 -0.0506815 -4.60772 0
M  V30 1816 H 174.351 0.112419 -4.16248 0
M  V30 1817 H 176.948 2.8719 -4.51028 0
M  V30 1818 H 177.291 3.07201 -2.8095 0
M  V30 1819 H 177.824 1.59297 -3.64513 0
M  V30 1820 H 174.563 0.72612 -6.51466 0
M  V30 1821 H 174.083 2.16898 -5.5921 0
M  V30 1822 H 175.762 1.98606 -6.15764 0
M  V30 1823 N 175.894 1.51508 0.433938 0
M  V30 1824 C 176.824 1.76016 1.53429 0
M  V30 1825 C 177.805 0.610112 1.58782 0
M  V30 1826 O 178.99 0.853177 1.74455 0
M  V30 1827 C 176.12 1.88831 2.9148 0
M  V30 1828 C 175.074 3.04288 3.00987 0
M  V30 1829 C 174.4 3.0229 4.4105 0
M  V30 1830 C 175.7 4.44193 2.74754 0
M  V30 1831 H 177.394 2.68152 1.33171 0
M  V30 1832 H 174.94 1.29035 0.639214 0
M  V30 1833 H 176.893 2.04559 3.6842 0
M  V30 1834 H 175.617 0.933455 3.12976 0
M  V30 1835 H 174.276 2.8827 2.26486 0
M  V30 1836 H 173.924 2.04576 4.59519 0
M  V30 1837 H 173.624 3.79822 4.4834 0
M  V30 1838 H 175.148 3.20116 5.1996 0
M  V30 1839 H 176.562 4.60544 3.41426 0
M  V30 1840 H 174.959 5.23457 2.9345 0
M  V30 1841 H 176.029 4.53996 1.70339 0
M  V30 1842 N 177.372 -0.689602 1.41712 0
M  V30 1843 C 178.304 -1.815 1.39966 0
M  V30 1844 C 179.317 -1.59995 0.300917 0
M  V30 1845 O 180.506 -1.69387 0.563039 0
M  V30 1846 C 177.606 -3.18364 1.16179 0
M  V30 1847 C 176.779 -3.66847 2.38206 0
M  V30 1848 C 175.838 -4.82398 2.10186 0
M  V30 1849 O 174.864 -4.93706 2.83272 0
M  V30 1850 N 176.066 -5.70064 1.0958 0
M  V30 1851 H 178.831 -1.83488 2.36965 0
M  V30 1852 H 176.392 -0.872149 1.36401 0
M  V30 1853 H 178.384 -3.93301 0.953756 0
M  V30 1854 H 176.954 -3.11365 0.27756 0
M  V30 1855 H 176.174 -2.82751 2.74673 0
M  V30 1856 H 177.462 -3.95978 3.19498 0
M  V30 1857 H 176.86 -5.63565 0.491019 0
M  V30 1858 H 175.417 -6.44874 0.947656 0
M  V30 1859 N 178.85 -1.27639 -0.924453 0
M  V30 1860 C 180.078 -1.16989 -1.70649 0
M  V30 1861 C 180.493 0.272869 -1.86818 0
M  V30 1862 O 179.85 1.18549 -1.38753 0
M  V30 1863 C 179.901 -1.85229 -3.10439 0
M  V30 1864 O 179.622 -3.23868 -2.95028 0
M  V30 1865 C 181.123 -1.80746 -4.04779 0
M  V30 1866 H 178.343 -0.406595 -0.53378 0
M  V30 1867 H 180.887 -1.68569 -1.15778 0
M  V30 1868 H 179.042 -1.37545 -3.6216 0
M  V30 1869 H 179.456 -3.57889 -3.83426 0
M  V30 1870 H 180.93 -2.33101 -5.00368 0
M  V30 1871 H 181.407 -0.777499 -4.32263 0
M  V30 1872 H 182.013 -2.28059 -3.58984 0
M  V30 1873 N 180.328 1.1314 -1.09713 0
M  V30 1874 C 181.576 1.84119 -0.833338 0
M  V30 1875 C 181.897 1.84097 0.642904 0
M  V30 1876 O 181.167 1.29881 1.46655 0
M  V30 1877 H 179.747 0.681766 -0.305293 0
M  V30 1878 H 182.409 1.37038 -1.38588 0
M  V30 1879 H 181.505 2.88543 -1.18951 0
M  V30 1880 N 181.806 0.884767 1.30421 0
M  V30 1881 C 183.054 0.502112 1.95763 0
M  V30 1882 C 183.375 -0.951815 1.70192 0
M  V30 1883 O 182.645 -1.6692 1.0254 0
M  V30 1884 H 181.225 0.182694 0.724315 0
M  V30 1885 H 183.887 1.1278 1.58955 0
M  V30 1886 H 182.983 0.672188 3.04775 0
M  V30 1887 N 183.284 -1.43765 0.645699 0
M  V30 1888 C 184.231 -2.30745 -0.0504648 0
M  V30 1889 C 185.201 -1.4432 -0.822241 0
M  V30 1890 O 186.386 -1.73202 -0.800358 0
M  V30 1891 C 183.526 -3.29802 -1.0161 0
M  V30 1892 C 182.639 -4.31326 -0.241219 0
M  V30 1893 C 181.774 -5.17469 -1.19998 0
M  V30 1894 C 180.813 -6.10691 -0.415094 0
M  V30 1895 N 179.95 -6.89483 -1.32506 0
M  V30 1896 H 184.79 -2.8973 0.697155 0
M  V30 1897 H 182.327 -1.42738 0.355563 0
M  V30 1898 H 184.285 -3.85734 -1.58949 0
M  V30 1899 H 182.915 -2.72483 -1.73069 0
M  V30 1900 H 181.967 -3.77749 0.448334 0
M  V30 1901 H 183.279 -4.9743 0.369437 0
M  V30 1902 H 182.433 -5.7799 -1.84424 0
M  V30 1903 H 181.172 -4.51473 -1.84455 0
M  V30 1904 H 180.177 -5.49265 0.242565 0
M  V30 1905 H 181.402 -6.78727 0.224966 0
M  V30 1906 H 179.348 -6.26142 -1.95657 0
M  V30 1907 H 179.265 -7.52081 -0.768783 0
M  V30 1908 H 180.533 -7.54516 -1.9577 0
M  V30 1909 N 184.763 -0.387143 -1.52771 0
M  V30 1910 C 185.673 0.456442 -2.30117 0
M  V30 1911 C 186.689 1.07342 -1.36944 0
M  V30 1912 O 187.865 1.07971 -1.70013 0
M  V30 1913 C 184.93 1.56957 -3.09136 0
M  V30 1914 C 183.991 0.977916 -4.18014 0
M  V30 1915 C 183.224 2.038 -4.93256 0
M  V30 1916 O 183.447 3.25271 -4.68567 0
M  V30 1917 O 182.381 1.6565 -5.78657 0
M  V30 1918 H 186.207 -0.17359 -3.03203 0
M  V30 1919 H 183.792 -0.150919 -1.48636 0
M  V30 1920 H 185.674 2.21628 -3.58412 0
M  V30 1921 H 184.349 2.18461 -2.38865 0
M  V30 1922 H 183.256 0.294525 -3.72939 0
M  V30 1923 H 184.589 0.407128 -4.90513 0
M  V30 1924 N 186.241 1.57166 -0.116904 0
M  V30 1925 C 187.49 1.94298 0.541407 0
M  V30 1926 C 187.803 1.00236 1.67964 0
M  V30 1927 O 189.009 1.26826 2.40057 0
M  V30 1928 C 187.465 3.45306 1.01449 0
M  V30 1929 C 187.073 4.47899 -0.0951738 0
M  V30 1930 C 188.817 3.91361 1.6443 0
M  V30 1931 C 186.724 5.90083 0.394491 0
M  V30 1932 H 185.654 0.725308 0.206019 0
M  V30 1933 H 188.305 1.82446 -0.196419 0
M  V30 1934 H 186.687 3.52385 1.80667 0
M  V30 1935 H 187.861 4.52486 -0.871374 0
M  V30 1936 H 186.176 4.11583 -0.631505 0
M  V30 1937 H 188.773 4.95004 2.02176 0
M  V30 1938 H 189.116 3.3122 2.52189 0
M  V30 1939 H 189.649 3.87073 0.917559 0
M  V30 1940 H 186.388 6.53974 -0.447004 0
M  V30 1941 H 185.908 5.88921 1.13722 0
M  V30 1942 H 187.587 6.41307 0.856399 0
M  V30 1943 N 187.719 -0.156864 1.56817 0
M  V30 1944 C 188.666 -1.19394 1.97519 0
M  V30 1945 C 189.636 -1.4322 0.841265 0
M  V30 1946 O 190.821 -1.55719 1.10255 0
M  V30 1947 C 187.961 -2.52483 2.35258 0
M  V30 1948 C 187.074 -2.35914 3.61896 0
M  V30 1949 C 186.209 -3.61969 3.88782 0
M  V30 1950 C 185.248 -3.40395 5.08722 0
M  V30 1951 N 184.385 -4.58556 5.31668 0
M  V30 1952 H 189.225 -0.839845 2.85921 0
M  V30 1953 H 186.762 -0.403264 1.41464 0
M  V30 1954 H 188.72 -3.30071 2.55165 0
M  V30 1955 H 187.35 -2.85859 1.49949 0
M  V30 1956 H 186.402 -1.49429 3.49821 0
M  V30 1957 H 187.714 -2.15926 4.49641 0
M  V30 1958 H 186.868 -4.47989 4.09135 0
M  V30 1959 H 185.607 -3.84951 2.9944 0
M  V30 1960 H 184.612 -2.52763 4.88253 0
M  V30 1961 H 185.837 -3.18822 5.99608 0
M  V30 1962 H 183.783 -4.81729 4.45279 0
M  V30 1963 H 183.7 -4.41535 6.13664 0
M  V30 1964 H 184.968 -5.45817 5.5651 0
M  V30 1965 N 189.197 -1.51736 -0.425897 0
M  V30 1966 C 190.422 -1.69082 -1.20108 0
M  V30 1967 C 190.847 -0.392398 -1.83962 0
M  V30 1968 O 190.205 0.64858 -1.69302 0
M  V30 1969 C 190.253 -2.81604 -2.25237 0
M  V30 1970 O 189.357 -2.46004 -3.30992 0
M  V30 1971 H 188.698 -0.563408 -0.35138 0
M  V30 1972 H 191.228 -1.98358 -0.501512 0
M  V30 1973 H 191.238 -3.06025 -2.69838 0
M  V30 1974 H 189.913 -3.75817 -1.78142 0
M  V30 1975 H 188.49 -2.32195 -2.91787 0
M  V30 1976 N 190.675 0.682077 -1.42076 0
M  V30 1977 C 191.638 1.77756 -1.44691 0
M  V30 1978 C 192.638 1.5726 -0.335535 0
M  V30 1979 O 193.828 1.63686 -0.596037 0
M  V30 1980 C 190.96 3.16301 -1.27146 0
M  V30 1981 H 192.153 1.76826 -2.42224 0
M  V30 1982 H 189.706 0.891012 -1.28416 0
M  V30 1983 H 190.441 3.22862 -0.305075 0
M  V30 1984 H 190.226 3.32581 -2.07683 0
M  V30 1985 H 191.716 3.96241 -1.31843 0
M  V30 1986 N 192.153 1.28127 0.917671 0
M  V30 1987 C 193.402 1.14432 1.66097 0
M  V30 1988 C 193.715 -0.307247 1.93172 0
M  V30 1989 O 194.921 -0.565259 2.65551 0
M  V30 1990 C 193.377 2.00015 2.99202 0
M  V30 1991 C 192.985 3.49889 2.79789 0
M  V30 1992 C 194.729 1.94996 3.77064 0
M  V30 1993 C 192.636 4.27636 4.08511 0
M  V30 1994 H 191.566 0.424662 0.62304 0
M  V30 1995 H 194.217 1.52628 1.01868 0
M  V30 1996 H 192.599 1.54672 3.64544 0
M  V30 1997 H 193.773 4.03162 2.23152 0
M  V30 1998 H 192.088 3.56392 2.15345 0
M  V30 1999 H 194.685 2.50354 4.72469 0
M  V30 2000 H 195.028 0.925819 4.05875 0
M  V30 2001 H 195.561 2.38287 3.18534 0
M  V30 2002 H 192.3 5.30615 3.84874 0
M  V30 2003 H 191.82 3.79137 4.64774 0
M  V30 2004 H 193.499 4.37346 4.76799 0
M  V30 2005 N 193.631 -1.12557 1.10312 0
M  V30 2006 C 195.042 -1.65574 0.862678 0
M  V30 2007 C 195.393 -1.86566 -0.607256 0
M  V30 2008 O 194.518 -1.59121 -1.46662 0
M  V30 2009 C 195.113 -3.00776 1.55947 0
M  V30 2010 C 193.672 -3.50748 1.36576 0
M  V30 2011 C 192.819 -2.25797 1.60968 0
M  V30 2012 H 195.77 -0.963552 1.26101 0
M  V30 2013 H 195.791 -3.67185 0.997753 0
M  V30 2014 H 195.303 -2.85465 2.62928 0
M  V30 2015 H 193.404 -3.71245 0.317531 0
M  V30 2016 H 193.517 -4.30289 2.10686 0
M  V30 2017 H 191.881 -2.32841 1.03234 0
M  V30 2018 H 192.664 -2.13043 2.69198 0
M  V30 2019 N 195.109 -0.891671 -1.2995 0
M  V30 2020 C 196.042 -0.307994 -2.26112 0
M  V30 2021 C 197.02 0.575262 -1.52084 0
M  V30 2022 O 198.204 0.523864 -1.81074 0
M  V30 2023 C 195.331 0.561734 -3.34009 0
M  V30 2024 C 194.377 -0.253107 -4.25748 0
M  V30 2025 S 195.21 -1.64572 -5.09584 0
M  V30 2026 C 196.366 -0.782699 -6.20987 0
M  V30 2027 H 196.599 -1.12309 -2.75271 0
M  V30 2028 H 194.132 -0.691509 -1.38049 0
M  V30 2029 H 196.09 1.05777 -3.96638 0
M  V30 2030 H 194.751 1.35099 -2.83561 0
M  V30 2031 H 193.944 0.410908 -5.02322 0
M  V30 2032 H 193.546 -0.682004 -3.67729 0
M  V30 2033 H 195.838 -0.00257476 -6.775 0
M  V30 2034 H 196.781 -1.52026 -6.91588 0
M  V30 2035 H 197.189 -0.340638 -5.63471 0
M  V30 2036 N 196.587 1.43421 -0.653314 0
M  V30 2037 C 197.835 2.01414 -0.166415 0
M  V30 2038 C 198.156 1.51803 1.22397 0
M  V30 2039 O 197.426 0.730693 1.81763 0
M  V30 2040 H 196.006 0.744703 -0.0585319 0
M  V30 2041 H 198.668 1.75629 -0.845003 0
M  V30 2042 H 197.764 3.11734 -0.151111 0
M  V30 2043 N 198.065 0.39524 1.52563 0
M  V30 2044 C 199.305 -0.184744 2.03563 0
M  V30 2045 C 199.669 -1.43548 1.27507 0
M  V30 2046 O 200.87 -2.093 1.68662 0
M  V30 2047 C 199.141 -0.440294 3.54678 0
M  V30 2048 S 200.7 -0.989712 4.27493 0
M  V30 2049 H 197.518 -0.0515075 0.709132 0
M  V30 2050 H 200.12 0.544957 1.87751 0
M  V30 2051 H 198.824 0.477005 4.07618 0
M  V30 2052 H 198.355 -1.19825 3.74707 0
M  V30 2053 H 200.37 -2.27155 4.41152 0
M  V30 2054 N 199.544 -1.57102 0.125237 0
M  V30 2055 C 200.79 -1.95697 -0.532035 0
M  V30 2056 C 201.123 -1.009 -1.6593 0
M  V30 2057 O 200.398 -0.047347 -1.94442 0
M  V30 2058 C 200.681 -3.44181 -1.05884 0
M  V30 2059 C 200.534 -4.49752 0.0654392 0
M  V30 2060 C 201.853 -3.94655 -1.9477 0
M  V30 2061 H 198.972 -0.711571 -0.191925 0
M  V30 2062 H 201.614 -1.88923 0.20206 0
M  V30 2063 H 199.764 -3.50085 -1.68442 0
M  V30 2064 H 201.436 -4.55943 0.700982 0
M  V30 2065 H 199.679 -4.27653 0.727709 0
M  V30 2066 H 200.35 -5.50924 -0.344505 0
M  V30 2067 H 202.826 -3.91094 -1.42074 0
M  V30 2068 H 201.702 -4.99057 -2.28546 0
M  V30 2069 H 201.963 -3.35718 -2.87656 0
M  V30 2070 N 201.022 0.148545 -1.56898 0
M  V30 2071 C 201.952 1.18524 -2.01182 0
M  V30 2072 C 202.933 1.4489 -0.891123 0
M  V30 2073 O 204.118 1.55836 -1.15882 0
M  V30 2074 C 201.248 2.51879 -2.39112 0
M  V30 2075 C 200.202 2.40038 -3.54353 0
M  V30 2076 C 199.528 3.78089 -3.78091 0
M  V30 2077 C 200.828 1.88577 -4.87069 0
M  V30 2078 H 202.522 0.817029 -2.88036 0
M  V30 2079 H 200.068 0.391575 -1.38574 0
M  V30 2080 H 202.021 3.24627 -2.68692 0
M  V30 2081 H 200.745 2.90532 -1.49193 0
M  V30 2082 H 199.404 1.69742 -3.24936 0
M  V30 2083 H 199.052 4.14175 -2.85426 0
M  V30 2084 H 198.752 3.71028 -4.55645 0
M  V30 2085 H 200.276 4.52387 -4.10095 0
M  V30 2086 H 201.69 2.51117 -5.15377 0
M  V30 2087 H 200.087 1.9241 -5.68417 0
M  V30 2088 H 201.157 0.84136 -4.77545 0
M  V30 2089 N 202.5 1.5196 0.417844 0
M  V30 2090 C 203.728 1.69426 1.18753 0
M  V30 2091 C 204.143 0.399955 1.84515 0
M  V30 2092 O 203.5 -0.623288 1.71527 0
M  V30 2093 C 203.551 2.82375 2.25714 0
M  V30 2094 O 203.272 4.06793 1.62638 0
M  V30 2095 C 204.773 3.11277 3.15628 0
M  V30 2096 H 201.993 0.568031 0.357186 0
M  V30 2097 H 204.537 1.98475 0.49273 0
M  V30 2098 H 202.692 2.5587 2.90877 0
M  V30 2099 H 203.106 4.69667 2.3348 0
M  V30 2100 H 204.58 3.93843 3.86771 0
M  V30 2101 H 205.057 2.24473 3.77503 0
M  V30 2102 H 205.663 3.39515 2.56144 0
M  V30 2103 N 203.978 -0.674533 1.42435 0
M  V30 2104 C 204.908 -1.80009 1.48724 0
M  V30 2105 C 205.889 -1.6659 0.343793 0
M  V30 2106 O 207.074 -1.86007 0.558137 0
M  V30 2107 C 204.204 -3.18306 1.38919 0
M  V30 2108 C 203.158 -3.46461 2.51294 0
M  V30 2109 C 202.484 -4.84335 2.26547 0
M  V30 2110 C 203.784 -3.43328 3.93603 0
M  V30 2111 H 205.478 -1.75004 2.42928 0
M  V30 2112 H 203.024 -0.840533 1.16923 0
M  V30 2113 H 204.977 -3.9678 1.41927 0
M  V30 2114 H 203.701 -3.2399 0.412094 0
M  V30 2115 H 202.36 -2.70348 2.47604 0
M  V30 2116 H 202.008 -4.86669 1.2713 0
M  V30 2117 H 201.708 -5.04136 3.01861 0
M  V30 2118 H 203.232 -5.65094 2.31304 0
M  V30 2119 H 204.646 -4.11772 3.98894 0
M  V30 2120 H 203.043 -3.74664 4.68771 0
M  V30 2121 H 204.113 -2.41897 4.20255 0
M  V30 2122 N 205.456 -1.28612 -0.910864 0
M  V30 2123 C 206.867 -1.14406 -1.47541 0
M  V30 2124 C 207.218 0.264901 -1.94403 0
M  V30 2125 O 206.343 1.15942 -1.82719 0
M  V30 2126 C 206.938 -2.07073 -2.68153 0
M  V30 2127 C 205.497 -1.96923 -3.20778 0
M  V30 2128 C 204.644 -1.98646 -1.93481 0
M  V30 2129 H 207.595 -1.41259 -0.723291 0
M  V30 2130 H 207.616 -1.63642 -3.43514 0
M  V30 2131 H 207.128 -3.09611 -2.34015 0
M  V30 2132 H 205.229 -0.97433 -3.59635 0
M  V30 2133 H 205.342 -2.84026 -3.85832 0
M  V30 2134 H 203.706 -1.43093 -2.10705 0
M  V30 2135 H 204.489 -3.02868 -1.61634 0
M  V30 2136 N 206.934 1.1197 -1.10907 0
M  V30 2137 C 207.897 2.16031 -0.765707 0
M  V30 2138 C 208.897 1.59393 0.212235 0
M  V30 2139 O 210.087 1.74196 -0.0115441 0
M  V30 2140 C 207.219 3.40632 -0.135053 0
M  V30 2141 H 208.412 2.47919 -1.68748 0
M  V30 2142 H 205.965 1.27061 -0.910226 0
M  V30 2143 H 206.7 3.14348 0.797218 0
M  V30 2144 H 206.485 3.8302 -0.838937 0
M  V30 2145 H 207.975 4.17505 0.0892469 0
M  V30 2146 N 208.412 0.89855 1.29475 0
M  V30 2147 C 209.64 0.539261 1.99749 0
M  V30 2148 C 210.055 -0.875716 1.67262 0
M  V30 2149 O 209.412 -1.57786 0.917049 0
M  V30 2150 C 209.463 0.72061 3.54245 0
M  V30 2151 O 209.184 2.07989 3.8558 0
M  V30 2152 C 210.685 0.366118 4.41786 0
M  V30 2153 H 207.905 0.207047 0.638258 0
M  V30 2154 H 210.449 1.20758 1.65039 0
M  V30 2155 H 208.604 0.0994862 3.87272 0
M  V30 2156 H 209.018 2.10841 4.80257 0
M  V30 2157 H 210.492 0.543848 5.49314 0
M  V30 2158 H 210.969 -0.696763 4.33638 0
M  V30 2159 H 211.575 0.964135 4.14228 0
M  V30 2160 N 209.89 -1.43072 0.660911 0
M  V30 2161 C 211.138 -2.01323 0.177094 0
M  V30 2162 C 211.459 -1.5245 -1.2159 0
M  V30 2163 O 210.729 -0.740322 -1.81373 0
M  V30 2164 H 209.309 -0.744382 0.0624804 0
M  V30 2165 H 211.971 -1.75179 0.854305 0
M  V30 2166 H 211.067 -3.11649 0.167641 0
M  V30 2167 N 211.368 -0.403325 -1.52352 0
M  V30 2168 C 212.593 0.176499 -2.06648 0
M  V30 2169 C 213.018 1.38577 -1.27193 0
M  V30 2170 O 212.376 1.7879 -0.300637 0
M  V30 2171 C 212.424 0.511061 -3.5696 0
M  V30 2172 O 211.528 1.60294 -3.79973 0
M  V30 2173 H 210.869 0.0167337 -0.663789 0
M  V30 2174 H 213.399 -0.574848 -1.96359 0
M  V30 2175 H 213.409 0.771362 -4.00642 0
M  V30 2176 H 212.084 -0.37296 -4.14224 0
M  V30 2177 H 210.661 1.33526 -3.48174 0
M  V30 2178 N 212.846 1.57033 -0.133567 0
M  V30 2179 C 213.756 2.19632 0.824564 0
M  V30 2180 C 214.772 1.17666 1.28182 0
M  V30 2181 O 215.948 1.50193 1.3418 0
M  V30 2182 C 213.013 2.79499 2.05137 0
M  V30 2183 C 212.074 3.96548 1.64464 0
M  V30 2184 C 211.307 4.5355 2.81297 0
M  V30 2185 O 211.53 4.09438 3.97136 0
M  V30 2186 O 210.464 5.44018 2.57542 0
M  V30 2187 H 214.29 3.01991 0.321766 0
M  V30 2188 H 211.875 1.49112 0.0927889 0
M  V30 2189 H 213.757 3.17602 2.7696 0
M  V30 2190 H 212.432 2.00162 2.54395 0
M  V30 2191 H 211.339 3.63186 0.897048 0
M  V30 2192 H 212.672 4.77364 1.19934 0
M  V30 2193 N 214.325 -0.140222 1.56975 0
M  V30 2194 C 215.55 -0.870414 1.88251 0
M  V30 2195 C 215.975 -1.73637 0.723312 0
M  V30 2196 O 215.333 -1.78329 -0.32689 0
M  V30 2197 C 215.381 -1.69737 3.18154 0
M  V30 2198 O 214.485 -2.80229 3.02565 0
M  V30 2199 H 213.826 -0.242025 0.61832 0
M  V30 2200 H 216.356 -0.128999 2.04193 0
M  V30 2201 H 216.366 -2.09099 3.50345 0
M  V30 2202 H 215.041 -1.06152 4.02125 0
M  V30 2203 H 213.618 -2.44224 2.81796 0
M  V30 2204 N 215.803 -1.52179 -0.40978 0
M  V30 2205 C 216.751 -1.76086 -1.51975 0
M  V30 2206 C 217.745 -0.627964 -1.57331 0
M  V30 2207 O 218.951 -0.809993 -1.60745 0
M  V30 2208 H 215.326 -0.556829 -0.505416 0
M  V30 2209 H 217.297 -2.69077 -1.28996 0
M  V30 2210 C 216.046 -1.92799 -2.8935 0
M  V30 2211 H 215.369 -2.79392 -2.85972 0
M  V30 2212 H 216.809 -2.13527 -3.66309 0
M  V30 2213 C 215.268 -0.694923 -3.29655 0
M  V30 2214 O 215.798 0.13751 -4.01465 0
M  V30 2215 N 214.004 -0.53101 -2.85707 0
M  V30 2216 H 213.551 -1.20952 -2.27439 0
M  V30 2217 H 213.509 0.292718 -3.13034 0
M  V30 2218 N 217.281 0.66697 -1.42791 0
M  V30 2219 C 218.244 1.76211 -1.46568 0
M  V30 2220 C 219.244 1.56896 -0.352196 0
M  V30 2221 O 220.434 1.63044 -0.613364 0
M  V30 2222 C 217.566 3.14935 -1.30494 0
M  V30 2223 H 218.759 1.74247 -2.44086 0
M  V30 2224 H 216.312 0.877342 -1.29354 0
M  V30 2225 H 217.047 3.2252 -0.339301 0
M  V30 2226 H 216.832 3.30359 -2.11199 0
M  V30 2227 H 218.322 3.94821 -1.36038 0
M  V30 2228 N 218.759 1.29093 0.90403 0
M  V30 2229 C 220.007 1.16583 1.65085 0
M  V30 2230 C 220.328 -0.283933 1.92922 0
M  V30 2231 O 219.598 -1.19509 1.55224 0
M  V30 2232 H 218.178 0.428467 0.611903 0
M  V30 2233 H 220.84 1.61959 1.08422 0
M  V30 2234 H 219.936 1.71266 2.6091 0
M  V30 2235 N 220.237 -1.11381 1.11499 0
M  V30 2236 C 221.2 -2.15622 0.777153 0
M  V30 2237 C 222.2 -1.59504 -0.203779 0
M  V30 2238 O 223.39 -1.74188 0.020782 0
M  V30 2239 C 220.522 -3.40556 0.153116 0
M  V30 2240 H 221.715 -2.47021 1.70061 0
M  V30 2241 H 219.268 -1.26577 0.916952 0
M  V30 2242 H 220.003 -3.14767 -0.780536 0
M  V30 2243 H 219.788 -3.8257 0.859238 0
M  V30 2244 H 221.278 -4.17546 -0.0671044 0
M  V30 2245 N 221.715 -0.905404 -1.28997 0
M  V30 2246 C 222.961 -0.535039 -1.95615 0
M  V30 2247 C 223.294 0.917404 -1.71165 0
M  V30 2248 O 222.569 1.65123 -1.02785 0
M  V30 2249 C 222.852 -0.834918 -3.50287 0
M  V30 2250 C 222.705 -2.33948 -3.84172 0
M  V30 2251 C 224.024 -0.325318 -4.38896 0
M  V30 2252 H 221.143 -0.195861 -0.710498 0
M  V30 2253 H 223.785 -1.13313 -1.52513 0
M  V30 2254 H 221.935 -0.325904 -3.87131 0
M  V30 2255 H 223.607 -2.91847 -3.57243 0
M  V30 2256 H 221.85 -2.79789 -3.31513 0
M  V30 2257 H 222.521 -2.49987 -4.92149 0
M  V30 2258 H 224.997 -0.761256 -4.09077 0
M  V30 2259 H 223.873 -0.564295 -5.45992 0
M  V30 2260 H 224.134 0.774144 -4.35269 0
M  V30 2261 N 223.193 1.4272 -0.668489 0
M  V30 2262 C 224.442 2.00846 -0.185389 0
M  V30 2263 C 224.755 1.53442 1.21305 0
M  V30 2264 O 225.961 2.03944 1.79218 0
M  V30 2265 C 224.417 3.58805 -0.280591 0
M  V30 2266 C 224.025 4.15198 -1.68268 0
M  V30 2267 C 225.769 4.24255 0.14412 0
M  V30 2268 C 223.676 5.655 -1.73099 0
M  V30 2269 H 222.606 0.751145 -0.0655475 0
M  V30 2270 H 225.257 1.63516 -0.832752 0
M  V30 2271 H 223.639 3.93608 0.434553 0
M  V30 2272 H 224.813 3.91866 -2.42441 0
M  V30 2273 H 223.128 3.62176 -2.05469 0
M  V30 2274 H 225.725 5.34547 0.128086 0
M  V30 2275 H 226.068 3.99277 1.17827 0
M  V30 2276 H 226.601 3.94389 -0.519798 0
M  V30 2277 H 223.34 5.95268 -2.74475 0
M  V30 2278 H 222.86 5.90842 -1.03274 0
M  V30 2279 H 224.539 6.29808 -1.48158 0
M  V30 2280 N 224.671 0.411399 1.52136 0
M  V30 2281 C 225.896 -0.165538 2.06738 0
M  V30 2282 C 226.321 -1.379 1.27926 0
M  V30 2283 O 225.679 -1.78628 0.310114 0
M  V30 2284 C 225.727 -0.492124 3.57226 0
M  V30 2285 O 224.831 -1.58276 3.80818 0
M  V30 2286 H 224.172 -0.0132132 0.663869 0
M  V30 2287 H 226.702 0.585253 1.96051 0
M  V30 2288 H 226.712 -0.750104 4.01045 0
M  V30 2289 H 225.387 0.394922 4.14021 0
M  V30 2290 H 223.964 -1.31677 3.48877 0
M  V30 2291 N 226.149 -1.5696 0.141893 0
M  V30 2292 C 227.565 -1.58151 -0.21456 0
M  V30 2293 C 227.765 -1.1559 -1.65049 0
M  V30 2294 O 226.821 -0.853832 -2.37626 0
M  V30 2295 C 228.134 -3.00674 0.0395576 0
M  V30 2296 C 229.682 -3.1299 -0.0245529 0
M  V30 2297 C 230.157 -4.57554 0.202167 0
M  V30 2298 N 231.648 -4.62961 0.148919 0
M  V30 2299 C 232.383 -5.7262 0.298924 0
M  V30 2300 N 231.879 -6.90947 0.50637 0
M  V30 2301 N 233.672 -5.61601 0.236886 0
M  V30 2302 H 225.823 -1.8292 1.07953 0
M  V30 2303 H 228.086 -0.846425 0.42693 0
M  V30 2304 H 227.792 -3.36183 1.03315 0
M  V30 2305 H 227.666 -3.70981 -0.682143 0
M  V30 2306 H 230.053 -2.77326 -1.00869 0
M  V30 2307 H 230.134 -2.4518 0.729396 0
M  V30 2308 H 229.778 -4.93922 1.18338 0
M  V30 2309 H 229.708 -5.23484 -0.572044 0
M  V30 2310 H 232.199 -3.77899 -0.00697015 0
M  V30 2311 H 232.512 -7.7038 0.611076 0
M  V30 2312 H 230.857 -6.92878 0.542628 0
M  V30 2313 H 234.048 -4.68039 0.0756209 0
M  V30 2314 H 234.221 -6.47015 0.357227 0
M  V30 2315 N 227.627 0.131896 -1.57047 0
M  V30 2316 C 228.574 1.16236 -1.99393 0
M  V30 2317 C 229.544 1.41863 -0.863943 0
M  V30 2318 O 230.729 1.53946 -1.12718 0
M  V30 2319 C 227.869 2.48708 -2.39245 0
M  V30 2320 C 226.982 2.30127 -3.65603 0
M  V30 2321 C 226.117 3.55738 -3.94492 0
M  V30 2322 C 225.156 3.32259 -5.14073 0
M  V30 2323 N 224.293 4.50039 -5.38896 0
M  V30 2324 H 229.133 0.794251 -2.87221 0
M  V30 2325 H 226.67 0.380707 -1.42088 0
M  V30 2326 H 228.628 3.25969 -2.60384 0
M  V30 2327 H 227.258 2.83437 -1.54478 0
M  V30 2328 H 226.31 1.43845 -3.52154 0
M  V30 2329 H 227.622 2.08746 -4.5302 0
M  V30 2330 H 226.776 4.41423 -4.1621 0
M  V30 2331 H 225.515 3.80138 -3.05526 0
M  V30 2332 H 224.52 2.44963 -4.92212 0
M  V30 2333 H 225.745 3.09242 -6.04604 0
M  V30 2334 H 223.691 4.74584 -4.52886 0
M  V30 2335 H 223.608 4.31716 -6.2061 0
M  V30 2336 H 224.876 5.36895 -5.65123 0
M  V30 2337 N 229.106 1.52395 0.401703 0
M  V30 2338 C 230.334 1.70676 1.16949 0
M  V30 2339 C 230.749 0.419503 1.8408 0
M  V30 2340 O 230.106 -0.605061 1.72178 0
M  V30 2341 C 230.157 2.84753 2.22706 0
M  V30 2342 O 229.878 4.08495 1.58314 0
M  V30 2343 C 231.379 3.14608 3.12309 0
M  V30 2344 H 228.599 0.571787 0.351142 0
M  V30 2345 H 231.143 1.98987 0.471652 0
M  V30 2346 H 229.298 2.58941 2.88147 0
M  V30 2347 H 229.712 4.72117 2.28485 0
M  V30 2348 H 231.186 3.97923 3.82572 0
M  V30 2349 H 231.663 2.28464 3.75101 0
M  V30 2350 H 232.269 3.42212 2.52529 0
M  V30 2351 N 230.584 -0.659388 1.43143 0
M  V30 2352 C 231.812 -1.44723 1.47861 0
M  V30 2353 C 232.227 -1.88563 0.0945886 0
M  V30 2354 O 231.584 -1.59108 -0.893915 0
M  V30 2355 C 231.635 -2.68627 2.41913 0
M  V30 2356 O 231.356 -2.26623 3.74932 0
M  V30 2357 C 232.857 -3.62045 2.55809 0
M  V30 2358 H 230.077 -0.444801 0.502387 0
M  V30 2359 H 232.621 -0.808916 1.87821 0
M  V30 2360 H 230.776 -3.28613 2.05164 0
M  V30 2361 H 231.19 -3.06745 4.2545 0
M  V30 2362 H 232.664 -4.45666 3.25708 0
M  V30 2363 H 233.141 -4.08981 1.60099 0
M  V30 2364 H 233.747 -3.07944 2.93344 0
M  V30 2365 N 232.062 -1.29571 -0.897171 0
M  V30 2366 C 233.31 -1.17456 -1.64464 0
M  V30 2367 C 233.631 0.273698 -1.9307 0
M  V30 2368 O 232.901 1.18684 -1.55855 0
M  V30 2369 H 231.481 -0.431706 -0.609622 0
M  V30 2370 H 234.143 -1.62531 -1.07562 0
M  V30 2371 H 233.239 -1.72648 -2.59998 0
M  V30 2372 N 233.54 1.10788 -1.12088 0
M  V30 2373 C 234.817 1.79136 -0.785476 0
M  V30 2374 C 235.197 1.98246 0.725377 0
M  V30 2375 O 234.545 1.57258 1.65778 0
M  V30 2376 C 234.755 3.12375 -1.55636 0
M  V30 2377 C 236.103 3.8731 -1.74001 0
M  V30 2378 O 237.127 3.22085 -1.52117 0
M  V30 2379 O 235.986 5.04369 -2.10415 0
M  V30 2380 H 233.08 0.776226 -0.285311 0
M  V30 2381 H 235.626 1.1747 -1.2247 0
M  V30 2382 H 234.398 2.93863 -2.5838 0
M  V30 2383 H 234.021 3.81758 -1.11114 0
M  V30 2384 N 235.018 0.912232 1.28515 0
M  V30 2385 C 235.965 0.397954 2.27343 0
M  V30 2386 C 236.935 -0.526766 1.57526 0
M  V30 2387 O 238.12 -0.449292 1.85435 0
M  V30 2388 C 235.26 -0.357263 3.43246 0
M  V30 2389 C 234.373 0.599788 4.27816 0
M  V30 2390 C 233.508 -0.173725 5.30916 0
M  V30 2391 C 232.547 0.777039 6.07148 0
M  V30 2392 N 231.684 0.0371398 7.0209 0
M  V30 2393 H 236.524 1.24577 2.70711 0
M  V30 2394 H 234.061 0.625612 1.33133 0
M  V30 2395 H 236.019 -0.8113 4.09236 0
M  V30 2396 H 234.649 -1.16943 3.00872 0
M  V30 2397 H 233.701 1.17235 3.61884 0
M  V30 2398 H 235.013 1.32704 4.80823 0
M  V30 2399 H 234.167 -0.688394 6.02782 0
M  V30 2400 H 232.906 -0.934041 4.78672 0
M  V30 2401 H 231.911 1.3031 5.34134 0
M  V30 2402 H 233.136 1.53689 6.61481 0
M  V30 2403 H 231.082 -0.705213 6.52198 0
M  V30 2404 H 230.999 0.704249 7.52713 0
M  V30 2405 H 232.267 -0.457383 7.78157 0
M  V30 2406 N 236.496 -1.42363 0.676048 0
M  V30 2407 C 237.428 -2.29164 -0.0404605 0
M  V30 2408 C 238.441 -1.43747 -0.764245 0
M  V30 2409 O 239.63 -1.67453 -0.618195 0
M  V30 2410 C 236.73 -3.21196 -1.08103 0
M  V30 2411 C 235.903 -4.35273 -0.430812 0
M  V30 2412 C 234.962 -5.08017 -1.37133 0
M  V30 2413 O 233.988 -5.62494 -0.87116 0
M  V30 2414 N 235.19 -5.13647 -2.70456 0
M  V30 2415 H 237.955 -2.91298 0.704667 0
M  V30 2416 H 235.516 -1.53303 0.520559 0
M  V30 2417 H 237.508 -3.66728 -1.71152 0
M  V30 2418 H 236.078 -2.60505 -1.72788 0
M  V30 2419 H 235.298 -3.92372 0.379209 0
M  V30 2420 H 236.586 -5.08795 0.0221132 0
M  V30 2421 H 235.984 -4.708 -3.1363 0
M  V30 2422 H 234.541 -5.62821 -3.28749 0
M  V30 2423 N 237.974 -0.419461 -1.51915 0
M  V30 2424 C 238.937 0.389116 -2.25873 0
M  V30 2425 C 239.937 0.964924 -1.28631 0
M  V30 2426 O 241.127 0.842179 -1.52489 0
M  V30 2427 C 238.259 1.54874 -3.03689 0
M  V30 2428 H 239.452 -0.258799 -2.98781 0
M  V30 2429 H 237.005 -0.172209 -1.55348 0
M  V30 2430 H 237.74 2.23323 -2.35154 0
M  V30 2431 H 237.525 1.14223 -3.75094 0
M  V30 2432 H 239.015 2.12046 -3.59759 0
M  V30 2433 N 239.452 1.56882 -0.150215 0
M  V30 2434 C 240.699 1.96228 0.500093 0
M  V30 2435 C 241.027 1.03522 1.64661 0
M  V30 2436 O 240.282 0.0650683 1.95592 0
M  V30 2437 C 240.581 3.41801 1.04437 0
M  V30 2438 C 240.247 4.50897 0.0159671 0
M  V30 2439 C 238.909 4.8046 -0.266731 0
M  V30 2440 C 241.261 5.16703 -0.683192 0
M  V30 2441 C 238.589 5.73135 -1.25434 0
M  V30 2442 C 240.941 6.10441 -1.65964 0
M  V30 2443 C 239.605 6.38382 -1.95 0
M  V30 2444 H 238.875 0.718048 0.182997 0
M  V30 2445 H 241.522 1.90019 -0.237724 0
M  V30 2446 H 239.827 3.44857 1.85959 0
M  V30 2447 H 241.524 3.69573 1.55618 0
M  V30 2448 H 238.114 4.27891 0.246485 0
M  V30 2449 H 242.298 4.93993 -0.477983 0
M  V30 2450 H 237.554 5.93074 -1.48571 0
M  V30 2451 H 241.728 6.60507 -2.20689 0
M  V30 2452 H 239.355 7.09996 -2.71679 0
M  V30 2453 N 240.93 -0.123565 1.57115 0
M  V30 2454 C 241.88 -1.1575 1.96433 0
M  V30 2455 C 242.864 -1.37313 0.838686 0
M  V30 2456 O 244.056 -1.38482 1.10235 0
M  V30 2457 C 241.185 -2.48526 2.36833 0
M  V30 2458 C 240.271 -2.30457 3.5602 0
M  V30 2459 N 240.662 -1.8219 4.71848 0
M  V30 2460 C 238.96 -2.61129 3.61563 0
M  V30 2461 C 239.661 -1.77721 5.53886 0
M  V30 2462 N 238.637 -2.21899 4.96248 0
M  V30 2463 H 242.439 -0.776797 2.83449 0
M  V30 2464 H 239.953 -0.331364 1.58983 0
M  V30 2465 H 241.95 -3.233 2.63216 0
M  V30 2466 H 240.61 -2.87358 1.5118 0
M  V30 2467 H 241.621 -1.51805 4.95152 0
M  V30 2468 H 238.298 -3.03678 2.86507 0
M  V30 2469 H 239.688 -1.41697 6.56789 0
M  V30 2470 N 242.408 -1.52605 -0.393616 0
M  V30 2471 C 243.633 -1.71592 -1.16495 0
M  V30 2472 C 244.058 -0.43133 -1.83088 0
M  V30 2473 O 243.416 0.612523 -1.7064 0
M  V30 2474 C 243.464 -2.86318 -2.19213 0
M  V30 2475 O 242.568 -2.52969 -3.257 0
M  V30 2476 H 241.909 -0.570734 -0.33935 0
M  V30 2477 H 244.439 -1.99377 -0.459324 0
M  V30 2478 H 244.449 -3.1168 -2.63286 0
M  V30 2479 H 243.124 -3.79511 -1.7013 0
M  V30 2480 H 241.701 -2.38332 -2.86797 0
M  V30 2481 N 243.887 0.651787 -1.4349 0
M  V30 2482 C 244.85 1.74647 -1.48429 0
M  V30 2483 C 245.85 1.56513 -0.368817 0
M  V30 2484 O 247.04 1.62385 -0.630623 0
M  V30 2485 C 244.172 3.13533 -1.33827 0
M  V30 2486 H 245.365 1.71649 -2.4592 0
M  V30 2487 H 242.918 0.863573 -1.30277 0
M  V30 2488 H 243.653 3.22142 -0.37349 0
M  V30 2489 H 243.438 3.28101 -2.14691 0
M  V30 2490 H 244.928 3.93356 -1.40218 0
M  V30 2491 N 245.365 1.30045 0.890287 0
M  V30 2492 C 246.315 1.12592 1.9826 0
M  V30 2493 C 247.299 0.0426021 1.60844 0
M  V30 2494 O 248.491 0.265346 1.75 0
M  V30 2495 C 245.62 0.814301 3.33503 0
M  V30 2496 C 244.706 1.93761 3.7725 0
M  V30 2497 N 245.097 3.18232 3.93143 0
M  V30 2498 C 243.395 1.83277 4.06602 0
M  V30 2499 C 244.096 3.9158 4.30163 0
M  V30 2500 N 243.072 3.19591 4.3973 0
M  V30 2501 H 246.874 2.07003 2.08631 0
M  V30 2502 H 244.388 1.21307 1.07974 0
M  V30 2503 H 246.385 0.67029 4.11476 0
M  V30 2504 H 245.045 -0.121797 3.24471 0
M  V30 2505 H 246.056 3.53581 3.78419 0
M  V30 2506 H 242.733 0.97001 4.06075 0
M  V30 2507 H 244.123 4.98744 4.50226 0
M  V30 2508 N 246.843 -1.10192 1.12674 0
M  V30 2509 C 248.089 -1.82475 0.884915 0
M  V30 2510 C 248.422 -1.85093 -0.58773 0
M  V30 2511 O 247.697 -1.3134 -1.43457 0
M  V30 2512 C 247.98 -3.29018 1.46353 0
M  V30 2513 C 247.833 -3.34718 3.00473 0
M  V30 2514 C 249.152 -4.25473 1.12519 0
M  V30 2515 H 246.271 -0.662492 0.322915 0
M  V30 2516 H 248.913 -1.2913 1.39375 0
M  V30 2517 H 247.063 -3.74576 1.03077 0
M  V30 2518 H 248.735 -2.97622 3.52447 0
M  V30 2519 H 246.978 -2.74541 3.35872 0
M  V30 2520 H 247.649 -4.37918 3.36053 0
M  V30 2521 H 250.125 -3.88161 1.499 0
M  V30 2522 H 249.001 -5.26365 1.55663 0
M  V30 2523 H 249.262 -4.42084 0.0377407 0
M  V30 2524 N 248.321 -0.919034 -1.28029 0
M  V30 2525 C 249.253 -0.368762 -2.26214 0
M  V30 2526 C 250.266 0.495716 -1.55069 0
M  V30 2527 O 251.455 0.30974 -1.75792 0
M  V30 2528 C 248.555 0.491049 -3.35324 0
M  V30 2529 C 247.728 -0.352133 -4.3598 0
M  V30 2530 C 246.787 0.443622 -5.24327 0
M  V30 2531 O 245.813 -0.14566 -5.69014 0
M  V30 2532 N 247.015 1.74545 -5.53637 0
M  V30 2533 H 249.78 -1.21273 -2.74068 0
M  V30 2534 H 247.341 -0.785541 -1.41566 0
M  V30 2535 H 249.333 1.03026 -3.91366 0
M  V30 2536 H 247.903 1.23574 -2.87138 0
M  V30 2537 H 247.123 -1.07269 -3.79324 0
M  V30 2538 H 248.411 -0.928883 -5.00249 0
M  V30 2539 H 247.809 2.24666 -5.19174 0
M  V30 2540 H 246.366 2.23138 -6.12416 0
M  V30 2541 N 249.799 1.42003 -0.683588 0
M  V30 2542 C 251.21 1.84501 -0.285736 0
M  V30 2543 C 251.561 1.57213 1.17382 0
M  V30 2544 O 250.686 1.03642 1.89966 0
M  V30 2545 C 251.281 3.34912 -0.511821 0
M  V30 2546 C 249.84 3.76025 -0.168005 0
M  V30 2547 C 248.987 2.6551 -0.799983 0
M  V30 2548 H 251.938 1.31724 -0.885119 0
M  V30 2549 H 251.959 3.79784 0.233292 0
M  V30 2550 H 251.471 3.54741 -1.57418 0
M  V30 2551 H 249.572 3.61801 0.890567 0
M  V30 2552 H 249.685 4.75141 -0.614661 0
M  V30 2553 H 248.049 2.53654 -0.230568 0
M  V30 2554 H 248.832 2.8816 -1.86597 0
M  V30 2555 N 251.277 0.427512 1.51691 0
M  V30 2556 C 252.523 -0.142439 2.02299 0
M  V30 2557 C 252.856 -1.43214 1.31162 0
M  V30 2558 O 252.131 -1.89833 0.423511 0
M  V30 2559 C 252.414 -0.371301 3.58181 0
M  V30 2560 C 252.267 0.936358 4.39946 0
M  V30 2561 C 253.586 -1.14542 4.24933 0
M  V30 2562 H 250.705 -0.0502937 0.735282 0
M  V30 2563 H 253.347 0.564584 1.81418 0
M  V30 2564 H 251.497 -0.973559 3.76104 0
M  V30 2565 H 253.169 1.57184 4.33694 0
M  V30 2566 H 251.412 1.5432 4.05423 0
M  V30 2567 H 252.083 0.730388 5.47147 0
M  V30 2568 H 254.559 -0.635362 4.11221 0
M  V30 2569 H 253.435 -1.27431 5.33903 0
M  V30 2570 H 253.696 -2.17093 3.85127 0
M  V30 2571 N 252.755 -1.56801 0.158532 0
M  V30 2572 C 254.002 -1.9649 -0.489679 0
M  V30 2573 C 254.33 -1.04394 -1.6411 0
M  V30 2574 O 253.585 -0.0754401 -1.95555 0
M  V30 2575 C 253.884 -3.4235 -1.02623 0
M  V30 2576 C 253.55 -4.50899 0.00794526 0
M  V30 2577 C 252.212 -4.80312 0.292207 0
M  V30 2578 C 254.564 -5.16333 0.710584 0
M  V30 2579 C 251.892 -5.72461 1.28472 0
M  V30 2580 C 254.244 -6.09553 1.69199 0
M  V30 2581 C 252.908 -6.37339 1.98383 0
M  V30 2582 H 252.178 -0.719009 -0.179186 0
M  V30 2583 H 254.825 -1.8989 0.247798 0
M  V30 2584 H 253.13 -3.45838 -1.84128 0
M  V30 2585 H 254.827 -3.70393 -1.53656 0
M  V30 2586 H 251.417 -4.28015 -0.22379 0
M  V30 2587 H 255.601 -4.93732 0.504174 0
M  V30 2588 H 250.857 -5.92278 1.51714 0
M  V30 2589 H 255.031 -6.59327 2.24189 0
M  V30 2590 H 252.658 -7.08546 2.7544 0
M  V30 2591 N 254.233 0.115231 -1.57178 0
M  V30 2592 C 255.196 1.12526 -1.99676 0
M  V30 2593 C 256.196 1.34095 -0.88742 0
M  V30 2594 O 257.386 1.30548 -1.15337 0
M  V30 2595 C 254.518 2.4789 -2.34015 0
M  V30 2596 H 255.711 0.759912 -2.90113 0
M  V30 2597 H 253.264 0.359648 -1.52106 0
M  V30 2598 H 253.999 2.89339 -1.4647 0
M  V30 2599 H 253.784 2.33588 -3.14927 0
M  V30 2600 H 255.274 3.20575 -2.67622 0
M  V30 2601 N 255.711 1.52812 0.385517 0
M  V30 2602 C 256.957 1.68275 1.13188 0
M  V30 2603 C 257.29 0.423179 1.89533 0
M  V30 2604 O 256.565 -0.579113 1.85679 0
M  V30 2605 C 256.848 2.92001 2.1073 0
M  V30 2606 C 256.701 4.28067 1.38125 0
M  V30 2607 C 258.02 3.11283 3.11113 0
M  V30 2608 H 255.139 0.612352 0.410115 0
M  V30 2609 H 257.781 1.85415 0.414869 0
M  V30 2610 H 255.931 2.77519 2.71874 0
M  V30 2611 H 257.603 4.54324 0.799187 0
M  V30 2612 H 255.846 4.28388 0.683092 0
M  V30 2613 H 256.517 5.10733 2.09417 0
M  V30 2614 H 258.993 3.2482 2.6006 0
M  V30 2615 H 257.869 3.99325 3.76605 0
M  V30 2616 H 258.13 2.25656 3.80173 0
M  V30 2617 N 257.189 -0.644168 1.43834 0
M  V30 2618 C 258.119 -1.76814 1.52509 0
M  V30 2619 C 259.1 -1.65823 0.379052 0
M  V30 2620 O 260.285 -1.84781 0.597466 0
M  V30 2621 C 257.415 -3.15288 1.4564 0
M  V30 2622 C 256.369 -3.41053 2.58586 0
M  V30 2623 C 255.695 -4.79421 2.36769 0
M  V30 2624 C 256.995 -3.34902 4.00797 0
M  V30 2625 H 258.689 -1.69812 2.46586 0
M  V30 2626 H 256.235 -0.815542 1.1868 0
M  V30 2627 H 258.188 -3.93681 1.50311 0
M  V30 2628 H 256.912 -3.23043 0.480725 0
M  V30 2629 H 255.571 -2.65035 2.53282 0
M  V30 2630 H 255.219 -4.83863 1.37424 0
M  V30 2631 H 254.919 -4.9762 3.12487 0
M  V30 2632 H 256.443 -5.6006 2.43238 0
M  V30 2633 H 257.857 -4.03218 4.07539 0
M  V30 2634 H 256.254 -3.64637 4.76613 0
M  V30 2635 H 257.324 -2.32928 4.25291 0
M  V30 2636 N 258.668 -1.30515 -0.883378 0
M  V30 2637 C 259.945 -1.10086 -1.6168 0
M  V30 2638 C 260.325 0.349269 -2.08191 0
M  V30 2639 O 259.673 1.34105 -1.85008 0
M  V30 2640 C 259.883 -2.10315 -2.78511 0
M  V30 2641 C 261.231 -2.42119 -3.48803 0
M  V30 2642 O 262.255 -2.08638 -2.88702 0
M  V30 2643 O 261.114 -2.99396 -4.57192 0
M  V30 2644 H 258.208 -0.422907 -0.710689 0
M  V30 2645 H 260.754 -1.41947 -0.930015 0
M  V30 2646 H 259.526 -3.07917 -2.41459 0
M  V30 2647 H 259.149 -1.79282 -3.54886 0
M  V30 2648 N 260.146 1.09593 -1.13257 0
M  V30 2649 C 261.557 1.63229 -0.906274 0
M  V30 2650 C 261.908 1.8811 0.557578 0
M  V30 2651 O 261.033 1.62953 1.42391 0
M  V30 2652 C 261.628 2.96535 -1.63867 0
M  V30 2653 C 260.187 3.47003 -1.45828 0
M  V30 2654 C 259.334 2.2145 -1.66898 0
M  V30 2655 H 262.285 0.92978 -1.28611 0
M  V30 2656 H 262.306 3.64411 -1.09476 0
M  V30 2657 H 261.818 2.78394 -2.70404 0
M  V30 2658 H 259.919 3.70272 -0.415848 0
M  V30 2659 H 260.032 4.24551 -2.2202 0
M  V30 2660 H 258.396 2.30022 -1.09371 0
M  V30 2661 H 259.179 2.0583 -2.74752 0
M  V30 2662 N 261.624 0.925811 1.2754 0
M  V30 2663 C 262.87 0.566092 1.94739 0
M  V30 2664 C 263.203 -0.890057 1.72603 0
M  V30 2665 O 262.478 -1.63467 1.05399 0
M  V30 2666 C 262.761 0.89054 3.48915 0
M  V30 2667 C 262.614 2.4003 3.80402 0
M  V30 2668 C 263.933 0.395101 4.38323 0
M  V30 2669 H 261.052 0.20714 0.707292 0
M  V30 2670 H 263.694 1.15725 1.50691 0
M  V30 2671 H 261.844 0.387452 3.86563 0
M  V30 2672 H 263.516 2.97494 3.52555 0
M  V30 2673 H 261.759 2.85028 3.2702 0
M  V30 2674 H 262.43 2.57785 4.8811 0
M  V30 2675 H 264.906 0.826241 4.07814 0
M  V30 2676 H 263.782 0.651086 5.45025 0
M  V30 2677 H 264.043 -0.704798 4.36446 0
M  V30 2678 N 263.102 -1.41638 0.69111 0
M  V30 2679 C 264.332 -2.0533 0.228758 0
M  V30 2680 C 264.74 -1.52089 -1.12541 0
M  V30 2681 O 264.083 -0.662145 -1.71351 0
M  V30 2682 C 264.145 -3.59349 0.10407 0
M  V30 2683 C 263.809 -4.35362 1.38956 0
M  V30 2684 C 264.806 -4.64942 2.32648 0
M  V30 2685 C 262.491 -4.74714 1.64169 0
M  V30 2686 C 264.485 -5.32828 3.49818 0
M  V30 2687 C 262.172 -5.42338 2.81625 0
M  V30 2688 C 263.17 -5.71322 3.74273 0
M  V30 2689 O 262.858 -6.37554 4.89673 0
M  V30 2690 H 262.59 -0.667796 0.104997 0
M  V30 2691 H 265.144 -1.82477 0.942938 0
M  V30 2692 H 263.374 -3.80924 -0.665839 0
M  V30 2693 H 265.063 -4.04633 -0.320519 0
M  V30 2694 H 265.829 -4.35025 2.14425 0
M  V30 2695 H 261.708 -4.51538 0.929202 0
M  V30 2696 H 265.252 -5.55368 4.22152 0
M  V30 2697 H 261.149 -5.71673 2.99768 0
M  V30 2698 H 261.917 -6.56049 4.8943 0
M  V30 2699 N 264.58 -0.43555 -1.51462 0
M  V30 2700 C 265.808 0.130242 -2.0649 0
M  V30 2701 C 266.223 1.36614 -1.30315 0
M  V30 2702 O 265.58 1.78869 -0.362223 0
M  V30 2703 C 265.631 0.454253 -3.58635 0
M  V30 2704 O 265.352 -0.73259 -4.31931 0
M  V30 2705 C 266.853 1.07091 -4.3017 0
M  V30 2706 H 264.073 0.00871669 -0.670943 0
M  V30 2707 H 266.617 -0.614117 -1.95061 0
M  V30 2708 H 264.772 1.14851 -3.69984 0
M  V30 2709 H 265.186 -0.455787 -5.22516 0
M  V30 2710 H 266.66 1.24764 -5.37716 0
M  V30 2711 H 267.137 2.05144 -3.88346 0
M  V30 2712 H 267.743 0.416089 -4.2326 0
M  V30 2713 N 266.058 1.56714 -0.166846 0
M  V30 2714 C 267.288 2.00828 0.48494 0
M  V30 2715 C 267.696 1.04612 1.57648 0
M  V30 2716 O 267.039 0.0383201 1.8366 0
M  V30 2717 C 267.101 3.4137 1.12723 0
M  V30 2718 C 266.765 4.56654 0.177886 0
M  V30 2719 C 267.762 5.16402 -0.60207 0
M  V30 2720 C 265.447 5.02244 0.0750139 0
M  V30 2721 C 267.441 6.20167 -1.47215 0
M  V30 2722 C 265.128 6.05859 -0.798649 0
M  V30 2723 C 266.126 6.64691 -1.57082 0
M  V30 2724 O 265.814 7.66297 -2.42989 0
M  V30 2725 H 265.546 0.663587 0.128953 0
M  V30 2726 H 268.1 2.03692 -0.264365 0
M  V30 2727 H 266.33 3.35406 1.92457 0
M  V30 2728 H 268.019 3.69466 1.68076 0
M  V30 2729 H 268.785 4.82065 -0.53274 0
M  V30 2730 H 264.664 4.56167 0.665812 0
M  V30 2731 H 268.208 6.66016 -2.07531 0
M  V30 2732 H 264.105 6.39621 -0.869199 0
M  V30 2733 H 264.873 7.83601 -2.36455 0
M  V30 2734 N 267.536 -0.106894 1.57237 0
M  V30 2735 C 268.764 -0.826389 1.8968 0
M  V30 2736 C 269.179 -1.72856 0.759353 0
M  V30 2737 O 268.536 -1.80503 -0.269263 0
M  V30 2738 C 268.587 -1.64967 3.21665 0
M  V30 2739 O 268.308 -0.783804 4.31031 0
M  V30 2740 C 269.809 -2.47326 3.67892 0
M  V30 2741 H 267.029 -0.236927 0.627779 0
M  V30 2742 H 269.573 -0.0876593 2.04312 0
M  V30 2743 H 267.728 -2.34103 3.08666 0
M  V30 2744 H 268.142 -1.35284 5.06753 0
M  V30 2745 H 269.616 -3.00604 4.6297 0
M  V30 2746 H 270.093 -3.25247 2.95146 0
M  V30 2747 H 270.699 -1.83411 3.83719 0
M  V30 2748 N 269.014 -1.53014 -0.377408 0
M  V30 2749 C 269.944 -1.81589 -1.46791 0
M  V30 2750 C 270.925 -0.668622 -1.56408 0
M  V30 2751 O 272.11 -0.917337 -1.71168 0
M  V30 2752 C 269.24 -1.99519 -2.8427 0
M  V30 2753 C 268.194 -3.15249 -2.89486 0
M  V30 2754 C 267.52 -3.18451 -4.29527 0
M  V30 2755 C 268.82 -4.54084 -2.58079 0
M  V30 2756 H 270.514 -2.7291 -1.23127 0
M  V30 2757 H 268.06 -1.31319 -0.590883 0
M  V30 2758 H 270.013 -2.18092 -3.60575 0
M  V30 2759 H 268.737 -1.04897 -3.09296 0
M  V30 2760 H 267.396 -2.96477 -2.15631 0
M  V30 2761 H 267.044 -2.2149 -4.5161 0
M  V30 2762 H 266.744 -3.962 -4.33934 0
M  V30 2763 H 268.268 -3.39193 -5.07721 0
M  V30 2764 H 269.682 -4.72899 -3.24098 0
M  V30 2765 H 268.079 -5.33987 -2.7382 0
M  V30 2766 H 269.149 -4.60006 -1.53372 0
M  V30 2767 N 270.492 0.636531 -1.44174 0
M  V30 2768 C 271.903 1.21806 -1.41493 0
M  V30 2769 C 272.254 1.95785 -0.1275 0
M  V30 2770 O 271.379 2.02147 0.772376 0
M  V30 2771 C 271.974 2.21551 -2.56321 0
M  V30 2772 C 270.533 2.75143 -2.56853 0
M  V30 2773 C 269.68 1.50052 -2.33195 0
M  V30 2774 H 272.631 0.427531 -1.52833 0
M  V30 2775 H 272.652 3.0405 -2.28765 0
M  V30 2776 H 272.164 1.67679 -3.50008 0
M  V30 2777 H 270.265 3.33033 -1.67093 0
M  V30 2778 H 270.378 3.2155 -3.55165 0
M  V30 2779 H 268.742 1.77993 -1.82183 0
M  V30 2780 H 269.525 0.980903 -3.28988 0
M  V30 2781 N 271.97 1.30982 0.876444 0
M  V30 2782 C 273.381 1.18277 1.44456 0
M  V30 2783 C 273.732 -0.213265 1.95037 0
M  V30 2784 O 272.857 -1.11057 1.85729 0
M  V30 2785 C 273.452 2.1411 2.62569 0
M  V30 2786 C 272.011 2.05358 3.15444 0
M  V30 2787 C 271.158 2.03706 1.88146 0
M  V30 2788 H 274.109 1.43127 0.685584 0
M  V30 2789 H 274.13 1.72692 3.39054 0
M  V30 2790 H 273.642 3.15706 2.25724 0
M  V30 2791 H 271.743 1.06934 3.56926 0
M  V30 2792 H 271.856 2.94156 3.78166 0
M  V30 2793 H 270.22 1.48629 2.06837 0
M  V30 2794 H 271.003 3.07047 1.53547 0
M  V30 2795 N 273.449 -1.08991 1.13837 0
M  V30 2796 C 274.865 -1.33312 0.877506 0
M  V30 2797 C 275.065 -1.95587 -0.48456 0
M  V30 2798 O 274.121 -2.20509 -1.23013 0
M  V30 2799 C 275.434 -2.24045 2.0056 0
M  V30 2800 C 276.982 -2.37542 2.03821 0
M  V30 2801 C 277.457 -3.31614 3.15905 0
M  V30 2802 N 278.948 -3.39189 3.15445 0
M  V30 2803 C 279.683 -4.11992 3.98811 0
M  V30 2804 N 279.179 -4.87553 4.92203 0
M  V30 2805 N 280.972 -4.07762 3.86894 0
M  V30 2806 H 273.123 -0.669456 2.01574 0
M  V30 2807 H 275.386 -0.357482 0.878015 0
M  V30 2808 H 275.092 -1.85521 2.98789 0
M  V30 2809 H 274.966 -3.24466 1.92359 0
M  V30 2810 H 277.353 -2.75327 1.06202 0
M  V30 2811 H 277.434 -1.36884 2.16093 0
M  V30 2812 H 277.078 -2.94551 4.13766 0
M  V30 2813 H 277.008 -4.32186 3.0087 0
M  V30 2814 H 279.499 -2.85314 2.47799 0
M  V30 2815 H 279.812 -5.40549 5.52292 0
M  V30 2816 H 278.157 -4.86627 4.96205 0
M  V30 2817 H 281.348 -3.47833 3.13257 0
M  V30 2818 H 281.521 -4.64238 4.52092 0
M  V30 2819 N 274.927 -0.932562 -1.27047 0
M  V30 2820 C 275.859 -0.392734 -2.2581 0
M  V30 2821 C 276.872 0.479241 -1.55586 0
M  V30 2822 O 278.061 0.291078 -1.76111 0
M  V30 2823 C 275.161 0.455456 -3.35826 0
M  V30 2824 C 274.334 -0.398355 -4.35582 0
M  V30 2825 C 273.393 0.387985 -5.24768 0
M  V30 2826 O 272.419 -0.206003 -5.68827 0
M  V30 2827 N 273.621 1.68664 -5.55457 0
M  V30 2828 H 276.386 -1.24173 -2.72766 0
M  V30 2829 H 273.947 -0.800511 -1.40725 0
M  V30 2830 H 275.939 0.988692 -3.92437 0
M  V30 2831 H 274.509 1.20522 -2.88432 0
M  V30 2832 H 273.729 -1.11286 -3.78165 0
M  V30 2833 H 275.017 -0.981889 -4.99236 0
M  V30 2834 H 274.415 2.19147 -5.21528 0
M  V30 2835 H 272.972 2.1663 -6.14748 0
M  V30 2836 N 276.405 1.4127 -0.698611 0
M  V30 2837 C 277.651 2.01478 -0.231207 0
M  V30 2838 C 277.984 1.55215 1.16713 0
M  V30 2839 O 277.259 0.764672 1.78838 0
M  V30 2840 C 277.542 3.58912 -0.292281 0
M  V30 2841 C 277.395 4.15293 -1.72778 0
M  V30 2842 C 278.714 4.38736 0.346194 0
M  V30 2843 H 275.833 0.732025 -0.0854878 0
M  V30 2844 H 278.475 1.67977 -0.887906 0
M  V30 2845 H 276.625 3.87582 0.26686 0
M  V30 2846 H 278.297 3.97486 -2.341 0
M  V30 2847 H 276.54 3.7022 -2.26096 0
M  V30 2848 H 277.211 5.24452 -1.72202 0
M  V30 2849 H 279.687 4.15897 -0.130035 0
M  V30 2850 H 278.563 5.48221 0.272932 0
M  V30 2851 H 278.824 4.18425 1.42734 0
M  V30 2852 N 277.883 0.443576 1.51229 0
M  V30 2853 C 278.846 -0.353132 2.26463 0
M  V30 2854 C 279.846 -0.944338 1.3015 0
M  V30 2855 O 281.036 -0.817813 1.5381 0
M  V30 2856 C 278.168 -1.50023 3.06114 0
M  V30 2857 H 279.361 0.3063 2.98332 0
M  V30 2858 H 276.914 0.196902 1.55055 0
M  V30 2859 H 277.649 -2.19553 2.38677 0
M  V30 2860 H 277.434 -1.08241 3.76864 0
M  V30 2861 H 278.924 -2.06296 3.63087 0
M  V30 2862 N 279.361 -1.56624 0.175154 0
M  V30 2863 C 280.309 -2.19468 -0.770495 0
M  V30 2864 C 281.303 -1.15985 -1.23466 0
M  V30 2865 O 282.509 -1.34176 -1.19987 0
M  V30 2866 H 278.884 -0.703095 -0.266761 0
M  V30 2867 H 280.855 -2.97613 -0.216542 0
M  V30 2868 C 279.604 -2.85264 -1.98796 0
M  V30 2869 H 278.927 -3.64623 -1.63983 0
M  V30 2870 H 280.367 -3.327 -2.62843 0
M  V30 2871 C 278.826 -1.85239 -2.81404 0
M  V30 2872 O 279.356 -1.34024 -3.78682 0
M  V30 2873 N 277.562 -1.53911 -2.46495 0
M  V30 2874 H 277.109 -1.95751 -1.67449 0
M  V30 2875 H 277.067 -0.872382 -3.02054 0
M  V30 2876 N 280.839 0.0985539 -1.57292 0
M  V30 2877 C 282.087 0.801092 -1.85545 0
M  V30 2878 C 282.408 1.79438 -0.763353 0
M  V30 2879 O 281.678 1.94763 0.21073 0
M  V30 2880 H 280.258 0.29884 -0.684619 0
M  V30 2881 H 282.92 0.0810064 -1.94732 0
M  V30 2882 H 282.016 1.3338 -2.82163 0
M  V30 2883 N 282.317 1.53212 0.369288 0
M  V30 2884 C 283.563 1.69466 1.11397 0
M  V30 2885 C 283.896 0.443257 1.89074 0
M  V30 2886 O 283.171 -0.559386 1.86282 0
M  V30 2887 C 283.454 2.9422 2.07621 0
M  V30 2888 C 283.307 4.29508 1.33577 0
M  V30 2889 C 284.626 3.14565 3.07794 0
M  V30 2890 H 281.745 0.616667 0.403597 0
M  V30 2891 H 284.387 1.85845 0.395179 0
M  V30 2892 H 282.537 2.80387 2.68916 0
M  V30 2893 H 284.209 4.55147 0.750955 0
M  V30 2894 H 282.452 4.29088 0.637618 0
M  V30 2895 H 283.123 5.12926 2.03989 0
M  V30 2896 H 285.599 3.2756 2.56601 0
M  V30 2897 H 284.475 4.03297 3.72348 0
M  V30 2898 H 284.736 2.29675 3.77759 0
M  V30 2899 N 283.795 -0.628877 1.44509 0
M  V30 2900 C 285.041 -1.39045 1.47629 0
M  V30 2901 C 285.374 -1.93892 0.109343 0
M  V30 2902 O 284.649 -1.7379 -0.87334 0
M  V30 2903 C 284.932 -2.55408 2.53848 0
M  V30 2904 C 284.785 -2.05896 3.99909 0
M  V30 2905 C 286.104 -3.5759 2.56549 0
M  V30 2906 H 283.223 -0.504232 0.537512 0
M  V30 2907 H 285.865 -0.710854 1.76201 0
M  V30 2908 H 284.015 -3.13384 2.29615 0
M  V30 2909 H 285.687 -1.52734 4.35282 0
M  V30 2910 H 283.93 -1.37061 4.11578 0
M  V30 2911 H 284.601 -2.89681 4.69882 0
M  V30 2912 H 287.077 -3.09419 2.78207 0
M  V30 2913 H 285.953 -4.36527 3.32769 0
M  V30 2914 H 286.214 -4.11808 1.60832 0
M  V30 2915 N 285.273 -1.31445 -0.869486 0
M  V30 2916 C 286.55 -1.11795 -1.60503 0
M  V30 2917 C 286.93 0.327168 -2.08549 0
M  V30 2918 O 286.278 1.32135 -1.8642 0
M  V30 2919 C 286.488 -2.13258 -2.76265 0
M  V30 2920 C 287.836 -2.45805 -3.46215 0
M  V30 2921 O 288.86 -2.11688 -2.86473 0
M  V30 2922 O 287.719 -3.04228 -4.5399 0
M  V30 2923 H 284.813 -0.430421 -0.706163 0
M  V30 2924 H 287.359 -1.42925 -0.914907 0
M  V30 2925 H 286.131 -3.10461 -2.3818 0
M  V30 2926 H 285.754 -1.83035 -3.52964 0
M  V30 2927 N 286.751 1.08385 -1.14413 0
M  V30 2928 C 287.714 2.13486 -0.834048 0
M  V30 2929 C 288.714 1.59988 0.161418 0
M  V30 2930 O 289.904 1.74071 -0.0669575 0
M  V30 2931 C 287.036 3.4003 -0.243354 0
M  V30 2932 H 288.229 2.42425 -1.7655 0
M  V30 2933 H 285.782 1.24101 -0.950189 0
M  V30 2934 H 286.517 3.16726 0.696807 0
M  V30 2935 H 286.302 3.80157 -0.960367 0
M  V30 2936 H 287.792 4.17577 -0.0436242 0
M  V30 2937 N 288.23 0.939286 1.26551 0
M  V30 2938 C 289.477 0.585847 1.9384 0
M  V30 2939 C 289.805 -0.874784 1.73718 0
M  V30 2940 O 289.06 -1.64092 1.06642 0
M  V30 2941 C 289.359 0.872106 3.46596 0
M  V30 2942 C 289.025 2.31632 3.86856 0
M  V30 2943 C 287.687 2.71111 3.97558 0
M  V30 2944 C 290.039 3.25494 4.07066 0
M  V30 2945 C 287.367 4.03553 4.25866 0
M  V30 2946 C 289.719 4.57531 4.36862 0
M  V30 2947 C 288.383 4.96828 4.45778 0
M  V30 2948 H 287.653 0.214377 0.709312 0
M  V30 2949 H 290.3 1.18544 1.50398 0
M  V30 2950 H 288.605 0.18996 3.91339 0
M  V30 2951 H 290.302 0.577442 3.96821 0
M  V30 2952 H 286.892 2.00008 3.79071 0
M  V30 2953 H 291.076 2.9619 3.98227 0
M  V30 2954 H 286.332 4.33665 4.30981 0
M  V30 2955 H 290.506 5.30254 4.51446 0
M  V30 2956 H 288.133 5.99482 4.67468 0
M  V30 2957 N 289.708 -1.40897 0.706093 0
M  V30 2958 C 290.954 -2.01352 0.241889 0
M  V30 2959 C 291.287 -1.55832 -1.15888 0
M  V30 2960 O 290.562 -0.774145 -1.7843 0
M  V30 2961 C 290.845 -3.58752 0.311311 0
M  V30 2962 C 290.698 -4.1437 1.74978 0
M  V30 2963 C 292.017 -4.38914 -0.322922 0
M  V30 2964 H 289.136 -0.731562 0.0893687 0
M  V30 2965 H 291.778 -1.67504 0.896802 0
M  V30 2966 H 289.928 -3.87718 -0.246302 0
M  V30 2967 H 291.6 -3.96239 2.36205 0
M  V30 2968 H 289.843 -3.69016 2.28057 0
M  V30 2969 H 290.514 -5.23532 1.74981 0
M  V30 2970 H 292.99 -4.15822 0.152089 0
M  V30 2971 H 291.866 -5.48358 -0.243855 0
M  V30 2972 H 292.127 -4.19176 -1.40513 0
M  V30 2973 N 291.186 -0.45159 -1.50991 0
M  V30 2974 C 292.136 0.370861 -2.24964 0
M  V30 2975 C 293.12 0.978074 -1.2776 0
M  V30 2976 O 294.312 0.893854 -1.52772 0
M  V30 2977 C 291.441 1.46344 -3.10545 0
M  V30 2978 C 290.527 0.864924 -4.15187 0
M  V30 2979 N 290.918 -0.00311354 -5.058 0
M  V30 2980 C 289.216 1.13099 -4.31422 0
M  V30 2981 C 289.917 -0.340772 -5.80701 0
M  V30 2982 N 288.893 0.279203 -5.42883 0
M  V30 2983 H 292.695 -0.298134 -2.92384 0
M  V30 2984 H 290.209 -0.264528 -1.60231 0
M  V30 2985 H 292.206 2.06565 -3.62128 0
M  V30 2986 H 290.866 2.13463 -2.4467 0
M  V30 2987 H 291.877 -0.37058 -5.16572 0
M  V30 2988 H 288.554 1.79861 -3.76771 0
M  V30 2989 H 289.944 -1.048 -6.63677 0
M  V30 2990 N 292.664 1.56529 -0.183458 0
M  V30 2991 C 293.892 2.01623 0.464285 0
M  V30 2992 C 294.307 1.06366 1.55986 0
M  V30 2993 O 293.664 0.0665398 1.82379 0
M  V30 2994 C 293.715 3.46475 1.03139 0
M  V30 2995 O 293.436 4.38095 -0.0204675 0
M  V30 2996 C 294.937 4.0703 1.75617 0
M  V30 2997 H 292.157 0.660596 0.117704 0
M  V30 2998 H 294.701 2.02451 -0.288751 0
M  V30 2999 H 292.856 3.46383 1.73486 0
M  V30 3000 H 293.27 5.22973 0.399952 0
M  V30 3001 H 294.744 5.10271 2.10542 0
M  V30 3002 H 295.221 3.49819 2.65563 0
M  V30 3003 H 295.827 4.1086 1.09882 0
M  V30 3004 N 294.142 -0.090211 1.57342 0
M  V30 3005 C 295.388 -0.793982 1.86611 0
M  V30 3006 C 295.721 -1.78142 0.773252 0
M  V30 3007 O 294.996 -1.93271 -0.218304 0
M  V30 3008 C 295.279 -1.51839 3.26523 0
M  V30 3009 C 295.132 -0.548609 4.46442 0
M  V30 3010 C 296.451 -2.46779 3.64401 0
M  V30 3011 H 293.57 -0.287186 0.678744 0
M  V30 3012 H 296.212 -0.0575076 1.89913 0
M  V30 3013 H 294.362 -2.14617 3.23839 0
M  V30 3014 H 296.034 0.0725513 4.61243 0
M  V30 3015 H 294.277 0.137614 4.33582 0
M  V30 3016 H 294.948 -1.09271 5.41076 0
M  V30 3017 H 297.424 -1.94089 3.68061 0
M  V30 3018 H 296.3 -2.94479 4.63221 0
M  V30 3019 H 296.561 -3.30758 2.93346 0
M  V30 3020 N 295.62 -1.53406 -0.361157 0
M  V30 3021 C 296.53 -1.83122 -1.4664 0
M  V30 3022 C 297.546 -0.719943 -1.58407 0
M  V30 3023 O 298.722 -1.01046 -1.74218 0
M  V30 3024 C 295.787 -2.01891 -2.81853 0
M  V30 3025 C 294.848 -3.25784 -2.79577 0
M  V30 3026 C 294.081 -3.43648 -4.0834 0
M  V30 3027 O 294.304 -2.65714 -5.0473 0
M  V30 3028 O 293.238 -4.37018 -4.13883 0
M  V30 3029 H 297.064 -2.7703 -1.24451 0
M  V30 3030 H 294.649 -1.38841 -0.551678 0
M  V30 3031 H 296.531 -2.15782 -3.61962 0
M  V30 3032 H 295.206 -1.11173 -3.0401 0
M  V30 3033 H 294.113 -3.17312 -1.98151 0
M  V30 3034 H 295.446 -4.16439 -2.62373 0
M  V30 3035 N 297.098 0.621204 -1.44841 0
M  V30 3036 C 298.03 1.74615 -1.48466 0
M  V30 3037 C 299.043 1.58377 -0.37691 0
M  V30 3038 O 300.232 1.66508 -0.643215 0
M  V30 3039 C 297.332 3.12459 -1.31236 0
M  V30 3040 C 296.505 3.55064 -2.55438 0
M  V30 3041 C 295.564 4.71821 -2.32963 0
M  V30 3042 O 294.59 4.79628 -3.06505 0
M  V30 3043 N 295.792 5.64186 -1.36654 0
M  V30 3044 H 298.557 1.71973 -2.45449 0
M  V30 3045 H 296.118 0.806077 -1.40407 0
M  V30 3046 H 298.11 3.88302 -1.14032 0
M  V30 3047 H 296.68 3.09686 -0.4258 0
M  V30 3048 H 295.9 2.69324 -2.87851 0
M  V30 3049 H 297.188 3.80284 -3.38026 0
M  V30 3050 H 296.586 5.6058 -0.759344 0
M  V30 3051 H 295.143 6.39618 -1.25425 0
M  V30 3052 N 298.576 1.31904 0.862503 0
M  V30 3053 C 299.806 1.24817 1.64634 0
M  V30 3054 C 300.214 -0.187579 1.88268 0
M  V30 3055 O 299.557 -1.13253 1.44635 0
M  V30 3056 C 299.619 1.92996 3.03303 0
M  V30 3057 C 299.283 3.42336 3.02746 0
M  V30 3058 C 300.28 4.37956 2.80162 0
M  V30 3059 C 297.965 3.84147 3.2363 0
M  V30 3060 C 299.959 5.73361 2.78453 0
M  V30 3061 C 297.646 5.19663 3.21549 0
M  V30 3062 C 298.644 6.14081 2.98988 0
M  V30 3063 O 298.332 7.47118 2.96766 0
M  V30 3064 H 298.064 0.432222 0.519769 0
M  V30 3065 H 300.618 1.7445 1.08427 0
M  V30 3066 H 298.848 1.37922 3.61268 0
M  V30 3067 H 300.537 1.79723 3.63943 0
M  V30 3068 H 301.303 4.06981 2.63802 0
M  V30 3069 H 297.182 3.11083 3.40218 0
M  V30 3070 H 300.726 6.4703 2.60763 0
M  V30 3071 H 296.623 5.5027 3.37451 0
M  V30 3072 H 297.391 7.56382 3.12775 0
M  V30 3073 N 300.054 -1.07777 1.14986 0
M  V30 3074 C 301.3 -1.80557 0.923422 0
M  V30 3075 C 301.633 -1.86298 -0.548337 0
M  V30 3076 O 300.908 -1.34354 -1.40639 0
M  V30 3077 C 301.191 -3.25839 1.53299 0
M  V30 3078 C 301.044 -3.28269 3.07505 0
M  V30 3079 C 302.363 -4.22991 1.21518 0
M  V30 3080 H 299.482 -0.655493 0.336894 0
M  V30 3081 H 302.124 -1.26144 1.42083 0
M  V30 3082 H 300.274 -3.72306 1.10999 0
M  V30 3083 H 301.946 -2.90079 3.58681 0
M  V30 3084 H 300.189 -2.67355 3.4162 0
M  V30 3085 H 300.86 -4.30691 3.45266 0
M  V30 3086 H 303.336 -3.84894 1.581 0
M  V30 3087 H 302.212 -5.22945 1.66793 0
M  V30 3088 H 302.473 -4.41904 0.131505 0
M  V30 3089 N 301.532 -0.945985 -1.26051 0
M  V30 3090 C 302.76 -0.613025 -1.9761 0
M  V30 3091 C 303.175 0.813035 -1.70397 0
M  V30 3092 O 302.532 1.54274 -0.974979 0
M  V30 3093 C 302.583 -0.85159 -3.51326 0
M  V30 3094 O 302.304 -2.22157 -3.77595 0
M  V30 3095 C 303.805 -0.529831 -4.40122 0
M  V30 3096 H 301.025 -0.230593 -0.630133 0
M  V30 3097 H 303.569 -1.268 -1.60443 0
M  V30 3098 H 301.724 -0.243151 -3.86636 0
M  V30 3099 H 302.138 -2.2852 -4.721 0
M  V30 3100 H 303.612 -0.747348 -5.46917 0
M  V30 3101 H 304.089 0.535341 -4.35925 0
M  V30 3102 H 304.695 -1.11721 -4.10364 0
M  V30 3103 N 303.011 1.40521 -0.713556 0
M  V30 3104 C 303.958 2.30723 -0.059684 0
M  V30 3105 C 304.928 1.48079 0.752448 0
M  V30 3106 O 306.113 1.76823 0.71681 0
M  V30 3107 C 303.253 3.34274 0.857594 0
M  V30 3108 C 302.366 4.31986 0.0351536 0
M  V30 3109 C 301.501 5.22605 0.951724 0
M  V30 3110 C 300.54 6.11976 0.123253 0
M  V30 3111 N 299.677 6.9502 0.99459 0
M  V30 3112 H 304.517 2.86074 -0.834596 0
M  V30 3113 H 302.054 1.40879 -0.42326 0
M  V30 3114 H 304.012 3.92879 1.40364 0
M  V30 3115 H 302.642 2.8043 1.59871 0
M  V30 3116 H 301.694 3.7518 -0.628052 0
M  V30 3117 H 303.006 4.95101 -0.606347 0
M  V30 3118 H 302.16 5.86131 1.56638 0
M  V30 3119 H 300.899 4.59759 1.62705 0
M  V30 3120 H 299.904 5.47482 -0.50435 0
M  V30 3121 H 301.129 6.76881 -0.548539 0
M  V30 3122 H 299.075 6.34764 1.6556 0
M  V30 3123 H 298.992 7.54892 0.40908 0
M  V30 3124 H 300.26 7.62997 1.59549 0
M  V30 3125 N 304.489 0.459591 1.5075 0
M  V30 3126 C 305.9 0.00171547 1.867 0
M  V30 3127 C 306.251 -1.39934 1.37525 0
M  V30 3128 O 305.376 -2.03523 0.735349 0
M  V30 3129 C 305.971 -0.00366298 3.388 0
M  V30 3130 C 304.53 -0.406026 3.74204 0
M  V30 3131 C 303.677 0.38673 2.7459 0
M  V30 3132 H 306.628 0.674413 1.43657 0
M  V30 3133 H 306.649 -0.808371 3.71814 0
M  V30 3134 H 306.161 1.01617 3.74561 0
M  V30 3135 H 304.262 -1.43063 3.4404 0
M  V30 3136 H 304.375 -0.115362 4.78961 0
M  V30 3137 H 302.739 -0.158019 2.54209 0
M  V30 3138 H 303.522 1.40585 3.13194 0
M  V30 3139 N 305.967 -1.56429 0.191757 0
M  V30 3140 C 307.213 -1.97777 -0.448554 0
M  V30 3141 C 307.546 -1.07847 -1.61501 0
M  V30 3142 O 306.821 -0.129774 -1.94067 0
M  V30 3143 C 307.104 -3.48362 -0.911906 0
M  V30 3144 C 306.957 -4.4907 0.256136 0
M  V30 3145 C 308.276 -4.02561 -1.77857 0
M  V30 3146 H 305.395 -0.719071 -0.161572 0
M  V30 3147 H 308.037 -1.87896 0.282007 0
M  V30 3148 H 306.187 -3.56914 -1.53442 0
M  V30 3149 H 307.859 -4.5256 0.893733 0
M  V30 3150 H 306.102 -4.24181 0.908436 0
M  V30 3151 H 306.773 -5.51889 -0.11053 0
M  V30 3152 H 309.249 -3.96767 -1.25359 0
M  V30 3153 H 308.125 -5.08301 -2.07174 0
M  V30 3154 H 308.386 -3.47616 -2.73158 0
M  V30 3155 N 307.445 0.0818655 -1.57387 0
M  V30 3156 C 308.722 0.815343 -1.77796 0
M  V30 3157 C 309.102 1.96289 -0.77679 0
M  V30 3158 O 308.45 2.27691 0.192106 0
M  V30 3159 C 308.66 1.29765 -3.23978 0
M  V30 3160 C 310.008 1.7351 -3.8753 0
M  V30 3161 O 311.032 1.39356 -3.27808 0
M  V30 3162 O 309.891 2.36708 -4.92576 0
M  V30 3163 H 306.985 0.389914 -0.729312 0
M  V30 3164 H 309.531 0.0627213 -1.69584 0
M  V30 3165 H 308.303 0.47608 -3.88393 0
M  V30 3166 H 307.926 2.11189 -3.36875 0
M  V30 3167 N 308.923 1.53595 0.353017 0
M  V30 3168 C 309.886 1.80232 1.41594 0
M  V30 3169 C 310.886 0.673081 1.46035 0
M  V30 3170 O 312.076 0.941335 1.46576 0
M  V30 3171 C 309.208 1.93578 2.80607 0
M  V30 3172 H 310.401 2.75174 1.19244 0
M  V30 3173 H 307.954 1.44864 0.586872 0
M  V30 3174 H 308.689 1.00746 3.08254 0
M  V30 3175 H 308.474 2.75724 2.78781 0
M  V30 3176 H 309.964 2.15735 3.57558 0
M  V30 3177 N 310.401 -0.613514 1.45168 0
M  V30 3178 C 311.348 -1.72456 1.53387 0
M  V30 3179 C 312.318 -1.6169 0.380191 0
M  V30 3180 O 313.503 -1.81356 0.592836 0
M  V30 3181 C 310.643 -3.10753 1.50088 0
M  V30 3182 C 309.756 -3.32368 2.75963 0
M  V30 3183 C 308.891 -4.60737 2.64376 0
M  V30 3184 C 307.93 -4.7559 3.85332 0
M  V30 3185 N 307.067 -5.95253 3.72315 0
M  V30 3186 H 311.907 -1.64768 2.48305 0
M  V30 3187 H 309.444 -0.803503 1.23216 0
M  V30 3188 H 311.402 -3.90758 1.46164 0
M  V30 3189 H 310.032 -3.17413 0.587243 0
M  V30 3190 H 309.084 -2.4618 2.89999 0
M  V30 3191 H 310.396 -3.39218 3.65695 0
M  V30 3192 H 309.55 -5.48928 2.58385 0
M  V30 3193 H 308.289 -4.56275 1.72233 0
M  V30 3194 H 307.294 -3.85824 3.91688 0
M  V30 3195 H 308.519 -4.81854 4.78533 0
M  V30 3196 H 306.465 -5.91847 2.82937 0
M  V30 3197 H 306.382 -6.03236 4.55677 0
M  V30 3198 H 307.65 -6.85958 3.70246 0
M  V30 3199 N 311.879 -1.3236 -0.855495 0
M  V30 3200 C 313.128 -1.22226 -1.60448 0
M  V30 3201 C 313.441 0.214733 -1.94418 0
M  V30 3202 O 314.647 0.437917 -2.67945 0
M  V30 3203 C 313.103 -2.14063 -2.89318 0
M  V30 3204 C 312.711 -3.62839 -2.62777 0
M  V30 3205 C 314.455 -2.12764 -3.67331 0
M  V30 3206 C 312.362 -4.4664 -3.87643 0
M  V30 3207 H 311.292 -0.453904 -0.602069 0
M  V30 3208 H 313.943 -1.57314 -0.944698 0
M  V30 3209 H 312.325 -1.71889 -3.5675 0
M  V30 3210 H 313.499 -4.1335 -2.03662 0
M  V30 3211 H 311.814 -3.66261 -1.98096 0
M  V30 3212 H 314.411 -2.72611 -4.59987 0
M  V30 3213 H 314.754 -1.11841 -4.00995 0
M  V30 3214 H 315.287 -2.53214 -3.06802 0
M  V30 3215 H 312.026 -5.48373 -3.5912 0
M  V30 3216 H 311.546 -4.0088 -4.46156 0
M  V30 3217 H 313.225 -4.59597 -4.55389 0
M  V30 3218 N 313.357 1.07166 -1.15556 0
M  V30 3219 C 314.289 2.14341 -0.811815 0
M  V30 3220 C 315.302 1.61835 0.177015 0
M  V30 3221 O 316.491 1.78439 -0.0464996 0
M  V30 3222 C 313.591 3.38387 -0.186481 0
M  V30 3223 C 312.764 4.20238 -1.21321 0
M  V30 3224 C 311.823 5.2266 -0.609302 0
M  V30 3225 O 310.849 5.54719 -1.27576 0
M  V30 3226 N 312.051 5.77306 0.608099 0
M  V30 3227 H 314.816 2.44431 -1.73417 0
M  V30 3228 H 312.377 1.23089 -1.0517 0
M  V30 3229 H 314.369 4.04044 0.230339 0
M  V30 3230 H 312.939 3.05994 0.639249 0
M  V30 3231 H 312.159 3.50369 -1.80652 0
M  V30 3232 H 313.447 4.71736 -1.90638 0
M  V30 3233 H 312.845 5.53513 1.1679 0
M  V30 3234 H 311.402 6.44583 0.96725 0
M  V30 3235 N 314.835 0.952656 1.25548 0
M  V30 3236 C 316.112 0.523818 1.88456 0
M  V30 3237 C 316.492 -0.998871 1.85973 0
M  V30 3238 O 315.84 -1.86381 1.3219 0
M  V30 3239 C 316.05 1.0982 3.31271 0
M  V30 3240 C 317.398 1.17385 4.08051 0
M  V30 3241 O 318.422 1.04961 3.40384 0
M  V30 3242 O 317.281 1.36852 5.29088 0
M  V30 3243 H 314.375 0.172485 0.808813 0
M  V30 3244 H 316.921 1.04596 1.33633 0
M  V30 3245 H 315.693 2.1415 3.27499 0
M  V30 3246 H 315.316 0.559191 3.93648 0
M  V30 3247 N 316.313 -1.40141 0.720998 0
M  V30 3248 C 317.729 -1.54632 0.395113 0
M  V30 3249 C 317.929 -1.69115 -1.09555 0
M  V30 3250 O 316.985 -1.68377 -1.88163 0
M  V30 3251 C 318.298 -2.77177 1.1659 0
M  V30 3252 C 319.846 -2.91 1.15274 0
M  V30 3253 C 320.321 -4.16465 1.90579 0
M  V30 3254 N 321.812 -4.23476 1.87675 0
M  V30 3255 C 322.547 -5.19475 2.42762 0
M  V30 3256 N 322.043 -6.21348 3.06428 0
M  V30 3257 N 323.836 -5.11592 2.32874 0
M  V30 3258 H 315.987 -1.28986 1.68749 0
M  V30 3259 H 318.25 -0.62412 0.713567 0
M  V30 3260 H 317.956 -2.72771 2.22011 0
M  V30 3261 H 317.83 -3.69442 0.76108 0
M  V30 3262 H 320.217 -2.94907 0.106702 0
M  V30 3263 H 320.298 -1.99838 1.59682 0
M  V30 3264 H 319.942 -4.1332 2.95176 0
M  V30 3265 H 319.872 -5.06646 1.43587 0
M  V30 3266 H 322.363 -3.50497 1.41281 0
M  V30 3267 H 322.676 -6.91034 3.45965 0
M  V30 3268 H 321.021 -6.21777 3.10514 0
M  V30 3269 H 324.212 -4.30936 1.82789 0
M  V30 3270 H 324.385 -5.86233 2.76106 0
M  V30 3271 N 317.792 -0.46758 -1.50504 0
M  V30 3272 C 319.039 0.0886219 -2.02306 0
M  V30 3273 C 319.367 1.40037 -1.34981 0
M  V30 3274 O 318.622 1.90136 -0.463318 0
M  V30 3275 C 318.921 0.323995 -3.55928 0
M  V30 3276 C 318.587 -0.905618 -4.41712 0
M  V30 3277 C 317.249 -1.24275 -4.64875 0
M  V30 3278 C 319.601 -1.72448 -4.91845 0
M  V30 3279 C 316.929 -2.39888 -5.35417 0
M  V30 3280 C 319.281 -2.87185 -5.63656 0
M  V30 3281 C 317.945 -3.21317 -5.85074 0
M  V30 3282 H 317.215 0.0324291 -0.74029 0
M  V30 3283 H 319.862 -0.620945 -1.81153 0
M  V30 3284 H 318.167 1.11577 -3.75577 0
M  V30 3285 H 319.864 0.76826 -3.93572 0
M  V30 3286 H 316.454 -0.632956 -4.239 0
M  V30 3287 H 320.638 -1.4772 -4.73806 0
M  V30 3288 H 315.894 -2.66611 -5.50208 0
M  V30 3289 H 320.068 -3.50985 -6.01484 0
M  V30 3290 H 317.695 -4.1101 -6.39511 0
M  V30 3291 N 319.27 1.56325 -0.20005 0
M  V30 3292 C 320.233 2.18084 0.705132 0
M  V30 3293 C 321.233 1.13666 1.1374 0
M  V30 3294 O 322.423 1.39023 1.04968 0
M  V30 3295 C 319.555 2.78689 1.96329 0
M  V30 3296 H 320.748 2.99435 0.167023 0
M  V30 3297 H 318.301 1.56221 0.0495725 0
M  V30 3298 H 319.036 2.0115 2.5438 0
M  V30 3299 H 318.821 3.55133 1.66202 0
M  V30 3300 H 320.311 3.26096 2.60866 0
M  V30 3301 N 320.748 -0.0735177 1.57428 0
M  V30 3302 C 321.658 -1.10547 2.06922 0
M  V30 3303 C 322.674 -1.42506 0.998402 0
M  V30 3304 O 323.85 -1.52717 1.31299 0
M  V30 3305 C 320.915 -2.40019 2.50184 0
M  V30 3306 C 319.976 -2.15046 3.71556 0
M  V30 3307 C 319.209 -3.38345 4.12745 0
M  V30 3308 O 319.432 -4.47399 3.53822 0
M  V30 3309 O 318.366 -3.2666 5.05546 0
M  V30 3310 H 322.192 -0.715013 2.95163 0
M  V30 3311 H 319.777 -0.287531 1.46607 0
M  V30 3312 H 321.659 -3.16218 2.78539 0
M  V30 3313 H 320.334 -2.78447 1.65072 0
M  V30 3314 H 319.241 -1.36558 3.48285 0
M  V30 3315 H 320.574 -1.81499 4.57514 0
M  V30 3316 N 322.226 -1.5378 -0.344866 0
M  V30 3317 C 323.474 -1.70625 -1.08311 0
M  V30 3318 C 323.795 -0.471447 -1.89215 0
M  V30 3319 O 323.065 0.514616 -1.8902 0
M  V30 3320 H 321.645 -0.629058 -0.402859 0
M  V30 3321 H 324.307 -1.9103 -0.386459 0
M  V30 3322 H 323.403 -2.57656 -1.76124 0
M  V30 3323 N 323.704 0.605807 -1.45491 0
M  V30 3324 C 324.953 1.36086 -1.48874 0
M  V30 3325 C 325.266 1.95131 -0.135333 0
M  V30 3326 O 326.472 2.7146 -0.0468144 0
M  V30 3327 C 324.928 2.46518 -2.62215 0
M  V30 3328 C 324.536 1.93877 -4.03876 0
M  V30 3329 C 326.28 3.23512 -2.74846 0
M  V30 3330 C 324.187 3.01801 -5.08596 0
M  V30 3331 H 323.117 0.511497 -0.553974 0
M  V30 3332 H 325.768 0.649089 -1.71636 0
M  V30 3333 H 324.15 3.20388 -2.32739 0
M  V30 3334 H 325.324 1.26704 -4.43038 0
M  V30 3335 H 323.639 1.29622 -3.95711 0
M  V30 3336 H 326.236 4.04013 -3.50253 0
M  V30 3337 H 326.579 3.74631 -1.81542 0
M  V30 3338 H 327.112 2.56742 -3.03856 0
M  V30 3339 H 323.851 2.55597 -6.03614 0
M  V30 3340 H 323.371 3.67535 -4.74002 0
M  V30 3341 H 325.05 3.66152 -5.33424 0
M  V30 3342 N 325.182 1.32811 0.848464 0
M  V30 3343 C 326.112 1.24882 1.97299 0
M  V30 3344 C 327.093 0.131357 1.69592 0
M  V30 3345 O 328.278 0.319553 1.91553 0
M  V30 3346 C 325.408 0.97746 3.33261 0
M  V30 3347 C 324.362 2.05682 3.75338 0
M  V30 3348 C 323.688 1.63777 5.09 0
M  V30 3349 C 324.988 3.47254 3.90144 0
M  V30 3350 H 326.682 2.18966 2.04191 0
M  V30 3351 H 324.228 1.05413 0.981029 0
M  V30 3352 H 326.181 0.908513 4.1149 0
M  V30 3353 H 324.905 0.000980011 3.266 0
M  V30 3354 H 323.564 2.11603 2.99366 0
M  V30 3355 H 323.212 0.648569 4.98801 0
M  V30 3356 H 322.912 2.36 5.38124 0
M  V30 3357 H 324.436 1.5833 5.89715 0
M  V30 3358 H 325.85 3.43888 4.58709 0
M  V30 3359 H 324.247 4.1788 4.30693 0
M  V30 3360 H 325.317 3.86462 2.92874 0
M  V30 3361 N 326.66 -1.06551 1.16123 0
M  V30 3362 C 327.59 -2.15935 0.88851 0
M  V30 3363 C 328.571 -1.69306 -0.164135 0
M  V30 3364 O 329.756 -1.94193 -0.0167857 0
M  V30 3365 C 326.886 -3.45149 0.385942 0
M  V30 3366 C 325.84 -4.05271 1.3762 0
M  V30 3367 C 325.166 -5.29664 0.732137 0
M  V30 3368 C 326.466 -4.44355 2.74493 0
M  V30 3369 H 328.16 -2.39006 1.80323 0
M  V30 3370 H 325.706 -1.14866 0.868435 0
M  V30 3371 H 327.659 -4.21004 0.182647 0
M  V30 3372 H 326.383 -3.21689 -0.564274 0
M  V30 3373 H 325.042 -3.3147 1.56599 0
M  V30 3374 H 324.69 -5.02499 -0.224483 0
M  V30 3375 H 324.39 -5.70848 1.39307 0
M  V30 3376 H 325.914 -6.08218 0.538802 0
M  V30 3377 H 327.328 -5.11303 2.59311 0
M  V30 3378 H 325.725 -4.96515 3.37035 0
M  V30 3379 H 326.795 -3.55339 3.29943 0
M  V30 3380 N 328.138 -0.959301 -1.25041 0
M  V30 3381 C 329.366 -0.633949 -1.96948 0
M  V30 3382 C 329.781 0.794916 -1.7125 0
M  V30 3383 O 329.138 1.53231 -0.991287 0
M  V30 3384 C 329.189 -0.888805 -3.50403 0
M  V30 3385 O 328.91 -2.26149 -3.75218 0
M  V30 3386 C 330.411 -0.576482 -4.39536 0
M  V30 3387 H 327.631 -0.237263 -0.627652 0
M  V30 3388 H 330.175 -1.28495 -1.59089 0
M  V30 3389 H 328.33 -0.284145 -3.86357 0
M  V30 3390 H 328.744 -2.33514 -4.6965 0
M  V30 3391 H 330.218 -0.805314 -5.46094 0
M  V30 3392 H 330.695 0.489075 -4.36468 0
M  V30 3393 H 331.301 -1.16067 -4.09156 0
M  V30 3394 N 329.616 1.39756 -0.72842 0
M  V30 3395 C 330.546 2.33289 -0.0991354 0
M  V30 3396 C 331.527 1.53568 0.731489 0
M  V30 3397 O 332.712 1.81987 0.677807 0
M  V30 3398 C 329.842 3.3763 0.813834 0
M  V30 3399 C 328.796 4.2791 0.0878663 0
M  V30 3400 C 328.122 5.22894 1.11741 0
M  V30 3401 C 329.422 5.11314 -1.06563 0
M  V30 3402 H 331.116 2.86163 -0.880408 0
M  V30 3403 H 328.662 1.37591 -0.424819 0
M  V30 3404 H 330.615 4.0201 1.26355 0
M  V30 3405 H 329.339 2.83181 1.62715 0
M  V30 3406 H 327.998 3.65 -0.342159 0
M  V30 3407 H 327.646 4.64744 1.92412 0
M  V30 3408 H 327.346 5.84143 0.636477 0
M  V30 3409 H 328.87 5.90151 1.56697 0
M  V30 3410 H 330.284 5.69076 -0.694671 0
M  V30 3411 H 328.681 5.81671 -1.47577 0
M  V30 3412 H 329.751 4.46534 -1.89038 0
M  V30 3413 N 331.094 0.475555 1.50254 0
M  V30 3414 C 332.343 -0.0795996 2.01543 0
M  V30 3415 C 332.656 -1.4038 1.36209 0
M  V30 3416 O 333.862 -2.04415 1.7868 0
M  V30 3417 C 332.318 -0.192363 3.59386 0
M  V30 3418 C 331.926 1.12367 4.33679 0
M  V30 3419 C 333.67 -0.699238 4.18701 0
M  V30 3420 C 331.577 0.974453 5.83317 0
M  V30 3421 H 330.507 -0.0335228 0.753254 0
M  V30 3422 H 333.158 0.611128 1.73025 0
M  V30 3423 H 331.54 -0.946974 3.84511 0
M  V30 3424 H 332.714 1.88958 4.20276 0
M  V30 3425 H 331.029 1.562 3.85993 0
M  V30 3426 H 333.626 -0.827978 5.28251 0
M  V30 3427 H 333.969 -1.69171 3.80377 0
M  V30 3428 H 334.502 -0.00188807 3.978 0
M  V30 3429 H 331.241 1.94042 6.26121 0
M  V30 3430 H 330.761 0.248998 5.99283 0
M  V30 3431 H 332.44 0.642867 6.43798 0
M  V30 3432 N 332.573 -1.56217 0.208337 0
M  V30 3433 C 333.483 -2.23316 -0.718836 0
M  V30 3434 C 334.499 -1.23648 -1.22422 0
M  V30 3435 O 335.675 -1.56423 -1.26861 0
M  V30 3436 C 332.74 -2.88968 -1.91568 0
M  V30 3437 C 331.801 -4.03943 -1.45357 0
M  V30 3438 C 331.034 -4.66455 -2.59337 0
M  V30 3439 O 331.257 -4.27919 -3.77149 0
M  V30 3440 O 330.191 -5.55686 -2.31293 0
M  V30 3441 H 334.017 -3.03182 -0.177315 0
M  V30 3442 H 331.602 -1.49384 -0.0215402 0
M  V30 3443 H 333.484 -3.30455 -2.61491 0
M  V30 3444 H 332.159 -2.12071 -2.44556 0
M  V30 3445 H 331.066 -3.67052 -0.722746 0
M  V30 3446 H 332.399 -4.82543 -0.970219 0
M  V30 3447 N 334.051 0.0651679 -1.57465 0
M  V30 3448 C 335.328 0.79644 -1.78651 0
M  V30 3449 C 335.708 1.95454 -0.797566 0
M  V30 3450 O 335.056 2.27882 0.167946 0
M  V30 3451 C 335.266 1.26322 -3.25337 0
M  V30 3452 C 336.614 1.6939 -3.89348 0
M  V30 3453 O 337.638 1.35872 -3.29268 0
M  V30 3454 O 336.497 2.31471 -4.95059 0
M  V30 3455 H 333.591 0.382157 -0.733407 0
M  V30 3456 H 336.137 0.0447311 -1.69641 0
M  V30 3457 H 334.909 0.434859 -3.88876 0
M  V30 3458 H 334.532 2.07604 -3.39096 0
M  V30 3459 N 335.529 1.53961 0.336706 0
M  V30 3460 C 336.777 1.71197 1.07405 0
M  V30 3461 C 337.098 0.481475 1.88962 0
M  V30 3462 O 336.368 -0.504585 1.8929 0
M  V30 3463 H 334.948 0.631185 0.399517 0
M  V30 3464 H 337.61 1.91232 0.376323 0
M  V30 3465 H 336.706 2.58587 1.74755 0
M  V30 3466 N 337.007 -0.598083 1.45811 0
M  V30 3467 C 338.418 -1.18011 1.44673 0
M  V30 3468 C 338.769 -1.95378 0.179364 0
M  V30 3469 O 337.894 -2.04124 -0.718509 0
M  V30 3470 C 338.489 -2.14677 2.62105 0
M  V30 3471 C 337.048 -2.68236 2.64057 0
M  V30 3472 C 336.195 -1.43816 2.37091 0
M  V30 3473 H 339.146 -0.38686 1.53913 0
M  V30 3474 H 339.167 -2.97878 2.36746 0
M  V30 3475 H 338.679 -1.5834 3.5433 0
M  V30 3476 H 336.78 -3.28486 1.75864 0
M  V30 3477 H 336.893 -3.12021 3.63566 0
M  V30 3478 H 335.257 -1.731 1.86838 0
M  V30 3479 H 336.04 -0.893333 3.31473 0
M  V30 3480 N 338.485 -1.33259 -0.841409 0
M  V30 3481 C 339.432 -1.23302 -1.95103 0
M  V30 3482 C 340.402 -0.112204 -1.65721 0
M  V30 3483 O 341.587 -0.290038 -1.88583 0
M  V30 3484 C 338.727 -0.975583 -3.31023 0
M  V30 3485 C 337.84 -2.18243 -3.72819 0
M  V30 3486 C 336.975 -1.85936 -4.97595 0
M  V30 3487 C 336.014 -3.02866 -5.3192 0
M  V30 3488 N 335.151 -2.70565 -6.47873 0
M  V30 3489 H 339.991 -2.18207 -2.02952 0
M  V30 3490 H 337.528 -1.0851 -0.993173 0
M  V30 3491 H 339.486 -0.80677 -4.09325 0
M  V30 3492 H 338.116 -0.0632755 -3.22738 0
M  V30 3493 H 337.168 -2.46107 -2.90061 0
M  V30 3494 H 338.48 -3.05666 -3.94169 0
M  V30 3495 H 337.634 -1.65684 -5.83638 0
M  V30 3496 H 336.373 -0.957452 -4.78209 0
M  V30 3497 H 335.378 -3.23736 -4.44382 0
M  V30 3498 H 336.603 -3.93809 -5.53255 0
M  V30 3499 H 334.549 -1.8293 -6.29978 0
M  V30 3500 H 334.466 -3.51519 -6.69306 0
M  V30 3501 H 335.734 -2.53774 -7.37034 0
M  V30 3502 N 339.963 1.05934 -1.16686 0
M  V30 3503 C 340.926 2.11669 -0.879144 0
M  V30 3504 C 341.926 1.60294 0.127445 0
M  V30 3505 O 343.116 1.7389 -0.103865 0
M  V30 3506 C 340.248 3.39438 -0.315425 0
M  V30 3507 H 341.441 2.38626 -1.81653 0
M  V30 3508 H 338.994 1.22058 -0.976299 0
M  V30 3509 H 339.729 3.18132 0.629468 0
M  V30 3510 H 339.514 3.78034 -1.04079 0
M  V30 3511 H 341.004 4.17391 -0.132189 0
M  V30 3512 N 341.441 0.965919 1.2453 0
M  V30 3513 C 342.371 0.513476 2.27784 0
M  V30 3514 C 343.352 -0.445974 1.6415 0
M  V30 3515 O 344.537 -0.342485 1.91156 0
M  V30 3516 C 341.667 -0.198839 3.4673 0
M  V30 3517 C 340.621 0.676456 4.2262 0
M  V30 3518 C 339.947 -0.167248 5.34438 0
M  V30 3519 C 341.247 1.96017 4.84123 0
M  V30 3520 H 342.941 1.3765 2.65881 0
M  V30 3521 H 340.487 0.663321 1.27813 0
M  V30 3522 H 342.44 -0.526567 4.18097 0
M  V30 3523 H 341.164 -1.0962 3.07654 0
M  V30 3524 H 339.823 0.98743 3.53052 0
M  V30 3525 H 339.471 -1.0647 4.91603 0
M  V30 3526 H 339.171 0.415181 5.86131 0
M  V30 3527 H 340.695 -0.489688 6.08633 0
M  V30 3528 H 342.109 1.69814 5.47573 0
M  V30 3529 H 340.506 2.48918 5.4604 0
M  V30 3530 H 341.576 2.65622 4.05676 0
M  V30 3531 N 342.919 -1.39368 0.735821 0
M  V30 3532 C 343.866 -2.30599 0.0963825 0
M  V30 3533 C 344.836 -1.49257 -0.728794 0
M  V30 3534 O 346.021 -1.77941 -0.688588 0
M  V30 3535 C 343.161 -3.35596 -0.804305 0
M  V30 3536 C 342.274 -4.31987 0.0335761 0
M  V30 3537 C 341.409 -5.24053 -0.868461 0
M  V30 3538 C 340.448 -6.12095 -0.0258776 0
M  V30 3539 N 339.585 -6.96514 -0.883893 0
M  V30 3540 H 344.425 -2.8471 0.880002 0
M  V30 3541 H 341.962 -1.40188 0.445619 0
M  V30 3542 H 343.92 -3.95062 -1.34096 0
M  V30 3543 H 342.55 -2.82938 -1.55389 0
M  V30 3544 H 341.602 -3.74133 0.68766 0
M  V30 3545 H 342.914 -4.94074 0.685036 0
M  V30 3546 H 342.068 -5.88549 -1.47293 0
M  V30 3547 H 340.807 -4.62289 -1.5537 0
M  V30 3548 H 339.812 -5.4661 0.591386 0
M  V30 3549 H 341.037 -6.75923 0.656156 0
M  V30 3550 H 338.983 -6.37318 -1.55441 0
M  V30 3551 H 338.9 -7.55448 -0.288931 0
M  V30 3552 H 340.168 -7.65439 -1.4739 0
M  V30 3553 N 344.397 -0.483516 -1.5 0
M  V30 3554 C 345.307 0.309172 -2.32554 0
M  V30 3555 C 346.323 0.984159 -1.43493 0
M  V30 3556 O 347.499 0.969399 -1.76535 0
M  V30 3557 C 344.564 1.36979 -3.18493 0
M  V30 3558 C 343.625 0.710095 -4.23387 0
M  V30 3559 C 342.858 1.72018 -5.05218 0
M  V30 3560 O 343.081 2.94813 -4.88305 0
M  V30 3561 O 342.015 1.28515 -5.8802 0
M  V30 3562 H 345.841 -0.366064 -3.01486 0
M  V30 3563 H 343.426 -0.24514 -1.47375 0
M  V30 3564 H 345.308 1.98385 -3.71781 0
M  V30 3565 H 343.983 2.02828 -2.52275 0
M  V30 3566 H 342.89 0.0567539 -3.74057 0
M  V30 3567 H 344.223 0.0943557 -4.9211 0
M  V30 3568 N 345.875 1.56104 -0.216619 0
M  V30 3569 C 347.286 1.844 0.292128 0
M  V30 3570 C 347.637 1.13788 1.59833 0
M  V30 3571 O 346.762 0.405888 2.12559 0
M  V30 3572 C 347.357 3.3452 0.53681 0
M  V30 3573 C 345.916 3.63151 0.989876 0
M  V30 3574 C 345.063 2.77255 0.0502302 0
M  V30 3575 H 348.014 1.52481 -0.439926 0
M  V30 3576 H 348.035 3.54459 1.38345 0
M  V30 3577 H 347.547 3.85885 -0.414031 0
M  V30 3578 H 345.648 3.17238 1.95425 0
M  V30 3579 H 345.761 4.71177 0.867698 0
M  V30 3580 H 344.125 2.48555 0.556117 0
M  V30 3581 H 344.908 3.31416 -0.89544 0
M  V30 3582 N 347.353 -0.0568162 1.57498 0
M  V30 3583 C 348.263 -1.08346 2.08083 0
M  V30 3584 C 349.279 -1.41439 1.01346 0
M  V30 3585 O 350.455 -1.51316 1.32912 0
M  V30 3586 C 347.52 -2.37352 2.52715 0
M  V30 3587 C 346.581 -2.11093 3.73816 0
M  V30 3588 C 345.814 -3.33949 4.1631 0
M  V30 3589 O 346.037 -4.43622 3.58547 0
M  V30 3590 O 344.971 -3.21279 5.08983 0
M  V30 3591 H 348.797 -0.683667 2.95905 0
M  V30 3592 H 346.382 -0.271965 1.46904 0
M  V30 3593 H 348.264 -3.13246 2.81877 0
M  V30 3594 H 346.939 -2.76681 1.68016 0
M  V30 3595 H 345.846 -1.32856 3.49714 0
M  V30 3596 H 347.179 -1.76637 4.59413 0
M  V30 3597 N 348.832 -1.54138 -0.328536 0
M  V30 3598 C 349.78 -1.83894 -1.42428 0
M  V30 3599 C 350.774 -0.710478 -1.53781 0
M  V30 3600 O 351.98 -0.894062 -1.56226 0
M  V30 3601 H 348.355 -0.582837 -0.475189 0
M  V30 3602 H 350.326 -2.75537 -1.14552 0
M  V30 3603 C 349.075 -2.07866 -2.78724 0
M  V30 3604 H 348.398 -2.94158 -2.7076 0
M  V30 3605 H 349.838 -2.32644 -3.54476 0
M  V30 3606 C 348.297 -0.868689 -3.25508 0
M  V30 3607 O 348.827 -0.0754908 -4.01629 0
M  V30 3608 N 347.033 -0.681711 -2.82491 0
M  V30 3609 H 346.58 -1.32838 -2.20708 0
M  V30 3610 H 346.538 0.126374 -3.14146 0
M  V30 3611 N 350.31 0.590341 -1.46126 0
M  V30 3612 C 351.54 1.37304 -1.54373 0
M  V30 3613 C 351.948 1.88332 -0.181071 0
M  V30 3614 O 351.291 1.63852 0.830559 0
M  V30 3615 C 351.353 2.6012 -2.48149 0
M  V30 3616 C 351.017 2.30613 -3.94546 0
M  V30 3617 C 352.014 1.89915 -4.83971 0
M  V30 3618 C 349.699 2.42993 -4.39613 0
M  V30 3619 C 351.693 1.61981 -6.16475 0
M  V30 3620 C 349.38 2.14672 -5.72153 0
M  V30 3621 C 350.378 1.7423 -6.60404 0
M  V30 3622 O 350.066 1.46251 -7.90485 0
M  V30 3623 H 349.798 0.426086 -0.524811 0
M  V30 3624 H 352.352 0.72539 -1.92165 0
M  V30 3625 H 350.582 3.27664 -2.05361 0
M  V30 3626 H 352.271 3.22182 -2.46887 0
M  V30 3627 H 353.037 1.79872 -4.50412 0
M  V30 3628 H 348.916 2.73435 -3.71153 0
M  V30 3629 H 352.46 1.30341 -6.85315 0
M  V30 3630 H 348.357 2.24337 -6.05263 0
M  V30 3631 H 349.125 1.6016 -8.02677 0
M  V30 3632 N 351.788 1.33704 0.83433 0
M  V30 3633 C 353.065 1.16011 1.57483 0
M  V30 3634 C 353.445 -0.27176 2.09343 0
M  V30 3635 O 352.793 -1.27146 1.89858 0
M  V30 3636 C 353.003 2.20507 2.70514 0
M  V30 3637 C 354.351 2.54898 3.39577 0
M  V30 3638 O 355.375 2.19209 2.80759 0
M  V30 3639 O 354.234 3.16158 4.45765 0
M  V30 3640 H 351.328 0.448992 0.694503 0
M  V30 3641 H 353.874 1.453 0.876691 0
M  V30 3642 H 352.646 3.16667 2.29865 0
M  V30 3643 H 352.269 1.92329 3.47987 0
M  V30 3644 N 353.266 -1.05314 1.17247 0
M  V30 3645 C 354.512 -1.78557 0.961513 0
M  V30 3646 C 354.845 -1.87419 -0.508697 0
M  V30 3647 O 354.12 -1.37307 -1.37757 0
M  V30 3648 C 354.403 -3.22514 1.60176 0
M  V30 3649 C 354.256 -3.21673 3.14399 0
M  V30 3650 C 355.575 -4.20318 1.30463 0
M  V30 3651 H 352.694 -0.6482 0.350723 0
M  V30 3652 H 355.336 -1.23102 1.44727 0
M  V30 3653 H 353.486 -3.69867 1.18871 0
M  V30 3654 H 355.158 -2.82405 3.64753 0
M  V30 3655 H 353.401 -2.60048 3.47214 0
M  V30 3656 H 354.072 -4.23271 3.54324 0
M  V30 3657 H 356.548 -3.81454 1.66229 0
M  V30 3658 H 355.424 -5.19289 1.77848 0
M  V30 3659 H 355.685 -4.41526 0.22521 0
M  V30 3660 N 354.744 -0.972509 -1.24016 0
M  V30 3661 C 356.16 -0.679827 -1.44397 0
M  V30 3662 C 356.36 0.756716 -1.86751 0
M  V30 3663 O 355.416 1.53007 -2.00861 0
M  V30 3664 C 356.729 -1.66803 -2.50195 0
M  V30 3665 C 358.277 -1.68119 -2.64017 0
M  V30 3666 C 358.752 -2.65748 -3.73017 0
M  V30 3667 N 360.243 -2.64219 -3.8045 0
M  V30 3668 C 360.978 -3.36433 -4.64328 0
M  V30 3669 N 360.474 -4.1818 -5.52356 0
M  V30 3670 N 362.267 -3.25235 -4.58453 0
M  V30 3671 H 354.418 -1.90059 -0.948228 0
M  V30 3672 H 356.681 -0.818527 -0.478245 0
M  V30 3673 H 356.387 -2.69498 -2.25973 0
M  V30 3674 H 356.261 -1.4446 -3.48441 0
M  V30 3675 H 358.648 -0.661319 -2.87594 0
M  V30 3676 H 358.729 -1.94525 -1.66113 0
M  V30 3677 H 358.373 -3.67872 -3.50189 0
M  V30 3678 H 358.303 -2.36619 -4.70446 0
M  V30 3679 H 360.794 -2.04887 -3.17537 0
M  V30 3680 H 361.107 -4.70157 -6.13329 0
M  V30 3681 H 359.452 -4.22273 -5.52006 0
M  V30 3682 H 362.643 -2.60829 -3.88698 0
M  V30 3683 H 362.816 -3.81776 -5.23594 0
M  V30 3684 N 356.222 1.38976 -0.743202 0
M  V30 3685 C 357.185 2.28901 -0.117014 0
M  V30 3686 C 358.185 1.46698 0.658503 0
M  V30 3687 O 359.375 1.67274 0.486305 0
M  V30 3688 C 356.507 3.30309 0.84315 0
M  V30 3689 H 357.7 2.8578 -0.909373 0
M  V30 3690 H 355.253 1.47761 -0.509547 0
M  V30 3691 H 355.988 2.785 1.66157 0
M  V30 3692 H 355.773 3.91029 0.289594 0
M  V30 3693 H 357.263 3.97577 1.2776 0
M  V30 3694 N 357.7 0.491464 1.49741 0
M  V30 3695 C 358.648 -0.305837 2.30581 0
M  V30 3696 C 359.642 -0.971642 1.38764 0
M  V30 3697 O 360.848 -0.90042 1.5586 0
M  V30 3698 H 357.223 -0.117482 0.742767 0
M  V30 3699 H 359.194 0.396093 2.95759 0
M  V30 3700 C 357.943 -1.36319 3.19863 0
M  V30 3701 H 357.266 -0.860258 3.90435 0
M  V30 3702 H 358.706 -1.89323 3.79385 0
M  V30 3703 C 357.165 -2.37621 2.38826 0
M  V30 3704 O 357.695 -3.43311 2.08567 0
M  V30 3705 N 355.901 -2.09849 2.01026 0
M  V30 3706 H 355.448 -1.23922 2.25834 0
M  V30 3707 H 355.406 -2.77859 1.47112 0
M  V30 3708 N 359.178 -1.55987 0.224894 0
M  V30 3709 C 360.424 -1.98684 -0.406502 0
M  V30 3710 C 360.757 -1.11248 -1.59177 0
M  V30 3711 O 360.032 -0.170909 -1.93748 0
M  V30 3712 C 360.315 -3.50218 -0.837808 0
M  V30 3713 C 360.168 -4.48426 0.351332 0
M  V30 3714 C 361.487 -4.06243 -1.69278 0
M  V30 3715 H 358.606 -0.722337 -0.146283 0
M  V30 3716 H 361.248 -1.87255 0.321799 0
M  V30 3717 H 359.398 -3.60089 -1.45837 0
M  V30 3718 H 361.07 -4.50562 0.989526 0
M  V30 3719 H 359.313 -4.22159 0.998207 0
M  V30 3720 H 359.984 -5.52 0.00655905 0
M  V30 3721 H 362.46 -3.99337 -1.16914 0
M  V30 3722 H 361.336 -5.12581 -1.96346 0
M  V30 3723 H 361.597 -3.53332 -2.65723 0
M  V30 3724 N 360.656 0.0484629 -1.57525 0
M  V30 3725 C 361.589 1.08755 -2.00618 0
M  V30 3726 C 362.567 1.36272 -0.887058 0
M  V30 3727 O 363.751 1.49255 -1.15131 0
M  V30 3728 C 360.878 2.42675 -2.36277 0
M  V30 3729 C 359.924 2.31142 -3.58435 0
M  V30 3730 S 360.757 1.68326 -5.08357 0
M  V30 3731 C 361.913 3.03776 -5.47239 0
M  V30 3732 H 362.146 0.720415 -2.88439 0
M  V30 3733 H 359.679 0.257801 -1.52233 0
M  V30 3734 H 361.637 3.19699 -2.57494 0
M  V30 3735 H 360.298 2.76541 -1.48942 0
M  V30 3736 H 359.491 3.29957 -3.80978 0
M  V30 3737 H 359.093 1.62258 -3.36969 0
M  V30 3738 H 361.385 4.00106 -5.46737 0
M  V30 3739 H 362.328 2.85988 -6.47778 0
M  V30 3740 H 362.736 3.05456 -4.74718 0
M  V30 3741 N 362.134 1.5431 0.320358 0
M  V30 3742 C 363.38 1.73859 1.05568 0
M  V30 3743 C 363.735 0.507807 1.85578 0
M  V30 3744 O 363.028 -0.499789 1.84967 0
M  V30 3745 C 363.222 2.95639 2.00828 0
M  V30 3746 C 363.051 4.30444 1.30186 0
M  V30 3747 C 361.821 4.94544 1.03703 0
M  V30 3748 C 364.019 5.0929 0.716138 0
M  V30 3749 N 362.001 6.13172 0.298846 0
M  V30 3750 C 363.372 6.19903 0.109729 0
M  V30 3751 C 365.427 4.94034 0.619269 0
M  V30 3752 C 364.13 7.16924 -0.584153 0
M  V30 3753 C 366.156 5.91369 -0.0609184 0
M  V30 3754 C 365.518 7.01336 -0.656258 0
M  V30 3755 H 361.617 0.688988 0.36989 0
M  V30 3756 H 364.201 1.9177 0.336494 0
M  V30 3757 H 362.372 2.79188 2.70016 0
M  V30 3758 H 364.104 3.03802 2.6737 0
M  V30 3759 H 360.859 4.54536 1.33019 0
M  V30 3760 H 361.283 6.76977 -0.0561964 0
M  V30 3761 H 365.925 4.0916 1.06526 0
M  V30 3762 H 363.643 8.01354 -1.04197 0
M  V30 3763 H 367.229 5.81642 -0.135552 0
M  V30 3764 H 366.109 7.75359 -1.17423 0
M  V30 3765 N 363.613 -0.582584 1.46437 0
M  V30 3766 C 364.576 -1.67366 1.56592 0
M  V30 3767 C 365.576 -1.54575 0.443072 0
M  V30 3768 O 366.766 -1.59191 0.707381 0
M  V30 3769 C 363.898 -3.06791 1.48634 0
M  V30 3770 H 365.091 -1.5972 2.5383 0
M  V30 3771 H 362.644 -0.800432 1.34249 0
M  V30 3772 H 363.379 -3.19993 0.526763 0
M  V30 3773 H 363.164 -3.17484 2.30101 0
M  V30 3774 H 364.654 -3.86218 1.58826 0
M  V30 3775 N 365.091 -1.34144 -0.827227 0
M  V30 3776 C 366.054 -1.25264 -1.91942 0
M  V30 3777 C 367.054 -0.168866 -1.59911 0
M  V30 3778 O 368.244 -0.421198 -1.69031 0
M  V30 3779 C 365.376 -0.932952 -3.27885 0
M  V30 3780 H 366.569 -2.22357 -2.0124 0
M  V30 3781 H 364.122 -1.1837 -1.0207 0
M  V30 3782 H 364.857 0.0349917 -3.24281 0
M  V30 3783 H 364.642 -1.71682 -3.52516 0
M  V30 3784 H 366.132 -0.895874 -4.07877 0
M  V30 3785 N 366.569 1.04691 -1.17803 0
M  V30 3786 C 367.797 1.81446 -0.99423 0
M  V30 3787 C 368.212 1.83174 0.457459 0
M  V30 3788 O 367.569 1.26265 1.31771 0
M  V30 3789 C 367.62 3.27334 -1.5341 0
M  V30 3790 O 367.341 3.25798 -2.92895 0
M  V30 3791 C 368.842 4.20759 -1.39559 0
M  V30 3792 H 366.062 0.571599 -0.351447 0
M  V30 3793 H 368.606 1.31982 -1.56208 0
M  V30 3794 H 366.761 3.74052 -1.00815 0
M  V30 3795 H 367.175 4.17144 -3.17949 0
M  V30 3796 H 368.649 5.21084 -1.82141 0
M  V30 3797 H 369.126 4.37856 -0.343394 0
M  V30 3798 H 369.732 3.79901 -1.91195 0
M  V30 3799 N 368.047 0.979072 1.23499 0
M  V30 3800 C 368.979 0.476271 2.24197 0
M  V30 3801 C 369.992 -0.421166 1.57258 0
M  V30 3802 O 371.181 -0.225515 1.7707 0
M  V30 3803 C 368.281 -0.330503 3.37285 0
M  V30 3804 C 367.454 0.559744 4.33804 0
M  V30 3805 C 366.513 -0.192954 5.25846 0
M  V30 3806 O 365.539 0.416978 5.67671 0
M  V30 3807 N 366.741 -1.47932 5.61334 0
M  V30 3808 H 369.506 1.34211 2.67969 0
M  V30 3809 H 367.067 0.852189 1.37657 0
M  V30 3810 H 369.059 -0.842361 3.95836 0
M  V30 3811 H 367.629 -1.09734 2.92707 0
M  V30 3812 H 366.849 1.25245 3.73775 0
M  V30 3813 H 368.137 1.1665 4.95248 0
M  V30 3814 H 367.535 -1.9964 5.29302 0
M  V30 3815 H 366.092 -1.93664 6.22364 0
M  V30 3816 N 369.525 -1.3858 0.750561 0
M  V30 3817 C 370.488 -2.28836 0.129152 0
M  V30 3818 C 371.488 -1.47045 -0.650714 0
M  V30 3819 O 372.678 -1.6753 -0.477428 0
M  V30 3820 C 369.81 -3.30751 -0.825622 0
M  V30 3821 H 371.003 -2.85294 0.924516 0
M  V30 3822 H 368.556 -1.47489 0.517376 0
M  V30 3823 H 369.291 -2.79378 -1.64677 0
M  V30 3824 H 369.076 -3.91177 -0.268852 0
M  V30 3825 H 370.566 -3.98249 -1.2565 0
M  V30 3826 N 371.003 -0.499398 -1.49478 0
M  V30 3827 C 371.933 0.269244 -2.31943 0
M  V30 3828 C 372.914 0.964054 -1.40143 0
M  V30 3829 O 374.099 0.955767 -1.69052 0
M  V30 3830 C 371.229 1.33504 -3.20615 0
M  V30 3831 C 370.183 0.760202 -4.21195 0
M  V30 3832 C 369.509 1.9264 -4.98792 0
M  V30 3833 C 370.809 -0.247661 -5.21712 0
M  V30 3834 H 372.503 -0.419082 -2.96452 0
M  V30 3835 H 370.049 -0.202988 -1.42562 0
M  V30 3836 H 372.002 1.88048 -3.77115 0
M  V30 3837 H 370.726 2.05253 -2.54045 0
M  V30 3838 H 369.385 0.23653 -3.65836 0
M  V30 3839 H 369.033 2.63154 -4.28671 0
M  V30 3840 H 368.733 1.54785 -5.66847 0
M  V30 3841 H 370.257 2.4762 -5.58137 0
M  V30 3842 H 371.671 0.209579 -5.72917 0
M  V30 3843 H 370.068 -0.541962 -5.97648 0
M  V30 3844 H 371.138 -1.16409 -4.7072 0
M  V30 3845 N 372.481 1.55866 -0.233164 0
M  V30 3846 C 373.429 2.22176 0.68851 0
M  V30 3847 C 374.423 1.20487 1.19076 0
M  V30 3848 O 375.629 1.38536 1.14925 0
M  V30 3849 H 372.004 0.712511 0.240483 0
M  V30 3850 H 373.975 2.98212 0.105935 0
M  V30 3851 C 372.724 2.92446 1.88071 0
M  V30 3852 H 372.047 3.70458 1.50337 0
M  V30 3853 H 373.487 3.42226 2.50314 0
M  V30 3854 C 371.946 1.95555 2.74335 0
M  V30 3855 O 372.476 1.47986 3.73447 0
M  V30 3856 N 370.682 1.62953 2.40613 0
M  V30 3857 H 370.229 2.01831 1.60069 0
M  V30 3858 H 370.187 0.983886 2.98609 0
M  V30 3859 N 373.959 -0.0401083 1.57549 0
M  V30 3860 C 375.207 -0.731677 1.8839 0
M  V30 3861 C 375.528 -1.76481 0.829425 0
M  V30 3862 O 374.798 -1.95411 -0.1383 0
M  V30 3863 H 373.378 -0.273225 0.695239 0
M  V30 3864 H 376.04 -0.00867725 1.94898 0
M  V30 3865 H 375.136 -1.22816 2.86919 0
M  V30 3866 N 375.437 -1.54477 -0.31217 0
M  V30 3867 C 376.367 -1.87652 -1.38957 0
M  V30 3868 C 377.348 -0.734358 -1.53431 0
M  V30 3869 O 378.533 -0.98911 -1.67123 0
M  V30 3870 C 375.663 -2.11396 -2.75552 0
M  V30 3871 C 374.617 -3.27243 -2.75855 0
M  V30 3872 C 373.943 -3.36382 -4.15633 0
M  V30 3873 C 375.243 -4.64622 -2.38587 0
M  V30 3874 H 376.937 -2.77887 -1.11442 0
M  V30 3875 H 374.483 -1.33707 -0.534655 0
M  V30 3876 H 376.436 -2.33189 -3.51 0
M  V30 3877 H 375.16 -1.17921 -3.04569 0
M  V30 3878 H 373.819 -3.05356 -2.02863 0
M  V30 3879 H 373.467 -2.40445 -4.41809 0
M  V30 3880 H 373.167 -4.14249 -4.1674 0
M  V30 3881 H 374.691 -3.60422 -4.92877 0
M  V30 3882 H 376.105 -4.86219 -3.03749 0
M  V30 3883 H 374.502 -5.45121 -2.50925 0
M  V30 3884 H 375.572 -4.66097 -1.33723 0
M  V30 3885 N 376.915 0.57481 -1.46744 0
M  V30 3886 C 378.164 1.32898 -1.51727 0
M  V30 3887 C 378.477 1.948 -0.176692 0
M  V30 3888 O 379.683 2.71299 -0.104385 0
M  V30 3889 C 378.139 2.40901 -2.67385 0
M  V30 3890 C 377.747 1.85266 -4.07898 0
M  V30 3891 C 379.491 3.17609 -2.81646 0
M  V30 3892 C 377.398 2.90945 -5.14883 0
M  V30 3893 H 376.328 0.499631 -0.564699 0
M  V30 3894 H 378.979 0.612536 -1.72975 0
M  V30 3895 H 377.361 3.15379 -2.39483 0
M  V30 3896 H 378.535 1.17278 -4.45626 0
M  V30 3897 H 376.85 1.21199 -3.98371 0
M  V30 3898 H 379.447 3.96493 -3.58744 0
M  V30 3899 H 379.79 3.70696 -1.89448 0
M  V30 3900 H 380.323 2.50239 -3.09233 0
M  V30 3901 H 377.062 2.42736 -6.089 0
M  V30 3902 H 376.582 3.57398 -4.81691 0
M  V30 3903 H 378.261 3.54755 -5.41071 0
M  V30 3904 N 378.394 1.34581 0.820102 0
M  V30 3905 C 379.642 1.26845 1.57336 0
M  V30 3906 C 379.963 -0.160667 1.94337 0
M  V30 3907 O 379.233 -1.09396 1.6251 0
M  V30 3908 H 377.813 0.466514 0.583415 0
M  V30 3909 H 380.475 1.68526 0.979027 0
M  V30 3910 H 379.571 1.87513 2.4949 0
M  V30 3911 N 379.872 -1.04064 1.18357 0
M  V30 3912 C 380.835 -2.10243 0.912707 0
M  V30 3913 C 381.835 -1.60477 -0.101928 0
M  V30 3914 O 383.025 -1.73703 0.131517 0
M  V30 3915 C 380.157 -3.38893 0.369387 0
M  V30 3916 H 381.35 -2.35706 1.85426 0
M  V30 3917 H 378.903 -1.20489 0.995594 0
M  V30 3918 H 379.638 -3.19094 -0.578776 0
M  V30 3919 H 379.423 -3.76331 1.1008 0
M  V30 3920 H 380.913 -4.17128 0.198575 0
M  V30 3921 N 381.35 -0.985608 -1.22978 0
M  V30 3922 C 382.598 -0.656087 -1.91154 0
M  V30 3923 C 382.919 0.813561 -1.77218 0
M  V30 3924 O 382.189 1.58244 -1.1548 0
M  V30 3925 H 380.769 -0.239674 -0.707506 0
M  V30 3926 H 383.431 -1.25054 -1.49491 0
M  V30 3927 H 382.527 -0.912253 -2.9847 0
M  V30 3928 N 382.828 1.3818 -0.7579 0
M  V30 3929 C 384.074 2.00316 -0.316453 0
M  V30 3930 C 384.407 1.60026 1.10025 0
M  V30 3931 O 383.682 0.839835 1.75434 0
M  V30 3932 C 383.965 3.57349 -0.444245 0
M  V30 3933 C 383.818 4.07591 -1.90236 0
M  V30 3934 C 385.137 4.3981 0.1598 0
M  V30 3935 H 382.256 0.727741 -0.116459 0
M  V30 3936 H 384.898 1.6406 -0.958352 0
M  V30 3937 H 383.048 3.88365 0.102233 0
M  V30 3938 H 384.72 3.87199 -2.50748 0
M  V30 3939 H 382.963 3.60297 -2.41595 0
M  V30 3940 H 383.634 5.16677 -1.94291 0
M  V30 3941 H 386.11 4.14971 -0.306314 0
M  V30 3942 H 384.986 5.48885 0.0401675 0
M  V30 3943 H 385.247 4.24102 1.24859 0
M  V30 3944 N 384.306 0.507319 1.49211 0
M  V30 3945 C 385.717 0.0611118 1.866 0
M  V30 3946 C 386.068 -1.35488 1.41907 0
M  V30 3947 O 385.193 -2.0108 0.799726 0
M  V30 3948 C 385.788 0.104125 3.3864 0
M  V30 3949 C 384.347 -0.28677 3.75306 0
M  V30 3950 C 383.494 0.473893 2.73221 0
M  V30 3951 H 386.445 0.719775 1.41439 0
M  V30 3952 H 386.466 -0.689672 3.74198 0
M  V30 3953 H 385.978 1.13482 3.71138 0
M  V30 3954 H 384.079 -1.32046 3.48417 0
M  V30 3955 H 384.192 0.0370745 4.79086 0
M  V30 3956 H 382.556 -0.0770644 2.54583 0
M  V30 3957 H 383.339 1.50478 3.08563 0
M  V30 3958 N 385.784 -1.5574 0.241426 0
M  V30 3959 C 386.716 -2.18469 -0.693091 0
M  V30 3960 C 387.729 -1.15942 -1.14286 0
M  V30 3961 O 388.918 -1.42832 -1.07058 0
M  V30 3962 C 386.018 -2.7696 -1.95311 0
M  V30 3963 C 385.191 -4.04853 -1.65568 0
M  V30 3964 C 384.25 -4.47715 -2.76474 0
M  V30 3965 O 383.276 -5.14205 -2.44094 0
M  V30 3966 N 384.478 -4.15044 -4.05855 0
M  V30 3967 H 387.243 -2.99292 -0.156388 0
M  V30 3968 H 384.804 -1.61784 0.0611752 0
M  V30 3969 H 386.796 -3.02594 -2.68736 0
M  V30 3970 H 385.366 -2.00326 -2.39975 0
M  V30 3971 H 384.586 -3.86865 -0.756886 0
M  V30 3972 H 385.874 -4.88246 -1.43153 0
M  V30 3973 H 385.272 -3.61654 -4.34998 0
M  V30 3974 H 383.829 -4.45526 -4.75762 0
M  V30 3975 N 387.262 0.0317525 -1.57568 0
M  V30 3976 C 388.539 0.758366 -1.803 0
M  V30 3977 C 388.919 1.93718 -0.838845 0
M  V30 3978 O 388.267 2.28187 0.119571 0
M  V30 3979 C 388.477 1.19392 -3.27943 0
M  V30 3980 C 389.825 1.61094 -3.92854 0
M  V30 3981 O 390.849 1.28857 -3.32076 0
M  V30 3982 O 389.708 2.20918 -4.99858 0
M  V30 3983 H 386.802 0.366514 -0.741348 0
M  V30 3984 H 389.348 0.00873765 -1.69698 0
M  V30 3985 H 388.12 0.352275 -3.89711 0
M  V30 3986 H 387.743 2.00365 -3.43424 0
M  V30 3987 N 388.74 1.54641 0.303973 0
M  V30 3988 C 389.986 1.74969 1.03718 0
M  V30 3989 C 390.341 0.527461 1.85029 0
M  V30 3990 O 389.634 -0.480143 1.85486 0
M  V30 3991 C 389.828 2.97753 1.97681 0
M  V30 3992 C 389.657 4.318 1.25613 0
M  V30 3993 C 388.427 4.95616 0.984518 0
M  V30 3994 C 390.625 5.10021 0.662081 0
M  V30 3995 N 388.607 6.13455 0.233794 0
M  V30 3996 C 389.978 6.19984 0.0439736 0
M  V30 3997 C 392.033 4.94663 0.566835 0
M  V30 3998 C 390.736 7.16264 -0.66016 0
M  V30 3999 C 392.762 5.91271 -0.123637 0
M  V30 4000 C 392.124 7.00601 -0.730608 0
M  V30 4001 H 388.223 0.692873 0.362562 0
M  V30 4002 H 390.807 1.92116 0.316135 0
M  V30 4003 H 388.978 2.82036 2.6704 0
M  V30 4004 H 390.71 3.06621 2.64132 0
M  V30 4005 H 387.465 4.55921 1.28191 0
M  V30 4006 H 387.889 6.76879 -0.127996 0
M  V30 4007 H 392.531 4.10267 1.02181 0
M  V30 4008 H 390.249 8.00204 -1.12691 0
M  V30 4009 H 393.835 5.81466 -0.197236 0
M  V30 4010 H 392.715 7.7407 -1.2564 0
M  V30 4011 N 390.218 -0.567019 1.47046 0
M  V30 4012 C 391.181 -1.65696 1.58359 0
M  V30 4013 C 392.181 -1.54097 0.459441 0
M  V30 4014 O 393.371 -1.58432 0.724225 0
M  V30 4015 C 390.503 -3.05197 1.51879 0
M  V30 4016 H 391.696 -1.57019 2.5551 0
M  V30 4017 H 389.249 -0.786148 1.3509 0
M  V30 4018 H 389.984 -3.19417 0.560673 0
M  V30 4019 H 389.769 -3.15025 2.33455 0
M  V30 4020 H 391.259 -3.84511 1.62913 0
M  V30 4021 N 391.696 -1.35014 -0.812953 0
M  V30 4022 C 392.924 -1.31031 -1.6012 0
M  V30 4023 C 393.339 0.113558 -1.88458 0
M  V30 4024 O 392.696 1.06363 -1.48301 0
M  V30 4025 C 392.747 -2.10872 -2.93624 0
M  V30 4026 O 392.468 -3.47706 -2.66518 0
M  V30 4027 C 393.969 -2.14401 -3.88004 0
M  V30 4028 H 391.189 -0.45037 -0.497401 0
M  V30 4029 H 393.733 -1.77775 -1.01076 0
M  V30 4030 H 391.888 -1.67744 -3.492 0
M  V30 4031 H 392.302 -3.89097 -3.51715 0
M  V30 4032 H 393.776 -2.74669 -4.78812 0
M  V30 4033 H 394.253 -1.14105 -4.24119 0
M  V30 4034 H 394.859 -2.57662 -3.38364 0
M  V30 4035 N 393.175 1.03435 -1.18907 0
M  V30 4036 C 394.125 2.09924 -0.889706 0
M  V30 4037 C 395.109 1.60261 0.143216 0
M  V30 4038 O 396.301 1.76892 -0.0617122 0
M  V30 4039 C 393.43 3.40669 -0.424168 0
M  V30 4040 C 392.516 3.97082 -1.48952 0
M  V30 4041 N 392.907 4.27227 -2.70759 0
M  V30 4042 C 391.205 4.25029 -1.35152 0
M  V30 4043 C 391.906 4.7246 -3.39347 0
M  V30 4044 N 390.882 4.7366 -2.66735 0
M  V30 4045 H 394.684 2.31116 -1.81555 0
M  V30 4046 H 392.198 1.21246 -1.08042 0
M  V30 4047 H 394.195 4.16461 -0.191176 0
M  V30 4048 H 392.855 3.20901 0.495263 0
M  V30 4049 H 393.866 4.16678 -3.0757 0
M  V30 4050 H 390.543 4.14554 -0.495126 0
M  V30 4051 H 391.933 5.04751 -4.43481 0
M  V30 4052 N 394.653 0.992116 1.22453 0
M  V30 4053 C 395.586 0.486701 2.22949 0
M  V30 4054 C 396.564 -0.45259 1.56174 0
M  V30 4055 O 397.748 -0.378317 1.84665 0
M  V30 4056 C 394.875 -0.294537 3.37417 0
M  V30 4057 C 393.921 0.590628 4.22391 0
M  V30 4058 S 394.754 2.04546 4.94895 0
M  V30 4059 C 395.91 1.27369 6.12803 0
M  V30 4060 H 396.143 1.33828 2.65475 0
M  V30 4061 H 393.676 0.799023 1.32117 0
M  V30 4062 H 395.634 -0.739241 4.03789 0
M  V30 4063 H 394.295 -1.12139 2.934 0
M  V30 4064 H 393.488 -0.0104375 5.03999 0
M  V30 4065 H 393.09 0.972064 3.61147 0
M  V30 4066 H 395.382 0.540943 6.75337 0
M  V30 4067 H 396.325 2.06502 6.7732 0
M  V30 4068 H 396.733 0.787324 5.58983 0
M  V30 4069 N 396.131 -1.37776 0.765217 0
M  V30 4070 C 397.061 -2.32945 0.160953 0
M  V30 4071 C 398.042 -1.55454 -0.690516 0
M  V30 4072 O 399.227 -1.83721 -0.629318 0
M  V30 4073 C 396.357 -3.39669 -0.724031 0
M  V30 4074 C 395.311 -4.27992 0.0256173 0
M  V30 4075 C 394.637 -5.25673 -0.978383 0
M  V30 4076 C 395.937 -5.08309 1.20082 0
M  V30 4077 H 397.631 -2.83728 0.955969 0
M  V30 4078 H 395.177 -1.36416 0.461149 0
M  V30 4079 H 397.13 -4.05219 -1.15652 0
M  V30 4080 H 395.854 -2.87396 -1.5515 0
M  V30 4081 H 394.513 -3.63964 0.438812 0
M  V30 4082 H 394.161 -4.69682 -1.80022 0
M  V30 4083 H 393.861 -5.85625 -0.481378 0
M  V30 4084 H 395.385 -5.94098 -1.40995 0
M  V30 4085 H 396.799 -5.67034 0.845307 0
M  V30 4086 H 395.196 -5.77554 1.62947 0
M  V30 4087 H 396.266 -4.41365 2.00811 0
M  V30 4088 N 397.609 -0.515225 -1.4894 0
M  V30 4089 C 398.857 0.0241671 -2.02086 0
M  V30 4090 C 399.178 1.3616 -1.3959 0
M  V30 4091 O 398.448 1.87841 -0.556121 0
M  V30 4092 H 397.028 0.0119203 -0.746905 0
M  V30 4093 H 399.69 -0.675702 -1.82812 0
M  V30 4094 H 398.786 0.143385 -3.1177 0
M  V30 4095 N 399.087 1.5561 -0.249682 0
M  V30 4096 C 400.037 2.18157 0.662673 0
M  V30 4097 C 401.021 1.1383 1.13717 0
M  V30 4098 O 402.213 1.39731 1.08648 0
M  V30 4099 C 399.342 2.88672 1.85805 0
M  V30 4100 C 398.428 4.00258 1.40193 0
M  V30 4101 N 398.819 5.01473 0.660213 0
M  V30 4102 C 397.117 4.12864 1.68698 0
M  V30 4103 C 397.818 5.80155 0.423695 0
M  V30 4104 N 396.794 5.34533 0.988721 0
M  V30 4105 H 400.596 2.93769 0.0878688 0
M  V30 4106 H 398.11 1.62316 -0.0521183 0
M  V30 4107 H 400.107 3.31912 2.5227 0
M  V30 4108 H 398.767 2.14564 2.43705 0
M  V30 4109 H 399.778 5.16971 0.310047 0
M  V30 4110 H 396.455 3.4993 2.27717 0
M  V30 4111 H 397.845 6.71688 -0.168616 0
M  V30 4112 N 400.565 -0.0233959 1.57583 0
M  V30 4113 C 401.475 -1.03907 2.10334 0
M  V30 4114 C 402.491 -1.39257 1.04323 0
M  V30 4115 O 403.667 -1.48462 1.36091 0
M  V30 4116 C 400.732 -2.31938 2.57693 0
M  V30 4117 C 399.793 -2.03117 3.78209 0
M  V30 4118 C 399.026 -3.25043 4.233 0
M  V30 4119 O 399.249 -4.35916 3.67876 0
M  V30 4120 O 398.183 -3.10411 5.15683 0
M  V30 4121 H 402.009 -0.620748 2.97288 0
M  V30 4122 H 399.594 -0.240743 1.47448 0
M  V30 4123 H 401.476 -3.07196 2.88458 0
M  V30 4124 H 400.151 -2.73055 1.73847 0
M  V30 4125 H 399.058 -1.25408 3.52454 0
M  V30 4126 H 400.391 -1.66852 4.63056 0
M  V30 4127 N 402.043 -1.548 -0.295768 0
M  V30 4128 C 402.973 -1.89115 -1.36959 0
M  V30 4129 C 403.954 -0.75059 -1.52644 0
M  V30 4130 O 405.139 -1.00678 -1.66065 0
M  V30 4131 C 402.269 -2.14307 -2.73295 0
M  V30 4132 C 401.223 -3.30151 -2.72368 0
M  V30 4133 C 400.549 -3.40772 -4.12042 0
M  V30 4134 C 401.849 -4.67126 -2.33646 0
M  V30 4135 H 403.543 -2.79053 -1.08488 0
M  V30 4136 H 401.089 -1.34266 -0.520443 0
M  V30 4137 H 403.042 -2.36898 -3.48507 0
M  V30 4138 H 401.766 -1.21145 -3.03301 0
M  V30 4139 H 400.425 -3.0749 -1.99613 0
M  V30 4140 H 400.073 -2.45117 -4.39234 0
M  V30 4141 H 399.773 -4.18645 -4.12322 0
M  V30 4142 H 401.297 -3.6563 -4.89027 0
M  V30 4143 H 402.711 -4.89414 -2.98575 0
M  V30 4144 H 401.108 -5.47751 -2.45129 0
M  V30 4145 H 402.178 -4.67489 -1.28772 0
M  V30 4146 N 403.521 0.559213 -1.47345 0
M  V30 4147 C 404.749 1.34194 -1.57479 0
M  V30 4148 C 405.164 1.87463 -0.224261 0
M  V30 4149 O 404.521 1.64888 0.782185 0
M  V30 4150 C 404.572 2.51324 -2.59843 0
M  V30 4151 O 404.293 2.00256 -3.89653 0
M  V30 4152 C 405.794 3.43563 -2.80142 0
M  V30 4153 H 403.014 0.409136 -0.531835 0
M  V30 4154 H 405.558 0.677609 -1.92947 0
M  V30 4155 H 403.713 3.13699 -2.27314 0
M  V30 4156 H 404.127 2.76708 -4.4557 0
M  V30 4157 H 405.601 4.2217 -3.55635 0
M  V30 4158 H 406.078 3.9698 -1.87892 0
M  V30 4159 H 406.684 2.87005 -3.1386 0
M  V30 4160 N 404.999 1.35443 0.805782 0
M  V30 4161 C 405.962 1.28301 1.89925 0
M  V30 4162 C 406.962 0.194285 1.59622 0
M  V30 4163 O 408.152 0.448036 1.6834 0
M  V30 4164 C 405.284 0.984997 3.2636 0
M  V30 4165 H 406.477 2.2553 1.97677 0
M  V30 4166 H 404.03 1.19979 1.00173 0
M  V30 4167 H 404.765 0.016603 3.24296 0
M  V30 4168 H 404.55 1.77269 3.4974 0
M  V30 4169 H 406.04 0.960651 4.064 0
M  V30 4170 N 406.477 -1.02803 1.19454 0
M  V30 4171 C 407.41 -2.107 0.876396 0
M  V30 4172 C 408.388 -1.61741 -0.166897 0
M  V30 4173 O 409.572 -1.88451 -0.0430195 0
M  V30 4174 C 406.699 -3.37262 0.311758 0
M  V30 4175 C 405.745 -4.05093 1.33424 0
M  V30 4176 S 406.578 -4.50498 2.89503 0
M  V30 4177 C 407.734 -5.80277 2.34584 0
M  V30 4178 H 407.967 -2.37362 1.79016 0
M  V30 4179 H 405.5 -1.15755 1.02177 0
M  V30 4180 H 407.458 -4.10499 -0.00748752 0
M  V30 4181 H 406.119 -3.08693 -0.58032 0
M  V30 4182 H 405.312 -4.9611 0.888302 0
M  V30 4183 H 404.914 -3.3803 1.60037 0
M  V30 4184 H 407.206 -6.54873 1.73633 0
M  V30 4185 H 408.149 -6.29651 3.23952 0
M  V30 4186 H 408.557 -5.3599 1.77131 0
M  V30 4187 N 407.956 -0.998596 -1.21925 0
M  V30 4188 C 408.906 -0.524743 -2.21879 0
M  V30 4189 C 409.89 0.41017 -1.55584 0
M  V30 4190 O 411.082 0.236063 -1.75419 0
M  V30 4191 C 408.211 0.153636 -3.42956 0
M  V30 4192 C 407.297 -0.801918 -4.16449 0
M  V30 4193 N 407.688 -1.95211 -4.66611 0
M  V30 4194 C 405.986 -0.618972 -4.41684 0
M  V30 4195 C 406.687 -2.55234 -5.22715 0
M  V30 4196 N 405.663 -1.83451 -5.1171 0
M  V30 4197 H 409.465 -1.40189 -2.58311 0
M  V30 4198 H 406.979 -0.86159 -1.3766 0
M  V30 4199 H 408.976 0.510534 -4.13762 0
M  V30 4200 H 407.636 1.02684 -3.08036 0
M  V30 4201 H 408.647 -2.33271 -4.62391 0
M  V30 4202 H 405.324 0.207694 -4.16983 0
M  V30 4203 H 406.714 -3.52471 -5.72026 0
M  V30 4204 N 409.434 1.37368 -0.772513 0
M  V30 4205 C 410.682 1.99279 -0.336516 0
M  V30 4206 C 411.003 1.6163 1.09091 0
M  V30 4207 O 410.273 0.882109 1.74916 0
M  V30 4208 H 408.853 0.737063 -0.121435 0
M  V30 4209 H 411.515 1.67836 -0.990809 0
M  V30 4210 H 410.611 3.09332 -0.414763 0
M  V30 4211 N 410.912 0.523116 1.48665 0
M  V30 4212 C 411.842 -0.23231 2.32342 0
M  V30 4213 C 412.823 -0.941637 1.41659 0
M  V30 4214 O 414.008 -0.928751 1.70552 0
M  V30 4215 C 411.138 -1.28387 3.22698 0
M  V30 4216 C 410.092 -0.693098 4.22351 0
M  V30 4217 C 409.418 -1.8468 5.01794 0
M  V30 4218 C 410.718 0.33063 5.21252 0
M  V30 4219 H 412.412 0.466192 2.95748 0
M  V30 4220 H 409.958 0.225643 1.42221 0
M  V30 4221 H 411.911 -1.82024 3.80059 0
M  V30 4222 H 410.635 -2.01186 2.57278 0
M  V30 4223 H 409.294 -0.178299 3.66166 0
M  V30 4224 H 408.942 -2.56301 4.32804 0
M  V30 4225 H 408.642 -1.45747 5.69238 0
M  V30 4226 H 410.166 -2.38709 5.62006 0
M  V30 4227 H 411.58 -0.118407 5.73178 0
M  V30 4228 H 409.977 0.636974 5.9671 0
M  V30 4229 H 411.047 1.23883 4.68808 0
M  V30 4230 N 412.39 -1.55475 0.257931 0
M  V30 4231 C 413.667 -1.91155 -0.414629 0
M  V30 4232 C 414.047 -1.18008 -1.75035 0
M  V30 4233 O 413.395 -0.301193 -2.26506 0
M  V30 4234 C 413.605 -3.44283 -0.571859 0
M  V30 4235 C 414.953 -4.15744 -0.862678 0
M  V30 4236 O 415.977 -3.50083 -0.657314 0
M  V30 4237 O 414.836 -5.31909 -1.2544 0
M  V30 4238 H 411.93 -0.796016 -0.22425 0
M  V30 4239 H 414.476 -1.66976 0.302814 0
M  V30 4240 H 413.248 -3.89558 0.368844 0
M  V30 4241 H 412.871 -3.7436 -1.33943 0
M  V30 4242 N 413.868 0.0150385 -1.57593 0
M  V30 4243 C 414.818 1.01943 -2.0394 0
M  V30 4244 C 415.802 1.31209 -0.931286 0
M  V30 4245 O 416.994 1.30559 -1.19513 0
M  V30 4246 C 414.123 2.31621 -2.53391 0
M  V30 4247 C 413.209 2.05384 -3.7105 0
M  V30 4248 N 413.6 1.49253 -4.83278 0
M  V30 4249 C 411.898 2.35601 -3.78693 0
M  V30 4250 C 412.599 1.39143 -5.64813 0
M  V30 4251 N 411.575 1.87187 -5.10355 0
M  V30 4252 H 415.377 0.57969 -2.88126 0
M  V30 4253 H 412.891 0.221056 -1.60888 0
M  V30 4254 H 414.888 3.044 -2.84862 0
M  V30 4255 H 413.548 2.76261 -1.70616 0
M  V30 4256 H 414.559 1.17334 -5.04433 0
M  V30 4257 H 411.236 2.8322 -3.06746 0
M  V30 4258 H 412.626 0.961153 -6.6499 0
M  V30 4259 N 415.346 1.54954 0.287554 0
M  V30 4260 C 416.309 1.86076 1.33823 0
M  V30 4261 C 417.309 0.734414 1.43049 0
M  V30 4262 O 418.499 1.00266 1.42452 0
M  V30 4263 C 415.631 2.05305 2.72144 0
M  V30 4264 H 416.824 2.79984 1.07465 0
M  V30 4265 H 414.377 1.47223 0.524902 0
M  V30 4266 H 415.112 1.1373 3.03704 0
M  V30 4267 H 414.897 2.873 2.66836 0
M  V30 4268 H 416.387 2.30706 3.48087 0
M  V30 4269 N 416.824 -0.551391 1.4764 0
M  V30 4270 C 417.756 -1.67333 1.56628 0
M  V30 4271 C 418.769 -1.56398 0.452045 0
M  V30 4272 O 419.958 -1.6325 0.721926 0
M  V30 4273 C 417.058 -3.05841 1.45994 0
M  V30 4274 C 416.231 -3.42472 2.72088 0
M  V30 4275 C 415.29 -4.60168 2.55209 0
M  V30 4276 O 414.316 -4.64458 3.2904 0
M  V30 4277 N 415.518 -5.57024 1.63416 0
M  V30 4278 H 418.283 -1.60066 2.53375 0
M  V30 4279 H 415.844 -0.738169 1.44093 0
M  V30 4280 H 417.836 -3.8242 1.32428 0
M  V30 4281 H 416.406 -3.07302 0.573071 0
M  V30 4282 H 415.626 -2.55284 3.00373 0
M  V30 4283 H 416.914 -3.63723 3.55785 0
M  V30 4284 H 416.312 -5.56319 1.02594 0
M  V30 4285 H 414.869 -6.32906 1.558 0
M  V30 4286 N 418.302 -1.35869 -0.798587 0
M  V30 4287 C 419.53 -1.32722 -1.58722 0
M  V30 4288 C 419.945 0.0935631 -1.88568 0
M  V30 4289 O 419.302 1.04784 -1.49421 0
M  V30 4290 C 419.353 -2.13974 -2.91371 0
M  V30 4291 O 419.074 -3.50514 -2.62815 0
M  V30 4292 C 420.575 -2.18504 -3.85708 0
M  V30 4293 H 417.795 -0.45562 -0.492596 0
M  V30 4294 H 420.339 -1.78837 -0.991843 0
M  V30 4295 H 418.494 -1.71438 -3.47402 0
M  V30 4296 H 418.908 -3.92806 -3.47568 0
M  V30 4297 H 420.382 -2.79732 -4.75872 0
M  V30 4298 H 420.859 -1.18597 -4.22885 0
M  V30 4299 H 421.465 -2.61236 -3.35612 0
M  V30 4300 N 419.78 1.02168 -1.19998 0
M  V30 4301 C 420.71 2.12488 -0.96804 0
M  V30 4302 C 421.691 1.69799 0.101185 0
M  V30 4303 O 422.876 1.94121 -0.0552993 0
M  V30 4304 C 420.006 3.43479 -0.513776 0
M  V30 4305 C 418.96 3.99884 -1.52566 0
M  V30 4306 C 418.286 5.26582 -0.928214 0
M  V30 4307 C 419.586 4.33861 -2.90795 0
M  V30 4308 H 421.28 2.32149 -1.89069 0
M  V30 4309 H 418.826 1.11564 -0.910468 0
M  V30 4310 H 420.779 4.20036 -0.338774 0
M  V30 4311 H 419.503 3.23561 0.444493 0
M  V30 4312 H 418.162 3.25429 -1.68794 0
M  V30 4313 H 417.81 5.02986 0.0378289 0
M  V30 4314 H 417.51 5.65284 -1.60397 0
M  V30 4315 H 419.034 6.05799 -0.764167 0
M  V30 4316 H 420.448 5.01327 -2.78109 0
M  V30 4317 H 418.845 4.83664 -3.55231 0
M  V30 4318 H 419.915 3.42848 -3.42904 0
M  V30 4319 N 421.258 1.00505 1.21394 0
M  V30 4320 C 422.221 0.570459 2.21987 0
M  V30 4321 C 423.221 -0.353211 1.56873 0
M  V30 4322 O 424.411 -0.14349 1.73608 0
M  V30 4323 C 421.543 -0.168555 3.40483 0
M  V30 4324 H 422.736 1.46021 2.6195 0
M  V30 4325 H 420.289 0.793565 1.34656 0
M  V30 4326 H 421.024 -1.07374 3.06009 0
M  V30 4327 H 420.809 0.494823 3.88965 0
M  V30 4328 H 422.299 -0.460362 4.15055 0
M  V30 4329 N 422.737 -1.36956 0.779787 0
M  V30 4330 C 423.986 -1.98738 0.344405 0
M  V30 4331 C 424.299 -1.62596 -1.08728 0
M  V30 4332 O 425.505 -2.1754 -1.62445 0
M  V30 4333 C 423.961 -3.5544 0.564829 0
M  V30 4334 C 423.569 -4.00514 2.0073 0
M  V30 4335 C 425.313 -4.24059 0.193471 0
M  V30 4336 C 423.22 -5.49957 2.17489 0
M  V30 4337 H 422.15 -0.743561 0.12503 0
M  V30 4338 H 424.801 -1.56381 0.960057 0
M  V30 4339 H 423.183 -3.95817 -0.120397 0
M  V30 4340 H 424.357 -3.71362 2.72814 0
M  V30 4341 H 422.672 -3.44703 2.336 0
M  V30 4342 H 425.269 -5.33874 0.297097 0
M  V30 4343 H 425.612 -4.07378 -0.857263 0
M  V30 4344 H 426.145 -3.89012 0.831556 0
M  V30 4345 H 422.884 -5.71574 3.2091 0
M  V30 4346 H 422.404 -5.80767 1.49899 0
M  V30 4347 H 424.083 -6.16043 1.97738 0
M  V30 4348 N 424.215 -0.530993 -1.48385 0
M  V30 4349 C 425.461 0.00274135 -2.028 0
M  V30 4350 C 425.794 1.33838 -1.40716 0
M  V30 4351 O 425.069 1.86465 -0.553277 0
M  V30 4352 C 425.352 0.123676 -3.59888 0
M  V30 4353 C 425.205 -1.2372 -4.3245 0
M  V30 4354 C 426.524 0.849967 -4.31814 0
M  V30 4355 H 423.643 -0.000477758 -0.737 0
M  V30 4356 H 426.285 -0.688217 -1.77098 0
M  V30 4357 H 424.435 0.712157 -3.81917 0
M  V30 4358 H 426.107 -1.86687 -4.21836 0
M  V30 4359 H 424.35 -1.81882 -3.93829 0
M  V30 4360 H 425.021 -1.10557 -5.40815 0
M  V30 4361 H 427.497 0.350572 -4.14621 0
M  V30 4362 H 426.373 0.903486 -5.41413 0
M  V30 4363 H 426.634 1.90047 -3.99167 0
M  V30 4364 N 425.693 1.55336 -0.266172 0
M  V30 4365 C 426.623 2.25146 0.618981 0
M  V30 4366 C 427.604 1.23845 1.16604 0
M  V30 4367 O 428.789 1.52544 1.20183 0
M  V30 4368 C 425.919 2.96572 1.80728 0
M  V30 4369 C 424.873 4.04726 1.39215 0
M  V30 4370 C 424.199 4.63678 2.66283 0
M  V30 4371 C 425.499 5.19407 0.548942 0
M  V30 4372 H 427.193 2.99377 0.0368116 0
M  V30 4373 H 424.739 1.43991 0.0162651 0
M  V30 4374 H 426.692 3.44116 2.43232 0
M  V30 4375 H 425.416 2.19861 2.41514 0
M  V30 4376 H 424.075 3.57979 0.790351 0
M  V30 4377 H 423.723 3.83646 3.25308 0
M  V30 4378 H 423.423 5.367 2.39222 0
M  V30 4379 H 424.947 5.13967 3.29651 0
M  V30 4380 H 426.361 5.63059 1.07876 0
M  V30 4381 H 424.758 5.98936 0.373593 0
M  V30 4382 H 425.828 4.8295 -0.434394 0
M  V30 4383 N 427.171 -0.0066808 1.57599 0
M  V30 4384 C 428.582 -0.550379 1.78403 0
M  V30 4385 C 428.933 -1.74339 0.900014 0
M  V30 4386 O 428.058 -2.16166 0.100713 0
M  V30 4387 C 428.653 -1.00523 3.23544 0
M  V30 4388 C 427.212 -1.49428 3.45468 0
M  V30 4389 C 426.359 -0.442444 2.73748 0
M  V30 4390 H 429.31 0.219508 1.57175 0
M  V30 4391 H 429.331 -1.87157 3.31289 0
M  V30 4392 H 428.843 -0.136735 3.87859 0
M  V30 4393 H 426.944 -2.3839 2.86358 0
M  V30 4394 H 427.057 -1.52635 4.54136 0
M  V30 4395 H 425.421 -0.902578 2.38171 0
M  V30 4396 H 426.204 0.416973 3.40758 0
M  V30 4397 N 428.649 -1.55105 -0.279332 0
M  V30 4398 C 429.612 -1.86783 -1.32834 0
M  V30 4399 C 430.612 -0.74199 -1.42657 0
M  V30 4400 O 431.802 -1.0102 -1.41918 0
M  V30 4401 C 428.934 -2.06746 -2.71052 0
M  V30 4402 H 430.127 -2.8055 -1.05979 0
M  V30 4403 H 427.68 -1.47499 -0.517087 0
M  V30 4404 H 428.415 -1.15339 -3.03097 0
M  V30 4405 H 428.2 -2.88711 -2.65309 0
M  V30 4406 H 429.69 -2.32549 -3.46858 0
M  V30 4407 N 430.127 0.543554 -1.4793 0
M  V30 4408 C 431.057 1.65888 -1.64327 0
M  V30 4409 C 432.038 1.62818 -0.492383 0
M  V30 4410 O 433.223 1.80226 -0.723338 0
M  V30 4411 C 430.353 3.04506 -1.67013 0
M  V30 4412 C 429.307 3.2243 -2.81466 0
M  V30 4413 C 428.633 4.61972 -2.69233 0
M  V30 4414 C 429.933 3.06496 -4.22915 0
M  V30 4415 H 431.627 1.52421 -2.57698 0
M  V30 4416 H 429.173 0.731849 -1.24016 0
M  V30 4417 H 431.126 3.82391 -1.77074 0
M  V30 4418 H 429.85 3.18964 -0.70212 0
M  V30 4419 H 428.509 2.46957 -2.70938 0
M  V30 4420 H 428.157 4.73247 -1.7043 0
M  V30 4421 H 427.857 4.74911 -3.46025 0
M  V30 4422 H 429.381 5.41974 -2.81242 0
M  V30 4423 H 430.795 3.74186 -4.34348 0
M  V30 4424 H 429.192 3.30938 -5.006 0
M  V30 4425 H 430.262 2.03077 -4.40327 0
M  V30 4426 N 431.605 1.3629 0.791371 0
M  V30 4427 C 432.851 1.31613 1.5508 0
M  V30 4428 C 433.206 -0.104372 1.92117 0
M  V30 4429 O 432.499 -1.05845 1.5971 0
M  V30 4430 C 432.693 2.17068 2.8393 0
M  V30 4431 C 432.522 3.67285 2.59484 0
M  V30 4432 C 431.292 4.36469 2.54604 0
M  V30 4433 C 433.49 4.60595 2.28816 0
M  V30 4434 N 431.472 5.7234 2.22036 0
M  V30 4435 C 432.843 5.847 2.06218 0
M  V30 4436 C 434.898 4.4918 2.14806 0
M  V30 4437 C 433.601 6.98671 1.71028 0
M  V30 4438 C 435.627 5.63017 1.81014 0
M  V30 4439 C 434.989 6.86159 1.59263 0
M  V30 4440 H 431.088 0.536878 0.568582 0
M  V30 4441 H 433.672 1.71323 0.925007 0
M  V30 4442 H 431.843 1.79605 3.44378 0
M  V30 4443 H 433.575 2.03795 3.49642 0
M  V30 4444 H 430.33 3.89249 2.69782 0
M  V30 4445 H 430.754 6.44093 2.08503 0
M  V30 4446 H 435.396 3.54564 2.30313 0
M  V30 4447 H 433.114 7.9324 1.54259 0
M  V30 4448 H 436.7 5.56146 1.70861 0
M  V30 4449 H 435.58 7.72753 1.335 0
M  V30 4450 N 433.083 -1.0153 1.20538 0
M  V30 4451 C 434.031 -2.12215 0.952235 0
M  V30 4452 C 435.025 -1.69123 -0.0968735 0
M  V30 4453 O 436.231 -1.7992 0.0536006 0
M  V30 4454 H 432.606 -0.693576 0.290613 0
M  V30 4455 H 434.577 -2.3075 1.89201 0
M  V30 4456 C 433.326 -3.43755 0.522287 0
M  V30 4457 H 432.649 -3.7734 1.32115 0
M  V30 4458 H 434.089 -4.22254 0.384389 0
M  V30 4459 C 432.548 -3.28088 -0.765489 0
M  V30 4460 O 433.078 -3.57921 -1.8236 0
M  V30 4461 N 431.284 -2.81333 -0.728011 0
M  V30 4462 H 430.831 -2.57255 0.133332 0
M  V30 4463 H 430.789 -2.71232 -1.58999 0
M  V30 4464 N 434.561 -1.01147 -1.20859 0
M  V30 4465 C 435.471 -0.58686 -2.27141 0
M  V30 4466 C 436.487 0.373198 -1.69951 0
M  V30 4467 O 437.663 0.235423 -2.00019 0
M  V30 4468 C 434.728 0.0733602 -3.46622 0
M  V30 4469 C 433.789 -0.931995 -4.19061 0
M  V30 4470 C 433.022 -0.303186 -5.32838 0
M  V30 4471 O 433.245 0.898395 -5.63281 0
M  V30 4472 O 432.179 -1.01735 -5.9324 0
M  V30 4473 H 436.005 -1.47155 -2.65667 0
M  V30 4474 H 433.59 -0.780689 -1.2738 0
M  V30 4475 H 435.472 0.442333 -4.19072 0
M  V30 4476 H 434.147 0.932329 -3.09983 0
M  V30 4477 H 433.054 -1.35224 -3.48805 0
M  V30 4478 H 434.387 -1.76076 -4.59628 0
M  V30 4479 N 436.039 1.36541 -0.78704 0
M  V30 4480 C 436.986 2.30082 -0.181901 0
M  V30 4481 C 437.956 1.5186 0.672896 0
M  V30 4482 O 439.141 1.80374 0.622072 0
M  V30 4483 C 436.281 3.3835 0.679197 0
M  V30 4484 C 435.394 4.31565 -0.193882 0
M  V30 4485 C 434.529 5.26915 0.673364 0
M  V30 4486 C 433.568 6.11769 -0.201315 0
M  V30 4487 N 432.705 6.99315 0.624777 0
M  V30 4488 H 437.545 2.81248 -0.985064 0
M  V30 4489 H 435.082 1.38437 -0.497342 0
M  V30 4490 H 437.04 3.99767 1.19341 0
M  V30 4491 H 435.67 2.8851 1.44781 0
M  V30 4492 H 434.722 3.71323 -0.826044 0
M  V30 4493 H 436.034 4.91191 -0.867937 0
M  V30 4494 H 435.188 5.9361 1.25348 0
M  V30 4495 H 433.927 4.67737 1.38105 0
M  V30 4496 H 432.932 5.44039 -0.793849 0
M  V30 4497 H 434.157 6.73022 -0.906568 0
M  V30 4498 H 432.103 6.42648 1.3168 0
M  V30 4499 H 432.02 7.56 0.00835237 0
M  V30 4500 H 433.288 7.70382 1.18879 0
M  V30 4501 N 437.518 0.538854 1.48102 0
M  V30 4502 C 438.934 0.19732 1.58376 0
M  V30 4503 C 439.134 -1.29971 1.5398 0
M  V30 4504 O 438.19 -2.07861 1.43352 0
M  V30 4505 C 439.503 0.807716 2.89649 0
M  V30 4506 C 441.051 0.77726 3.03196 0
M  V30 4507 C 441.526 1.36639 4.37143 0
M  V30 4508 N 443.017 1.32875 4.43732 0
M  V30 4509 C 443.752 1.7544 5.45901 0
M  V30 4510 N 443.248 2.25776 6.54979 0
M  V30 4511 N 445.041 1.66623 5.36836 0
M  V30 4512 H 437.192 1.5117 1.49202 0
M  V30 4513 H 439.455 0.629327 0.708979 0
M  V30 4514 H 439.161 1.85909 2.98548 0
M  V30 4515 H 439.035 0.289975 3.76084 0
M  V30 4516 H 441.422 -0.265374 2.93904 0
M  V30 4517 H 441.503 1.33256 2.18349 0
M  V30 4518 H 441.147 2.408 4.47189 0
M  V30 4519 H 441.077 0.786689 5.20691 0
M  V30 4520 H 443.568 0.96037 3.65493 0
M  V30 4521 H 443.881 2.56226 7.29087 0
M  V30 4522 H 442.226 2.29775 6.55918 0
M  V30 4523 H 445.417 1.27089 4.50517 0
M  V30 4524 H 445.59 2.00115 6.16326 0
M  V30 4525 N 438.996 -1.55193 0.274407 0
M  V30 4526 C 440.273 -1.91584 -0.394331 0
M  V30 4527 C 440.653 -1.19858 -1.73774 0
M  V30 4528 O 440.001 -0.3252 -2.26174 0
M  V30 4529 C 440.211 -3.4487 -0.535311 0
M  V30 4530 C 441.559 -4.16636 -0.818534 0
M  V30 4531 O 442.583 -3.5076 -0.620146 0
M  V30 4532 O 441.442 -5.33209 -1.19792 0
M  V30 4533 H 438.536 -0.798349 -0.215794 0
M  V30 4534 H 441.082 -1.66646 0.320507 0
M  V30 4535 H 439.854 -3.89145 0.410141 0
M  V30 4536 H 439.477 -3.75759 -1.29964 0
M  V30 4537 N 440.474 -0.00167713 -1.576 0
M  V30 4538 C 441.702 0.693759 -1.94922 0
M  V30 4539 C 442.117 1.67215 -0.876626 0
M  V30 4540 O 441.474 1.81929 0.144279 0
M  V30 4541 C 441.525 1.42416 -3.32265 0
M  V30 4542 O 441.246 0.485014 -4.35407 0
M  V30 4543 C 442.747 2.21395 -3.84056 0
M  V30 4544 H 439.967 0.193118 -0.642609 0
M  V30 4545 H 442.511 -0.0532952 -2.04431 0
M  V30 4546 H 440.666 2.12284 -3.24059 0
M  V30 4547 H 441.08 1.00053 -5.14868 0
M  V30 4548 H 442.554 2.67996 -4.82578 0
M  V30 4549 H 443.031 3.04142 -3.16851 0
M  V30 4550 H 443.637 1.56542 -3.95443 0
M  V30 4551 N 441.952 1.55251 0.271103 0
M  V30 4552 C 442.899 1.88261 1.33516 0
M  V30 4553 C 443.869 0.734296 1.48988 0
M  V30 4554 O 445.054 0.985741 1.63364 0
M  V30 4555 C 442.194 2.16168 2.69008 0
M  V30 4556 C 441.307 3.43678 2.61743 0
M  V30 4557 C 440.442 3.61276 3.89427 0
M  V30 4558 C 439.481 4.82472 3.7668 0
M  V30 4559 N 438.618 4.96717 4.96202 0
M  V30 4560 H 443.458 2.79015 1.04665 0
M  V30 4561 H 440.995 1.38137 0.505618 0
M  V30 4562 H 442.953 2.30349 3.47844 0
M  V30 4563 H 441.583 1.28646 2.96057 0
M  V30 4564 H 440.635 3.37959 1.74607 0
M  V30 4565 H 441.947 4.3265 2.48224 0
M  V30 4566 H 441.101 3.75284 4.76704 0
M  V30 4567 H 439.84 2.70492 4.05814 0
M  V30 4568 H 438.845 4.68465 2.87786 0
M  V30 4569 H 440.07 5.74692 3.61809 0
M  V30 4570 H 438.016 4.08865 5.12997 0
M  V30 4571 H 437.933 5.79738 4.85222 0
M  V30 4572 H 439.201 5.15113 5.85046 0
M  V30 4573 N 443.43 -0.535701 1.48216 0
M  V30 4574 C 444.846 -0.863701 1.3421 0
M  V30 4575 C 445.046 -1.98458 0.34879 0
M  V30 4576 O 444.102 -2.51432 -0.23204 0
M  V30 4577 C 445.415 -1.23662 2.74095 0
M  V30 4578 C 446.963 -1.34683 2.82541 0
M  V30 4579 C 447.438 -1.75322 4.23115 0
M  V30 4580 N 448.929 -1.82434 4.2576 0
M  V30 4581 C 449.664 -2.15252 5.31464 0
M  V30 4582 N 449.16 -2.46533 6.47452 0
M  V30 4583 N 450.953 -2.16209 5.18855 0
M  V30 4584 H 443.104 0.203965 2.11418 0
M  V30 4585 H 445.367 0.0286033 0.947568 0
M  V30 4586 H 445.073 -0.486674 3.48316 0
M  V30 4587 H 444.947 -2.18805 3.07253 0
M  V30 4588 H 447.334 -2.08756 2.08579 0
M  V30 4589 H 447.415 -0.376756 2.5301 0
M  V30 4590 H 447.059 -1.01812 4.97591 0
M  V30 4591 H 446.989 -2.7337 4.50085 0
M  V30 4592 H 449.48 -1.6056 3.42095 0
M  V30 4593 H 449.793 -2.70662 7.23852 0
M  V30 4594 H 448.138 -2.44065 6.50736 0
M  V30 4595 H 451.329 -1.91224 4.2726 0
M  V30 4596 H 451.502 -2.41453 6.01335 0
M  V30 4597 N 444.908 -1.36708 -0.784132 0
M  V30 4598 C 445.871 -1.31307 -1.87859 0
M  V30 4599 C 446.871 -0.219654 -1.59293 0
M  V30 4600 O 448.061 -0.47476 -1.67606 0
M  V30 4601 C 445.193 -1.03679 -3.24751 0
M  V30 4602 H 446.386 -2.28647 -1.94064 0
M  V30 4603 H 443.939 -1.21558 -0.98252 0
M  V30 4604 H 444.674 -0.0681936 -3.24228 0
M  V30 4605 H 444.459 -1.82811 -3.46876 0
M  V30 4606 H 445.949 -1.02518 -4.04821 0
M  V30 4607 N 446.386 1.0089 -1.21074 0
M  V30 4608 C 447.333 2.09588 -0.966512 0
M  V30 4609 C 448.303 1.65761 0.106089 0
M  V30 4610 O 449.488 1.90758 -0.0402287 0
M  V30 4611 C 446.628 3.40958 -0.533058 0
M  V30 4612 C 445.741 3.9822 -1.67467 0
M  V30 4613 C 444.876 5.17682 -1.19076 0
M  V30 4614 C 443.915 5.67043 -2.30496 0
M  V30 4615 N 443.052 6.77759 -1.83267 0
M  V30 4616 H 447.892 2.29815 -1.89708 0
M  V30 4617 H 445.429 1.12689 -0.945489 0
M  V30 4618 H 447.387 4.1637 -0.263019 0
M  V30 4619 H 446.017 3.20781 0.360505 0
M  V30 4620 H 445.069 3.1983 -2.05944 0
M  V30 4621 H 446.381 4.3085 -2.51336 0
M  V30 4622 H 445.535 6.00326 -0.877151 0
M  V30 4623 H 444.274 4.86635 -0.322066 0
M  V30 4624 H 443.279 4.82999 -2.62664 0
M  V30 4625 H 444.504 6.00121 -3.17855 0
M  V30 4626 H 442.45 6.48527 -0.987356 0
M  V30 4627 H 442.367 7.09624 -2.60711 0
M  V30 4628 H 443.635 7.63949 -1.54928 0
M  V30 4629 N 447.864 1.01787 1.20321 0
M  V30 4630 C 448.794 0.609625 2.25401 0
M  V30 4631 C 449.775 -0.375951 1.65893 0
M  V30 4632 O 450.96 -0.261101 1.92437 0
M  V30 4633 C 448.09 -0.0515995 3.47262 0
M  V30 4634 C 447.044 0.855095 4.19371 0
M  V30 4635 C 446.37 0.0595757 5.34667 0
M  V30 4636 C 447.67 2.16374 4.75373 0
M  V30 4637 H 449.364 1.48803 2.59804 0
M  V30 4638 H 446.91 0.716934 1.24884 0
M  V30 4639 H 448.863 -0.348764 4.19954 0
M  V30 4640 H 447.587 -0.964726 3.12027 0
M  V30 4641 H 446.246 1.13628 3.48546 0
M  V30 4642 H 445.894 -0.85524 4.95676 0
M  V30 4643 H 445.594 0.663406 5.83843 0
M  V30 4644 H 447.118 -0.231105 6.10162 0
M  V30 4645 H 448.532 1.92885 5.39878 0
M  V30 4646 H 446.929 2.71853 5.34991 0
M  V30 4647 H 447.999 2.82589 3.94045 0
M  V30 4648 N 449.342 -1.36122 0.79427 0
M  V30 4649 C 450.272 -2.32551 0.210328 0
M  V30 4650 C 451.253 -1.56884 -0.657386 0
M  V30 4651 O 452.438 -1.85014 -0.590207 0
M  V30 4652 C 449.568 -3.41128 -0.651819 0
M  V30 4653 C 448.522 -4.27842 0.116395 0
M  V30 4654 C 447.848 -5.2763 -0.86666 0
M  V30 4655 C 449.148 -5.05647 1.30837 0
M  V30 4656 H 450.842 -2.81636 1.01594 0
M  V30 4657 H 448.388 -1.35407 0.489981 0
M  V30 4658 H 450.341 -4.07581 -1.07031 0
M  V30 4659 H 449.065 -2.90622 -1.49019 0
M  V30 4660 H 447.724 -3.62952 0.515915 0
M  V30 4661 H 447.372 -4.73395 -1.70019 0
M  V30 4662 H 447.072 -5.86514 -0.35705 0
M  V30 4663 H 448.596 -5.96955 -1.28361 0
M  V30 4664 H 450.01 -5.65113 0.965393 0
M  V30 4665 H 448.407 -5.73967 1.75161 0
M  V30 4666 H 449.477 -4.37006 2.10128 0
M  V30 4667 N 450.82 -0.546701 -1.47814 0
M  V30 4668 C 451.752 0.244196 -2.27895 0
M  V30 4669 C 452.765 0.88911 -1.36377 0
M  V30 4670 O 453.954 0.764733 -1.61289 0
M  V30 4671 C 451.054 1.36252 -3.10304 0
M  V30 4672 C 450.227 0.816382 -4.29714 0
M  V30 4673 C 449.286 1.81789 -4.93801 0
M  V30 4674 O 448.312 1.36818 -5.52512 0
M  V30 4675 N 449.514 3.15085 -4.87547 0
M  V30 4676 H 452.279 -0.442694 -2.96412 0
M  V30 4677 H 449.84 -0.382095 -1.57327 0
M  V30 4678 H 451.832 2.03102 -3.50045 0
M  V30 4679 H 450.402 1.95281 -2.44099 0
M  V30 4680 H 449.622 -0.0285981 -3.9419 0
M  V30 4681 H 450.91 0.430668 -5.06974 0
M  V30 4682 H 450.308 3.54275 -4.41028 0
M  V30 4683 H 448.865 3.77522 -5.31339 0
M  V30 4684 N 452.299 1.55045 -0.282633 0
M  V30 4685 C 453.529 2.03872 0.334635 0
M  V30 4686 C 453.937 1.16018 1.49454 0
M  V30 4687 O 453.28 0.174449 1.8287 0
M  V30 4688 C 453.342 3.48791 0.870905 0
M  V30 4689 C 453.006 4.56715 -0.161338 0
M  V30 4690 C 454.003 5.10513 -0.983466 0
M  V30 4691 C 451.688 5.01417 -0.297745 0
M  V30 4692 C 453.682 6.07538 -1.92811 0
M  V30 4693 C 451.369 5.98265 -1.24586 0
M  V30 4694 C 452.367 6.51208 -2.05954 0
M  V30 4695 O 452.055 7.46162 -2.99162 0
M  V30 4696 H 451.787 0.671324 0.0793742 0
M  V30 4697 H 454.341 2.01169 -0.41473 0
M  V30 4698 H 452.571 3.48758 1.67047 0
M  V30 4699 H 454.26 3.80916 1.40207 0
M  V30 4700 H 455.026 4.76785 -0.888856 0
M  V30 4701 H 450.905 4.59849 0.325604 0
M  V30 4702 H 454.449 6.48787 -2.56363 0
M  V30 4703 H 450.346 6.31412 -1.34126 0
M  V30 4704 H 451.114 7.63903 -2.93929 0
M  V30 4705 N 453.777 0.010035 1.57597 0
M  V30 4706 C 454.74 -0.963029 2.07986 0
M  V30 4707 C 455.74 -1.26619 0.991173 0
M  V30 4708 O 456.93 -1.2097 1.25347 0
M  V30 4709 C 454.062 -2.2851 2.52974 0
M  V30 4710 H 455.255 -0.526971 2.95234 0
M  V30 4711 H 452.808 -0.237639 1.54483 0
M  V30 4712 H 453.543 -2.76784 1.69 0
M  V30 4713 H 453.328 -2.07824 3.32493 0
M  V30 4714 H 454.818 -2.98294 2.9225 0
M  V30 4715 N 455.255 -1.55392 -0.262866 0
M  V30 4716 C 456.165 -1.92077 -1.34698 0
M  V30 4717 C 457.181 -0.819227 -1.53508 0
M  V30 4718 O 458.357 -1.11921 -1.67439 0
M  V30 4719 C 455.422 -2.19407 -2.68443 0
M  V30 4720 C 454.483 -3.42905 -2.58292 0
M  V30 4721 C 453.716 -3.68921 -3.85659 0
M  V30 4722 O 453.939 -2.97275 -4.8681 0
M  V30 4723 O 452.873 -4.62455 -3.85252 0
M  V30 4724 H 456.699 -2.84384 -1.06581 0
M  V30 4725 H 454.284 -1.42069 -0.462264 0
M  V30 4726 H 456.166 -2.38365 -3.47506 0
M  V30 4727 H 454.841 -1.30282 -2.96325 0
M  V30 4728 H 453.748 -3.29272 -1.7757 0
M  V30 4729 H 455.081 -4.32282 -2.35358 0
M  V30 4730 N 456.733 0.527833 -1.48498 0
M  V30 4731 C 458.149 0.856571 -1.34666 0
M  V30 4732 C 458.349 1.98271 -0.35931 0
M  V30 4733 O 457.405 2.51551 0.218703 0
M  V30 4734 C 458.718 1.22207 -2.74747 0
M  V30 4735 C 460.266 1.33183 -2.83251 0
M  V30 4736 C 460.741 1.73075 -4.24039 0
M  V30 4737 N 462.232 1.80174 -4.26722 0
M  V30 4738 C 462.967 2.1243 -5.32598 0
M  V30 4739 N 462.463 2.43096 -6.4875 0
M  V30 4740 N 464.256 2.13454 -5.19994 0
M  V30 4741 H 456.407 -0.215174 -2.11307 0
M  V30 4742 H 458.67 -0.0336281 -0.947403 0
M  V30 4743 H 458.376 0.468195 -3.4857 0
M  V30 4744 H 458.25 2.17173 -3.08409 0
M  V30 4745 H 460.637 2.07647 -2.09683 0
M  V30 4746 H 460.718 0.363333 -2.53206 0
M  V30 4747 H 460.362 0.991712 -4.98124 0
M  V30 4748 H 460.292 2.70979 -4.51529 0
M  V30 4749 H 462.783 1.58744 -3.42942 0
M  V30 4750 H 463.096 2.6682 -7.25277 0
M  V30 4751 H 461.441 2.40611 -6.52021 0
M  V30 4752 H 464.632 1.88956 -4.28268 0
M  V30 4753 H 464.805 2.38261 -6.02608 0
M  V30 4754 N 458.211 1.37122 0.776871 0
M  V30 4755 C 459.457 1.32243 1.53752 0
M  V30 4756 C 459.79 -0.0944745 1.9397 0
M  V30 4757 O 459.065 -1.05068 1.6368 0
M  V30 4758 C 459.348 2.25681 2.80607 0
M  V30 4759 C 459.201 3.76127 2.46676 0
M  V30 4760 C 460.52 2.17657 3.82509 0
M  V30 4761 H 457.639 0.481704 0.557791 0
M  V30 4762 H 460.281 1.6778 0.891612 0
M  V30 4763 H 458.431 1.95505 3.35723 0
M  V30 4764 H 460.103 4.16877 1.97513 0
M  V30 4765 H 458.346 3.94946 1.79443 0
M  V30 4766 H 459.017 4.36933 3.37333 0
M  V30 4767 H 461.493 2.44245 3.36873 0
M  V30 4768 H 460.369 2.85185 4.69 0
M  V30 4769 H 460.63 1.16785 4.26396 0
M  V30 4770 N 459.689 -1.00246 1.21608 0
M  V30 4771 C 460.935 -1.74417 1.04643 0
M  V30 4772 C 461.29 -1.87862 -0.415387 0
M  V30 4773 O 460.583 -1.40373 -1.30407 0
M  V30 4774 C 460.777 -3.15448 1.68009 0
M  V30 4775 C 460.606 -3.15755 3.20201 0
M  V30 4776 C 459.376 -3.2219 3.89258 0
M  V30 4777 C 461.574 -3.00668 4.17257 0
M  V30 4778 N 459.556 -3.1215 5.28617 0
M  V30 4779 C 460.927 -2.98553 5.43384 0
M  V30 4780 C 462.982 -2.84989 4.08272 0
M  V30 4781 C 461.685 -2.82364 6.61561 0
M  V30 4782 C 463.711 -2.70158 5.26088 0
M  V30 4783 C 463.073 -2.68721 6.51128 0
M  V30 4784 H 459.172 -0.648317 0.437274 0
M  V30 4785 H 461.756 -1.19129 1.54001 0
M  V30 4786 H 459.927 -3.69001 1.21215 0
M  V30 4787 H 461.659 -3.78128 1.44226 0
M  V30 4788 H 458.414 -3.29488 3.40198 0
M  V30 4789 H 458.838 -3.10465 6.01615 0
M  V30 4790 H 463.48 -2.84904 3.12393 0
M  V30 4791 H 461.198 -2.81196 7.57598 0
M  V30 4792 H 464.784 -2.59022 5.20959 0
M  V30 4793 H 463.664 -2.57382 7.40759 0
M  V30 4794 N 461.167 -1.02423 -1.1978 0
M  V30 4795 C 462.115 -0.594474 -2.24875 0
M  V30 4796 C 463.109 0.370598 -1.65296 0
M  V30 4797 O 464.315 0.239684 -1.78397 0
M  V30 4798 H 460.69 -0.173961 -0.731602 0
M  V30 4799 H 462.661 -1.4916 -2.58445 0
M  V30 4800 C 461.41 0.0436512 -3.47673 0
M  V30 4801 H 460.733 -0.689963 -3.93801 0
M  V30 4802 H 462.173 0.307362 -4.22884 0
M  V30 4803 C 460.632 1.28881 -3.11274 0
M  V30 4804 O 461.162 2.38135 -3.23503 0
M  V30 4805 N 459.368 1.1758 -2.6575 0
M  V30 4806 H 458.915 0.286769 -2.55999 0
M  V30 4807 H 458.873 2.00988 -2.41767 0
M  V30 4808 N 462.645 1.35699 -0.801477 0
M  V30 4809 C 463.894 1.98165 -0.375979 0
M  V30 4810 C 464.207 1.64306 1.06127 0
M  V30 4811 O 465.413 2.20097 1.58964 0
M  V30 4812 C 463.869 3.54497 -0.621305 0
M  V30 4813 C 463.477 3.9727 -2.07076 0
M  V30 4814 C 465.221 4.23697 -0.26091 0
M  V30 4815 C 463.128 5.46427 -2.26211 0
M  V30 4816 H 462.058 0.741478 -0.136844 0
M  V30 4817 H 464.709 1.54834 -0.984814 0
M  V30 4818 H 463.091 3.95958 0.0574112 0
M  V30 4819 H 464.265 3.66974 -2.78687 0
M  V30 4820 H 462.58 3.40943 -2.39054 0
M  V30 4821 H 465.177 5.33334 -0.381994 0
M  V30 4822 H 465.52 4.0869 0.792344 0
M  V30 4823 H 466.053 3.87639 -0.893339 0
M  V30 4824 H 462.792 5.66396 -3.29963 0
M  V30 4825 H 462.312 5.78309 -1.59119 0
M  V30 4826 H 463.991 6.12819 -2.07513 0
M  V30 4827 N 464.123 0.554532 1.47522 0
M  V30 4828 C 465.351 0.034257 2.06872 0
M  V30 4829 C 465.766 -1.25826 1.40759 0
M  V30 4830 O 465.123 -1.75425 0.503217 0
M  V30 4831 C 465.174 -0.167827 3.6111 0
M  V30 4832 O 464.895 1.07351 4.24744 0
M  V30 4833 C 466.396 -0.72569 4.3732 0
M  V30 4834 H 463.616 0.0446275 0.669514 0
M  V30 4835 H 466.16 0.767181 1.89564 0
M  V30 4836 H 464.315 -0.850872 3.7794 0
M  V30 4837 H 464.729 0.869563 5.17242 0
M  V30 4838 H 466.203 -0.816394 5.45929 0
M  V30 4839 H 466.68 -1.73635 4.0342 0
M  V30 4840 H 467.286 -0.0784292 4.25228 0
M  V30 4841 N 465.601 -1.54893 0.290851 0
M  V30 4842 C 466.511 -2.26812 -0.59945 0
M  V30 4843 C 467.527 -1.29963 -1.15696 0
M  V30 4844 O 468.703 -1.62928 -1.18391 0
M  V30 4845 C 465.768 -2.98716 -1.75982 0
M  V30 4846 C 464.829 -4.1108 -1.2374 0
M  V30 4847 C 464.062 -4.79546 -2.34246 0
M  V30 4848 O 464.285 -4.47309 -3.53936 0
M  V30 4849 O 463.219 -5.67165 -2.01512 0
M  V30 4850 H 467.045 -3.03696 -0.0163561 0
M  V30 4851 H 464.63 -1.49289 0.0576755 0
M  V30 4852 H 466.512 -3.43851 -2.43607 0
M  V30 4853 H 465.187 -2.24737 -2.3297 0
M  V30 4854 H 464.094 -3.70367 -0.527163 0
M  V30 4855 H 465.427 -4.87007 -0.71307 0
M  V30 4856 N 467.08 -0.0183926 -1.57589 0
M  V30 4857 C 468.328 0.661253 -1.90976 0
M  V30 4858 C 468.649 1.73281 -0.894353 0
M  V30 4859 O 467.919 1.9579 0.0656788 0
M  V30 4860 H 466.499 0.247233 -0.704901 0
M  V30 4861 H 469.161 -0.0636639 -1.94796 0
M  V30 4862 H 468.257 1.12083 -2.9128 0
M  V30 4863 N 468.558 1.5553 0.254621 0
M  V30 4864 C 469.783 1.81383 1.00573 0
M  V30 4865 C 470.208 0.594419 1.78461 0
M  V30 4866 O 469.566 -0.456403 1.75461 0
M  V30 4867 C 469.614 3.04892 1.92545 0
M  V30 4868 O 468.718 2.81266 3.01601 0
M  V30 4869 H 468.059 0.598969 0.286587 0
M  V30 4870 H 470.589 2.02703 0.277952 0
M  V30 4871 H 470.599 3.34119 2.34155 0
M  V30 4872 H 469.274 3.93287 1.3527 0
M  V30 4873 H 467.851 2.63185 2.64174 0
M  V30 4874 N 470.036 -0.519951 1.48776 0
M  V30 4875 C 471.313 -1.28123 1.47797 0
M  V30 4876 C 471.693 -2.10196 0.195157 0
M  V30 4877 O 471.041 -2.13167 -0.822925 0
M  V30 4878 C 471.251 -2.15413 2.74587 0
M  V30 4879 C 472.599 -2.75225 3.23321 0
M  V30 4880 O 473.623 -2.25694 2.75574 0
M  V30 4881 O 472.482 -3.65346 4.06429 0
M  V30 4882 H 469.576 -0.578793 0.590701 0
M  V30 4883 H 472.122 -0.535779 1.6102 0
M  V30 4884 H 470.894 -1.54617 3.59457 0
M  V30 4885 H 470.517 -2.97186 2.64132 0
M  V30 4886 N 471.514 -1.37532 -0.769588 0
M  V30 4887 C 472.791 -1.23392 -1.51768 0
M  V30 4888 C 473.171 0.17157 -2.10402 0
M  V30 4889 O 472.519 1.17943 -1.95708 0
M  V30 4890 C 472.729 -2.33163 -2.59685 0
M  V30 4891 C 474.077 -2.70809 -3.27028 0
M  V30 4892 O 475.101 -2.32355 -2.69981 0
M  V30 4893 O 473.96 -3.37066 -4.30173 0
M  V30 4894 H 471.054 -0.481617 -0.67229 0
M  V30 4895 H 473.6 -1.49318 -0.806368 0
M  V30 4896 H 472.372 -3.27273 -2.14494 0
M  V30 4897 H 471.995 -2.08713 -3.38415 0
M  V30 4898 N 472.992 0.995999 -1.22138 0
M  V30 4899 C 473.902 2.11985 -1.00496 0
M  V30 4900 C 474.918 1.7394 0.0457701 0
M  V30 4901 O 476.094 2.00868 -0.146273 0
M  V30 4902 C 473.159 3.41779 -0.582086 0
M  V30 4903 C 472.22 3.93943 -1.70608 0
M  V30 4904 C 471.453 5.17542 -1.30328 0
M  V30 4905 O 471.676 5.70114 -0.180743 0
M  V30 4906 O 470.61 5.63382 -2.11861 0
M  V30 4907 H 474.436 2.33123 -1.94647 0
M  V30 4908 H 472.021 1.10358 -1.00705 0
M  V30 4909 H 473.903 4.1989 -0.356467 0
M  V30 4910 H 472.578 3.22007 0.330592 0
M  V30 4911 H 471.485 3.17019 -1.98619 0
M  V30 4912 H 472.818 4.18141 -2.59651 0
M  V30 4913 N 474.47 1.03057 1.19235 0
M  V30 4914 C 475.886 0.747947 1.40989 0
M  V30 4915 C 476.086 -0.666752 1.90149 0
M  V30 4916 O 475.142 -1.43249 2.07933 0
M  V30 4917 C 476.455 1.7855 2.41951 0
M  V30 4918 C 478.003 1.80524 2.55695 0
M  V30 4919 C 478.478 2.83243 3.59913 0
M  V30 4920 N 479.969 2.8207 3.67411 0
M  V30 4921 C 480.704 3.58204 4.47747 0
M  V30 4922 N 480.2 4.44057 5.31775 0
M  V30 4923 N 481.993 3.46738 4.42413 0
M  V30 4924 H 474.144 1.94367 0.856468 0
M  V30 4925 H 476.407 0.840412 0.438647 0
M  V30 4926 H 476.113 2.79973 2.12857 0
M  V30 4927 H 475.987 1.6092 3.41152 0
M  V30 4928 H 478.374 0.79778 2.84112 0
M  V30 4929 H 478.455 2.02229 1.56643 0
M  V30 4930 H 478.099 3.84161 3.32239 0
M  V30 4931 H 478.029 2.58795 4.5862 0
M  V30 4932 H 480.52 2.19803 3.074 0
M  V30 4933 H 480.833 4.98884 5.90199 0
M  V30 4934 H 479.178 4.48129 5.3123 0
M  V30 4935 H 482.369 2.79077 3.75811 0
M  V30 4936 H 482.542 4.06322 5.04783 0
M  V30 4937 N 475.948 -1.35272 0.808662 0
M  V30 4938 C 477.197 -1.97963 0.386483 0
M  V30 4939 C 477.51 -1.64866 -1.05255 0
M  V30 4940 O 478.716 -2.20937 -1.57794 0
M  V30 4941 C 477.172 -3.54162 0.640096 0
M  V30 4942 C 476.78 -3.96166 2.0918 0
M  V30 4943 C 478.524 -4.23553 0.283376 0
M  V30 4944 C 476.431 -5.4522 2.29106 0
M  V30 4945 H 475.361 -0.740742 0.140774 0
M  V30 4946 H 478.012 -1.5431 0.993012 0
M  V30 4947 H 476.394 -3.95983 -0.0364117 0
M  V30 4948 H 477.568 -3.65491 2.80629 0
M  V30 4949 H 475.883 -3.3967 2.40859 0
M  V30 4950 H 478.48 -5.33124 0.410273 0
M  V30 4951 H 478.823 -4.09105 -0.770659 0
M  V30 4952 H 479.356 -3.8716 0.913884 0
M  V30 4953 H 476.095 -5.64638 3.32962 0
M  V30 4954 H 475.615 -5.77457 1.62184 0
M  V30 4955 H 477.294 -6.1171 2.1076 0
M  V30 4956 N 477.426 -0.562348 -1.47226 0
M  V30 4957 C 478.703 0.0256985 -1.95583 0
M  V30 4958 C 479.083 1.48032 -1.50498 0
M  V30 4959 O 478.431 2.15973 -0.746181 0
M  V30 4960 C 478.641 -0.125129 -3.48776 0
M  V30 4961 C 479.989 0.0175728 -4.24596 0
M  V30 4962 O 481.013 -0.0529341 -3.56161 0
M  V30 4963 O 479.872 0.170145 -5.46235 0
M  V30 4964 H 476.966 0.0612565 -0.824728 0
M  V30 4965 H 479.512 -0.629233 -1.57603 0
M  V30 4966 H 478.284 -1.13715 -3.74412 0
M  V30 4967 H 477.907 0.567178 -3.93534 0
M  V30 4968 N 478.904 1.54736 -0.299062 0
M  V30 4969 C 479.867 2.22127 0.565012 0
M  V30 4970 C 480.867 1.20669 1.06281 0
M  V30 4971 O 482.057 1.45417 0.959145 0
M  V30 4972 C 479.189 2.90611 1.78208 0
M  V30 4973 H 480.382 2.99891 -0.0237448 0
M  V30 4974 H 477.935 1.5622 -0.0498788 0
M  V30 4975 H 478.67 2.16921 2.41072 0
M  V30 4976 H 478.455 3.64984 1.43281 0
M  V30 4977 H 479.945 3.42026 2.396 0
M  V30 4978 N 480.382 0.0267497 1.57577 0
M  V30 4979 C 481.345 -0.940916 2.08996 0
M  V30 4980 C 482.345 -1.25561 1.00455 0
M  V30 4981 O 483.535 -1.19634 1.26623 0
M  V30 4982 C 480.667 -2.25814 2.55384 0
M  V30 4983 H 481.86 -0.495628 2.95776 0
M  V30 4984 H 479.413 -0.221241 1.54726 0
M  V30 4985 H 480.148 -2.74976 1.71926 0
M  V30 4986 H 479.933 -2.04285 3.34679 0
M  V30 4987 H 481.423 -2.95178 2.95398 0
M  V30 4988 N 481.861 -1.55662 -0.24637 0
M  V30 4989 C 483.11 -1.7672 -0.972254 0
M  V30 4990 C 483.423 -0.59078 -1.86465 0
M  V30 4991 O 484.629 -0.684391 -2.62732 0
M  V30 4992 C 483.085 -3.12869 -1.7788 0
M  V30 4993 C 482.693 -4.38161 -0.933768 0
M  V30 4994 C 484.437 -3.43265 -2.49738 0
M  V30 4995 C 482.344 -5.6534 -1.73623 0
M  V30 4996 H 481.274 -0.658795 -0.366749 0
M  V30 4997 H 483.925 -1.82092 -0.226902 0
M  V30 4998 H 482.307 -3.01606 -2.56612 0
M  V30 4999 H 483.481 -4.60413 -0.188736 0
M  V30 5000 H 481.796 -4.15102 -0.328488 0
M  V30 5001 H 484.393 -4.35501 -3.10231 0
M  V30 5002 H 484.736 -2.64614 -3.2138 0
M  V30 5003 H 485.269 -3.55746 -1.78016 0
M  V30 5004 H 482.008 -6.46814 -1.06354 0
M  V30 5005 H 481.528 -5.47188 -2.45653 0
M  V30 5006 H 483.207 -6.04616 -2.30323 0
M  V30 5007 N 483.339 0.512053 -1.4905 0
M  V30 5008 C 484.302 1.59704 -1.64399 0
M  V30 5009 C 485.302 1.52285 -0.516317 0
M  V30 5010 O 486.492 1.55635 -0.782527 0
M  V30 5011 C 483.624 2.9935 -1.63102 0
M  V30 5012 H 484.817 1.47428 -2.61161 0
M  V30 5013 H 482.37 0.735469 -1.37915 0
M  V30 5014 H 483.105 3.17116 -0.678836 0
M  V30 5015 H 482.89 3.06144 -2.44986 0
M  V30 5016 H 484.38 3.782 -1.77072 0
M  V30 5017 N 484.817 1.37938 0.762283 0
M  V30 5018 C 485.78 1.34279 1.85747 0
M  V30 5019 C 486.78 0.244969 1.58923 0
M  V30 5020 O 487.97 0.501365 1.66829 0
M  V30 5021 C 485.102 1.08833 3.23061 0
M  V30 5022 H 486.295 2.31705 1.90401 0
M  V30 5023 H 483.848 1.23105 0.963057 0
M  V30 5024 H 484.583 0.119767 3.24079 0
M  V30 5025 H 484.368 1.88306 3.43923 0
M  V30 5026 H 485.858 1.08946 4.03138 0
M  V30 5027 N 486.295 -0.989507 1.22664 0
M  V30 5028 C 487.523 -1.76496 1.07967 0
M  V30 5029 C 487.938 -1.85148 -0.369543 0
M  V30 5030 O 487.295 -1.32408 -1.25596 0
M  V30 5031 C 487.346 -3.19642 1.68853 0
M  V30 5032 O 487.067 -3.11453 3.08105 0
M  V30 5033 C 488.568 -4.13621 1.59475 0
M  V30 5034 H 485.788 -0.55418 0.378319 0
M  V30 5035 H 488.332 -1.24378 1.62328 0
M  V30 5036 H 486.487 -3.68816 1.18547 0
M  V30 5037 H 486.901 -4.01499 3.37489 0
M  V30 5038 H 488.375 -5.11801 2.06795 0
M  V30 5039 H 488.852 -4.35718 0.55191 0
M  V30 5040 H 489.458 -3.70346 2.09103 0
M  V30 5041 N 487.773 -1.03688 -1.18687 0
M  V30 5042 C 489.189 -0.755413 -1.4059 0
M  V30 5043 C 489.389 0.656659 -1.905 0
M  V30 5044 O 488.445 1.42144 -2.08689 0
M  V30 5045 C 489.758 -1.7983 -2.41001 0
M  V30 5046 C 491.306 -1.81877 -2.54735 0
M  V30 5047 C 491.781 -2.85148 -3.58406 0
M  V30 5048 N 493.272 -2.84015 -3.6591 0
M  V30 5049 C 494.007 -3.60573 -4.45841 0
M  V30 5050 N 493.503 -4.46871 -5.29413 0
M  V30 5051 N 495.296 -3.49079 -4.40568 0
M  V30 5052 H 487.447 -1.94818 -0.846148 0
M  V30 5053 H 489.71 -0.842727 -0.434184 0
M  V30 5054 H 489.416 -2.81097 -2.1137 0
M  V30 5055 H 489.29 -1.62727 -3.40294 0
M  V30 5056 H 491.677 -0.812836 -2.83685 0
M  V30 5057 H 491.758 -2.03057 -1.55568 0
M  V30 5058 H 491.402 -3.85918 -3.30197 0
M  V30 5059 H 491.332 -2.61224 -4.57241 0
M  V30 5060 H 493.823 -2.21431 -3.0623 0
M  V30 5061 H 494.136 -5.02007 -5.87545 0
M  V30 5062 H 492.481 -4.5094 -5.28846 0
M  V30 5063 H 495.672 -2.81066 -3.74325 0
M  V30 5064 H 495.845 -4.08994 -5.02621 0
M  V30 5065 N 489.251 1.34841 -0.815825 0
M  V30 5066 C 490.199 2.31549 -0.220888 0
M  V30 5067 C 491.193 1.5707 0.634457 0
M  V30 5068 O 492.399 1.72125 0.526589 0
M  V30 5069 H 488.774 0.750153 -0.0526782 0
M  V30 5070 H 490.745 2.7926 -1.05149 0
M  V30 5071 C 489.494 3.42335 0.608427 0
M  V30 5072 H 488.817 3.9978 -0.0404121 0
M  V30 5073 H 490.257 4.12258 0.990931 0
M  V30 5074 C 488.716 2.86173 1.77782 0
M  V30 5075 O 489.246 2.80474 2.87571 0
M  V30 5076 N 487.452 2.43093 1.59229 0
M  V30 5077 H 486.999 2.47928 0.699237 0
M  V30 5078 H 486.957 2.05866 2.37627 0
M  V30 5079 N 490.729 0.570148 1.46925 0
M  V30 5080 C 491.976 0.0509529 2.02436 0
M  V30 5081 C 492.304 -1.30405 1.44308 0
M  V30 5082 O 491.559 -1.86493 0.593198 0
M  V30 5083 C 491.858 -0.0780336 3.57315 0
M  V30 5084 C 491.524 1.20775 4.34424 0
M  V30 5085 C 490.186 1.56004 4.5521 0
M  V30 5086 C 492.538 2.0592 4.78797 0
M  V30 5087 C 489.866 2.76201 5.17619 0
M  V30 5088 C 492.218 3.25332 5.42533 0
M  V30 5089 C 490.882 3.60859 5.61549 0
M  V30 5090 H 490.152 0.018645 0.740765 0
M  V30 5091 H 492.799 0.744262 1.76445 0
M  V30 5092 H 491.104 -0.854394 3.82371 0
M  V30 5093 H 492.801 -0.495312 3.97929 0
M  V30 5094 H 489.391 0.923469 4.18533 0
M  V30 5095 H 493.575 1.80008 4.62505 0
M  V30 5096 H 488.831 3.0388 5.30535 0
M  V30 5097 H 493.005 3.91586 5.75876 0
M  V30 5098 H 490.632 4.54088 6.09678 0
M  V30 5099 N 492.207 -1.54576 0.307264 0
M  V30 5100 C 493.454 -2.00263 -0.300167 0
M  V30 5101 C 493.782 -1.19561 -1.53413 0
M  V30 5102 O 493.037 -0.261487 -1.93945 0
M  V30 5103 C 493.336 -3.50572 -0.695253 0
M  V30 5104 C 493.002 -4.48771 0.437679 0
M  V30 5105 C 491.664 -4.7534 0.748681 0
M  V30 5106 C 494.016 -5.0721 1.19949 0
M  V30 5107 C 491.344 -5.5761 1.8245 0
M  V30 5108 C 493.696 -5.90651 2.26527 0
M  V30 5109 C 492.36 -6.15528 2.58227 0
M  V30 5110 H 491.63 -0.732814 -0.109839 0
M  V30 5111 H 494.277 -1.86664 0.427661 0
M  V30 5112 H 492.582 -3.61814 -1.50326 0
M  V30 5113 H 494.279 -3.83352 -1.17653 0
M  V30 5114 H 490.869 -4.282 0.185187 0
M  V30 5115 H 495.053 -4.86679 0.972474 0
M  V30 5116 H 490.309 -5.75121 2.07476 0
M  V30 5117 H 494.483 -6.34957 2.86011 0
M  V30 5118 H 492.11 -6.79066 3.4172 0
M  V30 5119 N 493.685 -0.035106 -1.57561 0
M  V30 5120 C 494.595 0.960295 -2.14046 0
M  V30 5121 C 495.611 1.3529 -1.0942 0
M  V30 5122 O 496.787 1.43309 -1.41508 0
M  V30 5123 C 493.852 2.22214 -2.66124 0
M  V30 5124 C 492.913 1.8894 -3.85487 0
M  V30 5125 C 492.146 3.09109 -4.35072 0
M  V30 5126 O 492.369 4.21963 -3.83802 0
M  V30 5127 O 491.303 2.91058 -5.26848 0
M  V30 5128 H 495.129 0.509983 -2.99387 0
M  V30 5129 H 492.714 0.185853 -1.48239 0
M  V30 5130 H 494.596 2.96279 -2.99661 0
M  V30 5131 H 493.271 2.66414 -1.83862 0
M  V30 5132 H 492.178 1.12241 -3.56865 0
M  V30 5133 H 493.511 1.49551 -4.6893 0
M  V30 5134 N 495.163 1.55791 0.238111 0
M  V30 5135 C 496.095 1.87513 1.31802 0
M  V30 5136 C 497.108 0.762053 1.43863 0
M  V30 5137 O 498.297 1.04024 1.45056 0
M  V30 5138 C 495.397 2.05402 2.69561 0
M  V30 5139 C 494.57 3.3632 2.79656 0
M  V30 5140 C 493.629 3.43844 3.98319 0
M  V30 5141 O 492.655 4.16994 3.87433 0
M  V30 5142 N 493.857 2.73777 5.11885 0
M  V30 5143 H 496.622 2.80734 1.04922 0
M  V30 5144 H 494.183 1.56135 0.428196 0
M  V30 5145 H 496.175 2.07769 3.47296 0
M  V30 5146 H 494.745 1.18884 2.89111 0
M  V30 5147 H 493.965 3.46195 1.88528 0
M  V30 5148 H 495.253 4.22594 2.83358 0
M  V30 5149 H 494.651 2.14094 5.23622 0
M  V30 5150 H 493.208 2.81825 5.87723 0
M  V30 5151 N 496.642 -0.504142 1.49319 0
M  V30 5152 C 497.572 -1.61473 1.68667 0
M  V30 5153 C 498.553 -1.61455 0.535378 0
M  V30 5154 O 499.738 -1.78245 0.770868 0
M  V30 5155 C 496.868 -2.99971 1.75028 0
M  V30 5156 C 495.822 -3.14854 2.89916 0
M  V30 5157 C 495.148 -4.54671 2.81387 0
M  V30 5158 C 496.448 -2.95176 4.30893 0
M  V30 5159 H 498.142 -1.45535 2.61648 0
M  V30 5160 H 495.688 -0.698711 1.25913 0
M  V30 5161 H 497.641 -3.77562 1.8715 0
M  V30 5162 H 496.365 -3.1699 0.786441 0
M  V30 5163 H 495.024 -2.39687 2.77391 0
M  V30 5164 H 494.672 -4.68562 1.82917 0
M  V30 5165 H 494.372 -4.6557 3.58494 0
M  V30 5166 H 495.896 -5.34327 2.95512 0
M  V30 5167 H 497.31 -3.62538 4.44116 0
M  V30 5168 H 495.707 -3.17549 5.09198 0
M  V30 5169 H 496.777 -1.91332 4.45556 0
M  V30 5170 N 498.12 -1.38341 -0.754957 0
M  V30 5171 C 499.368 -1.34208 -1.51105 0
M  V30 5172 C 499.689 0.0677634 -1.94882 0
M  V30 5173 O 498.959 1.01517 -1.67544 0
M  V30 5174 H 497.539 -0.493819 -0.560493 0
M  V30 5175 H 500.201 -1.73005 -0.897507 0
M  V30 5176 H 499.297 -1.99203 -2.4026 0
M  V30 5177 N 499.598 0.982988 -1.23187 0
M  V30 5178 C 500.844 1.72648 -1.06398 0
M  V30 5179 C 501.177 1.90066 0.398561 0
M  V30 5180 O 500.452 1.45105 1.29518 0
M  V30 5181 C 500.735 3.12627 -1.78707 0
M  V30 5182 C 500.588 3.02795 -3.32618 0
M  V30 5183 C 501.907 4.11997 -1.54747 0
M  V30 5184 H 499.026 0.626649 -0.387918 0
M  V30 5185 H 501.668 1.14455 -1.51658 0
M  V30 5186 H 499.818 3.62308 -1.40234 0
M  V30 5187 H 501.49 2.60659 -3.80598 0
M  V30 5188 H 499.733 2.39362 -3.61785 0
M  V30 5189 H 500.404 4.01893 -3.78399 0
M  V30 5190 H 502.88 3.71114 -1.88186 0
M  V30 5191 H 501.756 5.08037 -2.07821 0
M  V30 5192 H 502.017 4.39462 -0.482249 0
M  V30 5193 N 501.076 1.04316 1.18135 0
M  V30 5194 C 502.487 0.775505 1.69832 0
M  V30 5195 C 502.838 -0.703348 1.8316 0
M  V30 5196 O 501.963 -1.54729 1.51287 0
M  V30 5197 C 502.558 1.40112 3.0847 0
M  V30 5198 C 501.117 1.18172 3.57368 0
M  V30 5199 C 500.264 1.49022 2.33854 0
M  V30 5200 H 503.215 1.20925 1.02775 0
M  V30 5201 H 503.236 0.805672 3.71873 0
M  V30 5202 H 502.748 2.47744 2.98738 0
M  V30 5203 H 500.849 0.124258 3.72393 0
M  V30 5204 H 500.962 1.8805 4.40652 0
M  V30 5205 H 499.326 0.909995 2.37889 0
M  V30 5206 H 500.109 2.57768 2.26738 0
M  V30 5207 N 502.554 -1.34406 0.822964 0
M  V30 5208 C 503.782 -2.02508 0.424039 0
M  V30 5209 C 504.197 -1.61975 -0.970022 0
M  V30 5210 O 503.554 -0.825228 -1.62777 0
M  V30 5211 C 503.605 -3.57789 0.516657 0
M  V30 5212 O 503.326 -3.96853 1.85577 0
M  V30 5213 C 504.827 -4.43157 0.112637 0
M  V30 5214 H 502.047 -0.649063 0.170173 0
M  V30 5215 H 504.591 -1.7168 1.11113 0
M  V30 5216 H 502.746 -3.87207 -0.122353 0
M  V30 5217 H 503.16 -4.91538 1.83005 0
M  V30 5218 H 504.634 -5.51527 0.228526 0
M  V30 5219 H 505.111 -4.28939 -0.943837 0
M  V30 5220 H 505.717 -4.19067 0.725449 0
M  V30 5221 N 504.032 -0.577932 -1.46621 0
M  V30 5222 C 504.982 0.178869 -2.27297 0
M  V30 5223 C 505.966 0.866279 -1.35589 0
M  V30 5224 O 507.158 0.761163 -1.59798 0
M  V30 5225 C 504.287 1.19499 -3.2183 0
M  V30 5226 C 503.373 0.50994 -4.21023 0
M  V30 5227 N 503.764 -0.43177 -5.03954 0
M  V30 5228 C 502.062 0.761287 -4.39455 0
M  V30 5229 C 502.763 -0.831693 -5.75724 0
M  V30 5230 N 501.739 -0.181897 -5.43296 0
M  V30 5231 H 505.541 -0.544859 -2.88805 0
M  V30 5232 H 503.055 -0.399373 -1.57413 0
M  V30 5233 H 505.052 1.75131 -3.78332 0
M  V30 5234 H 503.712 1.91959 -2.61881 0
M  V30 5235 H 504.723 -0.807045 -5.11573 0
M  V30 5236 H 501.4 1.47282 -3.90659 0
M  V30 5237 H 502.79 -1.6067 -6.52407 0
M  V30 5238 N 505.51 1.54411 -0.315457 0
M  V30 5239 C 506.44 2.27002 0.547039 0
M  V30 5240 C 507.421 1.27492 1.12605 0
M  V30 5241 O 508.606 1.5629 1.15269 0
M  V30 5242 C 505.736 3.02171 1.71201 0
M  V30 5243 C 504.69 4.0895 1.26268 0
M  V30 5244 C 504.016 4.71915 2.51396 0
M  V30 5245 C 505.316 5.20891 0.383419 0
M  V30 5246 H 507.01 2.99343 -0.0584517 0
M  V30 5247 H 504.556 1.4397 -0.0295527 0
M  V30 5248 H 506.509 3.51681 2.32161 0
M  V30 5249 H 505.233 2.27433 2.34397 0
M  V30 5250 H 503.892 3.60312 0.676062 0
M  V30 5251 H 503.54 3.93801 3.12937 0
M  V30 5252 H 503.24 5.44039 2.22026 0
M  V30 5253 H 504.764 5.24195 3.13133 0
M  V30 5254 H 506.178 5.66206 0.899082 0
M  V30 5255 H 504.575 5.99821 0.182857 0
M  V30 5256 H 505.645 4.81324 -0.587821 0
M  V30 5257 N 506.988 0.0434614 1.5754 0
M  V30 5258 C 508.213 -0.645358 1.97104 0
M  V30 5259 C 508.638 -1.64037 0.920521 0
M  V30 5260 O 507.996 -1.80922 -0.11708 0
M  V30 5261 C 508.044 -1.31547 3.35749 0
M  V30 5262 O 507.148 -2.43103 3.33129 0
M  V30 5263 H 506.489 -0.168403 0.64229 0
M  V30 5264 H 509.019 0.109573 2.04306 0
M  V30 5265 H 509.029 -1.66895 3.72304 0
M  V30 5266 H 507.704 -0.586205 4.11748 0
M  V30 5267 H 506.281 -2.0976 3.0831 0
M  V30 5268 N 508.466 -1.55915 -0.229846 0
M  V30 5269 C 509.743 -1.6932 -0.979295 0
M  V30 5270 C 510.123 -0.588321 -2.02736 0
M  V30 5271 O 509.471 0.40586 -2.24867 0
M  V30 5272 C 509.681 -3.10305 -1.59724 0
M  V30 5273 C 511.029 -3.6945 -2.09264 0
M  V30 5274 O 512.053 -3.13214 -1.69633 0
M  V30 5275 O 510.912 -4.68072 -2.82082 0
M  V30 5276 H 508.006 -0.689314 -0.456919 0
M  V30 5277 H 510.552 -1.68238 -0.222283 0
M  V30 5278 H 509.324 -3.82177 -0.840039 0
M  V30 5279 H 508.947 -3.1547 -2.42001 0
M  V30 5280 N 509.944 0.496216 -1.49584 0
M  V30 5281 C 511.174 1.27209 -1.62793 0
M  V30 5282 C 511.582 1.86799 -0.300476 0
M  V30 5283 O 510.925 1.68802 0.724674 0
M  V30 5284 C 510.987 2.43812 -2.64189 0
M  V30 5285 C 510.651 2.05055 -4.08414 0
M  V30 5286 C 511.648 1.58752 -4.9507 0
M  V30 5287 C 509.333 2.14543 -4.54177 0
M  V30 5288 C 511.327 1.22448 -6.25528 0
M  V30 5289 C 509.014 1.77851 -5.84647 0
M  V30 5290 C 510.012 1.31878 -6.70147 0
M  V30 5291 O 509.7 0.956834 -7.98185 0
M  V30 5292 H 509.432 0.391848 -0.550846 0
M  V30 5293 H 511.986 0.601712 -1.96389 0
M  V30 5294 H 510.216 3.13941 -2.25783 0
M  V30 5295 H 511.905 3.05829 -2.66877 0
M  V30 5296 H 512.671 1.50863 -4.60939 0
M  V30 5297 H 508.55 2.49277 -3.87791 0
M  V30 5298 H 512.094 0.864933 -6.92217 0
M  V30 5299 H 507.991 1.8539 -6.18305 0
M  V30 5300 H 508.759 1.08789 -8.11238 0
M  V30 5301 N 511.423 1.38739 0.74761 0
M  V30 5302 C 512.671 1.35007 1.50391 0
M  V30 5303 C 512.992 -0.0574274 1.94915 0
M  V30 5304 O 512.262 -1.00628 1.6808 0
M  V30 5305 H 510.842 0.496784 0.557866 0
M  V30 5306 H 513.504 1.73479 0.888319 0
M  V30 5307 H 512.6 2.00474 2.392 0
M  V30 5308 N 512.901 -0.976442 1.23707 0
M  V30 5309 C 513.831 -2.08749 1.04624 0
M  V30 5310 C 514.812 -1.70057 -0.0380956 0
M  V30 5311 O 515.997 -1.93782 0.127308 0
M  V30 5312 C 513.127 -3.41335 0.640902 0
M  V30 5313 C 512.081 -3.93947 1.67302 0
M  V30 5314 C 511.407 -5.22774 1.12301 0
M  V30 5315 C 512.707 -4.22769 3.06697 0
M  V30 5316 H 514.401 -2.24972 1.97555 0
M  V30 5317 H 511.947 -1.08108 0.951247 0
M  V30 5318 H 513.9 -4.18489 0.494434 0
M  V30 5319 H 512.624 -3.24988 -0.324099 0
M  V30 5320 H 511.283 -3.18941 1.80755 0
M  V30 5321 H 510.931 -5.0278 0.148877 0
M  V30 5322 H 510.631 -5.58942 1.81267 0
M  V30 5323 H 512.155 -6.02546 0.988479 0
M  V30 5324 H 513.569 -4.90659 2.96524 0
M  V30 5325 H 511.966 -4.70147 3.72937 0
M  V30 5326 H 513.036 -3.29885 3.55392 0
M  V30 5327 N 514.379 -1.04941 -1.1758 0
M  V30 5328 C 515.656 -0.671918 -1.83697 0
M  V30 5329 C 516.036 0.847929 -1.93322 0
M  V30 5330 O 515.384 1.75287 -1.46583 0
M  V30 5331 C 515.594 -1.35797 -3.21497 0
M  V30 5332 C 516.942 -1.4944 -3.97433 0
M  V30 5333 O 517.966 -1.31678 -3.30967 0
M  V30 5334 O 516.825 -1.78463 -5.1654 0
M  V30 5335 H 513.919 -0.236212 -0.792548 0
M  V30 5336 H 516.465 -1.14884 -1.24899 0
M  V30 5337 H 515.237 -2.39498 -3.09446 0
M  V30 5338 H 514.86 -0.870236 -3.8796 0
M  V30 5339 N 515.857 1.33968 -0.830081 0
M  V30 5340 C 517.105 1.97672 -0.420734 0
M  V30 5341 C 517.426 1.66111 1.02138 0
M  V30 5342 O 516.696 0.955503 1.71017 0
M  V30 5343 H 515.276 0.73125 -0.152587 0
M  V30 5344 H 517.938 1.63483 -1.0611 0
M  V30 5345 H 517.034 3.07294 -0.545588 0
M  V30 5346 N 517.335 0.585699 1.46312 0
M  V30 5347 C 518.56 0.0762461 2.0726 0
M  V30 5348 C 518.985 -1.22071 1.43109 0
M  V30 5349 O 518.343 -1.73804 0.515942 0
M  V30 5350 C 518.391 -0.0729404 3.60526 0
M  V30 5351 O 517.495 -1.1287 3.96654 0
M  V30 5352 H 516.836 0.0641558 0.660893 0
M  V30 5353 H 519.366 0.809492 1.87905 0
M  V30 5354 H 519.376 -0.278158 4.07051 0
M  V30 5355 H 518.051 0.874188 4.06609 0
M  V30 5356 H 516.628 -0.901703 3.61834 0
M  V30 5357 N 518.813 -1.54241 0.323641 0
M  V30 5358 C 520.038 -2.05452 -0.283605 0
M  V30 5359 C 520.463 -1.19823 -1.44997 0
M  V30 5360 O 519.821 -0.207358 -1.8011 0
M  V30 5361 C 519.869 -3.53823 -0.695795 0
M  V30 5362 O 518.973 -3.71134 -1.79815 0
M  V30 5363 H 518.314 -0.662024 -0.0511917 0
M  V30 5364 H 520.844 -1.99079 0.472073 0
M  V30 5365 H 520.854 -3.96094 -0.978434 0
M  V30 5366 H 519.529 -4.15602 0.157287 0
M  V30 5367 H 518.106 -3.40768 -1.51431 0
M  V30 5368 N 520.291 -0.0518155 -1.57515 0
M  V30 5369 C 521.54 0.621286 -1.91893 0
M  V30 5370 C 521.853 1.71966 -0.932052 0
M  V30 5371 O 523.059 2.45096 -1.16791 0
M  V30 5372 C 521.515 1.15641 -3.40816 0
M  V30 5373 C 521.123 0.0901146 -4.47909 0
M  V30 5374 C 522.867 1.80472 -3.84227 0
M  V30 5375 C 520.774 0.638154 -5.87947 0
M  V30 5376 H 519.704 0.235835 -0.716169 0
M  V30 5377 H 522.355 -0.120809 -1.83102 0
M  V30 5378 H 520.737 1.95084 -3.44613 0
M  V30 5379 H 521.911 -0.683525 -4.55702 0
M  V30 5380 H 520.226 -0.460774 -4.13843 0
M  V30 5381 H 522.823 2.22471 -4.86221 0
M  V30 5382 H 523.166 2.65669 -3.20508 0
M  V30 5383 H 523.699 1.07683 -3.82948 0
M  V30 5384 H 520.438 -0.176202 -6.55263 0
M  V30 5385 H 519.958 1.37976 -5.83714 0
M  V30 5386 H 521.637 1.12085 -6.37217 0
M  V30 5387 N 521.769 1.56035 0.221574 0
M  V30 5388 C 523.18 1.69229 0.788567 0
M  V30 5389 C 523.531 0.653814 1.84986 0
M  V30 5390 O 522.656 -0.195065 2.15519 0
M  V30 5391 C 523.251 3.06809 1.43713 0
M  V30 5392 C 521.81 3.21858 1.95152 0
M  V30 5393 C 520.957 2.65155 0.811685 0
M  V30 5394 H 523.908 1.587 -0.00307894 0
M  V30 5395 H 523.929 3.02666 2.30594 0
M  V30 5396 H 523.441 3.82369 0.664475 0
M  V30 5397 H 521.542 2.51167 2.7522 0
M  V30 5398 H 521.655 4.29073 2.1315 0
M  V30 5399 H 520.019 2.23635 1.21899 0
M  V30 5400 H 520.802 3.43261 0.0516987 0
M  V30 5401 N 523.247 -0.488276 1.49845 0
M  V30 5402 C 524.21 -1.57069 1.66919 0
M  V30 5403 C 525.21 -1.51445 0.540479 0
M  V30 5404 O 526.4 -1.5437 0.807188 0
M  V30 5405 C 523.532 -2.96718 1.67844 0
M  V30 5406 H 524.725 -1.43254 2.63474 0
M  V30 5407 H 522.278 -0.713435 1.39068 0
M  V30 5408 H 523.013 -3.15996 0.7292 0
M  V30 5409 H 522.798 -3.02208 2.49826 0
M  V30 5410 H 524.288 -3.75335 1.83066 0
M  V30 5411 N 524.725 -1.39134 -0.740242 0
M  V30 5412 C 525.655 -1.40165 -1.86751 0
M  V30 5413 C 526.636 -0.265708 -1.68012 0
M  V30 5414 O 527.821 -0.47076 -1.88408 0
M  V30 5415 C 524.951 -1.2392 -3.2444 0
M  V30 5416 C 523.905 -2.34858 -3.57807 0
M  V30 5417 C 523.231 -2.03707 -4.94376 0
M  V30 5418 C 524.531 -3.77159 -3.61315 0
M  V30 5419 H 526.225 -2.345 -1.86145 0
M  V30 5420 H 523.771 -1.12875 -0.89416 0
M  V30 5421 H 525.724 -1.23263 -4.02969 0
M  V30 5422 H 524.448 -0.26051 -3.25559 0
M  V30 5423 H 523.107 -2.34723 -2.81604 0
M  V30 5424 H 522.755 -1.04289 -4.9207 0
M  V30 5425 H 522.455 -2.78016 -5.17669 0
M  V30 5426 H 523.979 -2.04691 -5.75268 0
M  V30 5427 H 525.393 -3.79252 -4.29931 0
M  V30 5428 H 523.79 -4.50784 -3.96124 0
M  V30 5429 H 524.86 -4.08513 -2.61238 0
M  V30 5430 N 526.204 0.969867 -1.24223 0
M  V30 5431 C 527.134 2.08191 -1.05729 0
M  V30 5432 C 528.115 1.70075 0.0290765 0
M  V30 5433 O 529.3 1.93712 -0.137583 0
M  V30 5434 C 526.43 3.40991 -0.658995 0
M  V30 5435 C 525.384 3.93054 -1.69389 0
M  V30 5436 C 524.71 5.22171 -1.15072 0
M  V30 5437 C 526.01 4.21137 -3.08935 0
M  V30 5438 H 527.704 2.23921 -1.98746 0
M  V30 5439 H 525.25 1.07602 -0.956967 0
M  V30 5440 H 527.203 4.18221 -0.51662 0
M  V30 5441 H 525.927 3.25155 0.30686 0
M  V30 5442 H 524.586 3.17977 -1.82444 0
M  V30 5443 H 524.234 5.02694 -0.175539 0
M  V30 5444 H 523.934 5.57973 -1.84229 0
M  V30 5445 H 525.458 6.02013 -1.02042 0
M  V30 5446 H 526.872 4.8908 -2.99121 0
M  V30 5447 H 525.269 4.68163 -3.75425 0
M  V30 5448 H 526.339 3.27996 -3.57137 0
M  V30 5449 N 527.682 1.05563 1.17022 0
M  V30 5450 C 528.629 0.659893 2.21165 0
M  V30 5451 C 529.599 -0.339813 1.62587 0
M  V30 5452 O 530.784 -0.230378 1.89404 0
M  V30 5453 C 527.924 0.0447297 3.45071 0
M  V30 5454 C 527.037 1.09372 4.17926 0
M  V30 5455 C 526.172 0.445481 5.29329 0
M  V30 5456 C 525.211 1.47852 5.93975 0
M  V30 5457 N 524.348 0.854172 6.96885 0
M  V30 5458 H 529.188 1.55243 2.54369 0
M  V30 5459 H 526.725 0.776336 1.24946 0
M  V30 5460 H 528.683 -0.329404 4.15898 0
M  V30 5461 H 527.313 -0.811244 3.1244 0
M  V30 5462 H 526.365 1.58564 3.45777 0
M  V30 5463 H 527.677 1.87773 4.62107 0
M  V30 5464 H 526.831 0.0179688 6.06697 0
M  V30 5465 H 525.57 -0.370481 4.86291 0
M  V30 5466 H 524.575 1.91601 5.15334 0
M  V30 5467 H 525.8 2.29645 6.39093 0
M  V30 5468 H 523.746 0.0587882 6.55974 0
M  V30 5469 H 523.663 1.57567 7.39397 0
M  V30 5470 H 524.931 0.451559 7.78191 0
M  V30 5471 N 529.16 -1.33526 0.837174 0
M  V30 5472 C 530.107 -2.29248 0.267169 0
M  V30 5473 C 531.077 -1.54252 -0.616071 0
M  V30 5474 O 532.262 -1.82559 -0.554699 0
M  V30 5475 C 529.402 -3.40638 -0.553152 0
M  V30 5476 C 528.515 -4.30548 0.353921 0
M  V30 5477 C 527.65 -5.29051 -0.477339 0
M  V30 5478 C 526.689 -6.106 0.42823 0
M  V30 5479 N 525.826 -7.01152 -0.364801 0
M  V30 5480 H 530.666 -2.77398 1.08877 0
M  V30 5481 H 528.203 -1.36496 0.54838 0
M  V30 5482 H 530.161 -4.03921 -1.04422 0
M  V30 5483 H 528.791 -2.93685 -1.33973 0
M  V30 5484 H 527.843 -3.68001 0.963289 0
M  V30 5485 H 529.155 -4.87631 1.04964 0
M  V30 5486 H 528.309 -5.97853 -1.0323 0
M  V30 5487 H 527.048 -4.72541 -1.2065 0
M  V30 5488 H 526.053 -5.40718 0.995219 0
M  V30 5489 H 527.278 -6.69193 1.15573 0
M  V30 5490 H 525.224 -6.47092 -1.07738 0
M  V30 5491 H 525.141 -7.5551 0.272238 0
M  V30 5492 H 526.409 -7.74263 -0.902054 0
M  V30 5493 N 530.638 -0.59345 -1.46 0
M  V30 5494 C 531.568 0.121192 -2.33185 0
M  V30 5495 C 532.549 0.872977 -1.4599 0
M  V30 5496 O 533.734 0.846321 -1.74789 0
M  V30 5497 C 530.864 1.12844 -3.28456 0
M  V30 5498 C 529.818 0.4908 -4.25177 0
M  V30 5499 C 529.144 1.60529 -5.10034 0
M  V30 5500 C 530.444 -0.578949 -5.19081 0
M  V30 5501 H 532.138 -0.606767 -2.93187 0
M  V30 5502 H 529.684 -0.293242 -1.40983 0
M  V30 5503 H 531.637 1.63684 -3.88311 0
M  V30 5504 H 530.361 1.88681 -2.66584 0
M  V30 5505 H 529.02 0.00339328 -3.666 0
M  V30 5506 H 528.668 2.35359 -4.44539 0
M  V30 5507 H 528.368 1.18422 -5.75543 0
M  V30 5508 H 529.892 2.11623 -5.72755 0
M  V30 5509 H 531.306 -0.155199 -5.7309 0
M  V30 5510 H 529.703 -0.920947 -5.92991 0
M  V30 5511 H 530.773 -1.46109 -4.62364 0
M  V30 5512 N 532.116 1.54067 -0.331816 0
M  V30 5513 C 533.026 2.28322 0.539104 0
M  V30 5514 C 534.042 1.32985 1.1221 0
M  V30 5515 O 535.218 1.6601 1.1403 0
M  V30 5516 C 532.283 3.03277 1.68 0
M  V30 5517 C 531.344 4.14216 1.12798 0
M  V30 5518 C 530.577 4.85588 2.2145 0
M  V30 5519 O 530.8 4.56536 3.41952 0
M  V30 5520 O 529.734 5.72309 1.86404 0
M  V30 5521 H 533.56 3.03632 -0.0641692 0
M  V30 5522 H 531.145 1.49083 -0.0972365 0
M  V30 5523 H 533.027 3.50189 2.34405 0
M  V30 5524 H 531.702 2.30834 2.2693 0
M  V30 5525 H 530.609 3.71635 0.428782 0
M  V30 5526 H 531.942 4.88727 0.583698 0
M  V30 5527 N 533.594 0.0601682 1.57485 0
M  V30 5528 C 534.504 -0.926121 2.15546 0
M  V30 5529 C 535.52 -1.33532 1.11558 0
M  V30 5530 O 536.696 -1.4104 1.4377 0
M  V30 5531 C 533.761 -2.17952 2.69625 0
M  V30 5532 C 532.822 -1.82783 3.88444 0
M  V30 5533 C 532.055 -3.02148 4.39935 0
M  V30 5534 O 532.278 -4.15803 3.90466 0
M  V30 5535 O 531.212 -2.82639 5.31412 0
M  V30 5536 H 535.038 -0.462289 3.00161 0
M  V30 5537 H 532.623 -0.162246 1.48516 0
M  V30 5538 H 534.505 -2.91474 3.04337 0
M  V30 5539 H 533.18 -2.63456 1.88077 0
M  V30 5540 H 532.087 -1.06549 3.58606 0
M  V30 5541 H 533.42 -1.42072 4.7125 0
M  V30 5542 N 535.072 -1.5615 -0.213296 0
M  V30 5543 C 536.022 -1.89485 -1.26804 0
M  V30 5544 C 537.006 -0.758713 -1.41889 0
M  V30 5545 O 538.198 -1.02127 -1.44565 0
M  V30 5546 C 535.327 -2.22219 -2.61675 0
M  V30 5547 C 534.413 -3.42245 -2.50458 0
M  V30 5548 N 534.804 -4.60645 -2.089 0
M  V30 5549 C 533.102 -3.46023 -2.81397 0
M  V30 5550 C 533.803 -5.42805 -2.09135 0
M  V30 5551 N 532.779 -4.82732 -2.49941 0
M  V30 5552 H 536.581 -2.78537 -0.937771 0
M  V30 5553 H 534.095 -1.56826 -0.421824 0
M  V30 5554 H 536.092 -2.44278 -3.37837 0
M  V30 5555 H 534.752 -1.34484 -2.95541 0
M  V30 5556 H 535.763 -4.85651 -1.79899 0
M  V30 5557 H 532.44 -2.68654 -3.1958 0
M  V30 5558 H 533.83 -6.47601 -1.79059 0
M  V30 5559 N 536.55 0.480323 -1.50102 0
M  V30 5560 C 537.798 1.23063 -1.60312 0
M  V30 5561 C 538.119 1.92659 -0.301226 0
M  V30 5562 O 537.389 1.83691 0.680753 0
M  V30 5563 H 535.969 0.457231 -0.590719 0
M  V30 5564 H 538.631 0.554893 -1.86834 0
M  V30 5565 H 537.727 1.9835 -2.40964 0
M  V30 5566 N 538.028 1.39524 0.732853 0
M  V30 5567 C 538.961 1.32806 1.85574 0
M  V30 5568 C 539.939 0.201354 1.61348 0
M  V30 5569 O 541.123 0.38216 1.84585 0
M  V30 5570 C 538.25 1.06271 3.21596 0
M  V30 5571 C 537.296 2.21161 3.64678 0
M  V30 5572 S 538.129 3.83454 3.73796 0
M  V30 5573 C 539.285 3.59149 5.12604 0
M  V30 5574 H 539.518 2.27838 1.9099 0
M  V30 5575 H 537.051 1.25605 0.897927 0
M  V30 5576 H 539.009 0.916461 4.00139 0
M  V30 5577 H 537.67 0.129223 3.13834 0
M  V30 5578 H 536.863 1.98193 4.63396 0
M  V30 5579 H 536.465 2.32 2.93346 0
M  V30 5580 H 538.757 3.16547 5.99003 0
M  V30 5581 H 539.7 4.57335 5.40602 0
M  V30 5582 H 540.108 2.93203 4.82382 0
M  V30 5583 N 539.506 -0.963266 1.24736 0
M  V30 5584 C 540.734 -1.74166 1.11686 0
M  V30 5585 C 541.149 -1.8589 -0.330187 0
M  V30 5586 O 540.506 -1.35042 -1.2276 0
M  V30 5587 C 540.557 -3.15989 1.75595 0
M  V30 5588 O 540.278 -3.04847 3.14642 0
M  V30 5589 C 541.779 -4.10145 1.68213 0
M  V30 5590 H 538.999 -0.546031 0.389989 0
M  V30 5591 H 541.543 -1.20907 1.64929 0
M  V30 5592 H 539.698 -3.66219 1.26343 0
M  V30 5593 H 540.112 -3.9425 3.4593 0
M  V30 5594 H 541.586 -5.07299 2.17604 0
M  V30 5595 H 542.063 -4.3445 0.644208 0
M  V30 5596 H 542.669 -3.65827 2.16912 0
M  V30 5597 N 540.985 -1.06182 -1.16461 0
M  V30 5598 C 541.917 -0.629584 -2.20383 0
M  V30 5599 C 542.93 0.311834 -1.59786 0
M  V30 5600 O 544.119 0.103 -1.78203 0
M  V30 5601 C 541.219 0.0973695 -3.3876 0
M  V30 5602 C 540.392 -0.857252 -4.28917 0
M  V30 5603 C 539.451 -0.169749 -5.25926 0
M  V30 5604 O 538.477 -0.807044 -5.6345 0
M  V30 5605 N 539.679 1.08911 -5.70192 0
M  V30 5606 H 542.444 -1.52352 -2.58087 0
M  V30 5607 H 540.005 -0.944993 -1.31459 0
M  V30 5608 H 541.997 0.567676 -4.00699 0
M  V30 5609 H 540.567 0.893093 -2.99571 0
M  V30 5610 H 539.787 -1.50696 -3.64259 0
M  V30 5611 H 541.075 -1.50489 -4.86035 0
M  V30 5612 H 540.473 1.62703 -5.41797 0
M  V30 5613 H 539.03 1.50331 -6.34227 0
M  V30 5614 N 542.463 1.3308 -0.844243 0
M  V30 5615 C 543.393 2.3161 -0.296493 0
M  V30 5616 C 544.374 1.59215 0.598707 0
M  V30 5617 O 545.559 1.87077 0.521134 0
M  V30 5618 C 542.689 3.43313 0.524762 0
M  V30 5619 C 541.643 4.27115 -0.275106 0
M  V30 5620 C 540.969 5.30483 0.670236 0
M  V30 5621 C 542.269 5.00443 -1.49514 0
M  V30 5622 H 543.963 2.77672 -1.11976 0
M  V30 5623 H 541.509 1.33496 -0.539899 0
M  V30 5624 H 543.462 4.11273 0.918298 0
M  V30 5625 H 542.186 2.95952 1.3813 0
M  V30 5626 H 540.845 3.60787 -0.650267 0
M  V30 5627 H 540.493 4.79379 1.52332 0
M  V30 5628 H 540.193 5.87435 0.139123 0
M  V30 5629 H 541.717 6.01308 1.06117 0
M  V30 5630 H 543.131 5.61141 -1.17447 0
M  V30 5631 H 541.528 5.67071 -1.96343 0
M  V30 5632 H 542.598 4.28906 -2.26202 0
M  V30 5633 N 543.941 0.601185 1.45683 0
M  V30 5634 C 545.189 0.0936957 2.01883 0
M  V30 5635 C 545.51 -1.2779 1.47291 0
M  V30 5636 O 544.78 -1.84279 0.664691 0
M  V30 5637 H 543.36 0.0316466 0.746329 0
M  V30 5638 H 546.022 0.781137 1.78562 0
M  V30 5639 H 545.118 0.0386297 3.12076 0
M  V30 5640 N 545.419 -1.53889 0.339982 0
M  V30 5641 C 546.329 -2.28604 -0.526988 0
M  V30 5642 C 547.345 -1.33578 -1.11503 0
M  V30 5643 O 548.521 -1.66612 -1.13148 0
M  V30 5644 C 545.586 -3.04164 -1.66389 0
M  V30 5645 C 544.647 -4.14809 -1.10599 0
M  V30 5646 C 543.88 -4.86756 -2.18871 0
M  V30 5647 O 544.103 -4.58343 -3.39526 0
M  V30 5648 O 543.037 -5.73289 -1.83366 0
M  V30 5649 H 546.863 -3.03594 0.0802707 0
M  V30 5650 H 544.448 -1.4903 0.105141 0
M  V30 5651 H 546.33 -3.51427 -2.32544 0
M  V30 5652 H 545.005 -2.32035 -2.25703 0
M  V30 5653 H 543.912 -3.71857 -0.409067 0
M  V30 5654 H 545.245 -4.89029 -0.557771 0
M  V30 5655 N 546.897 -0.0685191 -1.57451 0
M  V30 5656 C 547.845 0.917577 -2.13736 0
M  V30 5657 C 548.839 1.31049 -1.07344 0
M  V30 5658 O 550.045 1.28811 -1.25728 0
M  V30 5659 H 546.42 0.313835 -0.683382 0
M  V30 5660 H 548.391 0.417903 -2.95459 0
M  V30 5661 C 547.14 2.17686 -2.71123 0
M  V30 5662 H 546.463 1.88336 -3.52661 0
M  V30 5663 H 547.903 2.84803 -3.14107 0
M  V30 5664 C 546.362 2.9332 -1.65726 0
M  V30 5665 O 546.892 3.86901 -1.08031 0
M  V30 5666 N 545.098 2.56367 -1.36837 0
M  V30 5667 H 544.645 1.80341 -1.83943 0
M  V30 5668 H 544.603 3.07276 -0.665501 0
M  V30 5669 N 548.375 1.56261 0.205012 0
M  V30 5670 C 549.325 1.90155 1.25798 0
M  V30 5671 C 550.309 0.766227 1.41484 0
M  V30 5672 O 551.501 1.02893 1.44021 0
M  V30 5673 C 548.63 2.23603 2.60493 0
M  V30 5674 C 547.716 3.43568 2.48639 0
M  V30 5675 N 548.107 4.61747 2.06455 0
M  V30 5676 C 546.405 3.4751 2.79558 0
M  V30 5677 C 547.106 5.43907 2.06253 0
M  V30 5678 N 546.082 4.84051 2.47377 0
M  V30 5679 H 549.884 2.79031 0.922986 0
M  V30 5680 H 547.398 1.57048 0.413501 0
M  V30 5681 H 549.395 2.46067 3.36537 0
M  V30 5682 H 548.055 1.36049 2.94823 0
M  V30 5683 H 549.066 4.86598 1.77321 0
M  V30 5684 H 545.743 2.70345 3.18151 0
M  V30 5685 H 547.133 6.48542 1.75622 0
M  V30 5686 N 549.853 -0.472356 1.50355 0
M  V30 5687 C 551.13 -1.23356 1.51798 0
M  V30 5688 C 551.51 -2.09469 0.26193 0
M  V30 5689 O 550.858 -2.15677 -0.754691 0
M  V30 5690 C 551.068 -2.06568 2.81302 0
M  V30 5691 C 552.416 -2.648 3.31913 0
M  V30 5692 O 553.44 -2.16812 2.82614 0
M  V30 5693 O 552.299 -3.52231 4.17846 0
M  V30 5694 H 549.393 -0.559707 0.608816 0
M  V30 5695 H 551.939 -0.48428 1.62643 0
M  V30 5696 H 550.711 -1.43103 3.64194 0
M  V30 5697 H 550.334 -2.88633 2.73454 0
M  V30 5698 N 551.331 -1.39911 -0.725443 0
M  V30 5699 C 552.58 -1.36963 -1.48068 0
M  V30 5700 C 552.893 0.0284478 -1.95579 0
M  V30 5701 O 554.099 0.180535 -2.70899 0
M  V30 5702 C 552.555 -2.40664 -2.67598 0
M  V30 5703 C 552.163 -3.86234 -2.26997 0
M  V30 5704 C 553.907 -2.46807 -3.45379 0
M  V30 5705 C 551.814 -4.81554 -3.43307 0
M  V30 5706 H 550.744 -0.509223 -0.556065 0
M  V30 5707 H 553.395 -1.65602 -0.790454 0
M  V30 5708 H 551.777 -2.05109 -3.38742 0
M  V30 5709 H 552.951 -4.3088 -1.63337 0
M  V30 5710 H 551.266 -3.83475 -1.62284 0
M  V30 5711 H 553.863 -3.15213 -4.31909 0
M  V30 5712 H 554.206 -1.49552 -3.8851 0
M  V30 5713 H 554.739 -2.81303 -2.81271 0
M  V30 5714 H 551.478 -5.80106 -3.05217 0
M  V30 5715 H 550.998 -4.4158 -4.05915 0
M  V30 5716 H 552.677 -5.0091 -4.0951 0
M  V30 5717 N 552.809 0.956637 -1.25245 0
M  V30 5718 C 554.037 1.73571 -1.12608 0
M  V30 5719 C 554.452 1.86063 0.320324 0
M  V30 5720 O 553.809 1.35691 1.22042 0
M  V30 5721 C 553.86 3.15053 -1.77268 0
M  V30 5722 O 553.581 3.03174 -3.16255 0
M  V30 5723 C 555.082 4.09248 -1.70386 0
M  V30 5724 H 552.302 0.543955 -0.392879 0
M  V30 5725 H 554.846 1.20031 -1.65568 0
M  V30 5726 H 553.001 3.65543 -1.28284 0
M  V30 5727 H 553.415 3.9241 -3.48015 0
M  V30 5728 H 554.889 5.06138 -2.20291 0
M  V30 5729 H 555.366 4.34102 -0.667239 0
M  V30 5730 H 555.972 3.64672 -2.18849 0
M  V30 5731 N 554.287 1.06798 1.15896 0
M  V30 5732 C 555.217 0.704677 2.22613 0
M  V30 5733 C 556.198 -0.305252 1.67339 0
M  V30 5734 O 557.383 -0.179247 1.93371 0
M  V30 5735 C 554.513 0.0957325 3.47168 0
M  V30 5736 C 553.467 1.0322 4.15367 0
M  V30 5737 C 552.793 0.286293 5.33933 0
M  V30 5738 C 554.093 2.36341 4.65768 0
M  V30 5739 H 555.787 1.59688 2.53259 0
M  V30 5740 H 553.333 0.769257 1.21731 0
M  V30 5741 H 555.286 -0.170333 4.21056 0
M  V30 5742 H 554.01 -0.831516 3.15838 0
M  V30 5743 H 552.669 1.28309 3.43413 0
M  V30 5744 H 552.317 -0.644237 4.98857 0
M  V30 5745 H 552.017 0.910436 5.80504 0
M  V30 5746 H 553.541 0.0278938 6.10594 0
M  V30 5747 H 554.955 2.1561 5.31211 0
M  V30 5748 H 553.352 2.94299 5.2298 0
M  V30 5749 H 554.422 2.99047 3.81705 0
M  V30 5750 N 555.766 -1.3263 0.851289 0
M  V30 5751 C 557.043 -1.91982 0.374448 0
M  V30 5752 C 557.423 -1.77568 -1.14161 0
M  V30 5753 O 556.771 -1.1717 -1.96172 0
M  V30 5754 C 556.981 -3.38862 0.835088 0
M  V30 5755 C 558.329 -4.15999 0.850309 0
M  V30 5756 O 559.353 -3.47566 0.779505 0
M  V30 5757 O 558.212 -5.38189 0.949481 0
M  V30 5758 H 555.306 -0.819846 0.10854 0
M  V30 5759 H 557.852 -1.41422 0.937966 0
M  V30 5760 H 556.624 -3.43281 1.87814 0
M  V30 5761 H 556.247 -3.96821 0.248833 0
M  V30 5762 N 557.244 -0.608902 -1.45362 0
M  V30 5763 C 558.49 -0.104762 -2.02529 0
M  V30 5764 C 558.823 1.26191 -1.47613 0
M  V30 5765 O 558.098 1.8327 -0.65134 0
M  V30 5766 C 558.381 -0.0672661 -3.60037 0
M  V30 5767 C 558.234 -1.4647 -4.25284 0
M  V30 5768 C 559.553 0.619877 -4.35713 0
M  V30 5769 H 556.672 -0.0395438 -0.735938 0
M  V30 5770 H 559.314 -0.781126 -1.73201 0
M  V30 5771 H 557.464 0.50871 -3.85155 0
M  V30 5772 H 559.136 -2.08785 -4.11347 0
M  V30 5773 H 557.379 -2.02502 -3.83634 0
M  V30 5774 H 558.05 -1.39069 -5.34195 0
M  V30 5775 H 560.526 0.130297 -4.15896 0
M  V30 5776 H 559.402 0.615224 -5.45441 0
M  V30 5777 H 559.663 1.68621 -4.0868 0
M  V30 5778 N 558.722 1.53707 -0.348139 0
M  V30 5779 C 559.947 2.05877 0.250883 0
M  V30 5780 C 560.372 1.22115 1.43072 0
M  V30 5781 O 559.73 0.235986 1.79758 0
M  V30 5782 C 559.778 3.54886 0.639416 0
M  V30 5783 O 558.882 3.73948 1.73888 0
M  V30 5784 H 558.223 0.662754 0.040653 0
M  V30 5785 H 560.753 1.98303 -0.503685 0
M  V30 5786 H 560.763 3.97601 0.915295 0
M  V30 5787 H 559.438 4.153 -0.223386 0
M  V30 5788 H 558.015 3.43134 1.45991 0
M  V30 5789 N 560.2 0.0768682 1.57412 0
M  V30 5790 C 561.616 -0.279772 1.57129 0
M  V30 5791 C 561.816 -1.69688 1.08666 0
M  V30 5792 O 560.872 -2.40953 0.754843 0
M  V30 5793 C 562.185 -0.0848055 3.0058 0
M  V30 5794 C 563.733 -0.153954 3.12621 0
M  V30 5795 C 564.208 0.0127946 4.57998 0
M  V30 5796 N 565.699 -0.0426435 4.6318 0
M  V30 5797 C 566.434 0.0618892 5.73367 0
M  V30 5798 N 565.93 0.220229 6.9245 0
M  V30 5799 N 567.723 0.00446072 5.621 0
M  V30 5800 H 559.874 1.00297 1.87228 0
M  V30 5801 H 562.137 0.391565 0.863354 0
M  V30 5802 H 561.843 0.89325 3.40168 0
M  V30 5803 H 561.717 -0.834961 3.67843 0
M  V30 5804 H 564.104 -1.1225 2.72917 0
M  V30 5805 H 564.185 0.627389 2.47987 0
M  V30 5806 H 563.829 0.978128 4.98392 0
M  V30 5807 H 563.759 -0.788016 5.20671 0
M  V30 5808 H 566.25 -0.163226 3.77547 0
M  V30 5809 H 566.563 0.291999 7.72248 0
M  V30 5810 H 564.908 0.255658 6.9453 0
M  V30 5811 H 568.099 -0.117979 4.67951 0
M  V30 5812 H 568.272 0.0893796 6.47938 0
M  V30 5813 N 561.678 -1.56367 -0.196722 0
M  V30 5814 C 563.094 -1.49916 -0.54749 0
M  V30 5815 C 563.294 -0.77659 -1.85934 0
M  V30 5816 O 562.35 -0.32644 -2.50381 0
M  V30 5817 C 563.663 -2.94577 -0.603734 0
M  V30 5818 C 565.211 -3.05239 -0.692677 0
M  V30 5819 C 565.686 -4.51308 -0.780046 0
M  V30 5820 N 567.177 -4.55453 -0.843616 0
M  V30 5821 C 567.912 -5.65786 -0.931358 0
M  V30 5822 N 567.408 -6.85812 -0.981503 0
M  V30 5823 N 569.201 -5.53695 -0.968421 0
M  V30 5824 H 561.352 -2.01761 0.663803 0
M  V30 5825 H 563.615 -0.918094 0.236238 0
M  V30 5826 H 563.321 -3.50494 0.29105 0
M  V30 5827 H 563.195 -3.47841 -1.45898 0
M  V30 5828 H 565.582 -2.49372 -1.57789 0
M  V30 5829 H 565.663 -2.55103 0.188736 0
M  V30 5830 H 565.307 -5.078 0.100811 0
M  V30 5831 H 565.237 -4.99176 -1.67724 0
M  V30 5832 H 567.728 -3.69025 -0.814176 0
M  V30 5833 H 568.041 -7.65648 -1.04892 0
M  V30 5834 H 566.386 -6.88474 -0.950208 0
M  V30 5835 H 569.577 -4.58848 -0.926072 0
M  V30 5836 H 569.75 -6.39708 -1.03334 0
M  V30 5837 N 563.156 0.464375 -1.50603 0
M  V30 5838 C 564.405 1.21277 -1.61167 0
M  V30 5839 C 564.718 1.92953 -0.320704 0
M  V30 5840 O 565.924 2.69778 -0.30534 0
M  V30 5841 C 564.38 2.20403 -2.84518 0
M  V30 5842 C 563.988 1.54499 -4.20516 0
M  V30 5843 C 565.732 2.95843 -3.0443 0
M  V30 5844 C 563.639 2.51951 -5.35047 0
M  V30 5845 H 562.569 0.456367 -0.600204 0
M  V30 5846 H 565.22 0.48254 -1.77042 0
M  V30 5847 H 563.602 2.96746 -2.62217 0
M  V30 5848 H 564.776 0.83899 -4.53098 0
M  V30 5849 H 563.091 0.913152 -4.06264 0
M  V30 5850 H 565.688 3.6879 -3.87167 0
M  V30 5851 H 566.031 3.55622 -2.16423 0
M  V30 5852 H 566.564 2.26611 -3.26944 0
M  V30 5853 H 563.303 1.96901 -6.25228 0
M  V30 5854 H 562.823 3.20683 -5.06875 0
M  V30 5855 H 564.502 3.13643 -5.65895 0
M  V30 5856 N 564.634 1.40294 0.718013 0
M  V30 5857 C 565.864 1.41544 1.50495 0
M  V30 5858 C 566.272 0.0127877 1.89196 0
M  V30 5859 O 565.615 -0.97305 1.55812 0
M  V30 5860 C 565.677 2.24021 2.81167 0
M  V30 5861 C 565.341 3.72463 2.64803 0
M  V30 5862 C 566.338 4.65154 2.32223 0
M  V30 5863 C 564.023 4.1625 2.81143 0
M  V30 5864 C 566.017 5.99618 2.16189 0
M  V30 5865 C 563.704 5.50784 2.64727 0
M  V30 5866 C 564.702 6.42283 2.32297 0
M  V30 5867 O 564.39 7.74337 2.16004 0
M  V30 5868 H 564.122 0.484819 0.471091 0
M  V30 5869 H 566.676 1.84948 0.893488 0
M  V30 5870 H 564.906 1.75393 3.44636 0
M  V30 5871 H 566.595 2.17243 3.42871 0
M  V30 5872 H 567.361 4.32622 2.19234 0
M  V30 5873 H 563.24 3.45352 3.05373 0
M  V30 5874 H 566.784 6.71 1.90799 0
M  V30 5875 H 562.681 5.82902 2.773 0
M  V30 5876 H 563.449 7.85244 2.30942 0
M  V30 5877 N 566.112 -0.949982 1.2575 0
M  V30 5878 C 567.022 -2.08109 1.08295 0
M  V30 5879 C 568.038 -1.7399 0.0188181 0
M  V30 5880 O 569.214 -2.00187 0.220724 0
M  V30 5881 C 566.279 -3.39383 0.708534 0
M  V30 5882 C 565.34 -3.8734 1.85111 0
M  V30 5883 C 564.573 -5.12349 1.49447 0
M  V30 5884 O 564.796 -5.6905 0.392212 0
M  V30 5885 O 563.73 -5.5513 2.32624 0
M  V30 5886 H 567.556 -2.25738 2.03165 0
M  V30 5887 H 565.141 -1.06545 1.04731 0
M  V30 5888 H 567.023 -4.18277 0.512061 0
M  V30 5889 H 565.698 -3.23013 -0.210854 0
M  V30 5890 H 564.605 -3.09429 2.10248 0
M  V30 5891 H 565.938 -4.08216 2.74991 0
M  V30 5892 N 567.59 -1.07411 -1.15328 0
M  V30 5893 C 568.553 -0.698914 -2.18284 0
M  V30 5894 C 569.553 0.261149 -1.58665 0
M  V30 5895 O 570.743 0.0420277 -1.74149 0
M  V30 5896 C 567.875 -0.0302427 -3.40887 0
M  V30 5897 H 569.068 -1.61045 -2.52991 0
M  V30 5898 H 566.621 -0.870724 -1.298 0
M  V30 5899 H 567.356 0.893505 -3.11748 0
M  V30 5900 H 567.141 -0.720759 -3.85419 0
M  V30 5901 H 568.631 0.21759 -4.17033 0
M  V30 5902 N 569.068 1.32177 -0.85831 0
M  V30 5903 C 570.031 2.27086 -0.310588 0
M  V30 5904 C 571.031 1.51751 0.531806 0
M  V30 5905 O 572.221 1.70794 0.34279 0
M  V30 5906 C 569.353 3.36266 0.560179 0
M  V30 5907 H 570.546 2.77045 -1.1483 0
M  V30 5908 H 568.099 1.42911 -0.632942 0
M  V30 5909 H 568.834 2.9158 1.41956 0
M  V30 5910 H 568.619 3.92077 -0.0428473 0
M  V30 5911 H 570.109 4.06974 0.936056 0
M  V30 5912 N 570.547 0.616602 1.45037 0
M  V30 5913 C 571.963 0.280994 1.57107 0
M  V30 5914 C 572.163 -1.21627 1.60653 0
M  V30 5915 O 571.219 -1.9997 1.54169 0
M  V30 5916 C 572.532 0.960116 2.8496 0
M  V30 5917 C 574.08 0.936884 2.98649 0
M  V30 5918 C 574.555 1.59619 4.29285 0
M  V30 5919 N 576.046 1.5621 4.36065 0
M  V30 5920 C 576.781 2.04131 5.35834 0
M  V30 5921 N 576.277 2.60177 6.4209 0
M  V30 5922 N 578.07 1.94845 5.27249 0
M  V30 5923 H 570.221 1.58867 1.40979 0
M  V30 5924 H 572.484 0.666024 0.674623 0
M  V30 5925 H 572.19 2.01473 2.88273 0
M  V30 5926 H 572.064 0.488921 3.74018 0
M  V30 5927 H 574.451 -0.109209 2.94898 0
M  V30 5928 H 574.532 1.44643 2.10979 0
M  V30 5929 H 574.176 2.64166 4.33796 0
M  V30 5930 H 574.106 1.06159 5.15789 0
M  V30 5931 H 576.597 1.15276 3.59889 0
M  V30 5932 H 576.91 2.94513 7.1448 0
M  V30 5933 H 575.255 2.64221 6.42816 0
M  V30 5934 H 578.446 1.50792 4.43147 0
M  V30 5935 H 578.619 2.32504 6.04852 0
M  V30 5936 O 572.064 -1.53615 0.498481 0
M  V30 5937 H 572.755 -1.9369 -0.0197948 0
M  V30 END ATOM
M  V30 BEGIN BOND
M  V30 END BOND
M  V30 END CTAB
M  END
$$$$
