drugbank_target|Q47764 Aac(6')-Ii protein (DB01992)
 OpenBabel12092120243D

  0  0  0     0  0            999 V3000
M  V30 BEGIN CTAB
M  V30 COUNTS 2882 2915 0 0 0
M  V30 BEGIN ATOM
M  V30 1 H -0.908 1.98254 -0.117106 0
M  V30 2 N 0 1.576 0 0
M  V30 3 C 0.933 2.03868 1.02534 0
M  V30 4 C 1.911 0.928543 1.3348 0
M  V30 5 O 3.095 1.19667 1.45644 0
M  V30 6 C 0.222 2.43627 2.35294 0
M  V30 7 C -0.732 3.65373 2.2001 0
M  V30 8 S 0.101 5.13292 1.52614 0
M  V30 9 C 1.257 5.56322 2.86805 0
M  V30 10 H 1.49 2.90518 0.631377 0
M  V30 11 H -0.977 1.52953 0.210867 0
M  V30 12 H 0.981 2.67203 3.11629 0
M  V30 13 H -0.358 1.57376 2.7183 0
M  V30 14 H -1.165 3.90944 3.18086 0
M  V30 15 H -1.563 3.418 1.51819 0
M  V30 16 H 0.729 5.58782 3.83104 0
M  V30 17 H 1.672 6.56266 2.65933 0
M  V30 18 H 2.08 4.83886 2.90714 0
M  V30 19 N 1.4781 -0.272755 1.55222 0
M  V30 20 C 2.7271 -1.00211 1.75045 0
M  V30 21 C 3.0401 -1.87441 0.559046 0
M  V30 22 O 4.2461 -2.63856 0.639698 0
M  V30 23 C 2.7021 -1.83165 3.09804 0
M  V30 24 C 2.3101 -1.008 4.36513 0
M  V30 25 C 4.0541 -2.55529 3.38977 0
M  V30 26 C 1.9611 -1.83194 5.62311 0
M  V30 27 H 0.8911 -0.377878 0.652476 0
M  V30 28 H 3.5421 -0.257776 1.8168 0
M  V30 29 H 1.9241 -2.61694 2.97207 0
M  V30 30 H 3.0981 -0.266855 4.60027 0
M  V30 31 H 1.4131 -0.398897 4.14485 0
M  V30 32 H 4.0101 -3.17578 4.30172 0
M  V30 33 H 4.3531 -3.25825 2.59121 0
M  V30 34 H 4.8861 -1.84029 3.52673 0
M  V30 35 H 1.6251 -1.17318 6.44916 0
M  V30 36 H 1.1451 -2.54905 5.4294 0
M  V30 37 H 2.8241 -2.40552 6.00619 0
M  V30 38 N 2.9562 -1.48159 -0.537278 0
M  V30 39 C 4.2052 -1.5506 -1.28993 0
M  V30 40 C 4.5182 -0.226211 -1.94288 0
M  V30 41 O 5.7242 -0.173395 -2.70946 0
M  V30 42 C 4.1802 -2.73429 -2.34018 0
M  V30 43 C 3.7882 -4.1248 -1.74825 0
M  V30 44 C 5.5322 -2.89638 -3.10339 0
M  V30 45 C 3.4392 -5.22121 -2.77747 0
M  V30 46 H 2.3692 -0.577231 -0.485098 0
M  V30 47 H 5.0202 -1.74478 -0.568317 0
M  V30 48 H 3.4022 -2.47431 -3.09182 0
M  V30 49 H 4.5762 -4.48466 -1.05899 0
M  V30 50 H 2.8912 -4.01327 -1.11022 0
M  V30 51 H 5.4882 -3.68718 -3.87235 0
M  V30 52 H 5.8312 -1.9882 -3.65754 0
M  V30 53 H 6.3642 -3.15502 -2.42288 0
M  V30 54 H 3.1032 -6.1488 -2.27161 0
M  V30 55 H 2.6232 -4.90631 -3.45024 0
M  V30 56 H 4.3022 -5.49924 -3.4087 0
M  V30 57 N 4.4343 0.785586 -1.36625 0
M  V30 58 C 5.6593 1.57963 -1.34397 0
M  V30 59 C 6.0843 1.87964 0.071526 0
M  V30 60 O 5.4423 1.48182 1.0446 0
M  V30 61 C 5.4903 2.87511 -2.17646 0
M  V30 62 O 4.5943 3.81281 -1.57158 0
M  V30 63 H 3.9353 0.479014 -0.459828 0
M  V30 64 H 6.4653 0.973411 -1.79961 0
M  V30 65 H 6.4753 3.36745 -2.30362 0
M  V30 66 H 5.1503 2.65002 -3.20541 0
M  V30 67 H 3.7273 3.39885 -1.53403 0
M  V30 68 N 5.9124 1.20967 1.01018 0
M  V30 69 C 6.8224 0.980157 2.13143 0
M  V30 70 C 7.8384 -0.0660665 1.73875 0
M  V30 71 O 9.0144 0.122821 2.01025 0
M  V30 72 C 6.0794 0.54216 3.42435 0
M  V30 73 C 5.1404 1.65999 3.95908 0
M  V30 74 C 4.3734 1.2428 5.19028 0
M  V30 75 O 4.5964 0.114196 5.70286 0
M  V30 76 O 3.5304 2.05271 5.65816 0
M  V30 77 H 7.3564 1.91913 2.35379 0
M  V30 78 H 4.9414 0.994099 1.11526 0
M  V30 79 H 6.8234 0.30744 4.20277 0
M  V30 80 H 5.4984 -0.36815 3.216 0
M  V30 81 H 4.4054 1.94906 3.19316 0
M  V30 82 H 5.7384 2.54753 4.21143 0
M  V30 83 N 7.3905 -1.2043 1.01659 0
M  V30 84 C 8.6375 -1.89797 0.705917 0
M  V30 85 C 8.9655 -1.78848 -0.764439 0
M  V30 86 O 8.2205 -1.16694 -1.57102 0
M  V30 87 C 8.5195 -3.40464 1.08714 0
M  V30 88 C 8.1855 -3.71614 2.5537 0
M  V30 89 C 6.8475 -3.79826 2.95441 0
M  V30 90 C 9.1995 -3.85915 3.50313 0
M  V30 91 C 6.5275 -3.99797 4.29394 0
M  V30 92 C 8.8795 -4.07396 4.83954 0
M  V30 93 C 7.5435 -4.13837 5.23732 0
M  V30 94 H 6.8135 -0.694518 0.258313 0
M  V30 95 H 9.4605 -1.42691 1.27717 0
M  V30 96 H 7.7655 -3.89385 0.434309 0
M  V30 97 H 9.4625 -3.92433 0.824461 0
M  V30 98 H 6.0525 -3.65822 2.23321 0
M  V30 99 H 10.2365 -3.78926 3.20513 0
M  V30 100 H 5.4925 -4.03018 4.59768 0
M  V30 101 H 9.6665 -4.17404 5.57447 0
M  V30 102 H 7.2935 -4.29064 6.27541 0
M  V30 103 N 8.8686 -0.792821 -1.36206 0
M  V30 104 C 10.1456 -0.290627 -1.93429 0
M  V30 105 C 10.5256 1.21773 -1.72437 0
M  V30 106 O 9.8736 2.0108 -1.08531 0
M  V30 107 C 10.0836 -0.686973 -3.42172 0
M  V30 108 C 11.4316 -0.668643 -4.19302 0
M  V30 109 O 12.4556 -0.627658 -3.50626 0
M  V30 110 O 11.3146 -0.714597 -5.41808 0
M  V30 111 H 8.4086 -0.0727927 -0.82379 0
M  V30 112 H 10.9546 -0.875593 -1.45367 0
M  V30 113 H 9.7266 -1.72711 -3.51122 0
M  V30 114 H 9.3496 -0.0760733 -3.97527 0
M  V30 115 N 10.3467 1.47872 -0.545128 0
M  V30 116 C 11.7627 1.5829 -0.204032 0
M  V30 117 C 11.9627 1.54529 1.29317 0
M  V30 118 O 11.0187 1.44232 2.07252 0
M  V30 119 C 12.3317 2.89304 -0.819987 0
M  V30 120 C 13.8797 3.02864 -0.790105 0
M  V30 121 C 14.3547 4.3656 -1.38491 0
M  V30 122 N 15.8457 4.43165 -1.34755 0
M  V30 123 C 16.5807 5.45153 -1.77753 0
M  V30 124 N 16.0767 6.54016 -2.2855 0
M  V30 125 N 17.8697 5.36125 -1.68897 0
M  V30 126 H 10.0207 1.4856 -1.51802 0
M  V30 127 H 12.2837 0.706305 -0.632327 0
M  V30 128 H 11.9897 2.97757 -1.87173 0
M  V30 129 H 11.8637 3.75957 -0.305915 0
M  V30 130 H 14.2507 2.94014 0.252913 0
M  V30 131 H 14.3317 2.17782 -1.34181 0
M  V30 132 H 13.9757 4.46164 -2.42693 0
M  V30 133 H 13.9057 5.20353 -0.808754 0
M  V30 134 H 16.3967 3.65083 -0.975855 0
M  V30 135 H 16.7097 7.27994 -2.59314 0
M  V30 136 H 15.0547 6.54938 -2.32553 0
M  V30 137 H 18.2457 4.49975 -1.28998 0
M  V30 138 H 18.4187 6.15472 -2.02726 0
M  V30 139 N 11.8248 0.280983 1.55075 0
M  V30 140 C 12.7728 -0.619864 2.24188 0
M  V30 141 C 13.7668 -1.15315 1.24092 0
M  V30 142 O 14.9728 -1.1061 1.42005 0
M  V30 143 H 11.3478 -0.218459 0.719569 0
M  V30 144 H 13.3188 -0.0141831 2.98397 0
M  V30 145 C 12.0678 -1.7899 2.98091 0
M  V30 146 H 11.3908 -1.38874 3.74905 0
M  V30 147 H 12.8308 -2.39672 3.49762 0
M  V30 148 C 11.2898 -2.68192 2.03899 0
M  V30 149 O 11.8198 -3.6872 1.594 0
M  V30 150 N 10.0258 -2.35488 1.70275 0
M  V30 151 H 9.5728 -1.53787 2.06658 0
M  V30 152 H 9.5308 -2.95442 1.07524 0
M  V30 153 N 13.3029 -1.57598 0.00835791 0
M  V30 154 C 14.2509 -2.10078 -0.998508 0
M  V30 155 C 15.2449 -1.02262 -1.35051 0
M  V30 156 O 16.4509 -1.20719 -1.33518 0
M  V30 157 H 12.8259 -0.670903 -0.339696 0
M  V30 158 H 14.7969 -2.93648 -0.530398 0
M  V30 159 C 13.5459 -2.62615 -2.27879 0
M  V30 160 H 12.8689 -3.45213 -2.01662 0
M  V30 161 H 14.3089 -3.03004 -2.96588 0
M  V30 162 C 12.7679 -1.54407 -2.99433 0
M  V30 163 O 13.2979 -0.931812 -3.90743 0
M  V30 164 N 11.5039 -1.2695 -2.61404 0
M  V30 165 H 11.0509 -1.76924 -1.87232 0
M  V30 166 H 11.0089 -0.547704 -3.09593 0
M  V30 167 N 14.781 0.264519 -1.55364 0
M  V30 168 C 16.192 0.834936 -1.6699 0
M  V30 169 C 16.543 1.86718 -0.602552 0
M  V30 170 O 15.668 2.14899 0.254425 0
M  V30 171 C 16.263 1.5212 -3.02729 0
M  V30 172 C 14.822 2.03954 -3.16354 0
M  V30 173 C 13.969 0.884498 -2.62815 0
M  V30 174 H 16.92 0.0406869 -1.58648 0
M  V30 175 H 16.941 2.38853 -2.96191 0
M  V30 176 H 16.453 0.769668 -3.80392 0
M  V30 177 H 14.554 2.82041 -2.43482 0
M  V30 178 H 14.667 2.24902 -4.23032 0
M  V30 179 H 13.031 1.2802 -2.20188 0
M  V30 180 H 13.814 0.14634 -3.42988 0
M  V30 181 N 16.2591 1.48442 0.529413 0
M  V30 182 C 17.5051 1.5672 1.28711 0
M  V30 183 C 17.8381 0.2406 1.92704 0
M  V30 184 O 17.1131 -0.753454 1.79313 0
M  V30 185 C 17.3961 2.70587 2.37603 0
M  V30 186 C 17.2491 4.12953 1.78297 0
M  V30 187 C 18.5681 2.80212 3.39366 0
M  V30 188 H 15.6871 0.570474 0.466613 0
M  V30 189 H 18.3291 1.80617 0.589706 0
M  V30 190 H 16.4791 2.50342 2.97088 0
M  V30 191 H 18.1511 4.44639 1.22858 0
M  V30 192 H 16.3941 4.19927 1.0883 0
M  V30 193 H 17.0651 4.88448 2.57144 0
M  V30 194 H 19.5411 2.98553 2.89836 0
M  V30 195 H 18.4171 3.61611 4.12951 0
M  V30 196 H 18.6781 1.88393 3.99951 0
M  V30 197 N 17.7372 -0.778329 1.37039 0
M  V30 198 C 18.6672 -1.90546 1.34962 0
M  V30 199 C 19.6482 -1.68681 0.219274 0
M  V30 200 O 20.8332 -1.89634 0.418624 0
M  V30 201 C 17.9632 -3.27734 1.14925 0
M  V30 202 C 16.9172 -3.64147 2.24902 0
M  V30 203 C 16.2432 -4.99806 1.89996 0
M  V30 204 C 17.5432 -3.71579 3.67051 0
M  V30 205 H 19.2372 -1.92541 2.29277 0
M  V30 206 H 16.7832 -0.924948 1.10366 0
M  V30 207 H 18.7362 -4.06215 1.12104 0
M  V30 208 H 17.4602 -3.26154 0.170631 0
M  V30 209 H 16.1192 -2.8797 2.26868 0
M  V30 210 H 15.7672 -4.94759 0.906796 0
M  V30 211 H 15.4672 -5.25139 2.63634 0
M  V30 212 H 16.9912 -5.80694 1.88749 0
M  V30 213 H 18.4052 -4.40227 3.67251 0
M  V30 214 H 16.8022 -4.08405 4.39688 0
M  V30 215 H 17.8722 -2.72404 4.01154 0
M  V30 216 N 19.2153 -1.21501 -1.00376 0
M  V30 217 C 20.1623 -0.975387 -2.09177 0
M  V30 218 C 21.1323 0.0990615 -1.65804 0
M  V30 219 O 22.3173 -0.0483147 -1.90739 0
M  V30 220 C 19.4573 -0.547507 -3.40729 0
M  V30 221 C 18.5703 -1.69153 -3.97506 0
M  V30 222 C 17.7053 -1.2127 -5.17172 0
M  V30 223 C 16.7443 -2.32897 -5.66061 0
M  V30 224 N 15.8813 -1.86138 -6.76976 0
M  V30 225 H 20.7213 -1.9068 -2.29009 0
M  V30 226 H 18.2583 -0.950257 -1.12288 0
M  V30 227 H 20.2163 -0.280667 -4.16255 0
M  V30 228 H 18.8463 0.346904 -3.20931 0
M  V30 229 H 17.8983 -2.07298 -3.18954 0
M  V30 230 H 19.2103 -2.5316 -4.29781 0
M  V30 231 H 18.3643 -0.902591 -5.99948 0
M  V30 232 H 17.1033 -0.342692 -4.86495 0
M  V30 233 H 16.1083 -2.64709 -4.81881 0
M  V30 234 H 17.3333 -3.20396 -5.98768 0
M  V30 235 H 15.2793 -1.01484 -6.48103 0
M  V30 236 H 15.1963 -2.63717 -7.08512 0
M  V30 237 H 16.4643 -1.58165 -7.63285 0
M  V30 238 N 20.6934 1.19889 -1.02296 0
M  V30 239 C 21.9704 1.85148 -0.630832 0
M  V30 240 C 22.3504 1.91385 0.890782 0
M  V30 241 O 21.6984 1.42642 1.78509 0
M  V30 242 C 21.9084 3.24442 -1.28602 0
M  V30 243 C 23.2564 4.00663 -1.4055 0
M  V30 244 O 24.2804 3.33818 -1.24273 0
M  V30 245 O 23.1394 5.20387 -1.66913 0
M  V30 246 H 20.2334 0.797613 -0.218499 0
M  V30 247 H 22.7794 1.27427 -1.12074 0
M  V30 248 H 21.5514 3.14704 -2.32545 0
M  V30 249 H 21.1744 3.89802 -0.7836 0
M  V30 250 N 22.1715 0.800033 1.35784 0
M  V30 251 C 23.1035 0.163596 2.28615 0
M  V30 252 C 24.1165 -0.633317 1.49976 0
M  V30 253 O 25.3055 -0.466754 1.72289 0
M  V30 254 C 22.4055 -0.790958 3.29541 0
M  V30 255 C 21.5785 -0.0418255 4.3738 0
M  V30 256 C 20.6375 -0.91389 5.18203 0
M  V30 257 O 19.6635 -0.367234 5.68014 0
M  V30 258 N 20.8655 -2.23682 5.35674 0
M  V30 259 H 23.6305 0.96105 2.83873 0
M  V30 260 H 21.1915 0.654894 1.48063 0
M  V30 261 H 23.1835 -1.37844 3.80501 0
M  V30 262 H 21.7535 -1.48925 2.74846 0
M  V30 263 H 20.9735 0.726813 3.87442 0
M  V30 264 H 22.2615 0.474719 5.06581 0
M  V30 265 H 21.6595 -2.70497 4.96838 0
M  V30 266 H 20.2165 -2.77369 5.89839 0
M  V30 267 N 23.6496 -1.47581 0.552962 0
M  V30 268 C 24.5796 -2.32762 -0.185451 0
M  V30 269 C 25.5606 -1.43527 -0.912905 0
M  V30 270 O 26.7456 -1.72388 -0.894201 0
M  V30 271 C 23.8756 -3.25219 -1.21859 0
M  V30 272 C 22.8296 -4.23661 -0.607864 0
M  V30 273 C 22.1556 -5.05413 -1.74533 0
M  V30 274 C 23.4556 -5.20481 0.435582 0
M  V30 275 H 25.1496 -2.94749 0.525684 0
M  V30 276 H 22.6956 -1.41738 0.254251 0
M  V30 277 H 24.6486 -3.8365 -1.7433 0
M  V30 278 H 23.3726 -2.61279 -1.95961 0
M  V30 279 H 22.0316 -3.66451 -0.104489 0
M  V30 280 H 21.6796 -4.3788 -2.47529 0
M  V30 281 H 21.3796 -5.72059 -1.34249 0
M  V30 282 H 22.9036 -5.66701 -2.27338 0
M  V30 283 H 24.3176 -5.733 -0.00290157 0
M  V30 284 H 22.7146 -5.95305 0.757067 0
M  V30 285 H 23.7846 -4.66217 1.33303 0
M  V30 286 N 25.1277 -0.289203 -1.54924 0
M  V30 287 C 26.3527 0.329299 -2.04769 0
M  V30 288 C 26.7777 1.4763 -1.16564 0
M  V30 289 O 26.1357 1.80527 -0.167186 0
M  V30 290 C 26.1837 0.774438 -3.52186 0
M  V30 291 O 25.2877 1.88038 -3.67036 0
M  V30 292 H 24.6287 0.0659259 -0.660719 0
M  V30 293 H 27.1587 -0.42761 -2.00082 0
M  V30 294 H 27.1687 1.06642 -3.93816 0
M  V30 295 H 25.8437 -0.0646707 -4.1585 0
M  V30 296 H 24.4207 1.58985 -3.3731 0
M  V30 297 N 26.6058 1.57591 -0.0167156 0
M  V30 298 C 27.8828 1.82547 0.702564 0
M  V30 299 C 28.2628 0.898018 1.91047 0
M  V30 300 O 27.6108 -0.0493456 2.28447 0
M  V30 301 C 27.8208 3.31459 1.09251 0
M  V30 302 C 29.1688 3.97622 1.48937 0
M  V30 303 O 30.1928 3.35881 1.18584 0
M  V30 304 O 29.0518 5.06415 2.05442 0
M  V30 305 H 26.1458 0.752268 0.343544 0
M  V30 306 H 28.6918 1.69644 -0.0434495 0
M  V30 307 H 27.4638 3.9061 0.23227 0
M  V30 308 H 27.0868 3.49422 1.89709 0
M  V30 309 N 28.0839 -0.256276 1.55502 0
M  V30 310 C 29.0139 -1.32102 1.92539 0
M  V30 311 C 29.9949 -1.50684 0.789194 0
M  V30 312 O 31.1799 -1.63449 1.04872 0
M  V30 313 C 28.3099 -2.67752 2.21192 0
M  V30 314 C 27.2639 -2.63878 3.36975 0
M  V30 315 C 26.5899 -4.03236 3.51147 0
M  V30 316 C 27.8899 -2.21682 4.72921 0
M  V30 317 H 29.5839 -1.01351 2.81724 0
M  V30 318 H 27.1299 -0.486105 1.35547 0
M  V30 319 H 29.0829 -3.42365 2.45691 0
M  V30 320 H 27.8069 -3.0012 1.28824 0
M  V30 321 H 26.4659 -1.91722 3.12471 0
M  V30 322 H 26.1139 -4.32854 2.56216 0
M  V30 323 H 25.8139 -4.01535 4.29003 0
M  V30 324 H 27.3379 -4.79563 3.77957 0
M  V30 325 H 28.7519 -2.86023 4.96854 0
M  V30 326 H 27.1489 -2.3111 5.53812 0
M  V30 327 H 28.2189 -1.16833 4.70615 0
M  V30 328 N 29.562 -1.4872 -0.521534 0
M  V30 329 C 30.492 -1.66771 -1.63431 0
M  V30 330 C 31.473 -0.516499 -1.62069 0
M  V30 331 O 32.658 -0.750013 -1.79132 0
M  V30 332 C 29.788 -1.71515 -3.01993 0
M  V30 333 C 28.742 -2.86222 -3.18216 0
M  V30 334 C 28.068 -2.76061 -4.57924 0
M  V30 335 C 29.368 -4.27419 -3.00184 0
M  V30 336 H 31.062 -2.59932 -1.48579 0
M  V30 337 H 28.608 -1.25089 -0.713358 0
M  V30 338 H 30.561 -1.82731 -3.7972 0
M  V30 339 H 29.285 -0.749393 -3.17886 0
M  V30 340 H 27.944 -2.74575 -2.42908 0
M  V30 341 H 27.592 -1.77437 -4.70665 0
M  V30 342 H 27.292 -3.53037 -4.69722 0
M  V30 343 H 28.816 -2.89256 -5.37739 0
M  V30 344 H 30.23 -4.39855 -3.67697 0
M  V30 345 H 28.627 -5.05458 -3.2347 0
M  V30 346 H 29.697 -4.43293 -1.96518 0
M  V30 347 N 31.0401 0.771051 -1.3745 0
M  V30 348 C 32.4561 1.07171 -1.18265 0
M  V30 349 C 32.6561 2.01491 -0.019287 0
M  V30 350 O 31.7121 2.44244 0.640408 0
M  V30 351 C 33.0251 1.66854 -2.50161 0
M  V30 352 C 34.5731 1.79109 -2.56689 0
M  V30 353 C 35.0481 2.42205 -3.88717 0
M  V30 354 N 36.5391 2.49655 -3.90162 0
M  V30 355 C 37.2741 2.9933 -4.8907 0
M  V30 356 N 36.7701 3.49172 -5.98374 0
M  V30 357 N 38.5631 2.9821 -4.76474 0
M  V30 358 H 30.7141 0.144796 -2.11906 0
M  V30 359 H 32.9771 0.126863 -0.939473 0
M  V30 360 H 32.6831 1.05017 -3.35655 0
M  V30 361 H 32.5571 2.6614 -2.673 0
M  V30 362 H 34.9441 2.40077 -1.71601 0
M  V30 363 H 35.0251 0.785757 -2.43433 0
M  V30 364 H 34.6691 1.81875 -4.74219 0
M  V30 365 H 34.5991 3.43345 -3.99276 0
M  V30 366 H 37.0901 2.14383 -3.11205 0
M  V30 367 H 37.4031 3.8548 -6.69795 0
M  V30 368 H 35.7481 3.47275 -6.02018 0
M  V30 369 H 38.9391 2.58572 -3.90203 0
M  V30 370 H 39.1121 3.36613 -5.53711 0
M  V30 371 N 32.5182 1.22032 0.997298 0
M  V30 372 C 33.4482 1.01065 2.10495 0
M  V30 373 C 34.4292 -0.0669542 1.69968 0
M  V30 374 O 35.6142 0.0943987 1.9397 0
M  V30 375 C 32.7442 0.582874 3.42374 0
M  V30 376 C 31.6982 1.60592 3.96729 0
M  V30 377 C 31.0242 1.03412 5.24605 0
M  V30 378 C 32.3242 2.99478 4.27914 0
M  V30 379 H 34.0182 1.93708 2.28292 0
M  V30 380 H 31.5642 0.932761 1.09707 0
M  V30 381 H 33.5172 0.423332 4.19268 0
M  V30 382 H 32.2412 -0.379213 3.24391 0
M  V30 383 H 30.9002 1.75316 3.21963 0
M  V30 384 H 30.5482 0.063518 5.0296 0
M  V30 385 H 30.2482 1.71754 5.61938 0
M  V30 386 H 31.7722 0.886066 6.04137 0
M  V30 387 H 33.1862 2.88153 4.95622 0
M  V30 388 H 31.5832 3.64903 4.76409 0
M  V30 389 H 32.6532 3.49742 3.3587 0
M  V30 390 N 33.9963 -1.19345 1.0293 0
M  V30 391 C 35.2243 -1.92997 0.745644 0
M  V30 392 C 35.6393 -1.75519 -0.695589 0
M  V30 393 O 34.9963 -1.07737 -1.47306 0
M  V30 394 C 35.0473 -3.44741 1.08792 0
M  V30 395 O 34.7683 -3.61658 2.47256 0
M  V30 396 C 36.2693 -4.35515 0.827129 0
M  V30 397 H 33.4893 -0.613042 0.272801 0
M  V30 398 H 36.0333 -1.51473 1.3739 0
M  V30 399 H 34.1883 -3.84097 0.504832 0
M  V30 400 H 34.6023 -4.55514 2.60015 0
M  V30 401 H 36.0763 -5.40589 1.11658 0
M  V30 402 H 36.5533 -4.38552 -0.238436 0
M  V30 403 H 37.1593 -4.01841 1.39297 0
M  V30 404 N 35.4744 -0.807222 -1.35358 0
M  V30 405 C 36.7204 -0.397594 -1.99476 0
M  V30 406 C 37.0754 1.02405 -1.62883 0
M  V30 407 O 36.3684 1.70077 -0.882282 0
M  V30 408 C 36.5624 -0.519036 -3.53611 0
M  V30 409 C 36.3914 -1.95094 -4.05177 0
M  V30 410 C 35.1614 -2.57945 -4.34503 0
M  V30 411 C 37.3594 -2.91558 -4.23673 0
M  V30 412 N 35.3414 -3.92539 -4.72003 0
M  V30 413 C 36.7124 -4.11024 -4.64176 0
M  V30 414 C 38.7674 -2.88381 -4.05883 0
M  V30 415 C 37.4704 -5.27745 -4.88751 0
M  V30 416 C 39.4964 -4.04306 -4.31614 0
M  V30 417 C 38.8584 -5.22519 -4.72391 0
M  V30 418 H 34.9574 -0.193274 -0.75774 0
M  V30 419 H 37.5414 -1.0486 -1.6405 0
M  V30 420 H 35.7124 0.101979 -3.88266 0
M  V30 421 H 37.4444 -0.0839321 -4.04613 0
M  V30 422 H 34.1994 -2.09295 -4.24844 0
M  V30 423 H 34.6234 -4.61836 -4.95011 0
M  V30 424 H 39.2654 -1.98137 -3.73499 0
M  V30 425 H 36.9834 -6.1856 -5.20008 0
M  V30 426 H 40.5694 -4.03229 -4.19402 0
M  V30 427 H 39.4494 -6.1073 -4.91913 0
M  V30 428 N 36.9525 1.47285 -0.560781 0
M  V30 429 C 38.3635 1.86258 -0.128343 0
M  V30 430 C 38.7145 1.46699 1.30284 0
M  V30 431 O 37.8395 0.871698 1.98067 0
M  V30 432 C 38.4345 3.38044 -0.22614 0
M  V30 433 C 36.9935 3.76096 0.151283 0
M  V30 434 C 36.1405 2.71335 -0.572084 0
M  V30 435 H 39.0915 1.38752 -0.770297 0
M  V30 436 H 39.1125 3.76441 0.554322 0
M  V30 437 H 38.6245 3.66806 -1.26788 0
M  V30 438 H 36.7255 3.52951 1.19399 0
M  V30 439 H 36.8385 4.78641 -0.209765 0
M  V30 440 H 35.2025 2.54696 -0.0147653 0
M  V30 441 H 35.9855 3.02938 -1.61504 0
M  V30 442 N 38.4306 0.297415 1.54768 0
M  V30 443 C 39.3406 -0.58983 2.27064 0
M  V30 444 C 40.3566 -1.15144 1.30453 0
M  V30 445 O 41.5326 -1.17699 1.63428 0
M  V30 446 C 38.5976 -1.74714 2.9946 0
M  V30 447 C 37.6586 -1.21997 4.11601 0
M  V30 448 C 36.8916 -2.32212 4.80535 0
M  V30 449 O 37.1146 -3.52036 4.48806 0
M  V30 450 O 36.0486 -1.99106 5.68014 0
M  V30 451 H 39.8746 -0.00348199 3.037 0
M  V30 452 H 37.4596 0.0640035 1.49263 0
M  V30 453 H 39.3416 -2.42147 3.44881 0
M  V30 454 H 38.0166 -2.32016 2.25722 0
M  V30 455 H 36.9236 -0.511458 3.70587 0
M  V30 456 H 38.2566 -0.692419 4.87305 0
M  V30 457 N 39.9087 -1.5758 0.0250728 0
M  V30 458 C 40.8187 -2.1343 -0.973905 0
M  V30 459 C 41.8347 -1.08556 -1.35984 0
M  V30 460 O 43.0107 -1.40592 -1.44207 0
M  V30 461 C 40.0757 -2.64703 -2.23904 0
M  V30 462 C 39.1367 -3.84276 -1.91391 0
M  V30 463 C 38.3697 -4.33095 -3.11873 0
M  V30 464 O 38.5927 -3.81107 -4.24398 0
M  V30 465 O 37.5267 -5.24984 -2.94406 0
M  V30 466 H 41.3527 -2.99057 -0.529036 0
M  V30 467 H 38.9377 -1.48118 -0.195288 0
M  V30 468 H 40.8197 -2.97769 -2.98181 0
M  V30 469 H 39.4947 -1.82161 -2.6758 0
M  V30 470 H 38.4017 -3.56143 -1.14511 0
M  V30 471 H 39.7347 -4.67968 -1.52534 0
M  V30 472 N 41.3868 0.248026 -1.55636 0
M  V30 473 C 42.6168 0.992367 -1.81206 0
M  V30 474 C 43.0248 1.7949 -0.598324 0
M  V30 475 O 42.3678 1.78292 0.442434 0
M  V30 476 C 42.4298 1.97926 -3.00109 0
M  V30 477 C 42.0938 1.36377 -4.36177 0
M  V30 478 C 43.0908 0.76682 -5.14214 0
M  V30 479 C 40.7758 1.38347 -4.82872 0
M  V30 480 C 42.7698 0.197778 -6.37093 0
M  V30 481 C 40.4568 0.810574 -6.057 0
M  V30 482 C 41.4548 0.218754 -6.8265 0
M  V30 483 O 41.1428 -0.345298 -8.03158 0
M  V30 484 H 40.8748 0.297704 -0.606917 0
M  V30 485 H 43.4288 0.276517 -2.0353 0
M  V30 486 H 41.6588 2.73339 -2.73538 0
M  V30 487 H 43.3478 2.58694 -3.12781 0
M  V30 488 H 44.1138 0.744114 -4.79258 0
M  V30 489 H 39.9928 1.8335 -4.2297 0
M  V30 490 H 43.5368 -0.264788 -6.97097 0
M  V30 491 H 39.4338 0.830604 -6.40134 0
M  V30 492 H 40.2018 -0.237055 -8.18157 0
M  V30 493 N 42.8649 1.48995 0.513639 0
M  V30 494 C 44.1129 1.57531 1.26604 0
M  V30 495 C 44.4339 0.258236 1.93283 0
M  V30 496 O 43.7039 -0.721502 1.8213 0
M  V30 497 H 42.2839 0.580387 0.470276 0
M  V30 498 H 44.9459 1.85552 0.596373 0
M  V30 499 H 44.0419 2.36486 2.03669 0
M  V30 500 N 44.343 -0.763751 1.37857 0
M  V30 501 C 45.62 -1.51244 1.24035 0
M  V30 502 C 46 -2.10472 -0.162649 0
M  V30 503 O 45.348 -1.96206 -1.17112 0
M  V30 504 C 45.558 -2.58694 2.34261 0
M  V30 505 C 46.906 -3.25878 2.72193 0
M  V30 506 O 47.93 -2.68993 2.33497 0
M  V30 507 O 46.789 -4.2874 3.38887 0
M  V30 508 H 43.883 -0.670243 0.484462 0
M  V30 509 H 46.429 -0.800031 1.49658 0
M  V30 510 H 45.201 -2.13105 3.2818 0
M  V30 511 H 44.824 -3.37527 2.10146 0
M  V30 512 N 45.8211 -1.22559 -0.990812 0
M  V30 513 C 47.0461 -1.07862 -1.77145 0
M  V30 514 C 47.4711 0.366447 -1.84496 0
M  V30 515 O 46.8291 1.26478 -1.29896 0
M  V30 516 C 46.8771 -1.69686 -3.18181 0
M  V30 517 O 45.9811 -0.951946 -4.01263 0
M  V30 518 H 45.3221 -0.378712 -0.545411 0
M  V30 519 H 47.8521 -1.62399 -1.2445 0
M  V30 520 H 47.8621 -1.74496 -3.68802 0
M  V30 521 H 46.5371 -2.74841 -3.12146 0
M  V30 522 H 45.1141 -0.980011 -3.59792 0
M  V30 523 N 47.2992 1.18797 -1.03562 0
M  V30 524 C 48.5242 1.9314 -0.755764 0
M  V30 525 C 48.9492 1.7537 0.68022 0
M  V30 526 O 48.3072 1.06046 1.47051 0
M  V30 527 C 48.3552 3.42747 -1.12058 0
M  V30 528 O 47.4592 4.11683 -0.243124 0
M  V30 529 H 46.8002 0.602724 -0.278604 0
M  V30 530 H 49.3302 1.50678 -1.3841 0
M  V30 531 H 49.3402 3.93437 -1.08035 0
M  V30 532 H 48.0152 3.55002 -2.16672 0
M  V30 533 H 46.5922 3.71323 -0.342539 0
M  V30 534 N 48.7773 0.814389 1.34928 0
M  V30 535 C 49.7403 0.235759 2.27984 0
M  V30 536 C 50.7403 -0.581412 1.49921 0
M  V30 537 O 51.9303 -0.398758 1.69575 0
M  V30 538 C 49.0623 -0.670433 3.34242 0
M  V30 539 H 50.2553 1.05659 2.80671 0
M  V30 540 H 47.8083 0.585614 1.44915 0
M  V30 541 H 48.5433 -1.51466 2.86755 0
M  V30 542 H 48.3283 -0.0860822 3.92005 0
M  V30 543 H 49.8183 -1.06935 4.03676 0
M  V30 544 N 50.2554 -1.46986 0.568584 0
M  V30 545 C 51.1654 -2.33942 -0.17555 0
M  V30 546 C 52.1814 -1.48891 -0.90041 0
M  V30 547 O 53.3574 -1.81794 -0.86676 0
M  V30 548 C 50.4224 -3.25811 -1.18524 0
M  V30 549 C 49.4834 -4.26757 -0.466582 0
M  V30 550 C 48.7164 -5.14236 -1.42817 0
M  V30 551 O 48.9394 -5.04379 -2.66379 0
M  V30 552 O 47.8734 -5.94412 -0.946453 0
M  V30 553 H 51.6994 -2.98896 0.538036 0
M  V30 554 H 49.2844 -1.4573 0.329097 0
M  V30 555 H 51.1664 -3.82527 -1.76779 0
M  V30 556 H 49.8414 -2.63471 -1.88055 0
M  V30 557 H 48.7484 -3.73769 0.157451 0
M  V30 558 H 50.0814 -4.91843 0.187485 0
M  V30 559 N 51.7335 -0.305618 -1.54608 0
M  V30 560 C 52.6435 0.57778 -2.27374 0
M  V30 561 C 53.6595 1.14451 -1.31061 0
M  V30 562 O 54.8355 1.16831 -1.6405 0
M  V30 563 C 51.9005 1.73123 -3.00382 0
M  V30 564 C 50.9615 1.19812 -4.12242 0
M  V30 565 C 50.1945 2.2966 -4.81759 0
M  V30 566 O 50.4175 3.49651 -4.50666 0
M  V30 567 O 49.3515 1.96091 -5.69062 0
M  V30 568 H 53.1775 -0.012624 -3.03697 0
M  V30 569 H 50.7625 -0.0719184 -1.49227 0
M  V30 570 H 52.6445 2.40315 -3.4616 0
M  V30 571 H 51.3195 2.30815 -2.26949 0
M  V30 572 H 50.2265 0.491798 -3.70853 0
M  V30 573 H 51.5595 0.666566 -4.87666 0
M  V30 574 N 53.2116 1.57565 -0.0334293 0
M  V30 575 C 54.4576 1.92262 0.645226 0
M  V30 576 C 54.7906 0.910543 1.71531 0
M  V30 577 O 54.0656 -0.066099 1.94388 0
M  V30 578 C 54.3486 3.37422 1.2577 0
M  V30 579 C 54.2016 4.49369 0.196891 0
M  V30 580 C 55.5206 3.82628 2.17449 0
M  V30 581 H 52.6396 0.699171 0.233085 0
M  V30 582 H 55.2816 1.89779 -0.0915694 0
M  V30 583 H 53.4316 3.39669 1.88566 0
M  V30 584 H 55.1036 4.59254 -0.433962 0
M  V30 585 H 53.3466 4.31168 -0.477137 0
M  V30 586 H 54.0176 5.47978 0.665124 0
M  V30 587 H 56.4936 3.82145 1.64634 0
M  V30 588 H 55.3696 4.84883 2.57254 0
M  V30 589 H 55.6306 3.18376 3.0674 0
M  V30 590 N 54.6897 -0.239769 1.55765 0
M  V30 591 C 55.5997 -1.31831 1.94056 0
M  V30 592 C 56.6157 -1.52275 0.841925 0
M  V30 593 O 57.7917 -1.65759 1.14394 0
M  V30 594 C 54.8567 -2.65156 2.23368 0
M  V30 595 C 53.9177 -2.53173 3.46701 0
M  V30 596 C 53.1507 -3.8014 3.74606 0
M  V30 597 O 53.3737 -4.82343 3.04469 0
M  V30 598 O 52.3077 -3.78344 4.68123 0
M  V30 599 H 56.1337 -1.02347 2.85935 0
M  V30 600 H 53.7187 -0.441123 1.42739 0
M  V30 601 H 55.6007 -3.43929 2.43497 0
M  V30 602 H 54.2757 -2.94358 1.34666 0
M  V30 603 H 53.1827 -1.72662 3.31871 0
M  V30 604 H 54.5157 -2.28915 4.35728 0
M  V30 605 N 56.1678 -1.49265 -0.50573 0
M  V30 606 C 57.0778 -1.68312 -1.63427 0
M  V30 607 C 58.0938 -0.565682 -1.64548 0
M  V30 608 O 59.2698 -0.839801 -1.83055 0
M  V30 609 C 56.3348 -1.74107 -2.99813 0
M  V30 610 C 55.3958 -2.97653 -3.09356 0
M  V30 611 C 54.6288 -3.03163 -4.39236 0
M  V30 612 O 54.8518 -2.16396 -5.27758 0
M  V30 613 O 53.7858 -3.9558 -4.53652 0
M  V30 614 H 57.6118 -2.63907 -1.50289 0
M  V30 615 H 55.1968 -1.32951 -0.681502 0
M  V30 616 H 57.0788 -1.803 -3.80881 0
M  V30 617 H 55.7538 -0.816901 -3.13223 0
M  V30 618 H 54.6608 -2.96981 -2.27493 0
M  V30 619 H 55.9938 -3.89535 -3.00871 0
M  V30 620 N 57.6459 0.756429 -1.3826 0
M  V30 621 C 58.5789 1.87802 -1.29637 0
M  V30 622 C 59.5569 1.61667 -0.173939 0
M  V30 623 O 60.7409 1.85208 -0.350775 0
M  V30 624 C 57.8679 3.23354 -1.00797 0
M  V30 625 C 56.9139 3.68379 -2.14939 0
M  V30 626 S 57.7469 3.8025 -3.77054 0
M  V30 627 C 58.9029 5.18626 -3.50396 0
M  V30 628 H 59.1359 1.94829 -2.24564 0
M  V30 629 H 56.6689 0.919117 -1.24063 0
M  V30 630 H 58.6269 4.01637 -0.848413 0
M  V30 631 H 57.2879 3.14008 -0.0759369 0
M  V30 632 H 56.4809 4.66693 -1.90299 0
M  V30 633 H 56.0829 2.97242 -2.26988 0
M  V30 634 H 58.3749 6.04289 -3.06334 0
M  V30 635 H 59.3179 5.48286 -4.48094 0
M  V30 636 H 59.7259 4.87289 -2.84973 0
M  V30 637 N 59.124 1.23083 0.984299 0
M  V30 638 C 60.057 0.951786 2.07404 0
M  V30 639 C 61.035 -0.10848 1.62238 0
M  V30 640 O 62.219 0.0249467 1.88483 0
M  V30 641 C 59.346 0.433142 3.35919 0
M  V30 642 C 58.392 1.47941 4.0002 0
M  V30 643 S 59.225 3.05556 4.39768 0
M  V30 644 C 60.381 2.55351 5.71442 0
M  V30 645 H 60.614 1.87456 2.30754 0
M  V30 646 H 58.147 1.06284 1.11996 0
M  V30 647 H 60.105 0.140506 4.10259 0
M  V30 648 H 58.766 -0.468656 3.10584 0
M  V30 649 H 57.959 1.06658 4.92585 0
M  V30 650 H 57.561 1.7212 3.3204 0
M  V30 651 H 59.853 1.97128 6.48187 0
M  V30 652 H 60.796 3.46441 6.17563 0
M  V30 653 H 61.204 1.96339 5.29255 0
M  V30 654 N 60.6021 -1.18246 1.0419 0
M  V30 655 C 61.5501 -2.23968 0.627792 0
M  V30 656 C 62.5441 -1.65828 -0.346019 0
M  V30 657 O 63.7501 -1.78733 -0.213175 0
M  V30 658 H 60.1251 -0.728939 0.184802 0
M  V30 659 H 62.0961 -2.56202 1.52981 0
M  V30 660 C 60.8451 -3.47699 0.00796591 0
M  V30 661 H 60.1681 -3.92734 0.748347 0
M  V30 662 H 61.6081 -4.23294 -0.24455 0
M  V30 663 C 60.0671 -3.13153 -1.24246 0
M  V30 664 O 60.5971 -3.27003 -2.33307 0
M  V30 665 N 58.8031 -2.67467 -1.13622 0
M  V30 666 H 58.3501 -2.56396 -0.248734 0
M  V30 667 H 58.3081 -2.44724 -1.97377 0
M  V30 668 N 62.0802 -0.821533 -1.34494 0
M  V30 669 C 63.4912 -0.467956 -1.8074 0
M  V30 670 C 63.8422 1.01151 -1.68116 0
M  V30 671 O 62.9672 1.78707 -1.22036 0
M  V30 672 C 63.5622 -0.842627 -3.28154 0
M  V30 673 C 62.1212 -0.541439 -3.72485 0
M  V30 674 C 61.2682 -1.06028 -2.56229 0
M  V30 675 H 64.2192 -1.01183 -1.22261 0
M  V30 676 H 64.2402 -0.145876 -3.8022 0
M  V30 677 H 63.7522 -1.91945 -3.37311 0
M  V30 678 H 61.8532 0.526034 -3.68868 0
M  V30 679 H 61.9662 -1.08453 -4.66663 0
M  V30 680 H 60.3302 -0.481892 -2.501 0
M  V30 681 H 61.1132 -2.14352 -2.68157 0
M  V30 682 N 63.5583 1.46682 -0.576371 0
M  V30 683 C 64.4683 2.34032 0.163141 0
M  V30 684 C 65.4843 1.49367 0.892501 0
M  V30 685 O 66.6603 1.82252 0.857106 0
M  V30 686 C 63.7253 3.26435 1.16795 0
M  V30 687 C 62.7863 4.26998 0.443944 0
M  V30 688 C 62.0193 5.14986 1.40088 0
M  V30 689 O 62.2423 5.05785 2.637 0
M  V30 690 O 61.1763 5.94906 0.914917 0
M  V30 691 H 65.0023 2.98607 -0.55388 0
M  V30 692 H 62.5873 1.45554 -0.336821 0
M  V30 693 H 64.4693 3.83459 1.74748 0
M  V30 694 H 63.1443 2.64465 1.86655 0
M  V30 695 H 62.0513 3.7368 -0.177271 0
M  V30 696 H 63.3843 4.91736 -0.213566 0
M  V30 697 N 65.0364 0.313813 1.54444 0
M  V30 698 C 66.4524 -0.0391619 1.59552 0
M  V30 699 C 66.6524 -1.51322 1.33056 0
M  V30 700 O 65.7084 -2.26782 1.11022 0
M  V30 701 C 67.0214 0.370302 2.98411 0
M  V30 702 C 68.5694 0.320139 3.11358 0
M  V30 703 C 69.0444 0.704617 4.52547 0
M  V30 704 N 70.5354 0.657645 4.58508 0
M  V30 705 C 71.2704 0.927453 5.6585 0
M  V30 706 N 70.7664 1.26389 6.81174 0
M  V30 707 N 72.5594 0.853662 5.5558 0
M  V30 708 H 64.7104 1.27433 1.69925 0
M  V30 709 H 66.9734 0.517511 0.794284 0
M  V30 710 H 66.6794 1.39694 3.22767 0
M  V30 711 H 66.5534 -0.269619 3.76235 0
M  V30 712 H 68.9404 -0.697275 2.86744 0
M  V30 713 H 69.0214 0.99486 2.35661 0
M  V30 714 H 68.6654 1.7199 4.77893 0
M  V30 715 H 68.5954 0.00768843 5.26599 0
M  V30 716 H 71.0864 0.409067 3.75679 0
M  V30 717 H 71.3994 1.4554 7.58972 0
M  V30 718 H 69.7444 1.30206 6.82694 0
M  V30 719 H 72.9354 0.590383 4.64362 0
M  V30 720 H 73.1084 1.0673 6.3915 0
M  V30 721 N 66.5145 -1.57545 0.0417849 0
M  V30 722 C 67.7635 -1.91494 -0.633492 0
M  V30 723 C 68.0765 -0.921084 -1.72556 0
M  V30 724 O 69.2825 -1.15228 -2.45835 0
M  V30 725 C 67.7385 -3.40072 -1.17808 0
M  V30 726 C 67.3465 -4.47843 -0.118633 0
M  V30 727 C 69.0905 -3.8307 -1.82915 0
M  V30 728 C 66.9975 -5.87529 -0.675578 0
M  V30 729 H 65.9275 -0.714653 -0.24039 0
M  V30 730 H 68.5785 -1.83175 0.109148 0
M  V30 731 H 66.9605 -3.43364 -1.97274 0
M  V30 732 H 68.1345 -4.56128 0.654494 0
M  V30 733 H 66.4495 -4.14128 0.434414 0
M  V30 734 H 69.0465 -4.84794 -2.25563 0
M  V30 735 H 69.3895 -3.1881 -2.67705 0
M  V30 736 H 69.9225 -3.82255 -1.10119 0
M  V30 737 H 66.6615 -6.55362 0.134475 0
M  V30 738 H 66.1815 -5.82824 -1.4169 0
M  V30 739 H 67.8605 -6.36491 -1.1614 0
M  V30 740 N 67.9926 0.231505 -1.5589 0
M  V30 741 C 68.9556 1.27028 -1.90779 0
M  V30 742 C 69.9556 1.40308 -0.785507 0
M  V30 743 O 71.1456 1.38744 -1.05336 0
M  V30 744 C 68.2776 2.64566 -2.14983 0
M  V30 745 H 69.4706 0.973017 -2.83677 0
M  V30 746 H 67.0236 0.471486 -1.49019 0
M  V30 747 H 67.7586 2.99406 -1.24604 0
M  V30 748 H 67.5436 2.56305 -2.96732 0
M  V30 749 H 69.0336 3.39543 -2.43105 0
M  V30 750 N 69.4707 1.49531 0.497807 0
M  V30 751 C 70.7167 1.59415 1.25358 0
M  V30 752 C 71.0497 0.281422 1.9215 0
M  V30 753 O 70.3247 -0.715249 1.80871 0
M  V30 754 C 70.6077 2.75566 2.3181 0
M  V30 755 C 70.4607 4.16642 1.69498 0
M  V30 756 C 71.7797 2.87347 3.33346 0
M  V30 757 H 68.8987 0.580244 0.454408 0
M  V30 758 H 71.5407 1.81827 0.551262 0
M  V30 759 H 69.6907 2.56587 2.91711 0
M  V30 760 H 71.3627 4.47145 1.13399 0
M  V30 761 H 69.6057 4.22141 0.998978 0
M  V30 762 H 70.2767 4.93792 2.46725 0
M  V30 763 H 72.7527 3.04634 2.83438 0
M  V30 764 H 71.6287 3.70289 4.05188 0
M  V30 765 H 71.8897 1.96834 3.95865 0
M  V30 766 N 70.9488 -0.749086 1.3866 0
M  V30 767 C 71.9118 -1.84457 1.36045 0
M  V30 768 C 72.9118 -1.58682 0.260122 0
M  V30 769 O 74.1018 -1.66343 0.517261 0
M  V30 770 C 71.2338 -3.22008 1.11911 0
M  V30 771 H 72.4268 -1.88182 2.33512 0
M  V30 772 H 69.9798 -0.951266 1.24019 0
M  V30 773 H 70.7148 -3.2395 0.150686 0
M  V30 774 H 70.4998 -3.42111 1.91579 0
M  V30 775 H 71.9898 -4.0208 1.12788 0
M  V30 776 N 72.4269 -1.23603 -0.977757 0
M  V30 777 C 73.3899 -1.02069 -2.05218 0
M  V30 778 C 74.3899 0.0184305 -1.60789 0
M  V30 779 O 75.5799 -0.221569 -1.72785 0
M  V30 780 C 72.7119 -0.544926 -3.36517 0
M  V30 781 H 73.9049 -1.9742 -2.25755 0
M  V30 782 H 71.4579 -1.05684 -1.15155 0
M  V30 783 H 72.1929 0.412241 -3.21669 0
M  V30 784 H 71.9779 -1.2948 -3.70105 0
M  V30 785 H 73.4679 -0.414985 -4.15533 0
M  V30 786 N 73.905 1.17692 -1.04816 0
M  V30 787 C 75.151 1.88137 -0.75711 0
M  V30 788 C 75.484 1.80604 0.713841 0
M  V30 789 O 74.759 1.21146 1.52164 0
M  V30 790 C 75.042 3.38318 -1.2334 0
M  V30 791 C 74.895 3.54622 -2.76701 0
M  V30 792 C 76.214 4.32214 -0.829415 0
M  V30 793 H 73.333 0.683163 -0.27651 0
M  V30 794 H 75.975 1.38424 -1.30149 0
M  V30 795 H 74.125 3.80787 -0.770286 0
M  V30 796 H 75.797 3.21194 -3.31107 0
M  V30 797 H 74.04 2.97026 -3.16161 0
M  V30 798 H 74.711 4.60028 -3.05088 0
M  V30 799 H 77.187 3.97565 -1.22805 0
M  V30 800 H 76.063 5.35838 -1.19033 0
M  V30 801 H 76.324 4.41294 0.266891 0
M  V30 802 N 75.3831 0.828654 1.34056 0
M  V30 803 C 76.6601 0.341809 1.9259 0
M  V30 804 C 77.0401 -1.17158 1.75605 0
M  V30 805 O 76.3881 -1.98132 1.13824 0
M  V30 806 C 76.5981 0.777453 3.4023 0
M  V30 807 C 77.9461 0.779579 4.17382 0
M  V30 808 O 78.9701 0.7204 3.48839 0
M  V30 809 O 77.8291 0.857996 5.39723 0
M  V30 810 H 74.9231 0.0946085 0.821571 0
M  V30 811 H 77.4691 0.913827 1.42994 0
M  V30 812 H 76.2411 1.8196 3.46419 0
M  V30 813 H 75.8641 0.181444 3.97186 0
M  V30 814 N 76.8612 -1.46375 0.584142 0
M  V30 815 C 77.7932 -2.28443 -0.186119 0
M  V30 816 C 78.8062 -1.38596 -0.854115 0
M  V30 817 O 79.9952 -1.63183 -0.723438 0
M  V30 818 C 77.0952 -3.13671 -1.28311 0
M  V30 819 C 76.2682 -4.31652 -0.706758 0
M  V30 820 C 75.3272 -4.98267 -1.69163 0
M  V30 821 O 74.3532 -5.55815 -1.22712 0
M  V30 822 N 75.5552 -4.95408 -3.02575 0
M  V30 823 H 78.3202 -2.9519 0.517986 0
M  V30 824 H 75.8812 -1.56303 0.42201 0
M  V30 825 H 77.8732 -3.55101 -1.94128 0
M  V30 826 H 76.4432 -2.48989 -1.89005 0
M  V30 827 H 75.6632 -3.93989 0.128908 0
M  V30 828 H 76.9512 -5.07906 -0.301506 0
M  V30 829 H 76.3492 -4.49902 -3.42936 0
M  V30 830 H 74.9062 -5.40774 -3.63877 0
M  V30 831 N 78.3393 -0.321999 -1.54275 0
M  V30 832 C 79.6163 0.335232 -1.92706 0
M  V30 833 C 79.9963 1.70006 -1.25145 0
M  V30 834 O 79.3443 2.25067 -0.394596 0
M  V30 835 C 79.5543 0.429008 -3.46353 0
M  V30 836 C 80.9023 0.690029 -4.18956 0
M  V30 837 O 81.9263 0.511992 -3.52501 0
M  V30 838 O 80.7853 1.03338 -5.36641 0
M  V30 839 H 77.8793 0.191143 -0.804608 0
M  V30 840 H 80.4253 -0.3716 -1.65581 0
M  V30 841 H 79.1973 -0.529611 -3.87699 0
M  V30 842 H 78.8203 1.18348 -3.79578 0
M  V30 843 N 79.8174 1.5752 -0.0501392 0
M  V30 844 C 80.7274 2.14952 0.939827 0
M  V30 845 C 81.7434 1.10706 1.34239 0
M  V30 846 O 82.9194 1.42869 1.41952 0
M  V30 847 C 79.9844 2.68232 2.19665 0
M  V30 848 C 79.0454 3.87272 1.85253 0
M  V30 849 C 78.2784 4.38002 3.04943 0
M  V30 850 O 78.5014 3.87811 4.18281 0
M  V30 851 O 77.4354 5.29602 2.86017 0
M  V30 852 H 81.2614 2.9986 0.481392 0
M  V30 853 H 78.8464 1.4841 0.171699 0
M  V30 854 H 80.7284 3.02475 2.93406 0
M  V30 855 H 79.4034 1.86395 2.64648 0
M  V30 856 H 78.3104 3.5792 1.0883 0
M  V30 857 H 79.6434 4.70336 1.4507 0
M  V30 858 N 81.2955 -0.223234 1.56011 0
M  V30 859 C 82.2255 -1.27988 1.95298 0
M  V30 860 C 83.2065 -1.48976 0.820979 0
M  V30 861 O 84.3915 -1.61188 1.08315 0
M  V30 862 C 81.5215 -2.63 2.26822 0
M  V30 863 C 80.4755 -2.56671 3.42497 0
M  V30 864 C 79.8015 -3.95697 3.59622 0
M  V30 865 C 81.1015 -2.11601 4.77517 0
M  V30 866 H 82.7955 -0.953525 2.8381 0
M  V30 867 H 80.3415 -0.457244 1.36548 0
M  V30 868 H 82.2945 -3.37077 2.52898 0
M  V30 869 H 81.0185 -2.9732 1.35161 0
M  V30 870 H 79.6775 -1.85051 3.16467 0
M  V30 871 H 79.3255 -4.27322 2.6534 0
M  V30 872 H 79.0255 -3.92345 4.37424 0
M  V30 873 H 80.5495 -4.71438 3.88044 0
M  V30 874 H 81.9635 -2.7542 5.02809 0
M  V30 875 H 80.3605 -2.19311 5.5859 0
M  V30 876 H 81.4305 -1.06824 4.72987 0
M  V30 877 N 82.7736 -1.49793 -0.48987 0
M  V30 878 C 84.0196 -1.60078 -1.24511 0
M  V30 879 C 84.3526 -0.291608 -1.91998 0
M  V30 880 O 83.6276 0.705647 -1.81248 0
M  V30 881 C 83.9106 -2.76791 -2.30345 0
M  V30 882 C 83.7636 -4.17535 -1.67286 0
M  V30 883 C 85.0826 -2.89111 -3.31817 0
M  V30 884 H 82.2016 -0.582645 -0.451324 0
M  V30 885 H 84.8436 -1.82117 -0.541612 0
M  V30 886 H 82.9936 -2.5813 -2.90346 0
M  V30 887 H 84.6656 -4.4774 -1.11026 0
M  V30 888 H 82.9086 -4.22665 -0.976577 0
M  V30 889 H 83.5796 -4.95094 -2.44103 0
M  V30 890 H 86.0556 -3.06133 -2.81819 0
M  V30 891 H 84.9316 -3.72433 -4.03219 0
M  V30 892 H 85.1926 -1.9893 -3.94815 0
M  V30 893 N 84.2517 0.741722 -1.39055 0
M  V30 894 C 85.4997 1.49818 -1.35643 0
M  V30 895 C 85.8207 1.94938 0.0491642 0
M  V30 896 O 85.0907 1.68505 0.999141 0
M  V30 897 H 83.6707 0.555755 -0.499144 0
M  V30 898 H 86.3327 0.880957 -1.73854 0
M  V30 899 H 85.4287 2.38348 -2.01486 0
M  V30 900 N 85.7298 1.2412 0.971189 0
M  V30 901 C 86.9768 1.07881 1.71371 0
M  V30 902 C 87.3048 -0.382901 1.90694 0
M  V30 903 O 86.5598 -1.29945 1.46331 0
M  V30 904 C 86.8588 1.75983 3.11071 0
M  V30 905 C 86.5248 3.25909 3.11599 0
M  V30 906 C 85.1868 3.66813 3.11451 0
M  V30 907 C 87.5388 4.21771 3.062 0
M  V30 908 C 84.8668 5.02021 3.03631 0
M  V30 909 C 87.2188 5.56982 2.99923 0
M  V30 910 C 85.8828 5.97237 2.98102 0
M  V30 911 H 85.1528 0.394764 0.62709 0
M  V30 912 H 87.7998 1.54176 1.13587 0
M  V30 913 H 86.1048 1.22072 3.72298 0
M  V30 914 H 87.8018 1.60887 3.6731 0
M  V30 915 H 84.3918 2.93353 3.12477 0
M  V30 916 H 88.5758 3.91172 3.05447 0
M  V30 917 H 83.8318 5.32411 3.0058 0
M  V30 918 H 88.0058 6.30969 2.94704 0
M  V30 919 H 85.6328 7.01967 2.91798 0
M  V30 920 N 87.2079 -1.17134 1.05439 0
M  V30 921 C 88.4569 -1.86791 0.761049 0
M  V30 922 C 88.7699 -1.82072 -0.714795 0
M  V30 923 O 89.9759 -2.47223 -1.12218 0
M  V30 924 C 88.4319 -3.35166 1.31117 0
M  V30 925 C 88.0399 -3.48381 2.81664 0
M  V30 926 C 89.7839 -4.10134 1.09499 0
M  V30 927 C 87.6909 -4.90793 3.29964 0
M  V30 928 H 86.6209 -0.699681 0.281002 0
M  V30 929 H 89.2719 -1.3226 1.27199 0
M  V30 930 H 87.6539 -3.8925 0.72803 0
M  V30 931 H 88.8279 -3.04502 3.45855 0
M  V30 932 H 87.1429 -2.86836 3.01851 0
M  V30 933 H 89.7399 -5.152 1.43084 0
M  V30 934 H 90.0829 -4.16287 0.0328772 0
M  V30 935 H 90.6159 -3.62264 1.64346 0
M  V30 936 H 87.3549 -4.89816 4.35616 0
M  V30 937 H 86.8749 -5.35333 2.70516 0
M  V30 938 H 88.5539 -5.59573 3.24787 0
M  V30 939 N 88.686 -0.835752 -1.33615 0
M  V30 940 C 89.934 -0.429109 -1.97492 0
M  V30 941 C 90.255 1.01433 -1.66543 0
M  V30 942 O 89.525 1.70611 -0.962744 0
M  V30 943 H 88.105 -0.155686 -0.730596 0
M  V30 944 H 90.767 -1.06802 -1.63031 0
M  V30 945 H 89.863 -0.55861 -3.0706 0
M  V30 946 N 90.1641 1.46063 -0.591896 0
M  V30 947 C 91.1271 2.28854 0.125973 0
M  V30 948 C 92.1271 1.38903 0.810107 0
M  V30 949 O 93.3171 1.61186 0.66066 0
M  V30 950 C 90.4491 3.19526 1.1881 0
M  V30 951 H 91.6421 2.93802 -0.601717 0
M  V30 952 H 89.1951 1.52325 -0.350254 0
M  V30 953 H 89.9301 2.59345 1.94707 0
M  V30 954 H 89.7151 3.85766 0.701936 0
M  V30 955 H 91.2051 3.81817 1.69132 0
M  V30 956 N 91.6422 0.330177 1.54103 0
M  V30 957 C 92.8912 -0.271336 1.99867 0
M  V30 958 C 93.2042 -1.52723 1.22209 0
M  V30 959 O 94.4102 -2.20515 1.58383 0
M  V30 960 C 92.8662 -0.534032 3.55916 0
M  V30 961 C 92.4742 0.705193 4.42415 0
M  V30 962 C 94.2182 -1.09514 4.1013 0
M  V30 963 C 92.1252 0.414035 5.89949 0
M  V30 964 H 91.0552 -0.105166 0.74663 0
M  V30 965 H 93.7062 0.443429 1.78062 0
M  V30 966 H 92.0882 -1.30915 3.73734 0
M  V30 967 H 93.2622 1.4804 4.36372 0
M  V30 968 H 91.5772 1.18698 3.99124 0
M  V30 969 H 94.1742 -1.3277 5.17954 0
M  V30 970 H 94.5172 -2.04656 3.62521 0
M  V30 971 H 95.0502 -0.381038 3.95971 0
M  V30 972 H 91.7892 1.33481 6.41766 0
M  V30 973 H 91.3092 -0.323336 5.98928 0
M  V30 974 H 92.9882 0.0263105 6.46995 0
M  V30 975 N 93.1203 -1.57491 0.0584922 0
M  V30 976 C 94.5313 -1.80526 -0.476138 0
M  V30 977 C 94.8823 -0.971334 -1.70469 0
M  V30 978 O 94.0073 -0.190012 -2.15564 0
M  V30 979 C 94.6023 -3.27424 -0.870587 0
M  V30 980 C 93.1613 -3.51351 -1.35015 0
M  V30 981 C 92.3083 -2.75343 -0.32887 0
M  V30 982 H 95.2593 -1.56133 0.284312 0
M  V30 983 H 95.2803 -3.38745 -1.73299 0
M  V30 984 H 94.7923 -3.88093 0.0237627 0
M  V30 985 H 92.8933 -2.95971 -2.26345 0
M  V30 986 H 93.0063 -4.60059 -1.33726 0
M  V30 987 H 91.3703 -2.417 -0.803321 0
M  V30 988 H 92.1533 -3.38743 0.557521 0
M  V30 989 N 94.5984 0.214957 -1.56127 0
M  V30 990 C 95.5304 1.29004 -1.89448 0
M  V30 991 C 96.5434 1.42716 -0.783326 0
M  V30 992 O 97.7324 1.43496 -1.06166 0
M  V30 993 C 94.8324 2.66482 -2.09381 0
M  V30 994 C 94.0054 2.74633 -3.40434 0
M  V30 995 C 93.0644 3.9317 -3.49719 0
M  V30 996 O 92.0904 3.812 -4.227 0
M  V30 997 N 93.2924 5.07765 -2.81346 0
M  V30 998 H 96.0574 1.00743 -2.82261 0
M  V30 999 H 93.6184 0.40497 -1.56753 0
M  V30 1000 H 95.6104 3.44173 -2.12901 0
M  V30 1001 H 94.1804 2.87314 -1.23163 0
M  V30 1002 H 93.4004 1.83368 -3.48955 0
M  V30 1003 H 94.6884 2.77054 -4.26754 0
M  V30 1004 H 94.0864 5.20386 -2.21843 0
M  V30 1005 H 92.6434 5.83474 -2.90519 0
M  V30 1006 N 96.0765 1.50051 0.48192 0
M  V30 1007 C 97.3065 1.63999 1.2565 0
M  V30 1008 C 97.7145 0.318288 1.86504 0
M  V30 1009 O 97.0575 -0.708534 1.69486 0
M  V30 1010 C 97.1195 2.66504 2.4128 0
M  V30 1011 C 96.7835 4.10352 2.01148 0
M  V30 1012 C 97.7805 4.96562 1.54021 0
M  V30 1013 C 95.4655 4.56203 2.10199 0
M  V30 1014 C 97.4595 6.26668 1.16473 0
M  V30 1015 C 95.1465 5.86318 1.72264 0
M  V30 1016 C 96.1445 6.71375 1.25477 0
M  V30 1017 O 95.8325 7.99062 0.880626 0
M  V30 1018 H 95.5645 0.55456 0.386574 0
M  V30 1019 H 98.1185 1.96954 0.582944 0
M  V30 1020 H 96.3485 2.28769 3.11772 0
M  V30 1021 H 98.0375 2.69783 3.03268 0
M  V30 1022 H 98.8035 4.62358 1.46458 0
M  V30 1023 H 94.6825 3.90152 2.45566 0
M  V30 1024 H 98.2265 6.93011 0.798841 0
M  V30 1025 H 94.1235 6.20046 1.79482 0
M  V30 1026 H 94.8915 8.12239 1.01043 0
M  V30 1027 N 97.5546 -0.734337 1.39446 0
M  V30 1028 C 98.8026 -1.49096 1.36436 0
M  V30 1029 C 99.1236 -1.94961 -0.0388255 0
M  V30 1030 O 98.3936 -1.69033 -0.990191 0
M  V30 1031 H 96.9736 -0.5531 0.502085 0
M  V30 1032 H 99.6356 -0.871725 1.74319 0
M  V30 1033 H 98.7316 -2.37276 2.02747 0
M  V30 1034 N 99.0327 -1.24633 -0.964593 0
M  V30 1035 C 100.282 -1.08188 -1.7023 0
M  V30 1036 C 100.595 0.37873 -1.91898 0
M  V30 1037 O 101.801 0.663427 -2.6327 0
M  V30 1038 C 100.257 -1.88773 -3.06419 0
M  V30 1039 C 99.8647 -3.39263 -2.92582 0
M  V30 1040 C 101.609 -1.80867 -3.84041 0
M  V30 1041 C 99.5157 -4.1218 -4.24101 0
M  V30 1042 H 98.4457 -0.401245 -0.638372 0
M  V30 1043 H 101.097 -1.48742 -1.07462 0
M  V30 1044 H 99.4787 -1.41035 -3.70034 0
M  V30 1045 H 100.653 -3.94603 -2.37961 0
M  V30 1046 H 98.9677 -3.48154 -2.28424 0
M  V30 1047 H 101.565 -2.32646 -4.81435 0
M  V30 1048 H 101.908 -0.774543 -4.09031 0
M  V30 1049 H 102.441 -2.26301 -3.27159 0
M  V30 1050 H 99.1797 -5.15965 -4.04303 0
M  V30 1051 H 98.6997 -3.61626 -4.78526 0
M  V30 1052 H 100.379 -4.19349 -4.92702 0
M  V30 1053 N 100.511 1.16574 -1.06058 0
M  V30 1054 C 101.739 1.90952 -0.796552 0
M  V30 1055 C 102.154 1.77302 0.648808 0
M  V30 1056 O 101.511 1.11605 1.44397 0
M  V30 1057 C 101.562 3.41736 -1.17894 0
M  V30 1058 O 101.283 3.54975 -2.56758 0
M  V30 1059 C 102.784 4.33169 -0.942308 0
M  V30 1060 H 100.004 0.605594 -0.288959 0
M  V30 1061 H 102.548 1.47777 -1.41358 0
M  V30 1062 H 100.703 3.82623 -0.606491 0
M  V30 1063 H 101.117 4.4846 -2.72 0
M  V30 1064 H 102.591 5.37439 -1.25952 0
M  V30 1065 H 103.068 4.3903 0.122078 0
M  V30 1066 H 103.674 3.98007 -1.49902 0
M  V30 1067 N 101.989 0.842826 1.3317 0
M  V30 1068 C 103.237 0.439577 1.97262 0
M  V30 1069 C 103.558 -1.00548 1.67078 0
M  V30 1070 O 102.828 -1.70098 0.971779 0
M  V30 1071 H 101.408 0.159558 0.72976 0
M  V30 1072 H 104.07 1.07665 1.62463 0
M  V30 1073 H 103.166 0.574886 3.0676 0
M  V30 1074 N 103.467 -1.45747 0.599634 0
M  V30 1075 C 104.713 -2.03153 0.100263 0
M  V30 1076 C 105.068 -1.46073 -1.25221 0
M  V30 1077 O 104.361 -0.622878 -1.81193 0
M  V30 1078 C 104.555 -3.57399 -0.00602758 0
M  V30 1079 C 104.384 -4.2944 1.3346 0
M  V30 1080 C 103.154 -4.6768 1.91321 0
M  V30 1081 C 105.352 -4.61905 2.2616 0
M  V30 1082 N 103.334 -5.24544 3.18946 0
M  V30 1083 C 104.705 -5.19518 3.3838 0
M  V30 1084 C 106.76 -4.43841 2.25631 0
M  V30 1085 C 105.463 -5.60972 4.50226 0
M  V30 1086 C 107.489 -4.86322 3.36518 0
M  V30 1087 C 106.851 -5.44021 4.4746 0
M  V30 1088 H 102.95 -0.777911 0.0798696 0
M  V30 1089 H 105.534 -1.77674 0.796244 0
M  V30 1090 H 103.705 -3.82556 -0.671212 0
M  V30 1091 H 105.437 -4.01457 -0.51133 0
M  V30 1092 H 102.192 -4.5098 1.44617 0
M  V30 1093 H 102.616 -5.57483 3.84112 0
M  V30 1094 H 107.258 -3.98552 1.41123 0
M  V30 1095 H 104.976 -6.0523 5.35464 0
M  V30 1096 H 108.562 -4.74084 3.37247 0
M  V30 1097 H 107.442 -5.76289 5.31846 0
M  V30 1098 N 104.945 -0.338344 -1.53925 0
M  V30 1099 C 105.855 0.529421 -2.28548 0
M  V30 1100 C 106.871 1.11645 -1.3346 0
M  V30 1101 O 108.047 1.13325 -1.66492 0
M  V30 1102 C 105.112 1.66713 -3.03987 0
M  V30 1103 C 104.173 1.11041 -4.14691 0
M  V30 1104 C 103.406 2.19389 -4.86522 0
M  V30 1105 O 103.629 3.40013 -4.57982 0
M  V30 1106 O 102.563 1.83976 -5.73094 0
M  V30 1107 H 106.389 -0.0770399 -3.03602 0
M  V30 1108 H 103.974 -0.103555 -1.49041 0
M  V30 1109 H 105.856 2.32918 -3.5118 0
M  V30 1110 H 104.531 2.25949 -2.31794 0
M  V30 1111 H 103.438 0.413024 -3.71813 0
M  V30 1112 H 104.771 0.562975 -4.8897 0
M  V30 1113 N 106.423 1.57458 -0.0668435 0
M  V30 1114 C 107.353 2.15468 0.899764 0
M  V30 1115 C 108.334 1.08042 1.31381 0
M  V30 1116 O 109.519 1.36054 1.38574 0
M  V30 1117 C 106.649 2.71232 2.16911 0
M  V30 1118 C 105.603 3.83781 1.89463 0
M  V30 1119 C 104.929 4.26127 3.22986 0
M  V30 1120 C 106.229 5.08238 1.20381 0
M  V30 1121 H 107.923 2.96488 0.416529 0
M  V30 1122 H 105.469 1.4262 0.198908 0
M  V30 1123 H 107.422 3.10458 2.84945 0
M  V30 1124 H 106.146 1.87426 2.67468 0
M  V30 1125 H 104.805 3.45051 1.23836 0
M  V30 1126 H 104.453 3.39249 3.71374 0
M  V30 1127 H 104.153 5.01993 3.05413 0
M  V30 1128 H 105.677 4.67966 3.92225 0
M  V30 1129 H 107.091 5.44811 1.78475 0
M  V30 1130 H 105.488 5.89349 1.13083 0
M  V30 1131 H 106.558 4.84558 0.182153 0
M  V30 1132 N 107.901 -0.206675 1.56239 0
M  V30 1133 C 108.851 -1.26 1.90021 0
M  V30 1134 C 109.835 -1.41566 0.764721 0
M  V30 1135 O 111.027 -1.44131 1.02739 0
M  V30 1136 C 108.156 -2.6073 2.23326 0
M  V30 1137 C 107.242 -2.49005 3.43304 0
M  V30 1138 N 107.633 -2.06946 4.61527 0
M  V30 1139 C 105.931 -2.79927 3.47213 0
M  V30 1140 C 106.632 -2.06832 5.43687 0
M  V30 1141 N 105.608 -2.47892 4.83788 0
M  V30 1142 H 109.41 -0.925955 2.78932 0
M  V30 1143 H 106.924 -0.415172 1.57003 0
M  V30 1144 H 108.921 -3.36798 2.45708 0
M  V30 1145 H 107.581 -2.94968 1.35735 0
M  V30 1146 H 108.592 -1.77839 4.86409 0
M  V30 1147 H 105.269 -3.18438 2.70006 0
M  V30 1148 H 106.659 -1.76312 6.48354 0
M  V30 1149 N 109.379 -1.50304 -0.473955 0
M  V30 1150 C 110.79 -1.54042 -1.0549 0
M  V30 1151 C 111.141 -0.342248 -1.93192 0
M  V30 1152 O 110.266 0.545157 -2.09421 0
M  V30 1153 C 110.861 -2.79152 -1.91989 0
M  V30 1154 C 109.42 -2.8558 -2.45196 0
M  V30 1155 C 108.567 -2.48295 -1.2347 0
M  V30 1156 H 111.518 -1.5661 -0.256693 0
M  V30 1157 H 111.539 -2.60845 -2.7702 0
M  V30 1158 H 111.051 -3.66339 -1.28131 0
M  V30 1159 H 109.152 -2.02738 -3.12615 0
M  V30 1160 H 109.265 -3.88403 -2.80499 0
M  V30 1161 H 107.629 -2.00669 -1.56856 0
M  V30 1162 H 108.412 -3.37787 -0.612789 0
M  V30 1163 N 110.857 0.726932 -1.39834 0
M  V30 1164 C 111.787 1.85405 -1.41941 0
M  V30 1165 C 112.768 1.67751 -0.281728 0
M  V30 1166 O 113.953 1.8795 -0.488717 0
M  V30 1167 C 111.083 3.23243 -1.2701 0
M  V30 1168 C 110.037 3.55549 -2.38262 0
M  V30 1169 C 109.363 4.9241 -2.08415 0
M  V30 1170 C 110.663 3.577 -3.80589 0
M  V30 1171 H 112.357 1.83899 -2.36266 0
M  V30 1172 H 109.903 0.883349 -1.13723 0
M  V30 1173 H 111.856 4.01775 -1.27103 0
M  V30 1174 H 110.58 3.25296 -0.291564 0
M  V30 1175 H 109.239 2.79351 -2.37399 0
M  V30 1176 H 108.887 4.91052 -1.0898 0
M  V30 1177 H 108.587 5.14992 -2.82943 0
M  V30 1178 H 110.111 5.73289 -2.10171 0
M  V30 1179 H 111.525 4.26293 -3.83337 0
M  V30 1180 H 109.922 3.91804 -4.54543 0
M  V30 1181 H 110.992 2.57328 -4.10987 0
M  V30 1182 N 112.336 1.25143 0.95797 0
M  V30 1183 C 113.582 1.09855 1.70469 0
M  V30 1184 C 113.915 -0.360187 1.90831 0
M  V30 1185 O 113.19 -1.26568 1.47685 0
M  V30 1186 C 113.473 1.8497 3.08963 0
M  V30 1187 C 113.326 3.38652 2.96032 0
M  V30 1188 C 114.645 1.63016 4.08795 0
M  V30 1189 H 111.764 0.400465 0.618706 0
M  V30 1190 H 114.406 1.53933 1.11376 0
M  V30 1191 H 112.556 1.47505 3.59409 0
M  V30 1192 H 114.228 3.85772 2.52938 0
M  V30 1193 H 112.471 3.66534 2.32025 0
M  V30 1194 H 113.142 3.8642 3.94187 0
M  V30 1195 H 115.618 1.95625 3.67247 0
M  V30 1196 H 114.494 2.18015 5.03747 0
M  V30 1197 H 114.755 0.570692 4.38401 0
M  V30 1198 N 113.814 -1.1601 1.06675 0
M  V30 1199 C 115.06 -1.86909 0.786945 0
M  V30 1200 C 115.393 -1.81717 -0.685018 0
M  V30 1201 O 114.668 -1.23551 -1.50218 0
M  V30 1202 C 114.951 -3.36313 1.28707 0
M  V30 1203 C 114.804 -3.50175 2.82308 0
M  V30 1204 C 116.123 -4.3084 0.898071 0
M  V30 1205 H 113.242 -0.678677 0.287343 0
M  V30 1206 H 115.884 -1.36336 1.32334 0
M  V30 1207 H 114.034 -3.79513 0.830768 0
M  V30 1208 H 115.706 -3.15886 3.36175 0
M  V30 1209 H 113.949 -2.91959 3.20847 0
M  V30 1210 H 114.62 -4.55116 3.12368 0
M  V30 1211 H 117.096 -3.95561 1.29114 0
M  V30 1212 H 115.972 -5.33876 1.27543 0
M  V30 1213 H 116.233 -4.41662 -0.196651 0
M  V30 1214 N 115.292 -0.849877 -1.32721 0
M  V30 1215 C 116.202 -0.293791 -2.32753 0
M  V30 1216 C 117.218 0.585906 -1.63839 0
M  V30 1217 O 118.394 0.487413 -1.95413 0
M  V30 1218 C 115.459 0.512752 -3.42887 0
M  V30 1219 C 114.52 -0.39252 -4.27502 0
M  V30 1220 C 113.753 0.375625 -5.32377 0
M  V30 1221 O 113.976 1.60613 -5.4732 0
M  V30 1222 O 112.91 -0.256094 -6.01355 0
M  V30 1223 H 116.736 -1.12242 -2.82197 0
M  V30 1224 H 114.321 -0.612685 -1.36259 0
M  V30 1225 H 116.203 0.970704 -4.10067 0
M  V30 1226 H 114.878 1.31826 -2.95641 0
M  V30 1227 H 113.785 -0.898547 -3.63149 0
M  V30 1228 H 115.118 -1.16309 -4.7826 0
M  V30 1229 N 116.77 1.45427 -0.607355 0
M  V30 1230 C 117.995 2.07124 -0.107006 0
M  V30 1231 C 118.42 1.44906 1.19933 0
M  V30 1232 O 117.778 0.541687 1.73019 0
M  V30 1233 C 117.826 3.60595 0.0194119 0
M  V30 1234 O 116.93 3.98285 1.0697 0
M  V30 1235 H 116.271 0.659868 -0.0739597 0
M  V30 1236 H 118.801 1.86683 -0.837297 0
M  V30 1237 H 118.811 4.07419 0.2177 0
M  V30 1238 H 117.486 4.05266 -0.934453 0
M  V30 1239 H 116.063 3.63133 0.847889 0
M  V30 1240 N 118.248 0.346503 1.53744 0
M  V30 1241 C 119.473 -0.253074 2.0585 0
M  V30 1242 C 119.898 -1.43202 1.21962 0
M  V30 1243 O 119.256 -1.79783 0.234073 0
M  V30 1244 C 119.304 -0.643193 3.54817 0
M  V30 1245 O 118.408 -1.74286 3.73762 0
M  V30 1246 H 117.749 -0.0413583 0.662711 0
M  V30 1247 H 120.279 0.501574 1.98357 0
M  V30 1248 H 120.289 -0.919526 3.97503 0
M  V30 1249 H 118.964 0.218966 4.15323 0
M  V30 1250 H 117.541 -1.46356 3.42979 0
M  V30 1251 N 119.726 -1.57421 0.075193 0
M  V30 1252 C 121.142 -1.57099 -0.281444 0
M  V30 1253 C 121.342 -1.08486 -1.69803 0
M  V30 1254 O 120.398 -0.752279 -2.41033 0
M  V30 1255 C 121.711 -3.00571 -0.0880041 0
M  V30 1256 C 123.259 -3.12605 -0.157281 0
M  V30 1257 C 123.734 -4.57999 0.0079207 0
M  V30 1258 N 125.225 -4.63176 -0.0475725 0
M  V30 1259 C 125.96 -5.73373 0.0557876 0
M  V30 1260 N 125.456 -6.92473 0.21286 0
M  V30 1261 N 127.249 -5.621 -0.00152098 0
M  V30 1262 H 119.4 -1.87335 1.00098 0
M  V30 1263 H 121.663 -0.86377 0.390646 0
M  V30 1264 H 121.369 -3.40262 0.889629 0
M  V30 1265 H 121.243 -3.67754 -0.838875 0
M  V30 1266 H 123.63 -2.72798 -1.1254 0
M  V30 1267 H 123.711 -2.48053 0.62475 0
M  V30 1268 H 123.355 -4.98496 0.972824 0
M  V30 1269 H 123.285 -5.20586 -0.793556 0
M  V30 1270 H 125.776 -3.7753 -0.167244 0
M  V30 1271 H 126.089 -7.72279 0.283781 0
M  V30 1272 H 124.434 -6.94556 0.248267 0
M  V30 1273 H 127.625 -4.67938 -0.122958 0
M  V30 1274 H 127.798 -6.47948 0.0824844 0
M  V30 1275 N 121.204 0.198386 -1.56346 0
M  V30 1276 C 122.62 0.549085 -1.49857 0
M  V30 1277 C 122.82 1.86016 -0.774611 0
M  V30 1278 O 121.876 2.50416 -0.323776 0
M  V30 1279 C 123.189 0.606868 -2.94512 0
M  V30 1280 C 124.737 0.695925 -3.05165 0
M  V30 1281 C 125.212 0.784848 -4.51225 0
M  V30 1282 N 126.703 0.848463 -4.55363 0
M  V30 1283 C 127.438 0.937378 -5.65686 0
M  V30 1284 N 126.934 0.9888 -6.85707 0
M  V30 1285 N 128.727 0.974312 -5.53592 0
M  V30 1286 H 120.878 -0.661655 -2.01831 0
M  V30 1287 H 123.141 -0.235261 -0.918344 0
M  V30 1288 H 122.847 -0.28732 -3.50524 0
M  V30 1289 H 122.721 1.46268 -3.47686 0
M  V30 1290 H 125.108 1.58055 -2.49204 0
M  V30 1291 H 125.189 -0.186022 -2.55123 0
M  V30 1292 H 124.833 -0.0954072 -5.0781 0
M  V30 1293 H 124.763 1.68255 -4.98997 0
M  V30 1294 H 127.254 0.818103 -3.68938 0
M  V30 1295 H 127.567 1.05707 -7.65536 0
M  V30 1296 H 125.912 0.957534 -6.88372 0
M  V30 1297 H 129.103 0.930954 -4.58749 0
M  V30 1298 H 129.276 1.04015 -6.39597 0
M  V30 1299 N 122.682 1.50554 0.465978 0
M  V30 1300 C 123.629 1.6979 1.56333 0
M  V30 1301 C 124.599 0.539239 1.57103 0
M  V30 1302 O 125.784 0.770401 1.74555 0
M  V30 1303 C 122.924 1.80273 2.94271 0
M  V30 1304 C 122.037 3.07674 3.0325 0
M  V30 1305 C 121.172 3.08922 4.32135 0
M  V30 1306 C 120.211 4.30755 4.34875 0
M  V30 1307 N 119.348 4.29714 5.55239 0
M  V30 1308 H 124.188 2.63472 1.39235 0
M  V30 1309 H 121.725 1.30602 0.676873 0
M  V30 1310 H 123.683 1.84332 3.74269 0
M  V30 1311 H 122.313 0.900258 3.09992 0
M  V30 1312 H 121.365 3.13062 2.16094 0
M  V30 1313 H 122.677 3.97642 3.01135 0
M  V30 1314 H 121.831 3.11738 5.20485 0
M  V30 1315 H 120.57 2.16792 4.36866 0
M  V30 1316 H 119.575 4.28146 3.44922 0
M  V30 1317 H 120.8 5.24117 4.31831 0
M  V30 1318 H 118.746 3.4044 5.60746 0
M  V30 1319 H 118.663 5.13456 5.54886 0
M  V30 1320 H 119.931 4.36683 6.457 0
M  V30 1321 N 124.16 -0.719506 1.40217 0
M  V30 1322 C 125.108 -1.85493 1.40339 0
M  V30 1323 C 126.102 -1.66995 0.284415 0
M  V30 1324 O 127.308 -1.74148 0.455252 0
M  V30 1325 H 123.683 -0.610857 0.438586 0
M  V30 1326 H 125.654 -1.82506 2.36081 0
M  V30 1327 C 124.403 -3.23321 1.27901 0
M  V30 1328 H 123.726 -3.38159 2.1328 0
M  V30 1329 H 125.166 -4.02914 1.32045 0
M  V30 1330 C 123.625 -3.36898 -0.0111355 0
M  V30 1331 O 124.155 -3.89674 -0.975538 0
M  V30 1332 N 122.361 -2.90492 -0.0793393 0
M  V30 1333 H 121.908 -2.47731 0.706183 0
M  V30 1334 H 121.866 -2.99955 -0.942038 0
M  V30 1335 N 125.638 -1.25649 -0.95132 0
M  V30 1336 C 126.57 -1.02112 -2.05197 0
M  V30 1337 C 127.583 0.0150571 -1.62793 0
M  V30 1338 O 128.772 -0.223874 -1.77091 0
M  V30 1339 C 125.872 -0.522361 -3.3485 0
M  V30 1340 C 125.045 -1.62546 -4.06076 0
M  V30 1341 C 124.104 -1.12649 -5.14001 0
M  V30 1342 O 123.13 -1.82156 -5.39266 0
M  V30 1343 N 124.332 0.03047 -5.80492 0
M  V30 1344 H 127.097 -1.96885 -2.25957 0
M  V30 1345 H 124.658 -1.16899 -1.1201 0
M  V30 1346 H 126.65 -0.172961 -4.0433 0
M  V30 1347 H 125.22 0.33151 -3.10837 0
M  V30 1348 H 124.44 -2.14628 -3.30649 0
M  V30 1349 H 125.728 -2.36644 -4.50419 0
M  V30 1350 H 125.126 0.611169 -5.62389 0
M  V30 1351 H 123.683 0.320875 -6.5101 0
M  V30 1352 N 127.117 1.15442 -1.07289 0
M  V30 1353 C 128.366 1.85557 -0.790669 0
M  V30 1354 C 128.679 1.83186 0.685739 0
M  V30 1355 O 129.885 2.48977 1.0827 0
M  V30 1356 C 128.341 3.33038 -1.36433 0
M  V30 1357 C 127.949 3.43856 -2.8717 0
M  V30 1358 C 129.693 4.0834 -1.1601 0
M  V30 1359 C 127.6 4.85482 -3.3773 0
M  V30 1360 H 126.53 0.695122 -0.292098 0
M  V30 1361 H 129.181 1.30219 -1.29287 0
M  V30 1362 H 127.563 3.88043 -0.789864 0
M  V30 1363 H 128.737 2.98961 -3.50655 0
M  V30 1364 H 127.052 2.81998 -3.06376 0
M  V30 1365 H 129.649 5.12859 -1.51262 0
M  V30 1366 H 129.992 4.16182 -0.0991007 0
M  V30 1367 H 130.525 3.59603 -1.70089 0
M  V30 1368 H 127.264 4.82823 -4.43353 0
M  V30 1369 H 126.784 5.30961 -2.78999 0
M  V30 1370 H 128.463 5.54335 -3.33648 0
M  V30 1371 N 128.595 0.856903 1.32268 0
M  V30 1372 C 129.843 0.460474 1.96784 0
M  V30 1373 C 130.164 -0.987701 1.68135 0
M  V30 1374 O 129.434 -1.69058 0.989765 0
M  V30 1375 H 128.014 0.167289 0.728027 0
M  V30 1376 H 130.676 1.09383 1.61312 0
M  V30 1377 H 129.772 0.60739 3.06133 0
M  V30 1378 N 130.073 -1.45103 0.615059 0
M  V30 1379 C 131.301 -2.06553 0.11977 0
M  V30 1380 C 131.716 -1.45842 -1.19898 0
M  V30 1381 O 131.073 -0.575325 -1.73194 0
M  V30 1382 C 131.124 -3.61495 -0.018364 0
M  V30 1383 O 130.845 -4.19942 1.24822 0
M  V30 1384 C 132.346 -4.39947 -0.544237 0
M  V30 1385 H 129.566 -0.667096 0.0722739 0
M  V30 1386 H 132.11 -1.8623 0.84491 0
M  V30 1387 H 130.265 -3.81135 -0.693865 0
M  V30 1388 H 130.679 -5.13204 1.0827 0
M  V30 1389 H 132.153 -5.48838 -0.589953 0
M  V30 1390 H 132.63 -4.10255 -1.56805 0
M  V30 1391 H 133.236 -4.25188 0.0974703 0
M  V30 1392 N 131.551 -0.354651 -1.53558 0
M  V30 1393 C 132.967 -0.00315426 -1.596 0
M  V30 1394 C 133.167 1.47741 -1.37021 0
M  V30 1395 O 132.223 2.23759 -1.16996 0
M  V30 1396 C 133.536 -0.44929 -2.97325 0
M  V30 1397 C 135.084 -0.402578 -3.104 0
M  V30 1398 C 135.559 -0.824355 -4.5052 0
M  V30 1399 N 137.05 -0.778979 -4.56603 0
M  V30 1400 C 137.785 -1.07715 -5.63192 0
M  V30 1401 N 137.281 -1.44405 -6.77583 0
M  V30 1402 N 139.074 -1.00066 -5.53121 0
M  V30 1403 H 131.225 -1.31893 -1.66487 0
M  V30 1404 H 133.488 -0.538388 -0.780284 0
M  V30 1405 H 133.194 -1.48202 -3.1895 0
M  V30 1406 H 133.068 0.169772 -3.76818 0
M  V30 1407 H 135.455 0.621004 -2.88492 0
M  V30 1408 H 135.536 -1.05699 -2.32941 0
M  V30 1409 H 135.18 -1.846 -4.73165 0
M  V30 1410 H 135.11 -0.147304 -5.26394 0
M  V30 1411 H 137.601 -0.508528 -3.74463 0
M  V30 1412 H 137.914 -1.65612 -7.54846 0
M  V30 1413 H 136.259 -1.4826 -6.79002 0
M  V30 1414 H 139.45 -0.713293 -4.62633 0
M  V30 1415 H 139.623 -1.23638 -6.36096 0
M  V30 1416 N 133.029 1.57378 -0.0835403 0
M  V30 1417 C 133.959 2.1641 0.87686 0
M  V30 1418 C 134.94 1.09429 1.30228 0
M  V30 1419 O 136.125 1.37516 1.37124 0
M  V30 1420 C 133.255 2.73517 2.14022 0
M  V30 1421 C 132.209 3.85769 1.85381 0
M  V30 1422 C 131.535 4.29529 3.18448 0
M  V30 1423 C 132.835 5.09486 1.14984 0
M  V30 1424 H 134.529 2.96914 0.385059 0
M  V30 1425 H 132.075 1.42823 0.18377 0
M  V30 1426 H 134.028 3.13463 2.81636 0
M  V30 1427 H 132.752 1.90252 2.65465 0
M  V30 1428 H 131.411 3.46345 1.20169 0
M  V30 1429 H 131.059 3.43169 3.67755 0
M  V30 1430 H 130.759 5.05204 3.00071 0
M  V30 1431 H 132.283 4.72099 3.8724 0
M  V30 1432 H 133.697 5.46674 1.72687 0
M  V30 1433 H 132.094 5.90515 1.06826 0
M  V30 1434 H 133.164 4.84724 0.130749 0
M  V30 1435 N 134.507 -0.190092 1.56449 0
M  V30 1436 C 135.753 -0.911052 1.81184 0
M  V30 1437 C 136.086 -1.82699 0.658396 0
M  V30 1438 O 135.361 -1.91491 -0.340775 0
M  V30 1439 C 135.644 -1.72297 3.16205 0
M  V30 1440 C 135.497 -0.831419 4.42049 0
M  V30 1441 C 136.816 -2.69454 3.47969 0
M  V30 1442 H 133.935 -0.32977 0.659106 0
M  V30 1443 H 136.577 -0.178169 1.89163 0
M  V30 1444 H 134.727 -2.34778 3.09534 0
M  V30 1445 H 136.399 -0.220929 4.60771 0
M  V30 1446 H 134.642 -0.138406 4.33579 0
M  V30 1447 H 135.313 -1.43461 5.33032 0
M  V30 1448 H 137.789 -2.17104 3.54972 0
M  V30 1449 H 136.665 -3.23342 4.43555 0
M  V30 1450 H 136.926 -3.48744 2.71717 0
M  V30 1451 N 135.985 -1.50799 -0.457987 0
M  V30 1452 C 136.933 -1.71162 -1.575 0
M  V30 1453 C 137.927 -0.577592 -1.59249 0
M  V30 1454 O 139.133 -0.758443 -1.63241 0
M  V30 1455 H 135.508 -0.540468 -0.522875 0
M  V30 1456 H 137.479 -2.64837 -1.37492 0
M  V30 1457 C 136.228 -1.83496 -2.95338 0
M  V30 1458 H 135.551 -2.70153 -2.94716 0
M  V30 1459 H 136.991 -2.01765 -3.72917 0
M  V30 1460 C 135.45 -0.589694 -3.31699 0
M  V30 1461 O 135.98 0.265163 -4.00824 0
M  V30 1462 N 134.186 -0.439845 -2.87252 0
M  V30 1463 H 133.733 -1.13655 -2.31172 0
M  V30 1464 H 133.691 0.392159 -3.11945 0
M  V30 1465 N 137.463 0.71206 -1.40597 0
M  V30 1466 C 138.693 1.49894 -1.42181 0
M  V30 1467 C 139.101 1.89189 -0.0208078 0
M  V30 1468 O 138.444 1.56223 0.966436 0
M  V30 1469 C 138.506 2.80215 -2.25211 0
M  V30 1470 C 138.17 2.63221 -3.73582 0
M  V30 1471 C 139.167 2.30249 -4.66135 0
M  V30 1472 C 136.852 2.79376 -4.17438 0
M  V30 1473 C 138.846 2.13645 -6.00529 0
M  V30 1474 C 136.533 2.6239 -5.51901 0
M  V30 1475 C 137.531 2.29573 -6.43262 0
M  V30 1476 O 137.219 2.12719 -7.75246 0
M  V30 1477 H 136.951 0.469031 -0.486812 0
M  V30 1478 H 139.505 0.88564 -1.85326 0
M  V30 1479 H 137.735 3.4389 -1.76852 0
M  V30 1480 H 139.424 3.41947 -2.18694 0
M  V30 1481 H 140.19 2.17398 -4.33547 0
M  V30 1482 H 136.069 3.03906 -3.46644 0
M  V30 1483 H 139.613 1.87953 -6.71803 0
M  V30 1484 H 135.51 2.74826 -5.84073 0
M  V30 1485 H 136.278 2.27611 -7.86216 0
M  V30 1486 N 138.941 1.26152 0.944643 0
M  V30 1487 C 139.871 1.09902 2.06019 0
M  V30 1488 C 140.852 0.00519538 1.70099 0
M  V30 1489 O 142.037 0.176583 1.93396 0
M  V30 1490 C 139.167 0.727562 3.39594 0
M  V30 1491 C 138.121 1.77274 3.89561 0
M  V30 1492 C 137.447 1.25569 5.19747 0
M  V30 1493 C 138.747 3.17357 4.14827 0
M  V30 1494 H 140.441 2.03217 2.19871 0
M  V30 1495 H 137.987 0.978452 1.05652 0
M  V30 1496 H 139.94 0.600777 4.17095 0
M  V30 1497 H 138.664 -0.241287 3.25707 0
M  V30 1498 H 137.323 1.88814 3.14237 0
M  V30 1499 H 136.971 0.276783 5.02238 0
M  V30 1500 H 136.671 1.95433 5.54148 0
M  V30 1501 H 138.195 1.1415 5.99835 0
M  V30 1502 H 139.609 3.08914 4.82954 0
M  V30 1503 H 138.006 3.84781 4.60504 0
M  V30 1504 H 139.076 3.63673 3.20734 0
M  V30 1505 N 140.419 -1.14872 1.07899 0
M  V30 1506 C 141.329 -2.2341 0.715915 0
M  V30 1507 C 142.345 -1.71808 -0.275306 0
M  V30 1508 O 143.521 -2.01039 -0.120545 0
M  V30 1509 C 140.586 -3.46474 0.125168 0
M  V30 1510 C 139.647 -4.13039 1.17034 0
M  V30 1511 C 138.88 -5.30229 0.607688 0
M  V30 1512 O 139.103 -5.675 -0.574497 0
M  V30 1513 O 138.037 -5.86444 1.35526 0
M  V30 1514 H 141.863 -2.56808 1.62121 0
M  V30 1515 H 139.448 -1.22702 0.852322 0
M  V30 1516 H 141.33 -4.20917 -0.201729 0
M  V30 1517 H 140.005 -3.14811 -0.753364 0
M  V30 1518 H 138.912 -3.40493 1.54968 0
M  V30 1519 H 140.245 -4.48796 2.02097 0
M  V30 1520 N 141.898 -0.863906 -1.31812 0
M  V30 1521 C 142.845 -0.313303 -2.28664 0
M  V30 1522 C 143.815 0.584868 -1.55462 0
M  V30 1523 O 145 0.517805 -1.83639 0
M  V30 1524 C 142.14 0.48441 -3.41683 0
M  V30 1525 C 141.253 -0.440594 -4.29747 0
M  V30 1526 C 140.388 0.370652 -5.29905 0
M  V30 1527 C 139.427 -0.551164 -6.09613 0
M  V30 1528 N 138.564 0.223462 -7.01744 0
M  V30 1529 H 143.404 -1.14444 -2.75148 0
M  V30 1530 H 140.941 -0.575769 -1.35364 0
M  V30 1531 H 142.899 0.962627 -4.05943 0
M  V30 1532 H 141.529 1.28029 -2.96325 0
M  V30 1533 H 140.581 -1.03724 -3.65986 0
M  V30 1534 H 141.893 -1.14767 -4.85417 0
M  V30 1535 H 141.047 0.911638 -5.99812 0
M  V30 1536 H 139.786 1.11105 -4.74876 0
M  V30 1537 H 138.791 -1.10396 -5.38603 0
M  V30 1538 H 140.016 -1.29032 -6.66729 0
M  V30 1539 H 137.962 0.946787 -6.49132 0
M  V30 1540 H 137.879 -0.424399 -7.54808 0
M  V30 1541 H 139.147 0.745876 -7.75923 0
M  V30 1542 N 143.376 1.44774 -0.622745 0
M  V30 1543 C 144.286 2.34433 0.0886031 0
M  V30 1544 C 145.302 1.52131 0.844529 0
M  V30 1545 O 146.478 1.84886 0.798691 0
M  V30 1546 C 143.543 3.29986 1.0635 0
M  V30 1547 C 142.604 4.28195 0.307873 0
M  V30 1548 C 141.837 5.19183 1.23633 0
M  V30 1549 O 142.06 5.13918 2.47476 0
M  V30 1550 O 140.994 5.97515 0.725189 0
M  V30 1551 H 144.82 2.96693 -0.648599 0
M  V30 1552 H 142.405 1.44408 -0.382957 0
M  V30 1553 H 144.287 3.88825 1.6246 0
M  V30 1554 H 142.962 2.70269 1.78146 0
M  V30 1555 H 141.869 3.72927 -0.296064 0
M  V30 1556 H 143.202 4.90808 -0.3699 0
M  V30 1557 N 144.854 0.36279 1.53368 0
M  V30 1558 C 146.1 -0.228113 2.01513 0
M  V30 1559 C 146.433 -1.48648 1.2497 0
M  V30 1560 O 145.708 -1.91459 0.342616 0
M  V30 1561 C 145.991 -0.522884 3.56284 0
M  V30 1562 C 145.844 0.74892 4.43521 0
M  V30 1563 C 147.163 -1.32461 4.19693 0
M  V30 1564 H 144.282 -0.0814343 0.732487 0
M  V30 1565 H 146.924 0.48713 1.83649 0
M  V30 1566 H 145.074 -1.1322 3.71636 0
M  V30 1567 H 146.746 1.38648 4.39971 0
M  V30 1568 H 144.989 1.36986 4.11603 0
M  V30 1569 H 145.66 0.497667 5.49752 0
M  V30 1570 H 148.136 -0.809203 4.08156 0
M  V30 1571 H 147.012 -1.49961 5.28018 0
M  V30 1572 H 147.273 -2.33232 3.75573 0
M  V30 1573 N 146.332 -1.57332 0.0918853 0
M  V30 1574 C 147.295 -2.12708 -0.85369 0
M  V30 1575 C 148.295 -1.05561 -1.213 0
M  V30 1576 O 149.485 -1.31461 -1.14296 0
M  V30 1577 C 146.617 -2.64503 -2.15061 0
M  V30 1578 H 147.81 -2.97573 -0.3729 0
M  V30 1579 H 145.363 -1.55509 -0.157072 0
M  V30 1580 H 146.098 -1.83149 -2.67632 0
M  V30 1581 H 145.883 -3.4284 -1.90272 0
M  V30 1582 H 147.373 -3.07351 -2.82711 0
M  V30 1583 N 147.81 0.181792 -1.56548 0
M  V30 1584 C 149.035 0.920019 -1.85877 0
M  V30 1585 C 149.46 1.75494 -0.677021 0
M  V30 1586 O 148.818 1.77399 0.374056 0
M  V30 1587 C 148.866 1.78112 -3.13542 0
M  V30 1588 O 147.97 2.88152 -2.95029 0
M  V30 1589 H 147.311 0.258334 -0.611686 0
M  V30 1590 H 149.841 0.183092 -2.03779 0
M  V30 1591 H 149.851 2.18314 -3.44678 0
M  V30 1592 H 148.526 1.16777 -3.99169 0
M  V30 1593 H 147.103 2.51609 -2.75222 0
M  V30 1594 N 149.288 1.51039 0.449983 0
M  V30 1595 C 150.704 1.38934 0.785462 0
M  V30 1596 C 150.904 0.461817 1.96136 0
M  V30 1597 O 149.96 -0.0877389 2.52348 0
M  V30 1598 C 151.273 2.80724 1.0777 0
M  V30 1599 C 152.821 2.89787 1.1829 0
M  V30 1600 C 153.296 4.32457 1.50815 0
M  V30 1601 N 154.787 4.35505 1.57764 0
M  V30 1602 C 155.522 5.42914 1.84477 0
M  V30 1603 N 155.018 6.60502 2.09068 0
M  V30 1604 N 156.811 5.3038 1.86155 0
M  V30 1605 H 148.962 2.09904 -0.324647 0
M  V30 1606 H 151.225 0.944378 -0.0827957 0
M  V30 1607 H 150.931 3.50531 0.286498 0
M  V30 1608 H 150.805 3.19273 2.00859 0
M  V30 1609 H 153.192 2.20186 1.96474 0
M  V30 1610 H 153.273 2.54752 0.231314 0
M  V30 1611 H 152.917 5.02603 0.731622 0
M  V30 1612 H 152.847 4.64995 2.47158 0
M  V30 1613 H 155.338 3.50724 1.40715 0
M  V30 1614 H 155.651 7.38158 2.28785 0
M  V30 1615 H 153.996 6.63639 2.06416 0
M  V30 1616 H 157.187 4.37505 1.66454 0
M  V30 1617 H 157.36 6.1417 2.06637 0
M  V30 1618 N 150.766 -0.704594 1.40972 0
M  V30 1619 C 152.014 -1.46169 1.39568 0
M  V30 1620 C 152.335 -1.95 0.00253745 0
M  V30 1621 O 151.605 -1.71095 -0.954114 0
M  V30 1622 H 150.185 -0.542326 0.513704 0
M  V30 1623 H 152.847 -0.834553 1.76128 0
M  V30 1624 H 151.943 -2.32922 2.07735 0
M  V30 1625 N 152.244 -1.26651 -0.937939 0
M  V30 1626 C 153.492 -1.12165 -1.68118 0
M  V30 1627 C 153.813 0.334983 -1.92101 0
M  V30 1628 O 153.083 1.23583 -1.52 0
M  V30 1629 H 151.663 -0.412093 -0.623048 0
M  V30 1630 H 154.325 -1.59027 -1.12678 0
M  V30 1631 H 153.421 -1.64289 -2.6536 0
M  V30 1632 N 153.722 1.14298 -1.08507 0
M  V30 1633 C 154.971 1.84708 -0.810305 0
M  V30 1634 C 155.284 1.83903 0.666271 0
M  V30 1635 O 156.49 2.50112 1.05624 0
M  V30 1636 C 154.946 3.31572 -1.39957 0
M  V30 1637 C 154.554 3.40791 -2.90801 0
M  V30 1638 C 156.298 4.07087 -1.20334 0
M  V30 1639 C 154.205 4.81872 -3.4286 0
M  V30 1640 H 153.135 0.691985 -0.299454 0
M  V30 1641 H 155.786 1.28841 -1.30661 0
M  V30 1642 H 154.168 3.87183 -0.830976 0
M  V30 1643 H 155.342 2.95225 -3.53806 0
M  V30 1644 H 153.657 2.78732 -3.0935 0
M  V30 1645 H 156.254 5.11225 -1.56693 0
M  V30 1646 H 156.597 4.16054 -0.143237 0
M  V30 1647 H 157.13 3.57779 -1.73893 0
M  V30 1648 H 153.869 4.78094 -4.48449 0
M  V30 1649 H 153.389 5.27972 -2.84615 0
M  V30 1650 H 155.068 5.50765 -3.39509 0
M  V30 1651 N 155.201 0.870884 1.31352 0
M  V30 1652 C 156.429 0.49677 2.00848 0
M  V30 1653 C 156.844 -0.910998 1.65367 0
M  V30 1654 O 156.201 -1.59696 0.883374 0
M  V30 1655 C 156.252 0.645308 3.55694 0
M  V30 1656 O 155.973 1.99764 3.89905 0
M  V30 1657 C 157.474 0.272326 4.42463 0
M  V30 1658 H 154.694 0.193462 0.642506 0
M  V30 1659 H 157.238 1.1723 1.67563 0
M  V30 1660 H 155.393 0.0173176 3.87396 0
M  V30 1661 H 155.807 2.00607 4.84621 0
M  V30 1662 H 157.281 0.427208 5.50344 0
M  V30 1663 H 157.758 -0.788587 4.32062 0
M  V30 1664 H 158.364 0.876054 4.1618 0
M  V30 1665 N 156.679 -1.44442 0.630414 0
M  V30 1666 C 157.928 -2.01267 0.132073 0
M  V30 1667 C 158.241 -1.50172 -1.25331 0
M  V30 1668 O 159.447 -1.9912 -1.84562 0
M  V30 1669 C 157.903 -3.59422 0.185362 0
M  V30 1670 C 157.511 -4.19514 1.57201 0
M  V30 1671 C 159.255 -4.23724 -0.256553 0
M  V30 1672 C 157.162 -5.69891 1.58045 0
M  V30 1673 H 156.092 -0.752619 0.0456092 0
M  V30 1674 H 158.743 -1.65666 0.789106 0
M  V30 1675 H 157.125 -3.92318 -0.538759 0
M  V30 1676 H 158.299 -3.98156 2.31966 0
M  V30 1677 H 156.614 -3.67496 1.95795 0
M  V30 1678 H 159.211 -5.34019 -0.269767 0
M  V30 1679 H 159.554 -3.96013 -1.28372 0
M  V30 1680 H 160.087 -3.95629 0.41505 0
M  V30 1681 H 156.826 -6.02336 2.58597 0
M  V30 1682 H 156.346 -5.93373 0.875725 0
M  V30 1683 H 158.025 -6.33515 1.31408 0
M  V30 1684 N 158.157 -0.370918 -1.53173 0
M  V30 1685 C 159.387 0.217389 -2.05453 0
M  V30 1686 C 159.795 1.42568 -1.24382 0
M  V30 1687 O 159.138 1.81571 -0.278839 0
M  V30 1688 C 159.2 0.669827 -3.53205 0
M  V30 1689 C 158.864 -0.4225 -4.55043 0
M  V30 1690 C 159.861 -1.27407 -5.04047 0
M  V30 1691 C 157.546 -0.58427 -4.9889 0
M  V30 1692 C 159.54 -2.27271 -5.95505 0
M  V30 1693 C 157.227 -1.58627 -5.90153 0
M  V30 1694 C 158.225 -2.42892 -6.38351 0
M  V30 1695 O 157.913 -3.41382 -7.27814 0
M  V30 1696 H 157.645 0.0408171 -0.674767 0
M  V30 1697 H 160.199 -0.5292 -1.98466 0
M  V30 1698 H 158.429 1.4681 -3.57748 0
M  V30 1699 H 160.118 1.18173 -3.88317 0
M  V30 1700 H 160.884 -1.16031 -4.70916 0
M  V30 1701 H 156.763 0.061851 -4.60959 0
M  V30 1702 H 160.307 -2.93079 -6.33049 0
M  V30 1703 H 156.204 -1.70048 -6.22699 0
M  V30 1704 H 156.972 -3.37173 -7.45826 0
M  V30 1705 N 159.635 1.57281 -0.100228 0
M  V30 1706 C 160.565 2.17328 0.853857 0
M  V30 1707 C 161.546 1.10804 1.2906 0
M  V30 1708 O 162.731 1.38963 1.35657 0
M  V30 1709 C 159.861 2.75772 2.11109 0
M  V30 1710 C 158.815 3.87713 1.81279 0
M  V30 1711 C 158.141 4.32882 3.13874 0
M  V30 1712 C 159.441 5.10677 1.09574 0
M  V30 1713 H 161.135 2.97305 0.353545 0
M  V30 1714 H 158.681 1.43009 0.168612 0
M  V30 1715 H 160.634 3.16433 2.78296 0
M  V30 1716 H 159.358 1.93057 2.63432 0
M  V30 1717 H 158.017 3.476 1.16489 0
M  V30 1718 H 157.665 3.47051 3.64095 0
M  V30 1719 H 157.365 5.08358 2.94696 0
M  V30 1720 H 158.889 4.7618 3.82211 0
M  V30 1721 H 160.303 5.48474 1.66879 0
M  V30 1722 H 158.7 5.91615 1.00557 0
M  V30 1723 H 159.77 4.84835 0.0793299 0
M  V30 1724 N 161.113 -0.173488 1.56642 0
M  V30 1725 C 162.361 -0.888706 1.81512 0
M  V30 1726 C 162.682 -1.82875 0.676872 0
M  V30 1727 O 161.952 -1.93536 -0.303414 0
M  V30 1728 H 160.532 -0.331164 0.669582 0
M  V30 1729 H 163.194 -0.173823 1.94123 0
M  V30 1730 H 162.29 -1.46691 2.75478 0
M  V30 1731 N 162.591 -1.51276 -0.441967 0
M  V30 1732 C 163.819 -1.67516 -1.21434 0
M  V30 1733 C 164.234 -0.37055 -1.85128 0
M  V30 1734 O 163.591 0.650498 -1.70513 0
M  V30 1735 C 163.642 -2.78748 -2.30177 0
M  V30 1736 O 163.363 -4.04154 -1.69089 0
M  V30 1737 C 164.864 -3.06217 -3.20541 0
M  V30 1738 H 162.084 -0.562276 -0.366178 0
M  V30 1739 H 164.628 -1.97666 -0.524244 0
M  V30 1740 H 162.783 -2.5121 -2.94911 0
M  V30 1741 H 163.197 -4.65894 -2.40922 0
M  V30 1742 H 164.671 -3.8764 -3.92987 0
M  V30 1743 H 165.148 -2.18439 -3.81026 0
M  V30 1744 H 165.754 -3.35397 -2.61513 0
M  V30 1745 N 164.069 0.697108 -1.41344 0
M  V30 1746 C 165.346 1.45154 -1.31109 0
M  V30 1747 C 165.726 2.11009 0.0620449 0
M  V30 1748 O 165.074 2.01571 1.07618 0
M  V30 1749 C 165.284 2.47223 -2.46337 0
M  V30 1750 C 166.632 3.1252 -2.87431 0
M  V30 1751 O 167.656 2.57547 -2.46065 0
M  V30 1752 O 166.515 4.12083 -3.58957 0
M  V30 1753 H 163.609 0.646365 -0.515889 0
M  V30 1754 H 166.155 0.727716 -1.53305 0
M  V30 1755 H 164.927 1.97204 -3.37974 0
M  V30 1756 H 164.55 3.27116 -2.2601 0
M  V30 1757 N 165.547 1.27147 0.931209 0
M  V30 1758 C 166.824 1.0401 1.65654 0
M  V30 1759 C 167.204 -0.426297 2.06751 0
M  V30 1760 O 166.552 -1.40879 1.79904 0
M  V30 1761 C 166.762 1.99834 2.86125 0
M  V30 1762 C 168.11 2.29007 3.57549 0
M  V30 1763 O 169.134 1.97779 2.96246 0
M  V30 1764 O 167.993 2.82222 4.67989 0
M  V30 1765 H 165.087 0.396239 0.725895 0
M  V30 1766 H 167.633 1.38397 0.982056 0
M  V30 1767 H 166.405 2.98744 2.52721 0
M  V30 1768 H 166.028 1.65987 3.61295 0
M  V30 1769 N 167.025 -1.13721 1.09112 0
M  V30 1770 C 167.955 -2.21148 0.749385 0
M  V30 1771 C 168.936 -1.6792 -0.271475 0
M  V30 1772 O 170.121 -1.93693 -0.140251 0
M  V30 1773 C 167.251 -3.46905 0.165659 0
M  V30 1774 C 166.205 -4.13203 1.11567 0
M  V30 1775 C 165.531 -5.33248 0.393809 0
M  V30 1776 C 166.831 -4.60912 2.45678 0
M  V30 1777 H 168.525 -2.4999 1.64758 0
M  V30 1778 H 166.071 -1.20156 0.793626 0
M  V30 1779 H 168.024 -4.21313 -0.085466 0
M  V30 1780 H 166.748 -3.17449 -0.767714 0
M  V30 1781 H 165.407 -3.40758 1.35202 0
M  V30 1782 H 165.055 -5.00054 -0.543599 0
M  V30 1783 H 164.755 -5.78552 1.02721 0
M  V30 1784 H 166.279 -6.10413 0.150908 0
M  V30 1785 H 167.693 -5.26759 2.26269 0
M  V30 1786 H 166.09 -5.16944 3.04776 0
M  V30 1787 H 167.16 -3.75603 3.06677 0
M  V30 1788 N 168.503 -0.877838 -1.30888 0
M  V30 1789 C 169.78 -0.413052 -1.91189 0
M  V30 1790 C 170.16 1.1056 -1.79832 0
M  V30 1791 O 169.508 1.93771 -1.21099 0
M  V30 1792 C 169.718 -0.903191 -3.3711 0
M  V30 1793 C 171.066 -0.93395 -4.14201 0
M  V30 1794 O 172.09 -0.849373 -3.45925 0
M  V30 1795 O 170.949 -1.05772 -5.36167 0
M  V30 1796 H 168.043 -0.125035 -0.817493 0
M  V30 1797 H 170.589 -0.966269 -1.39504 0
M  V30 1798 H 169.361 -1.94692 -3.39427 0
M  V30 1799 H 168.984 -0.328732 -3.96239 0
M  V30 1800 N 169.982 1.44106 -0.638065 0
M  V30 1801 C 170.932 2.27843 0.0847285 0
M  V30 1802 C 171.916 1.39055 0.809471 0
M  V30 1803 O 173.108 1.62808 0.694435 0
M  V30 1804 C 170.237 3.26497 1.06089 0
M  V30 1805 C 169.323 4.22772 0.33541 0
M  V30 1806 N 169.714 5.01737 -0.639787 0
M  V30 1807 C 168.012 4.42227 0.578921 0
M  V30 1808 C 168.713 5.71792 -1.06904 0
M  V30 1809 N 167.689 5.42079 -0.406395 0
M  V30 1810 H 171.491 2.86305 -0.663814 0
M  V30 1811 H 169.005 1.55627 -0.464122 0
M  V30 1812 H 171.002 3.8525 1.59337 0
M  V30 1813 H 169.662 2.69595 1.80966 0
M  V30 1814 H 170.673 5.07799 -1.01789 0
M  V30 1815 H 167.35 3.96415 1.31003 0
M  V30 1816 H 168.74 6.45205 -1.8751 0
M  V30 1817 N 171.46 0.379036 1.52974 0
M  V30 1818 C 172.708 -0.206014 2.01047 0
M  V30 1819 C 173.029 -1.48175 1.26765 0
M  V30 1820 O 172.299 -1.92085 0.384743 0
M  V30 1821 H 170.879 -0.0791184 0.742798 0
M  V30 1822 H 173.541 0.508366 1.88153 0
M  V30 1823 H 172.637 -0.423501 3.09213 0
M  V30 1824 N 172.938 -1.57226 0.108567 0
M  V30 1825 C 174.166 -1.99179 -0.559954 0
M  V30 1826 C 174.581 -0.988022 -1.60884 0
M  V30 1827 O 173.938 0.0205512 -1.82488 0
M  V30 1828 C 173.989 -3.41159 -1.19552 0
M  V30 1829 O 173.71 -4.37694 -0.188577 0
M  V30 1830 C 175.211 -3.98188 -1.94837 0
M  V30 1831 H 172.431 -0.654228 -0.149088 0
M  V30 1832 H 174.975 -2.03598 0.19183 0
M  V30 1833 H 173.13 -3.37711 -1.89815 0
M  V30 1834 H 173.544 -5.20469 -0.649014 0
M  V30 1835 H 175.018 -4.99644 -2.34648 0
M  V30 1836 H 175.495 -3.3675 -2.81951 0
M  V30 1837 H 176.101 -4.0515 -1.2936 0
M  V30 1838 N 174.416 0.165178 -1.56732 0
M  V30 1839 C 175.644 0.896218 -1.86482 0
M  V30 1840 C 176.059 1.75555 -0.694675 0
M  V30 1841 O 175.416 1.79379 0.33607 0
M  V30 1842 C 175.467 1.76792 -3.1532 0
M  V30 1843 O 175.188 0.943239 -4.27825 0
M  V30 1844 C 176.689 2.6081 -3.58459 0
M  V30 1845 H 173.909 0.260064 -0.618553 0
M  V30 1846 H 176.453 0.163428 -2.03846 0
M  V30 1847 H 174.608 2.45398 -2.99764 0
M  V30 1848 H 175.022 1.53998 -5.01383 0
M  V30 1849 H 176.496 3.17579 -4.51495 0
M  V30 1850 H 176.973 3.35977 -2.82872 0
M  V30 1851 H 177.579 1.97526 -3.76648 0
M  V30 1852 N 175.894 1.51508 0.433938 0
M  V30 1853 C 176.824 1.76016 1.53429 0
M  V30 1854 C 177.805 0.610112 1.58782 0
M  V30 1855 O 178.99 0.853177 1.74455 0
M  V30 1856 C 176.12 1.88831 2.9148 0
M  V30 1857 C 175.074 3.04288 3.00987 0
M  V30 1858 C 174.4 3.0229 4.4105 0
M  V30 1859 C 175.7 4.44193 2.74754 0
M  V30 1860 H 177.394 2.68152 1.33171 0
M  V30 1861 H 174.94 1.29035 0.639214 0
M  V30 1862 H 176.893 2.04559 3.6842 0
M  V30 1863 H 175.617 0.933455 3.12976 0
M  V30 1864 H 174.276 2.8827 2.26486 0
M  V30 1865 H 173.924 2.04576 4.59519 0
M  V30 1866 H 173.624 3.79822 4.4834 0
M  V30 1867 H 175.148 3.20116 5.1996 0
M  V30 1868 H 176.562 4.60544 3.41426 0
M  V30 1869 H 174.959 5.23457 2.9345 0
M  V30 1870 H 176.029 4.53996 1.70339 0
M  V30 1871 N 177.372 -0.689602 1.41712 0
M  V30 1872 C 178.597 -1.48329 1.44959 0
M  V30 1873 C 179.022 -1.8801 0.0581283 0
M  V30 1874 O 178.38 -1.55026 -0.940035 0
M  V30 1875 C 178.428 -2.71835 2.36935 0
M  V30 1876 O 177.532 -3.69549 1.8305 0
M  V30 1877 H 176.873 -0.446199 0.491734 0
M  V30 1878 H 179.403 -0.847127 1.86239 0
M  V30 1879 H 179.413 -3.20076 2.53013 0
M  V30 1880 H 178.088 -2.42291 3.38035 0
M  V30 1881 H 176.665 -3.2851 1.76452 0
M  V30 1882 N 178.85 -1.27639 -0.924453 0
M  V30 1883 C 179.782 -1.06442 -2.02985 0
M  V30 1884 C 180.795 -0.0194771 -1.62788 0
M  V30 1885 O 181.984 -0.261388 -1.76576 0
M  V30 1886 C 179.084 -0.59327 -3.33667 0
M  V30 1887 C 178.257 -1.71123 -4.02537 0
M  V30 1888 C 177.316 -1.23527 -5.11495 0
M  V30 1889 O 176.342 -1.93553 -5.35281 0
M  V30 1890 N 177.544 -0.0926678 -5.80426 0
M  V30 1891 H 180.309 -2.01633 -2.2173 0
M  V30 1892 H 177.87 -1.19248 -1.09505 0
M  V30 1893 H 179.862 -0.258686 -4.03872 0
M  V30 1894 H 178.432 0.265502 -3.1147 0
M  V30 1895 H 177.652 -2.21593 -3.26022 0
M  V30 1896 H 178.94 -2.46145 -4.45298 0
M  V30 1897 H 178.338 0.491741 -5.63559 0
M  V30 1898 H 176.895 0.182714 -6.51544 0
M  V30 1899 N 180.328 1.1314 -1.09713 0
M  V30 1900 C 181.556 1.88321 -0.856898 0
M  V30 1901 C 181.971 1.79276 0.592073 0
M  V30 1902 O 181.328 1.16142 1.40774 0
M  V30 1903 C 181.379 3.37812 -1.28706 0
M  V30 1904 O 181.1 3.46627 -2.67921 0
M  V30 1905 C 182.601 4.29952 -1.07964 0
M  V30 1906 H 179.821 0.596094 -0.308079 0
M  V30 1907 H 182.365 1.43205 -1.45988 0
M  V30 1908 H 180.52 3.805 -0.727912 0
M  V30 1909 H 180.934 4.39579 -2.8613 0
M  V30 1910 H 182.408 5.33159 -1.42986 0
M  V30 1911 H 182.885 4.39196 -0.0176577 0
M  V30 1912 H 183.491 3.93036 -1.62489 0
M  V30 1913 N 181.806 0.884767 1.30421 0
M  V30 1914 C 183.083 0.423185 1.90967 0
M  V30 1915 C 183.463 -1.09605 1.80416 0
M  V30 1916 O 182.811 -1.93126 1.22125 0
M  V30 1917 C 183.021 0.921056 3.36627 0
M  V30 1918 C 184.369 0.955903 4.137 0
M  V30 1919 O 185.393 0.867706 3.4547 0
M  V30 1920 O 184.252 1.08614 5.35598 0
M  V30 1921 H 181.346 0.129369 0.816819 0
M  V30 1922 H 183.892 0.973653 1.3899 0
M  V30 1923 H 182.664 1.96489 3.3839 0
M  V30 1924 H 182.287 0.349741 3.96059 0
M  V30 1925 N 183.284 -1.43765 0.645699 0
M  V30 1926 C 184.214 -2.33471 -0.0370477 0
M  V30 1927 C 185.195 -1.49042 -0.819779 0
M  V30 1928 O 186.38 -1.77726 -0.782758 0
M  V30 1929 C 183.51 -3.32311 -1.0093 0
M  V30 1930 C 182.464 -4.2667 -0.337201 0
M  V30 1931 C 181.79 -5.1549 -1.42037 0
M  V30 1932 C 183.09 -5.16657 0.765706 0
M  V30 1933 H 184.784 -2.90809 0.712069 0
M  V30 1934 H 182.33 -1.39834 0.343876 0
M  V30 1935 H 184.283 -3.9396 -1.49578 0
M  V30 1936 H 183.007 -2.73213 -1.78948 0
M  V30 1937 H 181.666 -3.66374 0.128771 0
M  V30 1938 H 181.314 -4.52735 -2.1918 0
M  V30 1939 H 181.014 -5.79438 -0.975966 0
M  V30 1940 H 182.538 -5.80012 -1.90838 0
M  V30 1941 H 183.952 -5.72158 0.361702 0
M  V30 1942 H 182.349 -5.89286 1.13413 0
M  V30 1943 H 183.419 -4.56796 1.62683 0
M  V30 1944 N 184.763 -0.387143 -1.52771 0
M  V30 1945 C 185.993 0.195585 -2.05672 0
M  V30 1946 C 186.401 1.41241 -1.25887 0
M  V30 1947 O 185.744 1.81265 -0.298081 0
M  V30 1948 C 185.806 0.632327 -3.53895 0
M  V30 1949 C 185.47 -0.470739 -4.54569 0
M  V30 1950 C 186.467 -1.32746 -5.02667 0
M  V30 1951 C 184.152 -0.637151 -4.98243 0
M  V30 1952 C 186.146 -2.33574 -5.93061 0
M  V30 1953 C 183.833 -1.64877 -5.88438 0
M  V30 1954 C 184.831 -2.49649 -6.35739 0
M  V30 1955 O 184.519 -3.49082 -7.24153 0
M  V30 1956 H 184.251 0.033658 -0.675162 0
M  V30 1957 H 186.805 -0.550221 -1.97893 0
M  V30 1958 H 185.035 1.43008 -3.59285 0
M  V30 1959 H 186.724 1.14048 -3.89548 0
M  V30 1960 H 187.49 -1.21019 -4.69659 0
M  V30 1961 H 183.369 0.0129567 -4.60998 0
M  V30 1962 H 186.913 -2.99777 -6.29904 0
M  V30 1963 H 182.81 -1.76643 -6.2086 0
M  V30 1964 H 183.578 -3.45065 -7.42208 0
M  V30 1965 N 186.241 1.57166 -0.116904 0
M  V30 1966 C 187.487 1.95412 0.542405 0
M  V30 1967 C 187.82 1.00019 1.66463 0
M  V30 1968 O 187.095 0.0370346 1.94465 0
M  V30 1969 C 187.378 3.43615 1.07708 0
M  V30 1970 C 187.231 4.49781 -0.0415868 0
M  V30 1971 C 188.55 3.93616 1.96861 0
M  V30 1972 H 185.669 0.710543 0.195696 0
M  V30 1973 H 188.311 1.89027 -0.192038 0
M  V30 1974 H 186.461 3.49187 1.70296 0
M  V30 1975 H 188.133 4.56308 -0.676793 0
M  V30 1976 H 186.376 4.28033 -0.705019 0
M  V30 1977 H 187.047 5.50733 0.373717 0
M  V30 1978 H 189.523 3.90335 1.44146 0
M  V30 1979 H 188.399 4.97838 2.3119 0
M  V30 1980 H 188.66 3.34188 2.89432 0
M  V30 1981 N 187.719 -0.156864 1.56817 0
M  V30 1982 C 188.669 -1.19891 1.93934 0
M  V30 1983 C 189.653 -1.39061 0.809372 0
M  V30 1984 O 190.845 -1.40789 1.07273 0
M  V30 1985 C 187.974 -2.53493 2.31508 0
M  V30 1986 C 187.06 -2.37957 3.51052 0
M  V30 1987 N 187.451 -1.92158 4.67877 0
M  V30 1988 C 185.749 -2.68739 3.55943 0
M  V30 1989 C 186.45 -1.8943 5.49992 0
M  V30 1990 N 185.426 -2.32375 4.91429 0
M  V30 1991 H 189.228 -0.836746 2.81737 0
M  V30 1992 H 186.742 -0.365012 1.58245 0
M  V30 1993 H 188.739 -3.28811 2.56299 0
M  V30 1994 H 187.399 -2.905 1.45051 0
M  V30 1995 H 188.41 -1.62274 4.91821 0
M  V30 1996 H 185.087 -3.09687 2.80001 0
M  V30 1997 H 186.477 -1.55596 6.53636 0
M  V30 1998 N 189.197 -1.51736 -0.425897 0
M  V30 1999 C 190.425 -1.68794 -1.1965 0
M  V30 2000 C 190.84 -0.390164 -1.84725 0
M  V30 2001 O 190.197 0.632376 -1.71194 0
M  V30 2002 C 190.248 -2.81174 -2.27208 0
M  V30 2003 O 189.969 -4.05925 -1.64793 0
M  V30 2004 C 191.47 -3.09599 -3.17275 0
M  V30 2005 H 188.69 -0.566128 -0.360194 0
M  V30 2006 H 191.234 -1.98211 -0.503249 0
M  V30 2007 H 189.389 -2.54324 -2.9223 0
M  V30 2008 H 189.803 -4.68423 -2.35967 0
M  V30 2009 H 191.277 -3.91786 -3.88854 0
M  V30 2010 H 191.754 -2.22468 -3.78688 0
M  V30 2011 H 192.36 -3.38151 -2.57941 0
M  V30 2012 N 190.675 0.682077 -1.42076 0
M  V30 2013 C 191.922 1.44215 -1.42156 0
M  V30 2014 C 192.25 1.94468 -0.0354186 0
M  V30 2015 O 191.505 1.70816 0.955002 0
M  V30 2016 C 191.804 2.66036 -2.38662 0
M  V30 2017 C 191.47 2.34366 -3.85206 0
M  V30 2018 C 190.132 2.25439 -4.25124 0
M  V30 2019 C 192.484 2.08513 -4.77673 0
M  V30 2020 C 189.812 1.88775 -5.55501 0
M  V30 2021 C 192.164 1.73354 -6.08384 0
M  V30 2022 C 190.828 1.62933 -6.47309 0
M  V30 2023 H 190.098 0.527718 -0.520187 0
M  V30 2024 H 192.745 0.778387 -1.74967 0
M  V30 2025 H 191.05 3.3741 -1.99152 0
M  V30 2026 H 192.747 3.24205 -2.35991 0
M  V30 2027 H 189.337 2.42213 -3.53597 0
M  V30 2028 H 193.521 2.14346 -4.47626 0
M  V30 2029 H 188.777 1.7927 -5.84527 0
M  V30 2030 H 192.951 1.52373 -6.79526 0
M  V30 2031 H 190.578 1.34292 -7.48244 0
M  V30 2032 N 192.153 1.28127 0.917671 0
M  V30 2033 C 193.43 1.05761 1.64542 0
M  V30 2034 C 193.81 -0.404344 2.07191 0
M  V30 2035 O 193.158 -1.38963 1.81388 0
M  V30 2036 C 193.368 2.02857 2.83989 0
M  V30 2037 C 194.716 2.32786 3.551 0
M  V30 2038 O 195.74 2.0091 2.94132 0
M  V30 2039 O 194.599 2.87169 4.64969 0
M  V30 2040 H 191.693 0.403916 0.721652 0
M  V30 2041 H 194.239 1.39431 0.967322 0
M  V30 2042 H 193.011 3.01407 2.49538 0
M  V30 2043 H 192.634 1.69809 3.59514 0
M  V30 2044 N 193.631 -1.12557 1.10312 0
M  V30 2045 C 194.578 -2.18247 0.750781 0
M  V30 2046 C 195.548 -1.63853 -0.272293 0
M  V30 2047 O 196.733 -1.90195 -0.151862 0
M  V30 2048 C 193.873 -3.44591 0.187379 0
M  V30 2049 C 192.986 -4.13046 1.2656 0
M  V30 2050 C 192.121 -5.27034 0.663978 0
M  V30 2051 C 191.16 -5.87353 1.72287 0
M  V30 2052 N 190.297 -6.92757 1.1416 0
M  V30 2053 H 195.137 -2.47732 1.65628 0
M  V30 2054 H 192.674 -1.21629 0.827337 0
M  V30 2055 H 194.632 -4.16904 -0.157148 0
M  V30 2056 H 193.262 -3.15527 -0.681355 0
M  V30 2057 H 192.314 -3.38924 1.72727 0
M  V30 2058 H 193.626 -4.53947 2.06721 0
M  V30 2059 H 192.78 -6.06104 0.268824 0
M  V30 2060 H 191.519 -4.87407 -0.169082 0
M  V30 2061 H 190.524 -5.06971 2.12746 0
M  V30 2062 H 191.749 -6.29051 2.55875 0
M  V30 2063 H 189.695 -6.5517 0.329984 0
M  V30 2064 H 189.612 -7.3225 1.88007 0
M  V30 2065 H 190.88 -7.75658 0.772956 0
M  V30 2066 N 195.109 -0.891671 -1.2995 0
M  V30 2067 C 196.355 -0.514261 -1.96171 0
M  V30 2068 C 196.688 0.935506 -1.70182 0
M  V30 2069 O 195.963 1.66204 -1.01028 0
M  V30 2070 C 196.246 -0.797719 -3.51153 0
M  V30 2071 C 196.099 -2.2986 -3.86632 0
M  V30 2072 C 197.418 -0.278749 -4.39216 0
M  V30 2073 H 194.537 -0.188314 -0.712535 0
M  V30 2074 H 197.179 -1.11689 -1.53706 0
M  V30 2075 H 195.329 -0.284826 -3.87455 0
M  V30 2076 H 197.001 -2.88042 -3.60319 0
M  V30 2077 H 195.244 -2.76257 -3.34462 0
M  V30 2078 H 195.915 -2.44753 -4.94773 0
M  V30 2079 H 198.391 -0.717825 -4.09862 0
M  V30 2080 H 197.267 -0.506353 -5.46559 0
M  V30 2081 H 197.528 0.820266 -4.34424 0
M  V30 2082 N 196.587 1.43421 -0.653314 0
M  V30 2083 C 197.55 2.29182 0.0287951 0
M  V30 2084 C 198.55 1.42213 0.750465 0
M  V30 2085 O 199.74 1.63843 0.591701 0
M  V30 2086 C 196.872 3.24278 1.05151 0
M  V30 2087 H 198.065 2.90985 -0.725786 0
M  V30 2088 H 195.618 1.50702 -0.414545 0
M  V30 2089 H 196.353 2.6737 1.83532 0
M  V30 2090 H 196.138 3.88396 0.537687 0
M  V30 2091 H 197.628 3.88647 1.52786 0
M  V30 2092 N 198.065 0.39524 1.52563 0
M  V30 2093 C 199.29 -0.187456 2.06551 0
M  V30 2094 C 199.715 -1.39249 1.26457 0
M  V30 2095 O 199.073 -1.78947 0.291151 0
M  V30 2096 C 199.121 -0.529985 3.56684 0
M  V30 2097 O 198.225 -1.62307 3.79118 0
M  V30 2098 H 197.566 -0.0202537 0.663691 0
M  V30 2099 H 200.096 0.564426 1.96661 0
M  V30 2100 H 200.106 -0.792598 4.00227 0
M  V30 2101 H 198.781 0.350987 4.14416 0
M  V30 2102 H 197.358 -1.3537 3.47461 0
M  V30 2103 N 199.544 -1.57102 0.125237 0
M  V30 2104 C 200.793 -1.94582 -0.531095 0
M  V30 2105 C 201.106 -1.01126 -1.6743 0
M  V30 2106 O 202.312 -1.28097 -2.39381 0
M  V30 2107 C 200.768 -3.45839 -0.996164 0
M  V30 2108 C 200.376 -4.47842 0.118926 0
M  V30 2109 C 202.12 -3.92227 -1.62352 0
M  V30 2110 C 200.027 -5.90284 -0.363192 0
M  V30 2111 H 198.957 -0.726391 -0.20217 0
M  V30 2112 H 201.608 -1.82339 0.206092 0
M  V30 2113 H 199.99 -3.53338 -1.78796 0
M  V30 2114 H 201.164 -4.52018 0.895358 0
M  V30 2115 H 199.479 -4.11243 0.653324 0
M  V30 2116 H 202.076 -4.96069 -1.99548 0
M  V30 2117 H 202.419 -3.32552 -2.50429 0
M  V30 2118 H 202.952 -3.87554 -0.897019 0
M  V30 2119 H 199.691 -6.53728 0.481679 0
M  V30 2120 H 199.211 -5.89515 -1.10597 0
M  V30 2121 H 200.89 -6.41752 -0.822377 0
M  V30 2122 N 201.022 0.148545 -1.56898 0
M  V30 2123 C 201.954 1.20852 -1.9475 0
M  V30 2124 C 202.967 1.39265 -0.843152 0
M  V30 2125 O 204.156 1.38864 -1.12156 0
M  V30 2126 C 201.256 2.57362 -2.20495 0
M  V30 2127 C 200.429 2.59947 -3.51776 0
M  V30 2128 C 199.488 3.77984 -3.6608 0
M  V30 2129 O 198.514 3.62929 -4.38487 0
M  V30 2130 N 199.716 4.95375 -3.02629 0
M  V30 2131 H 202.481 0.886804 -2.86279 0
M  V30 2132 H 200.042 0.338121 -1.5833 0
M  V30 2133 H 202.034 3.34833 -2.27307 0
M  V30 2134 H 200.604 2.81832 -1.35238 0
M  V30 2135 H 199.824 1.68403 -3.56419 0
M  V30 2136 H 201.112 2.58704 -4.38121 0
M  V30 2137 H 200.51 5.10509 -2.43715 0
M  V30 2138 H 199.067 5.70627 -3.15004 0
M  V30 2139 N 202.5 1.5196 0.417844 0
M  V30 2140 C 203.448 1.75278 1.52907 0
M  V30 2141 C 204.442 0.619611 1.57662 0
M  V30 2142 O 205.648 0.801457 1.61173 0
M  V30 2143 H 202.023 0.554141 0.508362 0
M  V30 2144 H 203.994 2.68389 1.30422 0
M  V30 2145 C 202.743 1.91262 2.90369 0
M  V30 2146 H 202.066 2.77872 2.8745 0
M  V30 2147 H 203.506 2.11581 3.67436 0
M  V30 2148 C 201.965 0.677431 3.30019 0
M  V30 2149 O 202.495 -0.158799 4.01386 0
M  V30 2150 N 200.701 0.515851 2.85985 0
M  V30 2151 H 200.248 1.19744 2.28077 0
M  V30 2152 H 200.206 -0.309315 3.12875 0
M  V30 2153 N 203.978 -0.674533 1.42435 0
M  V30 2154 C 204.908 -1.80009 1.48724 0
M  V30 2155 C 205.889 -1.6659 0.343793 0
M  V30 2156 O 207.074 -1.86007 0.558137 0
M  V30 2157 C 204.204 -3.18306 1.38919 0
M  V30 2158 C 203.158 -3.46461 2.51294 0
M  V30 2159 C 202.484 -4.84335 2.26547 0
M  V30 2160 C 203.784 -3.43328 3.93603 0
M  V30 2161 H 205.478 -1.75004 2.42928 0
M  V30 2162 H 203.024 -0.840533 1.16923 0
M  V30 2163 H 204.977 -3.9678 1.41927 0
M  V30 2164 H 203.701 -3.2399 0.412094 0
M  V30 2165 H 202.36 -2.70348 2.47604 0
M  V30 2166 H 202.008 -4.86669 1.2713 0
M  V30 2167 H 201.708 -5.04136 3.01861 0
M  V30 2168 H 203.232 -5.65094 2.31304 0
M  V30 2169 H 204.646 -4.11772 3.98894 0
M  V30 2170 H 203.043 -3.74664 4.68771 0
M  V30 2171 H 204.113 -2.41897 4.20255 0
M  V30 2172 N 205.456 -1.28612 -0.910864 0
M  V30 2173 C 206.872 -1.06381 -1.18976 0
M  V30 2174 C 207.072 0.191998 -2.00583 0
M  V30 2175 O 206.128 0.892869 -2.36187 0
M  V30 2176 C 207.441 -2.31295 -1.92154 0
M  V30 2177 C 208.989 -2.36503 -2.05025 0
M  V30 2178 C 209.464 -3.61191 -2.81612 0
M  V30 2179 N 210.955 -3.61847 -2.89172 0
M  V30 2180 C 211.69 -4.55004 -3.4894 0
M  V30 2181 N 211.186 -5.58482 -4.09963 0
M  V30 2182 N 212.979 -4.42594 -3.46506 0
M  V30 2183 H 205.13 -2.09221 -0.366094 0
M  V30 2184 H 207.393 -0.921003 -0.224629 0
M  V30 2185 H 207.099 -3.228 -1.39618 0
M  V30 2186 H 206.973 -2.37934 -2.9269 0
M  V30 2187 H 209.36 -1.45494 -2.5674 0
M  V30 2188 H 209.441 -2.33857 -1.03657 0
M  V30 2189 H 209.085 -4.52545 -2.30576 0
M  V30 2190 H 209.015 -3.61092 -3.83302 0
M  V30 2191 H 211.506 -2.87022 -2.45819 0
M  V30 2192 H 211.819 -6.25704 -4.53557 0
M  V30 2193 H 210.164 -5.62305 -4.08459 0
M  V30 2194 H 213.355 -3.60953 -2.98045 0
M  V30 2195 H 213.528 -5.15381 -3.92793 0
M  V30 2196 N 206.934 1.1197 -1.10907 0
M  V30 2197 C 207.844 2.21433 -0.774896 0
M  V30 2198 C 208.86 1.72478 0.229657 0
M  V30 2199 O 210.036 2.01288 0.0672008 0
M  V30 2200 C 207.101 3.4602 -0.216986 0
M  V30 2201 C 206.162 4.09791 -1.27944 0
M  V30 2202 C 205.395 5.28431 -0.748055 0
M  V30 2203 O 205.618 5.68823 0.423833 0
M  V30 2204 O 204.552 5.82644 -1.51027 0
M  V30 2205 H 208.378 2.5242 -1.68873 0
M  V30 2206 H 205.963 1.20399 -0.884555 0
M  V30 2207 H 207.845 4.21304 0.090059 0
M  V30 2208 H 206.52 3.16698 0.669633 0
M  V30 2209 H 205.427 3.36265 -1.63941 0
M  V30 2210 H 206.76 4.4328 -2.13925 0
M  V30 2211 N 208.412 0.89855 1.29475 0
M  V30 2212 C 209.362 0.346767 2.25348 0
M  V30 2213 C 210.346 -0.532509 1.51833 0
M  V30 2214 O 211.538 -0.374714 1.72988 0
M  V30 2215 C 208.667 -0.425681 3.40651 0
M  V30 2216 C 207.753 0.46845 4.21505 0
M  V30 2217 N 208.144 1.57514 4.80648 0
M  V30 2218 C 206.442 0.26603 4.45206 0
M  V30 2219 C 207.143 2.12889 5.41344 0
M  V30 2220 N 206.119 1.42208 5.24669 0
M  V30 2221 H 209.921 1.19219 2.68634 0
M  V30 2222 H 207.435 0.749473 1.44072 0
M  V30 2223 H 209.432 -0.837716 4.08397 0
M  V30 2224 H 208.092 -1.26838 2.98902 0
M  V30 2225 H 209.103 1.95789 4.79465 0
M  V30 2226 H 205.78 -0.538394 4.14014 0
M  V30 2227 H 207.17 3.05901 5.98226 0
M  V30 2228 N 209.89 -1.43072 0.660911 0
M  V30 2229 C 211.301 -1.84932 0.256348 0
M  V30 2230 C 211.652 -1.55325 -1.19868 0
M  V30 2231 O 210.777 -1.00607 -1.91591 0
M  V30 2232 C 211.372 -3.35684 0.458475 0
M  V30 2233 C 209.931 -3.76245 0.108161 0
M  V30 2234 C 209.078 -2.66749 0.757641 0
M  V30 2235 H 212.029 -1.33116 0.864051 0
M  V30 2236 H 212.05 -3.79365 -0.293683 0
M  V30 2237 H 211.562 -3.572 1.51755 0
M  V30 2238 H 209.663 -3.60338 -0.948014 0
M  V30 2239 H 209.776 -4.76058 0.538992 0
M  V30 2240 H 208.14 -2.53989 0.190185 0
M  V30 2241 H 208.923 -2.91092 1.81989 0
M  V30 2242 N 211.368 -0.403325 -1.52352 0
M  V30 2243 C 212.598 0.17376 -2.05868 0
M  V30 2244 C 213.006 1.39898 -1.27378 0
M  V30 2245 O 212.349 1.80939 -0.31729 0
M  V30 2246 C 212.411 0.594756 -3.54546 0
M  V30 2247 C 212.075 -0.518926 -4.54044 0
M  V30 2248 C 213.072 -1.3807 -5.01231 0
M  V30 2249 C 210.757 -0.689961 -4.97539 0
M  V30 2250 C 212.751 -2.39852 -5.90551 0
M  V30 2251 C 210.438 -1.71109 -5.86656 0
M  V30 2252 C 211.436 -2.56378 -6.33056 0
M  V30 2253 O 211.124 -3.56743 -7.20409 0
M  V30 2254 H 210.856 0.0264951 -0.675481 0
M  V30 2255 H 213.41 -0.571179 -1.97299 0
M  V30 2256 H 211.64 1.39189 -3.60782 0
M  V30 2257 H 213.329 1.0991 -3.90736 0
M  V30 2258 H 214.095 -1.25994 -4.68349 0
M  V30 2259 H 209.974 -0.035939 -4.60986 0
M  V30 2260 H 213.518 -3.06441 -6.26689 0
M  V30 2261 H 209.415 -1.83218 -6.18952 0
M  V30 2262 H 210.183 -3.52918 -7.38506 0
M  V30 2263 N 212.846 1.57033 -0.133567 0
M  V30 2264 C 213.756 2.19632 0.824564 0
M  V30 2265 C 214.772 1.17666 1.28182 0
M  V30 2266 O 215.948 1.50193 1.3418 0
M  V30 2267 C 213.013 2.79499 2.05137 0
M  V30 2268 C 212.074 3.96548 1.64464 0
M  V30 2269 C 211.307 4.5355 2.81297 0
M  V30 2270 O 211.53 4.09438 3.97136 0
M  V30 2271 O 210.464 5.44018 2.57542 0
M  V30 2272 H 214.29 3.01991 0.321766 0
M  V30 2273 H 211.875 1.49112 0.0927889 0
M  V30 2274 H 213.757 3.17602 2.7696 0
M  V30 2275 H 212.432 2.00162 2.54395 0
M  V30 2276 H 211.339 3.63186 0.897048 0
M  V30 2277 H 212.672 4.77364 1.19934 0
M  V30 2278 N 214.325 -0.140222 1.56975 0
M  V30 2279 C 215.572 -0.851687 1.83719 0
M  V30 2280 C 215.9 -1.80862 0.715485 0
M  V30 2281 O 215.155 -1.93464 -0.294956 0
M  V30 2282 C 215.454 -1.65386 3.16832 0
M  V30 2283 C 215.12 -0.843112 4.42947 0
M  V30 2284 C 213.782 -0.619464 4.77196 0
M  V30 2285 C 216.134 -0.276582 5.20466 0
M  V30 2286 C 213.462 0.181312 5.8642 0
M  V30 2287 C 215.814 0.51127 6.30531 0
M  V30 2288 C 214.478 0.745432 6.63325 0
M  V30 2289 H 213.748 -0.311654 0.672274 0
M  V30 2290 H 216.395 -0.115006 1.91154 0
M  V30 2291 H 214.7 -2.46084 3.04877 0
M  V30 2292 H 216.397 -2.20793 3.34741 0
M  V30 2293 H 212.987 -1.0275 4.16101 0
M  V30 2294 H 217.171 -0.436632 4.94376 0
M  V30 2295 H 212.427 0.372165 6.10266 0
M  V30 2296 H 216.601 0.957354 6.89788 0
M  V30 2297 H 214.228 1.36778 7.47794 0
M  V30 2298 N 215.803 -1.52179 -0.40978 0
M  V30 2299 C 217.033 -1.69807 -1.17682 0
M  V30 2300 C 217.441 -0.406908 -1.84773 0
M  V30 2301 O 216.784 0.626863 -1.72673 0
M  V30 2302 C 216.846 -2.77712 -2.2829 0
M  V30 2303 C 216.51 -4.19481 -1.81341 0
M  V30 2304 C 217.507 -5.03345 -1.30154 0
M  V30 2305 C 215.192 -4.65713 -1.88194 0
M  V30 2306 C 217.186 -6.31511 -0.864416 0
M  V30 2307 C 214.873 -5.93869 -1.44093 0
M  V30 2308 C 215.871 -6.76597 -0.933023 0
M  V30 2309 O 215.559 -8.02354 -0.49838 0
M  V30 2310 H 215.291 -0.572372 -0.359675 0
M  V30 2311 H 217.845 -1.99511 -0.488311 0
M  V30 2312 H 216.075 -2.43383 -3.00502 0
M  V30 2313 H 217.764 -2.83946 -2.90051 0
M  V30 2314 H 218.53 -4.68819 -1.24232 0
M  V30 2315 H 214.409 -4.01424 -2.26671 0
M  V30 2316 H 217.953 -6.96033 -0.467286 0
M  V30 2317 H 213.85 -6.27903 -1.49694 0
M  V30 2318 H 214.618 -8.16135 -0.621747 0
M  V30 2319 N 217.281 0.66697 -1.42791 0
M  V30 2320 C 218.191 1.80962 -1.49299 0
M  V30 2321 C 219.207 1.69775 -0.381108 0
M  V30 2322 O 220.383 1.91188 -0.633188 0
M  V30 2323 C 217.448 3.17156 -1.40045 0
M  V30 2324 C 216.509 3.40242 -2.6179 0
M  V30 2325 C 215.742 4.69939 -2.52969 0
M  V30 2326 O 215.965 5.48372 -1.56985 0
M  V30 2327 O 214.899 4.94441 -3.43237 0
M  V30 2328 H 218.725 1.78427 -2.45759 0
M  V30 2329 H 216.31 0.823713 -1.24641 0
M  V30 2330 H 218.192 3.98413 -1.37276 0
M  V30 2331 H 216.867 3.20312 -0.467138 0
M  V30 2332 H 215.774 2.58802 -2.70134 0
M  V30 2333 H 217.107 3.41923 -3.54047 0
M  V30 2334 N 218.759 1.29093 0.90403 0
M  V30 2335 C 219.706 1.13853 2.00764 0
M  V30 2336 C 220.676 0.0330084 1.66067 0
M  V30 2337 O 221.861 0.199733 1.89752 0
M  V30 2338 C 219.001 0.816537 3.35301 0
M  V30 2339 C 218.114 2.00206 3.82807 0
M  V30 2340 C 217.249 1.61983 5.059 0
M  V30 2341 C 216.288 2.77143 5.45764 0
M  V30 2342 N 215.425 2.39346 6.60044 0
M  V30 2343 H 220.265 2.08276 2.13132 0
M  V30 2344 H 217.802 1.03648 1.04381 0
M  V30 2345 H 219.76 0.610557 4.12708 0
M  V30 2346 H 218.39 -0.090779 3.22672 0
M  V30 2347 H 217.442 2.31988 3.01473 0
M  V30 2348 H 218.754 2.86512 4.08304 0
M  V30 2349 H 217.908 1.37649 5.90879 0
M  V30 2350 H 216.647 0.728202 4.82233 0
M  V30 2351 H 215.652 3.02165 4.59322 0
M  V30 2352 H 216.877 3.66964 5.71414 0
M  V30 2353 H 214.823 1.52665 6.37989 0
M  V30 2354 H 214.74 3.19185 6.85315 0
M  V30 2355 H 216.008 2.1832 7.48303 0
M  V30 2356 N 220.237 -1.11381 1.11499 0
M  V30 2357 C 221.167 -2.19509 0.796125 0
M  V30 2358 C 222.148 -1.68458 -0.235796 0
M  V30 2359 O 223.333 -1.93947 -0.0991344 0
M  V30 2360 C 220.463 -3.46475 0.239205 0
M  V30 2361 C 219.417 -4.10744 1.20307 0
M  V30 2362 C 218.743 -5.32293 0.50683 0
M  V30 2363 C 220.043 -4.55597 2.55399 0
M  V30 2364 H 221.737 -2.46439 1.70024 0
M  V30 2365 H 219.283 -1.18446 0.818935 0
M  V30 2366 H 221.236 -4.214 0.00392006 0
M  V30 2367 H 219.96 -3.19006 -0.700206 0
M  V30 2368 H 218.619 -3.37813 1.42399 0
M  V30 2369 H 218.267 -5.01095 -0.437408 0
M  V30 2370 H 217.967 -5.76243 1.1497 0
M  V30 2371 H 219.491 -6.09956 0.280351 0
M  V30 2372 H 220.905 -5.21841 2.37391 0
M  V30 2373 H 219.302 -5.10363 3.15673 0
M  V30 2374 H 220.372 -3.69013 3.14575 0
M  V30 2375 N 221.715 -0.905404 -1.28997 0
M  V30 2376 C 222.963 -0.533192 -1.9494 0
M  V30 2377 C 223.284 0.924618 -1.71685 0
M  V30 2378 O 222.554 1.65268 -1.05183 0
M  V30 2379 H 221.134 -0.194194 -0.721317 0
M  V30 2380 H 223.796 -1.15294 -1.57141 0
M  V30 2381 H 222.892 -0.72059 -3.03667 0
M  V30 2382 N 223.193 1.4272 -0.668489 0
M  V30 2383 C 224.423 2.05668 -0.196063 0
M  V30 2384 C 224.831 1.5028 1.14946 0
M  V30 2385 O 224.174 0.6348 1.72383 0
M  V30 2386 C 224.236 3.59469 -0.0468879 0
M  V30 2387 C 223.9 4.37518 -1.32012 0
M  V30 2388 C 224.897 4.68584 -2.25222 0
M  V30 2389 C 222.582 4.77266 -1.56596 0
M  V30 2390 C 224.576 5.38326 -3.41297 0
M  V30 2391 C 222.263 5.4675 -2.72962 0
M  V30 2392 C 223.261 5.77204 -3.65137 0
M  V30 2393 O 222.949 6.45264 -4.79468 0
M  V30 2394 H 222.681 0.669382 -0.0943599 0
M  V30 2395 H 225.235 1.83954 -0.913788 0
M  V30 2396 H 223.465 3.79817 0.726357 0
M  V30 2397 H 225.154 4.04071 0.384852 0
M  V30 2398 H 225.92 4.38382 -2.07477 0
M  V30 2399 H 221.799 4.52959 -0.857249 0
M  V30 2400 H 225.343 5.62014 -4.13263 0
M  V30 2401 H 221.24 5.76369 -2.90635 0
M  V30 2402 H 222.008 6.63753 -4.78931 0
M  V30 2403 N 224.671 0.411399 1.52136 0
M  V30 2404 C 225.618 -0.412975 2.27075 0
M  V30 2405 C 226.588 -1.03912 1.29582 0
M  V30 2406 O 227.773 -1.06296 1.58448 0
M  V30 2407 C 224.913 -1.52247 3.09701 0
M  V30 2408 C 224.026 -0.917021 4.22155 0
M  V30 2409 C 223.161 -1.9994 4.92135 0
M  V30 2410 C 222.2 -1.37101 5.96548 0
M  V30 2411 N 221.337 -2.39364 6.60038 0
M  V30 2412 H 226.177 0.232499 2.97092 0
M  V30 2413 H 223.714 0.126496 1.46555 0
M  V30 2414 H 225.672 -2.17674 3.55913 0
M  V30 2415 H 224.302 -2.13794 2.41851 0
M  V30 2416 H 223.354 -0.151742 3.80097 0
M  V30 2417 H 224.666 -0.418006 4.97045 0
M  V30 2418 H 223.82 -2.73088 5.41763 0
M  V30 2419 H 222.559 -2.53208 4.16818 0
M  V30 2420 H 221.564 -0.624873 5.46237 0
M  V30 2421 H 222.789 -0.845998 6.7381 0
M  V30 2422 H 220.735 -2.91759 5.87548 0
M  V30 2423 H 220.652 -1.9428 7.3061 0
M  V30 2424 H 221.92 -3.12074 7.14304 0
M  V30 2425 N 226.149 -1.5696 0.141893 0
M  V30 2426 C 227.398 -1.95135 -0.510427 0
M  V30 2427 C 227.711 -1.02896 -1.66348 0
M  V30 2428 O 228.917 -1.30629 -2.38009 0
M  V30 2429 C 227.373 -3.46876 -0.959427 0
M  V30 2430 C 226.981 -4.47691 0.166419 0
M  V30 2431 C 228.725 -3.93927 -1.58183 0
M  V30 2432 C 226.632 -5.90636 -0.300565 0
M  V30 2433 H 225.562 -0.728494 -0.194454 0
M  V30 2434 H 228.213 -1.8211 0.22542 0
M  V30 2435 H 226.595 -3.55215 -1.75038 0
M  V30 2436 H 227.769 -4.51043 0.94325 0
M  V30 2437 H 226.084 -4.10527 0.696905 0
M  V30 2438 H 228.681 -4.98158 -1.94275 0
M  V30 2439 H 229.024 -3.3519 -2.46888 0
M  V30 2440 H 229.557 -3.88484 -0.855863 0
M  V30 2441 H 226.296 -6.5318 0.550989 0
M  V30 2442 H 225.816 -5.90655 -1.04338 0
M  V30 2443 H 227.495 -6.42588 -0.754265 0
M  V30 2444 N 227.627 0.131896 -1.57047 0
M  V30 2445 C 228.873 0.843179 -1.84441 0
M  V30 2446 C 229.206 1.80129 -0.725749 0
M  V30 2447 O 228.481 1.92624 0.269469 0
M  V30 2448 C 228.764 1.60442 -3.22382 0
M  V30 2449 C 228.617 0.666782 -4.4483 0
M  V30 2450 C 229.936 2.56354 -3.5773 0
M  V30 2451 H 227.055 0.305081 -0.670891 0
M  V30 2452 H 229.697 0.107839 -1.89694 0
M  V30 2453 H 227.847 2.23128 -3.18035 0
M  V30 2454 H 229.519 0.0497646 -4.61273 0
M  V30 2455 H 227.762 -0.022609 -4.33794 0
M  V30 2456 H 228.433 1.23579 -5.37989 0
M  V30 2457 H 230.909 2.0378 -3.62785 0
M  V30 2458 H 229.785 3.06657 -4.5525 0
M  V30 2459 H 230.046 3.38419 -2.84473 0
M  V30 2460 N 229.106 1.52395 0.401703 0
M  V30 2461 C 230.354 1.66488 1.14569 0
M  V30 2462 C 230.675 0.400897 1.90835 0
M  V30 2463 O 229.945 -0.584415 1.8698 0
M  V30 2464 H 228.525 0.613672 0.425929 0
M  V30 2465 H 231.187 1.89464 0.457093 0
M  V30 2466 H 230.283 2.50942 1.85566 0
M  V30 2467 N 230.584 -0.659388 1.43143 0
M  V30 2468 C 231.83 -1.42145 1.44647 0
M  V30 2469 C 232.163 -1.9408 0.0681907 0
M  V30 2470 O 231.438 -1.71899 -0.910007 0
M  V30 2471 C 231.721 -2.60735 2.48373 0
M  V30 2472 C 231.574 -2.14332 3.95451 0
M  V30 2473 C 232.893 -3.62951 2.48906 0
M  V30 2474 H 230.012 -0.51552 0.526696 0
M  V30 2475 H 232.654 -0.748069 1.74654 0
M  V30 2476 H 230.804 -3.18184 2.22916 0
M  V30 2477 H 232.476 -1.61932 4.31944 0
M  V30 2478 H 230.719 -1.4576 4.08578 0
M  V30 2479 H 231.39 -2.99583 4.63631 0
M  V30 2480 H 233.866 -3.1525 2.71582 0
M  V30 2481 H 232.742 -4.43487 3.23435 0
M  V30 2482 H 233.003 -4.15126 1.52061 0
M  V30 2483 N 232.062 -1.29571 -0.897171 0
M  V30 2484 C 232.992 -1.17473 -2.01798 0
M  V30 2485 C 233.973 -0.068323 -1.69963 0
M  V30 2486 O 235.158 -0.248239 -1.92607 0
M  V30 2487 C 232.288 -0.853099 -3.36659 0
M  V30 2488 C 231.242 -1.9161 -3.82713 0
M  V30 2489 C 230.568 -1.44773 -5.14728 0
M  V30 2490 C 231.868 -3.32535 -4.02763 0
M  V30 2491 H 233.562 -2.11237 -2.12177 0
M  V30 2492 H 231.108 -1.01699 -1.01948 0
M  V30 2493 H 233.061 -0.755165 -4.14578 0
M  V30 2494 H 231.785 0.120236 -3.26379 0
M  V30 2495 H 230.444 -2.00346 -3.07013 0
M  V30 2496 H 230.092 -0.462995 -5.00865 0
M  V30 2497 H 229.792 -2.15865 -5.46513 0
M  V30 2498 H 231.316 -1.36334 -5.95185 0
M  V30 2499 H 232.73 -3.26626 -4.71156 0
M  V30 2500 H 231.127 -4.01607 -4.45905 0
M  V30 2501 H 232.197 -3.75326 -3.07016 0
M  V30 2502 N 233.54 1.10788 -1.12088 0
M  V30 2503 C 234.951 1.64181 -0.88891 0
M  V30 2504 C 235.302 1.87508 0.577498 0
M  V30 2505 O 234.427 1.61434 1.44112 0
M  V30 2506 C 235.022 2.98257 -1.60712 0
M  V30 2507 C 233.581 3.4853 -1.42139 0
M  V30 2508 C 232.728 2.23208 -1.6454 0
M  V30 2509 H 235.679 0.943368 -1.27618 0
M  V30 2510 H 235.7 3.65552 -1.05604 0
M  V30 2511 H 235.212 2.81246 -2.67436 0
M  V30 2512 H 233.313 3.70692 -0.376552 0
M  V30 2513 H 233.426 4.26882 -2.17505 0
M  V30 2514 H 231.79 2.31169 -1.06925 0
M  V30 2515 H 232.573 2.08733 -2.72554 0
M  V30 2516 N 235.018 0.912232 1.28515 0
M  V30 2517 C 235.966 0.389597 2.29314 0
M  V30 2518 C 236.96 -0.517915 1.61289 0
M  V30 2519 O 238.166 -0.399328 1.75515 0
M  V30 2520 H 234.541 0.107386 0.744293 0
M  V30 2521 H 236.512 1.25286 2.70825 0
M  V30 2522 C 235.261 -0.356496 3.45868 0
M  V30 2523 H 234.584 0.332608 3.98414 0
M  V30 2524 H 236.024 -0.686851 4.184 0
M  V30 2525 C 234.483 -1.56383 2.98406 0
M  V30 2526 O 235.013 -2.66294 3.00749 0
M  V30 2527 N 233.219 -1.41029 2.54085 0
M  V30 2528 H 232.766 -0.516089 2.52377 0
M  V30 2529 H 232.724 -2.21939 2.22689 0
M  V30 2530 N 236.496 -1.42363 0.676048 0
M  V30 2531 C 237.459 -2.29199 0.00766941 0
M  V30 2532 C 238.459 -1.43389 -0.727745 0
M  V30 2533 O 239.649 -1.64764 -0.56556 0
M  V30 2534 C 236.781 -3.2591 -0.999785 0
M  V30 2535 H 237.974 -2.89794 0.771988 0
M  V30 2536 H 235.527 -1.50024 0.438468 0
M  V30 2537 H 236.262 -2.70256 -1.79255 0
M  V30 2538 H 236.047 -3.89202 -0.475829 0
M  V30 2539 H 237.537 -3.91028 -1.46583 0
M  V30 2540 N 237.974 -0.419461 -1.51915 0
M  V30 2541 C 238.922 0.415502 -2.28859 0
M  V30 2542 C 239.916 1.03674 -1.3397 0
M  V30 2543 O 241.122 0.973757 -1.51387 0
M  V30 2544 H 237.497 0.152786 -0.736315 0
M  V30 2545 H 239.468 -0.254531 -2.97312 0
M  V30 2546 C 238.217 1.51425 -3.12995 0
M  V30 2547 H 237.54 1.04556 -3.85886 0
M  V30 2548 H 238.98 2.07208 -3.6992 0
M  V30 2549 C 237.439 2.48745 -2.27217 0
M  V30 2550 O 237.969 3.52871 -1.9195 0
M  V30 2551 N 236.175 2.19202 -1.90785 0
M  V30 2552 H 235.722 1.34556 -2.19664 0
M  V30 2553 H 235.68 2.84561 -1.33687 0
M  V30 2554 N 239.452 1.56882 -0.150215 0
M  V30 2555 C 240.7 1.9584 0.499105 0
M  V30 2556 C 241.021 1.03623 1.65188 0
M  V30 2557 O 240.291 0.0984084 1.95653 0
M  V30 2558 H 238.871 0.723119 0.187373 0
M  V30 2559 H 241.533 1.9358 -0.226466 0
M  V30 2560 H 240.629 2.99638 0.873122 0
M  V30 2561 N 240.93 -0.123565 1.57115 0
M  V30 2562 C 242.176 -0.828428 1.85765 0
M  V30 2563 C 242.531 -1.77709 0.737371 0
M  V30 2564 O 241.824 -1.89787 -0.262978 0
M  V30 2565 C 242.018 -1.62016 3.18568 0
M  V30 2566 C 241.847 -0.749663 4.43407 0
M  V30 2567 C 240.617 -0.406251 5.03664 0
M  V30 2568 C 242.815 -0.0693505 5.14253 0
M  V30 2569 N 240.797 0.475389 6.12057 0
M  V30 2570 C 242.168 0.671474 6.16353 0
M  V30 2571 C 244.223 0.00754393 4.97899 0
M  V30 2572 C 242.926 1.48197 7.03868 0
M  V30 2573 C 244.952 0.804845 5.85898 0
M  V30 2574 C 244.314 1.53388 6.87497 0
M  V30 2575 H 240.413 -0.280219 0.73007 0
M  V30 2576 H 242.997 -0.0924183 1.94481 0
M  V30 2577 H 241.168 -2.32724 3.10957 0
M  V30 2578 H 242.9 -2.27 3.35042 0
M  V30 2579 H 239.655 -0.747446 4.67665 0
M  V30 2580 H 240.079 0.907924 6.70884 0
M  V30 2581 H 244.721 -0.541741 4.19315 0
M  V30 2582 H 242.439 2.04242 7.81864 0
M  V30 2583 H 246.025 0.866642 5.75309 0
M  V30 2584 H 244.905 2.1409 7.5441 0
M  V30 2585 N 242.408 -1.52605 -0.393616 0
M  V30 2586 C 243.685 -1.58001 -1.15304 0
M  V30 2587 C 244.065 -0.370385 -2.07825 0
M  V30 2588 O 243.413 0.641638 -2.19306 0
M  V30 2589 C 243.623 -2.91652 -1.91677 0
M  V30 2590 C 244.971 -3.4522 -2.47201 0
M  V30 2591 O 245.995 -2.93495 -2.01839 0
M  V30 2592 O 244.854 -4.35579 -3.3005 0
M  V30 2593 H 241.948 -0.637068 -0.527327 0
M  V30 2594 H 244.494 -1.64939 -0.399141 0
M  V30 2595 H 243.266 -3.71136 -1.23992 0
M  V30 2596 H 242.889 -2.88077 -2.74039 0
M  V30 2597 N 243.887 0.651787 -1.4349 0
M  V30 2598 C 244.834 1.76462 -1.4876 0
M  V30 2599 C 245.804 1.62641 -0.337189 0
M  V30 2600 O 246.989 1.82864 -0.544544 0
M  V30 2601 C 244.129 3.14623 -1.41796 0
M  V30 2602 C 243.242 3.39568 -2.67053 0
M  V30 2603 C 242.377 4.67585 -2.52068 0
M  V30 2604 C 241.416 4.85639 -3.72587 0
M  V30 2605 N 240.553 6.04915 -3.56402 0
M  V30 2606 H 245.393 1.71293 -2.43849 0
M  V30 2607 H 242.93 0.835889 -1.21043 0
M  V30 2608 H 244.888 3.94496 -1.35753 0
M  V30 2609 H 243.518 3.18859 -0.50288 0
M  V30 2610 H 242.57 2.53783 -2.8337 0
M  V30 2611 H 243.882 3.48795 -3.56572 0
M  V30 2612 H 243.036 5.55586 -2.4374 0
M  V30 2613 H 241.775 4.60681 -1.60075 0
M  V30 2614 H 240.78 3.96073 -3.81321 0
M  V30 2615 H 242.005 4.94372 -4.65589 0
M  V30 2616 H 239.951 5.9914 -2.67146 0
M  V30 2617 H 239.868 6.15106 -4.39524 0
M  V30 2618 H 241.136 6.95533 -3.51929 0
M  V30 2619 N 245.365 1.30045 0.890287 0
M  V30 2620 C 246.776 1.16738 1.45702 0
M  V30 2621 C 247.127 -0.233939 1.948 0
M  V30 2622 O 246.252 -1.13021 1.84541 0
M  V30 2623 C 246.847 2.11313 2.64825 0
M  V30 2624 C 245.406 2.02001 3.17604 0
M  V30 2625 C 244.553 2.01699 1.90296 0
M  V30 2626 H 247.504 1.42392 0.700726 0
M  V30 2627 H 247.525 1.69086 3.40867 0
M  V30 2628 H 247.037 3.13294 2.2906 0
M  V30 2629 H 245.138 1.03142 3.5804 0
M  V30 2630 H 245.251 2.90128 3.81264 0
M  V30 2631 H 243.615 1.46427 2.08402 0
M  V30 2632 H 244.398 3.05402 1.56795 0
M  V30 2633 N 246.843 -1.10192 1.12674 0
M  V30 2634 C 248.12 -1.78717 0.794965 0
M  V30 2635 C 248.5 -1.98628 -0.714853 0
M  V30 2636 O 247.848 -1.58135 -1.64941 0
M  V30 2637 C 248.058 -3.11546 1.5729 0
M  V30 2638 C 249.406 -3.86382 1.76052 0
M  V30 2639 O 250.43 -3.21274 1.53823 0
M  V30 2640 O 249.289 -5.03246 2.13087 0
M  V30 2641 H 246.383 -0.774702 0.289423 0
M  V30 2642 H 248.929 -1.16819 1.23091 0
M  V30 2643 H 247.701 -2.92489 2.59935 0
M  V30 2644 H 247.324 -3.81164 1.13137 0
M  V30 2645 N 248.321 -0.919034 -1.28029 0
M  V30 2646 C 249.57 -0.550802 -1.94034 0
M  V30 2647 C 249.883 0.910877 -1.73096 0
M  V30 2648 O 251.089 1.3875 -2.33368 0
M  V30 2649 C 249.545 -0.934249 -3.47563 0
M  V30 2650 C 249.153 -2.41602 -3.7727 0
M  V30 2651 C 250.897 -0.636854 -4.19696 0
M  V30 2652 C 248.804 -2.73932 -5.24133 0
M  V30 2653 H 247.734 -0.202273 -0.726362 0
M  V30 2654 H 250.385 -1.11867 -1.45458 0
M  V30 2655 H 248.767 -0.295115 -3.94899 0
M  V30 2656 H 249.941 -3.10233 -3.40723 0
M  V30 2657 H 248.256 -2.68441 -3.18321 0
M  V30 2658 H 250.853 -0.855005 -5.2782 0
M  V30 2659 H 251.196 0.425575 -4.14119 0
M  V30 2660 H 251.729 -1.23469 -3.78154 0
M  V30 2661 H 248.468 -3.79049 -5.34792 0
M  V30 2662 H 247.988 -2.09942 -5.61858 0
M  V30 2663 H 249.667 -2.61215 -5.91925 0
M  V30 2664 N 249.799 1.42003 -0.683588 0
M  V30 2665 C 251.045 2.02223 -0.218536 0
M  V30 2666 C 251.4 1.53126 1.16492 0
M  V30 2667 O 250.693 0.727459 1.77253 0
M  V30 2668 C 250.887 3.56827 -0.202357 0
M  V30 2669 C 250.716 4.20928 -1.5827 0
M  V30 2670 C 249.486 4.5573 -2.18262 0
M  V30 2671 C 251.684 4.47933 -2.52706 0
M  V30 2672 N 249.666 5.05056 -3.48986 0
M  V30 2673 C 251.037 4.98906 -3.68094 0
M  V30 2674 C 253.092 4.29931 -2.51125 0
M  V30 2675 C 251.795 5.33768 -4.82166 0
M  V30 2676 C 253.821 4.65875 -3.643 0
M  V30 2677 C 253.183 5.17008 -4.78417 0
M  V30 2678 H 249.282 0.771931 -0.125088 0
M  V30 2679 H 251.866 1.72729 -0.898479 0
M  V30 2680 H 250.037 3.85819 0.447029 0
M  V30 2681 H 251.769 4.03755 0.276399 0
M  V30 2682 H 248.524 4.41781 -1.70665 0
M  V30 2683 H 248.948 5.34139 -4.15962 0
M  V30 2684 H 253.59 3.89647 -1.6412 0
M  V30 2685 H 251.308 5.72981 -5.6984 0
M  V30 2686 H 254.894 4.53615 -3.64314 0
M  V30 2687 H 253.774 5.44301 -5.64541 0
M  V30 2688 N 251.277 0.427512 1.51691 0
M  V30 2689 C 252.21 -0.433876 2.24037 0
M  V30 2690 C 253.188 -1.03287 1.25581 0
M  V30 2691 O 254.372 -1.07722 1.54688 0
M  V30 2692 C 251.499 -1.60385 2.98319 0
M  V30 2693 C 250.545 -1.12648 4.11355 0
M  V30 2694 S 251.378 -0.076543 5.35445 0
M  V30 2695 C 252.534 -1.25141 6.13262 0
M  V30 2696 H 252.767 0.180367 2.96752 0
M  V30 2697 H 250.3 0.211946 1.52938 0
M  V30 2698 H 252.258 -2.27462 3.41718 0
M  V30 2699 H 250.919 -2.18948 2.25213 0
M  V30 2700 H 250.112 -2.0011 4.62571 0
M  V30 2701 H 249.714 -0.534088 3.70167 0
M  V30 2702 H 252.006 -2.17162 6.41753 0
M  V30 2703 H 252.949 -0.779411 7.03797 0
M  V30 2704 H 253.357 -1.48553 5.44603 0
M  V30 2705 N 252.755 -1.56801 0.158532 0
M  V30 2706 C 253.718 -2.16138 -0.762705 0
M  V30 2707 C 254.718 -1.1061 -1.16713 0
M  V30 2708 O 255.908 -1.36191 -1.08617 0
M  V30 2709 C 253.04 -2.73386 -2.03649 0
M  V30 2710 H 254.233 -2.98886 -0.246354 0
M  V30 2711 H 251.786 -1.56035 -0.0909744 0
M  V30 2712 H 252.521 -1.94335 -2.59623 0
M  V30 2713 H 252.306 -3.50601 -1.75559 0
M  V30 2714 H 253.796 -3.19065 -2.6942 0
M  V30 2715 N 254.233 0.115231 -1.57178 0
M  V30 2716 C 255.18 1.14115 -2.00615 0
M  V30 2717 C 256.15 1.40939 -0.878941 0
M  V30 2718 O 257.335 1.52741 -1.14345 0
M  V30 2719 C 254.475 2.46156 -2.4187 0
M  V30 2720 C 253.588 2.26236 -3.68024 0
M  V30 2721 C 252.723 3.51534 -3.98243 0
M  V30 2722 C 251.762 3.26787 -5.17568 0
M  V30 2723 N 250.899 4.44298 -5.43639 0
M  V30 2724 H 255.739 0.763743 -2.88047 0
M  V30 2725 H 253.276 0.365615 -1.42484 0
M  V30 2726 H 255.234 3.23189 -2.63827 0
M  V30 2727 H 253.864 2.81783 -1.57475 0
M  V30 2728 H 252.916 1.40102 -3.5366 0
M  V30 2729 H 254.228 2.03929 -4.55208 0
M  V30 2730 H 253.382 4.36984 -4.20868 0
M  V30 2731 H 252.121 3.76876 -3.09541 0
M  V30 2732 H 251.126 2.39729 -4.94783 0
M  V30 2733 H 252.351 3.02812 -6.0785 0
M  V30 2734 H 250.297 4.69754 -4.57895 0
M  V30 2735 H 250.214 4.25109 -6.25154 0
M  V30 2736 H 251.482 5.3087 -5.70786 0
M  V30 2737 N 255.711 1.52812 0.385517 0
M  V30 2738 C 256.939 1.71907 1.15133 0
M  V30 2739 C 257.354 0.439004 1.83625 0
M  V30 2740 O 256.711 -0.586765 1.7281 0
M  V30 2741 C 256.762 2.87099 2.19673 0
M  V30 2742 O 256.483 4.10151 1.53973 0
M  V30 2743 C 257.984 3.17902 3.08955 0
M  V30 2744 H 255.204 0.575479 0.345057 0
M  V30 2745 H 257.748 1.99476 0.45052 0
M  V30 2746 H 255.903 2.61982 2.85384 0
M  V30 2747 H 256.317 4.74514 2.23465 0
M  V30 2748 H 257.791 4.01959 3.7833 0
M  V30 2749 H 258.268 2.3243 3.72657 0
M  V30 2750 H 258.874 3.44871 2.48885 0
M  V30 2751 N 257.189 -0.644168 1.43834 0
M  V30 2752 C 258.438 -1.39985 1.45214 0
M  V30 2753 C 258.751 -1.95421 0.0835494 0
M  V30 2754 O 259.957 -2.71488 -0.0251748 0
M  V30 2755 C 258.413 -2.53384 2.55587 0
M  V30 2756 C 258.021 -2.04517 3.98594 0
M  V30 2757 C 259.765 -3.30685 2.66172 0
M  V30 2758 C 257.672 -3.1518 5.00416 0
M  V30 2759 H 256.602 -0.526005 0.540218 0
M  V30 2760 H 259.253 -0.694367 1.69855 0
M  V30 2761 H 257.635 -3.26446 2.24163 0
M  V30 2762 H 258.809 -1.38405 4.39523 0
M  V30 2763 H 257.124 -1.40068 3.92135 0
M  V30 2764 H 259.721 -4.13158 3.39418 0
M  V30 2765 H 260.064 -3.79312 1.71546 0
M  V30 2766 H 260.597 -2.64708 2.96942 0
M  V30 2767 H 257.336 -2.71511 5.96625 0
M  V30 2768 H 256.856 -3.79974 4.64091 0
M  V30 2769 H 258.535 -3.80166 5.23529 0
M  V30 2770 N 258.668 -1.30515 -0.883378 0
M  V30 2771 C 259.917 -1.18795 -1.63005 0
M  V30 2772 C 260.23 0.255923 -1.93919 0
M  V30 2773 O 261.436 0.494654 -2.66956 0
M  V30 2774 C 259.892 -2.07878 -2.93794 0
M  V30 2775 C 259.5 -3.57184 -2.70414 0
M  V30 2776 C 261.244 -2.04924 -3.71761 0
M  V30 2777 C 259.151 -4.38317 -3.97029 0
M  V30 2778 H 258.081 -0.441031 -0.611562 0
M  V30 2779 H 260.732 -1.55275 -0.977854 0
M  V30 2780 H 259.114 -1.64283 -3.60315 0
M  V30 2781 H 260.288 -4.08937 -2.12384 0
M  V30 2782 H 258.603 -3.61976 -2.0582 0
M  V30 2783 H 261.2 -2.62792 -4.65665 0
M  V30 2784 H 261.543 -1.0331 -4.03277 0
M  V30 2785 H 262.076 -2.46649 -3.12104 0
M  V30 2786 H 258.815 -5.40632 -3.70671 0
M  V30 2787 H 258.335 -3.91326 -4.54559 0
M  V30 2788 H 260.014 -4.49834 -4.65036 0
M  V30 2789 N 260.146 1.09593 -1.13257 0
M  V30 2790 C 261.557 1.63229 -0.906274 0
M  V30 2791 C 261.908 1.8811 0.557578 0
M  V30 2792 O 261.033 1.62953 1.42391 0
M  V30 2793 C 261.628 2.96535 -1.63867 0
M  V30 2794 C 260.187 3.47003 -1.45828 0
M  V30 2795 C 259.334 2.2145 -1.66898 0
M  V30 2796 H 262.285 0.92978 -1.28611 0
M  V30 2797 H 262.306 3.64411 -1.09476 0
M  V30 2798 H 261.818 2.78394 -2.70404 0
M  V30 2799 H 259.919 3.70272 -0.415848 0
M  V30 2800 H 260.032 4.24551 -2.2202 0
M  V30 2801 H 258.396 2.30022 -1.09371 0
M  V30 2802 H 259.179 2.0583 -2.74752 0
M  V30 2803 N 261.624 0.925811 1.2754 0
M  V30 2804 C 263.04 0.625767 1.46821 0
M  V30 2805 C 263.24 -0.825506 1.83814 0
M  V30 2806 O 262.296 -1.60356 1.95044 0
M  V30 2807 C 263.609 1.57402 2.56213 0
M  V30 2808 C 265.157 1.58204 2.70075 0
M  V30 2809 C 265.632 2.51721 3.82623 0
M  V30 2810 N 267.123 2.49917 3.89994 0
M  V30 2811 C 267.858 3.18968 4.76494 0
M  V30 2812 N 267.354 3.97391 5.67496 0
M  V30 2813 N 269.147 3.07996 4.70208 0
M  V30 2814 H 261.298 1.86409 1.01811 0
M  V30 2815 H 263.561 0.800213 0.508295 0
M  V30 2816 H 263.267 2.60925 2.35819 0
M  V30 2817 H 263.141 1.31428 3.53563 0
M  V30 2818 H 265.528 0.554124 2.89851 0
M  V30 2819 H 265.609 1.88226 1.73218 0
M  V30 2820 H 265.253 3.54622 3.63601 0
M  V30 2821 H 265.183 2.18996 4.78903 0
M  V30 2822 H 267.674 1.9296 3.24923 0
M  V30 2823 H 267.987 4.4707 6.30356 0
M  V30 2824 H 266.332 4.01495 5.67298 0
M  V30 2825 H 269.523 2.46223 3.9811 0
M  V30 2826 H 269.696 3.6208 5.37403 0
M  V30 2827 N 263.102 -1.41638 0.69111 0
M  V30 2828 C 264.513 -1.84346 0.295517 0
M  V30 2829 C 264.864 -1.57833 -1.16547 0
M  V30 2830 O 263.989 -1.04648 -1.89414 0
M  V30 2831 C 264.584 -3.34636 0.529575 0
M  V30 2832 C 263.143 -3.7593 0.187944 0
M  V30 2833 C 262.29 -2.65082 0.814052 0
M  V30 2834 H 265.241 -1.31253 0.892092 0
M  V30 2835 H 265.262 -3.79903 -0.213148 0
M  V30 2836 H 264.774 -3.53901 1.59297 0
M  V30 2837 H 262.875 -3.62268 -0.871367 0
M  V30 2838 H 262.988 -4.74808 0.63985 0
M  V30 2839 H 261.352 -2.53528 0.244017 0
M  V30 2840 H 262.135 -2.87167 1.88123 0
M  V30 2841 N 264.58 -0.43555 -1.51462 0
M  V30 2842 C 265.857 0.191364 -1.94662 0
M  V30 2843 C 266.237 1.60254 -1.37411 0
M  V30 2844 O 265.585 2.2152 -0.560458 0
M  V30 2845 C 265.795 0.17091 -3.48581 0
M  V30 2846 C 267.143 0.377357 -4.2292 0
M  V30 2847 O 268.167 0.249104 -3.55328 0
M  V30 2848 O 267.026 0.63247 -5.42828 0
M  V30 2849 H 264.12 0.130932 -0.816569 0
M  V30 2850 H 266.666 -0.4934 -1.62369 0
M  V30 2851 H 265.438 -0.815738 -3.82703 0
M  V30 2852 H 265.061 0.898659 -3.87311 0
M  V30 2853 N 266.058 1.56714 -0.166846 0
M  V30 2854 C 267.283 2.01557 0.488833 0
M  V30 2855 C 267.708 1.0463 1.56314 0
M  V30 2856 O 267.066 0.0251304 1.81283 0
M  V30 2857 C 267.114 3.4503 1.04818 0
M  V30 2858 O 266.218 3.51163 2.16236 0
M  V30 2859 H 265.559 0.653516 0.117526 0
M  V30 2860 H 268.089 2.02818 -0.269421 0
M  V30 2861 H 268.099 3.84243 1.37191 0
M  V30 2862 H 266.774 4.15077 0.261572 0
M  V30 2863 H 265.351 3.23807 1.84942 0
M  V30 2864 N 267.536 -0.106894 1.57237 0
M  V30 2865 C 268.468 -1.15646 1.97885 0
M  V30 2866 C 269.481 -1.36981 0.879779 0
M  V30 2867 O 270.67 -1.35841 1.15799 0
M  V30 2868 C 267.77 -2.51425 2.27241 0
M  V30 2869 C 266.943 -2.50529 3.58545 0
M  V30 2870 C 266.002 -3.68145 3.75973 0
M  V30 2871 O 265.028 -3.51176 4.47956 0
M  V30 2872 N 266.23 -4.87177 3.15656 0
M  V30 2873 H 268.995 -0.81059 2.8853 0
M  V30 2874 H 266.556 -0.296024 1.59171 0
M  V30 2875 H 268.548 -3.28689 2.36105 0
M  V30 2876 H 267.118 -2.78147 1.42663 0
M  V30 2877 H 266.338 -1.58894 3.60758 0
M  V30 2878 H 267.626 -2.46997 4.44826 0
M  V30 2879 H 267.024 -5.03868 2.57165 0
M  V30 2880 H 265.581 -5.62075 3.30023 0
M  V30 2881 O 269.053 -1.59537 -0.25105 0
M  V30 2882 H 269.744 -1.71804 -0.894607 0
M  V30 END ATOM
M  V30 BEGIN BOND
M  V30 END BOND
M  V30 END CTAB
M  END
$$$$
