drugbank_target|Q47NK3 Proteinase inhibitor I4, serpin (DB03676)
 OpenBabel12092120283D

  0  0  0     0  0            999 V3000
M  V30 BEGIN CTAB
M  V30 COUNTS 5585 5650 0 0 0
M  V30 BEGIN ATOM
M  V30 1 H -0.908 1.98254 -0.117106 0
M  V30 2 N 0 1.576 0 0
M  V30 3 C 0.933 2.03868 1.02534 0
M  V30 4 C 1.911 0.928543 1.3348 0
M  V30 5 O 3.095 1.19667 1.45644 0
M  V30 6 C 0.222 2.43627 2.35294 0
M  V30 7 C -0.732 3.65373 2.2001 0
M  V30 8 S 0.101 5.13292 1.52614 0
M  V30 9 C 1.257 5.56322 2.86805 0
M  V30 10 H 1.49 2.90518 0.631377 0
M  V30 11 H -0.977 1.52953 0.210867 0
M  V30 12 H 0.981 2.67203 3.11629 0
M  V30 13 H -0.358 1.57376 2.7183 0
M  V30 14 H -1.165 3.90944 3.18086 0
M  V30 15 H -1.563 3.418 1.51819 0
M  V30 16 H 0.729 5.58782 3.83104 0
M  V30 17 H 1.672 6.56266 2.65933 0
M  V30 18 H 2.08 4.83886 2.90714 0
M  V30 19 N 1.4781 -0.272755 1.55222 0
M  V30 20 C 2.7031 -1.02683 1.80197 0
M  V30 21 C 3.1281 -1.79142 0.573551 0
M  V30 22 O 2.4861 -1.74917 -0.476849 0
M  V30 23 C 2.5341 -1.9609 3.02624 0
M  V30 24 O 1.6381 -3.04863 2.77727 0
M  V30 25 H 0.9791 -0.293557 0.595584 0
M  V30 26 H 3.5091 -0.30159 2.02365 0
M  V30 27 H 3.5191 -2.38039 3.31363 0
M  V30 28 H 2.1941 -1.39851 3.91682 0
M  V30 29 H 0.7711 -2.67228 2.60084 0
M  V30 30 N 2.9562 -1.48159 -0.537278 0
M  V30 31 C 4.2042 -1.55497 -1.29094 0
M  V30 32 C 4.5252 -0.227454 -1.93669 0
M  V30 33 O 3.7952 0.750386 -1.80959 0
M  V30 34 H 2.3752 -0.572832 -0.47945 0
M  V30 35 H 5.0372 -1.84579 -0.625818 0
M  V30 36 H 4.1332 -2.33216 -2.07405 0
M  V30 37 N 4.4343 0.785586 -1.36625 0
M  V30 38 C 5.6823 1.54057 -1.30808 0
M  V30 39 C 6.0033 1.94683 0.111157 0
M  V30 40 O 5.2733 1.65241 1.05224 0
M  V30 41 H 3.8533 0.571354 -0.481211 0
M  V30 42 H 6.5153 0.935821 -1.70963 0
M  V30 43 H 5.6113 2.44637 -1.93801 0
M  V30 44 N 5.9124 1.20967 1.01018 0
M  V30 45 C 7.1594 1.02374 1.74716 0
M  V30 46 C 7.4874 -0.443375 1.89379 0
M  V30 47 O 6.7424 -1.34535 1.42123 0
M  V30 48 C 7.0414 1.65997 3.16512 0
M  V30 49 C 6.7074 3.15831 3.2181 0
M  V30 50 C 5.3694 3.56719 3.22963 0
M  V30 51 C 7.7214 4.11816 3.19464 0
M  V30 52 C 5.0494 4.92107 3.19449 0
M  V30 53 C 7.4014 5.47158 3.17491 0
M  V30 54 C 6.0654 5.87451 3.16951 0
M  V30 55 H 5.3354 0.374614 0.639332 0
M  V30 56 H 7.9824 1.50485 1.18434 0
M  V30 57 H 6.2874 1.10166 3.75993 0
M  V30 58 H 7.9844 1.49119 3.72242 0
M  V30 59 H 4.5744 2.83263 3.21652 0
M  V30 60 H 8.7584 3.81257 3.17737 0
M  V30 61 H 4.0144 5.22579 3.17366 0
M  V30 62 H 8.1884 6.21274 3.14629 0
M  V30 63 H 5.8154 6.92329 3.13983 0
M  V30 64 N 7.3905 -1.2043 1.01659 0
M  V30 65 C 8.3205 -2.25466 0.607226 0
M  V30 66 C 9.3015 -1.65853 -0.377716 0
M  V30 67 O 10.4865 -1.92409 -0.263149 0
M  V30 68 C 7.6165 -3.47256 -0.0552949 0
M  V30 69 C 6.5705 -4.19462 0.850632 0
M  V30 70 C 5.8965 -5.34673 0.0538859 0
M  V30 71 C 7.1965 -4.75603 2.15868 0
M  V30 72 H 8.8905 -2.59962 1.48526 0
M  V30 73 H 6.4365 -1.2496 0.715605 0
M  V30 74 H 8.3895 -4.19917 -0.353233 0
M  V30 75 H 7.1135 -3.11924 -0.968045 0
M  V30 76 H 5.7725 -3.48667 1.13257 0
M  V30 77 H 5.4205 -4.95585 -0.860514 0
M  V30 78 H 5.1205 -5.83913 0.657192 0
M  V30 79 H 6.6445 -6.10138 -0.237598 0
M  V30 80 H 8.0585 -5.40083 1.92311 0
M  V30 81 H 6.4555 -5.3528 2.71284 0
M  V30 82 H 7.5255 -3.94346 2.82169 0
M  V30 83 N 8.8686 -0.792821 -1.36206 0
M  V30 84 C 10.2846 -0.474903 -1.52371 0
M  V30 85 C 10.4846 1.00622 -1.74578 0
M  V30 86 O 9.5406 1.79162 -1.77924 0
M  V30 87 C 10.8536 -1.3083 -2.70747 0
M  V30 88 C 12.4016 -1.30234 -2.84619 0
M  V30 89 C 12.8766 -2.11956 -4.06004 0
M  V30 90 N 14.3676 -2.09419 -4.13156 0
M  V30 91 C 15.1026 -2.69419 -5.06163 0
M  V30 92 N 14.5986 -3.3829 -6.04592 0
M  V30 93 N 16.3916 -2.59134 -4.98804 0
M  V30 94 H 8.5426 -1.75222 -1.20046 0
M  V30 95 H 10.8056 -0.745024 -0.586211 0
M  V30 96 H 10.5116 -2.35881 -2.6087 0
M  V30 97 H 10.3856 -0.95196 -3.6499 0
M  V30 98 H 12.7726 -0.259748 -2.93955 0
M  V30 99 H 12.8536 -1.69847 -1.91274 0
M  V30 100 H 12.4976 -3.16248 -3.97429 0
M  V30 101 H 12.4276 -1.69711 -4.98503 0
M  V30 102 H 14.9186 -1.59297 -3.42685 0
M  V30 103 H 15.2316 -3.81394 -6.7213 0
M  V30 104 H 13.5766 -3.42393 -6.04807 0
M  V30 105 H 16.7676 -2.04927 -4.20859 0
M  V30 106 H 16.9406 -3.06185 -5.711 0
M  V30 107 N 10.3467 1.47872 -0.545128 0
M  V30 108 C 11.6237 1.9554 0.0485222 0
M  V30 109 C 12.0037 1.4876 1.49779 0
M  V30 110 O 11.3517 0.720925 2.16829 0
M  V30 111 C 11.5617 3.48898 -0.084417 0
M  V30 112 C 12.9097 4.24547 0.0671239 0
M  V30 113 O 13.9337 3.56198 -0.0113649 0
M  V30 114 O 12.7927 5.45999 0.233882 0
M  V30 115 H 9.8867 0.823957 0.0708773 0
M  V30 116 H 12.4327 1.58327 -0.610798 0
M  V30 117 H 11.2047 3.75714 -1.09337 0
M  V30 118 H 10.8277 3.92845 0.613066 0
M  V30 119 N 11.8248 0.280983 1.55075 0
M  V30 120 C 13.1018 -0.386207 1.91749 0
M  V30 121 C 13.4818 -1.73264 1.20594 0
M  V30 122 O 12.8298 -2.26034 0.334784 0
M  V30 123 C 13.0398 -0.520687 3.45094 0
M  V30 124 C 14.3878 -0.800865 4.16979 0
M  V30 125 O 15.4118 -0.605271 3.5102 0
M  V30 126 O 14.2708 -1.1753 5.33712 0
M  V30 127 H 11.3648 -0.212408 0.799257 0
M  V30 128 H 13.9108 0.327568 1.66509 0
M  V30 129 H 12.6828 0.426633 3.88967 0
M  V30 130 H 12.3058 -1.2837 3.76307 0
M  V30 131 N 13.3029 -1.57598 0.00835791 0
M  V30 132 C 14.2529 -2.05431 -0.989045 0
M  V30 133 C 15.2369 -0.950662 -1.29812 0
M  V30 134 O 16.4289 -1.21438 -1.28771 0
M  V30 135 C 13.5579 -2.56801 -2.27833 0
M  V30 136 C 12.6439 -3.74058 -1.99853 0
M  V30 137 N 13.0349 -4.8544 -1.42062 0
M  V30 138 C 11.3329 -3.82148 -2.29953 0
M  V30 139 C 12.0339 -5.66817 -1.30743 0
M  V30 140 N 11.0099 -5.13077 -1.7959 0
M  V30 141 H 14.8119 -2.88955 -0.536853 0
M  V30 142 H 12.3259 -1.61199 -0.197148 0
M  V30 143 H 14.3229 -2.89349 -3.00137 0
M  V30 144 H 12.9829 -1.74699 -2.73698 0
M  V30 145 H 13.9939 -5.0612 -1.09833 0
M  V30 146 H 10.6709 -3.10916 -2.78635 0
M  V30 147 H 12.0609 -6.66343 -0.862328 0
M  V30 148 N 14.781 0.264519 -1.55364 0
M  V30 149 C 15.711 1.33121 -1.91836 0
M  V30 150 C 16.692 1.51101 -0.781192 0
M  V30 151 O 17.877 1.64003 -1.04003 0
M  V30 152 C 15.007 2.68921 -2.19769 0
M  V30 153 C 13.961 2.65661 -3.35571 0
M  V30 154 C 13.287 4.05093 -3.49004 0
M  V30 155 C 14.587 2.24187 -4.71739 0
M  V30 156 H 16.281 1.02844 -2.81182 0
M  V30 157 H 13.827 0.493286 -1.35287 0
M  V30 158 H 15.78 3.43663 -2.43872 0
M  V30 159 H 14.504 3.00799 -1.27231 0
M  V30 160 H 13.163 1.93377 -3.1145 0
M  V30 161 H 12.811 4.34206 -2.53917 0
M  V30 162 H 12.511 4.03804 -4.26868 0
M  V30 163 H 14.035 4.81561 -3.75408 0
M  V30 164 H 15.449 2.88654 -4.9533 0
M  V30 165 H 13.846 2.34044 -5.52579 0
M  V30 166 H 14.916 1.19327 -4.69988 0
M  V30 167 N 16.2591 1.48442 0.529413 0
M  V30 168 C 17.1691 1.6569 1.66084 0
M  V30 169 C 18.1851 0.539432 1.65427 0
M  V30 170 O 19.3611 0.810572 1.84368 0
M  V30 171 C 16.4261 1.69315 3.02545 0
M  V30 172 C 15.4871 2.92694 3.14052 0
M  V30 173 C 14.7201 2.96137 4.44003 0
M  V30 174 O 14.9431 2.07973 5.31134 0
M  V30 175 O 13.8771 3.88312 4.59888 0
M  V30 176 H 17.7031 2.61483 1.54469 0
M  V30 177 H 15.2881 1.3185 0.702567 0
M  V30 178 H 17.1701 1.74217 3.83701 0
M  V30 179 H 15.8451 0.766966 3.14483 0
M  V30 180 H 14.7521 2.93324 2.32189 0
M  V30 181 H 16.0851 3.84699 3.0703 0
M  V30 182 N 17.7372 -0.778329 1.37039 0
M  V30 183 C 18.9842 -1.53665 1.31884 0
M  V30 184 C 19.3122 -1.9425 -0.0986303 0
M  V30 185 O 18.5672 -1.63832 -1.07041 0
M  V30 186 C 18.8662 -2.81845 2.19768 0
M  V30 187 C 18.5322 -2.60345 3.68146 0
M  V30 188 C 17.1942 -2.5419 4.08584 0
M  V30 189 C 19.5462 -2.40923 4.62175 0
M  V30 190 C 16.8742 -2.26594 5.41177 0
M  V30 191 C 19.2262 -2.14852 5.94997 0
M  V30 192 C 17.8902 -2.07137 6.34547 0
M  V30 193 H 17.1602 -0.562299 0.482598 0
M  V30 194 H 19.8072 -0.897069 1.69189 0
M  V30 195 H 18.1122 -3.50328 1.75436 0
M  V30 196 H 19.8092 -3.39692 2.13097 0
M  V30 197 H 16.3992 -2.65996 3.36072 0
M  V30 198 H 20.5832 -2.44673 4.31797 0
M  V30 199 H 15.8392 -2.19111 5.70789 0
M  V30 200 H 20.0132 -1.98822 6.67415 0
M  V30 201 H 17.6402 -1.85518 7.37216 0
M  V30 202 N 19.2153 -1.21501 -1.00376 0
M  V30 203 C 20.1783 -0.976927 -2.07337 0
M  V30 204 C 21.1783 0.0525322 -1.60714 0
M  V30 205 O 22.3683 -0.184869 -1.73216 0
M  V30 206 C 19.5003 -0.473423 -3.37597 0
M  V30 207 H 20.6933 -1.92587 -2.29892 0
M  V30 208 H 18.2463 -1.03217 -1.17371 0
M  V30 209 H 18.9813 0.480379 -3.20722 0
M  V30 210 H 18.7663 -1.216 -3.72768 0
M  V30 211 H 20.2563 -0.32675 -4.1632 0
M  V30 212 N 20.6934 1.19889 -1.02296 0
M  V30 213 C 21.6234 2.25141 -0.619174 0
M  V30 214 C 22.6044 1.66051 0.368915 0
M  V30 215 O 23.7894 1.92546 0.252941 0
M  V30 216 C 20.9194 3.4728 0.0368783 0
M  V30 217 C 19.8734 4.19005 -0.872865 0
M  V30 218 C 19.1994 5.34637 -0.0822402 0
M  V30 219 C 20.4994 4.74452 -2.18387 0
M  V30 220 H 22.1934 2.59171 -1.49903 0
M  V30 221 H 19.7394 1.24579 -0.722222 0
M  V30 222 H 21.6924 4.20098 0.330958 0
M  V30 223 H 20.4164 3.12433 0.95149 0
M  V30 224 H 19.0754 3.48061 -1.15105 0
M  V30 225 H 18.7234 4.96034 0.83422 0
M  V30 226 H 18.4234 5.83557 -0.688149 0
M  V30 227 H 19.9474 6.10255 0.205238 0
M  V30 228 H 21.3614 5.39055 -1.95172 0
M  V30 229 H 19.7584 5.33834 -2.74119 0
M  V30 230 H 20.8284 3.92844 -2.84257 0
M  V30 231 N 22.1715 0.800033 1.35784 0
M  V30 232 C 23.1215 0.178654 2.27299 0
M  V30 233 C 24.1055 -0.643667 1.47464 0
M  V30 234 O 25.2975 -0.502 1.69732 0
M  V30 235 C 22.4265 -0.677194 3.36555 0
M  V30 236 C 21.5125 0.154497 4.23818 0
M  V30 237 N 21.9035 1.21427 4.91008 0
M  V30 238 C 20.2015 -0.0649462 4.45953 0
M  V30 239 C 20.9025 1.72147 5.55644 0
M  V30 240 N 19.8785 1.02897 5.33773 0
M  V30 241 H 23.6805 0.989637 2.76737 0
M  V30 242 H 21.1945 0.64054 1.49234 0
M  V30 243 H 23.1915 -1.13835 4.01058 0
M  V30 244 H 21.8515 -1.4866 2.8867 0
M  V30 245 H 22.8625 1.59684 4.92668 0
M  V30 246 H 19.5395 -0.844016 4.0888 0
M  V30 247 H 20.9295 2.60683 6.19269 0
M  V30 248 N 23.6496 -1.47581 0.552962 0
M  V30 249 C 24.5796 -2.32762 -0.185451 0
M  V30 250 C 25.5606 -1.43527 -0.912905 0
M  V30 251 O 26.7456 -1.72388 -0.894201 0
M  V30 252 C 23.8756 -3.25219 -1.21859 0
M  V30 253 C 22.8296 -4.23661 -0.607864 0
M  V30 254 C 22.1556 -5.05413 -1.74533 0
M  V30 255 C 23.4556 -5.20481 0.435582 0
M  V30 256 H 25.1496 -2.94749 0.525684 0
M  V30 257 H 22.6956 -1.41738 0.254251 0
M  V30 258 H 24.6486 -3.8365 -1.7433 0
M  V30 259 H 23.3726 -2.61279 -1.95961 0
M  V30 260 H 22.0316 -3.66451 -0.104489 0
M  V30 261 H 21.6796 -4.3788 -2.47529 0
M  V30 262 H 21.3796 -5.72059 -1.34249 0
M  V30 263 H 22.9036 -5.66701 -2.27338 0
M  V30 264 H 24.3176 -5.733 -0.00290157 0
M  V30 265 H 22.7146 -5.95305 0.757067 0
M  V30 266 H 23.7846 -4.66217 1.33303 0
M  V30 267 N 25.1277 -0.289203 -1.54924 0
M  V30 268 C 26.0777 0.606939 -2.19773 0
M  V30 269 C 27.0617 1.10783 -1.16687 0
M  V30 270 O 28.2537 1.05057 -1.4245 0
M  V30 271 C 25.3827 1.78398 -2.93307 0
M  V30 272 C 24.4687 1.29961 -4.03697 0
M  V30 273 N 24.8597 0.532377 -5.0299 0
M  V30 274 C 23.1577 1.58136 -4.17024 0
M  V30 275 C 23.8587 0.275912 -5.81045 0
M  V30 276 N 22.8347 0.852365 -5.36876 0
M  V30 277 H 26.6367 0.0130779 -2.93897 0
M  V30 278 H 24.1507 -0.09341 -1.62131 0
M  V30 279 H 26.1477 2.43741 -3.38225 0
M  V30 280 H 24.8077 2.38166 -2.20697 0
M  V30 281 H 25.8187 0.17838 -5.17593 0
M  V30 282 H 22.4957 2.18738 -3.55612 0
M  V30 283 H 23.8857 -0.339502 -6.71042 0
M  V30 284 N 26.6058 1.57591 -0.0167156 0
M  V30 285 C 28.0218 1.55946 0.339557 0
M  V30 286 C 28.2218 1.02109 1.73713 0
M  V30 287 O 27.2778 0.662303 2.43659 0
M  V30 288 C 28.5908 3.00037 0.199499 0
M  V30 289 C 30.1388 3.11805 0.273193 0
M  V30 290 C 30.6138 4.57713 0.162068 0
M  V30 291 N 32.1048 4.6268 0.219444 0
M  V30 292 C 32.8398 5.73185 0.157054 0
M  V30 293 N 32.3358 6.92786 0.0442936 0
M  V30 294 N 34.1288 5.61707 0.21014 0
M  V30 295 H 26.2798 1.90921 -0.930758 0
M  V30 296 H 28.5428 0.877674 -0.358319 0
M  V30 297 H 28.2488 3.4333 -0.76273 0
M  V30 298 H 28.1228 3.64387 0.974786 0
M  V30 299 H 30.5098 2.68433 1.22587 0
M  V30 300 H 30.5908 2.50201 -0.532256 0
M  V30 301 H 30.2348 5.01763 -0.78714 0
M  V30 302 H 30.1648 5.17283 0.986222 0
M  V30 303 H 32.6558 3.76649 0.307246 0
M  V30 304 H 32.9688 7.728 0.00304069 0
M  V30 305 H 31.3138 6.94999 0.00968457 0
M  V30 306 H 34.5048 4.6716 0.296546 0
M  V30 307 H 34.6778 6.47807 0.158054 0
M  V30 308 N 28.0839 -0.256276 1.55502 0
M  V30 309 C 29.4999 -0.604325 1.47716 0
M  V30 310 C 29.6999 -1.88763 0.705039 0
M  V30 311 O 28.7559 -2.51445 0.230613 0
M  V30 312 C 30.0689 -0.715756 2.92057 0
M  V30 313 C 31.6169 -0.808706 3.02372 0
M  V30 314 C 32.0919 -0.951777 4.48001 0
M  V30 315 N 33.5829 -1.01688 4.519 0
M  V30 316 C 34.3179 -1.14668 5.61817 0
M  V30 317 N 33.8139 -1.24261 6.81565 0
M  V30 318 N 35.6069 -1.1791 5.49594 0
M  V30 319 H 27.7579 0.586291 2.04148 0
M  V30 320 H 30.0209 0.201015 0.926443 0
M  V30 321 H 29.7269 0.157027 3.51349 0
M  V30 322 H 29.6009 -1.59071 3.42018 0
M  V30 323 H 31.9879 -1.67195 2.43166 0
M  V30 324 H 32.0689 0.0912063 2.55637 0
M  V30 325 H 31.7129 -0.0931291 5.07815 0
M  V30 326 H 31.6429 -1.86659 4.92408 0
M  V30 327 H 34.1339 -0.954468 3.65648 0
M  V30 328 H 34.4469 -1.34046 7.61086 0
M  V30 329 H 32.7919 -1.21236 6.84344 0
M  V30 330 H 35.9829 -1.10057 4.54978 0
M  V30 331 H 36.1559 -1.27681 6.35296 0
M  V30 332 N 29.562 -1.4872 -0.521534 0
M  V30 333 C 30.492 -1.66771 -1.63431 0
M  V30 334 C 31.473 -0.516499 -1.62069 0
M  V30 335 O 32.658 -0.750013 -1.79132 0
M  V30 336 C 29.788 -1.71515 -3.01993 0
M  V30 337 C 28.742 -2.86222 -3.18216 0
M  V30 338 C 28.068 -2.76061 -4.57924 0
M  V30 339 C 29.368 -4.27419 -3.00184 0
M  V30 340 H 31.062 -2.59932 -1.48579 0
M  V30 341 H 28.608 -1.25089 -0.713358 0
M  V30 342 H 30.561 -1.82731 -3.7972 0
M  V30 343 H 29.285 -0.749393 -3.17886 0
M  V30 344 H 27.944 -2.74575 -2.42908 0
M  V30 345 H 27.592 -1.77437 -4.70665 0
M  V30 346 H 27.292 -3.53037 -4.69722 0
M  V30 347 H 28.816 -2.89256 -5.37739 0
M  V30 348 H 30.23 -4.39855 -3.67697 0
M  V30 349 H 28.627 -5.05458 -3.2347 0
M  V30 350 H 29.697 -4.43293 -1.96518 0
M  V30 351 N 31.0401 0.771051 -1.3745 0
M  V30 352 C 32.0031 1.86598 -1.33093 0
M  V30 353 C 33.0031 1.59076 -0.234845 0
M  V30 354 O 34.1931 1.67145 -0.490732 0
M  V30 355 C 31.3251 3.23747 -1.06773 0
M  V30 356 H 32.5181 1.91873 -2.30488 0
M  V30 357 H 30.0711 0.970876 -1.2249 0
M  V30 358 H 30.8061 3.24148 -0.099129 0
M  V30 359 H 30.5911 3.45115 -1.86112 0
M  V30 360 H 32.0811 4.03824 -1.06377 0
M  V30 361 N 32.5182 1.22032 0.997298 0
M  V30 362 C 33.4282 1.00271 2.12092 0
M  V30 363 C 34.4442 -0.047621 1.73935 0
M  V30 364 O 35.6202 0.144136 2.00884 0
M  V30 365 C 32.6852 0.578449 3.4184 0
M  V30 366 C 31.7462 1.70189 3.94125 0
M  V30 367 C 30.9792 1.29778 5.17681 0
M  V30 368 O 31.2022 0.174676 5.70132 0
M  V30 369 O 30.1362 2.11261 5.63607 0
M  V30 370 H 33.9622 1.94398 2.3333 0
M  V30 371 H 31.5472 1.00587 1.10465 0
M  V30 372 H 33.4292 0.351998 4.19927 0
M  V30 373 H 32.1042 -0.334019 3.21972 0
M  V30 374 H 31.0112 1.98282 3.1723 0
M  V30 375 H 32.3442 2.59206 4.18417 0
M  V30 376 N 33.9963 -1.19345 1.0293 0
M  V30 377 C 34.9593 -2.20793 0.615069 0
M  V30 378 C 35.9593 -1.57553 -0.321533 0
M  V30 379 O 37.1493 -1.73862 -0.108483 0
M  V30 380 C 34.2813 -3.40754 -0.0999222 0
M  V30 381 H 35.4743 -2.58955 1.51269 0
M  V30 382 H 33.0273 -1.3303 0.820534 0
M  V30 383 H 33.7623 -3.0811 -1.01187 0
M  V30 384 H 33.5473 -3.87889 0.57309 0
M  V30 385 H 35.0373 -4.15898 -0.376645 0
M  V30 386 N 35.4744 -0.807222 -1.35358 0
M  V30 387 C 36.7204 -0.388463 -1.99045 0
M  V30 388 C 37.0534 1.04184 -1.63888 0
M  V30 389 O 36.3284 1.72292 -0.902535 0
M  V30 390 C 36.6114 -0.572783 -3.55515 0
M  V30 391 C 36.4644 -2.04807 -4.00468 0
M  V30 392 C 37.7834 0.00114064 -4.401 0
M  V30 393 H 34.9024 -0.142619 -0.723069 0
M  V30 394 H 37.5444 -1.01687 -1.60498 0
M  V30 395 H 35.6944 -0.0378425 -3.88482 0
M  V30 396 H 37.3664 -2.64544 -3.77908 0
M  V30 397 H 35.6094 -2.54427 -3.51353 0
M  V30 398 H 36.2804 -2.12792 -5.09337 0
M  V30 399 H 38.7564 -0.455716 -4.13597 0
M  V30 400 H 37.6324 -0.157737 -5.48673 0
M  V30 401 H 37.8934 1.09488 -4.28328 0
M  V30 402 N 36.9525 1.47285 -0.560781 0
M  V30 403 C 38.3635 1.86258 -0.128343 0
M  V30 404 C 38.7145 1.46699 1.30284 0
M  V30 405 O 37.8395 0.871698 1.98067 0
M  V30 406 C 38.4345 3.38044 -0.22614 0
M  V30 407 C 36.9935 3.76096 0.151283 0
M  V30 408 C 36.1405 2.71335 -0.572084 0
M  V30 409 H 39.0915 1.38752 -0.770297 0
M  V30 410 H 39.1125 3.76441 0.554322 0
M  V30 411 H 38.6245 3.66806 -1.26788 0
M  V30 412 H 36.7255 3.52951 1.19399 0
M  V30 413 H 36.8385 4.78641 -0.209765 0
M  V30 414 H 35.2025 2.54696 -0.0147653 0
M  V30 415 H 35.9855 3.02938 -1.61504 0
M  V30 416 N 38.4306 0.297415 1.54768 0
M  V30 417 C 39.7076 -0.365847 1.92148 0
M  V30 418 C 40.0876 -1.71975 1.22424 0
M  V30 419 O 39.4356 -2.25666 0.358739 0
M  V30 420 C 39.6456 -0.484056 3.45627 0
M  V30 421 C 40.9936 -0.756594 4.17805 0
M  V30 422 O 42.0176 -0.568007 3.51642 0
M  V30 423 O 40.8766 -1.11863 5.34929 0
M  V30 424 H 37.9706 -0.203919 0.801465 0
M  V30 425 H 40.5166 0.34521 1.66152 0
M  V30 426 H 39.2886 0.467865 3.88493 0
M  V30 427 H 38.9116 -1.24372 3.77647 0
M  V30 428 N 39.9087 -1.5758 0.0250728 0
M  V30 429 C 41.1567 -1.91255 -0.653151 0
M  V30 430 C 41.4777 -0.901691 -1.729 0
M  V30 431 O 40.7477 0.0573785 -1.95816 0
M  V30 432 H 39.3277 -0.705942 -0.244243 0
M  V30 433 H 41.9897 -1.94767 0.0719209 0
M  V30 434 H 41.0857 -2.91752 -1.10847 0
M  V30 435 N 41.3868 0.248026 -1.55636 0
M  V30 436 C 42.2968 1.32859 -1.93354 0
M  V30 437 C 43.3128 1.52719 -0.833838 0
M  V30 438 O 44.4888 1.66363 -1.13513 0
M  V30 439 C 41.5538 2.66337 -2.21958 0
M  V30 440 C 40.6148 2.55008 -3.45354 0
M  V30 441 C 39.8478 3.82121 -3.72584 0
M  V30 442 O 40.0708 4.83951 -3.01907 0
M  V30 443 O 39.0048 3.80822 -4.6611 0
M  V30 444 H 42.8308 1.03862 -2.85388 0
M  V30 445 H 40.4158 0.448686 -1.42503 0
M  V30 446 H 42.2978 3.45216 -2.4167 0
M  V30 447 H 40.9728 2.95068 -1.33103 0
M  V30 448 H 39.8798 1.7442 -3.30951 0
M  V30 449 H 41.2128 2.31222 -4.34508 0
M  V30 450 N 42.8649 1.48995 0.513639 0
M  V30 451 C 44.1109 1.58076 1.27042 0
M  V30 452 C 44.4439 0.261026 1.92438 0
M  V30 453 O 43.7189 -0.734393 1.80103 0
M  V30 454 C 44.0019 2.73091 2.34719 0
M  V30 455 C 43.8549 4.14821 1.73907 0
M  V30 456 C 45.1739 2.83796 3.36375 0
M  V30 457 H 42.2929 0.575391 0.460536 0
M  V30 458 H 44.9349 1.81232 0.570516 0
M  V30 459 H 43.0849 2.53479 2.94416 0
M  V30 460 H 44.7569 4.45917 1.18135 0
M  V30 461 H 42.9999 4.21058 1.0437 0
M  V30 462 H 43.6709 4.91147 2.51949 0
M  V30 463 H 46.1469 3.01611 2.86653 0
M  V30 464 H 45.0229 3.65971 4.09093 0
M  V30 465 H 45.2839 1.92624 3.9793 0
M  V30 466 N 44.343 -0.763751 1.37857 0
M  V30 467 C 45.592 -1.51789 1.32827 0
M  V30 468 C 45.905 -1.95426 -0.0823719 0
M  V30 469 O 47.111 -2.70298 -0.255172 0
M  V30 470 C 45.567 -2.74133 2.33193 0
M  V30 471 C 45.175 -2.37562 3.79827 0
M  V30 472 C 46.919 -3.52054 2.37188 0
M  V30 473 C 44.826 -3.56456 4.71904 0
M  V30 474 H 43.756 -0.569896 0.493695 0
M  V30 475 H 46.407 -0.835822 1.63359 0
M  V30 476 H 44.789 -3.4427 1.9569 0
M  V30 477 H 45.963 -1.75157 4.26212 0
M  V30 478 H 44.278 -1.72798 3.78853 0
M  V30 479 H 46.875 -4.40437 3.03182 0
M  V30 480 H 47.218 -3.92486 1.38782 0
M  V30 481 H 47.751 -2.88921 2.7344 0
M  V30 482 H 44.49 -3.21099 5.71468 0
M  V30 483 H 44.01 -4.17938 4.30218 0
M  V30 484 H 45.689 -4.23168 4.89426 0
M  V30 485 N 45.8211 -1.22559 -0.990812 0
M  V30 486 C 47.0671 -1.06303 -1.73411 0
M  V30 487 C 47.4221 0.397442 -1.8825 0
M  V30 488 O 46.7151 1.29062 -1.41611 0
M  V30 489 C 46.9091 -1.71011 -3.13831 0
M  V30 490 C 46.7381 -3.232 -3.12685 0
M  V30 491 C 45.5081 -3.92314 -3.18461 0
M  V30 492 C 47.7061 -4.20107 -2.96673 0
M  V30 493 N 45.6881 -5.31571 -3.07091 0
M  V30 494 C 47.0591 -5.46208 -2.93354 0
M  V30 495 C 49.1141 -4.10973 -2.8108 0
M  V30 496 C 47.8171 -6.64225 -2.76039 0
M  V30 497 C 49.8431 -5.28642 -2.65126 0
M  V30 498 C 49.2051 -6.53663 -2.62496 0
M  V30 499 H 45.3041 -0.443441 -0.644115 0
M  V30 500 H 47.8881 -1.55131 -1.17654 0
M  V30 501 H 46.0591 -1.2473 -3.67827 0
M  V30 502 H 47.7911 -1.47828 -3.76735 0
M  V30 503 H 44.5461 -3.43326 -3.26227 0
M  V30 504 H 44.9701 -6.0455 -3.0471 0
M  V30 505 H 49.6121 -3.15098 -2.8191 0
M  V30 506 H 47.3301 -7.60246 -2.73954 0
M  V30 507 H 50.9161 -5.23407 -2.54039 0
M  V30 508 H 49.7961 -7.43182 -2.50302 0
M  V30 509 N 47.2992 1.18797 -1.03562 0
M  V30 510 C 48.5242 1.9314 -0.755764 0
M  V30 511 C 48.9492 1.7537 0.68022 0
M  V30 512 O 48.3072 1.06046 1.47051 0
M  V30 513 C 48.3552 3.42747 -1.12058 0
M  V30 514 O 47.4592 4.11683 -0.243124 0
M  V30 515 H 46.8002 0.602724 -0.278604 0
M  V30 516 H 49.3302 1.50678 -1.3841 0
M  V30 517 H 49.3402 3.93437 -1.08035 0
M  V30 518 H 48.0152 3.55002 -2.16672 0
M  V30 519 H 46.5922 3.71323 -0.342539 0
M  V30 520 N 48.7773 0.814389 1.34928 0
M  V30 521 C 50.1883 0.458364 1.80986 0
M  V30 522 C 50.5393 -1.02042 1.67577 0
M  V30 523 O 49.6643 -1.79352 1.21086 0
M  V30 524 C 50.2593 0.825212 3.28597 0
M  V30 525 C 48.8183 0.521677 3.72767 0
M  V30 526 C 47.9653 1.04668 2.56788 0
M  V30 527 H 50.9163 1.00533 1.22795 0
M  V30 528 H 50.9373 0.12571 3.80292 0
M  V30 529 H 50.4493 1.90154 3.38324 0
M  V30 530 H 48.5503 -0.545589 3.68584 0
M  V30 531 H 48.6633 1.05977 4.67232 0
M  V30 532 H 47.0273 0.468622 2.50352 0
M  V30 533 H 47.8103 2.12927 2.6929 0
M  V30 534 N 50.2554 -1.46986 0.568584 0
M  V30 535 C 51.4854 -2.0653 0.0539173 0
M  V30 536 C 51.8934 -1.42004 -1.25026 0
M  V30 537 O 51.2364 -0.514541 -1.76347 0
M  V30 538 C 51.2984 -3.58938 -0.200854 0
M  V30 539 C 50.9624 -4.45572 1.01559 0
M  V30 540 C 51.9594 -4.82986 1.92407 0
M  V30 541 C 49.6444 -4.8692 1.23346 0
M  V30 542 C 51.6384 -5.60559 3.03402 0
M  V30 543 C 49.3254 -5.64255 2.34649 0
M  V30 544 C 50.3234 -6.00986 3.24507 0
M  V30 545 O 50.0114 -6.76761 4.33878 0
M  V30 546 H 49.7434 -0.674292 0.0480234 0
M  V30 547 H 52.2974 -1.89812 0.784896 0
M  V30 548 H 50.5274 -3.73911 -0.986279 0
M  V30 549 H 52.2164 -4.0046 -0.662294 0
M  V30 550 H 52.9824 -4.51633 1.76785 0
M  V30 551 H 48.8614 -4.57789 0.543178 0
M  V30 552 H 52.4054 -5.89147 3.73565 0
M  V30 553 H 48.3024 -5.95021 2.5024 0
M  V30 554 H 49.0704 -6.95168 4.32068 0
M  V30 555 N 51.7335 -0.305618 -1.54608 0
M  V30 556 C 52.9585 0.307562 -2.05107 0
M  V30 557 C 53.3835 1.46385 -1.18123 0
M  V30 558 O 52.7415 1.8034 -0.186324 0
M  V30 559 C 52.7895 0.73704 -3.52987 0
M  V30 560 O 51.8935 1.84134 -3.6901 0
M  V30 561 H 51.2345 0.0589143 -0.661381 0
M  V30 562 H 53.7645 -0.448807 -1.99617 0
M  V30 563 H 53.7745 1.02459 -3.94925 0
M  V30 564 H 52.4495 -0.108773 -4.15758 0
M  V30 565 H 51.0265 1.55398 -3.38978 0
M  V30 566 N 53.2116 1.57565 -0.0334293 0
M  V30 567 C 54.4576 1.92262 0.645226 0
M  V30 568 C 54.7906 0.910543 1.71531 0
M  V30 569 O 54.0656 -0.066099 1.94388 0
M  V30 570 C 54.3486 3.37422 1.2577 0
M  V30 571 C 54.2016 4.49369 0.196891 0
M  V30 572 C 55.5206 3.82628 2.17449 0
M  V30 573 H 52.6396 0.699171 0.233085 0
M  V30 574 H 55.2816 1.89779 -0.0915694 0
M  V30 575 H 53.4316 3.39669 1.88566 0
M  V30 576 H 55.1036 4.59254 -0.433962 0
M  V30 577 H 53.3466 4.31168 -0.477137 0
M  V30 578 H 54.0176 5.47978 0.665124 0
M  V30 579 H 56.4936 3.82145 1.64634 0
M  V30 580 H 55.3696 4.84883 2.57254 0
M  V30 581 H 55.6306 3.18376 3.0674 0
M  V30 582 N 54.6897 -0.239769 1.55765 0
M  V30 583 C 55.6527 -1.28038 1.90103 0
M  V30 584 C 56.6527 -1.40723 0.778055 0
M  V30 585 O 57.8427 -1.39301 1.04599 0
M  V30 586 C 54.9747 -2.65702 2.13577 0
M  V30 587 H 56.1677 -0.988048 2.83157 0
M  V30 588 H 53.7207 -0.479382 1.48767 0
M  V30 589 H 54.4557 -3.00063 1.23015 0
M  V30 590 H 54.2407 -2.57875 2.95369 0
M  V30 591 H 55.7307 -3.40828 2.41301 0
M  V30 592 N 56.1678 -1.49265 -0.50573 0
M  V30 593 C 57.4078 -1.60128 -1.27038 0
M  V30 594 C 57.7718 -0.279557 -1.89954 0
M  V30 595 O 58.9728 -0.263329 -2.67507 0
M  V30 596 C 57.2438 -2.72507 -2.31246 0
M  V30 597 S 58.8028 -3.0329 -3.17113 0
M  V30 598 H 55.6208 -0.564863 -0.4318 0
M  V30 599 H 58.2228 -1.86902 -0.573397 0
M  V30 600 H 56.9268 -3.67068 -1.83546 0
M  V30 601 H 56.4578 -2.4771 -3.05619 0
M  V30 602 H 58.4728 -2.44448 -4.31809 0
M  V30 603 N 57.6459 0.756429 -1.3826 0
M  V30 604 C 58.6089 1.85176 -1.35065 0
M  V30 605 C 59.6089 1.58818 -0.251703 0
M  V30 606 O 60.7989 1.66615 -0.508433 0
M  V30 607 C 57.9309 3.22596 -1.10201 0
M  V30 608 H 59.1239 1.89417 -2.3251 0
M  V30 609 H 56.6769 0.95783 -1.23512 0
M  V30 610 H 57.4119 3.24025 -0.133504 0
M  V30 611 H 57.1969 3.43122 -1.89762 0
M  V30 612 H 58.6869 4.02673 -1.10654 0
M  V30 613 N 59.124 1.23083 0.984299 0
M  V30 614 C 60.054 1.03292 2.09411 0
M  V30 615 C 61.035 -0.048923 1.7003 0
M  V30 616 O 62.22 0.114967 1.93859 0
M  V30 617 C 59.35 0.619155 3.41736 0
M  V30 618 C 58.304 1.64791 3.95004 0
M  V30 619 C 57.63 1.0897 5.23478 0
M  V30 620 C 58.93 3.03999 4.24714 0
M  V30 621 H 60.624 1.96119 2.26225 0
M  V30 622 H 58.17 0.944344 1.08711 0
M  V30 623 H 60.123 0.467777 4.18796 0
M  V30 624 H 58.847 -0.344786 3.24775 0
M  V30 625 H 57.506 1.78721 3.20085 0
M  V30 626 H 57.154 0.11686 5.02864 0
M  V30 627 H 56.854 1.77704 5.60085 0
M  V30 628 H 58.378 0.950093 6.03163 0
M  V30 629 H 59.792 2.93393 4.92538 0
M  V30 630 H 58.189 3.69936 4.72512 0
M  V30 631 H 59.259 3.53285 3.32142 0
M  V30 632 N 60.6021 -1.18246 1.0419 0
M  V30 633 C 61.8501 -1.87886 0.744543 0
M  V30 634 C 62.1711 -1.8082 -0.730006 0
M  V30 635 O 61.4411 -1.22736 -1.52685 0
M  V30 636 H 60.0211 -0.695556 0.272417 0
M  V30 637 H 62.6831 -1.43494 1.31892 0
M  V30 638 H 61.7791 -2.9389 1.05049 0
M  V30 639 N 62.0802 -0.821533 -1.34494 0
M  V30 640 C 63.3262 -0.409552 -1.98622 0
M  V30 641 C 63.6592 1.0244 -1.64984 0
M  V30 642 O 62.9342 1.71325 -0.920758 0
M  V30 643 C 63.2172 -0.610458 -3.54888 0
M  V30 644 C 63.0702 -2.09043 -3.98273 0
M  V30 645 C 64.3892 -0.0455379 -4.40076 0
M  V30 646 H 61.5082 -0.15028 -0.721516 0
M  V30 647 H 64.1502 -1.03384 -1.59411 0
M  V30 648 H 62.3002 -0.079044 -3.8842 0
M  V30 649 H 63.9722 -2.68537 -3.75081 0
M  V30 650 H 62.2152 -2.58139 -3.48635 0
M  V30 651 H 62.8862 -2.18182 -5.07051 0
M  V30 652 H 65.3622 -0.499557 -4.1309 0
M  V30 653 H 64.2382 -0.215922 -5.48475 0
M  V30 654 H 64.4992 1.04939 -4.29465 0
M  V30 655 N 63.5583 1.46682 -0.576371 0
M  V30 656 C 64.4883 2.33028 0.148397 0
M  V30 657 C 65.4693 1.44961 0.889956 0
M  V30 658 O 66.6543 1.73789 0.866662 0
M  V30 659 C 63.7843 3.27117 1.1667 0
M  V30 660 C 62.7383 4.24575 0.540386 0
M  V30 661 C 62.0643 5.08126 1.6647 0
M  V30 662 C 63.3643 5.19722 -0.518331 0
M  V30 663 H 65.0583 2.93875 -0.572509 0
M  V30 664 H 62.6043 1.41315 -0.276768 0
M  V30 665 H 64.5573 3.86374 1.68204 0
M  V30 666 H 63.2813 2.64364 1.9178 0
M  V30 667 H 61.9403 3.66571 0.0461769 0
M  V30 668 H 61.5883 4.41762 2.40531 0
M  V30 669 H 61.2883 5.74122 1.25131 0
M  V30 670 H 62.8123 5.70246 2.18293 0
M  V30 671 H 64.2263 5.73232 -0.0883058 0
M  V30 672 H 62.6233 5.94026 -0.851679 0
M  V30 673 H 63.6933 4.64037 -1.40703 0
M  V30 674 N 65.0364 0.313813 1.54444 0
M  V30 675 C 65.9994 -0.54379 2.22656 0
M  V30 676 C 66.9994 -1.05124 1.21678 0
M  V30 677 O 68.1894 -0.945225 1.46325 0
M  V30 678 C 65.3214 -1.75427 2.92298 0
M  V30 679 H 66.5144 0.0523599 2.99854 0
M  V30 680 H 64.0674 0.0647834 1.56166 0
M  V30 681 H 64.8024 -2.38991 2.19211 0
M  V30 682 H 64.5874 -1.39791 3.66334 0
M  V30 683 H 66.0774 -2.36325 3.44297 0
M  V30 684 N 66.5145 -1.57545 0.0417849 0
M  V30 685 C 67.4775 -2.09885 -0.92093 0
M  V30 686 C 68.4775 -1.01648 -1.24596 0
M  V30 687 O 69.6675 -1.27759 -1.1842 0
M  V30 688 C 66.7995 -2.57527 -2.23367 0
M  V30 689 H 67.9925 -2.96236 -0.467382 0
M  V30 690 H 65.5455 -1.5493 -0.206467 0
M  V30 691 H 66.2805 -1.74542 -2.73323 0
M  V30 692 H 66.0655 -3.36613 -2.01083 0
M  V30 693 H 67.5555 -2.98201 -2.92346 0
M  V30 694 N 67.9926 0.231505 -1.5589 0
M  V30 695 C 69.2406 0.955461 -1.78088 0
M  V30 696 C 69.5616 1.85262 -0.608533 0
M  V30 697 O 68.8316 1.92277 0.375035 0
M  V30 698 H 67.4116 0.355787 -0.656829 0
M  V30 699 H 70.0736 0.245751 -1.93344 0
M  V30 700 H 69.1696 1.56814 -2.69844 0
M  V30 701 N 69.4707 1.49531 0.497807 0
M  V30 702 C 70.4337 1.65916 1.58128 0
M  V30 703 C 71.4337 0.530825 1.51786 0
M  V30 704 O 72.6237 0.797342 1.54881 0
M  V30 705 C 69.7557 1.65951 2.9778 0
M  V30 706 H 70.9487 2.62556 1.44929 0
M  V30 707 H 68.5017 1.38611 0.722275 0
M  V30 708 H 69.2367 0.709065 3.16453 0
M  V30 709 H 69.0217 2.47897 3.03792 0
M  V30 710 H 70.5117 1.80673 3.76493 0
M  V30 711 N 70.9488 -0.749086 1.3866 0
M  V30 712 C 72.3648 -1.05276 1.19955 0
M  V30 713 C 72.5648 -2.01435 0.05134 0
M  V30 714 O 71.6208 -2.45232 -0.60147 0
M  V30 715 C 72.9338 -1.62853 2.52783 0
M  V30 716 C 74.4818 -1.75002 2.59506 0
M  V30 717 C 74.9568 -2.35991 3.92521 0
M  V30 718 N 76.4478 -2.43416 3.94085 0
M  V30 719 C 77.1828 -2.91511 4.9377 0
M  V30 720 N 76.6788 -3.39608 6.03853 0
M  V30 721 N 78.4718 -2.90592 4.81157 0
M  V30 722 H 70.6228 -0.111066 2.12109 0
M  V30 723 H 72.8858 -0.111901 0.941373 0
M  V30 724 H 72.5918 -0.99664 3.37283 0
M  V30 725 H 72.4658 -2.61854 2.715 0
M  V30 726 H 74.8528 -2.37317 1.75398 0
M  V30 727 H 74.9338 -0.74693 2.44652 0
M  V30 728 H 74.5778 -1.74308 4.77053 0
M  V30 729 H 74.5078 -3.3695 4.04688 0
M  V30 730 H 76.9988 -2.09405 3.14576 0
M  V30 731 H 77.3118 -3.74775 6.75843 0
M  V30 732 H 75.6568 -3.37653 6.07466 0
M  V30 733 H 78.8478 -2.52332 3.94267 0
M  V30 734 H 79.0208 -3.27762 5.58996 0
M  V30 735 N 72.4269 -1.23603 -0.977757 0
M  V30 736 C 73.3899 -1.02069 -2.05218 0
M  V30 737 C 74.3899 0.0184305 -1.60789 0
M  V30 738 O 75.5799 -0.221569 -1.72785 0
M  V30 739 C 72.7119 -0.544926 -3.36517 0
M  V30 740 H 73.9049 -1.9742 -2.25755 0
M  V30 741 H 71.4579 -1.05684 -1.15155 0
M  V30 742 H 72.1929 0.412241 -3.21669 0
M  V30 743 H 71.9779 -1.2948 -3.70105 0
M  V30 744 H 73.4679 -0.414985 -4.15533 0
M  V30 745 N 73.905 1.17692 -1.04816 0
M  V30 746 C 75.133 1.91786 -0.776254 0
M  V30 747 C 75.548 1.76604 0.667577 0
M  V30 748 O 74.905 1.10067 1.45573 0
M  V30 749 C 74.956 3.42967 -1.14263 0
M  V30 750 O 74.677 3.57678 -2.52978 0
M  V30 751 C 76.178 4.34144 -0.896311 0
M  V30 752 H 73.398 0.608624 -0.282519 0
M  V30 753 H 75.942 1.49268 -1.39783 0
M  V30 754 H 74.097 3.83245 -0.565874 0
M  V30 755 H 74.511 4.51319 -2.67229 0
M  V30 756 H 75.985 5.38744 -1.20244 0
M  V30 757 H 76.462 4.38876 0.168636 0
M  V30 758 H 77.068 3.99574 -1.45672 0
M  V30 759 N 75.3831 0.828654 1.34056 0
M  V30 760 C 76.6111 0.43262 2.02326 0
M  V30 761 C 77.0261 -0.963147 1.62385 0
M  V30 762 O 76.3831 -1.62425 0.832121 0
M  V30 763 C 76.4341 0.53182 3.57567 0
M  V30 764 O 76.1551 1.87258 3.96063 0
M  V30 765 C 77.6561 0.131422 4.43105 0
M  V30 766 H 74.8761 0.172923 0.648335 0
M  V30 767 H 77.4201 1.1184 1.71208 0
M  V30 768 H 75.5751 -0.105938 3.87255 0
M  V30 769 H 75.9891 1.85087 4.90758 0
M  V30 770 H 77.4631 0.251904 5.51425 0
M  V30 771 H 77.9401 -0.925645 4.29335 0
M  V30 772 H 78.5461 0.743207 4.18756 0
M  V30 773 N 76.8612 -1.46375 0.584142 0
M  V30 774 C 78.2772 -1.57694 0.245929 0
M  V30 775 C 78.4772 -1.57903 -1.25175 0
M  V30 776 O 77.5332 -1.49676 -2.03355 0
M  V30 777 C 78.8462 -2.87028 0.896402 0
M  V30 778 C 80.3942 -3.00662 0.870127 0
M  V30 779 C 80.8692 -4.32734 1.50017 0
M  V30 780 N 82.3602 -4.39436 1.46458 0
M  V30 781 C 83.0952 -5.40248 1.92144 0
M  V30 782 N 82.5912 -6.47726 2.4581 0
M  V30 783 N 84.3842 -5.31459 1.83052 0
M  V30 784 H 76.5352 -1.44483 1.55687 0
M  V30 785 H 78.7982 -0.689291 0.650831 0
M  V30 786 H 78.5042 -2.9269 1.95002 0
M  V30 787 H 78.3782 -3.75014 0.405486 0
M  V30 788 H 80.7652 -2.94581 -0.174871 0
M  V30 789 H 80.8462 -2.14148 1.39908 0
M  V30 790 H 80.4902 -4.39573 2.54437 0
M  V30 791 H 80.4202 -5.18025 0.946432 0
M  V30 792 H 82.9112 -3.62367 1.07231 0
M  V30 793 H 83.2242 -7.20863 2.78525 0
M  V30 794 H 81.5692 -6.48542 2.49836 0
M  V30 795 H 84.7602 -4.46396 1.40883 0
M  V30 796 H 84.9332 -6.09881 2.18973 0
M  V30 797 N 78.3393 -0.321999 -1.54275 0
M  V30 798 C 79.5673 0.283052 -2.04955 0
M  V30 799 C 79.9823 1.45904 -1.19823 0
M  V30 800 O 79.3393 1.81063 -0.228545 0
M  V30 801 C 79.3903 0.719028 -3.54277 0
M  V30 802 O 79.1113 -0.410175 -4.36176 0
M  V30 803 C 80.6123 1.38705 -4.21041 0
M  V30 804 H 77.8323 0.0584616 -0.668448 0
M  V30 805 H 80.3763 -0.467734 -1.99079 0
M  V30 806 H 78.5313 1.41979 -3.60445 0
M  V30 807 H 78.9453 -0.0669416 -5.24457 0
M  V30 808 H 80.4193 1.64306 -5.2698 0
M  V30 809 H 80.8963 2.33385 -3.72059 0
M  V30 810 H 81.5023 0.728906 -4.19007 0
M  V30 811 N 79.8174 1.5752 -0.0501392 0
M  V30 812 C 80.7274 2.14952 0.939827 0
M  V30 813 C 81.7434 1.10706 1.34239 0
M  V30 814 O 82.9194 1.42869 1.41952 0
M  V30 815 C 79.9844 2.68232 2.19665 0
M  V30 816 C 79.0454 3.87272 1.85253 0
M  V30 817 C 78.2784 4.38002 3.04943 0
M  V30 818 O 78.5014 3.87811 4.18281 0
M  V30 819 O 77.4354 5.29602 2.86017 0
M  V30 820 H 81.2614 2.9986 0.481392 0
M  V30 821 H 78.8464 1.4841 0.171699 0
M  V30 822 H 80.7284 3.02475 2.93406 0
M  V30 823 H 79.4034 1.86395 2.64648 0
M  V30 824 H 78.3104 3.5792 1.0883 0
M  V30 825 H 79.6434 4.70336 1.4507 0
M  V30 826 N 81.2955 -0.223234 1.56011 0
M  V30 827 C 82.2255 -1.27988 1.95298 0
M  V30 828 C 83.2065 -1.48976 0.820979 0
M  V30 829 O 84.3915 -1.61188 1.08315 0
M  V30 830 C 81.5215 -2.63 2.26822 0
M  V30 831 C 80.4755 -2.56671 3.42497 0
M  V30 832 C 79.8015 -3.95697 3.59622 0
M  V30 833 C 81.1015 -2.11601 4.77517 0
M  V30 834 H 82.7955 -0.953525 2.8381 0
M  V30 835 H 80.3415 -0.457244 1.36548 0
M  V30 836 H 82.2945 -3.37077 2.52898 0
M  V30 837 H 81.0185 -2.9732 1.35161 0
M  V30 838 H 79.6775 -1.85051 3.16467 0
M  V30 839 H 79.3255 -4.27322 2.6534 0
M  V30 840 H 79.0255 -3.92345 4.37424 0
M  V30 841 H 80.5495 -4.71438 3.88044 0
M  V30 842 H 81.9635 -2.7542 5.02809 0
M  V30 843 H 80.3605 -2.19311 5.5859 0
M  V30 844 H 81.4305 -1.06824 4.72987 0
M  V30 845 N 82.7736 -1.49793 -0.48987 0
M  V30 846 C 84.0016 -1.63568 -1.26701 0
M  V30 847 C 84.4166 -0.311465 -1.86213 0
M  V30 848 O 83.7736 0.704416 -1.68357 0
M  V30 849 C 83.8246 -2.71284 -2.38929 0
M  V30 850 O 83.5456 -3.9857 -1.81861 0
M  V30 851 C 85.0466 -2.95864 -3.3012 0
M  V30 852 H 82.2666 -0.550342 -0.383881 0
M  V30 853 H 84.8106 -1.95898 -0.586864 0
M  V30 854 H 82.9656 -2.417 -3.02753 0
M  V30 855 H 83.3796 -4.57993 -2.55622 0
M  V30 856 H 84.8536 -3.74941 -4.05121 0
M  V30 857 H 85.3306 -2.06206 -3.87783 0
M  V30 858 H 85.9366 -3.26907 -2.72051 0
M  V30 859 N 84.2517 0.741722 -1.39055 0
M  V30 860 C 85.4797 1.53098 -1.39171 0
M  V30 861 C 85.8947 1.88794 0.0155099 0
M  V30 862 O 85.2517 1.53626 0.985159 0
M  V30 863 C 85.3027 2.82274 -2.2584 0
M  V30 864 O 85.0237 2.48097 -3.61081 0
M  V30 865 C 86.5247 3.76343 -2.34266 0
M  V30 866 H 83.7447 0.473335 -0.4756 0
M  V30 867 H 86.2887 0.917045 -1.82785 0
M  V30 868 H 84.4437 3.40015 -1.85656 0
M  V30 869 H 84.8577 3.31029 -4.06842 0
M  V30 870 H 86.3317 4.63898 -2.9917 0
M  V30 871 H 86.8087 4.17619 -1.35982 0
M  V30 872 H 87.4147 3.24523 -2.74891 0
M  V30 873 N 85.7298 1.2412 0.971189 0
M  V30 874 C 86.6598 1.05508 2.08304 0
M  V30 875 C 87.6408 -0.0308864 1.70072 0
M  V30 876 O 88.8258 0.135521 1.93727 0
M  V30 877 C 85.9558 0.655365 3.4106 0
M  V30 878 C 84.9098 1.68971 3.93234 0
M  V30 879 C 84.2358 1.14516 5.22293 0
M  V30 880 C 85.5358 3.08487 4.21465 0
M  V30 881 H 87.2298 1.98507 2.24132 0
M  V30 882 H 84.7758 0.955821 1.07704 0
M  V30 883 H 86.7288 0.51217 4.18276 0
M  V30 884 H 85.4528 -0.31032 3.25122 0
M  V30 885 H 84.1118 1.82106 3.18171 0
M  V30 886 H 83.7598 0.170189 5.02712 0
M  V30 887 H 83.4598 1.83635 5.58168 0
M  V30 888 H 84.9838 1.01401 6.02121 0
M  V30 889 H 86.3978 2.98601 4.89398 0
M  V30 890 H 84.7948 3.74926 4.68562 0
M  V30 891 H 85.8648 3.56787 3.28376 0
M  V30 892 N 87.2079 -1.17134 1.05439 0
M  V30 893 C 88.1379 -2.2342 0.678649 0
M  V30 894 C 89.1189 -1.66971 -0.32476 0
M  V30 895 O 90.3039 -1.93149 -0.201802 0
M  V30 896 C 87.4339 -3.47256 0.0552099 0
M  V30 897 C 86.3879 -4.16543 0.98365 0
M  V30 898 C 85.7139 -5.34231 0.223961 0
M  V30 899 C 87.0139 -4.68495 2.3089 0
M  V30 900 H 88.7079 -2.55105 1.56722 0
M  V30 901 H 86.2539 -1.2262 0.754998 0
M  V30 902 H 88.2069 -4.20828 -0.21946 0
M  V30 903 H 86.9309 -3.14846 -0.868319 0
M  V30 904 H 85.5899 -3.44887 1.24293 0
M  V30 905 H 85.2379 -4.98071 -0.702412 0
M  V30 906 H 84.9379 -5.81527 0.842627 0
M  V30 907 H 86.4619 -6.10585 -0.0433671 0
M  V30 908 H 87.8759 -5.33691 2.09396 0
M  V30 909 H 86.2729 -5.26379 2.88176 0
M  V30 910 H 87.3429 -3.85169 2.94572 0
M  V30 911 N 88.686 -0.835752 -1.33615 0
M  V30 912 C 89.934 -0.429109 -1.97492 0
M  V30 913 C 90.255 1.01433 -1.66543 0
M  V30 914 O 89.525 1.70611 -0.962744 0
M  V30 915 H 88.105 -0.155686 -0.730596 0
M  V30 916 H 90.767 -1.06802 -1.63031 0
M  V30 917 H 89.863 -0.55861 -3.0706 0
M  V30 918 N 90.1641 1.46063 -0.591896 0
M  V30 919 C 91.3921 2.06717 -0.0868936 0
M  V30 920 C 91.8071 1.43916 1.22203 0
M  V30 921 O 91.1641 0.547698 1.74088 0
M  V30 922 C 91.2151 3.6142 0.0758725 0
M  V30 923 O 90.9361 4.21874 -1.18126 0
M  V30 924 C 92.4371 4.39025 0.61416 0
M  V30 925 H 89.6571 0.668162 -0.0616518 0
M  V30 926 H 92.2011 1.8755 -0.815175 0
M  V30 927 H 90.3561 3.79983 0.754413 0
M  V30 928 H 90.7701 5.14861 -1.00092 0
M  V30 929 H 92.2441 5.4783 0.677193 0
M  V30 930 H 92.7211 4.07708 1.63312 0
M  V30 931 H 93.3271 4.2529 -0.0298142 0
M  V30 932 N 91.6422 0.330177 1.54103 0
M  V30 933 C 92.9192 -0.325007 1.92881 0
M  V30 934 C 93.2992 -1.6934 1.26045 0
M  V30 935 O 92.6472 -2.24855 0.406526 0
M  V30 936 C 92.8572 -0.410634 3.46576 0
M  V30 937 C 94.2052 -0.667801 4.19316 0
M  V30 938 O 95.2292 -0.49329 3.52768 0
M  V30 939 O 94.0882 -1.00491 5.37181 0
M  V30 940 H 91.1822 -0.186873 0.80561 0
M  V30 941 H 93.7282 0.380376 1.65382 0
M  V30 942 H 92.5002 0.550164 3.87413 0
M  V30 943 H 92.1232 -1.16333 3.802 0
M  V30 944 N 93.1203 -1.57491 0.0584922 0
M  V30 945 C 94.5313 -1.80526 -0.476138 0
M  V30 946 C 94.8823 -0.971334 -1.70469 0
M  V30 947 O 94.0073 -0.190012 -2.15564 0
M  V30 948 C 94.6023 -3.27424 -0.870587 0
M  V30 949 C 93.1613 -3.51351 -1.35015 0
M  V30 950 C 92.3083 -2.75343 -0.32887 0
M  V30 951 H 95.2593 -1.56133 0.284312 0
M  V30 952 H 95.2803 -3.38745 -1.73299 0
M  V30 953 H 94.7923 -3.88093 0.0237627 0
M  V30 954 H 92.8933 -2.95971 -2.26345 0
M  V30 955 H 93.0063 -4.60059 -1.33726 0
M  V30 956 H 91.3703 -2.417 -0.803321 0
M  V30 957 H 92.1533 -3.38743 0.557521 0
M  V30 958 N 94.5984 0.214957 -1.56127 0
M  V30 959 C 95.5614 1.24997 -1.92116 0
M  V30 960 C 96.5614 1.39467 -0.800344 0
M  V30 961 O 97.7514 1.37619 -1.06802 0
M  V30 962 C 94.8834 2.62271 -2.17777 0
M  V30 963 H 96.0764 0.942875 -2.84693 0
M  V30 964 H 93.6294 0.455654 -1.49511 0
M  V30 965 H 94.3644 2.98068 -1.27773 0
M  V30 966 H 94.1494 2.53143 -2.99434 0
M  V30 967 H 95.6394 3.36946 -2.46693 0
M  V30 968 N 96.0765 1.50051 0.48192 0
M  V30 969 C 97.4875 1.5348 1.06305 0
M  V30 970 C 97.8385 0.331997 1.93371 0
M  V30 971 O 96.9635 -0.556256 2.09129 0
M  V30 972 C 97.5585 2.7813 1.93466 0
M  V30 973 C 96.1175 2.84275 2.46707 0
M  V30 974 C 95.2645 2.47637 1.24785 0
M  V30 975 H 98.2155 1.56472 0.264995 0
M  V30 976 H 98.2365 2.59372 2.78399 0
M  V30 977 H 97.7485 3.65654 1.30072 0
M  V30 978 H 95.8495 2.01077 3.13686 0
M  V30 979 H 95.9625 3.8691 2.82555 0
M  V30 980 H 94.3265 1.99835 1.57918 0
M  V30 981 H 95.1095 3.37457 0.630694 0
M  V30 982 N 97.5546 -0.734337 1.39446 0
M  V30 983 C 98.4846 -1.86155 1.40955 0
M  V30 984 C 99.4656 -1.67898 0.272827 0
M  V30 985 O 100.651 -1.88207 0.478743 0
M  V30 986 C 97.7806 -3.23912 1.25294 0
M  V30 987 C 96.7346 -3.56808 2.36373 0
M  V30 988 C 96.0606 -4.93508 2.058 0
M  V30 989 C 97.3606 -3.59713 3.78687 0
M  V30 990 H 99.0546 -1.8515 2.35287 0
M  V30 991 H 96.6006 -0.889367 1.13253 0
M  V30 992 H 98.5536 -4.02443 1.2497 0
M  V30 993 H 97.2776 -3.25446 0.274308 0
M  V30 994 H 95.9366 -2.80606 2.35914 0
M  V30 995 H 95.5846 -4.91623 1.06374 0
M  V30 996 H 95.2846 -5.16486 2.80208 0
M  V30 997 H 96.8086 -5.74396 2.07128 0
M  V30 998 H 98.2226 -4.2832 3.81071 0
M  V30 999 H 96.6196 -3.94209 4.52459 0
M  V30 1000 H 97.6896 -2.59504 4.09617 0
M  V30 1001 N 99.0327 -1.24633 -0.964593 0
M  V30 1002 C 99.9627 -1.06611 -2.07741 0
M  V30 1003 C 100.944 0.0218666 -1.70086 0
M  V30 1004 O 102.129 -0.145793 -1.93652 0
M  V30 1005 C 99.2587 -0.673444 -3.40708 0
M  V30 1006 C 98.2127 -1.71054 -3.92332 0
M  V30 1007 C 97.5387 -1.17285 -5.21678 0
M  V30 1008 C 98.8387 -3.10718 -4.19824 0
M  V30 1009 H 100.533 -1.99693 -2.23076 0
M  V30 1010 H 98.0787 -0.96152 -1.07195 0
M  V30 1011 H 100.032 -0.534345 -4.17998 0
M  V30 1012 H 98.7557 0.293073 -3.25282 0
M  V30 1013 H 97.4147 -1.83791 -3.17201 0
M  V30 1014 H 97.0627 -0.196847 -5.02615 0
M  V30 1015 H 96.7627 -1.86592 -5.57187 0
M  V30 1016 H 98.2867 -1.04593 -6.01575 0
M  V30 1017 H 99.7007 -3.01192 -4.87808 0
M  V30 1018 H 98.0977 -3.77406 -4.66567 0
M  V30 1019 H 99.1677 -3.58524 -3.26479 0
M  V30 1020 N 100.511 1.16574 -1.06058 0
M  V30 1021 C 101.474 2.19085 -0.673392 0
M  V30 1022 C 102.474 1.5835 0.279648 0
M  V30 1023 O 103.664 1.74088 0.0623488 0
M  V30 1024 C 100.796 3.40899 0.00954234 0
M  V30 1025 H 101.989 2.54853 -1.58081 0
M  V30 1026 H 99.5418 1.30808 -0.855516 0
M  V30 1027 H 100.277 3.10684 0.929826 0
M  V30 1028 H 100.062 3.86233 -0.67573 0
M  V30 1029 H 101.552 4.1675 0.266245 0
M  V30 1030 N 101.989 0.842826 1.3317 0
M  V30 1031 C 102.952 0.284065 2.27433 0
M  V30 1032 C 103.952 -0.54948 1.5112 0
M  V30 1033 O 105.142 -0.362699 1.70382 0
M  V30 1034 C 102.274 -0.599384 3.35589 0
M  V30 1035 H 103.467 1.11589 2.78366 0
M  V30 1036 H 101.02 0.616221 1.4364 0
M  V30 1037 H 101.755 -1.45349 2.89904 0
M  V30 1038 H 101.54 -0.00291266 3.921 0
M  V30 1039 H 103.03 -0.983488 4.05854 0
M  V30 1040 N 103.467 -1.45747 0.599634 0
M  V30 1041 C 104.397 -2.33235 -0.111306 0
M  V30 1042 C 105.378 -1.46359 -0.866781 0
M  V30 1043 O 106.563 -1.75146 -0.838904 0
M  V30 1044 C 103.693 -3.28932 -1.11451 0
M  V30 1045 C 102.647 -4.25381 -0.472772 0
M  V30 1046 C 101.973 -5.1071 -1.58365 0
M  V30 1047 C 103.273 -5.18831 0.600948 0
M  V30 1048 H 104.967 -2.92927 0.61919 0
M  V30 1049 H 102.513 -1.40857 0.299215 0
M  V30 1050 H 104.466 -3.89002 -1.62036 0
M  V30 1051 H 103.19 -2.67381 -1.8755 0
M  V30 1052 H 101.849 -3.66598 0.0121472 0
M  V30 1053 H 101.497 -4.45533 -2.33473 0
M  V30 1054 H 101.197 -5.7604 -1.15982 0
M  V30 1055 H 102.721 -5.73647 -2.09194 0
M  V30 1056 H 104.135 -5.73019 0.179491 0
M  V30 1057 H 102.532 -5.92595 0.946076 0
M  V30 1058 H 103.602 -4.6174 1.48068 0
M  V30 1059 N 104.945 -0.338344 -1.53925 0
M  V30 1060 C 106.222 0.314774 -1.93051 0
M  V30 1061 C 106.602 1.68669 -1.26941 0
M  V30 1062 O 105.95 2.24636 -0.418445 0
M  V30 1063 C 106.16 0.392249 -3.46789 0
M  V30 1064 C 107.508 0.645554 -4.19664 0
M  V30 1065 O 108.532 0.474575 -3.53024 0
M  V30 1066 O 107.391 0.976408 -5.37707 0
M  V30 1067 H 104.485 0.182598 -0.80659 0
M  V30 1068 H 107.031 -0.389141 -1.65178 0
M  V30 1069 H 105.803 -0.570702 -3.87116 0
M  V30 1070 H 105.426 1.14316 -3.80812 0
M  V30 1071 N 106.423 1.57458 -0.0668435 0
M  V30 1072 C 107.839 1.56947 0.289772 0
M  V30 1073 C 108.039 1.07584 1.70376 0
M  V30 1074 O 107.095 0.739486 2.41429 0
M  V30 1075 C 108.408 3.0052 0.103943 0
M  V30 1076 C 109.956 3.12517 0.173857 0
M  V30 1077 C 110.431 4.57997 0.0163682 0
M  V30 1078 N 111.922 4.63144 0.0721352 0
M  V30 1079 C 112.657 5.73394 -0.0253794 0
M  V30 1080 N 112.153 6.92576 -0.176133 0
M  V30 1081 N 113.946 5.62091 0.0313305 0
M  V30 1082 H 106.097 1.87863 -0.991027 0
M  V30 1083 H 108.36 0.86583 -0.38606 0
M  V30 1084 H 108.066 3.40729 -0.871572 0
M  V30 1085 H 107.94 3.67304 0.858366 0
M  V30 1086 H 110.327 2.72197 1.13985 0
M  V30 1087 H 110.408 2.48381 -0.611586 0
M  V30 1088 H 110.052 4.99005 -0.946374 0
M  V30 1089 H 109.982 5.20158 0.821153 0
M  V30 1090 H 112.473 3.77436 0.187263 0
M  V30 1091 H 112.786 7.72418 -0.242821 0
M  V30 1092 H 111.131 6.94678 -0.211429 0
M  V30 1093 H 114.322 4.67867 0.147773 0
M  V30 1094 H 114.495 6.47982 -0.048121 0
M  V30 1095 N 107.901 -0.206675 1.56239 0
M  V30 1096 C 108.864 -1.23976 1.92776 0
M  V30 1097 C 109.864 -1.39041 0.807729 0
M  V30 1098 O 111.054 -1.37051 1.0753 0
M  V30 1099 C 108.186 -2.61112 2.19165 0
M  V30 1100 H 109.379 -0.927764 2.85189 0
M  V30 1101 H 106.932 -0.447718 1.4975 0
M  V30 1102 H 107.667 -2.97386 1.29352 0
M  V30 1103 H 107.452 -2.51552 3.00772 0
M  V30 1104 H 108.942 -3.35633 2.48476 0
M  V30 1105 N 109.379 -1.50304 -0.473955 0
M  V30 1106 C 110.625 -1.61389 -1.22806 0
M  V30 1107 C 110.958 -0.311955 -1.91678 0
M  V30 1108 O 110.233 0.686384 -1.81986 0
M  V30 1109 C 110.516 -2.79219 -2.27396 0
M  V30 1110 C 110.369 -4.19286 -1.62848 0
M  V30 1111 C 111.688 -2.92614 -3.28732 0
M  V30 1112 H 108.807 -0.587399 -0.445119 0
M  V30 1113 H 111.449 -1.82681 -0.522265 0
M  V30 1114 H 109.599 -2.61195 -2.87592 0
M  V30 1115 H 111.271 -4.48892 -1.06271 0
M  V30 1116 H 109.514 -4.23677 -0.931693 0
M  V30 1117 H 110.185 -4.97655 -2.38838 0
M  V30 1118 H 112.661 -3.09105 -2.78556 0
M  V30 1119 H 111.537 -3.76688 -3.99246 0
M  V30 1120 H 111.798 -2.03107 -3.92683 0
M  V30 1121 N 110.857 0.726932 -1.39834 0
M  V30 1122 C 111.82 1.82269 -1.38962 0
M  V30 1123 C 112.82 1.58248 -0.285334 0
M  V30 1124 O 114.01 1.65499 -0.54366 0
M  V30 1125 C 111.142 3.20186 -1.17019 0
M  V30 1126 H 112.335 1.84443 -2.36476 0
M  V30 1127 H 109.888 0.931416 -1.25516 0
M  V30 1128 H 110.623 3.23669 -0.202204 0
M  V30 1129 H 110.408 3.3902 -1.96998 0
M  V30 1130 H 111.898 4.00235 -1.1917 0
M  V30 1131 N 112.336 1.25143 0.95797 0
M  V30 1132 C 113.613 1.00472 1.67823 0
M  V30 1133 C 113.993 -0.470056 2.058 0
M  V30 1134 O 113.341 -1.44663 1.76875 0
M  V30 1135 C 113.551 1.9372 2.90299 0
M  V30 1136 C 114.899 2.21371 3.62326 0
M  V30 1137 O 115.923 1.91451 3.00375 0
M  V30 1138 O 114.782 2.72231 4.7387 0
M  V30 1139 H 111.876 0.380752 0.734137 0
M  V30 1140 H 114.422 1.36283 1.01119 0
M  V30 1141 H 113.194 2.93316 2.59001 0
M  V30 1142 H 112.817 1.58286 3.64735 0
M  V30 1143 N 113.814 -1.1601 1.06675 0
M  V30 1144 C 115.039 -1.91068 0.806706 0
M  V30 1145 C 115.464 -1.77112 -0.633485 0
M  V30 1146 O 114.822 -1.09908 -1.44187 0
M  V30 1147 C 114.87 -3.39655 1.21106 0
M  V30 1148 O 113.974 -4.10893 0.352189 0
M  V30 1149 H 113.315 -0.595125 0.294486 0
M  V30 1150 H 115.845 -1.46955 1.42356 0
M  V30 1151 H 115.855 -3.90434 1.18428 0
M  V30 1152 H 114.53 -3.49132 2.26008 0
M  V30 1153 H 113.107 -3.70285 0.440868 0
M  V30 1154 N 115.292 -0.849877 -1.32721 0
M  V30 1155 C 116.703 -0.506188 -1.79707 0
M  V30 1156 C 117.054 0.975627 -1.70223 0
M  V30 1157 O 116.179 1.76078 -1.25799 0
M  V30 1158 C 116.774 -0.912044 -3.26293 0
M  V30 1159 C 115.333 -0.620326 -3.71253 0
M  V30 1160 C 114.48 -1.11439 -2.53922 0
M  V30 1161 H 117.431 -1.03754 -1.20087 0
M  V30 1162 H 117.452 -0.226493 -3.79825 0
M  V30 1163 H 116.964 -1.99057 -3.33164 0
M  V30 1164 H 115.065 0.447674 -3.69901 0
M  V30 1165 H 115.178 -1.18327 -4.64258 0
M  V30 1166 H 113.542 -0.534834 -2.49021 0
M  V30 1167 H 114.325 -2.19992 -2.6355 0
M  V30 1168 N 116.77 1.45427 -0.607355 0
M  V30 1169 C 118.047 1.9557 -0.0344566 0
M  V30 1170 C 118.427 1.54979 1.43334 0
M  V30 1171 O 117.775 0.812241 2.13576 0
M  V30 1172 C 117.985 3.48226 -0.232321 0
M  V30 1173 C 119.333 4.2445 -0.113001 0
M  V30 1174 O 120.357 3.55829 -0.162431 0
M  V30 1175 O 119.216 5.465 0.00209442 0
M  V30 1176 H 116.31 0.826222 0.0358667 0
M  V30 1177 H 118.856 1.55594 -0.6774 0
M  V30 1178 H 117.628 3.70739 -1.25174 0
M  V30 1179 H 117.251 3.95092 0.445896 0
M  V30 1180 N 118.248 0.346503 1.53744 0
M  V30 1181 C 119.178 -0.501193 2.28058 0
M  V30 1182 C 120.159 -1.10014 1.29734 0
M  V30 1183 O 121.344 -1.12097 1.58581 0
M  V30 1184 C 118.474 -1.65078 3.05559 0
M  V30 1185 C 117.428 -1.18003 4.11411 0
M  V30 1186 C 116.754 -2.41837 4.76884 0
M  V30 1187 C 118.054 -0.278394 5.21558 0
M  V30 1188 H 119.748 0.11875 2.99164 0
M  V30 1189 H 117.294 0.0585531 1.43881 0
M  V30 1190 H 119.247 -2.25028 3.56287 0
M  V30 1191 H 117.971 -2.29767 2.32109 0
M  V30 1192 H 116.63 -0.603331 3.61601 0
M  V30 1193 H 116.278 -3.0494 4.00026 0
M  V30 1194 H 115.978 -2.1102 5.48402 0
M  V30 1195 H 117.502 -3.02508 5.30397 0
M  V30 1196 H 118.916 -0.784823 5.67903 0
M  V30 1197 H 117.313 -0.0619707 6.00068 0
M  V30 1198 H 118.383 0.684677 4.80042 0
M  V30 1199 N 119.726 -1.57421 0.075193 0
M  V30 1200 C 120.689 -2.11791 -0.876203 0
M  V30 1201 C 121.689 -1.04268 -1.22412 0
M  V30 1202 O 122.879 -1.30242 -1.15684 0
M  V30 1203 C 120.011 -2.62207 -2.17854 0
M  V30 1204 H 121.204 -2.9716 -0.40444 0
M  V30 1205 H 118.757 -1.55333 -0.173557 0
M  V30 1206 H 119.492 -1.803 -2.6956 0
M  V30 1207 H 119.277 -3.40802 -1.93897 0
M  V30 1208 H 120.767 -3.04335 -2.85955 0
M  V30 1209 N 121.204 0.198386 -1.56346 0
M  V30 1210 C 122.429 0.939682 -1.84891 0
M  V30 1211 C 122.854 1.76202 -0.658369 0
M  V30 1212 O 122.212 1.76993 0.392851 0
M  V30 1213 C 122.26 1.81428 -3.11635 0
M  V30 1214 O 121.364 2.91265 -2.91956 0
M  V30 1215 H 120.705 0.264807 -0.608912 0
M  V30 1216 H 123.235 0.204695 -2.03573 0
M  V30 1217 H 123.245 2.21958 -3.42343 0
M  V30 1218 H 121.92 1.21004 -3.97908 0
M  V30 1219 H 120.497 2.54514 -2.72538 0
M  V30 1220 N 122.682 1.50554 0.465978 0
M  V30 1221 C 124.098 1.38093 0.800154 0
M  V30 1222 C 124.298 0.440988 1.96615 0
M  V30 1223 O 123.354 -0.114499 2.5224 0
M  V30 1224 C 124.667 2.79565 1.10742 0
M  V30 1225 C 126.215 2.88516 1.21357 0
M  V30 1226 C 126.69 4.30833 1.55393 0
M  V30 1227 N 128.181 4.33807 1.62375 0
M  V30 1228 C 128.916 5.40927 1.90225 0
M  V30 1229 N 128.412 6.58247 2.16062 0
M  V30 1230 N 130.205 5.28376 1.9177 0
M  V30 1231 H 122.356 2.10237 -0.302366 0
M  V30 1232 H 124.619 0.945203 -0.0727746 0
M  V30 1233 H 124.325 3.50208 0.323661 0
M  V30 1234 H 124.199 3.17125 2.04234 0
M  V30 1235 H 126.586 2.1809 1.98799 0
M  V30 1236 H 126.667 2.54492 0.258321 0
M  V30 1237 H 126.311 5.01799 0.784889 0
M  V30 1238 H 126.241 4.62347 2.52076 0
M  V30 1239 H 128.732 3.49212 1.44427 0
M  V30 1240 H 129.045 7.3569 2.36601 0
M  V30 1241 H 127.39 6.61413 2.13444 0
M  V30 1242 H 130.581 4.35715 1.71085 0
M  V30 1243 H 130.754 6.11944 2.13139 0
M  V30 1244 N 124.16 -0.719506 1.40217 0
M  V30 1245 C 125.388 -1.50864 1.41589 0
M  V30 1246 C 125.803 -1.88794 0.0145275 0
M  V30 1247 O 125.16 -1.55174 -0.960594 0
M  V30 1248 C 125.211 -2.78646 2.30302 0
M  V30 1249 O 124.932 -2.42321 3.64983 0
M  V30 1250 C 126.433 -3.72569 2.40224 0
M  V30 1251 H 123.653 -0.465709 0.48307 0
M  V30 1252 H 126.197 -0.88785 1.84221 0
M  V30 1253 H 124.352 -3.37019 1.91042 0
M  V30 1254 H 124.766 -3.24514 4.12057 0
M  V30 1255 H 126.24 -4.5908 3.06512 0
M  V30 1256 H 126.717 -4.15403 1.42608 0
M  V30 1257 H 127.323 -3.20109 2.80019 0
M  V30 1258 N 125.638 -1.25649 -0.95132 0
M  V30 1259 C 126.884 -1.10757 -1.69884 0
M  V30 1260 C 127.217 0.350061 -1.91019 0
M  V30 1261 O 126.492 1.25783 -1.48354 0
M  V30 1262 C 126.775 -1.86606 -3.07978 0
M  V30 1263 C 126.628 -3.40217 -2.94232 0
M  V30 1264 C 127.947 -1.65182 -4.07925 0
M  V30 1265 H 125.066 -0.40374 -0.616574 0
M  V30 1266 H 127.708 -1.54521 -1.10558 0
M  V30 1267 H 125.858 -1.49409 -3.58621 0
M  V30 1268 H 127.53 -3.87108 -2.50889 0
M  V30 1269 H 125.773 -3.67759 -2.30078 0
M  V30 1270 H 126.444 -3.88505 -3.92133 0
M  V30 1271 H 128.92 -1.9757 -3.66204 0
M  V30 1272 H 127.796 -2.20683 -5.02583 0
M  V30 1273 H 128.057 -0.593933 -4.38092 0
M  V30 1274 N 127.117 1.15442 -1.07289 0
M  V30 1275 C 128.047 2.22312 -0.714107 0
M  V30 1276 C 129.028 1.67467 0.298155 0
M  V30 1277 O 130.213 1.93445 0.171048 0
M  V30 1278 C 127.343 3.47124 -0.110448 0
M  V30 1279 C 126.297 4.14926 -1.04979 0
M  V30 1280 C 125.623 5.33807 -0.308924 0
M  V30 1281 C 126.923 4.64762 -2.38314 0
M  V30 1282 H 128.617 2.5258 -1.6076 0
M  V30 1283 H 126.163 1.21404 -0.77441 0
M  V30 1284 H 128.116 4.21124 0.152482 0
M  V30 1285 H 126.84 3.16187 0.81812 0
M  V30 1286 H 125.499 3.42866 -1.29764 0
M  V30 1287 H 125.147 4.99126 0.623084 0
M  V30 1288 H 124.847 5.80113 -0.935036 0
M  V30 1289 H 126.371 6.10576 -0.0537771 0
M  V30 1290 H 127.785 5.30292 -2.1786 0
M  V30 1291 H 126.182 5.21728 -2.96514 0
M  V30 1292 H 127.252 3.80434 -3.00663 0
M  V30 1293 N 128.595 0.856903 1.32268 0
M  V30 1294 C 129.841 0.471355 1.97863 0
M  V30 1295 C 130.196 -0.962896 1.66572 0
M  V30 1296 O 129.489 -1.66686 0.944797 0
M  V30 1297 C 129.683 0.649919 3.51441 0
M  V30 1298 C 129.512 2.09997 3.97657 0
M  V30 1299 C 128.282 2.73893 4.2463 0
M  V30 1300 C 130.48 3.07081 4.1256 0
M  V30 1301 N 128.462 4.09786 4.57109 0
M  V30 1302 C 129.833 4.27968 4.48602 0
M  V30 1303 C 131.888 3.03247 3.949 0
M  V30 1304 C 130.591 5.45521 4.68827 0
M  V30 1305 C 132.617 4.20046 4.16311 0
M  V30 1306 C 131.979 5.39692 4.52672 0
M  V30 1307 H 128.078 0.221263 0.750044 0
M  V30 1308 H 130.662 1.10876 1.60045 0
M  V30 1309 H 128.833 0.0421938 3.88377 0
M  V30 1310 H 130.565 0.234044 4.04023 0
M  V30 1311 H 127.32 2.24918 4.16784 0
M  V30 1312 H 127.744 4.7989 4.7753 0
M  V30 1313 H 132.386 2.11863 3.65888 0
M  V30 1314 H 130.104 6.37434 4.96693 0
M  V30 1315 H 133.69 4.18517 4.04147 0
M  V30 1316 H 132.57 6.28566 4.68907 0
M  V30 1317 N 130.073 -1.45103 0.615059 0
M  V30 1318 C 131.319 -2.02483 0.113347 0
M  V30 1319 C 131.652 -1.48146 -1.25564 0
M  V30 1320 O 130.927 -0.659104 -1.82992 0
M  V30 1321 C 131.21 -3.60005 0.0825278 0
M  V30 1322 C 131.063 -4.2466 1.48271 0
M  V30 1323 C 132.382 -4.35972 -0.601401 0
M  V30 1324 H 129.501 -0.735764 0.0426632 0
M  V30 1325 H 132.143 -1.72868 0.788461 0
M  V30 1326 H 130.293 -3.85367 -0.492378 0
M  V30 1327 H 131.965 -4.10458 2.10527 0
M  V30 1328 H 130.208 -3.82772 2.04127 0
M  V30 1329 H 130.879 -5.336 1.41332 0
M  V30 1330 H 133.355 -4.15947 -0.112666 0
M  V30 1331 H 132.231 -5.45697 -0.592097 0
M  V30 1332 H 132.492 -4.09391 -1.66887 0
M  V30 1333 N 131.551 -0.354651 -1.53558 0
M  V30 1334 C 132.776 0.242153 -2.05981 0
M  V30 1335 C 133.201 1.42553 -1.2272 0
M  V30 1336 O 132.559 1.79656 -0.243604 0
M  V30 1337 C 132.607 0.624367 -3.55154 0
M  V30 1338 O 131.711 1.72301 -3.74681 0
M  V30 1339 H 131.052 0.0378432 -0.662921 0
M  V30 1340 H 133.582 -0.512087 -1.98088 0
M  V30 1341 H 133.592 0.898433 -3.97985 0
M  V30 1342 H 132.267 -0.240989 -4.15201 0
M  V30 1343 H 130.844 1.44535 -3.4375 0
M  V30 1344 N 133.029 1.57378 -0.0835403 0
M  V30 1345 C 133.992 2.12252 0.864959 0
M  V30 1346 C 134.992 1.04916 1.21858 0
M  V30 1347 O 136.182 1.30853 1.14991 0
M  V30 1348 C 133.314 2.63358 2.16461 0
M  V30 1349 H 134.507 2.97371 0.388676 0
M  V30 1350 H 132.06 1.55423 0.165317 0
M  V30 1351 H 132.795 1.81727 2.686 0
M  V30 1352 H 132.58 3.41826 1.92087 0
M  V30 1353 H 134.07 3.05847 2.84337 0
M  V30 1354 N 134.507 -0.190092 1.56449 0
M  V30 1355 C 135.784 -0.935886 1.71757 0
M  V30 1356 C 136.164 -2.01173 0.639726 0
M  V30 1357 O 135.512 -2.25827 -0.348502 0
M  V30 1358 C 135.722 -1.51775 3.1427 0
M  V30 1359 C 137.07 -1.99794 3.74656 0
M  V30 1360 O 138.094 -1.61607 3.1743 0
M  V30 1361 O 136.953 -2.70079 4.751 0
M  V30 1362 H 134.047 -0.439229 0.700719 0
M  V30 1363 H 136.593 -0.179395 1.68749 0
M  V30 1364 H 135.365 -0.742505 3.84191 0
M  V30 1365 H 134.988 -2.33894 3.21527 0
M  V30 1366 N 135.985 -1.50799 -0.457987 0
M  V30 1367 C 137.231 -1.62683 -1.21088 0
M  V30 1368 C 137.564 -0.332268 -1.91336 0
M  V30 1369 O 136.839 0.667043 -1.82704 0
M  V30 1370 C 137.122 -2.81615 -2.24422 0
M  V30 1371 C 136.975 -4.20989 -1.58392 0
M  V30 1372 C 138.294 -2.96085 -3.2561 0
M  V30 1373 H 135.413 -0.592087 -0.438864 0
M  V30 1374 H 138.055 -1.83225 -0.50286 0
M  V30 1375 H 136.205 -2.64231 -2.84806 0
M  V30 1376 H 137.877 -4.49994 -1.01504 0
M  V30 1377 H 136.12 -4.24641 -0.886704 0
M  V30 1378 H 136.791 -5.0016 -2.33547 0
M  V30 1379 H 139.267 -3.12042 -2.75262 0
M  V30 1380 H 138.143 -3.80902 -3.95228 0
M  V30 1381 H 138.404 -2.0726 -3.90507 0
M  V30 1382 N 137.463 0.71206 -1.40597 0
M  V30 1383 C 138.874 1.29135 -1.34837 0
M  V30 1384 C 139.225 1.96186 -0.0235395 0
M  V30 1385 O 138.35 1.97768 0.878444 0
M  V30 1386 C 138.945 2.34827 -2.44217 0
M  V30 1387 C 137.504 2.88371 -2.41907 0
M  V30 1388 C 136.651 1.62202 -2.24913 0
M  V30 1389 H 139.602 0.507944 -1.50352 0
M  V30 1390 H 139.623 3.15749 -2.12327 0
M  V30 1391 H 139.135 1.85996 -3.40627 0
M  V30 1392 H 137.236 3.41422 -1.49204 0
M  V30 1393 H 137.349 3.39925 -3.37621 0
M  V30 1394 H 135.713 1.874 -1.72492 0
M  V30 1395 H 136.496 1.15391 -3.23326 0
M  V30 1396 N 138.941 1.26152 0.944643 0
M  V30 1397 C 140.187 1.11657 1.69294 0
M  V30 1398 C 140.52 -0.339926 1.91202 0
M  V30 1399 O 139.795 -1.24994 1.49019 0
M  V30 1400 C 140.078 1.88236 3.06984 0
M  V30 1401 C 139.931 3.41772 2.92424 0
M  V30 1402 C 141.25 1.67343 4.07043 0
M  V30 1403 H 138.369 0.407004 0.614424 0
M  V30 1404 H 141.011 1.55106 1.09737 0
M  V30 1405 H 139.161 1.51308 3.57824 0
M  V30 1406 H 140.833 3.88433 2.48832 0
M  V30 1407 H 139.076 3.68974 2.28124 0
M  V30 1408 H 139.747 3.90579 3.90067 0
M  V30 1409 H 142.223 1.99509 3.65151 0
M  V30 1410 H 141.099 2.23346 5.01406 0
M  V30 1411 H 141.36 0.617158 4.37771 0
M  V30 1412 N 140.419 -1.14872 1.07899 0
M  V30 1413 C 141.835 -1.37776 0.805606 0
M  V30 1414 C 142.035 -1.92743 -0.587555 0
M  V30 1415 O 141.091 -2.13678 -1.34528 0
M  V30 1416 C 142.404 -2.34361 1.88402 0
M  V30 1417 C 143.952 -2.48012 1.90942 0
M  V30 1418 C 144.427 -3.47893 2.97883 0
M  V30 1419 N 145.918 -3.55433 2.97021 0
M  V30 1420 C 146.653 -4.32553 3.76412 0
M  V30 1421 N 146.149 -5.12959 4.65666 0
M  V30 1422 N 147.942 -4.27697 3.64735 0
M  V30 1423 H 140.093 -0.775365 1.97742 0
M  V30 1424 H 142.356 -0.403521 0.857831 0
M  V30 1425 H 142.062 -2.01098 2.88535 0
M  V30 1426 H 141.936 -3.34206 1.74889 0
M  V30 1427 H 144.323 -2.8057 0.914579 0
M  V30 1428 H 144.404 -1.48147 2.08534 0
M  V30 1429 H 144.048 -3.16069 3.97571 0
M  V30 1430 H 143.978 -4.47527 2.77538 0
M  V30 1431 H 146.469 -2.98048 2.32326 0
M  V30 1432 H 146.782 -5.69065 5.22862 0
M  V30 1433 H 145.127 -5.12245 4.69712 0
M  V30 1434 H 148.318 -3.63949 2.94378 0
M  V30 1435 H 148.491 -4.8755 4.26848 0
M  V30 1436 N 141.898 -0.863906 -1.31812 0
M  V30 1437 C 143.123 -0.48527 -2.01643 0
M  V30 1438 C 143.548 0.913058 -1.64453 0
M  V30 1439 O 142.906 1.6014 -0.849985 0
M  V30 1440 C 142.954 -0.642625 -3.54828 0
M  V30 1441 O 142.058 0.320659 -4.11151 0
M  V30 1442 H 141.399 -0.193793 -0.635091 0
M  V30 1443 H 143.929 -1.16565 -1.68148 0
M  V30 1444 H 143.939 -0.533628 -4.04495 0
M  V30 1445 H 142.614 -1.66227 -3.81237 0
M  V30 1446 H 141.191 0.167126 -3.72525 0
M  V30 1447 N 143.376 1.44774 -0.622745 0
M  V30 1448 C 144.601 2.06999 -0.128968 0
M  V30 1449 C 145.026 1.4617 1.1839 0
M  V30 1450 O 144.384 0.560007 1.72434 0
M  V30 1451 C 144.432 3.60595 -0.0188351 0
M  V30 1452 O 143.536 3.99398 1.02739 0
M  V30 1453 H 142.877 0.659047 -0.0809544 0
M  V30 1454 H 145.407 1.85784 -0.85705 0
M  V30 1455 H 145.417 4.07627 0.174476 0
M  V30 1456 H 144.092 4.04252 -0.977384 0
M  V30 1457 H 142.669 3.64011 0.809326 0
M  V30 1458 N 144.854 0.36279 1.53368 0
M  V30 1459 C 146.101 -0.227776 2.01215 0
M  V30 1460 C 146.429 -1.49003 1.25014 0
M  V30 1461 O 145.684 -1.92876 0.331236 0
M  V30 1462 C 145.983 -0.568417 3.52851 0
M  V30 1463 C 145.649 0.59918 4.46901 0
M  V30 1464 C 144.311 0.919559 4.72332 0
M  V30 1465 C 146.663 1.38156 5.02556 0
M  V30 1466 C 143.991 2.02434 5.5067 0
M  V30 1467 C 146.343 2.47674 5.821 0
M  V30 1468 C 145.007 2.8025 6.05819 0
M  V30 1469 H 144.277 -0.083349 0.736297 0
M  V30 1470 H 146.924 0.494677 1.85001 0
M  V30 1471 H 145.229 -1.37185 3.66998 0
M  V30 1472 H 146.926 -1.03756 3.87344 0
M  V30 1473 H 143.516 0.339437 4.27254 0
M  V30 1474 H 147.7 1.14729 4.82857 0
M  V30 1475 H 142.956 2.28075 5.67267 0
M  V30 1476 H 147.13 3.08716 6.24234 0
M  V30 1477 H 144.757 3.65979 6.66306 0
M  V30 1478 N 146.332 -1.57332 0.0918853 0
M  V30 1479 C 147.748 -1.57389 -0.264766 0
M  V30 1480 C 147.948 -1.10281 -1.68643 0
M  V30 1481 O 147.004 -0.777801 -2.40222 0
M  V30 1482 C 148.317 -3.00648 -0.0561195 0
M  V30 1483 C 149.865 -3.12754 -0.124116 0
M  V30 1484 C 150.34 -4.57965 0.0564972 0
M  V30 1485 N 151.831 -4.632 0.00155611 0
M  V30 1486 C 152.566 -5.73281 0.116598 0
M  V30 1487 N 152.062 -6.92208 0.286294 0
M  V30 1488 N 153.855 -5.6207 0.0580973 0
M  V30 1489 H 146.006 -1.86262 1.02079 0
M  V30 1490 H 148.269 -0.859579 0.399786 0
M  V30 1491 H 147.975 -3.393 0.925669 0
M  V30 1492 H 147.849 -3.68623 -0.799823 0
M  V30 1493 H 150.236 -2.73976 -1.09641 0
M  V30 1494 H 150.317 -2.47377 0.651024 0
M  V30 1495 H 149.961 -4.97436 1.02564 0
M  V30 1496 H 149.891 -5.21399 -0.738297 0
M  V30 1497 H 152.382 -3.77686 -0.127192 0
M  V30 1498 H 152.695 -7.71934 0.365676 0
M  V30 1499 H 151.04 -6.94254 0.32192 0
M  V30 1500 H 154.231 -4.68043 -0.0733204 0
M  V30 1501 H 154.404 -6.47824 0.151203 0
M  V30 1502 N 147.81 0.181792 -1.56548 0
M  V30 1503 C 148.773 1.20894 -1.94724 0
M  V30 1504 C 149.773 1.37738 -0.829747 0
M  V30 1505 O 150.963 1.35323 -1.09697 0
M  V30 1506 C 148.095 2.57593 -2.23291 0
M  V30 1507 H 149.288 0.882275 -2.86629 0
M  V30 1508 H 146.841 0.423838 -1.50444 0
M  V30 1509 H 147.576 2.95291 -1.34067 0
M  V30 1510 H 147.361 2.46735 -3.04736 0
M  V30 1511 H 148.851 3.31637 -2.53785 0
M  V30 1512 N 149.288 1.51039 0.449983 0
M  V30 1513 C 150.516 1.66869 1.2232 0
M  V30 1514 C 150.931 0.360727 1.85322 0
M  V30 1515 O 150.288 -0.659531 1.70166 0
M  V30 1516 C 150.339 2.77524 2.31652 0
M  V30 1517 O 150.06 4.03252 1.7123 0
M  V30 1518 C 151.561 3.04512 3.2216 0
M  V30 1519 H 148.781 0.560326 0.369155 0
M  V30 1520 H 151.325 1.97385 0.534719 0
M  V30 1521 H 149.48 2.49642 2.96239 0
M  V30 1522 H 149.894 4.64609 2.43389 0
M  V30 1523 H 151.368 3.85551 3.95038 0
M  V30 1524 H 151.845 2.16415 3.8218 0
M  V30 1525 H 152.451 3.34005 2.63288 0
M  V30 1526 N 150.766 -0.704594 1.40972 0
M  V30 1527 C 152.012 -1.46675 1.40051 0
M  V30 1528 C 152.345 -1.94199 0.00641102 0
M  V30 1529 O 151.62 -1.68916 -0.964235 0
M  V30 1530 C 151.903 -2.68505 2.39952 0
M  V30 1531 C 151.756 -2.26805 3.88432 0
M  V30 1532 C 153.075 -3.70686 2.37233 0
M  V30 1533 H 150.194 -0.532015 0.510028 0
M  V30 1534 H 152.836 -0.803255 1.72185 0
M  V30 1535 H 150.986 -3.25114 2.1268 0
M  V30 1536 H 152.658 -1.75592 4.26574 0
M  V30 1537 H 150.901 -1.58685 4.03734 0
M  V30 1538 H 151.572 -3.14181 4.53866 0
M  V30 1539 H 154.048 -3.23731 2.61415 0
M  V30 1540 H 152.924 -4.53553 3.09162 0
M  V30 1541 H 153.185 -4.19754 1.38777 0
M  V30 1542 N 152.244 -1.26651 -0.937939 0
M  V30 1543 C 153.194 -1.05156 -2.02302 0
M  V30 1544 C 154.178 0.0171233 -1.60891 0
M  V30 1545 O 155.37 -0.200213 -1.75864 0
M  V30 1546 C 152.499 -0.689962 -3.36295 0
M  V30 1547 C 151.585 -1.79626 -3.84181 0
M  V30 1548 N 151.976 -3.03422 -4.04684 0
M  V30 1549 C 150.274 -1.6806 -4.13124 0
M  V30 1550 C 150.975 -3.75345 -4.444 0
M  V30 1551 N 149.951 -3.03051 -4.51288 0
M  V30 1552 H 153.753 -1.99117 -2.1617 0
M  V30 1553 H 151.267 -1.17216 -1.12402 0
M  V30 1554 H 153.264 -0.517112 -4.13681 0
M  V30 1555 H 151.924 0.242139 -3.23796 0
M  V30 1556 H 152.935 -3.39293 -3.91281 0
M  V30 1557 H 149.612 -0.818629 -4.09396 0
M  V30 1558 H 151.002 -4.81691 -4.68427 0
M  V30 1559 N 153.722 1.14298 -1.08507 0
M  V30 1560 C 154.999 1.81544 -0.728088 0
M  V30 1561 C 155.379 1.95838 0.78808 0
M  V30 1562 O 154.727 1.51904 1.70697 0
M  V30 1563 C 154.937 3.17169 -1.45619 0
M  V30 1564 C 156.285 3.9265 -1.61591 0
M  V30 1565 O 157.309 3.26762 -1.41793 0
M  V30 1566 O 156.168 5.10807 -1.94263 0
M  V30 1567 H 153.262 0.78491 -0.260471 0
M  V30 1568 H 155.808 1.21307 -1.18671 0
M  V30 1569 H 154.58 3.01934 -2.489 0
M  V30 1570 H 154.203 3.851 -0.989124 0
M  V30 1571 N 155.201 0.870884 1.31352 0
M  V30 1572 C 156.617 0.562932 1.49343 0
M  V30 1573 C 156.817 -0.902725 1.80148 0
M  V30 1574 O 155.873 -1.68484 1.88067 0
M  V30 1575 C 157.186 1.46393 2.62659 0
M  V30 1576 C 158.734 1.46607 2.76542 0
M  V30 1577 C 159.209 2.35266 3.92955 0
M  V30 1578 N 160.7 2.33151 4.00243 0
M  V30 1579 C 161.435 2.98471 4.89594 0
M  V30 1580 N 160.931 3.72964 5.8384 0
M  V30 1581 N 162.724 2.87775 4.82848 0
M  V30 1582 H 154.875 1.81923 1.09626 0
M  V30 1583 H 157.138 0.777934 0.541777 0
M  V30 1584 H 156.844 2.50689 2.46674 0
M  V30 1585 H 156.718 1.16314 3.58819 0
M  V30 1586 H 159.105 0.43069 2.9194 0
M  V30 1587 H 159.186 1.8071 1.81046 0
M  V30 1588 H 158.83 3.38881 3.78315 0
M  V30 1589 H 158.76 1.98487 4.87761 0
M  V30 1590 H 161.251 1.79006 3.32814 0
M  V30 1591 H 161.564 4.19932 6.4875 0
M  V30 1592 H 159.909 3.77073 5.83816 0
M  V30 1593 H 163.1 2.29116 4.08195 0
M  V30 1594 H 163.273 3.38961 5.52277 0
M  V30 1595 N 156.679 -1.44442 0.630414 0
M  V30 1596 C 158.09 -1.85434 0.217063 0
M  V30 1597 C 158.441 -1.52748 -1.23136 0
M  V30 1598 O 157.566 -0.965205 -1.93682 0
M  V30 1599 C 158.161 -3.36581 0.387168 0
M  V30 1600 C 156.72 -3.76389 0.0283297 0
M  V30 1601 C 155.867 -2.68296 0.700889 0
M  V30 1602 H 158.818 -1.34919 0.83562 0
M  V30 1603 H 158.839 -3.78657 -0.374086 0
M  V30 1604 H 158.351 -3.60339 1.44144 0
M  V30 1605 H 156.452 -3.58246 -1.02423 0
M  V30 1606 H 156.565 -4.77095 0.437892 0
M  V30 1607 H 154.929 -2.54335 0.136267 0
M  V30 1608 H 155.712 -2.94887 1.75774 0
M  V30 1609 N 158.157 -0.370918 -1.53173 0
M  V30 1610 C 159.434 0.273754 -1.93675 0
M  V30 1611 C 159.814 1.65938 -1.3049 0
M  V30 1612 O 159.162 2.23698 -0.465999 0
M  V30 1613 C 159.372 0.318602 -3.47543 0
M  V30 1614 C 160.72 0.556392 -4.20939 0
M  V30 1615 O 161.744 0.399587 -3.53952 0
M  V30 1616 O 160.603 0.862133 -5.39657 0
M  V30 1617 H 157.697 0.165448 -0.810281 0
M  V30 1618 H 160.243 -0.42409 -1.64315 0
M  V30 1619 H 159.015 -0.652687 -3.85818 0
M  V30 1620 H 158.638 1.06212 -3.83151 0
M  V30 1621 N 159.635 1.57281 -0.100228 0
M  V30 1622 C 160.86 1.99302 0.573881 0
M  V30 1623 C 161.285 0.979059 1.60611 0
M  V30 1624 O 160.643 -0.0517803 1.81226 0
M  V30 1625 C 160.691 3.40274 1.19358 0
M  V30 1626 O 159.795 3.41676 2.30935 0
M  V30 1627 H 159.136 0.647944 0.145138 0
M  V30 1628 H 161.666 2.03779 -0.183156 0
M  V30 1629 H 161.676 3.78078 1.53365 0
M  V30 1630 H 160.351 4.13594 0.437385 0
M  V30 1631 H 158.928 3.15672 1.98509 0
M  V30 1632 N 161.113 -0.173488 1.56642 0
M  V30 1633 C 162.39 -0.917617 1.7274 0
M  V30 1634 C 162.77 -2.00484 0.661027 0
M  V30 1635 O 162.118 -2.26184 -0.32453 0
M  V30 1636 C 162.328 -1.48433 3.15862 0
M  V30 1637 C 163.676 -1.95809 3.76754 0
M  V30 1638 O 164.7 -1.58231 3.19126 0
M  V30 1639 O 163.559 -2.65024 4.77938 0
M  V30 1640 H 160.653 -0.431772 0.705338 0
M  V30 1641 H 163.199 -0.161487 1.6893 0
M  V30 1642 H 161.971 -0.701715 3.84957 0
M  V30 1643 H 161.594 -2.30471 3.23989 0
M  V30 1644 N 162.591 -1.51276 -0.441967 0
M  V30 1645 C 163.837 -1.63958 -1.19355 0
M  V30 1646 C 164.17 -0.352543 -1.90973 0
M  V30 1647 O 163.445 0.647627 -1.83401 0
M  V30 1648 C 163.728 -2.83979 -2.21422 0
M  V30 1649 C 163.581 -4.22646 -1.53918 0
M  V30 1650 C 164.9 -2.99521 -3.22451 0
M  V30 1651 H 162.019 -0.596709 -0.432559 0
M  V30 1652 H 164.661 -1.83748 -0.483398 0
M  V30 1653 H 162.811 -2.67237 -2.81987 0
M  V30 1654 H 164.483 -4.51045 -0.967256 0
M  V30 1655 H 162.726 -4.25558 -0.841615 0
M  V30 1656 H 163.397 -5.02609 -2.28229 0
M  V30 1657 H 165.873 -3.14944 -2.71937 0
M  V30 1658 H 164.749 -3.85072 -3.91166 0
M  V30 1659 H 165.01 -2.11391 -3.88287 0
M  V30 1660 N 164.069 0.697108 -1.41344 0
M  V30 1661 C 165.485 1.00751 -1.2378 0
M  V30 1662 C 165.685 2.01105 -0.126066 0
M  V30 1663 O 164.741 2.47295 0.51004 0
M  V30 1664 C 166.054 1.53359 -2.58653 0
M  V30 1665 C 167.602 1.6525 -2.65822 0
M  V30 1666 C 168.077 2.2126 -4.01009 0
M  V30 1667 N 169.568 2.28622 -4.02847 0
M  V30 1668 C 170.303 2.72984 -5.04249 0
M  V30 1669 N 169.799 3.16962 -6.16041 0
M  V30 1670 N 171.592 2.72534 -4.91611 0
M  V30 1671 H 163.743 0.0322662 -2.12375 0
M  V30 1672 H 166.006 0.0768853 -0.944877 0
M  V30 1673 H 165.712 0.870773 -3.4075 0
M  V30 1674 H 165.586 2.51597 -2.81032 0
M  V30 1675 H 167.973 2.30644 -1.84086 0
M  V30 1676 H 168.054 0.655614 -2.47256 0
M  V30 1677 H 167.698 1.56482 -4.83193 0
M  V30 1678 H 167.628 3.21698 -4.16915 0
M  V30 1679 H 170.119 1.97585 -3.22131 0
M  V30 1680 H 170.432 3.49434 -6.89287 0
M  V30 1681 H 168.777 3.14875 -6.1958 0
M  V30 1682 H 171.968 2.37525 -4.0336 0
M  V30 1683 H 172.141 3.06789 -5.70775 0
M  V30 1684 N 165.547 1.27147 0.931209 0
M  V30 1685 C 166.775 1.16082 1.71267 0
M  V30 1686 C 167.19 -0.282772 1.8667 0
M  V30 1687 O 166.547 -1.19283 1.38122 0
M  V30 1688 C 166.598 1.8358 3.11417 0
M  V30 1689 O 166.319 3.22299 2.96741 0
M  V30 1690 C 167.82 1.78597 4.05732 0
M  V30 1691 H 165.04 0.403758 0.535929 0
M  V30 1692 H 167.584 1.67953 1.16671 0
M  V30 1693 H 165.739 1.35623 3.62885 0
M  V30 1694 H 166.153 3.55851 3.85319 0
M  V30 1695 H 167.627 2.30444 5.01597 0
M  V30 1696 H 168.104 0.754564 4.3267 0
M  V30 1697 H 168.71 2.26152 3.60188 0
M  V30 1698 N 167.025 -1.13721 1.09112 0
M  V30 1699 C 167.988 -2.17222 0.731241 0
M  V30 1700 C 168.988 -1.59035 -0.237566 0
M  V30 1701 O 170.178 -1.74192 -0.0161704 0
M  V30 1702 C 167.31 -3.40804 0.0808443 0
M  V30 1703 H 168.503 -2.50573 1.64783 0
M  V30 1704 H 166.056 -1.28493 0.889897 0
M  V30 1705 H 166.791 -3.1304 -0.847127 0
M  V30 1706 H 166.576 -3.84306 0.777896 0
M  V30 1707 H 168.066 -4.1731 -0.155657 0
M  V30 1708 N 168.503 -0.877838 -1.30888 0
M  V30 1709 C 169.78 -0.413052 -1.91189 0
M  V30 1710 C 170.16 1.1056 -1.79832 0
M  V30 1711 O 169.508 1.93771 -1.21099 0
M  V30 1712 C 169.718 -0.903191 -3.3711 0
M  V30 1713 C 171.066 -0.93395 -4.14201 0
M  V30 1714 O 172.09 -0.849373 -3.45925 0
M  V30 1715 O 170.949 -1.05772 -5.36167 0
M  V30 1716 H 168.043 -0.125035 -0.817493 0
M  V30 1717 H 170.589 -0.966269 -1.39504 0
M  V30 1718 H 169.361 -1.94692 -3.39427 0
M  V30 1719 H 168.984 -0.328732 -3.96239 0
M  V30 1720 N 169.982 1.44106 -0.638065 0
M  V30 1721 C 171.229 2.01978 -0.14533 0
M  V30 1722 C 171.557 1.50234 1.23532 0
M  V30 1723 O 170.812 0.679548 1.83523 0
M  V30 1724 C 171.111 3.5729 -0.0887327 0
M  V30 1725 C 170.777 4.28317 -1.40909 0
M  V30 1726 C 169.439 4.47437 -1.77069 0
M  V30 1727 C 171.791 4.6867 -2.28031 0
M  V30 1728 C 169.119 5.04171 -3.00047 0
M  V30 1729 C 171.471 5.26766 -3.50286 0
M  V30 1730 C 170.135 5.44104 -3.86661 0
M  V30 1731 H 169.405 0.739089 -0.0531801 0
M  V30 1732 H 172.052 1.72781 -0.825761 0
M  V30 1733 H 170.357 3.8594 0.675095 0
M  V30 1734 H 172.054 3.99807 0.309145 0
M  V30 1735 H 168.644 4.1377 -1.1177 0
M  V30 1736 H 172.828 4.53604 -2.01388 0
M  V30 1737 H 168.084 5.15782 -3.28298 0
M  V30 1738 H 172.258 5.56983 -4.18023 0
M  V30 1739 H 169.885 5.87832 -4.82034 0
M  V30 1740 N 171.46 0.379036 1.52974 0
M  V30 1741 C 172.876 0.0285448 1.59574 0
M  V30 1742 C 173.076 -1.45542 1.39355 0
M  V30 1743 O 172.132 -2.2187 1.20541 0
M  V30 1744 C 173.445 0.496535 2.96572 0
M  V30 1745 C 174.993 0.451909 3.0972 0
M  V30 1746 C 175.468 0.895924 4.49152 0
M  V30 1747 N 176.959 0.851522 4.55306 0
M  V30 1748 C 177.694 1.16661 5.61407 0
M  V30 1749 N 177.19 1.55166 6.752 0
M  V30 1750 N 178.983 1.08853 5.51459 0
M  V30 1751 H 171.134 1.34525 1.64367 0
M  V30 1752 H 173.397 0.550733 0.771619 0
M  V30 1753 H 173.103 1.53258 3.16552 0
M  V30 1754 H 172.977 -0.109802 3.7704 0
M  V30 1755 H 175.364 -0.575029 2.89443 0
M  V30 1756 H 175.445 1.09392 2.3123 0
M  V30 1757 H 175.089 1.92104 4.70168 0
M  V30 1758 H 175.019 0.23103 5.26093 0
M  V30 1759 H 177.51 0.568038 3.73606 0
M  V30 1760 H 177.823 1.776 7.52116 0
M  V30 1761 H 176.168 1.59044 6.76557 0
M  V30 1762 H 179.359 0.786803 4.6144 0
M  V30 1763 H 179.532 1.33742 6.34048 0
M  V30 1764 N 172.938 -1.57226 0.108567 0
M  V30 1765 C 174.166 -1.99179 -0.559954 0
M  V30 1766 C 174.581 -0.988022 -1.60884 0
M  V30 1767 O 173.938 0.0205512 -1.82488 0
M  V30 1768 C 173.989 -3.41159 -1.19552 0
M  V30 1769 O 173.71 -4.37694 -0.188577 0
M  V30 1770 C 175.211 -3.98188 -1.94837 0
M  V30 1771 H 172.431 -0.654228 -0.149088 0
M  V30 1772 H 174.975 -2.03598 0.19183 0
M  V30 1773 H 173.13 -3.37711 -1.89815 0
M  V30 1774 H 173.544 -5.20469 -0.649014 0
M  V30 1775 H 175.018 -4.99644 -2.34648 0
M  V30 1776 H 175.495 -3.3675 -2.81951 0
M  V30 1777 H 176.101 -4.0515 -1.2936 0
M  V30 1778 N 174.416 0.165178 -1.56732 0
M  V30 1779 C 175.364 1.22369 -1.97809 0
M  V30 1780 C 176.358 1.45488 -0.867741 0
M  V30 1781 O 177.564 1.45995 -1.05288 0
M  V30 1782 H 173.939 0.411486 -0.629431 0
M  V30 1783 H 175.91 0.850425 -2.86025 0
M  V30 1784 C 174.659 2.55403 -2.35934 0
M  V30 1785 H 173.982 2.38438 -3.20916 0
M  V30 1786 H 175.422 3.2814 -2.68514 0
M  V30 1787 C 173.881 3.14611 -1.20506 0
M  V30 1788 O 174.411 3.98626 -0.496016 0
M  V30 1789 N 172.617 2.7379 -0.97403 0
M  V30 1790 H 172.164 2.0557 -1.55238 0
M  V30 1791 H 172.122 3.1374 -0.203573 0
M  V30 1792 N 175.894 1.51508 0.433938 0
M  V30 1793 C 177.305 1.56784 1.01369 0
M  V30 1794 C 177.656 0.393349 1.92217 0
M  V30 1795 O 176.781 -0.489441 2.10792 0
M  V30 1796 C 177.376 2.84144 1.8452 0
M  V30 1797 C 175.935 2.9198 2.37539 0
M  V30 1798 C 175.082 2.51482 1.16843 0
M  V30 1799 H 178.033 1.57236 0.215081 0
M  V30 1800 H 178.054 2.68098 2.70007 0
M  V30 1801 H 177.566 3.69607 1.18373 0
M  V30 1802 H 175.667 2.10955 3.0713 0
M  V30 1803 H 175.78 3.95704 2.70103 0
M  V30 1804 H 174.144 2.04758 1.51481 0
M  V30 1805 H 174.927 3.39293 0.523015 0
M  V30 1806 N 177.372 -0.689602 1.41712 0
M  V30 1807 C 178.282 -1.83314 1.46401 0
M  V30 1808 C 179.298 -1.7036 0.35405 0
M  V30 1809 O 180.474 -1.92171 0.602692 0
M  V30 1810 C 177.539 -3.19344 1.34982 0
M  V30 1811 C 176.6 -3.44363 2.56344 0
M  V30 1812 C 175.833 -4.73904 2.45461 0
M  V30 1813 O 176.056 -5.508 1.48241 0
M  V30 1814 O 174.99 -4.99839 3.35328 0
M  V30 1815 H 178.816 -1.82314 2.42889 0
M  V30 1816 H 176.401 -0.843438 1.23315 0
M  V30 1817 H 178.283 -4.00547 1.3092 0
M  V30 1818 H 176.958 -3.21014 0.41612 0
M  V30 1819 H 175.865 -2.63067 2.65982 0
M  V30 1820 H 177.198 -3.47512 3.48563 0
M  V30 1821 N 178.85 -1.27639 -0.924453 0
M  V30 1822 C 180.098 -1.13941 -1.66918 0
M  V30 1823 C 180.419 0.314589 -1.92446 0
M  V30 1824 O 179.689 1.21964 -1.53303 0
M  V30 1825 H 178.269 -0.418678 -0.618642 0
M  V30 1826 H 180.931 -1.60213 -1.10985 0
M  V30 1827 H 180.027 -1.67094 -2.63602 0
M  V30 1828 N 180.328 1.1314 -1.09713 0
M  V30 1829 C 181.574 1.84757 -0.836224 0
M  V30 1830 C 181.907 1.8347 0.636598 0
M  V30 1831 O 181.182 1.27491 1.46889 0
M  V30 1832 C 181.465 3.32782 -1.37578 0
M  V30 1833 C 181.318 3.42567 -2.91493 0
M  V30 1834 C 182.637 4.28307 -1.01198 0
M  V30 1835 H 179.756 0.67082 -0.305236 0
M  V30 1836 H 182.398 1.3278 -1.35903 0
M  V30 1837 H 180.548 3.77177 -0.931097 0
M  V30 1838 H 182.22 3.06862 -3.44432 0
M  V30 1839 H 180.463 2.83349 -3.28475 0
M  V30 1840 H 181.134 4.46674 -3.24324 0
M  V30 1841 H 183.61 3.91999 -1.39556 0
M  V30 1842 H 182.486 5.30307 -1.41653 0
M  V30 1843 H 182.747 4.42029 0.0794833 0
M  V30 1844 N 181.806 0.884767 1.30421 0
M  V30 1845 C 183.222 0.57874 1.48737 0
M  V30 1846 C 183.422 -0.883567 1.81095 0
M  V30 1847 O 182.478 -1.6648 1.89844 0
M  V30 1848 C 183.791 1.49171 2.61091 0
M  V30 1849 C 185.339 1.49532 2.74971 0
M  V30 1850 C 185.814 2.39421 3.90438 0
M  V30 1851 N 187.305 2.37383 3.97748 0
M  V30 1852 C 188.04 3.03647 4.86401 0
M  V30 1853 N 187.536 3.79136 5.79852 0
M  V30 1854 N 189.329 2.9288 4.79768 0
M  V30 1855 H 181.48 1.83075 1.0769 0
M  V30 1856 H 183.743 0.783637 0.533495 0
M  V30 1857 H 183.449 2.53291 2.44001 0
M  V30 1858 H 183.323 1.20113 3.57565 0
M  V30 1859 H 185.71 0.46163 2.91467 0
M  V30 1860 H 185.791 1.8262 1.79119 0
M  V30 1861 H 185.435 3.42874 3.74699 0
M  V30 1862 H 185.365 2.03649 4.85628 0
M  V30 1863 H 187.856 1.82525 3.30897 0
M  V30 1864 H 188.169 4.26789 6.4426 0
M  V30 1865 H 186.514 3.83243 5.79784 0
M  V30 1866 H 189.705 2.33433 4.05742 0
M  V30 1867 H 189.878 3.448 5.4865 0
M  V30 1868 N 183.284 -1.43765 0.645699 0
M  V30 1869 C 184.247 -2.29163 -0.0409488 0
M  V30 1870 C 185.247 -1.41813 -0.757996 0
M  V30 1871 O 186.437 -1.63527 -0.600382 0
M  V30 1872 C 183.569 -3.23716 -1.06869 0
M  V30 1873 H 184.762 -2.91366 0.710345 0
M  V30 1874 H 182.315 -1.5092 0.406547 0
M  V30 1875 H 183.05 -2.66393 -1.84947 0
M  V30 1876 H 182.835 -3.88105 -0.558277 0
M  V30 1877 H 184.325 -3.87831 -1.54845 0
M  V30 1878 N 184.763 -0.387143 -1.52771 0
M  V30 1879 C 185.991 0.195869 -2.05971 0
M  V30 1880 C 186.406 1.40691 -1.25903 0
M  V30 1881 O 185.763 1.79931 -0.305134 0
M  V30 1882 C 185.814 0.56812 -3.57008 0
M  V30 1883 O 185.535 -0.594803 -4.34043 0
M  V30 1884 C 187.036 1.20723 -4.26545 0
M  V30 1885 H 184.256 0.0300578 -0.670326 0
M  V30 1886 H 186.8 -0.551749 -1.96916 0
M  V30 1887 H 184.955 1.26564 -3.66143 0
M  V30 1888 H 185.369 -0.289322 -5.23701 0
M  V30 1889 H 186.843 1.41807 -5.33474 0
M  V30 1890 H 187.32 2.17395 -3.81623 0
M  V30 1891 H 187.926 0.550535 -4.21722 0
M  V30 1892 N 186.241 1.57166 -0.116904 0
M  V30 1893 C 187.487 1.95412 0.542405 0
M  V30 1894 C 187.82 1.00019 1.66463 0
M  V30 1895 O 187.095 0.0370346 1.94465 0
M  V30 1896 C 187.378 3.43615 1.07708 0
M  V30 1897 C 187.231 4.49781 -0.0415868 0
M  V30 1898 C 188.55 3.93616 1.96861 0
M  V30 1899 H 185.669 0.710543 0.195696 0
M  V30 1900 H 188.311 1.89027 -0.192038 0
M  V30 1901 H 186.461 3.49187 1.70296 0
M  V30 1902 H 188.133 4.56308 -0.676793 0
M  V30 1903 H 186.376 4.28033 -0.705019 0
M  V30 1904 H 187.047 5.50733 0.373717 0
M  V30 1905 H 189.523 3.90335 1.44146 0
M  V30 1906 H 188.399 4.97838 2.3119 0
M  V30 1907 H 188.66 3.34188 2.89432 0
M  V30 1908 N 187.719 -0.156864 1.56817 0
M  V30 1909 C 188.667 -1.21319 1.98455 0
M  V30 1910 C 189.661 -1.45025 0.875444 0
M  V30 1911 O 190.867 -1.45435 1.0606 0
M  V30 1912 H 187.242 -0.408142 0.631605 0
M  V30 1913 H 189.213 -0.835244 2.86472 0
M  V30 1914 C 187.962 -2.54148 2.37285 0
M  V30 1915 H 187.285 -2.36733 3.22176 0
M  V30 1916 H 188.725 -3.26712 2.70251 0
M  V30 1917 C 187.184 -3.13967 1.22173 0
M  V30 1918 O 187.714 -3.98357 0.517149 0
M  V30 1919 N 185.92 -2.7327 0.988536 0
M  V30 1920 H 185.467 -2.04744 1.56326 0
M  V30 1921 H 185.425 -3.13628 0.220209 0
M  V30 1922 N 189.197 -1.51736 -0.425897 0
M  V30 1923 C 190.16 -1.73271 -1.50032 0
M  V30 1924 C 191.16 -0.602639 -1.4908 0
M  V30 1925 O 192.35 -0.87033 -1.509 0
M  V30 1926 C 189.482 -1.79969 -2.89523 0
M  V30 1927 H 190.675 -2.69172 -1.32237 0
M  V30 1928 H 188.228 -1.41899 -0.65532 0
M  V30 1929 H 188.963 -0.859241 -3.1271 0
M  V30 1930 H 188.748 -2.62109 -2.91619 0
M  V30 1931 H 190.238 -1.9843 -3.67444 0
M  V30 1932 N 190.675 0.682077 -1.42076 0
M  V30 1933 C 191.952 1.43755 -1.32642 0
M  V30 1934 C 192.332 2.11063 0.0396611 0
M  V30 1935 O 191.68 2.02701 1.05474 0
M  V30 1936 C 191.89 2.44596 -2.48946 0
M  V30 1937 C 193.238 3.09454 -2.9073 0
M  V30 1938 O 194.262 2.54922 -2.48783 0
M  V30 1939 O 193.121 4.08253 -3.63307 0
M  V30 1940 H 190.215 0.640857 -0.522715 0
M  V30 1941 H 192.761 0.711415 -1.54068 0
M  V30 1942 H 191.533 1.93609 -3.40046 0
M  V30 1943 H 191.156 3.24701 -2.29467 0
M  V30 1944 N 192.153 1.28127 0.917671 0
M  V30 1945 C 193.402 1.14432 1.66097 0
M  V30 1946 C 193.715 -0.307247 1.93172 0
M  V30 1947 O 194.921 -0.565259 2.65551 0
M  V30 1948 C 193.377 2.00015 2.99202 0
M  V30 1949 C 192.985 3.49889 2.79789 0
M  V30 1950 C 194.729 1.94996 3.77064 0
M  V30 1951 C 192.636 4.27636 4.08511 0
M  V30 1952 H 191.566 0.424662 0.62304 0
M  V30 1953 H 194.217 1.52628 1.01868 0
M  V30 1954 H 192.599 1.54672 3.64544 0
M  V30 1955 H 193.773 4.03162 2.23152 0
M  V30 1956 H 192.088 3.56392 2.15345 0
M  V30 1957 H 194.685 2.50354 4.72469 0
M  V30 1958 H 195.028 0.925819 4.05875 0
M  V30 1959 H 195.561 2.38287 3.18534 0
M  V30 1960 H 192.3 5.30615 3.84874 0
M  V30 1961 H 191.82 3.79137 4.64774 0
M  V30 1962 H 193.499 4.37346 4.76799 0
M  V30 1963 N 193.631 -1.12557 1.10312 0
M  V30 1964 C 194.594 -2.16434 0.75424 0
M  V30 1965 C 195.594 -1.59278 -0.220685 0
M  V30 1966 O 196.784 -1.742 0.00230591 0
M  V30 1967 C 193.916 -3.40699 0.116987 0
M  V30 1968 H 195.109 -2.48811 1.67431 0
M  V30 1969 H 192.662 -1.27542 0.903475 0
M  V30 1970 H 193.397 -3.13921 -0.813877 0
M  V30 1971 H 193.182 -3.83459 0.818613 0
M  V30 1972 H 194.672 -4.17451 -0.111387 0
M  V30 1973 N 195.109 -0.891671 -1.2995 0
M  V30 1974 C 196.386 -0.433307 -1.9074 0
M  V30 1975 C 196.766 1.08646 -1.80995 0
M  V30 1976 O 196.114 1.92476 -1.23147 0
M  V30 1977 C 196.324 -0.938895 -3.36134 0
M  V30 1978 C 197.672 -0.977829 -4.13187 0
M  V30 1979 O 198.696 -0.886015 -3.45005 0
M  V30 1980 O 197.555 -1.11453 -5.35015 0
M  V30 1981 H 194.649 -0.133699 -0.816121 0
M  V30 1982 H 197.195 -0.981011 -1.38471 0
M  V30 1983 H 195.967 -1.98281 -3.37343 0
M  V30 1984 H 195.59 -0.37074 -3.95868 0
M  V30 1985 N 196.587 1.43421 -0.653314 0
M  V30 1986 C 197.55 2.29182 0.0287951 0
M  V30 1987 C 198.55 1.42213 0.750465 0
M  V30 1988 O 199.74 1.63843 0.591701 0
M  V30 1989 C 196.872 3.24278 1.05151 0
M  V30 1990 H 198.065 2.90985 -0.725786 0
M  V30 1991 H 195.618 1.50702 -0.414545 0
M  V30 1992 H 196.353 2.6737 1.83532 0
M  V30 1993 H 196.138 3.88396 0.537687 0
M  V30 1994 H 197.628 3.88647 1.52786 0
M  V30 1995 N 198.065 0.39524 1.52563 0
M  V30 1996 C 199.293 -0.184943 2.06072 0
M  V30 1997 C 199.708 -1.40021 1.26647 0
M  V30 1998 O 199.065 -1.79767 0.314672 0
M  V30 1999 C 199.116 -0.549179 3.57304 0
M  V30 2000 O 198.837 0.617813 4.33722 0
M  V30 2001 C 200.338 -1.18459 4.2718 0
M  V30 2002 H 197.558 -0.0265025 0.670476 0
M  V30 2003 H 200.102 0.562184 1.96621 0
M  V30 2004 H 198.257 -1.2462 3.66809 0
M  V30 2005 H 198.671 0.317091 5.23541 0
M  V30 2006 H 200.145 -1.38976 5.34219 0
M  V30 2007 H 200.622 -2.15368 3.82771 0
M  V30 2008 H 201.228 -0.528163 4.22008 0
M  V30 2009 N 199.544 -1.57102 0.125237 0
M  V30 2010 C 200.96 -1.57915 -0.231322 0
M  V30 2011 C 201.16 -1.13833 -1.66266 0
M  V30 2012 O 200.216 -0.828581 -2.38518 0
M  V30 2013 C 201.529 -3.00699 0.00766489 0
M  V30 2014 C 203.077 -3.12947 -0.0577483 0
M  V30 2015 C 203.552 -4.57742 0.153626 0
M  V30 2016 N 205.043 -4.63092 0.0998073 0
M  V30 2017 C 205.778 -5.72905 0.238174 0
M  V30 2018 N 205.274 -6.91445 0.433057 0
M  V30 2019 N 207.067 -5.6182 0.177308 0
M  V30 2020 H 199.218 -1.84055 1.06007 0
M  V30 2021 H 201.481 -0.850905 0.417929 0
M  V30 2022 H 201.187 -3.3726 0.997431 0
M  V30 2023 H 201.061 -3.70236 -0.721452 0
M  V30 2024 H 203.448 -2.7624 -1.03804 0
M  V30 2025 H 203.529 -2.4594 0.70335 0
M  V30 2026 H 203.173 -4.95149 1.13092 0
M  V30 2027 H 203.103 -5.22848 -0.627534 0
M  V30 2028 H 205.594 -3.77871 -0.047051 0
M  V30 2029 H 205.907 -7.70985 0.529332 0
M  V30 2030 H 204.252 -6.93415 0.469109 0
M  V30 2031 H 207.443 -4.68093 0.0259748 0
M  V30 2032 H 207.616 -6.47357 0.288582 0
M  V30 2033 N 201.022 0.148545 -1.56898 0
M  V30 2034 C 202.27 0.859717 -1.82902 0
M  V30 2035 C 202.591 1.81775 -0.70588 0
M  V30 2036 O 201.861 1.93994 0.272586 0
M  V30 2037 H 200.441 0.320469 -0.674766 0
M  V30 2038 H 203.103 0.142918 -1.94375 0
M  V30 2039 H 202.199 1.4229 -2.77777 0
M  V30 2040 N 202.5 1.5196 0.417844 0
M  V30 2041 C 203.433 1.69387 1.52916 0
M  V30 2042 C 204.411 0.541419 1.53321 0
M  V30 2043 O 205.595 0.767695 1.72159 0
M  V30 2044 C 202.722 1.72525 2.91467 0
M  V30 2045 C 201.768 2.93967 3.09008 0
M  V30 2046 S 202.601 4.54461 2.83242 0
M  V30 2047 C 203.757 4.60372 4.24038 0
M  V30 2048 H 203.99 2.63382 1.37903 0
M  V30 2049 H 201.523 1.41889 0.608845 0
M  V30 2050 H 203.481 1.75018 3.7132 0
M  V30 2051 H 202.142 0.796733 3.03827 0
M  V30 2052 H 201.335 2.92619 4.10353 0
M  V30 2053 H 200.937 2.89316 2.37007 0
M  V30 2054 H 203.229 4.37213 5.17544 0
M  V30 2055 H 204.172 5.62273 4.30412 0
M  V30 2056 H 204.58 3.89492 4.08602 0
M  V30 2057 N 203.978 -0.674533 1.42435 0
M  V30 2058 C 205.227 -1.43034 1.42212 0
M  V30 2059 C 205.54 -1.95555 0.0420788 0
M  V30 2060 O 206.746 -2.71374 -0.0827558 0
M  V30 2061 C 205.202 -2.58748 2.50155 0
M  V30 2062 C 204.81 -2.12925 3.94166 0
M  V30 2063 C 206.554 -3.36257 2.59098 0
M  V30 2064 C 204.461 -3.25723 4.93618 0
M  V30 2065 H 203.391 -0.537345 0.528939 0
M  V30 2066 H 206.042 -0.73024 1.68344 0
M  V30 2067 H 204.424 -3.31128 2.17188 0
M  V30 2068 H 205.598 -1.47697 4.36488 0
M  V30 2069 H 203.913 -1.48354 3.89076 0
M  V30 2070 H 206.51 -4.20264 3.30578 0
M  V30 2071 H 206.853 -3.82866 1.63461 0
M  V30 2072 H 207.386 -2.70947 2.9126 0
M  V30 2073 H 204.125 -2.84105 5.90732 0
M  V30 2074 H 203.645 -3.89732 4.55926 0
M  V30 2075 H 205.324 -3.91186 5.15347 0
M  V30 2076 N 205.456 -1.28612 -0.910864 0
M  V30 2077 C 206.872 -1.06381 -1.18976 0
M  V30 2078 C 207.072 0.191998 -2.00583 0
M  V30 2079 O 206.128 0.892869 -2.36187 0
M  V30 2080 C 207.441 -2.31295 -1.92154 0
M  V30 2081 C 208.989 -2.36503 -2.05025 0
M  V30 2082 C 209.464 -3.61191 -2.81612 0
M  V30 2083 N 210.955 -3.61847 -2.89172 0
M  V30 2084 C 211.69 -4.55004 -3.4894 0
M  V30 2085 N 211.186 -5.58482 -4.09963 0
M  V30 2086 N 212.979 -4.42594 -3.46506 0
M  V30 2087 H 205.13 -2.09221 -0.366094 0
M  V30 2088 H 207.393 -0.921003 -0.224629 0
M  V30 2089 H 207.099 -3.228 -1.39618 0
M  V30 2090 H 206.973 -2.37934 -2.9269 0
M  V30 2091 H 209.36 -1.45494 -2.5674 0
M  V30 2092 H 209.441 -2.33857 -1.03657 0
M  V30 2093 H 209.085 -4.52545 -2.30576 0
M  V30 2094 H 209.015 -3.61092 -3.83302 0
M  V30 2095 H 211.506 -2.87022 -2.45819 0
M  V30 2096 H 211.819 -6.25704 -4.53557 0
M  V30 2097 H 210.164 -5.62305 -4.08459 0
M  V30 2098 H 213.355 -3.60953 -2.98045 0
M  V30 2099 H 213.528 -5.15381 -3.92793 0
M  V30 2100 N 206.934 1.1197 -1.10907 0
M  V30 2101 C 207.844 2.21433 -0.774896 0
M  V30 2102 C 208.86 1.72478 0.229657 0
M  V30 2103 O 210.036 2.01288 0.0672008 0
M  V30 2104 C 207.101 3.4602 -0.216986 0
M  V30 2105 C 206.162 4.09791 -1.27944 0
M  V30 2106 C 205.395 5.28431 -0.748055 0
M  V30 2107 O 205.618 5.68823 0.423833 0
M  V30 2108 O 204.552 5.82644 -1.51027 0
M  V30 2109 H 208.378 2.5242 -1.68873 0
M  V30 2110 H 205.963 1.20399 -0.884555 0
M  V30 2111 H 207.845 4.21304 0.090059 0
M  V30 2112 H 206.52 3.16698 0.669633 0
M  V30 2113 H 205.427 3.36265 -1.63941 0
M  V30 2114 H 206.76 4.4328 -2.13925 0
M  V30 2115 N 208.412 0.89855 1.29475 0
M  V30 2116 C 209.342 0.39201 2.30186 0
M  V30 2117 C 210.323 -0.532359 1.61555 0
M  V30 2118 O 211.508 -0.443331 1.89072 0
M  V30 2119 C 208.638 -0.382353 3.45189 0
M  V30 2120 C 207.592 0.451483 4.25612 0
M  V30 2121 C 206.918 -0.450307 5.328 0
M  V30 2122 C 208.218 1.70079 4.93832 0
M  V30 2123 H 209.912 1.23362 2.72804 0
M  V30 2124 H 207.458 0.594638 1.31149 0
M  V30 2125 H 209.411 -0.747451 4.14718 0
M  V30 2126 H 208.135 -1.25774 3.01411 0
M  V30 2127 H 206.794 0.798897 3.57789 0
M  V30 2128 H 206.442 -1.32379 4.85268 0
M  V30 2129 H 206.142 0.103902 5.87508 0
M  V30 2130 H 207.666 -0.811623 6.05182 0
M  V30 2131 H 209.08 1.40549 5.55805 0
M  V30 2132 H 207.477 2.19623 5.58467 0
M  V30 2133 H 208.547 2.43744 4.19186 0
M  V30 2134 N 209.89 -1.43072 0.660911 0
M  V30 2135 C 210.82 -2.33497 -0.0122829 0
M  V30 2136 C 211.801 -1.49903 -0.803925 0
M  V30 2137 O 212.986 -1.78546 -0.763864 0
M  V30 2138 C 210.116 -3.33363 -0.973994 0
M  V30 2139 C 209.07 -4.27003 -0.291928 0
M  V30 2140 C 208.396 -5.16967 -1.36562 0
M  V30 2141 C 209.696 -5.15816 0.820462 0
M  V30 2142 H 211.39 -2.90038 0.742873 0
M  V30 2143 H 208.936 -1.39461 0.358688 0
M  V30 2144 H 210.889 -3.95524 -1.45392 0
M  V30 2145 H 209.613 -2.75095 -1.7604 0
M  V30 2146 H 208.272 -3.66217 0.167623 0
M  V30 2147 H 207.92 -4.55034 -2.14366 0
M  V30 2148 H 207.62 -5.80441 -0.914454 0
M  V30 2149 H 209.144 -5.82003 -1.84675 0
M  V30 2150 H 210.558 -5.71742 0.422366 0
M  V30 2151 H 208.955 -5.8805 1.19656 0
M  V30 2152 H 210.025 -4.55045 1.67518 0
M  V30 2153 N 211.368 -0.403325 -1.52352 0
M  V30 2154 C 212.779 0.0675782 -1.86578 0
M  V30 2155 C 213.13 1.44941 -1.32236 0
M  V30 2156 O 212.255 2.06112 -0.659307 0
M  V30 2157 C 212.85 0.129404 -3.38553 0
M  V30 2158 C 211.409 0.544629 -3.72439 0
M  V30 2159 C 210.556 -0.284551 -2.75836 0
M  V30 2160 H 213.507 -0.620631 -1.46061 0
M  V30 2161 H 213.528 0.94581 -3.68558 0
M  V30 2162 H 213.04 -0.87645 -3.78074 0
M  V30 2163 H 211.141 1.55734 -3.38493 0
M  V30 2164 H 211.254 0.293046 -4.78203 0
M  V30 2165 H 209.618 0.252258 -2.53448 0
M  V30 2166 H 210.401 -1.28865 -3.18196 0
M  V30 2167 N 212.846 1.57033 -0.133567 0
M  V30 2168 C 213.778 2.13176 0.841944 0
M  V30 2169 C 214.791 1.07794 1.22001 0
M  V30 2170 O 215.98 1.35117 1.16643 0
M  V30 2171 C 213.08 2.62847 2.13926 0
M  V30 2172 C 212.253 3.92486 1.93064 0
M  V30 2173 C 211.312 4.27605 3.0666 0
M  V30 2174 O 210.338 4.96168 2.78937 0
M  V30 2175 N 211.54 3.861 4.33483 0
M  V30 2176 H 214.305 2.97503 0.362192 0
M  V30 2177 H 211.866 1.61821 0.05042 0
M  V30 2178 H 213.858 2.83363 2.88942 0
M  V30 2179 H 212.428 1.83319 2.53205 0
M  V30 2180 H 211.648 3.80732 1.02159 0
M  V30 2181 H 212.936 4.77225 1.76447 0
M  V30 2182 H 212.334 3.30828 4.58878 0
M  V30 2183 H 210.891 4.11694 5.05323 0
M  V30 2184 N 214.325 -0.140222 1.56975 0
M  V30 2185 C 215.573 -0.850005 1.83356 0
M  V30 2186 C 215.894 -1.81399 0.71551 0
M  V30 2187 O 215.164 -1.94136 -0.262294 0
M  V30 2188 H 213.744 -0.316886 0.676456 0
M  V30 2189 H 216.406 -0.132608 1.94448 0
M  V30 2190 H 215.502 -1.40814 2.78528 0
M  V30 2191 N 215.803 -1.52179 -0.40978 0
M  V30 2192 C 216.766 -1.74853 -1.48186 0
M  V30 2193 C 217.766 -0.618417 -1.48433 0
M  V30 2194 O 218.956 -0.886286 -1.49969 0
M  V30 2195 C 216.088 -1.8303 -2.87598 0
M  V30 2196 H 217.281 -2.70559 -1.29374 0
M  V30 2197 H 214.834 -1.42586 -0.640233 0
M  V30 2198 H 215.569 -0.89236 -3.11781 0
M  V30 2199 H 215.354 -2.65187 -2.88822 0
M  V30 2200 H 216.844 -2.02316 -3.65319 0
M  V30 2201 N 217.281 0.66697 -1.42791 0
M  V30 2202 C 218.527 1.4291 -1.43891 0
M  V30 2203 C 218.86 1.94114 -0.0578972 0
M  V30 2204 O 218.135 1.71414 0.91911 0
M  V30 2205 C 218.418 2.62049 -2.46987 0
M  V30 2206 C 218.271 2.16426 -3.94309 0
M  V30 2207 C 219.59 3.64266 -2.46978 0
M  V30 2208 H 216.709 0.518306 -0.523954 0
M  V30 2209 H 219.351 0.757321 -1.74255 0
M  V30 2210 H 217.501 3.19361 -2.21225 0
M  V30 2211 H 219.173 1.64221 -4.31079 0
M  V30 2212 H 217.416 1.47925 -4.078 0
M  V30 2213 H 218.087 3.02038 -4.62036 0
M  V30 2214 H 220.563 3.16686 -2.69906 0
M  V30 2215 H 219.439 4.45196 -3.21079 0
M  V30 2216 H 219.7 4.15927 -1.49857 0
M  V30 2217 N 218.759 1.29093 0.90403 0
M  V30 2218 C 219.987 1.19689 1.68766 0
M  V30 2219 C 220.402 -0.243113 1.87228 0
M  V30 2220 O 219.759 -1.16326 1.40621 0
M  V30 2221 C 219.81 1.90144 3.07453 0
M  V30 2222 O 219.531 3.2852 2.89838 0
M  V30 2223 C 221.032 1.87162 4.01852 0
M  V30 2224 H 218.252 0.415035 0.527244 0
M  V30 2225 H 220.796 1.7039 1.13082 0
M  V30 2226 H 218.951 1.43289 3.59926 0
M  V30 2227 H 219.365 3.63944 3.77684 0
M  V30 2228 H 220.839 2.41032 4.96596 0
M  V30 2229 H 221.316 0.84617 4.30972 0
M  V30 2230 H 221.922 2.33741 3.5531 0
M  V30 2231 N 220.237 -1.11381 1.11499 0
M  V30 2232 C 221.648 -1.6465 0.880191 0
M  V30 2233 C 221.999 -1.87199 -0.587434 0
M  V30 2234 O 221.124 -1.60667 -1.44966 0
M  V30 2235 C 221.719 -2.99105 1.59128 0
M  V30 2236 C 220.278 -3.49279 1.40289 0
M  V30 2237 C 219.425 -2.24077 1.63354 0
M  V30 2238 H 222.376 -0.950123 1.27116 0
M  V30 2239 H 222.397 -3.66107 1.03664 0
M  V30 2240 H 221.909 -2.82661 2.65941 0
M  V30 2241 H 220.01 -3.70887 0.356888 0
M  V30 2242 H 220.123 -4.2803 2.15238 0
M  V30 2243 H 218.487 -2.31733 1.05698 0
M  V30 2244 H 219.27 -2.10175 2.71443 0
M  V30 2245 N 221.715 -0.905404 -1.28997 0
M  V30 2246 C 222.992 -0.453513 -1.9027 0
M  V30 2247 C 223.372 1.06721 -1.82137 0
M  V30 2248 O 222.72 1.91159 -1.25182 0
M  V30 2249 C 222.93 -0.974494 -3.35119 0
M  V30 2250 C 224.278 -1.0216 -4.12127 0
M  V30 2251 O 225.302 -0.922557 -3.44046 0
M  V30 2252 O 224.161 -1.17121 -5.33802 0
M  V30 2253 H 221.255 -0.142347 -0.814657 0
M  V30 2254 H 223.801 -0.995642 -1.37423 0
M  V30 2255 H 222.573 -2.01848 -3.35221 0
M  V30 2256 H 222.196 -0.412706 -3.95452 0
M  V30 2257 N 223.193 1.4272 -0.668489 0
M  V30 2258 C 224.123 2.335 -0.000100175 0
M  V30 2259 C 225.104 1.50328 0.795964 0
M  V30 2260 O 226.289 1.78949 0.754385 0
M  V30 2261 C 223.419 3.33874 0.956302 0
M  V30 2262 C 222.373 4.27152 0.269278 0
M  V30 2263 C 221.699 5.17684 1.33818 0
M  V30 2264 C 222.999 5.15373 -0.847805 0
M  V30 2265 H 224.693 2.89639 -0.758244 0
M  V30 2266 H 222.239 1.39269 -0.366079 0
M  V30 2267 H 224.192 3.9629 1.43292 0
M  V30 2268 H 222.916 2.76025 1.74579 0
M  V30 2269 H 221.575 3.66123 -0.187042 0
M  V30 2270 H 221.223 4.56165 2.1195 0
M  V30 2271 H 220.923 5.80918 0.883659 0
M  V30 2272 H 222.447 5.82974 1.81586 0
M  V30 2273 H 223.861 5.7151 -0.452681 0
M  V30 2274 H 222.258 5.87407 -1.22773 0
M  V30 2275 H 223.328 4.5415 -1.69929 0
M  V30 2276 N 224.671 0.411399 1.52136 0
M  V30 2277 C 226.087 0.0623865 1.59478 0
M  V30 2278 C 226.287 -1.42554 1.4241 0
M  V30 2279 O 225.343 -2.19263 1.2522 0
M  V30 2280 C 226.656 0.559331 2.95452 0
M  V30 2281 C 228.204 0.517503 3.08692 0
M  V30 2282 C 228.679 0.990994 4.4715 0
M  V30 2283 N 230.17 0.947908 4.53397 0
M  V30 2284 C 230.905 1.28544 5.58806 0
M  V30 2285 N 230.401 1.69454 6.71757 0
M  V30 2286 N 232.194 1.20526 5.49026 0
M  V30 2287 H 224.345 1.37982 1.61477 0
M  V30 2288 H 226.608 0.566977 0.759764 0
M  V30 2289 H 226.314 1.59938 3.1323 0
M  V30 2290 H 226.188 -0.0298014 3.77188 0
M  V30 2291 H 228.575 -0.513505 2.90598 0
M  V30 2292 H 228.656 1.14272 2.28857 0
M  V30 2293 H 228.3 2.02034 4.65988 0
M  V30 2294 H 228.23 0.34257 5.25485 0
M  V30 2295 H 230.721 0.647157 3.72317 0
M  V30 2296 H 231.034 1.93513 7.48179 0
M  V30 2297 H 229.379 1.73359 6.73032 0
M  V30 2298 H 232.57 0.884505 4.59667 0
M  V30 2299 H 232.743 1.47161 6.31069 0
M  V30 2300 N 226.149 -1.5696 0.141893 0
M  V30 2301 C 227.112 -2.15316 -0.785587 0
M  V30 2302 C 228.112 -1.09366 -1.1788 0
M  V30 2303 O 229.302 -1.35031 -1.10056 0
M  V30 2304 C 226.434 -2.71211 -2.06537 0
M  V30 2305 H 227.627 -2.98608 -0.278041 0
M  V30 2306 H 225.18 -1.5593 -0.107519 0
M  V30 2307 H 225.915 -1.91571 -2.6167 0
M  V30 2308 H 225.7 -3.4872 -1.79268 0
M  V30 2309 H 227.19 -3.16189 -2.72789 0
M  V30 2310 N 227.627 0.131896 -1.57047 0
M  V30 2311 C 228.876 0.84044 -1.83356 0
M  V30 2312 C 229.189 1.81646 -0.725535 0
M  V30 2313 O 230.395 2.57025 -0.874659 0
M  V30 2314 C 228.851 1.54528 -3.25037 0
M  V30 2315 C 228.459 0.610902 -4.43815 0
M  V30 2316 C 230.203 2.23972 -3.60606 0
M  V30 2317 C 228.11 1.31823 -5.76521 0
M  V30 2318 H 227.04 0.317599 -0.683847 0
M  V30 2319 H 229.691 0.0931561 -1.83263 0
M  V30 2320 H 228.073 2.33873 -3.19561 0
M  V30 2321 H 229.247 -0.148407 -4.60561 0
M  V30 2322 H 227.562 0.0241016 -4.16393 0
M  V30 2323 H 230.159 2.77558 -4.57018 0
M  V30 2324 H 230.502 3.01173 -2.87403 0
M  V30 2325 H 231.035 1.51529 -3.6781 0
M  V30 2326 H 227.774 0.587771 -6.52859 0
M  V30 2327 H 227.294 2.04987 -5.63685 0
M  V30 2328 H 228.973 1.855 -6.19838 0
M  V30 2329 N 229.106 1.52395 0.401703 0
M  V30 2330 C 230.036 1.79231 1.49661 0
M  V30 2331 C 231.017 0.643654 1.57452 0
M  V30 2332 O 232.202 0.889989 1.72606 0
M  V30 2333 C 229.332 1.94971 2.87409 0
M  V30 2334 C 228.286 3.10604 2.94465 0
M  V30 2335 C 227.612 3.11577 4.34538 0
M  V30 2336 C 228.912 4.49921 2.6527 0
M  V30 2337 H 230.606 2.70917 1.27454 0
M  V30 2338 H 228.152 1.30362 0.6117 0
M  V30 2339 H 230.105 2.12328 3.63999 0
M  V30 2340 H 228.829 0.999632 3.10926 0
M  V30 2341 H 227.488 2.93009 2.20321 0
M  V30 2342 H 227.136 2.14277 4.55076 0
M  V30 2343 H 226.836 3.89247 4.40183 0
M  V30 2344 H 228.36 3.31073 5.13053 0
M  V30 2345 H 229.774 4.67683 3.31581 0
M  V30 2346 H 228.171 5.29564 2.82281 0
M  V30 2347 H 229.241 4.57507 1.60671 0
M  V30 2348 N 230.584 -0.659388 1.43143 0
M  V30 2349 C 231.812 -1.44723 1.47861 0
M  V30 2350 C 232.227 -1.88563 0.0945886 0
M  V30 2351 O 231.584 -1.59108 -0.893915 0
M  V30 2352 C 231.635 -2.68627 2.41913 0
M  V30 2353 O 231.356 -2.26623 3.74932 0
M  V30 2354 C 232.857 -3.62045 2.55809 0
M  V30 2355 H 230.077 -0.444801 0.502387 0
M  V30 2356 H 232.621 -0.808916 1.87821 0
M  V30 2357 H 230.776 -3.28613 2.05164 0
M  V30 2358 H 231.19 -3.06745 4.2545 0
M  V30 2359 H 232.664 -4.45666 3.25708 0
M  V30 2360 H 233.141 -4.08981 1.60099 0
M  V30 2361 H 233.747 -3.07944 2.93344 0
M  V30 2362 N 232.062 -1.29571 -0.897171 0
M  V30 2363 C 233.01 -1.14802 -2.02295 0
M  V30 2364 C 234.004 -0.0629637 -1.69283 0
M  V30 2365 O 235.21 -0.222945 -1.78614 0
M  V30 2366 H 231.585 -0.354692 -0.663097 0
M  V30 2367 H 233.556 -2.10108 -2.11889 0
M  V30 2368 C 232.305 -0.843966 -3.37302 0
M  V30 2369 H 231.628 -1.67093 -3.63208 0
M  V30 2370 H 233.068 -0.780672 -4.16751 0
M  V30 2371 C 231.527 0.452843 -3.33843 0
M  V30 2372 O 232.057 1.47813 -3.73516 0
M  V30 2373 N 230.263 0.459601 -2.86943 0
M  V30 2374 H 229.81 -0.375213 -2.54853 0
M  V30 2375 H 229.768 1.32726 -2.85011 0
M  V30 2376 N 233.54 1.10788 -1.12088 0
M  V30 2377 C 234.503 2.15207 -0.788577 0
M  V30 2378 C 235.503 1.59609 0.195317 0
M  V30 2379 O 236.693 1.74174 -0.0300193 0
M  V30 2380 C 233.825 3.4047 -0.171174 0
M  V30 2381 H 235.018 2.46116 -1.71368 0
M  V30 2382 H 232.571 1.26089 -0.923652 0
M  V30 2383 H 233.306 3.15176 0.763832 0
M  V30 2384 H 233.091 3.82109 -0.879514 0
M  V30 2385 H 234.581 4.17576 0.04496 0
M  V30 2386 N 235.018 0.912232 1.28515 0
M  V30 2387 C 235.948 0.416403 2.29757 0
M  V30 2388 C 236.929 -0.515194 1.6211 0
M  V30 2389 O 238.114 -0.423253 1.89532 0
M  V30 2390 C 235.244 -0.34572 3.45575 0
M  V30 2391 C 234.198 0.496599 4.25109 0
M  V30 2392 C 233.524 -0.393771 5.33248 0
M  V30 2393 C 234.824 1.75307 4.92001 0
M  V30 2394 H 236.518 1.26249 2.7148 0
M  V30 2395 H 234.064 0.608515 1.30511 0
M  V30 2396 H 236.017 -0.703422 4.15488 0
M  V30 2397 H 234.741 -1.2257 3.02728 0
M  V30 2398 H 233.4 0.8368 3.56922 0
M  V30 2399 H 233.048 -1.27225 4.86644 0
M  V30 2400 H 232.748 0.166209 5.87365 0
M  V30 2401 H 234.272 -0.747389 6.06009 0
M  V30 2402 H 235.686 1.46437 5.54283 0
M  V30 2403 H 234.083 2.25534 5.56106 0
M  V30 2404 H 235.153 2.48176 4.16577 0
M  V30 2405 N 236.496 -1.42363 0.676048 0
M  V30 2406 C 237.742 -2.02336 0.207809 0
M  V30 2407 C 238.097 -1.52506 -1.17302 0
M  V30 2408 O 237.39 -0.718048 -1.77636 0
M  V30 2409 C 237.584 -3.56929 0.183431 0
M  V30 2410 C 237.413 -4.21762 1.56036 0
M  V30 2411 C 236.183 -4.56881 2.15842 0
M  V30 2412 C 238.381 -4.49267 2.50327 0
M  V30 2413 N 236.363 -5.069 3.46303 0
M  V30 2414 C 237.734 -5.00851 3.65443 0
M  V30 2415 C 239.789 -4.31257 2.48841 0
M  V30 2416 C 238.492 -5.36317 4.79329 0
M  V30 2417 C 240.518 -4.678 3.61824 0
M  V30 2418 C 239.88 -5.19537 4.75668 0
M  V30 2419 H 235.979 -0.772583 0.120993 0
M  V30 2420 H 238.563 -1.73203 0.889306 0
M  V30 2421 H 236.734 -3.85576 -0.467483 0
M  V30 2422 H 238.466 -4.03603 -0.297808 0
M  V30 2423 H 235.221 -4.4268 1.68319 0
M  V30 2424 H 235.645 -5.36338 4.13123 0
M  V30 2425 H 240.287 -3.90511 1.62051 0
M  V30 2426 H 238.005 -5.75995 5.66794 0
M  V30 2427 H 241.591 -4.55541 3.61903 0
M  V30 2428 H 240.471 -5.47287 5.61646 0
M  V30 2429 N 237.974 -0.419461 -1.51915 0
M  V30 2430 C 238.937 0.389116 -2.25873 0
M  V30 2431 C 239.937 0.964924 -1.28631 0
M  V30 2432 O 241.127 0.842179 -1.52489 0
M  V30 2433 C 238.259 1.54874 -3.03689 0
M  V30 2434 H 239.452 -0.258799 -2.98781 0
M  V30 2435 H 237.005 -0.172209 -1.55348 0
M  V30 2436 H 237.74 2.23323 -2.35154 0
M  V30 2437 H 237.525 1.14223 -3.75094 0
M  V30 2438 H 239.015 2.12046 -3.59759 0
M  V30 2439 N 239.452 1.56882 -0.150215 0
M  V30 2440 C 240.868 1.58263 0.20617 0
M  V30 2441 C 241.068 1.16464 1.64434 0
M  V30 2442 O 240.124 0.866422 2.3717 0
M  V30 2443 C 241.437 3.00649 -0.0555025 0
M  V30 2444 C 242.985 3.12999 0.00795388 0
M  V30 2445 C 243.46 4.5744 -0.226429 0
M  V30 2446 N 244.951 4.62875 -0.173469 0
M  V30 2447 C 245.686 5.72454 -0.329288 0
M  V30 2448 N 245.182 6.90669 -0.543005 0
M  V30 2449 N 246.975 5.61467 -0.266666 0
M  V30 2450 H 239.126 1.82345 -1.08922 0
M  V30 2451 H 241.389 0.844149 -0.431413 0
M  V30 2452 H 241.095 3.3563 -1.05096 0
M  V30 2453 H 240.969 3.71337 0.66246 0
M  V30 2454 H 243.356 2.77857 0.993966 0
M  V30 2455 H 243.437 2.4479 -0.742388 0
M  V30 2456 H 243.081 4.93287 -1.20956 0
M  V30 2457 H 243.011 5.2378 0.544274 0
M  V30 2458 H 245.502 3.77898 -0.0130709 0
M  V30 2459 H 245.815 7.70045 -0.651922 0
M  V30 2460 H 244.16 6.92581 -0.579366 0
M  V30 2461 H 247.351 4.67992 -0.100441 0
M  V30 2462 H 247.524 6.46816 -0.391535 0
M  V30 2463 N 240.93 -0.123565 1.57115 0
M  V30 2464 C 241.893 -1.13583 1.99076 0
M  V30 2465 C 242.893 -1.34564 0.880296 0
M  V30 2466 O 244.083 -1.31158 1.14644 0
M  V30 2467 C 241.215 -2.49128 2.32698 0
M  V30 2468 H 242.408 -0.775287 2.89706 0
M  V30 2469 H 239.961 -0.36771 1.51913 0
M  V30 2470 H 240.696 -2.90111 1.44934 0
M  V30 2471 H 240.481 -2.35255 3.13684 0
M  V30 2472 H 241.971 -3.2199 2.65918 0
M  V30 2473 N 242.408 -1.52605 -0.393616 0
M  V30 2474 C 243.824 -1.41753 -0.733357 0
M  V30 2475 C 244.024 -0.534293 -1.94287 0
M  V30 2476 O 243.08 -0.0059787 -2.52499 0
M  V30 2477 C 244.393 -2.84531 -0.972772 0
M  V30 2478 C 245.941 -2.93978 -1.07453 0
M  V30 2479 C 246.416 -4.37756 -1.3466 0
M  V30 2480 N 247.907 -4.4106 -1.41492 0
M  V30 2481 C 248.642 -5.49387 -1.642 0
M  V30 2482 N 248.138 -6.67806 -1.8441 0
M  V30 2483 N 249.931 -5.36923 -1.66342 0
M  V30 2484 H 242.082 -2.08555 0.402328 0
M  V30 2485 H 244.345 -0.940654 0.117789 0
M  V30 2486 H 244.051 -3.51353 -0.156204 0
M  V30 2487 H 243.925 -3.26508 -1.88871 0
M  V30 2488 H 246.312 -2.27326 -1.88167 0
M  V30 2489 H 246.393 -2.55435 -0.136605 0
M  V30 2490 H 246.037 -5.04972 -0.544581 0
M  V30 2491 H 245.967 -4.73848 -2.2973 0
M  V30 2492 H 248.458 -3.55705 -1.27601 0
M  V30 2493 H 248.771 -7.46141 -2.01231 0
M  V30 2494 H 247.116 -6.70843 -1.81644 0
M  V30 2495 H 250.307 -4.43381 -1.50102 0
M  V30 2496 H 250.48 -6.21416 -1.837 0
M  V30 2497 N 243.887 0.651787 -1.4349 0
M  V30 2498 C 245.133 1.4121 -1.46395 0
M  V30 2499 C 245.488 1.92202 -0.087366 0
M  V30 2500 O 244.781 1.69452 0.894231 0
M  V30 2501 C 244.975 2.60914 -2.44251 0
M  V30 2502 C 244.804 2.21639 -3.91288 0
M  V30 2503 C 243.574 2.09897 -4.59643 0
M  V30 2504 C 245.772 1.81835 -4.81083 0
M  V30 2505 N 243.754 1.63967 -5.91598 0
M  V30 2506 C 245.125 1.46998 -6.02322 0
M  V30 2507 C 247.18 1.69031 -4.6833 0
M  V30 2508 C 245.883 1.00638 -7.12225 0
M  V30 2509 C 247.909 1.24077 -5.78238 0
M  V30 2510 C 247.271 0.901772 -6.98604 0
M  V30 2511 H 243.37 0.512322 -0.590805 0
M  V30 2512 H 245.954 0.74989 -1.7968 0
M  V30 2513 H 244.125 3.24792 -2.1299 0
M  V30 2514 H 245.857 3.27622 -2.37584 0
M  V30 2515 H 242.612 2.297 -4.14168 0
M  V30 2516 H 243.036 1.43359 -6.61647 0
M  V30 2517 H 247.678 1.93878 -3.75727 0
M  V30 2518 H 245.396 0.745399 -8.04655 0
M  V30 2519 H 248.982 1.14657 -5.7039 0
M  V30 2520 H 247.862 0.559226 -7.82203 0
M  V30 2521 N 245.365 1.30045 0.890287 0
M  V30 2522 C 246.593 1.21472 1.67487 0
M  V30 2523 C 247.008 -0.223241 1.87476 0
M  V30 2524 O 246.365 -1.14828 1.41847 0
M  V30 2525 C 246.416 1.93394 3.05419 0
M  V30 2526 O 246.137 3.31576 2.86337 0
M  V30 2527 C 247.638 1.91414 3.99844 0
M  V30 2528 H 244.858 0.420604 0.522813 0
M  V30 2529 H 247.402 1.7158 1.11268 0
M  V30 2530 H 245.557 1.47099 3.58386 0
M  V30 2531 H 245.971 3.67929 3.73802 0
M  V30 2532 H 247.445 2.46285 4.94012 0
M  V30 2533 H 247.922 0.891833 4.3005 0
M  V30 2534 H 248.528 2.37496 3.52811 0
M  V30 2535 N 246.843 -1.10192 1.12674 0
M  V30 2536 C 248.071 -1.85983 0.906527 0
M  V30 2537 C 248.486 -1.80783 -0.544333 0
M  V30 2538 O 247.843 -1.19834 -1.37645 0
M  V30 2539 C 247.894 -3.34281 1.37618 0
M  V30 2540 O 247.615 -3.39401 2.77017 0
M  V30 2541 C 249.116 -4.26938 1.19325 0
M  V30 2542 H 246.336 -0.587716 0.323775 0
M  V30 2543 H 248.88 -1.39284 1.49734 0
M  V30 2544 H 247.035 -3.78436 0.828539 0
M  V30 2545 H 247.449 -4.31838 2.97684 0
M  V30 2546 H 248.923 -5.29181 1.57071 0
M  V30 2547 H 249.4 -4.38995 0.134097 0
M  V30 2548 H 250.006 -3.8859 1.72852 0
M  V30 2549 N 248.321 -0.919034 -1.28029 0
M  V30 2550 C 249.732 -0.600735 -1.76771 0
M  V30 2551 C 250.083 0.884024 -1.75156 0
M  V30 2552 O 249.208 1.69163 -1.34956 0
M  V30 2553 C 249.803 -1.08372 -3.21 0
M  V30 2554 C 248.362 -0.816248 -3.67443 0
M  V30 2555 C 247.509 -1.24742 -2.47658 0
M  V30 2556 H 250.46 -1.09974 -1.14418 0
M  V30 2557 H 250.481 -0.427512 -3.78091 0
M  V30 2558 H 249.993 -2.16437 -3.22144 0
M  V30 2559 H 248.094 0.250968 -3.71754 0
M  V30 2560 H 248.207 -1.4277 -4.57333 0
M  V30 2561 H 246.571 -0.666083 -2.45836 0
M  V30 2562 H 247.354 -2.33653 -2.51518 0
M  V30 2563 N 249.799 1.42003 -0.683588 0
M  V30 2564 C 251.046 2.01413 -0.209514 0
M  V30 2565 C 251.374 1.54088 1.1869 0
M  V30 2566 O 250.629 0.737591 1.81268 0
M  V30 2567 C 250.928 3.56827 -0.202357 0
M  V30 2568 C 250.594 4.23617 -1.54464 0
M  V30 2569 C 249.256 4.41577 -1.91215 0
M  V30 2570 C 251.608 4.61178 -2.42826 0
M  V30 2571 C 248.936 4.9437 -3.15935 0
M  V30 2572 C 251.288 5.15355 -3.66867 0
M  V30 2573 C 249.952 5.31528 -4.03776 0
M  V30 2574 H 249.222 0.737023 -0.0766668 0
M  V30 2575 H 251.869 1.70067 -0.880312 0
M  V30 2576 H 250.174 3.87892 0.551969 0
M  V30 2577 H 251.871 4.00588 0.181793 0
M  V30 2578 H 248.461 4.10004 -1.24877 0
M  V30 2579 H 252.645 4.46968 -2.15717 0
M  V30 2580 H 247.901 5.05076 -3.44541 0
M  V30 2581 H 252.075 5.43402 -4.35531 0
M  V30 2582 H 249.702 5.72199 -5.00492 0
M  V30 2583 N 251.277 0.427512 1.51691 0
M  V30 2584 C 252.187 -0.39527 2.31246 0
M  V30 2585 C 253.203 -1.03674 1.39742 0
M  V30 2586 O 254.379 -1.03425 1.72816 0
M  V30 2587 C 251.444 -1.48706 3.13189 0
M  V30 2588 C 250.505 -0.866743 4.20459 0
M  V30 2589 C 249.738 -1.90651 4.98486 0
M  V30 2590 O 249.961 -3.12733 4.77026 0
M  V30 2591 O 248.895 -1.5025 5.82845 0
M  V30 2592 H 252.721 0.253918 3.02637 0
M  V30 2593 H 250.306 0.190274 1.48183 0
M  V30 2594 H 252.188 -2.12047 3.64162 0
M  V30 2595 H 250.863 -2.12051 2.44573 0
M  V30 2596 H 249.77 -0.195544 3.73589 0
M  V30 2597 H 251.103 -0.276934 4.9142 0
M  V30 2598 N 252.755 -1.56801 0.158532 0
M  V30 2599 C 253.718 -2.16138 -0.762705 0
M  V30 2600 C 254.718 -1.1061 -1.16713 0
M  V30 2601 O 255.908 -1.36191 -1.08617 0
M  V30 2602 C 253.04 -2.73386 -2.03649 0
M  V30 2603 H 254.233 -2.98886 -0.246354 0
M  V30 2604 H 251.786 -1.56035 -0.0909744 0
M  V30 2605 H 252.521 -1.94335 -2.59623 0
M  V30 2606 H 252.306 -3.50601 -1.75559 0
M  V30 2607 H 253.796 -3.19065 -2.6942 0
M  V30 2608 N 254.233 0.115231 -1.57178 0
M  V30 2609 C 255.183 1.14707 -1.97044 0
M  V30 2610 C 256.167 1.36866 -0.845957 0
M  V30 2611 O 257.359 1.37895 -1.10968 0
M  V30 2612 C 254.488 2.47266 -2.38148 0
M  V30 2613 C 253.574 2.28566 -3.57237 0
M  V30 2614 N 253.965 1.79685 -4.72807 0
M  V30 2615 C 252.263 2.59208 -3.62943 0
M  V30 2616 C 252.964 1.74781 -5.54821 0
M  V30 2617 N 251.94 2.19264 -4.97417 0
M  V30 2618 H 255.742 0.761754 -2.83857 0
M  V30 2619 H 253.256 0.322928 -1.59157 0
M  V30 2620 H 255.253 3.219 -2.64927 0
M  V30 2621 H 253.913 2.86552 -1.52702 0
M  V30 2622 H 254.924 1.49177 -4.9595 0
M  V30 2623 H 251.601 3.02154 -2.88113 0
M  V30 2624 H 252.991 1.38212 -6.57531 0
M  V30 2625 N 255.711 1.52812 0.385517 0
M  V30 2626 C 256.641 1.80808 1.47752 0
M  V30 2627 C 257.622 0.660318 1.5676 0
M  V30 2628 O 258.807 0.908246 1.71652 0
M  V30 2629 C 255.937 1.98008 2.85324 0
M  V30 2630 C 254.891 3.13709 2.91154 0
M  V30 2631 C 254.217 3.16169 4.31209 0
M  V30 2632 C 255.517 4.52709 2.60483 0
M  V30 2633 H 257.211 2.72253 1.24573 0
M  V30 2634 H 254.757 1.31003 0.597839 0
M  V30 2635 H 256.71 2.16176 3.61726 0
M  V30 2636 H 255.434 1.03255 3.09848 0
M  V30 2637 H 254.093 2.95329 2.17201 0
M  V30 2638 H 253.741 2.19092 4.52778 0
M  V30 2639 H 253.441 3.93894 4.36029 0
M  V30 2640 H 254.965 3.36496 5.09512 0
M  V30 2641 H 256.379 4.71173 3.26602 0
M  V30 2642 H 254.776 5.32528 2.76648 0
M  V30 2643 H 255.846 4.59186 1.55809 0
M  V30 2644 N 257.189 -0.644168 1.43834 0
M  V30 2645 C 258.417 -1.43147 1.49387 0
M  V30 2646 C 258.832 -1.88452 0.114583 0
M  V30 2647 O 258.189 -1.60047 -0.876989 0
M  V30 2648 C 258.24 -2.66046 2.44748 0
M  V30 2649 O 257.961 -2.22633 3.77314 0
M  V30 2650 C 259.462 -3.59311 2.59635 0
M  V30 2651 H 256.682 -0.439447 0.507077 0
M  V30 2652 H 259.226 -0.78895 1.88669 0
M  V30 2653 H 257.381 -3.26418 2.08638 0
M  V30 2654 H 257.795 -3.02216 4.28679 0
M  V30 2655 H 259.269 -4.42187 3.30416 0
M  V30 2656 H 259.746 -4.07259 1.64427 0
M  V30 2657 H 260.352 -3.04816 2.96593 0
M  V30 2658 N 258.668 -1.30515 -0.883378 0
M  V30 2659 C 260.084 -1.08881 -1.16692 0
M  V30 2660 C 260.284 0.149409 -2.00945 0
M  V30 2661 O 259.34 0.84257 -2.38027 0
M  V30 2662 C 260.653 -2.35319 -1.87204 0
M  V30 2663 C 262.201 -2.40799 -1.99962 0
M  V30 2664 C 262.676 -3.67083 -2.73887 0
M  V30 2665 N 264.167 -3.679 -2.81432 0
M  V30 2666 C 264.902 -4.62303 -3.3921 0
M  V30 2667 N 264.398 -5.67052 -3.98025 0
M  V30 2668 N 266.191 -4.49845 -3.3704 0
M  V30 2669 H 258.342 -2.09951 -0.321633 0
M  V30 2670 H 260.605 -0.92556 -0.205043 0
M  V30 2671 H 260.311 -3.25689 -1.3274 0
M  V30 2672 H 260.185 -2.44089 -2.87577 0
M  V30 2673 H 262.572 -1.50907 -2.53597 0
M  V30 2674 H 262.653 -2.36003 -0.98673 0
M  V30 2675 H 262.297 -4.57334 -2.20925 0
M  V30 2676 H 262.227 -3.69141 -3.75556 0
M  V30 2677 H 264.718 -2.92171 -2.39676 0
M  V30 2678 H 265.031 -6.35184 -4.40183 0
M  V30 2679 H 263.376 -5.70842 -3.96439 0
M  V30 2680 H 266.567 -3.67194 -2.90321 0
M  V30 2681 H 266.74 -5.23597 -3.81772 0
M  V30 2682 N 260.146 1.09593 -1.13257 0
M  V30 2683 C 261.056 2.19739 -0.821691 0
M  V30 2684 C 262.072 1.72926 0.19302 0
M  V30 2685 O 263.248 2.01385 0.0244895 0
M  V30 2686 C 260.313 3.45482 -0.290333 0
M  V30 2687 C 259.374 4.06985 -1.36607 0
M  V30 2688 C 258.607 5.26726 -0.859975 0
M  V30 2689 O 258.83 5.69594 0.303082 0
M  V30 2690 O 257.764 5.7931 -1.63351 0
M  V30 2691 H 261.59 2.48781 -1.74189 0
M  V30 2692 H 259.175 1.18496 -0.909894 0
M  V30 2693 H 261.057 4.214 0.000674022 0
M  V30 2694 H 259.732 3.18047 0.602306 0
M  V30 2695 H 258.639 3.32712 -1.71037 0
M  V30 2696 H 259.972 4.38643 -2.23279 0
M  V30 2697 N 261.624 0.925811 1.2754 0
M  V30 2698 C 262.872 0.564138 1.94067 0
M  V30 2699 C 263.193 -0.897188 1.73134 0
M  V30 2700 O 262.463 -1.63573 1.07799 0
M  V30 2701 H 261.043 0.205645 0.718136 0
M  V30 2702 H 263.705 1.1778 1.55287 0
M  V30 2703 H 262.801 0.76881 3.02483 0
M  V30 2704 N 263.102 -1.41638 0.69111 0
M  V30 2705 C 264.33 -2.05628 0.22909 0
M  V30 2706 C 264.745 -1.51992 -1.11999 0
M  V30 2707 O 264.102 -0.666322 -1.69901 0
M  V30 2708 C 264.153 -3.61084 0.173283 0
M  V30 2709 O 263.874 -4.12735 1.46907 0
M  V30 2710 C 265.375 -4.42213 -0.310266 0
M  V30 2711 H 262.595 -0.662327 0.107534 0
M  V30 2712 H 265.139 -1.81489 0.942438 0
M  V30 2713 H 263.294 -3.84278 -0.490858 0
M  V30 2714 H 263.708 -5.06743 1.35322 0
M  V30 2715 H 265.182 -5.51194 -0.298196 0
M  V30 2716 H 265.659 -4.1799 -1.34838 0
M  V30 2717 H 266.265 -4.24074 0.322716 0
M  V30 2718 N 264.58 -0.43555 -1.51462 0
M  V30 2719 C 265.827 0.131514 -2.02072 0
M  V30 2720 C 266.155 1.42868 -1.31981 0
M  V30 2721 O 265.41 1.91076 -0.422883 0
M  V30 2722 C 265.709 0.39942 -3.55161 0
M  V30 2723 C 265.375 -0.81172 -4.43533 0
M  V30 2724 C 264.037 -1.14387 -4.67407 0
M  V30 2725 C 266.389 -1.61976 -4.95392 0
M  V30 2726 C 263.717 -2.28477 -5.40384 0
M  V30 2727 C 266.069 -2.75164 -5.6962 0
M  V30 2728 C 264.733 -3.08835 -5.91758 0
M  V30 2729 H 264.003 0.0481244 -0.739436 0
M  V30 2730 H 266.65 -0.58238 -1.8243 0
M  V30 2731 H 264.955 1.19519 -3.73125 0
M  V30 2732 H 266.652 0.85157 -3.91854 0
M  V30 2733 H 263.242 -0.542898 -4.25148 0
M  V30 2734 H 267.426 -1.37637 -4.76833 0
M  V30 2735 H 262.682 -2.5488 -5.55739 0
M  V30 2736 H 266.856 -3.38147 -6.08793 0
M  V30 2737 H 264.483 -3.97353 -6.48086 0
M  V30 2738 N 266.058 1.56714 -0.166846 0
M  V30 2739 C 267.474 1.58473 0.189372 0
M  V30 2740 C 267.674 1.18201 1.63189 0
M  V30 2741 O 266.73 0.891528 2.36237 0
M  V30 2742 C 268.043 3.00573 -0.0873872 0
M  V30 2743 C 269.591 3.1299 -0.0252443 0
M  V30 2744 C 270.066 4.57174 -0.274934 0
M  V30 2745 N 271.557 4.62665 -0.222553 0
M  V30 2746 C 272.292 5.72072 -0.389985 0
M  V30 2747 N 271.788 6.90054 -0.616229 0
M  V30 2748 N 273.581 5.61153 -0.326202 0
M  V30 2749 H 265.732 1.8118 -1.10849 0
M  V30 2750 H 267.995 0.839525 -0.440342 0
M  V30 2751 H 267.701 3.34497 -1.0865 0
M  V30 2752 H 267.575 3.72019 0.623037 0
M  V30 2753 H 269.962 2.78895 0.96444 0
M  V30 2754 H 270.043 2.43989 -0.768309 0
M  V30 2755 H 269.687 4.91976 -1.26181 0
M  V30 2756 H 269.617 5.24328 0.48869 0
M  V30 2757 H 272.108 3.77863 -0.0531512 0
M  V30 2758 H 272.421 7.69311 -0.733559 0
M  V30 2759 H 270.766 6.91927 -0.652791 0
M  V30 2760 H 273.957 4.67859 -0.150072 0
M  V30 2761 H 274.13 6.46364 -0.460116 0
M  V30 2762 N 267.536 -0.106894 1.57237 0
M  V30 2763 C 268.764 -0.826389 1.8968 0
M  V30 2764 C 269.179 -1.72856 0.759353 0
M  V30 2765 O 268.536 -1.80503 -0.269263 0
M  V30 2766 C 268.587 -1.64967 3.21665 0
M  V30 2767 O 268.308 -0.783804 4.31031 0
M  V30 2768 C 269.809 -2.47326 3.67892 0
M  V30 2769 H 267.029 -0.236927 0.627779 0
M  V30 2770 H 269.573 -0.0876593 2.04312 0
M  V30 2771 H 267.728 -2.34103 3.08666 0
M  V30 2772 H 268.142 -1.35284 5.06753 0
M  V30 2773 H 269.616 -3.00604 4.6297 0
M  V30 2774 H 270.093 -3.25247 2.95146 0
M  V30 2775 H 270.699 -1.83411 3.83719 0
M  V30 2776 N 269.014 -1.53014 -0.377408 0
M  V30 2777 C 270.425 -1.60438 -0.954798 0
M  V30 2778 C 270.776 -0.464418 -1.90624 0
M  V30 2779 O 269.901 0.41087 -2.12464 0
M  V30 2780 C 270.496 -2.90797 -1.73847 0
M  V30 2781 C 269.055 -3.00595 -2.26538 0
M  V30 2782 C 268.202 -2.55645 -1.07429 0
M  V30 2783 H 271.153 -1.57926 -0.156575 0
M  V30 2784 H 271.174 -2.77935 -2.5987 0
M  V30 2785 H 270.686 -3.73746 -1.04574 0
M  V30 2786 H 268.787 -2.22208 -2.99089 0
M  V30 2787 H 268.9 -4.05456 -2.5523 0
M  V30 2788 H 267.264 -2.10239 -1.43777 0
M  V30 2789 H 268.047 -3.41 -0.396728 0
M  V30 2790 N 270.492 0.636531 -1.44174 0
M  V30 2791 C 271.908 0.954104 -1.27941 0
M  V30 2792 C 272.108 2.0039 -0.211248 0
M  V30 2793 O 271.164 2.49236 0.404695 0
M  V30 2794 C 272.477 1.4225 -2.64925 0
M  V30 2795 C 274.025 1.53827 -2.72592 0
M  V30 2796 C 274.5 2.04053 -4.10032 0
M  V30 2797 N 275.991 2.11331 -4.12182 0
M  V30 2798 C 276.726 2.51352 -5.15374 0
M  V30 2799 N 276.222 2.90549 -6.2893 0
M  V30 2800 N 278.015 2.51438 -5.02728 0
M  V30 2801 H 270.166 -0.0578386 -2.12321 0
M  V30 2802 H 272.429 0.0367406 -0.947288 0
M  V30 2803 H 272.135 0.725466 -3.44136 0
M  V30 2804 H 272.009 2.39451 -2.9145 0
M  V30 2805 H 274.396 2.22628 -1.93702 0
M  V30 2806 H 274.477 0.550154 -2.49814 0
M  V30 2807 H 274.121 1.35848 -4.89395 0
M  V30 2808 H 274.051 3.03726 -4.30184 0
M  V30 2809 H 276.542 1.83745 -3.30222 0
M  V30 2810 H 276.855 3.19884 -7.03487 0
M  V30 2811 H 275.2 2.88313 -6.32377 0
M  V30 2812 H 278.391 2.20203 -4.13072 0
M  V30 2813 H 278.564 2.82304 -5.83274 0
M  V30 2814 N 271.97 1.30982 0.876444 0
M  V30 2815 C 273.218 1.20058 1.62575 0
M  V30 2816 C 273.539 -0.242947 1.93481 0
M  V30 2817 O 272.809 -1.1619 1.57724 0
M  V30 2818 H 271.389 0.44135 0.602677 0
M  V30 2819 H 274.051 1.64222 1.04962 0
M  V30 2820 H 273.147 1.76762 2.57219 0
M  V30 2821 N 273.449 -1.08991 1.13837 0
M  V30 2822 C 274.86 -1.62746 0.914917 0
M  V30 2823 C 275.211 -1.88403 -0.547594 0
M  V30 2824 O 274.336 -1.63706 -1.41525 0
M  V30 2825 C 274.931 -2.95662 1.65437 0
M  V30 2826 C 273.49 -3.46225 1.47666 0
M  V30 2827 C 272.637 -2.20562 1.6807 0
M  V30 2828 H 275.588 -0.922946 1.29102 0
M  V30 2829 H 275.609 -3.63825 1.11407 0
M  V30 2830 H 275.121 -2.76956 2.71877 0
M  V30 2831 H 273.222 -3.70046 0.435478 0
M  V30 2832 H 273.335 -4.23368 2.24268 0
M  V30 2833 H 271.699 -2.29439 1.10589 0
M  V30 2834 H 272.482 -2.0437 2.7584 0
M  V30 2835 N 274.927 -0.932562 -1.27047 0
M  V30 2836 C 275.874 -0.434072 -2.26681 0
M  V30 2837 C 276.844 0.501639 -1.58344 0
M  V30 2838 O 278.029 0.419734 -1.86126 0
M  V30 2839 C 275.169 0.30261 -3.43771 0
M  V30 2840 C 274.282 -0.667774 -4.26808 0
M  V30 2841 C 273.417 0.0892393 -5.31125 0
M  V30 2842 C 272.456 -0.873532 -6.05835 0
M  V30 2843 N 271.593 -0.148832 -7.01942 0
M  V30 2844 H 276.433 -1.28868 -2.68695 0
M  V30 2845 H 273.97 -0.646713 -1.32121 0
M  V30 2846 H 275.928 0.746092 -4.10474 0
M  V30 2847 H 274.558 1.12142 -3.02695 0
M  V30 2848 H 273.61 -1.22978 -3.59973 0
M  V30 2849 H 274.922 -1.40337 -4.78651 0
M  V30 2850 H 274.076 0.592409 -6.03801 0
M  V30 2851 H 272.815 0.85777 -4.80097 0
M  V30 2852 H 271.82 -1.38791 -5.31994 0
M  V30 2853 H 273.045 -1.64193 -6.58952 0
M  V30 2854 H 270.991 0.601365 -6.53238 0
M  V30 2855 H 270.908 -0.82391 -7.51497 0
M  V30 2856 H 272.176 0.333527 -7.78786 0
M  V30 2857 N 276.405 1.4127 -0.698611 0
M  V30 2858 C 277.821 1.55241 -0.370462 0
M  V30 2859 C 278.021 1.67351 1.12231 0
M  V30 2860 O 277.077 1.65363 1.90818 0
M  V30 2861 C 278.39 2.78997 -1.12165 0
M  V30 2862 C 279.938 2.92797 -1.1063 0
M  V30 2863 C 280.413 4.19445 -1.8393 0
M  V30 2864 N 281.904 4.26409 -1.80914 0
M  V30 2865 C 282.639 5.23271 -2.34467 0
M  V30 2866 N 282.135 6.26145 -2.96504 0
M  V30 2867 N 283.928 5.15232 -2.24706 0
M  V30 2868 H 276.079 1.31654 -1.66676 0
M  V30 2869 H 278.342 0.635393 -0.703548 0
M  V30 2870 H 278.048 2.76268 -2.17644 0
M  V30 2871 H 277.922 3.70606 -0.702209 0
M  V30 2872 H 280.309 2.95039 -0.0597713 0
M  V30 2873 H 280.39 2.02353 -1.56483 0
M  V30 2874 H 280.034 4.17964 -2.88563 0
M  V30 2875 H 279.964 5.08866 -1.35509 0
M  V30 2876 H 282.455 3.527 -1.35687 0
M  V30 2877 H 282.768 6.96451 -3.34927 0
M  V30 2878 H 281.113 6.26638 -3.00583 0
M  V30 2879 H 284.304 4.33789 -1.7591 0
M  V30 2880 H 284.477 5.90552 -2.66745 0
M  V30 2881 N 277.883 0.443576 1.51229 0
M  V30 2882 C 279.129 -0.120975 2.02439 0
M  V30 2883 C 279.462 -1.41815 1.32674 0
M  V30 2884 O 278.737 -1.89373 0.443622 0
M  V30 2885 C 279.02 -0.333291 3.58554 0
M  V30 2886 C 278.873 0.982968 4.38928 0
M  V30 2887 C 280.192 -1.10028 4.26124 0
M  V30 2888 H 277.311 -0.0424923 0.735774 0
M  V30 2889 H 279.953 0.583794 1.80809 0
M  V30 2890 H 278.103 -0.933614 3.77115 0
M  V30 2891 H 279.775 1.61775 4.32003 0
M  V30 2892 H 278.018 1.58611 4.03763 0
M  V30 2893 H 278.689 0.788379 5.46341 0
M  V30 2894 H 281.165 -0.591711 4.11871 0
M  V30 2895 H 280.041 -1.21761 5.35225 0
M  V30 2896 H 280.302 -2.12996 3.87408 0
M  V30 2897 N 279.361 -1.56624 0.175154 0
M  V30 2898 C 280.772 -1.83561 -0.340916 0
M  V30 2899 C 281.123 -1.09511 -1.62794 0
M  V30 2900 O 280.248 -0.349389 -2.13561 0
M  V30 2901 C 280.843 -3.32979 -0.625313 0
M  V30 2902 C 279.402 -3.60399 -1.08581 0
M  V30 2903 C 278.549 -2.77024 -0.123722 0
M  V30 2904 H 281.5 -1.53593 0.399344 0
M  V30 2905 H 281.521 -3.50666 -1.47694 0
M  V30 2906 H 281.033 -3.86847 0.311575 0
M  V30 2907 H 279.134 -3.11945 -2.03767 0
M  V30 2908 H 279.247 -4.68711 -0.992317 0
M  V30 2909 H 277.611 -2.46993 -0.621821 0
M  V30 2910 H 278.394 -3.33674 0.807256 0
M  V30 2911 N 280.839 0.0985539 -1.57292 0
M  V30 2912 C 282.086 0.802678 -1.85912 0
M  V30 2913 C 282.414 1.78901 -0.763186 0
M  V30 2914 O 281.669 1.94178 0.243559 0
M  V30 2915 C 281.968 1.56927 -3.21105 0
M  V30 2916 C 281.634 0.725376 -4.45027 0
M  V30 2917 C 280.296 0.492726 -4.78671 0
M  V30 2918 C 282.648 0.138493 -5.21016 0
M  V30 2919 C 279.976 -0.336727 -5.85733 0
M  V30 2920 C 282.328 -0.678264 -6.28953 0
M  V30 2921 C 280.992 -0.921039 -6.61115 0
M  V30 2922 H 280.262 0.293721 -0.680301 0
M  V30 2923 H 282.909 0.0642841 -1.91392 0
M  V30 2924 H 281.214 2.37914 -3.11294 0
M  V30 2925 H 282.911 2.11841 -3.40477 0
M  V30 2926 H 279.501 0.916815 -4.18679 0
M  V30 2927 H 283.685 0.305404 -4.95359 0
M  V30 2928 H 278.941 -0.533836 -6.09065 0
M  V30 2929 H 283.115 -1.1399 -6.87007 0
M  V30 2930 H 280.742 -1.56556 -7.43905 0
M  V30 2931 N 282.317 1.53212 0.369288 0
M  V30 2932 C 283.25 1.74166 1.4745 0
M  V30 2933 C 284.228 0.589923 1.51521 0
M  V30 2934 O 285.412 0.822078 1.69629 0
M  V30 2935 C 282.539 1.81711 2.8583 0
M  V30 2936 C 281.585 3.03649 2.99499 0
M  V30 2937 S 282.418 4.63242 2.6864 0
M  V30 2938 C 283.574 4.7363 4.09177 0
M  V30 2939 H 283.807 2.67636 1.29454 0
M  V30 2940 H 281.34 1.43754 0.563396 0
M  V30 2941 H 283.298 1.86743 3.65564 0
M  V30 2942 H 281.959 0.89299 3.01139 0
M  V30 2943 H 281.152 3.05526 4.00836 0
M  V30 2944 H 280.754 2.9671 2.27683 0
M  V30 2945 H 283.046 4.53456 5.03372 0
M  V30 2946 H 283.989 5.75682 4.12306 0
M  V30 2947 H 284.397 4.02295 3.96004 0
M  V30 2948 N 283.795 -0.628877 1.44509 0
M  V30 2949 C 284.745 -1.7345 1.47983 0
M  V30 2950 C 285.729 -1.5715 0.345373 0
M  V30 2951 O 286.921 -1.66848 0.590829 0
M  V30 2952 C 284.05 -3.12143 1.42904 0
M  V30 2953 C 283.136 -3.33906 2.61472 0
M  V30 2954 N 283.527 -3.26024 3.86706 0
M  V30 2955 C 281.825 -3.64709 2.56716 0
M  V30 2956 C 282.526 -3.48536 4.65722 0
M  V30 2957 N 281.502 -3.71517 3.96832 0
M  V30 2958 H 285.304 -1.65818 2.42655 0
M  V30 2959 H 282.818 -0.831419 1.39503 0
M  V30 2960 H 284.815 -3.91433 1.43476 0
M  V30 2961 H 283.475 -3.2094 0.492717 0
M  V30 2962 H 284.486 -3.04893 4.18641 0
M  V30 2963 H 281.163 -3.80473 1.71891 0
M  V30 2964 H 282.553 -3.48016 5.74747 0
M  V30 2965 N 285.273 -1.31445 -0.869486 0
M  V30 2966 C 286.689 -1.10113 -1.15531 0
M  V30 2967 C 286.889 0.128087 -2.01092 0
M  V30 2968 O 285.945 0.817276 -2.38908 0
M  V30 2969 C 287.258 -2.37291 -1.84698 0
M  V30 2970 C 288.806 -2.42906 -1.97397 0
M  V30 2971 C 289.281 -3.69967 -2.69979 0
M  V30 2972 N 290.772 -3.70864 -2.77514 0
M  V30 2973 C 291.507 -4.65875 -3.34287 0
M  V30 2974 N 291.003 -5.71242 -3.91988 0
M  V30 2975 N 292.796 -4.53394 -3.3225 0
M  V30 2976 H 284.947 -2.1028 -0.299347 0
M  V30 2977 H 287.21 -0.927683 -0.195214 0
M  V30 2978 H 286.916 -3.27078 -1.29278 0
M  V30 2979 H 286.79 -2.47125 -2.84972 0
M  V30 2980 H 289.177 -1.53588 -2.51982 0
M  V30 2981 H 289.258 -2.37036 -0.961643 0
M  V30 2982 H 288.902 -4.59652 -2.16062 0
M  V30 2983 H 288.832 -3.73103 -3.7162 0
M  V30 2984 H 291.323 -2.94697 -2.36563 0
M  V30 2985 H 291.636 -6.39817 -4.33421 0
M  V30 2986 H 289.981 -5.75015 -3.90362 0
M  V30 2987 H 293.172 -3.70252 -2.8641 0
M  V30 2988 H 293.345 -5.27617 -3.76197 0
M  V30 2989 N 286.751 1.08385 -1.14413 0
M  V30 2990 C 287.979 1.84517 -0.936001 0
M  V30 2991 C 288.394 1.81626 0.515503 0
M  V30 2992 O 287.751 1.22008 1.35721 0
M  V30 2993 C 287.802 3.32049 -1.42918 0
M  V30 2994 O 287.523 3.34951 -2.82381 0
M  V30 2995 C 289.024 4.24986 -1.26103 0
M  V30 2996 H 286.244 0.582491 -0.333084 0
M  V30 2997 H 288.788 1.36885 -1.5193 0
M  V30 2998 H 286.943 3.7707 -0.888641 0
M  V30 2999 H 287.357 4.27048 -3.04517 0
M  V30 3000 H 288.831 5.26615 -1.6547 0
M  V30 3001 H 289.308 4.38726 -0.20392 0
M  V30 3002 H 289.914 3.85791 -1.79012 0
M  V30 3003 N 288.23 0.939286 1.26551 0
M  V30 3004 C 289.478 0.58469 1.93457 0
M  V30 3005 C 289.799 -0.878774 1.74076 0
M  V30 3006 O 289.069 -1.62421 1.09528 0
M  V30 3007 H 287.649 0.21325 0.715914 0
M  V30 3008 H 290.311 1.1942 1.54029 0
M  V30 3009 H 289.407 0.800849 3.0165 0
M  V30 3010 N 289.708 -1.40897 0.706093 0
M  V30 3011 C 290.936 -2.05373 0.250887 0
M  V30 3012 C 291.351 -1.53172 -1.10381 0
M  V30 3013 O 290.708 -0.684305 -1.69185 0
M  V30 3014 C 290.759 -3.6088 0.211571 0
M  V30 3015 O 290.48 -4.11153 1.51276 0
M  V30 3016 C 291.981 -4.42517 -0.263346 0
M  V30 3017 H 289.201 -0.66115 0.114552 0
M  V30 3018 H 291.745 -1.80479 0.961635 0
M  V30 3019 H 289.9 -3.84777 -0.450073 0
M  V30 3020 H 290.314 -5.05279 1.40689 0
M  V30 3021 H 291.788 -5.51479 -0.239718 0
M  V30 3022 H 292.265 -4.19396 -1.30397 0
M  V30 3023 H 292.871 -4.23708 0.367677 0
M  V30 3024 N 291.186 -0.45159 -1.50991 0
M  V30 3025 C 292.119 0.398179 -2.24699 0
M  V30 3026 C 293.097 1.01276 -1.27208 0
M  V30 3027 O 294.281 1.05247 -1.56382 0
M  V30 3028 C 291.408 1.55618 -3.00833 0
M  V30 3029 C 290.454 1.0609 -4.13095 0
M  V30 3030 S 291.287 -0.00865136 -5.35499 0
M  V30 3031 C 292.443 1.15369 -6.15175 0
M  V30 3032 H 292.676 -0.227555 -2.96428 0
M  V30 3033 H 290.209 -0.236251 -1.52582 0
M  V30 3034 H 292.167 2.21997 -3.45293 0
M  V30 3035 H 290.828 2.15337 -2.28667 0
M  V30 3036 H 290.021 1.92726 -4.65696 0
M  V30 3037 H 289.623 0.47513 -3.7097 0
M  V30 3038 H 291.915 2.06925 -6.45126 0
M  V30 3039 H 292.858 0.667344 -7.04948 0
M  V30 3040 H 293.266 1.3987 -5.46897 0
M  V30 3041 N 292.664 1.56529 -0.183458 0
M  V30 3042 C 294.075 1.83739 0.331177 0
M  V30 3043 C 294.426 1.10373 1.62211 0
M  V30 3044 O 293.551 0.36071 2.13373 0
M  V30 3045 C 294.146 3.33306 0.607646 0
M  V30 3046 C 292.705 3.60969 1.06668 0
M  V30 3047 C 291.852 2.77086 0.109029 0
M  V30 3048 H 294.803 1.53379 -0.407484 0
M  V30 3049 H 294.824 3.51444 1.45832 0
M  V30 3050 H 294.336 3.86677 -0.332086 0
M  V30 3051 H 292.437 3.13021 2.0211 0
M  V30 3052 H 292.55 4.69231 0.967447 0
M  V30 3053 H 290.914 2.47319 0.608714 0
M  V30 3054 H 291.697 3.33241 -0.82494 0
M  V30 3055 N 294.142 -0.090211 1.57342 0
M  V30 3056 C 295.372 -0.805055 1.90269 0
M  V30 3057 C 295.78 -1.72561 0.775842 0
M  V30 3058 O 295.123 -1.81839 -0.260843 0
M  V30 3059 C 295.185 -1.66734 3.18497 0
M  V30 3060 C 294.849 -0.918092 4.47683 0
M  V30 3061 C 295.846 -0.245674 5.19319 0
M  V30 3062 C 293.531 -0.890724 4.94339 0
M  V30 3063 C 295.525 0.444088 6.35851 0
M  V30 3064 C 293.212 -0.197179 6.10782 0
M  V30 3065 C 294.21 0.469044 6.81388 0
M  V30 3066 O 293.898 1.15146 7.95611 0
M  V30 3067 H 293.63 -0.235143 0.633785 0
M  V30 3068 H 296.184 -0.0703805 2.05279 0
M  V30 3069 H 294.414 -2.44437 2.99646 0
M  V30 3070 H 296.103 -2.25919 3.37217 0
M  V30 3071 H 296.869 -0.258246 4.84312 0
M  V30 3072 H 292.748 -1.39873 4.39268 0
M  V30 3073 H 296.292 0.964667 6.90898 0
M  V30 3074 H 292.189 -0.18247 6.45242 0
M  V30 3075 H 292.957 1.05885 8.11622 0
M  V30 3076 N 295.62 -1.53406 -0.361157 0
M  V30 3077 C 296.583 -1.79479 -1.42548 0
M  V30 3078 C 297.583 -0.665327 -1.4639 0
M  V30 3079 O 298.773 -0.933549 -1.47073 0
M  V30 3080 C 295.905 -1.92087 -2.8163 0
M  V30 3081 H 297.098 -2.74538 -1.20701 0
M  V30 3082 H 294.651 -1.4455 -0.594546 0
M  V30 3083 H 295.386 -0.991099 -3.08784 0
M  V30 3084 H 295.171 -2.74241 -2.80239 0
M  V30 3085 H 296.661 -2.13836 -3.58697 0
M  V30 3086 N 297.098 0.621204 -1.44841 0
M  V30 3087 C 298.326 1.40752 -1.51646 0
M  V30 3088 C 298.741 1.88246 -0.144549 0
M  V30 3089 O 298.098 1.61422 0.851416 0
M  V30 3090 C 298.149 2.62119 -2.4895 0
M  V30 3091 O 297.87 2.16602 -3.80808 0
M  V30 3092 C 299.371 3.55135 -2.65319 0
M  V30 3093 H 296.591 0.431325 -0.514004 0
M  V30 3094 H 299.135 0.758835 -1.899 0
M  V30 3095 H 297.29 3.23058 -2.13805 0
M  V30 3096 H 297.704 2.95358 -4.33433 0
M  V30 3097 H 299.178 4.36874 -3.37409 0
M  V30 3098 H 299.655 4.04592 -1.70886 0
M  V30 3099 H 300.261 3.00058 -3.01405 0
M  V30 3100 N 298.576 1.31904 0.862503 0
M  V30 3101 C 299.539 1.20131 1.95195 0
M  V30 3102 C 300.539 0.126409 1.60302 0
M  V30 3103 O 301.729 0.376234 1.70089 0
M  V30 3104 C 298.861 0.845691 3.30244 0
M  V30 3105 H 300.054 2.16943 2.07064 0
M  V30 3106 H 297.607 1.15622 1.05172 0
M  V30 3107 H 298.342 -0.120957 3.24074 0
M  V30 3108 H 298.127 1.62276 3.56944 0
M  V30 3109 H 299.617 0.787418 4.10109 0
M  V30 3110 N 300.054 -1.07777 1.14986 0
M  V30 3111 C 301.47 -1.32373 0.891596 0
M  V30 3112 C 301.67 -1.9609 -0.463788 0
M  V30 3113 O 300.726 -2.21801 -1.20667 0
M  V30 3114 C 302.039 -2.21905 2.02925 0
M  V30 3115 C 303.587 -2.35367 2.06329 0
M  V30 3116 C 304.062 -3.28245 3.19405 0
M  V30 3117 N 305.553 -3.35824 3.19024 0
M  V30 3118 C 306.288 -4.07739 4.03158 0
M  V30 3119 N 305.784 -4.82306 4.97346 0
M  V30 3120 N 307.577 -4.03635 3.91197 0
M  V30 3121 H 299.728 -0.648039 2.02273 0
M  V30 3122 H 301.991 -0.348149 0.881757 0
M  V30 3123 H 301.697 -1.82342 3.0074 0
M  V30 3124 H 301.571 -3.22407 1.95789 0
M  V30 3125 H 303.958 -2.74186 1.09116 0
M  V30 3126 H 304.039 -1.34585 2.17533 0
M  V30 3127 H 303.683 -2.90146 4.16867 0
M  V30 3128 H 303.613 -4.28971 3.05437 0
M  V30 3129 H 306.104 -2.8267 2.50811 0
M  V30 3130 H 306.417 -5.34661 5.57994 0
M  V30 3131 H 304.762 -4.81337 5.01338 0
M  V30 3132 H 307.953 -3.44491 3.16928 0
M  V30 3133 H 308.126 -4.59417 4.5699 0
M  V30 3134 N 301.532 -0.945985 -1.26051 0
M  V30 3135 C 302.78 -0.594941 -1.93145 0
M  V30 3136 C 303.101 0.86953 -1.7454 0
M  V30 3137 O 302.371 1.61838 -1.10387 0
M  V30 3138 H 300.951 -0.217044 -0.714773 0
M  V30 3139 H 303.613 -1.20235 -1.53393 0
M  V30 3140 H 302.709 -0.816835 -3.01221 0
M  V30 3141 N 303.011 1.40521 -0.713556 0
M  V30 3142 C 304.257 2.01714 -0.261382 0
M  V30 3143 C 304.612 1.55562 1.13217 0
M  V30 3144 O 303.905 0.764893 1.7567 0
M  V30 3145 C 304.099 3.56317 -0.278 0
M  V30 3146 C 303.928 4.17476 -1.67163 0
M  V30 3147 C 302.698 4.50998 -2.2788 0
M  V30 3148 C 304.896 4.42472 -2.6215 0
M  V30 3149 N 302.878 4.9754 -3.5962 0
M  V30 3150 C 304.249 4.90985 -3.78594 0
M  V30 3151 C 306.304 4.24508 -2.60188 0
M  V30 3152 C 305.007 5.2342 -4.9338 0
M  V30 3153 C 307.033 4.58043 -3.741 0
M  V30 3154 C 306.395 5.06743 -4.89276 0
M  V30 3155 H 302.494 0.769104 -0.141434 0
M  V30 3156 H 305.078 1.70785 -0.934915 0
M  V30 3157 H 303.249 3.8668 0.36509 0
M  V30 3158 H 304.981 4.0425 0.190695 0
M  V30 3159 H 301.736 4.38062 -1.79997 0
M  V30 3160 H 302.16 5.25196 -4.27198 0
M  V30 3161 H 306.802 3.86078 -1.72348 0
M  V30 3162 H 304.52 5.60765 -5.81866 0
M  V30 3163 H 308.106 4.45785 -3.73854 0
M  V30 3164 H 306.986 5.32204 -5.75959 0
M  V30 3165 N 304.489 0.459591 1.5075 0
M  V30 3166 C 305.737 -0.0991532 2.01857 0
M  V30 3167 C 306.058 -1.41247 1.34441 0
M  V30 3168 O 305.328 -1.89775 0.486022 0
M  V30 3169 H 303.908 -0.039633 0.745948 0
M  V30 3170 H 306.57 0.607387 1.85194 0
M  V30 3171 H 305.666 -0.258998 3.11023 0
M  V30 3172 N 305.967 -1.56429 0.191757 0
M  V30 3173 C 306.9 -2.14829 -0.76967 0
M  V30 3174 C 307.878 -1.08405 -1.2119 0
M  V30 3175 O 309.062 -1.36498 -1.30002 0
M  V30 3176 C 306.189 -2.70446 -2.03903 0
M  V30 3177 C 305.235 -3.89428 -1.7392 0
M  V30 3178 S 306.068 -5.28048 -0.890265 0
M  V30 3179 C 307.224 -5.87085 -2.16984 0
M  V30 3180 H 307.457 -2.96042 -0.273204 0
M  V30 3181 H 304.99 -1.54383 -0.0231975 0
M  V30 3182 H 306.948 -3.03134 -2.76803 0
M  V30 3183 H 305.609 -1.89281 -2.50662 0
M  V30 3184 H 304.802 -4.26742 -2.68155 0
M  V30 3185 H 304.404 -3.57732 -1.09103 0
M  V30 3186 H 306.696 -6.01244 -3.12269 0
M  V30 3187 H 307.639 -6.83747 -1.84108 0
M  V30 3188 H 308.047 -5.15663 -2.29678 0
M  V30 3189 N 307.445 0.0818655 -1.57387 0
M  V30 3190 C 308.691 0.784074 -1.8703 0
M  V30 3191 C 309.024 1.77729 -0.782689 0
M  V30 3192 O 308.299 1.93384 0.208051 0
M  V30 3193 C 308.582 1.50105 -3.27323 0
M  V30 3194 C 308.435 0.524925 -4.46727 0
M  V30 3195 C 309.754 2.44843 -3.65705 0
M  V30 3196 H 306.873 0.283582 -0.680257 0
M  V30 3197 H 309.515 0.0474352 -1.89941 0
M  V30 3198 H 307.665 2.12897 -3.24972 0
M  V30 3199 H 309.337 -0.0970111 -4.61198 0
M  V30 3200 H 307.58 -0.160606 -4.33503 0
M  V30 3201 H 308.251 1.064 -5.41648 0
M  V30 3202 H 310.727 1.92135 -3.69085 0
M  V30 3203 H 309.603 2.92018 -4.64776 0
M  V30 3204 H 309.864 3.29197 -2.95096 0
M  V30 3205 N 308.923 1.53595 0.353017 0
M  V30 3206 C 310.151 1.74311 1.1146 0
M  V30 3207 C 310.566 0.477854 1.82653 0
M  V30 3208 O 309.923 -0.549977 1.74016 0
M  V30 3209 C 309.974 2.91694 2.13534 0
M  V30 3210 O 309.695 4.13325 1.45238 0
M  V30 3211 C 311.196 3.24384 3.02142 0
M  V30 3212 H 308.416 0.582669 0.332773 0
M  V30 3213 H 310.96 2.00386 0.408107 0
M  V30 3214 H 309.115 2.67977 2.79763 0
M  V30 3215 H 309.529 4.79148 2.13349 0
M  V30 3216 H 311.003 4.09893 3.69718 0
M  V30 3217 H 311.48 2.40282 3.67643 0
M  V30 3218 H 312.086 3.50073 2.41514 0
M  V30 3219 N 310.401 -0.613514 1.45168 0
M  V30 3220 C 311.331 -1.7354 1.56225 0
M  V30 3221 C 312.312 -1.64981 0.41414 0
M  V30 3222 O 313.497 -1.83472 0.636526 0
M  V30 3223 C 310.627 -3.12128 1.52295 0
M  V30 3224 C 309.581 -3.35491 2.65762 0
M  V30 3225 C 308.907 -4.74291 2.46885 0
M  V30 3226 C 310.207 -3.26325 4.0781 0
M  V30 3227 H 311.901 -1.64543 2.50132 0
M  V30 3228 H 309.447 -0.790185 1.20383 0
M  V30 3229 H 311.4 -3.90404 1.58628 0
M  V30 3230 H 310.124 -3.2195 0.549139 0
M  V30 3231 H 308.783 -2.59603 2.58847 0
M  V30 3232 H 308.431 -4.80839 1.47657 0
M  V30 3233 H 308.131 -4.9088 3.22972 0
M  V30 3234 H 309.655 -5.54775 2.55063 0
M  V30 3235 H 311.069 -3.94483 4.16 0
M  V30 3236 H 309.466 -3.54445 4.8424 0
M  V30 3237 H 310.536 -2.23855 4.30136 0
M  V30 3238 N 311.879 -1.3236 -0.855495 0
M  V30 3239 C 312.829 -1.17809 -1.95205 0
M  V30 3240 C 313.813 -0.0852319 -1.60674 0
M  V30 3241 O 315.005 -0.311651 -1.74235 0
M  V30 3242 C 312.134 -0.902437 -3.31226 0
M  V30 3243 C 311.22 -2.03695 -3.7198 0
M  V30 3244 N 311.611 -3.28544 -3.84568 0
M  V30 3245 C 309.909 -1.93993 -4.016 0
M  V30 3246 C 310.61 -4.02847 -4.19629 0
M  V30 3247 N 309.586 -3.31138 -4.31102 0
M  V30 3248 H 313.388 -2.12462 -2.0307 0
M  V30 3249 H 310.902 -1.24127 -1.0472 0
M  V30 3250 H 312.899 -0.77915 -4.09554 0
M  V30 3251 H 311.559 0.0357267 -3.2468 0
M  V30 3252 H 312.57 -3.6349 -3.68911 0
M  V30 3253 H 309.247 -1.07733 -4.03361 0
M  V30 3254 H 310.637 -5.10506 -4.36845 0
M  V30 3255 N 313.357 1.07166 -1.15556 0
M  V30 3256 C 314.32 2.12589 -0.856644 0
M  V30 3257 C 315.32 1.6015 0.14444 0
M  V30 3258 O 316.51 1.7399 -0.0854163 0
M  V30 3259 C 313.642 3.39753 -0.279405 0
M  V30 3260 H 314.835 2.40539 -1.79112 0
M  V30 3261 H 312.388 1.23086 -0.963298 0
M  V30 3262 H 313.123 3.17447 0.663174 0
M  V30 3263 H 312.908 3.79117 -1.00063 0
M  V30 3264 H 314.398 4.17507 -0.0879113 0
M  V30 3265 N 314.835 0.952656 1.25548 0
M  V30 3266 C 315.785 0.442033 2.23674 0
M  V30 3267 C 316.769 -0.467632 1.53955 0
M  V30 3268 O 317.961 -0.301006 1.74422 0
M  V30 3269 C 315.09 -0.280816 3.4215 0
M  V30 3270 C 314.176 0.646803 4.19139 0
M  V30 3271 N 314.567 1.77759 4.73535 0
M  V30 3272 C 312.865 0.454617 4.43677 0
M  V30 3273 C 313.566 2.35658 5.31827 0
M  V30 3274 N 312.542 1.64333 5.18166 0
M  V30 3275 H 316.344 1.30505 2.63336 0
M  V30 3276 H 313.858 0.809904 1.40763 0
M  V30 3277 H 315.855 -0.663747 4.11582 0
M  V30 3278 H 314.515 -1.14046 3.04012 0
M  V30 3279 H 315.526 2.15949 4.7073 0
M  V30 3280 H 312.203 -0.362312 4.15925 0
M  V30 3281 H 313.593 3.30998 5.84713 0
M  V30 3282 N 316.313 -1.40141 0.720998 0
M  V30 3283 C 317.59 -1.94677 0.189757 0
M  V30 3284 C 317.97 -1.65879 -1.30566 0
M  V30 3285 O 317.318 -0.979391 -2.06447 0
M  V30 3286 C 317.528 -3.45279 0.508304 0
M  V30 3287 C 318.876 -4.22209 0.449934 0
M  V30 3288 O 319.9 -3.53413 0.444677 0
M  V30 3289 O 318.759 -5.44788 0.432189 0
M  V30 3290 H 315.853 -0.826459 0.0299026 0
M  V30 3291 H 318.399 -1.49719 0.7989 0
M  V30 3292 H 317.171 -3.59619 1.54239 0
M  V30 3293 H 316.794 -3.97386 -0.130525 0
M  V30 3294 N 317.792 -0.46758 -1.50504 0
M  V30 3295 C 318.702 0.33382 -2.32213 0
M  V30 3296 C 319.718 0.999323 -1.42441 0
M  V30 3297 O 320.894 0.988068 -1.75497 0
M  V30 3298 C 317.959 1.4035 -3.17022 0
M  V30 3299 C 317.02 0.754961 -4.2261 0
M  V30 3300 C 316.253 1.77367 -5.03365 0
M  V30 3301 O 316.476 2.99976 -4.8515 0
M  V30 3302 O 315.41 1.34744 -5.86624 0
M  V30 3303 H 319.236 -0.334067 -3.01857 0
M  V30 3304 H 316.821 -0.229496 -1.47627 0
M  V30 3305 H 318.703 2.02318 -3.69656 0
M  V30 3306 H 317.378 2.05492 -2.5011 0
M  V30 3307 H 316.285 0.0964244 -3.73976 0
M  V30 3308 H 317.618 0.146545 -4.91982 0
M  V30 3309 N 319.27 1.56325 -0.20005 0
M  V30 3310 C 320.2 2.22318 0.713916 0
M  V30 3311 C 321.181 1.18788 1.21752 0
M  V30 3312 O 322.366 1.47309 1.26545 0
M  V30 3313 C 319.496 2.88639 1.93144 0
M  V30 3314 C 318.45 3.98457 1.56255 0
M  V30 3315 C 317.776 4.51967 2.85709 0
M  V30 3316 C 319.076 5.16612 0.768747 0
M  V30 3317 H 320.77 2.98952 0.163755 0
M  V30 3318 H 318.316 1.43792 0.0773219 0
M  V30 3319 H 320.269 3.33491 2.57608 0
M  V30 3320 H 318.993 2.09419 2.50621 0
M  V30 3321 H 317.652 3.54305 0.941471 0
M  V30 3322 H 317.3 3.69503 3.41287 0
M  V30 3323 H 317 5.26071 2.6177 0
M  V30 3324 H 318.524 4.99523 3.51154 0
M  V30 3325 H 319.938 5.57977 1.3166 0
M  V30 3326 H 318.335 5.96812 0.627286 0
M  V30 3327 H 319.405 4.84358 -0.229168 0
M  V30 3328 N 320.748 -0.0735177 1.57428 0
M  V30 3329 C 321.711 -1.07192 2.02589 0
M  V30 3330 C 322.711 -1.31695 0.922661 0
M  V30 3331 O 323.901 -1.27445 1.18758 0
M  V30 3332 C 321.033 -2.41599 2.40506 0
M  V30 3333 H 322.226 -0.682727 2.92025 0
M  V30 3334 H 319.779 -0.319193 1.53006 0
M  V30 3335 H 320.514 -2.85354 1.5409 0
M  V30 3336 H 320.299 -2.25156 3.21009 0
M  V30 3337 H 321.789 -3.13367 2.76027 0
M  V30 3338 N 322.226 -1.5378 -0.344866 0
M  V30 3339 C 323.472 -1.71216 -1.08687 0
M  V30 3340 C 323.805 -0.473281 -1.88345 0
M  V30 3341 O 323.08 0.52968 -1.87149 0
M  V30 3342 C 323.363 -2.97486 -2.02914 0
M  V30 3343 C 323.216 -4.31579 -1.26727 0
M  V30 3344 C 324.535 -3.19422 -3.0275 0
M  V30 3345 H 321.654 -0.62301 -0.393735 0
M  V30 3346 H 324.296 -1.8645 -0.365563 0
M  V30 3347 H 322.446 -2.84629 -2.64421 0
M  V30 3348 H 324.118 -4.56284 -0.67845 0
M  V30 3349 H 322.361 -4.30049 -0.569273 0
M  V30 3350 H 323.032 -5.16106 -1.95803 0
M  V30 3351 H 325.508 -3.316 -2.51357 0
M  V30 3352 H 324.384 -4.09169 -3.65885 0
M  V30 3353 H 324.645 -2.35656 -3.74057 0
M  V30 3354 N 323.704 0.605807 -1.45491 0
M  V30 3355 C 324.981 1.36522 -1.40075 0
M  V30 3356 C 325.361 2.10976 -0.0722744 0
M  V30 3357 O 324.709 2.08007 0.945808 0
M  V30 3358 C 324.919 2.31056 -2.61561 0
M  V30 3359 C 326.267 2.93608 -3.06724 0
M  V30 3360 O 327.291 2.41376 -2.61946 0
M  V30 3361 O 326.15 3.88421 -3.84437 0
M  V30 3362 H 323.244 0.612248 -0.555951 0
M  V30 3363 H 325.79 0.628747 -1.57623 0
M  V30 3364 H 324.562 1.75311 -3.49831 0
M  V30 3365 H 324.185 3.12081 -2.46356 0
M  V30 3366 N 325.182 1.32811 0.848464 0
M  V30 3367 C 326.428 1.23907 1.60546 0
M  V30 3368 C 326.761 -0.197161 1.93197 0
M  V30 3369 O 326.036 -1.13596 1.5788 0
M  V30 3370 C 326.319 2.10489 2.92175 0
M  V30 3371 C 326.172 3.62522 2.66266 0
M  V30 3372 C 327.491 1.97075 3.93509 0
M  V30 3373 H 324.61 0.451459 0.58254 0
M  V30 3374 H 327.252 1.62818 0.979296 0
M  V30 3375 H 325.402 1.77434 3.45614 0
M  V30 3376 H 327.074 4.05821 2.19334 0
M  V30 3377 H 325.317 3.84879 2.00126 0
M  V30 3378 H 325.988 4.18437 3.6002 0
M  V30 3379 H 328.464 2.26045 3.49346 0
M  V30 3380 H 327.34 2.59923 4.83457 0
M  V30 3381 H 327.601 0.940186 4.31987 0
M  V30 3382 N 326.66 -1.06551 1.16123 0
M  V30 3383 C 327.59 -2.15935 0.88851 0
M  V30 3384 C 328.571 -1.69306 -0.164135 0
M  V30 3385 O 329.756 -1.94193 -0.0167857 0
M  V30 3386 C 326.886 -3.45149 0.385942 0
M  V30 3387 C 325.84 -4.05271 1.3762 0
M  V30 3388 C 325.166 -5.29664 0.732137 0
M  V30 3389 C 326.466 -4.44355 2.74493 0
M  V30 3390 H 328.16 -2.39006 1.80323 0
M  V30 3391 H 325.706 -1.14866 0.868435 0
M  V30 3392 H 327.659 -4.21004 0.182647 0
M  V30 3393 H 326.383 -3.21689 -0.564274 0
M  V30 3394 H 325.042 -3.3147 1.56599 0
M  V30 3395 H 324.69 -5.02499 -0.224483 0
M  V30 3396 H 324.39 -5.70848 1.39307 0
M  V30 3397 H 325.914 -6.08218 0.538802 0
M  V30 3398 H 327.328 -5.11303 2.59311 0
M  V30 3399 H 325.725 -4.96515 3.37035 0
M  V30 3400 H 326.795 -3.55339 3.29943 0
M  V30 3401 N 328.138 -0.959301 -1.25041 0
M  V30 3402 C 329.068 -0.501388 -2.28053 0
M  V30 3403 C 330.049 0.454673 -1.63911 0
M  V30 3404 O 331.234 0.352618 -1.90972 0
M  V30 3405 C 328.364 0.217224 -3.4662 0
M  V30 3406 C 327.318 -0.654034 -4.22973 0
M  V30 3407 C 326.644 0.195589 -5.34342 0
M  V30 3408 C 327.944 -1.93447 -4.85155 0
M  V30 3409 H 329.638 -1.36238 -2.66608 0
M  V30 3410 H 327.184 -0.656534 -1.28163 0
M  V30 3411 H 329.137 0.548732 -4.17812 0
M  V30 3412 H 327.861 1.1125 -3.07068 0
M  V30 3413 H 326.52 -0.968693 -3.5357 0
M  V30 3414 H 326.168 1.09076 -4.91031 0
M  V30 3415 H 325.868 -0.384091 -5.86343 0
M  V30 3416 H 327.392 0.521958 -6.08365 0
M  V30 3417 H 328.806 -1.66908 -5.48466 0
M  V30 3418 H 327.203 -2.46018 -5.47353 0
M  V30 3419 H 328.273 -2.63466 -4.07079 0
M  V30 3420 N 329.616 1.39756 -0.72842 0
M  V30 3421 C 331.027 1.83498 -0.344289 0
M  V30 3422 C 331.378 1.60868 1.12321 0
M  V30 3423 O 330.503 1.09634 1.86573 0
M  V30 3424 C 331.098 3.33114 -0.618112 0
M  V30 3425 C 329.657 3.753 -0.287549 0
M  V30 3426 C 328.804 2.62831 -0.884048 0
M  V30 3427 H 331.755 1.28842 -0.926578 0
M  V30 3428 H 331.776 3.80334 0.112349 0
M  V30 3429 H 331.288 3.49553 -1.68625 0
M  V30 3430 H 329.389 3.64451 0.775012 0
M  V30 3431 H 329.502 4.72945 -0.765512 0
M  V30 3432 H 327.866 2.52792 -0.311149 0
M  V30 3433 H 328.649 2.82078 -1.95671 0
M  V30 3434 N 331.094 0.475555 1.50254 0
M  V30 3435 C 332.505 0.0215174 1.86688 0
M  V30 3436 C 332.856 -1.38467 1.39001 0
M  V30 3437 O 331.981 -2.02732 0.756894 0
M  V30 3438 C 332.576 0.0322715 3.38785 0
M  V30 3439 C 331.135 -0.366314 3.74613 0
M  V30 3440 C 330.282 0.415832 2.74164 0
M  V30 3441 H 333.233 0.689612 1.42934 0
M  V30 3442 H 333.254 -0.76889 3.7265 0
M  V30 3443 H 332.766 1.05584 3.73462 0
M  V30 3444 H 330.867 -1.39406 3.45538 0
M  V30 3445 H 330.98 -0.064555 4.79057 0
M  V30 3446 H 329.344 -0.131048 2.54363 0
M  V30 3447 H 330.127 1.43899 3.11686 0
M  V30 3448 N 332.573 -1.56217 0.208337 0
M  V30 3449 C 333.821 -1.97558 -0.426076 0
M  V30 3450 C 334.142 -1.09683 -1.61229 0
M  V30 3451 O 333.412 -0.170956 -1.95153 0
M  V30 3452 H 331.992 -0.729575 -0.160405 0
M  V30 3453 H 334.654 -1.92606 0.298155 0
M  V30 3454 H 333.75 -3.02672 -0.761312 0
M  V30 3455 N 334.051 0.0651679 -1.57465 0
M  V30 3456 C 335.279 0.775808 -1.91804 0
M  V30 3457 C 335.694 1.70782 -0.804916 0
M  V30 3458 O 335.051 1.81153 0.221311 0
M  V30 3459 C 335.102 1.56381 -3.25925 0
M  V30 3460 O 334.823 0.669248 -4.32958 0
M  V30 3461 C 336.324 2.37485 -3.7432 0
M  V30 3462 H 333.544 0.2202 -0.63384 0
M  V30 3463 H 336.088 0.0334587 -2.04473 0
M  V30 3464 H 334.243 2.25837 -3.14764 0
M  V30 3465 H 334.657 1.21801 -5.10162 0
M  V30 3466 H 336.131 2.88223 -4.70778 0
M  V30 3467 H 336.608 3.17307 -3.03666 0
M  V30 3468 H 337.214 1.73173 -3.88447 0
M  V30 3469 N 335.529 1.53961 0.336706 0
M  V30 3470 C 336.477 1.83136 1.43401 0
M  V30 3471 C 337.471 0.702313 1.54156 0
M  V30 3472 O 338.677 0.885765 1.56698 0
M  V30 3473 H 335.052 0.580309 0.478273 0
M  V30 3474 H 337.023 2.74925 1.16012 0
M  V30 3475 C 335.772 2.06385 2.79822 0
M  V30 3476 H 335.095 2.92718 2.72316 0
M  V30 3477 H 336.535 2.30761 3.55704 0
M  V30 3478 C 334.994 0.851414 3.25964 0
M  V30 3479 O 335.524 0.0541904 4.01663 0
M  V30 3480 N 333.73 0.66672 2.82848 0
M  V30 3481 H 333.277 1.31665 2.21409 0
M  V30 3482 H 333.235 -0.143032 3.14074 0
M  V30 3483 N 337.007 -0.598083 1.45811 0
M  V30 3484 C 337.97 -1.69018 1.54808 0
M  V30 3485 C 338.97 -1.55037 0.426652 0
M  V30 3486 O 340.16 -1.59932 0.690456 0
M  V30 3487 C 337.292 -3.0835 1.45371 0
M  V30 3488 H 338.485 -1.62403 2.52121 0
M  V30 3489 H 336.038 -0.814626 1.33392 0
M  V30 3490 H 336.773 -3.20534 0.492793 0
M  V30 3491 H 336.558 -3.19907 2.26721 0
M  V30 3492 H 338.048 -3.8788 1.54721 0
M  V30 3493 N 338.485 -1.33259 -0.841409 0
M  V30 3494 C 339.448 -1.23221 -1.9326 0
M  V30 3495 C 340.448 -0.151895 -1.60081 0
M  V30 3496 O 341.638 -0.403246 -1.69468 0
M  V30 3497 C 338.77 -0.898123 -3.28856 0
M  V30 3498 H 339.963 -2.2021 -2.03587 0
M  V30 3499 H 337.516 -1.17281 -1.03319 0
M  V30 3500 H 338.251 0.0693841 -3.24226 0
M  V30 3501 H 338.036 -1.67934 -3.54317 0
M  V30 3502 H 339.526 -0.852563 -4.08805 0
M  V30 3503 N 339.963 1.05934 -1.16686 0
M  V30 3504 C 340.926 2.11669 -0.879144 0
M  V30 3505 C 341.926 1.60294 0.127445 0
M  V30 3506 O 343.116 1.7389 -0.103865 0
M  V30 3507 C 340.248 3.39438 -0.315425 0
M  V30 3508 H 341.441 2.38626 -1.81653 0
M  V30 3509 H 338.994 1.22058 -0.976299 0
M  V30 3510 H 339.729 3.18132 0.629468 0
M  V30 3511 H 339.514 3.78034 -1.04079 0
M  V30 3512 H 341.004 4.17391 -0.132189 0
M  V30 3513 N 341.441 0.965919 1.2453 0
M  V30 3514 C 342.687 0.62776 1.92839 0
M  V30 3515 C 343.02 -0.834694 1.75347 0
M  V30 3516 O 342.295 -1.60031 1.10546 0
M  V30 3517 C 342.578 1.00109 3.45905 0
M  V30 3518 C 342.431 2.52011 3.72573 0
M  V30 3519 C 343.75 0.53435 4.36844 0
M  V30 3520 H 340.869 0.229537 0.700344 0
M  V30 3521 H 343.511 1.2046 1.46933 0
M  V30 3522 H 341.661 0.510238 3.85135 0
M  V30 3523 H 343.333 3.08559 3.42912 0
M  V30 3524 H 341.576 2.95287 3.17786 0
M  V30 3525 H 342.247 2.73183 4.79661 0
M  V30 3526 H 344.723 0.955565 4.04979 0
M  V30 3527 H 343.599 0.824152 5.42678 0
M  V30 3528 H 343.86 -0.565589 4.38467 0
M  V30 3529 N 342.919 -1.39368 0.735821 0
M  V30 3530 C 344.33 -1.83313 0.354015 0
M  V30 3531 C 344.681 -1.61461 -1.11466 0
M  V30 3532 O 343.806 -1.10621 -1.85989 0
M  V30 3533 C 344.401 -3.32781 0.635769 0
M  V30 3534 C 342.96 -3.75142 0.307448 0
M  V30 3535 C 342.107 -2.62358 0.897974 0
M  V30 3536 H 345.058 -1.28349 0.933398 0
M  V30 3537 H 345.079 -3.80388 -0.0921773 0
M  V30 3538 H 344.591 -3.48654 1.70476 0
M  V30 3539 H 342.692 -3.64857 -0.755674 0
M  V30 3540 H 342.805 -4.72532 0.790583 0
M  V30 3541 H 341.169 -2.52624 0.324551 0
M  V30 3542 H 341.952 -2.81036 1.97164 0
M  V30 3543 N 344.397 -0.483516 -1.5 0
M  V30 3544 C 345.625 0.0644831 -2.06799 0
M  V30 3545 C 346.04 1.32399 -1.34596 0
M  V30 3546 O 345.397 1.77626 -0.418946 0
M  V30 3547 C 345.448 0.339927 -3.59898 0
M  V30 3548 O 345.169 -0.869635 -4.29382 0
M  V30 3549 C 346.67 0.933515 -4.33359 0
M  V30 3550 H 343.89 -0.0126333 -0.670881 0
M  V30 3551 H 346.434 -0.675864 -1.93009 0
M  V30 3552 H 344.589 1.03022 -3.7345 0
M  V30 3553 H 345.003 -0.62179 -5.20801 0
M  V30 3554 H 346.477 1.07593 -5.41413 0
M  V30 3555 H 346.954 1.92685 -3.94676 0
M  V30 3556 H 347.56 0.281221 -4.24369 0
M  V30 3557 N 345.875 1.56104 -0.216619 0
M  V30 3558 C 346.838 2.18819 0.681962 0
M  V30 3559 C 347.838 1.14866 1.12528 0
M  V30 3560 O 349.028 1.40128 1.03488 0
M  V30 3561 C 346.16 2.80756 1.93362 0
M  V30 3562 H 347.353 2.99595 0.135254 0
M  V30 3563 H 344.906 1.56265 0.0330003 0
M  V30 3564 H 345.641 2.03837 2.52232 0
M  V30 3565 H 345.426 3.56876 1.62426 0
M  V30 3566 H 346.916 3.28844 2.57393 0
M  V30 3567 N 347.353 -0.0568162 1.57498 0
M  V30 3568 C 348.764 -0.606858 1.76562 0
M  V30 3569 C 349.115 -1.77114 0.844094 0
M  V30 3570 O 348.24 -2.16376 0.0318911 0
M  V30 3571 C 348.835 -1.10766 3.20182 0
M  V30 3572 C 347.394 -1.60344 3.40539 0
M  V30 3573 C 346.541 -0.529311 2.72201 0
M  V30 3574 H 349.492 0.169393 1.57793 0
M  V30 3575 H 349.513 -1.97602 3.25167 0
M  V30 3576 H 349.025 -0.26006 3.87228 0
M  V30 3577 H 347.126 -2.47379 2.78629 0
M  V30 3578 H 347.239 -1.67006 4.4905 0
M  V30 3579 H 345.603 -0.977893 2.35179 0
M  V30 3580 H 346.386 0.308352 3.41912 0
M  V30 3581 N 348.832 -1.54138 -0.328536 0
M  V30 3582 C 349.762 -1.86167 -1.40939 0
M  V30 3583 C 350.743 -0.718044 -1.54202 0
M  V30 3584 O 351.928 -0.971328 -1.68163 0
M  V30 3585 C 349.058 -2.08461 -2.77779 0
M  V30 3586 C 348.012 -3.24299 -2.7931 0
M  V30 3587 C 347.338 -3.31955 -4.19178 0
M  V30 3588 C 348.638 -4.62065 -2.43502 0
M  V30 3589 H 350.332 -2.76689 -1.14383 0
M  V30 3590 H 347.878 -1.33132 -0.548806 0
M  V30 3591 H 349.831 -2.29453 -3.53454 0
M  V30 3592 H 348.555 -1.14684 -3.05802 0
M  V30 3593 H 347.214 -3.03187 -2.0609 0
M  V30 3594 H 346.862 -2.35745 -4.44335 0
M  V30 3595 H 346.562 -4.09805 -4.2111 0
M  V30 3596 H 348.086 -3.55175 -4.96672 0
M  V30 3597 H 349.5 -4.8297 -3.08889 0
M  V30 3598 H 347.897 -5.42429 -2.56693 0
M  V30 3599 H 348.967 -4.64652 -1.38659 0
M  V30 3600 N 350.31 0.590341 -1.46126 0
M  V30 3601 C 351.24 1.71032 -1.58966 0
M  V30 3602 C 352.221 1.64302 -0.440335 0
M  V30 3603 O 353.406 1.82436 -0.665634 0
M  V30 3604 C 350.536 3.09665 -1.57241 0
M  V30 3605 C 349.49 3.31221 -2.71066 0
M  V30 3606 C 348.816 4.70303 -2.54399 0
M  V30 3607 C 350.116 3.19796 -4.1295 0
M  V30 3608 H 351.81 1.60543 -2.52718 0
M  V30 3609 H 349.356 0.770933 -1.21625 0
M  V30 3610 H 351.309 3.87831 -1.64819 0
M  V30 3611 H 350.033 3.21036 -0.600289 0
M  V30 3612 H 348.692 2.55452 -2.62944 0
M  V30 3613 H 348.34 4.78429 -1.55288 0
M  V30 3614 H 348.04 4.85679 -3.30741 0
M  V30 3615 H 349.564 5.50647 -2.63857 0
M  V30 3616 H 350.978 3.87815 -4.22223 0
M  V30 3617 H 349.375 3.46696 -4.89818 0
M  V30 3618 H 350.445 2.16983 -4.33643 0
M  V30 3619 N 351.788 1.33704 0.83433 0
M  V30 3620 C 353.016 1.28467 1.62185 0
M  V30 3621 C 353.431 -0.143526 1.88254 0
M  V30 3622 O 352.788 -1.08709 1.4659 0
M  V30 3623 C 352.839 2.06174 2.96942 0
M  V30 3624 O 352.56 3.43422 2.72016 0
M  V30 3625 C 354.061 2.08201 3.91366 0
M  V30 3626 H 351.281 0.4424 0.504503 0
M  V30 3627 H 353.825 1.76145 1.03891 0
M  V30 3628 H 351.98 1.62167 3.51825 0
M  V30 3629 H 352.394 3.83453 3.57861 0
M  V30 3630 H 353.868 2.67017 4.83121 0
M  V30 3631 H 354.345 1.07343 4.2588 0
M  V30 3632 H 354.951 2.52246 3.42421 0
M  V30 3633 N 353.266 -1.05314 1.17247 0
M  V30 3634 C 354.229 -2.112 0.890357 0
M  V30 3635 C 355.229 -1.60359 -0.118943 0
M  V30 3636 O 356.419 -1.73833 0.113086 0
M  V30 3637 C 353.551 -3.39266 0.333422 0
M  V30 3638 H 354.744 -2.37659 1.82916 0
M  V30 3639 H 352.297 -1.21538 0.982758 0
M  V30 3640 H 353.032 -3.18462 -0.612587 0
M  V30 3641 H 352.817 -3.77477 1.06082 0
M  V30 3642 H 354.307 -4.17315 0.154322 0
M  V30 3643 N 354.744 -0.972509 -1.24016 0
M  V30 3644 C 355.674 -0.525548 -2.27509 0
M  V30 3645 C 356.655 0.437262 -1.64384 0
M  V30 3646 O 357.84 0.332343 -1.91335 0
M  V30 3647 C 354.97 0.180448 -3.46831 0
M  V30 3648 C 353.924 -0.698859 -4.22256 0
M  V30 3649 C 353.25 0.138903 -5.3452 0
M  V30 3650 C 354.55 -1.98582 -4.83076 0
M  V30 3651 H 356.244 -1.39058 -2.65148 0
M  V30 3652 H 353.79 -0.67009 -1.27459 0
M  V30 3653 H 355.743 0.504387 -4.18371 0
M  V30 3654 H 354.467 1.07987 -3.08231 0
M  V30 3655 H 353.126 -1.00614 -3.52523 0
M  V30 3656 H 352.774 1.03862 -4.9216 0
M  V30 3657 H 352.474 -0.446259 -5.85903 0
M  V30 3658 H 353.998 0.457404 -6.08884 0
M  V30 3659 H 355.412 -1.72715 -5.46665 0
M  V30 3660 H 353.809 -2.5181 -5.44713 0
M  V30 3661 H 354.879 -2.67769 -4.04262 0
M  V30 3662 N 356.222 1.38976 -0.743202 0
M  V30 3663 C 357.172 2.27843 -0.084513 0
M  V30 3664 C 358.156 1.44677 0.704094 0
M  V30 3665 O 359.348 1.67511 0.571755 0
M  V30 3666 C 356.477 3.33466 0.815781 0
M  V30 3667 C 355.563 4.24095 0.0208844 0
M  V30 3668 N 355.954 4.95609 -1.0102 0
M  V30 3669 C 354.252 4.45303 0.249293 0
M  V30 3670 C 354.953 5.62287 -1.49024 0
M  V30 3671 N 353.929 5.37571 -0.807377 0
M  V30 3672 H 357.731 2.80593 -0.87436 0
M  V30 3673 H 355.245 1.51755 -0.578283 0
M  V30 3674 H 357.242 3.96008 1.30321 0
M  V30 3675 H 355.902 2.82276 1.6047 0
M  V30 3676 H 356.913 4.98849 -1.39176 0
M  V30 3677 H 353.59 4.0504 1.01237 0
M  V30 3678 H 354.98 6.29519 -2.34853 0
M  V30 3679 N 357.7 0.491464 1.49741 0
M  V30 3680 C 359.116 0.146835 1.58923 0
M  V30 3681 C 359.316 -1.34804 1.49767 0
M  V30 3682 O 358.372 -2.12317 1.36667 0
M  V30 3683 C 359.685 0.715157 2.92072 0
M  V30 3684 C 361.233 0.680407 3.05515 0
M  V30 3685 C 361.708 1.22663 4.41269 0
M  V30 3686 N 363.199 1.18691 4.47735 0
M  V30 3687 C 363.934 1.57984 5.51207 0
M  V30 3688 N 363.43 2.04824 6.6183 0
M  V30 3689 N 365.223 1.49459 5.41866 0
M  V30 3690 H 357.374 1.46347 1.53936 0
M  V30 3691 H 359.637 0.606453 0.728642 0
M  V30 3692 H 359.343 1.76317 3.04311 0
M  V30 3693 H 359.217 0.17018 3.76816 0
M  V30 3694 H 361.604 -0.358743 2.92911 0
M  V30 3695 H 361.685 1.26242 2.22478 0
M  V30 3696 H 361.329 2.26451 4.54623 0
M  V30 3697 H 361.259 0.620637 5.2293 0
M  V30 3698 H 363.75 0.843605 3.68364 0
M  V30 3699 H 364.063 2.32901 7.3687 0
M  V30 3700 H 362.408 2.08791 6.62896 0
M  V30 3701 H 365.599 1.12692 4.54333 0
M  V30 3702 H 365.772 1.80406 6.22381 0
M  V30 3703 N 359.178 -1.55987 0.224894 0
M  V30 3704 C 360.594 -1.59066 -0.130426 0
M  V30 3705 C 360.794 -1.24176 -1.5869 0
M  V30 3706 O 359.85 -0.978592 -2.32766 0
M  V30 3707 C 361.163 -3.00042 0.198883 0
M  V30 3708 C 362.711 -3.1268 0.141391 0
M  V30 3709 C 363.186 -4.55839 0.444422 0
M  V30 3710 N 364.677 -4.6152 0.394115 0
M  V30 3711 C 365.412 -5.70231 0.602038 0
M  V30 3712 N 364.908 -6.87291 0.871914 0
M  V30 3713 N 366.701 -5.59555 0.534245 0
M  V30 3714 H 358.852 -1.76941 1.17497 0
M  V30 3715 H 361.115 -0.822604 0.471197 0
M  V30 3716 H 360.821 -3.30234 1.2099 0
M  V30 3717 H 360.695 -3.74075 -0.484535 0
M  V30 3718 H 363.082 -2.82283 -0.860265 0
M  V30 3719 H 363.163 -2.40969 0.858335 0
M  V30 3720 H 362.807 -4.86954 1.44353 0
M  V30 3721 H 362.737 -5.2578 -0.293752 0
M  V30 3722 H 365.228 -3.77405 0.193356 0
M  V30 3723 H 365.541 -7.66058 1.01858 0
M  V30 3724 H 363.886 -6.89028 0.909145 0
M  V30 3725 H 367.077 -4.6698 0.323612 0
M  V30 3726 H 367.25 -6.44211 0.699693 0
M  V30 3727 N 360.656 0.0484629 -1.57525 0
M  V30 3728 C 361.881 0.759177 -1.93006 0
M  V30 3729 C 362.306 1.69125 -0.823317 0
M  V30 3730 O 361.664 1.79931 0.222364 0
M  V30 3731 C 361.712 1.50899 -3.27509 0
M  V30 3732 O 360.816 2.62112 -3.18388 0
M  V30 3733 H 360.157 0.205564 -0.631379 0
M  V30 3734 H 362.687 0.00972959 -2.04598 0
M  V30 3735 H 362.697 1.88317 -3.6194 0
M  V30 3736 H 361.372 0.825269 -4.0763 0
M  V30 3737 H 359.949 2.27379 -2.95556 0
M  V30 3738 N 362.134 1.5431 0.320358 0
M  V30 3739 C 363.097 1.83195 1.3774 0
M  V30 3740 C 364.097 0.703906 1.44575 0
M  V30 3741 O 365.287 0.972214 1.44546 0
M  V30 3742 C 362.419 1.99487 2.76438 0
M  V30 3743 H 363.612 2.77642 1.1338 0
M  V30 3744 H 361.165 1.46076 0.556012 0
M  V30 3745 H 361.9 1.07262 3.06048 0
M  V30 3746 H 361.685 2.81575 2.7287 0
M  V30 3747 H 363.175 2.23271 3.52902 0
M  V30 3748 N 363.613 -0.582584 1.46437 0
M  V30 3749 C 364.838 -1.37168 1.55563 0
M  V30 3750 C 365.263 -1.87061 0.19743 0
M  V30 3751 O 364.621 -1.61572 -0.822451 0
M  V30 3752 C 364.669 -2.53511 2.56446 0
M  V30 3753 O 363.773 -3.54953 2.09958 0
M  V30 3754 H 363.114 -0.408494 0.523477 0
M  V30 3755 H 365.644 -0.706646 1.9201 0
M  V30 3756 H 365.654 -3.00426 2.76058 0
M  V30 3757 H 364.329 -2.16549 3.55076 0
M  V30 3758 H 362.906 -3.14516 2.00334 0
M  V30 3759 N 365.091 -1.34144 -0.827227 0
M  V30 3760 C 366.319 -1.29325 -1.61501 0
M  V30 3761 C 366.734 0.13354 -1.88327 0
M  V30 3762 O 366.091 1.0793 -1.47164 0
M  V30 3763 C 366.142 -2.07746 -2.95844 0
M  V30 3764 O 365.863 -3.4486 -2.70191 0
M  V30 3765 C 367.364 -2.10273 -3.90256 0
M  V30 3766 H 364.584 -0.445069 -0.50215 0
M  V30 3767 H 367.128 -1.76693 -1.02955 0
M  V30 3768 H 365.283 -1.6403 -3.5096 0
M  V30 3769 H 365.697 -3.85345 -3.55822 0
M  V30 3770 H 367.171 -2.69575 -4.81698 0
M  V30 3771 H 367.648 -1.096 -4.25305 0
M  V30 3772 H 368.254 -2.54059 -3.41078 0
M  V30 3773 N 366.569 1.04691 -1.17803 0
M  V30 3774 C 367.794 1.81984 -0.994813 0
M  V30 3775 C 368.219 1.82586 0.452112 0
M  V30 3776 O 367.577 1.23854 1.324 0
M  V30 3777 C 367.625 3.2575 -1.54659 0
M  V30 3778 O 366.729 4.05267 -0.763728 0
M  V30 3779 H 366.07 0.562483 -0.352857 0
M  V30 3780 H 368.6 1.3189 -1.56417 0
M  V30 3781 H 368.61 3.76541 -1.57102 0
M  V30 3782 H 367.285 3.24627 -2.59981 0
M  V30 3783 H 365.862 3.63972 -0.811108 0
M  V30 3784 N 368.047 0.979072 1.23499 0
M  V30 3785 C 369.293 0.648178 1.92163 0
M  V30 3786 C 369.626 -0.816049 1.76222 0
M  V30 3787 O 368.901 -1.58849 1.12237 0
M  V30 3788 C 369.184 1.03773 3.44824 0
M  V30 3789 C 369.037 2.55948 3.69879 0
M  V30 3790 C 370.356 0.580653 4.36253 0
M  V30 3791 H 367.475 0.236952 0.69787 0
M  V30 3792 H 370.117 1.22012 1.45647 0
M  V30 3793 H 368.267 0.551058 3.84572 0
M  V30 3794 H 369.939 3.12179 3.3962 0
M  V30 3795 H 368.182 2.98641 3.14636 0
M  V30 3796 H 368.853 2.78255 4.76737 0
M  V30 3797 H 371.329 0.998465 4.03943 0
M  V30 3798 H 370.205 0.881663 5.41773 0
M  V30 3799 H 370.466 -0.519052 4.39042 0
M  V30 3800 N 369.525 -1.3858 0.750561 0
M  V30 3801 C 370.435 -2.34278 0.122825 0
M  V30 3802 C 371.451 -1.59116 -0.704131 0
M  V30 3803 O 372.627 -1.91326 -0.628987 0
M  V30 3804 C 369.692 -3.38221 -0.762086 0
M  V30 3805 C 368.753 -4.29227 0.078896 0
M  V30 3806 C 367.986 -5.28205 -0.763874 0
M  V30 3807 O 368.209 -5.34112 -2.00201 0
M  V30 3808 O 367.143 -6.01618 -0.18428 0
M  V30 3809 H 370.969 -2.89649 0.913088 0
M  V30 3810 H 368.554 -1.40374 0.511417 0
M  V30 3811 H 370.436 -4.01872 -1.26793 0
M  V30 3812 H 369.111 -2.85211 -1.5309 0
M  V30 3813 H 368.018 -3.68747 0.630621 0
M  V30 3814 H 369.351 -4.85484 0.810289 0
M  V30 3815 N 371.003 -0.499398 -1.49478 0
M  V30 3816 C 371.933 0.269244 -2.31943 0
M  V30 3817 C 372.914 0.964054 -1.40143 0
M  V30 3818 O 374.099 0.955767 -1.69052 0
M  V30 3819 C 371.229 1.33504 -3.20615 0
M  V30 3820 C 370.183 0.760202 -4.21195 0
M  V30 3821 C 369.509 1.9264 -4.98792 0
M  V30 3822 C 370.809 -0.247661 -5.21712 0
M  V30 3823 H 372.503 -0.419082 -2.96452 0
M  V30 3824 H 370.049 -0.202988 -1.42562 0
M  V30 3825 H 372.002 1.88048 -3.77115 0
M  V30 3826 H 370.726 2.05253 -2.54045 0
M  V30 3827 H 369.385 0.23653 -3.65836 0
M  V30 3828 H 369.033 2.63154 -4.28671 0
M  V30 3829 H 368.733 1.54785 -5.66847 0
M  V30 3830 H 370.257 2.4762 -5.58137 0
M  V30 3831 H 371.671 0.209579 -5.72917 0
M  V30 3832 H 370.068 -0.541962 -5.97648 0
M  V30 3833 H 371.138 -1.16409 -4.7072 0
M  V30 3834 N 372.481 1.55866 -0.233164 0
M  V30 3835 C 373.444 2.1953 0.658715 0
M  V30 3836 C 374.444 1.16053 1.11303 0
M  V30 3837 O 375.634 1.41218 1.01996 0
M  V30 3838 C 372.766 2.82791 1.90373 0
M  V30 3839 H 373.959 2.99721 0.10347 0
M  V30 3840 H 371.512 1.56291 0.0164245 0
M  V30 3841 H 372.247 2.06501 2.50056 0
M  V30 3842 H 372.032 3.58578 1.58632 0
M  V30 3843 H 373.522 3.31556 2.53891 0
M  V30 3844 N 373.959 -0.0401083 1.57549 0
M  V30 3845 C 374.889 -1.04384 2.08869 0
M  V30 3846 C 375.87 -1.38407 0.988817 0
M  V30 3847 O 377.055 -1.47483 1.26342 0
M  V30 3848 C 374.185 -2.34808 2.55895 0
M  V30 3849 C 373.139 -2.15057 3.70047 0
M  V30 3850 C 372.465 -3.51145 4.03239 0
M  V30 3851 C 373.765 -1.54576 4.98902 0
M  V30 3852 H 375.459 -0.616666 2.92981 0
M  V30 3853 H 373.005 -0.295184 1.40942 0
M  V30 3854 H 374.958 -3.05346 2.90417 0
M  V30 3855 H 373.682 -2.79565 1.68853 0
M  V30 3856 H 372.341 -1.46954 3.35857 0
M  V30 3857 H 371.989 -3.93529 3.13279 0
M  V30 3858 H 371.689 -3.38758 4.80122 0
M  V30 3859 H 373.213 -4.23062 4.40285 0
M  V30 3860 H 374.627 -2.15017 5.31451 0
M  V30 3861 H 373.024 -1.52796 5.80322 0
M  V30 3862 H 374.094 -0.51039 4.82206 0
M  V30 3863 N 375.437 -1.54477 -0.31217 0
M  V30 3864 C 376.848 -1.64344 -0.885891 0
M  V30 3865 C 377.199 -0.54485 -1.88483 0
M  V30 3866 O 376.324 0.320387 -2.14015 0
M  V30 3867 C 376.919 -2.97908 -1.61357 0
M  V30 3868 C 375.478 -3.09933 -2.13585 0
M  V30 3869 C 374.625 -2.59971 -0.964897 0
M  V30 3870 H 377.576 -1.58448 -0.0894528 0
M  V30 3871 H 377.597 -2.88706 -2.47848 0
M  V30 3872 H 377.109 -3.77845 -0.886277 0
M  V30 3873 H 375.21 -2.34694 -2.89395 0
M  V30 3874 H 375.323 -4.15916 -2.37804 0
M  V30 3875 H 373.687 -2.16147 -1.34731 0
M  V30 3876 H 374.47 -3.42376 -0.251742 0
M  V30 3877 N 376.915 0.57481 -1.46744 0
M  V30 3878 C 378.331 0.898981 -1.31873 0
M  V30 3879 C 378.531 1.99313 -0.29605 0
M  V30 3880 O 377.587 2.50728 0.298621 0
M  V30 3881 C 378.9 1.30886 -2.7072 0
M  V30 3882 C 380.448 1.42127 -2.78871 0
M  V30 3883 C 380.923 1.86478 -4.18318 0
M  V30 3884 N 382.414 1.93658 -4.20774 0
M  V30 3885 C 383.149 2.29267 -5.2557 0
M  V30 3886 N 382.645 2.63612 -6.40688 0
M  V30 3887 N 384.438 2.29889 -5.1294 0
M  V30 3888 H 376.589 -0.147839 -2.11885 0
M  V30 3889 H 378.852 -0.00347013 -0.947994 0
M  V30 3890 H 378.558 0.578853 -3.46904 0
M  V30 3891 H 378.432 2.26874 -3.01343 0
M  V30 3892 H 380.819 2.14213 -2.0297 0
M  V30 3893 H 380.9 0.443705 -2.51922 0
M  V30 3894 H 380.544 1.14968 -4.94717 0
M  V30 3895 H 380.474 2.85207 -4.42679 0
M  V30 3896 H 382.965 1.69574 -3.37718 0
M  V30 3897 H 383.278 2.89759 -7.16421 0
M  V30 3898 H 381.623 2.61232 -6.44036 0
M  V30 3899 H 384.814 2.02485 -4.22039 0
M  V30 3900 H 384.987 2.57312 -5.94722 0
M  V30 3901 N 378.394 1.34581 0.820102 0
M  V30 3902 C 379.641 1.27096 1.57648 0
M  V30 3903 C 379.969 -0.158317 1.93855 0
M  V30 3904 O 379.224 -1.12028 1.60463 0
M  V30 3905 C 379.523 2.10997 2.8847 0
M  V30 3906 C 379.189 3.59966 2.71543 0
M  V30 3907 C 377.851 4.00575 2.66634 0
M  V30 3908 C 380.203 4.54548 2.55021 0
M  V30 3909 C 377.531 5.33953 2.43128 0
M  V30 3910 C 379.883 5.88109 2.33047 0
M  V30 3911 C 378.547 6.27878 2.26552 0
M  V30 3912 H 377.817 0.465078 0.576874 0
M  V30 3913 H 380.464 1.6635 0.948671 0
M  V30 3914 H 378.769 1.6458 3.55557 0
M  V30 3915 H 380.466 2.0255 3.46084 0
M  V30 3916 H 377.056 3.27733 2.76205 0
M  V30 3917 H 381.24 4.24069 2.57835 0
M  V30 3918 H 376.496 5.63781 2.3656 0
M  V30 3919 H 380.67 6.60985 2.19251 0
M  V30 3920 H 378.297 7.31162 2.081 0
M  V30 3921 N 379.872 -1.04064 1.18357 0
M  V30 3922 C 380.782 -2.15569 0.925596 0
M  V30 3923 C 381.798 -1.7365 -0.110295 0
M  V30 3924 O 382.974 -2.01273 0.0716218 0
M  V30 3925 C 380.039 -3.43704 0.454836 0
M  V30 3926 C 379.1 -4.00004 1.55869 0
M  V30 3927 C 378.333 -5.22023 1.1103 0
M  V30 3928 O 378.556 -5.70392 -0.0309756 0
M  V30 3929 O 377.49 -5.70856 1.90805 0
M  V30 3930 H 381.316 -2.40187 1.8586 0
M  V30 3931 H 378.901 -1.1402 0.965394 0
M  V30 3932 H 380.783 -4.20923 0.200382 0
M  V30 3933 H 379.458 -3.20559 -0.449876 0
M  V30 3934 H 378.365 -3.24172 1.86716 0
M  V30 3935 H 379.698 -4.2749 2.43953 0
M  V30 3936 N 381.35 -0.985608 -1.22978 0
M  V30 3937 C 382.28 -0.549649 -2.26939 0
M  V30 3938 C 383.261 0.419803 -1.64838 0
M  V30 3939 O 384.446 0.31203 -1.91677 0
M  V30 3940 C 381.576 0.143652 -3.47003 0
M  V30 3941 C 380.53 -0.743606 -4.21491 0
M  V30 3942 C 379.856 0.0822027 -5.34637 0
M  V30 3943 C 381.156 -2.03694 -4.80943 0
M  V30 3944 H 382.85 -1.41862 -2.63658 0
M  V30 3945 H 380.396 -0.683571 -1.26741 0
M  V30 3946 H 382.349 0.459985 -4.18882 0
M  V30 3947 H 381.073 1.04711 -3.09359 0
M  V30 3948 H 379.732 -1.04347 -3.51436 0
M  V30 3949 H 379.38 0.986359 -4.93234 0
M  V30 3950 H 379.08 -0.508377 -5.85397 0
M  V30 3951 H 380.604 0.392797 -6.09335 0
M  V30 3952 H 382.018 -1.78504 -5.44802 0
M  V30 3953 H 380.415 -2.57573 -5.42011 0
M  V30 3954 H 381.485 -2.72042 -4.01399 0
M  V30 3955 N 382.828 1.3818 -0.7579 0
M  V30 3956 C 384.056 2.04301 -0.326937 0
M  V30 3957 C 384.471 1.57163 1.0462 0
M  V30 3958 O 383.828 0.746626 1.66529 0
M  V30 3959 C 383.879 3.59846 -0.345363 0
M  V30 3960 O 383.6 4.05256 -1.66432 0
M  V30 3961 C 385.101 4.4319 0.098927 0
M  V30 3962 H 382.321 0.656443 -0.139012 0
M  V30 3963 H 384.865 1.76786 -1.02796 0
M  V30 3964 H 383.02 3.86182 0.306955 0
M  V30 3965 H 383.434 4.99709 -1.59345 0
M  V30 3966 H 384.908 5.51989 0.0348745 0
M  V30 3967 H 385.385 4.23947 1.14741 0
M  V30 3968 H 385.991 4.22051 -0.52468 0
M  V30 3969 N 384.306 0.507319 1.49211 0
M  V30 3970 C 385.238 -0.304532 2.27168 0
M  V30 3971 C 386.251 -0.924956 1.33972 0
M  V30 3972 O 387.44 -0.807227 1.59205 0
M  V30 3973 C 384.54 -1.44431 3.06583 0
M  V30 3974 C 383.713 -0.930026 4.27398 0
M  V30 3975 C 382.772 -1.94817 4.88807 0
M  V30 3976 O 381.798 -1.51418 5.4869 0
M  V30 3977 N 383 -3.279 4.79022 0
M  V30 3978 H 385.765 0.36395 2.97482 0
M  V30 3979 H 383.326 0.340249 1.58284 0
M  V30 3980 H 385.318 -2.12311 3.44537 0
M  V30 3981 H 383.888 -2.01684 2.38835 0
M  V30 3982 H 383.108 -0.0759244 3.94127 0
M  V30 3983 H 384.396 -0.564932 5.05654 0
M  V30 3984 H 383.794 -3.65843 4.3148 0
M  V30 3985 H 382.351 -3.91476 5.21142 0
M  V30 3986 N 385.784 -1.5574 0.241426 0
M  V30 3987 C 387.195 -1.84842 -0.262755 0
M  V30 3988 C 387.546 -1.16317 -1.58003 0
M  V30 3989 O 386.671 -0.439653 -2.11887 0
M  V30 3990 C 387.266 -3.35332 -0.483523 0
M  V30 3991 C 385.825 -3.6468 -0.931977 0
M  V30 3992 C 384.972 -2.77299 -0.0061151 0
M  V30 3993 H 387.923 -1.51761 0.464129 0
M  V30 3994 H 387.944 -3.56615 -1.32688 0
M  V30 3995 H 387.456 -3.85178 0.47537 0
M  V30 3996 H 385.557 -3.20307 -1.90353 0
M  V30 3997 H 385.67 -4.72498 -0.792628 0
M  V30 3998 H 384.034 -2.49408 -0.516503 0
M  V30 3999 H 384.817 -3.2995 0.948052 0
M  V30 4000 N 387.262 0.0317525 -1.57568 0
M  V30 4001 C 388.212 1.04101 -2.02847 0
M  V30 4002 C 389.196 1.3219 -0.917317 0
M  V30 4003 O 390.388 1.31819 -1.18121 0
M  V30 4004 C 387.517 2.34295 -2.5092 0
M  V30 4005 C 386.603 2.09308 -3.68851 0
M  V30 4006 N 386.994 1.5437 -4.81667 0
M  V30 4007 C 385.292 2.39604 -3.76172 0
M  V30 4008 C 385.993 1.45126 -5.63306 0
M  V30 4009 N 384.969 1.92589 -5.08341 0
M  V30 4010 H 388.771 0.610217 -2.87495 0
M  V30 4011 H 386.285 0.238108 -1.60645 0
M  V30 4012 H 388.282 3.07404 -2.81617 0
M  V30 4013 H 386.942 2.78055 -1.67677 0
M  V30 4014 H 387.953 1.22678 -5.03161 0
M  V30 4015 H 384.63 2.86457 -3.03724 0
M  V30 4016 H 386.02 1.03163 -6.63933 0
M  V30 4017 N 388.74 1.54641 0.303973 0
M  V30 4018 C 389.672 1.81754 1.39636 0
M  V30 4019 C 390.685 0.70035 1.46966 0
M  V30 4020 O 391.874 0.97778 1.49338 0
M  V30 4021 C 388.974 1.93785 2.7803 0
M  V30 4022 C 388.147 3.24156 2.93669 0
M  V30 4023 C 387.206 3.26641 4.12544 0
M  V30 4024 O 386.232 4.00187 4.04771 0
M  V30 4025 N 387.434 2.5182 5.23036 0
M  V30 4026 H 390.199 2.76031 1.16734 0
M  V30 4027 H 387.76 1.54178 0.494033 0
M  V30 4028 H 389.752 1.92852 3.55795 0
M  V30 4029 H 388.322 1.06515 2.93893 0
M  V30 4030 H 387.542 3.37887 2.03042 0
M  V30 4031 H 388.83 4.10195 3.01027 0
M  V30 4032 H 388.228 1.91692 5.32232 0
M  V30 4033 H 386.785 2.56644 5.99147 0
M  V30 4034 N 390.218 -0.567019 1.47046 0
M  V30 4035 C 391.148 -1.68482 1.61667 0
M  V30 4036 C 392.129 -1.6358 0.466418 0
M  V30 4037 O 393.314 -1.81354 0.694574 0
M  V30 4038 C 390.444 -3.07124 1.62148 0
M  V30 4039 C 389.398 -3.26867 2.76301 0
M  V30 4040 C 388.724 -4.66196 2.61849 0
M  V30 4041 C 390.024 -3.13186 4.17986 0
M  V30 4042 H 391.718 -1.56502 2.5524 0
M  V30 4043 H 389.264 -0.751486 1.22836 0
M  V30 4044 H 391.217 -3.8516 1.70968 0
M  V30 4045 H 389.941 -3.2004 0.651287 0
M  V30 4046 H 388.6 -2.51237 2.66975 0
M  V30 4047 H 388.248 -4.75898 1.62879 0
M  V30 4048 H 387.948 -4.80356 3.38425 0
M  V30 4049 H 389.472 -5.46379 2.72584 0
M  V30 4050 H 390.886 -3.81049 4.2834 0
M  V30 4051 H 389.283 -3.3886 4.95272 0
M  V30 4052 H 390.353 -2.10057 4.3704 0
M  V30 4053 N 391.696 -1.35014 -0.812953 0
M  V30 4054 C 392.942 -1.2812 -1.57204 0
M  V30 4055 C 393.275 0.145869 -1.93651 0
M  V30 4056 O 392.55 1.0937 -1.60836 0
M  V30 4057 C 392.833 -2.18162 -2.86492 0
M  V30 4058 C 392.686 -3.69454 -2.56561 0
M  V30 4059 C 394.005 -2.07439 -3.88145 0
M  V30 4060 H 391.124 -0.466746 -0.570366 0
M  V30 4061 H 393.766 -1.65357 -0.935783 0
M  V30 4062 H 391.916 -1.86535 -3.40789 0
M  V30 4063 H 393.588 -4.11493 -2.08497 0
M  V30 4064 H 391.831 -3.9005 -1.89851 0
M  V30 4065 H 392.502 -4.27835 -3.48799 0
M  V30 4066 H 394.978 -2.35228 -3.4323 0
M  V30 4067 H 393.854 -2.7265 -4.76396 0
M  V30 4068 H 394.115 -1.05439 -4.29343 0
M  V30 4069 N 393.175 1.03435 -1.18907 0
M  V30 4070 C 394.085 2.15075 -0.937015 0
M  V30 4071 C 395.101 1.73706 0.101085 0
M  V30 4072 O 396.277 2.01232 -0.0822948 0
M  V30 4073 C 393.342 3.43458 -0.473057 0
M  V30 4074 C 392.403 3.99172 -1.57989 0
M  V30 4075 C 391.636 5.21427 -1.13797 0
M  V30 4076 O 391.859 5.704 0.000725941 0
M  V30 4077 O 390.793 5.69837 -1.9383 0
M  V30 4078 H 394.619 2.39198 -1.87131 0
M  V30 4079 H 392.204 1.13506 -0.971427 0
M  V30 4080 H 394.086 4.20811 -0.222702 0
M  V30 4081 H 392.761 3.20793 0.432869 0
M  V30 4082 H 391.668 3.23178 -1.88433 0
M  V30 4083 H 393.001 4.2619 -2.46217 0
M  V30 4084 N 394.653 0.992116 1.22453 0
M  V30 4085 C 395.899 0.668523 1.91464 0
M  V30 4086 C 396.232 -0.797313 1.77078 0
M  V30 4087 O 395.507 -1.5765 1.13916 0
M  V30 4088 C 395.79 1.07424 3.43703 0
M  V30 4089 C 395.643 2.59857 3.67143 0
M  V30 4090 C 396.962 0.626891 4.35612 0
M  V30 4091 H 394.081 0.244341 0.695318 0
M  V30 4092 H 396.723 1.2355 1.44345 0
M  V30 4093 H 394.873 0.591816 3.83966 0
M  V30 4094 H 396.545 3.15764 3.3629 0
M  V30 4095 H 394.788 3.01961 3.11451 0
M  V30 4096 H 395.459 2.83296 4.73759 0
M  V30 4097 H 397.935 1.04125 4.02861 0
M  V30 4098 H 396.811 0.939076 5.40807 0
M  V30 4099 H 397.072 -0.472457 4.39568 0
M  V30 4100 N 396.131 -1.37776 0.765217 0
M  V30 4101 C 397.061 -2.32945 0.160953 0
M  V30 4102 C 398.042 -1.55454 -0.690516 0
M  V30 4103 O 399.227 -1.83721 -0.629318 0
M  V30 4104 C 396.357 -3.39669 -0.724031 0
M  V30 4105 C 395.311 -4.27992 0.0256173 0
M  V30 4106 C 394.637 -5.25673 -0.978383 0
M  V30 4107 C 395.937 -5.08309 1.20082 0
M  V30 4108 H 397.631 -2.83728 0.955969 0
M  V30 4109 H 395.177 -1.36416 0.461149 0
M  V30 4110 H 397.13 -4.05219 -1.15652 0
M  V30 4111 H 395.854 -2.87396 -1.5515 0
M  V30 4112 H 394.513 -3.63964 0.438812 0
M  V30 4113 H 394.161 -4.69682 -1.80022 0
M  V30 4114 H 393.861 -5.85625 -0.481378 0
M  V30 4115 H 395.385 -5.94098 -1.40995 0
M  V30 4116 H 396.799 -5.67034 0.845307 0
M  V30 4117 H 395.196 -5.77554 1.62947 0
M  V30 4118 H 396.266 -4.41365 2.00811 0
M  V30 4119 N 397.609 -0.515225 -1.4894 0
M  V30 4120 C 398.572 0.244681 -2.2789 0
M  V30 4121 C 399.572 0.881166 -1.34507 0
M  V30 4122 O 400.762 0.743497 -1.57537 0
M  V30 4123 C 397.894 1.35247 -3.12923 0
M  V30 4124 H 399.087 -0.448289 -2.96531 0
M  V30 4125 H 396.64 -0.270656 -1.53939 0
M  V30 4126 H 397.375 2.07916 -2.48881 0
M  V30 4127 H 397.16 0.901374 -3.81599 0
M  V30 4128 H 398.65 1.88737 -3.72516 0
M  V30 4129 N 399.087 1.5561 -0.249682 0
M  V30 4130 C 399.997 2.25143 0.659375 0
M  V30 4131 C 401.013 1.2685 1.19101 0
M  V30 4132 O 402.189 1.59732 1.22669 0
M  V30 4133 C 399.254 2.93945 1.8384 0
M  V30 4134 C 398.315 4.07655 1.34596 0
M  V30 4135 C 397.548 4.73167 2.46878 0
M  V30 4136 O 397.771 4.37768 3.65671 0
M  V30 4137 O 396.705 5.61623 2.16478 0
M  V30 4138 H 400.531 3.03545 0.0968698 0
M  V30 4139 H 398.116 1.49389 -0.018074 0
M  V30 4140 H 399.998 3.37271 2.52638 0
M  V30 4141 H 398.673 2.18481 2.38847 0
M  V30 4142 H 397.58 3.68839 0.625174 0
M  V30 4143 H 398.913 4.84946 0.841941 0
M  V30 4144 N 400.565 -0.0233959 1.57583 0
M  V30 4145 C 401.528 -1.00693 2.05897 0
M  V30 4146 C 402.528 -1.28693 0.964092 0
M  V30 4147 O 403.718 -1.23602 1.22753 0
M  V30 4148 C 400.85 -2.33825 2.4807 0
M  V30 4149 H 402.043 -0.589476 2.9405 0
M  V30 4150 H 399.596 -0.270354 1.53944 0
M  V30 4151 H 400.331 -2.80307 1.6309 0
M  V30 4152 H 400.116 -2.1483 3.2801 0
M  V30 4153 H 401.606 -3.04426 2.85857 0
M  V30 4154 N 402.043 -1.548 -0.295768 0
M  V30 4155 C 403.291 -1.73985 -1.02828 0
M  V30 4156 C 403.612 -0.531406 -1.87619 0
M  V30 4157 O 402.882 0.454221 -1.90561 0
M  V30 4158 H 401.462 -0.641556 -0.382642 0
M  V30 4159 H 404.124 -1.92163 -0.325489 0
M  V30 4160 H 403.22 -2.63129 -1.67838 0
M  V30 4161 N 403.521 0.559213 -1.47345 0
M  V30 4162 C 404.767 1.31843 -1.54095 0
M  V30 4163 C 405.1 1.93149 -0.201726 0
M  V30 4164 O 404.375 1.77759 0.789428 0
M  V30 4165 C 404.658 2.43006 -2.65744 0
M  V30 4166 C 404.511 1.86581 -4.09277 0
M  V30 4167 C 405.83 3.44943 -2.73318 0
M  V30 4168 H 402.949 0.478012 -0.560957 0
M  V30 4169 H 405.591 0.625977 -1.79392 0
M  V30 4170 H 403.741 3.02072 -2.44305 0
M  V30 4171 H 405.413 1.31792 -4.42073 0
M  V30 4172 H 403.656 1.17268 -4.17649 0
M  V30 4173 H 404.327 2.66933 -4.83168 0
M  V30 4174 H 406.803 2.95793 -2.92653 0
M  V30 4175 H 405.679 4.20153 -3.53218 0
M  V30 4176 H 405.94 4.03665 -1.80296 0
M  V30 4177 N 404.999 1.35443 0.805782 0
M  V30 4178 C 406.415 1.15499 1.10146 0
M  V30 4179 C 406.615 -0.0319975 2.01475 0
M  V30 4180 O 405.671 -0.70236 2.42535 0
M  V30 4181 C 406.984 2.45833 1.73166 0
M  V30 4182 C 408.532 2.52047 1.85583 0
M  V30 4183 C 409.007 3.82427 2.52019 0
M  V30 4184 N 410.498 3.83682 2.59504 0
M  V30 4185 C 411.233 4.81294 3.11679 0
M  V30 4186 N 410.729 5.89294 3.64287 0
M  V30 4187 N 412.522 4.6873 3.1024 0
M  V30 4188 H 404.673 2.11469 0.198678 0
M  V30 4189 H 406.936 0.93594 0.150731 0
M  V30 4190 H 406.642 3.32874 1.13526 0
M  V30 4191 H 406.516 2.6044 2.72857 0
M  V30 4192 H 408.903 1.65435 2.44367 0
M  V30 4193 H 408.984 2.41354 0.847455 0
M  V30 4194 H 408.628 4.69437 1.93885 0
M  V30 4195 H 408.558 3.90409 3.53395 0
M  V30 4196 H 411.049 3.05648 2.22234 0
M  V30 4197 H 411.362 6.59768 4.02401 0
M  V30 4198 H 409.707 5.92985 3.62483 0
M  V30 4199 H 412.898 3.83496 2.68419 0
M  V30 4200 H 413.071 5.44965 3.50596 0
M  V30 4201 N 406.477 -1.02803 1.19454 0
M  V30 4202 C 407.705 -1.79841 1.02297 0
M  V30 4203 C 408.12 -1.83879 -0.428259 0
M  V30 4204 O 407.477 -1.28345 -1.29745 0
M  V30 4205 C 407.528 -3.24852 1.58598 0
M  V30 4206 O 407.249 -3.21097 2.98041 0
M  V30 4207 C 408.75 -4.18485 1.46236 0
M  V30 4208 H 405.97 -0.565936 0.360496 0
M  V30 4209 H 408.514 -1.2948 1.58288 0
M  V30 4210 H 406.669 -3.72401 1.06753 0
M  V30 4211 H 407.083 -4.12033 3.24545 0
M  V30 4212 H 408.557 -5.18121 1.90407 0
M  V30 4213 H 409.034 -4.37254 0.41301 0
M  V30 4214 H 409.64 -3.76811 1.97215 0
M  V30 4215 N 407.956 -0.998596 -1.21925 0
M  V30 4216 C 408.886 -0.573688 -2.26343 0
M  V30 4217 C 409.867 0.402296 -1.65274 0
M  V30 4218 O 411.052 0.291683 -1.91997 0
M  V30 4219 C 408.182 0.106839 -3.47136 0
M  V30 4220 C 407.136 -0.788269 -4.20678 0
M  V30 4221 C 406.462 0.0254927 -5.34694 0
M  V30 4222 C 407.762 -2.08784 -4.78755 0
M  V30 4223 H 409.456 -1.44651 -2.62138 0
M  V30 4224 H 407.002 -0.696975 -1.26009 0
M  V30 4225 H 408.955 0.415531 -4.19346 0
M  V30 4226 H 407.679 1.01424 -3.10452 0
M  V30 4227 H 406.338 -1.08069 -3.50309 0
M  V30 4228 H 405.986 0.933989 -4.94253 0
M  V30 4229 H 405.686 -0.570437 -5.84825 0
M  V30 4230 H 407.21 0.328147 -6.09718 0
M  V30 4231 H 408.624 -1.84272 -5.42878 0
M  V30 4232 H 407.021 -2.63307 -5.39249 0
M  V30 4233 H 408.091 -2.76284 -3.98491 0
M  V30 4234 N 409.434 1.37368 -0.772513 0
M  V30 4235 C 410.681 1.99673 -0.337182 0
M  V30 4236 C 411.009 1.61324 1.0865 0
M  V30 4237 O 410.264 0.851377 1.7621 0
M  V30 4238 C 410.563 3.54817 -0.428876 0
M  V30 4239 C 410.229 4.12936 -1.81092 0
M  V30 4240 C 408.891 4.28523 -2.1891 0
M  V30 4241 C 411.243 4.44801 -2.71664 0
M  V30 4242 C 408.571 4.73277 -3.46735 0
M  V30 4243 C 410.923 4.90981 -3.98899 0
M  V30 4244 C 409.587 5.04773 -4.36761 0
M  V30 4245 H 408.857 0.730656 -0.123384 0
M  V30 4246 H 411.504 1.64124 -0.986686 0
M  V30 4247 H 409.809 3.90618 0.304167 0
M  V30 4248 H 411.506 4.00933 -0.0733334 0
M  V30 4249 H 408.096 4.01233 -1.50699 0
M  V30 4250 H 412.28 4.32344 -2.43706 0
M  V30 4251 H 407.536 4.82142 -3.75964 0
M  V30 4252 H 411.71 5.14603 -4.69208 0
M  V30 4253 H 409.337 5.39211 -5.35868 0
M  V30 4254 N 410.912 0.523116 1.48665 0
M  V30 4255 C 412.14 -0.0096312 2.06898 0
M  V30 4256 C 412.555 -1.28784 1.38059 0
M  V30 4257 O 411.912 -1.76453 0.465893 0
M  V30 4258 C 411.963 -0.244386 3.60673 0
M  V30 4259 O 411.684 0.983172 4.26925 0
M  V30 4260 C 413.185 -0.818289 4.35682 0
M  V30 4261 H 410.405 0.0304161 0.67031 0
M  V30 4262 H 412.949 0.726799 1.91149 0
M  V30 4263 H 411.104 -0.930847 3.76051 0
M  V30 4264 H 411.518 0.759653 5.1897 0
M  V30 4265 H 412.992 -0.93201 5.44075 0
M  V30 4266 H 413.469 -1.82153 3.99646 0
M  V30 4267 H 414.075 -0.168609 4.24966 0
M  V30 4268 N 412.39 -1.55475 0.257931 0
M  V30 4269 C 413.353 -2.20551 -0.623706 0
M  V30 4270 C 414.353 -1.17809 -1.09443 0
M  V30 4271 O 415.543 -1.42823 -0.997362 0
M  V30 4272 C 412.675 -2.85784 -1.8585 0
M  V30 4273 H 413.868 -2.99848 -0.0557743 0
M  V30 4274 H 411.421 -1.56298 0.0084422 0
M  V30 4275 H 412.156 -2.10453 -2.46739 0
M  V30 4276 H 411.941 -3.61057 -1.52907 0
M  V30 4277 H 413.431 -3.35553 -2.48584 0
M  V30 4278 N 413.868 0.0150385 -1.57593 0
M  V30 4279 C 415.093 0.718067 -1.94573 0
M  V30 4280 C 415.518 1.6734 -0.859005 0
M  V30 4281 O 414.876 1.80362 0.184147 0
M  V30 4282 C 414.924 1.43918 -3.30636 0
M  V30 4283 O 414.028 2.55299 -3.23876 0
M  V30 4284 H 413.369 0.192125 -0.635597 0
M  V30 4285 H 415.899 -0.0336708 -2.04572 0
M  V30 4286 H 415.909 1.80598 -3.65853 0
M  V30 4287 H 414.584 0.738619 -4.09289 0
M  V30 4288 H 413.161 2.21058 -3.00312 0
M  V30 4289 N 415.346 1.54954 0.287554 0
M  V30 4290 C 416.309 1.86076 1.33823 0
M  V30 4291 C 417.309 0.734414 1.43049 0
M  V30 4292 O 418.499 1.00266 1.42452 0
M  V30 4293 C 415.631 2.05305 2.72144 0
M  V30 4294 H 416.824 2.79984 1.07465 0
M  V30 4295 H 414.377 1.47223 0.524902 0
M  V30 4296 H 415.112 1.1373 3.03704 0
M  V30 4297 H 414.897 2.873 2.66836 0
M  V30 4298 H 416.387 2.30706 3.48087 0
M  V30 4299 N 416.824 -0.551391 1.4764 0
M  V30 4300 C 418.101 -1.31229 1.45046 0
M  V30 4301 C 418.481 -2.10563 0.150527 0
M  V30 4302 O 417.829 -2.11374 -0.867956 0
M  V30 4303 C 418.039 -2.21189 2.69956 0
M  V30 4304 C 419.387 -2.82021 3.1741 0
M  V30 4305 O 420.411 -2.31488 2.70724 0
M  V30 4306 O 419.27 -3.73885 3.98588 0
M  V30 4307 H 416.364 -0.591193 0.578291 0
M  V30 4308 H 418.91 -0.569813 1.59847 0
M  V30 4309 H 417.682 -1.62207 3.56096 0
M  V30 4310 H 417.305 -3.02722 2.57769 0
M  V30 4311 N 418.302 -1.35869 -0.798587 0
M  V30 4312 C 419.232 -1.32118 -1.92528 0
M  V30 4313 C 420.213 -0.194209 -1.68988 0
M  V30 4314 O 421.398 -0.390426 -1.90235 0
M  V30 4315 C 418.528 -1.10047 -3.29404 0
M  V30 4316 C 417.482 -2.19471 -3.67446 0
M  V30 4317 C 416.808 -1.82555 -5.02571 0
M  V30 4318 C 418.108 -3.61495 -3.76987 0
M  V30 4319 H 419.802 -2.26394 -1.95924 0
M  V30 4320 H 417.348 -1.08981 -0.94123 0
M  V30 4321 H 419.301 -1.06061 -4.07835 0
M  V30 4322 H 418.025 -0.122195 -3.26371 0
M  V30 4323 H 416.684 -2.22568 -2.91306 0
M  V30 4324 H 416.332 -0.833249 -4.9605 0
M  V30 4325 H 416.032 -2.5581 -5.28995 0
M  V30 4326 H 417.556 -1.80108 -5.83432 0
M  V30 4327 H 418.97 -3.60676 -4.4563 0
M  V30 4328 H 417.367 -4.33577 -4.14887 0
M  V30 4329 H 418.437 -3.97065 -2.78329 0
M  V30 4330 N 419.78 1.02168 -1.19998 0
M  V30 4331 C 421.005 1.79833 -1.03319 0
M  V30 4332 C 421.43 1.83504 0.413281 0
M  V30 4333 O 420.788 1.26635 1.29743 0
M  V30 4334 C 420.836 3.22396 -1.61533 0
M  V30 4335 O 419.94 4.03555 -0.849519 0
M  V30 4336 H 419.281 0.554872 -0.364709 0
M  V30 4337 H 421.811 1.28542 -1.59179 0
M  V30 4338 H 421.821 3.73124 -1.65054 0
M  V30 4339 H 420.496 3.19039 -2.66809 0
M  V30 4340 H 419.073 3.62169 -0.888129 0
M  V30 4341 N 421.258 1.00505 1.21394 0
M  V30 4342 C 422.506 0.686415 1.90086 0
M  V30 4343 C 422.827 -0.785264 1.7849 0
M  V30 4344 O 422.097 -1.56387 1.17983 0
M  V30 4345 H 420.677 0.2509 0.703604 0
M  V30 4346 H 423.339 1.27417 1.47482 0
M  V30 4347 H 422.435 0.959621 2.96981 0
M  V30 4348 N 422.737 -1.36956 0.779787 0
M  V30 4349 C 423.986 -1.98738 0.344405 0
M  V30 4350 C 424.299 -1.62596 -1.08728 0
M  V30 4351 O 425.505 -2.1754 -1.62445 0
M  V30 4352 C 423.961 -3.5544 0.564829 0
M  V30 4353 C 423.569 -4.00514 2.0073 0
M  V30 4354 C 425.313 -4.24059 0.193471 0
M  V30 4355 C 423.22 -5.49957 2.17489 0
M  V30 4356 H 422.15 -0.743561 0.12503 0
M  V30 4357 H 424.801 -1.56381 0.960057 0
M  V30 4358 H 423.183 -3.95817 -0.120397 0
M  V30 4359 H 424.357 -3.71362 2.72814 0
M  V30 4360 H 422.672 -3.44703 2.336 0
M  V30 4361 H 425.269 -5.33874 0.297097 0
M  V30 4362 H 425.612 -4.07378 -0.857263 0
M  V30 4363 H 426.145 -3.89012 0.831556 0
M  V30 4364 H 422.884 -5.71574 3.2091 0
M  V30 4365 H 422.404 -5.80767 1.49899 0
M  V30 4366 H 424.083 -6.16043 1.97738 0
M  V30 4367 N 424.215 -0.530993 -1.48385 0
M  V30 4368 C 425.44 0.000729535 -2.074 0
M  V30 4369 C 425.865 1.27298 -1.3848 0
M  V30 4370 O 425.223 1.75599 -0.451081 0
M  V30 4371 C 425.271 0.206697 -3.60007 0
M  V30 4372 O 424.375 1.27514 -3.92191 0
M  V30 4373 H 423.716 -0.039583 -0.662819 0
M  V30 4374 H 426.246 -0.739194 -1.9078 0
M  V30 4375 H 426.256 0.42904 -4.05738 0
M  V30 4376 H 424.931 -0.722675 -4.09573 0
M  V30 4377 H 423.508 1.03537 -3.58238 0
M  V30 4378 N 425.693 1.55336 -0.266172 0
M  V30 4379 C 426.921 2.03801 0.356756 0
M  V30 4380 C 427.336 1.14485 1.50129 0
M  V30 4381 O 426.693 0.163121 1.8177 0
M  V30 4382 C 426.744 3.51455 0.846281 0
M  V30 4383 O 426.465 4.37371 -0.252663 0
M  V30 4384 C 427.966 4.15767 1.53794 0
M  V30 4385 H 425.186 0.665906 0.0825218 0
M  V30 4386 H 427.73 2.00636 -0.39566 0
M  V30 4387 H 425.885 3.55092 1.54881 0
M  V30 4388 H 426.299 5.24358 0.122173 0
M  V30 4389 H 427.773 5.20714 1.83198 0
M  V30 4390 H 428.25 3.63404 2.46646 0
M  V30 4391 H 428.856 4.16107 0.879488 0
M  V30 4392 N 427.171 -0.0066808 1.57599 0
M  V30 4393 C 428.417 -0.693947 1.90558 0
M  V30 4394 C 428.75 -1.73792 0.866594 0
M  V30 4395 O 428.025 -1.94156 -0.115548 0
M  V30 4396 C 428.308 -1.34317 3.34112 0
M  V30 4397 C 428.161 -0.311189 4.48722 0
M  V30 4398 C 429.48 -2.27116 3.7697 0
M  V30 4399 H 426.599 -0.250803 0.693013 0
M  V30 4400 H 429.241 0.043242 1.89951 0
M  V30 4401 H 427.391 -1.9715 3.3476 0
M  V30 4402 H 429.063 0.316944 4.6021 0
M  V30 4403 H 427.306 0.367253 4.32243 0
M  V30 4404 H 427.977 -0.804366 5.46108 0
M  V30 4405 H 430.453 -1.74306 3.77831 0
M  V30 4406 H 429.329 -2.69511 4.78179 0
M  V30 4407 H 429.59 -3.14743 3.10466 0
M  V30 4408 N 428.649 -1.55105 -0.279332 0
M  V30 4409 C 430.06 -1.66186 -0.850832 0
M  V30 4410 C 430.411 -0.584707 -1.87285 0
M  V30 4411 O 429.536 0.274919 -2.14647 0
M  V30 4412 C 430.131 -3.01264 -1.55001 0
M  V30 4413 C 428.69 -3.14394 -2.06963 0
M  V30 4414 C 427.837 -2.61959 -0.909536 0
M  V30 4415 H 430.788 -1.58602 -0.0558235 0
M  V30 4416 H 430.809 -2.93899 -2.41669 0
M  V30 4417 H 430.321 -3.7964 -0.805931 0
M  V30 4418 H 428.422 -2.4078 -2.84352 0
M  V30 4419 H 428.535 -4.20867 -2.28928 0
M  V30 4420 H 426.899 -2.18957 -1.30116 0
M  V30 4421 H 427.682 -3.42833 -0.179062 0
M  V30 4422 N 430.127 0.543554 -1.4793 0
M  V30 4423 C 431.057 1.65888 -1.64327 0
M  V30 4424 C 432.038 1.62818 -0.492383 0
M  V30 4425 O 433.223 1.80226 -0.723338 0
M  V30 4426 C 430.353 3.04506 -1.67013 0
M  V30 4427 C 429.307 3.2243 -2.81466 0
M  V30 4428 C 428.633 4.61972 -2.69233 0
M  V30 4429 C 429.933 3.06496 -4.22915 0
M  V30 4430 H 431.627 1.52421 -2.57698 0
M  V30 4431 H 429.173 0.731849 -1.24016 0
M  V30 4432 H 431.126 3.82391 -1.77074 0
M  V30 4433 H 429.85 3.18964 -0.70212 0
M  V30 4434 H 428.509 2.46957 -2.70938 0
M  V30 4435 H 428.157 4.73247 -1.7043 0
M  V30 4436 H 427.857 4.74911 -3.46025 0
M  V30 4437 H 429.381 5.41974 -2.81242 0
M  V30 4438 H 430.795 3.74186 -4.34348 0
M  V30 4439 H 429.192 3.30938 -5.006 0
M  V30 4440 H 430.262 2.03077 -4.40327 0
M  V30 4441 N 431.605 1.3629 0.791371 0
M  V30 4442 C 432.835 1.33368 1.57786 0
M  V30 4443 C 433.243 -0.0875188 1.88997 0
M  V30 4444 O 432.586 -1.05427 1.50435 0
M  V30 4445 C 432.648 2.08802 2.92646 0
M  V30 4446 C 432.312 3.57903 2.84174 0
M  V30 4447 C 433.309 4.52191 2.56553 0
M  V30 4448 C 430.994 4.00762 3.02812 0
M  V30 4449 C 432.988 5.87315 2.47669 0
M  V30 4450 C 430.675 5.35977 2.93551 0
M  V30 4451 C 431.673 6.29066 2.66017 0
M  V30 4452 O 431.361 7.61798 2.56746 0
M  V30 4453 H 431.093 0.459166 0.496128 0
M  V30 4454 H 433.647 1.79952 0.990269 0
M  V30 4455 H 431.877 1.56878 3.53449 0
M  V30 4456 H 433.566 1.98762 3.53904 0
M  V30 4457 H 434.332 4.20393 2.41858 0
M  V30 4458 H 430.211 3.2868 3.2325 0
M  V30 4459 H 433.755 6.59943 2.26099 0
M  V30 4460 H 429.652 5.67384 3.07808 0
M  V30 4461 H 430.42 7.71898 2.72242 0
M  V30 4462 N 433.083 -1.0153 1.20538 0
M  V30 4463 C 434.329 -1.75408 1.01783 0
M  V30 4464 C 434.662 -1.88943 -0.448814 0
M  V30 4465 O 433.937 -1.4162 -1.33319 0
M  V30 4466 C 434.22 -3.17255 1.70356 0
M  V30 4467 C 434.073 -3.11508 3.24473 0
M  V30 4468 C 435.392 -4.15955 1.43769 0
M  V30 4469 H 432.511 -0.636713 0.371167 0
M  V30 4470 H 435.153 -1.18436 1.4857 0
M  V30 4471 H 433.303 -3.65898 1.30578 0
M  V30 4472 H 434.975 -2.70658 3.73553 0
M  V30 4473 H 433.218 -2.4887 3.55311 0
M  V30 4474 H 433.889 -4.11784 3.67611 0
M  V30 4475 H 436.365 -3.75973 1.7828 0
M  V30 4476 H 435.241 -5.13368 1.94279 0
M  V30 4477 H 435.502 -4.40586 0.365564 0
M  V30 4478 N 434.561 -1.01147 -1.20859 0
M  V30 4479 C 435.838 -0.613136 -1.85742 0
M  V30 4480 C 436.218 0.909004 -1.90526 0
M  V30 4481 O 435.566 1.79862 -1.40932 0
M  V30 4482 C 435.776 -1.255 -3.25654 0
M  V30 4483 C 437.124 -1.3672 -4.01986 0
M  V30 4484 O 438.148 -1.21082 -3.34989 0
M  V30 4485 O 437.007 -1.6194 -5.21956 0
M  V30 4486 H 434.101 -0.210878 -0.799662 0
M  V30 4487 H 436.647 -1.10853 -1.2849 0
M  V30 4488 H 435.419 -2.29532 -3.16908 0
M  V30 4489 H 435.042 -0.746369 -3.90532 0
M  V30 4490 N 436.039 1.36541 -0.78704 0
M  V30 4491 C 437.267 2.03561 -0.370199 0
M  V30 4492 C 437.682 1.59347 1.01263 0
M  V30 4493 O 437.039 0.781781 1.64907 0
M  V30 4494 C 437.09 3.59033 -0.421614 0
M  V30 4495 O 436.811 4.01634 -1.7499 0
M  V30 4496 C 438.312 4.433 0.00489763 0
M  V30 4497 H 435.532 0.653346 -0.152904 0
M  V30 4498 H 438.076 1.74566 -1.06522 0
M  V30 4499 H 436.231 3.86746 0.224971 0
M  V30 4500 H 436.645 4.96217 -1.69909 0
M  V30 4501 H 438.119 5.51939 -0.0822184 0
M  V30 4502 H 438.596 4.26285 1.05723 0
M  V30 4503 H 439.202 4.20843 -0.614085 0
M  V30 4504 N 437.518 0.538854 1.48102 0
M  V30 4505 C 438.764 0.00801365 2.02798 0
M  V30 4506 C 439.097 -1.3309 1.41424 0
M  V30 4507 O 438.372 -1.86169 0.563158 0
M  V30 4508 C 438.655 -0.104589 3.59948 0
M  V30 4509 C 438.508 1.26012 4.31788 0
M  V30 4510 C 439.827 -0.827055 4.32259 0
M  V30 4511 H 436.946 0.00438624 0.736987 0
M  V30 4512 H 439.588 0.6976 1.7673 0
M  V30 4513 H 437.738 -0.691893 3.82289 0
M  V30 4514 H 439.41 1.88922 4.2084 0
M  V30 4515 H 437.653 1.83968 3.92859 0
M  V30 4516 H 438.324 1.13424 5.40221 0
M  V30 4517 H 440.8 -0.328578 4.14801 0
M  V30 4518 H 439.676 -0.87476 5.41885 0
M  V30 4519 H 439.937 -1.87927 4.0017 0
M  V30 4520 N 438.996 -1.55193 0.274407 0
M  V30 4521 C 440.245 -1.98758 -0.343213 0
M  V30 4522 C 440.558 -1.16624 -1.5703 0
M  V30 4523 O 441.764 -1.5033 -2.26082 0
M  V30 4524 C 440.22 -3.53759 -0.661996 0
M  V30 4525 C 439.828 -4.4467 0.54524 0
M  V30 4526 C 441.572 -4.05916 -1.24228 0
M  V30 4527 C 439.479 -5.91058 0.201084 0
M  V30 4528 H 438.409 -0.742353 -0.132014 0
M  V30 4529 H 441.06 -1.79545 0.378948 0
M  V30 4530 H 439.442 -3.68772 -1.44304 0
M  V30 4531 H 440.616 -4.41426 1.32212 0
M  V30 4532 H 438.931 -4.03143 1.04232 0
M  V30 4533 H 441.528 -5.12831 -1.51357 0
M  V30 4534 H 441.871 -3.54908 -2.17592 0
M  V30 4535 H 442.404 -3.9434 -0.523542 0
M  V30 4536 H 439.143 -6.46161 1.10258 0
M  V30 4537 H 438.663 -5.97373 -0.539045 0
M  V30 4538 H 440.342 -6.46669 -0.206954 0
M  V30 4539 N 440.474 -0.00167713 -1.576 0
M  V30 4540 C 441.424 0.997744 -2.0501 0
M  V30 4541 C 442.408 1.30214 -0.94515 0
M  V30 4542 O 443.6 1.29284 -1.20891 0
M  V30 4543 C 440.729 2.2892 -2.55833 0
M  V30 4544 C 439.815 2.01437 -3.73208 0
M  V30 4545 N 440.206 1.44119 -4.84833 0
M  V30 4546 C 438.504 2.31571 -3.8117 0
M  V30 4547 C 439.205 1.33145 -5.66257 0
M  V30 4548 N 438.181 1.81763 -5.12312 0
M  V30 4549 H 441.983 0.549098 -2.88725 0
M  V30 4550 H 439.497 0.20398 -1.61114 0
M  V30 4551 H 441.494 3.01361 -2.88075 0
M  V30 4552 H 440.154 2.74436 -1.73537 0
M  V30 4553 H 441.165 1.11978 -5.0565 0
M  V30 4554 H 437.842 2.7995 -3.09732 0
M  V30 4555 H 439.232 0.890567 -6.65972 0
M  V30 4556 N 441.952 1.55251 0.271103 0
M  V30 4557 C 442.884 1.84675 1.35749 0
M  V30 4558 C 443.897 0.731366 1.45447 0
M  V30 4559 O 445.086 1.00924 1.4723 0
M  V30 4560 C 442.186 1.99638 2.73857 0
M  V30 4561 C 441.359 3.30312 2.86727 0
M  V30 4562 C 440.418 3.35318 4.05522 0
M  V30 4563 O 439.444 4.08682 3.96191 0
M  V30 4564 N 440.646 2.62857 5.17577 0
M  V30 4565 H 443.411 2.78445 1.10853 0
M  V30 4566 H 440.972 1.55191 0.461218 0
M  V30 4567 H 442.964 2.00355 3.51625 0
M  V30 4568 H 441.534 1.12725 2.91568 0
M  V30 4569 H 440.754 3.42118 1.95829 0
M  V30 4570 H 442.042 4.16488 2.92258 0
M  V30 4571 H 441.44 2.02939 5.28046 0
M  V30 4572 H 439.997 2.69295 5.93568 0
M  V30 4573 N 443.43 -0.535701 1.48216 0
M  V30 4574 C 444.393 -1.623 1.61838 0
M  V30 4575 C 445.393 -1.53087 0.492024 0
M  V30 4576 O 446.583 -1.5686 0.757668 0
M  V30 4577 C 443.715 -3.01907 1.58319 0
M  V30 4578 H 444.908 -1.51564 2.58783 0
M  V30 4579 H 442.461 -0.757317 1.36727 0
M  V30 4580 H 443.196 -3.18155 0.628299 0
M  V30 4581 H 442.981 -3.10003 2.40085 0
M  V30 4582 H 444.471 -3.80969 1.71033 0
M  V30 4583 N 444.908 -1.36708 -0.784132 0
M  V30 4584 C 446.324 -1.17237 -1.08294 0
M  V30 4585 C 446.524 -5.93947e-05 -2.015 0
M  V30 4586 O 445.58 0.663686 -2.43622 0
M  V30 4587 C 446.893 -2.48557 -1.69233 0
M  V30 4588 C 448.441 -2.54968 -1.8155 0
M  V30 4589 C 448.916 -3.86388 -2.45904 0
M  V30 4590 N 450.407 -3.87762 -2.53367 0
M  V30 4591 C 451.142 -4.86191 -3.03983 0
M  V30 4592 N 450.638 -5.95015 -3.54866 0
M  V30 4593 N 452.431 -4.73606 -3.02743 0
M  V30 4594 H 444.582 -2.11758 -0.16501 0
M  V30 4595 H 446.845 -0.93822 -0.135822 0
M  V30 4596 H 446.551 -3.34638 -1.08215 0
M  V30 4597 H 446.425 -2.64748 -2.68679 0
M  V30 4598 H 448.812 -1.69302 -2.41704 0
M  V30 4599 H 448.893 -2.42672 -0.80895 0
M  V30 4600 H 448.537 -4.72462 -1.86392 0
M  V30 4601 H 448.467 -3.95982 -3.4714 0
M  V30 4602 H 450.958 -3.09145 -2.17343 0
M  V30 4603 H 451.271 -6.66086 -3.91854 0
M  V30 4604 H 449.616 -5.98676 -3.53003 0
M  V30 4605 H 452.807 -3.87717 -2.62284 0
M  V30 4606 H 452.98 -5.50473 -3.41881 0
M  V30 4607 N 446.386 1.0089 -1.21074 0
M  V30 4608 C 447.316 2.1145 -0.990523 0
M  V30 4609 C 448.297 1.69897 0.0831699 0
M  V30 4610 O 449.482 1.94052 -0.0758853 0
M  V30 4611 C 446.612 3.42914 -0.550177 0
M  V30 4612 C 445.566 3.98244 -1.56799 0
M  V30 4613 C 444.892 5.25568 -0.984013 0
M  V30 4614 C 446.192 4.30752 -2.95381 0
M  V30 4615 H 447.886 2.3013 -1.91521 0
M  V30 4616 H 445.432 1.10592 -0.92225 0
M  V30 4617 H 447.385 4.19653 -0.383305 0
M  V30 4618 H 446.109 3.24014 0.41015 0
M  V30 4619 H 444.768 3.23621 -1.72236 0
M  V30 4620 H 444.416 5.02998 -0.0155216 0
M  V30 4621 H 444.116 5.63551 -1.66384 0
M  V30 4622 H 445.64 6.04955 -0.828378 0
M  V30 4623 H 447.054 4.98349 -2.8341 0
M  V30 4624 H 445.451 4.79869 -3.60341 0
M  V30 4625 H 446.521 3.39192 -3.46521 0
M  V30 4626 N 447.864 1.01787 1.20321 0
M  V30 4627 C 449.28 0.732951 1.41774 0
M  V30 4628 C 449.48 -0.686883 1.89431 0
M  V30 4629 O 448.536 -1.45446 2.06402 0
M  V30 4630 C 449.849 1.75973 2.43832 0
M  V30 4631 C 451.397 1.77802 2.57596 0
M  V30 4632 C 451.872 2.7941 3.62897 0
M  V30 4633 N 453.363 2.78157 3.70382 0
M  V30 4634 C 454.098 3.53434 4.51521 0
M  V30 4635 N 453.594 4.38392 5.36455 0
M  V30 4636 N 455.387 3.42026 4.46066 0
M  V30 4637 H 447.538 1.93447 0.877035 0
M  V30 4638 H 449.801 0.835712 0.447536 0
M  V30 4639 H 449.507 2.77699 2.15815 0
M  V30 4640 H 449.381 1.57292 3.4284 0
M  V30 4641 H 451.768 0.767602 2.84942 0
M  V30 4642 H 451.849 2.00557 1.58779 0
M  V30 4643 H 451.493 3.80616 3.36295 0
M  V30 4644 H 451.423 2.53916 4.61339 0
M  V30 4645 H 453.914 2.16531 3.09714 0
M  V30 4646 H 454.227 4.92596 5.95457 0
M  V30 4647 H 452.572 4.4247 5.35953 0
M  V30 4648 H 455.763 2.75075 3.78749 0
M  V30 4649 H 455.936 4.00946 5.09064 0
M  V30 4650 N 449.342 -1.36122 0.79427 0
M  V30 4651 C 450.588 -1.99406 0.369452 0
M  V30 4652 C 450.921 -1.62886 -1.05743 0
M  V30 4653 O 450.196 -0.886053 -1.73145 0
M  V30 4654 C 450.479 -3.56046 0.538833 0
M  V30 4655 C 450.332 -4.02404 2.00976 0
M  V30 4656 C 451.651 -4.40079 -0.0431359 0
M  V30 4657 H 448.77 -0.724397 0.135712 0
M  V30 4658 H 451.412 -1.61461 1.00151 0
M  V30 4659 H 449.562 -3.885 0.000771004 0
M  V30 4660 H 451.234 -3.80415 2.60926 0
M  V30 4661 H 449.477 -3.53765 2.51063 0
M  V30 4662 H 450.148 -5.11344 2.07922 0
M  V30 4663 H 452.624 -4.14013 0.416228 0
M  V30 4664 H 451.5 -5.48799 0.105374 0
M  V30 4665 H 451.761 -4.27264 -1.13571 0
M  V30 4666 N 450.82 -0.546701 -1.47814 0
M  V30 4667 C 452.097 0.0464413 -1.95545 0
M  V30 4668 C 452.477 1.4962 -1.48919 0
M  V30 4669 O 451.825 2.16752 -0.723232 0
M  V30 4670 C 452.035 -0.0881298 -3.48889 0
M  V30 4671 C 453.383 0.0626059 -4.24554 0
M  V30 4672 O 454.407 -0.0151555 -3.56197 0
M  V30 4673 O 453.266 0.228071 -5.46024 0
M  V30 4674 H 450.36 0.0700004 -0.824032 0
M  V30 4675 H 452.906 -0.612482 -1.58262 0
M  V30 4676 H 451.678 -1.09737 -3.75597 0
M  V30 4677 H 451.301 0.608886 -3.9291 0
M  V30 4678 N 452.299 1.55045 -0.282633 0
M  V30 4679 C 453.209 2.26491 0.61147 0
M  V30 4680 C 454.225 1.29348 1.16384 0
M  V30 4681 O 455.401 1.62298 1.19253 0
M  V30 4682 C 452.466 2.97779 1.77563 0
M  V30 4683 C 451.527 4.10418 1.25919 0
M  V30 4684 C 450.76 4.78297 2.36786 0
M  V30 4685 O 450.983 4.45426 3.56303 0
M  V30 4686 O 449.917 5.66089 2.04517 0
M  V30 4687 H 453.743 3.03683 0.0324615 0
M  V30 4688 H 451.328 1.49317 -0.0497576 0
M  V30 4689 H 453.21 3.42554 2.45427 0
M  V30 4690 H 451.885 2.23498 2.34159 0
M  V30 4691 H 450.792 3.70082 0.546797 0
M  V30 4692 H 452.125 4.86622 0.738887 0
M  V30 4693 N 453.777 0.010035 1.57597 0
M  V30 4694 C 455.193 -0.346164 1.55801 0
M  V30 4695 C 455.393 -1.74144 1.01371 0
M  V30 4696 O 454.449 -2.43938 0.651968 0
M  V30 4697 C 455.762 -0.212216 2.9995 0
M  V30 4698 C 457.31 -0.286409 3.11687 0
M  V30 4699 C 457.785 -0.18147 4.5764 0
M  V30 4700 N 459.276 -0.239056 4.62583 0
M  V30 4701 C 460.011 -0.181351 5.73113 0
M  V30 4702 N 459.507 -0.073661 6.92761 0
M  V30 4703 N 461.3 -0.233949 5.61613 0
M  V30 4704 H 453.451 0.922657 1.91313 0
M  V30 4705 H 455.714 0.354595 0.879185 0
M  V30 4706 H 455.42 0.748169 3.4365 0
M  V30 4707 H 455.294 -0.990224 3.6397 0
M  V30 4708 H 457.681 -1.23724 2.67911 0
M  V30 4709 H 457.762 0.521645 2.50425 0
M  V30 4710 H 457.406 0.765863 5.02093 0
M  V30 4711 H 457.336 -1.00814 5.1686 0
M  V30 4712 H 459.827 -0.32321 3.76515 0
M  V30 4713 H 460.14 -0.0358003 7.72792 0
M  V30 4714 H 458.485 -0.0391461 6.94989 0
M  V30 4715 H 461.676 -0.316347 4.6703 0
M  V30 4716 H 461.849 -0.185514 6.47734 0
M  V30 4717 N 455.255 -1.55392 -0.262866 0
M  V30 4718 C 456.503 -1.76127 -0.991147 0
M  V30 4719 C 456.824 -0.571083 -1.8645 0
M  V30 4720 O 456.094 0.413698 -1.91482 0
M  V30 4721 H 454.674 -0.649528 -0.368948 0
M  V30 4722 H 457.336 -1.9281 -0.284655 0
M  V30 4723 H 456.432 -2.6663 -1.62219 0
M  V30 4724 N 456.733 0.527833 -1.48498 0
M  V30 4725 C 457.696 1.61439 -1.62696 0
M  V30 4726 C 458.696 1.52824 -0.500136 0
M  V30 4727 O 459.886 1.56456 -0.765976 0
M  V30 4728 C 457.018 3.01063 -1.59918 0
M  V30 4729 H 458.211 1.50189 -2.59583 0
M  V30 4730 H 455.764 0.750055 -1.37127 0
M  V30 4731 H 456.499 3.17818 -0.645163 0
M  V30 4732 H 456.284 3.08725 -2.41726 0
M  V30 4733 H 457.774 3.80057 -1.73051 0
M  V30 4734 N 458.211 1.37122 0.776871 0
M  V30 4735 C 459.121 1.34651 1.9211 0
M  V30 4736 C 460.137 0.246824 1.7224 0
M  V30 4737 O 461.313 0.48134 1.95563 0
M  V30 4738 C 458.378 1.14748 3.2716 0
M  V30 4739 C 457.439 2.34308 3.5972 0
M  V30 4740 C 456.672 2.15345 4.88326 0
M  V30 4741 O 456.895 1.13507 5.58992 0
M  V30 4742 O 455.829 3.03414 5.1983 0
M  V30 4743 H 459.655 2.31013 1.97146 0
M  V30 4744 H 457.24 1.17799 0.918901 0
M  V30 4745 H 459.122 1.05616 4.0795 0
M  V30 4746 H 457.797 0.214562 3.22988 0
M  V30 4747 H 456.704 2.49011 2.79185 0
M  V30 4748 H 458.037 3.26149 3.68629 0
M  V30 4749 N 459.689 -1.00246 1.21608 0
M  V30 4750 C 460.937 -1.73717 1.0328 0
M  V30 4751 C 461.258 -1.90102 -0.434318 0
M  V30 4752 O 460.528 -1.45376 -1.31311 0
M  V30 4753 H 459.108 -0.643613 0.379172 0
M  V30 4754 H 461.77 -1.20787 1.52959 0
M  V30 4755 H 460.866 -2.73535 1.50283 0
M  V30 4756 N 461.167 -1.02423 -1.1978 0
M  V30 4757 C 462.13 -0.605703 -2.21052 0
M  V30 4758 C 463.13 0.328209 -1.57415 0
M  V30 4759 O 464.32 0.115853 -1.73814 0
M  V30 4760 C 461.452 0.114366 -3.40708 0
M  V30 4761 H 462.645 -1.5017 -2.59594 0
M  V30 4762 H 460.198 -0.814888 -1.33376 0
M  V30 4763 H 460.933 1.02492 -3.07678 0
M  V30 4764 H 460.718 -0.556641 -3.88129 0
M  V30 4765 H 462.208 0.394272 -4.15735 0
M  V30 4766 N 462.645 1.35699 -0.801477 0
M  V30 4767 C 463.608 2.28199 -0.213994 0
M  V30 4768 C 464.608 1.49359 0.595691 0
M  V30 4769 O 465.798 1.69186 0.414921 0
M  V30 4770 C 462.93 3.33587 0.702297 0
M  V30 4771 H 464.123 2.81666 -1.02976 0
M  V30 4772 H 461.676 1.45467 -0.571759 0
M  V30 4773 H 462.411 2.85297 1.54195 0
M  V30 4774 H 462.196 3.91906 0.123484 0
M  V30 4775 H 463.686 4.02638 1.10783 0
M  V30 4776 N 464.123 0.554532 1.47522 0
M  V30 4777 C 465.086 -0.184174 2.28459 0
M  V30 4778 C 466.086 -0.845195 1.36796 0
M  V30 4779 O 467.276 -0.701467 1.59452 0
M  V30 4780 C 464.408 -1.26903 3.16399 0
M  V30 4781 H 465.601 0.526751 2.95238 0
M  V30 4782 H 463.154 0.311375 1.53167 0
M  V30 4783 H 463.889 -2.01244 2.54306 0
M  V30 4784 H 463.674 -0.799883 3.83854 0
M  V30 4785 H 465.164 -1.78794 3.77389 0
M  V30 4786 N 465.601 -1.54893 0.290851 0
M  V30 4787 C 466.829 -2.04343 -0.324288 0
M  V30 4788 C 467.244 -1.16859 -1.48289 0
M  V30 4789 O 466.601 -0.192018 -1.81487 0
M  V30 4790 C 466.652 -3.52756 -0.79026 0
M  V30 4791 O 466.373 -4.36913 0.322213 0
M  V30 4792 C 467.874 -4.18161 -1.4716 0
M  V30 4793 H 465.094 -0.667135 -0.0719173 0
M  V30 4794 H 467.638 -1.99981 0.427529 0
M  V30 4795 H 465.793 -3.57511 -1.49213 0
M  V30 4796 H 466.207 -5.24486 -0.0387372 0
M  V30 4797 H 467.681 -5.23562 -1.7489 0
M  V30 4798 H 468.158 -3.67282 -2.40834 0
M  V30 4799 H 468.764 -4.17454 -0.813178 0
M  V30 4800 N 467.08 -0.0183926 -1.57589 0
M  V30 4801 C 468.043 0.951986 -2.08494 0
M  V30 4802 C 469.043 1.26092 -0.997874 0
M  V30 4803 O 470.233 1.20304 -1.25987 0
M  V30 4804 C 467.365 2.27165 -2.54182 0
M  V30 4805 H 468.558 0.511307 -2.95509 0
M  V30 4806 H 466.111 0.229444 -1.54607 0
M  V30 4807 H 466.846 2.75884 -1.70465 0
M  V30 4808 H 466.631 2.06057 -3.33591 0
M  V30 4809 H 468.121 2.9674 -2.93828 0
M  V30 4810 N 468.558 1.5553 0.254621 0
M  V30 4811 C 469.521 1.88872 1.29846 0
M  V30 4812 C 470.521 0.764591 1.41459 0
M  V30 4813 O 471.711 1.03265 1.40293 0
M  V30 4814 C 468.843 2.11032 2.67728 0
M  V30 4815 H 470.036 2.82201 1.01502 0
M  V30 4816 H 467.589 1.48303 0.493556 0
M  V30 4817 H 468.324 1.20146 3.01223 0
M  V30 4818 H 468.109 2.92895 2.60682 0
M  V30 4819 H 469.599 2.38038 3.43115 0
M  V30 4820 N 470.036 -0.519951 1.48776 0
M  V30 4821 C 470.969 -1.64053 1.58625 0
M  V30 4822 C 471.947 -1.5664 0.43618 0
M  V30 4823 O 473.131 -1.76969 0.649159 0
M  V30 4824 C 470.258 -3.02497 1.52359 0
M  V30 4825 C 469.304 -3.28235 2.72331 0
M  V30 4826 S 470.137 -3.13414 4.34203 0
M  V30 4827 C 471.293 -4.54287 4.30551 0
M  V30 4828 H 471.526 -1.5545 2.53422 0
M  V30 4829 H 469.059 -0.703681 1.37433 0
M  V30 4830 H 471.017 -3.82336 1.4943 0
M  V30 4831 H 469.678 -3.08531 0.588824 0
M  V30 4832 H 468.871 -4.29256 2.64113 0
M  V30 4833 H 468.473 -2.56085 2.72574 0
M  V30 4834 H 470.765 -5.46006 4.01103 0
M  V30 4835 H 471.708 -4.67558 5.31785 0
M  V30 4836 H 472.116 -4.34079 3.60881 0
M  V30 4837 N 471.514 -1.37532 -0.769588 0
M  V30 4838 C 472.447 -1.27839 -1.8903 0
M  V30 4839 C 473.425 -0.158504 -1.61826 0
M  V30 4840 O 474.609 -0.333086 -1.85534 0
M  V30 4841 C 471.736 -0.977072 -3.24301 0
M  V30 4842 C 470.782 -2.11414 -3.70414 0
M  V30 4843 S 471.615 -3.73409 -3.83831 0
M  V30 4844 C 472.771 -3.45432 -5.21946 0
M  V30 4845 H 473.004 -2.22694 -1.96963 0
M  V30 4846 H 470.537 -1.2318 -0.930914 0
M  V30 4847 H 472.495 -0.810049 -4.02428 0
M  V30 4848 H 471.156 -0.0459701 -3.14066 0
M  V30 4849 H 470.349 -1.85837 -4.68488 0
M  V30 4850 H 469.951 -2.24141 -2.99394 0
M  V30 4851 H 472.243 -3.00554 -6.07185 0
M  V30 4852 H 473.186 -4.42841 -5.52537 0
M  V30 4853 H 473.594 -2.80311 -4.89986 0
M  V30 4854 N 472.992 0.995999 -1.22138 0
M  V30 4855 C 473.922 2.10387 -1.01289 0
M  V30 4856 C 474.903 1.69975 0.0651454 0
M  V30 4857 O 476.088 1.9396 -0.0964628 0
M  V30 4858 C 473.218 3.42312 -0.586517 0
M  V30 4859 C 472.172 3.96558 -1.61014 0
M  V30 4860 C 471.498 5.24494 -1.0397 0
M  V30 4861 C 472.798 4.27595 -2.99933 0
M  V30 4862 H 474.492 2.28086 -1.93951 0
M  V30 4863 H 472.038 1.09607 -0.933928 0
M  V30 4864 H 473.991 4.19223 -0.427793 0
M  V30 4865 H 472.715 3.24431 0.375761 0
M  V30 4866 H 471.374 3.21776 -1.75658 0
M  V30 4867 H 471.022 5.02953 -0.0688703 0
M  V30 4868 H 470.722 5.61755 -1.72352 0
M  V30 4869 H 472.246 6.04042 -0.892494 0
M  V30 4870 H 473.66 4.95315 -2.8868 0
M  V30 4871 H 472.057 4.76021 -3.6541 0
M  V30 4872 H 473.127 3.35498 -3.50099 0
M  V30 4873 N 474.47 1.03057 1.19235 0
M  V30 4874 C 475.4 0.633497 2.24742 0
M  V30 4875 C 476.381 -0.358335 1.66283 0
M  V30 4876 O 477.566 -0.240676 1.92703 0
M  V30 4877 C 474.696 -0.0147648 3.47297 0
M  V30 4878 C 473.65 0.899527 4.18441 0
M  V30 4879 C 472.976 0.116281 5.34574 0
M  V30 4880 C 474.276 2.21404 4.73051 0
M  V30 4881 H 475.97 1.5155 2.58211 0
M  V30 4882 H 473.516 0.73014 1.24117 0
M  V30 4883 H 475.469 -0.304202 4.20301 0
M  V30 4884 H 474.193 -0.931577 3.13032 0
M  V30 4885 H 472.852 1.17319 3.47321 0
M  V30 4886 H 472.5 -0.802619 4.96555 0
M  V30 4887 H 472.2 0.725293 5.83107 0
M  V30 4888 H 473.724 -0.166376 6.10373 0
M  V30 4889 H 475.138 1.98601 5.37802 0
M  V30 4890 H 473.535 2.77512 5.32078 0
M  V30 4891 H 474.605 2.86752 3.91026 0
M  V30 4892 N 475.948 -1.35272 0.808662 0
M  V30 4893 C 476.911 -2.28082 0.226093 0
M  V30 4894 C 477.911 -1.49673 -0.587762 0
M  V30 4895 O 479.101 -1.69404 -0.405943 0
M  V30 4896 C 476.233 -3.33955 -0.684596 0
M  V30 4897 H 477.426 -2.81116 1.04469 0
M  V30 4898 H 474.979 -1.45162 0.579466 0
M  V30 4899 H 475.714 -2.86111 -1.5268 0
M  V30 4900 H 475.499 -3.91965 -0.102699 0
M  V30 4901 H 476.989 -4.03219 -1.08646 0
M  V30 4902 N 477.426 -0.562348 -1.47226 0
M  V30 4903 C 478.674 -0.0401371 -2.0206 0
M  V30 4904 C 478.995 1.3165 -1.43852 0
M  V30 4905 O 478.265 1.85976 -0.615599 0
M  V30 4906 H 476.845 -0.0118479 -0.746906 0
M  V30 4907 H 479.507 -0.73352 -1.8057 0
M  V30 4908 H 478.603 0.0441254 -3.12069 0
M  V30 4909 N 478.904 1.54736 -0.299062 0
M  V30 4910 C 479.867 2.22127 0.565012 0
M  V30 4911 C 480.867 1.20669 1.06281 0
M  V30 4912 O 482.057 1.45417 0.959145 0
M  V30 4913 C 479.189 2.90611 1.78208 0
M  V30 4914 H 480.382 2.99891 -0.0237448 0
M  V30 4915 H 477.935 1.5622 -0.0498788 0
M  V30 4916 H 478.67 2.16921 2.41072 0
M  V30 4917 H 478.455 3.64984 1.43281 0
M  V30 4918 H 479.945 3.42026 2.396 0
M  V30 4919 N 480.382 0.0267497 1.57577 0
M  V30 4920 C 481.315 -0.99059 2.05579 0
M  V30 4921 C 482.293 -1.31884 0.951065 0
M  V30 4922 O 483.477 -1.43592 1.22121 0
M  V30 4923 C 480.604 -2.31125 2.47586 0
M  V30 4924 C 479.65 -2.13777 3.69055 0
M  V30 4925 S 480.483 -1.4388 5.15809 0
M  V30 4926 C 481.639 -2.77321 5.6111 0
M  V30 4927 H 481.872 -0.581976 2.91548 0
M  V30 4928 H 479.405 -0.184876 1.53289 0
M  V30 4929 H 481.363 -3.07049 2.72454 0
M  V30 4930 H 480.024 -2.6912 1.61967 0
M  V30 4931 H 479.217 -3.11405 3.96287 0
M  V30 4932 H 478.819 -1.45996 3.44327 0
M  V30 4933 H 481.111 -3.73565 5.65204 0
M  V30 4934 H 482.054 -2.54756 6.60685 0
M  V30 4935 H 482.462 -2.82459 4.88751 0
M  V30 4936 N 481.861 -1.55662 -0.24637 0
M  V30 4937 C 483.272 -1.67953 -0.81539 0
M  V30 4938 C 483.623 -0.624302 -1.86002 0
M  V30 4939 O 482.748 0.229328 -2.15181 0
M  V30 4940 C 483.343 -3.04484 -1.48576 0
M  V30 4941 C 481.902 -3.18713 -2.00248 0
M  V30 4942 C 481.049 -2.6383 -0.853766 0
M  V30 4943 H 484 -1.58685 -0.0221692 0
M  V30 4944 H 484.021 -2.98959 -2.3538 0
M  V30 4945 H 483.533 -3.81264 -0.725222 0
M  V30 4946 H 481.634 -2.46757 -2.79181 0
M  V30 4947 H 481.747 -4.25628 -2.1995 0
M  V30 4948 H 480.111 -2.21667 -1.25442 0
M  V30 4949 H 480.894 -3.43135 -0.106302 0
M  V30 4950 N 483.339 0.512053 -1.4905 0
M  V30 4951 C 484.75 1.09376 -1.51307 0
M  V30 4952 C 485.101 1.94 -0.292971 0
M  V30 4953 O 484.226 2.07965 0.598277 0
M  V30 4954 C 484.821 1.99031 -2.74176 0
M  V30 4955 C 483.38 2.52385 -2.79247 0
M  V30 4956 C 482.527 1.29749 -2.45073 0
M  V30 4957 H 485.478 0.296467 -1.55906 0
M  V30 4958 H 485.499 2.83569 -2.53711 0
M  V30 4959 H 485.011 1.37412 -3.62959 0
M  V30 4960 H 483.112 3.17673 -1.94716 0
M  V30 4961 H 483.225 2.90293 -3.81139 0
M  V30 4962 H 481.589 1.61912 -1.96612 0
M  V30 4963 H 482.372 0.698555 -3.36118 0
M  V30 4964 N 484.817 1.37938 0.762283 0
M  V30 4965 C 486.233 1.18945 1.06415 0
M  V30 4966 C 486.433 0.0321163 2.01474 0
M  V30 4967 O 485.489 -0.624844 2.44647 0
M  V30 4968 C 486.802 2.51218 1.65258 0
M  V30 4969 C 488.35 2.57824 1.7747 0
M  V30 4970 C 488.825 3.90251 2.39725 0
M  V30 4971 N 490.316 3.91744 2.47166 0
M  V30 4972 C 491.051 4.90966 2.96209 0
M  V30 4973 N 490.547 6.00585 3.45354 0
M  V30 4974 N 492.34 4.78363 2.9517 0
M  V30 4975 H 484.491 2.11994 0.131301 0
M  V30 4976 H 486.754 0.940262 0.120879 0
M  V30 4977 H 486.46 3.36317 1.02878 0
M  V30 4978 H 486.334 2.68989 2.64433 0
M  V30 4979 H 488.721 1.73126 2.3898 0
M  V30 4980 H 488.802 2.43928 0.770241 0
M  V30 4981 H 488.446 4.75368 1.78852 0
M  V30 4982 H 488.376 4.01454 3.40796 0
M  V30 4983 H 490.867 3.12563 2.12397 0
M  V30 4984 H 491.18 6.72236 3.81207 0
M  V30 4985 H 489.525 6.04217 3.43434 0
M  V30 4986 H 492.716 3.91841 2.56082 0
M  V30 4987 H 492.889 5.55843 3.33081 0
M  V30 4988 N 486.295 -0.989507 1.22664 0
M  V30 4989 C 487.711 -1.25395 0.987331 0
M  V30 4990 C 487.911 -1.9899 -0.317056 0
M  V30 4991 O 486.967 -2.30141 -1.03882 0
M  V30 4992 C 488.28 -2.06242 2.18826 0
M  V30 4993 C 489.828 -2.19413 2.23219 0
M  V30 4994 C 490.303 -3.03648 3.42873 0
M  V30 4995 N 491.794 -3.11234 3.43056 0
M  V30 4996 C 492.529 -3.7671 4.32293 0
M  V30 4997 N 492.025 -4.44085 5.31752 0
M  V30 4998 N 493.818 -3.73505 4.2006 0
M  V30 4999 H 485.969 -0.496212 2.06522 0
M  V30 5000 H 488.232 -0.281784 0.905153 0
M  V30 5001 H 487.938 -1.59531 3.13437 0
M  V30 5002 H 487.812 -3.06996 2.19165 0
M  V30 5003 H 490.199 -2.65336 1.29154 0
M  V30 5004 H 490.28 -1.18078 2.26917 0
M  V30 5005 H 489.924 -2.58424 4.37241 0
M  V30 5006 H 489.854 -4.05132 3.36416 0
M  V30 5007 H 492.345 -2.63287 2.71088 0
M  V30 5008 H 492.658 -4.91797 5.96117 0
M  V30 5009 H 491.003 -4.42822 5.35662 0
M  V30 5010 H 494.194 -3.20033 3.41609 0
M  V30 5011 H 494.367 -4.24253 4.8981 0
M  V30 5012 N 487.773 -1.03688 -1.18687 0
M  V30 5013 C 489.001 -0.757918 -1.92518 0
M  V30 5014 C 489.416 0.684398 -1.75959 0
M  V30 5015 O 488.773 1.46617 -1.08673 0
M  V30 5016 C 488.824 -1.10985 -3.44042 0
M  V30 5017 O 488.545 -2.49554 -3.60076 0
M  V30 5018 C 490.046 -0.854844 -4.3498 0
M  V30 5019 H 487.266 -0.276699 -0.611293 0
M  V30 5020 H 489.81 -1.38352 -1.50595 0
M  V30 5021 H 487.965 -0.529279 -3.83767 0
M  V30 5022 H 488.379 -2.6291 -4.53849 0
M  V30 5023 H 489.853 -1.15098 -5.39867 0
M  V30 5024 H 490.33 0.210507 -4.38695 0
M  V30 5025 H 490.936 -1.41853 -4.00946 0
M  V30 5026 N 489.251 1.34841 -0.815825 0
M  V30 5027 C 490.5 1.97755 -0.396976 0
M  V30 5028 C 490.813 1.65422 1.04379 0
M  V30 5029 O 492.019 2.21771 1.5662 0
M  V30 5030 C 490.475 3.53818 -0.658869 0
M  V30 5031 C 490.083 3.95051 -2.11278 0
M  V30 5032 C 491.827 4.23397 -0.305834 0
M  V30 5033 C 489.734 5.43997 -2.31994 0
M  V30 5034 H 488.664 0.739985 -0.1447 0
M  V30 5035 H 491.315 1.53781 -1.00118 0
M  V30 5036 H 489.697 3.95997 0.0154112 0
M  V30 5037 H 490.871 3.63998 -2.82564 0
M  V30 5038 H 489.186 3.38388 -2.42657 0
M  V30 5039 H 491.783 5.32899 -0.43854 0
M  V30 5040 H 492.126 4.09508 0.748952 0
M  V30 5041 H 492.659 3.8667 -0.934403 0
M  V30 5042 H 489.398 5.62865 -3.35952 0
M  V30 5043 H 488.918 5.76589 -1.65244 0
M  V30 5044 H 490.597 6.10584 -2.14001 0
M  V30 5045 N 490.729 0.570148 1.46925 0
M  V30 5046 C 492.145 0.23087 1.57921 0
M  V30 5047 C 492.345 -1.26676 1.56702 0
M  V30 5048 O 491.401 -2.04774 1.47729 0
M  V30 5049 C 492.714 0.868973 2.8787 0
M  V30 5050 C 494.262 0.841397 3.01479 0
M  V30 5051 C 494.737 1.45881 4.34146 0
M  V30 5052 N 496.228 1.42258 4.40814 0
M  V30 5053 C 496.963 1.8698 5.42057 0
M  V30 5054 N 496.459 2.39618 6.50042 0
M  V30 5055 N 498.252 1.77972 5.33181 0
M  V30 5056 H 490.403 1.54301 1.45962 0
M  V30 5057 H 492.666 0.644224 0.69547 0
M  V30 5058 H 492.372 1.922 2.94537 0
M  V30 5059 H 492.246 0.369682 3.75384 0
M  V30 5060 H 494.633 -0.202973 2.94401 0
M  V30 5061 H 494.714 1.37858 2.15474 0
M  V30 5062 H 494.358 2.50231 4.4198 0
M  V30 5063 H 494.288 0.896958 5.18905 0
M  V30 5064 H 496.779 1.03768 3.63374 0
M  V30 5065 H 497.092 2.71633 7.23488 0
M  V30 5066 H 495.437 2.43636 6.50897 0
M  V30 5067 H 498.628 1.36617 4.4772 0
M  V30 5068 H 498.801 2.13143 6.11943 0
M  V30 5069 N 492.207 -1.54576 0.307264 0
M  V30 5070 C 493.454 -2.00263 -0.300167 0
M  V30 5071 C 493.782 -1.19561 -1.53413 0
M  V30 5072 O 493.037 -0.261487 -1.93945 0
M  V30 5073 C 493.336 -3.50572 -0.695253 0
M  V30 5074 C 493.002 -4.48771 0.437679 0
M  V30 5075 C 491.664 -4.7534 0.748681 0
M  V30 5076 C 494.016 -5.0721 1.19949 0
M  V30 5077 C 491.344 -5.5761 1.8245 0
M  V30 5078 C 493.696 -5.90651 2.26527 0
M  V30 5079 C 492.36 -6.15528 2.58227 0
M  V30 5080 H 491.63 -0.732814 -0.109839 0
M  V30 5081 H 494.277 -1.86664 0.427661 0
M  V30 5082 H 492.582 -3.61814 -1.50326 0
M  V30 5083 H 494.279 -3.83352 -1.17653 0
M  V30 5084 H 490.869 -4.282 0.185187 0
M  V30 5085 H 495.053 -4.86679 0.972474 0
M  V30 5086 H 490.309 -5.75121 2.07476 0
M  V30 5087 H 494.483 -6.34957 2.86011 0
M  V30 5088 H 492.11 -6.79066 3.4172 0
M  V30 5089 N 493.685 -0.035106 -1.57561 0
M  V30 5090 C 494.91 0.655802 -1.96759 0
M  V30 5091 C 495.335 1.64523 -0.911809 0
M  V30 5092 O 494.693 1.80857 0.126673 0
M  V30 5093 C 494.741 1.33326 -3.35047 0
M  V30 5094 O 493.845 2.44866 -3.31835 0
M  V30 5095 H 493.186 0.171807 -0.641388 0
M  V30 5096 H 495.716 -0.0987369 -2.04362 0
M  V30 5097 H 495.726 1.68867 -3.71413 0
M  V30 5098 H 494.401 0.608033 -4.11431 0
M  V30 5099 H 492.978 2.11392 -3.07193 0
M  V30 5100 N 495.163 1.55791 0.238111 0
M  V30 5101 C 496.409 1.78297 0.966337 0
M  V30 5102 C 496.742 0.601903 1.84637 0
M  V30 5103 O 496.017 -0.399499 1.90353 0
M  V30 5104 C 496.3 3.10758 1.81939 0
M  V30 5105 C 496.153 4.39283 0.966958 0
M  V30 5106 C 497.472 3.39519 2.80027 0
M  V30 5107 H 494.591 0.648654 0.349882 0
M  V30 5108 H 497.233 1.88525 0.236253 0
M  V30 5109 H 495.383 3.02168 2.44185 0
M  V30 5110 H 497.055 4.59873 0.362514 0
M  V30 5111 H 495.298 4.32948 0.271669 0
M  V30 5112 H 495.969 5.28368 1.59784 0
M  V30 5113 H 498.445 3.48128 2.27917 0
M  V30 5114 H 497.321 4.33402 3.36829 0
M  V30 5115 H 497.582 2.60864 3.56934 0
M  V30 5116 N 496.642 -0.504142 1.49319 0
M  V30 5117 C 497.919 -1.26548 1.49147 0
M  V30 5118 C 498.299 -2.09977 0.21744 0
M  V30 5119 O 497.647 -2.14028 -0.800269 0
M  V30 5120 C 497.857 -2.12489 2.76857 0
M  V30 5121 C 499.205 -2.7178 3.26222 0
M  V30 5122 O 500.229 -2.22758 2.77952 0
M  V30 5123 O 499.088 -3.61015 4.10281 0
M  V30 5124 H 496.182 -0.572495 0.596806 0
M  V30 5125 H 498.728 -0.51867 1.61579 0
M  V30 5126 H 497.5 -1.50796 3.61077 0
M  V30 5127 H 497.123 -2.94368 2.6727 0
M  V30 5128 N 498.12 -1.38341 -0.754957 0
M  V30 5129 C 499.536 -1.19508 -1.05783 0
M  V30 5130 C 499.736 -0.0428005 -2.01455 0
M  V30 5131 O 498.792 0.611861 -2.44975 0
M  V30 5132 C 500.105 -2.52091 -1.63923 0
M  V30 5133 C 501.653 -2.58762 -1.76101 0
M  V30 5134 C 502.128 -3.91517 -2.37652 0
M  V30 5135 N 503.619 -3.93049 -2.45085 0
M  V30 5136 C 504.354 -4.9253 -2.93602 0
M  V30 5137 N 503.85 -6.02408 -3.42165 0
M  V30 5138 N 505.643 -4.79921 -2.92629 0
M  V30 5139 H 497.794 -2.1206 -0.120056 0
M  V30 5140 H 500.057 -0.94089 -0.11589 0
M  V30 5141 H 499.763 -3.36858 -1.01093 0
M  V30 5142 H 499.637 -2.70388 -2.63003 0
M  V30 5143 H 502.024 -1.74391 -2.38058 0
M  V30 5144 H 502.105 -2.44333 -0.757294 0
M  V30 5145 H 501.749 -4.76309 -1.76329 0
M  V30 5146 H 501.679 -4.03256 -3.38662 0
M  V30 5147 H 504.17 -3.13685 -2.10736 0
M  V30 5148 H 504.483 -6.74248 -3.77637 0
M  V30 5149 H 502.828 -6.0603 -3.40225 0
M  V30 5150 H 506.019 -3.93194 -2.54001 0
M  V30 5151 H 506.192 -5.57601 -3.30128 0
M  V30 5152 N 499.598 0.982988 -1.23187 0
M  V30 5153 C 501.009 1.53847 -1.05773 0
M  V30 5154 C 501.36 1.92568 0.375744 0
M  V30 5155 O 500.485 1.75783 1.26211 0
M  V30 5156 C 501.08 2.79567 -1.91384 0
M  V30 5157 C 499.639 3.31524 -1.78238 0
M  V30 5158 C 498.786 2.04534 -1.87246 0
M  V30 5159 H 501.737 0.802962 -1.36888 0
M  V30 5160 H 501.758 3.52317 -1.43711 0
M  V30 5161 H 501.27 2.51353 -2.95708 0
M  V30 5162 H 499.371 3.64623 -0.766875 0
M  V30 5163 H 499.484 4.01457 -2.61475 0
M  V30 5164 H 497.848 2.1855 -1.30797 0
M  V30 5165 H 498.631 1.78706 -2.9312 0
M  V30 5166 N 501.076 1.04316 1.18135 0
M  V30 5167 C 502.323 0.74802 1.88178 0
M  V30 5168 C 502.651 -0.72441 1.80506 0
M  V30 5169 O 501.906 -1.54463 1.20165 0
M  V30 5170 C 502.205 1.16271 3.37958 0
M  V30 5171 C 501.871 2.63585 3.65833 0
M  V30 5172 C 500.533 3.03829 3.73151 0
M  V30 5173 C 502.885 3.58822 3.78016 0
M  V30 5174 C 500.213 4.38194 3.90132 0
M  V30 5175 C 502.565 4.92909 3.96514 0
M  V30 5176 C 501.229 5.3282 4.02068 0
M  V30 5177 H 500.499 0.27372 0.688592 0
M  V30 5178 H 503.146 1.30863 1.39811 0
M  V30 5179 H 501.451 0.520938 3.88321 0
M  V30 5180 H 503.148 0.911672 3.90499 0
M  V30 5181 H 499.738 2.31414 3.60757 0
M  V30 5182 H 503.922 3.28875 3.71692 0
M  V30 5183 H 499.178 4.68631 3.92677 0
M  V30 5184 H 503.352 5.66606 4.04883 0
M  V30 5185 H 500.979 6.36943 4.14979 0
M  V30 5186 N 502.554 -1.34406 0.822964 0
M  V30 5187 C 503.504 -2.26963 0.217208 0
M  V30 5188 C 504.488 -1.48536 -0.618545 0
M  V30 5189 O 505.68 -1.7056 -0.473118 0
M  V30 5190 C 502.809 -3.37655 -0.619973 0
M  V30 5191 C 501.895 -4.23495 0.226411 0
M  V30 5192 N 502.286 -4.88876 1.29744 0
M  V30 5193 C 500.584 -4.45999 0.0107554 0
M  V30 5194 C 501.285 -5.52642 1.81553 0
M  V30 5195 N 500.261 -5.31949 1.11942 0
M  V30 5196 H 504.063 -2.75017 1.03647 0
M  V30 5197 H 501.577 -1.48126 0.665777 0
M  V30 5198 H 503.574 -4.02932 -1.07011 0
M  V30 5199 H 502.234 -2.91151 -1.43739 0
M  V30 5200 H 503.245 -4.89886 1.68024 0
M  V30 5201 H 499.922 -4.10253 -0.774495 0
M  V30 5202 H 501.312 -6.14755 2.71156 0
M  V30 5203 N 504.032 -0.577932 -1.46621 0
M  V30 5204 C 505.281 -0.0594281 -2.01612 0
M  V30 5205 C 505.594 1.30663 -1.45556 0
M  V30 5206 O 506.8 1.91621 -1.92337 0
M  V30 5207 C 505.256 -0.0556666 -3.59857 0
M  V30 5208 C 504.864 -1.41975 -4.24908 0
M  V30 5209 C 506.608 0.409143 -4.22524 0
M  V30 5210 C 504.515 -1.37397 -5.75218 0
M  V30 5211 H 503.445 -0.0184469 -0.753774 0
M  V30 5212 H 506.096 -0.728869 -1.68404 0
M  V30 5213 H 504.478 0.679843 -3.90121 0
M  V30 5214 H 505.652 -2.17461 -4.0626 0
M  V30 5215 H 503.967 -1.82419 -3.74316 0
M  V30 5216 H 506.564 0.46211 -5.32699 0
M  V30 5217 H 506.907 1.42565 -3.91128 0
M  V30 5218 H 507.44 -0.272152 -3.96868 0
M  V30 5219 H 504.179 -2.36714 -6.11267 0
M  V30 5220 H 503.699 -0.661239 -5.96144 0
M  V30 5221 H 505.378 -1.08484 -6.3784 0
M  V30 5222 N 505.51 1.54411 -0.315457 0
M  V30 5223 C 506.756 2.00716 0.289972 0
M  V30 5224 C 507.089 1.2034 1.5242 0
M  V30 5225 O 506.364 0.283579 1.92422 0
M  V30 5226 C 506.647 3.54507 0.632196 0
M  V30 5227 C 506.5 4.45615 -0.61218 0
M  V30 5228 C 507.819 4.15421 1.45305 0
M  V30 5229 H 504.938 0.729637 0.10392 0
M  V30 5230 H 507.58 1.8506 -0.430427 0
M  V30 5231 H 505.73 3.67979 1.24595 0
M  V30 5232 H 507.402 4.44026 -1.25053 0
M  V30 5233 H 505.645 4.15621 -1.24264 0
M  V30 5234 H 506.316 5.51022 -0.328379 0
M  V30 5235 H 508.792 4.05474 0.934331 0
M  V30 5236 H 507.668 5.23157 1.66127 0
M  V30 5237 H 507.929 3.68223 2.44671 0
M  V30 5238 N 506.988 0.0434614 1.5754 0
M  V30 5239 C 508.234 -0.632971 1.92669 0
M  V30 5240 C 508.567 -1.70947 0.921446 0
M  V30 5241 O 507.842 -1.94426 -0.0537202 0
M  V30 5242 C 508.125 -1.23619 3.38216 0
M  V30 5243 C 507.978 -0.168274 4.49485 0
M  V30 5244 C 509.297 -2.15008 3.84005 0
M  V30 5245 H 506.416 -0.228629 0.700641 0
M  V30 5246 H 509.058 0.103651 1.89717 0
M  V30 5247 H 507.208 -1.864 3.40863 0
M  V30 5248 H 508.88 0.463196 4.58969 0
M  V30 5249 H 507.123 0.504581 4.30855 0
M  V30 5250 H 507.794 -0.630218 5.48391 0
M  V30 5251 H 510.27 -1.62198 3.83185 0
M  V30 5252 H 509.146 -2.54161 4.86511 0
M  V30 5253 H 509.407 -3.04707 3.20322 0
M  V30 5254 N 508.466 -1.55915 -0.229846 0
M  V30 5255 C 509.882 -1.48721 -0.579166 0
M  V30 5256 C 510.082 -0.736976 -1.87539 0
M  V30 5257 O 509.138 -0.273258 -2.51017 0
M  V30 5258 C 510.451 -2.9323 -0.666082 0
M  V30 5259 C 511.999 -3.03701 -0.757267 0
M  V30 5260 C 512.474 -4.49552 -0.8756 0
M  V30 5261 N 513.965 -4.53561 -0.940035 0
M  V30 5262 C 514.7 -5.63683 -1.05116 0
M  V30 5263 N 514.196 -6.83576 -1.12675 0
M  V30 5264 N 515.989 -5.51516 -1.08565 0
M  V30 5265 H 508.14 -2.03123 0.620857 0
M  V30 5266 H 510.403 -0.922898 0.21671 0
M  V30 5267 H 510.109 -3.51032 0.21664 0
M  V30 5268 H 509.983 -3.44668 -1.53243 0
M  V30 5269 H 512.37 -2.45969 -1.63043 0
M  V30 5270 H 512.451 -2.55446 0.134583 0
M  V30 5271 H 512.095 -5.079 -0.00692351 0
M  V30 5272 H 512.025 -4.95506 -1.78274 0
M  V30 5273 H 514.516 -3.67215 -0.892269 0
M  V30 5274 H 514.829 -7.63251 -1.21109 0
M  V30 5275 H 513.174 -6.86303 -1.09603 0
M  V30 5276 H 516.365 -4.5678 -1.02319 0
M  V30 5277 H 516.538 -6.37372 -1.1688 0
M  V30 5278 N 509.944 0.496216 -1.49584 0
M  V30 5279 C 511.36 0.827814 -1.36453 0
M  V30 5280 C 511.56 1.97464 -0.401285 0
M  V30 5281 O 510.616 2.51958 0.165296 0
M  V30 5282 C 511.929 1.16352 -2.77277 0
M  V30 5283 C 513.477 1.27145 -2.86013 0
M  V30 5284 C 513.952 1.64042 -4.27615 0
M  V30 5285 N 515.443 1.71082 -4.30448 0
M  V30 5286 C 516.178 2.01085 -5.36984 0
M  V30 5287 N 515.674 2.2928 -6.5376 0
M  V30 5288 N 517.467 2.02376 -5.24405 0
M  V30 5289 H 509.618 -0.259947 -2.10803 0
M  V30 5290 H 511.881 -0.0537163 -0.946477 0
M  V30 5291 H 511.587 0.394153 -3.49484 0
M  V30 5292 H 511.461 2.10582 -3.12946 0
M  V30 5293 H 513.848 2.03152 -2.1404 0
M  V30 5294 H 513.929 0.309542 -2.5392 0
M  V30 5295 H 513.573 0.88583 -5.00115 0
M  V30 5296 H 513.503 2.6134 -4.57175 0
M  V30 5297 H 515.994 1.51434 -3.46232 0
M  V30 5298 H 516.307 2.51376 -7.30774 0
M  V30 5299 H 514.652 2.26726 -6.56978 0
M  V30 5300 H 517.843 1.79829 -4.32179 0
M  V30 5301 H 518.016 2.25425 -6.07526 0
M  V30 5302 N 511.423 1.38739 0.74761 0
M  V30 5303 C 512.839 1.20067 1.05148 0
M  V30 5304 C 513.039 0.0534835 2.01429 0
M  V30 5305 O 512.095 -0.59886 2.45296 0
M  V30 5306 C 513.408 2.52957 1.62584 0
M  V30 5307 C 514.956 2.59692 1.74726 0
M  V30 5308 C 515.431 3.92772 2.35573 0
M  V30 5309 N 516.922 3.94343 2.42997 0
M  V30 5310 C 517.657 4.9408 2.90985 0
M  V30 5311 N 517.153 6.04214 3.38965 0
M  V30 5312 N 518.946 4.81466 2.9008 0
M  V30 5313 H 511.097 2.12121 0.108808 0
M  V30 5314 H 513.36 0.941491 0.110899 0
M  V30 5315 H 513.066 3.37389 0.993051 0
M  V30 5316 H 512.94 2.71779 2.61565 0
M  V30 5317 H 515.327 1.75651 2.3713 0
M  V30 5318 H 515.408 2.44731 0.744326 0
M  V30 5319 H 515.052 4.77238 1.738 0
M  V30 5320 H 514.982 4.05046 3.36519 0
M  V30 5321 H 517.473 3.14799 2.0907 0
M  V30 5322 H 517.786 6.76241 3.74056 0
M  V30 5323 H 516.131 6.07825 3.37007 0
M  V30 5324 H 519.322 3.94535 2.51912 0
M  V30 5325 H 519.495 5.59344 3.27166 0
M  V30 5326 N 512.901 -0.976442 1.23707 0
M  V30 5327 C 514.149 -1.71487 1.06942 0
M  V30 5328 C 514.47 -1.9098 -0.393897 0
M  V30 5329 O 513.74 -1.48128 -1.28198 0
M  V30 5330 H 512.32 -0.635425 0.392739 0
M  V30 5331 H 514.982 -1.17515 1.55487 0
M  V30 5332 H 514.078 -2.70286 1.56051 0
M  V30 5333 N 514.379 -1.04941 -1.1758 0
M  V30 5334 C 515.342 -0.652456 -2.19717 0
M  V30 5335 C 516.342 0.294745 -1.58076 0
M  V30 5336 O 517.532 0.0789579 -1.74021 0
M  V30 5337 C 514.664 0.0420712 -3.40874 0
M  V30 5338 H 515.857 -1.55642 -2.5635 0
M  V30 5339 H 513.41 -0.842995 -1.31618 0
M  V30 5340 H 514.145 0.95943 -3.09783 0
M  V30 5341 H 513.93 -0.638844 -3.86861 0
M  V30 5342 H 515.42 0.306 -4.16477 0
M  V30 5343 N 515.857 1.33968 -0.830081 0
M  V30 5344 C 517.106 1.97323 -0.417928 0
M  V30 5345 C 517.419 1.6652 1.02618 0
M  V30 5346 O 518.625 2.2342 1.54259 0
M  V30 5347 C 517.081 3.53099 -0.696359 0
M  V30 5348 C 516.689 3.92788 -2.15457 0
M  V30 5349 C 518.433 4.23049 -0.350724 0
M  V30 5350 C 516.34 5.41506 -2.37751 0
M  V30 5351 H 515.27 0.738409 -0.152541 0
M  V30 5352 H 517.921 1.52711 -1.01744 0
M  V30 5353 H 516.303 3.95991 -0.0265904 0
M  V30 5354 H 517.477 3.6098 -2.86408 0
M  V30 5355 H 515.792 3.35795 -2.46232 0
M  V30 5356 H 518.389 5.32403 -0.495036 0
M  V30 5357 H 518.732 4.10279 0.705476 0
M  V30 5358 H 519.265 3.85657 -0.975362 0
M  V30 5359 H 516.004 5.5927 -3.41903 0
M  V30 5360 H 515.524 5.74804 -1.7135 0
M  V30 5361 H 517.203 6.0828 -2.20465 0
M  V30 5362 N 517.335 0.585699 1.46312 0
M  V30 5363 C 518.265 -0.133556 2.33118 0
M  V30 5364 C 519.246 -0.880707 1.45525 0
M  V30 5365 O 520.431 -0.855579 1.74337 0
M  V30 5366 C 517.561 -1.14585 3.27853 0
M  V30 5367 C 516.515 -0.513341 4.2491 0
M  V30 5368 C 515.841 -1.63231 5.09175 0
M  V30 5369 C 517.141 0.551413 5.19381 0
M  V30 5370 H 518.835 0.59121 2.93505 0
M  V30 5371 H 516.381 0.285761 1.41136 0
M  V30 5372 H 518.334 -1.65741 3.87438 0
M  V30 5373 H 517.058 -1.90093 2.65579 0
M  V30 5374 H 515.717 -0.0228349 3.66593 0
M  V30 5375 H 515.365 -2.37713 4.43285 0
M  V30 5376 H 515.065 -1.21473 5.74907 0
M  V30 5377 H 516.589 -2.14658 5.71624 0
M  V30 5378 H 518.003 0.124804 5.73164 0
M  V30 5379 H 516.4 0.889486 5.93471 0
M  V30 5380 H 517.47 1.43655 4.63132 0
M  V30 5381 N 518.813 -1.54241 0.323641 0
M  V30 5382 C 520.06 -2.0057 -0.27891 0
M  V30 5383 C 520.388 -1.21181 -1.52136 0
M  V30 5384 O 519.643 -0.282043 -1.93657 0
M  V30 5385 C 519.942 -3.5129 -0.658031 0
M  V30 5386 C 519.608 -4.48281 0.485252 0
M  V30 5387 C 518.27 -4.74519 0.799055 0
M  V30 5388 C 520.622 -5.05909 1.25322 0
M  V30 5389 C 517.95 -5.55643 1.88354 0
M  V30 5390 C 520.302 -5.88215 2.32779 0
M  V30 5391 C 518.966 -6.12755 2.64741 0
M  V30 5392 H 518.236 -0.733938 -0.10206 0
M  V30 5393 H 520.883 -1.862 0.447435 0
M  V30 5394 H 519.188 -3.63388 -1.4648 0
M  V30 5395 H 520.885 -3.84578 -1.1358 0
M  V30 5396 H 517.475 -4.27979 0.230593 0
M  V30 5397 H 521.659 -4.8562 1.02404 0
M  V30 5398 H 516.915 -5.72888 2.13564 0
M  V30 5399 H 521.089 -6.31888 2.92729 0
M  V30 5400 H 518.716 -6.75404 3.48904 0
M  V30 5401 N 520.291 -0.0518155 -1.57515 0
M  V30 5402 C 521.221 0.920283 -2.146 0
M  V30 5403 C 522.202 1.32406 -1.06783 0
M  V30 5404 O 523.387 1.39866 -1.34726 0
M  V30 5405 C 520.517 2.1949 -2.6915 0
M  V30 5406 C 519.471 1.93116 -3.81956 0
M  V30 5407 C 518.797 3.27037 -4.23026 0
M  V30 5408 C 520.097 1.25225 -5.07066 0
M  V30 5409 H 521.791 0.444801 -2.96077 0
M  V30 5410 H 519.337 0.212508 -1.42423 0
M  V30 5411 H 521.29 2.87894 -3.07725 0
M  V30 5412 H 520.014 2.69244 -1.84865 0
M  V30 5413 H 518.673 1.27123 -3.43854 0
M  V30 5414 H 518.321 3.74595 -3.3569 0
M  V30 5415 H 518.021 3.10189 -4.99056 0
M  V30 5416 H 519.545 3.96673 -4.64202 0
M  V30 5417 H 520.959 1.83666 -5.43083 0
M  V30 5418 H 519.356 1.18702 -5.88243 0
M  V30 5419 H 520.426 0.228382 -4.84362 0
M  V30 5420 N 521.769 1.56035 0.221574 0
M  V30 5421 C 523.017 1.78693 0.944102 0
M  V30 5422 C 523.338 0.620317 1.8487 0
M  V30 5423 O 522.608 -0.362784 1.92512 0
M  V30 5424 H 521.188 0.659082 0.351597 0
M  V30 5425 H 523.85 1.93497 0.233435 0
M  V30 5426 H 522.946 2.70837 1.55093 0
M  V30 5427 N 523.247 -0.488276 1.49845 0
M  V30 5428 C 524.472 -1.26997 1.63971 0
M  V30 5429 C 524.897 -1.85427 0.315994 0
M  V30 5430 O 524.255 -1.66475 -0.718032 0
M  V30 5431 C 524.303 -2.36689 2.72049 0
M  V30 5432 O 523.407 -3.40882 2.32107 0
M  V30 5433 H 522.748 -0.374376 0.548396 0
M  V30 5434 H 525.278 -0.583104 1.96115 0
M  V30 5435 H 525.288 -2.82262 2.94605 0
M  V30 5436 H 523.963 -1.93529 3.68129 0
M  V30 5437 H 522.54 -3.01139 2.19931 0
M  V30 5438 N 524.725 -1.39134 -0.740242 0
M  V30 5439 C 525.974 -1.35384 -1.49512 0
M  V30 5440 C 526.287 0.04919 -1.95538 0
M  V30 5441 O 527.493 0.209257 -2.70692 0
M  V30 5442 C 525.949 -2.37812 -2.70136 0
M  V30 5443 C 525.557 -3.83804 -2.31081 0
M  V30 5444 C 527.301 -2.4313 -3.47977 0
M  V30 5445 C 525.208 -4.77886 -3.48395 0
M  V30 5446 H 524.138 -0.503297 -0.561434 0
M  V30 5447 H 526.789 -1.64754 -0.807974 0
M  V30 5448 H 525.171 -2.01505 -3.40899 0
M  V30 5449 H 526.345 -4.29123 -1.67898 0
M  V30 5450 H 524.66 -3.81732 -1.66343 0
M  V30 5451 H 527.257 -3.10614 -4.35228 0
M  V30 5452 H 527.6 -1.45423 -3.90074 0
M  V30 5453 H 528.133 -2.78304 -2.84239 0
M  V30 5454 H 524.872 -5.76836 -3.11353 0
M  V30 5455 H 524.392 -4.3725 -4.10576 0
M  V30 5456 H 526.071 -4.96538 -4.148 0
M  V30 5457 N 526.204 0.969867 -1.24223 0
M  V30 5458 C 527.167 2.04564 -1.03373 0
M  V30 5459 C 528.167 1.60798 0.00819206 0
M  V30 5460 O 529.357 1.72641 -0.232567 0
M  V30 5461 C 526.489 3.36163 -0.566343 0
M  V30 5462 H 527.682 2.24494 -1.98853 0
M  V30 5463 H 525.235 1.1448 -1.06415 0
M  V30 5464 H 525.97 3.21925 0.391751 0
M  V30 5465 H 525.755 3.69273 -1.31834 0
M  V30 5466 H 527.245 4.1526 -0.441435 0
M  V30 5467 N 527.682 1.05563 1.17022 0
M  V30 5468 C 528.959 0.68165 1.83338 0
M  V30 5469 C 529.339 -0.837665 1.93769 0
M  V30 5470 O 528.687 -1.74507 1.47511 0
M  V30 5471 C 528.897 1.375 3.20772 0
M  V30 5472 C 530.245 1.51545 3.96635 0
M  V30 5473 O 531.269 1.33431 3.30264 0
M  V30 5474 O 530.128 1.812 5.15586 0
M  V30 5475 H 527.222 0.240412 0.791285 0
M  V30 5476 H 529.768 1.15545 1.24288 0
M  V30 5477 H 528.54 2.41135 3.08171 0
M  V30 5478 H 528.163 0.890798 3.87493 0
M  V30 5479 N 529.16 -1.33526 0.837174 0
M  V30 5480 C 530.571 -1.80182 0.489017 0
M  V30 5481 C 530.922 -1.69285 -0.991826 0
M  V30 5482 O 530.047 -1.24113 -1.77271 0
M  V30 5483 C 530.642 -3.27149 0.880866 0
M  V30 5484 C 529.201 -3.71828 0.584872 0
M  V30 5485 C 528.348 -2.54974 1.09011 0
M  V30 5486 H 531.299 -1.21071 1.02603 0
M  V30 5487 H 531.32 -3.80024 0.190239 0
M  V30 5488 H 530.832 -3.35048 1.95869 0
M  V30 5489 H 528.933 -3.69457 -0.48295 0
M  V30 5490 H 529.046 -4.65366 1.13892 0
M  V30 5491 H 527.41 -2.4952 0.511047 0
M  V30 5492 H 528.193 -2.65637 2.17467 0
M  V30 5493 N 530.638 -0.59345 -1.46 0
M  V30 5494 C 531.588 0.154751 -2.27474 0
M  V30 5495 C 532.572 0.851849 -1.365 0
M  V30 5496 O 533.764 0.744171 -1.60596 0
M  V30 5497 C 530.893 1.16079 -3.2308 0
M  V30 5498 C 529.979 0.465256 -4.2154 0
M  V30 5499 N 530.37 -0.485197 -5.03467 0
M  V30 5500 C 528.668 0.714634 -4.40237 0
M  V30 5501 C 529.369 -0.892709 -5.74809 0
M  V30 5502 N 528.345 -0.239511 -5.43072 0
M  V30 5503 H 532.147 -0.57546 -2.88211 0
M  V30 5504 H 529.661 -0.416046 -1.5698 0
M  V30 5505 H 531.658 1.71108 -3.80168 0
M  V30 5506 H 530.318 1.89171 -2.63903 0
M  V30 5507 H 531.329 -0.861258 -5.10689 0
M  V30 5508 H 528.006 1.43131 -3.92199 0
M  V30 5509 H 529.396 -1.67581 -6.50666 0
M  V30 5510 N 532.116 1.54067 -0.331816 0
M  V30 5511 C 533.393 1.92915 0.322955 0
M  V30 5512 C 533.773 1.26225 1.69205 0
M  V30 5513 O 533.121 0.408919 2.24811 0
M  V30 5514 C 533.331 3.46619 0.406946 0
M  V30 5515 C 534.679 4.19386 0.663339 0
M  V30 5516 O 535.703 3.5282 0.489536 0
M  V30 5517 O 534.562 5.37288 0.999193 0
M  V30 5518 H 531.656 0.805808 0.186016 0
M  V30 5519 H 534.202 1.65342 -0.382135 0
M  V30 5520 H 532.974 3.87354 -0.554287 0
M  V30 5521 H 532.597 3.80324 1.15929 0
M  V30 5522 N 533.594 0.0601682 1.57485 0
M  V30 5523 C 535.005 -0.474217 1.80577 0
M  V30 5524 C 535.356 -1.70365 0.973147 0
M  V30 5525 O 534.481 -2.15544 0.192306 0
M  V30 5526 C 535.076 -0.867102 3.27516 0
M  V30 5527 C 533.635 -1.34642 3.51495 0
M  V30 5528 C 532.782 -0.32594 2.75378 0
M  V30 5529 H 535.733 0.285973 1.56102 0
M  V30 5530 H 535.754 -1.72938 3.38929 0
M  V30 5531 H 535.266 0.0278927 3.8809 0
M  V30 5532 H 533.367 -2.2603 2.96212 0
M  V30 5533 H 533.48 -1.33237 4.60201 0
M  V30 5534 H 531.844 -0.800749 2.41785 0
M  V30 5535 H 532.627 0.561125 3.38683 0
M  V30 5536 N 535.072 -1.5615 -0.213296 0
M  V30 5537 C 536.32 -1.79191 -0.934612 0
M  V30 5538 C 536.641 -0.630112 -1.84539 0
M  V30 5539 O 535.911 0.35257 -1.92701 0
M  V30 5540 H 534.491 -0.660937 -0.348097 0
M  V30 5541 H 537.153 -1.93618 -0.22317 0
M  V30 5542 H 536.249 -2.71656 -1.53654 0
M  V30 5543 N 536.55 0.480323 -1.50102 0
M  V30 5544 C 537.961 1.06142 -1.53593 0
M  V30 5545 C 538.312 1.93335 -0.334055 0
M  V30 5546 O 537.437 2.09188 0.55403 0
M  V30 5547 C 538.032 1.9317 -2.78336 0
M  V30 5548 C 536.591 2.46405 -2.84538 0
M  V30 5549 C 535.738 1.24521 -2.4777 0
M  V30 5550 H 538.689 0.26333 -1.565 0
M  V30 5551 H 538.71 2.78123 -2.59669 0
M  V30 5552 H 538.222 1.29683 -3.65792 0
M  V30 5553 H 536.323 3.13472 -2.01411 0
M  V30 5554 H 536.436 2.82143 -3.87211 0
M  V30 5555 H 534.8 1.57706 -2.00003 0
M  V30 5556 H 535.583 0.627102 -3.37524 0
M  V30 5557 N 538.028 1.39524 0.732853 0
M  V30 5558 C 538.991 1.38189 1.82857 0
M  V30 5559 C 539.991 0.278624 1.58368 0
M  V30 5560 O 541.181 0.536639 1.65728 0
M  V30 5561 C 538.313 1.15661 3.2068 0
M  V30 5562 H 539.506 2.35692 1.85444 0
M  V30 5563 H 537.059 1.2512 0.936728 0
M  V30 5564 H 537.794 0.188482 3.23752 0
M  V30 5565 H 537.579 1.95559 3.39852 0
M  V30 5566 H 539.069 1.17472 4.00737 0
M  V30 5567 N 539.506 -0.963266 1.24736 0
M  V30 5568 C 540.438 -2.06162 1.0015 0
M  V30 5569 C 541.451 -1.62771 -0.0305905 0
M  V30 5570 O 542.64 -1.77296 0.206966 0
M  V30 5571 C 539.74 -3.35333 0.490385 0
M  V30 5572 C 538.913 -4.07609 1.58663 0
M  V30 5573 C 537.972 -5.15052 1.0774 0
M  V30 5574 O 536.998 -5.4098 1.77002 0
M  V30 5575 N 538.2 -5.80436 -0.0858605 0
M  V30 5576 H 540.965 -2.27825 1.94719 0
M  V30 5577 H 538.526 -1.13121 1.15825 0
M  V30 5578 H 540.518 -4.04477 0.134371 0
M  V30 5579 H 539.088 -3.10507 -0.361155 0
M  V30 5580 H 538.308 -3.32681 2.11463 0
M  V30 5581 H 539.596 -4.52656 2.32336 0
M  V30 5582 H 538.994 -5.6178 -0.664806 0
M  V30 5583 H 537.551 -6.50674 -0.382981 0
M  V30 5584 O 541.023 -1.1863 -1.09586 0
M  V30 5585 H 541.714 -0.930355 -1.69894 0
M  V30 END ATOM
M  V30 BEGIN BOND
M  V30 END BOND
M  V30 END CTAB
M  END
$$$$
