drugbank_target|Q47PU3 Phenylacetone monooxygenase (DB03147)
 OpenBabel12092120263D

  0  0  0     0  0            999 V3000
M  V30 BEGIN CTAB
M  V30 COUNTS 8503 8616 0 0 0
M  V30 BEGIN ATOM
M  V30 1 H -0.908 1.98254 -0.117106 0
M  V30 2 N 0 1.576 0 0
M  V30 3 C 0.933 2.03868 1.02534 0
M  V30 4 C 1.911 0.928543 1.3348 0
M  V30 5 O 3.095 1.19667 1.45644 0
M  V30 6 C 0.222 2.43627 2.35294 0
M  V30 7 C -0.732 3.65373 2.2001 0
M  V30 8 S 0.101 5.13292 1.52614 0
M  V30 9 C 1.257 5.56322 2.86805 0
M  V30 10 H 1.49 2.90518 0.631377 0
M  V30 11 H -0.977 1.52953 0.210867 0
M  V30 12 H 0.981 2.67203 3.11629 0
M  V30 13 H -0.358 1.57376 2.7183 0
M  V30 14 H -1.165 3.90944 3.18086 0
M  V30 15 H -1.563 3.418 1.51819 0
M  V30 16 H 0.729 5.58782 3.83104 0
M  V30 17 H 1.672 6.56266 2.65933 0
M  V30 18 H 2.08 4.83886 2.90714 0
M  V30 19 N 1.4781 -0.272755 1.55222 0
M  V30 20 C 2.4411 -1.32041 1.87344 0
M  V30 21 C 3.4411 -1.42342 0.74803 0
M  V30 22 O 4.6311 -1.41488 1.0162 0
M  V30 23 C 1.7631 -2.70173 2.07893 0
M  V30 24 H 2.9561 -1.04789 2.80997 0
M  V30 25 H 0.5091 -0.51083 1.47717 0
M  V30 26 H 1.2441 -3.02605 1.16622 0
M  V30 27 H 1.0291 -2.64082 2.89833 0
M  V30 28 H 2.5191 -3.45869 2.34017 0
M  V30 29 N 2.9562 -1.48159 -0.537278 0
M  V30 30 C 4.2042 -1.55497 -1.29094 0
M  V30 31 C 4.5252 -0.227454 -1.93669 0
M  V30 32 O 3.7952 0.750386 -1.80959 0
M  V30 33 H 2.3752 -0.572832 -0.47945 0
M  V30 34 H 5.0372 -1.84579 -0.625818 0
M  V30 35 H 4.1332 -2.33216 -2.07405 0
M  V30 36 N 4.4343 0.785586 -1.36625 0
M  V30 37 C 5.3663 1.90711 -1.2713 0
M  V30 38 C 6.3793 1.61688 -0.189986 0
M  V30 39 O 7.5683 1.72864 -0.445014 0
M  V30 40 C 4.6683 3.25611 -0.939713 0
M  V30 41 C 3.8413 3.82385 -2.12369 0
M  V30 42 C 2.9003 4.95732 -1.76456 0
M  V30 43 O 1.9263 5.12047 -2.48589 0
M  V30 44 N 3.1283 5.76258 -0.700492 0
M  V30 45 H 5.8933 1.99376 -2.23762 0
M  V30 46 H 3.4543 0.964041 -1.30069 0
M  V30 47 H 5.4463 3.98937 -0.680554 0
M  V30 48 H 4.0163 3.12538 -0.0624074 0
M  V30 49 H 3.2363 3.01001 -2.54543 0
M  V30 50 H 4.5243 4.17047 -2.9146 0
M  V30 51 H 3.9223 5.65609 -0.101624 0
M  V30 52 H 2.4793 6.4987 -0.501165 0
M  V30 53 N 5.9124 1.20967 1.01018 0
M  V30 54 C 7.1404 1.04956 1.78303 0
M  V30 55 C 7.5554 -0.400915 1.84494 0
M  V30 56 O 6.9124 -1.27826 1.30257 0
M  V30 57 C 6.9634 1.63403 3.22462 0
M  V30 58 O 6.6844 3.02775 3.16637 0
M  V30 59 C 8.1854 1.52432 4.16268 0
M  V30 60 H 5.4054 0.368858 0.560522 0
M  V30 61 H 7.9494 1.60193 1.27116 0
M  V30 62 H 6.1044 1.1227 3.70775 0
M  V30 63 H 6.5184 3.30626 4.07169 0
M  V30 64 H 7.9924 1.98078 5.15237 0
M  V30 65 H 8.4694 0.477875 4.36592 0
M  V30 66 H 9.0754 2.02787 3.73841 0
M  V30 67 N 7.3905 -1.2043 1.01659 0
M  V30 68 C 8.6185 -1.93777 0.725132 0
M  V30 69 C 9.0335 -1.74772 -0.714166 0
M  V30 70 O 8.3905 -1.06169 -1.4844 0
M  V30 71 C 8.4415 -3.45876 1.05129 0
M  V30 72 O 8.1625 -3.6426 2.43406 0
M  V30 73 C 9.6635 -4.36368 0.780891 0
M  V30 74 H 6.8835 -0.615901 0.266284 0
M  V30 75 H 9.4275 -1.52922 1.35776 0
M  V30 76 H 7.5825 -3.8461 0.464065 0
M  V30 77 H 7.9965 -4.58246 2.55169 0
M  V30 78 H 9.4705 -5.41743 1.05918 0
M  V30 79 H 9.9475 -4.38275 -0.284937 0
M  V30 80 H 10.5535 -4.03296 1.35027 0
M  V30 81 N 8.8686 -0.792821 -1.36206 0
M  V30 82 C 10.1146 -0.36733 -1.99446 0
M  V30 83 C 10.4476 1.05917 -1.62774 0
M  V30 84 O 9.7226 1.7324 -0.88421 0
M  V30 85 C 10.0056 -0.535044 -3.56103 0
M  V30 86 C 9.8586 -2.00548 -4.02617 0
M  V30 87 C 11.1776 0.0478191 -4.40074 0
M  V30 88 H 8.2966 -0.134941 -0.724541 0
M  V30 89 H 10.9386 -0.999794 -1.61568 0
M  V30 90 H 9.0886 0.00336329 -3.885 0
M  V30 91 H 10.7606 -2.60521 -3.80692 0
M  V30 92 H 9.0036 -2.50686 -3.54032 0
M  V30 93 H 9.6746 -2.07377 -5.11565 0
M  V30 94 H 12.1506 -0.411822 -4.14057 0
M  V30 95 H 11.0266 -0.0995336 -5.4881 0
M  V30 96 H 11.2876 1.14025 -4.27142 0
M  V30 97 N 10.3467 1.47872 -0.545128 0
M  V30 98 C 11.6237 1.9554 0.0485222 0
M  V30 99 C 12.0037 1.4876 1.49779 0
M  V30 100 O 11.3517 0.720925 2.16829 0
M  V30 101 C 11.5617 3.48898 -0.084417 0
M  V30 102 C 12.9097 4.24547 0.0671239 0
M  V30 103 O 13.9337 3.56198 -0.0113649 0
M  V30 104 O 12.7927 5.45999 0.233882 0
M  V30 105 H 9.8867 0.823957 0.0708773 0
M  V30 106 H 12.4327 1.58327 -0.610798 0
M  V30 107 H 11.2047 3.75714 -1.09337 0
M  V30 108 H 10.8277 3.92845 0.613066 0
M  V30 109 N 11.8248 0.280983 1.55075 0
M  V30 110 C 13.0498 -0.340154 2.04592 0
M  V30 111 C 13.4748 -1.48246 1.15779 0
M  V30 112 O 12.8328 -1.80614 0.15761 0
M  V30 113 C 12.8808 -0.793104 3.5177 0
M  V30 114 O 11.9848 -1.89981 3.66034 0
M  V30 115 H 11.3258 -0.0694289 0.66036 0
M  V30 116 H 13.8558 0.416993 2.00306 0
M  V30 117 H 13.8658 -1.08729 3.93245 0
M  V30 118 H 12.5408 0.0426163 4.15878 0
M  V30 119 H 11.1178 -1.60771 3.36463 0
M  V30 120 N 13.3029 -1.57598 0.00835791 0
M  V30 121 C 14.7189 -1.55764 -0.347822 0
M  V30 122 C 14.9189 -1.01186 -1.74252 0
M  V30 123 O 13.9749 -0.649371 -2.44007 0
M  V30 124 C 15.2879 -2.99927 -0.215407 0
M  V30 125 C 16.8359 -3.11656 -0.289725 0
M  V30 126 C 17.3109 -4.57621 -0.18634 0
M  V30 127 N 18.8019 -4.62557 -0.243978 0
M  V30 128 C 19.5369 -5.73094 -0.18745 0
M  V30 129 N 19.0329 -6.92753 -0.0810331 0
M  V30 130 N 20.8259 -5.61588 -0.239925 0
M  V30 131 H 12.9769 -1.91411 0.92062 0
M  V30 132 H 15.2399 -0.879562 0.353659 0
M  V30 133 H 14.9459 -3.43729 0.744512 0
M  V30 134 H 14.8199 -3.63865 -0.994097 0
M  V30 135 H 17.2069 -2.67779 -1.24009 0
M  V30 136 H 17.2879 -2.5048 0.51898 0
M  V30 137 H 16.9319 -5.02174 0.760519 0
M  V30 138 H 16.8619 -5.16752 -1.01364 0
M  V30 139 H 19.3529 -3.76481 -0.327217 0
M  V30 140 H 19.6659 -7.72787 -0.0440241 0
M  V30 141 H 18.0109 -6.94984 -0.0465419 0
M  V30 142 H 21.2019 -4.66996 -0.321317 0
M  V30 143 H 21.3749 -6.47714 -0.192407 0
M  V30 144 N 14.781 0.264519 -1.55364 0
M  V30 145 C 16.197 0.61215 -1.47394 0
M  V30 146 C 16.397 1.89134 -0.695018 0
M  V30 147 O 15.453 2.51563 -0.217275 0
M  V30 148 C 16.766 0.731235 -2.91674 0
M  V30 149 C 18.314 0.82473 -3.01939 0
M  V30 150 C 18.789 0.975522 -4.4749 0
M  V30 151 N 20.28 1.04083 -4.51354 0
M  V30 152 C 21.015 1.17646 -5.61201 0
M  V30 153 N 20.511 1.27874 -6.80896 0
M  V30 154 N 22.304 1.20823 -5.48961 0
M  V30 155 H 14.455 -0.575456 -2.04456 0
M  V30 156 H 16.718 -0.196099 -0.927496 0
M  V30 157 H 16.424 -0.138392 -3.51428 0
M  V30 158 H 16.298 1.60883 -3.41169 0
M  V30 159 H 18.685 1.68482 -2.42276 0
M  V30 160 H 18.766 -0.0776479 -2.55682 0
M  V30 161 H 18.41 0.120058 -5.07758 0
M  V30 162 H 18.34 1.89268 -4.91412 0
M  V30 163 H 20.831 0.973846 -3.65136 0
M  V30 164 H 21.144 1.38081 -7.60364 0
M  V30 165 H 19.489 1.24863 -6.83692 0
M  V30 166 H 22.68 1.12469 -4.54388 0
M  V30 167 H 22.853 1.31049 -6.3461 0
M  V30 168 N 16.2591 1.48442 0.529413 0
M  V30 169 C 17.1911 1.59095 1.64989 0
M  V30 170 C 18.2041 0.475212 1.5571 0
M  V30 171 O 19.3931 0.746081 1.6216 0
M  V30 172 C 16.4931 1.50518 3.0364 0
M  V30 173 C 15.6661 2.77142 3.38395 0
M  V30 174 C 14.7251 2.62012 4.56329 0
M  V30 175 O 13.7511 3.35898 4.59522 0
M  V30 176 N 14.9531 1.71667 5.54536 0
M  V30 177 H 17.7181 2.55723 1.56287 0
M  V30 178 H 15.2791 1.45173 0.716697 0
M  V30 179 H 17.2711 1.38091 3.80412 0
M  V30 180 H 15.8411 0.618627 3.06418 0
M  V30 181 H 15.0611 3.0413 2.50796 0
M  V30 182 H 16.3491 3.61146 3.58401 0
M  V30 183 H 15.7471 1.10841 5.54735 0
M  V30 184 H 14.3041 1.65178 6.30523 0
M  V30 185 N 17.7372 -0.778329 1.37039 0
M  V30 186 C 19.1482 -1.35421 1.28523 0
M  V30 187 C 19.4992 -1.96075 -0.0700901 0
M  V30 188 O 18.6242 -1.93352 -0.971801 0
M  V30 189 C 19.2192 -2.46211 2.32735 0
M  V30 190 C 17.7782 -2.99585 2.27873 0
M  V30 191 C 16.9252 -1.72748 2.16918 0
M  V30 192 H 19.8762 -0.5791 1.47757 0
M  V30 193 H 19.8972 -3.2552 1.9702 0
M  V30 194 H 19.4092 -2.02036 3.31365 0
M  V30 195 H 17.5102 -3.48152 1.32745 0
M  V30 196 H 17.6232 -3.55646 3.21018 0
M  V30 197 H 15.9872 -1.95416 1.63354 0
M  V30 198 H 16.7702 -1.30686 3.17452 0
M  V30 199 N 19.2153 -1.21501 -1.00376 0
M  V30 200 C 20.6263 -1.03146 -1.55621 0
M  V30 201 C 20.9773 0.408375 -1.91903 0
M  V30 202 O 20.1023 1.29177 -1.73616 0
M  V30 203 C 20.6973 -1.86612 -2.82775 0
M  V30 204 C 19.2563 -1.72586 -3.34501 0
M  V30 205 C 18.4033 -1.83747 -2.07683 0
M  V30 206 H 21.3543 -1.35505 -0.826081 0
M  V30 207 H 21.3753 -1.3771 -3.54706 0
M  V30 208 H 20.8873 -2.91399 -2.56336 0
M  V30 209 H 18.9883 -0.704877 -3.65872 0
M  V30 210 H 19.1013 -2.54623 -4.05837 0
M  V30 211 H 17.4653 -1.27069 -2.20739 0
M  V30 212 H 18.2483 -2.90044 -1.83655 0
M  V30 213 N 20.6934 1.19889 -1.02296 0
M  V30 214 C 21.6034 2.26571 -0.608508 0
M  V30 215 C 22.6194 1.70299 0.356964 0
M  V30 216 O 23.7954 2.00235 0.216326 0
M  V30 217 C 20.8604 3.46677 0.0402814 0
M  V30 218 C 19.9214 4.18153 -0.97194 0
M  V30 219 C 19.1544 5.32525 -0.354016 0
M  V30 220 O 19.3774 5.64112 0.844604 0
M  V30 221 O 18.3114 5.92242 -1.07391 0
M  V30 222 H 22.1374 2.64251 -1.49684 0
M  V30 223 H 19.7224 1.26629 -0.792809 0
M  V30 224 H 21.6044 4.19475 0.402324 0
M  V30 225 H 20.2794 3.10858 0.902707 0
M  V30 226 H 19.1864 3.47499 -1.38546 0
M  V30 227 H 20.5194 4.57927 -1.80454 0
M  V30 228 N 22.1715 0.800033 1.35784 0
M  V30 229 C 23.0815 0.207204 2.33683 0
M  V30 230 C 24.0975 -0.64631 1.61551 0
M  V30 231 O 25.2735 -0.559604 1.93469 0
M  V30 232 C 22.3385 -0.639659 3.40748 0
M  V30 233 C 21.3995 0.233585 4.28664 0
M  V30 234 C 20.6325 -0.572954 5.30616 0
M  V30 235 O 20.8555 -1.80816 5.40982 0
M  V30 236 O 19.7895 0.0327285 6.01891 0
M  V30 237 H 23.6155 1.01692 2.86169 0
M  V30 238 H 21.2005 0.561691 1.38439 0
M  V30 239 H 23.0825 -1.12223 4.06182 0
M  V30 240 H 21.7575 -1.42708 2.90544 0
M  V30 241 H 20.6645 0.763147 3.66233 0
M  V30 242 H 21.9975 0.984784 4.82248 0
M  V30 243 N 23.6496 -1.47581 0.552962 0
M  V30 244 C 24.8956 -2.02782 0.0273648 0
M  V30 245 C 25.2286 -1.42687 -1.31734 0
M  V30 246 O 24.5036 -0.580897 -1.85623 0
M  V30 247 C 24.7866 -3.60031 -0.0702371 0
M  V30 248 C 24.6396 -4.30566 1.30126 0
M  V30 249 C 25.9586 -4.33028 -0.785771 0
M  V30 250 H 23.0776 -0.736912 0.0114185 0
M  V30 251 H 25.7196 -1.76056 0.714432 0
M  V30 252 H 23.8696 -3.82932 -0.655382 0
M  V30 253 H 25.5416 -4.19018 1.92929 0
M  V30 254 H 23.7846 -3.91086 1.87709 0
M  V30 255 H 24.4556 -5.39114 1.18573 0
M  V30 256 H 26.9316 -4.15095 -0.288982 0
M  V30 257 H 25.8076 -5.42695 -0.823013 0
M  V30 258 H 26.0686 -4.01945 -1.841 0
M  V30 259 N 25.1277 -0.289203 -1.54924 0
M  V30 260 C 26.4047 0.376032 -1.91951 0
M  V30 261 C 26.7847 1.72622 -1.21511 0
M  V30 262 O 26.1327 2.25853 -0.346767 0
M  V30 263 C 26.3427 0.502378 -3.45365 0
M  V30 264 C 27.6907 0.778741 -4.17398 0
M  V30 265 O 28.7147 0.586647 -3.51336 0
M  V30 266 O 27.5737 1.14698 -5.34328 0
M  V30 267 H 24.6677 0.208167 -0.800372 0
M  V30 268 H 27.2137 -0.336394 -1.66332 0
M  V30 269 H 25.9857 -0.447255 -3.88736 0
M  V30 270 H 25.6087 1.26373 -3.76982 0
M  V30 271 N 26.6058 1.57591 -0.0167156 0
M  V30 272 C 27.8518 1.91567 0.665582 0
M  V30 273 C 28.1848 0.892298 1.72487 0
M  V30 274 O 27.4598 -0.0867127 1.94307 0
M  V30 275 C 27.7428 3.36069 1.29342 0
M  V30 276 C 27.5958 4.49135 0.244541 0
M  V30 277 C 28.9148 3.803 2.21495 0
M  V30 278 H 26.0338 0.69666 0.240488 0
M  V30 279 H 28.6758 1.89866 -0.0714356 0
M  V30 280 H 26.8258 3.3765 1.92158 0
M  V30 281 H 28.4978 4.59689 -0.385228 0
M  V30 282 H 26.7408 4.3165 -0.431379 0
M  V30 283 H 27.4118 5.47242 0.723207 0
M  V30 284 H 29.8878 3.80377 1.68678 0
M  V30 285 H 28.7638 4.82127 2.62382 0
M  V30 286 H 29.0248 3.15104 3.101 0
M  V30 287 N 28.0839 -0.256276 1.55502 0
M  V30 288 C 29.0139 -1.32102 1.92539 0
M  V30 289 C 29.9949 -1.50684 0.789194 0
M  V30 290 O 31.1799 -1.63449 1.04872 0
M  V30 291 C 28.3099 -2.67752 2.21192 0
M  V30 292 C 27.2639 -2.63878 3.36975 0
M  V30 293 C 26.5899 -4.03236 3.51147 0
M  V30 294 C 27.8899 -2.21682 4.72921 0
M  V30 295 H 29.5839 -1.01351 2.81724 0
M  V30 296 H 27.1299 -0.486105 1.35547 0
M  V30 297 H 29.0829 -3.42365 2.45691 0
M  V30 298 H 27.8069 -3.0012 1.28824 0
M  V30 299 H 26.4659 -1.91722 3.12471 0
M  V30 300 H 26.1139 -4.32854 2.56216 0
M  V30 301 H 25.8139 -4.01535 4.29003 0
M  V30 302 H 27.3379 -4.79563 3.77957 0
M  V30 303 H 28.7519 -2.86023 4.96854 0
M  V30 304 H 27.1489 -2.3111 5.53812 0
M  V30 305 H 28.2189 -1.16833 4.70615 0
M  V30 306 N 29.562 -1.4872 -0.521534 0
M  V30 307 C 30.808 -1.574 -1.27879 0
M  V30 308 C 31.141 -0.250817 -1.92573 0
M  V30 309 O 30.416 0.743934 -1.79711 0
M  V30 310 C 30.699 -2.71843 -2.36164 0
M  V30 311 C 30.552 -4.13893 -1.76105 0
M  V30 312 C 31.871 -2.82008 -3.37875 0
M  V30 313 H 28.99 -0.572941 -0.463581 0
M  V30 314 H 31.632 -1.80927 -0.580119 0
M  V30 315 H 29.782 -2.51914 -2.95756 0
M  V30 316 H 31.454 -4.45284 -1.20499 0
M  V30 317 H 29.697 -4.20498 -1.06601 0
M  V30 318 H 30.368 -4.89804 -2.5455 0
M  V30 319 H 32.844 -3.00086 -2.88249 0
M  V30 320 H 31.72 -3.63796 -4.11028 0
M  V30 321 H 31.981 -1.90511 -3.98946 0
M  V30 322 N 31.0401 0.771051 -1.3745 0
M  V30 323 C 32.2861 1.5319 -1.32894 0
M  V30 324 C 32.6191 1.94008 0.0862511 0
M  V30 325 O 31.8941 1.64124 1.04373 0
M  V30 326 C 32.1771 2.79648 -2.26868 0
M  V30 327 C 32.0301 2.45079 -3.77169 0
M  V30 328 C 33.3491 3.81583 -2.19277 0
M  V30 329 H 30.4681 0.555744 -0.484064 0
M  V30 330 H 33.1101 0.884492 -1.68157 0
M  V30 331 H 31.2601 3.34891 -1.96926 0
M  V30 332 H 32.9321 1.95745 -4.1771 0
M  V30 333 H 31.1751 1.77767 -3.95704 0
M  V30 334 H 31.8461 3.35478 -4.38359 0
M  V30 335 H 34.3221 3.35835 -2.45671 0
M  V30 336 H 33.1981 4.67787 -2.87171 0
M  V30 337 H 33.4591 4.25897 -1.18592 0
M  V30 338 N 32.5182 1.22032 0.997298 0
M  V30 339 C 33.7662 1.04016 1.73278 0
M  V30 340 C 34.0872 -0.426255 1.90284 0
M  V30 341 O 33.3572 -1.30694 1.45931 0
M  V30 342 H 31.9372 0.381897 0.642 0
M  V30 343 H 34.5992 1.5347 1.20137 0
M  V30 344 H 33.6952 1.51441 2.72896 0
M  V30 345 N 33.9963 -1.19345 1.0293 0
M  V30 346 C 34.9593 -2.20793 0.615069 0
M  V30 347 C 35.9593 -1.57553 -0.321533 0
M  V30 348 O 37.1493 -1.73862 -0.108483 0
M  V30 349 C 34.2813 -3.40754 -0.0999222 0
M  V30 350 H 35.4743 -2.58955 1.51269 0
M  V30 351 H 33.0273 -1.3303 0.820534 0
M  V30 352 H 33.7623 -3.0811 -1.01187 0
M  V30 353 H 33.5473 -3.87889 0.57309 0
M  V30 354 H 35.0373 -4.15898 -0.376645 0
M  V30 355 N 35.4744 -0.807222 -1.35358 0
M  V30 356 C 36.7224 -0.387122 -1.98358 0
M  V30 357 C 37.0434 1.04942 -1.64354 0
M  V30 358 O 36.3134 1.72615 -0.926339 0
M  V30 359 H 34.8934 -0.140154 -0.733734 0
M  V30 360 H 37.5554 -1.0332 -1.6526 0
M  V30 361 H 36.6514 -0.493352 -3.08176 0
M  V30 362 N 36.9525 1.47285 -0.560781 0
M  V30 363 C 38.1995 2.02464 -0.038062 0
M  V30 364 C 38.5275 1.43474 1.31322 0
M  V30 365 O 37.7825 0.581311 1.86867 0
M  V30 366 C 38.0815 3.57258 0.100784 0
M  V30 367 C 37.7475 4.35184 -1.18007 0
M  V30 368 C 36.4095 4.56194 -1.53103 0
M  V30 369 C 38.7615 4.80098 -2.02867 0
M  V30 370 C 36.0895 5.19367 -2.729 0
M  V30 371 C 38.4415 5.44593 -3.21871 0
M  V30 372 C 37.1055 5.63835 -3.57276 0
M  V30 373 H 36.3755 0.740869 -0.0139279 0
M  V30 374 H 39.0225 1.76916 -0.733012 0
M  V30 375 H 37.3275 3.81819 0.878724 0
M  V30 376 H 39.0245 3.97606 0.520639 0
M  V30 377 H 35.6145 4.19113 -0.8968 0
M  V30 378 H 39.7985 4.63642 -1.7706 0
M  V30 379 H 35.0545 5.32459 -3.00496 0
M  V30 380 H 39.2285 5.78358 -3.87911 0
M  V30 381 H 36.8555 6.12557 -4.50197 0
M  V30 382 N 38.4306 0.297415 1.54768 0
M  V30 383 C 39.6556 -0.318435 2.04941 0
M  V30 384 C 40.0806 -1.4701 1.17345 0
M  V30 385 O 39.4386 -1.80436 0.176758 0
M  V30 386 C 39.4866 -0.755749 3.52592 0
M  V30 387 O 38.5906 -1.86088 3.68028 0
M  V30 388 H 37.9316 -0.062421 0.661059 0
M  V30 389 H 40.4616 0.438215 1.99852 0
M  V30 390 H 40.4716 -1.04552 3.94376 0
M  V30 391 H 39.1466 0.0867233 4.1581 0
M  V30 392 H 37.7236 -1.57193 3.38149 0
M  V30 393 N 39.9087 -1.5758 0.0250728 0
M  V30 394 C 41.1567 -1.91255 -0.653151 0
M  V30 395 C 41.4777 -0.901691 -1.729 0
M  V30 396 O 40.7477 0.0573785 -1.95816 0
M  V30 397 H 39.3277 -0.705942 -0.244243 0
M  V30 398 H 41.9897 -1.94767 0.0719209 0
M  V30 399 H 41.0857 -2.91752 -1.10847 0
M  V30 400 N 41.3868 0.248026 -1.55636 0
M  V30 401 C 42.3168 1.31079 -1.93237 0
M  V30 402 C 43.2978 1.50264 -0.797174 0
M  V30 403 O 44.4828 1.62891 -1.05737 0
M  V30 404 C 41.6128 2.66575 -2.22609 0
M  V30 405 C 40.5668 2.62087 -3.3837 0
M  V30 406 C 39.8928 4.01369 -3.53281 0
M  V30 407 C 41.1928 2.19171 -4.7409 0
M  V30 408 H 42.8868 0.998556 -2.82257 0
M  V30 409 H 40.4328 0.47891 -1.35803 0
M  V30 410 H 42.3858 3.41057 -2.47503 0
M  V30 411 H 41.1098 2.99432 -1.30414 0
M  V30 412 H 39.7688 1.90063 -3.13483 0
M  V30 413 H 39.4168 4.31489 -2.58508 0
M  V30 414 H 39.1168 3.99254 -4.31127 0
M  V30 415 H 40.6408 4.77552 -3.80495 0
M  V30 416 H 42.0548 2.83384 -4.98363 0
M  V30 417 H 40.4518 2.2817 -5.5503 0
M  V30 418 H 41.5218 1.14336 -4.71227 0
M  V30 419 N 42.8649 1.48995 0.513639 0
M  V30 420 C 44.0949 1.61297 1.291 0
M  V30 421 C 44.5029 0.278656 1.87137 0
M  V30 422 O 43.8459 -0.744325 1.67945 0
M  V30 423 C 43.9079 2.61326 2.46879 0
M  V30 424 C 43.5719 4.05993 2.09807 0
M  V30 425 C 44.5689 4.93183 1.64519 0
M  V30 426 C 42.2539 4.51642 2.19829 0
M  V30 427 C 44.2479 6.24056 1.2974 0
M  V30 428 C 41.9349 5.82532 1.84662 0
M  V30 429 C 42.9329 6.68562 1.3969 0
M  V30 430 O 42.6209 7.97014 1.04992 0
M  V30 431 H 42.3529 0.546236 0.39825 0
M  V30 432 H 44.9069 1.95673 0.62459 0
M  V30 433 H 43.1369 2.22104 3.16554 0
M  V30 434 H 44.8259 2.6329 3.08923 0
M  V30 435 H 45.5919 4.59147 1.56233 0
M  V30 436 H 41.4709 3.84855 2.53786 0
M  V30 437 H 45.0149 6.91161 0.945659 0
M  V30 438 H 40.9119 6.16099 1.92594 0
M  V30 439 H 41.6799 8.09913 1.18249 0
M  V30 440 N 44.343 -0.763751 1.37857 0
M  V30 441 C 45.306 -1.85889 1.34081 0
M  V30 442 C 46.306 -1.58949 0.243277 0
M  V30 443 O 47.496 -1.66882 0.499589 0
M  V30 444 C 44.628 -3.23176 1.08489 0
M  V30 445 H 45.821 -1.90648 2.31502 0
M  V30 446 H 43.374 -0.964367 1.23003 0
M  V30 447 H 44.109 -3.24091 0.116318 0
M  V30 448 H 43.894 -3.44124 1.8794 0
M  V30 449 H 45.384 -4.03254 1.08517 0
M  V30 450 N 45.8211 -1.22559 -0.990812 0
M  V30 451 C 46.7511 -1.0218 -2.09956 0
M  V30 452 C 47.7321 0.0579394 -1.70001 0
M  V30 453 O 48.9171 -0.104684 -1.93918 0
M  V30 454 C 46.0471 -0.601023 -3.4206 0
M  V30 455 C 45.0011 -1.62694 -3.95872 0
M  V30 456 C 44.3271 -1.06193 -5.24049 0
M  V30 457 C 45.6271 -3.01743 -4.2632 0
M  V30 458 H 47.3211 -1.94916 -2.27262 0
M  V30 459 H 44.8671 -0.938566 -1.09211 0
M  V30 460 H 46.8201 -0.445561 -4.19038 0
M  V30 461 H 45.5441 0.362005 -3.24588 0
M  V30 462 H 44.2031 -1.77021 -3.21028 0
M  V30 463 H 43.8511 -0.0901903 -5.02919 0
M  V30 464 H 43.5511 -1.74732 -5.61019 0
M  V30 465 H 45.0751 -0.918092 -6.03658 0
M  V30 466 H 46.4891 -2.90777 -4.94087 0
M  V30 467 H 44.8861 -3.67425 -4.74467 0
M  V30 468 H 45.9561 -3.51518 -3.34011 0
M  V30 469 N 47.2992 1.18797 -1.03562 0
M  V30 470 C 48.5292 1.92319 -0.754773 0
M  V30 471 C 48.9372 1.7612 0.691248 0
M  V30 472 O 48.2802 1.08491 1.48241 0
M  V30 473 C 48.3422 3.44284 -1.03484 0
M  V30 474 C 48.0062 3.84258 -2.47376 0
M  V30 475 C 49.0032 3.88459 -3.45537 0
M  V30 476 C 46.6882 4.15701 -2.81954 0
M  V30 477 C 48.6822 4.23545 -4.76328 0
M  V30 478 C 46.3692 4.50458 -4.12954 0
M  V30 479 C 47.3672 4.54356 -5.09951 0
M  V30 480 O 47.0552 4.88305 -6.38603 0
M  V30 481 H 46.7872 0.617527 -0.275021 0
M  V30 482 H 49.3412 1.51683 -1.38497 0
M  V30 483 H 47.5712 3.85135 -0.347513 0
M  V30 484 H 49.2602 3.99049 -0.7426 0
M  V30 485 H 50.0262 3.6431 -3.20162 0
M  V30 486 H 45.9052 4.11847 -2.0713 0
M  V30 487 H 49.4492 4.26502 -5.52035 0
M  V30 488 H 45.3462 4.74067 -4.38099 0
M  V30 489 H 46.1142 5.06227 -6.43177 0
M  V30 490 N 48.7773 0.814389 1.34928 0
M  V30 491 C 50.1933 0.499084 1.51596 0
M  V30 492 C 50.3933 -0.978319 1.76157 0
M  V30 493 O 49.4493 -1.76309 1.80752 0
M  V30 494 C 50.7623 1.35121 2.68631 0
M  V30 495 C 52.3103 1.34746 2.82511 0
M  V30 496 C 52.7853 2.18388 4.0258 0
M  V30 497 N 54.2763 2.15966 4.09772 0
M  V30 498 C 55.0113 2.77437 5.01813 0
M  V30 499 N 54.5073 3.47866 5.99134 0
M  V30 500 N 56.3003 2.67037 4.94619 0
M  V30 501 H 48.4513 1.7711 1.17243 0
M  V30 502 H 50.7143 0.754256 0.574284 0
M  V30 503 H 50.4203 2.40001 2.57085 0
M  V30 504 H 50.2943 1.00991 3.63429 0
M  V30 505 H 52.6813 0.30648 2.93504 0
M  V30 506 H 52.7623 1.72869 1.88547 0
M  V30 507 H 52.4063 3.2253 3.92347 0
M  V30 508 H 52.3363 1.77621 4.9574 0
M  V30 509 H 54.8273 1.64729 3.40107 0
M  V30 510 H 55.1403 3.92038 6.65977 0
M  V30 511 H 53.4853 3.51972 5.99284 0
M  V30 512 H 56.6763 2.11597 4.17546 0
M  V30 513 H 56.8493 3.15232 5.66156 0
M  V30 514 N 50.2554 -1.46986 0.568584 0
M  V30 515 C 51.1854 -2.32946 -0.160753 0
M  V30 516 C 52.1664 -1.44487 -0.897631 0
M  V30 517 O 53.3514 -1.73327 -0.875867 0
M  V30 518 C 50.4814 -3.26494 -1.18403 0
M  V30 519 C 49.4354 -4.24282 -0.562895 0
M  V30 520 C 48.7614 -5.07236 -1.69163 0
M  V30 521 C 50.0614 -5.19989 0.490761 0
M  V30 522 H 51.7554 -2.94175 0.556916 0
M  V30 523 H 49.3014 -1.4146 0.26927 0
M  V30 524 H 51.2544 -3.85477 -1.70251 0
M  V30 525 H 49.9784 -2.63343 -1.93179 0
M  V30 526 H 48.6374 -3.66541 -0.0656164 0
M  V30 527 H 48.2854 -4.4048 -2.42871 0
M  V30 528 H 47.9854 -5.7345 -1.28174 0
M  V30 529 H 49.5094 -5.6908 -2.21314 0
M  V30 530 H 50.9234 -5.73271 0.0579047 0
M  V30 531 H 49.3204 -5.94469 0.820165 0
M  V30 532 H 50.3904 -4.64777 1.3824 0
M  V30 533 N 51.7335 -0.305618 -1.54608 0
M  V30 534 C 53.1495 0.0476228 -1.59529 0
M  V30 535 C 53.3495 1.52025 -1.32252 0
M  V30 536 O 52.4055 2.27368 -1.09818 0
M  V30 537 C 53.7185 -0.354471 -2.98603 0
M  V30 538 C 55.2665 -0.303622 -3.11524 0
M  V30 539 C 55.7415 -0.680608 -4.52915 0
M  V30 540 N 57.2325 -0.63332 -4.5885 0
M  V30 541 C 57.9675 -0.897432 -5.66334 0
M  V30 542 N 57.4635 -1.22775 -6.81834 0
M  V30 543 N 59.2565 -0.824186 -5.56025 0
M  V30 544 H 51.4075 -1.2653 -1.70599 0
M  V30 545 H 53.6705 -0.513291 -0.797017 0
M  V30 546 H 53.3765 -1.3798 -3.23503 0
M  V30 547 H 53.2505 0.289568 -3.76087 0
M  V30 548 H 55.6375 0.712472 -2.8637 0
M  V30 549 H 55.7185 -0.982348 -2.36185 0
M  V30 550 H 55.3625 -1.69453 -4.78799 0
M  V30 551 H 55.2925 0.0202385 -5.26596 0
M  V30 552 H 57.7835 -0.389138 -3.75891 0
M  V30 553 H 58.0965 -1.41513 -7.59733 0
M  V30 554 H 56.4415 -1.26583 -6.83375 0
M  V30 555 H 59.6325 -0.565748 -4.64669 0
M  V30 556 H 59.8055 -1.03338 -6.39707 0
M  V30 557 N 53.2116 1.57565 -0.0334293 0
M  V30 558 C 54.1216 2.13943 0.962572 0
M  V30 559 C 55.1376 1.09276 1.35406 0
M  V30 560 O 56.3136 1.41355 1.4346 0
M  V30 561 C 53.3786 2.65887 2.22497 0
M  V30 562 C 52.4396 3.85286 1.8935 0
M  V30 563 C 51.6726 4.34743 3.09571 0
M  V30 564 O 51.8956 3.83352 4.22371 0
M  V30 565 O 50.8296 5.26538 2.91618 0
M  V30 566 H 54.6556 2.99333 0.513169 0
M  V30 567 H 52.2406 1.4822 0.18743 0
M  V30 568 H 54.1226 2.99346 2.96598 0
M  V30 569 H 52.7976 1.83578 2.6661 0
M  V30 570 H 51.7046 3.56746 1.1262 0
M  V30 571 H 53.0376 4.68771 1.5005 0
M  V30 572 N 54.6897 -0.239769 1.55765 0
M  V30 573 C 55.6197 -1.30052 1.9393 0
M  V30 574 C 56.6007 -1.49839 0.805132 0
M  V30 575 O 57.7857 -1.62328 1.06599 0
M  V30 576 C 54.9157 -2.65391 2.2402 0
M  V30 577 C 53.8697 -2.60289 3.39755 0
M  V30 578 C 53.1957 -3.99489 3.55405 0
M  V30 579 C 54.4957 -2.16654 4.75246 0
M  V30 580 H 56.1897 -0.983573 2.82783 0
M  V30 581 H 53.7357 -0.471701 1.36055 0
M  V30 582 H 55.6887 -3.3974 2.49308 0
M  V30 583 H 54.4127 -2.98736 1.32 0
M  V30 584 H 53.0717 -1.88398 3.14487 0
M  V30 585 H 52.7197 -4.30112 2.60793 0
M  V30 586 H 52.4197 -3.96962 4.33238 0
M  V30 587 H 53.9437 -4.75528 3.83022 0
M  V30 588 H 55.3577 -2.80737 4.99859 0
M  V30 589 H 53.7547 -2.25223 5.56232 0
M  V30 590 H 54.8247 -1.11835 4.71827 0
M  V30 591 N 56.1678 -1.49265 -0.50573 0
M  V30 592 C 57.4158 -1.582 -1.25766 0
M  V30 593 C 57.7368 -0.268482 -1.93143 0
M  V30 594 O 57.0068 0.711833 -1.8251 0
M  V30 595 H 55.5868 -0.582873 -0.467191 0
M  V30 596 H 58.2488 -1.85865 -0.586525 0
M  V30 597 H 57.3448 -2.37563 -2.02412 0
M  V30 598 N 57.6459 0.756429 -1.3826 0
M  V30 599 C 59.0619 1.0591 -1.19395 0
M  V30 600 C 59.2619 2.01459 -0.0406567 0
M  V30 601 O 58.3179 2.44909 0.614467 0
M  V30 602 C 59.6309 1.64191 -2.51916 0
M  V30 603 C 61.1789 1.76376 -2.58574 0
M  V30 604 C 61.6539 2.38069 -3.91264 0
M  V30 605 N 63.1449 2.45503 -3.92788 0
M  V30 606 C 63.8799 2.94126 -4.92217 0
M  V30 607 N 63.3759 3.42805 -6.02043 0
M  V30 608 N 65.1689 2.9314 -4.7961 0
M  V30 609 H 57.3199 0.122313 -2.12048 0
M  V30 610 H 59.5829 0.116892 -0.940766 0
M  V30 611 H 59.2889 1.01451 -3.3675 0
M  V30 612 H 59.1629 2.6329 -2.70108 0
M  V30 613 H 61.5499 2.38244 -1.74137 0
M  V30 614 H 61.6309 0.759894 -2.44252 0
M  V30 615 H 61.2749 1.76835 -4.76121 0
M  V30 616 H 61.2049 3.39091 -4.02895 0
M  V30 617 H 63.6959 2.1107 -3.13461 0
M  V30 618 H 64.0089 3.78354 -6.73846 0
M  V30 619 H 62.3539 3.4087 -6.05667 0
M  V30 620 H 65.5449 2.54419 -3.92923 0
M  V30 621 H 65.7179 3.30721 -5.5725 0
M  V30 622 N 59.124 1.23083 0.984299 0
M  V30 623 C 60.349 1.088 1.76571 0
M  V30 624 C 60.774 -0.356657 1.84688 0
M  V30 625 O 60.132 -1.25788 1.30565 0
M  V30 626 C 60.18 1.71371 3.17277 0
M  V30 627 O 59.284 0.973213 4.00752 0
M  V30 628 H 58.625 0.381599 0.543395 0
M  V30 629 H 61.155 1.63057 1.23587 0
M  V30 630 H 61.165 1.76449 3.67872 0
M  V30 631 H 59.84 2.76493 3.10684 0
M  V30 632 H 58.417 0.999078 3.59267 0
M  V30 633 N 60.6021 -1.18246 1.0419 0
M  V30 634 C 61.8481 -1.88536 0.747122 0
M  V30 635 C 62.1811 -1.80223 -0.723409 0
M  V30 636 O 61.4561 -1.20337 -1.52804 0
M  V30 637 C 61.7391 -3.38968 1.21544 0
M  V30 638 C 61.5921 -3.56084 2.74816 0
M  V30 639 C 62.9111 -4.32648 0.806482 0
M  V30 640 H 60.0301 -0.684619 0.272883 0
M  V30 641 H 62.6721 -1.39113 1.29413 0
M  V30 642 H 60.8221 -3.8119 0.750081 0
M  V30 643 H 62.4941 -3.22946 3.29399 0
M  V30 644 H 60.7371 -2.98699 3.14582 0
M  V30 645 H 61.4081 -4.61639 3.02644 0
M  V30 646 H 63.8841 -3.98211 1.20695 0
M  V30 647 H 62.7601 -5.36462 1.1619 0
M  V30 648 H 63.0211 -4.41146 -0.29029 0
M  V30 649 N 62.0802 -0.821533 -1.34494 0
M  V30 650 C 63.0302 -0.214793 -2.26986 0
M  V30 651 C 64.0142 0.620125 -1.4847 0
M  V30 652 O 65.2062 0.474933 -1.70509 0
M  V30 653 C 62.3352 0.623566 -3.37589 0
M  V30 654 C 61.4212 -0.221904 -4.23519 0
M  V30 655 N 61.8122 -1.29223 -4.89014 0
M  V30 656 C 60.1102 -0.00600922 -4.46 0
M  V30 657 C 60.8112 -1.80965 -5.52835 0
M  V30 658 N 59.7872 -1.11376 -5.32068 0
M  V30 659 H 63.5892 -1.03354 -2.75128 0
M  V30 660 H 61.1032 -0.6642 -1.48196 0
M  V30 661 H 63.1002 1.0744 -4.02818 0
M  V30 662 H 61.7602 1.44049 -2.90998 0
M  V30 663 H 62.7712 -1.67502 -4.90065 0
M  V30 664 H 59.4482 0.77886 -4.10171 0
M  V30 665 H 60.8382 -2.70502 -6.15043 0
M  V30 666 N 63.5583 1.46682 -0.576371 0
M  V30 667 C 64.8043 2.02712 -0.0596221 0
M  V30 668 C 65.1373 1.44765 1.29448 0
M  V30 669 O 64.4123 0.610355 1.84675 0
M  V30 670 C 64.6953 3.60098 0.0129503 0
M  V30 671 C 64.5483 4.28441 -1.3696 0
M  V30 672 C 65.8673 4.34224 0.71678 0
M  V30 673 H 62.9863 0.736637 -0.0231407 0
M  V30 674 H 65.6283 1.74898 -0.742351 0
M  V30 675 H 63.7783 3.83926 0.594378 0
M  V30 676 H 65.4503 4.15896 -1.9957 0
M  V30 677 H 63.6933 3.8805 -1.93907 0
M  V30 678 H 64.3643 5.3716 -1.27135 0
M  V30 679 H 66.8403 4.15503 0.222908 0
M  V30 680 H 65.7163 5.43936 0.73657 0
M  V30 681 H 65.9773 4.04823 1.77682 0
M  V30 682 N 65.0364 0.313813 1.54444 0
M  V30 683 C 66.2854 -0.292519 1.99568 0
M  V30 684 C 66.5984 -1.54011 1.20582 0
M  V30 685 O 67.8044 -2.22183 1.56035 0
M  V30 686 C 66.2604 -0.571752 3.55329 0
M  V30 687 C 65.8684 0.658229 4.43138 0
M  V30 688 C 67.6124 -1.13857 4.08946 0
M  V30 689 C 65.5194 0.351439 5.90355 0
M  V30 690 H 64.4494 -0.113079 0.745472 0
M  V30 691 H 67.1004 0.424518 1.78522 0
M  V30 692 H 65.4824 -1.34872 3.72325 0
M  V30 693 H 66.6564 1.43403 4.37918 0
M  V30 694 H 64.9714 1.14458 4.0036 0
M  V30 695 H 67.5684 -1.38257 5.16516 0
M  V30 696 H 67.9114 -2.08489 3.6033 0
M  V30 697 H 68.4444 -0.423015 3.95544 0
M  V30 698 H 65.1834 1.26667 6.43145 0
M  V30 699 H 64.7034 -0.386842 5.98551 0
M  V30 700 H 66.3824 -0.0423134 6.46986 0
M  V30 701 N 66.5145 -1.57545 0.0417849 0
M  V30 702 C 67.4245 -2.14451 -0.951213 0
M  V30 703 C 68.4405 -1.09992 -1.34825 0
M  V30 704 O 69.6165 -1.42114 -1.42708 0
M  V30 705 C 66.6815 -2.67063 -2.21084 0
M  V30 706 C 65.7425 -3.86284 -1.87304 0
M  V30 707 C 64.9755 -4.36378 -3.07261 0
M  V30 708 O 65.1985 -3.85587 -4.20332 0
M  V30 709 O 64.1325 -5.28077 -2.88822 0
M  V30 710 H 67.9585 -2.99601 -0.497287 0
M  V30 711 H 65.5435 -1.48317 -0.179567 0
M  V30 712 H 67.4255 -3.00914 -2.95006 0
M  V30 713 H 66.1005 -1.84989 -2.65633 0
M  V30 714 H 65.0075 -3.57338 -1.10727 0
M  V30 715 H 66.3405 -4.6956 -1.47562 0
M  V30 716 N 67.9926 0.231505 -1.5589 0
M  V30 717 C 69.2206 0.974505 -1.82513 0
M  V30 718 C 69.6356 1.78344 -0.619591 0
M  V30 719 O 68.9926 1.77792 0.411848 0
M  V30 720 C 69.0436 1.90007 -3.07538 0
M  V30 721 O 68.7646 1.12385 -4.2344 0
M  V30 722 C 70.2656 2.75779 -3.47075 0
M  V30 723 H 67.4856 0.286065 -0.606966 0
M  V30 724 H 70.0296 0.249739 -2.02969 0
M  V30 725 H 68.1846 2.57891 -2.89086 0
M  V30 726 H 68.5986 1.75125 -4.944 0
M  V30 727 H 70.0726 3.36443 -4.37619 0
M  V30 728 H 70.5496 3.47672 -2.68367 0
M  V30 729 H 71.1556 2.13323 -3.67931 0
M  V30 730 N 69.4707 1.49531 0.497807 0
M  V30 731 C 70.4337 1.65916 1.58128 0
M  V30 732 C 71.4337 0.530825 1.51786 0
M  V30 733 O 72.6237 0.797342 1.54881 0
M  V30 734 C 69.7557 1.65951 2.9778 0
M  V30 735 H 70.9487 2.62556 1.44929 0
M  V30 736 H 68.5017 1.38611 0.722275 0
M  V30 737 H 69.2367 0.709065 3.16453 0
M  V30 738 H 69.0217 2.47897 3.03792 0
M  V30 739 H 70.5117 1.80673 3.76493 0
M  V30 740 N 70.9488 -0.749086 1.3866 0
M  V30 741 C 72.1968 -1.50535 1.34847 0
M  V30 742 C 72.5178 -1.94909 -0.0595016 0
M  V30 743 O 71.7878 -1.67973 -1.00806 0
M  V30 744 H 70.3678 -0.558395 0.49619 0
M  V30 745 H 73.0298 -0.890165 1.73384 0
M  V30 746 H 72.1258 -2.39413 2.00219 0
M  V30 747 N 72.4269 -1.23603 -0.977757 0
M  V30 748 C 73.7039 -0.977897 -1.69401 0
M  V30 749 C 74.0839 0.502738 -2.05026 0
M  V30 750 O 73.4319 1.47459 -1.74551 0
M  V30 751 C 73.6419 -1.89077 -2.93345 0
M  V30 752 C 74.9899 -2.15579 -3.65802 0
M  V30 753 O 76.0139 -1.86648 -3.03383 0
M  V30 754 O 74.8729 -2.64658 -4.78141 0
M  V30 755 H 71.9669 -0.369025 -0.740101 0
M  V30 756 H 74.5129 -1.34657 -1.03274 0
M  V30 757 H 73.2849 -2.89158 -2.63634 0
M  V30 758 H 72.9079 -1.52463 -3.67207 0
M  V30 759 N 73.905 1.17692 -1.04816 0
M  V30 760 C 75.151 1.88137 -0.75711 0
M  V30 761 C 75.484 1.80604 0.713841 0
M  V30 762 O 74.759 1.21146 1.52164 0
M  V30 763 C 75.042 3.38318 -1.2334 0
M  V30 764 C 74.895 3.54622 -2.76701 0
M  V30 765 C 76.214 4.32214 -0.829415 0
M  V30 766 H 73.333 0.683163 -0.27651 0
M  V30 767 H 75.975 1.38424 -1.30149 0
M  V30 768 H 74.125 3.80787 -0.770286 0
M  V30 769 H 75.797 3.21194 -3.31107 0
M  V30 770 H 74.04 2.97026 -3.16161 0
M  V30 771 H 74.711 4.60028 -3.05088 0
M  V30 772 H 77.187 3.97565 -1.22805 0
M  V30 773 H 76.063 5.35838 -1.19033 0
M  V30 774 H 76.324 4.41294 0.266891 0
M  V30 775 N 75.3831 0.828654 1.34056 0
M  V30 776 C 76.6311 0.41863 1.97717 0
M  V30 777 C 76.9521 -1.02314 1.66002 0
M  V30 778 O 76.2221 -1.71119 0.953683 0
M  V30 779 H 74.8021 0.151809 0.731412 0
M  V30 780 H 77.4641 1.05936 1.63596 0
M  V30 781 H 76.5601 0.542318 3.07352 0
M  V30 782 N 76.8612 -1.46375 0.584142 0
M  V30 783 C 78.1092 -2.01978 0.0701287 0
M  V30 784 C 78.4302 -1.4579 -1.295 0
M  V30 785 O 77.7002 -0.64314 -1.85042 0
M  V30 786 H 76.2802 -0.746648 0.0229345 0
M  V30 787 H 78.9422 -1.79461 0.760245 0
M  V30 788 H 78.0382 -3.121 0.0022064 0
M  V30 789 N 78.3393 -0.321999 -1.54275 0
M  V30 790 C 79.5853 0.281461 -2.00837 0
M  V30 791 C 79.9183 1.51909 -1.20985 0
M  V30 792 O 79.1933 1.923 -0.291733 0
M  V30 793 C 79.4763 0.617162 -3.54772 0
M  V30 794 C 79.3293 -0.631064 -4.45351 0
M  V30 795 C 80.6483 1.43542 -4.16033 0
M  V30 796 H 77.7673 0.100826 -0.730071 0
M  V30 797 H 80.4093 -0.438268 -1.84876 0
M  V30 798 H 78.5593 1.23034 -3.68504 0
M  V30 799 H 80.2313 -1.26934 -4.43492 0
M  V30 800 H 78.4743 -1.26025 -4.15091 0
M  V30 801 H 79.1453 -0.351735 -5.50878 0
M  V30 802 H 81.6213 0.917134 -4.05867 0
M  V30 803 H 80.4973 1.63907 -5.23856 0
M  V30 804 H 80.7583 2.43108 -3.69257 0
M  V30 805 N 79.8174 1.5752 -0.0501392 0
M  V30 806 C 81.0634 1.93755 0.618901 0
M  V30 807 C 81.4184 0.928514 1.68512 0
M  V30 808 O 80.7114 -0.0524613 1.91528 0
M  V30 809 C 80.9054 3.34467 1.25963 0
M  V30 810 C 80.7344 4.48965 0.257 0
M  V30 811 C 79.5044 5.05075 -0.150656 0
M  V30 812 C 81.7024 5.11891 -0.497166 0
M  V30 813 N 79.6844 6.03104 -1.14626 0
M  V30 814 C 81.0554 6.05216 -1.34588 0
M  V30 815 C 83.1104 4.9479 -0.55559 0
M  V30 816 C 81.8134 6.83277 -2.24778 0
M  V30 817 C 83.8394 5.73477 -1.44492 0
M  V30 818 C 83.2014 6.66433 -2.28136 0
M  V30 819 H 79.3004 0.756479 0.198149 0
M  V30 820 H 81.8844 1.94316 -0.122229 0
M  V30 821 H 80.0554 3.34685 1.97079 0
M  V30 822 H 81.7874 3.57994 1.88739 0
M  V30 823 H 78.5424 4.7305 0.228094 0
M  V30 824 H 78.9664 6.56813 -1.64092 0
M  V30 825 H 83.6084 4.2273 0.0768625 0
M  V30 826 H 81.3264 7.54629 -2.89069 0
M  V30 827 H 84.9124 5.62273 -1.49468 0
M  V30 828 H 83.7924 7.26258 -2.95835 0
M  V30 829 N 81.2955 -0.223234 1.56011 0
M  V30 830 C 82.5255 -0.963413 1.82762 0
M  V30 831 C 82.9335 -1.78516 0.626804 0
M  V30 832 O 82.2765 -1.78974 -0.414014 0
M  V30 833 C 82.3385 -1.93126 3.0322 0
M  V30 834 C 82.0025 -1.2942 4.38291 0
M  V30 835 C 82.9995 -0.684916 5.15369 0
M  V30 836 C 80.6845 -1.30647 4.85012 0
M  V30 837 C 82.6785 -0.0963971 6.37327 0
M  V30 838 C 80.3655 -0.71411 6.06913 0
M  V30 839 C 81.3635 -0.110123 6.82911 0
M  V30 840 O 81.0515 0.47303 8.02507 0
M  V30 841 H 80.7835 -0.288011 0.611576 0
M  V30 842 H 83.3375 -0.244103 2.03944 0
M  V30 843 H 81.5675 -2.68952 2.77852 0
M  V30 844 H 83.2565 -2.53685 3.16857 0
M  V30 845 H 84.0225 -0.667774 4.80381 0
M  V30 846 H 79.9015 -1.76598 4.25833 0
M  V30 847 H 83.4455 0.375657 6.96588 0
M  V30 848 H 79.3425 -0.728659 6.41374 0
M  V30 849 H 80.1105 0.367186 8.17676 0
M  V30 850 N 82.7736 -1.49793 -0.48987 0
M  V30 851 C 84.0196 -1.61049 -1.24236 0
M  V30 852 C 84.3746 -0.298412 -1.90072 0
M  V30 853 O 83.6676 0.702262 -1.78266 0
M  V30 854 C 83.8616 -2.71488 -2.32441 0
M  V30 855 C 83.6906 -4.13308 -1.77218 0
M  V30 856 C 82.4606 -4.79955 -1.58023 0
M  V30 857 C 84.6586 -4.98176 -1.27772 0
M  V30 858 N 82.6406 -6.06052 -0.978465 0
M  V30 859 C 84.0116 -6.14843 -0.798 0
M  V30 860 C 86.0666 -4.84091 -1.16449 0
M  V30 861 C 84.7696 -7.18975 -0.216245 0
M  V30 862 C 86.7956 -5.88382 -0.596698 0
M  V30 863 C 86.1576 -7.04285 -0.127262 0
M  V30 864 H 82.2566 -0.643611 -0.444172 0
M  V30 865 H 84.8406 -1.86842 -0.54754 0
M  V30 866 H 83.0116 -2.47449 -2.99372 0
M  V30 867 H 84.7436 -2.72205 -2.99477 0
M  V30 868 H 81.4986 -4.36936 -1.82712 0
M  V30 869 H 81.9226 -6.73407 -0.696534 0
M  V30 870 H 86.5646 -3.94786 -1.5134 0
M  V30 871 H 84.2826 -8.0797 0.144903 0
M  V30 872 H 87.8686 -5.79545 -0.511716 0
M  V30 873 H 86.7486 -7.83606 0.30523 0
M  V30 874 N 84.2517 0.741722 -1.39055 0
M  V30 875 C 85.1997 1.87702 -1.3737 0
M  V30 876 C 86.1937 1.67427 -0.257812 0
M  V30 877 O 87.3997 1.7485 -0.427489 0
M  V30 878 H 83.7747 0.617757 -0.428812 0
M  V30 879 H 85.7457 1.86239 -2.33147 0
M  V30 880 C 84.4947 3.25315 -1.22741 0
M  V30 881 H 83.8177 3.41509 -2.07873 0
M  V30 882 H 85.2577 4.04964 -1.25618 0
M  V30 883 C 83.7167 3.36838 0.0647316 0
M  V30 884 O 84.2467 3.88073 1.03741 0
M  V30 885 N 82.4527 2.90329 0.125544 0
M  V30 886 H 81.9997 2.48823 -0.666682 0
M  V30 887 H 81.9577 2.98418 0.989639 0
M  V30 888 N 85.7298 1.2412 0.971189 0
M  V30 889 C 87.1458 1.00584 1.23916 0
M  V30 890 C 87.3458 -0.287481 1.99439 0
M  V30 891 O 86.4018 -1.00454 2.31658 0
M  V30 892 C 87.7148 2.21864 2.0297 0
M  V30 893 C 89.2628 2.26452 2.16076 0
M  V30 894 C 89.7378 3.47343 2.98524 0
M  V30 895 N 91.2288 3.47639 3.06107 0
M  V30 896 C 91.9638 4.37837 3.70251 0
M  V30 897 N 91.4598 5.38286 4.36142 0
M  V30 898 N 93.2528 4.25558 3.67228 0
M  V30 899 H 85.4038 2.07236 0.465499 0
M  V30 900 H 87.6668 0.909236 0.268315 0
M  V30 901 H 87.3728 3.15771 1.54861 0
M  V30 902 H 87.2468 2.23698 3.03709 0
M  V30 903 H 89.6338 1.33078 2.6339 0
M  V30 904 H 89.7148 2.28645 1.14696 0
M  V30 905 H 89.3588 4.41029 2.51905 0
M  V30 906 H 89.2888 3.42393 4.00093 0
M  V30 907 H 91.7798 2.74966 2.59233 0
M  V30 908 H 92.0928 6.03352 4.82894 0
M  V30 909 H 90.4378 5.42176 4.34822 0
M  V30 910 H 93.6288 3.46322 3.14927 0
M  V30 911 H 93.8018 4.96054 4.16935 0
M  V30 912 N 87.2079 -1.17134 1.05439 0
M  V30 913 C 88.4379 -1.91094 0.785274 0
M  V30 914 C 88.8459 -1.77198 -0.663142 0
M  V30 915 O 88.1889 -1.10835 -1.46497 0
M  V30 916 C 88.2509 -3.42594 1.08949 0
M  V30 917 C 87.9149 -3.80274 2.53458 0
M  V30 918 C 88.9119 -3.82912 3.51673 0
M  V30 919 C 86.5969 -4.11162 2.88532 0
M  V30 920 C 88.5909 -4.15913 4.83006 0
M  V30 921 C 86.2779 -4.43831 4.20068 0
M  V30 922 C 87.2759 -4.46185 5.17115 0
M  V30 923 O 86.9639 -4.78083 6.46291 0
M  V30 924 H 86.6959 -0.613073 0.284811 0
M  V30 925 H 89.2499 -1.49461 1.40893 0
M  V30 926 H 87.4799 -3.84534 0.408741 0
M  V30 927 H 89.1689 -3.97817 0.805991 0
M  V30 928 H 89.9349 -3.5917 3.25917 0
M  V30 929 H 85.8139 -4.085 2.13656 0
M  V30 930 H 89.3579 -4.17665 5.5875 0
M  V30 931 H 85.2549 -4.67037 4.45586 0
M  V30 932 H 86.0229 -4.9593 6.51149 0
M  V30 933 N 88.686 -0.835752 -1.33615 0
M  V30 934 C 90.097 -0.487099 -1.80234 0
M  V30 935 C 90.448 0.993627 -1.69179 0
M  V30 936 O 89.573 1.77403 -1.23924 0
M  V30 937 C 90.168 -0.877385 -3.27242 0
M  V30 938 C 88.727 -0.580915 -3.7189 0
M  V30 939 C 87.874 -1.0874 -2.5509 0
M  V30 940 H 90.825 -1.02474 -1.2118 0
M  V30 941 H 90.846 -0.186195 -3.80044 0
M  V30 942 H 90.358 -1.95512 -3.35256 0
M  V30 943 H 88.459 0.486881 -3.69405 0
M  V30 944 H 88.572 -1.13396 -4.65487 0
M  V30 945 H 86.936 -0.508392 -2.49575 0
M  V30 946 H 87.719 -2.17184 -2.65868 0
M  V30 947 N 90.1641 1.46063 -0.591896 0
M  V30 948 C 91.4121 2.01938 -0.0808391 0
M  V30 949 C 91.7331 1.46475 1.28725 0
M  V30 950 O 91.0031 0.652944 1.84698 0
M  V30 951 H 89.5831 0.746516 -0.0268938 0
M  V30 952 H 92.2451 1.79055 -0.769752 0
M  V30 953 H 91.3411 3.12094 -0.0187578 0
M  V30 954 N 91.6422 0.330177 1.54103 0
M  V30 955 C 92.6052 -0.520144 2.2322 0
M  V30 956 C 93.6052 -1.03828 1.22786 0
M  V30 957 O 94.7952 -0.929652 1.4732 0
M  V30 958 C 91.9272 -1.72317 2.94142 0
M  V30 959 H 93.1202 0.0841605 2.99782 0
M  V30 960 H 90.6732 0.0813433 1.56088 0
M  V30 961 H 91.4082 -2.36653 2.21734 0
M  V30 962 H 91.1932 -1.35898 3.67796 0
M  V30 963 H 92.6832 -2.3266 3.46784 0
M  V30 964 N 93.1203 -1.57491 0.0584922 0
M  V30 965 C 94.5363 -1.56792 -0.298091 0
M  V30 966 C 94.7363 -1.06679 -1.70944 0
M  V30 967 O 93.7923 -0.726672 -2.41818 0
M  V30 968 C 95.1053 -3.00461 -0.119879 0
M  V30 969 C 96.6533 -3.1242 -0.190428 0
M  V30 970 C 97.1283 -4.57982 -0.0406567 0
M  V30 971 N 98.6193 -4.63099 -0.0966958 0
M  V30 972 C 99.3543 -5.734 -0.00502943 0
M  V30 973 N 98.8503 -6.9266 0.139402 0
M  V30 974 N 100.643 -5.62067 -0.0611391 0
M  V30 975 H 92.7943 -1.88386 0.98105 0
M  V30 976 H 95.0573 -0.867865 0.381463 0
M  V30 977 H 94.7633 -3.41187 0.85349 0
M  V30 978 H 94.6373 -3.66843 -0.877833 0
M  V30 979 H 97.0243 -2.71589 -1.15427 0
M  V30 980 H 97.1053 -2.48702 0.598405 0
M  V30 981 H 96.7493 -4.995 0.919897 0
M  V30 982 H 96.6793 -5.19715 -0.848727 0
M  V30 983 H 99.1703 -3.77331 -0.207277 0
M  V30 984 H 99.4833 -7.72536 0.201855 0
M  V30 985 H 97.8283 -6.94781 0.174586 0
M  V30 986 H 101.019 -4.67782 -0.172583 0
M  V30 987 H 101.192 -6.47999 0.0137562 0
M  V30 988 N 94.5984 0.214957 -1.56127 0
M  V30 989 C 95.8384 0.945364 -1.81224 0
M  V30 990 C 96.2024 1.81265 -0.633005 0
M  V30 991 O 97.4034 2.57731 -0.763423 0
M  V30 992 C 95.6744 1.75665 -3.1125 0
M  V30 993 S 97.2334 2.54179 -3.57685 0
M  V30 994 H 94.0514 0.317443 -0.6362 0
M  V30 995 H 96.6534 0.210381 -1.94365 0
M  V30 996 H 95.3574 1.10977 -3.9511 0
M  V30 997 H 94.8884 2.53381 -3.00934 0
M  V30 998 H 96.9034 3.7792 -3.21545 0
M  V30 999 N 96.0765 1.50051 0.48192 0
M  V30 1000 C 97.3535 1.51009 1.2432 0
M  V30 1001 C 97.7335 0.248587 2.09631 0
M  V30 1002 O 97.0815 -0.768409 2.15192 0
M  V30 1003 C 97.2915 2.79981 2.08355 0
M  V30 1004 C 98.6395 3.3022 2.66908 0
M  V30 1005 O 99.6635 2.81228 2.18607 0
M  V30 1006 O 98.5225 4.15595 3.54884 0
M  V30 1007 H 95.6165 0.605239 0.563573 0
M  V30 1008 H 98.1625 1.62332 0.494627 0
M  V30 1009 H 96.9345 3.63275 1.45419 0
M  V30 1010 H 96.5575 2.7161 2.90368 0
M  V30 1011 N 97.5546 -0.734337 1.39446 0
M  V30 1012 C 98.8036 -1.48937 1.36017 0
M  V30 1013 C 99.1166 -1.95557 -0.0409005 0
M  V30 1014 O 100.323 -2.70779 -0.19778 0
M  V30 1015 C 98.7786 -2.69125 2.38955 0
M  V30 1016 C 98.3866 -2.29452 3.8478 0
M  V30 1017 C 100.131 -3.46944 2.44603 0
M  V30 1018 C 98.0376 -3.46366 4.79358 0
M  V30 1019 H 96.9676 -0.559296 0.505672 0
M  V30 1020 H 99.6186 -0.800983 1.65095 0
M  V30 1021 H 98.0006 -3.40041 2.02948 0
M  V30 1022 H 99.1746 -1.66077 4.29831 0
M  V30 1023 H 97.4896 -1.64723 3.82433 0
M  V30 1024 H 100.087 -4.33907 3.12456 0
M  V30 1025 H 100.43 -3.89454 1.47076 0
M  V30 1026 H 100.963 -2.83056 2.79507 0
M  V30 1027 H 97.7016 -3.08905 5.78151 0
M  V30 1028 H 97.2216 -4.08719 4.38986 0
M  V30 1029 H 98.9006 -4.12691 4.98292 0
M  V30 1030 N 99.0327 -1.24633 -0.964593 0
M  V30 1031 C 99.9427 -1.05859 -2.09359 0
M  V30 1032 C 100.959 0.00148855 -1.74 0
M  V30 1033 O 102.135 -0.197346 -2.00431 0
M  V30 1034 C 99.1997 -0.668879 -3.40187 0
M  V30 1035 C 98.2607 -1.80578 -3.89474 0
M  V30 1036 C 97.4937 -1.43457 -5.14058 0
M  V30 1037 O 97.7167 -0.325775 -5.69469 0
M  V30 1038 O 96.6507 -2.2613 -5.57807 0
M  V30 1039 H 100.477 -2.00516 -2.28094 0
M  V30 1040 H 98.0617 -1.03481 -1.0776 0
M  V30 1041 H 99.9437 -0.463211 -4.18846 0
M  V30 1042 H 98.6187 0.248536 -3.22744 0
M  V30 1043 H 97.5257 -2.06623 -3.11862 0
M  V30 1044 H 98.8587 -2.70208 -4.11398 0
M  V30 1045 N 100.511 1.16574 -1.06058 0
M  V30 1046 C 101.736 1.91493 -0.796562 0
M  V30 1047 C 102.161 1.76773 0.642868 0
M  V30 1048 O 101.519 1.09142 1.44768 0
M  V30 1049 C 101.567 3.40293 -1.19303 0
M  V30 1050 O 100.671 4.11074 -0.330394 0
M  V30 1051 H 100.012 0.596678 -0.291326 0
M  V30 1052 H 102.542 1.47708 -1.41575 0
M  V30 1053 H 102.552 3.91057 -1.16356 0
M  V30 1054 H 101.227 3.50326 -2.24153 0
M  V30 1055 H 99.8038 3.70513 -0.421225 0
M  V30 1056 N 101.989 0.842826 1.3317 0
M  V30 1057 C 103.238 0.436738 1.96915 0
M  V30 1058 C 103.551 -1.01025 1.67491 0
M  V30 1059 O 104.757 -1.5212 2.24881 0
M  V30 1060 C 103.213 0.730021 3.52418 0
M  V30 1061 C 102.821 2.19195 3.90714 0
M  V30 1062 C 104.565 0.391076 4.22695 0
M  V30 1063 C 102.472 2.42907 5.39212 0
M  V30 1064 H 101.402 0.15958 0.736919 0
M  V30 1065 H 104.053 1.03196 1.51733 0
M  V30 1066 H 102.435 0.0643755 3.95948 0
M  V30 1067 H 103.609 2.8984 3.58231 0
M  V30 1068 H 101.924 2.49425 3.33431 0
M  V30 1069 H 104.521 0.545817 5.31907 0
M  V30 1070 H 104.864 -0.666294 4.10933 0
M  V30 1071 H 105.397 1.01212 3.84709 0
M  V30 1072 H 102.136 3.47224 5.55982 0
M  V30 1073 H 101.656 1.76827 5.73142 0
M  V30 1074 H 103.335 2.2626 6.06148 0
M  V30 1075 N 103.467 -1.45747 0.599634 0
M  V30 1076 C 104.377 -2.34262 -0.125888 0
M  V30 1077 C 105.393 -1.50768 -0.868625 0
M  V30 1078 O 106.569 -1.83592 -0.828003 0
M  V30 1079 C 103.634 -3.28252 -1.11587 0
M  V30 1080 C 102.695 -4.27651 -0.375956 0
M  V30 1081 C 101.928 -5.1715 -1.31877 0
M  V30 1082 O 102.151 -5.09916 -2.55621 0
M  V30 1083 O 101.085 -5.96286 -0.820157 0
M  V30 1084 H 104.911 -2.97688 0.601315 0
M  V30 1085 H 102.496 -1.44999 0.359934 0
M  V30 1086 H 104.378 -3.86191 -1.68626 0
M  V30 1087 H 103.053 -2.67401 -1.82424 0
M  V30 1088 H 101.96 -3.7335 0.236698 0
M  V30 1089 H 103.293 -4.91334 0.29177 0
M  V30 1090 N 104.945 -0.338344 -1.53925 0
M  V30 1091 C 106.175 0.260919 -2.04946 0
M  V30 1092 C 106.583 1.45174 -1.2133 0
M  V30 1093 O 105.926 1.82122 -0.240262 0
M  V30 1094 C 105.988 0.744596 -3.51704 0
M  V30 1095 C 105.652 -0.325883 -4.55837 0
M  V30 1096 C 106.649 -1.16687 -5.06636 0
M  V30 1097 C 104.334 -0.478317 -5.00017 0
M  V30 1098 C 106.328 -2.14588 -6.00192 0
M  V30 1099 C 104.015 -1.46073 -5.93385 0
M  V30 1100 C 105.013 -2.29297 -6.4336 0
M  V30 1101 O 104.701 -3.25867 -7.34892 0
M  V30 1102 H 104.433 0.0551207 -0.673749 0
M  V30 1103 H 106.987 -0.486984 -1.99544 0
M  V30 1104 H 105.217 1.54366 -3.54553 0
M  V30 1105 H 106.906 1.26383 -3.85723 0
M  V30 1106 H 107.672 -1.06016 -4.73271 0
M  V30 1107 H 103.551 0.159613 -4.60724 0
M  V30 1108 H 107.095 -2.79585 -6.39123 0
M  V30 1109 H 102.992 -1.56802 -6.26166 0
M  V30 1110 H 103.76 -3.21278 -7.5281 0
M  V30 1111 N 106.423 1.57458 -0.0668435 0
M  V30 1112 C 107.663 1.95175 0.607116 0
M  V30 1113 C 108.027 0.946039 1.67075 0
M  V30 1114 O 109.228 1.2107 2.39991 0
M  V30 1115 C 107.499 3.37582 1.17358 0
M  V30 1116 S 109.058 3.97271 1.86336 0
M  V30 1117 H 105.876 0.682604 0.19893 0
M  V30 1118 H 108.478 1.95002 -0.139519 0
M  V30 1119 H 107.182 4.08566 0.387553 0
M  V30 1120 H 106.713 3.41288 1.95669 0
M  V30 1121 H 108.728 3.83772 3.14537 0
M  V30 1122 N 107.901 -0.206675 1.56239 0
M  V30 1123 C 109.131 -0.943975 1.83773 0
M  V30 1124 C 109.539 -1.77841 0.645703 0
M  V30 1125 O 108.882 -1.79403 -0.395008 0
M  V30 1126 C 108.944 -1.899 3.05251 0
M  V30 1127 C 108.608 -1.24764 4.39639 0
M  V30 1128 C 109.605 -0.630216 5.16066 0
M  V30 1129 C 107.29 -1.25496 4.8637 0
M  V30 1130 C 109.284 -0.0287946 6.37393 0
M  V30 1131 C 106.971 -0.649698 6.07637 0
M  V30 1132 C 107.969 -0.0376845 6.8299 0
M  V30 1133 O 107.657 0.55812 8.0196 0
M  V30 1134 H 107.389 -0.281508 0.614597 0
M  V30 1135 H 109.943 -0.222458 2.04192 0
M  V30 1136 H 108.173 -2.6599 2.80689 0
M  V30 1137 H 109.862 -2.5031 3.1953 0
M  V30 1138 H 110.628 -0.616785 4.81062 0
M  V30 1139 H 106.507 -1.72072 4.27683 0
M  V30 1140 H 110.051 0.449518 6.9615 0
M  V30 1141 H 105.948 -0.660592 6.42111 0
M  V30 1142 H 106.716 0.453891 8.17241 0
M  V30 1143 N 109.379 -1.50304 -0.473955 0
M  V30 1144 C 110.604 -1.65175 -1.25427 0
M  V30 1145 C 111.029 -0.333673 -1.85117 0
M  V30 1146 O 110.387 0.702114 -1.67153 0
M  V30 1147 C 110.435 -2.74295 -2.34082 0
M  V30 1148 O 109.539 -2.35349 -3.38651 0
M  V30 1149 H 108.88 -0.551944 -0.369126 0
M  V30 1150 H 111.41 -1.96662 -0.564364 0
M  V30 1151 H 111.42 -2.97285 -2.79438 0
M  V30 1152 H 110.095 -3.69959 -1.90008 0
M  V30 1153 H 108.672 -2.22794 -2.99027 0
M  V30 1154 N 110.857 0.726932 -1.39834 0
M  V30 1155 C 112.104 1.48664 -1.37496 0
M  V30 1156 C 112.432 1.94482 0.0264678 0
M  V30 1157 O 111.687 1.67692 1.00886 0
M  V30 1158 C 111.986 2.73495 -2.30077 0
M  V30 1159 C 111.652 2.46502 -3.77555 0
M  V30 1160 C 110.314 2.3885 -4.17737 0
M  V30 1161 C 112.666 2.23604 -4.70798 0
M  V30 1162 C 109.994 2.06352 -5.49214 0
M  V30 1163 C 112.346 1.92622 -6.02561 0
M  V30 1164 C 111.01 1.83444 -6.41798 0
M  V30 1165 H 110.28 0.544001 -0.503135 0
M  V30 1166 H 112.927 0.833657 -1.72402 0
M  V30 1167 H 111.232 3.43575 -1.88317 0
M  V30 1168 H 112.929 3.31549 -2.25558 0
M  V30 1169 H 109.519 2.5334 -3.45712 0
M  V30 1170 H 113.703 2.28479 -4.40581 0
M  V30 1171 H 108.959 1.97776 -5.78528 0
M  V30 1172 H 113.133 1.73914 -6.74334 0
M  V30 1173 H 110.76 1.58029 -7.43593 0
M  V30 1174 N 112.336 1.25143 0.95797 0
M  V30 1175 C 113.561 1.12521 1.74223 0
M  V30 1176 C 113.986 -0.317402 1.85403 0
M  V30 1177 O 113.344 -1.2299 1.33204 0
M  V30 1178 C 113.392 1.78062 3.1357 0
M  V30 1179 O 112.496 1.058 3.98598 0
M  V30 1180 H 111.837 0.39304 0.535178 0
M  V30 1181 H 114.367 1.65641 1.201 0
M  V30 1182 H 114.377 1.84213 3.64046 0
M  V30 1183 H 113.052 2.83021 3.04749 0
M  V30 1184 H 111.629 1.07506 3.57067 0
M  V30 1185 N 113.814 -1.1601 1.06675 0
M  V30 1186 C 114.724 -2.24156 0.692179 0
M  V30 1187 C 115.74 -1.71507 -0.293513 0
M  V30 1188 O 116.916 -2.009 -0.141861 0
M  V30 1189 C 113.981 -3.46587 0.0884131 0
M  V30 1190 C 113.042 -4.14257 1.12646 0
M  V30 1191 C 112.275 -5.30844 0.551416 0
M  V30 1192 O 112.498 -5.66858 -0.634656 0
M  V30 1193 O 111.432 -5.87848 1.29298 0
M  V30 1194 H 115.258 -2.58513 1.59388 0
M  V30 1195 H 112.843 -1.23599 0.83926 0
M  V30 1196 H 114.725 -4.20679 -0.246361 0
M  V30 1197 H 113.4 -3.13994 -0.786712 0
M  V30 1198 H 112.307 -3.42118 1.51348 0
M  V30 1199 H 113.64 -4.50914 1.97325 0
M  V30 1200 N 115.292 -0.849877 -1.32721 0
M  V30 1201 C 116.202 -0.293791 -2.32753 0
M  V30 1202 C 117.218 0.585906 -1.63839 0
M  V30 1203 O 118.394 0.487413 -1.95413 0
M  V30 1204 C 115.459 0.512752 -3.42887 0
M  V30 1205 C 114.52 -0.39252 -4.27502 0
M  V30 1206 C 113.753 0.375625 -5.32377 0
M  V30 1207 O 113.976 1.60613 -5.4732 0
M  V30 1208 O 112.91 -0.256094 -6.01355 0
M  V30 1209 H 116.736 -1.12242 -2.82197 0
M  V30 1210 H 114.321 -0.612685 -1.36259 0
M  V30 1211 H 116.203 0.970704 -4.10067 0
M  V30 1212 H 114.878 1.31826 -2.95641 0
M  V30 1213 H 113.785 -0.898547 -3.63149 0
M  V30 1214 H 115.118 -1.16309 -4.7826 0
M  V30 1215 N 116.77 1.45427 -0.607355 0
M  V30 1216 C 118.016 2.0254 -0.102607 0
M  V30 1217 C 118.349 1.47478 1.26348 0
M  V30 1218 O 117.624 0.64939 1.83339 0
M  V30 1219 C 117.907 3.60044 -0.0634347 0
M  V30 1220 C 117.76 4.2544 -1.46017 0
M  V30 1221 C 119.079 4.35646 0.624514 0
M  V30 1222 H 116.198 0.73598 -0.0387607 0
M  V30 1223 H 118.84 1.73284 -0.779282 0
M  V30 1224 H 116.99 3.85101 0.512808 0
M  V30 1225 H 118.662 4.11569 -2.08347 0
M  V30 1226 H 116.905 3.83849 -2.02094 0
M  V30 1227 H 117.576 5.34342 -1.385 0
M  V30 1228 H 120.052 4.15882 0.134723 0
M  V30 1229 H 118.928 5.45376 0.621028 0
M  V30 1230 H 119.189 4.08501 1.69055 0
M  V30 1231 N 118.248 0.346503 1.53744 0
M  V30 1232 C 119.178 -0.501193 2.28058 0
M  V30 1233 C 120.159 -1.10014 1.29734 0
M  V30 1234 O 121.344 -1.12097 1.58581 0
M  V30 1235 C 118.474 -1.65078 3.05559 0
M  V30 1236 C 117.428 -1.18003 4.11411 0
M  V30 1237 C 116.754 -2.41837 4.76884 0
M  V30 1238 C 118.054 -0.278394 5.21558 0
M  V30 1239 H 119.748 0.11875 2.99164 0
M  V30 1240 H 117.294 0.0585531 1.43881 0
M  V30 1241 H 119.247 -2.25028 3.56287 0
M  V30 1242 H 117.971 -2.29767 2.32109 0
M  V30 1243 H 116.63 -0.603331 3.61601 0
M  V30 1244 H 116.278 -3.0494 4.00026 0
M  V30 1245 H 115.978 -2.1102 5.48402 0
M  V30 1246 H 117.502 -3.02508 5.30397 0
M  V30 1247 H 118.916 -0.784823 5.67903 0
M  V30 1248 H 117.313 -0.0619707 6.00068 0
M  V30 1249 H 118.383 0.684677 4.80042 0
M  V30 1250 N 119.726 -1.57421 0.075193 0
M  V30 1251 C 120.658 -2.09904 -0.920483 0
M  V30 1252 C 121.671 -1.03191 -1.25918 0
M  V30 1253 O 122.86 -1.30695 -1.21577 0
M  V30 1254 C 119.96 -2.54726 -2.23534 0
M  V30 1255 C 119.133 -3.8505 -2.07498 0
M  V30 1256 C 118.192 -4.15929 -3.22319 0
M  V30 1257 O 117.218 -4.85474 -2.9716 0
M  V30 1258 N 118.42 -3.69745 -4.47514 0
M  V30 1259 H 121.185 -2.95954 -0.472359 0
M  V30 1260 H 118.746 -1.61523 -0.110444 0
M  V30 1261 H 120.738 -2.72443 -2.9926 0
M  V30 1262 H 119.308 -1.73795 -2.59835 0
M  V30 1263 H 118.528 -3.76679 -1.16219 0
M  V30 1264 H 119.816 -4.70348 -1.94038 0
M  V30 1265 H 119.214 -3.13569 -4.7084 0
M  V30 1266 H 117.771 -3.92655 -5.20255 0
M  V30 1267 N 121.204 0.198386 -1.56346 0
M  V30 1268 C 122.114 1.2664 -1.97483 0
M  V30 1269 C 123.13 1.49989 -0.882002 0
M  V30 1270 O 124.306 1.62668 -1.18748 0
M  V30 1271 C 121.371 2.59141 -2.30319 0
M  V30 1272 C 120.432 2.43892 -3.53292 0
M  V30 1273 C 119.665 3.70074 -3.84553 0
M  V30 1274 O 119.888 4.74101 -3.1715 0
M  V30 1275 O 118.822 3.658 -4.7799 0
M  V30 1276 H 122.648 0.947304 -2.88548 0
M  V30 1277 H 120.233 0.403123 -1.43859 0
M  V30 1278 H 122.115 3.37352 -2.5253 0
M  V30 1279 H 120.79 2.90684 -1.42423 0
M  V30 1280 H 119.697 1.63803 -3.36332 0
M  V30 1281 H 121.03 2.17282 -4.41644 0
M  V30 1282 N 122.682 1.50554 0.465978 0
M  V30 1283 C 123.928 1.63006 1.21658 0
M  V30 1284 C 124.283 0.328613 1.89573 0
M  V30 1285 O 123.576 -0.673813 1.79361 0
M  V30 1286 C 123.77 2.75152 2.28093 0
M  V30 1287 C 123.599 4.16075 1.7062 0
M  V30 1288 C 122.369 4.82408 1.50368 0
M  V30 1289 C 124.567 5.00145 1.1983 0
M  V30 1290 N 122.549 6.07532 0.881924 0
M  V30 1291 C 123.92 6.16035 0.700083 0
M  V30 1292 C 125.975 4.85882 1.08733 0
M  V30 1293 C 124.678 7.19228 0.101835 0
M  V30 1294 C 126.704 5.89257 0.503016 0
M  V30 1295 C 126.066 7.04398 0.0152005 0
M  V30 1296 H 122.165 0.650596 0.433877 0
M  V30 1297 H 124.749 1.8769 0.517746 0
M  V30 1298 H 122.92 2.52181 2.95397 0
M  V30 1299 H 124.652 2.76935 2.95109 0
M  V30 1300 H 121.407 4.39788 1.75737 0
M  V30 1301 H 121.831 6.7443 0.589312 0
M  V30 1302 H 126.473 3.97144 1.4504 0
M  V30 1303 H 124.191 8.07637 -0.273426 0
M  V30 1304 H 127.777 5.80286 0.419451 0
M  V30 1305 H 126.657 7.83021 -0.429856 0
M  V30 1306 N 124.16 -0.719506 1.40217 0
M  V30 1307 C 125.108 -1.85493 1.40339 0
M  V30 1308 C 126.102 -1.66995 0.284415 0
M  V30 1309 O 127.308 -1.74148 0.455252 0
M  V30 1310 H 123.683 -0.610857 0.438586 0
M  V30 1311 H 125.654 -1.82506 2.36081 0
M  V30 1312 C 124.403 -3.23321 1.27901 0
M  V30 1313 H 123.726 -3.38159 2.1328 0
M  V30 1314 H 125.166 -4.02914 1.32045 0
M  V30 1315 C 123.625 -3.36898 -0.0111355 0
M  V30 1316 O 124.155 -3.89674 -0.975538 0
M  V30 1317 N 122.361 -2.90492 -0.0793393 0
M  V30 1318 H 121.908 -2.47731 0.706183 0
M  V30 1319 H 121.866 -2.99955 -0.942038 0
M  V30 1320 N 125.638 -1.25649 -0.95132 0
M  V30 1321 C 126.884 -1.11766 -1.69941 0
M  V30 1322 C 127.239 0.33735 -1.89419 0
M  V30 1323 O 126.532 1.24491 -1.45645 0
M  V30 1324 C 126.726 -1.80909 -3.08231 0
M  V30 1325 C 126.555 -3.32984 -3.02245 0
M  V30 1326 C 125.325 -4.02247 -3.05819 0
M  V30 1327 C 127.523 -4.29332 -2.83157 0
M  V30 1328 N 125.505 -5.41072 -2.90024 0
M  V30 1329 C 126.876 -5.55265 -2.75828 0
M  V30 1330 C 128.931 -4.19707 -2.67863 0
M  V30 1331 C 127.634 -6.72671 -2.54767 0
M  V30 1332 C 129.66 -5.36809 -2.48173 0
M  V30 1333 C 129.022 -6.61683 -2.41567 0
M  V30 1334 H 125.121 -0.463708 -0.629682 0
M  V30 1335 H 127.705 -1.58796 -1.12659 0
M  V30 1336 H 125.876 -1.36369 -3.63673 0
M  V30 1337 H 127.608 -1.59739 -3.71841 0
M  V30 1338 H 124.363 -3.53531 -3.15139 0
M  V30 1339 H 124.787 -6.13938 -2.85323 0
M  V30 1340 H 129.429 -3.23907 -2.71743 0
M  V30 1341 H 127.147 -7.68577 -2.49629 0
M  V30 1342 H 130.733 -5.31224 -2.37259 0
M  V30 1343 H 129.613 -7.50768 -2.26531 0
M  V30 1344 N 127.117 1.15442 -1.07289 0
M  V30 1345 C 128.345 1.90096 -0.81676 0
M  V30 1346 C 128.76 1.7798 0.629966 0
M  V30 1347 O 128.117 1.1313 1.43206 0
M  V30 1348 C 128.168 3.40466 -1.21512 0
M  V30 1349 O 127.889 3.52232 -2.60508 0
M  V30 1350 C 129.39 4.32145 -0.988198 0
M  V30 1351 H 126.61 0.602495 -0.295366 0
M  V30 1352 H 129.154 1.4627 -1.42918 0
M  V30 1353 H 127.309 3.81958 -0.647039 0
M  V30 1354 H 127.723 4.45549 -2.76742 0
M  V30 1355 H 129.197 5.36072 -1.31645 0
M  V30 1356 H 129.674 4.39135 0.0755063 0
M  V30 1357 H 130.28 3.96395 -1.54115 0
M  V30 1358 N 128.595 0.856903 1.32268 0
M  V30 1359 C 129.505 0.306131 2.32594 0
M  V30 1360 C 130.521 -0.577209 1.64147 0
M  V30 1361 O 131.697 -0.477043 1.95669 0
M  V30 1362 C 128.762 -0.494561 3.43154 0
M  V30 1363 C 127.823 0.415186 4.27288 0
M  V30 1364 C 127.056 -0.347387 5.32568 0
M  V30 1365 O 127.279 -1.57708 5.48165 0
M  V30 1366 O 126.213 0.287982 6.01211 0
M  V30 1367 H 130.039 1.13737 2.81598 0
M  V30 1368 H 127.624 0.619902 1.35932 0
M  V30 1369 H 129.506 -0.948944 4.10576 0
M  V30 1370 H 128.181 -1.30257 2.96336 0
M  V30 1371 H 127.088 0.917793 3.62667 0
M  V30 1372 H 128.421 1.18844 4.77637 0
M  V30 1373 N 130.073 -1.45103 0.615059 0
M  V30 1374 C 131.489 -1.57137 0.279322 0
M  V30 1375 C 131.689 -1.60523 -1.21797 0
M  V30 1376 O 130.745 -1.53956 -2.00134 0
M  V30 1377 C 132.058 -2.85062 0.957083 0
M  V30 1378 C 133.606 -2.98749 0.933706 0
M  V30 1379 C 134.081 -4.29455 1.59162 0
M  V30 1380 N 135.572 -4.36231 1.55746 0
M  V30 1381 C 136.307 -5.36051 2.0356 0
M  V30 1382 N 135.803 -6.42367 2.59494 0
M  V30 1383 N 137.596 -5.27456 1.94284 0
M  V30 1384 H 129.747 -1.41148 1.58717 0
M  V30 1385 H 132.01 -0.675331 0.665306 0
M  V30 1386 H 131.716 -2.88488 2.01166 0
M  V30 1387 H 131.59 -3.7407 0.48494 0
M  V30 1388 H 133.977 -2.94886 -0.112347 0
M  V30 1389 H 134.058 -2.11132 1.44419 0
M  V30 1390 H 133.702 -4.34077 2.63704 0
M  V30 1391 H 133.632 -5.15901 1.0561 0
M  V30 1392 H 136.123 -3.60011 1.14893 0
M  V30 1393 H 136.436 -7.14793 2.93752 0
M  V30 1394 H 134.781 -6.43097 2.63537 0
M  V30 1395 H 137.972 -4.43308 1.5032 0
M  V30 1396 H 138.145 -6.05099 2.3186 0
M  V30 1397 N 131.551 -0.354651 -1.53558 0
M  V30 1398 C 132.781 0.239167 -2.05211 0
M  V30 1399 C 133.189 1.43879 -1.22863 0
M  V30 1400 O 132.532 1.81857 -0.259565 0
M  V30 1401 C 132.594 0.707251 -3.52474 0
M  V30 1402 C 132.258 -0.374212 -4.55465 0
M  V30 1403 C 133.255 -1.22054 -5.0537 0
M  V30 1404 C 130.94 -0.531323 -4.99482 0
M  V30 1405 C 132.934 -2.20942 -5.97882 0
M  V30 1406 C 130.621 -1.52358 -5.91802 0
M  V30 1407 C 131.619 -2.36108 -6.40892 0
M  V30 1408 O 131.307 -3.33643 -7.31394 0
M  V30 1409 H 131.039 0.0479716 -0.674296 0
M  V30 1410 H 133.593 -0.508121 -1.99016 0
M  V30 1411 H 131.823 1.50596 -3.56171 0
M  V30 1412 H 133.512 1.22285 -3.87042 0
M  V30 1413 H 134.278 -1.1103 -4.7212 0
M  V30 1414 H 130.157 0.110738 -4.60867 0
M  V30 1415 H 133.701 -2.86348 -6.36121 0
M  V30 1416 H 129.598 -1.63434 -6.24467 0
M  V30 1417 H 130.366 -3.29244 -7.4936 0
M  V30 1418 N 133.029 1.57378 -0.0835403 0
M  V30 1419 C 133.992 2.12252 0.864959 0
M  V30 1420 C 134.992 1.04916 1.21858 0
M  V30 1421 O 136.182 1.30853 1.14991 0
M  V30 1422 C 133.314 2.63358 2.16461 0
M  V30 1423 H 134.507 2.97371 0.388676 0
M  V30 1424 H 132.06 1.55423 0.165317 0
M  V30 1425 H 132.795 1.81727 2.686 0
M  V30 1426 H 132.58 3.41826 1.92087 0
M  V30 1427 H 134.07 3.05847 2.84337 0
M  V30 1428 N 134.507 -0.190092 1.56449 0
M  V30 1429 C 135.732 -0.929864 1.85387 0
M  V30 1430 C 136.157 -1.7585 0.667704 0
M  V30 1431 O 135.515 -1.77198 -0.383459 0
M  V30 1432 C 135.563 -1.79773 3.12593 0
M  V30 1433 O 134.667 -2.89713 2.93496 0
M  V30 1434 H 134.008 -0.261574 0.610307 0
M  V30 1435 H 136.538 -0.193896 2.03679 0
M  V30 1436 H 136.548 -2.20139 3.43515 0
M  V30 1437 H 135.223 -1.18892 3.98544 0
M  V30 1438 H 133.8 -2.53065 2.73884 0
M  V30 1439 N 135.985 -1.50799 -0.457987 0
M  V30 1440 C 136.917 -1.66786 -1.57211 0
M  V30 1441 C 137.93 -0.548962 -1.53265 0
M  V30 1442 O 139.119 -0.8226 -1.58416 0
M  V30 1443 C 136.219 -1.64834 -2.96113 0
M  V30 1444 C 135.392 -2.92971 -3.24787 0
M  V30 1445 C 134.451 -2.83485 -4.43309 0
M  V30 1446 O 133.477 -3.5744 -4.42973 0
M  V30 1447 N 134.679 -1.97929 -5.45714 0
M  V30 1448 H 137.444 -2.62889 -1.43909 0
M  V30 1449 H 135.005 -1.48427 -0.646617 0
M  V30 1450 H 136.997 -1.56084 -3.7339 0
M  V30 1451 H 135.567 -0.764118 -3.03117 0
M  V30 1452 H 134.787 -3.15749 -2.36 0
M  V30 1453 H 136.075 -3.77834 -3.40762 0
M  V30 1454 H 135.473 -1.37182 -5.48815 0
M  V30 1455 H 134.03 -1.95073 -6.21924 0
M  V30 1456 N 137.463 0.71206 -1.40597 0
M  V30 1457 C 138.874 1.29135 -1.34837 0
M  V30 1458 C 139.225 1.96186 -0.0235395 0
M  V30 1459 O 138.35 1.97768 0.878444 0
M  V30 1460 C 138.945 2.34827 -2.44217 0
M  V30 1461 C 137.504 2.88371 -2.41907 0
M  V30 1462 C 136.651 1.62202 -2.24913 0
M  V30 1463 H 139.602 0.507944 -1.50352 0
M  V30 1464 H 139.623 3.15749 -2.12327 0
M  V30 1465 H 139.135 1.85996 -3.40627 0
M  V30 1466 H 137.236 3.41422 -1.49204 0
M  V30 1467 H 137.349 3.39925 -3.37621 0
M  V30 1468 H 135.713 1.874 -1.72492 0
M  V30 1469 H 136.496 1.15391 -3.23326 0
M  V30 1470 N 138.941 1.26152 0.944643 0
M  V30 1471 C 139.851 1.09176 2.07648 0
M  V30 1472 C 140.867 0.0261935 1.7398 0
M  V30 1473 O 142.043 0.229208 2.00091 0
M  V30 1474 C 139.108 0.722915 3.39079 0
M  V30 1475 C 138.169 1.86752 3.86552 0
M  V30 1476 C 137.402 1.51617 5.11711 0
M  V30 1477 O 137.625 0.416331 5.68879 0
M  V30 1478 O 136.559 2.34975 5.54139 0
M  V30 1479 H 140.385 2.0412 2.24875 0
M  V30 1480 H 137.97 1.05182 1.061 0
M  V30 1481 H 139.852 0.529787 4.18056 0
M  V30 1482 H 138.527 -0.197159 3.23099 0
M  V30 1483 H 137.434 2.11558 3.08535 0
M  V30 1484 H 138.767 2.76719 4.07047 0
M  V30 1485 N 140.419 -1.14872 1.07899 0
M  V30 1486 C 141.668 -1.85135 0.800499 0
M  V30 1487 C 141.981 -1.83547 -0.676014 0
M  V30 1488 O 143.187 -2.49548 -1.06948 0
M  V30 1489 C 141.643 -3.3231 1.38197 0
M  V30 1490 C 141.251 -3.42329 2.8899 0
M  V30 1491 C 142.995 -4.0772 1.18174 0
M  V30 1492 C 140.902 -4.83684 3.403 0
M  V30 1493 H 139.832 -0.693563 0.29578 0
M  V30 1494 H 142.483 -1.29532 1.29976 0
M  V30 1495 H 140.865 -3.87618 0.810431 0
M  V30 1496 H 142.039 -2.97097 3.52236 0
M  V30 1497 H 140.354 -2.80369 3.07867 0
M  V30 1498 H 142.951 -5.12049 1.5398 0
M  V30 1499 H 143.294 -4.16124 0.12117 0
M  V30 1500 H 143.827 -3.58696 1.71994 0
M  V30 1501 H 140.566 -4.80465 4.45907 0
M  V30 1502 H 140.086 -5.29474 2.81811 0
M  V30 1503 H 141.765 -5.52558 3.36584 0
M  V30 1504 N 141.898 -0.863906 -1.31812 0
M  V30 1505 C 142.828 -0.330843 -2.31144 0
M  V30 1506 C 143.809 0.575005 -1.60087 0
M  V30 1507 O 144.994 0.493304 -1.8783 0
M  V30 1508 C 142.124 0.47374 -3.44054 0
M  V30 1509 C 141.078 -0.338481 -4.26659 0
M  V30 1510 C 140.404 0.591412 -5.31419 0
M  V30 1511 C 141.704 -1.56926 -4.98168 0
M  V30 1512 H 143.398 -1.16086 -2.75979 0
M  V30 1513 H 140.944 -0.559657 -1.32679 0
M  V30 1514 H 142.897 0.857143 -4.12591 0
M  V30 1515 H 141.621 1.33721 -2.9797 0
M  V30 1516 H 140.28 -0.703754 -3.59782 0
M  V30 1517 H 139.928 1.45199 -4.81587 0
M  V30 1518 H 139.628 0.0519022 -5.87577 0
M  V30 1519 H 141.152 0.97179 -6.02817 0
M  V30 1520 H 142.566 -1.25764 -5.59336 0
M  V30 1521 H 140.963 -2.04739 -5.64094 0
M  V30 1522 H 142.033 -2.32544 -4.25501 0
M  V30 1523 N 143.376 1.44774 -0.622745 0
M  V30 1524 C 144.792 1.56986 -0.287652 0
M  V30 1525 C 144.992 1.61167 1.20944 0
M  V30 1526 O 144.048 1.55015 1.99315 0
M  V30 1527 C 145.361 2.84551 -0.972188 0
M  V30 1528 C 146.909 2.9825 -0.949536 0
M  V30 1529 C 147.384 4.28605 -1.61437 0
M  V30 1530 N 148.875 4.35399 -1.58057 0
M  V30 1531 C 149.61 5.34964 -2.064 0
M  V30 1532 N 149.106 6.40981 -2.62897 0
M  V30 1533 N 150.899 5.26419 -1.97078 0
M  V30 1534 H 143.05 1.40304 -1.59463 0
M  V30 1535 H 145.313 0.671794 -0.668878 0
M  V30 1536 H 145.019 2.87417 -2.02693 0
M  V30 1537 H 144.893 3.73807 -0.504771 0
M  V30 1538 H 147.28 2.94941 0.0967067 0
M  V30 1539 H 147.361 2.10364 -1.45536 0
M  V30 1540 H 147.005 4.32672 -2.66002 0
M  V30 1541 H 146.935 5.15334 -1.08344 0
M  V30 1542 H 149.426 3.59397 -1.16801 0
M  V30 1543 H 149.739 7.13225 -2.97539 0
M  V30 1544 H 148.084 6.4169 -2.66943 0
M  V30 1545 H 151.275 4.42504 -1.52669 0
M  V30 1546 H 151.448 6.03861 -2.35066 0
M  V30 1547 N 144.854 0.36279 1.53368 0
M  V30 1548 C 146.084 -0.228281 2.05335 0
M  V30 1549 C 146.492 -1.43226 1.23625 0
M  V30 1550 O 145.835 -1.81717 0.269206 0
M  V30 1551 C 145.897 -0.688549 3.52845 0
M  V30 1552 C 145.561 0.398362 4.5526 0
M  V30 1553 C 146.558 1.24732 5.04716 0
M  V30 1554 C 144.243 0.557805 4.99193 0
M  V30 1555 C 146.237 2.2411 5.96702 0
M  V30 1556 C 143.924 1.55495 5.90986 0
M  V30 1557 C 144.922 2.39503 6.39631 0
M  V30 1558 O 144.61 3.37517 7.29615 0
M  V30 1559 H 144.342 -0.044395 0.674541 0
M  V30 1560 H 146.896 0.518668 1.98744 0
M  V30 1561 H 145.126 -1.48706 3.56964 0
M  V30 1562 H 146.815 -1.20231 3.87685 0
M  V30 1563 H 147.581 1.13532 4.71525 0
M  V30 1564 H 143.46 -0.0862959 4.60919 0
M  V30 1565 H 147.004 2.89718 6.34594 0
M  V30 1566 H 142.901 1.66744 6.23592 0
M  V30 1567 H 143.669 3.33213 7.47604 0
M  V30 1568 N 146.332 -1.57332 0.0918853 0
M  V30 1569 C 147.581 -1.93412 -0.572249 0
M  V30 1570 C 147.894 -0.975515 -1.69538 0
M  V30 1571 O 149.1 -1.22991 -2.42045 0
M  V30 1572 C 147.556 -3.43648 -1.0693 0
M  V30 1573 C 147.164 -4.47994 0.0239049 0
M  V30 1574 C 148.908 -3.88695 -1.70635 0
M  V30 1575 C 146.815 -5.89381 -0.488319 0
M  V30 1576 H 145.745 -0.721939 -0.217532 0
M  V30 1577 H 148.396 -1.82735 0.167369 0
M  V30 1578 H 146.778 -3.49466 -1.8625 0
M  V30 1579 H 147.952 -4.53815 0.799277 0
M  V30 1580 H 146.267 -4.12536 0.565946 0
M  V30 1581 H 148.864 -4.91725 -2.10025 0
M  V30 1582 H 149.207 -3.27166 -2.57426 0
M  V30 1583 H 149.74 -3.85564 -0.979023 0
M  V30 1584 H 146.479 -6.54602 0.342906 0
M  V30 1585 H 145.999 -5.87037 -1.23077 0
M  V30 1586 H 147.678 -6.39863 -0.958317 0
M  V30 1587 N 147.81 0.181792 -1.56548 0
M  V30 1588 C 148.758 1.24461 -1.965 0
M  V30 1589 C 149.752 1.464 -0.852261 0
M  V30 1590 O 150.958 1.47103 -1.03733 0
M  V30 1591 H 147.333 0.418138 -0.625031 0
M  V30 1592 H 149.304 0.880714 -2.85107 0
M  V30 1593 C 148.053 2.57891 -2.33212 0
M  V30 1594 H 147.376 2.41829 -3.18369 0
M  V30 1595 H 148.816 3.3097 -2.65019 0
M  V30 1596 C 147.275 3.15871 -1.17163 0
M  V30 1597 O 147.805 3.9913 -0.453708 0
M  V30 1598 N 146.011 2.74808 -0.944936 0
M  V30 1599 H 145.558 2.07205 -1.53049 0
M  V30 1600 H 145.516 3.13939 -0.170286 0
M  V30 1601 N 149.288 1.51039 0.449983 0
M  V30 1602 C 150.535 1.63081 1.20045 0
M  V30 1603 C 150.863 0.341024 1.91487 0
M  V30 1604 O 150.118 -0.674276 1.83717 0
M  V30 1605 C 150.417 2.77556 2.25161 0
M  V30 1606 C 150.083 4.17289 1.70823 0
M  V30 1607 C 148.745 4.55305 1.55725 0
M  V30 1608 C 151.097 5.04536 1.3074 0
M  V30 1609 C 148.425 5.78287 0.989999 0
M  V30 1610 C 150.777 6.28085 0.754482 0
M  V30 1611 C 149.441 6.64885 0.590308 0
M  V30 1612 H 148.711 0.596755 0.439277 0
M  V30 1613 H 151.358 1.85037 0.49333 0
M  V30 1614 H 149.663 2.49771 3.01863 0
M  V30 1615 H 151.36 2.84073 2.83026 0
M  V30 1616 H 147.95 3.8731 1.83546 0
M  V30 1617 H 152.134 4.75782 1.41229 0
M  V30 1618 H 147.39 6.05456 0.850451 0
M  V30 1619 H 151.564 6.95038 0.435324 0
M  V30 1620 H 149.191 7.60055 0.14862 0
M  V30 1621 N 150.766 -0.704594 1.40972 0
M  V30 1622 C 152.012 -1.46675 1.40051 0
M  V30 1623 C 152.345 -1.94199 0.00641102 0
M  V30 1624 O 151.62 -1.68916 -0.964235 0
M  V30 1625 C 151.903 -2.68505 2.39952 0
M  V30 1626 C 151.756 -2.26805 3.88432 0
M  V30 1627 C 153.075 -3.70686 2.37233 0
M  V30 1628 H 150.194 -0.532015 0.510028 0
M  V30 1629 H 152.836 -0.803255 1.72185 0
M  V30 1630 H 150.986 -3.25114 2.1268 0
M  V30 1631 H 152.658 -1.75592 4.26574 0
M  V30 1632 H 150.901 -1.58685 4.03734 0
M  V30 1633 H 151.572 -3.14181 4.53866 0
M  V30 1634 H 154.048 -3.23731 2.61415 0
M  V30 1635 H 152.924 -4.53553 3.09162 0
M  V30 1636 H 153.185 -4.19754 1.38777 0
M  V30 1637 N 152.244 -1.26651 -0.937939 0
M  V30 1638 C 153.207 -1.08546 -2.01867 0
M  V30 1639 C 154.207 -0.0327327 -1.60767 0
M  V30 1640 O 155.397 -0.276427 -1.71993 0
M  V30 1641 C 152.529 -0.651711 -3.34613 0
M  V30 1642 H 153.722 -2.04502 -2.1936 0
M  V30 1643 H 151.275 -1.09294 -1.11734 0
M  V30 1644 H 152.01 0.309696 -3.22818 0
M  V30 1645 H 151.795 -1.41189 -3.65798 0
M  V30 1646 H 153.285 -0.546973 -4.14002 0
M  V30 1647 N 153.722 1.14298 -1.08507 0
M  V30 1648 C 154.999 1.81544 -0.728088 0
M  V30 1649 C 155.379 1.95838 0.78808 0
M  V30 1650 O 154.727 1.51904 1.70697 0
M  V30 1651 C 154.937 3.17169 -1.45619 0
M  V30 1652 C 156.285 3.9265 -1.61591 0
M  V30 1653 O 157.309 3.26762 -1.41793 0
M  V30 1654 O 156.168 5.10807 -1.94263 0
M  V30 1655 H 153.262 0.78491 -0.260471 0
M  V30 1656 H 155.808 1.21307 -1.18671 0
M  V30 1657 H 154.58 3.01934 -2.489 0
M  V30 1658 H 154.203 3.851 -0.989124 0
M  V30 1659 N 155.201 0.870884 1.31352 0
M  V30 1660 C 156.148 0.325425 2.28494 0
M  V30 1661 C 157.118 -0.576615 1.5577 0
M  V30 1662 O 158.303 -0.508059 1.83911 0
M  V30 1663 C 155.443 -0.466283 3.41935 0
M  V30 1664 C 154.556 0.463378 4.29508 0
M  V30 1665 C 153.691 -0.342544 5.30094 0
M  V30 1666 C 152.73 0.583486 6.09313 0
M  V30 1667 N 151.867 -0.186244 7.01853 0
M  V30 1668 H 156.707 1.15901 2.74538 0
M  V30 1669 H 154.244 0.58294 1.35056 0
M  V30 1670 H 156.202 -0.941085 4.06447 0
M  V30 1671 H 154.832 -1.26456 2.97 0
M  V30 1672 H 153.884 1.05663 3.65431 0
M  V30 1673 H 155.196 1.1734 4.84802 0
M  V30 1674 H 154.35 -0.879816 6.00287 0
M  V30 1675 H 153.089 -1.08585 4.75458 0
M  V30 1676 H 152.094 1.13251 5.3801 0
M  V30 1677 H 153.319 1.32566 6.66035 0
M  V30 1678 H 151.265 -0.912348 6.49625 0
M  V30 1679 H 151.182 0.464422 7.54572 0
M  V30 1680 H 152.45 -0.704716 7.76308 0
M  V30 1681 N 156.679 -1.44442 0.630414 0
M  V30 1682 C 157.926 -2.02052 0.134617 0
M  V30 1683 C 158.254 -1.49576 -1.24327 0
M  V30 1684 O 157.509 -0.669806 -1.83881 0
M  V30 1685 C 157.808 -3.57332 0.0697835 0
M  V30 1686 C 157.474 -4.29058 1.38635 0
M  V30 1687 C 156.136 -4.4837 1.74694 0
M  V30 1688 C 158.488 -4.69872 2.25543 0
M  V30 1689 C 155.816 -5.05756 2.97369 0
M  V30 1690 C 158.168 -5.28616 3.47487 0
M  V30 1691 C 156.832 -5.46147 3.8377 0
M  V30 1692 H 156.102 -0.739361 0.0492598 0
M  V30 1693 H 158.749 -1.73217 0.816586 0
M  V30 1694 H 157.054 -3.85577 -0.695553 0
M  V30 1695 H 158.751 -3.99637 -0.330344 0
M  V30 1696 H 155.341 -4.14357 1.09574 0
M  V30 1697 H 159.525 -4.54666 1.98979 0
M  V30 1698 H 154.781 -5.17515 3.25558 0
M  V30 1699 H 158.955 -5.59192 4.15063 0
M  V30 1700 H 156.582 -5.9038 4.7891 0
M  V30 1701 N 158.157 -0.370918 -1.53173 0
M  V30 1702 C 159.434 0.273754 -1.93675 0
M  V30 1703 C 159.814 1.65938 -1.3049 0
M  V30 1704 O 159.162 2.23698 -0.465999 0
M  V30 1705 C 159.372 0.318602 -3.47543 0
M  V30 1706 C 160.72 0.556392 -4.20939 0
M  V30 1707 O 161.744 0.399587 -3.53952 0
M  V30 1708 O 160.603 0.862133 -5.39657 0
M  V30 1709 H 157.697 0.165448 -0.810281 0
M  V30 1710 H 160.243 -0.42409 -1.64315 0
M  V30 1711 H 159.015 -0.652687 -3.85818 0
M  V30 1712 H 158.638 1.06212 -3.83151 0
M  V30 1713 N 159.635 1.57281 -0.100228 0
M  V30 1714 C 160.565 2.17328 0.853857 0
M  V30 1715 C 161.546 1.10804 1.2906 0
M  V30 1716 O 162.731 1.38963 1.35657 0
M  V30 1717 C 159.861 2.75772 2.11109 0
M  V30 1718 C 158.815 3.87713 1.81279 0
M  V30 1719 C 158.141 4.32882 3.13874 0
M  V30 1720 C 159.441 5.10677 1.09574 0
M  V30 1721 H 161.135 2.97305 0.353545 0
M  V30 1722 H 158.681 1.43009 0.168612 0
M  V30 1723 H 160.634 3.16433 2.78296 0
M  V30 1724 H 159.358 1.93057 2.63432 0
M  V30 1725 H 158.017 3.476 1.16489 0
M  V30 1726 H 157.665 3.47051 3.64095 0
M  V30 1727 H 157.365 5.08358 2.94696 0
M  V30 1728 H 158.889 4.7618 3.82211 0
M  V30 1729 H 160.303 5.48474 1.66879 0
M  V30 1730 H 158.7 5.91615 1.00557 0
M  V30 1731 H 159.77 4.84835 0.0793299 0
M  V30 1732 N 161.113 -0.173488 1.56642 0
M  V30 1733 C 162.529 -0.525174 1.50712 0
M  V30 1734 C 162.729 -1.8476 0.804107 0
M  V30 1735 O 161.785 -2.49869 0.363574 0
M  V30 1736 C 163.098 -0.559937 2.95441 0
M  V30 1737 C 164.646 -0.647288 3.06234 0
M  V30 1738 C 165.121 -0.712963 4.52417 0
M  V30 1739 N 166.612 -0.775911 4.56655 0
M  V30 1740 C 167.347 -0.847264 5.67106 0
M  V30 1741 N 166.843 -0.879585 6.87194 0
M  V30 1742 N 168.636 -0.886117 5.55071 0
M  V30 1743 H 160.787 0.693681 2.00753 0
M  V30 1744 H 163.05 0.249841 0.914485 0
M  V30 1745 H 162.756 0.343049 3.50023 0
M  V30 1746 H 162.63 -1.40718 3.49969 0
M  V30 1747 H 165.017 -1.5407 2.51687 0
M  V30 1748 H 165.098 0.226586 2.54794 0
M  V30 1749 H 164.742 0.176183 5.07594 0
M  V30 1750 H 164.672 -1.60295 5.0161 0
M  V30 1751 H 167.163 -0.759304 3.70193 0
M  V30 1752 H 167.476 -0.935144 7.67121 0
M  V30 1753 H 165.821 -0.847898 6.89808 0
M  V30 1754 H 169.012 -0.857853 4.60172 0
M  V30 1755 H 169.185 -0.938263 6.41171 0
M  V30 1756 N 162.591 -1.51276 -0.441967 0
M  V30 1757 C 163.816 -1.67799 -1.21895 0
M  V30 1758 C 164.241 -0.372864 -1.84367 0
M  V30 1759 O 163.599 0.666501 -1.68604 0
M  V30 1760 C 163.647 -2.79199 -2.28211 0
M  V30 1761 O 162.751 -2.42479 -3.33583 0
M  V30 1762 H 162.092 -0.559649 -0.357336 0
M  V30 1763 H 164.622 -1.97815 -0.522522 0
M  V30 1764 H 164.632 -3.03146 -2.73069 0
M  V30 1765 H 163.307 -3.73906 -1.82118 0
M  V30 1766 H 161.884 -2.29087 -2.94234 0
M  V30 1767 N 164.069 0.697108 -1.41344 0
M  V30 1768 C 165.317 1.45426 -1.40341 0
M  V30 1769 C 165.638 1.94996 -0.0128787 0
M  V30 1770 O 164.908 1.71599 0.945027 0
M  V30 1771 H 163.488 0.539594 -0.516573 0
M  V30 1772 H 166.15 0.825201 -1.76569 0
M  V30 1773 H 165.246 2.31817 -2.08967 0
M  V30 1774 N 165.547 1.27147 0.931209 0
M  V30 1775 C 166.796 1.12664 1.67302 0
M  V30 1776 C 167.109 -0.327718 1.92835 0
M  V30 1777 O 168.315 -0.593392 2.64936 0
M  V30 1778 C 166.771 1.9683 3.01307 0
M  V30 1779 C 166.379 3.46901 2.83485 0
M  V30 1780 C 168.123 1.90985 3.79111 0
M  V30 1781 C 166.03 4.23279 4.13024 0
M  V30 1782 H 164.96 0.41803 0.627509 0
M  V30 1783 H 167.611 1.51539 1.03481 0
M  V30 1784 H 165.993 1.50797 3.66164 0
M  V30 1785 H 167.167 4.00773 2.27415 0
M  V30 1786 H 165.482 3.54088 2.19113 0
M  V30 1787 H 168.079 2.45328 4.75098 0
M  V30 1788 H 168.422 0.882718 4.06834 0
M  V30 1789 H 168.955 2.34895 3.21044 0
M  V30 1790 H 165.694 5.26503 3.90481 0
M  V30 1791 H 165.214 3.74186 4.6877 0
M  V30 1792 H 166.893 4.32265 4.81411 0
M  V30 1793 N 167.025 -1.13721 1.09112 0
M  V30 1794 C 168.253 -1.88773 0.846899 0
M  V30 1795 C 168.668 -1.7896 -0.601572 0
M  V30 1796 O 168.025 -1.15394 -1.41388 0
M  V30 1797 C 168.076 -3.3849 1.26913 0
M  V30 1798 O 167.797 -3.48043 2.66079 0
M  V30 1799 C 169.298 -4.30518 1.05682 0
M  V30 1800 H 166.518 -0.59772 0.304914 0
M  V30 1801 H 169.062 -1.43977 1.45227 0
M  V30 1802 H 167.217 -3.80881 0.707723 0
M  V30 1803 H 167.631 -4.4109 2.83795 0
M  V30 1804 H 169.105 -5.3391 1.40156 0
M  V30 1805 H 169.582 -4.392 -0.00563416 0
M  V30 1806 H 170.188 -3.93893 1.60402 0
M  V30 1807 N 168.503 -0.877838 -1.30888 0
M  V30 1808 C 169.75 -0.492696 -1.96415 0
M  V30 1809 C 170.078 0.956671 -1.69346 0
M  V30 1810 O 169.333 1.68993 -0.986913 0
M  V30 1811 C 169.632 -0.705748 -3.50363 0
M  V30 1812 C 169.298 -2.1291 -3.97467 0
M  V30 1813 C 167.96 -2.51834 -4.1004 0
M  V30 1814 C 170.312 -3.05702 -4.22132 0
M  V30 1815 C 167.64 -3.82775 -4.44635 0
M  V30 1816 C 169.992 -4.36166 -4.58194 0
M  V30 1817 C 168.656 -4.74993 -4.68975 0
M  V30 1818 H 167.926 -0.18029 -0.718733 0
M  V30 1819 H 170.573 -1.11233 -1.55883 0
M  V30 1820 H 168.878 -0.00303058 -3.918 0
M  V30 1821 H 170.575 -0.387456 -3.99124 0
M  V30 1822 H 167.165 -1.81694 -3.88182 0
M  V30 1823 H 171.349 -2.76853 -4.11906 0
M  V30 1824 H 166.605 -4.12609 -4.51181 0
M  V30 1825 H 170.779 -5.08111 -4.76231 0
M  V30 1826 H 168.406 -5.76495 -4.95537 0
M  V30 1827 N 169.982 1.44106 -0.638065 0
M  V30 1828 C 170.932 2.27843 0.0847285 0
M  V30 1829 C 171.916 1.39055 0.809471 0
M  V30 1830 O 173.108 1.62808 0.694435 0
M  V30 1831 C 170.237 3.26497 1.06089 0
M  V30 1832 C 169.323 4.22772 0.33541 0
M  V30 1833 N 169.714 5.01737 -0.639787 0
M  V30 1834 C 168.012 4.42227 0.578921 0
M  V30 1835 C 168.713 5.71792 -1.06904 0
M  V30 1836 N 167.689 5.42079 -0.406395 0
M  V30 1837 H 171.491 2.86305 -0.663814 0
M  V30 1838 H 169.005 1.55627 -0.464122 0
M  V30 1839 H 171.002 3.8525 1.59337 0
M  V30 1840 H 169.662 2.69595 1.80966 0
M  V30 1841 H 170.673 5.07799 -1.01789 0
M  V30 1842 H 167.35 3.96415 1.31003 0
M  V30 1843 H 168.74 6.45205 -1.8751 0
M  V30 1844 N 171.46 0.379036 1.52974 0
M  V30 1845 C 172.688 -0.20679 2.05864 0
M  V30 1846 C 173.103 -1.41356 1.25155 0
M  V30 1847 O 172.46 -1.8009 0.295588 0
M  V30 1848 C 172.511 -0.587045 3.56702 0
M  V30 1849 O 172.232 0.571776 4.34353 0
M  V30 1850 C 173.733 -1.22983 4.25899 0
M  V30 1851 H 170.953 -0.0336123 0.670158 0
M  V30 1852 H 173.497 0.541298 1.97206 0
M  V30 1853 H 171.652 -1.28504 3.65466 0
M  V30 1854 H 172.066 0.261544 5.23847 0
M  V30 1855 H 173.54 -1.44635 5.32715 0
M  V30 1856 H 174.017 -2.19416 3.80465 0
M  V30 1857 H 174.623 -0.572892 4.21424 0
M  V30 1858 N 172.938 -1.57226 0.108567 0
M  V30 1859 C 174.166 -1.99179 -0.559954 0
M  V30 1860 C 174.581 -0.988022 -1.60884 0
M  V30 1861 O 173.938 0.0205512 -1.82488 0
M  V30 1862 C 173.989 -3.41159 -1.19552 0
M  V30 1863 O 173.71 -4.37694 -0.188577 0
M  V30 1864 C 175.211 -3.98188 -1.94837 0
M  V30 1865 H 172.431 -0.654228 -0.149088 0
M  V30 1866 H 174.975 -2.03598 0.19183 0
M  V30 1867 H 173.13 -3.37711 -1.89815 0
M  V30 1868 H 173.544 -5.20469 -0.649014 0
M  V30 1869 H 175.018 -4.99644 -2.34648 0
M  V30 1870 H 175.495 -3.3675 -2.81951 0
M  V30 1871 H 176.101 -4.0515 -1.2936 0
M  V30 1872 N 174.416 0.165178 -1.56732 0
M  V30 1873 C 175.662 0.882112 -1.82611 0
M  V30 1874 C 175.995 1.81628 -0.687378 0
M  V30 1875 O 175.27 1.92009 0.310267 0
M  V30 1876 C 175.553 1.67245 -3.18906 0
M  V30 1877 C 175.406 0.760987 -4.43316 0
M  V30 1878 C 176.725 2.63884 -3.52212 0
M  V30 1879 H 173.844 0.319242 -0.664269 0
M  V30 1880 H 176.486 0.148052 -1.89422 0
M  V30 1881 H 174.636 2.29824 -3.1323 0
M  V30 1882 H 176.308 0.147596 -4.61064 0
M  V30 1883 H 174.551 0.0694102 -4.33744 0
M  V30 1884 H 175.222 1.34962 -5.35247 0
M  V30 1885 H 177.698 2.11429 -3.58381 0
M  V30 1886 H 176.574 3.16245 -4.48643 0
M  V30 1887 H 176.835 3.44377 -2.77231 0
M  V30 1888 N 175.894 1.51508 0.433938 0
M  V30 1889 C 177.122 1.68157 1.20543 0
M  V30 1890 C 177.537 0.380362 1.84929 0
M  V30 1891 O 176.894 -0.641446 1.70856 0
M  V30 1892 C 176.945 2.79965 2.28696 0
M  V30 1893 O 176.666 4.05045 1.66943 0
M  V30 1894 C 178.167 3.07912 3.18912 0
M  V30 1895 H 175.387 0.56421 0.363191 0
M  V30 1896 H 177.931 1.97941 0.513754 0
M  V30 1897 H 176.086 2.5277 2.93574 0
M  V30 1898 H 176.5 4.67165 2.38448 0
M  V30 1899 H 177.974 3.89719 3.90926 0
M  V30 1900 H 178.451 2.20456 3.79863 0
M  V30 1901 H 179.057 3.36779 2.59731 0
M  V30 1902 N 177.372 -0.689602 1.41712 0
M  V30 1903 C 178.335 -1.78521 1.43746 0
M  V30 1904 C 179.335 -1.57436 0.327191 0
M  V30 1905 O 180.525 -1.64 0.587348 0
M  V30 1906 C 177.657 -3.16971 1.25467 0
M  V30 1907 H 178.85 -1.78108 2.41283 0
M  V30 1908 H 176.403 -0.89781 1.27942 0
M  V30 1909 H 177.138 -3.23019 0.287948 0
M  V30 1910 H 176.923 -3.33678 2.05917 0
M  V30 1911 H 178.413 -3.96935 1.2974 0
M  V30 1912 N 178.85 -1.27639 -0.924453 0
M  V30 1913 C 179.813 -1.10681 -2.00705 0
M  V30 1914 C 180.813 -0.0497823 -1.60723 0
M  V30 1915 O 182.003 -0.294654 -1.7169 0
M  V30 1916 C 179.135 -0.687164 -3.33902 0
M  V30 1917 H 180.328 -2.06817 -2.17179 0
M  V30 1918 H 177.881 -1.10473 -1.10569 0
M  V30 1919 H 178.616 0.275439 -3.23128 0
M  V30 1920 H 178.401 -1.45061 -3.6428 0
M  V30 1921 H 179.891 -0.590853 -4.13399 0
M  V30 1922 N 180.328 1.1314 -1.09713 0
M  V30 1923 C 181.291 2.16831 -0.742751 0
M  V30 1924 C 182.291 1.59159 0.229129 0
M  V30 1925 O 183.481 1.74199 0.00693237 0
M  V30 1926 C 180.613 3.40756 -0.0989168 0
M  V30 1927 H 181.806 2.49695 -1.66109 0
M  V30 1928 H 179.359 1.2802 -0.896699 0
M  V30 1929 H 180.094 3.13485 0.830514 0
M  V30 1930 H 179.879 3.83888 -0.798265 0
M  V30 1931 H 181.369 4.17386 0.133524 0
M  V30 1932 N 181.806 0.884767 1.30421 0
M  V30 1933 C 183.053 0.503105 1.96151 0
M  V30 1934 C 183.381 -0.947676 1.69851 0
M  V30 1935 O 182.636 -1.68467 0.995861 0
M  V30 1936 C 182.935 0.724318 3.49983 0
M  V30 1937 C 182.601 2.15015 3.96332 0
M  V30 1938 C 181.263 2.54005 4.08699 0
M  V30 1939 C 183.615 3.07936 4.20505 0
M  V30 1940 C 180.943 3.85128 4.42599 0
M  V30 1941 C 183.295 4.3859 4.55874 0
M  V30 1942 C 181.959 4.77474 4.66449 0
M  V30 1943 H 181.229 0.184099 0.717766 0
M  V30 1944 H 183.876 1.12058 1.55291 0
M  V30 1945 H 182.181 0.0238086 3.91793 0
M  V30 1946 H 183.878 0.408617 3.98913 0
M  V30 1947 H 180.468 1.8375 3.87213 0
M  V30 1948 H 184.652 2.79033 4.10431 0
M  V30 1949 H 179.908 4.14996 4.48986 0
M  V30 1950 H 184.082 5.10629 4.7353 0
M  V30 1951 H 181.709 5.79115 4.92473 0
M  V30 1952 N 183.284 -1.43765 0.645699 0
M  V30 1953 C 184.561 -1.9541 0.0862963 0
M  V30 1954 C 184.941 -1.58725 -1.39175 0
M  V30 1955 O 184.289 -0.868581 -2.11348 0
M  V30 1956 C 184.499 -3.47488 0.324565 0
M  V30 1957 C 185.847 -4.24001 0.225497 0
M  V30 1958 O 186.871 -3.55274 0.256715 0
M  V30 1959 O 185.73 -5.46313 0.142801 0
M  V30 1960 H 182.824 -0.826882 -0.0139483 0
M  V30 1961 H 185.37 -1.53743 0.718415 0
M  V30 1962 H 184.142 -3.67289 1.3496 0
M  V30 1963 H 183.765 -3.96135 -0.340987 0
M  V30 1964 N 184.763 -0.387143 -1.52771 0
M  V30 1965 C 185.673 0.456442 -2.30117 0
M  V30 1966 C 186.689 1.07342 -1.36944 0
M  V30 1967 O 187.865 1.07971 -1.70013 0
M  V30 1968 C 184.93 1.56957 -3.09136 0
M  V30 1969 C 183.991 0.977916 -4.18014 0
M  V30 1970 C 183.224 2.038 -4.93256 0
M  V30 1971 O 183.447 3.25271 -4.68567 0
M  V30 1972 O 182.381 1.6565 -5.78657 0
M  V30 1973 H 186.207 -0.17359 -3.03203 0
M  V30 1974 H 183.792 -0.150919 -1.48636 0
M  V30 1975 H 185.674 2.21628 -3.58412 0
M  V30 1976 H 184.349 2.18461 -2.38865 0
M  V30 1977 H 183.256 0.294525 -3.72939 0
M  V30 1978 H 184.589 0.407128 -4.90513 0
M  V30 1979 N 186.241 1.57166 -0.116904 0
M  V30 1980 C 187.204 2.14039 0.819742 0
M  V30 1981 C 188.204 1.07477 1.19605 0
M  V30 1982 O 189.394 1.33263 1.1219 0
M  V30 1983 C 186.526 2.67891 2.10826 0
M  V30 1984 H 187.719 2.98128 0.325511 0
M  V30 1985 H 185.272 1.55739 0.132312 0
M  V30 1986 H 186.007 1.87384 2.64685 0
M  V30 1987 H 185.792 3.45823 1.84793 0
M  V30 1988 H 187.282 3.11809 2.77785 0
M  V30 1989 N 187.719 -0.156864 1.56817 0
M  V30 1990 C 188.947 -0.886316 1.86955 0
M  V30 1991 C 189.362 -1.75185 0.703975 0
M  V30 1992 O 188.719 -1.79555 -0.326552 0
M  V30 1993 C 188.77 -1.75117 3.16253 0
M  V30 1994 O 188.491 -0.920537 4.2832 0
M  V30 1995 C 189.992 -2.58905 3.59837 0
M  V30 1996 H 187.212 -0.25678 0.619923 0
M  V30 1997 H 189.756 -0.152615 2.0393 0
M  V30 1998 H 187.911 -2.43805 3.01062 0
M  V30 1999 H 188.325 -1.51337 5.02192 0
M  V30 2000 H 189.799 -3.1518 4.53172 0
M  V30 2001 H 190.276 -3.34472 2.84649 0
M  V30 2002 H 190.882 -1.95526 3.7769 0
M  V30 2003 N 189.197 -1.51736 -0.425897 0
M  V30 2004 C 190.145 -1.74464 -1.53834 0
M  V30 2005 C 191.139 -0.611241 -1.57988 0
M  V30 2006 O 192.345 -0.792899 -1.61596 0
M  V30 2007 H 188.72 -0.551437 -0.511293 0
M  V30 2008 H 190.691 -2.67694 -1.31843 0
M  V30 2009 C 189.44 -1.8972 -2.91379 0
M  V30 2010 H 188.763 -2.76344 -2.88919 0
M  V30 2011 H 190.203 -2.09629 -3.68553 0
M  V30 2012 C 188.662 -0.65992 -3.30374 0
M  V30 2013 O 189.192 0.180083 -4.01296 0
M  V30 2014 N 187.398 -0.500677 -2.86254 0
M  V30 2015 H 186.945 -1.18532 -2.28709 0
M  V30 2016 H 186.903 0.325903 -3.12706 0
M  V30 2017 N 190.675 0.682077 -1.42076 0
M  V30 2018 C 191.903 1.47057 -1.4554 0
M  V30 2019 C 192.318 1.8869 -0.0645779 0
M  V30 2020 O 191.675 1.57666 0.919115 0
M  V30 2021 C 191.726 2.72442 -2.37609 0
M  V30 2022 O 191.447 2.32559 -3.71279 0
M  V30 2023 C 192.948 3.66069 -2.50017 0
M  V30 2024 H 190.168 0.452737 -0.495248 0
M  V30 2025 H 192.712 0.838695 -1.8651 0
M  V30 2026 H 190.867 3.31835 -1.9991 0
M  V30 2027 H 191.281 3.13475 -4.20516 0
M  V30 2028 H 192.755 4.50792 -3.18576 0
M  V30 2029 H 193.232 4.11476 -1.53572 0
M  V30 2030 H 193.838 3.12572 -2.88407 0
M  V30 2031 N 192.153 1.28127 0.917671 0
M  V30 2032 C 193.399 1.16232 1.66918 0
M  V30 2033 C 193.754 -0.28701 1.90247 0
M  V30 2034 O 193.047 -1.20586 1.48895 0
M  V30 2035 C 193.241 1.89018 3.03327 0
M  V30 2036 C 193.07 3.4088 2.9331 0
M  V30 2037 C 191.84 4.10214 2.95047 0
M  V30 2038 C 194.038 4.36689 2.71675 0
M  V30 2039 N 192.02 5.48571 2.75577 0
M  V30 2040 C 193.391 5.62382 2.6101 0
M  V30 2041 C 195.446 4.26661 2.56641 0
M  V30 2042 C 194.149 6.79189 2.36843 0
M  V30 2043 C 196.175 5.432 2.33853 0
M  V30 2044 C 195.537 6.67855 2.23939 0
M  V30 2045 H 191.636 0.48024 0.617166 0
M  V30 2046 H 194.22 1.61727 1.08409 0
M  V30 2047 H 192.391 1.45963 3.59929 0
M  V30 2048 H 194.123 1.69541 3.67475 0
M  V30 2049 H 190.878 3.61762 3.05655 0
M  V30 2050 H 191.302 6.21287 2.68945 0
M  V30 2051 H 195.944 3.30998 2.63059 0
M  V30 2052 H 193.662 7.74926 2.29164 0
M  V30 2053 H 197.248 5.37328 2.23091 0
M  V30 2054 H 196.128 7.56511 2.06546 0
M  V30 2055 N 193.631 -1.12557 1.10312 0
M  V30 2056 C 194.859 -1.87864 0.866873 0
M  V30 2057 C 195.274 -1.79588 -0.582557 0
M  V30 2058 O 194.631 -1.16887 -1.40156 0
M  V30 2059 C 194.682 -3.37125 1.30496 0
M  V30 2060 O 194.403 -3.45201 2.69755 0
M  V30 2061 C 195.904 -4.29373 1.10243 0
M  V30 2062 H 193.124 -0.594452 0.311236 0
M  V30 2063 H 195.668 -1.42429 1.46745 0
M  V30 2064 H 193.823 -3.80109 0.748081 0
M  V30 2065 H 194.237 -4.38056 2.88457 0
M  V30 2066 H 195.711 -5.32394 1.45811 0
M  V30 2067 H 196.188 -4.39181 0.0409492 0
M  V30 2068 H 196.794 -3.92169 1.64571 0
M  V30 2069 N 195.109 -0.891671 -1.2995 0
M  V30 2070 C 196.355 -0.514261 -1.96171 0
M  V30 2071 C 196.688 0.935506 -1.70182 0
M  V30 2072 O 195.963 1.66204 -1.01028 0
M  V30 2073 C 196.246 -0.797719 -3.51153 0
M  V30 2074 C 196.099 -2.2986 -3.86632 0
M  V30 2075 C 197.418 -0.278749 -4.39216 0
M  V30 2076 H 194.537 -0.188314 -0.712535 0
M  V30 2077 H 197.179 -1.11689 -1.53706 0
M  V30 2078 H 195.329 -0.284826 -3.87455 0
M  V30 2079 H 197.001 -2.88042 -3.60319 0
M  V30 2080 H 195.244 -2.76257 -3.34462 0
M  V30 2081 H 195.915 -2.44753 -4.94773 0
M  V30 2082 H 198.391 -0.717825 -4.09862 0
M  V30 2083 H 197.267 -0.506353 -5.46559 0
M  V30 2084 H 197.528 0.820266 -4.34424 0
M  V30 2085 N 196.587 1.43421 -0.653314 0
M  V30 2086 C 197.864 1.95361 -0.0966581 0
M  V30 2087 C 198.244 1.59461 1.38331 0
M  V30 2088 O 197.592 0.879777 2.10884 0
M  V30 2089 C 197.802 3.47311 -0.342988 0
M  V30 2090 C 199.15 4.23875 -0.24798 0
M  V30 2091 O 200.174 3.55133 -0.275553 0
M  V30 2092 O 199.033 5.4623 -0.171771 0
M  V30 2093 H 196.127 0.826945 0.00956291 0
M  V30 2094 H 198.673 1.5336 -0.726558 0
M  V30 2095 H 197.445 3.66569 -1.36906 0
M  V30 2096 H 197.068 3.9631 0.319975 0
M  V30 2097 N 198.065 0.39524 1.52563 0
M  V30 2098 C 199.293 -0.184943 2.06072 0
M  V30 2099 C 199.708 -1.40021 1.26647 0
M  V30 2100 O 199.065 -1.79767 0.314672 0
M  V30 2101 C 199.116 -0.549179 3.57304 0
M  V30 2102 O 198.837 0.617813 4.33722 0
M  V30 2103 C 200.338 -1.18459 4.2718 0
M  V30 2104 H 197.558 -0.0265025 0.670476 0
M  V30 2105 H 200.102 0.562184 1.96621 0
M  V30 2106 H 198.257 -1.2462 3.66809 0
M  V30 2107 H 198.671 0.317091 5.23541 0
M  V30 2108 H 200.145 -1.38976 5.34219 0
M  V30 2109 H 200.622 -2.15368 3.82771 0
M  V30 2110 H 201.228 -0.528163 4.22008 0
M  V30 2111 N 199.544 -1.57102 0.125237 0
M  V30 2112 C 200.492 -2.16905 -0.839927 0
M  V30 2113 C 201.486 -1.11998 -1.27094 0
M  V30 2114 O 202.692 -1.3029 -1.24195 0
M  V30 2115 H 199.067 -0.694252 -0.288995 0
M  V30 2116 H 201.038 -2.96774 -0.311115 0
M  V30 2117 C 199.787 -2.78795 -2.07771 0
M  V30 2118 H 199.11 -3.59221 -1.755 0
M  V30 2119 H 200.55 -3.2417 -2.73295 0
M  V30 2120 C 199.009 -1.76193 -2.87155 0
M  V30 2121 O 199.539 -1.21909 -3.82755 0
M  V30 2122 N 197.745 -1.45991 -2.51267 0
M  V30 2123 H 197.292 -1.90325 -1.73592 0
M  V30 2124 H 197.25 -0.775844 -3.04677 0
M  V30 2125 N 201.022 0.148545 -1.56898 0
M  V30 2126 C 201.972 1.1886 -1.94567 0
M  V30 2127 C 202.956 1.3863 -0.816735 0
M  V30 2128 O 204.148 1.40218 -1.08018 0
M  V30 2129 C 201.277 2.52262 -2.32849 0
M  V30 2130 C 200.363 2.36092 -3.52309 0
M  V30 2131 N 200.754 1.89674 -4.6889 0
M  V30 2132 C 199.052 2.66848 -3.57363 0
M  V30 2133 C 199.753 1.86511 -5.50989 0
M  V30 2134 N 198.729 2.29766 -4.92655 0
M  V30 2135 H 202.531 0.821793 -2.82177 0
M  V30 2136 H 200.045 0.356615 -1.58436 0
M  V30 2137 H 202.042 3.27447 -2.58039 0
M  V30 2138 H 200.702 2.89727 -1.46589 0
M  V30 2139 H 201.713 1.59663 -4.92674 0
M  V30 2140 H 198.39 3.08198 -2.81639 0
M  V30 2141 H 199.78 1.52128 -6.54452 0
M  V30 2142 N 202.5 1.5196 0.417844 0
M  V30 2143 C 203.748 1.65263 1.16329 0
M  V30 2144 C 204.069 0.380634 1.91249 0
M  V30 2145 O 203.339 -0.604214 1.86349 0
M  V30 2146 H 201.919 0.60912 0.432414 0
M  V30 2147 H 204.581 1.88969 0.477162 0
M  V30 2148 H 203.677 2.4896 1.88217 0
M  V30 2149 N 203.978 -0.674533 1.42435 0
M  V30 2150 C 205.255 -1.4305 1.33402 0
M  V30 2151 C 205.635 -2.11081 -0.0284674 0
M  V30 2152 O 204.983 -2.03257 -1.04397 0
M  V30 2153 C 205.193 -2.43272 2.50239 0
M  V30 2154 C 206.541 -3.07907 2.92367 0
M  V30 2155 O 207.565 -2.53599 2.50132 0
M  V30 2156 O 206.424 -4.0632 3.65467 0
M  V30 2157 H 203.518 -0.638076 0.526106 0
M  V30 2158 H 206.064 -0.703235 1.54443 0
M  V30 2159 H 204.836 -1.91803 3.41068 0
M  V30 2160 H 204.459 -3.23479 2.31186 0
M  V30 2161 N 205.456 -1.28612 -0.910864 0
M  V30 2162 C 206.872 -1.06381 -1.18976 0
M  V30 2163 C 207.072 0.191998 -2.00583 0
M  V30 2164 O 206.128 0.892869 -2.36187 0
M  V30 2165 C 207.441 -2.31295 -1.92154 0
M  V30 2166 C 208.989 -2.36503 -2.05025 0
M  V30 2167 C 209.464 -3.61191 -2.81612 0
M  V30 2168 N 210.955 -3.61847 -2.89172 0
M  V30 2169 C 211.69 -4.55004 -3.4894 0
M  V30 2170 N 211.186 -5.58482 -4.09963 0
M  V30 2171 N 212.979 -4.42594 -3.46506 0
M  V30 2172 H 205.13 -2.09221 -0.366094 0
M  V30 2173 H 207.393 -0.921003 -0.224629 0
M  V30 2174 H 207.099 -3.228 -1.39618 0
M  V30 2175 H 206.973 -2.37934 -2.9269 0
M  V30 2176 H 209.36 -1.45494 -2.5674 0
M  V30 2177 H 209.441 -2.33857 -1.03657 0
M  V30 2178 H 209.085 -4.52545 -2.30576 0
M  V30 2179 H 209.015 -3.61092 -3.83302 0
M  V30 2180 H 211.506 -2.87022 -2.45819 0
M  V30 2181 H 211.819 -6.25704 -4.53557 0
M  V30 2182 H 210.164 -5.62305 -4.08459 0
M  V30 2183 H 213.355 -3.60953 -2.98045 0
M  V30 2184 H 213.528 -5.15381 -3.92793 0
M  V30 2185 N 206.934 1.1197 -1.10907 0
M  V30 2186 C 208.183 1.82947 -0.849302 0
M  V30 2187 C 208.496 1.85275 0.627112 0
M  V30 2188 O 209.702 2.52296 1.00295 0
M  V30 2189 C 208.158 3.28529 -1.46959 0
M  V30 2190 C 207.766 3.34546 -2.97965 0
M  V30 2191 C 209.51 4.04443 -1.28942 0
M  V30 2192 C 207.417 4.74491 -3.53004 0
M  V30 2193 H 206.347 0.685477 -0.314065 0
M  V30 2194 H 208.998 1.2604 -1.33365 0
M  V30 2195 H 207.38 3.85333 -0.912917 0
M  V30 2196 H 208.554 2.87654 -3.59989 0
M  V30 2197 H 206.869 2.72108 -3.15192 0
M  V30 2198 H 209.466 5.07787 -1.67502 0
M  V30 2199 H 209.809 4.15656 -0.231456 0
M  V30 2200 H 210.342 3.5401 -1.81443 0
M  V30 2201 H 207.081 4.68474 -4.58489 0
M  V30 2202 H 206.601 5.21816 -2.9575 0
M  V30 2203 H 208.28 5.4344 -3.51115 0
M  V30 2204 N 208.412 0.89855 1.29475 0
M  V30 2205 C 209.828 0.594483 1.48115 0
M  V30 2206 C 210.028 -0.86431 1.82022 0
M  V30 2207 O 209.084 -1.64457 1.91599 0
M  V30 2208 C 210.397 1.51932 2.59494 0
M  V30 2209 C 211.945 1.5244 2.7337 0
M  V30 2210 C 212.42 2.43548 3.87877 0
M  V30 2211 N 213.911 2.41589 3.95208 0
M  V30 2212 C 214.646 3.08789 4.83153 0
M  V30 2213 N 214.142 3.85265 5.75798 0
M  V30 2214 N 215.935 2.97952 4.76635 0
M  V30 2215 H 208.086 1.84207 1.05742 0
M  V30 2216 H 210.349 0.789251 0.525154 0
M  V30 2217 H 210.055 2.55865 2.41301 0
M  V30 2218 H 209.929 1.23899 3.56271 0
M  V30 2219 H 212.316 0.492518 2.90961 0
M  V30 2220 H 212.397 1.8451 1.77172 0
M  V30 2221 H 212.041 3.46829 3.71041 0
M  V30 2222 H 211.971 2.08788 4.83441 0
M  V30 2223 H 214.462 1.86025 3.28943 0
M  V30 2224 H 214.775 4.33598 6.39697 0
M  V30 2225 H 213.12 3.89371 5.75687 0
M  V30 2226 H 216.311 2.37723 4.03244 0
M  V30 2227 H 216.484 3.50599 5.44962 0
M  V30 2228 N 209.89 -1.43072 0.660911 0
M  V30 2229 C 210.853 -2.29194 -0.0166406 0
M  V30 2230 C 211.853 -1.42609 -0.742912 0
M  V30 2231 O 213.043 -1.64155 -0.583004 0
M  V30 2232 C 210.175 -3.24831 -1.0343 0
M  V30 2233 H 211.368 -2.90596 0.741208 0
M  V30 2234 H 208.921 -1.5048 0.422532 0
M  V30 2235 H 209.656 -2.68339 -1.82111 0
M  V30 2236 H 209.441 -3.88676 -0.517082 0
M  V30 2237 H 210.931 -3.89451 -1.50723 0
M  V30 2238 N 211.368 -0.403325 -1.52352 0
M  V30 2239 C 212.784 -0.0539281 -1.59509 0
M  V30 2240 C 212.984 1.43307 -1.41652 0
M  V30 2241 O 212.04 2.19924 -1.24056 0
M  V30 2242 C 213.353 -0.543654 -2.95745 0
M  V30 2243 C 214.901 -0.501125 -3.08962 0
M  V30 2244 C 215.376 -0.967267 -4.47669 0
M  V30 2245 N 216.867 -0.923849 -4.53893 0
M  V30 2246 C 217.602 -1.25578 -5.5948 0
M  V30 2247 N 217.098 -1.65889 -6.72646 0
M  V30 2248 N 218.891 -1.17613 -5.49658 0
M  V30 2249 H 211.042 -1.37123 -1.62206 0
M  V30 2250 H 213.305 -0.56294 -0.76276 0
M  V30 2251 H 213.011 -1.58275 -3.14073 0
M  V30 2252 H 212.885 0.0498042 -3.77167 0
M  V30 2253 H 215.272 0.528909 -2.90321 0
M  V30 2254 H 215.353 -1.13056 -2.2946 0
M  V30 2255 H 214.997 -1.9956 -4.67053 0
M  V30 2256 H 214.927 -0.314698 -5.25659 0
M  V30 2257 H 217.418 -0.627403 -3.72655 0
M  V30 2258 H 217.731 -1.89543 -7.49195 0
M  V30 2259 H 216.076 -1.69787 -6.73942 0
M  V30 2260 H 219.267 -0.860115 -4.6013 0
M  V30 2261 H 219.44 -1.43812 -6.3184 0
M  V30 2262 N 212.846 1.57033 -0.133567 0
M  V30 2263 C 214.076 1.99754 0.527429 0
M  V30 2264 C 214.484 1.01245 1.59832 0
M  V30 2265 O 213.827 -0.000645496 1.837 0
M  V30 2266 C 213.889 3.38903 1.19939 0
M  V30 2267 C 213.553 4.56174 0.274709 0
M  V30 2268 C 214.55 5.17563 -0.492398 0
M  V30 2269 C 212.235 5.01972 0.18153 0
M  V30 2270 C 214.229 6.2315 -1.34027 0
M  V30 2271 C 211.916 6.07416 -0.669958 0
M  V30 2272 C 212.914 6.67874 -1.42947 0
M  V30 2273 O 212.602 7.71279 -2.2668 0
M  V30 2274 H 212.334 0.660702 0.142999 0
M  V30 2275 H 214.888 2.04207 -0.221099 0
M  V30 2276 H 213.118 3.31248 1.99528 0
M  V30 2277 H 214.807 3.65818 1.75875 0
M  V30 2278 H 215.573 4.83087 -0.430367 0
M  V30 2279 H 211.452 4.54652 0.762422 0
M  V30 2280 H 214.996 6.70268 -1.93357 0
M  V30 2281 H 210.893 6.41321 -0.73333 0
M  V30 2282 H 211.661 7.88441 -2.1978 0
M  V30 2283 N 214.325 -0.140222 1.56975 0
M  V30 2284 C 215.255 -1.17456 2.01808 0
M  V30 2285 C 216.236 -1.44415 0.898794 0
M  V30 2286 O 217.421 -1.5522 1.16707 0
M  V30 2287 C 214.551 -2.50607 2.40444 0
M  V30 2288 C 213.505 -2.38155 3.55621 0
M  V30 2289 C 212.831 -3.76078 3.80091 0
M  V30 2290 C 214.131 -1.85991 4.88062 0
M  V30 2291 H 215.825 -0.801743 2.88466 0
M  V30 2292 H 213.371 -0.38422 1.38779 0
M  V30 2293 H 215.324 -3.23197 2.7041 0
M  V30 2294 H 214.048 -2.89737 1.50732 0
M  V30 2295 H 212.707 -1.68016 3.25832 0
M  V30 2296 H 212.355 -4.12656 2.87618 0
M  V30 2297 H 212.055 -3.68606 4.57606 0
M  V30 2298 H 213.579 -4.50206 4.12488 0
M  V30 2299 H 214.993 -2.4838 5.16701 0
M  V30 2300 H 213.39 -1.89393 5.6943 0
M  V30 2301 H 214.46 -0.816023 4.77984 0
M  V30 2302 N 215.803 -1.52179 -0.40978 0
M  V30 2303 C 217.052 -1.65434 -1.15388 0
M  V30 2304 C 217.365 -0.390056 -1.91671 0
M  V30 2305 O 218.571 -0.402399 -2.68501 0
M  V30 2306 C 217.027 -2.92279 -2.10003 0
M  V30 2307 C 216.635 -4.25813 -1.39239 0
M  V30 2308 C 218.379 -3.14897 -2.84675 0
M  V30 2309 C 216.286 -5.43782 -2.32498 0
M  V30 2310 H 215.216 -0.616267 -0.434432 0
M  V30 2311 H 217.867 -1.78666 -0.418401 0
M  V30 2312 H 216.249 -2.72744 -2.871 0
M  V30 2313 H 217.423 -4.55828 -0.675099 0
M  V30 2314 H 215.738 -4.09292 -0.766097 0
M  V30 2315 H 218.335 -4.0021 -3.54593 0
M  V30 2316 H 218.678 -2.29103 -3.47588 0
M  V30 2317 H 219.211 -3.34901 -2.14677 0
M  V30 2318 H 215.95 -6.3192 -1.74233 0
M  V30 2319 H 215.47 -5.18106 -3.02201 0
M  V30 2320 H 217.149 -5.76834 -2.93038 0
M  V30 2321 N 217.281 0.66697 -1.42791 0
M  V30 2322 C 218.214 1.79177 -1.41318 0
M  V30 2323 C 219.192 1.60234 -0.276401 0
M  V30 2324 O 220.376 1.82602 -0.46785 0
M  V30 2325 C 217.503 3.16289 -1.21157 0
M  V30 2326 C 216.549 3.53964 -2.37932 0
M  V30 2327 S 217.382 3.55501 -4.00474 0
M  V30 2328 C 218.538 4.95292 -3.8267 0
M  V30 2329 H 218.771 1.80153 -2.365 0
M  V30 2330 H 216.304 0.838357 -1.29657 0
M  V30 2331 H 218.262 3.95428 -1.10212 0
M  V30 2332 H 216.923 3.1289 -0.275481 0
M  V30 2333 H 216.116 4.53646 -2.19594 0
M  V30 2334 H 215.718 2.82204 -2.45432 0
M  V30 2335 H 218.01 5.83584 -3.44145 0
M  V30 2336 H 218.953 5.18679 -4.82055 0
M  V30 2337 H 219.361 4.68179 -3.15386 0
M  V30 2338 N 218.759 1.29093 0.90403 0
M  V30 2339 C 219.722 1.1386 1.98919 0
M  V30 2340 C 220.722 0.0753457 1.60623 0
M  V30 2341 O 221.912 0.321931 1.71199 0
M  V30 2342 C 219.044 0.740198 3.32767 0
M  V30 2343 H 220.237 2.10246 2.13861 0
M  V30 2344 H 217.79 1.12218 1.08797 0
M  V30 2345 H 218.525 -0.223997 3.23525 0
M  V30 2346 H 218.31 1.50838 3.61926 0
M  V30 2347 H 219.8 0.656546 4.12407 0
M  V30 2348 N 220.237 -1.11381 1.11499 0
M  V30 2349 C 221.462 -1.87475 0.887019 0
M  V30 2350 C 221.887 -1.79639 -0.557796 0
M  V30 2351 O 221.245 -1.15924 -1.39396 0
M  V30 2352 C 221.293 -3.34213 1.35403 0
M  V30 2353 O 220.397 -4.0903 0.526146 0
M  V30 2354 H 219.738 -0.582099 0.319463 0
M  V30 2355 H 222.268 -1.40785 1.48461 0
M  V30 2356 H 222.278 -3.8506 1.34881 0
M  V30 2357 H 220.953 -3.39232 2.40612 0
M  V30 2358 H 219.53 -3.68082 0.597522 0
M  V30 2359 N 221.715 -0.905404 -1.28997 0
M  V30 2360 C 222.963 -0.533192 -1.9494 0
M  V30 2361 C 223.284 0.924618 -1.71685 0
M  V30 2362 O 222.554 1.65268 -1.05183 0
M  V30 2363 H 221.134 -0.194194 -0.721317 0
M  V30 2364 H 223.796 -1.15294 -1.57141 0
M  V30 2365 H 222.892 -0.72059 -3.03667 0
M  V30 2366 N 223.193 1.4272 -0.668489 0
M  V30 2367 C 224.125 2.2914 0.052613 0
M  V30 2368 C 225.138 1.43339 0.771857 0
M  V30 2369 O 226.327 1.67123 0.627067 0
M  V30 2370 C 223.427 3.20618 1.09804 0
M  V30 2371 C 222.6 4.35039 0.45389 0
M  V30 2372 C 221.659 5.07282 1.39825 0
M  V30 2373 O 220.685 5.62024 0.900978 0
M  V30 2374 N 221.887 5.12206 2.73176 0
M  V30 2375 H 224.652 2.91668 -0.689209 0
M  V30 2376 H 222.213 1.53577 -0.512422 0
M  V30 2377 H 224.205 3.65815 1.73094 0
M  V30 2378 H 222.775 2.59585 1.74167 0
M  V30 2379 H 221.995 3.92567 -0.358396 0
M  V30 2380 H 223.283 5.088 0.00486972 0
M  V30 2381 H 222.681 4.6913 3.16122 0
M  V30 2382 H 221.238 5.61069 3.31729 0
M  V30 2383 N 224.671 0.411399 1.52136 0
M  V30 2384 C 225.601 -0.404015 2.29978 0
M  V30 2385 C 226.582 -1.04412 1.34284 0
M  V30 2386 O 227.767 -1.0527 1.63192 0
M  V30 2387 C 224.897 -1.5197 3.12286 0
M  V30 2388 C 223.851 -1.00448 4.16046 0
M  V30 2389 C 223.177 -2.21393 4.86712 0
M  V30 2390 C 224.477 -0.0569336 5.22269 0
M  V30 2391 H 226.171 0.245529 2.98392 0
M  V30 2392 H 223.717 0.119525 1.43503 0
M  V30 2393 H 225.67 -2.09715 3.6551 0
M  V30 2394 H 224.394 -2.19716 2.41646 0
M  V30 2395 H 223.053 -0.449421 3.63835 0
M  V30 2396 H 222.701 -2.87699 4.12599 0
M  V30 2397 H 222.401 -1.87571 5.56858 0
M  V30 2398 H 223.925 -2.7974 5.4275 0
M  V30 2399 H 225.339 -0.54325 5.7072 0
M  V30 2400 H 223.736 0.192594 5.99791 0
M  V30 2401 H 224.806 0.887663 4.76706 0
M  V30 2402 N 226.149 -1.5696 0.141893 0
M  V30 2403 C 227.374 -2.00754 -0.520838 0
M  V30 2404 C 227.799 -1.0213 -1.57959 0
M  V30 2405 O 227.157 0.00371324 -1.813 0
M  V30 2406 C 227.205 -3.43318 -1.10294 0
M  V30 2407 O 226.309 -3.47679 -2.21795 0
M  V30 2408 H 225.65 -0.651564 -0.127908 0
M  V30 2409 H 228.18 -2.03221 0.23712 0
M  V30 2410 H 228.19 -3.82012 -1.43287 0
M  V30 2411 H 226.865 -4.14608 -0.327574 0
M  V30 2412 H 225.442 -3.20824 -1.9007 0
M  V30 2413 N 227.627 0.131896 -1.57047 0
M  V30 2414 C 228.873 0.843179 -1.84441 0
M  V30 2415 C 229.206 1.80129 -0.725749 0
M  V30 2416 O 228.481 1.92624 0.269469 0
M  V30 2417 C 228.764 1.60442 -3.22382 0
M  V30 2418 C 228.617 0.666782 -4.4483 0
M  V30 2419 C 229.936 2.56354 -3.5773 0
M  V30 2420 H 227.055 0.305081 -0.670891 0
M  V30 2421 H 229.697 0.107839 -1.89694 0
M  V30 2422 H 227.847 2.23128 -3.18035 0
M  V30 2423 H 229.519 0.0497646 -4.61273 0
M  V30 2424 H 227.762 -0.022609 -4.33794 0
M  V30 2425 H 228.433 1.23579 -5.37989 0
M  V30 2426 H 230.909 2.0378 -3.62785 0
M  V30 2427 H 229.785 3.06657 -4.5525 0
M  V30 2428 H 230.046 3.38419 -2.84473 0
M  V30 2429 N 229.106 1.52395 0.401703 0
M  V30 2430 C 230.517 1.58899 0.980202 0
M  V30 2431 C 230.868 0.434032 1.91339 0
M  V30 2432 O 229.993 -0.444619 2.11783 0
M  V30 2433 C 230.588 2.87994 1.78451 0
M  V30 2434 C 229.147 2.96953 2.31292 0
M  V30 2435 C 228.294 2.53903 1.11483 0
M  V30 2436 H 231.245 1.57657 0.18168 0
M  V30 2437 H 231.266 2.73765 2.64259 0
M  V30 2438 H 230.778 3.72035 1.10506 0
M  V30 2439 H 228.879 2.17422 3.02586 0
M  V30 2440 H 228.992 4.01344 2.61649 0
M  V30 2441 H 227.356 2.07925 1.47104 0
M  V30 2442 H 228.139 3.40326 0.450928 0
M  V30 2443 N 230.584 -0.659388 1.43143 0
M  V30 2444 C 231.516 -1.7849 1.43784 0
M  V30 2445 C 232.529 -1.5932 0.334787 0
M  V30 2446 O 233.718 -1.68155 0.598842 0
M  V30 2447 C 230.818 -3.15828 1.22906 0
M  V30 2448 C 229.991 -3.61711 2.45934 0
M  V30 2449 C 229.05 -4.77831 2.20371 0
M  V30 2450 O 228.076 -4.87586 2.93681 0
M  V30 2451 N 229.278 -5.67611 1.21647 0
M  V30 2452 H 232.043 -1.7842 2.40803 0
M  V30 2453 H 229.604 -0.84302 1.3822 0
M  V30 2454 H 231.596 -3.91189 1.03697 0
M  V30 2455 H 230.166 -3.10707 0.343542 0
M  V30 2456 H 229.386 -2.76861 2.80609 0
M  V30 2457 H 230.674 -3.89112 3.27825 0
M  V30 2458 H 230.072 -5.62397 0.610449 0
M  V30 2459 H 228.629 -6.42719 1.08423 0
M  V30 2460 N 232.062 -1.29571 -0.897171 0
M  V30 2461 C 232.992 -1.17473 -2.01798 0
M  V30 2462 C 233.973 -0.068323 -1.69963 0
M  V30 2463 O 235.158 -0.248239 -1.92607 0
M  V30 2464 C 232.288 -0.853099 -3.36659 0
M  V30 2465 C 231.242 -1.9161 -3.82713 0
M  V30 2466 C 230.568 -1.44773 -5.14728 0
M  V30 2467 C 231.868 -3.32535 -4.02763 0
M  V30 2468 H 233.562 -2.11237 -2.12177 0
M  V30 2469 H 231.108 -1.01699 -1.01948 0
M  V30 2470 H 233.061 -0.755165 -4.14578 0
M  V30 2471 H 231.785 0.120236 -3.26379 0
M  V30 2472 H 230.444 -2.00346 -3.07013 0
M  V30 2473 H 230.092 -0.462995 -5.00865 0
M  V30 2474 H 229.792 -2.15865 -5.46513 0
M  V30 2475 H 231.316 -1.36334 -5.95185 0
M  V30 2476 H 232.73 -3.26626 -4.71156 0
M  V30 2477 H 231.127 -4.01607 -4.45905 0
M  V30 2478 H 232.197 -3.75326 -3.07016 0
M  V30 2479 N 233.54 1.10788 -1.12088 0
M  V30 2480 C 234.951 1.64181 -0.88891 0
M  V30 2481 C 235.302 1.87508 0.577498 0
M  V30 2482 O 234.427 1.61434 1.44112 0
M  V30 2483 C 235.022 2.98257 -1.60712 0
M  V30 2484 C 233.581 3.4853 -1.42139 0
M  V30 2485 C 232.728 2.23208 -1.6454 0
M  V30 2486 H 235.679 0.943368 -1.27618 0
M  V30 2487 H 235.7 3.65552 -1.05604 0
M  V30 2488 H 235.212 2.81246 -2.67436 0
M  V30 2489 H 233.313 3.70692 -0.376552 0
M  V30 2490 H 233.426 4.26882 -2.17505 0
M  V30 2491 H 231.79 2.31169 -1.06925 0
M  V30 2492 H 232.573 2.08733 -2.72554 0
M  V30 2493 N 235.018 0.912232 1.28515 0
M  V30 2494 C 235.966 0.389597 2.29314 0
M  V30 2495 C 236.96 -0.517915 1.61289 0
M  V30 2496 O 238.166 -0.399328 1.75515 0
M  V30 2497 H 234.541 0.107386 0.744293 0
M  V30 2498 H 236.512 1.25286 2.70825 0
M  V30 2499 C 235.261 -0.356496 3.45868 0
M  V30 2500 H 234.584 0.332608 3.98414 0
M  V30 2501 H 236.024 -0.686851 4.184 0
M  V30 2502 C 234.483 -1.56383 2.98406 0
M  V30 2503 O 235.013 -2.66294 3.00749 0
M  V30 2504 N 233.219 -1.41029 2.54085 0
M  V30 2505 H 232.766 -0.516089 2.52377 0
M  V30 2506 H 232.724 -2.21939 2.22689 0
M  V30 2507 N 236.496 -1.42363 0.676048 0
M  V30 2508 C 237.743 -2.01522 0.19883 0
M  V30 2509 C 238.071 -1.53456 -1.19505 0
M  V30 2510 O 237.326 -0.727967 -1.81657 0
M  V30 2511 C 237.625 -3.56929 0.183431 0
M  V30 2512 C 237.291 -4.24431 1.52215 0
M  V30 2513 C 235.953 -4.42585 1.8887 0
M  V30 2514 C 238.305 -4.62459 2.40377 0
M  V30 2515 C 235.633 -4.96039 3.13309 0
M  V30 2516 C 237.985 -5.17294 3.64129 0
M  V30 2517 C 236.649 -5.33661 4.00951 0
M  V30 2518 H 235.919 -0.737419 0.0727571 0
M  V30 2519 H 238.566 -1.70531 0.871281 0
M  V30 2520 H 236.871 -3.87594 -0.572532 0
M  V30 2521 H 238.568 -4.00486 -0.203035 0
M  V30 2522 H 235.158 -4.10661 1.22701 0
M  V30 2523 H 239.342 -4.48105 2.13343 0
M  V30 2524 H 234.598 -5.06896 3.41857 0
M  V30 2525 H 238.772 -5.45704 4.32644 0
M  V30 2526 H 236.399 -5.74845 4.9745 0
M  V30 2527 N 237.974 -0.419461 -1.51915 0
M  V30 2528 C 239.385 0.0477853 -1.86639 0
M  V30 2529 C 239.736 1.43531 -1.33766 0
M  V30 2530 O 238.861 2.05401 -0.68113 0
M  V30 2531 C 239.456 0.0934885 -3.38671 0
M  V30 2532 C 238.015 0.505097 -3.72996 0
M  V30 2533 C 237.162 -0.313792 -2.75519 0
M  V30 2534 H 240.113 -0.636088 -1.45395 0
M  V30 2535 H 240.134 0.906667 -3.6954 0
M  V30 2536 H 239.646 -0.916501 -3.77123 0
M  V30 2537 H 237.747 1.52135 -3.40126 0
M  V30 2538 H 237.86 0.242309 -4.78487 0
M  V30 2539 H 236.224 0.225363 -2.53701 0
M  V30 2540 H 237.007 -1.32232 -3.16812 0
M  V30 2541 N 239.452 1.56882 -0.150215 0
M  V30 2542 C 240.7 1.9584 0.499105 0
M  V30 2543 C 241.021 1.03623 1.65188 0
M  V30 2544 O 240.291 0.0984084 1.95653 0
M  V30 2545 H 238.871 0.723119 0.187373 0
M  V30 2546 H 241.533 1.9358 -0.226466 0
M  V30 2547 H 240.629 2.99638 0.873122 0
M  V30 2548 N 240.93 -0.123565 1.57115 0
M  V30 2549 C 241.86 -1.15309 2.03042 0
M  V30 2550 C 242.841 -1.43454 0.914061 0
M  V30 2551 O 244.026 -1.53973 1.18347 0
M  V30 2552 C 241.156 -2.48043 2.43089 0
M  V30 2553 C 240.11 -2.3437 3.58127 0
M  V30 2554 C 239.436 -3.72026 3.84059 0
M  V30 2555 C 240.736 -1.80804 4.90007 0
M  V30 2556 H 242.43 -0.771102 2.893 0
M  V30 2557 H 239.976 -0.369479 1.39179 0
M  V30 2558 H 241.929 -3.20311 2.73823 0
M  V30 2559 H 240.653 -2.88122 1.53796 0
M  V30 2560 H 239.312 -1.64551 3.27595 0
M  V30 2561 H 238.96 -4.09582 2.91979 0
M  V30 2562 H 238.66 -3.63732 4.6149 0
M  V30 2563 H 240.184 -4.45806 4.1724 0
M  V30 2564 H 241.598 -2.42886 5.19307 0
M  V30 2565 H 239.995 -1.83343 5.71407 0
M  V30 2566 H 241.065 -0.76528 4.78823 0
M  V30 2567 N 242.408 -1.52605 -0.393616 0
M  V30 2568 C 243.355 -1.77055 -1.48054 0
M  V30 2569 C 244.325 -0.61358 -1.54352 0
M  V30 2570 O 245.51 -0.852806 -1.70681 0
M  V30 2571 C 242.65 -1.94108 -2.85335 0
M  V30 2572 C 241.763 -3.21792 -2.88226 0
M  V30 2573 C 240.898 -3.29188 -4.16904 0
M  V30 2574 C 239.937 -4.51013 -4.13828 0
M  V30 2575 N 239.074 -4.55716 -5.34105 0
M  V30 2576 H 243.914 -2.69815 -1.26506 0
M  V30 2577 H 241.451 -1.33683 -0.61379 0
M  V30 2578 H 243.409 -2.01979 -3.65049 0
M  V30 2579 H 242.039 -1.04713 -3.05344 0
M  V30 2580 H 241.091 -3.23015 -2.00911 0
M  V30 2581 H 242.403 -4.11557 -2.8182 0
M  V30 2582 H 241.557 -3.36216 -5.05018 0
M  V30 2583 H 240.296 -2.37389 -4.26026 0
M  V30 2584 H 239.301 -4.44115 -3.24102 0
M  V30 2585 H 240.526 -5.44123 -4.06333 0
M  V30 2586 H 238.472 -3.66807 -5.43865 0
M  V30 2587 H 238.389 -5.39346 -5.29756 0
M  V30 2588 H 239.657 -4.66993 -6.2413 0
M  V30 2589 N 243.887 0.651787 -1.4349 0
M  V30 2590 C 245.164 1.40909 -1.35661 0
M  V30 2591 C 245.544 2.11099 -0.00511733 0
M  V30 2592 O 244.892 2.04892 1.0115 0
M  V30 2593 C 245.102 2.3926 -2.54078 0
M  V30 2594 C 246.45 3.03217 -2.97228 0
M  V30 2595 O 247.474 2.49588 -2.54135 0
M  V30 2596 O 246.333 4.00455 -3.71885 0
M  V30 2597 H 243.427 0.629625 -0.536191 0
M  V30 2598 H 245.973 0.678575 -1.55542 0
M  V30 2599 H 244.745 1.86352 -3.44076 0
M  V30 2600 H 244.368 3.1976 -2.36303 0
M  V30 2601 N 245.365 1.30045 0.890287 0
M  V30 2602 C 246.612 1.18561 1.64163 0
M  V30 2603 C 246.94 -0.260852 1.92743 0
M  V30 2604 O 246.195 -1.20376 1.54299 0
M  V30 2605 C 246.494 1.95409 2.99249 0
M  V30 2606 C 246.16 3.45066 2.90242 0
M  V30 2607 C 244.822 3.85878 2.87492 0
M  V30 2608 C 247.174 4.4039 2.78758 0
M  V30 2609 C 244.502 5.20314 2.7109 0
M  V30 2610 C 246.854 5.74928 2.63894 0
M  V30 2611 C 245.518 6.14986 2.59516 0
M  V30 2612 H 244.788 0.433846 0.600715 0
M  V30 2613 H 247.435 1.61088 1.03552 0
M  V30 2614 H 245.74 1.45501 3.63781 0
M  V30 2615 H 247.437 1.8392 3.56334 0
M  V30 2616 H 244.027 3.12631 2.93189 0
M  V30 2617 H 248.211 4.09806 2.79952 0
M  V30 2618 H 243.467 5.50449 2.66112 0
M  V30 2619 H 247.641 6.48434 2.53981 0
M  V30 2620 H 245.268 7.19104 2.46565 0
M  V30 2621 N 246.843 -1.10192 1.12674 0
M  V30 2622 C 247.806 -2.14786 0.799979 0
M  V30 2623 C 248.806 -1.59711 -0.18685 0
M  V30 2624 O 249.996 -1.74156 0.0392558 0
M  V30 2625 C 247.128 -3.40374 0.189228 0
M  V30 2626 H 248.321 -2.45203 1.72671 0
M  V30 2627 H 245.874 -1.25597 0.930326 0
M  V30 2628 H 246.609 -3.15577 -0.747107 0
M  V30 2629 H 246.394 -3.81637 0.899766 0
M  V30 2630 H 247.884 -4.17594 -0.0228143 0
M  V30 2631 N 248.321 -0.919034 -1.28029 0
M  V30 2632 C 249.569 -0.553838 -1.94363 0
M  V30 2633 C 249.89 0.906357 -1.72656 0
M  V30 2634 O 249.16 1.64143 -1.0693 0
M  V30 2635 H 247.74 -0.201834 -0.719216 0
M  V30 2636 H 250.402 -1.16954 -1.55909 0
M  V30 2637 H 249.498 -0.752758 -3.02886 0
M  V30 2638 N 249.799 1.42003 -0.683588 0
M  V30 2639 C 250.747 2.326 0.000815408 0
M  V30 2640 C 251.741 1.50308 0.781278 0
M  V30 2641 O 252.947 1.66322 0.688251 0
M  V30 2642 H 249.322 0.751758 0.0190616 0
M  V30 2643 H 251.293 2.88011 -0.780528 0
M  V30 2644 C 250.042 3.34978 0.93195 0
M  V30 2645 H 249.365 3.98345 0.340817 0
M  V30 2646 H 250.805 4.00936 1.37936 0
M  V30 2647 C 249.264 2.67925 2.04249 0
M  V30 2648 O 249.794 2.51788 3.12995 0
M  V30 2649 N 248 2.2681 1.81675 0
M  V30 2650 H 247.547 2.40135 0.932363 0
M  V30 2651 H 247.505 1.8228 2.56167 0
M  V30 2652 N 251.277 0.427512 1.51691 0
M  V30 2653 C 252.207 -0.3796 2.30394 0
M  V30 2654 C 253.188 -1.02982 1.35384 0
M  V30 2655 O 254.373 -1.03534 1.643 0
M  V30 2656 C 251.503 -1.48649 3.1388 0
M  V30 2657 C 250.457 -0.960294 4.17088 0
M  V30 2658 C 249.783 -2.16219 4.89033 0
M  V30 2659 C 251.083 -0.00153679 5.223 0
M  V30 2660 H 252.777 0.277164 2.98114 0
M  V30 2661 H 250.323 0.134739 1.43368 0
M  V30 2662 H 252.276 -2.05826 3.67714 0
M  V30 2663 H 251 -2.1714 2.43962 0
M  V30 2664 H 249.659 -0.410806 3.64291 0
M  V30 2665 H 249.307 -2.83307 4.15628 0
M  V30 2666 H 249.007 -1.81654 5.58816 0
M  V30 2667 H 250.531 -2.73968 5.45687 0
M  V30 2668 H 251.945 -0.482687 5.71264 0
M  V30 2669 H 250.342 0.256199 5.99553 0
M  V30 2670 H 251.412 0.938174 4.75738 0
M  V30 2671 N 252.755 -1.56801 0.158532 0
M  V30 2672 C 253.985 -2.00568 -0.495583 0
M  V30 2673 C 254.393 -1.03774 -1.58201 0
M  V30 2674 O 253.736 -0.0285797 -1.83678 0
M  V30 2675 C 253.798 -3.40768 -1.14532 0
M  V30 2676 C 253.462 -4.56553 -0.202101 0
M  V30 2677 C 254.459 -5.16714 0.574675 0
M  V30 2678 C 252.144 -5.02197 -0.101648 0
M  V30 2679 C 254.138 -6.20939 1.43924 0
M  V30 2680 C 251.825 -6.06274 0.766508 0
M  V30 2681 C 252.823 -6.65515 1.53555 0
M  V30 2682 O 252.511 -7.67575 2.38922 0
M  V30 2683 H 252.243 -0.662893 -0.13247 0
M  V30 2684 H 254.797 -2.03829 0.253559 0
M  V30 2685 H 253.027 -3.34381 -1.94233 0
M  V30 2686 H 254.716 -3.6857 -1.70033 0
M  V30 2687 H 255.482 -4.82341 0.507167 0
M  V30 2688 H 251.361 -4.55807 -0.689994 0
M  V30 2689 H 254.905 -6.67107 2.03996 0
M  V30 2690 H 250.802 -6.40073 0.835266 0
M  V30 2691 H 251.57 -7.84844 2.32296 0
M  V30 2692 N 254.233 0.115231 -1.57178 0
M  V30 2693 C 255.183 1.14707 -1.97044 0
M  V30 2694 C 256.167 1.36866 -0.845957 0
M  V30 2695 O 257.359 1.37895 -1.10968 0
M  V30 2696 C 254.488 2.47266 -2.38148 0
M  V30 2697 C 253.574 2.28566 -3.57237 0
M  V30 2698 N 253.965 1.79685 -4.72807 0
M  V30 2699 C 252.263 2.59208 -3.62943 0
M  V30 2700 C 252.964 1.74781 -5.54821 0
M  V30 2701 N 251.94 2.19264 -4.97417 0
M  V30 2702 H 255.742 0.761754 -2.83857 0
M  V30 2703 H 253.256 0.322928 -1.59157 0
M  V30 2704 H 255.253 3.219 -2.64927 0
M  V30 2705 H 253.913 2.86552 -1.52702 0
M  V30 2706 H 254.924 1.49177 -4.9595 0
M  V30 2707 H 251.601 3.02154 -2.88113 0
M  V30 2708 H 252.991 1.38212 -6.57531 0
M  V30 2709 N 255.711 1.52812 0.385517 0
M  V30 2710 C 256.939 1.71907 1.15133 0
M  V30 2711 C 257.354 0.439004 1.83625 0
M  V30 2712 O 256.711 -0.586765 1.7281 0
M  V30 2713 C 256.762 2.87099 2.19673 0
M  V30 2714 O 256.483 4.10151 1.53973 0
M  V30 2715 C 257.984 3.17902 3.08955 0
M  V30 2716 H 255.204 0.575479 0.345057 0
M  V30 2717 H 257.748 1.99476 0.45052 0
M  V30 2718 H 255.903 2.61982 2.85384 0
M  V30 2719 H 256.317 4.74514 2.23465 0
M  V30 2720 H 257.791 4.01959 3.7833 0
M  V30 2721 H 258.268 2.3243 3.72657 0
M  V30 2722 H 258.874 3.44871 2.48885 0
M  V30 2723 N 257.189 -0.644168 1.43834 0
M  V30 2724 C 258.437 -1.40117 1.45642 0
M  V30 2725 C 258.758 -1.94814 0.0852413 0
M  V30 2726 O 258.028 -1.74988 -0.880688 0
M  V30 2727 H 256.608 -0.52005 0.536243 0
M  V30 2728 H 259.27 -0.7591 1.7951 0
M  V30 2729 H 258.366 -2.23902 2.17427 0
M  V30 2730 N 258.668 -1.30515 -0.883378 0
M  V30 2731 C 259.616 -1.16941 -2.01066 0
M  V30 2732 C 260.61 -0.0809148 -1.69207 0
M  V30 2733 O 261.816 -0.241877 -1.78367 0
M  V30 2734 H 258.191 -0.361705 -0.659298 0
M  V30 2735 H 260.162 -2.12344 -2.09649 0
M  V30 2736 C 258.911 -0.879694 -3.36388 0
M  V30 2737 H 258.234 -1.70936 -3.61415 0
M  V30 2738 H 259.674 -0.82483 -4.159 0
M  V30 2739 C 258.133 0.417409 -3.34304 0
M  V30 2740 O 258.663 1.43843 -3.75063 0
M  V30 2741 N 256.869 0.429141 -2.87414 0
M  V30 2742 H 256.416 -0.402222 -2.5444 0
M  V30 2743 H 256.374 1.29696 -2.86403 0
M  V30 2744 N 260.146 1.09593 -1.13257 0
M  V30 2745 C 261.392 1.82181 -0.904521 0
M  V30 2746 C 261.747 1.83967 0.563358 0
M  V30 2747 O 261.04 1.29566 1.41149 0
M  V30 2748 C 261.234 3.27802 -1.42411 0
M  V30 2749 C 261.063 3.40201 -2.94097 0
M  V30 2750 C 259.833 3.52104 -3.62424 0
M  V30 2751 C 262.031 3.32875 -3.92044 0
M  V30 2752 N 260.013 3.53169 -5.0214 0
M  V30 2753 C 261.384 3.40789 -5.17941 0
M  V30 2754 C 263.439 3.16531 -3.84334 0
M  V30 2755 C 262.142 3.34042 -6.37031 0
M  V30 2756 C 264.168 3.11109 -5.02956 0
M  V30 2757 C 263.53 3.19614 -6.27715 0
M  V30 2758 H 259.629 0.681015 -0.384373 0
M  V30 2759 H 262.213 1.3099 -1.44048 0
M  V30 2760 H 260.384 3.77466 -0.915086 0
M  V30 2761 H 262.116 3.88393 -1.13722 0
M  V30 2762 H 258.871 3.5548 -3.12939 0
M  V30 2763 H 259.295 3.57291 -5.75041 0
M  V30 2764 H 263.937 3.08827 -2.88766 0
M  V30 2765 H 261.655 3.4051 -7.32857 0
M  V30 2766 H 265.241 2.99601 -4.98729 0
M  V30 2767 H 264.121 3.15432 -7.17964 0
M  V30 2768 N 261.624 0.925811 1.2754 0
M  V30 2769 C 263.035 0.610102 1.7645 0
M  V30 2770 C 263.386 -0.874723 1.75622 0
M  V30 2771 O 262.511 -1.68444 1.35851 0
M  V30 2772 C 263.106 1.10073 3.20421 0
M  V30 2773 C 261.665 0.835723 3.67005 0
M  V30 2774 C 260.812 1.26054 2.46993 0
M  V30 2775 H 263.763 1.10579 1.13833 0
M  V30 2776 H 263.784 0.447557 3.77859 0
M  V30 2777 H 263.296 2.18143 3.20991 0
M  V30 2778 H 261.397 -0.231249 3.71882 0
M  V30 2779 H 261.51 1.45193 4.56569 0
M  V30 2780 H 259.874 0.679111 2.45479 0
M  V30 2781 H 260.657 2.34984 2.50275 0
M  V30 2782 N 263.102 -1.41638 0.69111 0
M  V30 2783 C 264.052 -2.28 -0.000107832 0
M  V30 2784 C 265.036 -1.41964 -0.757304 0
M  V30 2785 O 266.228 -1.65274 -0.633532 0
M  V30 2786 C 263.357 -3.30209 -0.938983 0
M  V30 2787 C 262.443 -4.23725 -0.17827 0
M  V30 2788 N 262.834 -4.99017 0.825563 0
M  V30 2789 C 261.132 -4.44071 -0.414392 0
M  V30 2790 C 261.833 -5.67431 1.28052 0
M  V30 2791 N 260.809 -5.40197 0.607304 0
M  V30 2792 H 264.611 -2.83644 0.769617 0
M  V30 2793 H 262.125 -1.53797 0.521562 0
M  V30 2794 H 264.122 -3.90898 -1.44929 0
M  V30 2795 H 262.782 -2.76126 -1.70836 0
M  V30 2796 H 263.793 -5.03671 1.20566 0
M  V30 2797 H 260.47 -4.01004 -1.162 0
M  V30 2798 H 261.86 -6.37801 2.11327 0
M  V30 2799 N 264.58 -0.43555 -1.51462 0
M  V30 2800 C 265.49 0.383001 -2.31453 0
M  V30 2801 C 266.506 1.02931 -1.4029 0
M  V30 2802 O 267.682 1.02507 -1.73362 0
M  V30 2803 C 264.747 1.47043 -3.13973 0
M  V30 2804 C 263.808 0.844433 -4.20913 0
M  V30 2805 C 263.041 1.88004 -4.9949 0
M  V30 2806 O 263.264 3.10199 -4.78678 0
M  V30 2807 O 262.198 1.47157 -5.83634 0
M  V30 2808 H 266.024 -0.269964 -3.02498 0
M  V30 2809 H 263.609 -0.19813 -1.4808 0
M  V30 2810 H 265.491 2.10113 -3.65281 0
M  V30 2811 H 264.166 2.10751 -2.45695 0
M  V30 2812 H 263.073 0.175729 -3.73687 0
M  V30 2813 H 264.406 0.250869 -4.9156 0
M  V30 2814 N 266.058 1.56714 -0.166846 0
M  V30 2815 C 267.469 1.83378 0.350646 0
M  V30 2816 C 267.82 1.08646 1.63372 0
M  V30 2817 O 266.945 0.338058 2.13743 0
M  V30 2818 C 267.54 3.32643 0.642963 0
M  V30 2819 C 266.099 3.59818 1.10491 0
M  V30 2820 C 265.246 2.76954 0.138411 0
M  V30 2821 H 268.197 1.53803 -0.391193 0
M  V30 2822 H 268.218 3.49878 1.49551 0
M  V30 2823 H 267.73 3.87007 -0.291055 0
M  V30 2824 H 265.831 3.1086 2.05418 0
M  V30 2825 H 265.944 4.68178 1.01716 0
M  V30 2826 H 264.308 2.4666 0.634911 0
M  V30 2827 H 265.091 3.34097 -0.789549 0
M  V30 2828 N 267.536 -0.106894 1.57237 0
M  V30 2829 C 268.782 -0.81373 1.85759 0
M  V30 2830 C 269.115 -1.78952 0.754315 0
M  V30 2831 O 268.39 -1.93029 -0.23879 0
M  V30 2832 C 268.673 -1.55293 3.24894 0
M  V30 2833 C 268.526 -0.595929 4.45835 0
M  V30 2834 C 269.845 -2.5063 3.61763 0
M  V30 2835 H 266.964 -0.294369 0.67566 0
M  V30 2836 H 269.606 -0.0776472 1.89841 0
M  V30 2837 H 267.756 -2.1804 3.21544 0
M  V30 2838 H 269.428 0.0236262 4.61294 0
M  V30 2839 H 267.671 0.0916191 4.33703 0
M  V30 2840 H 268.342 -1.15004 5.39887 0
M  V30 2841 H 270.818 -1.97982 3.65981 0
M  V30 2842 H 269.694 -2.99376 4.60071 0
M  V30 2843 H 269.955 -3.3385 2.89821 0
M  V30 2844 N 269.014 -1.53014 -0.377408 0
M  V30 2845 C 270.291 -1.59215 -1.13622 0
M  V30 2846 C 270.671 -0.392407 -2.07421 0
M  V30 2847 O 270.019 0.618342 -2.19975 0
M  V30 2848 C 270.229 -2.93669 -1.88573 0
M  V30 2849 C 271.577 -3.47822 -2.43526 0
M  V30 2850 O 272.601 -2.9562 -1.98715 0
M  V30 2851 O 271.46 -4.39055 -3.25412 0
M  V30 2852 H 268.554 -0.642625 -0.52054 0
M  V30 2853 H 271.1 -1.65353 -0.381625 0
M  V30 2854 H 269.872 -3.7243 -1.20048 0
M  V30 2855 H 269.495 -2.90968 -2.70968 0
M  V30 2856 N 270.492 0.636531 -1.44174 0
M  V30 2857 C 271.739 1.39619 -1.46672 0
M  V30 2858 C 272.067 1.94257 -0.0972691 0
M  V30 2859 O 271.322 1.73768 0.900175 0
M  V30 2860 C 271.621 2.58309 -2.47005 0
M  V30 2861 C 271.287 2.21992 -3.92467 0
M  V30 2862 C 269.949 2.118 -4.32081 0
M  V30 2863 C 272.301 1.9321 -4.84065 0
M  V30 2864 C 269.629 1.71007 -5.61225 0
M  V30 2865 C 271.981 1.53911 -6.13591 0
M  V30 2866 C 270.645 1.42257 -6.52165 0
M  V30 2867 H 269.915 0.510902 -0.536712 0
M  V30 2868 H 272.562 0.722328 -1.77355 0
M  V30 2869 H 270.867 3.30903 -2.09786 0
M  V30 2870 H 272.564 3.16533 -2.46186 0
M  V30 2871 H 269.154 2.30841 -3.61124 0
M  V30 2872 H 273.338 1.99997 -4.54219 0
M  V30 2873 H 268.594 1.60583 -5.89935 0
M  V30 2874 H 272.768 1.30677 -6.8403 0
M  V30 2875 H 270.395 1.10419 -7.52138 0
M  V30 2876 N 271.97 1.30982 0.876444 0
M  V30 2877 C 273.195 1.23373 1.66715 0
M  V30 2878 C 273.62 -0.19885 1.87046 0
M  V30 2879 O 272.978 -1.1427 1.40756 0
M  V30 2880 C 273.026 1.97644 3.01611 0
M  V30 2881 O 272.13 1.30935 3.91062 0
M  V30 2882 H 271.471 0.426279 0.509099 0
M  V30 2883 H 274.001 1.72944 1.09323 0
M  V30 2884 H 274.011 2.06992 3.51594 0
M  V30 2885 H 272.686 3.01829 2.86133 0
M  V30 2886 H 271.263 1.29996 3.49507 0
M  V30 2887 N 273.449 -1.08991 1.13837 0
M  V30 2888 C 274.697 -1.80899 0.901098 0
M  V30 2889 C 275.018 -1.86356 -0.574134 0
M  V30 2890 O 274.288 -1.35235 -1.41733 0
M  V30 2891 H 272.868 -0.669966 0.330386 0
M  V30 2892 H 275.53 -1.318 1.43578 0
M  V30 2893 H 274.626 -2.83929 1.29578 0
M  V30 2894 N 274.927 -0.932562 -1.27047 0
M  V30 2895 C 275.859 -0.392734 -2.2581 0
M  V30 2896 C 276.872 0.479241 -1.55586 0
M  V30 2897 O 278.061 0.291078 -1.76111 0
M  V30 2898 C 275.161 0.455456 -3.35826 0
M  V30 2899 C 274.334 -0.398355 -4.35582 0
M  V30 2900 C 273.393 0.387985 -5.24768 0
M  V30 2901 O 272.419 -0.206003 -5.68827 0
M  V30 2902 N 273.621 1.68664 -5.55457 0
M  V30 2903 H 276.386 -1.24173 -2.72766 0
M  V30 2904 H 273.947 -0.800511 -1.40725 0
M  V30 2905 H 275.939 0.988692 -3.92437 0
M  V30 2906 H 274.509 1.20522 -2.88432 0
M  V30 2907 H 273.729 -1.11286 -3.78165 0
M  V30 2908 H 275.017 -0.981889 -4.99236 0
M  V30 2909 H 274.415 2.19147 -5.21528 0
M  V30 2910 H 272.972 2.1663 -6.14748 0
M  V30 2911 N 276.405 1.4127 -0.698611 0
M  V30 2912 C 277.821 1.55241 -0.370462 0
M  V30 2913 C 278.021 1.67351 1.12231 0
M  V30 2914 O 277.077 1.65363 1.90818 0
M  V30 2915 C 278.39 2.78997 -1.12165 0
M  V30 2916 C 279.938 2.92797 -1.1063 0
M  V30 2917 C 280.413 4.19445 -1.8393 0
M  V30 2918 N 281.904 4.26409 -1.80914 0
M  V30 2919 C 282.639 5.23271 -2.34467 0
M  V30 2920 N 282.135 6.26145 -2.96504 0
M  V30 2921 N 283.928 5.15232 -2.24706 0
M  V30 2922 H 276.079 1.31654 -1.66676 0
M  V30 2923 H 278.342 0.635393 -0.703548 0
M  V30 2924 H 278.048 2.76268 -2.17644 0
M  V30 2925 H 277.922 3.70606 -0.702209 0
M  V30 2926 H 280.309 2.95039 -0.0597713 0
M  V30 2927 H 280.39 2.02353 -1.56483 0
M  V30 2928 H 280.034 4.17964 -2.88563 0
M  V30 2929 H 279.964 5.08866 -1.35509 0
M  V30 2930 H 282.455 3.527 -1.35687 0
M  V30 2931 H 282.768 6.96451 -3.34927 0
M  V30 2932 H 281.113 6.26638 -3.00583 0
M  V30 2933 H 284.304 4.33789 -1.7591 0
M  V30 2934 H 284.477 5.90552 -2.66745 0
M  V30 2935 N 277.883 0.443576 1.51229 0
M  V30 2936 C 279.129 -0.120975 2.02439 0
M  V30 2937 C 279.462 -1.41815 1.32674 0
M  V30 2938 O 278.737 -1.89373 0.443622 0
M  V30 2939 C 279.02 -0.333291 3.58554 0
M  V30 2940 C 278.873 0.982968 4.38928 0
M  V30 2941 C 280.192 -1.10028 4.26124 0
M  V30 2942 H 277.311 -0.0424923 0.735774 0
M  V30 2943 H 279.953 0.583794 1.80809 0
M  V30 2944 H 278.103 -0.933614 3.77115 0
M  V30 2945 H 279.775 1.61775 4.32003 0
M  V30 2946 H 278.018 1.58611 4.03763 0
M  V30 2947 H 278.689 0.788379 5.46341 0
M  V30 2948 H 281.165 -0.591711 4.11871 0
M  V30 2949 H 280.041 -1.21761 5.35225 0
M  V30 2950 H 280.302 -2.12996 3.87408 0
M  V30 2951 N 279.361 -1.56624 0.175154 0
M  V30 2952 C 280.609 -1.96609 -0.467885 0
M  V30 2953 C 280.93 -1.06238 -1.63519 0
M  V30 2954 O 280.2 -0.129523 -1.95471 0
M  V30 2955 H 278.78 -0.726008 -0.175845 0
M  V30 2956 H 281.442 -1.93195 0.257234 0
M  V30 2957 H 280.538 -3.00989 -0.825342 0
M  V30 2958 N 280.839 0.0985539 -1.57292 0
M  V30 2959 C 282.085 0.803867 -1.86188 0
M  V30 2960 C 282.418 1.78549 -0.763794 0
M  V30 2961 O 281.693 1.93153 0.22855 0
M  V30 2962 C 281.976 1.53568 -3.25713 0
M  V30 2963 C 281.829 0.572277 -4.46145 0
M  V30 2964 C 283.148 2.48708 -3.63087 0
M  V30 2965 H 280.267 0.290781 -0.677211 0
M  V30 2966 H 282.909 0.0675783 -1.8988 0
M  V30 2967 H 281.059 2.16332 -3.22696 0
M  V30 2968 H 282.731 -0.0480894 -4.61275 0
M  V30 2969 H 280.974 -0.114618 -4.33649 0
M  V30 2970 H 281.645 1.12139 -5.40489 0
M  V30 2971 H 284.121 1.96039 -3.67026 0
M  V30 2972 H 282.997 2.96932 -4.61652 0
M  V30 2973 H 283.258 3.32309 -2.91588 0
M  V30 2974 N 282.317 1.53212 0.369288 0
M  V30 2975 C 283.566 1.68436 1.10961 0
M  V30 2976 C 283.879 0.440738 1.9057 0
M  V30 2977 O 285.085 0.473446 2.6734 0
M  V30 2978 C 283.541 2.97744 2.0218 0
M  V30 2979 C 283.149 4.29355 1.279 0
M  V30 2980 C 284.893 3.22334 2.76226 0
M  V30 2981 C 282.8 5.49755 2.17999 0
M  V30 2982 H 281.73 0.627568 0.41794 0
M  V30 2983 H 284.381 1.79713 0.370884 0
M  V30 2984 H 282.763 2.8026 2.79768 0
M  V30 2985 H 283.937 4.57458 0.554007 0
M  V30 2986 H 282.252 4.11179 0.657311 0
M  V30 2987 H 284.849 4.09471 3.43857 0
M  V30 2988 H 285.192 2.38238 3.41392 0
M  V30 2989 H 285.725 3.40475 2.05723 0
M  V30 2990 H 282.464 6.36318 1.57417 0
M  V30 2991 H 281.984 5.25937 2.88359 0
M  V30 2992 H 283.663 5.84401 2.77641 0
M  V30 2993 N 283.795 -0.628877 1.44509 0
M  V30 2994 C 285.043 -1.38565 1.4712 0
M  V30 2995 C 285.364 -1.94712 0.105899 0
M  V30 2996 O 284.634 -1.75912 -0.862079 0
M  V30 2997 H 283.214 -0.514333 0.541729 0
M  V30 2998 H 285.876 -0.740018 1.80305 0
M  V30 2999 H 284.972 -2.21583 2.19789 0
M  V30 3000 N 285.273 -1.31445 -0.869486 0
M  V30 3001 C 286.501 -1.24122 -1.65534 0
M  V30 3002 C 286.916 0.193387 -1.87807 0
M  V30 3003 O 286.273 1.12557 -1.43656 0
M  V30 3004 C 286.324 -1.98229 -3.02304 0
M  V30 3005 O 286.045 -3.3609 -2.81026 0
M  V30 3006 C 287.546 -1.97751 -3.96749 0
M  V30 3007 H 284.766 -0.428868 -0.516055 0
M  V30 3008 H 287.31 -1.73328 -1.08525 0
M  V30 3009 H 285.465 -1.52782 -3.56001 0
M  V30 3010 H 285.879 -3.7383 -3.67902 0
M  V30 3011 H 287.353 -2.54114 -4.90031 0
M  V30 3012 H 287.83 -0.960137 -4.28577 0
M  V30 3013 H 288.436 -2.43079 -3.48988 0
M  V30 3014 N 286.751 1.08385 -1.14413 0
M  V30 3015 C 287.999 1.80419 -0.910679 0
M  V30 3016 C 288.32 1.86658 0.564243 0
M  V30 3017 O 287.59 1.35985 1.41014 0
M  V30 3018 H 286.17 0.668204 -0.333934 0
M  V30 3019 H 288.832 1.31037 -1.44275 0
M  V30 3020 H 287.928 2.83238 -1.31082 0
M  V30 3021 N 288.23 0.939286 1.26551 0
M  V30 3022 C 289.455 0.602008 1.98471 0
M  V30 3023 C 289.88 -0.815624 1.69497 0
M  V30 3024 O 289.238 -1.54912 0.941905 0
M  V30 3025 C 289.286 0.848407 3.50477 0
M  V30 3026 O 288.39 -0.0804009 4.12322 0
M  V30 3027 H 287.731 0.23049 0.622712 0
M  V30 3028 H 290.261 1.2617 1.61066 0
M  V30 3029 H 290.271 0.768553 4.00696 0
M  V30 3030 H 288.946 1.88171 3.70897 0
M  V30 3031 H 287.523 0.0503508 3.72866 0
M  V30 3032 N 289.708 -1.40897 0.706093 0
M  V30 3033 C 290.933 -2.05895 0.249435 0
M  V30 3034 C 291.358 -1.52823 -1.09666 0
M  V30 3035 O 290.716 -0.659589 -1.68876 0
M  V30 3036 C 290.764 -3.59872 0.22904 0
M  V30 3037 O 289.868 -4.04708 -0.792784 0
M  V30 3038 H 289.209 -0.653206 0.119241 0
M  V30 3039 H 291.739 -1.80471 0.96391 0
M  V30 3040 H 291.749 -4.07951 0.0634791 0
M  V30 3041 H 290.424 -3.97866 1.21141 0
M  V30 3042 H 289.001 -3.68111 -0.59572 0
M  V30 3043 N 291.186 -0.45159 -1.50991 0
M  V30 3044 C 292.434 0.109857 -2.01801 0
M  V30 3045 C 292.755 1.41958 -1.3369 0
M  V30 3046 O 292.025 1.9003 -0.475951 0
M  V30 3047 H 290.605 0.0435884 -0.745727 0
M  V30 3048 H 293.267 -0.597557 -1.85514 0
M  V30 3049 H 292.363 0.275489 -3.10882 0
M  V30 3050 N 292.664 1.56529 -0.183458 0
M  V30 3051 C 293.913 1.96419 0.458511 0
M  V30 3052 C 294.226 1.0727 1.63562 0
M  V30 3053 O 295.432 1.36893 2.34462 0
M  V30 3054 C 293.888 3.49298 0.867122 0
M  V30 3055 C 293.496 4.47092 -0.285057 0
M  V30 3056 C 295.24 3.97983 1.47683 0
M  V30 3057 C 293.147 5.91225 0.143862 0
M  V30 3058 H 292.077 0.733394 0.175071 0
M  V30 3059 H 294.728 1.81448 -0.273624 0
M  V30 3060 H 293.11 3.59731 1.65559 0
M  V30 3061 H 294.284 4.48383 -1.0625 0
M  V30 3062 H 292.599 4.08535 -0.805503 0
M  V30 3063 H 295.196 5.03134 1.80999 0
M  V30 3064 H 295.539 3.41618 2.37914 0
M  V30 3065 H 296.072 3.90617 0.752562 0
M  V30 3066 H 292.811 6.5149 -0.723974 0
M  V30 3067 H 292.331 5.93214 0.886413 0
M  V30 3068 H 294.01 6.44362 0.583628 0
M  V30 3069 N 294.142 -0.090211 1.57342 0
M  V30 3070 C 295.074 -1.13541 1.99101 0
M  V30 3071 C 296.087 -1.3604 0.894258 0
M  V30 3072 O 297.276 -1.34606 1.17233 0
M  V30 3073 C 294.376 -2.49001 2.29895 0
M  V30 3074 C 293.549 -2.46712 3.61182 0
M  V30 3075 C 292.608 -3.64136 3.79857 0
M  V30 3076 O 291.634 -3.46405 4.51655 0
M  V30 3077 N 292.836 -4.83802 3.20806 0
M  V30 3078 H 295.601 -0.779942 2.89373 0
M  V30 3079 H 293.162 -0.279125 1.59476 0
M  V30 3080 H 295.154 -3.26166 2.39578 0
M  V30 3081 H 293.724 -2.76619 1.45605 0
M  V30 3082 H 292.944 -1.55058 3.62423 0
M  V30 3083 H 294.232 -2.42265 4.4742 0
M  V30 3084 H 293.63 -5.01112 2.62494 0
M  V30 3085 H 292.187 -5.58543 3.35966 0
M  V30 3086 N 295.62 -1.53406 -0.361157 0
M  V30 3087 C 296.866 -1.70054 -1.10496 0
M  V30 3088 C 297.199 -0.453278 -1.88836 0
M  V30 3089 O 296.474 0.5495 -1.86576 0
M  V30 3090 C 296.757 -2.95317 -2.06058 0
M  V30 3091 C 296.61 -4.3021 -1.31298 0
M  V30 3092 C 297.929 -3.16193 -3.06121 0
M  V30 3093 H 295.048 -0.618799 -0.400321 0
M  V30 3094 H 297.69 -1.86052 -0.385318 0
M  V30 3095 H 295.84 -2.81809 -2.67425 0
M  V30 3096 H 297.512 -4.55538 -0.726807 0
M  V30 3097 H 295.755 -4.29421 -0.614853 0
M  V30 3098 H 296.426 -5.14 -2.01265 0
M  V30 3099 H 298.902 -3.28916 -2.5486 0
M  V30 3100 H 297.778 -4.05266 -3.70204 0
M  V30 3101 H 298.039 -2.31676 -3.76535 0
M  V30 3102 N 297.098 0.621204 -1.44841 0
M  V30 3103 C 298.323 1.41244 -1.51871 0
M  V30 3104 C 298.748 1.87519 -0.147764 0
M  V30 3105 O 298.106 1.59334 0.865 0
M  V30 3106 C 298.154 2.60221 -2.49634 0
M  V30 3107 O 297.258 3.60395 -2.00473 0
M  V30 3108 H 296.599 0.42223 -0.512463 0
M  V30 3109 H 299.129 0.757305 -1.90069 0
M  V30 3110 H 299.139 3.0764 -2.67996 0
M  V30 3111 H 297.814 2.25887 -3.4921 0
M  V30 3112 H 296.391 3.19717 -1.91925 0
M  V30 3113 N 298.576 1.31904 0.862503 0
M  V30 3114 C 299.987 1.19803 1.43193 0
M  V30 3115 C 300.338 -0.192567 1.95253 0
M  V30 3116 O 299.463 -1.09081 1.86896 0
M  V30 3117 C 300.058 2.16883 2.60283 0
M  V30 3118 C 298.617 2.08692 3.13248 0
M  V30 3119 C 297.764 2.05691 1.85975 0
M  V30 3120 H 300.715 1.43846 0.670365 0
M  V30 3121 H 300.736 1.76278 3.37204 0
M  V30 3122 H 300.248 3.18083 2.22363 0
M  V30 3123 H 298.349 1.10713 3.55771 0
M  V30 3124 H 298.462 2.9815 3.75025 0
M  V30 3125 H 296.826 1.50814 2.05249 0
M  V30 3126 H 297.609 3.08659 1.50282 0
M  V30 3127 N 300.054 -1.07777 1.14986 0
M  V30 3128 C 300.986 -2.14769 0.800436 0
M  V30 3129 C 301.999 -1.61739 -0.185595 0
M  V30 3130 O 303.188 -1.78462 0.0370358 0
M  V30 3131 C 300.288 -3.38481 0.168533 0
M  V30 3132 C 299.461 -4.20876 1.1909 0
M  V30 3133 C 298.52 -5.22976 0.581575 0
M  V30 3134 O 297.546 -5.55388 1.24633 0
M  V30 3135 N 298.748 -5.76976 -0.638706 0
M  V30 3136 H 301.513 -2.45348 1.72118 0
M  V30 3137 H 299.074 -1.23645 1.04515 0
M  V30 3138 H 301.066 -4.03916 -0.251764 0
M  V30 3139 H 299.636 -3.05651 -0.655467 0
M  V30 3140 H 298.856 -3.51322 1.78791 0
M  V30 3141 H 300.144 -4.7274 1.88133 0
M  V30 3142 H 299.542 -5.52886 -1.19723 0
M  V30 3143 H 298.099 -6.44061 -1.00142 0
M  V30 3144 N 301.532 -0.945985 -1.26051 0
M  V30 3145 C 302.781 -0.591836 -1.92822 0
M  V30 3146 C 303.094 0.873956 -1.7499 0
M  V30 3147 O 304.3 1.33769 -2.36259 0
M  V30 3148 C 302.756 -1.00776 -3.45503 0
M  V30 3149 C 302.364 -2.4955 -3.7206 0
M  V30 3150 C 304.108 -0.725735 -4.1825 0
M  V30 3151 C 302.015 -2.84988 -5.18205 0
M  V30 3152 H 300.945 -0.217635 -0.721908 0
M  V30 3153 H 303.596 -1.14927 -1.43052 0
M  V30 3154 H 301.978 -0.378812 -3.94184 0
M  V30 3155 H 303.152 -3.1739 -3.34066 0
M  V30 3156 H 301.467 -2.75133 -3.12555 0
M  V30 3157 H 304.064 -0.966771 -5.25887 0
M  V30 3158 H 304.407 0.337639 -4.14929 0
M  V30 3159 H 304.94 -1.31463 -3.7545 0
M  V30 3160 H 301.679 -3.90307 -5.26631 0
M  V30 3161 H 301.199 -2.21813 -5.57278 0
M  V30 3162 H 302.878 -2.73712 -5.86252 0
M  V30 3163 N 303.011 1.40521 -0.713556 0
M  V30 3164 C 303.974 2.29098 -0.0684347 0
M  V30 3165 C 304.974 1.45268 0.689472 0
M  V30 3166 O 306.164 1.66205 0.521677 0
M  V30 3167 C 303.296 3.28446 0.913024 0
M  V30 3168 H 304.489 2.87645 -0.84855 0
M  V30 3169 H 302.042 1.48809 -0.47809 0
M  V30 3170 H 302.777 2.74913 1.72027 0
M  V30 3171 H 302.562 3.90327 0.372472 0
M  V30 3172 H 304.052 3.94777 1.36165 0
M  V30 3173 N 304.489 0.459591 1.5075 0
M  V30 3174 C 305.436 -0.340524 2.28274 0
M  V30 3175 C 306.406 -0.997371 1.32822 0
M  V30 3176 O 307.591 -1.01202 1.61749 0
M  V30 3177 C 304.731 -1.42317 3.14388 0
M  V30 3178 C 303.844 -0.782251 4.24859 0
M  V30 3179 C 302.979 -1.84182 4.98247 0
M  V30 3180 C 302.018 -1.18053 6.00608 0
M  V30 3181 N 301.155 -2.18244 6.67319 0
M  V30 3182 H 305.995 0.326899 2.96202 0
M  V30 3183 H 303.532 0.173057 1.46078 0
M  V30 3184 H 305.49 -2.06241 3.62658 0
M  V30 3185 H 304.12 -2.05992 2.4853 0
M  V30 3186 H 303.172 -0.0307404 3.80388 0
M  V30 3187 H 304.484 -0.259663 4.98124 0
M  V30 3188 H 303.638 -2.55714 5.50177 0
M  V30 3189 H 302.377 -2.39819 4.24662 0
M  V30 3190 H 301.382 -0.450776 5.47949 0
M  V30 3191 H 302.607 -0.631202 6.7616 0
M  V30 3192 H 300.553 -2.72919 5.96533 0
M  V30 3193 H 300.47 -1.70938 7.36421 0
M  V30 3194 H 301.738 -2.89191 7.23871 0
M  V30 3195 N 305.967 -1.56429 0.191757 0
M  V30 3196 C 306.899 -2.16154 -0.762245 0
M  V30 3197 C 307.912 -1.12247 -1.17917 0
M  V30 3198 O 309.101 -1.39353 -1.11548 0
M  V30 3199 C 306.201 -2.70606 -2.04024 0
M  V30 3200 C 305.374 -3.99381 -1.78364 0
M  V30 3201 C 304.433 -4.38692 -2.90578 0
M  V30 3202 O 303.459 -5.06179 -2.6033 0
M  V30 3203 N 304.661 -4.01922 -4.18854 0
M  V30 3204 H 307.426 -2.98643 -0.251526 0
M  V30 3205 H 304.987 -1.61897 0.00967373 0
M  V30 3206 H 306.979 -2.93891 -2.78227 0
M  V30 3207 H 305.549 -1.9259 -2.46227 0
M  V30 3208 H 304.769 -3.84262 -0.879581 0
M  V30 3209 H 306.057 -4.83445 -1.58614 0
M  V30 3210 H 305.455 -3.47631 -4.46283 0
M  V30 3211 H 304.012 -4.30165 -4.89695 0
M  V30 3212 N 307.445 0.0818655 -1.57387 0
M  V30 3213 C 308.408 1.08265 -2.02018 0
M  V30 3214 C 309.408 1.32183 -0.915664 0
M  V30 3215 O 310.598 1.28073 -1.18081 0
M  V30 3216 C 307.73 2.42871 -2.39221 0
M  V30 3217 H 308.923 0.698204 -2.91659 0
M  V30 3218 H 306.476 0.327303 -1.52835 0
M  V30 3219 H 307.211 2.86167 -1.52575 0
M  V30 3220 H 306.996 2.26855 -3.19811 0
M  V30 3221 H 308.486 3.14826 -2.74362 0
M  V30 3222 N 308.923 1.53595 0.353017 0
M  V30 3223 C 309.886 1.80232 1.41594 0
M  V30 3224 C 310.886 0.673081 1.46035 0
M  V30 3225 O 312.076 0.941335 1.46576 0
M  V30 3226 C 309.208 1.93578 2.80607 0
M  V30 3227 H 310.401 2.75174 1.19244 0
M  V30 3228 H 307.954 1.44864 0.586872 0
M  V30 3229 H 308.689 1.00746 3.08254 0
M  V30 3230 H 308.474 2.75724 2.78781 0
M  V30 3231 H 309.964 2.15735 3.57558 0
M  V30 3232 N 310.401 -0.613514 1.45168 0
M  V30 3233 C 311.311 -1.75296 1.55912 0
M  V30 3234 C 312.327 -1.68244 0.443856 0
M  V30 3235 O 313.503 -1.88706 0.70371 0
M  V30 3236 C 310.568 -3.1174 1.5172 0
M  V30 3237 C 309.629 -3.30291 2.74238 0
M  V30 3238 C 308.862 -4.60226 2.70236 0
M  V30 3239 O 309.085 -5.42168 1.77229 0
M  V30 3240 O 308.019 -4.81361 3.61352 0
M  V30 3241 H 311.845 -1.69183 2.52212 0
M  V30 3242 H 309.43 -0.776886 1.27612 0
M  V30 3243 H 311.312 -3.93044 1.51968 0
M  V30 3244 H 309.987 -3.18357 0.585697 0
M  V30 3245 H 308.894 -2.48598 2.79553 0
M  V30 3246 H 310.227 -3.28547 3.66494 0
M  V30 3247 N 311.879 -1.3236 -0.855495 0
M  V30 3248 C 312.809 -1.23833 -1.97958 0
M  V30 3249 C 313.79 -0.122361 -1.69659 0
M  V30 3250 O 314.975 -0.30939 -1.9172 0
M  V30 3251 C 312.105 -0.959772 -3.33775 0
M  V30 3252 C 311.059 -2.03689 -3.76424 0
M  V30 3253 C 310.385 -1.61075 -5.09862 0
M  V30 3254 C 311.685 -3.4518 -3.9198 0
M  V30 3255 H 313.379 -2.1788 -2.0535 0
M  V30 3256 H 310.925 -1.04891 -0.986605 0
M  V30 3257 H 312.878 -0.886678 -4.11966 0
M  V30 3258 H 311.602 0.0163404 -3.26596 0
M  V30 3259 H 310.261 -2.10012 -3.00484 0
M  V30 3260 H 309.909 -0.622107 -4.99138 0
M  V30 3261 H 309.609 -2.33143 -5.39368 0
M  V30 3262 H 311.133 -1.55201 -5.90546 0
M  V30 3263 H 312.547 -3.4145 -4.60526 0
M  V30 3264 H 310.944 -4.1559 -4.32903 0
M  V30 3265 H 312.014 -3.84903 -2.94919 0
M  V30 3266 N 313.357 1.07166 -1.15556 0
M  V30 3267 C 314.604 1.79798 -0.931604 0
M  V30 3268 C 314.932 1.8682 0.54115 0
M  V30 3269 O 314.187 1.34942 1.41736 0
M  V30 3270 C 314.486 3.24707 -1.49332 0
M  V30 3271 C 314.152 3.37781 -2.98688 0
M  V30 3272 C 312.814 3.41057 -3.39461 0
M  V30 3273 C 315.166 3.40424 -3.94665 0
M  V30 3274 C 312.494 3.4458 -4.74849 0
M  V30 3275 C 314.846 3.45485 -5.29927 0
M  V30 3276 C 313.51 3.47039 -5.70193 0
M  V30 3277 H 312.78 0.657928 -0.340898 0
M  V30 3278 H 315.427 1.26091 -1.44129 0
M  V30 3279 H 313.732 3.81208 -0.904859 0
M  V30 3280 H 315.429 3.79486 -1.29582 0
M  V30 3281 H 312.019 3.35932 -2.66172 0
M  V30 3282 H 316.203 3.37113 -3.64237 0
M  V30 3283 H 311.459 3.44083 -5.05388 0
M  V30 3284 H 315.633 3.46476 -6.04092 0
M  V30 3285 H 313.26 3.49522 -6.75084 0
M  V30 3286 N 314.835 0.952656 1.25548 0
M  V30 3287 C 316.081 0.607272 1.93494 0
M  V30 3288 C 316.414 -0.853245 1.74452 0
M  V30 3289 O 315.689 -1.61194 1.08843 0
M  V30 3290 C 315.972 0.96435 3.46947 0
M  V30 3291 C 315.825 2.48045 3.75225 0
M  V30 3292 C 317.144 0.487987 4.37386 0
M  V30 3293 H 314.263 0.222096 0.702739 0
M  V30 3294 H 316.905 1.18895 1.48203 0
M  V30 3295 H 315.055 0.469361 3.85654 0
M  V30 3296 H 316.727 3.04905 3.46166 0
M  V30 3297 H 314.97 2.919 3.209 0
M  V30 3298 H 315.641 2.6808 4.82532 0
M  V30 3299 H 318.117 0.912558 4.0597 0
M  V30 3300 H 316.993 0.766547 5.43521 0
M  V30 3301 H 317.254 -0.612063 4.37843 0
M  V30 3302 N 316.313 -1.40141 0.720998 0
M  V30 3303 C 317.56 -2.00787 0.262842 0
M  V30 3304 C 317.888 -1.5718 -1.14563 0
M  V30 3305 O 317.143 -0.785391 -1.79249 0
M  V30 3306 C 317.442 -3.56165 0.296892 0
M  V30 3307 C 317.108 -4.19373 1.65641 0
M  V30 3308 C 315.77 -4.36352 2.02855 0
M  V30 3309 C 318.122 -4.54578 2.54968 0
M  V30 3310 C 315.45 -4.8582 3.28931 0
M  V30 3311 C 317.802 -5.05447 3.80402 0
M  V30 3312 C 316.466 -5.20635 4.17726 0
M  V30 3313 H 315.736 -0.734731 0.0961807 0
M  V30 3314 H 318.383 -1.67673 0.925093 0
M  V30 3315 H 316.688 -3.8922 -0.448932 0
M  V30 3316 H 318.385 -4.00929 -0.0755208 0
M  V30 3317 H 314.975 -4.06549 1.35704 0
M  V30 3318 H 319.159 -4.41091 2.27491 0
M  V30 3319 H 314.415 -4.95764 3.57811 0
M  V30 3320 H 318.589 -5.31663 4.49786 0
M  V30 3321 H 316.216 -5.58728 5.15487 0
M  V30 3322 N 317.792 -0.46758 -1.50504 0
M  V30 3323 C 318.724 0.364655 -2.26281 0
M  V30 3324 C 319.737 0.960151 -1.31472 0
M  V30 3325 O 320.926 0.849153 -1.57008 0
M  V30 3326 C 318.026 1.52509 -3.02645 0
M  V30 3327 C 317.199 1.04302 -4.24782 0
M  V30 3328 C 316.258 2.07709 -4.8347 0
M  V30 3329 O 315.284 1.65913 -5.44483 0
M  V30 3330 N 316.486 3.40485 -4.70159 0
M  V30 3331 H 319.251 -0.28495 -2.98342 0
M  V30 3332 H 316.812 -0.298163 -1.59131 0
M  V30 3333 H 318.804 2.21371 -3.38787 0
M  V30 3334 H 317.374 2.07945 -2.33404 0
M  V30 3335 H 316.594 0.180393 -3.93787 0
M  V30 3336 H 317.882 0.698798 -5.03978 0
M  V30 3337 H 317.28 3.77155 -4.21629 0
M  V30 3338 H 315.837 4.05156 -5.1058 0
M  V30 3339 N 319.27 1.56325 -0.20005 0
M  V30 3340 C 320.686 1.58839 0.155716 0
M  V30 3341 C 320.886 1.21636 1.60645 0
M  V30 3342 O 319.942 0.941437 2.34293 0
M  V30 3343 C 321.255 3.0032 -0.151124 0
M  V30 3344 C 322.803 3.12866 -0.0916284 0
M  V30 3345 C 323.278 4.56488 -0.371845 0
M  V30 3346 N 324.769 4.62089 -0.320641 0
M  V30 3347 C 325.504 5.71116 -0.511243 0
M  V30 3348 N 325 6.88592 -0.762461 0
M  V30 3349 N 326.793 5.60335 -0.445157 0
M  V30 3350 H 318.944 1.78788 -1.14668 0
M  V30 3351 H 321.207 0.829996 -0.458051 0
M  V30 3352 H 320.913 3.32117 -1.15721 0
M  V30 3353 H 320.787 3.73257 0.543986 0
M  V30 3354 H 323.174 2.80878 0.905065 0
M  V30 3355 H 323.255 2.42304 -0.81989 0
M  V30 3356 H 322.899 4.89189 -1.36588 0
M  V30 3357 H 322.829 5.25246 0.377362 0
M  V30 3358 H 325.32 3.77665 -0.13329 0
M  V30 3359 H 325.633 7.67581 -0.896576 0
M  V30 3360 H 323.978 6.90387 -0.799412 0
M  V30 3361 H 327.169 4.67436 -0.249278 0
M  V30 3362 H 327.342 6.45243 -0.597116 0
M  V30 3363 N 320.748 -0.0735177 1.57428 0
M  V30 3364 C 321.976 -0.785969 1.9139 0
M  V30 3365 C 322.391 -1.71207 0.795847 0
M  V30 3366 O 321.748 -1.81033 -0.230915 0
M  V30 3367 C 321.799 -1.58107 3.25091 0
M  V30 3368 O 321.52 -0.6922 4.32597 0
M  V30 3369 C 323.021 -2.39467 3.73055 0
M  V30 3370 H 320.241 -0.223558 0.632663 0
M  V30 3371 H 322.785 -0.044302 2.04452 0
M  V30 3372 H 320.94 -2.27503 3.13562 0
M  V30 3373 H 321.354 -1.24504 5.09508 0
M  V30 3374 H 322.828 -2.90716 4.69242 0
M  V30 3375 H 323.305 -3.18913 3.01979 0
M  V30 3376 H 323.911 -1.7523 3.87523 0
M  V30 3377 N 322.226 -1.5378 -0.344866 0
M  V30 3378 C 323.637 -1.62428 -0.920552 0
M  V30 3379 C 323.988 -0.504747 -1.89596 0
M  V30 3380 O 323.113 0.365711 -2.13287 0
M  V30 3381 C 323.708 -2.94419 -1.67639 0
M  V30 3382 C 322.267 -3.05333 -2.20111 0
M  V30 3383 C 321.414 -2.57866 -1.01982 0
M  V30 3384 H 324.365 -1.58222 -0.123042 0
M  V30 3385 H 324.386 -2.83384 -2.53917 0
M  V30 3386 H 323.898 -3.7588 -0.966224 0
M  V30 3387 H 321.999 -2.28502 -2.94308 0
M  V30 3388 H 322.112 -4.10778 -2.46573 0
M  V30 3389 H 320.476 -2.13241 -1.39285 0
M  V30 3390 H 321.259 -3.41765 -0.324308 0
M  V30 3391 N 323.704 0.605807 -1.45491 0
M  V30 3392 C 324.654 1.71074 -1.50724 0
M  V30 3393 C 325.638 1.5658 -0.37033 0
M  V30 3394 O 326.83 1.65887 -0.617299 0
M  V30 3395 C 323.959 3.0983 -1.47852 0
M  V30 3396 C 323.045 3.29704 -2.66751 0
M  V30 3397 N 323.436 3.19831 -3.91844 0
M  V30 3398 C 321.734 3.60579 -2.62486 0
M  V30 3399 C 322.435 3.41083 -4.71208 0
M  V30 3400 N 321.411 3.65157 -4.02693 0
M  V30 3401 H 325.213 1.61937 -2.45263 0
M  V30 3402 H 322.727 0.80912 -1.40808 0
M  V30 3403 H 324.724 3.89101 -1.49686 0
M  V30 3404 H 323.384 3.20115 -0.543714 0
M  V30 3405 H 324.395 2.98194 -4.23439 0
M  V30 3406 H 321.072 3.7769 -1.77922 0
M  V30 3407 H 322.462 3.38828 -5.80211 0
M  V30 3408 N 325.182 1.32811 0.848464 0
M  V30 3409 C 326.429 1.23724 1.60308 0
M  V30 3410 C 326.757 -0.1994 1.93475 0
M  V30 3411 O 326.012 -1.15406 1.5805 0
M  V30 3412 C 326.311 2.04831 2.92881 0
M  V30 3413 C 325.977 3.54125 2.79117 0
M  V30 3414 C 324.639 3.94829 2.7507 0
M  V30 3415 C 326.991 4.49036 2.64606 0
M  V30 3416 C 324.319 5.28675 2.544 0
M  V30 3417 C 326.671 5.83033 2.4547 0
M  V30 3418 C 325.335 6.22931 2.39819 0
M  V30 3419 H 324.605 0.452737 0.586609 0
M  V30 3420 H 327.252 1.64301 0.983743 0
M  V30 3421 H 325.557 1.57001 3.58968 0
M  V30 3422 H 327.254 1.95164 3.50303 0
M  V30 3423 H 323.844 3.21801 2.83094 0
M  V30 3424 H 328.028 4.18505 2.66772 0
M  V30 3425 H 323.284 5.58637 2.48465 0
M  V30 3426 H 327.458 6.56186 2.33222 0
M  V30 3427 H 325.085 7.26584 2.23562 0
M  V30 3428 N 326.66 -1.06551 1.16123 0
M  V30 3429 C 327.623 -2.12132 0.867906 0
M  V30 3430 C 328.623 -1.60224 -0.135944 0
M  V30 3431 O 329.813 -1.73943 0.0946422 0
M  V30 3432 C 326.945 -3.396 0.297419 0
M  V30 3433 H 328.138 -2.39586 1.80385 0
M  V30 3434 H 325.691 -1.22574 0.969812 0
M  V30 3435 H 326.426 -3.17794 -0.64633 0
M  V30 3436 H 326.211 -3.78581 1.02073 0
M  V30 3437 H 327.701 -4.17455 0.110052 0
M  V30 3438 N 328.138 -0.959301 -1.25041 0
M  V30 3439 C 329.384 -0.617525 -1.9317 0
M  V30 3440 C 329.717 0.843981 -1.74902 0
M  V30 3441 O 328.992 1.60615 -1.09696 0
M  V30 3442 C 329.275 -0.982736 -3.46431 0
M  V30 3443 C 329.128 -2.50032 -3.73904 0
M  V30 3444 C 330.447 -0.511176 -4.37121 0
M  V30 3445 H 327.566 -0.22582 -0.701552 0
M  V30 3446 H 330.208 -1.19679 -1.4757 0
M  V30 3447 H 328.358 -0.489806 -3.854 0
M  V30 3448 H 330.03 -3.06737 -3.44544 0
M  V30 3449 H 328.273 -2.93598 -3.19348 0
M  V30 3450 H 328.944 -2.70635 -4.81103 0
M  V30 3451 H 331.42 -0.934075 -4.0548 0
M  V30 3452 H 330.296 -0.795361 -5.43107 0
M  V30 3453 H 330.557 0.588834 -4.38161 0
M  V30 3454 N 329.616 1.39756 -0.72842 0
M  V30 3455 C 331.027 1.83498 -0.344289 0
M  V30 3456 C 331.378 1.60868 1.12321 0
M  V30 3457 O 330.503 1.09634 1.86573 0
M  V30 3458 C 331.098 3.33114 -0.618112 0
M  V30 3459 C 329.657 3.753 -0.287549 0
M  V30 3460 C 328.804 2.62831 -0.884048 0
M  V30 3461 H 331.755 1.28842 -0.926578 0
M  V30 3462 H 331.776 3.80334 0.112349 0
M  V30 3463 H 331.288 3.49553 -1.68625 0
M  V30 3464 H 329.389 3.64451 0.775012 0
M  V30 3465 H 329.502 4.72945 -0.765512 0
M  V30 3466 H 327.866 2.52792 -0.311149 0
M  V30 3467 H 328.649 2.82078 -1.95671 0
M  V30 3468 N 331.094 0.475555 1.50254 0
M  V30 3469 C 332.057 -0.305016 2.27161 0
M  V30 3470 C 333.057 -0.916519 1.32123 0
M  V30 3471 O 334.247 -0.785003 1.5551 0
M  V30 3472 C 331.379 -1.43496 3.09227 0
M  V30 3473 H 332.572 0.369511 2.97615 0
M  V30 3474 H 330.125 0.229747 1.54602 0
M  V30 3475 H 330.86 -2.14441 2.43281 0
M  V30 3476 H 330.645 -1.00223 3.79075 0
M  V30 3477 H 332.135 -1.98548 3.67381 0
M  V30 3478 N 332.573 -1.56217 0.208337 0
M  V30 3479 C 333.989 -1.58919 -0.14729 0
M  V30 3480 C 334.189 -1.22486 -1.59998 0
M  V30 3481 O 333.245 -0.953849 -2.3379 0
M  V30 3482 C 334.558 -3.00236 0.167048 0
M  V30 3483 C 336.106 -3.12813 0.108219 0
M  V30 3484 C 336.581 -4.56284 0.396049 0
M  V30 3485 N 338.072 -4.61912 0.345142 0
M  V30 3486 C 338.807 -5.70837 0.541523 0
M  V30 3487 N 338.303 -6.88178 0.798968 0
M  V30 3488 N 340.096 -5.60091 0.474867 0
M  V30 3489 H 332.247 -1.78177 1.15614 0
M  V30 3490 H 334.51 -0.827555 0.462446 0
M  V30 3491 H 334.216 -3.31499 1.1748 0
M  V30 3492 H 334.09 -3.7354 -0.524184 0
M  V30 3493 H 336.477 -2.81354 -0.890157 0
M  V30 3494 H 336.558 -2.41866 0.832729 0
M  V30 3495 H 336.202 -4.88458 1.3918 0
M  V30 3496 H 336.132 -5.25439 -0.349502 0
M  V30 3497 H 338.623 -3.77589 0.153316 0
M  V30 3498 H 338.936 -7.67095 0.93727 0
M  V30 3499 H 337.281 -6.89953 0.836013 0
M  V30 3500 H 340.472 -4.67297 0.274064 0
M  V30 3501 H 340.645 -6.44917 0.631326 0
M  V30 3502 N 334.051 0.0651679 -1.57465 0
M  V30 3503 C 334.999 1.09542 -2.05191 0
M  V30 3504 C 335.993 1.39675 -0.958509 0
M  V30 3505 O 337.199 1.39003 -1.14359 0
M  V30 3506 H 333.574 0.370623 -0.654326 0
M  V30 3507 H 335.545 0.666802 -2.90854 0
M  V30 3508 C 334.294 2.39881 -2.51699 0
M  V30 3509 H 333.617 2.17547 -3.3543 0
M  V30 3510 H 335.057 3.104 -2.88839 0
M  V30 3511 C 333.516 3.0631 -1.40271 0
M  V30 3512 O 334.046 3.94664 -0.748523 0
M  V30 3513 N 332.252 2.67041 -1.14618 0
M  V30 3514 H 331.799 1.95281 -1.67997 0
M  V30 3515 H 331.757 3.1181 -0.402688 0
M  V30 3516 N 335.529 1.53961 0.336706 0
M  V30 3517 C 336.492 1.81724 1.39675 0
M  V30 3518 C 337.492 0.688532 1.45313 0
M  V30 3519 O 338.682 0.956829 1.45569 0
M  V30 3520 C 335.814 1.96543 2.78538 0
M  V30 3521 H 337.007 2.76424 1.16318 0
M  V30 3522 H 334.56 1.45478 0.571474 0
M  V30 3523 H 335.295 1.0401 3.07168 0
M  V30 3524 H 335.08 2.78665 2.75841 0
M  V30 3525 H 336.57 2.19516 3.5525 0
M  V30 3526 N 337.007 -0.598083 1.45811 0
M  V30 3527 C 338.418 -1.18011 1.44673 0
M  V30 3528 C 338.769 -1.95378 0.179364 0
M  V30 3529 O 337.894 -2.04124 -0.718509 0
M  V30 3530 C 338.489 -2.14677 2.62105 0
M  V30 3531 C 337.048 -2.68236 2.64057 0
M  V30 3532 C 336.195 -1.43816 2.37091 0
M  V30 3533 H 339.146 -0.38686 1.53913 0
M  V30 3534 H 339.167 -2.97878 2.36746 0
M  V30 3535 H 338.679 -1.5834 3.5433 0
M  V30 3536 H 336.78 -3.28486 1.75864 0
M  V30 3537 H 336.893 -3.12021 3.63566 0
M  V30 3538 H 335.257 -1.731 1.86838 0
M  V30 3539 H 336.04 -0.893333 3.31473 0
M  V30 3540 N 338.485 -1.33259 -0.841409 0
M  V30 3541 C 339.415 -1.25926 -1.96634 0
M  V30 3542 C 340.396 -0.140349 -1.6952 0
M  V30 3543 O 341.581 -0.329707 -1.91381 0
M  V30 3544 C 338.711 -0.99512 -3.32738 0
M  V30 3545 C 337.665 -2.0767 -3.74242 0
M  V30 3546 C 336.991 -1.66474 -5.08125 0
M  V30 3547 C 338.291 -3.49318 -3.88297 0
M  V30 3548 H 339.985 -2.20046 -2.03027 0
M  V30 3549 H 337.531 -1.05931 -0.975425 0
M  V30 3550 H 339.484 -0.930323 -4.11002 0
M  V30 3551 H 338.208 -0.0183004 -3.26595 0
M  V30 3552 H 336.867 -2.13187 -2.98239 0
M  V30 3553 H 336.515 -0.675012 -4.9845 0
M  V30 3554 H 336.215 -2.3885 -5.36865 0
M  V30 3555 H 337.739 -1.61455 -5.88867 0
M  V30 3556 H 339.153 -3.46316 -4.56879 0
M  V30 3557 H 337.55 -4.20158 -4.28471 0
M  V30 3558 H 338.62 -3.8801 -2.9082 0
M  V30 3559 N 339.963 1.05934 -1.16686 0
M  V30 3560 C 341.24 1.75643 -0.860747 0
M  V30 3561 C 341.62 2.01144 0.640641 0
M  V30 3562 O 340.968 1.64147 1.58959 0
M  V30 3563 C 341.178 3.05493 -1.68745 0
M  V30 3564 C 342.526 3.79581 -1.90271 0
M  V30 3565 O 343.55 3.15344 -1.65641 0
M  V30 3566 O 342.409 4.9499 -2.31618 0
M  V30 3567 H 339.503 0.763426 -0.317977 0
M  V30 3568 H 342.049 1.1217 -1.27342 0
M  V30 3569 H 340.821 2.8264 -2.70611 0
M  V30 3570 H 340.444 3.76702 -1.27206 0
M  V30 3571 N 341.441 0.965919 1.2453 0
M  V30 3572 C 342.852 0.665929 1.7442 0
M  V30 3573 C 343.203 -0.818407 1.78316 0
M  V30 3574 O 342.328 -1.64037 1.41141 0
M  V30 3575 C 342.923 1.20211 3.16757 0
M  V30 3576 C 341.482 0.952059 3.6416 0
M  V30 3577 C 340.629 1.33848 2.42858 0
M  V30 3578 H 343.58 1.14144 1.10258 0
M  V30 3579 H 343.601 0.567544 3.76244 0
M  V30 3580 H 343.113 2.28244 3.13889 0
M  V30 3581 H 341.214 -0.112821 3.72429 0
M  V30 3582 H 341.327 1.59645 4.51719 0
M  V30 3583 H 339.691 0.756864 2.43195 0
M  V30 3584 H 340.474 2.42827 2.42673 0
M  V30 3585 N 342.919 -1.39368 0.735821 0
M  V30 3586 C 343.829 -2.34395 0.0979693 0
M  V30 3587 C 344.845 -1.58361 -0.720968 0
M  V30 3588 O 346.021 -1.90648 -0.649245 0
M  V30 3589 C 343.086 -3.37393 -0.797916 0
M  V30 3590 C 342.147 -4.29287 0.0333662 0
M  V30 3591 C 341.38 -5.27365 -0.819854 0
M  V30 3592 O 341.603 -5.31959 -2.05855 0
M  V30 3593 O 340.537 -6.01389 -0.248079 0
M  V30 3594 H 344.363 -2.90601 0.882315 0
M  V30 3595 H 341.948 -1.40909 0.4965 0
M  V30 3596 H 343.83 -4.00505 -1.31048 0
M  V30 3597 H 342.505 -2.83571 -1.56106 0
M  V30 3598 H 341.412 -3.69395 0.591475 0
M  V30 3599 H 342.745 -4.86317 0.758752 0
M  V30 3600 N 344.397 -0.483516 -1.5 0
M  V30 3601 C 345.644 0.0671597 -2.02389 0
M  V30 3602 C 345.972 1.38597 -1.36459 0
M  V30 3603 O 345.227 1.89634 -0.483458 0
M  V30 3604 C 345.526 0.286226 -3.56252 0
M  V30 3605 C 345.192 -0.952416 -4.40726 0
M  V30 3606 C 343.854 -1.29199 -4.63531 0
M  V30 3607 C 346.206 -1.77655 -4.89988 0
M  V30 3608 C 343.534 -2.45553 -5.32842 0
M  V30 3609 C 345.886 -2.93147 -5.60578 0
M  V30 3610 C 344.55 -3.27505 -5.81633 0
M  V30 3611 H 343.82 0.0245755 -0.740592 0
M  V30 3612 H 346.467 -0.640124 -1.80485 0
M  V30 3613 H 344.772 1.07587 -3.76739 0
M  V30 3614 H 346.469 0.726473 -3.94365 0
M  V30 3615 H 343.059 -0.677881 -4.23205 0
M  V30 3616 H 347.243 -1.52737 -4.72213 0
M  V30 3617 H 342.499 -2.72431 -5.47349 0
M  V30 3618 H 346.673 -3.57344 -5.97727 0
M  V30 3619 H 344.3 -4.1777 -6.35116 0
M  V30 3620 N 345.875 1.56104 -0.216619 0
M  V30 3621 C 346.805 2.23063 0.690296 0
M  V30 3622 C 347.786 1.20072 1.20485 0
M  V30 3623 O 348.971 1.48643 1.24976 0
M  V30 3624 C 346.101 2.90672 1.90072 0
M  V30 3625 C 345.055 4.00092 1.5202 0
M  V30 3626 C 344.381 4.54972 2.80899 0
M  V30 3627 C 345.681 5.17398 0.71391 0
M  V30 3628 H 347.375 2.99109 0.132038 0
M  V30 3629 H 344.921 1.43866 0.0620664 0
M  V30 3630 H 346.874 3.36204 2.54057 0
M  V30 3631 H 345.598 2.12066 2.48386 0
M  V30 3632 H 344.257 3.55283 0.903839 0
M  V30 3633 H 343.905 3.73102 3.37348 0
M  V30 3634 H 343.605 5.28817 2.56176 0
M  V30 3635 H 345.129 5.0322 3.45836 0
M  V30 3636 H 346.543 5.59342 1.25735 0
M  V30 3637 H 344.94 5.97444 0.563951 0
M  V30 3638 H 346.01 4.84088 -0.280527 0
M  V30 3639 N 347.353 -0.0568162 1.57498 0
M  V30 3640 C 348.316 -1.05038 2.03715 0
M  V30 3641 C 349.316 -1.30709 0.936577 0
M  V30 3642 O 350.506 -1.26178 1.20103 0
M  V30 3643 C 347.638 -2.39034 2.43055 0
M  V30 3644 H 348.831 -0.651715 2.92733 0
M  V30 3645 H 346.384 -0.302947 1.53336 0
M  V30 3646 H 347.119 -2.83703 1.57108 0
M  V30 3647 H 346.904 -2.21739 3.2338 0
M  V30 3648 H 348.394 -3.10421 2.79336 0
M  V30 3649 N 348.832 -1.54138 -0.328536 0
M  V30 3650 C 350.109 -1.62749 -1.08499 0
M  V30 3651 C 350.489 -0.458198 -2.06067 0
M  V30 3652 O 349.837 0.548046 -2.2183 0
M  V30 3653 C 350.047 -2.99519 -1.79135 0
M  V30 3654 C 351.395 -3.55394 -2.32337 0
M  V30 3655 O 352.419 -3.01792 -1.89209 0
M  V30 3656 O 351.278 -4.49186 -3.11279 0
M  V30 3657 H 348.372 -0.65886 -0.499832 0
M  V30 3658 H 350.918 -1.66484 -0.328826 0
M  V30 3659 H 349.69 -3.76061 -1.08139 0
M  V30 3660 H 349.313 -2.99441 -2.61574 0
M  V30 3661 N 350.31 0.590341 -1.46126 0
M  V30 3662 C 351.24 1.71032 -1.58966 0
M  V30 3663 C 352.221 1.64302 -0.440335 0
M  V30 3664 O 353.406 1.82436 -0.665634 0
M  V30 3665 C 350.536 3.09665 -1.57241 0
M  V30 3666 C 349.49 3.31221 -2.71066 0
M  V30 3667 C 348.816 4.70303 -2.54399 0
M  V30 3668 C 350.116 3.19796 -4.1295 0
M  V30 3669 H 351.81 1.60543 -2.52718 0
M  V30 3670 H 349.356 0.770933 -1.21625 0
M  V30 3671 H 351.309 3.87831 -1.64819 0
M  V30 3672 H 350.033 3.21036 -0.600289 0
M  V30 3673 H 348.692 2.55452 -2.62944 0
M  V30 3674 H 348.34 4.78429 -1.55288 0
M  V30 3675 H 348.04 4.85679 -3.30741 0
M  V30 3676 H 349.564 5.50647 -2.63857 0
M  V30 3677 H 350.978 3.87815 -4.22223 0
M  V30 3678 H 349.375 3.46696 -4.89818 0
M  V30 3679 H 350.445 2.16983 -4.33643 0
M  V30 3680 N 351.788 1.33704 0.83433 0
M  V30 3681 C 352.735 1.24335 1.94447 0
M  V30 3682 C 353.705 0.120991 1.65659 0
M  V30 3683 O 354.89 0.300035 1.88426 0
M  V30 3684 C 352.03 0.993124 3.30501 0
M  V30 3685 C 351.143 2.20217 3.71657 0
M  V30 3686 C 350.278 1.88572 4.96602 0
M  V30 3687 C 349.317 3.05683 5.30306 0
M  V30 3688 N 348.454 2.73997 6.46429 0
M  V30 3689 H 353.294 2.1928 2.01792 0
M  V30 3690 H 350.831 1.09035 0.987404 0
M  V30 3691 H 352.789 0.828467 4.08892 0
M  V30 3692 H 351.419 0.0803902 3.227 0
M  V30 3693 H 350.471 2.47642 2.88752 0
M  V30 3694 H 351.783 3.07752 3.92543 0
M  V30 3695 H 350.937 1.68776 5.82752 0
M  V30 3696 H 349.676 0.982799 4.77695 0
M  V30 3697 H 348.681 3.26088 4.42659 0
M  V30 3698 H 349.906 3.96737 5.51159 0
M  V30 3699 H 347.852 1.86268 6.28999 0
M  V30 3700 H 347.769 3.55064 6.67432 0
M  V30 3701 H 349.037 2.57679 7.35678 0
M  V30 3702 N 353.266 -1.05314 1.17247 0
M  V30 3703 C 354.213 -2.13031 0.888058 0
M  V30 3704 C 355.183 -1.65253 -0.167537 0
M  V30 3705 O 356.368 -1.90775 -0.0305974 0
M  V30 3706 C 353.508 -3.42702 0.406147 0
M  V30 3707 C 352.621 -4.04161 1.52572 0
M  V30 3708 C 351.756 -5.21744 0.997808 0
M  V30 3709 C 350.795 -5.75207 2.09291 0
M  V30 3710 N 349.932 -6.84094 1.57986 0
M  V30 3711 H 354.772 -2.36698 1.81048 0
M  V30 3712 H 352.309 -1.16121 0.903013 0
M  V30 3713 H 354.267 -4.17059 0.108305 0
M  V30 3714 H 352.897 -3.19222 -0.479313 0
M  V30 3715 H 351.949 -3.27253 1.93931 0
M  V30 3716 H 353.261 -4.39881 2.35172 0
M  V30 3717 H 352.415 -6.03168 0.653739 0
M  V30 3718 H 351.154 -4.87495 0.141232 0
M  V30 3719 H 350.159 -4.92414 2.44557 0
M  V30 3720 H 351.384 -6.11505 2.95362 0
M  V30 3721 H 349.33 -6.51745 0.74598 0
M  V30 3722 H 349.247 -7.18811 2.34195 0
M  V30 3723 H 350.515 -7.69172 1.26468 0
M  V30 3724 N 354.744 -0.972509 -1.24016 0
M  V30 3725 C 356.16 -0.679827 -1.44397 0
M  V30 3726 C 356.36 0.756716 -1.86751 0
M  V30 3727 O 355.416 1.53007 -2.00861 0
M  V30 3728 C 356.729 -1.66803 -2.50195 0
M  V30 3729 C 358.277 -1.68119 -2.64017 0
M  V30 3730 C 358.752 -2.65748 -3.73017 0
M  V30 3731 N 360.243 -2.64219 -3.8045 0
M  V30 3732 C 360.978 -3.36433 -4.64328 0
M  V30 3733 N 360.474 -4.1818 -5.52356 0
M  V30 3734 N 362.267 -3.25235 -4.58453 0
M  V30 3735 H 354.418 -1.90059 -0.948228 0
M  V30 3736 H 356.681 -0.818527 -0.478245 0
M  V30 3737 H 356.387 -2.69498 -2.25973 0
M  V30 3738 H 356.261 -1.4446 -3.48441 0
M  V30 3739 H 358.648 -0.661319 -2.87594 0
M  V30 3740 H 358.729 -1.94525 -1.66113 0
M  V30 3741 H 358.373 -3.67872 -3.50189 0
M  V30 3742 H 358.303 -2.36619 -4.70446 0
M  V30 3743 H 360.794 -2.04887 -3.17537 0
M  V30 3744 H 361.107 -4.70157 -6.13329 0
M  V30 3745 H 359.452 -4.22273 -5.52006 0
M  V30 3746 H 362.643 -2.60829 -3.88698 0
M  V30 3747 H 362.816 -3.81776 -5.23594 0
M  V30 3748 N 356.222 1.38976 -0.743202 0
M  V30 3749 C 357.452 2.04339 -0.304807 0
M  V30 3750 C 357.86 1.56162 1.06819 0
M  V30 3751 O 357.203 0.725284 1.68776 0
M  V30 3752 C 357.265 3.58716 -0.237369 0
M  V30 3753 C 356.929 4.29905 -1.55018 0
M  V30 3754 C 357.926 4.55987 -2.49744 0
M  V30 3755 C 355.611 4.68294 -1.81675 0
M  V30 3756 C 357.605 5.19478 -3.69353 0
M  V30 3757 C 355.292 5.31512 -3.0156 0
M  V30 3758 C 356.29 5.57037 -3.9522 0
M  V30 3759 O 355.978 6.18941 -5.12998 0
M  V30 3760 H 355.71 0.663439 -0.12971 0
M  V30 3761 H 358.264 1.78852 -1.01001 0
M  V30 3762 H 356.494 3.83133 0.524003 0
M  V30 3763 H 358.183 4.05543 0.170121 0
M  V30 3764 H 358.949 4.26767 -2.30423 0
M  V30 3765 H 354.828 4.47779 -1.09615 0
M  V30 3766 H 358.372 5.39318 -4.42473 0
M  V30 3767 H 354.269 5.60153 -3.20778 0
M  V30 3768 H 355.037 6.37433 -5.13441 0
M  V30 3769 N 357.7 0.491464 1.49741 0
M  V30 3770 C 358.663 -0.280906 2.27472 0
M  V30 3771 C 359.663 -0.902454 1.33088 0
M  V30 3772 O 360.853 -0.768465 1.56334 0
M  V30 3773 C 357.985 -1.40209 3.10732 0
M  V30 3774 H 359.178 0.401056 2.97206 0
M  V30 3775 H 356.731 0.246131 1.5435 0
M  V30 3776 H 357.466 -2.11849 2.45541 0
M  V30 3777 H 357.251 -0.961969 3.80117 0
M  V30 3778 H 358.741 -1.9464 3.69466 0
M  V30 3779 N 359.178 -1.55987 0.224894 0
M  V30 3780 C 360.088 -2.24066 -0.69511 0
M  V30 3781 C 361.104 -1.24939 -1.21104 0
M  V30 3782 O 362.28 -1.5776 -1.25195 0
M  V30 3783 C 359.345 -2.90983 -1.88493 0
M  V30 3784 C 358.406 -4.05462 -1.41064 0
M  V30 3785 C 357.639 -4.69179 -2.54375 0
M  V30 3786 O 357.862 -4.31895 -3.72589 0
M  V30 3787 O 356.796 -5.58108 -2.25386 0
M  V30 3788 H 360.622 -3.03353 -0.145149 0
M  V30 3789 H 358.207 -1.49399 -0.00569476 0
M  V30 3790 H 360.089 -3.33209 -2.57972 0
M  V30 3791 H 358.764 -2.14653 -2.42293 0
M  V30 3792 H 357.671 -3.67798 -0.683774 0
M  V30 3793 H 359.004 -4.83545 -0.918985 0
M  V30 3794 N 360.656 0.0484629 -1.57525 0
M  V30 3795 C 361.903 0.743125 -1.88372 0
M  V30 3796 C 362.231 1.76383 -0.819715 0
M  V30 3797 O 361.486 1.94855 0.181659 0
M  V30 3798 C 361.785 1.46632 -3.25935 0
M  V30 3799 C 361.451 0.583427 -4.4711 0
M  V30 3800 C 360.113 0.340191 -4.79996 0
M  V30 3801 C 362.465 -0.0273345 -5.21193 0
M  V30 3802 C 359.793 -0.522903 -5.84365 0
M  V30 3803 C 362.145 -0.878017 -6.26477 0
M  V30 3804 C 360.809 -1.1309 -6.5785 0
M  V30 3805 H 360.079 0.271929 -0.689301 0
M  V30 3806 H 362.726 0.00336166 -1.915 0
M  V30 3807 H 361.031 2.2789 -3.18706 0
M  V30 3808 H 362.728 2.00902 -3.47044 0
M  V30 3809 H 359.318 0.783151 -4.21384 0
M  V30 3810 H 363.502 0.147654 -4.9608 0
M  V30 3811 H 358.758 -0.727335 -6.07058 0
M  V30 3812 H 362.932 -1.35789 -6.83033 0
M  V30 3813 H 360.559 -1.80144 -7.38547 0
M  V30 3814 N 362.134 1.5431 0.320358 0
M  V30 3815 C 363.55 1.45091 0.664889 0
M  V30 3816 C 363.75 0.626382 1.91517 0
M  V30 3817 O 362.806 0.126443 2.52183 0
M  V30 3818 C 364.119 2.88848 0.83591 0
M  V30 3819 C 365.667 2.9877 0.933046 0
M  V30 3820 C 366.142 4.43683 1.13621 0
M  V30 3821 N 367.633 4.47309 1.20287 0
M  V30 3822 C 368.368 5.56595 1.37801 0
M  V30 3823 N 367.864 6.75844 1.52338 0
M  V30 3824 N 369.657 5.44248 1.40535 0
M  V30 3825 H 361.808 2.06398 -0.501374 0
M  V30 3826 H 364.071 0.933963 -0.162534 0
M  V30 3827 H 363.777 3.51698 -0.0116092 0
M  V30 3828 H 363.651 3.35148 1.73078 0
M  V30 3829 H 366.038 2.36045 1.77107 0
M  V30 3830 H 366.119 2.55796 0.0145782 0
M  V30 3831 H 365.763 5.06995 0.303032 0
M  V30 3832 H 365.693 4.84269 2.0686 0
M  V30 3833 H 368.184 3.61388 1.10485 0
M  V30 3834 H 368.497 7.54892 1.65403 0
M  V30 3835 H 366.842 6.78746 1.4943 0
M  V30 3836 H 370.033 4.50038 1.28777 0
M  V30 3837 H 370.206 6.29473 1.53842 0
M  V30 3838 N 363.613 -0.582584 1.46437 0
M  V30 3839 C 364.523 -1.71949 1.59595 0
M  V30 3840 C 365.539 -1.67264 0.479443 0
M  V30 3841 O 366.715 -1.87171 0.743579 0
M  V30 3842 C 363.78 -3.08452 1.58298 0
M  V30 3843 C 362.841 -3.244 2.81182 0
M  V30 3844 C 362.074 -4.54391 2.79937 0
M  V30 3845 O 362.297 -5.38287 1.8869 0
M  V30 3846 O 361.231 -4.73588 3.71481 0
M  V30 3847 H 365.057 -1.63795 2.55744 0
M  V30 3848 H 362.642 -0.749643 1.29231 0
M  V30 3849 H 364.524 -3.89732 1.60271 0
M  V30 3850 H 363.199 -3.17043 0.653094 0
M  V30 3851 H 362.106 -2.42613 2.84763 0
M  V30 3852 H 363.439 -3.20699 3.7338 0
M  V30 3853 N 365.091 -1.34144 -0.827227 0
M  V30 3854 C 366.001 -1.27428 -1.96975 0
M  V30 3855 C 367.017 -0.182728 -1.73038 0
M  V30 3856 O 368.193 -0.408426 -1.97215 0
M  V30 3857 C 365.258 -1.02526 -3.31194 0
M  V30 3858 C 364.319 -2.20796 -3.68168 0
M  V30 3859 C 363.552 -1.97073 -4.95982 0
M  V30 3860 O 363.775 -0.926822 -5.6282 0
M  V30 3861 O 362.709 -2.83912 -5.30733 0
M  V30 3862 H 366.535 -2.23537 -2.05584 0
M  V30 3863 H 364.12 -1.14307 -0.961989 0
M  V30 3864 H 366.002 -0.904026 -4.11589 0
M  V30 3865 H 364.677 -0.0945389 -3.23562 0
M  V30 3866 H 363.584 -2.38477 -2.88235 0
M  V30 3867 H 364.917 -3.12243 -3.8048 0
M  V30 3868 N 366.569 1.04691 -1.17803 0
M  V30 3869 C 367.794 1.81984 -0.994813 0
M  V30 3870 C 368.219 1.82586 0.452112 0
M  V30 3871 O 367.577 1.23854 1.324 0
M  V30 3872 C 367.625 3.2575 -1.54659 0
M  V30 3873 O 366.729 4.05267 -0.763728 0
M  V30 3874 H 366.07 0.562483 -0.352857 0
M  V30 3875 H 368.6 1.3189 -1.56417 0
M  V30 3876 H 368.61 3.76541 -1.57102 0
M  V30 3877 H 367.285 3.24627 -2.59981 0
M  V30 3878 H 365.862 3.63972 -0.811108 0
M  V30 3879 N 368.047 0.979072 1.23499 0
M  V30 3880 C 369.463 0.687475 1.44034 0
M  V30 3881 C 369.663 -0.746801 1.8715 0
M  V30 3882 O 368.719 -1.51939 2.0167 0
M  V30 3883 C 370.032 1.68127 2.49307 0
M  V30 3884 C 371.58 1.69516 2.63122 0
M  V30 3885 C 372.055 2.67723 3.71603 0
M  V30 3886 N 373.546 2.66233 3.79044 0
M  V30 3887 C 374.281 3.38891 4.62537 0
M  V30 3888 N 373.777 4.21103 5.50131 0
M  V30 3889 N 375.57 3.27661 4.56721 0
M  V30 3890 H 367.721 1.90559 0.938135 0
M  V30 3891 H 369.984 0.821051 0.473897 0
M  V30 3892 H 369.69 2.70693 2.2454 0
M  V30 3893 H 369.564 1.46306 3.4767 0
M  V30 3894 H 371.951 0.676561 2.8724 0
M  V30 3895 H 372.032 1.95404 1.65079 0
M  V30 3896 H 371.676 3.69724 3.48233 0
M  V30 3897 H 371.606 2.39111 4.69184 0
M  V30 3898 H 374.097 2.06568 3.16446 0
M  V30 3899 H 374.41 4.73403 6.10827 0
M  V30 3900 H 372.755 4.25195 5.49759 0
M  V30 3901 H 375.946 2.62887 3.87309 0
M  V30 3902 H 376.119 3.84547 5.21562 0
M  V30 3903 N 369.525 -1.3858 0.750561 0
M  V30 3904 C 370.473 -2.32339 0.110162 0
M  V30 3905 C 371.467 -1.53864 -0.708674 0
M  V30 3906 O 372.673 -1.69417 -0.608112 0
M  V30 3907 H 369.048 -0.751812 0.0168275 0
M  V30 3908 H 371.019 -2.83959 0.917053 0
M  V30 3909 C 369.768 -3.39043 -0.771067 0
M  V30 3910 H 369.091 -3.99517 -0.150374 0
M  V30 3911 H 370.531 -4.07061 -1.1865 0
M  V30 3912 C 368.99 -2.77365 -1.91234 0
M  V30 3913 O 369.52 -2.66434 -3.00626 0
M  V30 3914 N 367.726 -2.35219 -1.70646 0
M  V30 3915 H 367.273 -2.4431 -0.81673 0
M  V30 3916 H 367.231 -1.94294 -2.47178 0
M  V30 3917 N 371.003 -0.499398 -1.49478 0
M  V30 3918 C 372.231 0.0425456 -2.06856 0
M  V30 3919 C 372.646 1.30964 -1.35992 0
M  V30 3920 O 372.003 1.77172 -0.437762 0
M  V30 3921 C 372.054 0.301735 -3.60239 0
M  V30 3922 O 371.775 -0.915127 -4.28436 0
M  V30 3923 C 373.276 0.887499 -4.34325 0
M  V30 3924 H 370.496 -0.0197482 -0.670709 0
M  V30 3925 H 373.04 -0.696297 -1.92281 0
M  V30 3926 H 371.195 0.990556 -3.74522 0
M  V30 3927 H 371.609 -0.676993 -5.20113 0
M  V30 3928 H 373.083 1.01845 -5.42523 0
M  V30 3929 H 373.56 1.88488 -3.96698 0
M  V30 3930 H 374.166 0.236196 -4.24644 0
M  V30 3931 N 372.481 1.55866 -0.233164 0
M  V30 3932 C 373.892 1.847 0.272554 0
M  V30 3933 C 374.243 1.15477 1.58617 0
M  V30 3934 O 373.368 0.42841 2.12117 0
M  V30 3935 C 373.963 3.35071 0.501299 0
M  V30 3936 C 372.522 3.6418 0.951304 0
M  V30 3937 C 371.669 2.77292 0.0208209 0
M  V30 3938 H 374.62 1.52005 -0.456074 0
M  V30 3939 H 374.641 3.55906 1.34577 0
M  V30 3940 H 374.153 3.85424 -0.454936 0
M  V30 3941 H 372.254 3.19293 1.92049 0
M  V30 3942 H 372.367 4.72071 0.817675 0
M  V30 3943 H 370.731 2.49131 0.529723 0
M  V30 3944 H 371.514 3.30448 -0.93054 0
M  V30 3945 N 373.959 -0.0401083 1.57549 0
M  V30 3946 C 375.207 -0.731677 1.8839 0
M  V30 3947 C 375.528 -1.76481 0.829425 0
M  V30 3948 O 374.798 -1.95411 -0.1383 0
M  V30 3949 H 373.378 -0.273225 0.695239 0
M  V30 3950 H 376.04 -0.00867725 1.94898 0
M  V30 3951 H 375.136 -1.22816 2.86919 0
M  V30 3952 N 375.437 -1.54477 -0.31217 0
M  V30 3953 C 376.685 -1.72884 -1.04668 0
M  V30 3954 C 377.006 -0.511477 -1.88173 0
M  V30 3955 O 376.276 0.474407 -1.90069 0
M  V30 3956 H 374.856 -0.637461 -0.389425 0
M  V30 3957 H 377.518 -1.91807 -0.345852 0
M  V30 3958 H 376.614 -2.61334 -1.70619 0
M  V30 3959 N 376.915 0.57481 -1.46744 0
M  V30 3960 C 378.143 1.35856 -1.56047 0
M  V30 3961 C 378.558 1.87691 -0.204365 0
M  V30 3962 O 377.915 1.64049 0.79963 0
M  V30 3963 C 377.966 2.54066 -2.57163 0
M  V30 3964 O 377.687 2.04377 -3.87507 0
M  V30 3965 C 379.188 3.46514 -2.76483 0
M  V30 3966 H 376.408 0.414754 -0.527466 0
M  V30 3967 H 378.952 0.698035 -1.92218 0
M  V30 3968 H 377.107 3.16092 -2.23974 0
M  V30 3969 H 377.521 2.81419 -4.4261 0
M  V30 3970 H 378.995 4.25919 -3.51137 0
M  V30 3971 H 379.472 3.98951 -1.83671 0
M  V30 3972 H 380.078 2.90318 -3.10799 0
M  V30 3973 N 378.394 1.34581 0.820102 0
M  V30 3974 C 379.344 1.22943 1.92013 0
M  V30 3975 C 380.328 0.127802 1.60392 0
M  V30 3976 O 381.52 0.357737 1.73347 0
M  V30 3977 C 378.649 0.989938 3.28717 0
M  V30 3978 C 377.735 2.13486 3.66449 0
M  V30 3979 N 378.126 3.38625 3.75722 0
M  V30 3980 C 376.424 2.04573 3.96315 0
M  V30 3981 C 377.125 4.13832 4.08801 0
M  V30 3982 N 376.101 3.42451 4.22171 0
M  V30 3983 H 379.903 2.17771 1.97365 0
M  V30 3984 H 377.417 1.2686 1.01392 0
M  V30 3985 H 379.414 0.887462 4.07345 0
M  V30 3986 H 378.074 0.0503691 3.24661 0
M  V30 3987 H 379.085 3.73143 3.59144 0
M  V30 3988 H 375.762 1.1839 4.00362 0
M  V30 3989 H 377.152 5.21909 4.23156 0
M  V30 3990 N 379.872 -1.04064 1.18357 0
M  V30 3991 C 381.288 -1.2947 0.933258 0
M  V30 3992 C 381.488 -1.97466 -0.401169 0
M  V30 3993 O 380.544 -2.25528 -1.13549 0
M  V30 3994 C 381.857 -2.15337 2.09882 0
M  V30 3995 C 383.405 -2.28683 2.13712 0
M  V30 3996 C 383.88 -3.17917 3.29686 0
M  V30 3997 N 385.371 -3.25504 3.29547 0
M  V30 3998 C 386.106 -3.94706 4.15926 0
M  V30 3999 N 385.602 -4.66239 5.12439 0
M  V30 4000 N 387.395 -3.90986 4.0384 0
M  V30 4001 H 379.546 -0.583359 2.04232 0
M  V30 4002 H 381.809 -0.319921 0.892387 0
M  V30 4003 H 381.515 -1.72682 3.06389 0
M  V30 4004 H 381.389 -3.16015 2.05947 0
M  V30 4005 H 383.776 -2.70575 1.17784 0
M  V30 4006 H 383.857 -1.27596 2.21705 0
M  V30 4007 H 383.501 -2.76736 4.25887 0
M  V30 4008 H 383.431 -4.19036 3.1893 0
M  V30 4009 H 385.922 -2.74547 2.59677 0
M  V30 4010 H 386.235 -5.16638 5.74722 0
M  V30 4011 H 384.58 -4.65143 5.16398 0
M  V30 4012 H 387.771 -3.34234 3.27727 0
M  V30 4013 H 387.944 -4.44646 4.71375 0
M  V30 4014 N 381.35 -0.985608 -1.22978 0
M  V30 4015 C 382.58 -0.674603 -1.95276 0
M  V30 4016 C 382.988 0.763483 -1.73111 0
M  V30 4017 O 382.331 1.52601 -1.02268 0
M  V30 4018 C 382.393 -0.891597 -3.48268 0
M  V30 4019 C 382.057 -2.31275 -3.94158 0
M  V30 4020 C 383.054 -3.29179 -4.02415 0
M  V30 4021 C 380.739 -2.64524 -4.27004 0
M  V30 4022 C 382.733 -4.58407 -4.42879 0
M  V30 4023 C 380.42 -3.93974 -4.67149 0
M  V30 4024 C 381.418 -4.90727 -4.75053 0
M  V30 4025 O 381.106 -6.17865 -5.14294 0
M  V30 4026 H 380.838 -0.249251 -0.628371 0
M  V30 4027 H 383.392 -1.32106 -1.5728 0
M  V30 4028 H 381.622 -0.187962 -3.86243 0
M  V30 4029 H 383.311 -0.576957 -4.01779 0
M  V30 4030 H 384.077 -3.04823 -3.77237 0
M  V30 4031 H 379.956 -1.89923 -4.2006 0
M  V30 4032 H 383.5 -5.33926 -4.48964 0
M  V30 4033 H 379.397 -4.18122 -4.91777 0
M  V30 4034 H 380.165 -6.21694 -5.32389 0
M  V30 4035 N 382.828 1.3818 -0.7579 0
M  V30 4036 C 383.76 2.2901 -0.0932177 0
M  V30 4037 C 384.773 1.47958 0.679136 0
M  V30 4038 O 385.962 1.70773 0.519514 0
M  V30 4039 C 383.062 3.26953 0.89192 0
M  V30 4040 C 382.235 4.37045 0.176303 0
M  V30 4041 C 381.294 5.15148 1.07281 0
M  V30 4042 O 380.32 5.66616 0.541728 0
M  V30 4043 N 381.522 5.28542 2.40049 0
M  V30 4044 H 384.287 2.86694 -0.873303 0
M  V30 4045 H 381.848 1.50007 -0.609054 0
M  V30 4046 H 383.84 3.76083 1.49479 0
M  V30 4047 H 382.41 2.70136 1.57306 0
M  V30 4048 H 381.63 3.89493 -0.607328 0
M  V30 4049 H 382.918 5.07801 -0.318718 0
M  V30 4050 H 382.316 4.88285 2.85647 0
M  V30 4051 H 380.873 5.8103 2.95376 0
M  V30 4052 N 384.306 0.507319 1.49211 0
M  V30 4053 C 385.554 -0.0348839 2.0207 0
M  V30 4054 C 385.875 -1.36898 1.38866 0
M  V30 4055 O 385.145 -1.88133 0.546151 0
M  V30 4056 H 383.725 -0.0158812 0.746831 0
M  V30 4057 H 386.387 0.665998 1.83168 0
M  V30 4058 H 385.483 -0.159917 3.1169 0
M  V30 4059 N 385.784 -1.5574 0.241426 0
M  V30 4060 C 387.195 -1.84842 -0.262755 0
M  V30 4061 C 387.546 -1.16317 -1.58003 0
M  V30 4062 O 386.671 -0.439653 -2.11887 0
M  V30 4063 C 387.266 -3.35332 -0.483523 0
M  V30 4064 C 385.825 -3.6468 -0.931977 0
M  V30 4065 C 384.972 -2.77299 -0.0061151 0
M  V30 4066 H 387.923 -1.51761 0.464129 0
M  V30 4067 H 387.944 -3.56615 -1.32688 0
M  V30 4068 H 387.456 -3.85178 0.47537 0
M  V30 4069 H 385.557 -3.20307 -1.90353 0
M  V30 4070 H 385.67 -4.72498 -0.792628 0
M  V30 4071 H 384.034 -2.49408 -0.516503 0
M  V30 4072 H 384.817 -3.2995 0.948052 0
M  V30 4073 N 387.262 0.0317525 -1.57568 0
M  V30 4074 C 388.209 1.0332 -2.06382 0
M  V30 4075 C 389.179 1.36082 -0.952414 0
M  V30 4076 O 390.364 1.46466 -1.2228 0
M  V30 4077 C 387.504 2.32989 -2.54578 0
M  V30 4078 C 386.617 2.0641 -3.79498 0
M  V30 4079 C 385.752 3.2993 -4.16317 0
M  V30 4080 C 384.791 2.98893 -5.34162 0
M  V30 4081 N 383.928 4.14857 -5.66426 0
M  V30 4082 H 388.768 0.609982 -2.9169 0
M  V30 4083 H 386.305 0.289573 -1.44222 0
M  V30 4084 H 388.263 3.0875 -2.80587 0
M  V30 4085 H 386.893 2.73039 -1.7219 0
M  V30 4086 H 385.945 1.21158 -3.6059 0
M  V30 4087 H 387.257 1.79513 -4.65378 0
M  V30 4088 H 386.411 4.1406 -4.4344 0
M  V30 4089 H 385.15 3.59938 -3.29083 0
M  V30 4090 H 384.155 2.13164 -5.06795 0
M  V30 4091 H 385.38 2.70165 -6.23047 0
M  V30 4092 H 383.326 4.44821 -4.82151 0
M  V30 4093 H 383.243 3.91374 -6.4681 0
M  V30 4094 H 384.511 4.99868 -5.98124 0
M  V30 4095 N 388.74 1.54641 0.303973 0
M  V30 4096 C 389.965 1.78092 1.06292 0
M  V30 4097 C 390.39 0.537342 1.80262 0
M  V30 4098 O 389.748 -0.511993 1.7392 0
M  V30 4099 C 389.796 2.98612 2.02147 0
M  V30 4100 O 388.9 2.71528 3.10397 0
M  V30 4101 H 388.241 0.589548 0.305497 0
M  V30 4102 H 390.771 2.01716 0.3423 0
M  V30 4103 H 390.781 3.265 2.44667 0
M  V30 4104 H 389.456 3.88785 1.47714 0
M  V30 4105 H 388.033 2.54648 2.72413 0
M  V30 4106 N 390.218 -0.567019 1.47046 0
M  V30 4107 C 391.181 -1.65696 1.58359 0
M  V30 4108 C 392.181 -1.54097 0.459441 0
M  V30 4109 O 393.371 -1.58432 0.724225 0
M  V30 4110 C 390.503 -3.05197 1.51879 0
M  V30 4111 H 391.696 -1.57019 2.5551 0
M  V30 4112 H 389.249 -0.786148 1.3509 0
M  V30 4113 H 389.984 -3.19417 0.560673 0
M  V30 4114 H 389.769 -3.15025 2.33455 0
M  V30 4115 H 391.259 -3.84511 1.62913 0
M  V30 4116 N 391.696 -1.35014 -0.812953 0
M  V30 4117 C 392.626 -1.30069 -1.93919 0
M  V30 4118 C 393.607 -0.176275 -1.69184 0
M  V30 4119 O 394.792 -0.370227 -1.90638 0
M  V30 4120 C 391.922 -1.06547 -3.30552 0
M  V30 4121 C 390.876 -2.15561 -3.69753 0
M  V30 4122 C 390.202 -1.77214 -5.04479 0
M  V30 4123 C 391.502 -3.57476 -3.808 0
M  V30 4124 H 393.196 -2.24303 -1.98314 0
M  V30 4125 H 390.742 -1.07977 -0.952736 0
M  V30 4126 H 392.695 -1.01729 -4.08937 0
M  V30 4127 H 391.419 -0.0875719 -3.26483 0
M  V30 4128 H 390.078 -2.19466 -2.9365 0
M  V30 4129 H 389.726 -0.780589 -4.96906 0
M  V30 4130 H 389.426 -2.50184 -5.31678 0
M  V30 4131 H 390.95 -1.7391 -5.8531 0
M  V30 4132 H 392.364 -3.55929 -4.4943 0
M  V30 4133 H 390.761 -4.29152 -4.19462 0
M  V30 4134 H 391.831 -3.94091 -2.82525 0
M  V30 4135 N 393.175 1.03435 -1.18907 0
M  V30 4136 C 394.085 2.15075 -0.937015 0
M  V30 4137 C 395.101 1.73706 0.101085 0
M  V30 4138 O 396.277 2.01232 -0.0822948 0
M  V30 4139 C 393.342 3.43458 -0.473057 0
M  V30 4140 C 392.403 3.99172 -1.57989 0
M  V30 4141 C 391.636 5.21427 -1.13797 0
M  V30 4142 O 391.859 5.704 0.000725941 0
M  V30 4143 O 390.793 5.69837 -1.9383 0
M  V30 4144 H 394.619 2.39198 -1.87131 0
M  V30 4145 H 392.204 1.13506 -0.971427 0
M  V30 4146 H 394.086 4.20811 -0.222702 0
M  V30 4147 H 392.761 3.20793 0.432869 0
M  V30 4148 H 391.668 3.23178 -1.88433 0
M  V30 4149 H 393.001 4.2619 -2.46217 0
M  V30 4150 N 394.653 0.992116 1.22453 0
M  V30 4151 C 395.899 0.668523 1.91464 0
M  V30 4152 C 396.232 -0.797313 1.77078 0
M  V30 4153 O 395.507 -1.5765 1.13916 0
M  V30 4154 C 395.79 1.07424 3.43703 0
M  V30 4155 C 395.643 2.59857 3.67143 0
M  V30 4156 C 396.962 0.626891 4.35612 0
M  V30 4157 H 394.081 0.244341 0.695318 0
M  V30 4158 H 396.723 1.2355 1.44345 0
M  V30 4159 H 394.873 0.591816 3.83966 0
M  V30 4160 H 396.545 3.15764 3.3629 0
M  V30 4161 H 394.788 3.01961 3.11451 0
M  V30 4162 H 395.459 2.83296 4.73759 0
M  V30 4163 H 397.935 1.04125 4.02861 0
M  V30 4164 H 396.811 0.939076 5.40807 0
M  V30 4165 H 397.072 -0.472457 4.39568 0
M  V30 4166 N 396.131 -1.37776 0.765217 0
M  V30 4167 C 397.356 -2.04651 0.336537 0
M  V30 4168 C 397.781 -1.57337 -1.03086 0
M  V30 4169 O 397.139 -0.730621 -1.65927 0
M  V30 4170 C 397.187 -3.58577 0.381468 0
M  V30 4171 O 396.291 -4.07706 -0.62042 0
M  V30 4172 H 395.632 -0.64756 0.146838 0
M  V30 4173 H 398.162 -1.76221 1.03959 0
M  V30 4174 H 398.172 -4.07314 0.236448 0
M  V30 4175 H 396.847 -3.9237 1.37907 0
M  V30 4176 H 395.424 -3.70306 -0.439056 0
M  V30 4177 N 397.609 -0.515225 -1.4894 0
M  V30 4178 C 398.886 0.0879088 -1.95402 0
M  V30 4179 C 399.266 1.52745 -1.45712 0
M  V30 4180 O 398.614 2.18238 -0.677093 0
M  V30 4181 C 398.824 -0.0141055 -3.48997 0
M  V30 4182 C 400.172 0.152646 -4.24326 0
M  V30 4183 O 401.196 0.0604025 -3.56149 0
M  V30 4184 O 400.055 0.34384 -5.45417 0
M  V30 4185 H 397.149 0.0874636 -0.822362 0
M  V30 4186 H 399.695 -0.578775 -1.59525 0
M  V30 4187 H 398.467 -1.01745 -3.77841 0
M  V30 4188 H 398.09 0.692091 -3.9153 0
M  V30 4189 N 399.087 1.5561 -0.249682 0
M  V30 4190 C 399.997 2.25143 0.659375 0
M  V30 4191 C 401.013 1.2685 1.19101 0
M  V30 4192 O 402.189 1.59732 1.22669 0
M  V30 4193 C 399.254 2.93945 1.8384 0
M  V30 4194 C 398.315 4.07655 1.34596 0
M  V30 4195 C 397.548 4.73167 2.46878 0
M  V30 4196 O 397.771 4.37768 3.65671 0
M  V30 4197 O 396.705 5.61623 2.16478 0
M  V30 4198 H 400.531 3.03545 0.0968698 0
M  V30 4199 H 398.116 1.49389 -0.018074 0
M  V30 4200 H 399.998 3.37271 2.52638 0
M  V30 4201 H 398.673 2.18481 2.38847 0
M  V30 4202 H 397.58 3.68839 0.625174 0
M  V30 4203 H 398.913 4.84946 0.841941 0
M  V30 4204 N 400.565 -0.0233959 1.57583 0
M  V30 4205 C 401.475 -1.03907 2.10334 0
M  V30 4206 C 402.491 -1.39257 1.04323 0
M  V30 4207 O 403.667 -1.48462 1.36091 0
M  V30 4208 C 400.732 -2.31938 2.57693 0
M  V30 4209 C 399.793 -2.03117 3.78209 0
M  V30 4210 C 399.026 -3.25043 4.233 0
M  V30 4211 O 399.249 -4.35916 3.67876 0
M  V30 4212 O 398.183 -3.10411 5.15683 0
M  V30 4213 H 402.009 -0.620748 2.97288 0
M  V30 4214 H 399.594 -0.240743 1.47448 0
M  V30 4215 H 401.476 -3.07196 2.88458 0
M  V30 4216 H 400.151 -2.73055 1.73847 0
M  V30 4217 H 399.058 -1.25408 3.52454 0
M  V30 4218 H 400.391 -1.66852 4.63056 0
M  V30 4219 N 402.043 -1.548 -0.295768 0
M  V30 4220 C 402.973 -1.89115 -1.36959 0
M  V30 4221 C 403.954 -0.75059 -1.52644 0
M  V30 4222 O 405.139 -1.00678 -1.66065 0
M  V30 4223 C 402.269 -2.14307 -2.73295 0
M  V30 4224 C 401.223 -3.30151 -2.72368 0
M  V30 4225 C 400.549 -3.40772 -4.12042 0
M  V30 4226 C 401.849 -4.67126 -2.33646 0
M  V30 4227 H 403.543 -2.79053 -1.08488 0
M  V30 4228 H 401.089 -1.34266 -0.520443 0
M  V30 4229 H 403.042 -2.36898 -3.48507 0
M  V30 4230 H 401.766 -1.21145 -3.03301 0
M  V30 4231 H 400.425 -3.0749 -1.99613 0
M  V30 4232 H 400.073 -2.45117 -4.39234 0
M  V30 4233 H 399.773 -4.18645 -4.12322 0
M  V30 4234 H 401.297 -3.6563 -4.89027 0
M  V30 4235 H 402.711 -4.89414 -2.98575 0
M  V30 4236 H 401.108 -5.47751 -2.45129 0
M  V30 4237 H 402.178 -4.67489 -1.28772 0
M  V30 4238 N 403.521 0.559213 -1.47345 0
M  V30 4239 C 404.767 1.31843 -1.54095 0
M  V30 4240 C 405.1 1.93149 -0.201726 0
M  V30 4241 O 404.375 1.77759 0.789428 0
M  V30 4242 C 404.658 2.43006 -2.65744 0
M  V30 4243 C 404.511 1.86581 -4.09277 0
M  V30 4244 C 405.83 3.44943 -2.73318 0
M  V30 4245 H 402.949 0.478012 -0.560957 0
M  V30 4246 H 405.591 0.625977 -1.79392 0
M  V30 4247 H 403.741 3.02072 -2.44305 0
M  V30 4248 H 405.413 1.31792 -4.42073 0
M  V30 4249 H 403.656 1.17268 -4.17649 0
M  V30 4250 H 404.327 2.66933 -4.83168 0
M  V30 4251 H 406.803 2.95793 -2.92653 0
M  V30 4252 H 405.679 4.20153 -3.53218 0
M  V30 4253 H 405.94 4.03665 -1.80296 0
M  V30 4254 N 404.999 1.35443 0.805782 0
M  V30 4255 C 405.909 1.30546 1.94923 0
M  V30 4256 C 406.925 0.210233 1.72725 0
M  V30 4257 O 408.101 0.43975 1.9654 0
M  V30 4258 C 405.166 1.07782 3.29521 0
M  V30 4259 C 404.227 2.26625 3.64609 0
M  V30 4260 C 403.46 2.04938 4.92784 0
M  V30 4261 O 403.683 1.01624 5.61274 0
M  V30 4262 O 402.617 2.9232 5.26149 0
M  V30 4263 H 406.443 2.26779 2.02002 0
M  V30 4264 H 404.028 1.15823 0.943682 0
M  V30 4265 H 405.91 0.969392 4.10098 0
M  V30 4266 H 404.585 0.146003 3.23371 0
M  V30 4267 H 403.492 2.43033 2.84404 0
M  V30 4268 H 404.825 3.18257 3.75464 0
M  V30 4269 N 406.477 -1.02803 1.19454 0
M  V30 4270 C 407.705 -1.79841 1.02297 0
M  V30 4271 C 408.12 -1.83879 -0.428259 0
M  V30 4272 O 407.477 -1.28345 -1.29745 0
M  V30 4273 C 407.528 -3.24852 1.58598 0
M  V30 4274 O 407.249 -3.21097 2.98041 0
M  V30 4275 C 408.75 -4.18485 1.46236 0
M  V30 4276 H 405.97 -0.565936 0.360496 0
M  V30 4277 H 408.514 -1.2948 1.58288 0
M  V30 4278 H 406.669 -3.72401 1.06753 0
M  V30 4279 H 407.083 -4.12033 3.24545 0
M  V30 4280 H 408.557 -5.18121 1.90407 0
M  V30 4281 H 409.034 -4.37254 0.41301 0
M  V30 4282 H 409.64 -3.76811 1.97215 0
M  V30 4283 N 407.956 -0.998596 -1.21925 0
M  V30 4284 C 408.886 -0.573688 -2.26343 0
M  V30 4285 C 409.867 0.402296 -1.65274 0
M  V30 4286 O 411.052 0.291683 -1.91997 0
M  V30 4287 C 408.182 0.106839 -3.47136 0
M  V30 4288 C 407.136 -0.788269 -4.20678 0
M  V30 4289 C 406.462 0.0254927 -5.34694 0
M  V30 4290 C 407.762 -2.08784 -4.78755 0
M  V30 4291 H 409.456 -1.44651 -2.62138 0
M  V30 4292 H 407.002 -0.696975 -1.26009 0
M  V30 4293 H 408.955 0.415531 -4.19346 0
M  V30 4294 H 407.679 1.01424 -3.10452 0
M  V30 4295 H 406.338 -1.08069 -3.50309 0
M  V30 4296 H 405.986 0.933989 -4.94253 0
M  V30 4297 H 405.686 -0.570437 -5.84825 0
M  V30 4298 H 407.21 0.328147 -6.09718 0
M  V30 4299 H 408.624 -1.84272 -5.42878 0
M  V30 4300 H 407.021 -2.63307 -5.39249 0
M  V30 4301 H 408.091 -2.76284 -3.98491 0
M  V30 4302 N 409.434 1.37368 -0.772513 0
M  V30 4303 C 410.344 2.34053 -0.160081 0
M  V30 4304 C 411.36 1.60216 0.678728 0
M  V30 4305 O 412.536 1.92303 0.59847 0
M  V30 4306 C 409.601 3.3939 0.708182 0
M  V30 4307 C 408.662 4.29048 -0.147172 0
M  V30 4308 C 407.895 5.29354 0.679744 0
M  V30 4309 O 408.118 5.3723 1.91678 0
M  V30 4310 O 407.052 6.01835 0.0885444 0
M  V30 4311 H 410.878 2.88159 -0.959053 0
M  V30 4312 H 408.463 1.39543 -0.533685 0
M  V30 4313 H 410.345 4.03839 1.20384 0
M  V30 4314 H 409.02 2.8761 1.48533 0
M  V30 4315 H 407.927 3.67697 -0.689205 0
M  V30 4316 H 409.26 4.84134 -0.887423 0
M  V30 4317 N 410.912 0.523116 1.48665 0
M  V30 4318 C 412.328 0.180511 1.58576 0
M  V30 4319 C 412.528 -1.31597 1.52592 0
M  V30 4320 O 411.584 -2.0937 1.4114 0
M  V30 4321 C 412.897 0.776949 2.90489 0
M  V30 4322 C 414.445 0.745058 3.04003 0
M  V30 4323 C 414.92 1.31995 4.38567 0
M  V30 4324 N 416.411 1.28162 4.45117 0
M  V30 4325 C 417.146 1.6964 5.47731 0
M  V30 4326 N 416.642 2.18816 6.57337 0
M  V30 4327 N 418.435 1.6092 5.38573 0
M  V30 4328 H 410.586 1.4958 1.50797 0
M  V30 4329 H 412.849 0.621772 0.715614 0
M  V30 4330 H 412.555 1.82732 3.00503 0
M  V30 4331 H 412.429 0.25007 3.7637 0
M  V30 4332 H 414.816 -0.296532 2.93606 0
M  V30 4333 H 414.897 1.30933 2.1975 0
M  V30 4334 H 414.541 2.36043 4.49718 0
M  V30 4335 H 414.471 0.731418 5.21496 0
M  V30 4336 H 416.962 0.92155 3.66491 0
M  V30 4337 H 417.275 2.48478 7.31764 0
M  V30 4338 H 415.62 2.22805 6.58318 0
M  V30 4339 H 418.811 1.22304 4.5184 0
M  V30 4340 H 418.984 1.93567 6.18414 0
M  V30 4341 N 412.39 -1.55475 0.257931 0
M  V30 4342 C 413.62 -2.03314 -0.367026 0
M  V30 4343 C 414.028 -1.13625 -1.51281 0
M  V30 4344 O 413.371 -0.145334 -1.83124 0
M  V30 4345 C 413.433 -3.47362 -0.926284 0
M  V30 4346 C 413.097 -4.56914 0.0886584 0
M  V30 4347 C 414.094 -5.12013 0.902123 0
M  V30 4348 C 411.779 -5.01827 0.217936 0
M  V30 4349 C 413.773 -6.10529 1.83122 0
M  V30 4350 C 411.46 -6.00172 1.15052 0
M  V30 4351 C 412.458 -6.54402 1.95568 0
M  V30 4352 O 412.146 -7.50827 2.87253 0
M  V30 4353 H 411.878 -0.669976 -0.0900443 0
M  V30 4354 H 414.432 -2.01804 0.382673 0
M  V30 4355 H 412.662 -3.46056 -1.72575 0
M  V30 4356 H 414.351 -3.78637 -1.46249 0
M  V30 4357 H 415.117 -4.78139 0.812891 0
M  V30 4358 H 410.996 -4.59272 -0.398721 0
M  V30 4359 H 414.54 -6.52783 2.46008 0
M  V30 4360 H 410.437 -6.33465 1.24064 0
M  V30 4361 H 411.205 -7.68483 2.81739 0
M  V30 4362 N 413.868 0.0150385 -1.57593 0
M  V30 4363 C 415.114 0.69849 -1.91031 0
M  V30 4364 C 415.469 1.72208 -0.85804 0
M  V30 4365 O 414.762 1.91147 0.131614 0
M  V30 4366 C 414.956 1.39686 -3.28972 0
M  V30 4367 C 414.785 0.442428 -4.47518 0
M  V30 4368 C 413.555 0.0583223 -5.05266 0
M  V30 4369 C 415.753 -0.285072 -5.13509 0
M  V30 4370 N 413.735 -0.895893 -6.07328 0
M  V30 4371 C 415.106 -1.09447 -6.10263 0
M  V30 4372 C 417.161 -0.350518 -4.96665 0
M  V30 4373 C 415.864 -1.96333 -6.91987 0
M  V30 4374 C 417.89 -1.20655 -5.78962 0
M  V30 4375 C 417.252 -2.00383 -6.75297 0
M  V30 4376 H 413.351 0.22926 -0.747639 0
M  V30 4377 H 415.935 -0.0417748 -1.94655 0
M  V30 4378 H 414.106 2.1075 -3.2625 0
M  V30 4379 H 415.838 2.03381 -3.49883 0
M  V30 4380 H 412.593 0.423506 -4.71703 0
M  V30 4381 H 413.017 -1.36792 -6.63036 0
M  V30 4382 H 417.659 0.251596 -4.22051 0
M  V30 4383 H 415.377 -2.57618 -7.65936 0
M  V30 4384 H 418.963 -1.2609 -5.67972 0
M  V30 4385 H 417.843 -2.65552 -7.3787 0
M  V30 4386 N 415.346 1.54954 0.287554 0
M  V30 4387 C 416.278 1.83224 1.37701 0
M  V30 4388 C 417.291 0.715898 1.46215 0
M  V30 4389 O 418.48 0.993565 1.48292 0
M  V30 4390 C 415.58 1.96723 2.75959 0
M  V30 4391 C 414.753 3.27253 2.90215 0
M  V30 4392 C 413.812 3.30998 4.09056 0
M  V30 4393 O 412.838 4.04457 4.00503 0
M  V30 4394 N 414.04 2.57353 5.20336 0
M  V30 4395 H 416.805 2.77254 1.138 0
M  V30 4396 H 414.366 1.54694 0.477652 0
M  V30 4397 H 416.358 1.96615 3.5373 0
M  V30 4398 H 414.928 1.09626 2.92747 0
M  V30 4399 H 414.148 3.40022 1.99447 0
M  V30 4400 H 415.436 4.13365 2.96659 0
M  V30 4401 H 414.834 1.97327 5.30169 0
M  V30 4402 H 413.391 2.62984 5.96391 0
M  V30 4403 N 416.824 -0.551391 1.4764 0
M  V30 4404 C 417.734 -1.68525 1.63207 0
M  V30 4405 C 418.75 -1.6621 0.514815 0
M  V30 4406 O 419.926 -1.85551 0.783113 0
M  V30 4407 C 416.991 -3.05025 1.64805 0
M  V30 4408 C 416.052 -3.18362 2.88 0
M  V30 4409 C 415.285 -4.4835 2.89513 0
M  V30 4410 O 415.508 -5.34163 2.00065 0
M  V30 4411 O 414.442 -4.65602 3.81443 0
M  V30 4412 H 418.268 -1.58333 2.59161 0
M  V30 4413 H 415.853 -0.722063 1.30792 0
M  V30 4414 H 417.735 -3.86245 1.68502 0
M  V30 4415 H 416.41 -3.15587 0.720197 0
M  V30 4416 H 415.317 -2.36518 2.89845 0
M  V30 4417 H 416.65 -3.12707 3.80099 0
M  V30 4418 N 418.302 -1.35869 -0.798587 0
M  V30 4419 C 419.55 -1.29332 -1.55298 0
M  V30 4420 C 419.871 0.129729 -1.94568 0
M  V30 4421 O 419.141 1.06796 -1.6423 0
M  V30 4422 H 417.721 -0.475737 -0.57592 0
M  V30 4423 H 420.383 -1.70062 -0.952093 0
M  V30 4424 H 419.479 -1.91458 -2.46476 0
M  V30 4425 N 419.78 1.02168 -1.19998 0
M  V30 4426 C 421.028 1.75338 -1.00504 0
M  V30 4427 C 421.349 1.89387 0.464506 0
M  V30 4428 O 420.619 1.43268 1.33608 0
M  V30 4429 H 419.199 0.649564 -0.368885 0
M  V30 4430 H 421.861 1.23205 -1.51018 0
M  V30 4431 H 420.957 2.75892 -1.45912 0
M  V30 4432 N 421.258 1.00505 1.21394 0
M  V30 4433 C 422.669 0.721082 1.72213 0
M  V30 4434 C 423.02 -0.761263 1.80829 0
M  V30 4435 O 422.145 -1.59464 1.46288 0
M  V30 4436 C 422.74 1.30228 3.12772 0
M  V30 4437 C 421.299 1.06743 3.60947 0
M  V30 4438 C 420.446 1.41507 2.38477 0
M  V30 4439 H 423.397 1.17594 1.06571 0
M  V30 4440 H 423.418 0.686955 3.74247 0
M  V30 4441 H 422.93 2.38115 3.06468 0
M  V30 4442 H 421.031 0.00572162 3.726 0
M  V30 4443 H 421.144 1.73936 4.46411 0
M  V30 4444 H 419.508 0.833852 2.40664 0
M  V30 4445 H 420.291 2.50424 2.34824 0
M  V30 4446 N 422.737 -1.36956 0.779787 0
M  V30 4447 C 424.014 -1.93697 0.272156 0
M  V30 4448 C 424.394 -1.71267 -1.23413 0
M  V30 4449 O 423.742 -1.06607 -2.02107 0
M  V30 4450 C 423.952 -3.42812 0.654291 0
M  V30 4451 C 425.3 -4.19921 0.628602 0
M  V30 4452 O 426.324 -3.51209 0.594172 0
M  V30 4453 O 425.183 -5.42465 0.662864 0
M  V30 4454 H 422.277 -0.824447 0.0649286 0
M  V30 4455 H 424.823 -1.46196 0.861682 0
M  V30 4456 H 423.595 -3.52754 1.69353 0
M  V30 4457 H 423.218 -3.97582 0.0381369 0
M  V30 4458 N 424.215 -0.530993 -1.48385 0
M  V30 4459 C 425.464 0.00474348 -2.01699 0
M  V30 4460 C 425.777 1.35227 -1.41325 0
M  V30 4461 O 426.983 1.97643 -1.86144 0
M  V30 4462 C 425.439 0.0588473 -3.59852 0
M  V30 4463 C 425.047 -1.28385 -4.2921 0
M  V30 4464 C 426.791 0.543358 -4.21008 0
M  V30 4465 C 424.698 -1.19028 -5.79298 0
M  V30 4466 H 423.628 0.00554317 -0.75398 0
M  V30 4467 H 426.279 -0.674924 -1.70637 0
M  V30 4468 H 424.661 0.803612 -3.8776 0
M  V30 4469 H 425.835 -2.04426 -4.12973 0
M  V30 4470 H 424.15 -1.70418 -3.7993 0
M  V30 4471 H 426.747 0.631351 -5.3096 0
M  V30 4472 H 427.09 1.54937 -3.86394 0
M  V30 4473 H 427.623 -0.145754 -3.97533 0
M  V30 4474 H 424.362 -2.17147 -6.18488 0
M  V30 4475 H 423.882 -0.471246 -5.97946 0
M  V30 4476 H 425.561 -0.881365 -6.40969 0
M  V30 4477 N 425.693 1.55336 -0.266172 0
M  V30 4478 C 426.623 2.25146 0.618981 0
M  V30 4479 C 427.604 1.23845 1.16604 0
M  V30 4480 O 428.789 1.52544 1.20183 0
M  V30 4481 C 425.919 2.96572 1.80728 0
M  V30 4482 C 424.873 4.04726 1.39215 0
M  V30 4483 C 424.199 4.63678 2.66283 0
M  V30 4484 C 425.499 5.19407 0.548942 0
M  V30 4485 H 427.193 2.99377 0.0368116 0
M  V30 4486 H 424.739 1.43991 0.0162651 0
M  V30 4487 H 426.692 3.44116 2.43232 0
M  V30 4488 H 425.416 2.19861 2.41514 0
M  V30 4489 H 424.075 3.57979 0.790351 0
M  V30 4490 H 423.723 3.83646 3.25308 0
M  V30 4491 H 423.423 5.367 2.39222 0
M  V30 4492 H 424.947 5.13967 3.29651 0
M  V30 4493 H 426.361 5.63059 1.07876 0
M  V30 4494 H 424.758 5.98936 0.373593 0
M  V30 4495 H 425.828 4.8295 -0.434394 0
M  V30 4496 N 427.171 -0.0066808 1.57599 0
M  V30 4497 C 428.134 -0.985035 2.06953 0
M  V30 4498 C 429.134 -1.27663 0.977687 0
M  V30 4499 O 430.324 -1.22293 1.24057 0
M  V30 4500 C 427.456 -2.3118 2.50536 0
M  V30 4501 H 428.649 -0.558255 2.94658 0
M  V30 4502 H 426.202 -0.254011 1.54222 0
M  V30 4503 H 426.937 -2.78561 1.66054 0
M  V30 4504 H 426.722 -2.11338 3.3027 0
M  V30 4505 H 428.212 -3.01377 2.8907 0
M  V30 4506 N 428.649 -1.55105 -0.279332 0
M  V30 4507 C 429.612 -1.86783 -1.32834 0
M  V30 4508 C 430.612 -0.74199 -1.42657 0
M  V30 4509 O 431.802 -1.0102 -1.41918 0
M  V30 4510 C 428.934 -2.06746 -2.71052 0
M  V30 4511 H 430.127 -2.8055 -1.05979 0
M  V30 4512 H 427.68 -1.47499 -0.517087 0
M  V30 4513 H 428.415 -1.15339 -3.03097 0
M  V30 4514 H 428.2 -2.88711 -2.65309 0
M  V30 4515 H 429.69 -2.32549 -3.46858 0
M  V30 4516 N 430.127 0.543554 -1.4793 0
M  V30 4517 C 431.357 1.32324 -1.58663 0
M  V30 4518 C 431.765 1.8766 -0.240896 0
M  V30 4519 O 431.108 1.66411 0.778011 0
M  V30 4520 C 431.17 2.52094 -2.56299 0
M  V30 4521 C 430.834 2.17944 -4.01683 0
M  V30 4522 C 431.831 1.74422 -4.89768 0
M  V30 4523 C 429.516 2.28884 -4.47121 0
M  V30 4524 C 431.51 1.42287 -6.21316 0
M  V30 4525 C 429.197 1.96361 -5.78693 0
M  V30 4526 C 430.195 1.53132 -6.65612 0
M  V30 4527 O 429.883 1.21029 -7.94737 0
M  V30 4528 H 429.615 0.409174 -0.538101 0
M  V30 4529 H 432.169 0.663887 -1.94375 0
M  V30 4530 H 430.399 3.20965 -2.15681 0
M  V30 4531 H 432.088 3.14165 -2.57012 0
M  V30 4532 H 432.854 1.65452 -4.55907 0
M  V30 4533 H 428.733 2.61488 -3.79664 0
M  V30 4534 H 432.277 1.08472 -6.89115 0
M  V30 4535 H 428.174 2.04967 -6.12094 0
M  V30 4536 H 428.942 1.34543 -8.07366 0
M  V30 4537 N 431.605 1.3629 0.791371 0
M  V30 4538 C 433.021 1.16661 1.08914 0
M  V30 4539 C 433.221 -0.0106266 2.01497 0
M  V30 4540 O 432.277 -0.676596 2.43266 0
M  V30 4541 C 433.59 2.47656 1.70549 0
M  V30 4542 C 435.138 2.54002 1.82899 0
M  V30 4543 C 435.613 3.85078 2.47949 0
M  V30 4544 N 437.104 3.86413 2.5542 0
M  V30 4545 C 437.839 4.84572 3.06557 0
M  V30 4546 N 437.335 5.93124 3.58016 0
M  V30 4547 N 439.128 4.71994 3.05251 0
M  V30 4548 H 431.279 2.11668 0.176238 0
M  V30 4549 H 433.542 0.937486 0.140796 0
M  V30 4550 H 433.248 3.34059 1.09989 0
M  V30 4551 H 433.122 2.63319 2.70079 0
M  V30 4552 H 435.509 1.68018 2.42598 0
M  V30 4553 H 435.59 2.42239 0.821808 0
M  V30 4554 H 435.234 4.71467 1.88895 0
M  V30 4555 H 435.164 3.94135 3.49235 0
M  V30 4556 H 437.655 3.07988 2.18979 0
M  V30 4557 H 437.968 6.63999 3.95381 0
M  V30 4558 H 436.313 5.96796 3.56173 0
M  V30 4559 H 439.504 3.86321 2.64336 0
M  V30 4560 H 439.677 5.48653 3.44796 0
M  V30 4561 N 433.083 -1.0153 1.20538 0
M  V30 4562 C 434.36 -1.72327 0.925343 0
M  V30 4563 C 434.74 -2.03383 -0.565547 0
M  V30 4564 O 434.088 -1.69934 -1.52757 0
M  V30 4565 C 434.298 -2.9902 1.79967 0
M  V30 4566 C 435.646 -3.72258 2.04228 0
M  V30 4567 O 436.67 -3.08979 1.77231 0
M  V30 4568 O 435.529 -4.86053 2.4983 0
M  V30 4569 H 432.623 -0.751099 0.346092 0
M  V30 4570 H 435.169 -1.07366 1.31417 0
M  V30 4571 H 433.941 -2.72402 2.80915 0
M  V30 4572 H 433.564 -3.71721 1.41099 0
M  V30 4573 N 434.561 -1.01147 -1.20859 0
M  V30 4574 C 435.81 -0.693214 -1.89413 0
M  V30 4575 C 436.123 0.779969 -1.79376 0
M  V30 4576 O 437.329 1.21057 -2.43017 0
M  V30 4577 C 435.785 -1.18949 -3.39675 0
M  V30 4578 C 435.393 -2.68921 -3.58309 0
M  V30 4579 C 437.137 -0.94642 -4.13815 0
M  V30 4580 C 435.044 -3.12056 -5.0237 0
M  V30 4581 H 433.974 -0.255595 -0.709357 0
M  V30 4582 H 436.625 -1.22349 -1.36759 0
M  V30 4583 H 435.007 -0.587228 -3.91622 0
M  V30 4584 H 436.181 -3.34652 -3.16772 0
M  V30 4585 H 434.496 -2.91314 -2.97532 0
M  V30 4586 H 437.093 -1.24417 -5.20023 0
M  V30 4587 H 437.436 0.117219 -4.16135 0
M  V30 4588 H 437.969 -1.5118 -3.67953 0
M  V30 4589 H 434.708 -4.17674 -5.05202 0
M  V30 4590 H 434.228 -2.51041 -5.44737 0
M  V30 4591 H 435.907 -3.04403 -5.70918 0
M  V30 4592 N 436.039 1.36541 -0.78704 0
M  V30 4593 C 436.969 2.32659 -0.197992 0
M  V30 4594 C 437.95 1.56533 0.665697 0
M  V30 4595 O 439.135 1.84698 0.60001 0
M  V30 4596 C 436.265 3.40778 0.669901 0
M  V30 4597 C 435.219 4.27897 -0.0937039 0
M  V30 4598 C 434.545 5.27163 0.894629 0
M  V30 4599 C 435.845 5.06334 -1.28154 0
M  V30 4600 H 437.539 2.82171 -1.00099 0
M  V30 4601 H 435.085 1.35665 -0.482793 0
M  V30 4602 H 437.038 4.07008 1.09191 0
M  V30 4603 H 435.762 2.89827 1.50558 0
M  V30 4604 H 434.421 3.6322 -0.49666 0
M  V30 4605 H 434.069 4.72486 1.72527 0
M  V30 4606 H 433.769 5.86317 0.388149 0
M  V30 4607 H 435.293 5.96266 1.31525 0
M  V30 4608 H 436.707 5.65617 -0.93541 0
M  V30 4609 H 435.104 5.74888 -1.72115 0
M  V30 4610 H 436.174 4.38114 -2.07807 0
M  V30 4611 N 437.518 0.538854 1.48102 0
M  V30 4612 C 438.934 0.19732 1.58376 0
M  V30 4613 C 439.134 -1.29971 1.5398 0
M  V30 4614 O 438.19 -2.07861 1.43352 0
M  V30 4615 C 439.503 0.807716 2.89649 0
M  V30 4616 C 441.051 0.77726 3.03196 0
M  V30 4617 C 441.526 1.36639 4.37143 0
M  V30 4618 N 443.017 1.32875 4.43732 0
M  V30 4619 C 443.752 1.7544 5.45901 0
M  V30 4620 N 443.248 2.25776 6.54979 0
M  V30 4621 N 445.041 1.66623 5.36836 0
M  V30 4622 H 437.192 1.5117 1.49202 0
M  V30 4623 H 439.455 0.629327 0.708979 0
M  V30 4624 H 439.161 1.85909 2.98548 0
M  V30 4625 H 439.035 0.289975 3.76084 0
M  V30 4626 H 441.422 -0.265374 2.93904 0
M  V30 4627 H 441.503 1.33256 2.18349 0
M  V30 4628 H 441.147 2.408 4.47189 0
M  V30 4629 H 441.077 0.786689 5.20691 0
M  V30 4630 H 443.568 0.96037 3.65493 0
M  V30 4631 H 443.881 2.56226 7.29087 0
M  V30 4632 H 442.226 2.29775 6.55918 0
M  V30 4633 H 445.417 1.27089 4.50517 0
M  V30 4634 H 445.59 2.00115 6.16326 0
M  V30 4635 N 438.996 -1.55193 0.274407 0
M  V30 4636 C 440.273 -1.91584 -0.394331 0
M  V30 4637 C 440.653 -1.19858 -1.73774 0
M  V30 4638 O 440.001 -0.3252 -2.26174 0
M  V30 4639 C 440.211 -3.4487 -0.535311 0
M  V30 4640 C 441.559 -4.16636 -0.818534 0
M  V30 4641 O 442.583 -3.5076 -0.620146 0
M  V30 4642 O 441.442 -5.33209 -1.19792 0
M  V30 4643 H 438.536 -0.798349 -0.215794 0
M  V30 4644 H 441.082 -1.66646 0.320507 0
M  V30 4645 H 439.854 -3.89145 0.410141 0
M  V30 4646 H 439.477 -3.75759 -1.29964 0
M  V30 4647 N 440.474 -0.00167713 -1.576 0
M  V30 4648 C 441.89 0.354422 -1.55615 0
M  V30 4649 C 442.09 1.74679 -1.00447 0
M  V30 4650 O 441.146 2.4428 -0.639022 0
M  V30 4651 C 442.459 0.22812 -2.99833 0
M  V30 4652 C 444.007 0.302934 -3.11531 0
M  V30 4653 C 444.482 0.205737 -4.57538 0
M  V30 4654 N 445.973 0.263584 -4.62449 0
M  V30 4655 C 446.708 0.211742 -5.73009 0
M  V30 4656 N 446.204 0.110399 -6.92712 0
M  V30 4657 N 447.997 0.263729 -5.61481 0
M  V30 4658 H 440.148 -0.912498 -1.918 0
M  V30 4659 H 442.411 -0.349928 -0.881053 0
M  V30 4660 H 442.117 -0.729934 -3.44042 0
M  V30 4661 H 441.991 1.00951 -3.6344 0
M  V30 4662 H 444.378 1.25143 -2.67251 0
M  V30 4663 H 444.459 -0.508357 -2.50698 0
M  V30 4664 H 444.103 -0.739225 -5.02492 0
M  V30 4665 H 444.033 1.03554 -5.16318 0
M  V30 4666 H 446.524 0.343173 -3.76339 0
M  V30 4667 H 446.837 0.0767828 -7.72762 0
M  V30 4668 H 445.182 0.0760025 -6.94958 0
M  V30 4669 H 448.373 0.34111 -4.66855 0
M  V30 4670 H 448.546 0.219862 -6.47627 0
M  V30 4671 N 441.952 1.55251 0.271103 0
M  V30 4672 C 443.229 1.66664 1.02384 0
M  V30 4673 C 443.609 0.534363 2.04225 0
M  V30 4674 O 442.957 -0.465337 2.23712 0
M  V30 4675 C 443.167 3.05961 1.67895 0
M  V30 4676 C 444.515 3.63772 2.18986 0
M  V30 4677 O 445.539 3.08606 1.77878 0
M  V30 4678 O 444.398 4.60429 2.94393 0
M  V30 4679 H 441.492 0.676957 0.475035 0
M  V30 4680 H 444.038 1.67589 0.26681 0
M  V30 4681 H 442.81 3.79815 0.941071 0
M  V30 4682 H 442.433 3.08943 2.5028 0
M  V30 4683 N 443.43 -0.535701 1.48216 0
M  V30 4684 C 444.393 -1.623 1.61838 0
M  V30 4685 C 445.393 -1.53087 0.492024 0
M  V30 4686 O 446.583 -1.5686 0.757668 0
M  V30 4687 C 443.715 -3.01907 1.58319 0
M  V30 4688 H 444.908 -1.51564 2.58783 0
M  V30 4689 H 442.461 -0.757317 1.36727 0
M  V30 4690 H 443.196 -3.18155 0.628299 0
M  V30 4691 H 442.981 -3.10003 2.40085 0
M  V30 4692 H 444.471 -3.80969 1.71033 0
M  V30 4693 N 444.908 -1.36708 -0.784132 0
M  V30 4694 C 445.856 -1.31533 -1.91838 0
M  V30 4695 C 446.85 -0.206205 -1.6814 0
M  V30 4696 O 448.056 -0.373519 -1.76082 0
M  V30 4697 H 444.431 -0.409613 -0.630651 0
M  V30 4698 H 446.402 -2.2731 -1.9332 0
M  V30 4699 C 445.151 -1.12679 -3.28936 0
M  V30 4700 H 444.474 -1.97274 -3.4774 0
M  V30 4701 H 445.914 -1.13106 -4.08636 0
M  V30 4702 C 444.373 0.168281 -3.36479 0
M  V30 4703 O 444.903 1.15625 -3.84699 0
M  V30 4704 N 443.109 0.214762 -2.89805 0
M  V30 4705 H 442.656 -0.589852 -2.50756 0
M  V30 4706 H 442.614 1.08094 -2.95234 0
M  V30 4707 N 446.386 1.0089 -1.21074 0
M  V30 4708 C 447.296 2.13039 -0.982425 0
M  V30 4709 C 448.312 1.73881 0.0642161 0
M  V30 4710 O 449.488 2.01012 -0.12496 0
M  V30 4711 C 446.553 3.42377 -0.545803 0
M  V30 4712 C 445.614 3.95731 -1.6642 0
M  V30 4713 C 444.847 5.18896 -1.24832 0
M  V30 4714 O 445.07 5.70273 -0.120265 0
M  V30 4715 O 444.004 5.65597 -2.05873 0
M  V30 4716 H 447.83 2.35175 -1.92163 0
M  V30 4717 H 445.415 1.1142 -0.995285 0
M  V30 4718 H 447.297 4.20244 -0.311912 0
M  V30 4719 H 445.972 3.21639 0.364727 0
M  V30 4720 H 444.879 3.19108 -1.95246 0
M  V30 4721 H 446.212 4.20872 -2.55201 0
M  V30 4722 N 447.864 1.01787 1.20321 0
M  V30 4723 C 449.28 0.732951 1.41774 0
M  V30 4724 C 449.48 -0.686883 1.89431 0
M  V30 4725 O 448.536 -1.45446 2.06402 0
M  V30 4726 C 449.849 1.75973 2.43832 0
M  V30 4727 C 451.397 1.77802 2.57596 0
M  V30 4728 C 451.872 2.7941 3.62897 0
M  V30 4729 N 453.363 2.78157 3.70382 0
M  V30 4730 C 454.098 3.53434 4.51521 0
M  V30 4731 N 453.594 4.38392 5.36455 0
M  V30 4732 N 455.387 3.42026 4.46066 0
M  V30 4733 H 447.538 1.93447 0.877035 0
M  V30 4734 H 449.801 0.835712 0.447536 0
M  V30 4735 H 449.507 2.77699 2.15815 0
M  V30 4736 H 449.381 1.57292 3.4284 0
M  V30 4737 H 451.768 0.767602 2.84942 0
M  V30 4738 H 451.849 2.00557 1.58779 0
M  V30 4739 H 451.493 3.80616 3.36295 0
M  V30 4740 H 451.423 2.53916 4.61339 0
M  V30 4741 H 453.914 2.16531 3.09714 0
M  V30 4742 H 454.227 4.92596 5.95457 0
M  V30 4743 H 452.572 4.4247 5.35953 0
M  V30 4744 H 455.763 2.75075 3.78749 0
M  V30 4745 H 455.936 4.00946 5.09064 0
M  V30 4746 N 449.342 -1.36122 0.79427 0
M  V30 4747 C 450.588 -1.99406 0.369452 0
M  V30 4748 C 450.921 -1.62886 -1.05743 0
M  V30 4749 O 450.196 -0.886053 -1.73145 0
M  V30 4750 C 450.479 -3.56046 0.538833 0
M  V30 4751 C 450.332 -4.02404 2.00976 0
M  V30 4752 C 451.651 -4.40079 -0.0431359 0
M  V30 4753 H 448.77 -0.724397 0.135712 0
M  V30 4754 H 451.412 -1.61461 1.00151 0
M  V30 4755 H 449.562 -3.885 0.000771004 0
M  V30 4756 H 451.234 -3.80415 2.60926 0
M  V30 4757 H 449.477 -3.53765 2.51063 0
M  V30 4758 H 450.148 -5.11344 2.07922 0
M  V30 4759 H 452.624 -4.14013 0.416228 0
M  V30 4760 H 451.5 -5.48799 0.105374 0
M  V30 4761 H 451.761 -4.27264 -1.13571 0
M  V30 4762 N 450.82 -0.546701 -1.47814 0
M  V30 4763 C 451.783 0.196287 -2.28358 0
M  V30 4764 C 452.783 0.852437 -1.36346 0
M  V30 4765 O 453.973 0.709913 -1.59078 0
M  V30 4766 C 451.105 1.28579 -3.15722 0
M  V30 4767 H 452.298 -0.511086 -2.95513 0
M  V30 4768 H 449.851 -0.303248 -1.5333 0
M  V30 4769 H 450.586 2.0259 -2.53235 0
M  V30 4770 H 450.371 0.820229 -3.83425 0
M  V30 4771 H 451.861 1.80793 -3.76435 0
M  V30 4772 N 452.299 1.55045 -0.282633 0
M  V30 4773 C 453.209 2.26491 0.61147 0
M  V30 4774 C 454.225 1.29348 1.16384 0
M  V30 4775 O 455.401 1.62298 1.19253 0
M  V30 4776 C 452.466 2.97779 1.77563 0
M  V30 4777 C 451.527 4.10418 1.25919 0
M  V30 4778 C 450.76 4.78297 2.36786 0
M  V30 4779 O 450.983 4.45426 3.56303 0
M  V30 4780 O 449.917 5.66089 2.04517 0
M  V30 4781 H 453.743 3.03683 0.0324615 0
M  V30 4782 H 451.328 1.49317 -0.0497576 0
M  V30 4783 H 453.21 3.42554 2.45427 0
M  V30 4784 H 451.885 2.23498 2.34159 0
M  V30 4785 H 450.792 3.70082 0.546797 0
M  V30 4786 H 452.125 4.86622 0.738887 0
M  V30 4787 N 453.777 0.010035 1.57597 0
M  V30 4788 C 455.024 -0.6727 1.91 0
M  V30 4789 C 455.352 -1.73219 0.884614 0
M  V30 4790 O 454.607 -1.95395 -0.109215 0
M  V30 4791 C 454.906 -1.34434 3.31153 0
M  V30 4792 C 454.572 -0.417083 4.48967 0
M  V30 4793 C 453.234 -0.161809 4.80928 0
M  V30 4794 C 455.586 0.220753 5.20732 0
M  V30 4795 C 452.914 0.739426 5.82022 0
M  V30 4796 C 455.266 1.10993 6.22787 0
M  V30 4797 C 453.93 1.37428 6.532 0
M  V30 4798 H 453.2 -0.246158 0.698918 0
M  V30 4799 H 455.847 0.0677145 1.9138 0
M  V30 4800 H 454.152 -2.15905 3.26944 0
M  V30 4801 H 455.849 -1.87883 3.54261 0
M  V30 4802 H 452.439 -0.626217 4.24001 0
M  V30 4803 H 456.623 0.0365643 4.96287 0
M  V30 4804 H 451.879 0.952139 6.03941 0
M  V30 4805 H 456.053 1.61046 6.77523 0
M  V30 4806 H 453.68 2.0743 7.31353 0
M  V30 4807 N 455.255 -1.55392 -0.262866 0
M  V30 4808 C 456.504 -1.75679 -0.990943 0
M  V30 4809 C 456.817 -0.57097 -1.87081 0
M  V30 4810 O 458.023 -0.656486 -2.63444 0
M  V30 4811 C 456.479 -3.10964 -1.81188 0
M  V30 4812 C 456.087 -4.37146 -0.980188 0
M  V30 4813 C 457.831 -3.40597 -2.53365 0
M  V30 4814 C 455.738 -5.63466 -1.7961 0
M  V30 4815 H 454.668 -0.654868 -0.373716 0
M  V30 4816 H 457.319 -1.81841 -0.246203 0
M  V30 4817 H 455.701 -2.98867 -2.59797 0
M  V30 4818 H 456.875 -4.60187 -0.237558 0
M  V30 4819 H 455.19 -4.14731 -0.372497 0
M  V30 4820 H 457.787 -4.32186 -3.14833 0
M  V30 4821 H 458.13 -2.6119 -3.24169 0
M  V30 4822 H 458.663 -3.53838 -1.81779 0
M  V30 4823 H 455.402 -6.4565 -1.13209 0
M  V30 4824 H 454.922 -5.44552 -2.51443 0
M  V30 4825 H 456.601 -6.02139 -2.36723 0
M  V30 4826 N 456.733 0.527833 -1.48498 0
M  V30 4827 C 458.149 0.856571 -1.34666 0
M  V30 4828 C 458.349 1.98271 -0.35931 0
M  V30 4829 O 457.405 2.51551 0.218703 0
M  V30 4830 C 458.718 1.22207 -2.74747 0
M  V30 4831 C 460.266 1.33183 -2.83251 0
M  V30 4832 C 460.741 1.73075 -4.24039 0
M  V30 4833 N 462.232 1.80174 -4.26722 0
M  V30 4834 C 462.967 2.1243 -5.32598 0
M  V30 4835 N 462.463 2.43096 -6.4875 0
M  V30 4836 N 464.256 2.13454 -5.19994 0
M  V30 4837 H 456.407 -0.215174 -2.11307 0
M  V30 4838 H 458.67 -0.0336281 -0.947403 0
M  V30 4839 H 458.376 0.468195 -3.4857 0
M  V30 4840 H 458.25 2.17173 -3.08409 0
M  V30 4841 H 460.637 2.07647 -2.09683 0
M  V30 4842 H 460.718 0.363333 -2.53206 0
M  V30 4843 H 460.362 0.991712 -4.98124 0
M  V30 4844 H 460.292 2.70979 -4.51529 0
M  V30 4845 H 462.783 1.58744 -3.42942 0
M  V30 4846 H 463.096 2.6682 -7.25277 0
M  V30 4847 H 461.441 2.40611 -6.52021 0
M  V30 4848 H 464.632 1.88956 -4.28268 0
M  V30 4849 H 464.805 2.38261 -6.02608 0
M  V30 4850 N 458.211 1.37122 0.776871 0
M  V30 4851 C 459.159 1.32549 1.91138 0
M  V30 4852 C 460.153 0.215119 1.68029 0
M  V30 4853 O 461.359 0.382852 1.75881 0
M  V30 4854 H 457.734 0.412952 0.62847 0
M  V30 4855 H 459.705 2.28332 1.92112 0
M  V30 4856 C 458.454 1.14422 3.28333 0
M  V30 4857 H 457.777 1.99115 3.46689 0
M  V30 4858 H 459.217 1.15272 4.0803 0
M  V30 4859 C 457.676 -0.150434 3.36564 0
M  V30 4860 O 458.206 -1.13584 3.85307 0
M  V30 4861 N 456.412 -0.19939 2.89915 0
M  V30 4862 H 455.959 0.603142 2.5044 0
M  V30 4863 H 455.917 -1.06526 2.95803 0
M  V30 4864 N 459.689 -1.00246 1.21608 0
M  V30 4865 C 460.636 -2.09073 0.977613 0
M  V30 4866 C 461.606 -1.65815 -0.097297 0
M  V30 4867 O 462.791 -1.90734 0.0503445 0
M  V30 4868 C 459.931 -3.40671 0.551133 0
M  V30 4869 C 459.044 -3.97326 1.69576 0
M  V30 4870 C 458.179 -5.17043 1.2182 0
M  V30 4871 C 457.218 -5.65813 2.335 0
M  V30 4872 N 456.355 -6.76778 1.86859 0
M  V30 4873 H 461.195 -2.28806 1.90924 0
M  V30 4874 H 458.732 -1.12186 0.951452 0
M  V30 4875 H 460.69 -4.16225 0.285097 0
M  V30 4876 H 459.32 -3.20967 -0.343489 0
M  V30 4877 H 458.372 -3.18734 2.07637 0
M  V30 4878 H 459.684 -4.29511 2.53617 0
M  V30 4879 H 458.838 -5.99852 0.908975 0
M  V30 4880 H 457.577 -4.86458 0.347869 0
M  V30 4881 H 456.582 -4.81599 2.65222 0
M  V30 4882 H 457.807 -5.98427 3.21033 0
M  V30 4883 H 455.753 -6.47994 1.02174 0
M  V30 4884 H 455.67 -7.08231 2.64471 0
M  V30 4885 H 456.938 -7.63116 1.58978 0
M  V30 4886 N 461.167 -1.02423 -1.1978 0
M  V30 4887 C 462.416 -0.713265 -1.88667 0
M  V30 4888 C 462.729 0.7609 -1.80193 0
M  V30 4889 O 463.935 1.18473 -2.44288 0
M  V30 4890 C 462.391 -1.22545 -3.38394 0
M  V30 4891 C 461.999 -2.72706 -3.55437 0
M  V30 4892 C 463.743 -0.990257 -4.12788 0
M  V30 4893 C 461.65 -3.17367 -4.99031 0
M  V30 4894 H 460.58 -0.263105 -0.706606 0
M  V30 4895 H 463.231 -1.23792 -1.35454 0
M  V30 4896 H 461.613 -0.628732 -3.90977 0
M  V30 4897 H 462.787 -3.37993 -3.13205 0
M  V30 4898 H 461.102 -2.94453 -2.94425 0
M  V30 4899 H 463.699 -1.29926 -5.18675 0
M  V30 4900 H 464.042 0.0730761 -4.16236 0
M  V30 4901 H 464.575 -1.55074 -3.66329 0
M  V30 4902 H 461.314 -4.23009 -5.00743 0
M  V30 4903 H 460.834 -2.56805 -5.42044 0
M  V30 4904 H 462.513 -3.10441 -5.67658 0
M  V30 4905 N 462.645 1.35699 -0.801477 0
M  V30 4906 C 464.061 1.52065 -0.484596 0
M  V30 4907 C 464.261 1.75215 0.995084 0
M  V30 4908 O 463.317 1.79061 1.78026 0
M  V30 4909 C 464.63 2.69908 -1.32552 0
M  V30 4910 C 466.178 2.83784 -1.32044 0
M  V30 4911 C 466.653 4.04646 -2.14536 0
M  V30 4912 N 468.144 4.11814 -2.12046 0
M  V30 4913 C 468.879 5.04437 -2.72636 0
M  V30 4914 N 468.375 6.02426 -3.42133 0
M  V30 4915 N 470.168 4.97144 -2.62305 0
M  V30 4916 H 462.319 1.18928 -1.75983 0
M  V30 4917 H 464.582 0.581455 -0.748741 0
M  V30 4918 H 464.288 2.59363 -2.37537 0
M  V30 4919 H 464.162 3.64376 -0.975181 0
M  V30 4920 H 466.549 2.93783 -0.27846 0
M  V30 4921 H 466.63 1.90188 -1.71062 0
M  V30 4922 H 466.274 3.95407 -3.18772 0
M  V30 4923 H 466.204 4.97413 -1.72882 0
M  V30 4924 H 468.695 3.41664 -1.61476 0
M  V30 4925 H 469.008 6.69688 -3.85666 0
M  V30 4926 H 467.353 6.02615 -3.46237 0
M  V30 4927 H 470.544 4.19546 -2.07603 0
M  V30 4928 H 470.717 5.69138 -3.09815 0
M  V30 4929 N 464.123 0.554532 1.47522 0
M  V30 4930 C 465.071 -0.207765 2.3167 0
M  V30 4931 C 466.065 -0.911914 1.4276 0
M  V30 4932 O 467.271 -0.833504 1.59539 0
M  V30 4933 H 463.646 -0.0858726 0.747081 0
M  V30 4934 H 465.617 0.521178 2.93813 0
M  V30 4935 C 464.366 -1.2263 3.25357 0
M  V30 4936 H 463.689 -0.693887 3.93732 0
M  V30 4937 H 465.129 -1.73062 3.87073 0
M  V30 4938 C 463.588 -2.27278 2.4869 0
M  V30 4939 O 464.118 -3.34156 2.22941 0
M  V30 4940 N 462.324 -2.01134 2.09746 0
M  V30 4941 H 461.871 -1.14232 2.30887 0
M  V30 4942 H 461.829 -2.71369 1.58765 0
M  V30 4943 N 465.601 -1.54893 0.290851 0
M  V30 4944 C 466.829 -2.04343 -0.324288 0
M  V30 4945 C 467.244 -1.16859 -1.48289 0
M  V30 4946 O 466.601 -0.192018 -1.81487 0
M  V30 4947 C 466.652 -3.52756 -0.79026 0
M  V30 4948 O 466.373 -4.36913 0.322213 0
M  V30 4949 C 467.874 -4.18161 -1.4716 0
M  V30 4950 H 465.094 -0.667135 -0.0719173 0
M  V30 4951 H 467.638 -1.99981 0.427529 0
M  V30 4952 H 465.793 -3.57511 -1.49213 0
M  V30 4953 H 466.207 -5.24486 -0.0387372 0
M  V30 4954 H 467.681 -5.23562 -1.7489 0
M  V30 4955 H 468.158 -3.67282 -2.40834 0
M  V30 4956 H 468.764 -4.17454 -0.813178 0
M  V30 4957 N 467.08 -0.0183926 -1.57589 0
M  V30 4958 C 468.326 0.663543 -1.91638 0
M  V30 4959 C 468.659 1.72392 -0.894134 0
M  V30 4960 O 467.934 1.94316 0.0846449 0
M  V30 4961 C 468.217 1.28984 -3.36207 0
M  V30 4962 C 468.07 0.239761 -4.49161 0
M  V30 4963 C 469.389 2.2109 -3.80536 0
M  V30 4964 H 466.508 0.239746 -0.696915 0
M  V30 4965 H 469.15 -0.073456 -1.89858 0
M  V30 4966 H 467.3 1.91799 -3.37854 0
M  V30 4967 H 468.972 -0.390119 -4.59647 0
M  V30 4968 H 467.215 -0.435972 -4.31604 0
M  V30 4969 H 467.886 0.717383 -5.47319 0
M  V30 4970 H 470.362 1.68273 -3.80557 0
M  V30 4971 H 469.238 2.61869 -4.82406 0
M  V30 4972 H 469.499 3.09764 -3.15434 0
M  V30 4973 N 468.558 1.5553 0.254621 0
M  V30 4974 C 469.974 1.4778 0.602753 0
M  V30 4975 C 470.174 0.707047 1.88688 0
M  V30 4976 O 469.23 0.233288 2.5142 0
M  V30 4977 C 470.543 2.92133 0.712648 0
M  V30 4978 C 472.091 3.02458 0.805488 0
M  V30 4979 C 472.566 4.48102 0.947009 0
M  V30 4980 N 474.057 4.52008 1.01207 0
M  V30 4981 C 474.792 5.61939 1.1407 0
M  V30 4982 N 474.288 6.81697 1.23536 0
M  V30 4983 N 476.081 5.49719 1.17325 0
M  V30 4984 H 468.232 2.04085 -0.588463 0
M  V30 4985 H 470.495 0.926229 -0.202001 0
M  V30 4986 H 470.201 3.51332 -0.160766 0
M  V30 4987 H 470.075 3.42187 1.58707 0
M  V30 4988 H 472.462 2.43344 1.66936 0
M  V30 4989 H 472.543 2.55627 -0.0939266 0
M  V30 4990 H 472.187 5.07824 0.087725 0
M  V30 4991 H 472.117 4.92607 1.86135 0
M  V30 4992 H 474.608 3.65749 0.950577 0
M  V30 4993 H 474.921 7.61228 1.33236 0
M  V30 4994 H 473.266 6.84473 1.20508 0
M  V30 4995 H 476.457 4.55095 1.09573 0
M  V30 4996 H 476.63 6.35432 1.27005 0
M  V30 4997 N 470.036 -0.519951 1.48776 0
M  V30 4998 C 471.313 -1.28123 1.47797 0
M  V30 4999 C 471.693 -2.10196 0.195157 0
M  V30 5000 O 471.041 -2.13167 -0.822925 0
M  V30 5001 C 471.251 -2.15413 2.74587 0
M  V30 5002 C 472.599 -2.75225 3.23321 0
M  V30 5003 O 473.623 -2.25694 2.75574 0
M  V30 5004 O 472.482 -3.65346 4.06429 0
M  V30 5005 H 469.576 -0.578793 0.590701 0
M  V30 5006 H 472.122 -0.535779 1.6102 0
M  V30 5007 H 470.894 -1.54617 3.59457 0
M  V30 5008 H 470.517 -2.97186 2.64132 0
M  V30 5009 N 471.514 -1.37532 -0.769588 0
M  V30 5010 C 472.925 -1.29382 -1.346 0
M  V30 5011 C 473.276 0.0576039 -1.96115 0
M  V30 5012 O 472.401 0.95947 -1.93967 0
M  V30 5013 C 472.996 -2.34298 -2.44724 0
M  V30 5014 C 471.555 -2.29776 -2.98128 0
M  V30 5015 C 470.702 -2.18013 -1.71364 0
M  V30 5016 H 473.653 -1.48123 -0.56968 0
M  V30 5017 H 473.674 -1.99089 -3.24259 0
M  V30 5018 H 473.186 -3.32645 -1.99922 0
M  V30 5019 H 471.287 -1.34959 -3.47299 0
M  V30 5020 H 471.4 -3.23276 -3.53595 0
M  V30 5021 H 469.764 -1.64595 -1.94372 0
M  V30 5022 H 470.547 -3.18278 -1.28662 0
M  V30 5023 N 472.992 0.995999 -1.22138 0
M  V30 5024 C 473.902 2.11985 -1.00496 0
M  V30 5025 C 474.918 1.7394 0.0457701 0
M  V30 5026 O 476.094 2.00868 -0.146273 0
M  V30 5027 C 473.159 3.41779 -0.582086 0
M  V30 5028 C 472.22 3.93943 -1.70608 0
M  V30 5029 C 471.453 5.17542 -1.30328 0
M  V30 5030 O 471.676 5.70114 -0.180743 0
M  V30 5031 O 470.61 5.63382 -2.11861 0
M  V30 5032 H 474.436 2.33123 -1.94647 0
M  V30 5033 H 472.021 1.10358 -1.00705 0
M  V30 5034 H 473.903 4.1989 -0.356467 0
M  V30 5035 H 472.578 3.22007 0.330592 0
M  V30 5036 H 471.485 3.17019 -1.98619 0
M  V30 5037 H 472.818 4.18141 -2.59651 0
M  V30 5038 N 474.47 1.03057 1.19235 0
M  V30 5039 C 475.716 0.729098 1.89241 0
M  V30 5040 C 476.049 -0.740573 1.79525 0
M  V30 5041 O 475.324 -1.53946 1.18874 0
M  V30 5042 C 475.607 1.18304 3.40112 0
M  V30 5043 C 475.46 2.71406 3.5869 0
M  V30 5044 C 476.779 0.765161 4.33397 0
M  V30 5045 H 473.898 0.266338 0.687192 0
M  V30 5046 H 476.54 1.28079 1.40341 0
M  V30 5047 H 474.69 0.713672 3.81889 0
M  V30 5048 H 476.362 3.26303 3.26074 0
M  V30 5049 H 474.605 3.11717 3.01687 0
M  V30 5050 H 475.276 2.98225 4.64506 0
M  V30 5051 H 477.752 1.16889 3.99345 0
M  V30 5052 H 476.628 1.11065 5.37546 0
M  V30 5053 H 476.889 -0.332372 4.40849 0
M  V30 5054 N 475.948 -1.35272 0.808662 0
M  V30 5055 C 476.911 -2.28082 0.226093 0
M  V30 5056 C 477.911 -1.49673 -0.587762 0
M  V30 5057 O 479.101 -1.69404 -0.405943 0
M  V30 5058 C 476.233 -3.33955 -0.684596 0
M  V30 5059 H 477.426 -2.81116 1.04469 0
M  V30 5060 H 474.979 -1.45162 0.579466 0
M  V30 5061 H 475.714 -2.86111 -1.5268 0
M  V30 5062 H 475.499 -3.91965 -0.102699 0
M  V30 5063 H 476.989 -4.03219 -1.08646 0
M  V30 5064 N 477.426 -0.562348 -1.47226 0
M  V30 5065 C 478.336 0.185466 -2.33866 0
M  V30 5066 C 479.352 0.906713 -1.48508 0
M  V30 5067 O 480.528 0.874458 -1.81425 0
M  V30 5068 C 477.593 1.19904 -3.25306 0
M  V30 5069 C 476.654 0.484669 -4.26555 0
M  V30 5070 C 475.887 1.44996 -5.13626 0
M  V30 5071 O 476.11 2.68515 -5.03245 0
M  V30 5072 O 475.044 0.971642 -5.94006 0
M  V30 5073 H 478.87 -0.525361 -2.99121 0
M  V30 5074 H 476.455 -0.322916 -1.45868 0
M  V30 5075 H 478.337 1.78399 -3.81774 0
M  V30 5076 H 477.012 1.8917 -2.62672 0
M  V30 5077 H 475.919 -0.141605 -3.73832 0
M  V30 5078 H 477.252 -0.166634 -4.91918 0
M  V30 5079 N 478.904 1.54736 -0.299062 0
M  V30 5080 C 480.32 1.59507 0.0543849 0
M  V30 5081 C 480.52 1.31606 1.52585 0
M  V30 5082 O 479.576 1.08853 2.27832 0
M  V30 5083 C 480.889 2.98751 -0.34181 0
M  V30 5084 C 482.437 3.1165 -0.290414 0
M  V30 5085 C 482.912 4.53199 -0.661402 0
M  V30 5086 N 484.403 4.59114 -0.613863 0
M  V30 5087 C 485.138 5.66709 -0.873417 0
M  V30 5088 N 484.634 6.82349 -1.19884 0
M  V30 5089 N 486.427 5.56369 -0.800608 0
M  V30 5090 H 478.578 1.71133 -1.25806 0
M  V30 5091 H 480.841 0.799186 -0.509908 0
M  V30 5092 H 480.547 3.24085 -1.36608 0
M  V30 5093 H 480.421 3.75961 0.305508 0
M  V30 5094 H 482.808 2.86066 0.724605 0
M  V30 5095 H 482.889 2.366 -0.972327 0
M  V30 5096 H 482.533 4.79513 -1.67422 0
M  V30 5097 H 482.463 5.26583 0.0425612 0
M  V30 5098 H 484.954 3.76053 -0.3732 0
M  V30 5099 H 485.267 7.60326 -1.38291 0
M  V30 5100 H 483.612 6.83906 -1.23685 0
M  V30 5101 H 486.803 4.64904 -0.546045 0
M  V30 5102 H 486.976 6.40139 -1.00626 0
M  V30 5103 N 480.382 0.0267497 1.57577 0
M  V30 5104 C 481.312 -0.954308 2.13108 0
M  V30 5105 C 482.293 -1.34088 1.04663 0
M  V30 5106 O 483.478 -1.41992 1.32484 0
M  V30 5107 C 480.608 -2.23744 2.65624 0
M  V30 5108 C 479.562 -1.99168 3.78835 0
M  V30 5109 C 478.888 -3.33726 4.17769 0
M  V30 5110 C 480.188 -1.33277 5.0501 0
M  V30 5111 H 481.882 -0.491848 2.95332 0
M  V30 5112 H 479.428 -0.23514 1.42067 0
M  V30 5113 H 481.381 -2.92754 3.03106 0
M  V30 5114 H 480.105 -2.72151 1.80558 0
M  V30 5115 H 478.764 -1.32577 3.41788 0
M  V30 5116 H 478.412 -3.79888 3.29688 0
M  V30 5117 H 478.112 -3.18089 4.94058 0
M  V30 5118 H 479.636 -4.04008 4.57832 0
M  V30 5119 H 481.05 -1.92283 5.40093 0
M  V30 5120 H 479.447 -1.28045 5.8628 0
M  V30 5121 H 480.517 -0.305411 4.83937 0
M  V30 5122 N 481.861 -1.55662 -0.24637 0
M  V30 5123 C 483.107 -1.77782 -0.975779 0
M  V30 5124 C 483.44 -0.592103 -1.84953 0
M  V30 5125 O 482.715 0.409588 -1.90138 0
M  V30 5126 C 482.998 -3.09788 -1.83584 0
M  V30 5127 C 482.851 -4.38764 -0.990241 0
M  V30 5128 C 484.17 -3.38029 -2.81823 0
M  V30 5129 H 481.289 -0.646789 -0.353317 0
M  V30 5130 H 483.931 -1.88398 -0.246248 0
M  V30 5131 H 482.081 -3.00869 -2.45784 0
M  V30 5132 H 483.753 -4.59675 -0.386897 0
M  V30 5133 H 481.996 -4.32798 -0.294626 0
M  V30 5134 H 482.667 -5.27514 -1.62584 0
M  V30 5135 H 485.143 -3.46915 -2.2976 0
M  V30 5136 H 484.019 -4.3161 -3.39122 0
M  V30 5137 H 484.28 -2.58968 -3.58313 0
M  V30 5138 N 483.339 0.512053 -1.4905 0
M  V30 5139 C 484.75 1.09376 -1.51307 0
M  V30 5140 C 485.101 1.94 -0.292971 0
M  V30 5141 O 484.226 2.07965 0.598277 0
M  V30 5142 C 484.821 1.99031 -2.74176 0
M  V30 5143 C 483.38 2.52385 -2.79247 0
M  V30 5144 C 482.527 1.29749 -2.45073 0
M  V30 5145 H 485.478 0.296467 -1.55906 0
M  V30 5146 H 485.499 2.83569 -2.53711 0
M  V30 5147 H 485.011 1.37412 -3.62959 0
M  V30 5148 H 483.112 3.17673 -1.94716 0
M  V30 5149 H 483.225 2.90293 -3.81139 0
M  V30 5150 H 481.589 1.61912 -1.96612 0
M  V30 5151 H 482.372 0.698555 -3.36118 0
M  V30 5152 N 484.817 1.37938 0.762283 0
M  V30 5153 C 485.764 1.34467 1.87583 0
M  V30 5154 C 486.734 0.208633 1.64785 0
M  V30 5155 O 487.919 0.399494 1.86571 0
M  V30 5156 C 485.059 1.16692 3.24772 0
M  V30 5157 C 484.172 2.39608 3.59461 0
M  V30 5158 C 483.307 2.14631 4.85908 0
M  V30 5159 C 482.346 3.33364 5.13357 0
M  V30 5160 N 481.483 3.07877 6.30996 0
M  V30 5161 H 486.323 2.29669 1.89885 0
M  V30 5162 H 483.86 1.14116 0.928219 0
M  V30 5163 H 485.818 1.04405 4.03925 0
M  V30 5164 H 484.448 0.251333 3.2182 0
M  V30 5165 H 483.5 2.626 2.75219 0
M  V30 5166 H 484.812 3.28128 3.75678 0
M  V30 5167 H 483.966 1.99429 5.72986 0
M  V30 5168 H 482.705 1.23463 4.71814 0
M  V30 5169 H 481.71 3.49094 4.24751 0
M  V30 5170 H 482.935 4.25395 5.29354 0
M  V30 5171 H 480.881 2.19348 6.18241 0
M  V30 5172 H 480.798 3.89944 6.47673 0
M  V30 5173 H 482.066 2.96313 7.20985 0
M  V30 5174 N 486.295 -0.989507 1.22664 0
M  V30 5175 C 487.543 -1.72612 1.05117 0
M  V30 5176 C 487.864 -1.90552 -0.414131 0
M  V30 5177 O 487.134 -1.4676 -1.29762 0
M  V30 5178 H 485.714 -0.639555 0.385977 0
M  V30 5179 H 488.376 -1.19158 1.54232 0
M  V30 5180 H 487.472 -2.71926 1.53175 0
M  V30 5181 N 487.773 -1.03688 -1.18687 0
M  V30 5182 C 489.003 -0.756819 -1.92239 0
M  V30 5183 C 489.411 0.689374 -1.76194 0
M  V30 5184 O 488.754 1.48126 -1.08648 0
M  V30 5185 C 488.816 -1.03851 -3.44173 0
M  V30 5186 C 488.48 -2.47785 -3.83994 0
M  V30 5187 C 489.477 -3.4595 -3.88091 0
M  V30 5188 C 487.162 -2.82397 -4.154 0
M  V30 5189 C 489.156 -4.76779 -4.23038 0
M  V30 5190 C 486.843 -4.13433 -4.50018 0
M  V30 5191 C 487.841 -5.10434 -4.53813 0
M  V30 5192 O 487.529 -6.39122 -4.87625 0
M  V30 5193 H 487.261 -0.275678 -0.617234 0
M  V30 5194 H 489.815 -1.38658 -1.51536 0
M  V30 5195 H 488.045 -0.351612 -3.85098 0
M  V30 5196 H 489.734 -0.746846 -3.9897 0
M  V30 5197 H 490.5 -3.20549 -3.63969 0
M  V30 5198 H 486.379 -2.07568 -4.11627 0
M  V30 5199 H 489.923 -5.52488 -4.25914 0
M  V30 5200 H 485.82 -4.38604 -4.736 0
M  V30 5201 H 486.588 -6.43715 -5.05542 0
M  V30 5202 N 489.251 1.34841 -0.815825 0
M  V30 5203 C 490.662 1.80937 -0.46029 0
M  V30 5204 C 491.013 1.67685 1.01863 0
M  V30 5205 O 490.138 1.21277 1.79223 0
M  V30 5206 C 490.733 3.28509 -0.828708 0
M  V30 5207 C 489.292 3.72712 -0.525644 0
M  V30 5208 C 488.439 2.56676 -1.04941 0
M  V30 5209 H 491.39 1.22688 -1.00664 0
M  V30 5210 H 491.411 3.80279 -0.129757 0
M  V30 5211 H 490.923 3.38122 -1.90513 0
M  V30 5212 H 489.024 3.68642 0.541666 0
M  V30 5213 H 489.137 4.67119 -1.06474 0
M  V30 5214 H 487.501 2.50302 -0.471286 0
M  V30 5215 H 488.284 2.69063 -2.13214 0
M  V30 5216 N 490.729 0.570148 1.46925 0
M  V30 5217 C 491.976 0.0509529 2.02436 0
M  V30 5218 C 492.304 -1.30405 1.44308 0
M  V30 5219 O 491.559 -1.86493 0.593198 0
M  V30 5220 C 491.858 -0.0780336 3.57315 0
M  V30 5221 C 491.524 1.20775 4.34424 0
M  V30 5222 C 490.186 1.56004 4.5521 0
M  V30 5223 C 492.538 2.0592 4.78797 0
M  V30 5224 C 489.866 2.76201 5.17619 0
M  V30 5225 C 492.218 3.25332 5.42533 0
M  V30 5226 C 490.882 3.60859 5.61549 0
M  V30 5227 H 490.152 0.018645 0.740765 0
M  V30 5228 H 492.799 0.744262 1.76445 0
M  V30 5229 H 491.104 -0.854394 3.82371 0
M  V30 5230 H 492.801 -0.495312 3.97929 0
M  V30 5231 H 489.391 0.923469 4.18533 0
M  V30 5232 H 493.575 1.80008 4.62505 0
M  V30 5233 H 488.831 3.0388 5.30535 0
M  V30 5234 H 493.005 3.91586 5.75876 0
M  V30 5235 H 490.632 4.54088 6.09678 0
M  V30 5236 N 492.207 -1.54576 0.307264 0
M  V30 5237 C 493.455 -1.99867 -0.299574 0
M  V30 5238 C 493.776 -1.19714 -1.53927 0
M  V30 5239 O 493.046 -0.29472 -1.9367 0
M  V30 5240 H 491.626 -0.738299 -0.113683 0
M  V30 5241 H 494.288 -1.9032 0.420042 0
M  V30 5242 H 493.384 -3.06901 -0.567283 0
M  V30 5243 N 493.685 -0.035106 -1.57561 0
M  V30 5244 C 494.913 0.652258 -1.9635 0
M  V30 5245 C 495.328 1.65317 -0.911897 0
M  V30 5246 O 494.685 1.82194 0.105657 0
M  V30 5247 C 494.736 1.35337 -3.35211 0
M  V30 5248 O 494.457 0.392548 -4.36338 0
M  V30 5249 C 495.958 2.13199 -3.88666 0
M  V30 5250 H 493.178 0.179444 -0.646561 0
M  V30 5251 H 495.722 -0.0966459 -2.04271 0
M  V30 5252 H 493.877 2.05362 -3.28489 0
M  V30 5253 H 494.291 0.891097 -5.16875 0
M  V30 5254 H 495.765 2.577 -4.88154 0
M  V30 5255 H 496.242 2.97353 -3.23231 0
M  V30 5256 H 496.848 1.48118 -3.98674 0
M  V30 5257 N 495.163 1.55791 0.238111 0
M  V30 5258 C 496.11 1.9105 1.29493 0
M  V30 5259 C 497.08 0.765733 1.47397 0
M  V30 5260 O 498.265 1.02017 1.61236 0
M  V30 5261 C 495.405 2.21826 2.64362 0
M  V30 5262 C 494.518 3.49153 2.54394 0
M  V30 5263 C 493.653 3.69455 3.81676 0
M  V30 5264 C 492.692 4.90353 3.66361 0
M  V30 5265 N 491.829 5.07131 4.85554 0
M  V30 5266 H 496.669 2.81172 0.987233 0
M  V30 5267 H 494.206 1.39179 0.476203 0
M  V30 5268 H 496.164 2.37675 3.4288 0
M  V30 5269 H 494.794 1.34897 2.93262 0
M  V30 5270 H 493.846 3.41587 1.67399 0
M  V30 5271 H 495.158 4.37818 2.38991 0
M  V30 5272 H 494.312 3.85311 4.68636 0
M  V30 5273 H 493.051 2.7904 3.99985 0
M  V30 5274 H 492.056 4.74464 2.77784 0
M  V30 5275 H 493.281 5.82237 3.49538 0
M  V30 5276 H 491.227 4.19654 5.04209 0
M  V30 5277 H 491.144 5.89899 4.72816 0
M  V30 5278 H 492.412 5.27407 5.73988 0
M  V30 5279 N 496.642 -0.504142 1.49319 0
M  V30 5280 C 498.058 -0.835039 1.36012 0
M  V30 5281 C 498.258 -1.97674 0.390808 0
M  V30 5282 O 497.314 -2.51867 -0.178655 0
M  V30 5283 C 498.627 -1.17821 2.76656 0
M  V30 5284 C 500.175 -1.2866 2.85334 0
M  V30 5285 C 500.65 -1.66307 4.26739 0
M  V30 5286 N 502.141 -1.73362 4.29534 0
M  V30 5287 C 502.876 -2.0393 5.35911 0
M  V30 5288 N 502.372 -2.32744 6.52535 0
M  V30 5289 N 504.165 -2.05155 5.23324 0
M  V30 5290 H 496.316 0.248764 2.10938 0
M  V30 5291 H 498.579 0.0486962 0.946748 0
M  V30 5292 H 498.285 -0.412682 3.4927 0
M  V30 5293 H 498.159 -2.12239 3.11825 0
M  V30 5294 H 500.546 -2.04285 2.1296 0
M  V30 5295 H 500.627 -0.323004 2.53752 0
M  V30 5296 H 500.271 -0.91234 4.99639 0
M  V30 5297 H 500.201 -2.63761 4.55782 0
M  V30 5298 H 502.692 -1.53268 3.45424 0
M  V30 5299 H 503.005 -2.55248 7.2943 0
M  V30 5300 H 501.35 -2.30207 6.55767 0
M  V30 5301 H 504.541 -1.82119 4.3122 0
M  V30 5302 H 504.714 -2.28644 6.06322 0
M  V30 5303 N 498.12 -1.38341 -0.754957 0
M  V30 5304 C 499.05 -1.38176 -1.88227 0
M  V30 5305 C 500.031 -0.247873 -1.68284 0
M  V30 5306 O 501.216 -0.45075 -1.88896 0
M  V30 5307 C 498.346 -1.20471 -3.25736 0
M  V30 5308 C 497.3 -2.3105 -3.60278 0
M  V30 5309 C 496.626 -1.98452 -4.96509 0
M  V30 5310 C 497.926 -3.73305 -3.65295 0
M  V30 5311 H 499.62 -2.32512 -1.88622 0
M  V30 5312 H 497.166 -1.1192 -0.906082 0
M  V30 5313 H 499.119 -1.18982 -4.04254 0
M  V30 5314 H 497.843 -0.225965 -3.25817 0
M  V30 5315 H 496.502 -2.31723 -2.84078 0
M  V30 5316 H 496.15 -0.990641 -4.93148 0
M  V30 5317 H 495.85 -2.7251 -5.20588 0
M  V30 5318 H 497.374 -1.98578 -5.77407 0
M  V30 5319 H 498.788 -3.7467 -4.3393 0
M  V30 5320 H 497.185 -4.46557 -4.00883 0
M  V30 5321 H 498.255 -4.05719 -2.65556 0
M  V30 5322 N 499.598 0.982988 -1.23187 0
M  V30 5323 C 500.847 1.71817 -1.05649 0
M  V30 5324 C 501.16 1.91315 0.407176 0
M  V30 5325 O 502.366 2.62256 0.702436 0
M  V30 5326 C 500.822 3.09188 -1.84203 0
M  V30 5327 C 500.43 2.97586 -3.34882 0
M  V30 5328 C 502.174 3.86684 -1.75146 0
M  V30 5329 C 500.081 4.30173 -4.05839 0
M  V30 5330 H 499.011 0.644258 -0.391724 0
M  V30 5331 H 501.662 1.09659 -1.4713 0
M  V30 5332 H 500.044 3.72087 -1.35527 0
M  V30 5333 H 501.218 2.43793 -3.91026 0
M  V30 5334 H 499.533 2.33567 -3.44725 0
M  V30 5335 H 502.13 4.84836 -2.25473 0
M  V30 5336 H 502.473 4.10136 -0.713737 0
M  V30 5337 H 503.006 3.30482 -2.21419 0
M  V30 5338 H 499.745 4.11918 -5.09906 0
M  V30 5339 H 499.265 4.83841 -3.54482 0
M  V30 5340 H 500.944 4.98873 -4.11989 0
M  V30 5341 N 501.076 1.04316 1.18135 0
M  V30 5342 C 502.006 0.657299 2.24058 0
M  V30 5343 C 502.987 -0.340678 1.66654 0
M  V30 5344 O 504.172 -0.220223 1.92947 0
M  V30 5345 C 501.302 0.0220715 3.47293 0
M  V30 5346 C 500.256 0.943857 4.17463 0
M  V30 5347 C 499.582 0.172973 5.3442 0
M  V30 5348 C 500.882 2.26409 4.70677 0
M  V30 5349 H 502.576 1.5428 2.56589 0
M  V30 5350 H 500.122 0.743263 1.23335 0
M  V30 5351 H 502.075 -0.259607 4.206 0
M  V30 5352 H 500.799 -0.898323 3.14003 0
M  V30 5353 H 499.458 1.20996 3.46057 0
M  V30 5354 H 499.106 -0.749907 4.97379 0
M  V30 5355 H 498.806 0.787098 5.82304 0
M  V30 5356 H 500.33 -0.101628 6.10515 0
M  V30 5357 H 501.744 2.04294 5.35665 0
M  V30 5358 H 500.141 2.8314 5.29105 0
M  V30 5359 H 501.211 2.90883 3.87962 0
M  V30 5360 N 502.554 -1.34406 0.822964 0
M  V30 5361 C 503.464 -2.33298 0.246838 0
M  V30 5362 C 504.48 -1.62625 -0.618797 0
M  V30 5363 O 505.656 -1.94391 -0.526685 0
M  V30 5364 C 502.721 -3.41785 -0.581731 0
M  V30 5365 C 501.782 -4.28206 0.306309 0
M  V30 5366 C 501.015 -5.31512 -0.48281 0
M  V30 5367 O 501.238 -5.43973 -1.71607 0
M  V30 5368 O 500.172 -6.01749 0.134884 0
M  V30 5369 H 503.998 -2.84401 1.06534 0
M  V30 5370 H 501.583 -1.37466 0.585108 0
M  V30 5371 H 503.465 -4.08028 -1.05313 0
M  V30 5372 H 502.14 -2.92925 -1.37756 0
M  V30 5373 H 501.047 -3.64885 0.825199 0
M  V30 5374 H 502.38 -4.80507 1.06649 0
M  V30 5375 N 504.032 -0.577932 -1.46621 0
M  V30 5376 C 505.281 -0.0594281 -2.01612 0
M  V30 5377 C 505.594 1.30663 -1.45556 0
M  V30 5378 O 506.8 1.91621 -1.92337 0
M  V30 5379 C 505.256 -0.0556666 -3.59857 0
M  V30 5380 C 504.864 -1.41975 -4.24908 0
M  V30 5381 C 506.608 0.409143 -4.22524 0
M  V30 5382 C 504.515 -1.37397 -5.75218 0
M  V30 5383 H 503.445 -0.0184469 -0.753774 0
M  V30 5384 H 506.096 -0.728869 -1.68404 0
M  V30 5385 H 504.478 0.679843 -3.90121 0
M  V30 5386 H 505.652 -2.17461 -4.0626 0
M  V30 5387 H 503.967 -1.82419 -3.74316 0
M  V30 5388 H 506.564 0.46211 -5.32699 0
M  V30 5389 H 506.907 1.42565 -3.91128 0
M  V30 5390 H 507.44 -0.272152 -3.96868 0
M  V30 5391 H 504.179 -2.36714 -6.11267 0
M  V30 5392 H 503.699 -0.661239 -5.96144 0
M  V30 5393 H 505.378 -1.08484 -6.3784 0
M  V30 5394 N 505.51 1.54411 -0.315457 0
M  V30 5395 C 506.787 1.92562 0.343398 0
M  V30 5396 C 507.167 1.24423 1.70535 0
M  V30 5397 O 506.515 0.385051 2.25232 0
M  V30 5398 C 506.725 3.46168 0.443687 0
M  V30 5399 C 508.073 4.18659 0.707783 0
M  V30 5400 O 509.097 3.52281 0.52693 0
M  V30 5401 O 507.956 5.36198 1.05612 0
M  V30 5402 H 505.05 0.80379 0.194552 0
M  V30 5403 H 507.596 1.65738 -0.364577 0
M  V30 5404 H 506.368 3.8792 -0.513172 0
M  V30 5405 H 505.991 3.79073 1.19956 0
M  V30 5406 N 506.988 0.0434614 1.5754 0
M  V30 5407 C 508.218 -0.640905 1.96408 0
M  V30 5408 C 508.626 -1.65365 0.919297 0
M  V30 5409 O 507.969 -1.83395 -0.105795 0
M  V30 5410 C 508.031 -1.39141 3.31482 0
M  V30 5411 C 507.695 -0.535375 4.53853 0
M  V30 5412 C 508.692 0.195335 5.19533 0
M  V30 5413 C 506.377 -0.468564 5.0011 0
M  V30 5414 C 508.371 0.981377 6.298 0
M  V30 5415 C 506.058 0.321171 6.10255 0
M  V30 5416 C 507.056 1.04484 6.74961 0
M  V30 5417 O 506.744 1.8216 7.8299 0
M  V30 5418 H 506.476 -0.180584 0.651433 0
M  V30 5419 H 509.03 0.103848 2.05137 0
M  V30 5420 H 507.26 -2.18162 3.19284 0
M  V30 5421 H 508.949 -1.96526 3.55151 0
M  V30 5422 H 509.715 0.15314 4.84758 0
M  V30 5423 H 505.594 -1.02142 4.49542 0
M  V30 5424 H 509.138 1.54674 6.80237 0
M  V30 5425 H 505.035 0.365032 6.44467 0
M  V30 5426 H 505.803 1.74289 7.99728 0
M  V30 5427 N 508.466 -1.55915 -0.229846 0
M  V30 5428 C 509.696 -1.82352 -0.971152 0
M  V30 5429 C 510.104 -0.619231 -1.7878 0
M  V30 5430 O 509.447 0.421597 -1.78797 0
M  V30 5431 C 509.509 -3.02399 -1.9441 0
M  V30 5432 C 509.173 -4.37739 -1.31277 0
M  V30 5433 C 510.17 -5.15074 -0.706757 0
M  V30 5434 C 507.855 -4.84454 -1.32702 0
M  V30 5435 C 509.849 -6.37281 -0.123413 0
M  V30 5436 C 507.536 -6.06605 -0.739831 0
M  V30 5437 C 508.534 -6.82858 -0.139071 0
M  V30 5438 O 508.222 -8.027 0.439007 0
M  V30 5439 H 507.954 -0.61035 -0.290601 0
M  V30 5440 H 510.508 -2.03839 -0.252746 0
M  V30 5441 H 508.738 -2.76709 -2.70128 0
M  V30 5442 H 510.427 -3.15779 -2.55026 0
M  V30 5443 H 511.193 -4.80093 -0.688131 0
M  V30 5444 H 507.072 -4.25081 -1.78402 0
M  V30 5445 H 510.616 -6.96741 0.346124 0
M  V30 5446 H 506.513 -6.4106 -0.755841 0
M  V30 5447 H 507.281 -8.17824 0.332521 0
M  V30 5448 N 509.944 0.496216 -1.49584 0
M  V30 5449 C 510.854 1.62352 -1.69349 0
M  V30 5450 C 511.87 1.64184 -0.576147 0
M  V30 5451 O 513.046 1.82517 -0.85144 0
M  V30 5452 C 510.111 2.98698 -1.76013 0
M  V30 5453 C 509.172 3.07454 -2.99617 0
M  V30 5454 C 508.405 4.37296 -3.05953 0
M  V30 5455 O 508.628 5.2637 -2.19752 0
M  V30 5456 O 507.562 4.51124 -3.9846 0
M  V30 5457 H 511.388 1.48606 -2.64859 0
M  V30 5458 H 508.973 0.673022 -1.33382 0
M  V30 5459 H 510.855 3.79725 -1.82721 0
M  V30 5460 H 509.53 3.12696 -0.836828 0
M  V30 5461 H 508.437 2.25597 -2.98424 0
M  V30 5462 H 509.77 2.98385 -3.91443 0
M  V30 5463 N 511.423 1.38739 0.74761 0
M  V30 5464 C 512.356 1.3083 1.86972 0
M  V30 5465 C 513.334 0.184229 1.61553 0
M  V30 5466 O 514.518 0.36256 1.8498 0
M  V30 5467 C 511.645 1.02854 3.22705 0
M  V30 5468 C 510.691 2.17281 3.67003 0
M  V30 5469 S 511.524 3.79468 3.77842 0
M  V30 5470 C 512.68 3.53692 5.16385 0
M  V30 5471 H 512.913 2.258 1.93395 0
M  V30 5472 H 510.446 1.24646 0.911199 0
M  V30 5473 H 512.404 0.87397 4.01089 0
M  V30 5474 H 511.065 0.0959295 3.13953 0
M  V30 5475 H 510.258 1.93267 4.65472 0
M  V30 5476 H 509.86 2.28876 2.9579 0
M  V30 5477 H 512.152 3.10176 6.02327 0
M  V30 5478 H 513.095 4.51576 5.45422 0
M  V30 5479 H 513.503 2.8807 4.85464 0
M  V30 5480 N 512.901 -0.976442 1.23707 0
M  V30 5481 C 514.148 -1.71827 1.07153 0
M  V30 5482 C 514.476 -1.9053 -0.390982 0
M  V30 5483 O 513.731 -1.45779 -1.30564 0
M  V30 5484 C 514.03 -3.11814 1.74662 0
M  V30 5485 C 513.696 -3.12978 3.24585 0
M  V30 5486 C 512.358 -3.13003 3.6549 0
M  V30 5487 C 514.71 -3.07986 4.20469 0
M  V30 5488 C 512.038 -3.05757 5.00729 0
M  V30 5489 C 514.39 -3.02282 5.55705 0
M  V30 5490 C 513.054 -3.00631 5.95968 0
M  V30 5491 H 512.324 -0.628758 0.392102 0
M  V30 5492 H 514.971 -1.14239 1.53693 0
M  V30 5493 H 513.276 -3.72812 1.20492 0
M  V30 5494 H 514.973 -3.67989 1.59328 0
M  V30 5495 H 511.563 -3.13718 2.92026 0
M  V30 5496 H 515.747 -3.07103 3.89874 0
M  V30 5497 H 511.003 -3.02834 5.31132 0
M  V30 5498 H 515.177 -2.97376 6.29714 0
M  V30 5499 H 512.804 -2.94771 7.00724 0
M  V30 5500 N 514.379 -1.04941 -1.1758 0
M  V30 5501 C 515.327 -0.64204 -2.23563 0
M  V30 5502 C 516.321 0.335453 -1.66045 0
M  V30 5503 O 517.527 0.20179 -1.78865 0
M  V30 5504 H 513.902 -0.18944 -0.727748 0
M  V30 5505 H 515.873 -1.54609 -2.55223 0
M  V30 5506 C 514.622 -0.0301051 -3.47687 0
M  V30 5507 H 513.945 -0.773339 -3.92249 0
M  V30 5508 H 515.385 0.217592 -4.23441 0
M  V30 5509 C 513.844 1.2225 -3.13937 0
M  V30 5510 O 514.374 2.3122 -3.28482 0
M  V30 5511 N 512.58 1.11917 -2.68185 0
M  V30 5512 H 512.127 0.232403 -2.5655 0
M  V30 5513 H 512.085 1.95814 -2.45976 0
M  V30 5514 N 515.857 1.33968 -0.830081 0
M  V30 5515 C 517.273 1.51003 -0.516742 0
M  V30 5516 C 517.473 1.77286 0.957694 0
M  V30 5517 O 516.529 1.82797 1.74188 0
M  V30 5518 C 517.842 2.67036 -1.38247 0
M  V30 5519 C 519.39 2.80919 -1.38034 0
M  V30 5520 C 519.865 4.00004 -2.23071 0
M  V30 5521 N 521.356 4.07224 -2.20733 0
M  V30 5522 C 522.091 4.98541 -2.83275 0
M  V30 5523 N 521.587 5.95033 -3.54835 0
M  V30 5524 N 523.38 4.91469 -2.72791 0
M  V30 5525 H 515.531 1.15168 -1.78466 0
M  V30 5526 H 517.794 0.565443 -0.760906 0
M  V30 5527 H 517.5 2.54266 -2.42985 0
M  V30 5528 H 517.374 3.62226 -1.05225 0
M  V30 5529 H 519.761 2.93127 -0.340713 0
M  V30 5530 H 519.842 1.86517 -1.75057 0
M  V30 5531 H 519.486 3.88557 -3.27087 0
M  V30 5532 H 519.416 4.93634 -1.83394 0
M  V30 5533 H 521.907 3.38162 -1.68687 0
M  V30 5534 H 522.22 6.61357 -3.99784 0
M  V30 5535 H 520.565 5.95135 -3.58942 0
M  V30 5536 H 523.756 4.15048 -2.16456 0
M  V30 5537 H 523.929 5.62439 -3.21818 0
M  V30 5538 N 517.335 0.585699 1.46312 0
M  V30 5539 C 518.612 0.00542031 1.95599 0
M  V30 5540 C 518.992 -1.45619 1.52834 0
M  V30 5541 O 518.34 -2.14759 0.780446 0
M  V30 5542 C 518.55 0.180601 3.48532 0
M  V30 5543 C 519.898 0.049979 4.24571 0
M  V30 5544 O 520.922 0.109589 3.56031 0
M  V30 5545 O 519.781 -0.0832226 5.46437 0
M  V30 5546 H 516.875 -0.0481281 0.825598 0
M  V30 5547 H 519.421 0.654227 1.56582 0
M  V30 5548 H 518.193 1.19657 3.72556 0
M  V30 5549 H 517.816 -0.504498 3.94386 0
M  V30 5550 N 518.813 -1.54241 0.323641 0
M  V30 5551 C 519.761 -2.25813 -0.557804 0
M  V30 5552 C 520.755 -1.27225 -1.11849 0
M  V30 5553 O 521.961 -1.45001 -1.06652 0
M  V30 5554 H 518.336 -0.72532 -0.198532 0
M  V30 5555 H 520.307 -2.98322 0.0681112 0
M  V30 5556 C 519.056 -3.02913 -1.70701 0
M  V30 5557 H 518.379 -3.78593 -1.28482 0
M  V30 5558 H 519.819 -3.56238 -2.29935 0
M  V30 5559 C 518.278 -2.11217 -2.62467 0
M  V30 5560 O 518.808 -1.69508 -3.64184 0
M  V30 5561 N 517.014 -1.76704 -2.30703 0
M  V30 5562 H 516.561 -2.1082 -1.48029 0
M  V30 5563 H 516.519 -1.15631 -2.92364 0
M  V30 5564 N 520.291 -0.0518155 -1.57515 0
M  V30 5565 C 521.537 0.622745 -1.93002 0
M  V30 5566 C 521.87 1.70456 -0.930499 0
M  V30 5567 O 521.145 1.94452 0.0434086 0
M  V30 5568 C 521.428 1.21824 -3.38867 0
M  V30 5569 C 521.281 0.144434 -4.49568 0
M  V30 5570 C 522.6 2.12968 -3.8514 0
M  V30 5571 H 519.719 0.22491 -0.701844 0
M  V30 5572 H 522.361 -0.113711 -1.89659 0
M  V30 5573 H 520.511 1.8459 -3.41846 0
M  V30 5574 H 522.183 -0.48753 -4.58717 0
M  V30 5575 H 520.426 -0.527424 -4.30582 0
M  V30 5576 H 521.097 0.601127 -5.48717 0
M  V30 5577 H 523.573 1.60163 -3.8404 0
M  V30 5578 H 522.449 2.51578 -4.87852 0
M  V30 5579 H 522.71 3.03004 -3.21934 0
M  V30 5580 N 521.769 1.56035 0.221574 0
M  V30 5581 C 522.719 1.8881 1.27807 0
M  V30 5582 C 523.703 0.751177 1.42289 0
M  V30 5583 O 524.895 1.01359 1.45104 0
M  V30 5584 C 522.024 2.20828 2.6285 0
M  V30 5585 C 521.11 3.40912 2.52269 0
M  V30 5586 N 521.501 4.59531 2.1134 0
M  V30 5587 C 519.799 3.44526 2.83228 0
M  V30 5588 C 520.5 5.41689 2.1201 0
M  V30 5589 N 519.476 4.814 2.52497 0
M  V30 5590 H 523.278 2.78036 0.952529 0
M  V30 5591 H 520.792 1.566 0.430134 0
M  V30 5592 H 522.789 2.42483 3.39127 0
M  V30 5593 H 521.449 1.32914 2.9625 0
M  V30 5594 H 522.46 4.8469 1.82472 0
M  V30 5595 H 519.137 2.66956 3.21 0
M  V30 5596 H 520.527 6.46643 1.82491 0
M  V30 5597 N 523.247 -0.488276 1.49845 0
M  V30 5598 C 524.177 -1.59675 1.70371 0
M  V30 5599 C 525.158 -1.60878 0.552473 0
M  V30 5600 O 526.343 -1.77417 0.78973 0
M  V30 5601 C 523.473 -2.98098 1.782 0
M  V30 5602 C 522.427 -3.11761 2.93239 0
M  V30 5603 C 521.753 -4.51661 2.86193 0
M  V30 5604 C 523.053 -2.90589 4.33999 0
M  V30 5605 H 524.747 -1.42752 2.63177 0
M  V30 5606 H 522.293 -0.685317 1.26647 0
M  V30 5607 H 524.246 -3.75555 1.91144 0
M  V30 5608 H 522.97 -3.16138 0.820018 0
M  V30 5609 H 521.629 -2.36732 2.79917 0
M  V30 5610 H 521.277 -4.66595 1.87877 0
M  V30 5611 H 520.977 -4.61742 3.63412 0
M  V30 5612 H 522.501 -5.31162 3.01163 0
M  V30 5613 H 523.915 -3.57807 4.47936 0
M  V30 5614 H 522.312 -3.1213 5.12538 0
M  V30 5615 H 523.382 -1.86595 4.4756 0
M  V30 5616 N 524.725 -1.39134 -0.740242 0
M  V30 5617 C 525.971 -1.36273 -1.50192 0
M  V30 5618 C 526.304 0.0430136 -1.94152 0
M  V30 5619 O 525.579 1.00691 -1.66408 0
M  V30 5620 C 525.862 -2.33041 -2.74525 0
M  V30 5621 C 525.715 -3.82535 -2.36617 0
M  V30 5622 C 527.034 -2.27723 -3.76604 0
M  V30 5623 H 524.153 -0.496323 -0.544823 0
M  V30 5624 H 526.795 -1.70085 -0.846815 0
M  V30 5625 H 524.945 -2.04337 -3.30422 0
M  V30 5626 H 526.617 -4.21967 -1.86391 0
M  V30 5627 H 524.86 -3.99565 -1.68909 0
M  V30 5628 H 525.531 -4.45723 -3.2563 0
M  V30 5629 H 528.007 -2.53091 -3.30279 0
M  V30 5630 H 526.883 -2.97519 -4.61274 0
M  V30 5631 H 527.144 -1.28049 -4.2315 0
M  V30 5632 N 526.204 0.969867 -1.24223 0
M  V30 5633 C 527.481 1.68774 -0.988664 0
M  V30 5634 C 527.861 2.05342 0.489673 0
M  V30 5635 O 527.209 1.75486 1.46345 0
M  V30 5636 C 527.419 2.92135 -1.90941 0
M  V30 5637 C 528.767 3.64422 -2.17903 0
M  V30 5638 O 529.791 3.02188 -1.88576 0
M  V30 5639 O 528.65 4.76446 -2.67697 0
M  V30 5640 H 525.744 0.737736 -0.37373 0
M  V30 5641 H 528.29 1.02415 -1.35312 0
M  V30 5642 H 527.062 2.61788 -2.90831 0
M  V30 5643 H 526.685 3.66228 -1.54798 0
M  V30 5644 N 527.682 1.05563 1.17022 0
M  V30 5645 C 528.91 0.78845 1.91288 0
M  V30 5646 C 529.325 -0.656318 1.77025 0
M  V30 5647 O 528.682 -1.44869 1.10992 0
M  V30 5648 C 528.733 1.16444 3.42232 0
M  V30 5649 O 528.454 2.5525 3.5606 0
M  V30 5650 C 529.955 0.923937 4.33565 0
M  V30 5651 H 527.175 0.286389 0.606813 0
M  V30 5652 H 529.719 1.4073 1.48375 0
M  V30 5653 H 527.874 0.590266 3.82877 0
M  V30 5654 H 528.288 2.70097 4.49609 0
M  V30 5655 H 529.762 1.23672 5.37968 0
M  V30 5656 H 530.239 -0.140688 4.38975 0
M  V30 5657 H 530.845 1.48214 3.98639 0
M  V30 5658 N 529.16 -1.33526 0.837174 0
M  V30 5659 C 530.09 -2.31764 0.284206 0
M  V30 5660 C 531.071 -1.58896 -0.607142 0
M  V30 5661 O 532.256 -1.86798 -0.531047 0
M  V30 5662 C 529.386 -3.43029 -0.542962 0
M  V30 5663 C 528.34 -4.27255 0.252451 0
M  V30 5664 C 527.666 -5.3012 -0.69836 0
M  V30 5665 C 528.966 -5.01229 1.46858 0
M  V30 5666 H 530.66 -2.78262 1.10502 0
M  V30 5667 H 528.206 -1.3378 0.532812 0
M  V30 5668 H 530.159 -4.1078 -0.940096 0
M  V30 5669 H 528.883 -2.95216 -1.39697 0
M  V30 5670 H 527.542 -3.61127 0.631124 0
M  V30 5671 H 527.19 -4.78564 -1.54872 0
M  V30 5672 H 526.89 -5.87353 -0.170274 0
M  V30 5673 H 528.414 -6.00737 -1.09305 0
M  V30 5674 H 529.828 -5.61756 1.14469 0
M  V30 5675 H 528.225 -5.68104 1.93333 0
M  V30 5676 H 529.295 -4.301 2.23924 0
M  V30 5677 N 530.638 -0.59345 -1.46 0
M  V30 5678 C 531.863 -0.0872365 -2.07216 0
M  V30 5679 C 532.288 1.2131 -1.43755 0
M  V30 5680 O 531.646 1.73528 -0.525152 0
M  V30 5681 C 531.694 0.0538197 -3.6056 0
M  V30 5682 O 530.798 1.10765 -3.97247 0
M  V30 5683 H 530.139 -0.0676598 -0.660544 0
M  V30 5684 H 532.669 -0.819445 -1.87473 0
M  V30 5685 H 532.679 0.256567 -4.07193 0
M  V30 5686 H 531.354 -0.895739 -4.0614 0
M  V30 5687 H 529.931 0.882501 -3.62307 0
M  V30 5688 N 532.116 1.54067 -0.331816 0
M  V30 5689 C 533.079 2.23275 0.517768 0
M  V30 5690 C 534.079 1.22897 1.03697 0
M  V30 5691 O 535.269 1.47419 0.928084 0
M  V30 5692 C 532.401 2.94326 1.72004 0
M  V30 5693 H 533.594 2.99773 -0.0873507 0
M  V30 5694 H 531.147 1.56079 -0.0830042 0
M  V30 5695 H 531.882 2.21986 2.36417 0
M  V30 5696 H 531.667 3.67941 1.35507 0
M  V30 5697 H 533.157 3.47031 2.32291 0
M  V30 5698 N 533.594 0.0601682 1.57485 0
M  V30 5699 C 535.005 -0.474217 1.80577 0
M  V30 5700 C 535.356 -1.70365 0.973147 0
M  V30 5701 O 534.481 -2.15544 0.192306 0
M  V30 5702 C 535.076 -0.867102 3.27516 0
M  V30 5703 C 533.635 -1.34642 3.51495 0
M  V30 5704 C 532.782 -0.32594 2.75378 0
M  V30 5705 H 535.733 0.285973 1.56102 0
M  V30 5706 H 535.754 -1.72938 3.38929 0
M  V30 5707 H 535.266 0.0278927 3.8809 0
M  V30 5708 H 533.367 -2.2603 2.96212 0
M  V30 5709 H 533.48 -1.33237 4.60201 0
M  V30 5710 H 531.844 -0.800749 2.41785 0
M  V30 5711 H 532.627 0.561125 3.38683 0
M  V30 5712 N 535.072 -1.5615 -0.213296 0
M  V30 5713 C 536.321 -1.78743 -0.93455 0
M  V30 5714 C 536.634 -0.630199 -1.8517 0
M  V30 5715 O 537.84 -0.739966 -2.61222 0
M  V30 5716 C 536.296 -3.16571 -1.71203 0
M  V30 5717 C 535.904 -4.40043 -0.840617 0
M  V30 5718 C 537.648 -3.48485 -2.42401 0
M  V30 5719 C 535.555 -5.68895 -1.61592 0
M  V30 5720 H 534.485 -0.666426 -0.352692 0
M  V30 5721 H 537.136 -1.82532 -0.188227 0
M  V30 5722 H 535.518 -3.06981 -2.50157 0
M  V30 5723 H 536.692 -4.6071 -0.0910326 0
M  V30 5724 H 535.007 -4.15706 -0.240365 0
M  V30 5725 H 537.604 -4.41983 -3.00924 0
M  V30 5726 H 537.947 -2.71371 -3.15695 0
M  V30 5727 H 538.48 -3.59442 -1.7043 0
M  V30 5728 H 535.219 -6.48925 -0.926106 0
M  V30 5729 H 534.739 -5.52275 -2.33991 0
M  V30 5730 H 536.418 -6.09365 -2.17447 0
M  V30 5731 N 536.55 0.480323 -1.50102 0
M  V30 5732 C 537.46 1.60547 -1.71061 0
M  V30 5733 C 538.476 1.63564 -0.593529 0
M  V30 5734 O 539.652 1.81604 -0.870751 0
M  V30 5735 C 536.717 2.96814 -1.79171 0
M  V30 5736 C 535.778 3.04259 -3.02861 0
M  V30 5737 C 535.011 4.34027 -3.10574 0
M  V30 5738 O 535.234 5.24009 -2.25323 0
M  V30 5739 O 534.168 4.46873 -4.03223 0
M  V30 5740 H 537.994 1.45788 -2.6642 0
M  V30 5741 H 535.579 0.658838 -1.34088 0
M  V30 5742 H 537.461 3.77765 -1.86738 0
M  V30 5743 H 536.136 3.11791 -0.869947 0
M  V30 5744 H 535.043 2.22419 -3.008 0
M  V30 5745 H 536.376 2.94216 -3.94586 0
M  V30 5746 N 538.028 1.39524 0.732853 0
M  V30 5747 C 539.256 1.40143 1.52209 0
M  V30 5748 C 539.671 -0.00348836 1.888 0
M  V30 5749 O 539.028 -0.975357 1.5425 0
M  V30 5750 C 539.079 2.27632 2.8083 0
M  V30 5751 O 538.8 3.62654 2.45792 0
M  V30 5752 C 540.301 2.36658 3.74844 0
M  V30 5753 H 537.521 0.478604 0.470297 0
M  V30 5754 H 540.065 1.83366 0.905388 0
M  V30 5755 H 538.22 1.87818 3.38826 0
M  V30 5756 H 538.634 4.08941 3.28431 0
M  V30 5757 H 540.108 3.02118 4.61984 0
M  V30 5758 H 540.585 1.38638 4.16745 0
M  V30 5759 H 541.191 2.76951 3.22766 0
M  V30 5760 N 539.506 -0.963266 1.24736 0
M  V30 5761 C 540.755 -1.70115 1.08369 0
M  V30 5762 C 541.068 -1.91939 -0.376688 0
M  V30 5763 O 542.274 -2.6334 -0.660624 0
M  V30 5764 C 540.73 -3.06218 1.89099 0
M  V30 5765 C 540.338 -2.92221 3.39574 0
M  V30 5766 C 542.082 -3.83848 1.81275 0
M  V30 5767 C 539.989 -4.23662 4.12631 0
M  V30 5768 H 538.919 -0.637944 0.401924 0
M  V30 5769 H 541.57 -1.07304 1.48856 0
M  V30 5770 H 539.952 -3.69884 1.41429 0
M  V30 5771 H 541.126 -2.37541 3.94856 0
M  V30 5772 H 539.441 -2.28054 3.48397 0
M  V30 5773 H 542.038 -4.81188 2.33158 0
M  V30 5774 H 542.381 -4.08949 0.778895 0
M  V30 5775 H 542.914 -3.26918 2.26649 0
M  V30 5776 H 539.653 -4.03753 5.16395 0
M  V30 5777 H 539.173 -4.78141 3.62135 0
M  V30 5778 H 540.852 -4.92256 4.19873 0
M  V30 5779 N 540.985 -1.06182 -1.16461 0
M  V30 5780 C 542.213 -0.798583 -1.90867 0
M  V30 5781 C 542.628 0.646921 -1.77371 0
M  V30 5782 O 541.985 1.44279 -1.11758 0
M  V30 5783 C 542.036 -1.18258 -3.4161 0
M  V30 5784 O 541.757 -2.57135 -3.54701 0
M  V30 5785 C 543.258 -0.946917 -4.33069 0
M  V30 5786 H 540.478 -0.289603 -0.605286 0
M  V30 5787 H 543.022 -1.41515 -1.47627 0
M  V30 5788 H 541.177 -0.610562 -3.82558 0
M  V30 5789 H 541.591 -2.72477 -4.4817 0
M  V30 5790 H 543.065 -1.26523 -5.37304 0
M  V30 5791 H 543.542 0.117406 -4.39043 0
M  V30 5792 H 544.148 -1.50326 -3.97847 0
M  V30 5793 N 542.463 1.3308 -0.844243 0
M  V30 5794 C 543.874 1.7992 -0.498566 0
M  V30 5795 C 544.225 1.69808 0.982834 0
M  V30 5796 O 543.35 1.25051 1.7661 0
M  V30 5797 C 543.945 3.26677 -0.898204 0
M  V30 5798 C 542.504 3.71513 -0.604583 0
M  V30 5799 C 541.651 2.54393 -1.10362 0
M  V30 5800 H 544.602 1.20526 -1.03244 0
M  V30 5801 H 544.623 3.79918 -0.21039 0
M  V30 5802 H 544.135 3.34004 -1.97643 0
M  V30 5803 H 542.236 3.69708 0.46335 0
M  V30 5804 H 542.349 4.64755 -1.16358 0
M  V30 5805 H 540.713 2.49246 -0.524273 0
M  V30 5806 H 541.496 2.6448 -2.18873 0
M  V30 5807 N 543.941 0.601185 1.45683 0
M  V30 5808 C 545.357 0.264315 1.57396 0
M  V30 5809 C 545.557 -1.23324 1.59353 0
M  V30 5810 O 544.613 -2.01594 1.52039 0
M  V30 5811 C 545.926 0.929839 2.85962 0
M  V30 5812 C 547.474 0.905156 2.99626 0
M  V30 5813 C 547.949 1.55057 4.30954 0
M  V30 5814 N 549.44 1.51576 4.37697 0
M  V30 5815 C 550.175 1.98436 5.37969 0
M  V30 5816 N 549.671 2.53352 6.44813 0
M  V30 5817 N 551.464 1.89242 5.29286 0
M  V30 5818 H 543.615 1.57363 1.42656 0
M  V30 5819 H 545.878 0.658831 0.681649 0
M  V30 5820 H 545.584 1.98404 2.90394 0
M  V30 5821 H 545.458 0.449224 3.74515 0
M  V30 5822 H 547.845 -0.14048 2.94765 0
M  V30 5823 H 547.926 1.42397 2.12501 0
M  V30 5824 H 547.57 2.5955 4.36573 0
M  V30 5825 H 547.5 1.00682 5.16886 0
M  V30 5826 H 549.991 1.11452 3.61091 0
M  V30 5827 H 550.304 2.86918 7.17564 0
M  V30 5828 H 548.649 2.57388 6.45582 0
M  V30 5829 H 551.84 1.46083 4.44722 0
M  V30 5830 H 552.013 2.26075 6.07284 0
M  V30 5831 N 545.419 -1.53889 0.339982 0
M  V30 5832 C 546.667 -2.00458 -0.257112 0
M  V30 5833 C 546.988 -1.22953 -1.51353 0
M  V30 5834 O 546.258 -0.335734 -1.93002 0
M  V30 5835 H 544.838 -0.740544 -0.0979965 0
M  V30 5836 H 547.5 -1.89386 0.460317 0
M  V30 5837 H 546.596 -3.08035 -0.502057 0
M  V30 5838 N 546.897 -0.0685191 -1.57451 0
M  V30 5839 C 548.143 0.602239 -1.93652 0
M  V30 5840 C 548.476 1.6946 -0.948526 0
M  V30 5841 O 547.751 1.94487 0.022782 0
M  V30 5842 C 548.034 1.18223 -3.4014 0
M  V30 5843 C 547.887 0.0967431 -4.49696 0
M  V30 5844 C 549.206 2.08872 -3.87377 0
M  V30 5845 H 546.325 0.217453 -0.70419 0
M  V30 5846 H 548.967 -0.133821 -1.89528 0
M  V30 5847 H 547.117 1.80953 -3.43785 0
M  V30 5848 H 548.789 -0.536155 -4.58174 0
M  V30 5849 H 547.032 -0.573063 -4.29998 0
M  V30 5850 H 547.703 0.542894 -5.49324 0
M  V30 5851 H 550.179 1.56081 -3.85717 0
M  V30 5852 H 549.055 2.46389 -4.90493 0
M  V30 5853 H 549.316 2.99572 -3.25129 0
M  V30 5854 N 548.375 1.56261 0.205012 0
M  V30 5855 C 549.791 1.49623 0.555433 0
M  V30 5856 C 549.991 0.766719 1.86343 0
M  V30 5857 O 549.047 0.313158 2.50551 0
M  V30 5858 C 550.36 2.94253 0.619347 0
M  V30 5859 C 551.908 3.04868 0.708855 0
M  V30 5860 C 552.383 4.50888 0.803969 0
M  V30 5861 N 553.874 4.54999 0.867758 0
M  V30 5862 C 554.609 5.65284 0.96135 0
M  V30 5863 N 554.105 6.85282 1.01786 0
M  V30 5864 N 555.898 5.53174 0.997771 0
M  V30 5865 H 548.049 2.0211 -0.653094 0
M  V30 5866 H 550.312 0.919333 -0.231366 0
M  V30 5867 H 550.018 3.50643 -0.272458 0
M  V30 5868 H 549.892 3.47063 1.47741 0
M  V30 5869 H 552.279 2.48532 1.5911 0
M  V30 5870 H 552.36 2.55199 -0.175205 0
M  V30 5871 H 552.004 5.07846 -0.0738798 0
M  V30 5872 H 551.934 4.98279 1.70369 0
M  V30 5873 H 554.425 3.68588 0.833735 0
M  V30 5874 H 554.738 7.65081 1.08951 0
M  V30 5875 H 553.083 6.8796 0.986706 0
M  V30 5876 H 556.274 4.5835 0.950392 0
M  V30 5877 H 556.447 6.39151 1.06725 0
M  V30 5878 N 549.853 -0.472356 1.50355 0
M  V30 5879 C 551.081 -1.24784 1.65035 0
M  V30 5880 C 551.496 -1.85837 0.333176 0
M  V30 5881 O 550.853 -1.69168 -0.68472 0
M  V30 5882 C 550.904 -2.35747 2.74054 0
M  V30 5883 O 550.625 -1.77197 4.00665 0
M  V30 5884 C 552.126 -3.26645 2.99696 0
M  V30 5885 H 549.346 -0.377432 0.554785 0
M  V30 5886 H 551.89 -0.563962 1.9657 0
M  V30 5887 H 550.045 -2.99912 2.45217 0
M  V30 5888 H 550.459 -2.5026 4.60945 0
M  V30 5889 H 551.933 -4.00718 3.79644 0
M  V30 5890 H 552.41 -3.8535 2.10718 0
M  V30 5891 H 553.016 -2.68218 3.3006 0
M  V30 5892 N 551.331 -1.39911 -0.725443 0
M  V30 5893 C 552.556 -1.41137 -1.5197 0
M  V30 5894 C 552.981 -0.010262 -1.88097 0
M  V30 5895 O 552.339 0.979184 -1.52583 0
M  V30 5896 C 552.387 -2.2994 -2.77777 0
M  V30 5897 O 551.491 -1.73586 -3.74088 0
M  V30 5898 H 550.832 -0.480219 -0.458569 0
M  V30 5899 H 553.362 -1.84023 -0.894249 0
M  V30 5900 H 553.372 -2.44785 -3.26411 0
M  V30 5901 H 552.047 -3.31759 -2.50816 0
M  V30 5902 H 550.624 -1.68035 -3.32894 0
M  V30 5903 N 552.809 0.956637 -1.25245 0
M  V30 5904 C 553.719 2.0868 -1.0719 0
M  V30 5905 C 554.735 1.73997 -0.00959074 0
M  V30 5906 O 555.911 2.00301 -0.210104 0
M  V30 5907 C 552.976 3.39754 -0.690526 0
M  V30 5908 C 552.037 3.88316 -1.83055 0
M  V30 5909 C 551.27 5.13134 -1.46728 0
M  V30 5910 O 551.493 5.6925 -0.362029 0
M  V30 5911 O 550.427 5.56356 -2.29677 0
M  V30 5912 H 554.253 2.26813 -2.01965 0
M  V30 5913 H 551.838 1.07098 -1.04165 0
M  V30 5914 H 553.72 4.18543 -0.489871 0
M  V30 5915 H 552.395 3.22896 0.227981 0
M  V30 5916 H 551.302 3.1054 -2.08604 0
M  V30 5917 H 552.635 4.09669 -2.72822 0
M  V30 5918 N 554.287 1.06798 1.15896 0
M  V30 5919 C 555.703 0.792423 1.38538 0
M  V30 5920 C 555.903 -0.60592 1.92174 0
M  V30 5921 O 554.959 -1.36561 2.12385 0
M  V30 5922 C 556.272 1.86157 2.36149 0
M  V30 5923 C 557.82 1.88567 2.49823 0
M  V30 5924 C 558.295 2.9455 3.5072 0
M  V30 5925 N 559.786 2.93616 3.58251 0
M  V30 5926 C 560.521 3.72267 4.36125 0
M  V30 5927 N 560.017 4.60751 5.17379 0
M  V30 5928 N 561.81 3.60637 4.31158 0
M  V30 5929 H 553.961 1.96993 0.794198 0
M  V30 5930 H 556.224 0.853942 0.411688 0
M  V30 5931 H 555.93 2.86603 2.03843 0
M  V30 5932 H 555.804 1.71692 3.3586 0
M  V30 5933 H 558.191 0.887765 2.8143 0
M  V30 5934 H 558.272 2.0711 1.5013 0
M  V30 5935 H 557.916 3.94537 3.19849 0
M  V30 5936 H 557.846 2.73255 4.50155 0
M  V30 5937 H 560.337 2.29472 3.00252 0
M  V30 5938 H 560.65 5.17408 5.74028 0
M  V30 5939 H 558.995 4.64803 5.16704 0
M  V30 5940 H 562.186 2.90892 3.66742 0
M  V30 5941 H 562.359 4.22176 4.91601 0
M  V30 5942 N 555.766 -1.3263 0.851289 0
M  V30 5943 C 556.676 -2.32722 0.296268 0
M  V30 5944 C 557.692 -1.63901 -0.584162 0
M  V30 5945 O 558.868 -1.95465 -0.485334 0
M  V30 5946 C 555.933 -3.42942 -0.509103 0
M  V30 5947 C 554.994 -4.2746 0.397069 0
M  V30 5948 C 554.227 -5.32416 -0.36996 0
M  V30 5949 O 554.45 -5.47491 -1.6003 0
M  V30 5950 O 553.384 -6.01327 0.262493 0
M  V30 5951 H 557.21 -2.82078 1.12543 0
M  V30 5952 H 554.795 -1.36194 0.614135 0
M  V30 5953 H 556.677 -4.1017 -0.96634 0
M  V30 5954 H 555.352 -2.95781 -1.31512 0
M  V30 5955 H 554.259 -3.63053 0.902411 0
M  V30 5956 H 555.592 -4.78136 1.16818 0
M  V30 5957 N 557.244 -0.608902 -1.45362 0
M  V30 5958 C 558.474 -0.110852 -2.06302 0
M  V30 5959 C 558.882 1.21062 -1.45398 0
M  V30 5960 O 558.225 1.74861 -0.562976 0
M  V30 5961 C 558.287 0.101793 -3.59356 0
M  V30 5962 C 557.951 -1.13808 -4.42602 0
M  V30 5963 C 558.948 -2.05653 -4.77496 0
M  V30 5964 C 556.633 -1.36727 -4.83333 0
M  V30 5965 C 558.627 -3.18745 -5.51978 0
M  V30 5966 C 556.314 -2.5012 -5.57569 0
M  V30 5967 C 557.312 -3.40957 -5.91809 0
M  V30 5968 O 557 -4.52376 -6.64538 0
M  V30 5969 H 556.732 -0.0666001 -0.672711 0
M  V30 5970 H 559.286 -0.836942 -1.87575 0
M  V30 5971 H 557.516 0.88279 -3.76489 0
M  V30 5972 H 559.205 0.551607 -4.02134 0
M  V30 5973 H 559.971 -1.89172 -4.46586 0
M  V30 5974 H 555.85 -0.669216 -4.56117 0
M  V30 5975 H 559.394 -3.8967 -5.78622 0
M  V30 5976 H 555.291 -2.66553 -5.87894 0
M  V30 5977 H 556.059 -4.51075 -6.82989 0
M  V30 5978 N 558.722 1.53707 -0.348139 0
M  V30 5979 C 559.632 2.28881 0.514857 0
M  V30 5980 C 560.648 1.34168 1.10793 0
M  V30 5981 O 561.824 1.6721 1.12262 0
M  V30 5982 C 558.889 3.05042 1.64774 0
M  V30 5983 C 557.95 4.15389 1.08398 0
M  V30 5984 C 557.183 4.87909 2.16287 0
M  V30 5985 O 557.406 4.60137 3.3709 0
M  V30 5986 O 556.34 5.74254 1.80323 0
M  V30 5987 H 560.166 3.03547 -0.0963699 0
M  V30 5988 H 557.751 1.48972 -0.113043 0
M  V30 5989 H 559.633 3.52656 2.30677 0
M  V30 5990 H 558.308 2.33228 2.24469 0
M  V30 5991 H 557.215 3.72068 0.389341 0
M  V30 5992 H 558.548 4.89318 0.531829 0
M  V30 5993 N 560.2 0.0768682 1.57412 0
M  V30 5994 C 561.13 -0.886026 2.16037 0
M  V30 5995 C 562.111 -1.30691 1.08876 0
M  V30 5996 O 563.296 -1.37705 1.36934 0
M  V30 5997 C 560.426 -2.1518 2.72608 0
M  V30 5998 C 559.38 -1.87015 3.8498 0
M  V30 5999 C 558.706 -3.20266 4.28175 0
M  V30 6000 C 560.006 -1.17143 5.08994 0
M  V30 6001 H 561.7 -0.397642 2.96748 0
M  V30 6002 H 559.246 -0.189823 1.42743 0
M  V30 6003 H 561.199 -2.82962 3.12266 0
M  V30 6004 H 559.923 -2.66269 1.89125 0
M  V30 6005 H 558.582 -1.21636 3.45833 0
M  V30 6006 H 558.23 -3.69207 3.41607 0
M  V30 6007 H 557.93 -3.0221 5.03927 0
M  V30 6008 H 559.454 -3.89237 4.70454 0
M  V30 6009 H 560.868 -1.75003 5.45937 0
M  V30 6010 H 559.265 -1.09328 5.90057 0
M  V30 6011 H 560.335 -0.151295 4.84664 0
M  V30 6012 N 561.678 -1.56367 -0.196722 0
M  V30 6013 C 562.955 -1.71359 -0.943159 0
M  V30 6014 C 563.335 -0.631192 -2.01443 0
M  V30 6015 O 562.683 0.358071 -2.25677 0
M  V30 6016 C 562.893 -3.13623 -1.53106 0
M  V30 6017 C 564.241 -3.73806 -2.01381 0
M  V30 6018 O 565.265 -3.16742 -1.62951 0
M  V30 6019 O 564.124 -4.73951 -2.7209 0
M  V30 6020 H 561.218 -0.698851 -0.442195 0
M  V30 6021 H 563.764 -1.68672 -0.186547 0
M  V30 6022 H 562.536 -3.83873 -0.758785 0
M  V30 6023 H 562.159 -3.20532 -2.35255 0
M  V30 6024 N 563.156 0.464375 -1.50603 0
M  V30 6025 C 564.381 1.24372 -1.65971 0
M  V30 6026 C 564.806 1.84901 -0.345453 0
M  V30 6027 O 564.164 1.67596 0.691457 0
M  V30 6028 C 564.212 2.32331 -2.7578 0
M  V30 6029 O 563.316 3.37146 -2.375 0
M  V30 6030 H 562.657 0.365604 -0.554283 0
M  V30 6031 H 565.187 0.55183 -1.97018 0
M  V30 6032 H 565.197 2.77539 -2.99059 0
M  V30 6033 H 563.872 1.87648 -3.71162 0
M  V30 6034 H 562.449 2.97602 -2.24694 0
M  V30 6035 N 564.634 1.40294 0.718013 0
M  V30 6036 C 565.564 1.43118 1.84498 0
M  V30 6037 C 566.545 0.292403 1.67568 0
M  V30 6038 O 567.73 0.500675 1.87635 0
M  V30 6039 C 564.86 1.29065 3.22427 0
M  V30 6040 C 563.814 2.40521 3.54025 0
M  V30 6041 C 563.14 2.11546 4.91073 0
M  V30 6042 C 564.44 3.82859 3.55269 0
M  V30 6043 H 566.134 2.37432 1.82391 0
M  V30 6044 H 563.68 1.14283 0.87609 0
M  V30 6045 H 565.633 1.29658 4.00957 0
M  V30 6046 H 564.357 0.312271 3.25104 0
M  V30 6047 H 563.016 2.39173 2.77834 0
M  V30 6048 H 562.664 1.12104 4.90348 0
M  V30 6049 H 562.364 2.86216 5.1318 0
M  V30 6050 H 563.888 2.13817 5.71939 0
M  V30 6051 H 565.302 3.86044 4.23843 0
M  V30 6052 H 563.699 4.57029 3.88902 0
M  V30 6053 H 564.769 4.12617 2.54706 0
M  V30 6054 N 566.112 -0.949982 1.2575 0
M  V30 6055 C 567.358 -1.69766 1.10938 0
M  V30 6056 C 567.691 -1.91056 -0.348028 0
M  V30 6057 O 566.966 -1.48488 -1.25625 0
M  V30 6058 C 567.249 -3.07779 1.86933 0
M  V30 6059 C 567.102 -2.9387 3.4053 0
M  V30 6060 C 568.421 -4.07749 1.65616 0
M  V30 6061 H 565.54 -0.616144 0.404396 0
M  V30 6062 H 568.182 -1.10394 1.54639 0
M  V30 6063 H 566.332 -3.58462 1.4979 0
M  V30 6064 H 568.004 -2.50476 3.87375 0
M  V30 6065 H 566.247 -2.29686 3.68004 0
M  V30 6066 H 566.918 -3.91719 3.88922 0
M  V30 6067 H 569.394 -3.65994 1.97959 0
M  V30 6068 H 568.27 -5.02348 2.21218 0
M  V30 6069 H 568.531 -4.38029 0.598595 0
M  V30 6070 N 567.59 -1.07411 -1.15328 0
M  V30 6071 C 568.52 -0.716472 -2.22236 0
M  V30 6072 C 569.501 0.296373 -1.67498 0
M  V30 6073 O 570.686 0.168989 -1.93463 0
M  V30 6074 C 567.816 -0.114142 -3.47112 0
M  V30 6075 C 566.77 -1.05421 -4.14814 0
M  V30 6076 C 566.096 -0.314604 -5.33774 0
M  V30 6077 C 567.396 -2.38808 -4.64508 0
M  V30 6078 H 569.09 -1.61029 -2.52408 0
M  V30 6079 H 566.636 -0.775702 -1.21321 0
M  V30 6080 H 568.589 0.148001 -4.2114 0
M  V30 6081 H 567.313 0.814755 -3.16274 0
M  V30 6082 H 565.972 -1.30128 -3.42728 0
M  V30 6083 H 565.62 0.617772 -4.99192 0
M  V30 6084 H 565.32 -0.941209 -5.80013 0
M  V30 6085 H 566.844 -0.0602747 -6.1057 0
M  V30 6086 H 568.258 -2.18424 -5.3006 0
M  V30 6087 H 566.655 -2.97069 -5.21412 0
M  V30 6088 H 567.725 -3.01067 -3.80114 0
M  V30 6089 N 569.068 1.32177 -0.85831 0
M  V30 6090 C 570.031 2.27086 -0.310588 0
M  V30 6091 C 571.031 1.51751 0.531806 0
M  V30 6092 O 572.221 1.70794 0.34279 0
M  V30 6093 C 569.353 3.36266 0.560179 0
M  V30 6094 H 570.546 2.77045 -1.1483 0
M  V30 6095 H 568.099 1.42911 -0.632942 0
M  V30 6096 H 568.834 2.9158 1.41956 0
M  V30 6097 H 568.619 3.92077 -0.0428473 0
M  V30 6098 H 570.109 4.06974 0.936056 0
M  V30 6099 N 570.547 0.616602 1.45037 0
M  V30 6100 C 571.775 0.121968 2.0654 0
M  V30 6101 C 572.19 -1.19743 1.45969 0
M  V30 6102 O 571.547 -1.73133 0.577168 0
M  V30 6103 C 571.598 -0.0145171 3.61497 0
M  V30 6104 O 571.319 1.25269 4.19809 0
M  V30 6105 C 572.82 -0.539555 4.40004 0
M  V30 6106 H 570.04 0.0729837 0.667019 0
M  V30 6107 H 572.584 0.846891 1.8614 0
M  V30 6108 H 570.739 -0.689809 3.81209 0
M  V30 6109 H 571.153 1.08816 5.13088 0
M  V30 6110 H 572.627 -0.584112 5.48901 0
M  V30 6111 H 573.104 -1.56368 4.10421 0
M  V30 6112 H 573.71 0.101995 4.25178 0
M  V30 6113 N 572.025 -1.5352 0.356285 0
M  V30 6114 C 573.273 -2.00719 -0.235837 0
M  V30 6115 C 573.594 -1.24551 -1.5004 0
M  V30 6116 O 572.864 -0.356185 -1.92635 0
M  V30 6117 H 571.444 -0.741542 -0.0901366 0
M  V30 6118 H 574.106 -1.88887 0.480378 0
M  V30 6119 H 573.202 -3.08551 -0.469357 0
M  V30 6120 N 573.503 -0.0852151 -1.57369 0
M  V30 6121 C 574.75 0.580806 -1.93992 0
M  V30 6122 C 575.078 1.68801 -0.966252 0
M  V30 6123 O 574.333 1.95694 0.0158649 0
M  V30 6124 C 574.632 1.18482 -3.3719 0
M  V30 6125 C 574.298 0.2024 -4.50446 0
M  V30 6126 C 572.96 -0.0678318 -4.81152 0
M  V30 6127 C 575.312 -0.46895 -5.19086 0
M  V30 6128 C 572.64 -1.01627 -5.77831 0
M  V30 6129 C 574.992 -1.4058 -6.16782 0
M  V30 6130 C 573.656 -1.68436 -6.45899 0
M  V30 6131 H 572.926 0.212532 -0.709867 0
M  V30 6132 H 575.573 -0.158947 -1.90839 0
M  V30 6133 H 573.878 2.0006 -3.36873 0
M  V30 6134 H 575.575 1.70767 -3.62822 0
M  V30 6135 H 572.165 0.423208 -4.26505 0
M  V30 6136 H 576.349 -0.273307 -4.95547 0
M  V30 6137 H 571.605 -1.2392 -5.9871 0
M  V30 6138 H 575.779 -1.93188 -6.69068 0
M  V30 6139 H 573.406 -2.42088 -7.20623 0
M  V30 6140 N 574.981 1.5647 0.188427 0
M  V30 6141 C 576.258 1.71857 0.934058 0
M  V30 6142 C 576.638 0.641867 2.01105 0
M  V30 6143 O 575.986 -0.346098 2.25864 0
M  V30 6144 C 576.196 3.14431 1.5144 0
M  V30 6145 C 577.544 3.74869 1.99396 0
M  V30 6146 O 578.568 3.17601 1.61269 0
M  V30 6147 O 577.427 4.75387 2.69573 0
M  V30 6148 H 574.521 0.701186 0.438483 0
M  V30 6149 H 577.067 1.68768 0.177599 0
M  V30 6150 H 575.839 3.8427 0.738416 0
M  V30 6151 H 575.462 3.21775 2.33552 0
M  V30 6152 N 576.459 -0.456382 1.50847 0
M  V30 6153 C 577.422 -1.53493 1.70213 0
M  V30 6154 C 578.422 -1.50264 0.572481 0
M  V30 6155 O 579.612 -1.52623 0.839751 0
M  V30 6156 C 576.744 -2.93091 1.741 0
M  V30 6157 H 577.937 -1.37633 2.66453 0
M  V30 6158 H 575.49 -0.683776 1.4055 0
M  V30 6159 H 576.225 -3.14378 0.796063 0
M  V30 6160 H 576.01 -2.9684 2.5618 0
M  V30 6161 H 577.5 -3.71368 1.90987 0
M  V30 6162 N 577.937 -1.40673 -0.710563 0
M  V30 6163 C 578.867 -1.44095 -1.83736 0
M  V30 6164 C 579.848 -0.301286 -1.67411 0
M  V30 6165 O 581.033 -0.510618 -1.87367 0
M  V30 6166 C 578.163 -1.30773 -3.21738 0
M  V30 6167 C 577.117 -2.42395 -3.52745 0
M  V30 6168 C 576.443 -2.14147 -4.89944 0
M  V30 6169 C 577.743 -3.84738 -3.53234 0
M  V30 6170 H 579.437 -2.38396 -1.81129 0
M  V30 6171 H 576.983 -1.14746 -0.870017 0
M  V30 6172 H 578.936 -1.31783 -4.00264 0
M  V30 6173 H 577.66 -0.329507 -3.24934 0
M  V30 6174 H 576.319 -2.40643 -2.76562 0
M  V30 6175 H 575.967 -1.14703 -4.89747 0
M  V30 6176 H 575.667 -2.88934 -5.11655 0
M  V30 6177 H 577.191 -2.16848 -5.70797 0
M  V30 6178 H 578.605 -3.88286 -4.2179 0
M  V30 6179 H 577.002 -4.59085 -3.86473 0
M  V30 6180 H 578.072 -4.13962 -2.52514 0
M  V30 6181 N 579.415 0.9433 -1.26252 0
M  V30 6182 C 580.643 1.72367 -1.14443 0
M  V30 6183 C 581.058 1.86392 0.300572 0
M  V30 6184 O 580.415 1.36978 1.20596 0
M  V30 6185 C 580.466 3.13155 -1.806 0
M  V30 6186 O 580.187 2.99803 -3.19452 0
M  V30 6187 C 581.688 4.07417 -1.74717 0
M  V30 6188 H 578.908 0.539758 -0.398626 0
M  V30 6189 H 581.452 1.18268 -1.66832 0
M  V30 6190 H 579.607 3.64162 -1.32154 0
M  V30 6191 H 580.021 3.88697 -3.52158 0
M  V30 6192 H 581.495 5.03773 -2.25647 0
M  V30 6193 H 581.972 4.3337 -0.713244 0
M  V30 6194 H 582.578 3.6233 -2.22704 0
M  V30 6195 N 580.893 1.08022 1.14757 0
M  V30 6196 C 582.141 0.805913 1.85336 0
M  V30 6197 C 582.462 -0.670162 1.83122 0
M  V30 6198 O 581.732 -1.48567 1.2769 0
M  V30 6199 H 580.312 0.295138 0.686223 0
M  V30 6200 H 582.974 1.36538 1.3908 0
M  V30 6201 H 582.07 1.14655 2.90277 0
M  V30 6202 N 582.371 -1.3172 0.865308 0
M  V30 6203 C 583.334 -2.26918 0.322627 0
M  V30 6204 C 584.334 -1.52031 -0.523751 0
M  V30 6205 O 585.524 -1.70973 -0.333727 0
M  V30 6206 C 582.656 -3.36558 -0.542338 0
M  V30 6207 H 583.849 -2.76432 1.16298 0
M  V30 6208 H 581.402 -1.42573 0.640512 0
M  V30 6209 H 582.137 -2.92329 -1.40407 0
M  V30 6210 H 581.922 -3.92048 0.0636395 0
M  V30 6211 H 583.412 -4.07465 -0.91446 0
M  V30 6212 N 583.85 -0.624285 -1.44708 0
M  V30 6213 C 584.779 0.0717025 -2.3339 0
M  V30 6214 C 585.76 0.841814 -1.47809 0
M  V30 6215 O 586.946 0.809056 -1.76544 0
M  V30 6216 C 584.076 1.05852 -3.30776 0
M  V30 6217 C 583.029 0.400503 -4.26122 0
M  V30 6218 C 582.356 1.49674 -5.13324 0
M  V30 6219 C 583.656 -0.688924 -5.17737 0
M  V30 6220 H 585.35 -0.668819 -2.91834 0
M  V30 6221 H 582.896 -0.32308 -1.40329 0
M  V30 6222 H 584.849 1.5541 -3.91696 0
M  V30 6223 H 583.572 1.82984 -2.70526 0
M  V30 6224 H 582.231 -0.0743687 -3.66525 0
M  V30 6225 H 581.88 2.25877 -4.49431 0
M  V30 6226 H 581.58 1.06188 -5.77926 0
M  V30 6227 H 583.104 1.99427 -5.77115 0
M  V30 6228 H 584.518 -0.276724 -5.72632 0
M  V30 6229 H 582.915 -1.04652 -5.90904 0
M  V30 6230 H 583.985 -1.55884 -4.5916 0
M  V30 6231 N 585.328 1.53329 -0.364422 0
M  V30 6232 C 586.575 2.01239 0.225634 0
M  V30 6233 C 586.903 1.25172 1.48869 0
M  V30 6234 O 586.158 0.333289 1.92841 0
M  V30 6235 C 586.457 3.52911 0.564661 0
M  V30 6236 C 586.123 4.46837 -0.603936 0
M  V30 6237 C 584.785 4.72234 -0.924585 0
M  V30 6238 C 587.137 5.02409 -1.38691 0
M  V30 6239 C 584.465 5.50454 -2.0302 0
M  V30 6240 C 586.817 5.81836 -2.48293 0
M  V30 6241 C 585.481 6.0552 -2.80894 0
M  V30 6242 H 584.751 0.736386 0.0825654 0
M  V30 6243 H 587.398 1.84948 -0.496645 0
M  V30 6244 H 585.703 3.67144 1.36794 0
M  V30 6245 H 587.4 3.87455 1.03344 0
M  V30 6246 H 583.99 4.27217 -0.343983 0
M  V30 6247 H 588.174 4.82735 -1.15243 0
M  V30 6248 H 583.43 5.67024 -2.28678 0
M  V30 6249 H 587.604 6.23905 -3.0938 0
M  V30 6250 H 585.231 6.65916 -3.66688 0
M  V30 6251 N 586.806 0.0935595 1.57322 0
M  V30 6252 C 587.753 -0.865935 2.1394 0
M  V30 6253 C 588.723 -1.28083 1.05754 0
M  V30 6254 O 589.908 -1.36285 1.33533 0
M  V30 6255 C 587.048 -2.12023 2.72287 0
M  V30 6256 C 586.161 -1.756 3.94701 0
M  V30 6257 C 585.296 -2.95804 4.41218 0
M  V30 6258 C 584.335 -2.555 5.56225 0
M  V30 6259 N 583.472 -3.68534 5.97601 0
M  V30 6260 H 588.312 -0.376261 2.95615 0
M  V30 6261 H 585.849 -0.174052 1.46067 0
M  V30 6262 H 587.807 -2.85477 3.04235 0
M  V30 6263 H 586.437 -2.58492 1.93343 0
M  V30 6264 H 585.489 -0.921208 3.69077 0
M  V30 6265 H 586.801 -1.41964 4.78171 0
M  V30 6266 H 585.955 -3.77513 4.74941 0
M  V30 6267 H 584.694 -3.32649 3.56645 0
M  V30 6268 H 583.699 -1.72218 5.22131 0
M  V30 6269 H 584.924 -2.19801 6.42545 0
M  V30 6270 H 582.87 -4.051 5.15974 0
M  V30 6271 H 582.787 -3.38737 6.75865 0
M  V30 6272 H 584.055 -4.50757 6.35955 0
M  V30 6273 N 588.284 -1.56567 -0.180126 0
M  V30 6274 C 589.533 -1.80685 -0.896426 0
M  V30 6275 C 589.846 -0.669335 -1.83791 0
M  V30 6276 O 591.052 -0.795209 -2.59593 0
M  V30 6277 C 589.508 -3.20132 -1.6445 0
M  V30 6278 C 589.116 -4.41727 -0.747088 0
M  V30 6279 C 590.86 -3.53549 -2.34955 0
M  V30 6280 C 588.767 -5.72195 -1.49489 0
M  V30 6281 H 587.697 -0.673758 -0.338477 0
M  V30 6282 H 590.348 -1.8289 -0.149467 0
M  V30 6283 H 588.73 -3.12218 -2.43589 0
M  V30 6284 H 589.904 -4.608 0.00671129 0
M  V30 6285 H 588.219 -4.16122 -0.152134 0
M  V30 6286 H 590.816 -4.48267 -2.91481 0
M  V30 6287 H 591.159 -2.78006 -3.09868 0
M  V30 6288 H 591.692 -3.62976 -1.62768 0
M  V30 6289 H 588.431 -6.50743 -0.788251 0
M  V30 6290 H 587.951 -5.57115 -2.22224 0
M  V30 6291 H 589.63 -6.1384 -2.04472 0
M  V30 6292 N 589.762 0.448376 -1.51087 0
M  V30 6293 C 591.039 1.20926 -1.53741 0
M  V30 6294 C 591.419 2.09025 -0.295222 0
M  V30 6295 O 590.767 2.16851 0.720283 0
M  V30 6296 C 590.977 2.02067 -2.84552 0
M  V30 6297 C 592.325 2.59486 -3.36084 0
M  V30 6298 O 593.349 2.12289 -2.86028 0
M  V30 6299 O 592.208 3.45539 -4.23397 0
M  V30 6300 H 589.302 0.549951 -0.617643 0
M  V30 6301 H 591.848 0.458344 -1.63393 0
M  V30 6302 H 590.62 1.37291 -3.66425 0
M  V30 6303 H 590.243 2.84246 -2.78011 0
M  V30 6304 N 591.24 1.41047 0.703093 0
M  V30 6305 C 592.489 1.39301 1.4587 0
M  V30 6306 C 592.802 0.00267077 1.956 0
M  V30 6307 O 594.008 -0.137414 2.71152 0
M  V30 6308 C 592.464 2.44891 2.63735 0
M  V30 6309 C 592.072 3.89796 2.20824 0
M  V30 6310 C 593.816 2.5227 3.41409 0
M  V30 6311 C 591.723 4.86955 3.35602 0
M  V30 6312 H 590.653 0.518005 0.547893 0
M  V30 6313 H 593.304 1.66839 0.764009 0
M  V30 6314 H 591.686 2.10472 3.35436 0
M  V30 6315 H 592.86 4.33424 1.56461 0
M  V30 6316 H 591.175 3.86008 1.56163 0
M  V30 6317 H 593.772 3.22044 4.26839 0
M  V30 6318 H 594.115 1.55714 3.86081 0
M  V30 6319 H 594.648 2.85742 2.7676 0
M  V30 6320 H 591.387 5.84888 2.9595 0
M  V30 6321 H 590.907 4.47982 3.98839 0
M  V30 6322 H 592.586 5.07361 4.01489 0
M  V30 6323 N 592.718 -0.936591 1.26751 0
M  V30 6324 C 594.134 -1.21095 1.03963 0
M  V30 6325 C 594.334 -2.00156 -0.232372 0
M  V30 6326 O 593.39 -2.3434 -0.940274 0
M  V30 6327 C 594.703 -1.96775 2.27377 0
M  V30 6328 C 596.251 -2.09749 2.32324 0
M  V30 6329 C 596.726 -2.88832 3.55443 0
M  V30 6330 N 598.217 -2.96404 3.55948 0
M  V30 6331 C 598.952 -3.58036 4.47881 0
M  V30 6332 N 598.448 -4.21132 5.50109 0
M  V30 6333 N 600.241 -3.55353 4.35523 0
M  V30 6334 H 592.392 -0.408173 2.08441 0
M  V30 6335 H 594.655 -0.243139 0.91629 0
M  V30 6336 H 594.361 -1.46094 3.19921 0
M  V30 6337 H 594.235 -2.97424 2.31989 0
M  V30 6338 H 596.622 -2.5962 1.40291 0
M  V30 6339 H 596.703 -1.08347 2.31721 0
M  V30 6340 H 596.347 -2.39647 4.47808 0
M  V30 6341 H 596.277 -3.90499 3.53296 0
M  V30 6342 H 598.768 -2.51552 2.82011 0
M  V30 6343 H 599.081 -4.66071 6.16439 0
M  V30 6344 H 597.426 -4.19705 5.53961 0
M  V30 6345 H 600.617 -3.05256 3.54875 0
M  V30 6346 H 600.79 -4.03097 5.07363 0
M  V30 6347 N 594.196 -1.08629 -1.14182 0
M  V30 6348 C 595.444 -0.815731 -1.84906 0
M  V30 6349 C 595.765 0.660441 -1.83475 0
M  V30 6350 O 595.035 1.47888 -1.28476 0
M  V30 6351 H 593.615 -0.298773 -0.684648 0
M  V30 6352 H 596.277 -1.37274 -1.38354 0
M  V30 6353 H 595.373 -1.16193 -2.89665 0
M  V30 6354 N 595.674 1.31259 -0.872281 0
M  V30 6355 C 596.92 1.96913 -0.485083 0
M  V30 6356 C 597.253 1.68774 0.960667 0
M  V30 6357 O 596.528 0.985495 1.67685 0
M  V30 6358 C 596.811 3.52299 -0.745502 0
M  V30 6359 C 596.664 3.90002 -2.24095 0
M  V30 6360 C 597.983 4.39582 -0.213516 0
M  V30 6361 H 595.102 0.715252 -0.177716 0
M  V30 6362 H 597.744 1.55347 -1.09395 0
M  V30 6363 H 595.894 3.87835 -0.227276 0
M  V30 6364 H 597.566 3.64555 -2.82661 0
M  V30 6365 H 595.809 3.38526 -2.71261 0
M  V30 6366 H 596.48 4.98352 -2.37381 0
M  V30 6367 H 598.956 4.10882 -0.656902 0
M  V30 6368 H 597.832 5.47251 -0.42516 0
M  V30 6369 H 598.093 4.33158 0.884666 0
M  V30 6370 N 597.152 0.631951 1.44375 0
M  V30 6371 C 598.4 0.136497 2.01639 0
M  V30 6372 C 598.721 -1.24637 1.49969 0
M  V30 6373 O 597.991 -1.82827 0.70363 0
M  V30 6374 H 596.571 0.0474703 0.74549 0
M  V30 6375 H 599.233 0.818837 1.76865 0
M  V30 6376 H 598.329 0.104817 3.11924 0
M  V30 6377 N 598.631 -1.53133 0.372548 0
M  V30 6378 C 599.579 -2.27473 -0.485681 0
M  V30 6379 C 600.573 -1.30719 -1.07745 0
M  V30 6380 O 601.779 -1.48321 -1.01985 0
M  V30 6381 H 598.154 -0.731269 -0.175356 0
M  V30 6382 H 600.125 -2.97955 0.162986 0
M  V30 6383 C 598.874 -3.08191 -1.60978 0
M  V30 6384 H 598.197 -3.82488 -1.16373 0
M  V30 6385 H 599.637 -3.63373 -2.18485 0
M  V30 6386 C 598.096 -2.19461 -2.55614 0
M  V30 6387 O 598.626 -1.81008 -3.58607 0
M  V30 6388 N 596.832 -1.83955 -2.24965 0
M  V30 6389 H 596.379 -2.15423 -1.41247 0
M  V30 6390 H 596.337 -1.24874 -2.88538 0
M  V30 6391 N 600.109 -0.101901 -1.5727 0
M  V30 6392 C 601.355 0.561027 -1.94885 0
M  V30 6393 C 601.688 1.6741 -0.984258 0
M  V30 6394 O 600.963 1.94491 -0.0184767 0
M  V30 6395 C 601.246 1.10982 -3.42571 0
M  V30 6396 C 601.099 0.00133418 -4.498 0
M  V30 6397 C 602.418 2.00608 -3.9172 0
M  V30 6398 H 599.537 0.202467 -0.708644 0
M  V30 6399 H 602.179 -0.173992 -1.89202 0
M  V30 6400 H 600.329 1.73621 -3.47546 0
M  V30 6401 H 602.001 -0.63322 -4.56933 0
M  V30 6402 H 600.244 -0.664143 -4.28686 0
M  V30 6403 H 600.915 0.426253 -5.50352 0
M  V30 6404 H 603.391 1.47864 -3.88941 0
M  V30 6405 H 602.267 2.3593 -4.95609 0
M  V30 6406 H 602.528 2.92608 -3.3141 0
M  V30 6407 N 601.587 1.56661 0.17182 0
M  V30 6408 C 602.55 1.9549 1.19651 0
M  V30 6409 C 603.55 0.838501 1.37207 0
M  V30 6410 O 604.74 1.10556 1.34622 0
M  V30 6411 C 601.872 2.24927 2.56166 0
M  V30 6412 H 603.065 2.87184 0.864007 0
M  V30 6413 H 600.618 1.50711 0.41425 0
M  V30 6414 H 601.353 1.35944 2.94431 0
M  V30 6415 H 601.138 3.06301 2.4479 0
M  V30 6416 H 602.628 2.55891 3.30014 0
M  V30 6417 N 603.065 -0.440357 1.51323 0
M  V30 6418 C 603.995 -1.54174 1.75364 0
M  V30 6419 C 604.976 -1.59039 0.603375 0
M  V30 6420 O 606.161 -1.74815 0.845774 0
M  V30 6421 C 603.291 -2.92277 1.87593 0
M  V30 6422 C 602.245 -3.02274 3.03009 0
M  V30 6423 C 601.571 -4.42327 3.00418 0
M  V30 6424 C 602.871 -2.76634 4.43024 0
M  V30 6425 H 604.565 -1.34307 2.67585 0
M  V30 6426 H 602.111 -0.644678 1.28763 0
M  V30 6427 H 604.064 -3.69284 2.02995 0
M  V30 6428 H 602.788 -3.13369 0.920179 0
M  V30 6429 H 601.447 -2.27706 2.87307 0
M  V30 6430 H 601.095 -4.60382 2.02626 0
M  V30 6431 H 600.795 -4.49946 3.77918 0
M  V30 6432 H 602.319 -5.21312 3.17909 0
M  V30 6433 H 603.733 -3.43376 4.59093 0
M  V30 6434 H 602.13 -2.95666 5.22208 0
M  V30 6435 H 603.2 -1.72262 4.5327 0
M  V30 6436 N 604.543 -1.41418 -0.695603 0
M  V30 6437 C 605.49 -1.43264 -1.80954 0
M  V30 6438 C 606.46 -0.287016 -1.63601 0
M  V30 6439 O 607.645 -0.488054 -1.84452 0
M  V30 6440 C 604.785 -1.32054 -3.18835 0
M  V30 6441 C 603.898 -2.56485 -3.4762 0
M  V30 6442 C 603.033 -2.3757 -4.75115 0
M  V30 6443 C 602.072 -3.57477 -4.96867 0
M  V30 6444 N 601.209 -3.37632 -6.15588 0
M  V30 6445 H 606.049 -2.38467 -1.78711 0
M  V30 6446 H 603.586 -1.18415 -0.872715 0
M  V30 6447 H 605.544 -1.23558 -3.98484 0
M  V30 6448 H 604.174 -0.404592 -3.20254 0
M  V30 6449 H 603.226 -2.75432 -2.62376 0
M  V30 6450 H 604.538 -3.45678 -3.59594 0
M  V30 6451 H 603.692 -2.2654 -5.62818 0
M  V30 6452 H 602.431 -1.45834 -4.65386 0
M  V30 6453 H 601.436 -3.68961 -4.07612 0
M  V30 6454 H 602.661 -4.50167 -5.08455 0
M  V30 6455 H 600.607 -2.48596 -6.07072 0
M  V30 6456 H 600.524 -4.20401 -6.2833 0
M  V30 6457 H 601.792 -3.30375 -7.06026 0
M  V30 6458 N 606.021 0.929856 -1.27246 0
M  V30 6459 C 606.931 2.0636 -1.11592 0
M  V30 6460 C 607.947 1.73938 -0.046496 0
M  V30 6461 O 609.123 1.9981 -0.252544 0
M  V30 6462 C 606.188 3.38213 -0.762437 0
M  V30 6463 C 605.249 3.84346 -1.9125 0
M  V30 6464 C 604.482 5.09906 -1.57579 0
M  V30 6465 O 604.705 5.68354 -0.482694 0
M  V30 6466 O 603.639 5.51359 -2.41426 0
M  V30 6467 H 607.465 2.22478 -2.0673 0
M  V30 6468 H 605.05 1.04865 -1.06413 0
M  V30 6469 H 606.932 4.1741 -0.57854 0
M  V30 6470 H 605.607 3.23307 0.159439 0
M  V30 6471 H 604.514 3.06045 -2.15144 0
M  V30 6472 H 605.847 4.0379 -2.81451 0
M  V30 6473 N 607.499 1.09233 1.13605 0
M  V30 6474 C 608.446 0.729921 2.18954 0
M  V30 6475 C 609.416 -0.287916 1.63586 0
M  V30 6476 O 610.601 -0.170003 1.90041 0
M  V30 6477 C 607.741 0.154489 3.44754 0
M  V30 6478 C 606.854 1.22613 4.14234 0
M  V30 6479 C 605.989 0.613657 5.27644 0
M  V30 6480 C 605.028 1.66674 5.8897 0
M  V30 6481 N 604.165 1.07545 6.93814 0
M  V30 6482 H 609.005 1.63257 2.49302 0
M  V30 6483 H 606.542 0.815693 1.22413 0
M  V30 6484 H 608.5 -0.196923 4.16735 0
M  V30 6485 H 607.13 -0.711433 3.14863 0
M  V30 6486 H 606.182 1.69485 3.40557 0
M  V30 6487 H 607.494 2.0238 4.55899 0
M  V30 6488 H 606.648 0.210976 6.06333 0
M  V30 6489 H 605.387 -0.215584 4.87223 0
M  V30 6490 H 604.392 2.07899 5.08978 0
M  V30 6491 H 605.617 2.49861 6.31464 0
M  V30 6492 H 603.563 0.267451 6.55455 0
M  V30 6493 H 603.48 1.81011 7.3401 0
M  V30 6494 H 604.748 0.698906 7.7636 0
M  V30 6495 N 608.977 -1.30795 0.87923 0
M  V30 6496 C 610.223 -1.97035 0.50487 0
M  V30 6497 C 610.578 -1.68182 -0.934484 0
M  V30 6498 O 609.871 -0.972953 -1.65058 0
M  V30 6499 C 610.065 -3.50287 0.709476 0
M  V30 6500 C 609.894 -3.94035 2.16717 0
M  V30 6501 C 608.664 -4.1992 2.81061 0
M  V30 6502 C 610.862 -4.07288 3.1404 0
M  V30 6503 N 608.844 -4.50088 4.17486 0
M  V30 6504 C 610.215 -4.41273 4.35521 0
M  V30 6505 C 612.27 -3.89696 3.09906 0
M  V30 6506 C 610.973 -4.59501 5.534 0
M  V30 6507 C 612.999 -4.09122 4.27052 0
M  V30 6508 C 612.361 -4.43447 5.47297 0
M  V30 6509 H 608.46 -0.746181 0.233962 0
M  V30 6510 H 611.044 -1.5814 1.13577 0
M  V30 6511 H 609.215 -3.8825 0.108108 0
M  V30 6512 H 610.947 -4.03567 0.302585 0
M  V30 6513 H 607.702 -4.12906 2.3196 0
M  V30 6514 H 608.126 -4.69316 4.87926 0
M  V30 6515 H 612.768 -3.62239 2.18043 0
M  V30 6516 H 610.486 -4.85802 6.45773 0
M  V30 6517 H 614.072 -3.96985 4.25316 0
M  V30 6518 H 612.952 -4.58171 6.36435 0
M  V30 6519 N 610.455 -0.639598 -1.44038 0
M  V30 6520 C 611.418 0.0506628 -2.29144 0
M  V30 6521 C 612.418 0.764001 -1.41491 0
M  V30 6522 O 613.608 0.607309 -1.63271 0
M  V30 6523 C 610.74 1.0824 -3.2326 0
M  V30 6524 H 611.933 -0.697987 -2.91664 0
M  V30 6525 H 609.486 -0.400146 -1.51091 0
M  V30 6526 H 610.221 1.86075 -2.65606 0
M  V30 6527 H 610.006 0.574725 -3.87865 0
M  V30 6528 H 611.496 1.56487 -3.87171 0
M  V30 6529 N 611.933 1.52934 -0.380664 0
M  V30 6530 C 612.896 2.24809 0.446473 0
M  V30 6531 C 613.896 1.26133 0.997347 0
M  V30 6532 O 615.086 1.50297 0.880714 0
M  V30 6533 C 612.218 2.99649 1.62553 0
M  V30 6534 H 613.411 2.99343 -0.182677 0
M  V30 6535 H 610.964 1.55736 -0.132618 0
M  V30 6536 H 611.699 2.29395 2.29235 0
M  V30 6537 H 611.484 3.72066 1.23732 0
M  V30 6538 H 612.974 3.54246 2.21133 0
M  V30 6539 N 613.412 0.11024 1.57214 0
M  V30 6540 C 614.66 -0.548783 1.94506 0
M  V30 6541 C 614.981 -1.67772 0.99386 0
M  V30 6542 O 614.251 -1.9584 0.0485841 0
M  V30 6543 H 612.831 -0.205715 0.718116 0
M  V30 6544 H 615.493 0.177127 1.94093 0
M  V30 6545 H 614.589 -0.949096 2.97319 0
M  V30 6546 N 614.89 -1.56749 -0.16351 0
M  V30 6547 C 616.301 -1.72039 -0.725216 0
M  V30 6548 C 616.652 -0.72202 -1.82432 0
M  V30 6549 O 615.777 0.114942 -2.16095 0
M  V30 6550 C 616.372 -3.11932 -1.32227 0
M  V30 6551 C 614.931 -3.28879 -1.83072 0
M  V30 6552 C 614.078 -2.67984 -0.712716 0
M  V30 6553 H 617.029 -1.58579 0.0619772 0
M  V30 6554 H 617.05 -3.11015 -2.19202 0
M  V30 6555 H 616.562 -3.84572 -0.522103 0
M  V30 6556 H 614.663 -2.61209 -2.65708 0
M  V30 6557 H 614.776 -4.36688 -1.97079 0
M  V30 6558 H 613.14 -2.28005 -1.13515 0
M  V30 6559 H 613.923 -3.43216 0.0757361 0
M  V30 6560 N 616.368 0.432326 -1.51554 0
M  V30 6561 C 617.784 0.769195 -1.39841 0
M  V30 6562 C 617.984 1.95584 -0.484675 0
M  V30 6563 O 617.04 2.52433 0.0582829 0
M  V30 6564 C 618.353 1.04487 -2.81963 0
M  V30 6565 C 619.901 1.149 -2.91148 0
M  V30 6566 C 620.376 1.45758 -4.34187 0
M  V30 6567 N 621.867 1.52671 -4.37317 0
M  V30 6568 C 622.602 1.78129 -5.4503 0
M  V30 6569 N 622.098 2.01345 -6.62897 0
M  V30 6570 N 623.891 1.79953 -5.32516 0
M  V30 6571 H 616.042 -0.349122 -2.09511 0
M  V30 6572 H 618.305 -0.0938113 -0.943347 0
M  V30 6573 H 618.011 0.24557 -3.50842 0
M  V30 6574 H 617.885 1.97119 -3.21596 0
M  V30 6575 H 620.272 1.93891 -2.22464 0
M  V30 6576 H 620.353 0.201568 -2.55005 0
M  V30 6577 H 619.997 0.672917 -5.03423 0
M  V30 6578 H 619.927 2.41715 -4.67848 0
M  V30 6579 H 622.418 1.36612 -3.52343 0
M  V30 6580 H 622.731 2.20155 -7.40778 0
M  V30 6581 H 621.076 1.98657 -6.66003 0
M  V30 6582 H 624.267 1.61337 -4.39418 0
M  V30 6583 H 624.44 1.99455 -6.1654 0
M  V30 6584 N 617.846 1.41785 0.688094 0
M  V30 6585 C 619.074 1.44915 1.47673 0
M  V30 6586 C 619.489 0.0565786 1.88715 0
M  V30 6587 O 618.846 -0.92579 1.57275 0
M  V30 6588 C 618.897 2.36452 2.73446 0
M  V30 6589 O 618.618 3.7029 2.34131 0
M  V30 6590 C 620.119 2.48463 3.67125 0
M  V30 6591 H 617.339 0.493324 0.454832 0
M  V30 6592 H 619.883 1.86153 0.846594 0
M  V30 6593 H 618.038 1.98502 3.3268 0
M  V30 6594 H 618.452 4.19183 3.15255 0
M  V30 6595 H 619.926 3.16662 4.52138 0
M  V30 6596 H 620.403 1.51826 4.12123 0
M  V30 6597 H 621.009 2.8708 3.13792 0
M  V30 6598 N 619.324 -0.923095 1.27737 0
M  V30 6599 C 620.554 -1.70277 1.17001 0
M  V30 6600 C 620.962 -1.87188 -0.275199 0
M  V30 6601 O 620.305 -1.39195 -1.19877 0
M  V30 6602 C 620.367 -3.11976 1.78637 0
M  V30 6603 C 620.031 -3.18386 3.27841 0
M  V30 6604 C 621.028 -3.00287 4.2441 0
M  V30 6605 C 618.713 -3.41198 3.68632 0
M  V30 6606 C 620.707 -3.04896 5.59747 0
M  V30 6607 C 618.394 -3.4544 5.04097 0
M  V30 6608 C 619.392 -3.27309 5.99465 0
M  V30 6609 O 619.08 -3.31295 7.32461 0
M  V30 6610 H 618.812 -0.539366 0.407505 0
M  V30 6611 H 621.366 -1.16446 1.69202 0
M  V30 6612 H 619.596 -3.67308 1.20919 0
M  V30 6613 H 621.285 -3.7193 1.6255 0
M  V30 6614 H 622.051 -2.825 3.94232 0
M  V30 6615 H 617.93 -3.54359 2.94873 0
M  V30 6616 H 621.474 -2.90662 6.34162 0
M  V30 6617 H 617.371 -3.62753 5.33929 0
M  V30 6618 H 618.139 -3.47719 7.40968 0
M  V30 6619 N 620.802 -1.09834 -1.13024 0
M  V30 6620 C 621.732 -0.763451 -2.20666 0
M  V30 6621 C 622.713 0.260778 -1.68089 0
M  V30 6622 O 623.898 0.127915 -1.93778 0
M  V30 6623 C 621.028 -0.187744 -3.46792 0
M  V30 6624 C 619.982 -1.14196 -4.12484 0
M  V30 6625 C 619.308 -0.427755 -5.32986 0
M  V30 6626 C 620.608 -2.48607 -4.59338 0
M  V30 6627 H 622.302 -1.66347 -2.48936 0
M  V30 6628 H 619.848 -0.801261 -1.19649 0
M  V30 6629 H 621.801 0.0586375 -4.21359 0
M  V30 6630 H 620.525 0.747485 -3.17931 0
M  V30 6631 H 619.184 -1.37369 -3.3989 0
M  V30 6632 H 618.832 0.511747 -5.0039 0
M  V30 6633 H 618.532 -1.06403 -5.77886 0
M  V30 6634 H 620.056 -0.189772 -6.10305 0
M  V30 6635 H 621.47 -2.29618 -5.25308 0
M  V30 6636 H 619.867 -3.08062 -5.14993 0
M  V30 6637 H 620.937 -3.09062 -3.73642 0
M  V30 6638 N 622.28 1.30327 -0.886154 0
M  V30 6639 C 623.528 1.9571 -0.504195 0
M  V30 6640 C 623.849 1.70294 0.950003 0
M  V30 6641 O 623.119 1.02718 1.66811 0
M  V30 6642 H 621.699 0.72412 -0.183465 0
M  V30 6643 H 624.361 1.58835 -1.12949 0
M  V30 6644 H 623.457 3.04704 -0.675431 0
M  V30 6645 N 623.758 0.647228 1.43697 0
M  V30 6646 C 624.688 -0.0345631 2.33474 0
M  V30 6647 C 625.669 -0.818193 1.4913 0
M  V30 6648 O 626.854 -0.780867 1.77809 0
M  V30 6649 C 623.984 -1.00576 3.32418 0
M  V30 6650 C 622.938 -0.33266 4.26705 0
M  V30 6651 C 622.264 -1.41489 5.1564 0
M  V30 6652 C 623.564 0.771204 5.16575 0
M  V30 6653 H 625.258 0.715163 2.90733 0
M  V30 6654 H 622.804 0.345364 1.39797 0
M  V30 6655 H 624.757 -1.49159 3.94119 0
M  V30 6656 H 623.481 -1.78657 2.73403 0
M  V30 6657 H 622.14 0.13267 3.6636 0
M  V30 6658 H 621.788 -2.18698 4.52968 0
M  V30 6659 H 621.488 -0.969799 5.79542 0
M  V30 6660 H 623.012 -1.9022 5.80214 0
M  V30 6661 H 624.426 0.36779 5.72119 0
M  V30 6662 H 622.823 1.1404 5.89165 0
M  V30 6663 H 623.893 1.63169 4.56622 0
M  V30 6664 N 625.236 -1.5273 0.388769 0
M  V30 6665 C 626.461 -2.0647 -0.19621 0
M  V30 6666 C 626.886 -1.25865 -1.39784 0
M  V30 6667 O 626.244 -0.283562 -1.79069 0
M  V30 6668 C 626.292 -3.56456 -0.5451 0
M  V30 6669 O 625.396 -3.78426 -1.63912 0
M  V30 6670 H 624.737 -0.663599 -0.023067 0
M  V30 6671 H 627.267 -1.96898 0.556084 0
M  V30 6672 H 627.277 -3.99888 -0.809557 0
M  V30 6673 H 625.952 -4.14561 0.333417 0
M  V30 6674 H 624.529 -3.46884 -1.36842 0
M  V30 6675 N 626.714 -0.118576 -1.57153 0
M  V30 6676 C 627.942 0.54726 -1.99531 0
M  V30 6677 C 628.357 1.60251 -0.998246 0
M  V30 6678 O 627.714 1.82498 0.00893106 0
M  V30 6679 C 627.765 1.17378 -3.41913 0
M  V30 6680 O 627.486 0.160703 -4.37805 0
M  V30 6681 C 628.987 1.92297 -3.9942 0
M  V30 6682 H 626.207 0.144919 -0.655164 0
M  V30 6683 H 628.751 -0.20479 -2.03472 0
M  V30 6684 H 626.906 1.87661 -3.38913 0
M  V30 6685 H 627.32 0.61586 -5.20872 0
M  V30 6686 H 628.794 2.31462 -5.01128 0
M  V30 6687 H 629.271 2.79801 -3.38538 0
M  V30 6688 H 629.877 1.26777 -4.05965 0
M  V30 6689 N 628.193 1.56834 0.155195 0
M  V30 6690 C 629.156 1.96748 1.17571 0
M  V30 6691 C 630.156 0.853006 1.3631 0
M  V30 6692 O 631.346 1.11978 1.33441 0
M  V30 6693 C 628.478 2.27631 2.53765 0
M  V30 6694 H 629.671 2.88085 0.833498 0
M  V30 6695 H 627.224 1.51141 0.398242 0
M  V30 6696 H 627.959 1.39059 2.92973 0
M  V30 6697 H 627.744 3.0888 2.41527 0
M  V30 6698 H 629.234 2.59377 3.27282 0
M  V30 6699 N 629.671 -0.424282 1.51781 0
M  V30 6700 C 630.919 -1.17028 1.64769 0
M  V30 6701 C 631.24 -1.91409 0.372523 0
M  V30 6702 O 630.51 -1.86091 -0.612108 0
M  V30 6703 H 629.09 -0.434992 0.607282 0
M  V30 6704 H 631.752 -0.485169 1.88765 0
M  V30 6705 H 630.848 -1.8927 2.4816 0
M  V30 6706 N 631.149 -1.42148 -0.680565 0
M  V30 6707 C 632.396 -1.4231 -1.44063 0
M  V30 6708 C 632.724 -0.037488 -1.94464 0
M  V30 6709 O 631.979 0.953184 -1.70918 0
M  V30 6710 C 632.278 -2.38945 -2.65782 0
M  V30 6711 C 631.944 -3.85455 -2.33956 0
M  V30 6712 C 630.606 -4.25364 -2.24987 0
M  V30 6713 C 632.958 -4.77895 -2.08004 0
M  V30 6714 C 630.286 -5.55701 -1.88184 0
M  V30 6715 C 632.638 -6.08568 -1.72706 0
M  V30 6716 C 631.302 -6.47482 -1.62244 0
M  V30 6717 H 630.572 -0.520748 -0.527164 0
M  V30 6718 H 633.219 -1.7505 -0.776524 0
M  V30 6719 H 631.524 -1.99511 -3.37198 0
M  V30 6720 H 633.221 -2.36336 -3.23954 0
M  V30 6721 H 629.811 -3.53855 -2.41836 0
M  V30 6722 H 633.995 -4.47854 -2.1387 0
M  V30 6723 H 629.251 -5.84718 -1.78648 0
M  V30 6724 H 633.425 -6.79688 -1.5165 0
M  V30 6725 H 631.052 -7.48387 -1.33496 0
M  V30 6726 N 632.627 0.916307 -1.28225 0
M  V30 6727 C 634.038 1.48024 -1.13779 0
M  V30 6728 C 634.389 1.94289 0.273139 0
M  V30 6729 O 633.514 1.82226 1.16716 0
M  V30 6730 C 634.109 2.69029 -2.05935 0
M  V30 6731 C 632.668 3.2161 -1.95561 0
M  V30 6732 C 631.815 1.94321 -1.97825 0
M  V30 6733 H 634.766 0.729272 -1.40951 0
M  V30 6734 H 634.787 3.44204 -1.62184 0
M  V30 6735 H 634.299 2.35325 -3.08616 0
M  V30 6736 H 632.4 3.60045 -0.959076 0
M  V30 6737 H 632.513 3.87032 -2.82388 0
M  V30 6738 H 630.877 2.1131 -1.42198 0
M  V30 6739 H 631.66 1.62917 -3.0218 0
M  V30 6740 N 634.105 1.10431 1.1244 0
M  V30 6741 C 635.053 0.747974 2.20246 0
M  V30 6742 C 636.047 -0.255848 1.67457 0
M  V30 6743 O 637.253 -0.116221 1.79624 0
M  V30 6744 H 633.628 0.223946 0.71788 0
M  V30 6745 H 635.599 1.6661 2.47556 0
M  V30 6746 C 634.348 0.195957 3.47147 0
M  V30 6747 H 633.671 0.959606 3.88113 0
M  V30 6748 H 635.111 -0.0153154 4.23997 0
M  V30 6749 C 633.57 -1.07132 3.19413 0
M  V30 6750 O 634.1 -2.15284 3.3914 0
M  V30 6751 N 632.306 -0.98994 2.73219 0
M  V30 6752 H 631.853 -0.109736 2.57366 0
M  V30 6753 H 631.811 -1.83856 2.55038 0
M  V30 6754 N 635.583 -1.29855 0.893053 0
M  V30 6755 C 636.513 -2.3035 0.382249 0
M  V30 6756 C 637.494 -1.61328 -0.539203 0
M  V30 6757 O 638.679 -1.88882 -0.451342 0
M  V30 6758 C 635.809 -3.45024 -0.396983 0
M  V30 6759 C 634.763 -4.258 0.433437 0
M  V30 6760 C 634.089 -5.32605 -0.472889 0
M  V30 6761 C 635.389 -4.94549 1.67984 0
M  V30 6762 H 637.083 -2.73325 1.22205 0
M  V30 6763 H 634.629 -1.314 0.589073 0
M  V30 6764 H 636.582 -4.14398 -0.765024 0
M  V30 6765 H 635.306 -3.00875 -1.2705 0
M  V30 6766 H 633.965 -3.58125 0.783723 0
M  V30 6767 H 633.613 -4.84702 -1.34435 0
M  V30 6768 H 633.313 -5.87547 0.0789958 0
M  V30 6769 H 634.837 -6.04832 -0.837269 0
M  V30 6770 H 636.251 -5.56395 1.38192 0
M  V30 6771 H 634.648 -5.59393 2.17254 0
M  V30 6772 H 635.718 -4.20215 2.41965 0
M  V30 6773 N 637.061 -0.65484 -1.43351 0
M  V30 6774 C 638.308 -0.168892 -2.01794 0
M  V30 6775 C 638.636 1.2177 -1.51665 0
M  V30 6776 O 637.891 1.82717 -0.70092 0
M  V30 6777 C 638.19 -0.130424 -3.57162 0
M  V30 6778 C 637.856 -1.45898 -4.26643 0
M  V30 6779 C 636.518 -1.82279 -4.4534 0
M  V30 6780 C 638.87 -2.33485 -4.65976 0
M  V30 6781 C 636.198 -3.0591 -5.00635 0
M  V30 6782 C 638.55 -3.5641 -5.22642 0
M  V30 6783 C 637.214 -3.92985 -5.39555 0
M  V30 6784 H 636.484 -0.061802 -0.738418 0
M  V30 6785 H 639.131 -0.845869 -1.71806 0
M  V30 6786 H 637.436 0.630008 -3.86702 0
M  V30 6787 H 639.133 0.262465 -4.0014 0
M  V30 6788 H 635.723 -1.16591 -4.12437 0
M  V30 6789 H 639.907 -2.06668 -4.51223 0
M  V30 6790 H 635.163 -3.34295 -5.11915 0
M  V30 6791 H 639.337 -4.24495 -5.52066 0
M  V30 6792 H 636.964 -4.88862 -5.82167 0
M  V30 6793 N 638.539 1.52521 -0.396863 0
M  V30 6794 C 639.786 2.01672 0.182898 0
M  V30 6795 C 640.114 1.28302 1.46181 0
M  V30 6796 O 639.369 0.374118 1.92091 0
M  V30 6797 C 639.668 3.5403 0.489677 0
M  V30 6798 C 639.334 4.45456 -0.698581 0
M  V30 6799 C 637.996 4.70166 -1.02454 0
M  V30 6800 C 640.348 4.99354 -1.49316 0
M  V30 6801 C 637.676 5.46024 -2.1465 0
M  V30 6802 C 640.028 5.76439 -2.60579 0
M  V30 6803 C 638.692 5.99426 -2.93675 0
M  V30 6804 H 637.962 0.737971 0.066927 0
M  V30 6805 H 640.609 1.83853 -0.535764 0
M  V30 6806 H 638.914 3.69963 1.28976 0
M  V30 6807 H 640.611 3.8956 0.951018 0
M  V30 6808 H 637.201 4.26392 -0.434525 0
M  V30 6809 H 641.385 4.80182 -1.25457 0
M  V30 6810 H 636.641 5.62046 -2.40654 0
M  V30 6811 H 640.815 6.17202 -3.22544 0
M  V30 6812 H 638.442 6.57988 -3.80731 0
M  V30 6813 N 640.017 0.126909 1.57088 0
M  V30 6814 C 641.266 -0.529024 1.94639 0
M  V30 6815 C 641.579 -1.67323 1.01304 0
M  V30 6816 O 642.785 -2.39245 1.28352 0
M  V30 6817 C 641.241 -0.992483 3.45945 0
M  V30 6818 C 640.849 0.123691 4.47829 0
M  V30 6819 C 642.593 -1.61934 3.924 0
M  V30 6820 C 640.5 -0.356911 5.90322 0
M  V30 6821 H 639.43 -0.201397 0.726605 0
M  V30 6822 H 642.081 0.208032 1.82317 0
M  V30 6823 H 640.463 -1.7842 3.53528 0
M  V30 6824 H 641.637 0.900168 4.51922 0
M  V30 6825 H 639.952 0.657699 4.11173 0
M  V30 6826 H 642.549 -1.9902 4.96281 0
M  V30 6827 H 642.892 -2.50075 3.32819 0
M  V30 6828 H 643.425 -0.892894 3.8765 0
M  V30 6829 H 640.164 0.488636 6.53676 0
M  V30 6830 H 639.684 -1.0997 5.89633 0
M  V30 6831 H 641.363 -0.815547 6.41839 0
M  V30 6832 N 641.495 -1.56914 -0.146875 0
M  V30 6833 C 642.458 -1.97368 -1.16526 0
M  V30 6834 C 643.458 -0.860223 -1.35856 0
M  V30 6835 O 644.648 -1.12684 -1.32846 0
M  V30 6836 C 641.78 -2.28974 -2.52555 0
M  V30 6837 H 642.973 -2.88523 -0.818209 0
M  V30 6838 H 640.526 -1.5135 -0.390221 0
M  V30 6839 H 641.261 -1.40611 -2.92231 0
M  V30 6840 H 641.046 -3.10157 -2.39886 0
M  V30 6841 H 642.536 -2.61109 -3.25902 0
M  V30 6842 N 642.974 0.416227 -1.52004 0
M  V30 6843 C 644.222 1.16153 -1.65387 0
M  V30 6844 C 644.543 1.91208 -0.382669 0
M  V30 6845 O 643.813 1.86413 0.602231 0
M  V30 6846 H 642.393 0.431765 -0.60958 0
M  V30 6847 H 645.055 0.475151 -1.89019 0
M  V30 6848 H 644.151 1.87952 -2.4916 0
M  V30 6849 N 644.452 1.42507 0.673017 0
M  V30 6850 C 645.863 1.38347 1.25367 0
M  V30 6851 C 646.214 0.0776327 1.96046 0
M  V30 6852 O 645.339 -0.823571 2.00116 0
M  V30 6853 C 645.934 2.506 2.28002 0
M  V30 6854 C 644.493 2.49767 2.81591 0
M  V30 6855 C 643.64 2.293 1.55938 0
M  V30 6856 H 646.591 1.51695 0.466288 0
M  V30 6857 H 646.612 2.20953 3.09774 0
M  V30 6858 H 646.124 3.45627 1.76532 0
M  V30 6859 H 644.225 1.58563 3.37177 0
M  V30 6860 H 644.338 3.46867 3.30485 0
M  V30 6861 H 642.702 1.77594 1.82572 0
M  V30 6862 H 643.485 3.26385 1.06431 0
M  V30 6863 N 645.93 -0.909495 1.28709 0
M  V30 6864 C 647.178 -1.65577 1.15882 0
M  V30 6865 C 647.499 -1.928 -0.292108 0
M  V30 6866 O 646.769 -1.54716 -1.20166 0
M  V30 6867 H 645.349 -0.613714 0.425869 0
M  V30 6868 H 648.011 -1.09108 1.61498 0
M  V30 6869 H 647.107 -2.61634 1.70159 0
M  V30 6870 N 647.408 -1.11026 -1.11852 0
M  V30 6871 C 648.633 -0.879064 -1.87849 0
M  V30 6872 C 649.058 0.565406 -1.79401 0
M  V30 6873 O 648.416 1.39886 -1.15333 0
M  V30 6874 C 648.464 -1.33985 -3.34784 0
M  V30 6875 O 647.568 -0.508803 -4.09249 0
M  V30 6876 H 646.909 -0.316992 -0.583448 0
M  V30 6877 H 649.439 -1.47863 -1.41413 0
M  V30 6878 H 649.449 -1.33248 -3.85628 0
M  V30 6879 H 648.124 -2.39172 -3.40249 0
M  V30 6880 H 646.701 -0.581913 -3.68332 0
M  V30 6881 N 648.886 1.2938 -0.899927 0
M  V30 6882 C 650.297 1.77644 -0.574427 0
M  V30 6883 C 650.648 1.73824 0.909928 0
M  V30 6884 O 649.773 1.32429 1.71147 0
M  V30 6885 C 650.368 3.22573 -1.03595 0
M  V30 6886 C 648.927 3.68614 -0.76161 0
M  V30 6887 C 648.074 2.49483 -1.21052 0
M  V30 6888 H 651.025 1.16038 -1.08263 0
M  V30 6889 H 651.046 3.78684 -0.371337 0
M  V30 6890 H 650.558 3.25321 -2.11631 0
M  V30 6891 H 648.659 3.7134 0.306127 0
M  V30 6892 H 648.772 4.59402 -1.35965 0
M  V30 6893 H 647.136 2.46798 -0.629515 0
M  V30 6894 H 647.919 2.54959 -2.29893 0
M  V30 6895 N 650.364 0.662433 1.43002 0
M  V30 6896 C 651.589 0.186003 2.06564 0
M  V30 6897 C 652.014 -1.14314 1.49379 0
M  V30 6898 O 651.372 -1.70824 0.607346 0
M  V30 6899 C 651.42 0.118269 3.60406 0
M  V30 6900 O 650.524 -0.916859 4.02079 0
M  V30 6901 H 649.865 0.0990981 0.656563 0
M  V30 6902 H 652.395 0.907958 1.8335 0
M  V30 6903 H 652.405 -0.0619981 4.07953 0
M  V30 6904 H 651.08 1.08849 4.01403 0
M  V30 6905 H 649.657 -0.708635 3.66105 0
M  V30 6906 N 651.842 -1.52309 0.404946 0
M  V30 6907 C 652.805 -2.25491 -0.410651 0
M  V30 6908 C 653.805 -1.27704 -0.977154 0
M  V30 6909 O 654.995 -1.51679 -0.856691 0
M  V30 6910 C 652.127 -3.02197 -1.57765 0
M  V30 6911 H 653.32 -2.99015 0.230277 0
M  V30 6912 H 650.873 -1.55506 0.157377 0
M  V30 6913 H 651.608 -2.33013 -2.25556 0
M  V30 6914 H 651.393 -3.73987 -1.17797 0
M  V30 6915 H 652.883 -3.57719 -2.15469 0
M  V30 6916 N 653.32 -0.135238 -1.57019 0
M  V30 6917 C 654.25 0.805235 -2.19176 0
M  V30 6918 C 655.231 1.2656 -1.13651 0
M  V30 6919 O 656.416 1.32528 -1.4195 0
M  V30 6920 C 653.546 2.04914 -2.80406 0
M  V30 6921 C 652.5 1.72598 -3.91655 0
M  V30 6922 C 651.826 3.04154 -4.39766 0
M  V30 6923 C 653.126 0.981709 -5.12991 0
M  V30 6924 H 654.82 0.287232 -2.98019 0
M  V30 6925 H 652.366 0.136714 -1.4335 0
M  V30 6926 H 654.319 2.71178 -3.22553 0
M  V30 6927 H 653.043 2.59067 -1.98877 0
M  V30 6928 H 651.702 1.08717 -3.50109 0
M  V30 6929 H 651.35 3.56274 -3.55075 0
M  V30 6930 H 651.05 2.83299 -5.14796 0
M  V30 6931 H 652.574 3.71509 -4.84576 0
M  V30 6932 H 653.988 1.5462 -5.52056 0
M  V30 6933 H 652.385 0.873533 -5.93708 0
M  V30 6934 H 653.455 -0.0286887 -4.84892 0
M  V30 6935 N 654.798 1.5699 0.138552 0
M  V30 6936 C 656.023 1.88344 0.86841 0
M  V30 6937 C 656.448 0.725159 1.7356 0
M  V30 6938 O 655.806 -0.324992 1.78363 0
M  V30 6939 C 655.854 3.18334 1.69398 0
M  V30 6940 O 654.958 3.02863 2.79907 0
M  V30 6941 H 654.299 0.618577 0.241367 0
M  V30 6942 H 656.829 2.04207 0.126826 0
M  V30 6943 H 656.839 3.50567 2.08726 0
M  V30 6944 H 655.514 4.02238 1.05725 0
M  V30 6945 H 654.091 2.82056 2.43924 0
M  V30 6946 N 656.276 -0.40816 1.52223 0
M  V30 6947 C 657.224 -1.51788 1.76248 0
M  V30 6948 C 658.218 -1.57264 0.629638 0
M  V30 6949 O 659.424 -1.60659 0.811704 0
M  V30 6950 H 655.799 -0.504823 0.557367 0
M  V30 6951 H 657.77 -1.2871 2.69214 0
M  V30 6952 C 656.519 -2.89145 1.93107 0
M  V30 6953 H 655.842 -2.85674 2.79697 0
M  V30 6954 H 657.282 -3.66082 2.13916 0
M  V30 6955 C 655.741 -3.29581 0.698431 0
M  V30 6956 O 656.271 -4.01479 -0.133238 0
M  V30 6957 N 654.477 -2.85651 0.53405 0
M  V30 6958 H 654.024 -2.2731 1.21194 0
M  V30 6959 H 653.982 -3.13065 -0.289387 0
M  V30 6960 N 657.755 -1.42862 -0.66545 0
M  V30 6961 C 658.688 -1.41509 -1.79026 0
M  V30 6962 C 659.666 -0.278106 -1.60204 0
M  V30 6963 O 660.85 -0.469792 -1.82552 0
M  V30 6964 C 657.977 -1.21494 -3.1616 0
M  V30 6965 C 657.023 -2.38308 -3.53711 0
M  V30 6966 S 657.856 -4.00852 -3.55075 0
M  V30 6967 C 659.012 -3.83197 -4.94885 0
M  V30 6968 H 659.245 -2.36691 -1.79902 0
M  V30 6969 H 656.778 -1.29746 -0.836977 0
M  V30 6970 H 658.736 -1.10633 -3.95311 0
M  V30 6971 H 657.397 -0.27881 -3.1286 0
M  V30 6972 H 656.59 -2.20076 -4.53412 0
M  V30 6973 H 656.192 -2.45732 -2.81943 0
M  V30 6974 H 658.484 -3.44765 -5.83218 0
M  V30 6975 H 659.427 -4.82607 -5.18166 0
M  V30 6976 H 659.835 -3.15884 -4.67843 0
M  V30 6977 N 659.233 0.902656 -1.29189 0
M  V30 6978 C 660.163 2.02294 -1.16616 0
M  V30 6979 C 661.144 1.6999 -0.0611175 0
M  V30 6980 O 662.329 1.9271 -0.240072 0
M  V30 6981 C 659.459 3.37018 -0.83882 0
M  V30 6982 C 658.413 3.83522 -1.89986 0
M  V30 6983 C 657.739 5.15337 -1.42589 0
M  V30 6984 C 659.039 4.04169 -3.30824 0
M  V30 6985 H 660.733 2.13071 -2.10336 0
M  V30 6986 H 658.279 1.02378 -1.01266 0
M  V30 6987 H 660.232 4.14895 -0.737584 0
M  V30 6988 H 658.956 3.26325 0.134071 0
M  V30 6989 H 657.615 3.07859 -1.99043 0
M  V30 6990 H 657.263 5.01056 -0.441759 0
M  V30 6991 H 656.963 5.47423 -2.13547 0
M  V30 6992 H 658.487 5.95758 -1.3381 0
M  V30 6993 H 659.901 4.72537 -3.24626 0
M  V30 6994 H 658.298 4.47604 -3.99713 0
M  V30 6995 H 659.368 3.08604 -3.74021 0
M  V30 6996 N 660.711 1.11618 1.11262 0
M  V30 6997 C 661.957 0.867463 1.83311 0
M  V30 6998 C 662.29 -0.605366 1.84524 0
M  V30 6999 O 661.565 -1.44704 1.29965 0
M  V30 7000 C 661.848 1.43207 3.30399 0
M  V30 7001 C 661.701 2.97265 3.3757 0
M  V30 7002 C 663.02 1.08454 4.26528 0
M  V30 7003 H 660.139 0.316578 0.665543 0
M  V30 7004 H 662.781 1.38137 1.30454 0
M  V30 7005 H 660.931 0.994982 3.75543 0
M  V30 7006 H 662.603 3.49591 3.00971 0
M  V30 7007 H 660.846 3.33237 2.77733 0
M  V30 7008 H 661.517 3.31859 4.41105 0
M  V30 7009 H 663.993 1.4619 3.89574 0
M  V30 7010 H 662.869 1.50633 5.27826 0
M  V30 7011 H 663.13 -0.00444568 4.421 0
M  V30 7012 N 662.189 -1.289 0.906776 0
M  V30 7013 C 663.414 -1.99939 0.551303 0
M  V30 7014 C 663.839 -1.67366 -0.858496 0
M  V30 7015 O 663.197 -0.902176 -1.57259 0
M  V30 7016 C 663.245 -3.52523 0.758937 0
M  V30 7017 O 662.349 -4.11983 -0.185308 0
M  V30 7018 H 661.69 -0.628376 0.214568 0
M  V30 7019 H 664.22 -1.64225 1.2203 0
M  V30 7020 H 664.23 -4.02522 0.666329 0
M  V30 7021 H 662.905 -3.75566 1.78671 0
M  V30 7022 H 661.482 -3.72873 -0.0445577 0
M  V30 7023 N 663.667 -0.670007 -1.42649 0
M  V30 7024 C 664.916 -0.187526 -2.00826 0
M  V30 7025 C 665.229 1.21142 -1.53571 0
M  V30 7026 O 666.435 1.79001 -2.04134 0
M  V30 7027 C 664.891 -0.284409 -3.58774 0
M  V30 7028 C 664.499 -1.6871 -4.15019 0
M  V30 7029 C 666.243 0.139605 -4.2427 0
M  V30 7030 C 664.15 -1.73701 -5.65316 0
M  V30 7031 H 663.08 -0.0663468 -0.751075 0
M  V30 7032 H 665.731 -0.834492 -1.63427 0
M  V30 7033 H 664.113 0.430364 -3.93655 0
M  V30 7034 H 665.287 -2.42857 -3.91608 0
M  V30 7035 H 663.602 -2.05855 -3.61957 0
M  V30 7036 H 666.199 0.122398 -5.3456 0
M  V30 7037 H 666.542 1.17403 -3.99402 0
M  V30 7038 H 667.075 -0.523995 -3.94334 0
M  V30 7039 H 663.814 -2.75109 -5.94975 0
M  V30 7040 H 663.334 -1.03903 -5.90732 0
M  V30 7041 H 665.013 -1.48829 -6.2965 0
M  V30 7042 N 665.145 1.52092 -0.413018 0
M  V30 7043 C 666.055 2.30858 0.417318 0
M  V30 7044 C 667.071 1.38746 1.05003 0
M  V30 7045 O 668.247 1.71821 1.05069 0
M  V30 7046 C 665.312 3.11756 1.51687 0
M  V30 7047 C 664.373 4.19613 0.906825 0
M  V30 7048 C 663.606 4.96644 1.95399 0
M  V30 7049 O 663.829 4.7402 3.17271 0
M  V30 7050 O 662.763 5.81385 1.55805 0
M  V30 7051 H 666.589 3.02865 -0.225028 0
M  V30 7052 H 664.174 1.48358 -0.176126 0
M  V30 7053 H 666.056 3.62122 2.15512 0
M  V30 7054 H 664.731 2.42539 2.14375 0
M  V30 7055 H 663.638 3.73385 0.231183 0
M  V30 7056 H 664.971 4.91134 0.323814 0
M  V30 7057 N 666.623 0.143563 1.56945 0
M  V30 7058 C 667.555 -0.828353 2.13708 0
M  V30 7059 C 668.568 -1.21313 1.08568 0
M  V30 7060 O 669.757 -1.1578 1.35857 0
M  V30 7061 C 666.857 -2.12248 2.64204 0
M  V30 7062 C 666.03 -1.90561 3.93707 0
M  V30 7063 C 665.089 -3.03931 4.29549 0
M  V30 7064 O 664.115 -2.75772 4.97934 0
M  V30 7065 N 665.317 -4.31016 3.88852 0
M  V30 7066 H 668.082 -0.343242 2.97728 0
M  V30 7067 H 665.643 -0.0401152 1.6185 0
M  V30 7068 H 667.635 -2.87132 2.85197 0
M  V30 7069 H 666.205 -2.52033 1.84928 0
M  V30 7070 H 665.425 -0.997327 3.81375 0
M  V30 7071 H 666.713 -1.73405 4.78339 0
M  V30 7072 H 666.111 -4.56762 3.33743 0
M  V30 7073 H 664.668 -5.02691 4.14903 0
M  V30 7074 N 668.101 -1.57061 -0.130224 0
M  V30 7075 C 669.051 -1.95941 -1.16582 0
M  V30 7076 C 670.035 -0.832858 -1.37667 0
M  V30 7077 O 671.227 -1.09647 -1.38948 0
M  V30 7078 C 668.356 -2.35777 -2.49528 0
M  V30 7079 C 667.442 -3.5504 -2.31964 0
M  V30 7080 N 667.833 -4.71071 -1.84189 0
M  V30 7081 C 666.131 -3.60453 -2.62659 0
M  V30 7082 C 666.832 -5.53128 -1.80068 0
M  V30 7083 N 665.808 -4.95303 -2.24001 0
M  V30 7084 H 669.61 -2.83117 -0.788806 0
M  V30 7085 H 667.124 -1.58842 -0.3381 0
M  V30 7086 H 669.121 -2.61843 -3.24413 0
M  V30 7087 H 667.781 -1.49961 -2.87996 0
M  V30 7088 H 668.792 -4.94504 -1.53903 0
M  V30 7089 H 665.469 -2.85217 -3.0489 0
M  V30 7090 H 666.859 -6.56182 -1.4448 0
M  V30 7091 N 669.579 0.400081 -1.52437 0
M  V30 7092 C 670.825 1.14788 -1.67187 0
M  V30 7093 C 671.158 1.89928 -0.405074 0
M  V30 7094 O 670.433 1.85118 0.596804 0
M  V30 7095 C 670.716 2.13507 -2.89977 0
M  V30 7096 C 670.569 1.42204 -4.2673 0
M  V30 7097 C 671.888 3.14069 -3.083 0
M  V30 7098 H 669.007 0.415939 -0.608411 0
M  V30 7099 H 671.649 0.432542 -1.85011 0
M  V30 7100 H 669.799 2.7451 -2.74912 0
M  V30 7101 H 671.471 0.842503 -4.53541 0
M  V30 7102 H 669.714 0.723939 -4.27717 0
M  V30 7103 H 670.385 2.14281 -5.08712 0
M  V30 7104 H 672.861 2.63148 -3.22323 0
M  V30 7105 H 671.737 3.80398 -3.95713 0
M  V30 7106 H 671.998 3.82309 -2.22018 0
M  V30 7107 N 671.057 1.43213 0.657864 0
M  V30 7108 C 671.967 1.50448 1.80007 0
M  V30 7109 C 672.983 0.39191 1.69529 0
M  V30 7110 O 674.159 0.645349 1.90781 0
M  V30 7111 C 671.224 1.42062 3.16258 0
M  V30 7112 C 670.285 2.63951 3.38568 0
M  V30 7113 C 669.518 2.55956 4.68318 0
M  V30 7114 O 669.741 1.60473 5.47361 0
M  V30 7115 O 668.675 3.46378 4.92245 0
M  V30 7116 H 672.501 2.4689 1.76858 0
M  V30 7117 H 670.086 1.25163 0.81576 0
M  V30 7118 H 671.968 1.3981 3.97531 0
M  V30 7119 H 670.643 0.487524 3.20008 0
M  V30 7120 H 669.55 2.71776 2.57077 0
M  V30 7121 H 670.883 3.56217 3.39662 0
M  V30 7122 N 672.536 -0.895792 1.29666 0
M  V30 7123 C 673.782 -1.64921 1.19049 0
M  V30 7124 C 674.137 -1.90707 -0.254678 0
M  V30 7125 O 673.43 -1.5092 -1.18041 0
M  V30 7126 C 673.624 -3.00075 1.94139 0
M  V30 7127 C 673.453 -2.87482 3.4581 0
M  V30 7128 C 672.223 -2.88041 4.15163 0
M  V30 7129 C 674.421 -2.64224 4.41237 0
M  V30 7130 N 672.403 -2.66226 5.5317 0
M  V30 7131 C 673.774 -2.51427 5.66732 0
M  V30 7132 C 675.829 -2.49362 4.30956 0
M  V30 7133 C 674.532 -2.25281 6.83111 0
M  V30 7134 C 676.558 -2.246 5.47091 0
M  V30 7135 C 675.92 -2.12571 6.7156 0
M  V30 7136 H 672.019 -0.608926 0.490646 0
M  V30 7137 H 674.603 -1.05648 1.63544 0
M  V30 7138 H 672.774 -3.574 1.52052 0
M  V30 7139 H 674.506 -3.64544 1.75754 0
M  V30 7140 H 671.261 -2.99471 3.66898 0
M  V30 7141 H 671.685 -2.58361 6.25762 0
M  V30 7142 H 676.327 -2.57403 3.35415 0
M  V30 7143 H 674.045 -2.15978 7.78704 0
M  V30 7144 H 677.631 -2.13939 5.41037 0
M  V30 7145 H 676.511 -1.93676 7.59907 0
M  V30 7146 N 674.014 -1.12206 -1.10668 0
M  V30 7147 C 675.26 -0.877172 -1.82848 0
M  V30 7148 C 675.593 0.595571 -1.84842 0
M  V30 7149 O 674.868 1.44013 -1.30731 0
M  V30 7150 C 675.151 -1.44957 -3.29635 0
M  V30 7151 C 675.004 -2.99051 -3.35989 0
M  V30 7152 C 676.323 -1.10714 -4.25946 0
M  V30 7153 H 673.442 -0.320103 -0.663854 0
M  V30 7154 H 676.084 -1.38827 -1.2972 0
M  V30 7155 H 674.234 -1.01488 -3.7501 0
M  V30 7156 H 675.906 -3.51182 -2.99113 0
M  V30 7157 H 674.149 -3.34705 -2.75962 0
M  V30 7158 H 674.82 -3.34194 -4.39339 0
M  V30 7159 H 677.296 -1.48254 -3.88793 0
M  V30 7160 H 676.172 -1.5343 -5.2702 0
M  V30 7161 H 676.433 -0.019 -4.42096 0
M  V30 7162 N 675.492 1.28418 -0.913599 0
M  V30 7163 C 676.72 1.99106 -0.562536 0
M  V30 7164 C 677.135 1.68273 0.856137 0
M  V30 7165 O 676.492 0.935401 1.56705 0
M  V30 7166 C 676.543 3.5338 -0.761903 0
M  V30 7167 O 676.264 3.83127 -2.12475 0
M  V30 7168 C 677.765 4.41328 -0.417651 0
M  V30 7169 H 674.985 0.635798 -0.214481 0
M  V30 7170 H 677.529 1.63618 -1.22676 0
M  V30 7171 H 675.684 3.8713 -0.144676 0
M  V30 7172 H 676.098 4.77763 -2.16431 0
M  V30 7173 H 677.572 5.48642 -0.607919 0
M  V30 7174 H 678.049 4.34422 0.646108 0
M  V30 7175 H 678.655 4.13074 -1.01241 0
M  V30 7176 N 676.97 0.677563 1.42291 0
M  V30 7177 C 678.247 0.129803 1.95169 0
M  V30 7178 C 678.627 -1.35605 1.61786 0
M  V30 7179 O 677.975 -2.09361 0.915444 0
M  V30 7180 C 678.185 0.401889 3.46678 0
M  V30 7181 C 679.533 0.319889 4.23393 0
M  V30 7182 O 680.557 0.33579 3.54614 0
M  V30 7183 O 679.416 0.264459 5.4586 0
M  V30 7184 H 676.51 0.00447433 0.826988 0
M  V30 7185 H 679.056 0.752483 1.52105 0
M  V30 7186 H 677.828 1.43108 3.64192 0
M  V30 7187 H 677.451 -0.252662 3.96796 0
M  V30 7188 N 678.448 -1.51871 0.421078 0
M  V30 7189 C 679.398 -2.24171 -0.416111 0
M  V30 7190 C 680.382 -1.25763 -1.00362 0
M  V30 7191 O 681.574 -1.5094 -0.924452 0
M  V30 7192 C 678.703 -3.07533 -1.52571 0
M  V30 7193 C 677.789 -4.1336 -0.948399 0
M  V30 7194 N 678.18 -5.05704 -0.0987933 0
M  V30 7195 C 676.478 -4.29055 -1.21768 0
M  V30 7196 C 677.179 -5.8127 0.223705 0
M  V30 7197 N 676.155 -5.4221 -0.388524 0
M  V30 7198 H 679.957 -2.92925 0.239166 0
M  V30 7199 H 677.471 -1.60732 0.232191 0
M  V30 7200 H 679.468 -3.57893 -2.13819 0
M  V30 7201 H 678.128 -2.4032 -2.18349 0
M  V30 7202 H 679.139 -5.17214 0.266428 0
M  V30 7203 H 675.816 -3.73071 -1.87416 0
M  V30 7204 H 677.206 -6.65653 0.914076 0
M  V30 7205 N 679.926 -0.151884 -1.56866 0
M  V30 7206 C 681.175 0.497992 -1.95456 0
M  V30 7207 C 681.488 1.6569 -1.03953 0
M  V30 7208 O 682.694 2.37173 -1.32142 0
M  V30 7209 C 681.15 0.93732 -3.4748 0
M  V30 7210 C 680.758 -0.194921 -4.47576 0
M  V30 7211 C 682.502 1.55671 -3.94926 0
M  V30 7212 C 680.409 0.26295 -5.90815 0
M  V30 7213 H 679.339 0.189811 -0.729717 0
M  V30 7214 H 681.99 -0.237011 -1.81963 0
M  V30 7215 H 680.372 1.72773 -3.56322 0
M  V30 7216 H 681.546 -0.971951 -4.50433 0
M  V30 7217 H 679.861 -0.72303 -4.10075 0
M  V30 7218 H 682.458 1.91099 -4.99385 0
M  V30 7219 H 682.801 2.44748 -3.36755 0
M  V30 7220 H 683.334 0.831109 -3.89021 0
M  V30 7221 H 680.073 -0.592568 -6.52816 0
M  V30 7222 H 679.593 1.00575 -5.91308 0
M  V30 7223 H 681.272 0.713333 -6.43056 0
M  V30 7224 N 681.404 1.57128 0.121893 0
M  V30 7225 C 682.367 1.99197 1.13372 0
M  V30 7226 C 683.367 0.881728 1.3447 0
M  V30 7227 O 684.557 1.14783 1.31036 0
M  V30 7228 C 681.689 2.32963 2.4888 0
M  V30 7229 H 682.882 2.89788 0.772204 0
M  V30 7230 H 680.435 1.51952 0.366093 0
M  V30 7231 H 681.17 1.45243 2.89957 0
M  V30 7232 H 680.955 3.13934 2.34921 0
M  V30 7233 H 682.445 2.66261 3.21706 0
M  V30 7234 N 682.882 -0.391992 1.52647 0
M  V30 7235 C 684.112 -1.15692 1.71169 0
M  V30 7236 C 684.52 -1.84285 0.428444 0
M  V30 7237 O 683.863 -1.73393 -0.606669 0
M  V30 7238 C 683.925 -2.25033 2.80357 0
M  V30 7239 C 683.589 -1.76433 4.21569 0
M  V30 7240 C 684.586 -1.2427 5.0483 0
M  V30 7241 C 682.271 -1.82746 4.67877 0
M  V30 7242 C 684.265 -0.790657 6.32477 0
M  V30 7243 C 681.952 -1.37153 5.9551 0
M  V30 7244 C 682.95 -0.853997 6.7764 0
M  V30 7245 O 682.638 -0.404708 8.02881 0
M  V30 7246 H 682.37 -0.35297 0.576531 0
M  V30 7247 H 684.924 -0.464994 2.00067 0
M  V30 7248 H 683.154 -2.97641 2.46874 0
M  V30 7249 H 684.843 -2.86718 2.87311 0
M  V30 7250 H 685.609 -1.18752 4.70237 0
M  V30 7251 H 681.488 -2.21971 4.04042 0
M  V30 7252 H 685.032 -0.386024 6.96531 0
M  V30 7253 H 680.929 -1.42356 6.29607 0
M  V30 7254 H 681.697 -0.526459 8.16805 0
M  V30 7255 N 684.36 -1.4356 -0.65026 0
M  V30 7256 C 685.293 -1.434 -1.77515 0
M  V30 7257 C 686.271 -0.295082 -1.599 0
M  V30 7258 O 687.455 -0.489128 -1.82043 0
M  V30 7259 C 684.582 -1.2484 -3.14853 0
M  V30 7260 C 683.628 -2.42046 -3.51163 0
M  V30 7261 S 684.461 -4.04595 -3.50803 0
M  V30 7262 C 685.617 -3.88424 -4.90793 0
M  V30 7263 H 685.85 -2.38586 -1.77381 0
M  V30 7264 H 683.383 -1.30627 -0.823169 0
M  V30 7265 H 685.341 -1.14819 -3.94115 0
M  V30 7266 H 684.002 -0.311977 -3.12547 0
M  V30 7267 H 683.195 -2.24873 -4.51052 0
M  V30 7268 H 682.797 -2.48708 -2.79321 0
M  V30 7269 H 685.089 -3.50932 -5.79528 0
M  V30 7270 H 686.032 -4.88076 -5.13018 0
M  V30 7271 H 686.44 -3.20829 -4.64467 0
M  V30 7272 N 685.838 0.888903 -1.30139 0
M  V30 7273 C 687.085 1.64037 -1.18736 0
M  V30 7274 C 687.413 1.92771 0.258801 0
M  V30 7275 O 686.668 1.54427 1.20212 0
M  V30 7276 C 686.967 2.99041 -1.95728 0
M  V30 7277 C 686.633 2.89874 -3.45375 0
M  V30 7278 C 685.295 2.87082 -3.86183 0
M  V30 7279 C 687.647 2.78289 -4.40687 0
M  V30 7280 C 684.975 2.70536 -5.20603 0
M  V30 7281 C 687.327 2.63282 -5.75209 0
M  V30 7282 C 685.991 2.58861 -6.15262 0
M  V30 7283 H 685.261 0.600253 -0.434485 0
M  V30 7284 H 687.908 1.0338 -1.61198 0
M  V30 7285 H 686.213 3.63626 -1.45888 0
M  V30 7286 H 687.91 3.56139 -1.843 0
M  V30 7287 H 684.5 2.92856 -3.12943 0
M  V30 7288 H 688.684 2.79516 -4.10103 0
M  V30 7289 H 683.94 2.65526 -5.50732 0
M  V30 7290 H 688.114 2.5329 -6.48704 0
M  V30 7291 H 685.741 2.45799 -7.19366 0
M  V30 7292 N 687.317 1.12792 1.10072 0
M  V30 7293 C 688.264 0.79921 2.16521 0
M  V30 7294 C 689.234 -0.235726 1.64419 0
M  V30 7295 O 690.419 -0.109457 1.90486 0
M  V30 7296 C 687.559 0.264091 3.44088 0
M  V30 7297 C 686.672 1.35729 4.10124 0
M  V30 7298 C 685.807 0.781212 5.25424 0
M  V30 7299 C 684.846 1.85327 5.8337 0
M  V30 7300 N 683.983 1.29564 6.90042 0
M  V30 7301 H 688.823 1.71105 2.43981 0
M  V30 7302 H 686.36 0.854225 1.19756 0
M  V30 7303 H 688.318 -0.0642423 4.17151 0
M  V30 7304 H 686.948 -0.610901 3.16967 0
M  V30 7305 H 686 1.80234 3.34993 0
M  V30 7306 H 687.312 2.16782 4.4923 0
M  V30 7307 H 686.466 0.403769 6.05355 0
M  V30 7308 H 685.205 -0.0604686 4.87663 0
M  V30 7309 H 684.21 2.23986 5.02106 0
M  V30 7310 H 685.435 2.69824 6.23195 0
M  V30 7311 H 683.381 0.475844 6.54272 0
M  V30 7312 H 683.298 2.04271 7.2788 0
M  V30 7313 H 684.566 0.945545 7.73744 0
M  V30 7314 N 688.795 -1.27931 0.920396 0
M  V30 7315 C 689.743 -2.29061 0.404191 0
M  V30 7316 C 690.737 -1.61615 -0.507634 0
M  V30 7317 O 691.943 -1.75765 -0.388144 0
M  V30 7318 H 688.318 -0.743594 0.112123 0
M  V30 7319 H 690.289 -2.70021 1.27008 0
M  V30 7320 C 689.038 -3.46088 -0.334466 0
M  V30 7321 H 688.361 -3.98194 0.35797 0
M  V30 7322 H 689.801 -4.18829 -0.660196 0
M  V30 7323 C 688.26 -2.99396 -1.54479 0
M  V30 7324 O 688.79 -3.02439 -2.64374 0
M  V30 7325 N 686.996 -2.54978 -1.39408 0
M  V30 7326 H 686.543 -2.52701 -0.500009 0
M  V30 7327 H 686.501 -2.24098 -2.20516 0
M  V30 7328 N 690.273 -0.685099 -1.4193 0
M  V30 7329 C 691.521 -0.21124 -2.00993 0
M  V30 7330 C 691.842 1.18985 -1.54491 0
M  V30 7331 O 691.112 1.8009 -0.771 0
M  V30 7332 H 689.692 -0.0751059 -0.743215 0
M  V30 7333 H 692.354 -0.883915 -1.73704 0
M  V30 7334 H 691.45 -0.220513 -3.1132 0
M  V30 7335 N 691.751 1.51645 -0.429126 0
M  V30 7336 C 692.681 2.30434 0.377148 0
M  V30 7337 C 693.662 1.35493 1.02838 0
M  V30 7338 O 694.847 1.6441 1.03359 0
M  V30 7339 C 691.977 3.14038 1.48315 0
M  V30 7340 C 690.931 4.1719 0.955855 0
M  V30 7341 C 690.257 4.89263 2.15698 0
M  V30 7342 C 691.557 5.223 -0.00402136 0
M  V30 7343 H 693.251 2.98085 -0.280336 0
M  V30 7344 H 690.797 1.43354 -0.136265 0
M  V30 7345 H 692.75 3.67933 2.05435 0
M  V30 7346 H 691.474 2.44193 2.16881 0
M  V30 7347 H 690.133 3.64335 0.406929 0
M  V30 7348 H 689.781 4.15929 2.82864 0
M  V30 7349 H 689.481 5.59009 1.81059 0
M  V30 7350 H 691.005 5.45978 2.73387 0
M  V30 7351 H 692.419 5.71315 0.476607 0
M  V30 7352 H 690.816 5.99525 -0.26258 0
M  V30 7353 H 691.886 4.75638 -0.943236 0
M  V30 7354 N 693.229 0.160201 1.56784 0
M  V30 7355 C 694.457 -0.494165 2.00912 0
M  V30 7356 C 694.872 -1.57548 1.04038 0
M  V30 7357 O 694.229 -1.82457 0.0394581 0
M  V30 7358 C 694.28 -1.08271 3.44905 0
M  V30 7359 O 694.001 -0.0445704 4.38077 0
M  V30 7360 C 695.502 -1.8164 4.04378 0
M  V30 7361 H 692.722 -0.127498 0.658776 0
M  V30 7362 H 695.266 0.258665 2.02858 0
M  V30 7363 H 693.421 -1.78609 3.4377 0
M  V30 7364 H 693.835 -0.477544 5.22322 0
M  V30 7365 H 695.309 -2.18094 5.07089 0
M  V30 7366 H 695.786 -2.70727 3.45838 0
M  V30 7367 H 696.392 -1.15969 4.09184 0
M  V30 7368 N 694.707 -1.5719 -0.113559 0
M  V30 7369 C 696.123 -1.52607 -0.467253 0
M  V30 7370 C 696.323 -0.874058 -1.81556 0
M  V30 7371 O 695.379 -0.458703 -2.48299 0
M  V30 7372 C 696.692 -2.97363 -0.446736 0
M  V30 7373 C 698.24 -3.08482 -0.529903 0
M  V30 7374 C 698.715 -4.54809 -0.539721 0
M  V30 7375 N 700.206 -4.59284 -0.601005 0
M  V30 7376 C 700.941 -5.69927 -0.630138 0
M  V30 7377 N 700.437 -6.90051 -0.616589 0
M  V30 7378 N 702.23 -5.5805 -0.673558 0
M  V30 7379 H 694.381 -1.97958 0.769819 0
M  V30 7380 H 696.644 -0.90428 0.284572 0
M  V30 7381 H 696.35 -3.48458 0.47643 0
M  V30 7382 H 696.224 -3.55086 -1.27254 0
M  V30 7383 H 698.611 -2.57386 -1.44349 0
M  V30 7384 H 698.692 -2.53744 0.323695 0
M  V30 7385 H 698.336 -5.06552 0.369843 0
M  V30 7386 H 698.266 -5.07364 -1.41028 0
M  V30 7387 H 700.757 -3.72822 -0.617419 0
M  V30 7388 H 701.07 -7.70132 -0.641592 0
M  V30 7389 H 699.415 -6.92543 -0.583927 0
M  V30 7390 H 702.606 -4.63112 -0.681544 0
M  V30 7391 H 702.779 -6.44286 -0.692794 0
M  V30 7392 N 696.185 0.383891 -1.52853 0
M  V30 7393 C 697.41 1.154 -1.7233 0
M  V30 7394 C 697.835 1.82809 -0.44298 0
M  V30 7395 O 697.193 1.71026 0.601645 0
M  V30 7396 C 697.241 2.17386 -2.87708 0
M  V30 7397 O 696.345 3.24082 -2.55038 0
M  V30 7398 H 695.686 0.335709 -0.572883 0
M  V30 7399 H 698.216 0.44662 -1.99666 0
M  V30 7400 H 698.226 2.61296 -3.1335 0
M  V30 7401 H 696.901 1.6771 -3.80587 0
M  V30 7402 H 695.478 2.85273 -2.40153 0
M  V30 7403 N 697.663 1.43903 0.642637 0
M  V30 7404 C 698.573 1.52349 1.78401 0
M  V30 7405 C 699.589 0.409869 1.69104 0
M  V30 7406 O 700.765 0.665548 1.90085 0
M  V30 7407 C 697.83 1.45408 3.14734 0
M  V30 7408 C 696.891 2.67528 3.35749 0
M  V30 7409 C 696.124 2.60909 4.65577 0
M  V30 7410 O 696.347 1.6627 5.45628 0
M  V30 7411 O 695.281 3.5158 4.88544 0
M  V30 7412 H 699.107 2.48752 1.7423 0
M  V30 7413 H 696.692 1.26021 0.802439 0
M  V30 7414 H 698.574 1.44019 3.96026 0
M  V30 7415 H 697.249 0.521437 3.19473 0
M  V30 7416 H 696.156 2.74487 2.5418 0
M  V30 7417 H 697.489 3.598 3.35864 0
M  V30 7418 N 699.141 -0.881989 1.30609 0
M  V30 7419 C 700.104 -1.96957 1.1722 0
M  V30 7420 C 701.104 -1.60472 0.102598 0
M  V30 7421 O 702.294 -1.70628 0.350943 0
M  V30 7422 C 699.426 -3.31463 0.796572 0
M  V30 7423 H 700.619 -2.10262 2.13846 0
M  V30 7424 H 698.172 -1.06877 1.14048 0
M  V30 7425 H 698.907 -3.23859 -0.169053 0
M  V30 7426 H 698.692 -3.59314 1.56959 0
M  V30 7427 H 700.182 -4.11233 0.72645 0
M  V30 7428 N 700.619 -1.13374 -1.09472 0
M  V30 7429 C 701.865 -0.896516 -1.81908 0
M  V30 7430 C 702.198 0.575933 -1.85463 0
M  V30 7431 O 701.473 1.42618 -1.32251 0
M  V30 7432 C 701.756 -1.48445 -3.28079 0
M  V30 7433 C 701.609 -3.02598 -3.32798 0
M  V30 7434 C 702.928 -1.15226 -4.24748 0
M  V30 7435 H 700.047 -0.327127 -0.660422 0
M  V30 7436 H 702.689 -1.40195 -1.2824 0
M  V30 7437 H 700.839 -1.0546 -3.73912 0
M  V30 7438 H 702.511 -3.54335 -2.95372 0
M  V30 7439 H 700.754 -3.37613 -2.72397 0
M  V30 7440 H 701.425 -3.38835 -4.3577 0
M  V30 7441 H 703.901 -1.52369 -3.87199 0
M  V30 7442 H 702.777 -1.59012 -5.25363 0
M  V30 7443 H 703.038 -0.0658891 -4.42051 0
M  V30 7444 N 702.098 1.27442 -0.927168 0
M  V30 7445 C 703.028 2.29256 -0.443188 0
M  V30 7446 C 704.009 1.62701 0.49624 0
M  V30 7447 O 705.194 1.90013 0.401105 0
M  V30 7448 C 702.324 3.45955 0.305366 0
M  V30 7449 C 701.278 4.24501 -0.546178 0
M  V30 7450 C 700.604 5.33671 0.331512 0
M  V30 7451 C 701.904 4.89921 -1.81037 0
M  V30 7452 H 703.598 2.69988 -1.29409 0
M  V30 7453 H 701.144 1.29792 -0.623705 0
M  V30 7454 H 703.097 4.1628 0.654885 0
M  V30 7455 H 701.821 3.04138 1.19029 0
M  V30 7456 H 700.48 3.55921 -0.878398 0
M  V30 7457 H 700.128 4.88096 1.21537 0
M  V30 7458 H 699.828 5.87131 -0.234746 0
M  V30 7459 H 701.352 6.0684 0.676614 0
M  V30 7460 H 702.766 5.52536 -1.52895 0
M  V30 7461 H 701.163 5.53436 -2.32009 0
M  V30 7462 H 702.233 4.13652 -2.53021 0
M  V30 7463 N 703.576 0.692616 1.41565 0
M  V30 7464 C 704.486 0.0258451 2.34586 0
M  V30 7465 C 705.502 -0.769324 1.56069 0
M  V30 7466 O 706.678 -0.707563 1.88562 0
M  V30 7467 C 703.743 -0.901289 3.3478 0
M  V30 7468 C 702.804 -0.0986579 4.29187 0
M  V30 7469 C 702.037 -0.981634 5.24595 0
M  V30 7470 O 702.26 -2.22115 5.25377 0
M  V30 7471 O 701.194 -0.432892 6.00341 0
M  V30 7472 H 705.02 0.792537 2.93177 0
M  V30 7473 H 702.605 0.452935 1.42369 0
M  V30 7474 H 704.487 -1.43302 3.96286 0
M  V30 7475 H 703.162 -1.64752 2.78637 0
M  V30 7476 H 702.069 0.477604 3.71039 0
M  V30 7477 H 703.402 0.608848 4.8842 0
M  V30 7478 N 705.054 -1.51416 0.437162 0
M  V30 7479 C 706.001 -2.27743 -0.374374 0
M  V30 7480 C 706.971 -1.31327 -1.01698 0
M  V30 7481 O 708.156 -1.60229 -1.03592 0
M  V30 7482 C 705.296 -3.12241 -1.46969 0
M  V30 7483 C 704.409 -4.23651 -0.845236 0
M  V30 7484 C 703.544 -4.95458 -1.91559 0
M  V30 7485 C 702.583 -5.98789 -1.26956 0
M  V30 7486 N 701.72 -6.64005 -2.28126 0
M  V30 7487 H 706.56 -2.96654 0.282892 0
M  V30 7488 H 704.097 -1.46319 0.151352 0
M  V30 7489 H 706.055 -3.59556 -2.11602 0
M  V30 7490 H 704.685 -2.45445 -2.09659 0
M  V30 7491 H 703.737 -3.803 -0.0872059 0
M  V30 7492 H 705.049 -4.97683 -0.333582 0
M  V30 7493 H 704.203 -5.46321 -2.63854 0
M  V30 7494 H 702.942 -4.21055 -2.46097 0
M  V30 7495 H 701.947 -5.47219 -0.53207 0
M  V30 7496 H 703.172 -6.75149 -0.731509 0
M  V30 7497 H 701.118 -5.92415 -2.81745 0
M  V30 7498 H 701.035 -7.33802 -1.81852 0
M  V30 7499 H 702.303 -7.19498 -2.99905 0
M  V30 7500 N 706.532 -0.168513 -1.56696 0
M  V30 7501 C 707.442 0.775435 -2.21414 0
M  V30 7502 C 708.458 1.25529 -1.20492 0
M  V30 7503 O 709.634 1.30801 -1.53144 0
M  V30 7504 C 706.699 1.9886 -2.83999 0
M  V30 7505 C 705.76 1.5559 -4.00113 0
M  V30 7506 C 704.993 2.71124 -4.59704 0
M  V30 7507 O 705.216 3.87917 -4.18182 0
M  V30 7508 O 704.15 2.4536 -5.4962 0
M  V30 7509 H 707.976 0.254416 -3.02632 0
M  V30 7510 H 705.561 0.0595507 -1.49281 0
M  V30 7511 H 707.443 2.69816 -3.23693 0
M  V30 7512 H 706.118 2.49874 -2.05779 0
M  V30 7513 H 705.025 0.815924 -3.65094 0
M  V30 7514 H 706.358 1.09271 -4.79917 0
M  V30 7515 N 708.01 1.57248 0.105221 0
M  V30 7516 C 709.287 1.76566 0.841647 0
M  V30 7517 C 709.667 0.747566 1.9742 0
M  V30 7518 O 709.015 -0.225886 2.27381 0
M  V30 7519 C 709.225 3.22016 1.3456 0
M  V30 7520 C 710.573 3.84911 1.79244 0
M  V30 7521 O 711.597 3.25703 1.44207 0
M  V30 7522 O 710.456 4.89008 2.43995 0
M  V30 7523 H 707.55 0.723443 0.400698 0
M  V30 7524 H 710.096 1.69472 0.0878893 0
M  V30 7525 H 708.868 3.87644 0.533685 0
M  V30 7526 H 708.491 3.33703 2.16167 0
M  V30 7527 N 709.488 -0.375779 1.53054 0
M  V30 7528 C 710.398 -1.48381 1.81715 0
M  V30 7529 C 711.414 -1.59087 0.704795 0
M  V30 7530 O 712.59 -1.75174 0.993785 0
M  V30 7531 C 709.655 -2.83767 1.99192 0
M  V30 7532 C 708.716 -2.82673 3.23102 0
M  V30 7533 C 707.949 -4.11601 3.39736 0
M  V30 7534 O 708.172 -5.07243 2.60885 0
M  V30 7535 O 707.106 -4.18034 4.33049 0
M  V30 7536 H 710.932 -1.27089 2.7583 0
M  V30 7537 H 708.517 -0.564902 1.38308 0
M  V30 7538 H 710.399 -3.64004 2.12318 0
M  V30 7539 H 709.074 -3.05057 1.08267 0
M  V30 7540 H 707.981 -2.0117 3.15407 0
M  V30 7541 H 709.314 -2.66335 4.13916 0
M  V30 7542 N 710.966 -1.44241 -0.634997 0
M  V30 7543 C 712.212 -1.48033 -1.39492 0
M  V30 7544 C 712.567 -0.109791 -1.92086 0
M  V30 7545 O 711.86 0.874394 -1.70484 0
M  V30 7546 C 712.054 -2.47279 -2.58046 0
M  V30 7547 C 711.883 -3.93848 -2.17057 0
M  V30 7548 C 710.653 -4.62061 -2.04518 0
M  V30 7549 C 712.851 -4.83172 -1.76208 0
M  V30 7550 N 710.833 -5.93471 -1.57051 0
M  V30 7551 C 712.204 -6.03996 -1.39958 0
M  V30 7552 C 714.259 -4.70271 -1.63554 0
M  V30 7553 C 712.962 -7.13351 -0.923196 0
M  V30 7554 C 714.988 -5.79646 -1.1732 0
M  V30 7555 C 714.35 -6.99609 -0.820181 0
M  V30 7556 H 710.449 -0.596743 -0.505392 0
M  V30 7557 H 713.033 -1.80542 -0.72887 0
M  V30 7558 H 711.204 -2.16766 -3.22284 0
M  V30 7559 H 712.936 -2.41391 -3.24827 0
M  V30 7560 H 709.691 -4.1682 -2.24851 0
M  V30 7561 H 710.115 -6.63275 -1.35628 0
M  V30 7562 H 714.757 -3.77964 -1.8948 0
M  V30 7563 H 712.475 -8.0547 -0.651441 0
M  V30 7564 H 716.061 -5.71689 -1.07993 0
M  V30 7565 H 714.941 -7.82803 -0.467901 0
M  V30 7566 N 712.444 0.87505 -1.31075 0
M  V30 7567 C 713.69 1.63009 -1.20647 0
M  V30 7568 C 714.023 1.9276 0.236045 0
M  V30 7569 O 713.298 1.55559 1.16754 0
M  V30 7570 C 713.581 2.96357 -2.0456 0
M  V30 7571 C 713.434 2.73516 -3.57084 0
M  V30 7572 C 714.753 3.974 -1.89107 0
M  V30 7573 H 711.872 0.591518 -0.439631 0
M  V30 7574 H 714.514 1.0119 -1.60812 0
M  V30 7575 H 712.664 3.49119 -1.70435 0
M  V30 7576 H 714.336 2.27465 -4.01319 0
M  V30 7577 H 712.579 2.0784 -3.80769 0
M  V30 7578 H 713.25 3.68377 -4.11099 0
M  V30 7579 H 715.726 3.5383 -2.18961 0
M  V30 7580 H 714.602 4.88596 -2.5013 0
M  V30 7581 H 714.863 4.33794 -0.85296 0
M  V30 7582 N 713.922 1.13953 1.08869 0
M  V30 7583 C 714.832 0.835666 2.19212 0
M  V30 7584 C 715.848 -0.182005 1.73045 0
M  V30 7585 O 717.024 -0.0116661 2.01397 0
M  V30 7586 C 714.089 0.312325 3.4529 0
M  V30 7587 C 713.15 1.39196 4.06107 0
M  V30 7588 C 712.383 0.893496 5.26168 0
M  V30 7589 O 712.606 -0.266807 5.69776 0
M  V30 7590 O 711.54 1.67037 5.78258 0
M  V30 7591 H 715.366 1.75769 2.47667 0
M  V30 7592 H 712.951 0.917421 1.17914 0
M  V30 7593 H 714.833 0.0261582 4.21392 0
M  V30 7594 H 713.508 -0.582042 3.18424 0
M  V30 7595 H 712.415 1.73152 3.31616 0
M  V30 7596 H 713.748 2.26068 4.37212 0
M  V30 7597 N 715.4 -1.26948 0.933913 0
M  V30 7598 C 716.35 -2.24306 0.408779 0
M  V30 7599 C 717.334 -1.53243 -0.490435 0
M  V30 7600 O 718.526 -1.73956 -0.326866 0
M  V30 7601 C 715.655 -3.41695 -0.331578 0
M  V30 7602 C 714.741 -4.20053 0.58451 0
M  V30 7603 N 715.132 -4.76122 1.70709 0
M  V30 7604 C 713.43 -4.44303 0.388703 0
M  V30 7605 C 714.131 -5.35267 2.27737 0
M  V30 7606 N 713.107 -5.20548 1.56622 0
M  V30 7607 H 716.909 -2.65244 1.26582 0
M  V30 7608 H 714.423 -1.4195 0.788919 0
M  V30 7609 H 716.42 -4.10552 -0.724774 0
M  V30 7610 H 715.08 -3.02286 -1.18547 0
M  V30 7611 H 716.091 -4.73884 2.08937 0
M  V30 7612 H 712.768 -4.15341 -0.424016 0
M  V30 7613 H 714.158 -5.89563 3.22282 0
M  V30 7614 N 716.879 -0.700114 -1.41195 0
M  V30 7615 C 718.125 -0.233351 -2.01453 0
M  V30 7616 C 718.458 1.16548 -1.55339 0
M  V30 7617 O 717.733 1.78756 -0.766575 0
M  V30 7618 C 718.016 -0.2961 -3.58881 0
M  V30 7619 C 717.869 -1.7322 -4.15108 0
M  V30 7620 C 719.188 0.341525 -4.38773 0
M  V30 7621 H 716.307 -0.0862667 -0.731934 0
M  V30 7622 H 718.949 -0.889693 -1.67882 0
M  V30 7623 H 717.099 0.262736 -3.87611 0
M  V30 7624 H 718.771 -2.34523 -3.97236 0
M  V30 7625 H 717.014 -2.2649 -3.69979 0
M  V30 7626 H 717.685 -1.7276 -5.24269 0
M  V30 7627 H 720.161 -0.134461 -4.15883 0
M  V30 7628 H 719.037 0.267098 -5.4825 0
M  V30 7629 H 719.298 1.42289 -4.18577 0
M  V30 7630 N 718.357 1.51182 -0.445186 0
M  V30 7631 C 719.305 2.29531 0.376597 0
M  V30 7632 C 720.299 1.35711 1.01385 0
M  V30 7633 O 721.505 1.53018 0.947922 0
M  V30 7634 H 717.88 0.738803 0.140267 0
M  V30 7635 H 719.851 2.96838 -0.304958 0
M  V30 7636 C 718.6 3.1552 1.4609 0
M  V30 7637 H 717.923 3.87605 0.979912 0
M  V30 7638 H 719.363 3.73384 2.009 0
M  V30 7639 C 717.822 2.31406 2.44852 0
M  V30 7640 O 718.352 1.97912 3.49562 0
M  V30 7641 N 716.558 1.94478 2.15932 0
M  V30 7642 H 716.105 2.21917 1.30808 0
M  V30 7643 H 716.063 1.38498 2.82251 0
M  V30 7644 N 719.835 0.176821 1.56605 0
M  V30 7645 C 720.745 -0.763682 2.21822 0
M  V30 7646 C 721.761 -1.24889 1.21156 0
M  V30 7647 O 722.937 -1.29987 1.53836 0
M  V30 7648 C 720.002 -1.97352 2.8505 0
M  V30 7649 C 719.063 -1.53466 4.00932 0
M  V30 7650 C 718.296 -2.68682 4.61135 0
M  V30 7651 O 718.519 -3.85694 4.20234 0
M  V30 7652 O 717.453 -2.42442 5.50913 0
M  V30 7653 H 721.279 -0.238363 3.02763 0
M  V30 7654 H 718.864 -0.0516331 1.49311 0
M  V30 7655 H 720.746 -2.68096 3.25119 0
M  V30 7656 H 719.421 -2.48779 2.07101 0
M  V30 7657 H 718.328 -0.796551 3.65521 0
M  V30 7658 H 719.661 -1.06724 4.8049 0
M  V30 7659 N 721.313 -1.57302 -0.09688 0
M  V30 7660 C 722.562 -1.85183 -0.799388 0
M  V30 7661 C 722.875 -0.765818 -1.79985 0
M  V30 7662 O 724.081 -0.931696 -2.55013 0
M  V30 7663 C 722.537 -3.28399 -1.47249 0
M  V30 7664 C 722.145 -4.45066 -0.511888 0
M  V30 7665 C 723.889 -3.65506 -2.15883 0
M  V30 7666 C 721.796 -5.79315 -1.18948 0
M  V30 7667 H 720.726 -0.690752 -0.302287 0
M  V30 7668 H 723.377 -1.83425 -0.0523104 0
M  V30 7669 H 721.759 -3.24692 -2.26697 0
M  V30 7670 H 722.933 -4.60116 0.250962 0
M  V30 7671 H 721.248 -4.16343 0.0686576 0
M  V30 7672 H 723.845 -4.63087 -2.67309 0
M  V30 7673 H 724.188 -2.94041 -2.94696 0
M  V30 7674 H 724.721 -3.71094 -1.43298 0
M  V30 7675 H 721.46 -6.54007 -0.442198 0
M  V30 7676 H 720.98 -5.68111 -1.9238 0
M  V30 7677 H 722.659 -6.23816 -1.71646 0
M  V30 7678 N 722.791 0.367657 -1.53252 0
M  V30 7679 C 723.754 1.43308 -1.78873 0
M  V30 7680 C 724.754 1.46671 -0.659115 0
M  V30 7681 O 725.944 1.47468 -0.927306 0
M  V30 7682 C 723.076 2.82442 -1.90892 0
M  V30 7683 H 724.269 1.21864 -2.74024 0
M  V30 7684 H 721.822 0.600668 -1.44297 0
M  V30 7685 H 722.557 3.09202 -0.978 0
M  V30 7686 H 722.342 2.81399 -2.73051 0
M  V30 7687 H 723.832 3.59601 -2.12314 0
M  V30 7688 N 724.269 1.44576 0.627338 0
M  V30 7689 C 725.546 1.38033 1.38586 0
M  V30 7690 C 725.926 0.0409468 2.1106 0
M  V30 7691 O 725.274 -0.976582 2.0658 0
M  V30 7692 C 725.484 2.58102 2.34913 0
M  V30 7693 C 726.832 3.02332 2.98129 0
M  V30 7694 O 727.856 2.58334 2.45238 0
M  V30 7695 O 726.715 3.78628 3.94085 0
M  V30 7696 H 723.809 0.546801 0.620434 0
M  V30 7697 H 726.355 1.56672 0.652077 0
M  V30 7698 H 725.127 3.4719 1.80485 0
M  V30 7699 H 724.75 2.41696 3.15703 0
M  V30 7700 N 725.747 -0.868086 1.31537 0
M  V30 7701 C 726.657 -2.00801 1.21311 0
M  V30 7702 C 727.673 -1.73518 0.129431 0
M  V30 7703 O 728.849 -1.98378 0.347588 0
M  V30 7704 C 725.914 -3.3419 0.922935 0
M  V30 7705 C 724.975 -3.74783 2.0937 0
M  V30 7706 C 724.208 -5.01807 1.81728 0
M  V30 7707 O 724.431 -5.65404 0.753313 0
M  V30 7708 O 723.365 -5.39213 2.67457 0
M  V30 7709 H 727.191 -2.12361 2.17109 0
M  V30 7710 H 724.776 -0.996684 1.11295 0
M  V30 7711 H 726.658 -4.14174 0.777033 0
M  V30 7712 H 725.333 -3.237 -0.00500301 0
M  V30 7713 H 724.24 -2.95432 2.29501 0
M  V30 7714 H 725.573 -3.89902 3.00396 0
M  V30 7715 N 727.225 -1.14528 -1.08264 0
M  V30 7716 C 728.453 -0.937964 -1.84418 0
M  V30 7717 C 728.868 0.51357 -1.81681 0
M  V30 7718 O 728.225 1.35591 -1.22153 0
M  V30 7719 C 728.276 -1.43272 -3.31897 0
M  V30 7720 O 727.997 -2.82738 -3.34651 0
M  V30 7721 C 729.498 -1.26555 -4.24851 0
M  V30 7722 H 726.718 -0.333704 -0.582136 0
M  V30 7723 H 729.262 -1.52076 -1.36723 0
M  V30 7724 H 727.417 -0.892653 -3.76975 0
M  V30 7725 H 727.831 -3.04971 -4.26724 0
M  V30 7726 H 729.305 -1.66031 -5.26439 0
M  V30 7727 H 729.782 -0.208589 -4.38704 0
M  V30 7728 H 730.388 -1.79423 -3.856 0
M  V30 7729 N 728.703 1.26451 -0.940633 0
M  V30 7730 C 729.633 2.28773 -0.467479 0
M  V30 7731 C 730.614 1.63218 0.478955 0
M  V30 7732 O 731.799 1.90427 0.380929 0
M  V30 7733 C 728.929 3.46259 0.268656 0
M  V30 7734 C 727.883 4.23898 -0.591171 0
M  V30 7735 C 727.209 5.33993 0.274891 0
M  V30 7736 C 728.509 4.87974 -1.86223 0
M  V30 7737 H 730.203 2.68601 -1.32265 0
M  V30 7738 H 727.749 1.29123 -0.637436 0
M  V30 7739 H 729.702 4.16951 0.610696 0
M  V30 7740 H 728.426 3.05383 1.15796 0
M  V30 7741 H 727.085 3.54969 -0.916098 0
M  V30 7742 H 726.733 4.89358 1.16353 0
M  V30 7743 H 726.433 5.86849 -0.297006 0
M  V30 7744 H 727.957 6.07523 0.612213 0
M  V30 7745 H 729.371 5.50883 -1.58747 0
M  V30 7746 H 727.768 5.50945 -2.37866 0
M  V30 7747 H 728.838 4.10945 -2.57394 0
M  V30 7748 N 730.181 0.707592 1.40822 0
M  V30 7749 C 731.411 0.252706 2.05049 0
M  V30 7750 C 731.819 -1.10758 1.53393 0
M  V30 7751 O 731.162 -1.70567 0.682097 0
M  V30 7752 C 731.224 0.146001 3.59203 0
M  V30 7753 C 730.888 1.44027 4.33711 0
M  V30 7754 C 731.885 2.38058 4.62195 0
M  V30 7755 C 729.57 1.69698 4.72766 0
M  V30 7756 C 731.564 3.56013 5.28709 0
M  V30 7757 C 729.251 2.87936 5.39014 0
M  V30 7758 C 730.249 3.80915 5.66915 0
M  V30 7759 O 729.937 4.9708 6.31796 0
M  V30 7760 H 729.669 0.112784 0.666525 0
M  V30 7761 H 732.223 0.96417 1.81364 0
M  V30 7762 H 730.453 -0.621338 3.81676 0
M  V30 7763 H 732.142 -0.273275 4.04979 0
M  V30 7764 H 732.908 2.19487 4.32493 0
M  V30 7765 H 728.787 0.981835 4.50423 0
M  V30 7766 H 732.331 4.28604 5.50404 0
M  V30 7767 H 728.228 3.06419 5.68135 0
M  V30 7768 H 728.996 4.97053 6.50293 0
M  V30 7769 N 731.66 -1.50943 0.453197 0
M  V30 7770 C 733.071 -1.86699 -0.00619892 0
M  V30 7771 C 733.422 -1.3693 -1.40515 0
M  V30 7772 O 732.547 -0.726715 -2.03833 0
M  V30 7773 C 733.142 -3.38795 -0.018025 0
M  V30 7774 C 731.701 -3.74028 -0.421885 0
M  V30 7775 C 730.848 -2.74752 0.375087 0
M  V30 7776 H 733.799 -1.43942 0.668317 0
M  V30 7777 H 733.82 -3.71468 -0.824125 0
M  V30 7778 H 733.332 -3.74988 1.00028 0
M  V30 7779 H 731.433 -3.43431 -1.44521 0
M  V30 7780 H 731.546 -4.78908 -0.135664 0
M  V30 7781 H 729.91 -2.5414 -0.168794 0
M  V30 7782 H 730.693 -3.13787 1.39256 0
M  V30 7783 N 733.138 -0.185124 -1.56509 0
M  V30 7784 C 734.071 0.77877 -2.145 0
M  V30 7785 C 735.049 1.21649 -1.07891 0
M  V30 7786 O 736.233 1.30579 -1.35946 0
M  V30 7787 C 733.36 2.05048 -2.69579 0
M  V30 7788 C 732.406 1.75569 -3.88687 0
M  V30 7789 S 733.239 0.912642 -5.27666 0
M  V30 7790 C 734.395 2.19471 -5.8616 0
M  V30 7791 H 734.628 0.285751 -2.95924 0
M  V30 7792 H 732.161 0.0297417 -1.54371 0
M  V30 7793 H 734.119 2.78085 -3.01958 0
M  V30 7794 H 732.78 2.51462 -1.88216 0
M  V30 7795 H 731.973 2.69962 -4.25601 0
M  V30 7796 H 731.575 1.10619 -3.57267 0
M  V30 7797 H 733.867 3.14815 -5.99915 0
M  V30 7798 H 734.81 1.87005 -6.8296 0
M  V30 7799 H 735.218 2.31862 -5.14685 0
M  V30 7800 N 734.616 1.57351 0.0885366 0
M  V30 7801 C 735.844 1.90631 0.804196 0
M  V30 7802 C 736.259 0.779474 1.71958 0
M  V30 7803 O 735.616 -0.248179 1.80805 0
M  V30 7804 C 735.667 3.23568 1.61202 0
M  V30 7805 O 735.388 4.31917 0.733447 0
M  V30 7806 C 736.889 3.70753 2.43016 0
M  V30 7807 H 734.109 0.630501 0.229585 0
M  V30 7808 H 736.653 2.044 0.0638092 0
M  V30 7809 H 734.808 3.11377 2.30485 0
M  V30 7810 H 735.222 5.08297 1.29361 0
M  V30 7811 H 736.696 4.66447 2.9518 0
M  V30 7812 H 737.173 2.98922 3.2178 0
M  V30 7813 H 737.779 3.85834 1.7892 0
M  V30 7814 N 736.094 -0.359525 1.53444 0
M  V30 7815 C 737.057 -1.42357 1.7963 0
M  V30 7816 C 738.057 -1.46319 0.666884 0
M  V30 7817 O 739.247 -1.46974 0.935113 0
M  V30 7818 C 736.379 -2.81425 1.92387 0
M  V30 7819 H 737.572 -1.20409 2.74666 0
M  V30 7820 H 735.125 -0.593007 1.44614 0
M  V30 7821 H 735.86 -3.08679 0.994384 0
M  V30 7822 H 735.645 -2.79947 2.74539 0
M  V30 7823 H 737.135 -3.5847 2.14218 0
M  V30 7824 N 737.572 -1.44907 -0.619662 0
M  V30 7825 C 738.797 -1.52021 -1.41083 0
M  V30 7826 C 739.222 -0.14976 -1.87503 0
M  V30 7827 O 738.58 0.863303 -1.59426 0
M  V30 7828 C 738.628 -2.49911 -2.59955 0
M  V30 7829 O 737.732 -2.00857 -3.60181 0
M  V30 7830 H 737.073 -0.512912 -0.421684 0
M  V30 7831 H 739.603 -1.90149 -0.755282 0
M  V30 7832 H 739.613 -2.68323 -3.07354 0
M  V30 7833 H 738.288 -3.4945 -2.25516 0
M  V30 7834 H 736.865 -1.92265 -3.19513 0
M  V30 7835 N 739.05 0.861098 -1.31996 0
M  V30 7836 C 740.296 1.61707 -1.23379 0
M  V30 7837 C 740.651 1.91315 0.204026 0
M  V30 7838 O 739.944 1.53997 1.13998 0
M  V30 7839 C 740.138 2.94822 -2.02027 0
M  V30 7840 C 739.967 2.78212 -3.5331 0
M  V30 7841 C 738.737 2.76933 -4.22654 0
M  V30 7842 C 740.935 2.52432 -4.48088 0
M  V30 7843 N 738.917 2.51466 -5.60034 0
M  V30 7844 C 740.288 2.36312 -5.73198 0
M  V30 7845 C 742.343 2.37848 -4.37416 0
M  V30 7846 C 741.046 2.0709 -6.88844 0
M  V30 7847 C 743.072 2.10016 -5.52854 0
M  V30 7848 C 742.434 1.94691 -6.7696 0
M  V30 7849 H 738.533 0.595703 -0.506618 0
M  V30 7850 H 741.117 1.01275 -1.66287 0
M  V30 7851 H 739.288 3.53243 -1.61474 0
M  V30 7852 H 741.02 3.59756 -1.85358 0
M  V30 7853 H 737.775 2.89638 -3.74709 0
M  V30 7854 H 738.199 2.41679 -6.32392 0
M  V30 7855 H 742.841 2.4842 -3.42122 0
M  V30 7856 H 740.559 1.95256 -7.84156 0
M  V30 7857 H 744.145 1.99519 -5.46519 0
M  V30 7858 H 743.025 1.7346 -7.64775 0
M  V30 7859 N 740.528 1.15101 1.07655 0
M  V30 7860 C 741.758 0.946357 1.83651 0
M  V30 7861 C 742.166 -0.508641 1.82235 0
M  V30 7862 O 741.509 -1.36445 1.22997 0
M  V30 7863 C 741.571 1.37945 3.31981 0
M  V30 7864 C 741.235 2.85155 3.57122 0
M  V30 7865 C 742.232 3.83234 3.51323 0
M  V30 7866 C 739.917 3.2275 3.84887 0
M  V30 7867 C 741.911 5.16914 3.72932 0
M  V30 7868 C 739.598 4.56604 4.06148 0
M  V30 7869 C 740.596 5.53495 4.00165 0
M  V30 7870 O 740.284 6.84931 4.20861 0
M  V30 7871 H 740.016 0.336368 0.586372 0
M  V30 7872 H 742.57 1.53198 1.36819 0
M  V30 7873 H 740.8 0.737205 3.79608 0
M  V30 7874 H 742.489 1.14439 3.89434 0
M  V30 7875 H 743.255 3.55535 3.29878 0
M  V30 7876 H 739.134 2.47921 3.88659 0
M  V30 7877 H 742.678 5.92529 3.68178 0
M  V30 7878 H 738.575 4.84019 4.27078 0
M  V30 7879 H 739.343 6.91304 4.38226 0
M  V30 7880 N 742.006 -1.2595 0.947325 0
M  V30 7881 C 743.234 -1.97544 0.615127 0
M  V30 7882 C 743.649 -1.70484 -0.811221 0
M  V30 7883 O 743.006 -0.97662 -1.5417 0
M  V30 7884 C 743.057 -3.51236 0.855328 0
M  V30 7885 O 742.778 -3.77359 2.22558 0
M  V30 7886 C 744.279 -4.40066 0.534515 0
M  V30 7887 H 741.499 -0.629888 0.231263 0
M  V30 7888 H 744.043 -1.60308 1.26971 0
M  V30 7889 H 742.198 -3.8661 0.247266 0
M  V30 7890 H 742.612 -4.71857 2.29022 0
M  V30 7891 H 744.086 -5.46838 0.753168 0
M  V30 7892 H 744.563 -4.35982 -0.530701 0
M  V30 7893 H 745.169 -4.10245 1.12158 0
M  V30 7894 N 743.484 -0.715051 -1.40445 0
M  V30 7895 C 744.732 -0.253826 -2.005 0
M  V30 7896 C 745.053 1.15681 -1.5698 0
M  V30 7897 O 744.323 1.78414 -0.809027 0
M  V30 7898 H 742.903 -0.0908537 -0.741454 0
M  V30 7899 H 745.565 -0.920561 -1.7179 0
M  V30 7900 H 744.661 -0.286499 -3.10782 0
M  V30 7901 N 744.962 1.50701 -0.461195 0
M  V30 7902 C 745.925 2.2686 0.326679 0
M  V30 7903 C 746.925 1.31243 0.929085 0
M  V30 7904 O 748.115 1.54754 0.799807 0
M  V30 7905 C 745.247 3.07844 1.46441 0
M  V30 7906 H 746.44 2.97954 -0.341095 0
M  V30 7907 H 743.993 1.54814 -0.214984 0
M  V30 7908 H 744.728 2.41223 2.16753 0
M  V30 7909 H 744.513 3.78101 1.03836 0
M  V30 7910 H 746.003 3.65469 2.02044 0
M  V30 7911 N 746.441 0.193421 1.56409 0
M  V30 7912 C 747.389 -0.744829 2.20352 0
M  V30 7913 C 748.383 -1.22104 1.17418 0
M  V30 7914 O 749.589 -1.18413 1.35567 0
M  V30 7915 H 745.964 -0.258538 0.70616 0
M  V30 7916 H 747.935 -0.181794 2.97846 0
M  V30 7917 C 746.684 -1.95453 2.87565 0
M  V30 7918 H 746.007 -1.59716 3.66512 0
M  V30 7919 H 747.447 -2.58942 3.35745 0
M  V30 7920 C 745.906 -2.79223 1.8851 0
M  V30 7921 O 746.436 -3.77093 1.38434 0
M  V30 7922 N 744.642 -2.44682 1.56777 0
M  V30 7923 H 744.189 -1.65153 1.97692 0
M  V30 7924 H 744.147 -3.01016 0.907573 0
M  V30 7925 N 747.919 -1.57396 -0.0801906 0
M  V30 7926 C 749.165 -1.87113 -0.782083 0
M  V30 7927 C 749.498 -0.78458 -1.77646 0
M  V30 7928 O 748.773 0.205993 -1.93406 0
M  V30 7929 C 749.056 -3.27483 -1.49756 0
M  V30 7930 C 748.909 -4.46782 -0.520171 0
M  V30 7931 C 750.228 -3.65965 -2.44454 0
M  V30 7932 H 747.347 -0.680559 -0.282858 0
M  V30 7933 H 749.989 -1.89946 -0.0454139 0
M  V30 7934 H 748.139 -3.25199 -2.12551 0
M  V30 7935 H 749.811 -4.61187 0.101919 0
M  V30 7936 H 748.054 -4.33485 0.165219 0
M  V30 7937 H 748.725 -5.41761 -1.05824 0
M  V30 7938 H 751.201 -3.69289 -1.91742 0
M  V30 7939 H 750.077 -4.65086 -2.91524 0
M  V30 7940 H 750.338 -2.95446 -3.28883 0
M  V30 7941 N 749.397 0.351382 -1.53633 0
M  V30 7942 C 750.808 0.927429 -1.62036 0
M  V30 7943 C 751.159 1.89809 -0.496706 0
M  V30 7944 O 750.284 2.1313 0.374749 0
M  V30 7945 C 750.879 1.68886 -2.93706 0
M  V30 7946 C 749.438 2.21404 -3.04397 0
M  V30 7947 C 748.585 1.03075 -2.57431 0
M  V30 7948 H 751.536 0.129748 -1.58169 0
M  V30 7949 H 751.557 2.55116 -2.82305 0
M  V30 7950 H 751.069 0.982149 -3.75467 0
M  V30 7951 H 749.17 2.95274 -2.27253 0
M  V30 7952 H 749.283 2.48312 -4.09729 0
M  V30 7953 H 747.647 1.40188 -2.12649 0
M  V30 7954 H 748.43 0.338793 -3.41624 0
M  V30 7955 N 750.875 1.45233 0.611969 0
M  V30 7956 C 752.123 1.48727 1.36838 0
M  V30 7957 C 752.444 0.128616 1.94575 0
M  V30 7958 O 751.714 -0.84149 1.76906 0
M  V30 7959 H 750.294 0.547695 0.507976 0
M  V30 7960 H 752.956 1.81156 0.718925 0
M  V30 7961 H 752.052 2.2236 2.19003 0
M  V30 7962 N 752.353 -0.854086 1.3245 0
M  V30 7963 C 753.3 -1.96271 1.21434 0
M  V30 7964 C 754.27 -1.6582 0.0963851 0
M  V30 7965 O 755.455 -1.88851 0.27203 0
M  V30 7966 C 752.595 -3.31939 0.943952 0
M  V30 7967 C 751.708 -3.74885 2.14675 0
M  V30 7968 C 750.843 -4.99347 1.81179 0
M  V30 7969 C 749.882 -5.34785 2.97777 0
M  V30 7970 N 749.019 -6.50425 2.6437 0
M  V30 7971 H 753.859 -2.05025 2.16261 0
M  V30 7972 H 751.396 -1.00348 1.07558 0
M  V30 7973 H 753.354 -4.10076 0.767675 0
M  V30 7974 H 751.984 -3.22784 0.0324763 0
M  V30 7975 H 751.036 -2.92396 2.43328 0
M  V30 7976 H 752.348 -3.97068 3.01891 0
M  V30 7977 H 751.502 -5.85193 1.60107 0
M  V30 7978 H 750.241 -4.79101 0.911777 0
M  V30 7979 H 749.246 -4.47451 3.1948 0
M  V30 7980 H 750.471 -5.56988 3.88511 0
M  V30 7981 H 748.417 -6.31695 1.7691 0
M  V30 7982 H 748.334 -6.7263 3.45116 0
M  V30 7983 H 749.602 -7.39422 2.46729 0
M  V30 7984 N 753.831 -1.1567 -1.07043 0
M  V30 7985 C 755.242 -0.942408 -1.61169 0
M  V30 7986 C 755.593 0.515537 -1.89306 0
M  V30 7987 O 754.718 1.38726 -1.66084 0
M  V30 7988 C 755.313 -1.70431 -2.92812 0
M  V30 7989 C 753.872 -1.53521 -3.43669 0
M  V30 7990 C 753.019 -1.7179 -2.17678 0
M  V30 7991 H 755.97 -1.3065 -0.9009 0
M  V30 7992 H 755.991 -1.17566 -3.61882 0
M  V30 7993 H 755.503 -2.76538 -2.72302 0
M  V30 7994 H 753.604 -0.498224 -3.69254 0
M  V30 7995 H 753.717 -2.31422 -4.19501 0
M  V30 7996 H 752.081 -1.14468 -2.27529 0
M  V30 7997 H 752.864 -2.79269 -1.99659 0
M  V30 7998 N 755.309 1.25446 -0.953992 0
M  V30 7999 C 756.725 1.4539 -0.658316 0
M  V30 8000 C 756.925 1.85607 0.784356 0
M  V30 8001 O 755.981 1.98568 1.55972 0
M  V30 8002 C 757.294 2.52643 -1.6307 0
M  V30 8003 C 758.842 2.66484 -1.64181 0
M  V30 8004 C 759.317 3.76921 -2.60182 0
M  V30 8005 N 760.808 3.84331 -2.58542 0
M  V30 8006 C 761.543 4.69271 -3.29503 0
M  V30 8007 N 761.039 5.58503 -4.09934 0
M  V30 8008 N 762.832 4.6323 -3.18393 0
M  V30 8009 H 754.983 0.976337 -1.8863 0
M  V30 8010 H 757.246 0.490343 -0.811337 0
M  V30 8011 H 756.952 2.29949 -2.66114 0
M  V30 8012 H 756.826 3.50547 -1.39271 0
M  V30 8013 H 759.213 2.88545 -0.618552 0
M  V30 8014 H 759.294 1.68982 -1.92038 0
M  V30 8015 H 758.938 3.55612 -3.62633 0
M  V30 8016 H 758.868 4.73906 -2.29609 0
M  V30 8017 H 761.359 3.20544 -2.0015 0
M  V30 8018 H 761.672 6.20241 -4.61 0
M  V30 8019 H 760.017 5.58214 -4.14032 0
M  V30 8020 H 763.208 3.92527 -2.5503 0
M  V30 8021 H 763.381 5.29204 -3.73961 0
M  V30 8022 N 756.787 0.722489 1.40064 0
M  V30 8023 C 758.033 0.265371 2.01056 0
M  V30 8024 C 758.366 -1.14062 1.57174 0
M  V30 8025 O 757.641 -1.77514 0.794916 0
M  V30 8026 C 757.924 0.353157 3.58364 0
M  V30 8027 C 757.777 1.79802 4.123 0
M  V30 8028 C 759.096 -0.271677 4.39261 0
M  V30 8029 H 756.215 0.0979002 0.730469 0
M  V30 8030 H 758.857 0.916289 1.66446 0
M  V30 8031 H 757.007 -0.201037 3.87979 0
M  V30 8032 H 758.679 2.40813 3.93455 0
M  V30 8033 H 756.922 2.32348 3.66329 0
M  V30 8034 H 757.593 1.81079 5.21454 0
M  V30 8035 H 760.069 0.200607 4.15616 0
M  V30 8036 H 758.945 -0.179843 5.48605 0
M  V30 8037 H 759.206 -1.35611 4.20787 0
M  V30 8038 N 758.265 -1.50454 0.469181 0
M  V30 8039 C 759.512 -2.02315 -0.086469 0
M  V30 8040 C 759.84 -1.3513 -1.39893 0
M  V30 8041 O 759.095 -0.465341 -1.90087 0
M  V30 8042 C 759.394 -3.55963 -0.320207 0
M  V30 8043 C 759.06 -4.41615 0.910318 0
M  V30 8044 C 757.722 -4.64743 1.2477 0
M  V30 8045 C 760.074 -4.91661 1.72971 0
M  V30 8046 C 757.402 -5.35161 2.40457 0
M  V30 8047 C 759.754 -5.6335 2.87785 0
M  V30 8048 C 758.418 -5.84732 3.2194 0
M  V30 8049 H 757.688 -0.740324 -0.0316412 0
M  V30 8050 H 760.335 -1.81087 0.622872 0
M  V30 8051 H 758.64 -3.75695 -1.11177 0
M  V30 8052 H 760.337 -3.93653 -0.764071 0
M  V30 8053 H 756.927 -4.23833 0.637467 0
M  V30 8054 H 761.111 -4.73649 1.48224 0
M  V30 8055 H 756.367 -5.49924 2.67196 0
M  V30 8056 H 760.541 -6.0111 3.51624 0
M  V30 8057 H 758.168 -6.39074 4.1169 0
M  V30 8058 N 759.743 -0.201713 -1.56304 0
M  V30 8059 C 760.676 0.755976 -2.15314 0
M  V30 8060 C 761.654 1.20497 -1.09175 0
M  V30 8061 O 762.838 1.2913 -1.37323 0
M  V30 8062 C 759.965 2.02177 -2.71739 0
M  V30 8063 C 759.011 1.71436 -3.90528 0
M  V30 8064 S 759.844 0.856624 -5.28604 0
M  V30 8065 C 761 2.13242 -5.88455 0
M  V30 8066 H 761.233 0.254348 -2.9621 0
M  V30 8067 H 758.766 0.0133669 -1.54394 0
M  V30 8068 H 760.724 2.74867 -3.04891 0
M  V30 8069 H 759.385 2.49452 -1.90873 0
M  V30 8070 H 758.578 2.65433 -4.28441 0
M  V30 8071 H 758.18 1.06823 -3.5842 0
M  V30 8072 H 760.472 3.08435 -6.0322 0
M  V30 8073 H 761.415 1.7975 -6.84905 0
M  V30 8074 H 761.823 2.2639 -5.17115 0
M  V30 8075 N 761.222 1.57436 0.0718424 0
M  V30 8076 C 762.152 2.06724 1.08571 0
M  V30 8077 C 763.133 0.960731 1.40371 0
M  V30 8078 O 764.318 1.23345 1.49999 0
M  V30 8079 C 761.448 2.51112 2.39916 0
M  V30 8080 C 760.402 3.65639 2.22469 0
M  V30 8081 C 759.728 3.96082 3.59198 0
M  V30 8082 C 761.028 4.95687 1.64596 0
M  V30 8083 H 762.722 2.91679 0.675569 0
M  V30 8084 H 760.268 1.40319 0.32352 0
M  V30 8085 H 762.221 2.84206 3.11135 0
M  V30 8086 H 760.945 1.63186 2.8291 0
M  V30 8087 H 759.604 3.32828 1.53691 0
M  V30 8088 H 759.252 3.05287 3.99761 0
M  V30 8089 H 758.952 4.73199 3.48362 0
M  V30 8090 H 760.476 4.31672 4.31847 0
M  V30 8091 H 761.89 5.27011 2.25681 0
M  V30 8092 H 760.287 5.77126 1.64457 0
M  V30 8093 H 761.357 4.8108 0.60744 0
M  V30 8094 N 762.7 -0.34323 1.53817 0
M  V30 8095 C 763.93 -1.10188 1.74763 0
M  V30 8096 C 764.338 -1.82829 0.486856 0
M  V30 8097 O 763.681 -1.75236 -0.551198 0
M  V30 8098 C 763.743 -2.16 2.87375 0
M  V30 8099 C 763.407 -1.62931 4.26969 0
M  V30 8100 C 764.404 -1.08147 5.08528 0
M  V30 8101 C 762.089 -1.67769 4.73454 0
M  V30 8102 C 764.083 -0.589039 6.34672 0
M  V30 8103 C 761.77 -1.18138 5.99572 0
M  V30 8104 C 762.768 -0.637979 6.80014 0
M  V30 8105 O 762.456 -0.149073 8.03762 0
M  V30 8106 H 762.188 -0.33445 0.587469 0
M  V30 8107 H 764.742 -0.401109 2.01445 0
M  V30 8108 H 762.972 -2.89637 2.56218 0
M  V30 8109 H 764.661 -2.77432 2.96287 0
M  V30 8110 H 765.427 -1.03732 4.73777 0
M  V30 8111 H 761.306 -2.09004 4.10899 0
M  V30 8112 H 764.85 -0.164233 6.97407 0
M  V30 8113 H 760.747 -1.22254 6.33817 0
M  V30 8114 H 761.515 -0.266332 8.18067 0
M  V30 8115 N 764.178 -1.45556 -0.604258 0
M  V30 8116 C 765.424 -1.49968 -1.36519 0
M  V30 8117 C 765.757 -0.142236 -1.93678 0
M  V30 8118 O 765.032 0.843717 -1.75247 0
M  V30 8119 C 765.315 -2.58146 -2.51063 0
M  V30 8120 C 765.168 -4.03346 -1.99078 0
M  V30 8121 C 766.487 -2.62581 -3.53184 0
M  V30 8122 H 763.606 -0.545993 -0.495036 0
M  V30 8123 H 766.248 -1.77382 -0.680845 0
M  V30 8124 H 764.398 -2.34901 -3.09441 0
M  V30 8125 H 766.07 -4.37811 -1.45323 0
M  V30 8126 H 764.313 -4.13845 -1.30055 0
M  V30 8127 H 764.984 -4.74731 -2.81664 0
M  V30 8128 H 767.46 -2.83419 -3.04652 0
M  V30 8129 H 766.336 -3.40131 -4.30816 0
M  V30 8130 H 766.597 -1.67798 -4.09019 0
M  V30 8131 N 765.656 0.84705 -1.32902 0
M  V30 8132 C 766.904 1.5986 -1.2365 0
M  V30 8133 C 767.225 1.93974 0.199789 0
M  V30 8134 O 766.495 1.60273 1.12648 0
M  V30 8135 H 765.075 0.592696 -0.454665 0
M  V30 8136 H 767.737 1.01278 -1.66519 0
M  V30 8137 H 766.833 2.53218 -1.82448 0
M  V30 8138 N 767.134 1.16236 1.06428 0
M  V30 8139 C 768.382 0.941171 1.78847 0
M  V30 8140 C 768.703 -0.53248 1.87589 0
M  V30 8141 O 767.973 -1.38686 1.38358 0
M  V30 8142 H 766.553 0.345228 0.66244 0
M  V30 8143 H 769.215 1.46479 1.28569 0
M  V30 8144 H 768.311 1.35871 2.80972 0
M  V30 8145 N 768.612 -1.24939 0.960631 0
M  V30 8146 C 769.859 -1.92818 0.618663 0
M  V30 8147 C 770.187 -1.75177 -0.845173 0
M  V30 8148 O 769.442 -1.09412 -1.62258 0
M  V30 8149 C 769.741 -3.45066 0.930809 0
M  V30 8150 C 769.407 -3.82869 2.38164 0
M  V30 8151 C 768.069 -3.92899 2.7782 0
M  V30 8152 C 770.421 -4.01483 3.32356 0
M  V30 8153 C 767.749 -4.18955 4.10723 0
M  V30 8154 C 770.101 -4.29033 4.6488 0
M  V30 8155 C 768.765 -4.37282 5.04322 0
M  V30 8156 H 768.035 -0.705571 0.226385 0
M  V30 8157 H 770.682 -1.48365 1.21079 0
M  V30 8158 H 768.987 -3.9096 0.256355 0
M  V30 8159 H 770.684 -3.95783 0.644712 0
M  V30 8160 H 767.274 -3.75622 2.06413 0
M  V30 8161 H 771.458 -3.93143 3.02907 0
M  V30 8162 H 766.714 -4.23558 4.40918 0
M  V30 8163 H 770.888 -4.42381 5.3784 0
M  V30 8164 H 768.515 -4.57225 6.0733 0
M  V30 8165 N 770.09 -0.729906 -1.39679 0
M  V30 8166 C 771.04 -0.0627678 -2.27914 0
M  V30 8167 C 772.024 0.717867 -1.43998 0
M  V30 8168 O 773.216 0.587713 -1.66958 0
M  V30 8169 C 770.345 0.847564 -3.32673 0
M  V30 8170 C 769.431 0.0613515 -4.24056 0
M  V30 8171 N 769.822 -0.962863 -4.96551 0
M  V30 8172 C 768.12 0.291773 -4.45045 0
M  V30 8173 C 768.821 -1.43652 -5.63683 0
M  V30 8174 N 767.797 -0.756044 -5.38317 0
M  V30 8175 H 771.599 -0.847545 -2.81414 0
M  V30 8176 H 769.113 -0.563776 -1.523 0
M  V30 8177 H 771.11 1.34094 -3.94746 0
M  V30 8178 H 769.77 1.63156 -2.80732 0
M  V30 8179 H 770.781 -1.34409 -5.00154 0
M  V30 8180 H 767.458 1.05097 -4.04056 0
M  V30 8181 H 768.848 -2.28835 -6.31731 0
M  V30 8182 N 771.568 1.50203 -0.477153 0
M  V30 8183 C 772.984 1.59056 -0.131663 0
M  V30 8184 C 773.184 1.48473 1.36227 0
M  V30 8185 O 772.24 1.34635 2.13611 0
M  V30 8186 C 773.553 2.92741 -0.687254 0
M  V30 8187 C 775.101 3.0615 -0.651223 0
M  V30 8188 C 775.576 4.42419 -1.18446 0
M  V30 8189 N 777.067 4.48847 -1.14413 0
M  V30 8190 C 777.802 5.52689 -1.52717 0
M  V30 8191 N 777.298 6.63754 -1.98499 0
M  V30 8192 N 779.091 5.43267 -1.44282 0
M  V30 8193 H 771.242 1.55325 -1.44872 0
M  V30 8194 H 773.505 0.734395 -0.599473 0
M  V30 8195 H 773.211 3.0598 -1.73405 0
M  V30 8196 H 773.085 3.76961 -0.134215 0
M  V30 8197 H 775.472 2.92556 0.386677 0
M  V30 8198 H 775.553 2.23673 -1.24114 0
M  V30 8199 H 775.197 4.56763 -2.22103 0
M  V30 8200 H 775.127 5.23498 -0.570709 0
M  V30 8201 H 777.618 3.69152 -0.808416 0
M  V30 8202 H 777.931 7.39059 -2.25859 0
M  V30 8203 H 776.276 6.64858 -2.02456 0
M  V30 8204 H 779.467 4.55387 -1.08352 0
M  V30 8205 H 779.64 6.24074 -1.74459 0
M  V30 8206 N 773.046 0.209999 1.56195 0
M  V30 8207 C 774.276 -0.429373 2.02089 0
M  V30 8208 C 774.684 -1.54703 1.0892 0
M  V30 8209 O 774.027 -1.83485 0.0889535 0
M  V30 8210 C 774.089 -1.03266 3.44349 0
M  V30 8211 C 773.753 -0.0518873 4.56971 0
M  V30 8212 C 774.75 0.744249 5.14545 0
M  V30 8213 C 772.435 0.0635185 5.0226 0
M  V30 8214 C 774.429 1.64261 6.15871 0
M  V30 8215 C 772.116 0.965423 6.03426 0
M  V30 8216 C 773.114 1.75352 6.60106 0
M  V30 8217 O 772.802 2.64029 7.59305 0
M  V30 8218 H 772.534 -0.110604 0.66689 0
M  V30 8219 H 775.088 0.320436 2.02885 0
M  V30 8220 H 773.318 -1.83134 3.40586 0
M  V30 8221 H 775.007 -1.57823 3.73961 0
M  V30 8222 H 775.773 0.665476 4.80413 0
M  V30 8223 H 771.652 -0.539762 4.57829 0
M  V30 8224 H 775.196 2.25819 6.60039 0
M  V30 8225 H 771.093 1.04526 6.36981 0
M  V30 8226 H 771.861 2.57974 7.76783 0
M  V30 8227 N 774.524 -1.57472 -0.0634922 0
M  V30 8228 C 775.94 -1.54016 -0.418466 0
M  V30 8229 C 776.14 -0.931376 -1.78683 0
M  V30 8230 O 775.196 -0.537465 -2.46714 0
M  V30 8231 C 776.509 -2.98634 -0.351906 0
M  V30 8232 C 778.057 -3.10012 -0.431494 0
M  V30 8233 C 778.532 -4.56296 -0.394754 0
M  V30 8234 N 780.023 -4.60964 -0.454583 0
M  V30 8235 C 780.758 -5.71643 -0.448501 0
M  V30 8236 N 780.254 -6.91663 -0.396742 0
M  V30 8237 N 782.047 -5.5991 -0.495677 0
M  V30 8238 H 774.198 -1.95409 0.832408 0
M  V30 8239 H 776.461 -0.894769 0.313197 0
M  V30 8240 H 776.167 -3.46766 0.587048 0
M  V30 8241 H 776.041 -3.58955 -1.15893 0
M  V30 8242 H 778.428 -2.61848 -1.36087 0
M  V30 8243 H 778.509 -2.52585 0.404258 0
M  V30 8244 H 778.153 -5.05119 0.530811 0
M  V30 8245 H 778.083 -5.11594 -1.24815 0
M  V30 8246 H 780.574 -3.74598 -0.498496 0
M  V30 8247 H 780.887 -7.71783 -0.396256 0
M  V30 8248 H 779.232 -6.9405 -0.363304 0
M  V30 8249 H 782.423 -4.65046 -0.533864 0
M  V30 8250 H 782.596 -6.46164 -0.487469 0
M  V30 8251 N 776.003 0.335068 -1.53997 0
M  V30 8252 C 776.935 1.4327 -1.78903 0
M  V30 8253 C 777.948 1.48347 -0.670598 0
M  V30 8254 O 779.137 1.51277 -0.947494 0
M  V30 8255 C 776.237 2.81878 -1.88144 0
M  V30 8256 C 775.41 3.00141 -3.18174 0
M  V30 8257 C 774.469 4.19041 -3.18263 0
M  V30 8258 O 773.495 4.12751 -3.9195 0
M  V30 8259 N 774.697 5.28004 -2.41231 0
M  V30 8260 H 777.462 1.22272 -2.73623 0
M  V30 8261 H 775.023 0.524996 -1.53152 0
M  V30 8262 H 777.015 3.59609 -1.85644 0
M  V30 8263 H 775.585 2.9598 -1.00572 0
M  V30 8264 H 774.805 2.09808 -3.33728 0
M  V30 8265 H 776.093 3.0923 -4.04047 0
M  V30 8266 H 775.491 5.35986 -1.8093 0
M  V30 8267 H 774.048 6.04196 -2.44521 0
M  V30 8268 N 777.481 1.45874 0.596531 0
M  V30 8269 C 778.73 1.49737 1.35135 0
M  V30 8270 C 779.043 0.147755 1.95041 0
M  V30 8271 O 780.249 0.0640984 2.71424 0
M  V30 8272 C 778.705 2.6378 2.44843 0
M  V30 8273 C 778.313 4.05102 1.91301 0
M  V30 8274 C 780.057 2.769 3.21755 0
M  V30 8275 C 777.964 5.10508 2.98557 0
M  V30 8276 H 776.894 0.557219 0.507959 0
M  V30 8277 H 779.545 1.72046 0.638147 0
M  V30 8278 H 777.927 2.34774 3.189 0
M  V30 8279 H 779.101 4.43836 1.2388 0
M  V30 8280 H 777.416 3.96528 1.271 0
M  V30 8281 H 780.013 3.52819 4.01775 0
M  V30 8282 H 780.356 1.83924 3.73467 0
M  V30 8283 H 780.889 3.05485 2.54802 0
M  V30 8284 H 777.628 6.0523 2.51749 0
M  V30 8285 H 777.148 4.76332 3.6451 0
M  V30 8286 H 778.827 5.35745 3.62748 0
M  V30 8287 N 778.959 -0.83999 1.33349 0
M  V30 8288 C 780.199 -1.60888 1.26073 0
M  V30 8289 C 780.563 -1.91234 -0.17129 0
M  V30 8290 O 781.764 -2.66269 -0.36799 0
M  V30 8291 C 780.035 -2.88438 2.11042 0
M  V30 8292 S 781.594 -3.79116 2.20944 0
M  V30 8293 H 778.412 -0.55166 0.448545 0
M  V30 8294 H 781.014 -0.99359 1.68369 0
M  V30 8295 H 779.718 -2.64113 3.14121 0
M  V30 8296 H 779.249 -3.54974 1.69579 0
M  V30 8297 H 781.264 -4.76921 1.36969 0
M  V30 8298 N 780.437 -1.16799 -1.0581 0
M  V30 8299 C 781.714 -0.862616 -1.75551 0
M  V30 8300 C 782.094 0.6385 -2.01212 0
M  V30 8301 O 781.442 1.58784 -1.64317 0
M  V30 8302 C 781.652 -1.6907 -3.05314 0
M  V30 8303 C 783 -1.90675 -3.79379 0
M  V30 8304 O 784.024 -1.65976 -3.15167 0
M  V30 8305 O 782.883 -2.32145 -4.94743 0
M  V30 8306 H 779.977 -0.318789 -0.763088 0
M  V30 8307 H 782.523 -1.27461 -1.12034 0
M  V30 8308 H 781.295 -2.70912 -2.82352 0
M  V30 8309 H 780.918 -1.27606 -3.76567 0
M  V30 8310 N 781.915 1.24427 -0.967243 0
M  V30 8311 C 782.825 2.29109 -0.504592 0
M  V30 8312 C 783.841 1.68495 0.434224 0
M  V30 8313 O 785.017 1.99041 0.307379 0
M  V30 8314 C 782.082 3.46133 0.198273 0
M  V30 8315 C 781.143 4.22149 -0.780313 0
M  V30 8316 C 780.376 5.33585 -0.110896 0
M  V30 8317 O 780.599 5.59676 1.10088 0
M  V30 8318 O 779.533 5.96522 -0.802823 0
M  V30 8319 H 783.359 2.708 -1.37482 0
M  V30 8320 H 780.944 1.30111 -0.73426 0
M  V30 8321 H 782.826 4.17205 0.593124 0
M  V30 8322 H 781.501 3.0642 1.04347 0
M  V30 8323 H 780.408 3.53454 -1.22561 0
M  V30 8324 H 781.741 4.65677 -1.59392 0
M  V30 8325 N 783.393 0.737304 1.3929 0
M  V30 8326 C 784.639 0.286681 2.00763 0
M  V30 8327 C 784.972 -1.12388 1.58375 0
M  V30 8328 O 784.247 -1.76661 0.813699 0
M  V30 8329 C 784.53 0.391147 3.57969 0
M  V30 8330 C 784.383 1.84165 4.1037 0
M  V30 8331 C 785.702 -0.225072 4.39524 0
M  V30 8332 H 782.821 0.105642 0.729389 0
M  V30 8333 H 785.463 0.933892 1.65464 0
M  V30 8334 H 783.613 -0.159875 3.88171 0
M  V30 8335 H 785.285 2.44972 3.90879 0
M  V30 8336 H 783.528 2.3622 3.63844 0
M  V30 8337 H 784.199 1.866 5.19504 0
M  V30 8338 H 786.675 0.244677 4.1538 0
M  V30 8339 H 785.551 -0.121646 5.48765 0
M  V30 8340 H 785.812 -1.31141 4.22202 0
M  V30 8341 N 784.871 -1.49948 0.485112 0
M  V30 8342 C 785.834 -2.27351 -0.290546 0
M  V30 8343 C 786.834 -1.32704 -0.908087 0
M  V30 8344 O 788.024 -1.56007 -0.775085 0
M  V30 8345 C 785.156 -3.10135 -1.41524 0
M  V30 8346 H 786.349 -2.97374 0.388454 0
M  V30 8347 H 783.902 -1.54453 0.239586 0
M  V30 8348 H 784.637 -2.44641 -2.12888 0
M  V30 8349 H 784.422 -3.79705 -0.978074 0
M  V30 8350 H 785.912 -3.68638 -1.96204 0
M  V30 8351 N 786.349 -0.21828 -1.56081 0
M  V30 8352 C 787.312 0.679633 -2.18892 0
M  V30 8353 C 788.312 1.12405 -1.14986 0
M  V30 8354 O 789.502 1.03339 -1.40238 0
M  V30 8355 C 786.634 1.93063 -2.80962 0
M  V30 8356 H 787.827 0.132066 -2.99609 0
M  V30 8357 H 785.38 0.0313374 -1.56269 0
M  V30 8358 H 786.115 2.52015 -2.04106 0
M  V30 8359 H 785.9 1.62046 -3.57048 0
M  V30 8360 H 787.39 2.57043 -3.29118 0
M  V30 8361 N 787.827 1.57504 0.0551401 0
M  V30 8362 C 788.774 2.04825 1.06373 0
M  V30 8363 C 789.744 0.932108 1.37481 0
M  V30 8364 O 790.929 1.20093 1.48265 0
M  V30 8365 C 788.069 2.51091 2.36743 0
M  V30 8366 C 787.182 3.76392 2.12021 0
M  V30 8367 C 786.317 4.11373 3.36074 0
M  V30 8368 C 785.356 5.29666 3.0679 0
M  V30 8369 N 784.493 5.60205 4.2322 0
M  V30 8370 H 789.333 2.90753 0.653216 0
M  V30 8371 H 786.87 1.43776 0.310951 0
M  V30 8372 H 788.828 2.75973 3.12881 0
M  V30 8373 H 787.458 1.68118 2.75565 0
M  V30 8374 H 786.51 3.58751 1.26498 0
M  V30 8375 H 787.822 4.62662 1.86401 0
M  V30 8376 H 786.976 4.37245 4.20597 0
M  V30 8377 H 785.715 3.23704 3.64784 0
M  V30 8378 H 784.72 5.03574 2.20664 0
M  V30 8379 H 785.945 6.18968 2.79385 0
M  V30 8380 H 783.891 4.75495 4.5193 0
M  V30 8381 H 783.808 6.40928 4.00933 0
M  V30 8382 H 785.076 5.90637 5.08692 0
M  V30 8383 N 789.305 -0.326896 1.54172 0
M  V30 8384 C 790.553 -1.06313 1.71878 0
M  V30 8385 C 790.874 -1.88652 0.493498 0
M  V30 8386 O 790.144 -1.89608 -0.492522 0
M  V30 8387 H 788.724 -0.39549 0.633716 0
M  V30 8388 H 791.386 -0.364139 1.91468 0
M  V30 8389 H 790.482 -1.73105 2.59694 0
M  V30 8390 N 790.784 -1.46188 -0.588786 0
M  V30 8391 C 792.014 -1.54519 -1.3714 0
M  V30 8392 C 792.422 -0.183075 -1.88312 0
M  V30 8393 O 791.765 0.828815 -1.6394 0
M  V30 8394 C 791.827 -2.48426 -2.59856 0
M  V30 8395 C 791.491 -3.94791 -2.30193 0
M  V30 8396 C 792.488 -4.84173 -1.894 0
M  V30 8397 C 790.173 -4.39872 -2.42525 0
M  V30 8398 C 792.167 -6.16647 -1.61325 0
M  V30 8399 C 789.854 -5.72381 -2.14063 0
M  V30 8400 C 790.852 -6.60589 -1.73527 0
M  V30 8401 O 790.54 -7.9064 -1.4541 0
M  V30 8402 H 790.272 -0.525264 -0.425527 0
M  V30 8403 H 792.826 -1.92242 -0.723344 0
M  V30 8404 H 791.056 -2.05709 -3.27446 0
M  V30 8405 H 792.745 -2.4723 -3.21919 0
M  V30 8406 H 793.511 -4.50603 -1.79393 0
M  V30 8407 H 789.39 -3.71444 -2.7304 0
M  V30 8408 H 792.934 -6.85454 -1.29611 0
M  V30 8409 H 788.831 -6.05501 -2.23693 0
M  V30 8410 H 789.599 -8.02847 -1.59306 0
M  V30 8411 N 792.262 0.832906 -1.33792 0
M  V30 8412 C 793.172 1.97514 -1.26592 0
M  V30 8413 C 794.188 1.73114 -0.175391 0
M  V30 8414 O 795.364 1.97387 -0.400062 0
M  V30 8415 C 792.429 3.31625 -1.01121 0
M  V30 8416 C 791.49 3.69101 -2.19233 0
M  V30 8417 C 790.723 4.96813 -1.94968 0
M  V30 8418 O 790.946 5.63208 -0.902955 0
M  V30 8419 O 789.88 5.31932 -2.8166 0
M  V30 8420 H 793.706 2.0653 -2.22664 0
M  V30 8421 H 791.291 0.966826 -1.13898 0
M  V30 8422 H 793.173 4.11968 -0.886571 0
M  V30 8423 H 791.848 3.23599 -0.080822 0
M  V30 8424 H 790.755 2.89243 -2.37253 0
M  V30 8425 H 792.088 3.818 -3.10628 0
M  V30 8426 N 793.74 1.17359 1.05189 0
M  V30 8427 C 794.988 0.960087 1.77839 0
M  V30 8428 C 795.309 -0.512554 1.88143 0
M  V30 8429 O 794.579 -1.3721 1.39822 0
M  V30 8430 H 793.159 0.352234 0.658741 0
M  V30 8431 H 795.821 1.47834 1.27008 0
M  V30 8432 H 794.917 1.38843 2.79516 0
M  V30 8433 N 795.218 -1.23913 0.973828 0
M  V30 8434 C 796.465 -1.92151 0.639079 0
M  V30 8435 C 796.793 -1.76064 -0.826545 0
M  V30 8436 O 796.048 -1.11126 -1.61088 0
M  V30 8437 C 796.347 -3.4406 0.967356 0
M  V30 8438 C 796.013 -3.80321 2.42212 0
M  V30 8439 C 794.675 -3.8993 2.81971 0
M  V30 8440 C 797.027 -3.97935 3.36596 0
M  V30 8441 C 794.355 -4.14575 4.15144 0
M  V30 8442 C 796.707 -4.24079 4.69404 0
M  V30 8443 C 795.371 -4.31908 5.08932 0
M  V30 8444 H 794.641 -0.70313 0.233856 0
M  V30 8445 H 797.288 -1.47072 1.22646 0
M  V30 8446 H 795.593 -3.90667 0.297807 0
M  V30 8447 H 797.29 -3.95077 0.686654 0
M  V30 8448 H 793.88 -3.73411 2.10385 0
M  V30 8449 H 798.064 -3.89908 3.07059 0
M  V30 8450 H 793.32 -4.18858 4.45385 0
M  V30 8451 H 797.494 -4.36652 5.42502 0
M  V30 8452 H 795.121 -4.50758 6.12145 0
M  V30 8453 N 796.696 -0.74468 -1.38897 0
M  V30 8454 C 797.942 -0.297324 -2.00609 0
M  V30 8455 C 798.275 1.11547 -1.58968 0
M  V30 8456 O 797.55 1.76227 -0.823057 0
M  V30 8457 C 797.833 -0.410125 -3.57757 0
M  V30 8458 C 797.686 -1.86338 -4.09387 0
M  V30 8459 C 799.005 0.20176 -4.39637 0
M  V30 8460 H 796.124 -0.109509 -0.728819 0
M  V30 8461 H 798.766 -0.942653 -1.64967 0
M  V30 8462 H 796.916 0.139287 -3.8825 0
M  V30 8463 H 798.588 -2.47042 -3.89574 0
M  V30 8464 H 796.831 -2.38146 -3.62586 0
M  V30 8465 H 797.502 -1.89352 -5.18507 0
M  V30 8466 H 799.978 -0.266703 -4.15244 0
M  V30 8467 H 798.854 0.0925415 -5.48822 0
M  V30 8468 H 799.115 1.289 -4.22891 0
M  V30 8469 N 798.174 1.49689 -0.493057 0
M  V30 8470 C 799.104 2.31826 0.279073 0
M  V30 8471 C 800.085 1.39733 0.969987 0
M  V30 8472 O 801.27 1.68646 0.962925 0
M  V30 8473 C 798.4 3.20046 1.34862 0
M  V30 8474 C 797.354 4.20869 0.77805 0
M  V30 8475 C 796.68 4.97971 1.94753 0
M  V30 8476 C 797.98 5.21813 -0.225543 0
M  V30 8477 H 799.674 2.96627 -0.406512 0
M  V30 8478 H 797.22 1.42647 -0.196943 0
M  V30 8479 H 799.173 3.76315 1.89645 0
M  V30 8480 H 797.897 2.53172 2.06328 0
M  V30 8481 H 796.556 3.65733 0.252036 0
M  V30 8482 H 796.204 4.27552 2.64969 0
M  V30 8483 H 795.904 5.66186 1.57187 0
M  V30 8484 H 797.428 5.57082 2.49984 0
M  V30 8485 H 798.842 5.72823 0.233864 0
M  V30 8486 H 797.239 5.97872 -0.516622 0
M  V30 8487 H 798.309 4.71209 -1.14412 0
M  V30 8488 N 799.652 0.226554 1.55963 0
M  V30 8489 C 800.88 -0.408507 2.02827 0
M  V30 8490 C 801.295 -1.52994 1.10627 0
M  V30 8491 O 800.652 -1.82126 0.116809 0
M  V30 8492 C 800.703 -0.93545 3.49187 0
M  V30 8493 O 800.424 0.141273 4.37872 0
M  V30 8494 C 801.925 -1.64325 4.11719 0
M  V30 8495 H 799.145 -0.099442 0.66359 0
M  V30 8496 H 801.689 0.344471 2.01578 0
M  V30 8497 H 799.844 -1.63868 3.51036 0
M  V30 8498 H 800.258 -0.25558 5.23877 0
M  V30 8499 H 801.732 -1.9639 5.15883 0
M  V30 8500 H 802.209 -2.55815 3.57009 0
M  V30 8501 H 802.815 -0.9851 4.13734 0
M  V30 8502 O 801.169 -1.61246 0.0904713 0
M  V30 8503 H 801.86 -1.86788 -0.512833 0
M  V30 END ATOM
M  V30 BEGIN BOND
M  V30 END BOND
M  V30 END CTAB
M  END
$$$$
